# generated using pymatgen
data_Hf2Nb2Si3(SO8)3
_symmetry_space_group_name_H-M   'P 1'
_cell_length_a   8.98639189
_cell_length_b   8.94468267
_cell_length_c   23.02279726
_cell_angle_alpha   90.73404798
_cell_angle_beta   89.98138404
_cell_angle_gamma   120.06386548
_symmetry_Int_Tables_number   1
_chemical_formula_structural   Hf2Nb2Si3(SO8)3
_chemical_formula_sum   'Hf6 Nb6 Si9 S9 O72'
_cell_volume   1601.44767975
_cell_formula_units_Z   3
loop_
 _symmetry_equiv_pos_site_id
 _symmetry_equiv_pos_as_xyz
  1  'x, y, z'
loop_
 _atom_site_type_symbol
 _atom_site_label
 _atom_site_symmetry_multiplicity
 _atom_site_fract_x
 _atom_site_fract_y
 _atom_site_fract_z
 _atom_site_occupancy
  Hf  Hf0  1  0.99135498  0.00801645  0.35627827  1
  Hf  Hf1  1  0.01222895  0.01117192  0.85314608  1
  Hf  Hf2  1  0.66687151  0.33795927  0.69047886  1
  Hf  Hf3  1  0.67806852  0.34349866  0.18645224  1
  Hf  Hf4  1  0.32098651  0.66580067  0.02262189  1
  Hf  Hf5  1  0.34613378  0.67048689  0.52647934  1
  Nb  Nb0  1  0.98520534  0.01003429  0.64409965  1
  Nb  Nb1  1  0.01075053  0.01490021  0.13901478  1
  Nb  Nb2  1  0.65475846  0.33932064  0.97655433  1
  Nb  Nb3  1  0.67704810  0.33068082  0.48315046  1
  Nb  Nb4  1  0.33393705  0.67144710  0.31136717  1
  Nb  Nb5  1  0.34213698  0.68009402  0.80575977  1
  Si  Si0  1  0.99740247  0.28857430  0.25012477  1
  Si  Si1  1  0.28976425  0.28805173  0.74973684  1
  Si  Si2  1  0.71696937  0.00822570  0.75173188  1
  Si  Si3  1  0.96073082  0.33978289  0.58625559  1
  Si  Si4  1  0.67155127  0.62245593  0.58515633  1
  Si  Si5  1  0.95381939  0.62091215  0.08291818  1
  Si  Si6  1  0.38586279  0.34310324  0.08426798  1
  Si  Si7  1  0.32998113  0.95289495  0.91697667  1
  Si  Si8  1  0.62055644  0.95778443  0.41842719  1
  S  S0  1  0.28821638  0.00105086  0.25002800  1
  S  S1  1  0.71151776  0.71312383  0.24992832  1
  S  S2  1  0.00062453  0.71348081  0.74982342  1
  S  S3  1  0.37717218  0.04696897  0.58377822  1
  S  S4  1  0.66633376  0.04599866  0.08273528  1
  S  S5  1  0.62106368  0.66987242  0.91647711  1
  S  S6  1  0.04281391  0.37894958  0.91623518  1
  S  S7  1  0.33621589  0.38032949  0.41641142  1
  S  S8  1  0.04504704  0.66718661  0.41681251  1
  O  O0  1  0.20748380  0.02458015  0.30264267  1
  O  O1  1  0.82021635  0.79118546  0.30267268  1
  O  O2  1  0.97603284  0.16965021  0.30572129  1
  O  O3  1  0.19956462  0.17069126  0.80607230  1
  O  O4  1  0.97244722  0.79067311  0.80280000  1
  O  O5  1  0.82818459  0.02315614  0.80780778  1
  O  O6  1  0.80056413  0.96462731  0.69346714  1
  O  O7  1  0.16223629  0.19090473  0.69305083  1
  O  O8  1  0.03441468  0.82041948  0.69810993  1
  O  O9  1  0.78736678  0.81964930  0.19866301  1
  O  O10  1  0.02904836  0.19040171  0.19367768  1
  O  O11  1  0.17707094  0.96582769  0.19775899  1
  O  O12  1  0.86383870  0.36305507  0.63967648  1
  O  O13  1  0.48689931  0.12187679  0.63478757  1
  O  O14  1  0.63577012  0.49991526  0.63899528  1
  O  O15  1  0.86638267  0.50376289  0.13946783  1
  O  O16  1  0.63771401  0.12260336  0.13584594  1
  O  O17  1  0.49461834  0.35631034  0.14101173  1
  O  O18  1  0.47167011  0.30025916  0.02642819  1
  O  O19  1  0.82870180  0.52483414  0.02625045  1
  O  O20  1  0.70038923  0.15475173  0.03143971  1
  O  O21  1  0.45967211  0.15593569  0.53032524  1
  O  O22  1  0.69323521  0.52294792  0.52543218  1
  O  O23  1  0.83199118  0.30052923  0.52642791  1
  O  O24  1  0.54256171  0.69314884  0.96899062  1
  O  O25  1  0.15286500  0.45679122  0.96888855  1
  O  O26  1  0.31102236  0.83806421  0.97281620  1
  O  O27  1  0.52589370  0.83326473  0.47138735  1
  O  O28  1  0.30025881  0.45584544  0.46771727  1
  O  O29  1  0.15235199  0.69606099  0.46790445  1
  O  O30  1  0.12747681  0.63668069  0.36300572  1
  O  O31  1  0.49554822  0.85585690  0.35963971  1
  O  O32  1  0.36013035  0.48971126  0.36375761  1
  O  O33  1  0.12269397  0.48674753  0.86505429  1
  O  O34  1  0.36169695  0.85625357  0.86009446  1
  O  O35  1  0.51044859  0.63257658  0.86419050  1
  O  O36  1  0.02689492  0.81955172  0.40571114  1
  O  O37  1  0.80648503  0.97483947  0.40619403  1
  O  O38  1  0.18296667  0.20531246  0.40664551  1
  O  O39  1  0.02274946  0.20512529  0.90958654  1
  O  O40  1  0.16627339  0.97632882  0.90754102  1
  O  O41  1  0.79436253  0.81653166  0.90861603  1
  O  O42  1  0.97508560  0.16375064  0.59109580  1
  O  O43  1  0.20524354  0.02649247  0.59012564  1
  O  O44  1  0.84531226  0.81129056  0.59357887  1
  O  O45  1  0.97081466  0.81146564  0.09736665  1
  O  O46  1  0.82195897  0.02563055  0.09223948  1
  O  O47  1  0.19215968  0.16399381  0.09336554  1
  O  O48  1  0.68660318  0.16444867  0.73946552  1
  O  O49  1  0.47598697  0.31307524  0.74039835  1
  O  O50  1  0.85090604  0.54073139  0.74324980  1
  O  O51  1  0.68794989  0.53837620  0.24323425  1
  O  O52  1  0.83213778  0.30883874  0.24071850  1
  O  O53  1  0.45980841  0.14888781  0.24203458  1
  O  O54  1  0.63840958  0.50936562  0.92428496  1
  O  O55  1  0.87019025  0.35919444  0.92623951  1
  O  O56  1  0.50824561  0.14506883  0.92846969  1
  O  O57  1  0.63771567  0.14843906  0.42627272  1
  O  O58  1  0.48783459  0.36057704  0.42324697  1
  O  O59  1  0.87191686  0.51120139  0.42276068  1
  O  O60  1  0.35797767  0.50105260  0.07144625  1
  O  O61  1  0.14202102  0.64628997  0.07439625  1
  O  O62  1  0.51771797  0.87178989  0.07500288  1
  O  O63  1  0.35793875  0.87440530  0.57354006  1
  O  O64  1  0.50659292  0.64471553  0.57318667  1
  O  O65  1  0.14170558  0.50067122  0.56948061  1
  O  O66  1  0.30387681  0.84035861  0.25881830  1
  O  O67  1  0.53546222  0.69204245  0.25979910  1
  O  O68  1  0.17227494  0.48049114  0.26354571  1
  O  O69  1  0.30352382  0.47760835  0.76388379  1
  O  O70  1  0.15503454  0.69138351  0.75907333  1
  O  O71  1  0.52427656  0.82896636  0.76017796  1
loop_
_geom_bond_atom_site_label_1
_geom_bond_atom_site_label_2
_geom_bond_distance
_geom_bond_site_symmetry_2
Hf0 O37 1.918913 1_545
Hf0 O2 1.925272 1_555
Hf0 O38 2.080436 1_655
Hf0 O1 2.145064 1_545
Hf0 O36 2.197233 1_645
Hf0 O0 2.243617 1_655
Hf1 O3 1.917361 1_555
Hf1 O5 2.004502 1_455
Hf1 O40 2.006274 1_545
Hf1 O39 2.117810 1_555
Hf1 O4 2.143949 1_445
Hf1 O41 2.266115 1_445
Hf2 O49 1.983835 1_555
Hf2 O14 2.007856 1_555
Hf2 O48 2.008182 1_555
Hf2 O12 2.039279 1_555
Hf2 O50 2.107193 1_555
Hf2 O13 2.191166 1_555
Hf3 O15 1.922706 1_555
Hf3 O52 2.003757 1_555
Hf3 O17 2.004697 1_555
Hf3 O51 2.131181 1_555
Hf3 O16 2.148555 1_555
Hf3 O53 2.269205 1_555
Hf4 O61 1.939240 1_555
Hf4 O26 1.969932 1_554
Hf4 O60 2.019674 1_555
Hf4 O25 2.102395 1_554
Hf4 O62 2.157648 1_555
Hf4 O24 2.251060 1_554
Hf5 O64 1.905017 1_555
Hf5 O65 1.975778 1_555
Hf5 O27 2.006895 1_555
Hf5 O63 2.065830 1_555
Hf5 O28 2.197048 1_555
Hf5 O29 2.304768 1_555
Nb0 O6 1.882896 1_545
Nb0 O42 1.885791 1_555
Nb0 O7 1.947839 1_655
Nb0 O44 1.949955 1_545
Nb0 O43 2.277533 1_655
Nb0 O8 2.328989 1_645
Nb1 O47 1.843143 1_555
Nb1 O45 1.913263 1_445
Nb1 O10 1.940624 1_555
Nb1 O46 2.052853 1_455
Nb1 O11 2.220255 1_545
Nb1 O9 2.347919 1_445
Nb2 O18 1.892255 1_556
Nb2 O56 1.907251 1_555
Nb2 O19 1.964592 1_556
Nb2 O54 2.013471 1_555
Nb2 O55 2.186411 1_555
Nb2 O20 2.285265 1_556
Nb3 O23 1.840716 1_555
Nb3 O22 1.906018 1_555
Nb3 O57 1.966016 1_555
Nb3 O21 2.102739 1_555
Nb3 O59 2.197672 1_555
Nb3 O58 2.308956 1_555
Nb4 O31 1.902375 1_555
Nb4 O68 1.925298 1_555
Nb4 O66 2.067681 1_555
Nb4 O30 2.093401 1_555
Nb4 O67 2.095969 1_555
Nb4 O32 2.141619 1_555
Nb5 O71 1.845115 1_555
Nb5 O69 1.912076 1_555
Nb5 O34 1.936667 1_555
Nb5 O70 2.041225 1_555
Nb5 O35 2.222181 1_555
Nb5 O33 2.320559 1_555
O0 S0 1.477787 1_555
O1 S1 1.487264 1_555
O2 Si0 1.623835 1_555
O3 Si1 1.619529 1_555
O4 S2 1.477104 1_655
O5 Si2 1.595656 1_555
O6 Si2 1.671905 1_565
O7 Si1 1.657045 1_555
O8 S2 1.470576 1_555
O9 S1 1.463935 1_555
O10 Si0 1.661800 1_455
O11 S0 1.490220 1_565
O12 Si3 1.577486 1_555
O13 S3 1.455689 1_555
O14 Si4 1.588285 1_555
O15 Si5 1.618574 1_555
O16 S4 1.478404 1_555
O17 Si6 1.599059 1_555
O18 Si6 1.672434 1_555
O19 Si5 1.645885 1_555
O20 S4 1.471575 1_555
O21 S3 1.523233 1_555
O22 Si4 1.692071 1_555
O23 Si3 1.714817 1_555
O24 S5 1.463851 1_555
O25 S6 1.490494 1_555
O26 Si7 1.610929 1_555
O27 Si8 1.592378 1_555
O28 S7 1.467616 1_555
O29 S8 1.457260 1_555
O30 S8 1.533297 1_555
O31 Si8 1.693582 1_555
O32 S7 1.514099 1_555
O33 S6 1.472595 1_555
O34 Si7 1.661650 1_555
O35 S5 1.485504 1_555
O36 S8 1.476823 1_555
O37 Si8 1.624707 1_555
O38 S7 1.492963 1_555
O39 S6 1.478645 1_555
O40 Si7 1.601786 1_555
O41 S5 1.462165 1_555
O42 Si3 1.648116 1_555
O43 S3 1.469352 1_555
O44 Si4 1.636473 1_555
O45 Si5 1.662464 1_555
O46 S4 1.514398 1_555
O47 Si6 1.689611 1_555
O48 Si2 1.580842 1_555
O49 Si1 1.588249 1_555
O50 S2 1.460095 1_655
O51 S1 1.474428 1_555
O52 Si0 1.598844 1_555
O53 S0 1.457150 1_555
O54 S5 1.532530 1_555
O55 S6 1.488913 1_655
O56 Si7 1.679482 1_545
O57 Si8 1.641115 1_545
O58 S7 1.467803 1_555
O59 S8 1.488570 1_655
O60 Si6 1.584741 1_555
O61 Si5 1.602072 1_455
O62 S4 1.466762 1_565
O63 S3 1.480310 1_565
O64 Si4 1.615681 1_555
O65 Si3 1.591834 1_455
O66 S0 1.528676 1_565
O67 S1 1.514005 1_555
O68 Si0 1.672037 1_455
O69 Si1 1.664931 1_555
O70 S2 1.511914 1_555
O71 Si2 1.683198 1_565
