# generated using pymatgen
data_Na30Ca16Ta8Si15(S7O48)3
_symmetry_space_group_name_H-M   'P 1'
_cell_length_a   18.56161901
_cell_length_b   9.25979463
_cell_length_c   23.24934415
_cell_angle_alpha   89.93794579
_cell_angle_beta   90.18653029
_cell_angle_gamma   119.95198438
_symmetry_Int_Tables_number   1
_chemical_formula_structural   Na30Ca16Ta8Si15(S7O48)3
_chemical_formula_sum   'Na30 Ca16 Ta8 Si15 S21 O144'
_cell_volume   3462.31107242
_cell_formula_units_Z   1
loop_
 _symmetry_equiv_pos_site_id
 _symmetry_equiv_pos_as_xyz
  1  'x, y, z'
loop_
 _atom_site_type_symbol
 _atom_site_label
 _atom_site_symmetry_multiplicity
 _atom_site_fract_x
 _atom_site_fract_y
 _atom_site_fract_z
 _atom_site_occupancy
  Na  Na0  1  0.32912888  0.03036370  0.24930087  1
  Na  Na1  1  0.82816724  0.02722663  0.24996563  1
  Na  Na2  1  0.18307225  0.33703151  0.24996448  1
  Na  Na3  1  0.68144994  0.33838566  0.24882616  1
  Na  Na4  1  0.98532738  0.63039148  0.25063852  1
  Na  Na5  1  0.48527820  0.62151587  0.24020694  1
  Na  Na6  1  0.32785195  0.62825043  0.75106314  1
  Na  Na7  1  0.83150747  0.63155580  0.75184414  1
  Na  Na8  1  0.98507377  0.34602486  0.74273412  1
  Na  Na9  1  0.48449568  0.34655419  0.74179391  1
  Na  Na10  1  0.18020696  0.02658513  0.75051212  1
  Na  Na11  1  0.68222400  0.02740508  0.75055839  1
  Na  Na12  1  0.01122567  0.66782048  0.59236820  1
  Na  Na13  1  0.51119932  0.66676221  0.59116687  1
  Na  Na14  1  0.51173954  0.35507686  0.08738691  1
  Na  Na15  1  0.47908315  0.66968353  0.91583278  1
  Na  Na16  1  0.47991570  0.28881338  0.41862695  1
  Na  Na17  1  0.97931802  0.28833450  0.42032167  1
  Na  Na18  1  0.99695362  0.00961241  0.50850482  1
  Na  Na19  1  0.49801523  0.01045830  0.50790098  1
  Na  Na20  1  0.00071271  0.00126689  0.99660731  1
  Na  Na21  1  0.49660199  0.98468431  0.00307806  1
  Na  Na22  1  0.32677238  0.31886922  0.82443558  1
  Na  Na23  1  0.83620453  0.33685196  0.82514114  1
  Na  Na24  1  0.32992628  0.33636431  0.32430287  1
  Na  Na25  1  0.82566198  0.33162937  0.32689189  1
  Na  Na26  1  0.16647647  0.66544169  0.15720105  1
  Na  Na27  1  0.66379833  0.68214964  0.15552059  1
  Na  Na28  1  0.16294279  0.64431501  0.65760289  1
  Na  Na29  1  0.66376811  0.64531088  0.65675651  1
  Ca  Ca0  1  0.00005745  0.99436847  0.35050645  1
  Ca  Ca1  1  0.50160040  0.99435177  0.35034649  1
  Ca  Ca2  1  0.00057345  0.00204357  0.85176153  1
  Ca  Ca3  1  0.50060108  0.00839321  0.85035258  1
  Ca  Ca4  1  0.33335972  0.33013050  0.67929104  1
  Ca  Ca5  1  0.83368962  0.32951101  0.67896822  1
  Ca  Ca6  1  0.33377390  0.33704526  0.17823214  1
  Ca  Ca7  1  0.83370484  0.33383244  0.17820496  1
  Ca  Ca8  1  0.33139222  0.34064045  0.98514498  1
  Ca  Ca9  1  0.83503942  0.33678558  0.97997050  1
  Ca  Ca10  1  0.33355990  0.32336331  0.48660733  1
  Ca  Ca11  1  0.83318630  0.32274658  0.48705851  1
  Ca  Ca12  1  0.16687720  0.66547213  0.01884416  1
  Ca  Ca13  1  0.67081402  0.67630873  0.02015299  1
  Ca  Ca14  1  0.17043382  0.66661278  0.52079001  1
  Ca  Ca15  1  0.67065842  0.66670837  0.52046351  1
  Ta  Ta0  1  0.99911118  0.01307857  0.65587611  1
  Ta  Ta1  1  0.49841090  0.01242285  0.65640132  1
  Ta  Ta2  1  0.99958104  -0.00041480  0.15669404  1
  Ta  Ta3  1  0.49911500  0.98507360  0.15510897  1
  Ta  Ta4  1  0.16794184  0.66828870  0.30826571  1
  Ta  Ta5  1  0.66669967  0.66612434  0.30804212  1
  Ta  Ta6  1  0.16433268  0.66741001  0.80895737  1
  Ta  Ta7  1  0.66764820  0.66682191  0.80862897  1
  Si  Si0  1  0.14713520  0.99803043  0.25231668  1
  Si  Si1  1  0.64878568  0.00073738  0.25371192  1
  Si  Si2  1  0.35057571  0.70283023  0.25271782  1
  Si  Si3  1  0.85052515  0.70336261  0.25160710  1
  Si  Si4  1  0.00130931  0.29775981  0.25524367  1
  Si  Si5  1  0.50063680  0.29249507  0.25320171  1
  Si  Si6  1  0.14778029  0.29793649  0.75472908  1
  Si  Si7  1  0.64841087  0.29758131  0.75415509  1
  Si  Si8  1  0.00029699  0.70949528  0.74981737  1
  Si  Si9  1  0.50115450  0.70875338  0.75392191  1
  Si  Si10  1  0.34895315  0.99671517  0.75327459  1
  Si  Si11  1  0.85103229  0.99861361  0.75359532  1
  Si  Si12  1  0.48718250  0.32682847  0.58315855  1
  Si  Si13  1  0.98739323  0.32652421  0.58289693  1
  Si  Si14  1  0.48697778  0.64569858  0.08372627  1
  S  S0  1  0.17302916  0.02857927  0.58622272  1
  S  S1  1  0.67253243  0.02743647  0.58670927  1
  S  S2  1  0.34182049  0.65021419  0.58688601  1
  S  S3  1  0.84158734  0.65014426  0.58664260  1
  S  S4  1  0.98642825  0.65408425  0.08739419  1
  S  S5  1  0.33930161  0.02895025  0.08746338  1
  S  S6  1  0.84322109  0.03231917  0.08730768  1
  S  S7  1  0.17141151  0.31794269  0.08817349  1
  S  S8  1  0.67467918  0.31899754  0.08634319  1
  S  S9  1  0.30973780  0.66147917  0.91356910  1
  S  S10  1  0.80913767  0.66066682  0.91390454  1
  S  S11  1  0.02194897  0.38299781  0.91426786  1
  S  S12  1  0.52256690  0.38326379  0.91547969  1
  S  S13  1  0.16988380  0.95673124  0.91440848  1
  S  S14  1  0.66917858  0.95706883  0.91315477  1
  S  S15  1  0.30990364  0.95926128  0.41253419  1
  S  S16  1  0.81002042  0.95959812  0.41248122  1
  S  S17  1  0.16970878  0.38307180  0.41250814  1
  S  S18  1  0.66980975  0.38268523  0.41268188  1
  S  S19  1  0.02271747  0.66152375  0.41413337  1
  S  S20  1  0.52310138  0.66174401  0.41442232  1
  O  O0  1  0.11242685  0.04952600  0.30544086  1
  O  O1  1  0.61680578  0.05445331  0.30772033  1
  O  O2  1  0.40921025  0.77533397  0.30658240  1
  O  O3  1  0.91080323  0.77387966  0.30497083  1
  O  O4  1  0.48534096  0.19337683  0.31186905  1
  O  O5  1  0.98037860  0.19388931  0.31314512  1
  O  O6  1  0.11479057  0.17891797  0.80831511  1
  O  O7  1  0.61522405  0.17891630  0.80787765  1
  O  O8  1  0.48473326  0.77613049  0.81246468  1
  O  O9  1  0.97977913  0.78661157  0.80327210  1
  O  O10  1  0.40994064  0.04615411  0.80606518  1
  O  O11  1  0.91123310  0.04840352  0.80676440  1
  O  O12  1  0.39942003  0.96268930  0.69675234  1
  O  O13  1  0.90070529  0.96308805  0.69686297  1
  O  O14  1  0.07920236  0.19806410  0.69885877  1
  O  O15  1  0.57908207  0.19871819  0.69878354  1
  O  O16  1  0.01986479  0.83512676  0.69119442  1
  O  O17  1  0.51846250  0.83958501  0.69724944  1
  O  O18  1  0.40062716  0.83683362  0.19641830  1
  O  O19  1  0.90110346  0.83987601  0.19570871  1
  O  O20  1  0.01769732  0.19021562  0.20091984  1
  O  O21  1  0.51868621  0.19814013  0.19662000  1
  O  O22  1  0.07849169  0.96010586  0.19622210  1
  O  O23  1  0.57989461  0.96129563  0.19852845  1
  O  O24  1  0.44415958  0.35497481  0.63916979  1
  O  O25  1  0.94398080  0.35345940  0.63878077  1
  O  O26  1  0.21816937  0.10276803  0.63973047  1
  O  O27  1  0.71791208  0.10197239  0.64008194  1
  O  O28  1  0.32901801  0.55589901  0.64027257  1
  O  O29  1  0.82939590  0.55635798  0.64012486  1
  O  O30  1  0.44573299  0.53719825  0.14121257  1
  O  O31  1  0.95014516  0.56215822  0.14118853  1
  O  O32  1  0.32721507  0.09742741  0.14127639  1
  O  O33  1  0.83344363  0.10454111  0.14112260  1
  O  O34  1  0.21747962  0.33601582  0.14170022  1
  O  O35  1  0.71945462  0.33560944  0.14038838  1
  O  O36  1  0.21139092  0.29557133  0.03718035  1
  O  O37  1  0.71743942  0.29980574  0.03631181  1
  O  O38  1  0.43423874  0.57315209  0.02390845  1
  O  O39  1  0.93445983  0.56921709  0.03682853  1
  O  O40  1  0.34959850  0.13643821  0.03752491  1
  O  O41  1  0.85205029  0.13578917  0.03675680  1
  O  O42  1  0.21450567  0.13051479  0.53528002  1
  O  O43  1  0.71316707  0.12969074  0.53568119  1
  O  O44  1  0.35148706  0.56365636  0.53647615  1
  O  O45  1  0.85083143  0.56272435  0.53628685  1
  O  O46  1  0.43642801  0.29310613  0.52206086  1
  O  O47  1  0.93677527  0.29358653  0.52174097  1
  O  O48  1  0.26670720  0.66458528  0.96548223  1
  O  O49  1  0.76604198  0.66429273  0.96566545  1
  O  O50  1  0.06696552  0.46951103  0.96636158  1
  O  O51  1  0.56647618  0.46445561  0.96889076  1
  O  O52  1  0.16878781  0.86575896  0.96610417  1
  O  O53  1  0.66585948  0.86294472  0.96434494  1
  O  O54  1  0.26651705  0.86860804  0.46399987  1
  O  O55  1  0.76657660  0.86987005  0.46399924  1
  O  O56  1  0.16659271  0.47133449  0.46364488  1
  O  O57  1  0.66729391  0.47177294  0.46366103  1
  O  O58  1  0.06724680  0.66686903  0.46704129  1
  O  O59  1  0.56710514  0.66733573  0.46759736  1
  O  O60  1  0.07431582  0.65699741  0.36226928  1
  O  O61  1  0.57538493  0.65759855  0.36303436  1
  O  O62  1  0.25902075  0.85842952  0.35959252  1
  O  O63  1  0.76030758  0.85980810  0.35947474  1
  O  O64  1  0.17283328  0.48828071  0.35931153  1
  O  O65  1  0.67288996  0.48696652  0.35931626  1
  O  O66  1  0.07253593  0.48833913  0.86189970  1
  O  O67  1  0.57397368  0.49151414  0.86416765  1
  O  O68  1  0.17128020  0.85448835  0.86141301  1
  O  O69  1  0.67294102  0.86124477  0.86005255  1
  O  O70  1  0.26014839  0.66057851  0.86089297  1
  O  O71  1  0.75657634  0.65693033  0.86112035  1
  O  O72  1  0.01256571  0.80688578  0.41143243  1
  O  O73  1  0.51275404  0.80685013  0.41163201  1
  O  O74  1  0.39389353  0.97979808  0.41150991  1
  O  O75  1  0.89423013  0.98026489  0.41215782  1
  O  O76  1  0.09125648  0.22180556  0.41057761  1
  O  O77  1  0.59139463  0.22136368  0.41137240  1
  O  O78  1  0.01448329  0.21835139  0.91269961  1
  O  O79  1  0.51196495  0.21666834  0.91294148  1
  O  O80  1  0.09443275  0.96934339  0.91290681  1
  O  O81  1  0.59122498  0.96330453  0.91174756  1
  O  O82  1  0.39437157  0.80911647  0.91352604  1
  O  O83  1  0.89137815  0.81012368  0.91196667  1
  O  O84  1  0.49383928  0.15051416  0.59607020  1
  O  O85  1  0.99426728  0.15028811  0.59524610  1
  O  O86  1  0.08706975  0.00907554  0.58925626  1
  O  O87  1  0.58608713  0.00593816  0.59050253  1
  O  O88  1  0.42443008  0.81278866  0.59146170  1
  O  O89  1  0.92376397  0.81329268  0.59056489  1
  O  O90  1  0.49420319  0.83685139  0.09590818  1
  O  O91  1  0.99138215  0.82352849  0.09192285  1
  O  O92  1  0.42160593  0.02977133  0.09179055  1
  O  O93  1  0.92329300  0.02409211  0.09209126  1
  O  O94  1  0.08632895  0.16050153  0.09323521  1
  O  O95  1  0.58810867  0.16651415  0.09005008  1
  O  O96  1  0.32232873  0.13406030  0.74173479  1
  O  O97  1  0.82322155  0.13394909  0.74145918  1
  O  O98  1  0.24130625  0.34709638  0.73987059  1
  O  O99  1  0.74200318  0.34834724  0.73946349  1
  O  O100  1  0.42733687  0.52106412  0.74307464  1
  O  O101  1  0.92838543  0.51887114  0.74159746  1
  O  O102  1  0.32356814  0.51179552  0.24175465  1
  O  O103  1  0.82558453  0.51408340  0.23901805  1
  O  O104  1  0.42653979  0.33204687  0.24307191  1
  O  O105  1  0.93071838  0.34310902  0.24002040  1
  O  O106  1  0.24103991  0.13597101  0.23921250  1
  O  O107  1  0.74276146  0.13879591  0.23909632  1
  O  O108  1  0.31673514  0.50817895  0.91007132  1
  O  O109  1  0.81340972  0.50513842  0.91043418  1
  O  O110  1  0.44183161  0.38129715  0.91153783  1
  O  O111  1  0.93998871  0.37410545  0.91086552  1
  O  O112  1  0.24688735  0.12021702  0.91066830  1
  O  O113  1  0.74416567  0.12338108  0.91178737  1
  O  O114  1  0.31582707  0.12502232  0.40827572  1
  O  O115  1  0.81650711  0.12617410  0.40837222  1
  O  O116  1  0.24415843  0.36667553  0.41005097  1
  O  O117  1  0.74433630  0.36596605  0.41024280  1
  O  O118  1  0.44257215  0.50207449  0.40995912  1
  O  O119  1  0.94207312  0.50205469  0.40983677  1
  O  O120  1  0.15839191  0.46288089  0.08283874  1
  O  O121  1  0.66171901  0.46458883  0.08092794  1
  O  O122  1  0.07194201  0.68174717  0.08215029  1
  O  O123  1  0.57928326  0.66437957  0.08177608  1
  O  O124  1  0.26999300  0.85638783  0.08083499  1
  O  O125  1  0.77309088  0.86057374  0.08222162  1
  O  O126  1  0.16040303  0.85687273  0.58097070  1
  O  O127  1  0.66030014  0.85620899  0.58122167  1
  O  O128  1  0.27406529  0.68763056  0.58019919  1
  O  O129  1  0.77339171  0.68636876  0.58021523  1
  O  O130  1  0.07984883  0.49313962  0.58163021  1
  O  O131  1  0.57965511  0.49323456  0.58148689  1
  O  O132  1  0.14419826  0.81169281  0.26041579  1
  O  O133  1  0.64678928  0.81555908  0.26119997  1
  O  O134  1  0.26037406  0.71083705  0.25895603  1
  O  O135  1  0.76053802  0.70889448  0.25931752  1
  O  O136  1  0.09400326  0.48008288  0.25966648  1
  O  O137  1  0.59211144  0.48230629  0.25985613  1
  O  O138  1  0.14516992  0.47874302  0.76137750  1
  O  O139  1  0.64490023  0.47748700  0.76146366  1
  O  O140  1  0.09216006  0.70602692  0.75984694  1
  O  O141  1  0.59282348  0.70413903  0.76064626  1
  O  O142  1  0.25945824  0.80985903  0.76076085  1
  O  O143  1  0.76087473  0.81039474  0.76045512  1
loop_
_geom_bond_atom_site_label_1
_geom_bond_atom_site_label_2
_geom_bond_distance
_geom_bond_site_symmetry_2
Na0 O106 2.297477 1_555
Na0 O104 2.459913 1_555
Na0 O134 2.581324 1_545
Na0 O32 2.590867 1_555
Na0 O4 2.899795 1_555
Na1 O107 2.297054 1_555
Na1 O135 2.572441 1_545
Na1 O105 2.583444 1_555
Na1 O33 2.617896 1_555
Na1 O5 2.854048 1_555
Na1 O63 2.921393 1_545
Na1 O133 2.942754 1_545
Na1 O19 2.965595 1_545
Na2 O102 2.290097 1_555
Na2 O106 2.586408 1_555
Na2 O136 2.593965 1_555
Na2 O34 2.600028 1_555
Na2 O0 2.643528 1_555
Na2 O20 2.895601 1_555
Na2 O64 2.955891 1_555
Na3 O103 2.348053 1_555
Na3 O137 2.608039 1_555
Na3 O107 2.620079 1_555
Na3 O35 2.623757 1_555
Na3 O1 2.660793 1_555
Na3 O21 2.889448 1_555
Na3 O65 2.957295 1_555
Na4 O105 2.339273 1_555
Na4 O132 2.572761 1_655
Na4 O103 2.613679 1_555
Na4 O31 2.623264 1_555
Na4 O3 2.669229 1_555
Na5 O104 2.336607 1_555
Na5 O30 2.422016 1_555
Na5 O102 2.645486 1_555
Na5 O133 2.658516 1_555
Na5 O137 2.889279 1_555
Na5 O23 2.899886 1_555
Na5 O2 2.903584 1_555
Na6 O98 2.291018 1_555
Na6 O100 2.502459 1_555
Na6 O142 2.573885 1_555
Na6 O28 2.665086 1_555
Na6 O8 2.896210 1_555
Na7 O99 2.316944 1_555
Na7 O101 2.501200 1_555
Na7 O143 2.582969 1_555
Na7 O9 2.664960 1_555
Na7 O29 2.684936 1_555
Na8 O101 2.313210 1_555
Na8 O25 2.543177 1_555
Na8 O138 2.622009 1_655
Na8 O97 2.644089 1_555
Na8 O11 2.814665 1_555
Na8 O14 2.894005 1_655
Na8 O140 2.933091 1_655
Na9 O100 2.334522 1_555
Na9 O24 2.511100 1_555
Na9 O139 2.632789 1_555
Na9 O96 2.649156 1_555
Na9 O10 2.836561 1_555
Na9 O15 2.893200 1_555
Na9 O141 2.923725 1_555
Na10 O96 2.317907 1_555
Na10 O140 2.585676 1_545
Na10 O98 2.606703 1_555
Na10 O6 2.644825 1_555
Na10 O26 2.671967 1_555
Na11 O97 2.300525 1_555
Na11 O141 2.609587 1_545
Na11 O99 2.614787 1_555
Na11 O7 2.654788 1_555
Na11 O27 2.657687 1_555
Na11 O17 2.915779 1_545
Na11 O69 2.933782 1_545
Na12 O126 2.442430 1_555
Na12 O130 2.522179 1_555
Na12 O89 2.575830 1_455
Na12 O16 2.731706 1_555
Na12 O86 2.744172 1_565
Na12 O25 2.751303 1_455
Na12 O45 2.931733 1_455
Na13 O127 2.438350 1_555
Na13 O131 2.507689 1_555
Na13 O88 2.568481 1_555
Na13 O87 2.727108 1_565
Na13 O24 2.746624 1_555
Na13 O17 2.907401 1_555
Na13 O44 2.910072 1_555
Na14 O121 2.446271 1_555
Na14 O123 2.491284 1_555
Na14 O92 2.617517 1_555
Na14 O95 2.744563 1_555
Na14 O30 2.826447 1_555
Na14 O40 2.898017 1_555
Na14 O51 2.938113 1_554
Na14 O21 2.958878 1_555
Na15 O110 2.403220 1_555
Na15 O81 2.466492 1_555
Na15 O82 2.483697 1_555
Na15 O8 2.579033 1_555
Na15 O108 2.614009 1_555
Na15 O38 2.659183 1_556
Na16 O118 2.405366 1_555
Na16 O77 2.448111 1_555
Na16 O74 2.490313 1_545
Na16 O46 2.545773 1_555
Na16 O114 2.649175 1_555
Na16 O4 2.654605 1_555
Na17 O119 2.412016 1_555
Na17 O76 2.455487 1_655
Na17 O75 2.483640 1_545
Na17 O47 2.497298 1_555
Na17 O115 2.632264 1_555
Na17 O5 2.645077 1_555
Na18 O85 2.416096 1_555
Na18 O86 2.512069 1_655
Na18 O89 2.516635 1_545
Na18 O75 2.860618 1_545
Na18 O76 2.947902 1_655
Na18 O72 3.042692 1_645
Na19 O84 2.448896 1_555
Na19 O87 2.531788 1_555
Na19 O88 2.550144 1_545
Na19 O74 2.874595 1_545
Na19 O77 2.913852 1_555
Na19 O73 3.027727 1_545
Na20 O91 2.712832 1_446
Na20 O93 2.713475 1_456
Na20 O94 2.718569 1_556
Na20 O78 2.719077 1_555
Na20 O80 2.727122 1_545
Na20 O83 2.741980 1_445
Na21 O90 2.543076 1_555
Na21 O95 2.633977 1_565
Na21 O92 2.639494 1_565
Na21 O82 2.734908 1_554
Na21 O81 2.829328 1_554
Na21 O79 2.910297 1_564
Na22 O96 2.549000 1_555
Na22 O98 2.615922 1_555
Na22 O112 2.624797 1_555
Na22 O100 2.663346 1_555
Na22 O108 2.721706 1_555
Na22 O110 2.781694 1_555
Na23 O101 2.583781 1_555
Na23 O97 2.631735 1_555
Na23 O111 2.667422 1_555
Na23 O99 2.683144 1_555
Na23 O109 2.685174 1_555
Na23 O113 2.743305 1_555
Na24 O102 2.553291 1_555
Na24 O104 2.622599 1_555
Na24 O106 2.647382 1_555
Na24 O116 2.656250 1_555
Na24 O114 2.682060 1_555
Na24 O118 2.732769 1_555
Na25 O117 2.575794 1_555
Na25 O115 2.628378 1_555
Na25 O107 2.639400 1_555
Na25 O103 2.650129 1_555
Na25 O119 2.729952 1_555
Na25 O105 2.776917 1_555
Na26 O120 2.500789 1_555
Na26 O122 2.527937 1_555
Na26 O124 2.567770 1_555
Na26 O134 2.838101 1_555
Na26 O136 2.852573 1_555
Na26 O132 2.887238 1_555
Na27 O123 2.270000 1_555
Na27 O125 2.533539 1_555
Na27 O121 2.645188 1_555
Na27 O133 2.839641 1_555
Na27 O137 2.937969 1_555
Na27 O135 2.939097 1_555
Na28 O130 2.300001 1_555
Na28 O128 2.617301 1_555
Na28 O126 2.671137 1_555
Na28 O138 2.787942 1_555
Na28 O140 2.911414 1_555
Na28 O142 2.923887 1_555
Na29 O131 2.296768 1_555
Na29 O129 2.588686 1_555
Na29 O127 2.649383 1_555
Na29 O139 2.813838 1_555
Na29 O141 2.933374 1_555
Na29 O143 2.937096 1_555
Ca0 O3 2.156300 1_455
Ca0 O0 2.158319 1_565
Ca0 O5 2.229259 1_465
Ca0 O72 2.338639 1_555
Ca0 O76 2.383802 1_565
Ca0 O75 2.385771 1_455
Ca1 O2 2.146961 1_555
Ca1 O1 2.165379 1_565
Ca1 O4 2.199502 1_565
Ca1 O73 2.332206 1_555
Ca1 O77 2.387952 1_565
Ca1 O74 2.405451 1_555
Ca2 O9 2.152331 1_445
Ca2 O11 2.174228 1_455
Ca2 O6 2.177274 1_555
Ca2 O78 2.360751 1_555
Ca2 O83 2.375266 1_445
Ca2 O80 2.378549 1_545
Ca3 O10 2.142374 1_555
Ca3 O7 2.156568 1_555
Ca3 O8 2.204108 1_545
Ca3 O79 2.340783 1_555
Ca3 O81 2.392839 1_545
Ca3 O82 2.414529 1_545
Ca4 O24 2.166175 1_555
Ca4 O96 2.251865 1_555
Ca4 O98 2.282999 1_555
Ca4 O100 2.297172 1_555
Ca4 O26 2.312228 1_555
Ca4 O28 2.315935 1_555
Ca5 O25 2.161434 1_555
Ca5 O97 2.252246 1_555
Ca5 O101 2.279382 1_555
Ca5 O99 2.284164 1_555
Ca5 O27 2.311943 1_555
Ca5 O29 2.323109 1_555
Ca6 O30 2.157928 1_555
Ca6 O102 2.269029 1_555
Ca6 O106 2.291180 1_555
Ca6 O104 2.302620 1_555
Ca6 O34 2.312705 1_555
Ca6 O32 2.325916 1_555
Ca7 O103 2.250620 1_555
Ca7 O107 2.254140 1_555
Ca7 O105 2.268130 1_555
Ca7 O33 2.290176 1_555
Ca7 O35 2.300694 1_555
Ca7 O31 2.308081 1_555
Ca8 O38 2.231773 1_556
Ca8 O36 2.384822 1_556
Ca8 O40 2.408948 1_556
Ca8 O108 2.437157 1_555
Ca8 O112 2.533305 1_555
Ca8 O110 2.554093 1_555
Ca9 O39 2.410283 1_556
Ca9 O109 2.412532 1_555
Ca9 O111 2.417129 1_555
Ca9 O37 2.422638 1_556
Ca9 O41 2.426011 1_556
Ca9 O113 2.433928 1_555
Ca10 O46 2.219722 1_555
Ca10 O42 2.328997 1_555
Ca10 O44 2.381099 1_555
Ca10 O114 2.489528 1_555
Ca10 O118 2.584933 1_555
Ca10 O116 2.593523 1_555
Ca11 O47 2.219919 1_555
Ca11 O43 2.339198 1_555
Ca11 O45 2.373070 1_555
Ca11 O115 2.489295 1_555
Ca11 O117 2.589951 1_555
Ca11 O119 2.594467 1_555
Ca12 O50 2.202394 1_554
Ca12 O52 2.207720 1_554
Ca12 O48 2.236749 1_554
Ca12 O120 2.336257 1_555
Ca12 O124 2.339800 1_555
Ca12 O122 2.361504 1_555
Ca13 O123 2.186182 1_555
Ca13 O53 2.198124 1_554
Ca13 O49 2.225486 1_554
Ca13 O51 2.283815 1_554
Ca13 O125 2.313165 1_555
Ca13 O121 2.352353 1_555
Ca14 O130 2.172970 1_555
Ca14 O56 2.217160 1_555
Ca14 O54 2.258654 1_555
Ca14 O58 2.284503 1_555
Ca14 O128 2.292429 1_555
Ca14 O126 2.330392 1_555
Ca15 O131 2.178921 1_555
Ca15 O57 2.213199 1_555
Ca15 O55 2.257781 1_555
Ca15 O59 2.280573 1_555
Ca15 O129 2.288207 1_555
Ca15 O127 2.335700 1_555
O0 Si0 1.575155 1_545
O1 Si1 1.574001 1_555
O2 Si2 1.570625 1_555
O3 Si3 1.575017 1_555
O4 Si5 1.588405 1_555
O5 Si4 1.586089 1_655
O6 Si6 1.571558 1_555
O7 Si7 1.572588 1_555
O8 Si9 1.590323 1_555
O9 Si8 1.573543 1_655
O10 Si10 1.572300 1_545
O11 Si11 1.570689 1_545
O12 Si10 1.734147 1_555
O12 Ta1 1.906218 1_565
O13 Si11 1.734871 1_555
O13 Ta0 1.903885 1_565
O14 Si6 1.726033 1_555
O14 Ta0 1.895801 1_455
O15 Si7 1.722425 1_555
O15 Ta1 1.898333 1_555
O16 Si8 1.709014 1_555
O16 Ta0 2.041258 1_465
O17 Si9 1.708100 1_555
O17 Ta1 2.047210 1_565
O18 Si2 1.723188 1_555
O18 Ta3 1.910863 1_555
O19 Si3 1.728472 1_555
O19 Ta2 1.913019 1_565
O20 Si4 1.728318 1_555
O20 Ta2 1.922291 1_455
O21 Si5 1.704043 1_555
O21 Ta3 2.059635 1_545
O22 Si0 1.729439 1_555
O22 Ta2 1.910174 1_465
O23 Si1 1.714224 1_565
O23 Ta3 1.906578 1_555
O24 Si12 1.617645 1_555
O25 Si13 1.614874 1_555
O26 S0 1.463508 1_555
O27 S1 1.462935 1_555
O28 S2 1.467008 1_555
O29 S3 1.467913 1_555
O30 Si14 1.617867 1_555
O31 S4 1.474138 1_555
O32 S5 1.470810 1_555
O33 S6 1.473115 1_555
O34 S7 1.469187 1_555
O35 S8 1.469418 1_555
O36 S7 1.469322 1_555
O37 S8 1.470330 1_555
O38 Si14 1.637126 1_555
O39 S4 1.472345 1_555
O40 S5 1.477896 1_555
O41 S6 1.472457 1_555
O42 S0 1.471158 1_555
O43 S1 1.470768 1_555
O44 S2 1.481618 1_555
O45 S3 1.482363 1_555
O46 Si12 1.643562 1_555
O47 Si13 1.644231 1_555
O48 S9 1.457665 1_555
O49 S10 1.456836 1_555
O50 S11 1.460796 1_555
O51 S12 1.468015 1_555
O52 S13 1.461308 1_555
O53 S14 1.457556 1_555
O54 S15 1.453951 1_555
O55 S16 1.452698 1_555
O56 S17 1.461008 1_555
O57 S18 1.458909 1_555
O58 S19 1.466750 1_555
O59 S20 1.466133 1_555
O60 S19 1.555867 1_555
O60 Ta4 2.107117 1_555
O61 S20 1.554195 1_555
O61 Ta5 2.096189 1_555
O62 S15 1.546985 1_555
O62 Ta4 2.097899 1_555
O63 S16 1.538727 1_555
O63 Ta5 2.131861 1_555
O64 S17 1.556770 1_555
O64 Ta4 2.083548 1_555
O65 S18 1.554931 1_555
O65 Ta5 2.090840 1_555
O66 S11 1.551068 1_555
O66 Ta6 2.087058 1_555
O67 S12 1.545371 1_555
O67 Ta7 2.125402 1_555
O68 S13 1.562798 1_555
O68 Ta6 2.070103 1_555
O69 S14 1.543122 1_555
O69 Ta7 2.123075 1_555
O70 S9 1.527150 1_555
O70 Ta6 2.173297 1_555
O71 S10 1.554877 1_555
O71 Ta7 2.088061 1_555
O72 S19 1.450598 1_555
O73 S20 1.450490 1_555
O74 S15 1.473557 1_555
O75 S16 1.476904 1_555
O76 S17 1.476754 1_555
O77 S18 1.476350 1_555
O78 S11 1.460834 1_555
O79 S12 1.455655 1_555
O80 S13 1.462612 1_555
O81 S14 1.476878 1_555
O82 S9 1.480641 1_555
O83 S10 1.462308 1_555
O84 Si12 1.723661 1_555
O84 Ta1 1.927020 1_555
O85 Si13 1.722936 1_555
O85 Ta0 1.928392 1_555
O86 S0 1.515363 1_555
O86 Ta0 2.267806 1_455
O87 S1 1.517880 1_555
O87 Ta1 2.261290 1_555
O88 S2 1.524164 1_555
O88 Ta1 2.245034 1_565
O89 S3 1.521715 1_555
O89 Ta0 2.256716 1_565
O90 Si14 1.730613 1_555
O90 Ta3 1.914375 1_555
O91 S4 1.528918 1_555
O91 Ta2 2.169022 1_565
O92 S5 1.526910 1_555
O92 Ta3 2.233327 1_545
O93 S6 1.529418 1_555
O93 Ta2 2.149149 1_555
O94 S7 1.528117 1_555
O94 Ta2 2.145836 1_455
O95 S8 1.522572 1_555
O95 Ta3 2.253616 1_545
O96 Si10 1.599889 1_545
O97 Si11 1.600249 1_545
O98 Si6 1.598341 1_555
O99 Si7 1.594886 1_555
O100 Si9 1.606966 1_555
O101 Si8 1.606334 1_655
O102 Si2 1.600026 1_555
O103 Si3 1.600597 1_555
O104 Si5 1.606830 1_555
O105 Si4 1.601412 1_655
O106 Si0 1.594343 1_545
O107 Si1 1.602712 1_555
O108 S9 1.490961 1_555
O109 S10 1.483640 1_555
O110 S12 1.492087 1_555
O111 S11 1.483773 1_655
O112 S13 1.477203 1_545
O113 S14 1.473014 1_545
O114 S15 1.486296 1_545
O115 S16 1.488997 1_545
O116 S17 1.464929 1_555
O117 S18 1.468052 1_555
O118 S20 1.491162 1_555
O119 S19 1.491082 1_655
O120 S7 1.482674 1_555
O121 S8 1.488117 1_555
O122 S4 1.481592 1_455
O123 Si14 1.634641 1_555
O124 S5 1.476012 1_565
O125 S6 1.473044 1_565
O126 S0 1.491972 1_565
O127 S1 1.490810 1_565
O128 S2 1.469556 1_555
O129 S3 1.469622 1_555
O130 Si13 1.637882 1_455
O131 Si12 1.637472 1_555
O132 Si0 1.709104 1_555
O132 Ta4 1.942454 1_555
O133 Si1 1.705247 1_565
O133 Ta5 1.934448 1_555
O134 Si2 1.719108 1_555
O134 Ta4 1.936477 1_555
O135 Si3 1.706484 1_555
O135 Ta5 1.948592 1_555
O136 Si4 1.708747 1_555
O136 Ta4 1.950189 1_555
O137 Si5 1.736373 1_555
O137 Ta5 1.926122 1_555
O138 Si6 1.706137 1_555
O138 Ta6 1.945095 1_555
O139 Si7 1.708037 1_555
O139 Ta7 1.927799 1_555
O140 Si8 1.736359 1_555
O140 Ta6 1.921893 1_555
O141 Si9 1.729828 1_555
O141 Ta7 1.939368 1_555
O142 Si10 1.707252 1_555
O142 Ta6 1.948634 1_555
O143 Si11 1.718214 1_555
O143 Ta7 1.930927 1_555
