# generated using pymatgen
data_Na14Hf4Mg4Si7S5O48
_symmetry_space_group_name_H-M   'P 1'
_cell_length_a   18.27348792
_cell_length_b   9.14756333
_cell_length_c   22.40723644
_cell_angle_alpha   90.06757543
_cell_angle_beta   89.84543610
_cell_angle_gamma   119.93429532
_symmetry_Int_Tables_number   1
_chemical_formula_structural   Na14Hf4Mg4Si7S5O48
_chemical_formula_sum   'Na42 Hf12 Mg12 Si21 S15 O144'
_cell_volume   3245.87188493
_cell_formula_units_Z   3
loop_
 _symmetry_equiv_pos_site_id
 _symmetry_equiv_pos_as_xyz
  1  'x, y, z'
loop_
 _atom_site_type_symbol
 _atom_site_label
 _atom_site_symmetry_multiplicity
 _atom_site_fract_x
 _atom_site_fract_y
 _atom_site_fract_z
 _atom_site_occupancy
  Na  Na0  1  0.80532078  0.98327253  0.25888227  1
  Na  Na1  1  0.18356461  0.35331773  0.25761353  1
  Na  Na2  1  0.69296402  0.36727623  0.25731154  1
  Na  Na3  1  0.98972881  0.64343532  0.24400536  1
  Na  Na4  1  0.50181674  0.65095599  0.25290280  1
  Na  Na5  1  0.30634637  0.62856847  0.74435993  1
  Na  Na6  1  0.00108776  0.34990114  0.74639931  1
  Na  Na7  1  0.49263439  0.34196046  0.73705146  1
  Na  Na8  1  0.19170177  0.01740455  0.75169475  1
  Na  Na9  1  0.68618419  0.01528461  0.75199029  1
  Na  Na10  1  0.14771547  0.33022198  0.58661557  1
  Na  Na11  1  0.65906294  0.33608518  0.58023350  1
  Na  Na12  1  0.33885186  0.99654344  0.57881659  1
  Na  Na13  1  0.83624072  0.98350777  0.57670473  1
  Na  Na14  1  0.15746718  0.98250855  0.08728779  1
  Na  Na15  1  0.64822743  0.96483169  0.09188151  1
  Na  Na16  1  0.33606873  0.68757929  0.08759233  1
  Na  Na17  1  0.83744660  0.68550526  0.08439267  1
  Na  Na18  1  0.48338751  0.67856207  0.92658622  1
  Na  Na19  1  0.97288784  0.66479087  0.92324174  1
  Na  Na20  1  0.35447980  0.04303803  0.91488556  1
  Na  Na21  1  0.84885590  0.02967336  0.90795621  1
  Na  Na22  1  0.16774632  0.28548824  0.91354638  1
  Na  Na23  1  0.67324519  0.29083013  0.90613824  1
  Na  Na24  1  0.47564721  0.28511234  0.42433446  1
  Na  Na25  1  0.97411724  0.27091018  0.42639081  1
  Na  Na26  1  0.17080861  0.05674735  0.40624438  1
  Na  Na27  1  0.67790681  0.04166538  0.41126847  1
  Na  Na28  1  0.35093024  0.66987362  0.40851413  1
  Na  Na29  1  0.85028435  0.68014066  0.41752812  1
  Na  Na30  1  0.98965983  0.99536413  0.49328250  1
  Na  Na31  1  0.50382485  0.00339170  0.49747461  1
  Na  Na32  1  0.99880077  0.99793011  0.00065949  1
  Na  Na33  1  0.49974317  0.00071095  0.00123781  1
  Na  Na34  1  0.32484227  0.31747681  0.82179082  1
  Na  Na35  1  0.82177381  0.33226537  0.83285945  1
  Na  Na36  1  0.32346326  0.31340071  0.33626709  1
  Na  Na37  1  0.82249563  0.31339885  0.33081997  1
  Na  Na38  1  0.16936838  0.67936857  0.17056777  1
  Na  Na39  1  0.66208266  0.66431993  0.17876161  1
  Na  Na40  1  0.16028400  0.65584628  0.67452969  1
  Na  Na41  1  0.66890203  0.65865539  0.66237595  1
  Hf  Hf0  1  0.99368945  0.00007278  0.64903856  1
  Hf  Hf1  1  0.50092099  0.01469467  0.64946292  1
  Hf  Hf2  1  0.00073041  0.98912645  0.14994791  1
  Hf  Hf3  1  0.49382163  0.98827781  0.15026400  1
  Hf  Hf4  1  0.83085637  0.33296939  0.68091292  1
  Hf  Hf5  1  0.33000220  0.32631461  0.18175057  1
  Hf  Hf6  1  0.16481502  0.66497682  0.02562491  1
  Hf  Hf7  1  0.66593798  0.67260078  0.01712506  1
  Hf  Hf8  1  0.16585754  0.66037065  0.51715835  1
  Hf  Hf9  1  0.67147154  0.67557539  0.52252147  1
  Hf  Hf10  1  0.17739674  0.68005159  0.31420749  1
  Hf  Hf11  1  0.67766156  0.67623653  0.81294913  1
  Mg  Mg0  1  0.99901568  0.99857934  0.35157039  1
  Mg  Mg1  1  0.49800703  0.99186185  0.34649752  1
  Mg  Mg2  1  0.99626266  0.00076452  0.84500843  1
  Mg  Mg3  1  0.50658525  0.00960976  0.84642560  1
  Mg  Mg4  1  0.33619052  0.32590507  0.68561416  1
  Mg  Mg5  1  0.83612260  0.34212037  0.18730228  1
  Mg  Mg6  1  0.33514374  0.33405663  0.99908564  1
  Mg  Mg7  1  0.83157919  0.33996043  0.97976052  1
  Mg  Mg8  1  0.33326293  0.32644929  0.47950285  1
  Mg  Mg9  1  0.83247337  0.32085138  0.49000159  1
  Mg  Mg10  1  0.67374285  0.68786709  0.31325438  1
  Mg  Mg11  1  0.16837383  0.66241248  0.81085758  1
  Si  Si0  1  0.14789525  0.99832332  0.25392929  1
  Si  Si1  1  0.64975912  0.00504040  0.25089221  1
  Si  Si2  1  0.35116451  0.69456222  0.25259328  1
  Si  Si3  1  0.84961060  0.69979871  0.25336938  1
  Si  Si4  1  0.14993340  0.29320681  0.75286458  1
  Si  Si5  1  0.65020139  0.30187794  0.75347914  1
  Si  Si6  1  0.34996365  0.99608475  0.75570201  1
  Si  Si7  1  0.85195390  0.00953180  0.75328850  1
  Si  Si8  1  0.47820177  0.33641490  0.58279672  1
  Si  Si9  1  0.98565499  0.34252509  0.58421102  1
  Si  Si10  1  0.68113070  0.03510000  0.58148616  1
  Si  Si11  1  0.83900731  0.62928868  0.57574403  1
  Si  Si12  1  0.48463858  0.63029141  0.08245259  1
  Si  Si13  1  0.97552722  0.61986952  0.08291267  1
  Si  Si14  1  0.33895843  0.04365939  0.07544119  1
  Si  Si15  1  0.18204937  0.32643912  0.07944833  1
  Si  Si16  1  0.82001499  0.67086731  0.91931394  1
  Si  Si17  1  0.66343699  0.96569354  0.91579349  1
  Si  Si18  1  0.32019938  0.96972848  0.41983471  1
  Si  Si19  1  0.81581344  0.97265121  0.41400974  1
  Si  Si20  1  0.16663021  0.36584148  0.41606066  1
  S  S0  1  0.99920146  0.29038393  0.25158092  1
  S  S1  1  0.49844910  0.29045150  0.25251729  1
  S  S2  1  0.99967593  0.70729685  0.75344862  1
  S  S3  1  0.49824562  0.70647967  0.75347871  1
  S  S4  1  0.18615109  0.03860427  0.58383618  1
  S  S5  1  0.33299451  0.62580653  0.58291907  1
  S  S6  1  0.83309062  0.04171407  0.08123791  1
  S  S7  1  0.68566267  0.33355202  0.08252492  1
  S  S8  1  0.31165760  0.66212292  0.91507872  1
  S  S9  1  0.02382885  0.37964786  0.91553216  1
  S  S10  1  0.51917814  0.37758588  0.91535215  1
  S  S11  1  0.16719515  0.95586044  0.91423636  1
  S  S12  1  0.66461787  0.37425984  0.41365240  1
  S  S13  1  0.02125799  0.66360795  0.41482132  1
  S  S14  1  0.52221115  0.66653725  0.41563473  1
  O  O0  1  0.10849206  0.03789236  0.31171736  1
  O  O1  1  0.60825859  0.04375156  0.30911731  1
  O  O2  1  0.40655444  0.77971080  0.31124324  1
  O  O3  1  0.91093400  0.79392701  0.30958505  1
  O  O4  1  0.48636853  0.19268208  0.30721697  1
  O  O5  1  0.99099157  0.19579102  0.30624576  1
  O  O6  1  0.11056020  0.17502124  0.81236406  1
  O  O7  1  0.61344696  0.18740473  0.81274216  1
  O  O8  1  0.48884740  0.78389788  0.80866461  1
  O  O9  1  0.98899210  0.78169606  0.80859645  1
  O  O10  1  0.40770598  0.02029601  0.81437609  1
  O  O11  1  0.90616160  0.03469441  0.81271823  1
  O  O12  1  0.39778052  0.96575787  0.69680758  1
  O  O13  1  0.89855713  0.98670849  0.69378340  1
  O  O14  1  0.08934237  0.18720764  0.69481764  1
  O  O15  1  0.58852450  0.20436812  0.69531406  1
  O  O16  1  0.01010755  0.81537248  0.70078793  1
  O  O17  1  0.51301692  0.81935568  0.70126139  1
  O  O18  1  0.39611305  0.80865314  0.19205031  1
  O  O19  1  0.89687726  0.82353186  0.19272445  1
  O  O20  1  0.01425637  0.20800092  0.19876634  1
  O  O21  1  0.50734607  0.20105566  0.19939151  1
  O  O22  1  0.08968310  0.97354823  0.19325851  1
  O  O23  1  0.59033312  0.99157185  0.19149265  1
  O  O24  1  0.43903423  0.36006728  0.64426837  1
  O  O25  1  0.93978194  0.35837133  0.64488030  1
  O  O26  1  0.23819077  0.11655924  0.63739738  1
  O  O27  1  0.74299307  0.12646267  0.64028820  1
  O  O28  1  0.32003369  0.52453230  0.63707764  1
  O  O29  1  0.82210265  0.50354593  0.63277282  1
  O  O30  1  0.43462721  0.51551415  0.14051659  1
  O  O31  1  0.93681705  0.51574061  0.14328155  1
  O  O32  1  0.31868297  0.13601683  0.13050126  1
  O  O33  1  0.82024168  0.11731607  0.13489494  1
  O  O34  1  0.24470319  0.35936382  0.13715785  1
  O  O35  1  0.73786622  0.35971243  0.13561967  1
  O  O36  1  0.22068428  0.29002196  0.01984231  1
  O  O37  1  0.72291724  0.30403422  0.02802095  1
  O  O38  1  0.42906045  0.55741272  0.02214996  1
  O  O39  1  0.91997151  0.54197873  0.02309353  1
  O  O40  1  0.34984958  0.13933010  0.01320839  1
  O  O41  1  0.83938955  0.13414952  0.02625309  1
  O  O42  1  0.22380749  0.14361741  0.52984668  1
  O  O43  1  0.71770403  0.15223219  0.52310700  1
  O  O44  1  0.33920254  0.54406843  0.52839007  1
  O  O45  1  0.84785786  0.54830346  0.51474496  1
  O  O46  1  0.41865038  0.29690727  0.52458837  1
  O  O47  1  0.92931987  0.30409046  0.52529577  1
  O  O48  1  0.26824390  0.67800547  0.96964315  1
  O  O49  1  0.76952286  0.68790607  0.97885992  1
  O  O50  1  0.07861208  0.47597373  0.96747682  1
  O  O51  1  0.57312377  0.46835827  0.96860328  1
  O  O52  1  0.16320228  0.85763389  0.96922969  1
  O  O53  1  0.65171094  0.84019155  0.97387541  1
  O  O54  1  0.26995901  0.85248913  0.47957824  1
  O  O55  1  0.76522784  0.85041067  0.47334730  1
  O  O56  1  0.15532939  0.46740618  0.47461509  1
  O  O57  1  0.65660355  0.45985932  0.46875034  1
  O  O58  1  0.07569095  0.67979324  0.46804132  1
  O  O59  1  0.57567806  0.67819033  0.46751497  1
  O  O60  1  0.06408903  0.64713475  0.36083478  1
  O  O61  1  0.55756130  0.63886371  0.36030445  1
  O  O62  1  0.25598045  0.86251413  0.36372882  1
  O  O63  1  0.75637518  0.88675333  0.35619022  1
  O  O64  1  0.17491441  0.48514636  0.35796915  1
  O  O65  1  0.66776821  0.47259621  0.36054320  1
  O  O66  1  0.06176434  0.47942708  0.86097470  1
  O  O67  1  0.56199836  0.47625283  0.86126454  1
  O  O68  1  0.17229813  0.86539169  0.86137516  1
  O  O69  1  0.67134977  0.86159675  0.85816703  1
  O  O70  1  0.25996613  0.64551694  0.86200343  1
  O  O71  1  0.75588954  0.65036481  0.86330348  1
  O  O72  1  0.01788750  0.82220835  0.41419549  1
  O  O73  1  0.51904641  0.82648389  0.41482694  1
  O  O74  1  0.41215869  0.98109558  0.41611938  1
  O  O75  1  0.90718933  0.97863320  0.41405642  1
  O  O76  1  0.08302525  0.18095587  0.41586567  1
  O  O77  1  0.58803729  0.20262464  0.41411783  1
  O  O78  1  0.02083123  0.21405136  0.91542148  1
  O  O79  1  0.51182320  0.20859423  0.91528750  1
  O  O80  1  0.08929657  0.96889445  0.91558724  1
  O  O81  1  0.57732782  0.97900513  0.91540095  1
  O  O82  1  0.39641148  0.81641862  0.91368048  1
  O  O83  1  0.91217510  0.84302871  0.91575183  1
  O  O84  1  0.48647277  0.15815859  0.58887425  1
  O  O85  1  0.00021504  0.17529380  0.59085115  1
  O  O86  1  0.09999897  0.01454697  0.59049419  1
  O  O87  1  0.58649871  0.00738602  0.59348614  1
  O  O88  1  0.40689986  0.79951294  0.58742406  1
  O  O89  1  0.91792823  0.82250948  0.58770969  1
  O  O90  1  0.49874527  0.82522076  0.08933531  1
  O  O91  1  0.98679420  0.81546296  0.08815024  1
  O  O92  1  0.41778194  0.00995146  0.08686273  1
  O  O93  1  0.90714064  0.01472800  0.08540405  1
  O  O94  1  0.08832330  0.16375733  0.09052194  1
  O  O95  1  0.59924625  0.18563698  0.08854292  1
  O  O96  1  0.34316306  0.16755280  0.74782819  1
  O  O97  1  0.84336630  0.17967570  0.74715381  1
  O  O98  1  0.24658387  0.32937815  0.74245582  1
  O  O99  1  0.74421908  0.32611482  0.74319886  1
  O  O100  1  0.42185704  0.54065592  0.74611576  1
  O  O101  1  0.92560988  0.53498484  0.74641054  1
  O  O102  1  0.34291479  0.50730587  0.24554339  1
  O  O103  1  0.84143648  0.51302787  0.24705909  1
  O  O104  1  0.42405140  0.31455919  0.24454764  1
  O  O105  1  0.92265910  0.30312424  0.24392346  1
  O  O106  1  0.24231441  0.16269346  0.24323421  1
  O  O107  1  0.74623639  0.16067398  0.24114649  1
  O  O108  1  0.32032211  0.50886088  0.91818040  1
  O  O109  1  0.82468236  0.49785126  0.91797022  1
  O  O110  1  0.43571095  0.36623164  0.91916426  1
  O  O111  1  0.93809016  0.35533523  0.92309660  1
  O  O112  1  0.24395606  0.12651581  0.91518967  1
  O  O113  1  0.75130812  0.14511980  0.92067429  1
  O  O114  1  0.32481744  0.15179101  0.41859878  1
  O  O115  1  0.82717706  0.16241006  0.42063325  1
  O  O116  1  0.25554901  0.36512550  0.42061629  1
  O  O117  1  0.74255666  0.36258929  0.41540599  1
  O  O118  1  0.43535944  0.52079479  0.42342942  1
  O  O119  1  0.93798692  0.51356514  0.41860759  1
  O  O120  1  0.17885484  0.50380020  0.07595920  1
  O  O121  1  0.67880410  0.49013949  0.07606277  1
  O  O122  1  0.07666776  0.66764397  0.07501175  1
  O  O123  1  0.58177013  0.65743364  0.08106629  1
  O  O124  1  0.25316970  0.85042058  0.07447802  1
  O  O125  1  0.75475242  0.86385922  0.07804141  1
  O  O126  1  0.17967488  0.86918429  0.57755490  1
  O  O127  1  0.67740466  0.85140620  0.57859939  1
  O  O128  1  0.25487656  0.64721973  0.57982277  1
  O  O129  1  0.75215606  0.64809755  0.57635183  1
  O  O130  1  0.08349297  0.50874056  0.58264756  1
  O  O131  1  0.57745572  0.48655388  0.57389486  1
  O  O132  1  0.14697898  0.81673350  0.25619289  1
  O  O133  1  0.64694488  0.82246081  0.25112426  1
  O  O134  1  0.25360984  0.66403094  0.25217272  1
  O  O135  1  0.75437419  0.67591591  0.25300297  1
  O  O136  1  0.07533586  0.46493900  0.25389229  1
  O  O137  1  0.57579698  0.45855729  0.25456272  1
  O  O138  1  0.14991862  0.47386931  0.75398645  1
  O  O139  1  0.64730887  0.47941513  0.75566963  1
  O  O140  1  0.07756416  0.69276313  0.75575457  1
  O  O141  1  0.57406914  0.68403514  0.75632608  1
  O  O142  1  0.25424405  0.83044874  0.75474385  1
  O  O143  1  0.75430710  0.84504670  0.75284500  1
loop_
_geom_bond_atom_site_label_1
_geom_bond_atom_site_label_2
_geom_bond_distance
_geom_bond_site_symmetry_2
Na0 O63 2.353627 1_555
Na0 O107 2.389464 1_565
Na0 O135 2.485248 1_555
Na0 O133 2.514585 1_555
Na0 O105 2.647236 1_565
Na1 O134 2.469992 1_555
Na1 O106 2.482362 1_555
Na1 O102 2.537614 1_555
Na1 O64 2.591862 1_555
Na1 O136 2.641465 1_555
Na1 O0 2.779552 1_555
Na1 O34 2.908379 1_555
Na1 O20 2.998510 1_555
Na2 O103 2.361903 1_555
Na2 O135 2.465307 1_555
Na2 O107 2.546212 1_555
Na2 O65 2.631055 1_555
Na2 O137 2.658979 1_555
Na2 O1 2.815755 1_555
Na2 O35 2.856134 1_555
Na3 O103 2.354544 1_555
Na3 O31 2.504293 1_555
Na3 O132 2.510316 1_655
Na3 O105 2.717580 1_555
Na3 O136 2.777446 1_655
Na3 O3 2.844229 1_555
Na3 O22 2.870571 1_655
Na3 O60 2.945103 1_655
Na4 O133 2.311542 1_555
Na4 O102 2.525749 1_555
Na4 O61 2.639656 1_555
Na4 O104 2.675735 1_555
Na4 O137 2.702121 1_555
Na4 O30 2.806298 1_555
Na4 O2 2.855990 1_555
Na5 O98 2.387870 1_555
Na5 O142 2.474570 1_555
Na5 O138 2.486029 1_555
Na5 O100 2.607351 1_555
Na5 O28 2.641192 1_555
Na5 O70 2.794513 1_555
Na5 O12 2.880221 1_555
Na6 O138 2.373915 1_555
Na6 O97 2.500489 1_455
Na6 O25 2.556626 1_455
Na6 O101 2.664449 1_455
Na6 O140 2.731180 1_555
Na6 O66 2.814503 1_555
Na6 O14 2.921109 1_555
Na6 O11 2.921575 1_455
Na7 O24 2.341534 1_555
Na7 O96 2.390052 1_555
Na7 O139 2.490401 1_555
Na7 O100 2.713191 1_555
Na7 O141 2.746925 1_555
Na7 O15 2.778238 1_555
Na8 O96 2.399872 1_555
Na8 O142 2.487346 1_545
Na8 O98 2.517285 1_555
Na8 O140 2.644893 1_545
Na8 O26 2.707080 1_555
Na8 O68 2.758732 1_545
Na8 O6 2.871143 1_555
Na9 O143 2.431041 1_545
Na9 O97 2.492196 1_555
Na9 O99 2.497772 1_555
Na9 O141 2.681873 1_545
Na9 O27 2.704619 1_555
Na9 O69 2.708185 1_545
Na9 O7 2.858761 1_555
Na9 O17 2.978592 1_545
Na10 O85 2.338599 1_555
Na10 O130 2.442425 1_555
Na10 O86 2.567822 1_555
Na10 O128 2.568798 1_555
Na10 O14 2.707094 1_555
Na10 O56 2.779141 1_555
Na10 O28 2.963410 1_555
Na10 O42 2.969740 1_555
Na11 O131 2.487699 1_555
Na11 O129 2.490331 1_555
Na11 O87 2.628340 1_555
Na11 O43 2.720551 1_555
Na11 O84 2.740011 1_555
Na11 O57 2.753576 1_555
Na11 O29 2.840537 1_555
Na11 O15 2.863915 1_555
Na12 O84 2.352782 1_565
Na12 O126 2.537143 1_555
Na12 O54 2.572650 1_555
Na12 O88 2.659083 1_555
Na12 O46 2.674294 1_565
Na12 O128 2.769920 1_555
Na12 O26 2.882840 1_565
Na12 O12 2.923797 1_555
Na13 O127 2.526960 1_555
Na13 O89 2.579697 1_555
Na13 O85 2.629467 1_665
Na13 O55 2.638689 1_555
Na13 O129 2.658904 1_555
Na13 O47 2.799855 1_565
Na13 O13 2.857013 1_555
Na13 O27 2.974847 1_565
Na14 O122 2.511496 1_555
Na14 O94 2.537818 1_565
Na14 O124 2.589603 1_555
Na14 O22 2.657545 1_555
Na14 O91 2.702908 1_455
Na14 O32 2.733459 1_565
Na14 O36 2.879039 1_565
Na14 O52 2.902514 1_554
Na15 O90 2.369554 1_555
Na15 O123 2.456106 1_555
Na15 O23 2.530841 1_555
Na15 O125 2.555182 1_555
Na15 O95 2.586779 1_565
Na15 O53 2.891394 1_554
Na15 O33 2.896951 1_565
Na16 O120 2.516022 1_555
Na16 O92 2.555669 1_565
Na16 O90 2.586248 1_555
Na16 O18 2.589197 1_555
Na16 O124 2.618306 1_555
Na16 O34 2.833786 1_555
Na16 O48 2.904750 1_554
Na16 O38 2.908159 1_555
Na17 O91 2.373062 1_555
Na17 O121 2.542481 1_555
Na17 O93 2.619981 1_565
Na17 O49 2.678810 1_554
Na17 O19 2.702675 1_555
Na17 O125 2.725382 1_555
Na17 O39 2.800899 1_555
Na17 O35 2.845173 1_555
Na18 O38 2.386436 1_556
Na18 O81 2.419447 1_555
Na18 O82 2.490692 1_555
Na18 O110 2.542630 1_555
Na18 O108 2.590404 1_555
Na18 O8 2.797997 1_555
Na18 O53 2.871396 1_555
Na19 O109 2.356751 1_555
Na19 O83 2.392545 1_555
Na19 O39 2.472486 1_556
Na19 O80 2.527111 1_655
Na19 O111 2.573156 1_555
Na19 O9 2.741843 1_555
Na20 O40 2.388654 1_556
Na20 O112 2.490232 1_555
Na20 O79 2.492966 1_555
Na20 O10 2.500086 1_555
Na20 O82 2.543672 1_545
Na20 O110 2.563869 1_555
Na21 O11 2.364931 1_555
Na21 O113 2.499834 1_555
Na21 O83 2.501540 1_545
Na21 O111 2.607901 1_555
Na21 O78 2.731461 1_655
Na21 O41 2.850627 1_556
Na22 O78 2.425848 1_555
Na22 O112 2.465158 1_555
Na22 O6 2.491365 1_555
Na22 O108 2.504956 1_555
Na22 O80 2.510157 1_545
Na22 O36 2.565663 1_556
Na23 O7 2.333373 1_555
Na23 O113 2.412188 1_555
Na23 O109 2.467200 1_555
Na23 O81 2.502273 1_545
Na23 O79 2.662977 1_555
Na23 O37 2.863619 1_556
Na24 O114 2.397351 1_555
Na24 O74 2.427720 1_545
Na24 O46 2.498351 1_555
Na24 O77 2.526531 1_555
Na24 O118 2.602807 1_555
Na24 O4 2.792387 1_555
Na25 O75 2.336045 1_545
Na25 O115 2.356565 1_555
Na25 O47 2.431114 1_555
Na25 O76 2.514895 1_655
Na25 O119 2.618687 1_555
Na25 O5 2.831500 1_555
Na26 O0 2.372534 1_555
Na26 O76 2.393143 1_555
Na26 O116 2.469845 1_555
Na26 O114 2.512847 1_555
Na26 O72 2.541313 1_545
Na26 O42 2.912255 1_555
Na27 O115 2.387472 1_555
Na27 O117 2.561468 1_555
Na27 O73 2.569884 1_545
Na27 O1 2.626672 1_555
Na27 O43 2.664885 1_555
Na27 O77 2.698391 1_555
Na27 O63 2.757075 1_545
Na28 O2 2.401496 1_555
Na28 O116 2.456167 1_555
Na28 O74 2.491338 1_555
Na28 O118 2.540729 1_555
Na28 O73 2.668243 1_555
Na28 O44 2.888497 1_555
Na29 O75 2.389408 1_555
Na29 O45 2.480713 1_555
Na29 O117 2.570740 1_555
Na29 O3 2.646134 1_555
Na29 O72 2.664821 1_655
Na29 O119 2.707089 1_555
Na29 O55 2.967681 1_555
Na30 O75 2.286836 1_555
Na30 O76 2.429499 1_665
Na30 O89 2.572861 1_555
Na30 O72 2.592151 1_655
Na30 O85 2.683815 1_665
Na30 O86 2.917297 1_665
Na31 O74 2.417684 1_545
Na31 O77 2.524235 1_555
Na31 O73 2.562249 1_545
Na31 O84 2.595552 1_555
Na31 O87 2.621879 1_555
Na31 O88 2.714864 1_545
Na32 O83 2.429933 1_554
Na32 O91 2.513427 1_555
Na32 O94 2.562346 1_665
Na32 O93 2.583384 1_565
Na32 O80 2.618981 1_654
Na32 O78 2.632278 1_664
Na33 O81 2.452363 1_544
Na33 O92 2.458019 1_555
Na33 O90 2.540113 1_545
Na33 O95 2.633693 1_555
Na33 O79 2.638454 1_554
Na33 O82 2.663048 1_544
Na34 O96 2.278033 1_555
Na34 O98 2.320904 1_555
Na34 O100 2.562402 1_555
Na34 O112 2.651620 1_555
Na34 O108 2.805538 1_555
Na34 O110 2.860727 1_555
Na35 O109 2.418175 1_555
Na35 O99 2.446097 1_555
Na35 O113 2.500965 1_555
Na35 O97 2.516206 1_555
Na35 O101 2.695993 1_555
Na35 O111 2.867956 1_555
Na36 O114 2.373322 1_555
Na36 O116 2.430540 1_555
Na36 O106 2.532731 1_555
Na36 O102 2.603939 1_555
Na36 O104 2.750037 1_555
Na36 O118 2.781354 1_555
Na37 O107 2.448801 1_555
Na37 O115 2.467875 1_555
Na37 O103 2.520091 1_555
Na37 O117 2.562745 1_555
Na37 O105 2.702264 1_555
Na37 O119 2.798804 1_555
Na38 O132 2.435279 1_555
Na38 O134 2.442191 1_555
Na38 O136 2.629372 1_555
Na38 O124 2.651038 1_555
Na38 O122 2.702449 1_555
Na38 O120 2.715004 1_555
Na39 O133 2.278088 1_555
Na39 O135 2.336462 1_555
Na39 O137 2.438232 1_555
Na39 O123 2.621948 1_555
Na39 O125 2.863044 1_555
Na39 O121 2.898450 1_555
Na40 O138 2.380602 1_555
Na40 O142 2.450016 1_555
Na40 O130 2.478540 1_555
Na40 O140 2.490895 1_555
Na40 O128 2.759240 1_555
Na40 O126 2.823362 1_555
Na41 O129 2.483884 1_555
Na41 O127 2.527791 1_555
Na41 O139 2.563587 1_555
Na41 O131 2.566438 1_555
Na41 O143 2.608712 1_555
Na41 O141 2.805233 1_555
Hf0 O13 1.954735 1_545
Hf0 O14 2.014233 1_655
Hf0 O85 2.024010 1_655
Hf0 O89 2.050397 1_545
Hf0 O16 2.191251 1_645
Hf0 O86 2.289591 1_655
Hf1 O15 1.965008 1_555
Hf1 O84 1.996756 1_555
Hf1 O12 2.006578 1_545
Hf1 O87 2.028976 1_555
Hf1 O17 2.233689 1_545
Hf1 O88 2.321660 1_545
Hf2 O22 1.960690 1_555
Hf2 O19 1.984798 1_455
Hf2 O91 2.024572 1_455
Hf2 O94 2.080531 1_565
Hf2 O20 2.183750 1_565
Hf2 O93 2.342044 1_465
Hf3 O18 1.957334 1_555
Hf3 O23 1.979982 1_555
Hf3 O90 2.055541 1_555
Hf3 O92 2.067496 1_565
Hf3 O21 2.139549 1_565
Hf3 O95 2.324598 1_565
Hf4 O29 1.969233 1_555
Hf4 O27 1.987915 1_555
Hf4 O25 2.048889 1_555
Hf4 O99 2.085045 1_555
Hf4 O97 2.132683 1_555
Hf4 O101 2.319661 1_555
Hf5 O34 1.999696 1_555
Hf5 O32 2.007230 1_555
Hf5 O30 2.048459 1_555
Hf5 O106 2.074894 1_555
Hf5 O102 2.108645 1_555
Hf5 O104 2.267812 1_555
Hf6 O122 1.961961 1_555
Hf6 O120 1.973484 1_555
Hf6 O124 1.988575 1_555
Hf6 O50 2.110895 1_554
Hf6 O52 2.181937 1_554
Hf6 O48 2.218692 1_554
Hf7 O53 1.938973 1_554
Hf7 O49 2.016113 1_554
Hf7 O123 2.052606 1_555
Hf7 O51 2.095703 1_554
Hf7 O125 2.174983 1_555
Hf7 O121 2.232413 1_555
Hf8 O56 1.928633 1_555
Hf8 O54 2.018585 1_555
Hf8 O130 2.062026 1_555
Hf8 O58 2.063980 1_555
Hf8 O128 2.200047 1_555
Hf8 O126 2.249057 1_555
Hf9 O55 1.991613 1_555
Hf9 O127 1.999908 1_555
Hf9 O129 2.017935 1_555
Hf9 O131 2.072614 1_555
Hf9 O59 2.153467 1_555
Hf9 O57 2.209170 1_555
Hf10 O62 1.921307 1_555
Hf10 O64 2.016314 1_555
Hf10 O134 2.021380 1_555
Hf10 O132 2.064801 1_555
Hf10 O60 2.199133 1_555
Hf10 O136 2.349809 1_555
Hf11 O71 1.928603 1_555
Hf11 O143 1.999054 1_555
Hf11 O69 2.026186 1_555
Hf11 O139 2.048970 1_555
Hf11 O67 2.262593 1_555
Hf11 O141 2.312192 1_555
Mg0 O3 1.994287 1_555
Mg0 O0 2.049867 1_665
Mg0 O75 2.119362 1_555
Mg0 O5 2.139276 1_565
Mg0 O76 2.160030 1_665
Mg0 O72 2.292208 1_655
Mg1 O2 1.987401 1_555
Mg1 O1 2.005800 1_565
Mg1 O4 2.142263 1_565
Mg1 O74 2.176544 1_555
Mg1 O73 2.317257 1_555
Mg1 O77 2.358060 1_565
Mg2 O11 1.961538 1_555
Mg2 O6 2.027337 1_655
Mg2 O9 2.104788 1_545
Mg2 O83 2.176074 1_545
Mg2 O78 2.370628 1_655
Mg2 O80 2.446727 1_645
Mg3 O7 1.962987 1_555
Mg3 O10 1.993364 1_555
Mg3 O8 2.100826 1_545
Mg3 O81 2.123955 1_545
Mg3 O79 2.350219 1_555
Mg3 O82 2.426198 1_545
Mg4 O24 1.973055 1_555
Mg4 O96 2.061012 1_555
Mg4 O98 2.084458 1_555
Mg4 O26 2.150455 1_555
Mg4 O100 2.254671 1_555
Mg4 O28 2.261210 1_555
Mg5 O31 1.989582 1_555
Mg5 O103 2.022559 1_555
Mg5 O107 2.044909 1_555
Mg5 O105 2.193708 1_555
Mg5 O35 2.211516 1_555
Mg5 O33 2.256677 1_555
Mg6 O40 1.955711 1_556
Mg6 O38 1.972236 1_556
Mg6 O36 1.976769 1_556
Mg6 O110 2.472757 1_555
Mg6 O108 2.521596 1_555
Mg6 O112 2.601173 1_555
Mg7 O39 1.998007 1_556
Mg7 O109 2.050911 1_555
Mg7 O113 2.115860 1_555
Mg7 O37 2.134977 1_556
Mg7 O41 2.218939 1_556
Mg7 O111 2.265824 1_555
Mg8 O46 1.989524 1_555
Mg8 O114 2.046644 1_555
Mg8 O116 2.096555 1_555
Mg8 O42 2.173471 1_555
Mg8 O118 2.214125 1_555
Mg8 O44 2.225855 1_555
Mg9 O47 2.014820 1_555
Mg9 O43 2.023283 1_555
Mg9 O45 2.032195 1_555
Mg9 O115 2.093205 1_555
Mg9 O119 2.445857 1_555
Mg9 O117 2.506348 1_555
Mg10 O63 1.943603 1_555
Mg10 O135 2.038447 1_555
Mg10 O133 2.074420 1_555
Mg10 O65 2.191391 1_555
Mg10 O61 2.204306 1_555
Mg10 O137 2.364803 1_555
Mg11 O142 1.998160 1_555
Mg11 O138 2.031972 1_555
Mg11 O70 2.099411 1_555
Mg11 O66 2.143907 1_555
Mg11 O68 2.143979 1_555
Mg11 O140 2.197015 1_555
O0 Si0 1.606277 1_545
O1 Si1 1.632249 1_555
O2 Si2 1.605054 1_555
O3 Si3 1.620465 1_555
O4 S1 1.467974 1_555
O5 S0 1.464085 1_555
O6 Si4 1.638859 1_555
O7 Si5 1.614792 1_555
O8 S3 1.475901 1_555
O9 S2 1.468874 1_555
O10 Si6 1.632321 1_545
O11 Si7 1.608213 1_555
O12 Si6 1.678331 1_555
O13 Si7 1.648419 1_565
O14 Si4 1.670685 1_555
O15 Si5 1.663245 1_555
O16 S2 1.489811 1_455
O17 S3 1.493653 1_555
O18 Si2 1.657115 1_555
O19 Si3 1.701563 1_555
O20 S0 1.499051 1_455
O21 S1 1.497182 1_555
O22 Si0 1.672580 1_555
O23 Si1 1.685170 1_565
O24 Si8 1.613959 1_555
O25 Si9 1.639024 1_555
O26 S4 1.476671 1_555
O27 Si10 1.665824 1_555
O28 S5 1.472803 1_555
O29 Si11 1.642596 1_555
O30 Si12 1.633854 1_555
O31 Si13 1.600907 1_555
O32 Si14 1.637264 1_555
O33 S6 1.462024 1_555
O34 Si15 1.654262 1_555
O35 S7 1.469794 1_555
O36 Si15 1.619206 1_555
O37 S7 1.485288 1_555
O38 Si12 1.622108 1_555
O39 Si13 1.618056 1_555
O40 Si14 1.605488 1_555
O41 S6 1.466542 1_555
O42 S4 1.482680 1_555
O43 Si10 1.609286 1_555
O44 S5 1.465123 1_555
O45 Si11 1.599737 1_555
O46 Si8 1.621737 1_555
O47 Si9 1.603470 1_555
O48 S8 1.501561 1_555
O49 Si16 1.671003 1_555
O50 S9 1.502282 1_555
O51 S10 1.507342 1_555
O52 S11 1.505928 1_555
O53 Si17 1.677558 1_555
O54 Si18 1.673086 1_555
O55 Si19 1.684622 1_555
O56 Si20 1.677621 1_555
O57 S12 1.506648 1_555
O58 S13 1.514069 1_555
O59 S14 1.489707 1_555
O60 S13 1.486876 1_555
O61 S14 1.475330 1_555
O62 Si18 1.666104 1_555
O63 Si19 1.621444 1_555
O64 Si20 1.657019 1_555
O65 S12 1.476187 1_555
O66 S9 1.474683 1_555
O67 S10 1.479308 1_555
O68 S11 1.473313 1_555
O69 Si17 1.651813 1_555
O70 S8 1.480578 1_555
O71 Si16 1.664768 1_555
O72 S13 1.482587 1_555
O73 S14 1.492954 1_555
O74 Si18 1.632919 1_555
O75 Si19 1.643138 1_555
O76 Si20 1.617319 1_555
O77 S12 1.493541 1_555
O78 S9 1.488227 1_555
O79 S10 1.483374 1_555
O80 S11 1.486797 1_555
O81 Si17 1.637729 1_555
O82 S8 1.486598 1_555
O83 Si16 1.635646 1_555
O84 Si8 1.716647 1_555
O85 Si9 1.685243 1_455
O86 S4 1.483966 1_555
O87 Si10 1.639216 1_555
O88 S5 1.489171 1_555
O89 Si11 1.653113 1_555
O90 Si12 1.676487 1_555
O91 Si13 1.699825 1_555
O92 Si14 1.637284 1_555
O93 S6 1.494918 1_555
O94 Si15 1.632293 1_555
O95 S7 1.486431 1_555
O96 Si6 1.643811 1_545
O97 Si7 1.646294 1_555
O98 Si4 1.642520 1_555
O99 Si5 1.634530 1_555
O100 S3 1.471093 1_555
O101 S2 1.487500 1_555
O102 Si2 1.650338 1_555
O103 Si3 1.645030 1_555
O104 S1 1.493115 1_555
O105 S0 1.470850 1_555
O106 Si0 1.644576 1_545
O107 Si1 1.635956 1_555
O108 S8 1.489045 1_555
O109 Si16 1.627155 1_555
O110 S10 1.478393 1_555
O111 S9 1.477763 1_655
O112 S11 1.489862 1_545
O113 Si17 1.629253 1_545
O114 Si18 1.625230 1_545
O115 Si19 1.648660 1_545
O116 Si20 1.631606 1_555
O117 S12 1.481006 1_555
O118 S14 1.487988 1_555
O119 S13 1.456596 1_655
O120 Si15 1.654272 1_555
O121 S7 1.506047 1_555
O122 Si13 1.682398 1_455
O123 Si12 1.665203 1_555
O124 Si14 1.678440 1_565
O125 S6 1.541820 1_565
O126 S4 1.500722 1_565
O127 Si10 1.648630 1_565
O128 S5 1.536401 1_555
O129 Si11 1.679582 1_555
O130 Si9 1.672202 1_455
O131 Si8 1.651748 1_555
O132 Si0 1.653650 1_555
O133 Si1 1.645114 1_565
O134 Si2 1.661078 1_555
O135 Si3 1.642276 1_555
O136 S0 1.506982 1_455
O137 S1 1.481741 1_555
O138 Si4 1.652918 1_555
O139 Si5 1.651712 1_555
O140 S2 1.495112 1_455
O141 S3 1.500139 1_555
O142 Si6 1.646456 1_555
O143 Si7 1.663889 1_565
