# generated using pymatgen
data_Na3Sc4P3(SO8)3
_symmetry_space_group_name_H-M   'P 1'
_cell_length_a   8.88738784
_cell_length_b   8.88605859
_cell_length_c   23.06759917
_cell_angle_alpha   89.71188693
_cell_angle_beta   90.28289164
_cell_angle_gamma   120.26470709
_symmetry_Int_Tables_number   1
_chemical_formula_structural   Na3Sc4P3(SO8)3
_chemical_formula_sum   'Na9 Sc12 P9 S9 O72'
_cell_volume   1573.41957540
_cell_formula_units_Z   3
loop_
 _symmetry_equiv_pos_site_id
 _symmetry_equiv_pos_as_xyz
  1  'x, y, z'
loop_
 _atom_site_type_symbol
 _atom_site_label
 _atom_site_symmetry_multiplicity
 _atom_site_fract_x
 _atom_site_fract_y
 _atom_site_fract_z
 _atom_site_occupancy
  Na  Na0  1  0.35866299  0.35906068  0.25145875  1
  Na  Na1  1  0.69159275  0.02488675  0.91670924  1
  Na  Na2  1  0.97479844  0.30735891  0.41673683  1
  Na  Na3  1  0.00491960  0.99665266  0.50034880  1
  Na  Na4  1  0.00243529  0.99436459  0.00074335  1
  Na  Na5  1  0.66145133  0.33668644  0.83279924  1
  Na  Na6  1  0.66620633  0.33335341  0.33333988  1
  Na  Na7  1  0.33163670  0.67866739  0.16617510  1
  Na  Na8  1  0.33333208  0.66665243  0.66671098  1
  Sc  Sc0  1  0.01320104  0.00197315  0.35136019  1
  Sc  Sc1  1  0.99937468  0.99385565  0.85157263  1
  Sc  Sc2  1  0.99097565  0.00575158  0.64806743  1
  Sc  Sc3  1  0.00024763  0.00479808  0.14856118  1
  Sc  Sc4  1  0.67573736  0.32762040  0.68530557  1
  Sc  Sc5  1  0.67128994  0.31749405  0.18507706  1
  Sc  Sc6  1  0.66175328  0.33289263  0.98168355  1
  Sc  Sc7  1  0.66626627  0.33882632  0.48191487  1
  Sc  Sc8  1  0.34416970  0.68142899  0.01813533  1
  Sc  Sc9  1  0.31955043  0.65567732  0.51836789  1
  Sc  Sc10  1  0.32110176  0.66573602  0.31532066  1
  Sc  Sc11  1  0.34775362  0.67772220  0.81510866  1
  P  P0  1  0.29192104  0.99839659  0.24860526  1
  P  P1  1  0.99883059  0.29088180  0.25124085  1
  P  P2  1  0.70841832  0.00045747  0.75091441  1
  P  P3  1  0.95821082  0.33283243  0.58237611  1
  P  P4  1  0.66893837  0.04019980  0.08202310  1
  P  P5  1  0.62489632  0.66371509  0.91676783  1
  P  P6  1  0.33048509  0.95859305  0.91656562  1
  P  P7  1  0.33691833  0.37632066  0.41568928  1
  P  P8  1  0.03971993  0.66860984  0.41736214  1
  S  S0  1  0.70785724  0.70774665  0.24999587  1
  S  S1  1  0.29237723  0.29226148  0.74981094  1
  S  S2  1  0.00025569  0.70824362  0.74928820  1
  S  S3  1  0.37421481  0.04109590  0.58351120  1
  S  S4  1  0.66653179  0.62506914  0.58399017  1
  S  S5  1  0.95828008  0.62468979  0.08349937  1
  S  S6  1  0.37443206  0.33455303  0.08416896  1
  S  S7  1  0.04374704  0.37686527  0.91669652  1
  S  S8  1  0.62424073  0.95703875  0.41697105  1
  O  O0  1  0.21005511  0.03205418  0.30266454  1
  O  O1  1  0.81374836  0.78749546  0.30202529  1
  O  O2  1  0.97124059  0.18287393  0.30691928  1
  O  O3  1  0.21183889  0.18471750  0.80201369  1
  O  O4  1  0.97544037  0.78879715  0.80166425  1
  O  O5  1  0.81703652  0.02723221  0.80647234  1
  O  O6  1  0.79668351  0.97482492  0.69745995  1
  O  O7  1  0.18553139  0.20888831  0.69754434  1
  O  O8  1  0.02662766  0.81591541  0.69733205  1
  O  O9  1  0.78846565  0.81416573  0.19759465  1
  O  O10  1  0.03044410  0.20505643  0.19797915  1
  O  O11  1  0.17801415  0.97212253  0.19495199  1
  O  O12  1  0.87001378  0.35860139  0.63588689  1
  O  O13  1  0.48123041  0.12456247  0.63580793  1
  O  O14  1  0.64000733  0.51732147  0.63601659  1
  O  O15  1  0.87529983  0.51923649  0.13569846  1
  O  O16  1  0.64130812  0.12718490  0.13538242  1
  O  O17  1  0.47849117  0.36050186  0.13731855  1
  O  O18  1  0.45808583  0.31026647  0.03256323  1
  O  O19  1  0.85118469  0.54359128  0.03107452  1
  O  O20  1  0.69376629  0.14971473  0.02664415  1
  O  O21  1  0.45469788  0.14850311  0.53136143  1
  O  O22  1  0.69116850  0.54450022  0.53168876  1
  O  O23  1  0.84968649  0.30613862  0.52687191  1
  O  O24  1  0.54135224  0.69788599  0.97002979  1
  O  O25  1  0.14831116  0.45573531  0.96904818  1
  O  O26  1  0.30294269  0.84616336  0.97080182  1
  O  O27  1  0.54377731  0.85184961  0.46943389  1
  O  O28  1  0.30454869  0.46268956  0.46876411  1
  O  O29  1  0.15404595  0.69637287  0.47116176  1
  O  O30  1  0.12212077  0.63374535  0.36387953  1
  O  O31  1  0.51919318  0.87794896  0.36475527  1
  O  O32  1  0.36278353  0.48330023  0.35977555  1
  O  O33  1  0.12263508  0.48175117  0.86422476  1
  O  O34  1  0.36477409  0.87491198  0.86326074  1
  O  O35  1  0.51251636  0.63646710  0.86245034  1
  O  O36  1  0.01668742  0.82715195  0.41038053  1
  O  O37  1  0.80244286  0.98130692  0.41119526  1
  O  O38  1  0.16475160  0.19599584  0.41094224  1
  O  O39  1  0.01888990  0.19767280  0.91086014  1
  O  O40  1  0.17170131  0.98161320  0.90931938  1
  O  O41  1  0.80495819  0.83474765  0.90997855  1
  O  O42  1  0.97811723  0.16997495  0.58955910  1
  O  O43  1  0.19878127  0.02076602  0.59013955  1
  O  O44  1  0.82657857  0.79935986  0.58958901  1
  O  O45  1  0.97758040  0.80027238  0.08902824  1
  O  O46  1  0.83158144  0.02135630  0.08954977  1
  O  O47  1  0.19994558  0.17458473  0.08881934  1
  O  O48  1  0.68857991  0.16335468  0.74378074  1
  O  O49  1  0.46789027  0.31264893  0.74319383  1
  O  O50  1  0.84008193  0.53394514  0.74372138  1
  O  O51  1  0.68356548  0.52972708  0.24334527  1
  O  O52  1  0.84057956  0.31536306  0.24415215  1
  O  O53  1  0.47121065  0.17130317  0.24293755  1
  O  O54  1  0.64797785  0.50491786  0.92396484  1
  O  O55  1  0.86453916  0.35226806  0.92238223  1
  O  O56  1  0.50150749  0.13864936  0.92329738  1
  O  O57  1  0.64752225  0.13575908  0.42260925  1
  O  O58  1  0.49512089  0.35240339  0.42370353  1
  O  O59  1  0.86038386  0.49709700  0.42364185  1
  O  O60  1  0.35360533  0.48882818  0.07694586  1
  O  O61  1  0.13186866  0.63996593  0.07747946  1
  O  O62  1  0.50272235  0.85772509  0.07784368  1
  O  O63  1  0.36006571  0.86805171  0.57759638  1
  O  O64  1  0.51238876  0.64655658  0.57702720  1
  O  O65  1  0.14172307  0.49722303  0.57814794  1
  O  O66  1  0.31638288  0.84069218  0.25613570  1
  O  O67  1  0.53056699  0.68576331  0.25559889  1
  O  O68  1  0.16999066  0.47144730  0.25577502  1
  O  O69  1  0.30657274  0.46533313  0.75575282  1
  O  O70  1  0.15427426  0.68665337  0.75631078  1
  O  O71  1  0.52502948  0.83603654  0.75513296  1
loop_
_geom_bond_atom_site_label_1
_geom_bond_atom_site_label_2
_geom_bond_distance
_geom_bond_site_symmetry_2
Na0 O68 2.347242 1_555
Na0 O53 2.347384 1_555
Na0 O51 2.502240 1_555
Na0 O67 2.510343 1_555
Na0 O32 2.729338 1_555
Na0 O0 2.774104 1_555
Na0 O10 2.803789 1_555
Na0 O17 2.842583 1_555
Na1 O41 2.369387 1_545
Na1 O56 2.371595 1_555
Na1 O39 2.517295 1_655
Na1 O55 2.517402 1_555
Na1 O20 2.769103 1_556
Na1 O5 2.777363 1_555
Na1 O24 2.794365 1_545
Na1 O34 2.794998 1_545
Na2 O38 2.352576 1_655
Na2 O59 2.373700 1_555
Na2 O37 2.507072 1_545
Na2 O57 2.516901 1_555
Na2 O2 2.762971 1_555
Na2 O23 2.776031 1_555
Na2 O30 2.786596 1_655
Na2 O28 2.799745 1_655
Na3 O36 2.603653 1_555
Na3 O38 2.620094 1_565
Na3 O43 2.627087 1_565
Na3 O44 2.649223 1_455
Na3 O42 2.658974 1_465
Na3 O37 2.684235 1_455
Na4 O45 2.599220 1_455
Na4 O40 2.632299 1_554
Na4 O47 2.633940 1_565
Na4 O41 2.638190 1_454
Na4 O46 2.638661 1_465
Na4 O39 2.698737 1_564
Na5 O49 2.622261 1_555
Na5 O54 2.624145 1_555
Na5 O56 2.635575 1_555
Na5 O50 2.646901 1_555
Na5 O48 2.656709 1_555
Na5 O55 2.694685 1_555
Na6 O59 2.626459 1_555
Na6 O53 2.627675 1_555
Na6 O52 2.635221 1_555
Na6 O58 2.641950 1_555
Na6 O57 2.650298 1_555
Na6 O51 2.659654 1_555
Na7 O62 2.560221 1_555
Na7 O66 2.574337 1_555
Na7 O61 2.610024 1_555
Na7 O68 2.655364 1_555
Na7 O67 2.690304 1_555
Na7 O60 2.737029 1_555
Na8 O71 2.596172 1_555
Na8 O65 2.598547 1_555
Na8 O69 2.648530 1_555
Na8 O63 2.650328 1_555
Na8 O70 2.675284 1_555
Na8 O64 2.677093 1_555
O0 P0 1.551104 1_545
O0 Sc0 1.984704 1_555
O1 S0 1.467472 1_555
O1 Sc0 2.160124 1_665
O2 P1 1.544140 1_555
O2 Sc0 2.087568 1_655
O3 S1 1.477536 1_555
O3 Sc1 2.126639 1_445
O4 S2 1.480268 1_655
O4 Sc1 2.078201 1_555
O5 P2 1.546054 1_555
O5 Sc1 2.064235 1_545
O6 P2 1.542779 1_565
O6 Sc2 1.973143 1_565
O7 S1 1.480795 1_555
O7 Sc2 2.099004 1_455
O8 S2 1.473760 1_555
O8 Sc2 2.180227 1_465
O9 S0 1.477424 1_555
O9 Sc3 2.116465 1_665
O10 P1 1.548838 1_455
O10 Sc3 2.018456 1_555
O11 P0 1.537337 1_555
O11 Sc3 2.041585 1_565
O12 P3 1.543962 1_555
O12 Sc4 1.973234 1_555
O13 S3 1.482092 1_555
O13 Sc4 2.098783 1_555
O14 S4 1.475234 1_555
O14 Sc4 2.179873 1_555
O15 S5 1.473999 1_555
O15 Sc5 2.126520 1_555
O16 P4 1.541649 1_555
O16 Sc5 1.951197 1_555
O17 S6 1.479291 1_555
O17 Sc5 2.221023 1_555
O18 S6 1.479685 1_555
O18 Sc6 2.084720 1_554
O19 S5 1.481115 1_555
O19 Sc6 2.112604 1_554
O20 P4 1.549663 1_555
O20 Sc6 2.062284 1_554
O21 S3 1.475977 1_555
O21 Sc7 2.119694 1_555
O22 S4 1.478305 1_555
O22 Sc7 2.078070 1_555
O23 P3 1.544689 1_555
O23 Sc7 2.067538 1_555
O24 P5 1.546940 1_555
O24 Sc8 2.020659 1_556
O25 S7 1.467677 1_555
O25 Sc8 2.195164 1_556
O26 P6 1.538581 1_555
O26 Sc8 1.997465 1_556
O27 S8 1.474125 1_555
O27 Sc9 2.187454 1_555
O28 P7 1.551193 1_555
O28 Sc9 2.013878 1_555
O29 P8 1.539919 1_555
O29 Sc9 1.999121 1_555
O30 P8 1.547837 1_555
O30 Sc10 1.993103 1_555
O31 S8 1.467095 1_555
O31 Sc10 2.147368 1_555
O32 P7 1.546102 1_555
O32 Sc10 2.098036 1_555
O33 S7 1.470933 1_555
O33 Sc11 2.193097 1_555
O34 P6 1.548891 1_555
O34 Sc11 2.019341 1_555
O35 P5 1.540465 1_555
O35 Sc11 1.998117 1_555
O36 P8 1.529927 1_555
O36 Sc0 2.072349 1_565
O37 S8 1.493337 1_555
O37 Sc0 2.263523 1_665
O38 P7 1.565103 1_555
O38 Sc0 2.083378 1_555
O39 S7 1.499893 1_555
O39 Sc1 2.210565 1_445
O40 P6 1.532806 1_555
O40 Sc1 2.068382 1_455
O41 P5 1.563254 1_555
O41 Sc1 2.083507 1_555
O42 P3 1.551902 1_555
O42 Sc2 2.027542 1_555
O43 S3 1.484962 1_555
O43 Sc2 2.233481 1_455
O44 S4 1.489359 1_555
O44 Sc2 2.149972 1_565
O45 S5 1.487296 1_555
O45 Sc3 2.209716 1_665
O46 P4 1.545565 1_555
O46 Sc3 2.078899 1_655
O47 S6 1.488303 1_555
O47 Sc3 2.151623 1_555
O48 P2 1.551784 1_555
O48 Sc4 2.027257 1_555
O49 S1 1.485424 1_555
O49 Sc4 2.233363 1_555
O50 S2 1.489819 1_655
O50 Sc4 2.148643 1_555
O51 S0 1.493451 1_555
O51 Sc5 2.278564 1_555
O52 P1 1.535548 1_555
O52 Sc5 2.032050 1_555
O53 P0 1.564937 1_545
O53 Sc5 2.075691 1_555
O54 P5 1.532930 1_555
O54 Sc6 2.071464 1_555
O55 S7 1.500837 1_655
O55 Sc6 2.204124 1_555
O56 P6 1.563058 1_545
O56 Sc6 2.085203 1_555
O57 S8 1.500812 1_545
O57 Sc7 2.207931 1_555
O58 P7 1.534421 1_555
O58 Sc7 2.072289 1_555
O59 P8 1.560644 1_655
O59 Sc7 2.078311 1_555
O60 S6 1.481404 1_555
O60 Sc8 2.212858 1_555
O61 S5 1.486142 1_455
O61 Sc8 2.211205 1_555
O62 P4 1.551265 1_565
O62 Sc8 2.028353 1_555
O63 S3 1.485236 1_565
O63 Sc9 2.212205 1_555
O64 S4 1.483288 1_555
O64 Sc9 2.211503 1_555
O65 P3 1.549847 1_455
O65 Sc9 2.034897 1_555
O66 P0 1.531520 1_555
O66 Sc10 2.080022 1_555
O67 S0 1.492994 1_555
O67 Sc10 2.254778 1_555
O68 P1 1.561804 1_455
O68 Sc10 2.083141 1_555
O69 S1 1.485358 1_555
O69 Sc11 2.212542 1_555
O70 S2 1.482880 1_555
O70 Sc11 2.217235 1_555
O71 P2 1.549310 1_565
O71 Sc11 2.035483 1_555
