# generated using pymatgen
data_MnInBr3
_symmetry_space_group_name_H-M   'P 1'
_cell_length_a   3.97685468
_cell_length_b   9.54234417
_cell_length_c   15.36261815
_cell_angle_alpha   90.00000000
_cell_angle_beta   90.00000000
_cell_angle_gamma   90.00000000
_symmetry_Int_Tables_number   1
_chemical_formula_structural   MnInBr3
_chemical_formula_sum   'Mn4 In4 Br12'
_cell_volume   582.98856175
_cell_formula_units_Z   4
loop_
 _symmetry_equiv_pos_site_id
 _symmetry_equiv_pos_as_xyz
  1  'x, y, z'
loop_
 _atom_site_type_symbol
 _atom_site_label
 _atom_site_symmetry_multiplicity
 _atom_site_fract_x
 _atom_site_fract_y
 _atom_site_fract_z
 _atom_site_occupancy
  Mn  Mn0  1  0.25000000  0.16175315  0.55500177  1
  Mn  Mn1  1  0.75000000  0.83824685  0.44499823  1
  Mn  Mn2  1  0.25000000  0.66175315  0.94499823  1
  Mn  Mn3  1  0.75000000  0.33824685  0.05500177  1
  In  In0  1  0.25000000  0.47094577  0.32490328  1
  In  In1  1  0.75000000  0.52905423  0.67509672  1
  In  In2  1  0.25000000  0.97094577  0.17509672  1
  In  In3  1  0.75000000  0.02905423  0.82490328  1
  Br  Br0  1  0.75000000  0.47866750  0.89859808  1
  Br  Br1  1  0.25000000  0.52133250  0.10140192  1
  Br  Br2  1  0.75000000  0.97866750  0.60140192  1
  Br  Br3  1  0.25000000  0.02133250  0.39859808  1
  Br  Br4  1  0.75000000  0.82603696  0.00257824  1
  Br  Br5  1  0.25000000  0.17396304  0.99742176  1
  Br  Br6  1  0.75000000  0.32603696  0.49742176  1
  Br  Br7  1  0.25000000  0.67396304  0.50257824  1
  Br  Br8  1  0.75000000  0.22312083  0.20895036  1
  Br  Br9  1  0.25000000  0.77687917  0.79104964  1
  Br  Br10  1  0.75000000  0.72312083  0.29104964  1
  Br  Br11  1  0.25000000  0.27687917  0.70895036  1
loop_
_geom_bond_atom_site_label_1
_geom_bond_atom_site_label_2
_geom_bond_distance
_geom_bond_site_symmetry_2
Br0 Mn2 2.741205 1_555
Br0 Mn2 2.741205 1_655
Br0 Mn3 2.751136 1_556
Br1 Mn3 2.741205 1_455
Br1 Mn3 2.741205 1_555
Br1 Mn2 2.751136 1_554
Br2 Mn0 2.741205 1_665
Br2 Mn0 2.741205 1_565
Br2 Mn1 2.751136 1_555
Br3 Mn1 2.741205 1_445
Br3 Mn1 2.741205 1_545
Br3 Mn0 2.751136 1_555
Br4 Mn2 2.682137 1_654
Br4 Mn2 2.682137 1_554
Br5 Mn3 2.682137 1_556
Br5 Mn3 2.682137 1_456
Br6 Mn0 2.682137 1_655
Br6 Mn0 2.682137 1_555
Br7 Mn1 2.682137 1_455
Br7 Mn1 2.682137 1_555
Br8 Mn3 2.607746 1_555
Br8 In2 3.164618 1_645
Br8 In2 3.164618 1_545
Br9 Mn2 2.607746 1_555
Br9 In3 3.164618 1_565
Br9 In3 3.164618 1_465
Br10 Mn1 2.607746 1_555
Br10 In0 3.164618 1_555
Br10 In0 3.164618 1_655
Br11 Mn0 2.607746 1_555
Br11 In1 3.164618 1_555
Br11 In1 3.164618 1_455
