# generated using pymatgen
data_MgMn4Zn2O8
_symmetry_space_group_name_H-M   'P 1'
_cell_length_a   6.05162418
_cell_length_b   6.24682257
_cell_length_c   6.09449180
_cell_angle_alpha   63.62224962
_cell_angle_beta   57.99318149
_cell_angle_gamma   63.85299202
_symmetry_Int_Tables_number   1
_chemical_formula_structural   MgMn4Zn2O8
_chemical_formula_sum   'Mg1 Mn4 Zn2 O8'
_cell_volume   168.52304855
_cell_formula_units_Z   1
loop_
 _symmetry_equiv_pos_site_id
 _symmetry_equiv_pos_as_xyz
  1  'x, y, z'
loop_
 _atom_site_type_symbol
 _atom_site_label
 _atom_site_symmetry_multiplicity
 _atom_site_fract_x
 _atom_site_fract_y
 _atom_site_fract_z
 _atom_site_occupancy
  Mg  Mg0  1  0.12500000  0.62500000  0.12500000  1
  Mn  Mn0  1  0.95851600  0.09237000  0.97725600  1
  Mn  Mn1  1  0.29148400  0.15763000  0.27274400  1
  Mn  Mn2  1  0.62500000  0.62500000  0.12500000  1
  Mn  Mn3  1  0.62500000  0.62500000  0.62500000  1
  Zn  Zn0  1  0.12500000  0.62500000  0.62500000  1
  Zn  Zn1  1  0.62500000  0.12500000  0.62500000  1
  O  O0  1  0.37762600  0.41037800  0.34171300  1
  O  O1  1  0.42416100  0.79340800  0.40287700  1
  O  O2  1  0.38398000  0.38788000  0.86201400  1
  O  O3  1  0.87523500  0.38092900  0.38547900  1
  O  O4  1  0.37476500  0.86907100  0.86452100  1
  O  O5  1  0.82583900  0.45659200  0.84712300  1
  O  O6  1  0.86602000  0.86212000  0.38798600  1
  O  O7  1  0.87237400  0.83962200  0.90828700  1
loop_
_geom_bond_atom_site_label_1
_geom_bond_atom_site_label_2
_geom_bond_distance
_geom_bond_site_symmetry_2
Mg0 O4 2.113332 1_554
Mg0 O3 2.113332 1_455
Mg0 O6 2.149415 1_455
Mg0 O2 2.149415 1_554
Mg0 O0 2.153971 1_555
Mg0 O7 2.153971 1_454
Mn0 O5 1.977849 1_555
Mn0 O7 2.118644 1_545
Mn0 O6 2.161743 1_546
Mn0 O4 2.164079 1_645
Mn1 O1 1.977849 1_545
Mn1 O0 2.118644 1_555
Mn1 O2 2.161743 1_554
Mn1 O3 2.164079 1_455
Mn2 O1 1.930345 1_555
Mn2 O5 1.930345 1_554
Mn2 O7 1.970411 1_554
Mn2 O0 1.970411 1_555
Mn2 O3 2.345341 1_555
Mn2 O4 2.345341 1_554
Mn3 O5 1.941199 1_555
Mn3 O1 1.941199 1_555
Mn3 O2 2.043915 1_555
Mn3 O6 2.043915 1_555
Mn3 O4 2.085227 1_555
Mn3 O3 2.085227 1_555
O0 Zn0 2.137258 1_555
O0 Zn1 2.460213 1_555
O1 Zn0 2.008008 1_555
O2 Zn1 2.161949 1_555
O2 Zn0 2.278026 1_555
O3 Zn1 2.167215 1_555
O4 Zn1 2.167215 1_565
O5 Zn0 2.008008 1_655
O6 Zn1 2.161949 1_565
O6 Zn0 2.278026 1_655
O7 Zn0 2.137258 1_655
O7 Zn1 2.460213 1_565
