# generated using pymatgen
data_Ta3Ga(PO4)6
_symmetry_space_group_name_H-M   'P 1'
_cell_length_a   8.70553771
_cell_length_b   8.70553743
_cell_length_c   22.46369653
_cell_angle_alpha   90.00000000
_cell_angle_beta   90.00000000
_cell_angle_gamma   120.00000108
_symmetry_Int_Tables_number   1
_chemical_formula_structural   Ta3Ga(PO4)6
_chemical_formula_sum   'Ta9 Ga3 P18 O72'
_cell_volume   1474.35829956
_cell_formula_units_Z   3
loop_
 _symmetry_equiv_pos_site_id
 _symmetry_equiv_pos_as_xyz
  1  'x, y, z'
loop_
 _atom_site_type_symbol
 _atom_site_label
 _atom_site_symmetry_multiplicity
 _atom_site_fract_x
 _atom_site_fract_y
 _atom_site_fract_z
 _atom_site_occupancy
  Ta  Ta0  1  0.00000000  0.00000000  0.85460005  1
  Ta  Ta1  1  0.00000000  0.00000000  0.64025377  1
  Ta  Ta2  1  0.00000000  0.00000000  0.14706089  1
  Ta  Ta3  1  0.66666700  0.33333300  0.97838456  1
  Ta  Ta4  1  0.66666700  0.33333300  0.47345187  1
  Ta  Ta5  1  0.33333300  0.66666700  0.02676950  1
  Ta  Ta6  1  0.33333300  0.66666700  0.52127184  1
  Ta  Ta7  1  0.33333300  0.66666700  0.30670134  1
  Ta  Ta8  1  0.33333300  0.66666700  0.80641945  1
  Ga  Ga0  1  0.00000000  0.00000000  0.35395856  1
  Ga  Ga1  1  0.66666700  0.33333300  0.68777993  1
  Ga  Ga2  1  0.66666700  0.33333300  0.19241017  1
  P  P0  1  0.29015290  0.00885863  0.25191370  1
  P  P1  1  0.71870572  0.70984710  0.25191370  1
  P  P2  1  0.99114137  0.28129428  0.25191370  1
  P  P3  1  0.29225246  0.28319310  0.74816120  1
  P  P4  1  0.99094065  0.70774754  0.74816120  1
  P  P5  1  0.71680690  0.00905935  0.74816120  1
  P  P6  1  0.94822142  0.33724352  0.58461322  1
  P  P7  1  0.38902310  0.05177858  0.58461322  1
  P  P8  1  0.66275648  0.61097690  0.58461322  1
  P  P9  1  0.94672824  0.61680478  0.08608099  1
  P  P10  1  0.67007754  0.05327176  0.08608099  1
  P  P11  1  0.38319522  0.32992246  0.08608099  1
  P  P12  1  0.61671105  0.66652162  0.91656292  1
  P  P13  1  0.04980957  0.38328895  0.91656292  1
  P  P14  1  0.33347838  0.95019043  0.91656292  1
  P  P15  1  0.62533156  0.94973219  0.41458260  1
  P  P16  1  0.32439963  0.37466844  0.41458260  1
  P  P17  1  0.05026781  0.67560037  0.41458260  1
  O  O0  1  0.20445173  0.03515818  0.30618245  1
  O  O1  1  0.83070645  0.79554827  0.30618245  1
  O  O2  1  0.96484182  0.16929355  0.30618245  1
  O  O3  1  0.19749907  0.16937243  0.80477973  1
  O  O4  1  0.97187336  0.80250093  0.80477973  1
  O  O5  1  0.83062757  0.02812664  0.80477973  1
  O  O6  1  0.80142185  0.96881706  0.69471793  1
  O  O7  1  0.16739521  0.19857815  0.69471793  1
  O  O8  1  0.03118294  0.83260479  0.69471793  1
  O  O9  1  0.80227065  0.83227625  0.19499527  1
  O  O10  1  0.03000560  0.19772935  0.19499527  1
  O  O11  1  0.16772375  0.96999440  0.19499527  1
  O  O12  1  0.87278994  0.36977232  0.64038125  1
  O  O13  1  0.49698338  0.12721006  0.64038125  1
  O  O14  1  0.63022768  0.50301662  0.64038125  1
  O  O15  1  0.86981143  0.49967626  0.13906399  1
  O  O16  1  0.62986583  0.13018857  0.13906399  1
  O  O17  1  0.50032374  0.37013417  0.13906399  1
  O  O18  1  0.46941551  0.30466032  0.02799925  1
  O  O19  1  0.83524580  0.53058449  0.02799925  1
  O  O20  1  0.69533968  0.16475420  0.02799925  1
  O  O21  1  0.46890861  0.16694338  0.52873855  1
  O  O22  1  0.69803577  0.53109139  0.52873855  1
  O  O23  1  0.83305662  0.30196423  0.52873855  1
  O  O24  1  0.53216241  0.69715185  0.97163460  1
  O  O25  1  0.16498844  0.46783759  0.97163460  1
  O  O26  1  0.30284815  0.83501156  0.97163460  1
  O  O27  1  0.53091761  0.83621956  0.47142673  1
  O  O28  1  0.30530095  0.46908239  0.47142673  1
  O  O29  1  0.16378044  0.69469905  0.47142673  1
  O  O30  1  0.13468139  0.63503510  0.36125203  1
  O  O31  1  0.50035271  0.86531861  0.36125203  1
  O  O32  1  0.36496490  0.49964729  0.36125203  1
  O  O33  1  0.13545552  0.49903927  0.86115428  1
  O  O34  1  0.36358275  0.86454448  0.86115428  1
  O  O35  1  0.50096073  0.63641725  0.86115428  1
  O  O36  1  0.02682772  0.83357969  0.40806078  1
  O  O37  1  0.80675197  0.97317228  0.40806078  1
  O  O38  1  0.16642031  0.19324803  0.40806078  1
  O  O39  1  0.02720959  0.19753267  0.90646976  1
  O  O40  1  0.17032308  0.97279041  0.90646976  1
  O  O41  1  0.80246733  0.82967692  0.90646976  1
  O  O42  1  0.97165465  0.17094745  0.59352767  1
  O  O43  1  0.19929280  0.02834535  0.59352767  1
  O  O44  1  0.82905255  0.80070720  0.59352767  1
  O  O45  1  0.97296195  0.80380684  0.09167440  1
  O  O46  1  0.83084489  0.02703805  0.09167440  1
  O  O47  1  0.19619316  0.16915511  0.09167440  1
  O  O48  1  0.69384532  0.16728879  0.74166197  1
  O  O49  1  0.47344446  0.30615468  0.74166197  1
  O  O50  1  0.83271121  0.52655554  0.74166197  1
  O  O51  1  0.69191396  0.52825450  0.23997141  1
  O  O52  1  0.83634154  0.30808604  0.23997141  1
  O  O53  1  0.47174550  0.16365846  0.23997141  1
  O  O54  1  0.63934968  0.50385169  0.92607009  1
  O  O55  1  0.86450301  0.36065032  0.92607009  1
  O  O56  1  0.49614831  0.13549699  0.92607009  1
  O  O57  1  0.63756270  0.13322943  0.42705429  1
  O  O58  1  0.49566774  0.36243730  0.42705429  1
  O  O59  1  0.86677057  0.50433226  0.42705429  1
  O  O60  1  0.35976629  0.49432325  0.07220671  1
  O  O61  1  0.13455596  0.64023371  0.07220671  1
  O  O62  1  0.50567675  0.86544404  0.07220671  1
  O  O63  1  0.35837504  0.86307845  0.57297988  1
  O  O64  1  0.50470241  0.64162496  0.57297988  1
  O  O65  1  0.13692155  0.49529759  0.57297988  1
  O  O66  1  0.30417896  0.83671985  0.25949365  1
  O  O67  1  0.53253989  0.69582104  0.25949365  1
  O  O68  1  0.16328015  0.46746011  0.25949365  1
  O  O69  1  0.30426982  0.46658979  0.76023475  1
  O  O70  1  0.16231897  0.69573018  0.76023475  1
  O  O71  1  0.53341021  0.83768103  0.76023475  1
loop_
_geom_bond_atom_site_label_1
_geom_bond_atom_site_label_2
_geom_bond_distance
_geom_bond_site_symmetry_2
Ga0 O1 1.966887 1_445
Ga0 O2 1.966887 1_455
Ga0 O0 1.966887 1_555
Ga0 O38 1.992212 1_555
Ga0 O36 1.992212 1_545
Ga0 O37 1.992212 1_445
Ga1 O13 1.971041 1_555
Ga1 O14 1.971041 1_555
Ga1 O12 1.971041 1_555
Ga1 O48 1.988093 1_555
Ga1 O50 1.988093 1_555
Ga1 O49 1.988093 1_555
Ga2 O51 1.922573 1_555
Ga2 O53 1.922573 1_555
Ga2 O52 1.922573 1_555
Ga2 O16 2.024757 1_555
Ga2 O15 2.024757 1_555
Ga2 O17 2.024757 1_555
O0 P0 1.505327 1_555
O1 P1 1.505327 1_555
O2 P2 1.505327 1_555
O3 P3 1.569246 1_555
O3 Ta0 1.961523 1_555
O4 P4 1.569246 1_555
O4 Ta0 1.961523 1_665
O5 P5 1.569246 1_555
O5 Ta0 1.961523 1_655
O6 P5 1.537751 1_565
O6 Ta1 2.022321 1_665
O7 P3 1.537751 1_555
O7 Ta1 2.022321 1_555
O8 P4 1.537751 1_455
O8 Ta1 2.022321 1_565
O9 P1 1.588911 1_555
O9 Ta2 1.934184 1_665
O10 P2 1.588911 1_455
O10 Ta2 1.934184 1_555
O11 P0 1.588911 1_565
O11 Ta2 1.934184 1_565
O12 P6 1.505577 1_555
O13 P7 1.505577 1_555
O14 P8 1.505577 1_555
O15 P9 1.490597 1_555
O16 P10 1.490597 1_555
O17 P11 1.490597 1_555
O18 P11 1.574531 1_555
O18 Ta3 1.955649 1_554
O19 P9 1.574531 1_555
O19 Ta3 1.955649 1_554
O20 P10 1.574531 1_555
O20 Ta3 1.955649 1_554
O21 P7 1.538495 1_555
O21 Ta4 2.027497 1_555
O22 P8 1.538495 1_555
O22 Ta4 2.027497 1_555
O23 P6 1.538495 1_555
O23 Ta4 2.027497 1_555
O24 P12 1.529568 1_555
O24 Ta5 2.034971 1_556
O25 P13 1.529568 1_555
O25 Ta5 2.034971 1_556
O26 P14 1.529568 1_555
O26 Ta5 2.034971 1_556
O27 P15 1.571753 1_555
O27 Ta6 1.962705 1_555
O28 P16 1.571753 1_555
O28 Ta6 1.962705 1_555
O29 P17 1.571753 1_555
O29 Ta6 1.962705 1_555
O30 P17 1.536053 1_555
O30 Ta7 2.022859 1_555
O31 P15 1.536053 1_555
O31 Ta7 2.022858 1_555
O32 P16 1.536053 1_555
O32 Ta7 2.022858 1_555
O33 P13 1.539230 1_555
O33 Ta8 2.023598 1_555
O34 P14 1.539230 1_555
O34 Ta8 2.023598 1_555
O35 P12 1.539230 1_555
O35 Ta8 2.023598 1_555
O36 P17 1.495052 1_555
O37 P15 1.495061 1_555
O38 P16 1.495057 1_555
O39 P13 1.544991 1_555
O39 Ta0 1.990867 1_555
O40 P14 1.544982 1_555
O40 Ta0 1.990867 1_565
O41 P12 1.544987 1_555
O41 Ta0 1.990867 1_665
O42 P6 1.572536 1_555
O42 Ta1 1.935090 1_655
O43 P7 1.572545 1_555
O43 Ta1 1.935090 1_555
O44 P8 1.572541 1_555
O44 Ta1 1.935090 1_665
O45 P9 1.531792 1_555
O45 Ta2 2.029416 1_665
O46 P10 1.531784 1_555
O46 Ta2 2.029416 1_655
O47 P11 1.531789 1_555
O47 Ta2 2.029416 1_555
O48 P5 1.494674 1_555
O49 P3 1.494682 1_555
O50 P4 1.494679 1_555
O51 P1 1.502256 1_555
O52 P2 1.502248 1_555
O53 P0 1.502253 1_555
O54 P12 1.539145 1_555
O54 Ta3 1.998556 1_555
O55 P13 1.539128 1_655
O55 Ta3 1.998556 1_555
O56 P14 1.539134 1_545
O56 Ta3 1.998556 1_555
O57 P15 1.572118 1_545
O57 Ta4 1.934872 1_555
O58 P16 1.572135 1_555
O58 Ta4 1.934872 1_555
O59 P17 1.572126 1_655
O59 Ta4 1.934872 1_555
O60 P11 1.574475 1_555
O60 Ta5 1.921209 1_555
O61 P9 1.574458 1_455
O61 Ta5 1.921209 1_555
O62 P10 1.574465 1_565
O62 Ta5 1.921209 1_555
O63 P7 1.549118 1_565
O63 Ta6 1.986862 1_555
O64 P8 1.549135 1_555
O64 Ta6 1.986862 1_555
O65 P6 1.549124 1_455
O65 Ta6 1.986862 1_555
O66 P0 1.572440 1_565
O66 Ta7 1.938119 1_555
O67 P1 1.572449 1_555
O67 Ta7 1.938119 1_555
O68 P2 1.572445 1_455
O68 Ta7 1.938119 1_555
O69 P3 1.570509 1_555
O69 Ta8 1.932223 1_555
O70 P4 1.570501 1_455
O70 Ta8 1.932223 1_555
O71 P5 1.570505 1_565
O71 Ta8 1.932223 1_555
