# generated using pymatgen
data_Se2NCl3
_symmetry_space_group_name_H-M   'P 1'
_cell_length_a   8.37821300
_cell_length_b   13.36754500
_cell_length_c   26.28344000
_cell_angle_alpha   90.00000000
_cell_angle_beta   90.00000000
_cell_angle_gamma   90.00000000
_symmetry_Int_Tables_number   1
_chemical_formula_structural   Se2NCl3
_chemical_formula_sum   'Se32 N16 Cl48'
_cell_volume   2943.64380745
_cell_formula_units_Z   16
loop_
 _symmetry_equiv_pos_site_id
 _symmetry_equiv_pos_as_xyz
  1  'x, y, z'
loop_
 _atom_site_type_symbol
 _atom_site_label
 _atom_site_symmetry_multiplicity
 _atom_site_fract_x
 _atom_site_fract_y
 _atom_site_fract_z
 _atom_site_occupancy
  Se  Se0  1  0.58923000  0.29739400  0.37375500  1
  Se  Se1  1  0.08923000  0.70260600  0.12624500  1
  Se  Se2  1  0.91077000  0.79739400  0.62624500  1
  Se  Se3  1  0.41077000  0.20260600  0.87375500  1
  Se  Se4  1  0.41077000  0.70260600  0.62624500  1
  Se  Se5  1  0.91077000  0.29739400  0.87375500  1
  Se  Se6  1  0.08923000  0.20260600  0.37375500  1
  Se  Se7  1  0.58923000  0.79739400  0.12624500  1
  Se  Se8  1  0.77806300  0.44527600  0.43734800  1
  Se  Se9  1  0.27806300  0.55472400  0.06265200  1
  Se  Se10  1  0.72193700  0.94527600  0.56265200  1
  Se  Se11  1  0.22193700  0.05472400  0.93734800  1
  Se  Se12  1  0.22193700  0.55472400  0.56265200  1
  Se  Se13  1  0.72193700  0.44527600  0.93734800  1
  Se  Se14  1  0.27806300  0.05472400  0.43734800  1
  Se  Se15  1  0.77806300  0.94527600  0.06265200  1
  Se  Se16  1  0.77740400  0.90346900  0.30441700  1
  Se  Se17  1  0.27740400  0.09653100  0.19558300  1
  Se  Se18  1  0.72259600  0.40346900  0.69558300  1
  Se  Se19  1  0.22259600  0.59653100  0.80441700  1
  Se  Se20  1  0.22259600  0.09653100  0.69558300  1
  Se  Se21  1  0.72259600  0.90346900  0.80441700  1
  Se  Se22  1  0.27740400  0.59653100  0.30441700  1
  Se  Se23  1  0.77740400  0.40346900  0.19558300  1
  Se  Se24  1  0.93475800  0.80911300  0.39617000  1
  Se  Se25  1  0.43475800  0.19088700  0.10383000  1
  Se  Se26  1  0.56524200  0.30911300  0.60383000  1
  Se  Se27  1  0.06524200  0.69088700  0.89617000  1
  Se  Se28  1  0.06524200  0.19088700  0.60383000  1
  Se  Se29  1  0.56524200  0.80911300  0.89617000  1
  Se  Se30  1  0.43475800  0.69088700  0.39617000  1
  Se  Se31  1  0.93475800  0.30911300  0.10383000  1
  N  N0  1  0.77519100  0.35182800  0.38975000  1
  N  N1  1  0.27519100  0.64817200  0.11025000  1
  N  N2  1  0.72480900  0.85182800  0.61025000  1
  N  N3  1  0.22480900  0.14817200  0.88975000  1
  N  N4  1  0.22480900  0.64817200  0.61025000  1
  N  N5  1  0.72480900  0.35182800  0.88975000  1
  N  N6  1  0.27519100  0.14817200  0.38975000  1
  N  N7  1  0.77519100  0.85182800  0.11025000  1
  N  N8  1  0.75832800  0.83562700  0.36176300  1
  N  N9  1  0.25832800  0.16437300  0.13823700  1
  N  N10  1  0.74167200  0.33562700  0.63823700  1
  N  N11  1  0.24167200  0.66437300  0.86176300  1
  N  N12  1  0.24167200  0.16437300  0.63823700  1
  N  N13  1  0.74167200  0.83562700  0.86176300  1
  N  N14  1  0.25832800  0.66437300  0.36176300  1
  N  N15  1  0.75832800  0.33562700  0.13823700  1
  Cl  Cl0  1  0.51456400  0.89964700  0.28742900  1
  Cl  Cl1  1  0.29699000  0.77343800  0.45866600  1
  Cl  Cl2  1  0.70301000  0.72656200  0.95866600  1
  Cl  Cl3  1  0.20301000  0.27343800  0.54133400  1
  Cl  Cl4  1  0.20301000  0.77343800  0.95866600  1
  Cl  Cl5  1  0.70301000  0.22656200  0.54133400  1
  Cl  Cl6  1  0.29699000  0.27343800  0.04133400  1
  Cl  Cl7  1  0.79699000  0.72656200  0.45866600  1
  Cl  Cl8  1  0.04211100  0.97018400  0.06996500  1
  Cl  Cl9  1  0.01456400  0.60035300  0.28742900  1
  Cl  Cl10  1  0.98543600  0.89964700  0.78742900  1
  Cl  Cl11  1  0.48543600  0.10035300  0.71257100  1
  Cl  Cl12  1  0.48543600  0.60035300  0.78742900  1
  Cl  Cl13  1  0.98543600  0.39964700  0.71257100  1
  Cl  Cl14  1  0.01456400  0.10035300  0.21257100  1
  Cl  Cl15  1  0.79699000  0.22656200  0.04133400  1
  Cl  Cl16  1  0.08178200  0.40443500  0.17361300  1
  Cl  Cl17  1  0.58178200  0.59556500  0.32638700  1
  Cl  Cl18  1  0.41821800  0.90443500  0.82638700  1
  Cl  Cl19  1  0.91821800  0.09556500  0.67361300  1
  Cl  Cl20  1  0.91821800  0.59556500  0.82638700  1
  Cl  Cl21  1  0.41821800  0.40443500  0.67361300  1
  Cl  Cl22  1  0.58178200  0.09556500  0.17361300  1
  Cl  Cl23  1  0.08178200  0.90443500  0.32638700  1
  Cl  Cl24  1  0.47041700  0.91281800  0.05759500  1
  Cl  Cl25  1  0.97041700  0.08718200  0.44240500  1
  Cl  Cl26  1  0.02958300  0.41281800  0.94240500  1
  Cl  Cl27  1  0.52958300  0.58718200  0.55759500  1
  Cl  Cl28  1  0.52958300  0.08718200  0.94240500  1
  Cl  Cl29  1  0.02958300  0.91281800  0.55759500  1
  Cl  Cl30  1  0.97041700  0.58718200  0.05759500  1
  Cl  Cl31  1  0.47041700  0.41281800  0.44240500  1
  Cl  Cl32  1  0.69992000  0.19939000  0.31274600  1
  Cl  Cl33  1  0.19992000  0.80061000  0.18725400  1
  Cl  Cl34  1  0.80008000  0.69939000  0.68725400  1
  Cl  Cl35  1  0.30008000  0.30061000  0.81274600  1
  Cl  Cl36  1  0.30008000  0.80061000  0.68725400  1
  Cl  Cl37  1  0.80008000  0.19939000  0.81274600  1
  Cl  Cl38  1  0.19992000  0.30061000  0.31274600  1
  Cl  Cl39  1  0.69992000  0.69939000  0.18725400  1
  Cl  Cl40  1  0.04211100  0.47018400  0.43003500  1
  Cl  Cl41  1  0.54211100  0.52981600  0.06996500  1
  Cl  Cl42  1  0.45788900  0.97018400  0.56996500  1
  Cl  Cl43  1  0.95788900  0.02981600  0.93003500  1
  Cl  Cl44  1  0.95788900  0.52981600  0.56996500  1
  Cl  Cl45  1  0.45788900  0.47018400  0.93003500  1
  Cl  Cl46  1  0.54211100  0.02981600  0.43003500  1
  Cl  Cl47  1  0.51456400  0.39964700  0.21257100  1
loop_
_geom_bond_atom_site_label_1
_geom_bond_atom_site_label_2
_geom_bond_distance
_geom_bond_site_symmetry_2
N0 Se8 1.768079 1_555
N0 Se0 1.770209 1_555
N1 Se9 1.768079 1_555
N1 Se1 1.770209 1_555
N2 Se10 1.768079 1_555
N2 Se2 1.770209 1_555
N3 Se11 1.768079 1_555
N3 Se3 1.770209 1_555
N4 Se12 1.768079 1_555
N4 Se4 1.770209 1_555
N5 Se13 1.768079 1_555
N5 Se5 1.770209 1_555
N6 Se14 1.768079 1_555
N6 Se6 1.770209 1_555
N7 Se15 1.768079 1_555
N7 Se7 1.770209 1_555
N8 Se16 1.766290 1_555
N8 Se24 1.768734 1_555
N9 Se17 1.766290 1_555
N9 Se25 1.768734 1_555
N10 Se18 1.766290 1_555
N10 Se26 1.768734 1_555
N11 Se19 1.766290 1_555
N11 Se27 1.768734 1_555
N12 Se20 1.766290 1_555
N12 Se28 1.768734 1_555
N13 Se21 1.766290 1_555
N13 Se29 1.768734 1_555
N14 Se22 1.766290 1_555
N14 Se30 1.768734 1_555
N15 Se23 1.766290 1_555
N15 Se31 1.768734 1_555
Cl0 Se16 2.247521 1_555
Cl1 Se30 2.290891 1_555
Cl2 Se29 2.290891 1_555
Cl3 Se28 2.290891 1_555
Cl4 Se27 2.290891 1_555
Cl5 Se26 2.290891 1_555
Cl6 Se25 2.290891 1_555
Cl7 Se24 2.290891 1_555
Cl8 Se15 2.245408 1_455
Cl9 Se22 2.247521 1_555
Cl10 Se21 2.247521 1_555
Cl11 Se20 2.247521 1_555
Cl12 Se19 2.247521 1_555
Cl13 Se18 2.247521 1_555
Cl14 Se17 2.247521 1_555
Cl15 Se31 2.290891 1_555
Cl16 Se31 2.550495 1_455
Cl16 Se23 2.614736 1_455
Cl17 Se30 2.550495 1_555
Cl17 Se22 2.614736 1_555
Cl18 Se29 2.550495 1_555
Cl18 Se21 2.614736 1_555
Cl19 Se28 2.550495 1_655
Cl19 Se20 2.614736 1_655
Cl20 Se27 2.550495 1_655
Cl20 Se19 2.614736 1_655
Cl21 Se26 2.550495 1_555
Cl21 Se18 2.614736 1_555
Cl22 Se25 2.550495 1_555
Cl22 Se17 2.614736 1_555
Cl23 Se24 2.550495 1_455
Cl23 Se16 2.614736 1_455
Cl24 Se7 2.574347 1_555
Cl24 Se15 2.617165 1_555
Cl25 Se6 2.574347 1_655
Cl25 Se14 2.617165 1_655
Cl26 Se5 2.574347 1_455
Cl26 Se13 2.617165 1_455
Cl27 Se4 2.574347 1_555
Cl27 Se12 2.617165 1_555
Cl28 Se3 2.574347 1_555
Cl28 Se11 2.617165 1_555
Cl29 Se2 2.574347 1_455
Cl29 Se10 2.617165 1_455
Cl30 Se1 2.574347 1_655
Cl30 Se9 2.617165 1_655
Cl31 Se0 2.574347 1_555
Cl31 Se8 2.617165 1_555
Cl32 Se0 2.268839 1_555
Cl33 Se1 2.268839 1_555
Cl34 Se2 2.268839 1_555
Cl35 Se3 2.268839 1_555
Cl36 Se4 2.268839 1_555
Cl37 Se5 2.268839 1_555
Cl38 Se6 2.268839 1_555
Cl39 Se7 2.268839 1_555
Cl40 Se8 2.245408 1_455
Cl41 Se9 2.245408 1_555
Cl42 Se10 2.245408 1_555
Cl43 Se11 2.245408 1_655
Cl44 Se12 2.245408 1_655
Cl45 Se13 2.245408 1_555
Cl46 Se14 2.245408 1_555
Cl47 Se23 2.247521 1_555
