# generated using pymatgen
data_LuMnO3
_symmetry_space_group_name_H-M   'P 1'
_cell_length_a   5.24176200
_cell_length_b   5.77488500
_cell_length_c   7.44398600
_cell_angle_alpha   90.00000000
_cell_angle_beta   90.00000000
_cell_angle_gamma   90.00000000
_symmetry_Int_Tables_number   1
_chemical_formula_structural   LuMnO3
_chemical_formula_sum   'Lu4 Mn4 O12'
_cell_volume   225.33371974
_cell_formula_units_Z   4
loop_
 _symmetry_equiv_pos_site_id
 _symmetry_equiv_pos_as_xyz
  1  'x, y, z'
loop_
 _atom_site_type_symbol
 _atom_site_label
 _atom_site_symmetry_multiplicity
 _atom_site_fract_x
 _atom_site_fract_y
 _atom_site_fract_z
 _atom_site_occupancy
  Lu  Lu0  1  0.02072400  0.91652300  0.75000000  1
  Lu  Lu1  1  0.52072400  0.58347700  0.25000000  1
  Lu  Lu2  1  0.47927600  0.41652300  0.75000000  1
  Lu  Lu3  1  0.97927600  0.08347700  0.25000000  1
  Mn  Mn0  1  0.50000000  0.00000000  0.50000000  1
  Mn  Mn1  1  0.00000000  0.50000000  0.50000000  1
  Mn  Mn2  1  0.00000000  0.50000000  0.00000000  1
  Mn  Mn3  1  0.50000000  0.00000000  0.00000000  1
  O  O0  1  0.69669100  0.32736700  0.43785700  1
  O  O1  1  0.19669100  0.17263300  0.56214300  1
  O  O2  1  0.80330900  0.82736700  0.06214300  1
  O  O3  1  0.30330900  0.67263300  0.93785700  1
  O  O4  1  0.30330900  0.67263300  0.56214300  1
  O  O5  1  0.80330900  0.82736700  0.43785700  1
  O  O6  1  0.19669100  0.17263300  0.93785700  1
  O  O7  1  0.69669100  0.32736700  0.06214300  1
  O  O8  1  0.13091400  0.44967800  0.25000000  1
  O  O9  1  0.63091400  0.05032200  0.75000000  1
  O  O10  1  0.36908600  0.94967800  0.25000000  1
  O  O11  1  0.86908600  0.55032200  0.75000000  1
loop_
_geom_bond_atom_site_label_1
_geom_bond_atom_site_label_2
_geom_bond_distance
_geom_bond_site_symmetry_2
Lu0 O9 2.184505 1_465
Lu0 O6 2.234675 1_565
Lu0 O1 2.234675 1_565
Lu0 O11 2.259211 1_455
Lu0 O3 2.476552 1_555
Lu0 O4 2.476552 1_555
Lu0 O5 2.638735 1_455
Lu0 O2 2.638735 1_456
Lu1 O8 2.184505 1_555
Lu1 O0 2.234675 1_555
Lu1 O7 2.234675 1_555
Lu1 O10 2.259211 1_555
Lu1 O5 2.476552 1_555
Lu1 O2 2.476552 1_555
Lu1 O4 2.638735 1_555
Lu1 O3 2.638735 1_554
Lu2 O11 2.184505 1_555
Lu2 O3 2.234675 1_555
Lu2 O4 2.234675 1_555
Lu2 O9 2.259211 1_555
Lu2 O6 2.476552 1_555
Lu2 O1 2.476552 1_555
Lu2 O0 2.638735 1_555
Lu2 O7 2.638735 1_556
Lu3 O10 2.184505 1_645
Lu3 O2 2.234675 1_545
Lu3 O5 2.234675 1_545
Lu3 O8 2.259211 1_655
Lu3 O7 2.476552 1_555
Lu3 O0 2.476552 1_555
Lu3 O1 2.638735 1_655
Lu3 O6 2.638735 1_654
Mn0 O5 1.932762 1_545
Mn0 O1 1.932762 1_555
Mn0 O9 2.004659 1_555
Mn0 O10 2.004659 1_545
Mn0 O0 2.202495 1_555
Mn0 O4 2.202495 1_545
Mn1 O4 1.932762 1_555
Mn1 O0 1.932762 1_455
Mn1 O8 2.004659 1_555
Mn1 O11 2.004659 1_455
Mn1 O5 2.202495 1_455
Mn1 O1 2.202495 1_555
Mn2 O3 1.932762 1_554
Mn2 O7 1.932762 1_455
Mn2 O8 2.004659 1_555
Mn2 O11 2.004659 1_454
Mn2 O2 2.202495 1_455
Mn2 O6 2.202495 1_554
Mn3 O2 1.932762 1_545
Mn3 O6 1.932762 1_554
Mn3 O9 2.004659 1_554
Mn3 O10 2.004659 1_545
Mn3 O7 2.202495 1_555
Mn3 O3 2.202495 1_544
