# generated using pymatgen
data_MgFe2(OF)2
_symmetry_space_group_name_H-M   'P 1'
_cell_length_a   5.53874475
_cell_length_b   5.40824063
_cell_length_c   3.09142919
_cell_angle_alpha   90.00000000
_cell_angle_beta   90.00000000
_cell_angle_gamma   78.77666611
_symmetry_Int_Tables_number   1
_chemical_formula_structural   MgFe2(OF)2
_chemical_formula_sum   'Mg1 Fe2 O2 F2'
_cell_volume   90.83239320
_cell_formula_units_Z   1
loop_
 _symmetry_equiv_pos_site_id
 _symmetry_equiv_pos_as_xyz
  1  'x, y, z'
loop_
 _atom_site_type_symbol
 _atom_site_label
 _atom_site_symmetry_multiplicity
 _atom_site_fract_x
 _atom_site_fract_y
 _atom_site_fract_z
 _atom_site_occupancy
  Mg  Mg0  1  0.52963931  0.95634352  0.50000000  1
  Fe  Fe0  1  0.01573263  0.13992639  0.00000000  1
  Fe  Fe1  1  0.47462473  0.44442324  0.50000000  1
  O  O0  1  0.35366641  0.21082555  0.00000000  1
  O  O1  1  0.78765702  0.17590047  0.50000000  1
  F  F0  1  0.23731352  0.78477823  0.50000000  1
  F  F1  1  0.64303337  0.70446959  0.00000000  1
loop_
_geom_bond_atom_site_label_1
_geom_bond_atom_site_label_2
_geom_bond_distance
_geom_bond_site_symmetry_2
Mg0 O1 2.028011 1_565
Mg0 O0 2.170538 1_566
Mg0 O0 2.170538 1_565
Fe0 O1 1.981722 1_455
Fe0 O1 1.981722 1_454
Fe0 O0 1.982365 1_555
Fe1 O1 2.033454 1_555
Fe1 O0 2.182569 1_555
Fe1 O0 2.182569 1_556
F0 Mg0 2.016751 1_555
F0 Fe1 2.043062 1_555
F0 Fe0 2.582060 1_566
F0 Fe0 2.582060 1_565
F1 Mg0 2.075147 1_554
F1 Mg0 2.075147 1_555
F1 Fe1 2.397478 1_555
F1 Fe1 2.397478 1_554
