# generated using pymatgen
data_MgAl2(CoO3)2
_symmetry_space_group_name_H-M   'P 1'
_cell_length_a   4.98936095
_cell_length_b   5.72125969
_cell_length_c   4.98769130
_cell_angle_alpha   89.73890872
_cell_angle_beta   59.96215198
_cell_angle_gamma   115.28654333
_symmetry_Int_Tables_number   1
_chemical_formula_structural   MgAl2(CoO3)2
_chemical_formula_sum   'Mg1 Al2 Co2 O6'
_cell_volume   107.01934428
_cell_formula_units_Z   1
loop_
 _symmetry_equiv_pos_site_id
 _symmetry_equiv_pos_as_xyz
  1  'x, y, z'
loop_
 _atom_site_type_symbol
 _atom_site_label
 _atom_site_symmetry_multiplicity
 _atom_site_fract_x
 _atom_site_fract_y
 _atom_site_fract_z
 _atom_site_occupancy
  Mg  Mg0  1  0.99993700  0.49993900  0.49910500  1
  Al  Al0  1  0.29825100  0.44956000  0.84970800  1
  Al  Al1  1  0.70145500  0.55042600  0.14869100  1
  Co  Co0  1  0.33753200  0.00774900  0.33112600  1
  Co  Co1  1  0.66300600  0.99219000  0.66606600  1
  O  O0  1  0.78935400  0.71702600  0.76552500  1
  O  O1  1  0.84129000  0.28372500  0.92559400  1
  O  O2  1  0.48190500  0.71659100  0.44076700  1
  O  O3  1  0.51822300  0.28429100  0.55639100  1
  O  O4  1  0.15864700  0.71579500  0.07207700  1
  O  O5  1  0.21040400  0.28270700  0.23245000  1
loop_
_geom_bond_atom_site_label_1
_geom_bond_atom_site_label_2
_geom_bond_distance
_geom_bond_site_symmetry_2
Mg0 O1 2.033605 1_555
Mg0 O4 2.034869 1_655
Mg0 O0 2.035772 1_555
Mg0 O5 2.036669 1_655
Mg0 O2 2.038026 1_655
Mg0 O3 2.038732 1_555
Al0 O1 1.877872 1_455
Al0 O3 1.878983 1_555
Al0 O5 1.880410 1_556
Al0 O4 2.045426 1_556
Al0 O2 2.058757 1_555
Al0 O0 2.069495 1_555
Al1 O4 1.877466 1_655
Al1 O2 1.878986 1_555
Al1 O0 1.881595 1_554
Al1 O1 2.049615 1_554
Al1 O3 2.051992 1_555
Al1 O5 2.070465 1_555
Co0 O5 2.068115 1_555
Co0 O3 2.095263 1_555
Co0 O1 2.095830 1_554
Co0 O2 2.236946 1_545
Co0 O0 2.256011 1_445
Co0 O4 2.270824 1_545
Co1 O0 2.067761 1_555
Co1 O2 2.093074 1_555
Co1 O4 2.098443 1_556
Co1 O3 2.243328 1_565
Co1 O5 2.252769 1_665
Co1 O1 2.270205 1_565
