# generated using pymatgen
data_GdB2Ru3
_symmetry_space_group_name_H-M   'P 1'
_cell_length_a   10.99770830
_cell_length_b   10.99752186
_cell_length_c   6.04880560
_cell_angle_alpha   90.00000000
_cell_angle_beta   90.00000000
_cell_angle_gamma   119.99988370
_symmetry_Int_Tables_number   1
_chemical_formula_structural   GdB2Ru3
_chemical_formula_sum   'Gd8 B16 Ru24'
_cell_volume   633.57465829
_cell_formula_units_Z   8
loop_
 _symmetry_equiv_pos_site_id
 _symmetry_equiv_pos_as_xyz
  1  'x, y, z'
loop_
 _atom_site_type_symbol
 _atom_site_label
 _atom_site_symmetry_multiplicity
 _atom_site_fract_x
 _atom_site_fract_y
 _atom_site_fract_z
 _atom_site_occupancy
  Gd  Gd0_0  1  0.00000000  0.00000000  0.00000000  1
  Gd  Gd0_1  1  0.00000000  0.00000000  0.50000000  1
  Gd  Gd0_2  1  0.00000000  0.50000000  0.00000000  1
  Gd  Gd0_3  1  0.00000000  0.50000000  0.50000000  1
  Gd  Gd0_4  1  0.50000000  0.00000000  0.00000000  1
  Gd  Gd0_5  1  0.50000000  0.00000000  0.50000000  1
  Gd  Gd0_6  1  0.50000000  0.50000000  0.00000000  1
  Gd  Gd0_7  1  0.50000000  0.50000000  0.50000000  1
  B  B0_0  1  0.16665905  0.33332583  0.00000000  1
  B  B0_1  1  0.16665905  0.33332583  0.50000000  1
  B  B0_2  1  0.16665905  0.83332583  0.00000000  1
  B  B0_3  1  0.16665905  0.83332583  0.50000000  1
  B  B0_4  1  0.66665905  0.33332583  0.00000000  1
  B  B0_5  1  0.66665905  0.33332583  0.50000000  1
  B  B0_6  1  0.66665905  0.83332583  0.00000000  1
  B  B0_7  1  0.66665905  0.83332583  0.50000000  1
  B  B1_0  1  0.33334095  0.16667417  0.00000000  1
  B  B1_1  1  0.33334095  0.16667417  0.50000000  1
  B  B1_2  1  0.33334095  0.66667417  0.00000000  1
  B  B1_3  1  0.33334095  0.66667417  0.50000000  1
  B  B1_4  1  0.83334095  0.16667417  0.00000000  1
  B  B1_5  1  0.83334095  0.16667417  0.50000000  1
  B  B1_6  1  0.83334095  0.66667417  0.00000000  1
  B  B1_7  1  0.83334095  0.66667417  0.50000000  1
  Ru  Ru0_0  1  0.25000000  0.00000000  0.25000000  1
  Ru  Ru0_1  1  0.25000000  0.00000000  0.75000000  1
  Ru  Ru0_2  1  0.25000000  0.50000000  0.25000000  1
  Ru  Ru0_3  1  0.25000000  0.50000000  0.75000000  1
  Ru  Ru0_4  1  0.75000000  0.00000000  0.25000000  1
  Ru  Ru0_5  1  0.75000000  0.00000000  0.75000000  1
  Ru  Ru0_6  1  0.75000000  0.50000000  0.25000000  1
  Ru  Ru0_7  1  0.75000000  0.50000000  0.75000000  1
  Ru  Ru1_0  1  0.25000000  0.25000000  0.25000000  1
  Ru  Ru1_1  1  0.25000000  0.25000000  0.75000000  1
  Ru  Ru1_2  1  0.25000000  0.75000000  0.25000000  1
  Ru  Ru1_3  1  0.25000000  0.75000000  0.75000000  1
  Ru  Ru1_4  1  0.75000000  0.25000000  0.25000000  1
  Ru  Ru1_5  1  0.75000000  0.25000000  0.75000000  1
  Ru  Ru1_6  1  0.75000000  0.75000000  0.25000000  1
  Ru  Ru1_7  1  0.75000000  0.75000000  0.75000000  1
  Ru  Ru2_0  1  0.00000000  0.25000000  0.25000000  1
  Ru  Ru2_1  1  0.00000000  0.25000000  0.75000000  1
  Ru  Ru2_2  1  0.00000000  0.75000000  0.25000000  1
  Ru  Ru2_3  1  0.00000000  0.75000000  0.75000000  1
  Ru  Ru2_4  1  0.50000000  0.25000000  0.25000000  1
  Ru  Ru2_5  1  0.50000000  0.25000000  0.75000000  1
  Ru  Ru2_6  1  0.50000000  0.75000000  0.25000000  1
  Ru  Ru2_7  1  0.50000000  0.75000000  0.75000000  1
loop_
_geom_bond_atom_site_label_1
_geom_bond_atom_site_label_2
_geom_bond_distance
_geom_bond_site_symmetry_2
Gd0_0 Gd0_1 3.024403 1_555
Gd0_0 Gd0_1 3.024403 1_554
Gd0_0 Ru2_0 3.137809 1_555
Gd0_0 Ru2_1 3.137809 1_554
Gd0_0 Ru2_2 3.137809 1_545
Gd0_0 Ru2_3 3.137809 1_544
Gd0_0 Ru1_0 3.137834 1_555
Gd0_0 Ru1_1 3.137834 1_554
Gd0_0 Ru1_6 3.137834 1_445
Gd0_0 Ru1_7 3.137834 1_444
Gd0_0 Ru0_4 3.137850 1_455
Gd0_0 Ru0_0 3.137850 1_555
Gd0_0 Ru0_5 3.137850 1_454
Gd0_0 Ru0_1 3.137850 1_554
Gd0_1 Ru2_1 3.137809 1_555
Gd0_1 Ru2_0 3.137809 1_555
Gd0_1 Ru2_3 3.137809 1_545
Gd0_1 Ru2_2 3.137809 1_545
Gd0_1 Ru1_0 3.137834 1_555
Gd0_1 Ru1_1 3.137834 1_555
Gd0_1 Ru1_6 3.137834 1_445
Gd0_1 Ru1_7 3.137834 1_445
Gd0_1 Ru0_1 3.137850 1_555
Gd0_1 Ru0_5 3.137850 1_455
Gd0_1 Ru0_4 3.137850 1_455
Gd0_1 Ru0_0 3.137850 1_555
Gd0_2 Gd0_3 3.024403 1_555
Gd0_2 Gd0_3 3.024403 1_554
Gd0_2 Ru2_0 3.137809 1_555
Gd0_2 Ru2_1 3.137809 1_554
Gd0_2 Ru2_2 3.137809 1_555
Gd0_2 Ru2_3 3.137809 1_554
Gd0_2 Ru1_2 3.137834 1_555
Gd0_2 Ru1_3 3.137834 1_554
Gd0_2 Ru1_4 3.137834 1_455
Gd0_2 Ru1_5 3.137834 1_454
Gd0_2 Ru0_2 3.137850 1_555
Gd0_2 Ru0_3 3.137850 1_554
Gd0_2 Ru0_7 3.137850 1_454
Gd0_2 Ru0_6 3.137850 1_455
Gd0_3 Ru2_3 3.137809 1_555
Gd0_3 Ru2_1 3.137809 1_555
Gd0_3 Ru2_0 3.137809 1_555
Gd0_3 Ru2_2 3.137809 1_555
Gd0_3 Ru1_3 3.137834 1_555
Gd0_3 Ru1_2 3.137834 1_555
Gd0_3 Ru1_5 3.137834 1_455
Gd0_3 Ru1_4 3.137834 1_455
Gd0_3 Ru0_3 3.137850 1_555
Gd0_3 Ru0_2 3.137850 1_555
Gd0_3 Ru0_7 3.137850 1_455
Gd0_3 Ru0_6 3.137850 1_455
Gd0_4 Gd0_5 3.024403 1_555
Gd0_4 Gd0_5 3.024403 1_554
Gd0_4 Ru2_5 3.137809 1_554
Gd0_4 Ru2_4 3.137809 1_555
Gd0_4 Ru2_6 3.137809 1_545
Gd0_4 Ru2_7 3.137809 1_544
Gd0_4 Ru1_4 3.137834 1_555
Gd0_4 Ru1_5 3.137834 1_554
Gd0_4 Ru1_3 3.137834 1_544
Gd0_4 Ru1_2 3.137834 1_545
Gd0_4 Ru0_5 3.137850 1_554
Gd0_4 Ru0_0 3.137850 1_555
Gd0_4 Ru0_1 3.137850 1_554
Gd0_4 Ru0_4 3.137850 1_555
Gd0_5 Ru2_5 3.137809 1_555
Gd0_5 Ru2_4 3.137809 1_555
Gd0_5 Ru2_7 3.137809 1_545
Gd0_5 Ru2_6 3.137809 1_545
Gd0_5 Ru1_5 3.137834 1_555
Gd0_5 Ru1_4 3.137834 1_555
Gd0_5 Ru1_3 3.137834 1_545
Gd0_5 Ru1_2 3.137834 1_545
Gd0_5 Ru0_5 3.137850 1_555
Gd0_5 Ru0_1 3.137850 1_555
Gd0_5 Ru0_0 3.137850 1_555
Gd0_5 Ru0_4 3.137850 1_555
Gd0_6 Gd0_7 3.024403 1_554
Gd0_6 Gd0_7 3.024403 1_555
Gd0_6 Ru2_4 3.137809 1_555
Gd0_6 Ru2_5 3.137809 1_554
Gd0_6 Ru2_6 3.137809 1_555
Gd0_6 Ru2_7 3.137809 1_554
Gd0_6 Ru1_0 3.137834 1_555
Gd0_6 Ru1_1 3.137834 1_554
Gd0_6 Ru1_6 3.137834 1_555
Gd0_6 Ru1_7 3.137834 1_554
Gd0_6 Ru0_6 3.137850 1_555
Gd0_6 Ru0_2 3.137850 1_555
Gd0_6 Ru0_7 3.137850 1_554
Gd0_6 Ru0_3 3.137850 1_554
Gd0_7 Ru2_5 3.137809 1_555
Gd0_7 Ru2_4 3.137809 1_555
Gd0_7 Ru2_7 3.137809 1_555
Gd0_7 Ru2_6 3.137809 1_555
Gd0_7 Ru1_0 3.137834 1_555
Gd0_7 Ru1_1 3.137834 1_555
Gd0_7 Ru1_7 3.137834 1_555
Gd0_7 Ru1_6 3.137834 1_555
Gd0_7 Ru0_7 3.137850 1_555
Gd0_7 Ru0_6 3.137850 1_555
Gd0_7 Ru0_2 3.137850 1_555
Gd0_7 Ru0_3 3.137850 1_555
B0_0 Ru2_0 2.192330 1_555
B0_0 Ru2_1 2.192330 1_554
B0_0 Ru1_0 2.192372 1_555
B0_0 Ru1_1 2.192372 1_554
B0_0 Ru0_2 2.192415 1_555
B0_0 Ru0_3 2.192415 1_554
B0_0 Gd0_0 3.174643 1_555
B0_0 Gd0_2 3.174735 1_555
B0_0 Gd0_6 3.174841 1_555
B0_1 Ru2_1 2.192330 1_555
B0_1 Ru2_0 2.192330 1_555
B0_1 Ru1_1 2.192372 1_555
B0_1 Ru1_0 2.192372 1_555
B0_1 Ru0_3 2.192415 1_555
B0_1 Ru0_2 2.192415 1_555
B0_1 Gd0_1 3.174643 1_555
B0_1 Gd0_3 3.174735 1_555
B0_1 Gd0_7 3.174841 1_555
B0_2 Ru2_2 2.192330 1_555
B0_2 Ru2_3 2.192330 1_554
B0_2 Ru1_2 2.192372 1_555
B0_2 Ru1_3 2.192372 1_554
B0_2 Ru0_0 2.192415 1_565
B0_2 Ru0_1 2.192415 1_564
B0_2 Gd0_2 3.174643 1_555
B0_2 Gd0_0 3.174735 1_565
B0_2 Gd0_4 3.174841 1_565
B0_3 Ru2_3 2.192330 1_555
B0_3 Ru2_2 2.192330 1_555
B0_3 Ru1_3 2.192372 1_555
B0_3 Ru1_2 2.192372 1_555
B0_3 Ru0_1 2.192415 1_565
B0_3 Ru0_0 2.192415 1_565
B0_3 Gd0_3 3.174643 1_555
B0_3 Gd0_1 3.174735 1_565
B0_3 Gd0_5 3.174841 1_565
B0_4 Ru2_4 2.192330 1_555
B0_4 Ru2_5 2.192330 1_554
B0_4 Ru1_4 2.192372 1_555
B0_4 Ru1_5 2.192372 1_554
B0_4 Ru0_6 2.192415 1_555
B0_4 Ru0_7 2.192415 1_554
B0_4 Gd0_4 3.174643 1_555
B0_4 Gd0_6 3.174735 1_555
B0_4 Gd0_2 3.174841 1_655
B0_5 Ru2_5 2.192330 1_555
B0_5 Ru2_4 2.192330 1_555
B0_5 Ru1_5 2.192372 1_555
B0_5 Ru1_4 2.192372 1_555
B0_5 Ru0_7 2.192415 1_555
B0_5 Ru0_6 2.192415 1_555
B0_5 Gd0_5 3.174643 1_555
B0_5 Gd0_7 3.174735 1_555
B0_5 Gd0_3 3.174841 1_655
B0_6 Ru2_6 2.192330 1_555
B0_6 Ru2_7 2.192330 1_554
B0_6 Ru1_6 2.192372 1_555
B0_6 Ru1_7 2.192372 1_554
B0_6 Ru0_4 2.192415 1_565
B0_6 Ru0_5 2.192415 1_564
B0_6 Gd0_6 3.174643 1_555
B0_6 Gd0_4 3.174735 1_565
B0_6 Gd0_0 3.174841 1_665
B0_7 Ru2_7 2.192330 1_555
B0_7 Ru2_6 2.192330 1_555
B0_7 Ru1_7 2.192372 1_555
B0_7 Ru1_6 2.192372 1_555
B0_7 Ru0_5 2.192415 1_565
B0_7 Ru0_4 2.192415 1_565
B0_7 Gd0_7 3.174643 1_555
B0_7 Gd0_5 3.174735 1_565
B0_7 Gd0_1 3.174841 1_665
B1_0 Ru2_4 2.192330 1_555
B1_0 Ru2_5 2.192330 1_554
B1_0 Ru1_0 2.192372 1_555
B1_0 Ru1_1 2.192372 1_554
B1_0 Ru0_0 2.192415 1_555
B1_0 Ru0_1 2.192415 1_554
B1_0 Gd0_6 3.174643 1_555
B1_0 Gd0_4 3.174735 1_555
B1_0 Gd0_0 3.174841 1_555
B1_1 Ru2_5 2.192330 1_555
B1_1 Ru2_4 2.192330 1_555
B1_1 Ru1_1 2.192372 1_555
B1_1 Ru1_0 2.192372 1_555
B1_1 Ru0_1 2.192415 1_555
B1_1 Ru0_0 2.192415 1_555
B1_1 Gd0_7 3.174643 1_555
B1_1 Gd0_5 3.174735 1_555
B1_1 Gd0_1 3.174841 1_555
B1_2 Ru2_6 2.192330 1_555
B1_2 Ru2_7 2.192330 1_554
B1_2 Ru1_2 2.192372 1_555
B1_2 Ru1_3 2.192372 1_554
B1_2 Ru0_2 2.192415 1_555
B1_2 Ru0_3 2.192415 1_554
B1_2 Gd0_4 3.174643 1_565
B1_2 Gd0_6 3.174735 1_555
B1_2 Gd0_2 3.174841 1_555
B1_3 Ru2_7 2.192330 1_555
B1_3 Ru2_6 2.192330 1_555
B1_3 Ru1_3 2.192372 1_555
B1_3 Ru1_2 2.192372 1_555
B1_3 Ru0_3 2.192415 1_555
B1_3 Ru0_2 2.192415 1_555
B1_3 Gd0_5 3.174643 1_565
B1_3 Gd0_7 3.174735 1_555
B1_3 Gd0_3 3.174841 1_555
B1_4 Ru2_0 2.192330 1_655
B1_4 Ru2_1 2.192330 1_654
B1_4 Ru1_4 2.192372 1_555
B1_4 Ru1_5 2.192372 1_554
B1_4 Ru0_4 2.192415 1_555
B1_4 Ru0_5 2.192415 1_554
B1_4 Gd0_2 3.174643 1_655
B1_4 Gd0_0 3.174735 1_655
B1_4 Gd0_4 3.174841 1_555
B1_5 Ru2_1 2.192330 1_655
B1_5 Ru2_0 2.192330 1_655
B1_5 Ru1_5 2.192372 1_555
B1_5 Ru1_4 2.192372 1_555
B1_5 Ru0_5 2.192415 1_555
B1_5 Ru0_4 2.192415 1_555
B1_5 Gd0_3 3.174643 1_655
B1_5 Gd0_1 3.174735 1_655
B1_5 Gd0_5 3.174841 1_555
B1_6 Ru2_2 2.192330 1_655
B1_6 Ru2_3 2.192330 1_654
B1_6 Ru1_6 2.192372 1_555
B1_6 Ru1_7 2.192372 1_554
B1_6 Ru0_6 2.192415 1_555
B1_6 Ru0_7 2.192415 1_554
B1_6 Gd0_0 3.174643 1_665
B1_6 Gd0_2 3.174735 1_655
B1_6 Gd0_6 3.174841 1_555
B1_7 Ru2_3 2.192330 1_655
B1_7 Ru2_2 2.192330 1_655
B1_7 Ru1_7 2.192372 1_555
B1_7 Ru1_6 2.192372 1_555
B1_7 Ru0_7 2.192415 1_555
B1_7 Ru0_6 2.192415 1_555
B1_7 Gd0_1 3.174643 1_665
B1_7 Gd0_3 3.174735 1_655
B1_7 Gd0_7 3.174841 1_555
