# generated using pymatgen
data_Fe5C2
_symmetry_space_group_name_H-M   'P 1'
_cell_length_a   6.22366451
_cell_length_b   6.22366451
_cell_length_c   4.98962659
_cell_angle_alpha   82.94196439
_cell_angle_beta   82.94196439
_cell_angle_gamma   42.45986446
_symmetry_Int_Tables_number   1
_chemical_formula_structural   Fe5C2
_chemical_formula_sum   'Fe10 C4'
_cell_volume   129.33171477
_cell_formula_units_Z   2
loop_
 _symmetry_equiv_pos_site_id
 _symmetry_equiv_pos_as_xyz
  1  'x, y, z'
loop_
 _atom_site_type_symbol
 _atom_site_label
 _atom_site_symmetry_multiplicity
 _atom_site_fract_x
 _atom_site_fract_y
 _atom_site_fract_z
 _atom_site_occupancy
  Fe  Fe0  1  0.18176700  0.01502200  0.58300600  1
  Fe  Fe1  1  0.98497800  0.81823300  0.91699400  1
  Fe  Fe2  1  0.20379700  0.36757700  0.31061200  1
  Fe  Fe3  1  0.63242300  0.79620300  0.18938800  1
  Fe  Fe4  1  0.79620300  0.63242300  0.68938800  1
  Fe  Fe5  1  0.36757700  0.20379700  0.81061200  1
  Fe  Fe6  1  0.01502200  0.18176700  0.08300600  1
  Fe  Fe7  1  0.81823300  0.98497800  0.41699400  1
  Fe  Fe8  1  0.56722500  0.43277500  0.75000000  1
  Fe  Fe9  1  0.43277500  0.56722500  0.25000000  1
  C  C0  1  0.20141000  0.57247500  0.57871100  1
  C  C1  1  0.42752500  0.79859000  0.92128900  1
  C  C2  1  0.79859000  0.42752500  0.42128900  1
  C  C3  1  0.57247500  0.20141000  0.07871100  1
loop_
_geom_bond_atom_site_label_1
_geom_bond_atom_site_label_2
_geom_bond_distance
_geom_bond_site_symmetry_2
C0 Fe2 1.949938 1_555
C0 Fe5 1.952843 1_555
C0 Fe7 1.964534 1_455
C0 Fe1 2.009639 1_455
C0 Fe8 2.011133 1_555
C0 Fe9 2.031730 1_555
C0 Fe4 2.263646 1_455
C1 Fe3 1.949938 1_556
C1 Fe4 1.952843 1_555
C1 Fe6 1.964534 1_566
C1 Fe0 2.009639 1_565
C1 Fe8 2.011133 1_555
C1 Fe9 2.031730 1_556
C1 Fe5 2.263646 1_565
C2 Fe4 1.949938 1_555
C2 Fe3 1.952843 1_555
C2 Fe0 1.964534 1_655
C2 Fe6 2.009639 1_655
C2 Fe9 2.011133 1_555
C2 Fe8 2.031730 1_555
C2 Fe2 2.263646 1_655
C3 Fe5 1.949938 1_554
C3 Fe2 1.952843 1_555
C3 Fe1 1.964534 1_544
C3 Fe7 2.009639 1_545
C3 Fe9 2.011133 1_555
C3 Fe8 2.031730 1_554
C3 Fe3 2.263646 1_545
