# generated using pymatgen
data_TaAl3P2(SO6)4
_symmetry_space_group_name_H-M   'P 1'
_cell_length_a   8.40804279
_cell_length_b   8.41860691
_cell_length_c   21.85755282
_cell_angle_alpha   89.67092705
_cell_angle_beta   90.26879294
_cell_angle_gamma   119.85073065
_symmetry_Int_Tables_number   1
_chemical_formula_structural   TaAl3P2(SO6)4
_chemical_formula_sum   'Ta3 Al9 P6 S12 O72'
_cell_volume   1341.87003868
_cell_formula_units_Z   3
loop_
 _symmetry_equiv_pos_site_id
 _symmetry_equiv_pos_as_xyz
  1  'x, y, z'
loop_
 _atom_site_type_symbol
 _atom_site_label
 _atom_site_symmetry_multiplicity
 _atom_site_fract_x
 _atom_site_fract_y
 _atom_site_fract_z
 _atom_site_occupancy
  Ta  Ta0  1  0.66681684  0.33223648  0.97390526  1
  Ta  Ta1  1  0.32046532  0.65876316  0.31079730  1
  Ta  Ta2  1  0.33867392  0.67183977  0.80720462  1
  Al  Al0  1  0.99620584  0.00017363  0.35629975  1
  Al  Al1  1  0.99341088  0.00331368  0.85645862  1
  Al  Al2  1  0.99263913  0.99717176  0.64375851  1
  Al  Al3  1  0.00143387  0.00609466  0.14524417  1
  Al  Al4  1  0.66662387  0.32795917  0.68703032  1
  Al  Al5  1  0.67309379  0.33410617  0.18841525  1
  Al  Al6  1  0.67272136  0.33821213  0.48087063  1
  Al  Al7  1  0.33219818  0.66601742  0.01848584  1
  Al  Al8  1  0.32804040  0.67150807  0.52333289  1
  P  P0  1  0.98614252  0.26897617  0.24869673  1
  P  P1  1  0.73024225  0.01502388  0.74739693  1
  P  P2  1  0.62473558  0.68180473  0.91845455  1
  P  P3  1  0.05891348  0.37719837  0.91773466  1
  P  P4  1  0.31581147  0.94311911  0.91759364  1
  P  P5  1  0.03740250  0.67000280  0.42135193  1
  S  S0  1  0.28773118  0.01140637  0.24831304  1
  S  S1  1  0.72105734  0.71281202  0.24851909  1
  S  S2  1  0.28651042  0.27555690  0.74762233  1
  S  S3  1  0.98781008  0.71340147  0.74760019  1
  S  S4  1  0.95563279  0.33354831  0.58344077  1
  S  S5  1  0.37844448  0.04724224  0.58316517  1
  S  S6  1  0.66493896  0.62010503  0.58329416  1
  S  S7  1  0.96097844  0.62804502  0.08610965  1
  S  S8  1  0.66387100  0.03767143  0.08619576  1
  S  S9  1  0.37549631  0.33452705  0.08637816  1
  S  S10  1  0.62480092  0.95831333  0.41962887  1
  S  S11  1  0.33318148  0.37273835  0.42032008  1
  O  O0  1  0.20742745  0.03670143  0.30389204  1
  O  O1  1  0.83090416  0.79153258  0.30392223  1
  O  O2  1  0.96456349  0.15997855  0.30691469  1
  O  O3  1  0.20904354  0.16912281  0.80349055  1
  O  O4  1  0.96410291  0.79294983  0.80342241  1
  O  O5  1  0.83851861  0.03746963  0.80561679  1
  O  O6  1  0.80662218  0.96998176  0.69138018  1
  O  O7  1  0.17125533  0.19782585  0.69312926  1
  O  O8  1  0.03047896  0.83081351  0.69313748  1
  O  O9  1  0.79930812  0.82791504  0.19395656  1
  O  O10  1  0.03121186  0.19373775  0.19253801  1
  O  O11  1  0.17025248  0.96777240  0.19402739  1
  O  O12  1  0.87405078  0.37017598  0.63754087  1
  O  O13  1  0.49578990  0.12964268  0.63764963  1
  O  O14  1  0.63127705  0.50317244  0.63812179  1
  O  O15  1  0.87254878  0.50710451  0.13940690  1
  O  O16  1  0.63153926  0.12570102  0.13919546  1
  O  O17  1  0.49548499  0.36517753  0.13989174  1
  O  O18  1  0.45882686  0.29969186  0.03100895  1
  O  O19  1  0.84193629  0.54567626  0.03069665  1
  O  O20  1  0.70163881  0.15786693  0.03082421  1
  O  O21  1  0.46127639  0.16348321  0.52810746  1
  O  O22  1  0.69895087  0.53723352  0.52873414  1
  O  O23  1  0.83719755  0.29677963  0.52875240  1
  O  O24  1  0.53612142  0.70526186  0.97527684  1
  O  O25  1  0.16870014  0.46466841  0.97534200  1
  O  O26  1  0.29349127  0.83197234  0.97497236  1
  O  O27  1  0.54009570  0.83654934  0.47247292  1
  O  O28  1  0.30006935  0.46076056  0.47238888  1
  O  O29  1  0.16988347  0.70384697  0.47379587  1
  O  O30  1  0.12948137  0.63316131  0.36190851  1
  O  O31  1  0.50817606  0.87500175  0.36282046  1
  O  O32  1  0.37130398  0.49265771  0.36305270  1
  O  O33  1  0.13239565  0.49973842  0.86009749  1
  O  O34  1  0.36587867  0.86814280  0.86030814  1
  O  O35  1  0.50079959  0.63196806  0.86067095  1
  O  O36  1  0.02495384  0.83856678  0.40465425  1
  O  O37  1  0.80418785  0.97435363  0.40890579  1
  O  O38  1  0.17006178  0.19574954  0.40829219  1
  O  O39  1  0.03226306  0.19058829  0.90764590  1
  O  O40  1  0.15795902  0.97128815  0.90425391  1
  O  O41  1  0.81208103  0.83840283  0.90712449  1
  O  O42  1  0.97636843  0.17114837  0.59216466  1
  O  O43  1  0.19531715  0.02654733  0.59247744  1
  O  O44  1  0.82971689  0.80154497  0.59159597  1
  O  O45  1  0.97661329  0.80830275  0.09485888  1
  O  O46  1  0.82866578  0.02141249  0.09385610  1
  O  O47  1  0.19593598  0.16842805  0.09360791  1
  O  O48  1  0.69736364  0.17533172  0.73813647  1
  O  O49  1  0.47201457  0.30505337  0.73914366  1
  O  O50  1  0.82943601  0.53053798  0.73879279  1
  O  O51  1  0.69434848  0.52880678  0.23960718  1
  O  O52  1  0.82664418  0.30279885  0.23918279  1
  O  O53  1  0.46983449  0.16990063  0.23922674  1
  O  O54  1  0.63969448  0.50444696  0.92673684  1
  O  O55  1  0.86497862  0.35957001  0.92672658  1
  O  O56  1  0.49308301  0.13507762  0.92660028  1
  O  O57  1  0.63942810  0.13757510  0.42761940  1
  O  O58  1  0.49647767  0.35516950  0.42778798  1
  O  O59  1  0.85288244  0.49805074  0.42905631  1
  O  O60  1  0.35872916  0.49760435  0.07699307  1
  O  O61  1  0.13998427  0.64295025  0.07672842  1
  O  O62  1  0.50086436  0.85897317  0.07655310  1
  O  O63  1  0.36253381  0.86560782  0.57464415  1
  O  O64  1  0.50131353  0.63953938  0.57326259  1
  O  O65  1  0.13818378  0.49643345  0.57401990  1
  O  O66  1  0.31096684  0.84482500  0.25630518  1
  O  O67  1  0.53568037  0.69586646  0.25725965  1
  O  O68  1  0.16258703  0.46577881  0.25820851  1
  O  O69  1  0.30329402  0.46184946  0.75483708  1
  O  O70  1  0.15516397  0.69191226  0.75463401  1
  O  O71  1  0.53376120  0.83988222  0.75641604  1
loop_
_geom_bond_atom_site_label_1
_geom_bond_atom_site_label_2
_geom_bond_distance
_geom_bond_site_symmetry_2
Al0 O36 1.826175 1_645
Al0 O2 1.839246 1_555
Al0 O37 1.908184 1_545
Al0 O38 1.936273 1_655
Al0 O1 1.976236 1_545
Al0 O0 2.008023 1_655
Al1 O39 1.829826 1_655
Al1 O5 1.835553 1_555
Al1 O41 1.835592 1_545
Al1 O40 1.852767 1_645
Al1 O3 2.014393 1_655
Al1 O4 2.031592 1_545
Al2 O6 1.799504 1_555
Al2 O42 1.901230 1_565
Al2 O44 1.910449 1_555
Al2 O8 1.910634 1_655
Al2 O7 1.937453 1_665
Al2 O43 1.953658 1_665
Al3 O10 1.802585 1_555
Al3 O46 1.886245 1_455
Al3 O47 1.894916 1_555
Al3 O11 1.921861 1_545
Al3 O45 1.924072 1_445
Al3 O9 1.932058 1_445
Al4 O48 1.810252 1_555
Al4 O13 1.906419 1_555
Al4 O49 1.926901 1_555
Al4 O12 1.932457 1_555
Al4 O50 1.935483 1_555
Al4 O14 1.955049 1_555
Al5 O52 1.813717 1_555
Al5 O15 1.910116 1_555
Al5 O51 1.923072 1_555
Al5 O53 1.927045 1_555
Al5 O16 1.940515 1_555
Al5 O17 1.947868 1_555
Al6 O59 1.832320 1_555
Al6 O23 1.895227 1_555
Al6 O22 1.897498 1_555
Al6 O58 1.937796 1_555
Al6 O21 1.946002 1_555
Al6 O57 1.958306 1_555
Al7 O25 1.827257 1_554
Al7 O24 1.840830 1_554
Al7 O26 1.843064 1_554
Al7 O61 1.993564 1_555
Al7 O62 1.993566 1_555
Al7 O60 1.996663 1_555
Al8 O29 1.832574 1_555
Al8 O63 1.886348 1_555
Al8 O65 1.898335 1_555
Al8 O64 1.938559 1_555
Al8 O27 1.969781 1_555
Al8 O28 2.011931 1_555
O0 S0 1.459736 1_555
O1 S1 1.465638 1_555
O2 P0 1.522236 1_555
O3 S2 1.460209 1_555
O4 S3 1.456538 1_555
O5 P1 1.518067 1_555
O6 P1 1.520024 1_565
O7 S2 1.467257 1_555
O8 S3 1.469801 1_455
O9 S1 1.467508 1_555
O10 P0 1.517818 1_455
O11 S0 1.466741 1_565
O12 S4 1.478600 1_555
O13 S5 1.479879 1_555
O14 S6 1.482429 1_555
O15 S7 1.479007 1_555
O16 S8 1.475964 1_555
O17 S9 1.478442 1_555
O18 S9 1.502717 1_555
O18 Ta0 2.056886 1_554
O19 S7 1.502332 1_555
O19 Ta0 2.076606 1_554
O20 S8 1.503062 1_555
O20 Ta0 2.047403 1_554
O21 S5 1.485527 1_555
O22 S6 1.483932 1_555
O23 S4 1.484100 1_555
O24 P2 1.514811 1_555
O25 P3 1.517528 1_555
O26 P4 1.515780 1_555
O27 S10 1.469523 1_555
O28 S11 1.462849 1_555
O29 P5 1.520457 1_555
O30 P5 1.623835 1_555
O30 Ta1 1.882190 1_555
O31 S10 1.519606 1_555
O31 Ta1 2.060264 1_555
O32 S11 1.534884 1_555
O32 Ta1 2.003710 1_555
O33 P3 1.546271 1_555
O33 Ta2 1.985429 1_555
O34 P4 1.556266 1_555
O34 Ta2 1.942651 1_555
O35 P2 1.554225 1_555
O35 Ta2 1.942330 1_555
O36 P5 1.516405 1_555
O37 S10 1.465713 1_555
O38 S11 1.461868 1_555
O39 P3 1.489949 1_555
O40 P4 1.487175 1_555
O41 P2 1.487702 1_555
O42 S4 1.473065 1_555
O43 S5 1.475831 1_555
O44 S6 1.476390 1_555
O45 S7 1.470110 1_555
O46 S8 1.467318 1_555
O47 S9 1.468925 1_555
O48 P1 1.518704 1_555
O49 S2 1.464711 1_555
O50 S3 1.463037 1_555
O51 S1 1.464493 1_555
O52 P0 1.516450 1_555
O53 S0 1.459525 1_555
O54 P2 1.568944 1_555
O54 Ta0 1.877904 1_555
O55 P3 1.575221 1_655
O55 Ta0 1.877269 1_555
O56 P4 1.573207 1_545
O56 Ta0 1.884086 1_555
O57 S10 1.463276 1_545
O58 S11 1.460626 1_555
O59 P5 1.514865 1_655
O60 S9 1.461483 1_555
O61 S7 1.462079 1_455
O62 S8 1.460973 1_565
O63 S5 1.479919 1_565
O64 S6 1.479330 1_555
O65 S4 1.477550 1_455
O66 S0 1.518213 1_565
O66 Ta1 1.995187 1_555
O67 S1 1.505787 1_555
O67 Ta1 2.048015 1_555
O68 P0 1.594791 1_455
O68 Ta1 1.892914 1_555
O69 S2 1.512196 1_555
O69 Ta2 2.005095 1_555
O70 S3 1.512418 1_455
O70 Ta2 1.992566 1_555
O71 P1 1.586484 1_565
O71 Ta2 1.900866 1_555
