# generated using pymatgen
data_CaGe(SO4)3
_symmetry_space_group_name_H-M   'P 1'
_cell_length_a   8.87373092
_cell_length_b   8.87373062
_cell_length_c   21.48632631
_cell_angle_alpha   90.00000000
_cell_angle_beta   90.00000000
_cell_angle_gamma   120.00000111
_symmetry_Int_Tables_number   1
_chemical_formula_structural   CaGe(SO4)3
_chemical_formula_sum   'Ca6 Ge6 S18 O72'
_cell_volume   1465.22827258
_cell_formula_units_Z   6
loop_
 _symmetry_equiv_pos_site_id
 _symmetry_equiv_pos_as_xyz
  1  'x, y, z'
loop_
 _atom_site_type_symbol
 _atom_site_label
 _atom_site_symmetry_multiplicity
 _atom_site_fract_x
 _atom_site_fract_y
 _atom_site_fract_z
 _atom_site_occupancy
  Ca  Ca0  1  -0.00000000  -0.00000000  0.37271303  1
  Ca  Ca1  1  -0.00000000  -0.00000000  0.87271303  1
  Ca  Ca2  1  0.66666700  0.33333300  0.70604603  1
  Ca  Ca3  1  0.66666700  0.33333300  0.20604603  1
  Ca  Ca4  1  0.33333300  0.66666700  0.03938003  1
  Ca  Ca5  1  0.33333300  0.66666700  0.53938003  1
  Ge  Ge0  1  -0.00000000  -0.00000000  0.64753384  1
  Ge  Ge1  1  -0.00000000  -0.00000000  0.14753384  1
  Ge  Ge2  1  0.66666700  0.33333300  0.98086684  1
  Ge  Ge3  1  0.66666700  0.33333300  0.48086684  1
  Ge  Ge4  1  0.33333300  0.66666700  0.31420084  1
  Ge  Ge5  1  0.33333300  0.66666700  0.81420084  1
  S  S0  1  0.25829813  0.95370193  0.25055050  1
  S  S1  1  0.69540380  0.74170187  0.25055050  1
  S  S2  1  0.04629807  0.30459620  0.25055050  1
  S  S3  1  0.25829813  0.30459620  0.75055050  1
  S  S4  1  0.04629807  0.74170187  0.75055050  1
  S  S5  1  0.69540380  0.95370193  0.75055050  1
  S  S6  1  0.92496513  0.28703493  0.58388350  1
  S  S7  1  0.36207080  0.07503487  0.58388350  1
  S  S8  1  0.71296507  0.63792920  0.58388350  1
  S  S9  1  0.92496513  0.63792920  0.08388350  1
  S  S10  1  0.71296507  0.07503487  0.08388350  1
  S  S11  1  0.36207080  0.28703493  0.08388350  1
  S  S12  1  0.59163113  0.62036893  0.91721750  1
  S  S13  1  0.02873680  0.40836887  0.91721750  1
  S  S14  1  0.37963107  0.97126320  0.91721750  1
  S  S15  1  0.59163113  0.97126320  0.41721750  1
  S  S16  1  0.37963107  0.40836887  0.41721750  1
  S  S17  1  0.02873680  0.62036893  0.41721750  1
  O  O0  1  0.18522125  0.98703936  0.30479145  1
  O  O1  1  0.80181811  0.81477875  0.30479145  1
  O  O2  1  0.01296064  0.19818189  0.30479145  1
  O  O3  1  0.18522125  0.19818189  0.80479145  1
  O  O4  1  0.01296064  0.81477875  0.80479145  1
  O  O5  1  0.80181811  0.98703936  0.80479145  1
  O  O6  1  0.77996902  0.92216962  0.69311099  1
  O  O7  1  0.14220060  0.22003098  0.69311099  1
  O  O8  1  0.07783038  0.85779940  0.69311099  1
  O  O9  1  0.77996902  0.85779940  0.19311099  1
  O  O10  1  0.07783038  0.22003098  0.19311099  1
  O  O11  1  0.14220060  0.92216962  0.19311099  1
  O  O12  1  0.85188825  0.32037236  0.63812445  1
  O  O13  1  0.46848511  0.14811175  0.63812445  1
  O  O14  1  0.67962764  0.53151489  0.63812445  1
  O  O15  1  0.85188825  0.53151489  0.13812445  1
  O  O16  1  0.67962764  0.14811175  0.13812445  1
  O  O17  1  0.46848511  0.32037236  0.13812445  1
  O  O18  1  0.44663602  0.25550262  0.02644399  1
  O  O19  1  0.80886760  0.55336398  0.02644399  1
  O  O20  1  0.74449738  0.19113240  0.02644399  1
  O  O21  1  0.44663602  0.19113240  0.52644399  1
  O  O22  1  0.74449738  0.55336398  0.52644399  1
  O  O23  1  0.80886760  0.25550262  0.52644399  1
  O  O24  1  0.51855425  0.65370636  0.97145845  1
  O  O25  1  0.13515111  0.48144575  0.97145845  1
  O  O26  1  0.34629364  0.86484889  0.97145845  1
  O  O27  1  0.51855425  0.86484889  0.47145845  1
  O  O28  1  0.34629364  0.48144575  0.47145845  1
  O  O29  1  0.13515111  0.65370636  0.47145845  1
  O  O30  1  0.11330202  0.58883662  0.35977799  1
  O  O31  1  0.47553360  0.88669798  0.35977799  1
  O  O32  1  0.41116338  0.52446640  0.35977799  1
  O  O33  1  0.11330202  0.52446640  0.85977799  1
  O  O34  1  0.41116338  0.88669798  0.85977799  1
  O  O35  1  0.47553360  0.58883662  0.85977799  1
  O  O36  1  0.98994051  0.75707572  0.40561063  1
  O  O37  1  0.76713521  0.01005949  0.40561063  1
  O  O38  1  0.24292428  0.23286479  0.40561063  1
  O  O39  1  0.98994051  0.23286479  0.90561063  1
  O  O40  1  0.24292428  0.01005949  0.90561063  1
  O  O41  1  0.76713521  0.75707572  0.90561063  1
  O  O42  1  0.92148529  0.11439925  0.58918747  1
  O  O43  1  0.19291396  0.07851471  0.58918747  1
  O  O44  1  0.88560075  0.80708604  0.58918747  1
  O  O45  1  0.92148529  0.80708604  0.08918747  1
  O  O46  1  0.88560075  0.07851471  0.08918747  1
  O  O47  1  0.19291396  0.11439925  0.08918747  1
  O  O48  1  0.65660751  0.09040872  0.73894363  1
  O  O49  1  0.43380221  0.34339249  0.73894363  1
  O  O50  1  0.90959128  0.56619779  0.73894363  1
  O  O51  1  0.65660751  0.56619779  0.23894363  1
  O  O52  1  0.90959128  0.34339249  0.23894363  1
  O  O53  1  0.43380221  0.09040872  0.23894363  1
  O  O54  1  0.58815229  0.44773225  0.92252047  1
  O  O55  1  0.85958096  0.41184771  0.92252047  1
  O  O56  1  0.55226775  0.14041904  0.92252047  1
  O  O57  1  0.58815229  0.14041904  0.42252047  1
  O  O58  1  0.55226775  0.41184771  0.42252047  1
  O  O59  1  0.85958096  0.44773225  0.42252047  1
  O  O60  1  0.32327351  0.42374272  0.07227763  1
  O  O61  1  0.10046821  0.67672649  0.07227763  1
  O  O62  1  0.57625728  0.89953179  0.07227763  1
  O  O63  1  0.32327351  0.89953179  0.57227763  1
  O  O64  1  0.57625728  0.67672649  0.57227763  1
  O  O65  1  0.10046821  0.42374272  0.57227763  1
  O  O66  1  0.25481829  0.78106625  0.25585447  1
  O  O67  1  0.52624696  0.74518171  0.25585447  1
  O  O68  1  0.21893375  0.47375304  0.25585447  1
  O  O69  1  0.25481829  0.47375304  0.75585447  1
  O  O70  1  0.21893375  0.74518171  0.75585447  1
  O  O71  1  0.52624696  0.78106625  0.75585447  1
loop_
_geom_bond_atom_site_label_1
_geom_bond_atom_site_label_2
_geom_bond_distance
_geom_bond_site_symmetry_2
Ca0 O36 2.227551 1_445
Ca0 O38 2.227551 1_555
Ca0 O37 2.227551 1_455
Ca0 O2 2.243545 1_555
Ca0 O1 2.243545 1_445
Ca0 O0 2.243545 1_545
Ca1 O41 2.227551 1_445
Ca1 O39 2.227551 1_455
Ca1 O40 2.227551 1_555
Ca1 O3 2.243545 1_555
Ca1 O4 2.243545 1_545
Ca1 O5 2.243545 1_445
Ca2 O48 2.227551 1_555
Ca2 O50 2.227551 1_555
Ca2 O49 2.227551 1_555
Ca2 O14 2.243545 1_555
Ca2 O13 2.243545 1_555
Ca2 O12 2.243545 1_555
Ca3 O53 2.227551 1_555
Ca3 O51 2.227551 1_555
Ca3 O52 2.227551 1_555
Ca3 O15 2.243545 1_555
Ca3 O16 2.243545 1_555
Ca3 O17 2.243545 1_555
Ca4 O60 2.227551 1_555
Ca4 O62 2.227551 1_555
Ca4 O61 2.227551 1_555
Ca4 O26 2.243545 1_554
Ca4 O25 2.243545 1_554
Ca4 O24 2.243545 1_554
Ca5 O65 2.227551 1_555
Ca5 O63 2.227551 1_555
Ca5 O64 2.227551 1_555
Ca5 O27 2.243545 1_555
Ca5 O28 2.243545 1_555
Ca5 O29 2.243545 1_555
Ge0 O44 1.948038 1_445
Ge0 O42 1.948038 1_455
Ge0 O43 1.948038 1_555
Ge0 O7 1.974778 1_555
Ge0 O8 1.974778 1_545
Ge0 O6 1.974778 1_445
Ge1 O45 1.948038 1_445
Ge1 O47 1.948038 1_555
Ge1 O46 1.948038 1_455
Ge1 O10 1.974778 1_555
Ge1 O9 1.974778 1_445
Ge1 O11 1.974778 1_545
Ge2 O56 1.948038 1_555
Ge2 O54 1.948038 1_555
Ge2 O55 1.948038 1_555
Ge2 O19 1.974778 1_556
Ge2 O20 1.974778 1_556
Ge2 O18 1.974778 1_556
Ge3 O57 1.948038 1_555
Ge3 O59 1.948038 1_555
Ge3 O58 1.948038 1_555
Ge3 O22 1.974778 1_555
Ge3 O21 1.974778 1_555
Ge3 O23 1.974778 1_555
Ge4 O68 1.948038 1_555
Ge4 O66 1.948038 1_555
Ge4 O67 1.948038 1_555
Ge4 O31 1.974778 1_555
Ge4 O32 1.974778 1_555
Ge4 O30 1.974778 1_555
Ge5 O69 1.948038 1_555
Ge5 O71 1.948038 1_555
Ge5 O70 1.948038 1_555
Ge5 O34 1.974778 1_555
Ge5 O33 1.974778 1_555
Ge5 O35 1.974778 1_555
O0 S0 1.434608 1_555
O1 S1 1.434608 1_555
O2 S2 1.434608 1_555
O3 S3 1.434608 1_555
O4 S4 1.434608 1_555
O5 S5 1.434608 1_555
O6 S5 1.540954 1_555
O7 S3 1.540954 1_555
O8 S4 1.540954 1_555
O9 S1 1.540954 1_555
O10 S2 1.540954 1_555
O11 S0 1.540954 1_555
O12 S6 1.434608 1_555
O13 S7 1.434608 1_555
O14 S8 1.434608 1_555
O15 S9 1.434608 1_555
O16 S10 1.434608 1_555
O17 S11 1.434608 1_555
O18 S11 1.540954 1_555
O19 S9 1.540954 1_555
O20 S10 1.540954 1_555
O21 S7 1.540954 1_555
O22 S8 1.540954 1_555
O23 S6 1.540954 1_555
O24 S12 1.434608 1_555
O25 S13 1.434608 1_555
O26 S14 1.434608 1_555
O27 S15 1.434608 1_555
O28 S16 1.434608 1_555
O29 S17 1.434608 1_555
O30 S17 1.540954 1_555
O31 S15 1.540954 1_555
O32 S16 1.540954 1_555
O33 S13 1.540954 1_555
O34 S14 1.540954 1_555
O35 S12 1.540954 1_555
O36 S17 1.438734 1_655
O37 S15 1.438743 1_545
O38 S16 1.438740 1_555
O39 S13 1.438743 1_655
O40 S14 1.438734 1_545
O41 S12 1.438740 1_555
O42 S6 1.520994 1_555
O43 S7 1.521003 1_555
O44 S8 1.520998 1_555
O45 S9 1.521003 1_555
O46 S10 1.520994 1_555
O47 S11 1.520998 1_555
O48 S5 1.438734 1_545
O49 S3 1.438743 1_555
O50 S4 1.438740 1_655
O51 S1 1.438743 1_555
O52 S2 1.438734 1_655
O53 S0 1.438740 1_545
O54 S12 1.521006 1_555
O55 S13 1.520988 1_655
O56 S14 1.520997 1_545
O57 S15 1.520988 1_545
O58 S16 1.521006 1_555
O59 S17 1.520997 1_655
O60 S11 1.438745 1_555
O61 S9 1.438728 1_455
O62 S10 1.438733 1_565
O63 S7 1.438728 1_565
O64 S8 1.438745 1_555
O65 S6 1.438733 1_455
O66 S0 1.520994 1_555
O67 S1 1.521003 1_555
O68 S2 1.520998 1_555
O69 S3 1.521003 1_555
O70 S4 1.520994 1_555
O71 S5 1.520998 1_555
