# generated using pymatgen
data_MgMn6O11F
_symmetry_space_group_name_H-M   'P 1'
_cell_length_a   4.98448456
_cell_length_b   5.10646069
_cell_length_c   8.62975679
_cell_angle_alpha   90.01025991
_cell_angle_beta   89.98231828
_cell_angle_gamma   100.88324035
_symmetry_Int_Tables_number   1
_chemical_formula_structural   MgMn6O11F
_chemical_formula_sum   'Mg1 Mn6 O11 F1'
_cell_volume   215.70313265
_cell_formula_units_Z   1
loop_
 _symmetry_equiv_pos_site_id
 _symmetry_equiv_pos_as_xyz
  1  'x, y, z'
loop_
 _atom_site_type_symbol
 _atom_site_label
 _atom_site_symmetry_multiplicity
 _atom_site_fract_x
 _atom_site_fract_y
 _atom_site_fract_z
 _atom_site_occupancy
  Mg  Mg0  1  0.48458670  0.96185961  0.32914704  1
  Mn  Mn0  1  0.00765520  0.99873517  0.00044230  1
  Mn  Mn1  1  -0.00238382  0.01434093  0.32936398  1
  Mn  Mn2  1  0.00744586  0.99861468  0.65828903  1
  Mn  Mn3  1  0.44069114  0.56181656  0.82938327  1
  Mn  Mn4  1  0.55015363  0.45981387  0.15183310  1
  Mn  Mn5  1  0.54964472  0.45986005  0.50678451  1
  O  O0  1  0.17854347  0.86153920  0.16747151  1
  O  O1  1  0.17850175  0.86153334  0.49104458  1
  O  O2  1  0.18972378  0.85993484  0.82937612  1
  O  O3  1  0.27597148  0.33548630  0.99839398  1
  O  O4  1  0.32471218  0.29793847  0.32926196  1
  O  O5  1  0.27549138  0.33575741  0.66022300  1
  O  O6  1  0.71266699  0.68439539  0.98998026  1
  O  O7  1  0.70629066  0.68400696  0.32929312  1
  O  O8  1  0.71280621  0.68398692  0.66876230  1
  O  O9  1  0.79379713  0.14766245  0.16917905  1
  O  O10  1  0.79348636  0.14732740  0.48949223  1
  F  F0  1  0.82021118  0.14539045  0.82941767  1
loop_
_geom_bond_atom_site_label_1
_geom_bond_atom_site_label_2
_geom_bond_distance
_geom_bond_site_symmetry_2
Mg0 O7 1.956119 1_555
Mg0 O4 2.024035 1_565
Mg0 O0 2.059633 1_555
Mg0 O1 2.060565 1_555
Mg0 O9 2.151365 1_565
Mg0 O10 2.152346 1_565
Mn0 O0 1.876306 1_555
Mn0 O2 1.935714 1_554
Mn0 O6 1.963533 1_454
Mn0 O3 1.969159 1_564
Mn0 O9 2.034650 1_465
Mn1 O1 1.906671 1_545
Mn1 O0 1.907497 1_545
Mn1 O10 1.914603 1_455
Mn1 O9 1.915438 1_455
Mn1 O4 1.965667 1_555
Mn1 O7 2.007256 1_445
Mn2 O1 1.877306 1_555
Mn2 O2 1.936755 1_555
Mn2 O8 1.963485 1_455
Mn2 O5 1.969950 1_565
Mn2 O10 2.035470 1_465
Mn3 O3 1.943884 1_555
Mn3 O5 1.944954 1_555
Mn3 O8 1.956998 1_555
Mn3 O6 1.957240 1_555
Mn3 O2 2.145101 1_555
Mn4 O6 1.889803 1_554
Mn4 O3 1.922848 1_554
Mn4 O7 1.981235 1_555
Mn4 O4 1.984721 1_555
Mn4 O9 2.183862 1_555
Mn5 O8 1.890465 1_555
Mn5 O5 1.922102 1_555
Mn5 O7 1.981992 1_555
Mn5 O4 1.984489 1_555
Mn5 O10 2.186051 1_555
F0 Mn2 1.968901 1_645
F0 Mn0 1.969142 1_646
