# generated using pymatgen
data_Zr2Ag
_symmetry_space_group_name_H-M   'P 1'
_cell_length_a   6.50582001
_cell_length_b   6.50582039
_cell_length_c   12.92616724
_cell_angle_alpha   104.57535321
_cell_angle_beta   104.57535494
_cell_angle_gamma   89.99999636
_symmetry_Int_Tables_number   1
_chemical_formula_structural   Zr2Ag
_chemical_formula_sum   'Zr16 Ag8'
_cell_volume   511.28838330
_cell_formula_units_Z   8
loop_
 _symmetry_equiv_pos_site_id
 _symmetry_equiv_pos_as_xyz
  1  'x, y, z'
loop_
 _atom_site_type_symbol
 _atom_site_label
 _atom_site_symmetry_multiplicity
 _atom_site_fract_x
 _atom_site_fract_y
 _atom_site_fract_z
 _atom_site_occupancy
  Zr  Zr0_0  1  0.33132834  0.33132834  0.16265618  1
  Zr  Zr0_1  1  0.33132834  0.33132834  0.66265618  1
  Zr  Zr0_2  1  0.33132834  0.83132834  0.16265618  1
  Zr  Zr0_3  1  0.33132834  0.83132834  0.66265618  1
  Zr  Zr0_4  1  0.83132834  0.33132834  0.16265618  1
  Zr  Zr0_5  1  0.83132834  0.33132834  0.66265618  1
  Zr  Zr0_6  1  0.83132834  0.83132834  0.16265618  1
  Zr  Zr0_7  1  0.83132834  0.83132834  0.66265618  1
  Zr  Zr1_0  1  0.16867166  0.16867166  0.33734382  1
  Zr  Zr1_1  1  0.16867166  0.16867166  0.83734382  1
  Zr  Zr1_2  1  0.16867166  0.66867166  0.33734382  1
  Zr  Zr1_3  1  0.16867166  0.66867166  0.83734382  1
  Zr  Zr1_4  1  0.66867166  0.16867166  0.33734382  1
  Zr  Zr1_5  1  0.66867166  0.16867166  0.83734382  1
  Zr  Zr1_6  1  0.66867166  0.66867166  0.33734382  1
  Zr  Zr1_7  1  0.66867166  0.66867166  0.83734382  1
  Ag  Ag0_0  1  0.00000000  0.00000000  0.00000000  1
  Ag  Ag0_1  1  0.00000000  0.00000000  0.50000000  1
  Ag  Ag0_2  1  0.00000000  0.50000000  0.00000000  1
  Ag  Ag0_3  1  0.00000000  0.50000000  0.50000000  1
  Ag  Ag0_4  1  0.50000000  0.00000000  0.00000000  1
  Ag  Ag0_5  1  0.50000000  0.00000000  0.50000000  1
  Ag  Ag0_6  1  0.50000000  0.50000000  0.00000000  1
  Ag  Ag0_7  1  0.50000000  0.50000000  0.50000000  1
loop_
_geom_bond_atom_site_label_1
_geom_bond_atom_site_label_2
_geom_bond_distance
_geom_bond_site_symmetry_2
Zr0_0 Zr1_6 3.121481 1_555
Zr0_0 Zr1_4 3.121484 1_555
Zr0_0 Zr1_2 3.121484 1_555
Zr0_0 Zr1_0 3.121488 1_555
Zr0_0 Zr0_4 3.252910 1_455
Zr0_0 Zr0_4 3.252910 1_555
Zr0_0 Zr0_2 3.252910 1_545
Zr0_0 Zr0_2 3.252910 1_555
Zr0_1 Zr1_7 3.121481 1_555
Zr0_1 Zr1_5 3.121484 1_555
Zr0_1 Zr1_3 3.121484 1_555
Zr0_1 Zr1_1 3.121488 1_555
Zr0_1 Zr0_5 3.252910 1_555
Zr0_1 Zr0_5 3.252910 1_455
Zr0_1 Zr0_3 3.252910 1_545
Zr0_1 Zr0_3 3.252910 1_555
Zr0_2 Zr1_4 3.121481 1_565
Zr0_2 Zr1_6 3.121484 1_555
Zr0_2 Zr1_0 3.121484 1_565
Zr0_2 Zr1_2 3.121488 1_555
Zr0_2 Zr0_6 3.252910 1_555
Zr0_2 Zr0_6 3.252910 1_455
Zr0_3 Zr1_5 3.121481 1_565
Zr0_3 Zr1_7 3.121484 1_555
Zr0_3 Zr1_1 3.121484 1_565
Zr0_3 Zr1_3 3.121488 1_555
Zr0_3 Zr0_7 3.252910 1_455
Zr0_3 Zr0_7 3.252910 1_555
Zr0_4 Zr1_2 3.121481 1_655
Zr0_4 Zr1_0 3.121484 1_655
Zr0_4 Zr1_6 3.121484 1_555
Zr0_4 Zr1_4 3.121488 1_555
Zr0_4 Zr0_6 3.252910 1_545
Zr0_4 Zr0_6 3.252910 1_555
Zr0_5 Zr1_3 3.121481 1_655
Zr0_5 Zr1_1 3.121484 1_655
Zr0_5 Zr1_7 3.121484 1_555
Zr0_5 Zr1_5 3.121488 1_555
Zr0_5 Zr0_7 3.252910 1_545
Zr0_5 Zr0_7 3.252910 1_555
Zr0_6 Zr1_0 3.121481 1_665
Zr0_6 Zr1_2 3.121484 1_655
Zr0_6 Zr1_4 3.121484 1_565
Zr0_6 Zr1_6 3.121488 1_555
Zr0_7 Zr1_1 3.121481 1_665
Zr0_7 Zr1_3 3.121484 1_655
Zr0_7 Zr1_5 3.121484 1_565
Zr0_7 Zr1_7 3.121488 1_555
Zr1_0 Zr1_4 3.252910 1_455
Zr1_0 Zr1_4 3.252910 1_555
Zr1_0 Zr1_2 3.252910 1_555
Zr1_0 Zr1_2 3.252910 1_545
Zr1_1 Zr1_5 3.252910 1_455
Zr1_1 Zr1_5 3.252910 1_555
Zr1_1 Zr1_3 3.252910 1_555
Zr1_1 Zr1_3 3.252910 1_545
Zr1_2 Zr1_6 3.252910 1_555
Zr1_2 Zr1_6 3.252910 1_455
Zr1_3 Zr1_7 3.252910 1_455
Zr1_3 Zr1_7 3.252910 1_555
Zr1_4 Zr1_6 3.252910 1_555
Zr1_4 Zr1_6 3.252910 1_545
Zr1_5 Zr1_7 3.252910 1_545
Zr1_5 Zr1_7 3.252910 1_555
Ag0_0 Zr0_6 3.025126 1_445
Ag0_0 Zr1_1 3.025126 1_554
Ag0_0 Zr0_2 3.025128 1_545
Ag0_0 Zr1_5 3.025128 1_454
Ag0_0 Zr1_3 3.025128 1_544
Ag0_0 Zr0_4 3.025128 1_455
Ag0_0 Zr0_0 3.025130 1_555
Ag0_0 Zr1_7 3.025130 1_444
Ag0_0 Ag0_4 3.252910 1_555
Ag0_0 Ag0_4 3.252910 1_455
Ag0_0 Ag0_2 3.252910 1_545
Ag0_0 Ag0_2 3.252910 1_555
Ag0_1 Zr0_7 3.025126 1_445
Ag0_1 Zr1_0 3.025126 1_555
Ag0_1 Zr0_3 3.025128 1_545
Ag0_1 Zr1_4 3.025128 1_455
Ag0_1 Zr1_2 3.025128 1_545
Ag0_1 Zr0_5 3.025128 1_455
Ag0_1 Zr0_1 3.025130 1_555
Ag0_1 Zr1_6 3.025130 1_445
Ag0_1 Ag0_5 3.252910 1_455
Ag0_1 Ag0_5 3.252910 1_555
Ag0_1 Ag0_3 3.252910 1_545
Ag0_1 Ag0_3 3.252910 1_555
Ag0_2 Zr1_3 3.025126 1_554
Ag0_2 Zr0_4 3.025126 1_455
Ag0_2 Zr0_0 3.025128 1_555
Ag0_2 Zr1_7 3.025128 1_454
Ag0_2 Zr0_6 3.025128 1_455
Ag0_2 Zr1_1 3.025128 1_554
Ag0_2 Zr1_5 3.025130 1_454
Ag0_2 Zr0_2 3.025130 1_555
Ag0_2 Ag0_6 3.252910 1_555
Ag0_2 Ag0_6 3.252910 1_455
Ag0_3 Zr0_5 3.025126 1_455
Ag0_3 Zr1_2 3.025126 1_555
Ag0_3 Zr1_6 3.025128 1_455
Ag0_3 Zr0_1 3.025128 1_555
Ag0_3 Zr0_7 3.025128 1_455
Ag0_3 Zr1_0 3.025128 1_555
Ag0_3 Zr0_3 3.025130 1_555
Ag0_3 Zr1_4 3.025130 1_455
Ag0_3 Ag0_7 3.252910 1_555
Ag0_3 Ag0_7 3.252910 1_455
Ag0_4 Zr0_2 3.025126 1_545
Ag0_4 Zr1_5 3.025126 1_554
Ag0_4 Zr0_6 3.025128 1_545
Ag0_4 Zr1_1 3.025128 1_554
Ag0_4 Zr0_0 3.025128 1_555
Ag0_4 Zr1_7 3.025128 1_544
Ag0_4 Zr0_4 3.025130 1_555
Ag0_4 Zr1_3 3.025130 1_544
Ag0_4 Ag0_6 3.252910 1_555
Ag0_4 Ag0_6 3.252910 1_545
Ag0_5 Zr0_3 3.025126 1_545
Ag0_5 Zr1_4 3.025126 1_555
Ag0_5 Zr0_7 3.025128 1_545
Ag0_5 Zr1_0 3.025128 1_555
Ag0_5 Zr1_6 3.025128 1_545
Ag0_5 Zr0_1 3.025128 1_555
Ag0_5 Zr0_5 3.025130 1_555
Ag0_5 Zr1_2 3.025130 1_545
Ag0_5 Ag0_7 3.252910 1_555
Ag0_5 Ag0_7 3.252910 1_545
Ag0_6 Zr0_0 3.025126 1_555
Ag0_6 Zr1_7 3.025126 1_554
Ag0_6 Zr0_4 3.025128 1_555
Ag0_6 Zr1_3 3.025128 1_554
Ag0_6 Zr0_2 3.025128 1_555
Ag0_6 Zr1_5 3.025128 1_554
Ag0_6 Zr1_1 3.025130 1_554
Ag0_6 Zr0_6 3.025130 1_555
Ag0_7 Zr0_1 3.025126 1_555
Ag0_7 Zr1_6 3.025126 1_555
Ag0_7 Zr0_5 3.025128 1_555
Ag0_7 Zr1_2 3.025128 1_555
Ag0_7 Zr0_3 3.025128 1_555
Ag0_7 Zr1_4 3.025128 1_555
Ag0_7 Zr1_0 3.025130 1_555
Ag0_7 Zr0_7 3.025130 1_555
