# generated using pymatgen
data_UCuPO
_symmetry_space_group_name_H-M   'P 1'
_cell_length_a   3.75231600
_cell_length_b   3.75231600
_cell_length_c   8.28013700
_cell_angle_alpha   90.00000000
_cell_angle_beta   90.00000000
_cell_angle_gamma   90.00000000
_symmetry_Int_Tables_number   1
_chemical_formula_structural   UCuPO
_chemical_formula_sum   'U2 Cu2 P2 O2'
_cell_volume   116.58329696
_cell_formula_units_Z   2
loop_
 _symmetry_equiv_pos_site_id
 _symmetry_equiv_pos_as_xyz
  1  'x, y, z'
loop_
 _atom_site_type_symbol
 _atom_site_label
 _atom_site_symmetry_multiplicity
 _atom_site_fract_x
 _atom_site_fract_y
 _atom_site_fract_z
 _atom_site_occupancy
  U  U0  1  0.00000000  0.50000000  0.33665100  1
  U  U1  1  0.50000000  0.00000000  0.66334900  1
  Cu  Cu0  1  0.00000000  0.00000000  0.00000000  1
  Cu  Cu1  1  0.50000000  0.50000000  0.00000000  1
  P  P0  1  0.50000000  0.00000000  0.17736100  1
  P  P1  1  0.00000000  0.50000000  0.82263900  1
  O  O0  1  0.50000000  0.50000000  0.50000000  1
  O  O1  1  0.00000000  0.00000000  0.50000000  1
loop_
_geom_bond_atom_site_label_1
_geom_bond_atom_site_label_2
_geom_bond_distance
_geom_bond_site_symmetry_2
Cu0 P0 2.382578 1_555
Cu0 P1 2.382578 1_554
Cu0 P1 2.382578 1_544
Cu0 P0 2.382578 1_455
Cu1 P1 2.382578 1_654
Cu1 P1 2.382578 1_554
Cu1 P0 2.382578 1_555
Cu1 P0 2.382578 1_565
P0 U0 2.963030 1_645
P0 U0 2.963030 1_545
P0 U0 2.963030 1_655
P0 U0 2.963030 1_555
P1 U1 2.963030 1_455
P1 U1 2.963030 1_565
P1 U1 2.963030 1_465
P1 U1 2.963030 1_555
O0 U1 2.312870 1_565
O0 U0 2.312870 1_655
O0 U0 2.312870 1_555
O0 U1 2.312870 1_555
O1 U0 2.312870 1_545
O1 U1 2.312870 1_455
O1 U0 2.312870 1_555
O1 U1 2.312870 1_555
