# generated using pymatgen
data_MgV2Fe2(H2O5)2
_symmetry_space_group_name_H-M   'P 1'
_cell_length_a   5.59591788
_cell_length_b   5.95003379
_cell_length_c   6.71742308
_cell_angle_alpha   103.04238491
_cell_angle_beta   93.13718562
_cell_angle_gamma   109.71705276
_symmetry_Int_Tables_number   1
_chemical_formula_structural   MgV2Fe2(H2O5)2
_chemical_formula_sum   'Mg1 V2 Fe2 H4 O10'
_cell_volume   203.01887720
_cell_formula_units_Z   1
loop_
 _symmetry_equiv_pos_site_id
 _symmetry_equiv_pos_as_xyz
  1  'x, y, z'
loop_
 _atom_site_type_symbol
 _atom_site_label
 _atom_site_symmetry_multiplicity
 _atom_site_fract_x
 _atom_site_fract_y
 _atom_site_fract_z
 _atom_site_occupancy
  Mg  Mg0  1  0.18127329  0.17827227  0.05453464  1
  V  V0  1  0.24067943  0.61740716  0.72965158  1
  V  V1  1  0.75251812  0.39130946  0.23829178  1
  Fe  Fe0  1  0.60943221  0.22849600  0.69702126  1
  Fe  Fe1  1  0.40329605  0.78788917  0.28559272  1
  H  H0  1  0.05526222  0.12211083  0.69671796  1
  H  H1  1  0.93137245  0.86301203  0.28590262  1
  H  H2  1  0.88735343  0.85371533  0.73643872  1
  H  H3  1  0.17135347  0.12113935  0.40566831  1
  O  O0  1  0.69666475  0.68082444  0.31696451  1
  O  O1  1  0.53782530  0.26144635  0.99495920  1
  O  O2  1  0.38750934  0.74378210  0.98271808  1
  O  O3  1  0.27613542  0.33061934  0.62946248  1
  O  O4  1  0.36633131  0.83835017  0.58837682  1
  O  O5  1  0.93398984  0.03755423  0.78780320  1
  O  O6  1  0.09718900  0.45749547  0.21537864  1
  O  O7  1  0.91726731  0.56660516  0.72471232  1
  O  O8  1  0.11572071  0.98434989  0.27204690  1
  O  O9  1  0.63882734  0.14991326  0.37775625  1
loop_
_geom_bond_atom_site_label_1
_geom_bond_atom_site_label_2
_geom_bond_distance
_geom_bond_site_symmetry_2
Mg0 O1 1.973970 1_554
Mg0 O6 1.980385 1_555
Mg0 O5 2.023854 1_454
Mg0 O8 2.033418 1_545
Fe0 O1 2.041616 1_555
Fe0 O9 2.117326 1_555
Fe0 O7 2.122942 1_555
Fe0 O4 2.183553 1_545
Fe0 O3 2.202339 1_555
Fe0 O5 2.558312 1_555
Fe1 O0 1.968167 1_555
Fe1 O2 1.984871 1_554
Fe1 O4 2.020429 1_555
Fe1 O9 2.038018 1_565
Fe1 O6 2.059650 1_555
Fe1 O8 2.294705 1_555
H0 O5 1.020804 1_455
H0 O3 1.596989 1_555
H1 O8 1.064137 1_655
H1 O0 1.454330 1_555
H2 O5 1.005406 1_565
H2 O7 1.756767 1_555
H3 O8 1.016730 1_545
H3 O3 1.649849 1_555
O0 V1 1.820684 1_555
O1 V1 1.816826 1_556
O2 V0 1.727329 1_555
O3 V0 1.768850 1_555
O4 V0 1.770774 1_555
O6 V1 1.856392 1_455
O7 V0 1.728462 1_655
O9 V1 1.844293 1_555
