# generated using pymatgen
data_MgFe8(O7F)2
_symmetry_space_group_name_H-M   'P 1'
_cell_length_a   4.85076654
_cell_length_b   4.79334437
_cell_length_c   11.86614447
_cell_angle_alpha   90.19992689
_cell_angle_beta   91.20697876
_cell_angle_gamma   90.14026737
_symmetry_Int_Tables_number   1
_chemical_formula_structural   MgFe8(O7F)2
_chemical_formula_sum   'Mg1 Fe8 O14 F2'
_cell_volume   275.84063292
_cell_formula_units_Z   1
loop_
 _symmetry_equiv_pos_site_id
 _symmetry_equiv_pos_as_xyz
  1  'x, y, z'
loop_
 _atom_site_type_symbol
 _atom_site_label
 _atom_site_symmetry_multiplicity
 _atom_site_fract_x
 _atom_site_fract_y
 _atom_site_fract_z
 _atom_site_occupancy
  Mg  Mg0  1  0.95162300  0.46590000  0.01081900  1
  Fe  Fe0  1  0.34947200  0.94568900  0.00801500  1
  Fe  Fe1  1  0.95592500  0.98926700  0.25031900  1
  Fe  Fe2  1  0.99564700  0.01449500  0.49929900  1
  Fe  Fe3  1  0.98386300  0.98481900  0.74513100  1
  Fe  Fe4  1  0.47598000  0.47425700  0.14335600  1
  Fe  Fe5  1  0.47710900  0.48713700  0.62410100  1
  Fe  Fe6  1  0.46976000  0.51456300  0.85598900  1
  Fe  Fe7  1  0.45294300  0.48300600  0.37607100  1
  O  O0  1  0.15868300  0.75501300  0.12394800  1
  O  O1  1  0.16705200  0.80513400  0.61961300  1
  O  O2  1  0.16502100  0.79154800  0.87557400  1
  O  O3  1  0.15368000  0.80062600  0.38000800  1
  O  O4  1  0.31458700  0.32316600  0.99225400  1
  O  O5  1  0.26839200  0.27560500  0.25164000  1
  O  O6  1  0.29249200  0.30472200  0.50325000  1
  O  O7  1  0.29626900  0.29512800  0.74513900  1
  O  O8  1  0.64424500  0.70564600  0.98952600  1
  O  O9  1  0.65470700  0.68666600  0.25589700  1
  O  O10  1  0.66670700  0.69611700  0.74460100  1
  O  O11  1  0.76359200  0.20561300  0.12586400  1
  O  O12  1  0.78259000  0.18205900  0.38110600  1
  O  O13  1  0.79938100  0.18465700  0.62178100  1
  F  F0  1  0.66384600  0.68610400  0.50258100  1
  F  F1  1  0.80476600  0.23473400  0.87412100  1
loop_
_geom_bond_atom_site_label_1
_geom_bond_atom_site_label_2
_geom_bond_distance
_geom_bond_site_symmetry_2
Mg0 O8 1.897933 1_554
Mg0 O4 1.907278 1_654
Mg0 O11 2.076274 1_555
Mg0 O0 2.157490 1_655
Mg0 O2 2.482564 1_654
Fe0 O4 1.827563 1_564
Fe0 O8 1.853668 1_554
Fe0 O0 1.908562 1_555
Fe0 O2 1.935375 1_554
Fe1 O12 2.004552 1_565
Fe1 O3 2.014400 1_655
Fe1 O11 2.020929 1_565
Fe1 O5 2.042075 1_665
Fe1 O9 2.058528 1_555
Fe1 O0 2.128978 1_655
Fe2 O12 1.905538 1_555
Fe2 O3 1.918780 1_645
Fe2 O1 1.923718 1_645
Fe2 O13 1.933344 1_555
Fe2 O6 1.999449 1_655
Fe3 O1 1.949450 1_655
Fe3 O13 1.954368 1_565
Fe3 O2 1.995746 1_655
Fe3 O10 2.066642 1_555
Fe3 O7 2.120809 1_665
Fe4 O9 1.873242 1_555
Fe4 O5 1.905262 1_555
Fe4 O11 1.914890 1_555
Fe4 O0 2.056797 1_555
Fe4 O4 2.069125 1_554
Fe4 O8 2.302347 1_554
Fe5 O6 1.885812 1_555
Fe5 O7 1.933326 1_555
Fe5 O10 1.955477 1_555
Fe5 O13 2.135269 1_555
Fe5 O1 2.143993 1_555
Fe6 O10 1.863916 1_555
Fe6 O7 1.866581 1_555
Fe6 O8 1.998931 1_555
Fe6 O2 2.005944 1_555
Fe6 O4 2.020146 1_555
Fe7 O6 1.915398 1_555
Fe7 O5 1.974726 1_555
Fe7 O9 2.002044 1_555
Fe7 O3 2.107263 1_555
Fe7 O12 2.156224 1_555
F0 Fe5 1.967172 1_555
F0 Fe7 2.041601 1_555
F0 Fe2 2.249533 1_565
F1 Mg0 2.073961 1_556
F1 Fe6 2.117574 1_555
F1 Fe3 2.140297 1_545
