# generated using pymatgen
data_Mn2O2F9
_symmetry_space_group_name_H-M   'P 1'
_cell_length_a   9.60803241
_cell_length_b   9.60803241
_cell_length_c   9.09368286
_cell_angle_alpha   79.75656442
_cell_angle_beta   79.75656442
_cell_angle_gamma   51.46879536
_symmetry_Int_Tables_number   1
_chemical_formula_structural   Mn2O2F9
_chemical_formula_sum   'Mn8 O8 F36'
_cell_volume   643.77350263
_cell_formula_units_Z   4
loop_
 _symmetry_equiv_pos_site_id
 _symmetry_equiv_pos_as_xyz
  1  'x, y, z'
loop_
 _atom_site_type_symbol
 _atom_site_label
 _atom_site_symmetry_multiplicity
 _atom_site_fract_x
 _atom_site_fract_y
 _atom_site_fract_z
 _atom_site_occupancy
  Mn  Mn0  1  0.82189456  0.32639506  0.94584804  1
  Mn  Mn1  1  0.25873887  0.99246443  0.06275607  1
  Mn  Mn2  1  0.00753557  0.74126113  0.43724393  1
  Mn  Mn3  1  0.74126113  0.00753557  0.93724393  1
  Mn  Mn4  1  0.99246443  0.25873887  0.56275607  1
  Mn  Mn5  1  0.32639506  0.82189456  0.44584804  1
  Mn  Mn6  1  0.17810544  0.67360494  0.05415196  1
  Mn  Mn7  1  0.67360494  0.17810544  0.55415196  1
  O  O0  1  0.73774316  0.64146127  0.28684019  1
  O  O1  1  0.35853873  0.26225684  0.21315981  1
  O  O2  1  0.26225684  0.35853873  0.71315981  1
  O  O3  1  0.64146127  0.73774316  0.78684019  1
  O  O4  1  0.81612689  0.57215805  0.17742087  1
  O  O5  1  0.42784195  0.18387311  0.32257913  1
  O  O6  1  0.18387311  0.42784195  0.82257913  1
  O  O7  1  0.57215805  0.81612689  0.67742087  1
  F  F0  1  0.06948681  0.57695222  0.08938786  1
  F  F1  1  0.48501863  0.85768263  0.08595817  1
  F  F2  1  0.14231737  0.51498137  0.41404183  1
  F  F3  1  0.51498137  0.14231737  0.91404183  1
  F  F4  1  0.85768263  0.48501863  0.58595817  1
  F  F5  1  0.50489822  0.63882901  0.34749514  1
  F  F6  1  0.36117099  0.49510178  0.15250486  1
  F  F7  1  0.49510178  0.36117099  0.65250486  1
  F  F8  1  0.78785701  0.28677092  0.52144461  1
  F  F9  1  0.71322908  0.21214299  0.97855539  1
  F  F10  1  0.21214299  0.71322908  0.47855539  1
  F  F11  1  0.28677092  0.78785701  0.02144461  1
  F  F12  1  0.94144036  0.20727953  0.76968623  1
  F  F13  1  0.79272047  0.05855964  0.73031377  1
  F  F14  1  0.05855964  0.79272047  0.23031377  1
  F  F15  1  0.20727953  0.94144036  0.26968623  1
  F  F16  1  0.93051319  0.42304778  0.91061214  1
  F  F17  1  0.57695222  0.06948681  0.58938786  1
  F  F18  1  0.63882901  0.50489822  0.84749514  1
  F  F19  1  0.42304778  0.93051319  0.41061214  1
  F  F20  1  0.18674021  0.21742823  0.60425852  1
  F  F21  1  0.78257177  0.81325979  0.89574148  1
  F  F22  1  0.42168595  0.71830701  0.61669408  1
  F  F23  1  0.21742823  0.18674021  0.10425852  1
  F  F24  1  0.03855683  0.28791054  0.37122338  1
  F  F25  1  0.71208946  0.96144317  0.12877662  1
  F  F26  1  0.96144317  0.71208946  0.62877662  1
  F  F27  1  0.28791054  0.03855683  0.87122338  1
  F  F28  1  0.00935595  0.12156624  0.05082406  1
  F  F29  1  0.87843376  0.99064405  0.44917594  1
  F  F30  1  0.99064405  0.87843376  0.94917594  1
  F  F31  1  0.12156624  0.00935595  0.55082406  1
  F  F32  1  0.71830701  0.42168595  0.11669408  1
  F  F33  1  0.57831405  0.28169299  0.38330592  1
  F  F34  1  0.28169299  0.57831405  0.88330592  1
  F  F35  1  0.81325979  0.78257177  0.39574148  1
loop_
_geom_bond_atom_site_label_1
_geom_bond_atom_site_label_2
_geom_bond_distance
_geom_bond_site_symmetry_2
O0 O4 1.159733 1_555
O1 O5 1.159733 1_555
O2 O6 1.159733 1_555
O3 O7 1.159733 1_555
F0 Mn6 1.742655 1_555
F1 Mn1 1.733928 1_555
F2 Mn2 1.733928 1_555
F3 Mn3 1.733928 1_555
F4 Mn4 1.733928 1_555
F5 Mn5 1.758037 1_555
F6 Mn6 1.758037 1_555
F7 Mn7 1.758037 1_555
F8 Mn7 1.893383 1_555
F8 Mn4 1.909280 1_555
F9 Mn0 1.893383 1_555
F9 Mn3 1.909280 1_555
F10 Mn5 1.893383 1_555
F10 Mn2 1.909280 1_555
F11 Mn6 1.893383 1_555
F11 Mn1 1.909280 1_555
F12 Mn0 1.885537 1_555
F12 Mn4 1.915406 1_555
F13 Mn7 1.885537 1_555
F13 Mn3 1.915406 1_555
F14 Mn6 1.885537 1_555
F14 Mn2 1.915406 1_555
F15 Mn5 1.885537 1_555
F15 Mn1 1.915406 1_555
F16 Mn0 1.742655 1_555
F17 Mn7 1.742655 1_555
F18 Mn0 1.758037 1_555
F19 Mn5 1.742655 1_555
F20 Mn4 1.748837 1_455
F21 Mn3 1.748837 1_565
F22 Mn5 1.750205 1_555
F23 Mn1 1.748837 1_545
F24 Mn4 1.736379 1_455
F25 Mn3 1.736379 1_564
F26 Mn2 1.736379 1_655
F27 Mn1 1.736379 1_546
F28 Mn0 1.885620 1_454
F28 Mn1 1.906114 1_545
F29 Mn7 1.885620 1_565
F29 Mn2 1.906114 1_655
F30 Mn6 1.885620 1_656
F30 Mn3 1.906114 1_565
F31 Mn5 1.885620 1_545
F31 Mn4 1.906114 1_455
F32 Mn0 1.750205 1_554
F33 Mn7 1.750205 1_555
F34 Mn6 1.750205 1_556
F35 Mn2 1.748837 1_655
