# generated using pymatgen
data_Na8Y2Mg2Si3(SO8)3
_symmetry_space_group_name_H-M   'P 1'
_cell_length_a   9.33073700
_cell_length_b   9.36777936
_cell_length_c   22.64195365
_cell_angle_alpha   89.61884121
_cell_angle_beta   89.56570612
_cell_angle_gamma   119.89696572
_symmetry_Int_Tables_number   1
_chemical_formula_structural   Na8Y2Mg2Si3(SO8)3
_chemical_formula_sum   'Na24 Y6 Mg6 Si9 S9 O72'
_cell_volume   1715.54922095
_cell_formula_units_Z   3
loop_
 _symmetry_equiv_pos_site_id
 _symmetry_equiv_pos_as_xyz
  1  'x, y, z'
loop_
 _atom_site_type_symbol
 _atom_site_label
 _atom_site_symmetry_multiplicity
 _atom_site_fract_x
 _atom_site_fract_y
 _atom_site_fract_z
 _atom_site_occupancy
  Na  Na0  1  0.64380399  0.02506614  0.26395103  1
  Na  Na1  1  0.34060116  0.33531639  0.25594413  1
  Na  Na2  1  -0.00121175  0.62313858  0.23990616  1
  Na  Na3  1  0.62300894  0.62358214  0.72605435  1
  Na  Na4  1  0.99325927  0.34196586  0.72998114  1
  Na  Na5  1  0.39199968  0.02902902  0.75093515  1
  Na  Na6  1  0.30879822  0.35610120  0.59633470  1
  Na  Na7  1  0.00864678  0.66905513  0.58626794  1
  Na  Na8  1  0.66920773  0.95578910  0.58030153  1
  Na  Na9  1  0.28477641  0.94139861  0.08178715  1
  Na  Na10  1  0.67770924  0.69092037  0.08058832  1
  Na  Na11  1  0.02755448  0.35447905  0.10054883  1
  Na  Na12  1  0.98540742  0.69036928  0.92047906  1
  Na  Na13  1  0.67906721  0.02335755  0.89443829  1
  Na  Na14  1  0.32129405  0.27481053  0.89880524  1
  Na  Na15  1  0.95379890  0.27451907  0.41730393  1
  Na  Na16  1  0.33972932  0.02700994  0.40442951  1
  Na  Na17  1  0.69689512  0.69150865  0.43573175  1
  Na  Na18  1  0.97220158  0.00204832  0.50276365  1
  Na  Na19  1  0.01062654  0.98210736  0.99519910  1
  Na  Na20  1  0.64682947  0.31636055  0.82038216  1
  Na  Na21  1  0.66737174  0.30700173  0.32868741  1
  Na  Na22  1  0.30518037  0.66880411  0.16983831  1
  Na  Na23  1  0.34183351  0.65459264  0.66076264  1
  Y  Y0  1  0.99555806  0.00625359  0.64982281  1
  Y  Y1  1  0.00721332  0.00064315  0.15507993  1
  Y  Y2  1  0.66541261  0.33146333  0.98487994  1
  Y  Y3  1  0.67239195  0.32999936  0.48778940  1
  Y  Y4  1  0.33346532  0.67489163  0.31742871  1
  Y  Y5  1  0.34039370  0.67465571  0.81380882  1
  Mg  Mg0  1  0.00132184  0.01175893  0.34731563  1
  Mg  Mg1  1  0.01425177  0.01239177  0.84141128  1
  Mg  Mg2  1  0.67434248  0.33708872  0.68165882  1
  Mg  Mg3  1  0.68018618  0.33495481  0.18951460  1
  Mg  Mg4  1  0.31003280  0.67537912  0.01708046  1
  Mg  Mg5  1  0.35385394  0.67014948  0.52233310  1
  Si  Si0  1  0.30884920  0.00899509  0.25071096  1
  Si  Si1  1  0.99886794  0.30233881  0.24962129  1
  Si  Si2  1  0.31030176  0.30264143  0.74955045  1
  Si  Si3  1  0.70550252  0.00849668  0.75343562  1
  Si  Si4  1  0.98122692  0.34607443  0.58248518  1
  Si  Si5  1  0.66832068  0.63222801  0.58242659  1
  Si  Si6  1  0.96504878  0.63226002  0.08332498  1
  Si  Si7  1  0.32450942  0.96878295  0.91953933  1
  Si  Si8  1  0.63929488  0.96678699  0.41666487  1
  S  S0  1  0.70180174  0.69432200  0.25096355  1
  S  S1  1  0.99162735  0.69883369  0.75460529  1
  S  S2  1  0.36928768  0.02593458  0.58477126  1
  S  S3  1  0.66032510  0.02533503  0.08470060  1
  S  S4  1  0.36644354  0.34275266  0.08457407  1
  S  S5  1  0.62780855  0.66913397  0.92322712  1
  S  S6  1  0.03932421  0.36509592  0.92197051  1
  S  S7  1  0.32857323  0.36229383  0.41727583  1
  S  S8  1  0.03145450  0.67298534  0.41752654  1
  O  O0  1  0.20806700  0.02382582  0.30786788  1
  O  O1  1  0.80643146  0.78477485  0.30111323  1
  O  O2  1  0.97995718  0.18301180  0.30499380  1
  O  O3  1  0.21876515  0.19040985  0.80839570  1
  O  O4  1  0.98463269  0.78807425  0.80757877  1
  O  O5  1  0.81243298  0.01589937  0.81228066  1
  O  O6  1  0.78361228  0.96962711  0.69511640  1
  O  O7  1  0.19816917  0.21812687  0.69108170  1
  O  O8  1  0.01970100  0.79892282  0.70023584  1
  O  O9  1  0.77137337  0.79103137  0.19462053  1
  O  O10  1  0.01754776  0.22109458  0.18731118  1
  O  O11  1  0.20176781  0.97848192  0.18948795  1
  O  O12  1  0.88287641  0.36396707  0.63963242  1
  O  O13  1  0.47194303  0.11477475  0.63579537  1
  O  O14  1  0.65234360  0.51378018  0.63802896  1
  O  O15  1  0.85953178  0.51302131  0.13896716  1
  O  O16  1  0.64539426  0.11219108  0.13635469  1
  O  O17  1  0.46095189  0.35089053  0.13753540  1
  O  O18  1  0.44928951  0.32361813  0.03084552  1
  O  O19  1  0.86434001  0.55285490  0.02145287  1
  O  O20  1  0.67650530  0.12174640  0.02971959  1
  O  O21  1  0.43986216  0.12455013  0.52916107  1
  O  O22  1  0.67997781  0.54839393  0.52001252  1
  O  O23  1  0.87093207  0.31406191  0.52206759  1
  O  O24  1  0.53686055  0.67177121  0.97700057  1
  O  O25  1  0.13539052  0.45425215  0.97471342  1
  O  O26  1  0.30838936  0.86422122  0.98011718  1
  O  O27  1  0.53659457  0.84692425  0.47255887  1
  O  O28  1  0.32024318  0.45552807  0.46801532  1
  O  O29  1  0.12878316  0.68070470  0.46944115  1
  O  O30  1  0.11122073  0.65463741  0.36253634  1
  O  O31  1  0.53757770  0.88582334  0.35521182  1
  O  O32  1  0.34356548  0.45393582  0.36101195  1
  O  O33  1  0.11976408  0.46241998  0.86789323  1
  O  O34  1  0.35583580  0.87806841  0.86358897  1
  O  O35  1  0.53083614  0.65348178  0.86975272  1
  O  O36  1  0.01919454  0.82520763  0.41299553  1
  O  O37  1  0.82459667  0.98310049  0.41391391  1
  O  O38  1  0.17712899  0.19612653  0.41617002  1
  O  O39  1  0.02320986  0.19970914  0.92049571  1
  O  O40  1  0.15393863  0.98052814  0.91319574  1
  O  O41  1  0.79308456  0.81948602  0.92062538  1
  O  O42  1  0.00643366  0.18301926  0.58361093  1
  O  O43  1  0.19807810  -0.00302911  0.58954212  1
  O  O44  1  0.83986584  0.81461905  0.58294525  1
  O  O45  1  0.98468694  0.81963928  0.08450943  1
  O  O46  1  0.81120408  0.00829734  0.08689363  1
  O  O47  1  0.19567061  0.19579402  0.08496326  1
  O  O48  1  0.69741640  0.17917799  0.74725652  1
  O  O49  1  0.49489925  0.32284104  0.74500999  1
  O  O50  1  0.83748416  0.53849772  0.75146172  1
  O  O51  1  0.69117142  0.53139654  0.24673859  1
  O  O52  1  0.83525169  0.32461375  0.24814383  1
  O  O53  1  0.48955080  0.17926165  0.24495858  1
  O  O54  1  0.64989696  0.52060887  0.92300948  1
  O  O55  1  0.86772273  0.34333739  0.92359992  1
  O  O56  1  0.49139195  0.15842469  0.91995998  1
  O  O57  1  0.65389749  0.15237809  0.41699702  1
  O  O58  1  0.47616391  0.33933159  0.41931401  1
  O  O59  1  0.86104791  0.52565741  0.41815504  1
  O  O60  1  0.35546899  0.49558951  0.07904930  1
  O  O61  1  0.14929846  0.64568325  0.08311929  1
  O  O62  1  0.51299157  0.85659419  0.08118428  1
  O  O63  1  0.36097236  0.86397244  0.58019517  1
  O  O64  1  0.50603083  0.65722619  0.58292475  1
  O  O65  1  0.16205855  0.51641430  0.57719496  1
  O  O66  1  0.33275187  0.84495097  0.25180826  1
  O  O67  1  0.53051065  0.66705172  0.25563737  1
  O  O68  1  0.16785565  0.48681530  0.25174446  1
  O  O69  1  0.32557269  0.48720093  0.75264182  1
  O  O70  1  0.13381485  0.66753664  0.75838809  1
  O  O71  1  0.51283810  0.85078842  0.75322931  1
loop_
_geom_bond_atom_site_label_1
_geom_bond_atom_site_label_2
_geom_bond_distance
_geom_bond_site_symmetry_2
Na0 O31 2.365967 1_545
Na0 O52 2.484595 1_555
Na0 O53 2.533110 1_555
Na0 O66 2.546090 1_545
Na0 O2 2.885633 1_555
Na0 O67 2.979600 1_545
Na0 O16 2.994787 1_555
Na1 O53 2.481041 1_555
Na1 O32 2.626865 1_555
Na1 O68 2.627199 1_555
Na1 O67 2.703208 1_555
Na1 O0 2.785875 1_555
Na1 O51 2.848197 1_555
Na1 O17 2.873316 1_555
Na2 O52 2.432797 1_455
Na2 O68 2.490266 1_555
Na2 O51 2.556073 1_455
Na2 O15 2.591517 1_455
Na2 O66 2.768734 1_555
Na2 O30 2.939989 1_555
Na3 O14 2.324849 1_555
Na3 O69 2.475220 1_555
Na3 O49 2.483769 1_555
Na3 O50 2.563695 1_555
Na3 O71 2.855602 1_555
Na3 O6 2.890674 1_555
Na4 O12 2.350744 1_555
Na4 O48 2.424407 1_555
Na4 O70 2.736222 1_655
Na4 O69 2.748951 1_655
Na4 O7 2.824246 1_655
Na4 O50 2.899581 1_555
Na5 O49 2.423656 1_555
Na5 O71 2.436890 1_545
Na5 O48 2.470925 1_555
Na5 O13 2.709866 1_555
Na5 O34 2.843074 1_545
Na6 O7 2.436752 1_555
Na6 O42 2.475871 1_555
Na6 O64 2.498259 1_555
Na6 O65 2.523482 1_555
Na7 O65 2.485109 1_555
Na7 O44 2.546855 1_455
Na7 O43 2.675489 1_565
Na7 O12 2.755779 1_455
Na7 O8 2.840801 1_555
Na7 O29 2.845125 1_555
Na7 O63 2.857648 1_555
Na8 O64 2.428063 1_555
Na8 O44 2.527398 1_555
Na8 O63 2.558444 1_555
Na8 O27 2.709836 1_555
Na8 O42 2.786802 1_665
Na8 O6 2.796965 1_555
Na9 O61 2.404217 1_555
Na9 O45 2.440846 1_455
Na9 O26 2.458400 1_554
Na9 O62 2.617597 1_555
Na9 O11 2.630209 1_555
Na9 O47 2.890030 1_565
Na10 O45 2.495685 1_555
Na10 O46 2.593819 1_565
Na10 O60 2.628255 1_555
Na10 O24 2.660396 1_554
Na10 O62 2.673743 1_555
Na10 O9 2.749352 1_555
Na11 O10 2.297260 1_555
Na11 O61 2.403642 1_555
Na11 O47 2.667977 1_555
Na11 O60 2.698689 1_555
Na11 O15 2.781740 1_455
Na11 O46 2.860796 1_455
Na11 O25 2.997884 1_554
Na12 O40 2.370108 1_655
Na12 O19 2.575552 1_556
Na12 O41 2.616678 1_555
Na12 O4 2.710741 1_555
Na12 O54 2.714000 1_555
Na12 O55 2.866419 1_555
Na12 O26 2.959063 1_655
Na13 O5 2.251022 1_555
Na13 O41 2.674090 1_545
Na13 O56 2.684129 1_555
Na13 O55 2.702503 1_555
Na13 O34 2.718270 1_545
Na13 O39 2.853395 1_655
Na14 O3 2.242307 1_555
Na14 O56 2.380492 1_555
Na14 O40 2.415225 1_545
Na14 O39 2.548737 1_555
Na14 O54 2.829760 1_555
Na15 O37 2.373858 1_545
Na15 O57 2.438913 1_555
Na15 O38 2.531260 1_655
Na15 O23 2.575096 1_555
Na15 O2 2.736606 1_555
Na15 O59 2.883427 1_555
Na16 O0 2.509038 1_555
Na16 O58 2.569223 1_555
Na16 O57 2.576540 1_555
Na16 O36 2.628001 1_545
Na16 O38 2.697764 1_555
Na16 O31 2.970110 1_545
Na16 O21 2.984468 1_555
Na17 O22 2.283478 1_555
Na17 O37 2.419454 1_555
Na17 O36 2.662826 1_655
Na17 O27 2.687042 1_555
Na17 O59 2.699906 1_555
Na17 O58 2.918652 1_555
Na18 O44 2.380289 1_545
Na18 O37 2.403846 1_545
Na18 O42 2.416045 1_655
Na18 O38 2.689974 1_655
Na18 O36 2.796994 1_645
Na18 O43 2.909683 1_655
Na19 O40 2.284335 1_555
Na19 O45 2.459370 1_456
Na19 O41 2.509091 1_455
Na19 O39 2.596634 1_565
Na19 O47 2.789420 1_566
Na19 O46 2.869895 1_466
Na20 O49 2.246512 1_555
Na20 O48 2.288403 1_555
Na20 O50 2.480817 1_555
Na20 O56 2.672596 1_555
Na21 O52 2.345586 1_555
Na21 O53 2.424352 1_555
Na21 O57 2.426525 1_555
Na21 O51 2.717973 1_555
Na21 O58 2.824313 1_555
Na21 O59 2.825872 1_555
Na22 O68 2.394109 1_555
Na22 O61 2.398468 1_555
Na22 O66 2.420416 1_555
Na22 O62 2.716127 1_555
Na22 O60 2.804916 1_555
Na22 O67 2.879338 1_555
Na23 O64 2.318351 1_555
Na23 O65 2.446559 1_555
Na23 O69 2.554272 1_555
Na23 O63 2.608654 1_555
Na23 O71 2.735973 1_555
Na23 O70 2.973417 1_555
Mg0 O2 1.957774 1_455
Mg0 O0 2.070521 1_555
Mg0 O37 2.140236 1_445
Mg0 O1 2.264133 1_445
Mg0 O38 2.313999 1_555
Mg0 O36 2.356492 1_545
Mg1 O3 1.941829 1_555
Mg1 O5 2.015558 1_455
Mg1 O4 2.127105 1_445
Mg1 O40 2.200711 1_545
Mg1 O39 2.488037 1_555
Mg1 O41 2.631406 1_445
Mg2 O14 2.019341 1_555
Mg2 O12 2.057972 1_555
Mg2 O49 2.148715 1_555
Mg2 O48 2.175708 1_555
Mg2 O13 2.262700 1_555
Mg2 O50 2.363885 1_555
Mg3 O52 2.008026 1_555
Mg3 O15 2.013847 1_555
Mg3 O53 2.054923 1_555
Mg3 O51 2.218416 1_555
Mg3 O16 2.296278 1_555
Mg3 O17 2.435269 1_555
Mg4 O26 1.959000 1_554
Mg4 O61 2.026579 1_555
Mg4 O25 2.133472 1_554
Mg4 O24 2.312298 1_554
Mg4 O62 2.333329 1_555
Mg4 O60 2.382106 1_555
Mg5 O27 2.012704 1_555
Mg5 O64 2.027725 1_555
Mg5 O65 2.047667 1_555
Mg5 O63 2.220423 1_555
Mg5 O28 2.250180 1_555
Mg5 O29 2.469382 1_555
O0 Si0 1.640913 1_555
O1 S0 1.471521 1_555
O2 Si1 1.622935 1_555
O3 Si2 1.636767 1_555
O4 S1 1.486033 1_555
O5 Si3 1.651636 1_555
O6 Si3 1.632098 1_565
O6 Y0 2.090106 1_565
O7 Si2 1.638064 1_555
O7 Y0 2.167250 1_455
O8 S1 1.482594 1_455
O8 Y0 2.352971 1_465
O9 S0 1.501799 1_555
O9 Y1 2.266913 1_665
O10 Si1 1.656151 1_455
O10 Y1 2.151577 1_555
O11 Si0 1.656242 1_565
O11 Y1 2.083379 1_565
O12 Si4 1.637895 1_555
O13 S2 1.476371 1_555
O14 Si5 1.628507 1_555
O15 Si6 1.634137 1_555
O16 S3 1.473930 1_555
O17 S4 1.473644 1_555
O18 S4 1.495451 1_555
O18 Y2 2.230384 1_554
O19 Si6 1.654048 1_555
O19 Y2 2.154262 1_554
O20 S3 1.494816 1_555
O20 Y2 2.253620 1_554
O21 S2 1.495982 1_555
O21 Y3 2.252002 1_555
O22 Si5 1.650226 1_555
O22 Y3 2.144573 1_555
O23 Si4 1.655153 1_555
O23 Y3 2.086261 1_555
O24 S5 1.486198 1_555
O25 S6 1.486720 1_555
O26 Si7 1.641792 1_555
O27 Si8 1.634244 1_555
O28 S7 1.472539 1_555
O29 S8 1.470880 1_555
O30 S8 1.500019 1_555
O30 Y4 2.225408 1_555
O31 Si8 1.651827 1_555
O31 Y4 2.135212 1_555
O32 S7 1.497489 1_555
O32 Y4 2.331461 1_555
O33 S6 1.477432 1_555
O33 Y5 2.353643 1_555
O34 Si7 1.633635 1_555
O34 Y5 2.163220 1_555
O35 S5 1.480834 1_555
O35 Y5 2.276748 1_555
O36 S8 1.489259 1_555
O37 Si8 1.658770 1_555
O38 S7 1.492908 1_555
O39 S6 1.480747 1_555
O40 Si7 1.656379 1_555
O41 S5 1.482460 1_555
O42 Si4 1.657355 1_455
O42 Y0 2.190196 1_455
O43 S2 1.483991 1_555
O43 Y0 2.359565 1_455
O44 Si5 1.660037 1_555
O44 Y0 2.257379 1_565
O45 Si6 1.671984 1_555
O45 Y1 2.271177 1_665
O46 S3 1.494932 1_555
O46 Y1 2.430155 1_655
O47 S4 1.499057 1_555
O47 Y1 2.380969 1_555
O48 Si3 1.642927 1_555
O49 Si2 1.638685 1_555
O50 S1 1.476178 1_555
O51 S0 1.483105 1_555
O52 Si1 1.641220 1_555
O53 Si0 1.648294 1_555
O54 S5 1.504759 1_555
O54 Y2 2.312725 1_555
O55 S6 1.510068 1_655
O55 Y2 2.291259 1_555
O56 Si7 1.680351 1_545
O56 Y2 2.206537 1_555
O57 Si8 1.674906 1_545
O57 Y3 2.262974 1_555
O58 S7 1.497004 1_555
O58 Y3 2.442257 1_555
O59 S8 1.498309 1_655
O59 Y3 2.376357 1_555
O60 S4 1.489961 1_555
O61 Si6 1.660059 1_455
O62 S3 1.493972 1_565
O63 S2 1.484450 1_565
O64 Si5 1.643565 1_555
O65 Si4 1.648618 1_455
O66 Si0 1.659259 1_565
O66 Y4 2.173638 1_555
O67 S0 1.490297 1_555
O67 Y4 2.332415 1_555
O68 Si1 1.661582 1_455
O68 Y4 2.249322 1_555
O69 Si2 1.664488 1_555
O69 Y5 2.194087 1_555
O70 S1 1.497535 1_455
O70 Y5 2.281244 1_555
O71 Si3 1.663432 1_565
O71 Y5 2.117223 1_555
