# generated using pymatgen
data_Cd4P2Cl3
_symmetry_space_group_name_H-M   'P 1'
_cell_length_a   12.24512293
_cell_length_b   12.24512293
_cell_length_c   12.24512293
_cell_angle_alpha   90.00000000
_cell_angle_beta   90.00000000
_cell_angle_gamma   90.00000000
_symmetry_Int_Tables_number   1
_chemical_formula_structural   Cd4P2Cl3
_chemical_formula_sum   'Cd32 P16 Cl24'
_cell_volume   1836.07090306
_cell_formula_units_Z   8
loop_
 _symmetry_equiv_pos_site_id
 _symmetry_equiv_pos_as_xyz
  1  'x, y, z'
loop_
 _atom_site_type_symbol
 _atom_site_label
 _atom_site_symmetry_multiplicity
 _atom_site_fract_x
 _atom_site_fract_y
 _atom_site_fract_z
 _atom_site_occupancy
  Cd  Cd0  1  0.72296901  0.22296901  0.27703099  1
  Cd  Cd1  1  0.27703099  0.72296901  0.22296901  1
  Cd  Cd2  1  0.22296901  0.27703099  0.72296901  1
  Cd  Cd3  1  0.77703099  0.77703099  0.77703099  1
  Cd  Cd4  1  0.27703099  0.77703099  0.72296901  1
  Cd  Cd5  1  0.72296901  0.27703099  0.77703099  1
  Cd  Cd6  1  0.77703099  0.72296901  0.27703099  1
  Cd  Cd7  1  0.22296901  0.22296901  0.22296901  1
  Cd  Cd8  1  0.74982796  0.02884480  0.51259832  1
  Cd  Cd9  1  0.51259832  0.74982796  0.02884480  1
  Cd  Cd10  1  0.02884480  0.51259832  0.74982796  1
  Cd  Cd11  1  0.47115520  0.48740168  0.24982796  1
  Cd  Cd12  1  0.01259832  0.75017204  0.97115520  1
  Cd  Cd13  1  0.97115520  0.01259832  0.75017204  1
  Cd  Cd14  1  0.98740168  0.25017204  0.52884480  1
  Cd  Cd15  1  0.48740168  0.24982796  0.47115520  1
  Cd  Cd16  1  0.52884480  0.98740168  0.25017204  1
  Cd  Cd17  1  0.24982796  0.47115520  0.48740168  1
  Cd  Cd18  1  0.25017204  0.52884480  0.98740168  1
  Cd  Cd19  1  0.75017204  0.97115520  0.01259832  1
  Cd  Cd20  1  0.25017204  0.97115520  0.48740168  1
  Cd  Cd21  1  0.48740168  0.25017204  0.97115520  1
  Cd  Cd22  1  0.97115520  0.48740168  0.25017204  1
  Cd  Cd23  1  0.52884480  0.51259832  0.75017204  1
  Cd  Cd24  1  0.98740168  0.24982796  0.02884480  1
  Cd  Cd25  1  0.02884480  0.98740168  0.24982796  1
  Cd  Cd26  1  0.01259832  0.74982796  0.47115520  1
  Cd  Cd27  1  0.51259832  0.75017204  0.52884480  1
  Cd  Cd28  1  0.47115520  0.01259832  0.74982796  1
  Cd  Cd29  1  0.75017204  0.52884480  0.51259832  1
  Cd  Cd30  1  0.74982796  0.47115520  0.01259832  1
  Cd  Cd31  1  0.24982796  0.02884480  0.98740168  1
  P  P0  1  0.94883278  0.05116722  0.55116722  1
  P  P1  1  0.55116722  0.94883278  0.05116722  1
  P  P2  1  0.05116722  0.55116722  0.94883278  1
  P  P3  1  0.44883278  0.44883278  0.44883278  1
  P  P4  1  0.05116722  0.94883278  0.44883278  1
  P  P5  1  0.44883278  0.05116722  0.94883278  1
  P  P6  1  0.94883278  0.44883278  0.05116722  1
  P  P7  1  0.55116722  0.55116722  0.55116722  1
  P  P8  1  0.60591405  0.10591405  0.39408595  1
  P  P9  1  0.39408595  0.60591405  0.10591405  1
  P  P10  1  0.10591405  0.39408595  0.60591405  1
  P  P11  1  0.89408595  0.89408595  0.89408595  1
  P  P12  1  0.39408595  0.89408595  0.60591405  1
  P  P13  1  0.60591405  0.39408595  0.89408595  1
  P  P14  1  0.89408595  0.60591405  0.39408595  1
  P  P15  1  0.10591405  0.10591405  0.10591405  1
  Cl  Cl0  1  0.68432428  0.07098128  0.73009712  1
  Cl  Cl1  1  0.73009712  0.68432428  0.07098128  1
  Cl  Cl2  1  0.07098128  0.73009712  0.68432428  1
  Cl  Cl3  1  0.42901872  0.26990288  0.18432428  1
  Cl  Cl4  1  0.23009712  0.81567572  0.92901872  1
  Cl  Cl5  1  0.92901872  0.23009712  0.81567572  1
  Cl  Cl6  1  0.76990288  0.31567572  0.57098128  1
  Cl  Cl7  1  0.26990288  0.18432428  0.42901872  1
  Cl  Cl8  1  0.57098128  0.76990288  0.31567572  1
  Cl  Cl9  1  0.18432428  0.42901872  0.26990288  1
  Cl  Cl10  1  0.31567572  0.57098128  0.76990288  1
  Cl  Cl11  1  0.81567572  0.92901872  0.23009712  1
  Cl  Cl12  1  0.31567572  0.92901872  0.26990288  1
  Cl  Cl13  1  0.26990288  0.31567572  0.92901872  1
  Cl  Cl14  1  0.92901872  0.26990288  0.31567572  1
  Cl  Cl15  1  0.57098128  0.73009712  0.81567572  1
  Cl  Cl16  1  0.76990288  0.18432428  0.07098128  1
  Cl  Cl17  1  0.07098128  0.76990288  0.18432428  1
  Cl  Cl18  1  0.23009712  0.68432428  0.42901872  1
  Cl  Cl19  1  0.73009712  0.81567572  0.57098128  1
  Cl  Cl20  1  0.42901872  0.23009712  0.68432428  1
  Cl  Cl21  1  0.81567572  0.57098128  0.73009712  1
  Cl  Cl22  1  0.68432428  0.42901872  0.23009712  1
  Cl  Cl23  1  0.18432428  0.07098128  0.76990288  1
loop_
_geom_bond_atom_site_label_1
_geom_bond_atom_site_label_2
_geom_bond_distance
_geom_bond_site_symmetry_2
Cd0 P8 2.482639 1_555
Cd0 Cl14 2.630641 1_555
Cd0 Cl16 2.630641 1_555
Cd0 Cl22 2.630641 1_555
Cd1 P9 2.482639 1_555
Cd1 Cl12 2.630641 1_555
Cd1 Cl18 2.630641 1_555
Cd1 Cl17 2.630641 1_555
Cd2 P10 2.482639 1_555
Cd2 Cl13 2.630641 1_555
Cd2 Cl20 2.630641 1_555
Cd2 Cl23 2.630641 1_555
Cd3 P11 2.482639 1_555
Cd3 Cl15 2.630641 1_555
Cd3 Cl19 2.630641 1_555
Cd3 Cl21 2.630641 1_555
Cd4 P12 2.482639 1_555
Cd4 Cl4 2.630641 1_555
Cd4 Cl10 2.630641 1_555
Cd4 Cl2 2.630641 1_555
Cd5 P13 2.482639 1_555
Cd5 Cl6 2.630641 1_555
Cd5 Cl5 2.630641 1_555
Cd5 Cl0 2.630641 1_555
Cd6 P14 2.482639 1_555
Cd6 Cl8 2.630641 1_555
Cd6 Cl11 2.630641 1_555
Cd6 Cl1 2.630641 1_555
Cd7 P15 2.482639 1_555
Cd7 Cl3 2.630641 1_555
Cd7 Cl9 2.630641 1_555
Cd7 Cl7 2.630641 1_555
Cd8 P8 2.470241 1_555
Cd8 P0 2.497188 1_555
Cd8 Cl19 2.717174 1_545
Cd8 Cl0 2.828913 1_555
Cd9 P9 2.470241 1_555
Cd9 P1 2.497188 1_555
Cd9 Cl15 2.717174 1_554
Cd9 Cl1 2.828913 1_555
Cd10 P10 2.470241 1_555
Cd10 P2 2.497188 1_555
Cd10 Cl21 2.717174 1_455
Cd10 Cl2 2.828913 1_555
Cd11 P9 2.470241 1_555
Cd11 P3 2.497188 1_555
Cd11 Cl22 2.717174 1_555
Cd11 Cl3 2.828913 1_555
Cd12 P11 2.470241 1_455
Cd12 P2 2.497188 1_555
Cd12 Cl17 2.717174 1_556
Cd12 Cl4 2.828913 1_555
Cd13 P11 2.470241 1_545
Cd13 P0 2.497188 1_555
Cd13 Cl23 2.717174 1_655
Cd13 Cl5 2.828913 1_555
Cd14 P10 2.470241 1_655
Cd14 P0 2.497188 1_555
Cd14 Cl14 2.717174 1_555
Cd14 Cl6 2.828913 1_555
Cd15 P8 2.470241 1_555
Cd15 P3 2.497188 1_555
Cd15 Cl20 2.717174 1_555
Cd15 Cl7 2.828913 1_555
Cd16 P8 2.470241 1_565
Cd16 P1 2.497188 1_555
Cd16 Cl12 2.717174 1_555
Cd16 Cl8 2.828913 1_555
Cd17 P10 2.470241 1_555
Cd17 P3 2.497188 1_555
Cd17 Cl18 2.717174 1_555
Cd17 Cl9 2.828913 1_555
Cd18 P9 2.470241 1_556
Cd18 P2 2.497188 1_555
Cd18 Cl13 2.717174 1_555
Cd18 Cl10 2.828913 1_555
Cd19 P11 2.470241 1_554
Cd19 P1 2.497188 1_555
Cd19 Cl16 2.717174 1_565
Cd19 Cl11 2.828913 1_555
Cd20 P12 2.470241 1_555
Cd20 P4 2.497188 1_555
Cd20 Cl7 2.717174 1_565
Cd20 Cl12 2.828913 1_555
Cd21 P13 2.470241 1_555
Cd21 P5 2.497188 1_555
Cd21 Cl3 2.717174 1_556
Cd21 Cl13 2.828913 1_555
Cd22 P14 2.470241 1_555
Cd22 P6 2.497188 1_555
Cd22 Cl9 2.717174 1_655
Cd22 Cl14 2.828913 1_555
Cd23 P13 2.470241 1_555
Cd23 P7 2.497188 1_555
Cd23 Cl10 2.717174 1_555
Cd23 Cl15 2.828913 1_555
Cd24 P15 2.470241 1_655
Cd24 P6 2.497188 1_555
Cd24 Cl5 2.717174 1_554
Cd24 Cl16 2.828913 1_555
Cd25 P15 2.470241 1_565
Cd25 P4 2.497188 1_555
Cd25 Cl11 2.717174 1_455
Cd25 Cl17 2.828913 1_555
Cd26 P14 2.470241 1_455
Cd26 P4 2.497188 1_555
Cd26 Cl2 2.717174 1_555
Cd26 Cl18 2.828913 1_555
Cd27 P12 2.470241 1_555
Cd27 P7 2.497188 1_555
Cd27 Cl8 2.717174 1_555
Cd27 Cl19 2.828913 1_555
Cd28 P12 2.470241 1_545
Cd28 P5 2.497188 1_555
Cd28 Cl0 2.717174 1_555
Cd28 Cl20 2.828913 1_555
Cd29 P14 2.470241 1_555
Cd29 P7 2.497188 1_555
Cd29 Cl6 2.717174 1_555
Cd29 Cl21 2.828913 1_555
Cd30 P13 2.470241 1_554
Cd30 P6 2.497188 1_555
Cd30 Cl1 2.717174 1_555
Cd30 Cl22 2.828913 1_555
Cd31 P15 2.470241 1_556
Cd31 P5 2.497188 1_555
Cd31 Cl4 2.717174 1_545
Cd31 Cl23 2.828913 1_555
P0 P4 2.170429 1_645
P1 P5 2.170429 1_564
P2 P6 2.170429 1_456
P3 P7 2.170429 1_555
