# generated using pymatgen
data_Na3HfNb(SiO4)3
_symmetry_space_group_name_H-M   'P 1'
_cell_length_a   15.80479884
_cell_length_b   9.13698956
_cell_length_c   9.11273431
_cell_angle_alpha   90.00000000
_cell_angle_beta   124.92389863
_cell_angle_gamma   90.00000000
_symmetry_Int_Tables_number   1
_chemical_formula_structural   Na3HfNb(SiO4)3
_chemical_formula_sum   'Na12 Hf4 Nb4 Si12 O48'
_cell_volume   1078.96824966
_cell_formula_units_Z   4
loop_
 _symmetry_equiv_pos_site_id
 _symmetry_equiv_pos_as_xyz
  1  'x, y, z'
loop_
 _atom_site_type_symbol
 _atom_site_label
 _atom_site_symmetry_multiplicity
 _atom_site_fract_x
 _atom_site_fract_y
 _atom_site_fract_z
 _atom_site_occupancy
  Na  Na0  1  0.25371119  0.72739621  0.99799119  1
  Na  Na1  1  0.75371119  0.77260379  0.49799119  1
  Na  Na2  1  0.75371119  0.22739621  0.99799119  1
  Na  Na3  1  0.25371119  0.27260379  0.49799119  1
  Na  Na4  1  0.49881511  0.11261765  0.74550620  1
  Na  Na5  1  0.49881511  0.88738235  0.24550620  1
  Na  Na6  1  0.99881511  0.61261765  0.74550620  1
  Na  Na7  1  0.99881511  0.38738235  0.24550620  1
  Na  Na8  1  0.19166820  0.94488660  0.29354413  1
  Na  Na9  1  0.19166820  0.05511340  0.79354413  1
  Na  Na10  1  0.69166820  0.44488660  0.29354413  1
  Na  Na11  1  0.69166820  0.55511340  0.79354413  1
  Hf  Hf0  1  0.10649551  0.74918257  0.56782781  1
  Hf  Hf1  1  0.10649551  0.25081743  0.06782781  1
  Hf  Hf2  1  0.60649551  0.24918257  0.56782781  1
  Hf  Hf3  1  0.60649551  0.75081743  0.06782781  1
  Nb  Nb0  1  0.89273350  0.75381716  0.93309130  1
  Nb  Nb1  1  0.89273350  0.24618284  0.43309130  1
  Nb  Nb2  1  0.39273350  0.25381716  0.93309130  1
  Nb  Nb3  1  0.39273350  0.74618284  0.43309130  1
  Si  Si0  1  0.99688768  0.95938605  0.75495197  1
  Si  Si1  1  0.99688768  0.04061395  0.25495197  1
  Si  Si2  1  0.49688768  0.45938605  0.75495197  1
  Si  Si3  1  0.49688768  0.54061395  0.25495197  1
  Si  Si4  1  0.35472114  0.89565625  0.75704050  1
  Si  Si5  1  0.64468293  0.89201401  0.74434973  1
  Si  Si6  1  0.64468293  0.10798599  0.24434973  1
  Si  Si7  1  0.35472114  0.10434375  0.25704050  1
  Si  Si8  1  0.85472114  0.39565625  0.75704050  1
  Si  Si9  1  0.14468293  0.39201401  0.74434973  1
  Si  Si10  1  0.14468293  0.60798599  0.24434973  1
  Si  Si11  1  0.85472114  0.60434375  0.25704050  1
  O  O0  1  0.15254946  0.56906186  0.74382492  1
  O  O1  1  0.84910441  0.57707769  0.75751572  1
  O  O2  1  0.84910441  0.42292231  0.25751572  1
  O  O3  1  0.15254946  0.43093814  0.24382492  1
  O  O4  1  0.65254946  0.06906186  0.74382492  1
  O  O5  1  0.34910441  0.07707769  0.75751572  1
  O  O6  1  0.34910441  0.92292231  0.25751572  1
  O  O7  1  0.65254946  0.93093814  0.24382492  1
  O  O8  1  0.43353380  0.57404643  0.58100034  1
  O  O9  1  0.56726779  0.55710362  0.93346650  1
  O  O10  1  0.56726779  0.44289638  0.43346650  1
  O  O11  1  0.43353380  0.42595357  0.08100034  1
  O  O12  1  0.93353380  0.07404643  0.58100034  1
  O  O13  1  0.06726779  0.05710362  0.93346650  1
  O  O14  1  0.06726779  0.94289638  0.43346650  1
  O  O15  1  0.93353380  0.92595357  0.08100034  1
  O  O16  1  0.25535108  0.83512330  0.74996961  1
  O  O17  1  0.74017952  0.80617821  0.75599799  1
  O  O18  1  0.74017952  0.19382179  0.25599799  1
  O  O19  1  0.25535108  0.16487670  0.24996961  1
  O  O20  1  0.75535108  0.33512330  0.74996961  1
  O  O21  1  0.24017952  0.30617821  0.75599799  1
  O  O22  1  0.24017952  0.69382179  0.25599799  1
  O  O23  1  0.75535108  0.66487670  0.24996961  1
  O  O24  1  0.35459811  0.85734137  0.57746387  1
  O  O25  1  0.64313089  0.84291826  0.91330343  1
  O  O26  1  0.64313089  0.15708174  0.41330343  1
  O  O27  1  0.35459811  0.14265863  0.07746387  1
  O  O28  1  0.85459811  0.35734137  0.57746387  1
  O  O29  1  0.14313089  0.34291826  0.91330343  1
  O  O30  1  0.14313089  0.65708174  0.41330343  1
  O  O31  1  0.85459811  0.64265863  0.07746387  1
  O  O32  1  0.46146199  0.83840124  0.93655678  1
  O  O33  1  0.53517619  0.83060725  0.56062650  1
  O  O34  1  0.53517619  0.16939275  0.06062650  1
  O  O35  1  0.46146199  0.16159876  0.43655678  1
  O  O36  1  0.96146199  0.33840124  0.93655678  1
  O  O37  1  0.03517619  0.33060725  0.56062650  1
  O  O38  1  0.03517619  0.66939275  0.06062650  1
  O  O39  1  0.96146199  0.66159876  0.43655678  1
  O  O40  1  0.07530415  0.85318283  0.74097812  1
  O  O41  1  0.91262736  0.85369778  0.75499339  1
  O  O42  1  0.91262736  0.14630222  0.25499339  1
  O  O43  1  0.07530415  0.14681717  0.24097812  1
  O  O44  1  0.57530415  0.35318283  0.74097812  1
  O  O45  1  0.41262736  0.35369778  0.75499339  1
  O  O46  1  0.41262736  0.64630222  0.25499339  1
  O  O47  1  0.57530415  0.64681717  0.24097812  1
loop_
_geom_bond_atom_site_label_1
_geom_bond_atom_site_label_2
_geom_bond_distance
_geom_bond_site_symmetry_2
Na0 O46 2.367963 1_556
Na0 O0 2.402864 1_555
Na0 O16 2.478889 1_555
Na0 O22 2.498693 1_556
Na0 O6 2.641081 1_556
Na0 O40 2.682455 1_555
Na1 O41 2.367963 1_555
Na1 O7 2.402864 1_555
Na1 O23 2.478889 1_555
Na1 O17 2.498693 1_555
Na1 O1 2.641081 1_555
Na1 O47 2.682455 1_555
Na2 O42 2.367963 1_556
Na2 O4 2.402864 1_555
Na2 O20 2.478889 1_555
Na2 O18 2.498693 1_556
Na2 O2 2.641081 1_556
Na2 O44 2.682455 1_555
Na3 O45 2.367963 1_555
Na3 O3 2.402864 1_555
Na3 O19 2.478889 1_555
Na3 O21 2.498693 1_555
Na3 O5 2.641081 1_555
Na3 O43 2.682455 1_555
Na4 O5 2.452054 1_555
Na4 O4 2.470805 1_555
Na4 O44 2.520244 1_555
Na4 O35 2.563612 1_555
Na4 O45 2.617239 1_555
Na4 O34 2.637421 1_556
Na5 O6 2.452054 1_555
Na5 O7 2.470805 1_555
Na5 O47 2.520244 1_555
Na5 O32 2.563612 1_554
Na5 O46 2.617239 1_555
Na5 O33 2.637421 1_555
Na6 O1 2.452054 1_555
Na6 O0 2.470805 1_655
Na6 O40 2.520244 1_655
Na6 O39 2.563612 1_555
Na6 O41 2.617239 1_555
Na6 O38 2.637421 1_656
Na7 O2 2.452054 1_555
Na7 O3 2.470805 1_655
Na7 O43 2.520244 1_655
Na7 O36 2.563612 1_554
Na7 O42 2.617239 1_555
Na7 O37 2.637421 1_655
Na8 O19 2.380882 1_565
Na8 O43 2.450971 1_565
Na8 O22 2.503518 1_555
Na8 O24 2.517250 1_555
Na8 O6 2.697186 1_555
Na8 O13 2.880466 1_564
Na8 O14 2.891746 1_555
Na9 O16 2.380882 1_545
Na9 O40 2.450971 1_545
Na9 O21 2.503518 1_555
Na9 O27 2.517250 1_556
Na9 O5 2.697186 1_555
Na9 O14 2.880466 1_545
Na9 O13 2.891746 1_555
Na10 O23 2.380882 1_555
Na10 O47 2.450971 1_555
Na10 O18 2.503518 1_555
Na10 O28 2.517250 1_555
Na10 O2 2.697186 1_555
Na10 O9 2.880466 1_554
Na10 O10 2.891746 1_555
Na11 O20 2.380882 1_555
Na11 O44 2.450971 1_555
Na11 O17 2.503518 1_555
Na11 O31 2.517250 1_556
Na11 O1 2.697186 1_555
Na11 O10 2.880466 1_555
Na11 O9 2.891746 1_555
Hf0 O30 1.989929 1_555
Hf0 O14 2.036451 1_555
Hf0 O39 2.045998 1_455
Hf0 O16 2.106041 1_555
Hf0 O0 2.115168 1_555
Hf0 O40 2.127510 1_555
Hf1 O29 1.989929 1_554
Hf1 O13 2.036451 1_554
Hf1 O36 2.045998 1_454
Hf1 O19 2.106041 1_555
Hf1 O3 2.115168 1_555
Hf1 O43 2.127510 1_555
Hf2 O26 1.989929 1_555
Hf2 O10 2.036451 1_555
Hf2 O35 2.045998 1_555
Hf2 O20 2.106041 1_555
Hf2 O4 2.115168 1_555
Hf2 O44 2.127510 1_555
Hf3 O25 1.989929 1_554
Hf3 O9 2.036451 1_554
Hf3 O32 2.045998 1_554
Hf3 O23 2.106041 1_555
Hf3 O7 2.115168 1_555
Hf3 O47 2.127510 1_555
Nb0 O15 1.926422 1_556
Nb0 O38 2.004555 1_656
Nb0 O31 2.008389 1_556
Nb0 O41 2.037149 1_555
Nb0 O17 2.047306 1_555
Nb0 O1 2.092841 1_555
Nb1 O12 1.926422 1_555
Nb1 O37 2.004555 1_655
Nb1 O28 2.008389 1_555
Nb1 O42 2.037149 1_555
Nb1 O18 2.047306 1_555
Nb1 O2 2.092841 1_555
Nb2 O11 1.926422 1_556
Nb2 O34 2.004555 1_556
Nb2 O27 2.008389 1_556
Nb2 O45 2.037149 1_555
Nb2 O21 2.047306 1_555
Nb2 O5 2.092841 1_555
Nb3 O8 1.926422 1_555
Nb3 O33 2.004555 1_555
Nb3 O24 2.008389 1_555
Nb3 O46 2.037149 1_555
Nb3 O22 2.047306 1_555
Nb3 O6 2.092841 1_555
O0 Si9 1.622672 1_555
O1 Si8 1.660159 1_555
O2 Si11 1.660159 1_555
O3 Si10 1.622672 1_555
O4 Si5 1.622672 1_545
O5 Si4 1.660159 1_545
O6 Si7 1.660159 1_565
O7 Si6 1.622672 1_565
O8 Si2 1.672007 1_555
O9 Si2 1.615230 1_555
O10 Si3 1.615230 1_555
O11 Si3 1.672007 1_555
O12 Si0 1.672007 1_545
O13 Si0 1.615230 1_445
O14 Si1 1.615230 1_465
O15 Si1 1.672007 1_565
O16 Si4 1.631176 1_555
O17 Si5 1.649524 1_555
O18 Si6 1.649524 1_555
O19 Si7 1.631176 1_555
O20 Si8 1.631176 1_555
O21 Si9 1.649524 1_555
O22 Si10 1.649524 1_555
O23 Si11 1.631176 1_555
O24 Si4 1.672374 1_555
O25 Si5 1.617262 1_555
O26 Si6 1.617262 1_555
O27 Si7 1.672374 1_555
O28 Si8 1.672374 1_555
O29 Si9 1.617262 1_555
O30 Si10 1.617262 1_555
O31 Si11 1.672374 1_555
O32 Si4 1.623562 1_555
O33 Si5 1.671986 1_555
O34 Si6 1.671986 1_555
O35 Si7 1.623562 1_555
O36 Si8 1.623562 1_555
O37 Si9 1.671986 1_555
O38 Si10 1.671986 1_555
O39 Si11 1.623562 1_555
O40 Si0 1.635406 1_455
O41 Si0 1.645166 1_555
O42 Si1 1.645166 1_555
O43 Si1 1.635406 1_455
O44 Si2 1.635406 1_555
O45 Si2 1.645166 1_555
O46 Si3 1.645166 1_555
O47 Si3 1.635406 1_555
