# generated using pymatgen
data_Hg3TeBr4
_symmetry_space_group_name_H-M   'P 1'
_cell_length_a   13.03067400
_cell_length_b   13.25382600
_cell_length_c   13.38468700
_cell_angle_alpha   90.00000000
_cell_angle_beta   90.00000000
_cell_angle_gamma   90.00000000
_symmetry_Int_Tables_number   1
_chemical_formula_structural   Hg3TeBr4
_chemical_formula_sum   'Hg24 Te8 Br32'
_cell_volume   2311.61957915
_cell_formula_units_Z   8
loop_
 _symmetry_equiv_pos_site_id
 _symmetry_equiv_pos_as_xyz
  1  'x, y, z'
loop_
 _atom_site_type_symbol
 _atom_site_label
 _atom_site_symmetry_multiplicity
 _atom_site_fract_x
 _atom_site_fract_y
 _atom_site_fract_z
 _atom_site_occupancy
  Hg  Hg0  1  0.61952500  0.08934700  0.18857600  1
  Hg  Hg1  1  0.31979800  0.30906000  0.23485000  1
  Hg  Hg2  1  0.18020200  0.69094000  0.73485000  1
  Hg  Hg3  1  0.68020200  0.80906000  0.26515000  1
  Hg  Hg4  1  0.18020200  0.80906000  0.23485000  1
  Hg  Hg5  1  0.68020200  0.69094000  0.76515000  1
  Hg  Hg6  1  0.81979800  0.30906000  0.26515000  1
  Hg  Hg7  1  0.31979800  0.19094000  0.73485000  1
  Hg  Hg8  1  0.81979800  0.19094000  0.76515000  1
  Hg  Hg9  1  0.11952500  0.41065300  0.81142400  1
  Hg  Hg10  1  0.38047500  0.58934700  0.31142400  1
  Hg  Hg11  1  0.88047500  0.91065300  0.68857600  1
  Hg  Hg12  1  0.38047500  0.91065300  0.81142400  1
  Hg  Hg13  1  0.88047500  0.58934700  0.18857600  1
  Hg  Hg14  1  0.61952500  0.41065300  0.68857600  1
  Hg  Hg15  1  0.11952500  0.08934700  0.31142400  1
  Hg  Hg16  1  0.23093900  0.09689100  0.01290100  1
  Hg  Hg17  1  0.73093900  0.40310900  0.98709900  1
  Hg  Hg18  1  0.76906100  0.59689100  0.48709900  1
  Hg  Hg19  1  0.26906100  0.90310900  0.51290100  1
  Hg  Hg20  1  0.76906100  0.90310900  0.98709900  1
  Hg  Hg21  1  0.26906100  0.59689100  0.01290100  1
  Hg  Hg22  1  0.23093900  0.40310900  0.51290100  1
  Hg  Hg23  1  0.73093900  0.09689100  0.48709900  1
  Te  Te0  1  0.40270500  0.09607600  0.89740100  1
  Te  Te1  1  0.90270500  0.40392400  0.10259900  1
  Te  Te2  1  0.59729500  0.59607600  0.60259900  1
  Te  Te3  1  0.09729500  0.90392400  0.39740100  1
  Te  Te4  1  0.59729500  0.90392400  0.10259900  1
  Te  Te5  1  0.09729500  0.59607600  0.89740100  1
  Te  Te6  1  0.40270500  0.40392400  0.39740100  1
  Te  Te7  1  0.90270500  0.09607600  0.60259900  1
  Br  Br0  1  0.33186600  0.09814500  0.22860200  1
  Br  Br1  1  0.83186600  0.40185500  0.77139800  1
  Br  Br2  1  0.66813400  0.59814500  0.27139800  1
  Br  Br3  1  0.16813400  0.90185500  0.72860200  1
  Br  Br4  1  0.66813400  0.90185500  0.77139800  1
  Br  Br5  1  0.16813400  0.59814500  0.22860200  1
  Br  Br6  1  0.33186600  0.40185500  0.72860200  1
  Br  Br7  1  0.83186600  0.09814500  0.27139800  1
  Br  Br8  1  0.05791400  0.08494100  0.10020800  1
  Br  Br9  1  0.55791400  0.41505900  0.89979200  1
  Br  Br10  1  0.94208600  0.58494100  0.39979200  1
  Br  Br11  1  0.44208600  0.91505900  0.60020800  1
  Br  Br12  1  0.94208600  0.91505900  0.89979200  1
  Br  Br13  1  0.44208600  0.58494100  0.10020800  1
  Br  Br14  1  0.05791400  0.41505900  0.60020800  1
  Br  Br15  1  0.59556500  0.21652200  0.67631500  1
  Br  Br16  1  0.76191700  0.16502600  0.94829900  1
  Br  Br17  1  0.26191700  0.33497400  0.05170100  1
  Br  Br18  1  0.23808300  0.66502600  0.55170100  1
  Br  Br19  1  0.73808300  0.83497400  0.44829900  1
  Br  Br20  1  0.23808300  0.83497400  0.05170100  1
  Br  Br21  1  0.73808300  0.66502600  0.94829900  1
  Br  Br22  1  0.76191700  0.33497400  0.44829900  1
  Br  Br23  1  0.26191700  0.16502600  0.55170100  1
  Br  Br24  1  0.09556500  0.21652200  0.82368500  1
  Br  Br25  1  0.59556500  0.28347800  0.17631500  1
  Br  Br26  1  0.90443500  0.71652200  0.67631500  1
  Br  Br27  1  0.40443500  0.78347800  0.32368500  1
  Br  Br28  1  0.90443500  0.78347800  0.17631500  1
  Br  Br29  1  0.40443500  0.71652200  0.82368500  1
  Br  Br30  1  0.09556500  0.28347800  0.32368500  1
  Br  Br31  1  0.55791400  0.08494100  0.39979200  1
loop_
_geom_bond_atom_site_label_1
_geom_bond_atom_site_label_2
_geom_bond_distance
_geom_bond_site_symmetry_2
Hg0 Te4 2.729069 1_545
Hg1 Te6 2.735251 1_555
Hg2 Te5 2.735251 1_555
Hg3 Te4 2.735251 1_555
Hg4 Te3 2.735251 1_555
Hg5 Te2 2.735251 1_555
Hg6 Te1 2.735251 1_555
Hg7 Te0 2.735251 1_555
Hg8 Te7 2.735251 1_555
Hg9 Te5 2.729069 1_555
Hg10 Te6 2.729069 1_555
Hg11 Te7 2.729069 1_565
Hg12 Te0 2.729069 1_565
Hg13 Te1 2.729069 1_555
Hg14 Te2 2.729069 1_555
Hg15 Te3 2.729069 1_545
Hg16 Te0 2.720235 1_554
Hg17 Te1 2.720235 1_556
Hg18 Te2 2.720235 1_555
Hg19 Te3 2.720235 1_555
Hg20 Te4 2.720235 1_556
Hg21 Te5 2.720235 1_554
Hg22 Te6 2.720235 1_555
Hg23 Te7 2.720235 1_555
Br0 Hg1 2.801099 1_555
Br0 Hg15 2.983029 1_555
Br0 Hg16 3.172567 1_555
Br1 Hg8 2.801099 1_555
Br1 Hg14 2.983029 1_555
Br1 Hg17 3.172567 1_555
Br2 Hg3 2.801099 1_555
Br2 Hg13 2.983029 1_555
Br2 Hg18 3.172567 1_555
Br3 Hg2 2.801099 1_555
Br3 Hg12 2.983029 1_555
Br3 Hg19 3.172567 1_555
Br4 Hg5 2.801099 1_555
Br4 Hg11 2.983029 1_555
Br4 Hg20 3.172567 1_555
Br5 Hg4 2.801099 1_555
Br5 Hg10 2.983029 1_555
Br5 Hg21 3.172567 1_555
Br6 Hg7 2.801099 1_555
Br6 Hg9 2.983029 1_555
Br6 Hg22 3.172567 1_555
Br7 Hg6 2.801099 1_555
Br7 Hg0 2.983029 1_555
Br7 Hg23 3.172567 1_555
Br8 Hg16 2.544410 1_555
Br8 Hg15 2.939425 1_555
Br9 Hg17 2.544410 1_555
Br9 Hg14 2.939425 1_555
Br10 Hg18 2.544410 1_555
Br10 Hg13 2.939425 1_555
Br11 Hg19 2.544410 1_555
Br11 Hg12 2.939425 1_555
Br12 Hg20 2.544410 1_555
Br12 Hg11 2.939425 1_555
Br13 Hg21 2.544410 1_555
Br13 Hg10 2.939425 1_555
Br14 Hg22 2.544410 1_555
Br14 Hg9 2.939425 1_555
Br15 Hg14 2.597042 1_555
Br15 Hg8 3.172742 1_555
Br16 Hg8 2.587692 1_555
Br16 Hg17 3.223335 1_555
Br17 Hg1 2.587692 1_555
Br17 Hg16 3.223335 1_555
Br18 Hg2 2.587692 1_555
Br18 Hg19 3.223335 1_555
Br19 Hg3 2.587692 1_555
Br19 Hg18 3.223335 1_555
Br20 Hg4 2.587692 1_555
Br20 Hg21 3.223335 1_555
Br21 Hg5 2.587692 1_555
Br21 Hg20 3.223335 1_555
Br22 Hg6 2.587692 1_555
Br22 Hg23 3.223335 1_555
Br23 Hg7 2.587692 1_555
Br23 Hg22 3.223335 1_555
Br24 Hg9 2.597042 1_555
Br24 Hg7 3.172742 1_555
Br25 Hg0 2.597042 1_555
Br25 Hg6 3.172742 1_555
Br26 Hg11 2.597042 1_555
Br26 Hg5 3.172742 1_555
Br27 Hg10 2.597042 1_555
Br27 Hg4 3.172742 1_555
Br28 Hg13 2.597042 1_555
Br28 Hg3 3.172742 1_555
Br29 Hg12 2.597042 1_555
Br29 Hg2 3.172742 1_555
Br30 Hg15 2.597042 1_555
Br30 Hg1 3.172742 1_555
Br31 Hg23 2.544410 1_555
Br31 Hg0 2.939425 1_555
