# generated using pymatgen
data_Na2Sc4Si3Ge4(S3O16)3
_symmetry_space_group_name_H-M   'P 1'
_cell_length_a   17.27399037
_cell_length_b   8.65921179
_cell_length_c   22.49517844
_cell_angle_alpha   89.73617153
_cell_angle_beta   89.30142791
_cell_angle_gamma   120.21293078
_symmetry_Int_Tables_number   1
_chemical_formula_structural   Na2Sc4Si3Ge4(S3O16)3
_chemical_formula_sum   'Na6 Sc12 Si9 Ge12 S27 O144'
_cell_volume   2907.29726783
_cell_formula_units_Z   3
loop_
 _symmetry_equiv_pos_site_id
 _symmetry_equiv_pos_as_xyz
  1  'x, y, z'
loop_
 _atom_site_type_symbol
 _atom_site_label
 _atom_site_symmetry_multiplicity
 _atom_site_fract_x
 _atom_site_fract_y
 _atom_site_fract_z
 _atom_site_occupancy
  Na  Na0  1  0.99470053  0.01086893  0.50113929  1
  Na  Na1  1  0.49539937  0.98091097  0.00392691  1
  Na  Na2  1  0.32621476  0.31901940  0.83719469  1
  Na  Na3  1  0.82907577  0.33025643  0.83032496  1
  Na  Na4  1  0.33070294  0.32917780  0.32956336  1
  Na  Na5  1  0.81953234  0.32627791  0.33380782  1
  Sc  Sc0  1  0.00793586  0.00576183  0.34959760  1
  Sc  Sc1  1  0.50795256  0.01004345  0.85086070  1
  Sc  Sc2  1  -0.00005226  0.00869186  0.64415809  1
  Sc  Sc3  1  0.50360467  0.98865814  0.14565968  1
  Sc  Sc4  1  0.32665246  0.33115877  0.98146232  1
  Sc  Sc5  1  0.84158349  0.34657759  0.98309838  1
  Sc  Sc6  1  0.34172976  0.33343416  0.48164483  1
  Sc  Sc7  1  0.82748842  0.32376797  0.47991922  1
  Sc  Sc8  1  0.16489549  0.67507622  0.30332715  1
  Sc  Sc9  1  0.66914368  0.66454399  0.30727670  1
  Sc  Sc10  1  0.16931678  0.67996378  0.81128620  1
  Sc  Sc11  1  0.66365615  0.65213354  0.80400916  1
  Si  Si0  1  0.15145108  0.02028175  0.24457179  1
  Si  Si1  1  0.65255243  0.01326133  0.24711460  1
  Si  Si2  1  0.65217398  0.28333722  0.74463250  1
  Si  Si3  1  0.48260375  0.33535742  0.58435382  1
  Si  Si4  1  0.98028741  0.34604219  0.58181220  1
  Si  Si5  1  0.47842334  0.61791182  0.08138987  1
  Si  Si6  1  0.97838604  0.62517674  0.08618702  1
  Si  Si7  1  0.16428535  0.95657870  0.91528346  1
  Si  Si8  1  0.66407907  0.37305174  0.41412729  1
  Ge  Ge0  1  0.52044235  0.02850860  0.35211035  1
  Ge  Ge1  1  0.00305592  0.99440483  0.85720000  1
  Ge  Ge2  1  0.50772625  0.02585167  0.64371842  1
  Ge  Ge3  1  0.00627101  0.98866598  0.14452022  1
  Ge  Ge4  1  0.33930750  0.34145893  0.68003760  1
  Ge  Ge5  1  0.83207101  0.33799046  0.67819480  1
  Ge  Ge6  1  0.33717439  0.33502760  0.18333979  1
  Ge  Ge7  1  0.83536558  0.33142045  0.18462782  1
  Ge  Ge8  1  0.15913520  0.68545932  0.02462507  1
  Ge  Ge9  1  0.66407113  0.66951474  0.02601941  1
  Ge  Ge10  1  0.16462896  0.66154593  0.52133017  1
  Ge  Ge11  1  0.65555291  0.63649381  0.51690755  1
  S  S0  1  0.36129906  0.70802022  0.25354626  1
  S  S1  1  0.86035886  0.71052807  0.24528313  1
  S  S2  1  0.99488463  0.27981480  0.24526495  1
  S  S3  1  0.49373386  0.27992600  0.25007804  1
  S  S4  1  0.15094461  0.28595679  0.74939912  1
  S  S5  1  0.99496006  0.70798339  0.75107892  1
  S  S6  1  0.49123198  0.70467848  0.74510917  1
  S  S7  1  0.35828847  0.01172375  0.74447012  1
  S  S8  1  0.86229587  0.01445328  0.75423420  1
  S  S9  1  0.19164928  0.03792307  0.58297647  1
  S  S10  1  0.68354348  0.02926681  0.58550772  1
  S  S11  1  0.33429392  0.63037976  0.58593171  1
  S  S12  1  0.82782912  0.62314838  0.58197290  1
  S  S13  1  0.32844722  0.03457675  0.08280487  1
  S  S14  1  0.83459144  0.03618532  0.08542508  1
  S  S15  1  0.18291042  0.33911133  0.08526405  1
  S  S16  1  0.68974341  0.34583709  0.08087482  1
  S  S17  1  0.30860146  0.67278729  0.91950502  1
  S  S18  1  0.81105856  0.67488721  0.91593002  1
  S  S19  1  0.02232885  0.36556425  0.91445805  1
  S  S20  1  0.52570934  0.38056216  0.91973835  1
  S  S21  1  0.66658495  0.94929712  0.91889163  1
  S  S22  1  0.31031036  0.94393015  0.41685807  1
  S  S23  1  0.80861745  0.94332357  0.42024705  1
  S  S24  1  0.16602460  0.38166278  0.41932316  1
  S  S25  1  0.02605449  0.67163287  0.41908792  1
  S  S26  1  0.52368155  0.68001745  0.41522098  1
  O  O0  1  0.11324577  0.06302119  0.30521190  1
  O  O1  1  0.61036238  0.05840976  0.30739385  1
  O  O2  1  0.41734216  0.79251508  0.30689609  1
  O  O3  1  0.91411196  0.79015678  0.29918932  1
  O  O4  1  0.47466369  0.16414627  0.30552584  1
  O  O5  1  0.97760688  0.17111990  0.30018835  1
  O  O6  1  0.11095569  0.17169262  0.80414856  1
  O  O7  1  0.61262570  0.16176588  0.80493196  1
  O  O8  1  0.47421160  0.77842410  0.79961127  1
  O  O9  1  0.97792577  0.78903007  0.80610058  1
  O  O10  1  0.41206593  0.04399844  0.79836207  1
  O  O11  1  0.91986092  0.04317103  0.80817571  1
  O  O12  1  0.40069164  0.98421948  0.69110420  1
  O  O13  1  0.90100642  0.98272524  0.70078248  1
  O  O14  1  0.09744939  0.20447355  0.69687978  1
  O  O15  1  0.58659872  0.18978190  0.68930666  1
  O  O16  1  0.00920679  0.81778002  0.69830251  1
  O  O17  1  0.50397061  0.81379013  0.69169667  1
  O  O18  1  0.39571666  0.81384797  0.19895411  1
  O  O19  1  0.90152640  0.82725113  0.19176400  1
  O  O20  1  0.00670755  0.19574097  0.19188663  1
  O  O21  1  0.50409217  0.19826065  0.19678921  1
  O  O22  1  0.08641322  0.98349914  0.18912963  1
  O  O23  1  0.59294349  0.98405665  0.19046960  1
  O  O24  1  0.43643657  0.37704931  0.64289090  1
  O  O25  1  0.93130337  0.37499040  0.64336677  1
  O  O26  1  0.24600156  0.12050871  0.63776614  1
  O  O27  1  0.74067451  0.11330316  0.63931800  1
  O  O28  1  0.30854187  0.50425895  0.64033947  1
  O  O29  1  0.80995747  0.50968874  0.63758375  1
  O  O30  1  0.43084829  0.48936262  0.14249095  1
  O  O31  1  0.92853839  0.48558231  0.14274882  1
  O  O32  1  0.30997025  0.11159418  0.13687924  1
  O  O33  1  0.81058088  0.10960784  0.13806248  1
  O  O34  1  0.23975661  0.36954100  0.13803659  1
  O  O35  1  0.74277457  0.37122922  0.13470251  1
  O  O36  1  0.21772386  0.29196130  0.03290422  1
  O  O37  1  0.72749166  0.30684641  0.02786583  1
  O  O38  1  0.41910497  0.52560851  0.02475523  1
  O  O39  1  0.92056347  0.54177198  0.02736631  1
  O  O40  1  0.34004549  0.13935172  0.02905689  1
  O  O41  1  0.85008322  0.14614015  0.03178626  1
  O  O42  1  0.22813591  0.15426201  0.53046561  1
  O  O43  1  0.71879426  0.14960564  0.53413089  1
  O  O44  1  0.35043376  0.54950698  0.53394095  1
  O  O45  1  0.84367943  0.54242158  0.53022955  1
  O  O46  1  0.42007817  0.29869866  0.52803909  1
  O  O47  1  0.91829239  0.30723340  0.52611007  1
  O  O48  1  0.26447524  0.68997527  0.97458262  1
  O  O49  1  0.77209793  0.70245859  0.97170757  1
  O  O50  1  0.07413946  0.43934437  0.96874037  1
  O  O51  1  0.58271771  0.46371231  0.97306177  1
  O  O52  1  0.14712718  0.83042007  0.97536247  1
  O  O53  1  0.65569957  0.84242701  0.97505955  1
  O  O54  1  0.26903680  0.83523641  0.47487913  1
  O  O55  1  0.76399077  0.83780845  0.47704099  1
  O  O56  1  0.15392693  0.46391257  0.47593698  1
  O  O57  1  0.64786229  0.46037133  0.47556553  1
  O  O58  1  0.08243795  0.70242026  0.47350990  1
  O  O59  1  0.57587153  0.70862473  0.47123090  1
  O  O60  1  0.06780141  0.65036390  0.36550270  1
  O  O61  1  0.56460234  0.64939515  0.36360090  1
  O  O62  1  0.25238542  0.86042982  0.36628213  1
  O  O63  1  0.75845419  0.86361796  0.36706065  1
  O  O64  1  0.17552410  0.48552065  0.36635372  1
  O  O65  1  0.68099966  0.49286989  0.35655663  1
  O  O66  1  0.06373863  0.47444022  0.86083205  1
  O  O67  1  0.56725972  0.48490772  0.86516440  1
  O  O68  1  0.17976228  0.86856582  0.85678577  1
  O  O69  1  0.67594433  0.86579177  0.86542508  1
  O  O70  1  0.25810553  0.65120458  0.86507273  1
  O  O71  1  0.75636533  0.64837054  0.86385890  1
  O  O72  1  0.01740134  0.83323648  0.41563849  1
  O  O73  1  0.51277512  0.83898090  0.40860344  1
  O  O74  1  0.39724934  0.95657763  0.41039783  1
  O  O75  1  0.89829051  0.95947986  0.41752577  1
  O  O76  1  0.08325193  0.20329075  0.41804419  1
  O  O77  1  0.56814459  0.18012238  0.41000005  1
  O  O78  1  0.01208516  0.18365496  0.90678045  1
  O  O79  1  0.51689549  0.20103816  0.91543843  1
  O  O80  1  0.07148092  0.96488903  0.90660761  1
  O  O81  1  0.58327726  0.96029672  0.91736318  1
  O  O82  1  0.39829562  0.83635171  0.91462815  1
  O  O83  1  0.90039427  0.84143567  0.90864475  1
  O  O84  1  0.48905248  0.15518585  0.59248180  1
  O  O85  1  0.99549672  0.17687314  0.59110587  1
  O  O86  1  0.09991237  0.00400945  0.59146716  1
  O  O87  1  0.59024529  0.99594421  0.59543285  1
  O  O88  1  0.41477900  0.80251343  0.59768379  1
  O  O89  1  0.90980699  0.79847777  0.59010418  1
  O  O90  1  0.49021521  0.81379600  0.08590046  1
  O  O91  1  0.98812497  0.82055083  0.09381954  1
  O  O92  1  0.40829503  0.01951824  0.08939310  1
  O  O93  1  0.91459407  0.02197100  0.09565947  1
  O  O94  1  0.08935232  0.18552502  0.09447793  1
  O  O95  1  0.59662492  0.20080911  0.08683889  1
  O  O96  1  0.34715054  0.17401779  0.73870371  1
  O  O97  1  0.85628714  0.17766399  0.74819007  1
  O  O98  1  0.24189416  0.29838522  0.74199652  1
  O  O99  1  0.75185670  0.30179407  0.73411743  1
  O  O100  1  0.40676657  0.52114098  0.74065055  1
  O  O101  1  0.91256319  0.53038739  0.74652616  1
  O  O102  1  0.35505483  0.53014759  0.24704071  1
  O  O103  1  0.85533689  0.53446920  0.23948138  1
  O  O104  1  0.41082078  0.29555846  0.24626927  1
  O  O105  1  0.91356093  0.29886598  0.24093659  1
  O  O106  1  0.25086498  0.20020228  0.23409635  1
  O  O107  1  0.75117522  0.20320349  0.23788857  1
  O  O108  1  0.31917735  0.51449142  0.92245414  1
  O  O109  1  0.82280889  0.51734602  0.92073555  1
  O  O110  1  0.43686376  0.36141236  0.92451384  1
  O  O111  1  0.93102181  0.34178265  0.91943718  1
  O  O112  1  0.24969400  0.15318184  0.92033299  1
  O  O113  1  0.74543212  0.12925095  0.92381808  1
  O  O114  1  0.31818145  0.12257503  0.42306097  1
  O  O115  1  0.81951130  0.12301290  0.42413471  1
  O  O116  1  0.24533078  0.36157954  0.42508785  1
  O  O117  1  0.74854173  0.34327338  0.42145040  1
  O  O118  1  0.43238747  0.52013043  0.42202256  1
  O  O119  1  0.93740392  0.51231285  0.42485122  1
  O  O120  1  0.17882911  0.50360862  0.07482753  1
  O  O121  1  0.69120049  0.51940249  0.07244797  1
  O  O122  1  0.07472956  0.63258710  0.07849147  1
  O  O123  1  0.57819150  0.63492876  0.07557342  1
  O  O124  1  0.24850327  0.85008756  0.07767743  1
  O  O125  1  0.75519144  0.85324428  0.07632596  1
  O  O126  1  0.18968351  0.86632254  0.57518145  1
  O  O127  1  0.67936338  0.85826580  0.57632414  1
  O  O128  1  0.25549338  0.65348812  0.57772345  1
  O  O129  1  0.74995525  0.64733608  0.57618258  1
  O  O130  1  0.08077915  0.52655373  0.57401732  1
  O  O131  1  0.57845837  0.52038620  0.57554391  1
  O  O132  1  0.16157547  0.84749926  0.25385969  1
  O  O133  1  0.66814897  0.85186373  0.26017265  1
  O  O134  1  0.27023641  0.67604861  0.26286641  1
  O  O135  1  0.77171397  0.68746353  0.24991649  1
  O  O136  1  0.07459863  0.45581511  0.25202556  1
  O  O137  1  0.57124106  0.45656855  0.25693381  1
  O  O138  1  0.16287938  0.46275261  0.75743453  1
  O  O139  1  0.66238231  0.47647199  0.75392333  1
  O  O140  1  0.07263545  0.68583018  0.75813452  1
  O  O141  1  0.56903989  0.68226758  0.75176414  1
  O  O142  1  0.26994917  0.85183888  0.74980130  1
  O  O143  1  0.77283203  0.85995236  0.76269522  1
loop_
_geom_bond_atom_site_label_1
_geom_bond_atom_site_label_2
_geom_bond_distance
_geom_bond_site_symmetry_2
Na0 O75 2.418173 1_545
Na0 O76 2.438571 1_655
Na0 O85 2.483927 1_555
Na0 O89 2.591955 1_545
Na0 O72 2.614362 1_645
Na0 O86 2.762778 1_655
Na1 O90 2.311584 1_555
Na1 O81 2.516321 1_554
Na1 O82 2.531378 1_554
Na1 O92 2.552182 1_565
Na1 O95 2.631202 1_565
Na1 O79 2.639743 1_564
Na2 O112 2.304707 1_555
Na2 O98 2.560694 1_555
Na2 O108 2.605672 1_555
Na2 O110 2.652993 1_555
Na2 O96 2.660669 1_555
Na2 O100 2.675129 1_555
Na3 O97 2.450922 1_555
Na3 O101 2.454556 1_555
Na3 O99 2.503639 1_555
Na3 O113 2.627074 1_555
Na3 O109 2.640853 1_555
Na3 O111 2.653406 1_555
Na4 O104 2.420365 1_555
Na4 O102 2.421967 1_555
Na4 O106 2.511055 1_555
Na4 O116 2.686212 1_555
Na4 O114 2.689947 1_555
Na4 O118 2.709794 1_555
Na5 O117 2.353242 1_555
Na5 O107 2.450025 1_555
Na5 O103 2.635440 1_555
Na5 O115 2.681996 1_555
Na5 O105 2.714579 1_555
Na5 O119 2.786796 1_555
Ge0 O1 1.745365 1_555
Ge0 O77 1.746871 1_555
Ge0 O4 2.011616 1_555
Ge0 O73 2.020858 1_545
Ge0 O2 2.186951 1_545
Ge0 O74 2.286076 1_545
Ge1 O80 1.741011 1_555
Ge1 O78 1.928114 1_565
Ge1 O83 1.952023 1_455
Ge1 O9 1.981528 1_455
Ge1 O11 2.026058 1_465
Ge1 O6 2.074628 1_565
Ge2 O15 1.738958 1_555
Ge2 O84 1.745707 1_555
Ge2 O87 1.901343 1_545
Ge2 O12 1.990548 1_545
Ge2 O88 2.079492 1_545
Ge2 O17 2.097890 1_545
Ge3 O22 1.738189 1_555
Ge3 O91 1.755847 1_455
Ge3 O94 1.927036 1_565
Ge3 O19 1.936762 1_455
Ge3 O93 2.073236 1_465
Ge3 O20 2.086814 1_565
Ge4 O24 1.746802 1_555
Ge4 O28 1.954791 1_555
Ge4 O100 1.967590 1_555
Ge4 O96 2.011627 1_555
Ge4 O26 2.028086 1_555
Ge4 O98 2.054174 1_555
Ge5 O25 1.751272 1_555
Ge5 O99 1.765644 1_555
Ge5 O29 1.938703 1_555
Ge5 O27 2.000169 1_555
Ge5 O101 2.194529 1_555
Ge5 O97 2.272002 1_555
Ge6 O30 1.739183 1_555
Ge6 O106 1.756101 1_555
Ge6 O32 2.042545 1_555
Ge6 O104 2.053342 1_555
Ge6 O34 2.122463 1_555
Ge6 O102 2.123996 1_555
Ge7 O31 1.746145 1_555
Ge7 O107 1.761638 1_555
Ge7 O105 1.982447 1_555
Ge7 O103 2.037875 1_555
Ge7 O33 2.042443 1_555
Ge7 O35 2.129175 1_555
Ge8 O122 1.756055 1_555
Ge8 O52 1.761122 1_554
Ge8 O124 1.919727 1_555
Ge8 O120 2.098294 1_555
Ge8 O48 2.111372 1_554
Ge8 O50 2.280012 1_554
Ge9 O123 1.744274 1_555
Ge9 O121 1.900671 1_555
Ge9 O53 1.945004 1_554
Ge9 O125 1.956788 1_555
Ge9 O51 2.027259 1_554
Ge9 O49 2.112266 1_554
Ge10 O130 1.763640 1_555
Ge10 O56 1.925587 1_555
Ge10 O54 1.953529 1_555
Ge10 O58 1.958998 1_555
Ge10 O126 2.014756 1_555
Ge10 O128 2.058089 1_555
Ge11 O57 1.737983 1_555
Ge11 O131 1.766809 1_555
Ge11 O55 2.002528 1_555
Ge11 O59 2.057721 1_555
Ge11 O129 2.084722 1_555
Ge11 O127 2.210332 1_555
O0 Si0 1.631508 1_555
O0 Sc0 1.896146 1_555
O1 Si1 1.670398 1_555
O2 S0 1.495441 1_555
O3 S1 1.482861 1_555
O3 Sc0 2.101701 1_665
O4 S3 1.521677 1_555
O5 S2 1.482912 1_555
O5 Sc0 2.077166 1_655
O6 S4 1.501049 1_555
O7 Si2 1.629514 1_555
O7 Sc1 1.901049 1_555
O8 S6 1.478094 1_555
O8 Sc1 2.133680 1_565
O9 S5 1.522503 1_555
O10 S7 1.476497 1_555
O10 Sc1 2.181569 1_555
O11 S8 1.518670 1_555
O12 S7 1.480251 1_565
O13 S8 1.461758 1_565
O13 Sc2 2.037556 1_665
O14 S4 1.457956 1_555
O14 Sc2 2.076262 1_555
O15 Si2 1.615069 1_555
O16 S5 1.456355 1_455
O16 Sc2 2.119972 1_565
O17 S6 1.469225 1_555
O18 S0 1.457693 1_555
O18 Sc3 2.071584 1_555
O19 S1 1.490384 1_555
O20 S2 1.471473 1_455
O21 S3 1.448789 1_555
O21 Sc3 2.149705 1_545
O22 Si0 1.611450 1_565
O23 Si1 1.587696 1_565
O23 Sc3 1.870481 1_555
O24 Si3 1.663979 1_555
O25 Si4 1.698305 1_555
O26 S9 1.507503 1_555
O27 S10 1.511022 1_555
O28 S11 1.540785 1_555
O29 S12 1.516412 1_555
O30 Si5 1.685626 1_555
O31 Si6 1.653206 1_555
O32 S13 1.496172 1_555
O33 S14 1.496213 1_555
O34 S15 1.487900 1_555
O35 S16 1.476647 1_555
O36 S15 1.466259 1_555
O36 Sc4 2.072526 1_554
O37 S16 1.472218 1_555
O37 Sc5 2.069460 1_554
O38 Si5 1.590228 1_555
O38 Sc4 1.918527 1_554
O39 Si6 1.607820 1_555
O39 Sc5 1.854092 1_554
O40 S13 1.458143 1_555
O40 Sc4 2.082013 1_554
O41 S14 1.469416 1_555
O41 Sc5 2.115753 1_554
O42 S9 1.462635 1_555
O42 Sc6 2.081192 1_555
O43 S10 1.457907 1_555
O43 Sc7 2.089094 1_555
O44 S11 1.460157 1_555
O44 Sc6 2.156091 1_555
O45 S12 1.452857 1_555
O45 Sc7 2.106752 1_555
O46 Si3 1.601289 1_555
O46 Sc6 1.858111 1_555
O47 Si4 1.582482 1_555
O47 Sc7 1.955736 1_555
O48 S17 1.493678 1_555
O49 S18 1.492700 1_555
O50 S19 1.469212 1_555
O51 S20 1.500060 1_555
O52 Si7 1.660887 1_555
O53 S21 1.515422 1_555
O54 S22 1.545428 1_555
O55 S23 1.522389 1_555
O56 S24 1.524625 1_555
O57 Si8 1.665426 1_555
O58 S25 1.513006 1_555
O59 S26 1.505793 1_555
O60 S25 1.456531 1_555
O60 Sc8 2.096152 1_555
O61 S26 1.445623 1_555
O61 Sc9 2.141939 1_555
O62 S22 1.457939 1_555
O62 Sc8 2.120741 1_555
O63 S23 1.445564 1_555
O63 Sc9 2.134404 1_555
O64 S24 1.446501 1_555
O64 Sc8 2.241932 1_555
O65 Si8 1.585017 1_555
O65 Sc9 1.943575 1_555
O66 S19 1.464751 1_555
O66 Sc10 2.097888 1_555
O67 S20 1.467752 1_555
O67 Sc11 2.064264 1_555
O68 Si7 1.609242 1_555
O68 Sc10 1.862965 1_555
O69 S21 1.454821 1_555
O69 Sc11 2.238780 1_555
O70 S17 1.469413 1_555
O70 Sc10 2.074896 1_555
O71 S18 1.458940 1_555
O71 Sc11 2.117315 1_555
O72 S25 1.482015 1_555
O72 Sc0 2.167235 1_565
O73 S26 1.487345 1_555
O74 S22 1.455152 1_555
O75 S23 1.484003 1_555
O75 Sc0 2.289696 1_665
O76 S24 1.486487 1_555
O76 Sc0 2.196011 1_555
O77 Si8 1.662732 1_555
O78 S19 1.505023 1_555
O79 S20 1.487502 1_555
O79 Sc1 2.154042 1_555
O80 Si7 1.654330 1_555
O81 S21 1.490054 1_555
O81 Sc1 2.173057 1_565
O82 S17 1.484753 1_555
O82 Sc1 2.225855 1_565
O83 S18 1.496647 1_555
O84 Si3 1.628701 1_555
O85 Si4 1.626170 1_555
O85 Sc2 1.910483 1_655
O86 S9 1.468886 1_555
O86 Sc2 2.099847 1_555
O87 S10 1.501025 1_565
O88 S11 1.466800 1_555
O89 S12 1.479479 1_555
O89 Sc2 2.104874 1_665
O90 Si5 1.607250 1_555
O90 Sc3 1.956321 1_555
O91 Si6 1.623841 1_555
O92 S13 1.458501 1_555
O92 Sc3 2.207830 1_545
O93 S14 1.468560 1_555
O94 S15 1.499891 1_555
O95 S16 1.463772 1_555
O95 Sc3 2.159272 1_545
O96 S7 1.516532 1_555
O97 S8 1.474048 1_555
O98 S4 1.526708 1_555
O99 Si2 1.661098 1_555
O100 S6 1.528401 1_555
O101 S5 1.484378 1_555
O102 S0 1.496876 1_555
O103 S1 1.489214 1_555
O104 S3 1.508304 1_555
O105 S2 1.498845 1_555
O106 Si0 1.651036 1_555
O107 Si1 1.678918 1_555
O108 S17 1.472455 1_555
O108 Sc4 2.118950 1_555
O109 S18 1.480450 1_555
O109 Sc5 2.175881 1_555
O110 S20 1.460851 1_555
O110 Sc4 2.183956 1_555
O111 S19 1.487017 1_655
O111 Sc5 2.109644 1_555
O112 Si7 1.601830 1_545
O112 Sc4 2.008846 1_555
O113 S21 1.471318 1_545
O113 Sc5 2.238251 1_555
O114 S22 1.490537 1_545
O114 Sc6 2.126913 1_555
O115 S23 1.473454 1_545
O115 Sc7 2.097357 1_555
O116 S24 1.472302 1_555
O116 Sc6 2.215438 1_555
O117 Si8 1.614445 1_555
O117 Sc7 1.972741 1_555
O118 S26 1.490626 1_555
O118 Sc6 2.060497 1_555
O119 S25 1.460272 1_655
O119 Sc7 2.146923 1_555
O120 S15 1.479001 1_555
O121 S16 1.501527 1_555
O122 Si6 1.639868 1_455
O123 Si5 1.657608 1_555
O124 S13 1.502571 1_565
O125 S14 1.501885 1_565
O126 S9 1.480418 1_565
O127 S10 1.461519 1_565
O128 S11 1.485569 1_555
O129 S12 1.468998 1_555
O130 Si4 1.657278 1_455
O131 Si3 1.633119 1_555
O132 Si0 1.604397 1_565
O132 Sc8 1.882336 1_555
O133 Si1 1.577715 1_565
O133 Sc9 1.940814 1_555
O134 S0 1.465645 1_555
O134 Sc8 2.020832 1_555
O135 S1 1.443471 1_555
O135 Sc9 2.105136 1_555
O136 S2 1.461864 1_455
O136 Sc8 2.110238 1_555
O137 S3 1.449862 1_555
O137 Sc9 2.094294 1_555
O138 S4 1.450752 1_555
O138 Sc10 2.198029 1_555
O139 Si2 1.605925 1_555
O139 Sc11 1.888473 1_555
O140 S5 1.458176 1_455
O140 Sc10 2.086823 1_555
O141 S6 1.460717 1_555
O141 Sc11 2.143321 1_555
O142 S7 1.458595 1_565
O142 Sc10 2.113870 1_555
O143 S8 1.457398 1_565
O143 Sc11 2.045724 1_555
