# generated using pymatgen
data_Na2Sc2Ta6Si7S5O48
_symmetry_space_group_name_H-M   'P 1'
_cell_length_a   17.74488512
_cell_length_b   8.88229761
_cell_length_c   22.96604352
_cell_angle_alpha   89.99217411
_cell_angle_beta   90.01411743
_cell_angle_gamma   120.02009804
_symmetry_Int_Tables_number   1
_chemical_formula_structural   Na2Sc2Ta6Si7S5O48
_chemical_formula_sum   'Na6 Sc6 Ta18 Si21 S15 O144'
_cell_volume   3134.20446440
_cell_formula_units_Z   3
loop_
 _symmetry_equiv_pos_site_id
 _symmetry_equiv_pos_as_xyz
  1  'x, y, z'
loop_
 _atom_site_type_symbol
 _atom_site_label
 _atom_site_symmetry_multiplicity
 _atom_site_fract_x
 _atom_site_fract_y
 _atom_site_fract_z
 _atom_site_occupancy
  Na  Na0  1  0.99806942  0.00069861  0.49733791  1
  Na  Na1  1  0.49860951  0.00201685  0.99417082  1
  Na  Na2  1  0.33451290  0.32880616  0.83264794  1
  Na  Na3  1  0.82890402  0.33356051  0.83347732  1
  Na  Na4  1  0.32945375  0.32468921  0.33737532  1
  Na  Na5  1  0.83378991  0.34058306  0.33697596  1
  Sc  Sc0  1  0.99924578  0.98124994  0.35552289  1
  Sc  Sc1  1  0.49951513  0.01762639  0.85377509  1
  Sc  Sc2  1  0.99683355  0.01642717  0.64787444  1
  Sc  Sc3  1  0.49831982  0.98780124  0.15207206  1
  Sc  Sc4  1  0.83365092  0.32992499  0.97978008  1
  Sc  Sc5  1  0.33271953  0.33599332  0.47993248  1
  Ta  Ta0  1  0.50052206  0.99452340  0.35831195  1
  Ta  Ta1  1  0.00028040  0.00384487  0.85566159  1
  Ta  Ta2  1  0.49941233  0.00475801  0.64326519  1
  Ta  Ta3  1  0.99852782  0.99421770  0.14385015  1
  Ta  Ta4  1  0.32661420  0.33512047  0.68875409  1
  Ta  Ta5  1  0.83137126  0.31335322  0.68721924  1
  Ta  Ta6  1  0.32760698  0.33974437  0.19019048  1
  Ta  Ta7  1  0.82756783  0.31789006  0.19013100  1
  Ta  Ta8  1  0.32780803  0.33081111  0.97337108  1
  Ta  Ta9  1  0.83282287  0.32189314  0.47579511  1
  Ta  Ta10  1  0.17091095  0.67143285  0.02091983  1
  Ta  Ta11  1  0.67374457  0.66995903  0.01949426  1
  Ta  Ta12  1  0.16803835  0.66918971  0.52331333  1
  Ta  Ta13  1  0.67310232  0.67015425  0.52194626  1
  Ta  Ta14  1  0.16873263  0.68542739  0.31186619  1
  Ta  Ta15  1  0.67812662  0.67726647  0.31004483  1
  Ta  Ta16  1  0.17745527  0.67863666  0.80848415  1
  Ta  Ta17  1  0.66765593  0.65017991  0.80965591  1
  Si  Si0  1  0.14091266  0.99880499  0.25054312  1
  Si  Si1  1  0.64016588  0.99242842  0.25094562  1
  Si  Si2  1  0.35505757  0.71592786  0.25117980  1
  Si  Si3  1  0.85876652  0.71161299  0.24909335  1
  Si  Si4  1  0.14082006  0.28711816  0.75036588  1
  Si  Si5  1  0.64449417  0.28212958  0.74965825  1
  Si  Si6  1  0.35945566  0.00742504  0.74862779  1
  Si  Si7  1  0.85510285  0.99647984  0.75074103  1
  Si  Si8  1  0.97806866  0.33280710  0.58262182  1
  Si  Si9  1  0.68781561  0.04316290  0.58171464  1
  Si  Si10  1  0.33422960  0.62359476  0.58139781  1
  Si  Si11  1  0.83323676  0.04450813  0.08200489  1
  Si  Si12  1  0.18781000  0.33237399  0.08246496  1
  Si  Si13  1  0.31386445  0.67487771  0.91608491  1
  Si  Si14  1  0.81273226  0.66269192  0.91544133  1
  Si  Si15  1  0.52469556  0.38087545  0.91764774  1
  Si  Si16  1  0.16313857  0.94690297  0.91632594  1
  Si  Si17  1  0.31118296  0.96048149  0.41804558  1
  Si  Si18  1  0.81412081  0.95514020  0.41656647  1
  Si  Si19  1  0.66613612  0.38012464  0.41702446  1
  Si  Si20  1  0.02388166  0.66756711  0.41775949  1
  S  S0  1  0.00089164  0.28827068  0.24964339  1
  S  S1  1  0.50053553  0.28965042  0.25047261  1
  S  S2  1  0.00026500  0.71148829  0.75036430  1
  S  S3  1  0.50042883  0.71239045  0.74955928  1
  S  S4  1  0.47755619  0.33502873  0.58348022  1
  S  S5  1  0.18812904  0.04351445  0.58300262  1
  S  S6  1  0.83429695  0.61885617  0.58262528  1
  S  S7  1  0.47740368  0.61922441  0.08215453  1
  S  S8  1  0.97752222  0.62052362  0.08362860  1
  S  S9  1  0.33418708  0.04796993  0.08245971  1
  S  S10  1  0.68789721  0.33228313  0.08304181  1
  S  S11  1  0.02423159  0.38179910  0.91570630  1
  S  S12  1  0.66659753  0.95215761  0.91639406  1
  S  S13  1  0.16641680  0.38165679  0.41664245  1
  S  S14  1  0.52443129  0.66551588  0.41609561  1
  O  O0  1  0.10747520  0.04872244  0.30687580  1
  O  O1  1  0.59780258  0.03298569  0.30770810  1
  O  O2  1  0.41958644  0.80650111  0.30714304  1
  O  O3  1  0.91360452  0.78794669  0.30663319  1
  O  O4  1  0.48293360  0.17783044  0.30232492  1
  O  O5  1  0.98066619  0.18280449  0.30127161  1
  O  O6  1  0.09880616  0.16493777  0.80839780  1
  O  O7  1  0.60688759  0.16777360  0.80705001  1
  O  O8  1  0.48090400  0.77865958  0.80178772  1
  O  O9  1  0.98525292  0.79363899  0.80326552  1
  O  O10  1  0.41247999  0.03811658  0.80740509  1
  O  O11  1  0.91883466  0.03107751  0.80759426  1
  O  O12  1  0.40296764  0.97174565  0.69172542  1
  O  O13  1  0.89374599  0.95906010  0.69406912  1
  O  O14  1  0.08830071  0.20482549  0.69260574  1
  O  O15  1  0.58246512  0.19077959  0.69268584  1
  O  O16  1  0.01628762  0.81513673  0.69826824  1
  O  O17  1  0.51359145  0.81824659  0.69691733  1
  O  O18  1  0.39477721  0.82636360  0.19297590  1
  O  O19  1  0.90301203  0.83363906  0.19165419  1
  O  O20  1  0.01310928  0.20734409  0.19646217  1
  O  O21  1  0.51550031  0.21595337  0.19764580  1
  O  O22  1  0.08272680  0.97414635  0.19209127  1
  O  O23  1  0.58812380  0.97120375  0.19210131  1
  O  O24  1  0.43662202  0.36094235  0.63581354  1
  O  O25  1  0.93097262  0.36691019  0.63978579  1
  O  O26  1  0.24503161  0.12861880  0.63627611  1
  O  O27  1  0.75079902  0.13505419  0.63958732  1
  O  O28  1  0.32062319  0.49669975  0.63915306  1
  O  O29  1  0.81747501  0.51209267  0.63542776  1
  O  O30  1  0.43730387  0.51069600  0.13526029  1
  O  O31  1  0.93683787  0.51224747  0.13571071  1
  O  O32  1  0.32034045  0.12727050  0.13507502  1
  O  O33  1  0.81978880  0.14360108  0.13925829  1
  O  O34  1  0.25306861  0.36581103  0.13929472  1
  O  O35  1  0.74370896  0.36204528  0.13597015  1
  O  O36  1  0.23907185  0.30620226  0.02794354  1
  O  O37  1  0.72842199  0.30687067  0.03131823  1
  O  O38  1  0.42105462  0.53280200  0.03079428  1
  O  O39  1  0.92443396  0.54784805  0.03122858  1
  O  O40  1  0.34609051  0.15502596  0.03017988  1
  O  O41  1  0.84903626  0.16563325  0.02669321  1
  O  O42  1  0.22906909  0.15168068  0.53158122  1
  O  O43  1  0.73520912  0.16943048  0.52668524  1
  O  O44  1  0.35062639  0.53221903  0.52682545  1
  O  O45  1  0.84480460  0.53752391  0.52992403  1
  O  O46  1  0.42442137  0.30112521  0.53122222  1
  O  O47  1  0.91389632  0.30971776  0.52717703  1
  O  O48  1  0.25987383  0.69040518  0.97362946  1
  O  O49  1  0.76531260  0.69619301  0.97331677  1
  O  O50  1  0.07767328  0.46195785  0.96981079  1
  O  O51  1  0.58497678  0.48422251  0.97511336  1
  O  O52  1  0.15113974  0.82904984  0.97466993  1
  O  O53  1  0.65569939  0.84313903  0.97060152  1
  O  O54  1  0.26475900  0.83321690  0.47370683  1
  O  O55  1  0.76009603  0.82919886  0.47343710  1
  O  O56  1  0.15534043  0.46547028  0.46999579  1
  O  O57  1  0.65027536  0.47332097  0.47421865  1
  O  O58  1  0.08620207  0.68962045  0.47361239  1
  O  O59  1  0.57721068  0.69385868  0.46947340  1
  O  O60  1  0.06824057  0.63090951  0.35988471  1
  O  O61  1  0.56410953  0.63981729  0.36378135  1
  O  O62  1  0.24925513  0.86016372  0.36007544  1
  O  O63  1  0.74934446  0.86179356  0.36012011  1
  O  O64  1  0.18031078  0.48959587  0.36387392  1
  O  O65  1  0.67786046  0.50193199  0.36025311  1
  O  O66  1  0.06410337  0.48926082  0.86427120  1
  O  O67  1  0.56754091  0.50623058  0.86068831  1
  O  O68  1  0.17929240  0.85544963  0.86025902  1
  O  O69  1  0.68029293  0.87193512  0.86461535  1
  O  O70  1  0.24882694  0.63489841  0.86036171  1
  O  O71  1  0.74799527  0.63788379  0.86032732  1
  O  O72  1  0.01600793  0.83848246  0.41444187  1
  O  O73  1  0.51621280  0.82496010  0.40957576  1
  O  O74  1  0.40532653  0.97357597  0.40347243  1
  O  O75  1  0.90873103  0.98177371  0.41275106  1
  O  O76  1  0.08890776  0.21110678  0.41195548  1
  O  O77  1  0.58095882  0.19000460  0.40469271  1
  O  O78  1  0.01649747  0.20768022  0.90979776  1
  O  O79  1  0.51538640  0.19322428  0.91534857  1
  O  O80  1  0.08082874  0.97395646  0.90565760  1
  O  O81  1  0.58848723  0.96595957  0.91351459  1
  O  O82  1  0.40923071  0.83533210  0.91350051  1
  O  O83  1  0.90605822  0.83849617  0.90438185  1
  O  O84  1  0.48854859  0.18024349  0.59207509  1
  O  O85  1  0.98678199  0.16208835  0.58587087  1
  O  O86  1  0.10161413  0.01926572  0.59101059  1
  O  O87  1  0.59368925  0.02159791  0.59584482  1
  O  O88  1  0.41821537  0.81195981  0.59688593  1
  O  O89  1  0.90993291  0.79249737  0.58830713  1
  O  O90  1  0.48553257  0.79240226  0.08749920  1
  O  O91  1  0.98867678  0.79726560  0.09215397  1
  O  O92  1  0.41038669  0.02581192  0.08791860  1
  O  O93  1  0.91677639  0.02177102  0.09647555  1
  O  O94  1  0.09415683  0.16546405  0.09545470  1
  O  O95  1  0.60040841  0.18186430  0.09048789  1
  O  O96  1  0.34492254  0.17401057  0.73573051  1
  O  O97  1  0.84715385  0.17548556  0.74398117  1
  O  O98  1  0.24145223  0.31358916  0.74261623  1
  O  O99  1  0.74486406  0.32385589  0.73720639  1
  O  O100  1  0.42225529  0.53001284  0.73941484  1
  O  O101  1  0.92098143  0.53665760  0.74482422  1
  O  O102  1  0.34850241  0.52031221  0.24169575  1
  O  O103  1  0.84463841  0.51649843  0.23485072  1
  O  O104  1  0.42103479  0.30808723  0.24145178  1
  O  O105  1  0.92208808  0.31378933  0.23884947  1
  O  O106  1  0.24295688  0.16493116  0.23658054  1
  O  O107  1  0.74030558  0.16800483  0.24185544  1
  O  O108  1  0.31794815  0.49368396  0.92626702  1
  O  O109  1  0.82190812  0.49350150  0.92327741  1
  O  O110  1  0.42776108  0.36185577  0.92948359  1
  O  O111  1  0.93681775  0.36022850  0.92283679  1
  O  O112  1  0.25104803  0.13923587  0.92615000  1
  O  O113  1  0.74518362  0.12555304  0.92359949  1
  O  O114  1  0.32277226  0.15129784  0.42240818  1
  O  O115  1  0.81620113  0.14097114  0.42352523  1
  O  O116  1  0.24559378  0.36520593  0.42246599  1
  O  O117  1  0.75193013  0.36323119  0.42597239  1
  O  O118  1  0.43650927  0.51343852  0.42206587  1
  O  O119  1  0.92683250  0.49445298  0.42622477  1
  O  O120  1  0.17681299  0.50280960  0.07119675  1
  O  O121  1  0.68127243  0.49349057  0.07618495  1
  O  O122  1  0.06521980  0.63997782  0.07536371  1
  O  O123  1  0.56433933  0.63826895  0.07451155  1
  O  O124  1  0.25369440  0.87185223  0.07483796  1
  O  O125  1  0.74576321  0.85314774  0.07297911  1
  O  O126  1  0.18358593  0.87263921  0.57734978  1
  O  O127  1  0.67585074  0.84944108  0.57073799  1
  O  O128  1  0.24850694  0.64194845  0.57290107  1
  O  O129  1  0.75345888  0.63668780  0.57484059  1
  O  O130  1  0.07268398  0.50594713  0.57136785  1
  O  O131  1  0.56502695  0.49041063  0.57564830  1
  O  O132  1  0.15386890  0.82925873  0.25790198  1
  O  O133  1  0.65222625  0.82591221  0.26331207  1
  O  O134  1  0.25688182  0.67448181  0.26413302  1
  O  O135  1  0.76040400  0.68542771  0.25751796  1
  O  O136  1  0.07738219  0.46273515  0.25596195  1
  O  O137  1  0.57533611  0.46454736  0.26045565  1
  O  O138  1  0.15289236  0.47806595  0.76395778  1
  O  O139  1  0.65300889  0.47587933  0.75810584  1
  O  O140  1  0.07599113  0.68753617  0.76205480  1
  O  O141  1  0.57740709  0.69172819  0.75693538  1
  O  O142  1  0.26096175  0.83600883  0.75769035  1
  O  O143  1  0.75705555  0.83827741  0.76529215  1
loop_
_geom_bond_atom_site_label_1
_geom_bond_atom_site_label_2
_geom_bond_distance
_geom_bond_site_symmetry_2
Na0 O75 2.459095 1_545
Na0 O72 2.502356 1_645
Na0 O85 2.552936 1_555
Na0 O76 2.631047 1_655
Na0 O89 2.708735 1_545
Na0 O86 2.779603 1_655
Na1 O79 2.396564 1_555
Na1 O82 2.406155 1_545
Na1 O81 2.567123 1_545
Na1 O92 2.731998 1_556
Na1 O90 2.771518 1_546
Na1 O95 2.796357 1_556
Na2 O98 2.606829 1_555
Na2 O96 2.670951 1_555
Na2 O112 2.673058 1_555
Na2 O110 2.698580 1_555
Na2 O108 2.699223 1_555
Na2 O100 2.723823 1_555
Na3 O109 2.542505 1_555
Na3 O97 2.599409 1_555
Na3 O99 2.643766 1_555
Na3 O101 2.668449 1_555
Na3 O113 2.675534 1_555
Na3 O111 2.734777 1_555
Na4 O114 2.452812 1_555
Na4 O116 2.588490 1_555
Na4 O118 2.648559 1_555
Na4 O102 2.715431 1_555
Na4 O106 2.747331 1_555
Na4 O104 2.785222 1_555
Na5 O119 2.556617 1_555
Na5 O117 2.573319 1_555
Na5 O115 2.576343 1_555
Na5 O107 2.707128 1_555
Na5 O103 2.770879 1_555
Na5 O105 2.822277 1_555
O0 Si0 1.576762 1_545
O0 Sc0 2.035917 1_445
O1 Si1 1.632744 1_545
O1 Ta0 1.964182 1_545
O2 Si2 1.639528 1_555
O2 Ta0 1.957667 1_555
O3 Si3 1.578708 1_555
O3 Sc0 1.976610 1_555
O4 S1 1.480403 1_555
O4 Ta0 2.215715 1_545
O5 S0 1.440742 1_655
O5 Sc0 2.335787 1_545
O6 Si4 1.643274 1_555
O6 Ta1 1.944128 1_555
O7 Si5 1.592535 1_555
O7 Sc1 2.004598 1_555
O8 S3 1.452490 1_555
O8 Sc1 2.310623 1_565
O9 S2 1.508099 1_655
O9 Ta1 2.123084 1_665
O10 Si6 1.588908 1_555
O10 Sc1 1.957770 1_555
O11 Si7 1.652233 1_545
O11 Ta1 1.927386 1_655
O12 Si6 1.627831 1_565
O12 Ta2 1.937066 1_565
O13 Si7 1.582173 1_555
O13 Sc2 1.949245 1_565
O14 Si4 1.574964 1_555
O14 Sc2 1.942150 1_455
O15 Si5 1.639460 1_555
O15 Ta2 1.937369 1_555
O16 S2 1.448389 1_555
O16 Sc2 2.296107 1_465
O17 S3 1.476593 1_555
O17 Ta2 2.177711 1_565
O18 Si2 1.598154 1_555
O18 Sc3 1.918005 1_555
O19 Si3 1.637067 1_555
O19 Ta3 1.921968 1_555
O20 S0 1.487187 1_555
O20 Ta3 2.149631 1_445
O21 S1 1.464662 1_555
O21 Sc3 2.162732 1_545
O22 Si0 1.639880 1_555
O22 Ta3 1.938361 1_455
O23 Si1 1.593721 1_555
O23 Sc3 1.908041 1_555
O24 S4 1.480855 1_555
O24 Ta4 2.212365 1_555
O25 Si8 1.663626 1_555
O25 Ta5 1.922571 1_555
O26 S5 1.524396 1_555
O26 Ta4 2.062865 1_555
O27 Si9 1.663915 1_555
O27 Ta5 1.866274 1_555
O28 Si10 1.677946 1_555
O28 Ta4 1.876403 1_555
O29 S6 1.474978 1_555
O29 Ta5 2.242003 1_555
O30 S7 1.495605 1_555
O30 Ta6 2.174711 1_555
O31 S8 1.477233 1_555
O31 Ta7 2.225575 1_555
O32 S9 1.479936 1_555
O32 Ta6 2.222081 1_555
O33 Si11 1.664694 1_555
O33 Ta7 1.888716 1_555
O34 Si12 1.669683 1_555
O34 Ta6 1.864118 1_555
O35 S10 1.505264 1_555
O35 Ta7 2.120914 1_555
O36 Si12 1.631430 1_555
O36 Ta8 1.937649 1_554
O37 S10 1.463574 1_555
O37 Sc4 2.132614 1_554
O38 S7 1.487290 1_555
O38 Ta8 2.173728 1_554
O39 S8 1.464085 1_555
O39 Sc4 2.148851 1_554
O40 S9 1.479614 1_555
O40 Ta8 2.179771 1_554
O41 Si11 1.596159 1_555
O41 Sc4 1.939829 1_554
O42 S5 1.465328 1_555
O42 Sc5 2.111319 1_555
O43 Si9 1.618238 1_555
O43 Ta9 1.963068 1_555
O44 Si10 1.597165 1_555
O44 Sc5 1.935145 1_555
O45 S6 1.468573 1_555
O45 Ta9 2.202722 1_555
O46 S4 1.461337 1_555
O46 Sc5 2.152802 1_555
O47 Si8 1.651017 1_555
O47 Ta9 1.904908 1_555
O48 Si13 1.678194 1_555
O48 Ta10 1.853281 1_556
O49 Si14 1.677644 1_555
O49 Ta11 1.855020 1_556
O50 S11 1.508067 1_555
O50 Ta10 2.120467 1_556
O51 Si15 1.657029 1_555
O51 Ta11 1.908193 1_556
O52 Si16 1.647207 1_555
O52 Ta10 1.924108 1_556
O53 S12 1.528835 1_555
O53 Ta11 2.054691 1_556
O54 Si17 1.630607 1_555
O54 Ta12 1.965889 1_555
O55 Si18 1.674350 1_555
O55 Ta13 1.854223 1_555
O56 S13 1.497005 1_555
O56 Ta12 2.101650 1_555
O57 Si19 1.650276 1_555
O57 Ta13 1.927148 1_555
O58 Si20 1.639909 1_555
O58 Ta12 1.925469 1_555
O59 S14 1.485564 1_555
O59 Ta13 2.179308 1_555
O60 Si20 1.658117 1_555
O60 Ta14 1.940956 1_555
O61 S14 1.467185 1_555
O61 Ta15 2.248293 1_555
O62 Si17 1.671487 1_555
O62 Ta14 1.859311 1_555
O63 Si18 1.653829 1_555
O63 Ta15 1.879697 1_555
O64 S13 1.487264 1_555
O64 Ta14 2.202581 1_555
O65 Si19 1.639604 1_555
O65 Ta15 1.935766 1_555
O66 S11 1.459934 1_555
O66 Ta16 2.265383 1_555
O67 Si15 1.637694 1_555
O67 Ta17 1.972880 1_555
O68 Si16 1.622802 1_555
O68 Ta16 1.957214 1_555
O69 S12 1.467833 1_555
O69 Ta17 2.254267 1_555
O70 Si13 1.638619 1_555
O70 Ta16 1.914640 1_555
O71 Si14 1.648145 1_555
O71 Ta17 1.885071 1_555
O72 Si20 1.594434 1_555
O72 Sc0 1.975926 1_455
O73 S14 1.501997 1_555
O73 Ta0 2.037388 1_555
O74 Si17 1.649904 1_555
O74 Ta0 1.910535 1_555
O75 Si18 1.576337 1_555
O75 Sc0 2.077434 1_555
O76 S13 1.453717 1_555
O76 Sc0 2.264697 1_445
O77 Si19 1.631687 1_555
O77 Ta0 1.925268 1_545
O78 S11 1.488896 1_555
O78 Ta1 2.094207 1_555
O79 Si15 1.591455 1_555
O79 Sc1 2.018061 1_555
O80 Si16 1.613089 1_555
O80 Ta1 1.952080 1_565
O81 S12 1.452769 1_555
O81 Sc1 2.304189 1_565
O82 Si13 1.576460 1_555
O82 Sc1 2.115354 1_565
O83 Si14 1.630332 1_555
O83 Ta1 1.935934 1_665
O84 S4 1.495147 1_555
O84 Ta2 2.036890 1_555
O85 Si8 1.601071 1_555
O85 Sc2 1.990914 1_555
O86 S5 1.451315 1_555
O86 Sc2 2.262180 1_455
O87 Si9 1.616136 1_555
O87 Ta2 1.938452 1_555
O88 Si10 1.628434 1_555
O88 Ta2 1.916766 1_565
O89 S6 1.458031 1_555
O89 Sc2 2.266331 1_565
O90 S7 1.476486 1_555
O90 Sc3 2.206691 1_555
O91 S8 1.493707 1_555
O91 Ta3 2.048162 1_555
O92 S9 1.465935 1_555
O92 Sc3 2.290273 1_545
O93 Si11 1.627283 1_555
O93 Ta3 1.924187 1_545
O94 Si12 1.607348 1_555
O94 Ta3 1.961194 1_445
O95 S10 1.465981 1_555
O95 Sc3 2.264818 1_545
O96 Si6 1.650849 1_555
O96 Ta4 1.944717 1_555
O97 Si7 1.672236 1_545
O97 Ta5 1.902616 1_555
O98 Si4 1.689892 1_555
O98 Ta4 1.887355 1_555
O99 Si5 1.652576 1_555
O99 Ta5 1.956328 1_555
O100 S3 1.534330 1_555
O100 Ta4 2.071359 1_555
O101 S2 1.490264 1_655
O101 Ta5 2.248696 1_555
O102 Si2 1.696406 1_555
O102 Ta6 1.874641 1_555
O103 Si3 1.654910 1_555
O103 Ta7 1.929831 1_555
O104 S1 1.513576 1_555
O104 Ta6 2.163088 1_555
O105 S0 1.544410 1_655
O105 Ta7 2.031394 1_555
O106 Si0 1.698716 1_545
O106 Ta6 1.862508 1_555
O107 Si1 1.691300 1_545
O107 Ta7 1.875897 1_555
O108 Si13 1.663353 1_555
O108 Ta8 1.883225 1_555
O109 Si14 1.600643 1_555
O109 Sc4 2.034848 1_555
O110 Si15 1.664510 1_555
O110 Ta8 1.936291 1_555
O111 S11 1.473882 1_655
O111 Sc4 2.154558 1_555
O112 Si16 1.654142 1_545
O112 Ta8 1.899351 1_555
O113 S12 1.481550 1_545
O113 Sc4 2.138367 1_555
O114 Si17 1.605068 1_545
O114 Sc5 2.044141 1_555
O115 Si18 1.640275 1_545
O115 Ta9 1.906979 1_555
O116 S13 1.489480 1_555
O116 Sc5 2.144685 1_555
O117 Si19 1.615821 1_555
O117 Ta9 2.007736 1_555
O118 S14 1.472711 1_555
O118 Sc5 2.176781 1_555
O119 Si20 1.648736 1_655
O119 Ta9 1.967275 1_555
O120 Si12 1.640818 1_555
O120 Ta10 1.934923 1_555
O121 S10 1.502429 1_555
O121 Ta11 2.092533 1_555
O122 S8 1.489518 1_455
O122 Ta10 2.153050 1_555
O123 S7 1.475888 1_555
O123 Ta11 2.213374 1_555
O124 S9 1.510666 1_565
O124 Ta10 2.059946 1_555
O125 Si11 1.643588 1_565
O125 Ta11 1.925788 1_555
O126 S5 1.484783 1_565
O126 Ta12 2.093655 1_555
O127 Si9 1.644372 1_565
O127 Ta13 1.927889 1_555
O128 Si10 1.620646 1_555
O128 Ta12 1.933712 1_555
O129 S6 1.530338 1_555
O129 Ta13 2.005106 1_555
O130 Si8 1.633169 1_455
O130 Ta12 1.931063 1_555
O131 S4 1.484223 1_555
O131 Ta13 2.164456 1_555
O132 Si0 1.641855 1_555
O132 Ta14 1.890570 1_555
O133 Si1 1.621918 1_555
O133 Ta15 1.926894 1_555
O134 Si2 1.617867 1_555
O134 Ta14 1.952166 1_555
O135 Si3 1.652879 1_555
O135 Ta15 1.867364 1_555
O136 S0 1.469726 1_555
O136 Ta14 2.231581 1_555
O137 S1 1.471188 1_555
O137 Ta15 2.178327 1_555
O138 Si4 1.629875 1_555
O138 Ta16 1.905996 1_555
O139 Si5 1.661929 1_555
O139 Ta17 1.861124 1_555
O140 S2 1.486229 1_555
O140 Ta16 2.127527 1_555
O141 S3 1.476136 1_555
O141 Ta17 2.181086 1_555
O142 Si6 1.659397 1_565
O142 Ta16 1.854270 1_555
O143 Si7 1.633143 1_555
O143 Ta17 1.922069 1_555
