# generated using pymatgen
data_Rb4MgV2(CuS4)2
_symmetry_space_group_name_H-M   'P 1'
_cell_length_a   5.61508310
_cell_length_b   7.53669008
_cell_length_c   12.48609630
_cell_angle_alpha   87.40385835
_cell_angle_beta   76.25313342
_cell_angle_gamma   66.75648264
_symmetry_Int_Tables_number   1
_chemical_formula_structural   Rb4MgV2(CuS4)2
_chemical_formula_sum   'Rb4 Mg1 V2 Cu2 S8'
_cell_volume   470.90981392
_cell_formula_units_Z   1
loop_
 _symmetry_equiv_pos_site_id
 _symmetry_equiv_pos_as_xyz
  1  'x, y, z'
loop_
 _atom_site_type_symbol
 _atom_site_label
 _atom_site_symmetry_multiplicity
 _atom_site_fract_x
 _atom_site_fract_y
 _atom_site_fract_z
 _atom_site_occupancy
  Rb  Rb0  1  0.03686600  0.24672100  0.90555900  1
  Rb  Rb1  1  0.68711200  0.19472800  0.62049200  1
  Rb  Rb2  1  0.29122800  0.78805200  0.35494600  1
  Rb  Rb3  1  0.93787700  0.75780300  0.09658100  1
  Mg  Mg0  1  0.75039300  0.65296700  0.53048300  1
  V  V0  1  0.83613400  0.26461900  0.25538200  1
  V  V1  1  0.13912800  0.72872700  0.75114000  1
  Cu  Cu0  1  0.63462800  0.72893200  0.76213300  1
  Cu  Cu1  1  0.34564000  0.25889500  0.25771400  1
  S  S0  1  0.41096900  0.54804400  0.85150700  1
  S  S1  1  0.34987700  0.89767500  0.63498200  1
  S  S2  1  0.06283400  0.52914600  0.64286000  1
  S  S3  1  0.75019100  0.92914900  0.85185300  1
  S  S4  1  0.22696800  0.08156200  0.15026100  1
  S  S5  1  0.65744300  0.07567200  0.35610800  1
  S  S6  1  0.91372100  0.46790500  0.35981700  1
  S  S7  1  0.56423000  0.43868700  0.15463900  1
loop_
_geom_bond_atom_site_label_1
_geom_bond_atom_site_label_2
_geom_bond_distance
_geom_bond_site_symmetry_2
Rb0 S4 3.490119 1_556
Rb0 S7 3.501864 1_456
Rb0 S3 3.531103 1_445
Rb0 S0 3.557143 1_455
Rb0 S0 3.602503 1_555
Rb0 S3 3.677449 1_545
Rb0 S2 3.833550 1_555
Rb1 S2 3.367982 1_555
Rb1 S1 3.431795 1_545
Rb1 S3 3.446717 1_545
Rb1 S5 3.518237 1_555
Rb1 S1 3.549883 1_645
Rb1 S0 3.623043 1_555
Rb2 S4 3.294142 1_565
Rb2 S7 3.335686 1_555
Rb2 S5 3.354614 1_465
Rb2 S6 3.387353 1_555
Rb2 S5 3.530280 1_565
Rb3 S0 3.489976 1_654
Rb3 S3 3.494918 1_554
Rb3 S4 3.581857 1_665
Rb3 S7 3.613425 1_655
Rb3 S4 3.677840 1_565
Rb3 S7 3.716675 1_555
Rb3 S5 3.744361 1_565
Rb3 S6 3.868658 1_555
Mg0 S6 2.378702 1_555
Mg0 S2 2.382576 1_655
Mg0 S1 2.389826 1_555
Cu0 S3 2.285715 1_555
Cu0 S0 2.286598 1_555
Cu0 S2 2.431072 1_655
Cu0 S1 2.472445 1_555
Cu1 S4 2.306644 1_555
Cu1 S7 2.324431 1_555
Cu1 S5 2.332786 1_555
Cu1 S6 2.384468 1_455
S0 V1 2.206519 1_555
S1 V1 2.309006 1_555
S2 V1 2.289557 1_555
S3 V1 2.212607 1_655
S4 V0 2.201741 1_455
S5 V0 2.232066 1_555
S6 V0 2.283708 1_555
S7 V0 2.194702 1_555
