# generated using pymatgen
data_Li15Bi4(PdO10)2
_symmetry_space_group_name_H-M   'P 1'
_cell_length_a   5.40338500
_cell_length_b   8.12177730
_cell_length_c   11.21643251
_cell_angle_alpha   92.62260832
_cell_angle_beta   103.54695293
_cell_angle_gamma   104.35544543
_symmetry_Int_Tables_number   1
_chemical_formula_structural   Li15Bi4(PdO10)2
_chemical_formula_sum   'Li15 Bi4 Pd2 O20'
_cell_volume   460.77150647
_cell_formula_units_Z   1
loop_
 _symmetry_equiv_pos_site_id
 _symmetry_equiv_pos_as_xyz
  1  'x, y, z'
loop_
 _atom_site_type_symbol
 _atom_site_label
 _atom_site_symmetry_multiplicity
 _atom_site_fract_x
 _atom_site_fract_y
 _atom_site_fract_z
 _atom_site_occupancy
  Li  Li0  1  0.51283400  0.95932300  0.39268300  1
  Li  Li1  1  0.46520200  0.87388400  0.08871000  1
  Li  Li2  1  0.02085000  0.81437200  0.45945500  1
  Li  Li3  1  0.01810600  0.72605700  0.19928200  1
  Li  Li4  1  0.48259700  0.04064900  0.61856600  1
  Li  Li5  1  0.52611700  0.11642700  0.89946000  1
  Li  Li6  1  0.97259700  0.18891900  0.54347500  1
  Li  Li7  1  0.98330800  0.26938900  0.79599900  1
  Li  Li8  1  0.52088600  0.22696100  0.19838900  1
  Li  Li9  1  0.99115400  0.55087600  0.61666200  1
  Li  Li10  1  0.53276100  0.30950200  0.46324300  1
  Li  Li11  1  0.04865000  0.62764700  0.90005100  1
  Li  Li12  1  0.96776900  0.37538500  0.09085800  1
  Li  Li13  1  0.45865800  0.69709800  0.54448800  1
  Li  Li14  1  0.01373600  0.45965400  0.39110200  1
  Bi  Bi0  1  0.50313400  0.59201600  0.28052400  1
  Bi  Bi1  1  0.99832000  0.90322100  0.72044900  1
  Bi  Bi2  1  0.50067400  0.41205900  0.72150800  1
  Bi  Bi3  1  0.00151000  0.09328400  0.27950500  1
  Pd  Pd0  1  0.49894700  0.49424200  0.00136800  1
  Pd  Pd1  1  0.99796500  0.00512500  0.99956700  1
  O  O0  1  0.21780100  0.89945300  0.91375300  1
  O  O1  1  0.21414400  0.98090700  0.16446100  1
  O  O2  1  0.25107000  0.06663500  0.44330800  1
  O  O3  1  0.74217500  0.93482800  0.55744700  1
  O  O4  1  0.80243900  0.03512800  0.83534600  1
  O  O5  1  0.75168700  0.56149500  0.44309300  1
  O  O6  1  0.25461800  0.16015500  0.73484800  1
  O  O7  1  0.77097100  0.10686100  0.09139100  1
  O  O8  1  0.26879800  0.49494200  0.83782800  1
  O  O9  1  0.75866200  0.19996600  0.35955300  1
  O  O10  1  0.73251900  0.29400700  0.64023900  1
  O  O11  1  0.72363400  0.48366300  0.16709800  1
  O  O12  1  0.72399700  0.39417500  0.91186100  1
  O  O13  1  0.79990200  0.64448500  0.73352000  1
  O  O14  1  0.24952100  0.33524500  0.25511300  1
  O  O15  1  0.27723600  0.60375600  0.09060300  1
  O  O16  1  0.24780600  0.44069300  0.55776100  1
  O  O17  1  0.25843500  0.70024200  0.35817700  1
  O  O18  1  0.23086000  0.80650500  0.62914000  1
  O  O19  1  0.75149200  0.83563800  0.25826600  1
loop_
_geom_bond_atom_site_label_1
_geom_bond_atom_site_label_2
_geom_bond_distance
_geom_bond_site_symmetry_2
Li0 O2 2.006210 1_565
Li0 O3 2.018310 1_555
Li0 O17 2.170010 1_555
Li0 O9 2.175481 1_565
Li0 O19 2.521860 1_555
Li1 O1 2.091607 1_555
Li1 O0 2.151073 1_554
Li1 O7 2.175384 1_565
Li1 O15 2.180531 1_555
Li1 O19 2.240638 1_555
Li2 O18 1.987321 1_555
Li2 O2 2.157226 1_565
Li2 O5 2.174014 1_455
Li2 O17 2.230386 1_555
Li2 O3 2.416612 1_455
Li2 O19 2.421185 1_455
Li3 O17 1.997901 1_555
Li3 O19 2.081724 1_455
Li3 O11 2.156455 1_455
Li3 O1 2.177017 1_555
Li3 O15 2.410716 1_555
Li4 O3 2.042110 1_545
Li4 O18 2.072238 1_545
Li4 O2 2.119115 1_555
Li4 O10 2.130597 1_555
Li4 O6 2.321723 1_555
Li4 O4 2.642105 1_555
Li5 O4 2.032445 1_555
Li5 O0 2.145158 1_545
Li5 O6 2.176399 1_555
Li5 O12 2.226395 1_555
Li5 O7 2.263376 1_556
Li6 O9 2.133366 1_555
Li6 O3 2.163419 1_545
Li6 O10 2.170970 1_555
Li6 O16 2.183796 1_655
Li6 O6 2.382081 1_655
Li6 O2 2.437969 1_655
Li7 O10 1.996435 1_555
Li7 O4 2.031431 1_555
Li7 O8 2.033862 1_655
Li7 O6 2.113522 1_655
Li7 O12 2.473041 1_555
Li8 O9 2.013551 1_555
Li8 O14 2.086517 1_555
Li8 O11 2.187367 1_555
Li8 O1 2.208618 1_545
Li8 O7 2.350330 1_555
Li9 O16 2.037394 1_655
Li9 O13 2.072903 1_555
Li9 O5 2.088633 1_555
Li9 O18 2.136042 1_655
Li9 O10 2.270070 1_555
Li10 O10 2.051459 1_555
Li10 O2 2.137513 1_555
Li10 O5 2.146202 1_555
Li10 O9 2.177815 1_555
Li10 O16 2.470798 1_555
Li10 O14 2.522958 1_555
Li11 O8 2.004898 1_555
Li11 O13 2.062183 1_455
Li11 O0 2.152881 1_555
Li11 O15 2.247528 1_556
Li11 O12 2.274389 1_455
Li12 O11 2.068746 1_555
Li12 O12 2.162862 1_554
Li12 O15 2.168210 1_655
Li12 O7 2.177448 1_555
Li12 O14 2.192113 1_655
Li13 O18 2.053982 1_555
Li13 O17 2.120745 1_555
Li13 O3 2.121136 1_555
Li13 O16 2.142007 1_555
Li13 O5 2.570419 1_555
Li13 O13 2.592308 1_555
Li14 O5 1.988110 1_455
Li14 O16 2.032983 1_555
Li14 O17 2.171725 1_555
Li14 O9 2.176003 1_455
Li14 O14 2.525551 1_555
Bi0 O5 2.061378 1_555
Bi0 O17 2.079717 1_555
Bi0 O14 2.157244 1_555
Bi0 O19 2.159567 1_555
Bi0 O15 2.212475 1_555
Bi0 O11 2.222645 1_555
Bi1 O18 2.064800 1_655
Bi1 O3 2.087541 1_555
Bi1 O13 2.138099 1_555
Bi1 O6 2.174830 1_665
Bi1 O0 2.219874 1_655
Bi1 O4 2.236909 1_565
Bi2 O16 2.077325 1_555
Bi2 O10 2.090498 1_555
Bi2 O13 2.134711 1_555
Bi2 O6 2.179031 1_555
Bi2 O8 2.197461 1_555
Bi2 O12 2.223530 1_555
Bi3 O2 2.064284 1_555
Bi3 O9 2.079251 1_455
Bi3 O14 2.155836 1_555
Bi3 O19 2.159249 1_445
Bi3 O7 2.207697 1_455
Bi3 O1 2.219225 1_545
O0 Pd1 2.009881 1_465
O1 Pd1 1.989717 1_464
O4 Pd1 1.955885 1_555
O7 Pd1 2.065037 1_554
O8 Pd0 1.961402 1_556
O11 Pd0 1.986431 1_555
O12 Pd0 2.033348 1_556
O15 Pd0 2.058336 1_555
