# generated using pymatgen
data_H5BrO2
_symmetry_space_group_name_H-M   'P 1'
_cell_length_a   4.11857181
_cell_length_b   6.95309120
_cell_length_c   12.24217600
_cell_angle_alpha   89.96580460
_cell_angle_beta   89.95984246
_cell_angle_gamma   101.62242033
_symmetry_Int_Tables_number   1
_chemical_formula_structural   H5BrO2
_chemical_formula_sum   'H20 Br4 O8'
_cell_volume   343.38857453
_cell_formula_units_Z   4
loop_
 _symmetry_equiv_pos_site_id
 _symmetry_equiv_pos_as_xyz
  1  'x, y, z'
loop_
 _atom_site_type_symbol
 _atom_site_label
 _atom_site_symmetry_multiplicity
 _atom_site_fract_x
 _atom_site_fract_y
 _atom_site_fract_z
 _atom_site_occupancy
  H  H0  1  0.25278290  0.41200291  0.68891762  1
  H  H1  1  0.52105473  0.32793272  0.59608355  1
  H  H2  1  0.56706583  0.56981965  0.64487281  1
  H  H3  1  0.44665208  0.93781794  0.14685308  1
  H  H4  1  0.47725116  0.17271303  0.09816571  1
  H  H5  1  0.76488660  0.09959725  0.18596525  1
  H  H6  1  0.44199347  0.43562856  0.35906607  1
  H  H7  1  0.76072197  0.59831977  0.32051354  1
  H  H8  1  0.56842067  0.06577858  0.86409231  1
  H  H9  1  0.25570400  0.90832460  0.82019760  1
  H  H10  1  0.72398832  0.09349002  0.60529119  1
  H  H11  1  0.76512051  0.19894790  0.48909068  1
  H  H12  1  0.27132557  0.41512277  0.10323479  1
  H  H13  1  0.22853759  0.30582567  0.98838750  1
  H  H14  1  0.47208752  0.67017229  0.40856026  1
  H  H15  1  0.22485126  0.80305462  0.51923313  1
  H  H16  1  0.26616327  0.91241700  0.40431411  1
  H  H17  1  0.73104803  0.59113941  0.90224337  1
  H  H18  1  0.77381449  0.69736384  0.01854092  1
  H  H19  1  0.52770664  0.82242465  0.91271362  1
  Br  Br0  1  0.93522776  0.33488559  0.83284879  1
  Br  Br1  1  0.06432452  0.17453398  0.33601951  1
  Br  Br2  1  0.06748623  0.67661215  0.17130590  1
  Br  Br3  1  0.93334242  0.83599233  0.67546405  1
  O  O0  1  0.39837846  0.45117457  0.62435553  1
  O  O1  1  0.61134914  0.05691473  0.12393529  1
  O  O2  1  0.60628741  0.55476461  0.38222175  1
  O  O3  1  0.40122450  0.94678598  0.88460754  1
  O  O4  1  0.63711895  0.18488904  0.55755998  1
  O  O5  1  0.30016297  0.29670169  0.06425512  1
  O  O6  1  0.29544993  0.79392792  0.44325213  1
  O  O7  1  0.64436510  0.68233623  0.95029930  1
loop_
_geom_bond_atom_site_label_1
_geom_bond_atom_site_label_2
_geom_bond_distance
_geom_bond_site_symmetry_2
H0 O0 0.995857 1_555
H1 O0 1.133104 1_555
H1 O4 1.277477 1_555
H2 O0 0.997935 1_555
H3 O1 0.998847 1_565
H4 O1 1.109928 1_555
H4 O5 1.304171 1_555
H5 O1 0.994955 1_555
H6 O2 0.999556 1_555
H7 O2 0.994187 1_555
H8 O3 0.995865 1_545
H9 O3 0.994392 1_555
H10 O4 0.982233 1_555
H11 O4 0.984174 1_555
H12 O5 0.979587 1_555
H13 O5 0.980582 1_556
H14 O2 1.110014 1_555
H14 O6 1.304717 1_555
H15 O6 0.980265 1_555
H16 O6 0.979890 1_555
H17 O7 0.983367 1_555
H18 O7 0.985587 1_554
H19 O3 1.148409 1_555
H19 O7 1.256852 1_555
Br0 H8 2.188393 1_555
Br0 H0 2.194511 1_655
Br0 H17 2.282116 1_555
Br0 H13 2.286256 1_655
Br1 H6 2.158294 1_555
Br1 H5 2.216382 1_455
Br1 H11 2.267241 1_455
Br1 H16 2.306783 1_545
Br2 H3 2.163964 1_555
Br2 H7 2.224325 1_455
Br2 H18 2.248211 1_455
Br2 H12 2.306688 1_555
Br3 H2 2.172054 1_555
Br3 H9 2.211432 1_655
Br3 H15 2.293479 1_655
Br3 H10 2.303958 1_565
