# generated using pymatgen
data_BaMgMo(PO4)2
_symmetry_space_group_name_H-M   'P 1'
_cell_length_a   5.15434967
_cell_length_b   5.15434865
_cell_length_c   8.15037838
_cell_angle_alpha   86.31143648
_cell_angle_beta   86.31143743
_cell_angle_gamma   64.13814941
_symmetry_Int_Tables_number   1
_chemical_formula_structural   BaMgMo(PO4)2
_chemical_formula_sum   'Ba1 Mg1 Mo1 P2 O8'
_cell_volume   194.28517239
_cell_formula_units_Z   1
loop_
 _symmetry_equiv_pos_site_id
 _symmetry_equiv_pos_as_xyz
  1  'x, y, z'
loop_
 _atom_site_type_symbol
 _atom_site_label
 _atom_site_symmetry_multiplicity
 _atom_site_fract_x
 _atom_site_fract_y
 _atom_site_fract_z
 _atom_site_occupancy
  Ba  Ba0  1  0.00535100  0.00535100  0.01546200  1
  Mg  Mg0  1  0.32069900  0.32069900  0.68658600  1
  Mo  Mo0  1  0.00097000  0.00097000  0.49613600  1
  P  P0  1  0.36808700  0.36808700  0.29740500  1
  P  P1  1  0.63028500  0.63028500  0.72051900  1
  O  O0  1  0.73922200  0.29500000  0.68830200  1
  O  O1  1  0.66879900  0.66879900  0.89906900  1
  O  O2  1  0.23827000  0.70327200  0.30998400  1
  O  O3  1  0.24936600  0.24936600  0.45486400  1
  O  O4  1  0.76417600  0.76417600  0.58848100  1
  O  O5  1  0.70327200  0.23827000  0.30998400  1
  O  O6  1  0.29150300  0.29150300  0.13657200  1
  O  O7  1  0.29500000  0.73922200  0.68830200  1
loop_
_geom_bond_atom_site_label_1
_geom_bond_atom_site_label_2
_geom_bond_distance
_geom_bond_site_symmetry_2
Ba0 O6 2.756385 1_555
Ba0 O2 2.808379 1_545
Ba0 O5 2.808379 1_455
Ba0 O0 3.064706 1_454
Ba0 O7 3.064707 1_544
Ba0 O1 3.157066 1_444
Ba0 O1 3.197226 1_454
Ba0 O1 3.197227 1_544
Mg0 O3 2.033197 1_555
Mg0 O7 2.103727 1_555
Mg0 O0 2.103727 1_555
Mo0 O2 2.139135 1_545
Mo0 O5 2.139135 1_455
Mo0 O4 2.146861 1_445
Mo0 O3 2.170444 1_555
Mo0 O0 2.195413 1_455
Mo0 O7 2.195413 1_545
O0 P1 1.601150 1_555
O1 P1 1.518318 1_555
O2 P0 1.564767 1_555
O3 P0 1.587606 1_555
O4 P1 1.528082 1_555
O5 P0 1.564767 1_555
O6 P0 1.516266 1_555
O7 P1 1.601151 1_555
