# generated using pymatgen
data_Ba3MgWO6
_symmetry_space_group_name_H-M   'P 1'
_cell_length_a   6.69888510
_cell_length_b   6.69888478
_cell_length_c   6.45800800
_cell_angle_alpha   61.18251152
_cell_angle_beta   61.18251300
_cell_angle_gamma   55.95594158
_symmetry_Int_Tables_number   1
_chemical_formula_structural   Ba3MgWO6
_chemical_formula_sum   'Ba3 Mg1 W1 O6'
_cell_volume   201.20966637
_cell_formula_units_Z   1
loop_
 _symmetry_equiv_pos_site_id
 _symmetry_equiv_pos_as_xyz
  1  'x, y, z'
loop_
 _atom_site_type_symbol
 _atom_site_label
 _atom_site_symmetry_multiplicity
 _atom_site_fract_x
 _atom_site_fract_y
 _atom_site_fract_z
 _atom_site_occupancy
  Ba  Ba0  1  0.18936400  0.18936300  0.31063700  1
  Ba  Ba1  1  0.49999900  0.50000000  0.49999900  1
  Ba  Ba2  1  0.81063700  0.81063800  0.68936200  1
  Mg  Mg0  1  0.50000000  0.50000000  0.00000000  1
  W  W0  1  0.00000000  0.00000000  0.00000000  1
  O  O0  1  0.25006600  0.74993500  0.79182700  1
  O  O1  1  0.25006600  0.74993500  0.20817300  1
  O  O2  1  0.74993500  0.25006400  0.79182700  1
  O  O3  1  0.21380300  0.21380100  0.78619700  1
  O  O4  1  0.74993500  0.25006400  0.20817300  1
  O  O5  1  0.78619800  0.78619800  0.21380100  1
loop_
_geom_bond_atom_site_label_1
_geom_bond_atom_site_label_2
_geom_bond_distance
_geom_bond_site_symmetry_2
Ba0 Mg0 3.079677 1_555
Ba0 O0 3.089765 1_545
Ba0 O1 3.089765 1_545
Ba0 O2 3.089767 1_455
Ba0 O4 3.089775 1_455
Ba0 O3 3.238071 1_555
Ba0 O3 3.238091 1_554
Ba0 O5 3.286024 1_545
Ba0 O5 3.286030 1_455
Ba1 O1 2.453472 1_555
Ba1 O4 2.453485 1_555
Ba1 O0 2.453492 1_555
Ba1 O2 2.453495 1_555
Ba1 O3 2.837386 1_555
Ba1 O5 2.837396 1_555
Ba2 Mg0 3.079687 1_556
Ba2 O4 3.089755 1_565
Ba2 O2 3.089755 1_565
Ba2 O1 3.089764 1_655
Ba2 O0 3.089772 1_655
Ba2 O5 3.238079 1_556
Ba2 O5 3.238085 1_555
Ba2 O3 3.286021 1_565
Ba2 O3 3.286038 1_655
Mg0 O0 2.067642 1_554
Mg0 O1 2.067646 1_555
Mg0 O4 2.067647 1_555
Mg0 O2 2.067651 1_554
O0 W0 2.068268 1_566
O1 W0 2.068272 1_565
O2 W0 2.068267 1_656
O3 W0 2.119651 1_556
O4 W0 2.068263 1_655
O5 W0 2.119651 1_665
