# generated using pymatgen
data_Na9MgTa5(SiO4)9
_symmetry_space_group_name_H-M   'P 1'
_cell_length_a   9.06298483
_cell_length_b   27.16673946
_cell_length_c   22.37897576
_cell_angle_alpha   90.00312600
_cell_angle_beta   89.97243956
_cell_angle_gamma   120.05427931
_symmetry_Int_Tables_number   1
_chemical_formula_structural   Na9MgTa5(SiO4)9
_chemical_formula_sum   'Na54 Mg6 Ta30 Si54 O216'
_cell_volume   4769.15842038
_cell_formula_units_Z   6
loop_
 _symmetry_equiv_pos_site_id
 _symmetry_equiv_pos_as_xyz
  1  'x, y, z'
loop_
 _atom_site_type_symbol
 _atom_site_label
 _atom_site_symmetry_multiplicity
 _atom_site_fract_x
 _atom_site_fract_y
 _atom_site_fract_z
 _atom_site_occupancy
  Na  Na0  1  0.00190357  0.00187052  0.49537782  1
  Na  Na1  1  0.98643645  0.32797851  0.49849178  1
  Na  Na2  1  0.00616403  0.66893129  0.50521507  1
  Na  Na3  1  0.98378747  0.99589921  0.99843454  1
  Na  Na4  1  0.99637958  0.32736996  0.99900841  1
  Na  Na5  1  0.01295323  0.66896883  0.00827122  1
  Na  Na6  1  0.66626048  0.11024266  0.83025643  1
  Na  Na7  1  0.66885885  0.44164520  0.83745857  1
  Na  Na8  1  0.66598165  0.78861245  0.83356382  1
  Na  Na9  1  0.66320109  0.10950461  0.32883221  1
  Na  Na10  1  0.65902048  0.44288770  0.33787831  1
  Na  Na11  1  0.68544893  0.78320442  0.33433791  1
  Na  Na12  1  0.34511338  0.22654930  0.16797033  1
  Na  Na13  1  0.34041266  0.55148850  0.16925585  1
  Na  Na14  1  0.33480643  0.88941027  0.16693580  1
  Na  Na15  1  0.33566845  0.22710611  0.66806906  1
  Na  Na16  1  0.31550839  0.55121119  0.66713018  1
  Na  Na17  1  0.34699769  0.88815760  0.66887278  1
  Na  Na18  1  0.62284693  0.00525284  0.24175230  1
  Na  Na19  1  0.64809929  0.66494873  0.24616313  1
  Na  Na20  1  0.38621860  0.12347401  0.24104651  1
  Na  Na21  1  0.35092512  0.78520321  0.24453635  1
  Na  Na22  1  0.98254791  0.20212354  0.24147125  1
  Na  Na23  1  0.00702412  0.55029907  0.24369251  1
  Na  Na24  1  0.62537971  0.20271138  0.74145275  1
  Na  Na25  1  0.64139853  0.54962452  0.74120896  1
  Na  Na26  1  0.98376714  0.12416975  0.74290277  1
  Na  Na27  1  0.00517158  0.78641788  0.74460663  1
  Na  Na28  1  0.39366727  0.00561062  0.74276353  1
  Na  Na29  1  0.34661636  0.66442794  0.74334009  1
  Na  Na30  1  0.32033299  0.11264385  0.58710076  1
  Na  Na31  1  0.32057394  0.44260403  0.57539313  1
  Na  Na32  1  0.27300405  0.77163114  0.59171184  1
  Na  Na33  1  0.01795349  0.22643702  0.58993223  1
  Na  Na34  1  0.03009541  0.57324014  0.58900430  1
  Na  Na35  1  0.02887509  0.89966411  0.57973612  1
  Na  Na36  1  0.67298954  0.32872668  0.57459148  1
  Na  Na37  1  0.68244911  0.65286554  0.59464698  1
  Na  Na38  1  0.66088421  0.99452596  0.58765935  1
  Na  Na39  1  0.31232158  0.32808769  0.07551417  1
  Na  Na40  1  0.28091166  0.65382535  0.09687413  1
  Na  Na41  1  0.31726869  0.99337718  0.08852578  1
  Na  Na42  1  0.66080548  0.22557211  0.09047498  1
  Na  Na43  1  0.68954355  0.57361981  0.09171465  1
  Na  Na44  1  0.01991121  0.11254194  0.08949847  1
  Na  Na45  1  0.00572345  0.44227390  0.07728713  1
  Na  Na46  1  0.04479767  0.77288617  0.09269461  1
  Na  Na47  1  0.93976719  0.54957495  0.92896540  1
  Na  Na48  1  0.70403492  0.35020268  0.92545626  1
  Na  Na49  1  0.70385616  0.67975999  0.91902343  1
  Na  Na50  1  0.34874829  0.43068201  0.92530494  1
  Na  Na51  1  0.94554166  0.43177583  0.42517298  1
  Na  Na52  1  0.34788796  0.35092055  0.42490168  1
  Na  Na53  1  0.71116568  0.55026513  0.42735617  1
  Mg  Mg0  1  0.99991033  0.66622693  0.64644709  1
  Mg  Mg1  1  0.00146988  0.66677065  0.14720485  1
  Mg  Mg2  1  0.66826847  0.11122032  0.68804196  1
  Mg  Mg3  1  0.66497979  0.11094118  0.18764053  1
  Mg  Mg4  1  0.66246905  0.44185540  0.97918742  1
  Mg  Mg5  1  0.66516321  0.44265097  0.47880610  1
  Ta  Ta0  1  0.99713655  0.99809098  0.35737682  1
  Ta  Ta1  1  0.99925952  0.33370327  0.35565427  1
  Ta  Ta2  1  0.00411005  0.66794096  0.35422296  1
  Ta  Ta3  1  0.99921857  0.99872734  0.85816690  1
  Ta  Ta4  1  0.00128800  0.33334369  0.85586790  1
  Ta  Ta5  1  0.00320635  0.66818364  0.85346979  1
  Ta  Ta6  1  0.99734704  0.00004275  0.64598541  1
  Ta  Ta7  1  0.00221429  0.33347073  0.64763025  1
  Ta  Ta8  1  0.99708245  0.99843982  0.14494754  1
  Ta  Ta9  1  0.99790846  0.33337531  0.14776087  1
  Ta  Ta10  1  0.66458980  0.44310244  0.68688808  1
  Ta  Ta11  1  0.66647429  0.77889577  0.68897335  1
  Ta  Ta12  1  0.66477260  0.44326317  0.18714838  1
  Ta  Ta13  1  0.67026003  0.77955482  0.18866196  1
  Ta  Ta14  1  0.66717156  0.11068475  0.97855383  1
  Ta  Ta15  1  0.66971197  0.78170195  0.97652023  1
  Ta  Ta16  1  0.66505145  0.11107355  0.47801592  1
  Ta  Ta17  1  0.66884121  0.77883362  0.47473475  1
  Ta  Ta18  1  0.32955924  0.22173070  0.01876268  1
  Ta  Ta19  1  0.33248380  0.55607345  0.02262741  1
  Ta  Ta20  1  0.33855364  0.88847810  0.02144888  1
  Ta  Ta21  1  0.33640837  0.22200041  0.51863114  1
  Ta  Ta22  1  0.33472630  0.55638820  0.52155633  1
  Ta  Ta23  1  0.32933953  0.88812247  0.51962785  1
  Ta  Ta24  1  0.33324091  0.22093613  0.31109032  1
  Ta  Ta25  1  0.33560887  0.55542993  0.31269836  1
  Ta  Ta26  1  0.33019212  0.89027652  0.31214070  1
  Ta  Ta27  1  0.32989649  0.22110319  0.81121881  1
  Ta  Ta28  1  0.32951958  0.55460409  0.81204669  1
  Ta  Ta29  1  0.34040996  0.89060341  0.81252862  1
  Si  Si0  1  0.28610153  0.99878738  0.25070590  1
  Si  Si1  1  0.29145777  0.33377757  0.25118010  1
  Si  Si2  1  0.29267165  0.66675166  0.24786190  1
  Si  Si3  1  0.70744269  0.23599868  0.25125969  1
  Si  Si4  1  0.71129366  0.57009914  0.24711570  1
  Si  Si5  1  0.70948166  0.90367401  0.25185192  1
  Si  Si6  1  0.99910990  0.09518373  0.25057582  1
  Si  Si7  1  0.99897054  0.43089637  0.25190735  1
  Si  Si8  1  0.00157974  0.76356906  0.24669958  1
  Si  Si9  1  0.28871848  0.09583721  0.75125149  1
  Si  Si10  1  0.29343579  0.43051306  0.75202757  1
  Si  Si11  1  0.29025658  0.76446573  0.74598744  1
  Si  Si12  1  0.00100332  0.23614728  0.75104091  1
  Si  Si13  1  0.99771754  0.56980715  0.74709863  1
  Si  Si14  1  0.00200082  0.90380197  0.75055027  1
  Si  Si15  1  0.70990778  0.99918655  0.75189485  1
  Si  Si16  1  0.71020080  0.33394130  0.75127683  1
  Si  Si17  1  0.70750061  0.66675864  0.74835255  1
  Si  Si18  1  0.95656532  0.11166014  0.58558381  1
  Si  Si19  1  0.95541292  0.44453047  0.58050283  1
  Si  Si20  1  0.95613984  0.77808639  0.58241777  1
  Si  Si21  1  0.37844866  0.01505134  0.58661250  1
  Si  Si22  1  0.37312722  0.34630454  0.57981456  1
  Si  Si23  1  0.38049820  0.68204772  0.58260719  1
  Si  Si24  1  0.66645195  0.20771997  0.58631365  1
  Si  Si25  1  0.66978237  0.54105312  0.57989082  1
  Si  Si26  1  0.66180371  0.87358302  0.58203419  1
  Si  Si27  1  0.95673732  0.20769818  0.08611348  1
  Si  Si28  1  0.95227374  0.54095910  0.07986243  1
  Si  Si29  1  0.95927357  0.87450592  0.08222787  1
  Si  Si30  1  0.66644688  0.01482824  0.08663067  1
  Si  Si31  1  0.66570412  0.34623620  0.07994679  1
  Si  Si32  1  0.66689321  0.68245493  0.08127527  1
  Si  Si33  1  0.37769514  0.11153736  0.08565011  1
  Si  Si34  1  0.37854835  0.44427681  0.08027505  1
  Si  Si35  1  0.38073095  0.77955912  0.08357869  1
  Si  Si36  1  0.62123993  0.22069967  0.91566737  1
  Si  Si37  1  0.62526337  0.55632155  0.91536696  1
  Si  Si38  1  0.62494558  0.88924452  0.91643654  1
  Si  Si39  1  0.03808060  0.12415461  0.91482018  1
  Si  Si40  1  0.04314321  0.45761556  0.91863181  1
  Si  Si41  1  0.04541910  0.79368555  0.91552307  1
  Si  Si42  1  0.33189405  0.31891807  0.91550137  1
  Si  Si43  1  0.33011709  0.65267435  0.91646250  1
  Si  Si44  1  0.33334496  0.98555067  0.91822514  1
  Si  Si45  1  0.62535053  0.31910252  0.41517143  1
  Si  Si46  1  0.62712637  0.65275385  0.41605217  1
  Si  Si47  1  0.62452909  0.98614792  0.41705147  1
  Si  Si48  1  0.33372476  0.12414437  0.41480958  1
  Si  Si49  1  0.33063112  0.45790811  0.41852032  1
  Si  Si50  1  0.33370264  0.79273444  0.41477681  1
  Si  Si51  1  0.04172548  0.22114895  0.41575031  1
  Si  Si52  1  0.04586306  0.55764121  0.41561535  1
  Si  Si53  1  0.04065590  0.88922983  0.41713271  1
  O  O0  1  0.17369770  0.99914039  0.30786330  1
  O  O1  1  0.19888244  0.34186911  0.31073059  1
  O  O2  1  0.19369603  0.67569664  0.30539409  1
  O  O3  1  0.83245015  0.27533589  0.30640221  1
  O  O4  1  0.83515776  0.60110667  0.30605670  1
  O  O5  1  0.81747940  0.93375676  0.31189633  1
  O  O6  1  0.98897420  0.05496556  0.30677482  1
  O  O7  1  0.98842377  0.39507970  0.31241115  1
  O  O8  1  0.96766733  0.71996880  0.30362224  1
  O  O9  1  0.17755525  0.05567090  0.80721268  1
  O  O10  1  0.19711629  0.39515243  0.81277482  1
  O  O11  1  0.18867835  0.72110402  0.80328655  1
  O  O12  1  0.99371534  0.27535957  0.80634358  1
  O  O13  1  0.96853679  0.60202318  0.80598997  1
  O  O14  1  0.98562337  0.93528094  0.80953996  1
  O  O15  1  0.82466869  0.99974680  0.80832165  1
  O  O16  1  0.82712329  0.34192266  0.81078552  1
  O  O17  1  0.82612935  0.67524983  0.80844421  1
  O  O18  1  0.80718181  0.32528983  0.69303025  1
  O  O19  1  0.78652525  0.65375100  0.69077978  1
  O  O20  1  0.80429990  0.99306776  0.69000044  1
  O  O21  1  0.17076051  0.06396034  0.69035613  1
  O  O22  1  0.17435175  0.39617285  0.69413493  1
  O  O23  1  0.17915861  0.74039781  0.68681000  1
  O  O24  1  0.01398200  0.27259549  0.68987781  1
  O  O25  1  0.05058638  0.60949361  0.68918489  1
  O  O26  1  0.02083916  0.94210945  0.69032439  1
  O  O27  1  0.80418088  0.27255301  0.19006713  1
  O  O28  1  0.77919048  0.60961882  0.18900566  1
  O  O29  1  0.81177001  0.94462649  0.19416291  1
  O  O30  1  0.02591731  0.06509860  0.18965746  1
  O  O31  1  0.01466949  0.39639120  0.19392385  1
  O  O32  1  0.04405566  0.74038635  0.18737542  1
  O  O33  1  0.16885904  0.32530523  0.19290224  1
  O  O34  1  0.17720438  0.65318837  0.18967001  1
  O  O35  1  0.17458752  0.99294963  0.18926951  1
  O  O36  1  0.89152158  0.12731610  0.64529511  1
  O  O37  1  0.85596756  0.45273149  0.63821780  1
  O  O38  1  0.86253509  0.78682505  0.64267254  1
  O  O39  1  0.49068817  0.03799617  0.64580417  1
  O  O40  1  0.49974071  0.38012226  0.63674260  1
  O  O41  1  0.49775083  0.71215426  0.64379663  1
  O  O42  1  0.62324067  0.17024843  0.64570523  1
  O  O43  1  0.63606556  0.49974234  0.64064214  1
  O  O44  1  0.63884745  0.83306981  0.64012109  1
  O  O45  1  0.88758793  0.17047253  0.14569057  1
  O  O46  1  0.86291500  0.49948501  0.14011210  1
  O  O47  1  0.85641827  0.83379656  0.13949386  1
  O  O48  1  0.62336144  0.03815034  0.14580802  1
  O  O49  1  0.64014319  0.38013911  0.13656779  1
  O  O50  1  0.64053413  0.71366604  0.14097215  1
  O  O51  1  0.49293064  0.12846341  0.14470346  1
  O  O52  1  0.50271839  0.45296846  0.13780965  1
  O  O53  1  0.49218494  0.78518573  0.14446855  1
  O  O54  1  0.47500992  0.10167750  0.02894630  1
  O  O55  1  0.43965627  0.42621094  0.02149054  1
  O  O56  1  0.49514193  0.77936569  0.02641244  1
  O  O57  1  0.83029563  0.17660132  0.02908657  1
  O  O58  1  0.84398937  0.50988188  0.02167023  1
  O  O59  1  0.85064540  0.84288400  0.02213787  1
  O  O60  1  0.70026656  0.05818769  0.02983929  1
  O  O61  1  0.70614060  0.38228266  0.01987889  1
  O  O62  1  0.67598466  0.72019168  0.02231339  1
  O  O63  1  0.47262620  0.05801500  0.52994384  1
  O  O64  1  0.44202436  0.38233471  0.51982887  1
  O  O65  1  0.49110974  0.72352016  0.52703948  1
  O  O66  1  0.69957574  0.17632129  0.52944689  1
  O  O67  1  0.68583938  0.50996059  0.52188040  1
  O  O68  1  0.69103485  0.84453180  0.52354763  1
  O  O69  1  0.82803265  0.10069758  0.52928546  1
  O  O70  1  0.83920080  0.42612527  0.52193298  1
  O  O71  1  0.84537282  0.77893118  0.52529501  1
  O  O72  1  0.52691504  0.23092199  0.97376932  1
  O  O73  1  0.52524735  0.56506748  0.97371158  1
  O  O74  1  0.52012599  0.89230620  0.97462933  1
  O  O75  1  0.15993472  0.15980380  0.97236152  1
  O  O76  1  0.15956888  0.48892129  0.97920225  1
  O  O77  1  0.15745881  0.82415715  0.97568809  1
  O  O78  1  0.31924130  0.28328302  0.97721173  1
  O  O79  1  0.30388903  0.61129620  0.97472278  1
  O  O80  1  0.30982878  0.94535541  0.97667963  1
  O  O81  1  0.53048121  0.28327174  0.47699233  1
  O  O82  1  0.52670944  0.61123580  0.47409582  1
  O  O83  1  0.52365050  0.94623923  0.47635857  1
  O  O84  1  0.31939364  0.15953920  0.47281478  1
  O  O85  1  0.30790352  0.48881786  0.47942394  1
  O  O86  1  0.31215594  0.82455640  0.47510806  1
  O  O87  1  0.16537521  0.23068564  0.47413728  1
  O  O88  1  0.16392636  0.56295442  0.47534128  1
  O  O89  1  0.15011700  0.89281431  0.47803417  1
  O  O90  1  0.13533451  0.21350627  0.35620856  1
  O  O91  1  0.15026729  0.55558633  0.35616244  1
  O  O92  1  0.15045910  0.88553179  0.36083802  1
  O  O93  1  0.49991767  0.28012446  0.35999751  1
  O  O94  1  0.51439282  0.62114227  0.35636297  1
  O  O95  1  0.51028037  0.95457402  0.35736243  1
  O  O96  1  0.34924560  0.16143312  0.35463300  1
  O  O97  1  0.33120732  0.49779186  0.36302358  1
  O  O98  1  0.35927069  0.83256840  0.35613772  1
  O  O99  1  0.13477844  0.16110234  0.85424705  1
  O  O100  1  0.16205611  0.49758854  0.86293937  1
  O  O101  1  0.13878182  0.83213471  0.85600151  1
  O  O102  1  0.34014862  0.28005071  0.86005418  1
  O  O103  1  0.35341315  0.62098316  0.85782464  1
  O  O104  1  0.35382292  0.95409441  0.85790627  1
  O  O105  1  0.50529360  0.21355698  0.85600340  1
  O  O106  1  0.51809909  0.55535073  0.85541937  1
  O  O107  1  0.50837089  0.88461928  0.85832243  1
  O  O108  1  0.03459960  0.28054851  0.41121917  1
  O  O109  1  0.02615289  0.61454595  0.41218877  1
  O  O110  1  0.02367272  0.94599401  0.41553062  1
  O  O111  1  0.81460056  0.32426945  0.41296156  1
  O  O112  1  0.81032750  0.65490311  0.41127669  1
  O  O113  1  0.81314652  0.99266991  0.41362301  1
  O  O114  1  0.16400274  0.06140946  0.41240399  1
  O  O115  1  0.15322660  0.39519220  0.41657385  1
  O  O116  1  0.16047018  0.73090971  0.40827757  1
  O  O117  1  0.01995961  0.06131820  0.91250502  1
  O  O118  1  0.03262619  0.39508094  0.91663912  1
  O  O119  1  0.02541994  0.73003234  0.90886317  1
  O  O120  1  0.15834950  0.32424525  0.91297162  1
  O  O121  1  0.15429032  0.65530528  0.91074270  1
  O  O122  1  0.16398995  0.99211761  0.91269967  1
  O  O123  1  0.80675892  0.28030640  0.91099453  1
  O  O124  1  0.81385043  0.61510929  0.91233079  1
  O  O125  1  0.81358265  0.94531689  0.91452104  1
  O  O126  1  0.97381284  0.05333175  0.58810692  1
  O  O127  1  0.99292779  0.39111056  0.59306959  1
  O  O128  1  0.97035987  0.72214578  0.58332450  1
  O  O129  1  0.18381950  0.00742318  0.58837542  1
  O  O130  1  0.18039689  0.33723069  0.59140974  1
  O  O131  1  0.19550354  0.67519648  0.58355047  1
  O  O132  1  0.83652298  0.27278310  0.58834229  1
  O  O133  1  0.83182325  0.60357930  0.58663583  1
  O  O134  1  0.83287751  0.93689652  0.58912370  1
  O  O135  1  0.98250788  0.27291608  0.08835027  1
  O  O136  1  0.97990516  0.60371489  0.08633897  1
  O  O137  1  0.98243434  0.93814746  0.08782133  1
  O  O138  1  0.84125834  0.00959838  0.08886947  1
  O  O139  1  0.83108732  0.33705935  0.09155620  1
  O  O140  1  0.83165250  0.67572180  0.08193143  1
  O  O141  1  0.18696066  0.05365830  0.08827821  1
  O  O142  1  0.18049031  0.39119380  0.09280472  1
  O  O143  1  0.19911252  0.72269874  0.08302040  1
  O  O144  1  0.69734464  0.05581136  0.75081951  1
  O  O145  1  0.68849360  0.38926033  0.74252871  1
  O  O146  1  0.69569171  0.72566887  0.74573141  1
  O  O147  1  0.47214691  0.10155255  0.74988355  1
  O  O148  1  0.48138199  0.43680998  0.74465222  1
  O  O149  1  0.47810083  0.76797351  0.74526565  1
  O  O150  1  0.83251429  0.17510007  0.75281692  1
  O  O151  1  0.82119024  0.50791228  0.74216911  1
  O  O152  1  0.83425467  0.83994241  0.74469304  1
  O  O153  1  0.69264619  0.17499570  0.25284259  1
  O  O154  1  0.70164286  0.50790387  0.24130156  1
  O  O155  1  0.68521935  0.83995952  0.24461367  1
  O  O156  1  0.83301014  0.10122296  0.24980885  1
  O  O157  1  0.82899490  0.43670908  0.24427093  1
  O  O158  1  0.82549597  0.76790552  0.24398801  1
  O  O159  1  0.46912575  0.05553815  0.25033459  1
  O  O160  1  0.47891216  0.38918300  0.24224670  1
  O  O161  1  0.48286963  0.72509878  0.24595460  1
  O  O162  1  0.64230951  0.16550539  0.92420626  1
  O  O163  1  0.63824877  0.49999147  0.91722260  1
  O  O164  1  0.64264710  0.83226761  0.91846302  1
  O  O165  1  0.85382345  0.12009081  0.92306680  1
  O  O166  1  0.86058731  0.45239623  0.91562239  1
  O  O167  1  0.85005510  0.78293103  0.91929599  1
  O  O168  1  0.50534128  0.04775534  0.92523304  1
  O  O169  1  0.49990483  0.37999432  0.91374179  1
  O  O170  1  0.50093251  0.71485434  0.92193510  1
  O  O171  1  0.63818414  0.04813478  0.42517358  1
  O  O172  1  0.64096620  0.38023516  0.41377809  1
  O  O173  1  0.64828114  0.71565447  0.42286835  1
  O  O174  1  0.50623586  0.12023108  0.42348930  1
  O  O175  1  0.49740708  0.45266887  0.41572675  1
  O  O176  1  0.50170120  0.78561229  0.42180331  1
  O  O177  1  0.85488168  0.16579158  0.42483721  1
  O  O178  1  0.86346797  0.50053785  0.41685885  1
  O  O179  1  0.85305006  0.83227490  0.41830181  1
  O  O180  1  0.34338386  0.16567732  0.07400593  1
  O  O181  1  0.37055700  0.50404288  0.07793437  1
  O  O182  1  0.35665153  0.83593120  0.08100053  1
  O  O183  1  0.15130302  0.21773357  0.07509165  1
  O  O184  1  0.14595855  0.54483048  0.07910954  1
  O  O185  1  0.14853932  0.88012619  0.08130377  1
  O  O186  1  0.49435497  0.28208176  0.07966476  1
  O  O187  1  0.48709082  0.61941670  0.07905584  1
  O  O188  1  0.49815272  0.95166177  0.07436347  1
  O  O189  1  0.35186846  0.28208908  0.57978082  1
  O  O190  1  0.37291084  0.61965530  0.57918870  1
  O  O191  1  0.35020277  0.95042785  0.57544405  1
  O  O192  1  0.50225355  0.21780262  0.57506137  1
  O  O193  1  0.48880544  0.54516461  0.57946139  1
  O  O194  1  0.49180500  0.88045616  0.58026646  1
  O  O195  1  0.15320837  0.16543198  0.57420862  1
  O  O196  1  0.14248565  0.50390948  0.57893772  1
  O  O197  1  0.14837423  0.83651419  0.58123013  1
  O  O198  1  0.29647027  0.27398689  0.25508917  1
  O  O199  1  0.32833335  0.61288694  0.25538825  1
  O  O200  1  0.31089794  0.94240211  0.25288545  1
  O  O201  1  0.51802304  0.23091873  0.25333488  1
  O  O202  1  0.51714658  0.55950245  0.25913327  1
  O  O203  1  0.51923321  0.89771385  0.25229970  1
  O  O204  1  0.17678724  0.15840484  0.25236300  1
  O  O205  1  0.16335635  0.49602019  0.25339131  1
  O  O206  1  0.16890163  0.82681339  0.25918926  1
  O  O207  1  0.29797988  0.15840801  0.75164282  1
  O  O208  1  0.32355140  0.49578277  0.75322515  1
  O  O209  1  0.31086501  0.82730024  0.75783775  1
  O  O210  1  0.17494480  0.23095833  0.75330216  1
  O  O211  1  0.16047996  0.55981207  0.76042447  1
  O  O212  1  0.17407985  0.89773870  0.75171779  1
  O  O213  1  0.52568720  0.27408638  0.75504743  1
  O  O214  1  0.50944023  0.61310281  0.75500008  1
  O  O215  1  0.51649492  0.94274682  0.75284714  1
loop_
_geom_bond_atom_site_label_1
_geom_bond_atom_site_label_2
_geom_bond_distance
_geom_bond_site_symmetry_2
Na0 O110 2.415688 1_545
Na0 O114 2.416615 1_555
Na0 O113 2.431263 1_445
Na0 O126 2.584835 1_455
Na0 O129 2.612754 1_555
Na0 O134 2.674433 1_445
Na1 O111 2.438205 1_555
Na1 O132 2.468733 1_555
Na1 O115 2.492576 1_655
Na1 O108 2.495510 1_655
Na1 O130 2.652939 1_655
Na1 O127 2.706190 1_555
Na2 O128 2.391617 1_455
Na2 O131 2.399399 1_555
Na2 O133 2.481221 1_455
Na2 O109 2.610971 1_555
Na2 O112 2.653451 1_455
Na2 O116 2.671295 1_555
Na3 O125 2.381935 1_555
Na3 O117 2.525898 1_665
Na3 O138 2.526253 1_566
Na3 O137 2.538556 1_556
Na3 O122 2.554227 1_655
Na3 O141 2.646593 1_666
Na4 O120 2.447719 1_655
Na4 O135 2.452662 1_556
Na4 O123 2.503949 1_555
Na4 O118 2.506800 1_655
Na4 O139 2.644788 1_556
Na4 O142 2.702168 1_656
Na5 O143 2.304592 1_555
Na5 O140 2.397951 1_455
Na5 O136 2.398454 1_455
Na5 O121 2.648726 1_554
Na5 O124 2.713966 1_454
Na5 O119 2.743391 1_554
Na6 O150 2.390982 1_555
Na6 O144 2.417178 1_555
Na6 O147 2.443945 1_555
Na6 O165 2.612069 1_555
Na6 O168 2.654049 1_555
Na6 O162 2.654655 1_555
Na7 O169 2.343742 1_555
Na7 O166 2.378863 1_555
Na7 O163 2.493082 1_555
Na7 O145 2.612113 1_555
Na7 O148 2.645291 1_555
Na7 O151 2.683750 1_555
Na8 O164 2.304706 1_555
Na8 O152 2.468413 1_555
Na8 O149 2.482994 1_555
Na8 O167 2.597872 1_555
Na8 O170 2.675651 1_555
Na8 O146 2.705623 1_555
Na9 O153 2.377594 1_555
Na9 O159 2.397685 1_555
Na9 O156 2.427072 1_555
Na9 O174 2.647301 1_555
Na9 O171 2.664722 1_555
Na9 O177 2.704551 1_555
Na10 O172 2.351594 1_555
Na10 O175 2.374540 1_555
Na10 O178 2.471100 1_555
Na10 O160 2.644026 1_555
Na10 O157 2.654324 1_555
Na10 O154 2.693757 1_555
Na11 O179 2.364181 1_555
Na11 O158 2.529384 1_555
Na11 O155 2.532326 1_555
Na11 O176 2.591300 1_555
Na11 O173 2.605172 1_555
Na11 O161 2.622027 1_555
Na12 O201 2.436365 1_555
Na12 O186 2.442258 1_555
Na12 O198 2.494832 1_555
Na12 O204 2.547574 1_555
Na12 O183 2.654248 1_555
Na12 O180 2.670303 1_555
Na13 O205 2.442586 1_555
Na13 O181 2.502905 1_555
Na13 O202 2.512431 1_555
Na13 O199 2.586892 1_555
Na13 O187 2.605367 1_555
Na13 O184 2.625350 1_555
Na14 O203 2.473757 1_555
Na14 O200 2.476067 1_555
Na14 O182 2.477074 1_555
Na14 O185 2.482423 1_555
Na14 O188 2.614038 1_555
Na14 O206 2.617490 1_555
Na15 O210 2.433315 1_555
Na15 O189 2.436572 1_555
Na15 O213 2.486945 1_555
Na15 O207 2.541458 1_555
Na15 O192 2.656064 1_555
Na15 O195 2.679856 1_555
Na16 O196 2.447429 1_555
Na16 O208 2.468889 1_555
Na16 O193 2.568725 1_555
Na16 O190 2.575210 1_555
Na16 O211 2.591075 1_555
Na16 O214 2.612666 1_555
Na17 O215 2.410665 1_555
Na17 O194 2.443477 1_555
Na17 O209 2.502384 1_555
Na17 O212 2.523234 1_555
Na17 O197 2.555214 1_555
Na17 O191 2.680549 1_555
Na18 O48 2.324858 1_555
Na18 O156 2.341809 1_555
Na18 O159 2.397926 1_555
Na18 O200 2.476817 1_545
Na18 O203 2.593172 1_545
Na18 O95 2.867240 1_545
Na19 O158 2.430252 1_555
Na19 O202 2.508642 1_555
Na19 O199 2.517043 1_555
Na19 O28 2.663493 1_555
Na19 O161 2.713611 1_555
Na19 O50 2.718335 1_555
Na19 O94 2.742190 1_555
Na19 O8 2.818346 1_555
Na20 O159 2.324485 1_555
Na20 O51 2.338594 1_555
Na20 O153 2.418370 1_555
Na20 O204 2.524083 1_555
Na20 O201 2.555465 1_555
Na20 O96 2.825283 1_555
Na21 O206 2.444199 1_555
Na21 O161 2.460276 1_555
Na21 O53 2.579115 1_555
Na21 O155 2.622535 1_555
Na21 O203 2.651340 1_555
Na21 O32 2.732236 1_555
Na21 O98 2.793106 1_555
Na21 O2 2.913430 1_555
Na22 O45 2.309729 1_555
Na22 O153 2.360272 1_555
Na22 O156 2.379948 1_555
Na22 O198 2.536929 1_655
Na22 O204 2.581409 1_655
Na22 O90 2.860169 1_655
Na23 O154 2.407617 1_455
Na23 O205 2.514343 1_555
Na23 O199 2.545712 1_555
Na23 O157 2.671873 1_455
Na23 O46 2.679799 1_455
Na23 O34 2.708095 1_555
Na23 O91 2.803106 1_555
Na23 O4 2.903508 1_455
Na24 O42 2.313472 1_555
Na24 O150 2.358469 1_555
Na24 O147 2.386132 1_555
Na24 O213 2.534402 1_555
Na24 O207 2.593692 1_555
Na24 O105 2.856814 1_555
Na25 O151 2.406078 1_555
Na25 O208 2.507744 1_555
Na25 O214 2.562181 1_555
Na25 O43 2.614961 1_555
Na25 O148 2.655199 1_555
Na25 O19 2.697732 1_555
Na25 O106 2.824347 1_555
Na25 O13 2.948717 1_555
Na26 O144 2.321535 1_555
Na26 O36 2.356059 1_555
Na26 O150 2.396277 1_555
Na26 O207 2.521953 1_655
Na26 O210 2.537337 1_655
Na26 O99 2.777820 1_655
Na27 O209 2.432184 1_555
Na27 O146 2.440221 1_455
Na27 O152 2.601908 1_455
Na27 O212 2.622539 1_555
Na27 O38 2.625295 1_455
Na27 O23 2.773971 1_555
Na27 O101 2.778408 1_555
Na27 O17 2.980683 1_455
Na28 O147 2.338360 1_555
Na28 O39 2.340721 1_555
Na28 O144 2.389142 1_555
Na28 O215 2.472085 1_545
Na28 O212 2.597448 1_545
Na28 O104 2.867428 1_545
Na29 O149 2.444845 1_555
Na29 O214 2.500246 1_555
Na29 O211 2.503308 1_555
Na29 O41 2.595829 1_555
Na29 O25 2.624207 1_555
Na29 O146 2.740012 1_555
Na29 O103 2.834463 1_555
Na29 O11 2.902543 1_555
Na30 O129 2.481963 1_555
Na30 O192 2.496826 1_555
Na30 O195 2.571020 1_555
Na30 O21 2.669808 1_555
Na30 O126 2.718624 1_455
Na30 O42 2.721308 1_555
Na30 O63 2.791688 1_555
Na30 O84 2.859319 1_555
Na31 O193 2.416831 1_555
Na31 O130 2.508814 1_555
Na31 O85 2.519312 1_555
Na31 O127 2.601768 1_455
Na31 O64 2.691135 1_555
Na31 O196 2.842089 1_555
Na31 O43 2.876700 1_555
Na31 O22 2.954870 1_555
Na32 O23 2.290891 1_555
Na32 O131 2.355221 1_555
Na32 O128 2.381773 1_455
Na32 O197 2.536204 1_555
Na32 O194 2.620249 1_555
Na32 O86 2.913940 1_555
Na33 O132 2.522699 1_455
Na33 O195 2.531306 1_555
Na33 O24 2.573191 1_555
Na33 O130 2.605680 1_555
Na33 O189 2.629106 1_555
Na33 O36 2.647175 1_455
Na33 O66 2.842591 1_455
Na33 O87 2.890654 1_555
Na34 O133 2.322653 1_455
Na34 O131 2.403105 1_555
Na34 O25 2.418210 1_555
Na34 O196 2.560701 1_555
Na34 O190 2.714135 1_555
Na34 O88 2.890653 1_555
Na35 O197 2.445066 1_555
Na35 O134 2.453944 1_455
Na35 O191 2.523676 1_555
Na35 O129 2.542027 1_565
Na35 O89 2.573808 1_555
Na35 O26 2.746538 1_555
Na36 O81 2.523588 1_555
Na36 O189 2.528831 1_555
Na36 O127 2.555341 1_555
Na36 O70 2.581752 1_555
Na36 O192 2.608590 1_555
Na36 O132 2.618743 1_555
Na36 O40 2.922848 1_555
Na36 O18 2.937693 1_555
Na37 O133 2.339439 1_555
Na37 O128 2.344242 1_555
Na37 O19 2.344744 1_555
Na37 O190 2.503863 1_555
Na37 O193 2.571657 1_555
Na38 O126 2.461175 1_565
Na38 O191 2.461720 1_555
Na38 O20 2.644022 1_555
Na38 O194 2.687465 1_555
Na38 O39 2.699915 1_565
Na38 O134 2.706740 1_555
Na38 O83 2.800034 1_555
Na38 O69 2.818283 1_565
Na39 O186 2.521488 1_555
Na39 O78 2.530046 1_554
Na39 O142 2.562719 1_555
Na39 O183 2.595251 1_555
Na39 O135 2.602966 1_455
Na39 O55 2.610943 1_555
Na39 O49 2.913598 1_555
Na39 O33 2.914752 1_555
Na40 O34 2.275550 1_555
Na40 O143 2.352926 1_555
Na40 O136 2.373108 1_455
Na40 O187 2.504652 1_555
Na40 O184 2.606630 1_555
Na41 O188 2.435684 1_555
Na41 O141 2.452308 1_565
Na41 O35 2.595650 1_555
Na41 O137 2.626728 1_455
Na41 O185 2.667967 1_555
Na41 O48 2.727995 1_565
Na41 O80 2.807709 1_554
Na41 O54 2.874619 1_565
Na42 O180 2.524217 1_555
Na42 O135 2.530001 1_555
Na42 O27 2.574134 1_555
Na42 O51 2.593358 1_555
Na42 O139 2.621784 1_555
Na42 O186 2.647843 1_555
Na42 O57 2.839281 1_555
Na42 O72 2.914545 1_554
Na43 O136 2.335081 1_555
Na43 O28 2.358527 1_555
Na43 O140 2.412891 1_555
Na43 O181 2.559876 1_555
Na43 O187 2.698489 1_555
Na44 O138 2.430523 1_455
Na44 O183 2.505925 1_555
Na44 O180 2.560990 1_555
Na44 O30 2.599809 1_555
Na44 O141 2.697701 1_555
Na44 O45 2.717559 1_455
Na44 O60 2.841474 1_455
Na44 O75 2.914765 1_554
Na45 O184 2.415095 1_555
Na45 O139 2.499061 1_455
Na45 O76 2.568216 1_554
Na45 O142 2.599455 1_555
Na45 O61 2.692472 1_455
Na45 O46 2.842610 1_455
Na45 O181 2.862059 1_555
Na45 O31 2.911233 1_555
Na46 O32 2.294208 1_555
Na46 O140 2.377023 1_455
Na46 O143 2.402372 1_555
Na46 O182 2.478047 1_555
Na46 O185 2.587052 1_555
Na46 O77 2.900412 1_554
Na47 O58 2.298120 1_556
Na47 O163 2.380043 1_555
Na47 O166 2.382517 1_555
Na47 O121 2.569515 1_655
Na47 O124 2.577995 1_555
Na48 O61 2.282145 1_556
Na48 O169 2.376261 1_555
Na48 O166 2.413176 1_555
Na48 O123 2.519419 1_555
Na48 O118 2.599362 1_655
Na48 O16 2.851145 1_555
Na48 O72 3.005805 1_555
Na49 O124 2.419611 1_555
Na49 O167 2.427271 1_555
Na49 O170 2.460005 1_555
Na49 O119 2.534345 1_655
Na49 O62 2.624975 1_556
Na49 O17 2.738659 1_555
Na50 O55 2.330009 1_556
Na50 O163 2.348038 1_555
Na50 O169 2.393530 1_555
Na50 O118 2.531073 1_555
Na50 O120 2.533261 1_555
Na50 O10 2.799376 1_555
Na51 O178 2.338683 1_555
Na51 O70 2.343323 1_555
Na51 O172 2.403004 1_555
Na51 O115 2.537916 1_655
Na51 O111 2.557633 1_555
Na51 O7 2.810651 1_555
Na52 O64 2.289414 1_555
Na52 O172 2.373182 1_555
Na52 O175 2.401461 1_555
Na52 O108 2.524706 1_555
Na52 O115 2.592176 1_555
Na52 O1 2.843056 1_555
Na53 O67 2.339736 1_555
Na53 O178 2.377578 1_555
Na53 O175 2.388746 1_555
Na53 O109 2.513957 1_655
Na53 O112 2.541424 1_555
Mg0 O19 2.044706 1_555
Mg0 O25 2.052018 1_655
Mg0 O23 2.058544 1_655
Mg0 O133 2.100866 1_555
Mg0 O131 2.178968 1_655
Mg0 O128 2.187029 1_555
Mg1 O34 2.041086 1_555
Mg1 O32 2.045413 1_555
Mg1 O28 2.051690 1_455
Mg1 O136 2.119588 1_455
Mg1 O143 2.202717 1_555
Mg1 O140 2.222315 1_455
Mg2 O39 2.057985 1_555
Mg2 O42 2.071656 1_555
Mg2 O36 2.076593 1_555
Mg2 O147 2.161873 1_555
Mg2 O144 2.169551 1_555
Mg2 O150 2.177861 1_555
Mg3 O48 2.045038 1_555
Mg3 O45 2.073004 1_555
Mg3 O51 2.079955 1_555
Mg3 O159 2.169426 1_555
Mg3 O156 2.174672 1_555
Mg3 O153 2.187046 1_555
Mg4 O58 1.995408 1_556
Mg4 O61 2.060880 1_556
Mg4 O55 2.072004 1_556
Mg4 O169 2.159114 1_555
Mg4 O166 2.193653 1_555
Mg4 O163 2.193931 1_555
Mg5 O67 1.991183 1_555
Mg5 O64 2.072854 1_555
Mg5 O70 2.081278 1_555
Mg5 O172 2.160701 1_555
Mg5 O178 2.189032 1_555
Mg5 O175 2.189730 1_555
O0 Si0 1.637852 1_555
O0 Ta0 1.934364 1_455
O1 Si1 1.646790 1_555
O1 Ta1 1.982254 1_455
O2 Si2 1.654861 1_555
O2 Ta2 1.956103 1_555
O3 Si3 1.654363 1_555
O3 Ta1 1.901309 1_555
O4 Si4 1.662457 1_555
O4 Ta2 2.004944 1_655
O5 Si5 1.622175 1_555
O5 Ta0 1.972990 1_555
O6 Si6 1.638128 1_555
O6 Ta0 1.946775 1_545
O7 Si7 1.641987 1_555
O7 Ta1 1.972474 1_555
O8 Si8 1.659922 1_655
O8 Ta2 1.964001 1_655
O9 Si9 1.634586 1_555
O9 Ta3 1.949288 1_445
O10 Si10 1.640740 1_555
O10 Ta4 1.978115 1_555
O11 Si11 1.671002 1_555
O11 Ta5 1.931693 1_555
O12 Si12 1.655631 1_655
O12 Ta4 1.898953 1_655
O13 Si13 1.674586 1_555
O13 Ta5 1.972991 1_655
O14 Si14 1.619548 1_655
O14 Ta3 1.989350 1_555
O15 Si15 1.631562 1_555
O15 Ta3 1.947615 1_555
O16 Si16 1.647614 1_555
O16 Ta4 1.983367 1_655
O17 Si17 1.664488 1_555
O17 Ta5 1.984402 1_655
O18 Si16 1.653077 1_555
O18 Ta7 1.952127 1_655
O19 Si17 1.596999 1_555
O20 Si15 1.679087 1_555
O20 Ta6 1.932224 1_565
O21 Si9 1.680456 1_555
O21 Ta6 1.933659 1_455
O22 Si10 1.645099 1_555
O22 Ta7 1.938588 1_555
O23 Si11 1.592776 1_555
O24 Si12 1.658658 1_555
O24 Ta7 1.953763 1_555
O25 Si13 1.598078 1_455
O26 Si14 1.658521 1_555
O26 Ta6 1.960346 1_465
O27 Si3 1.660446 1_555
O27 Ta9 1.949867 1_555
O28 Si4 1.600036 1_555
O29 Si5 1.652221 1_555
O29 Ta8 1.926149 1_555
O30 Si6 1.668547 1_455
O30 Ta8 1.968456 1_445
O31 Si7 1.648036 1_455
O31 Ta9 1.939210 1_455
O32 Si8 1.596765 1_555
O33 Si1 1.653384 1_555
O33 Ta9 1.952117 1_455
O34 Si2 1.594314 1_555
O35 Si0 1.666625 1_555
O35 Ta8 1.958560 1_455
O36 Si18 1.601359 1_555
O37 Si19 1.652314 1_555
O37 Ta10 1.951115 1_555
O38 Si20 1.671801 1_555
O38 Ta11 1.972881 1_555
O39 Si21 1.595018 1_555
O40 Si22 1.652019 1_555
O40 Ta10 1.964648 1_555
O41 Si23 1.674528 1_555
O41 Ta11 1.967764 1_555
O42 Si24 1.598921 1_555
O43 Si25 1.690424 1_555
O43 Ta10 1.975969 1_555
O44 Si26 1.647718 1_555
O44 Ta11 1.947678 1_555
O45 Si27 1.599257 1_555
O46 Si28 1.681808 1_555
O46 Ta12 1.979064 1_555
O47 Si29 1.643417 1_555
O47 Ta13 1.933079 1_555
O48 Si30 1.598429 1_555
O49 Si31 1.649504 1_555
O49 Ta12 1.971935 1_555
O50 Si32 1.662301 1_555
O50 Ta13 1.983100 1_555
O51 Si33 1.602782 1_555
O52 Si34 1.647786 1_555
O52 Ta12 1.958365 1_555
O53 Si35 1.657452 1_555
O53 Ta13 1.963419 1_555
O54 Si33 1.641772 1_555
O54 Ta14 1.983927 1_554
O55 Si34 1.596783 1_555
O56 Si35 1.648043 1_555
O56 Ta15 1.910898 1_554
O57 Si27 1.639260 1_555
O57 Ta14 2.005215 1_554
O58 Si28 1.594689 1_555
O59 Si29 1.633890 1_555
O59 Ta15 1.940406 1_554
O60 Si30 1.653753 1_555
O60 Ta14 1.967274 1_554
O61 Si31 1.593894 1_555
O62 Si32 1.647520 1_555
O62 Ta15 1.985247 1_554
O63 Si21 1.643285 1_555
O63 Ta16 1.987426 1_555
O64 Si22 1.592864 1_555
O65 Si23 1.639632 1_555
O65 Ta17 1.948516 1_555
O66 Si24 1.641126 1_555
O66 Ta16 2.002306 1_555
O67 Si25 1.594631 1_555
O68 Si26 1.617152 1_555
O68 Ta17 2.014870 1_555
O69 Si18 1.639173 1_555
O69 Ta16 1.999105 1_555
O70 Si19 1.597213 1_555
O71 Si20 1.633032 1_555
O71 Ta17 1.958942 1_555
O72 Si36 1.653868 1_555
O72 Ta18 1.956108 1_556
O73 Si37 1.672566 1_555
O73 Ta19 1.969954 1_556
O74 Si38 1.638076 1_555
O74 Ta20 1.908806 1_556
O75 Si39 1.657016 1_555
O75 Ta18 1.919043 1_556
O76 Si40 1.666271 1_555
O76 Ta19 1.966228 1_556
O77 Si41 1.639653 1_555
O77 Ta20 1.981071 1_556
O78 Si42 1.657210 1_555
O78 Ta18 1.956131 1_556
O79 Si43 1.658991 1_555
O79 Ta19 1.963925 1_556
O80 Si44 1.647989 1_555
O80 Ta20 1.965311 1_556
O81 Si45 1.661779 1_555
O81 Ta21 1.949034 1_555
O82 Si46 1.660893 1_555
O82 Ta22 1.943516 1_555
O83 Si47 1.667038 1_555
O83 Ta23 1.935254 1_555
O84 Si48 1.658711 1_555
O84 Ta21 1.921534 1_555
O85 Si49 1.666754 1_555
O85 Ta22 1.967446 1_555
O86 Si50 1.666468 1_555
O86 Ta23 1.931215 1_555
O87 Si51 1.655541 1_555
O87 Ta21 1.953897 1_555
O88 Si52 1.672996 1_555
O88 Ta22 1.943141 1_555
O89 Si53 1.660027 1_555
O89 Ta23 1.931280 1_555
O90 Si51 1.647326 1_555
O90 Ta24 1.978123 1_555
O91 Si52 1.649347 1_555
O91 Ta25 1.942487 1_555
O92 Si53 1.639044 1_555
O92 Ta26 1.909356 1_555
O93 Si45 1.653370 1_555
O93 Ta24 1.906244 1_555
O94 Si46 1.639521 1_555
O94 Ta25 1.967537 1_555
O95 Si47 1.644317 1_555
O95 Ta26 1.971034 1_555
O96 Si48 1.648270 1_555
O96 Ta24 1.954181 1_555
O97 Si49 1.646500 1_555
O97 Ta25 1.912959 1_555
O98 Si50 1.641810 1_555
O98 Ta26 1.977619 1_555
O99 Si39 1.652574 1_555
O99 Ta27 1.955155 1_555
O100 Si40 1.649450 1_555
O100 Ta28 1.908831 1_555
O101 Si41 1.641681 1_555
O101 Ta29 1.974807 1_555
O102 Si42 1.655029 1_555
O102 Ta27 1.902214 1_555
O103 Si43 1.639970 1_555
O103 Ta28 1.989269 1_555
O104 Si44 1.656918 1_555
O104 Ta29 1.952184 1_555
O105 Si36 1.649778 1_555
O105 Ta27 1.975188 1_555
O106 Si37 1.649051 1_555
O106 Ta28 1.957145 1_555
O107 Si38 1.640650 1_555
O107 Ta29 1.908730 1_555
O108 Si51 1.650111 1_555
O108 Ta1 2.048888 1_455
O109 Si52 1.644469 1_555
O109 Ta2 2.029173 1_555
O110 Si53 1.625054 1_555
O110 Ta0 2.023873 1_455
O111 Si45 1.650068 1_555
O111 Ta1 2.019801 1_555
O112 Si46 1.635333 1_555
O112 Ta2 2.053024 1_655
O113 Si47 1.629709 1_555
O113 Ta0 2.034372 1_555
O114 Si48 1.627206 1_555
O114 Ta0 2.039208 1_445
O115 Si49 1.657120 1_555
O115 Ta1 2.064704 1_455
O116 Si50 1.632779 1_555
O116 Ta2 1.992767 1_555
O117 Si39 1.631839 1_555
O117 Ta3 2.021195 1_445
O118 Si40 1.653786 1_555
O118 Ta4 2.065489 1_555
O119 Si41 1.652702 1_555
O119 Ta5 2.015344 1_555
O120 Si42 1.651070 1_555
O120 Ta4 2.018559 1_555
O121 Si43 1.635562 1_555
O121 Ta5 2.030189 1_555
O122 Si44 1.636269 1_555
O122 Ta3 2.005483 1_455
O123 Si36 1.653125 1_555
O123 Ta4 2.039589 1_655
O124 Si37 1.655976 1_555
O124 Ta5 2.068516 1_655
O125 Si38 1.623723 1_555
O125 Ta3 2.019745 1_555
O126 Si18 1.669333 1_555
O126 Ta6 2.031933 1_555
O127 Si19 1.671875 1_555
O127 Ta7 2.020462 1_655
O128 Si20 1.588321 1_555
O129 Si21 1.670243 1_555
O129 Ta6 2.053531 1_455
O130 Si22 1.657526 1_555
O130 Ta7 2.008488 1_555
O131 Si23 1.591692 1_555
O132 Si24 1.665304 1_555
O132 Ta7 2.062863 1_655
O133 Si25 1.601990 1_555
O134 Si26 1.648196 1_555
O134 Ta6 2.055312 1_565
O135 Si27 1.667841 1_555
O135 Ta9 2.062822 1_555
O136 Si28 1.600834 1_555
O137 Si29 1.638729 1_555
O137 Ta8 2.029039 1_555
O138 Si30 1.660810 1_555
O138 Ta8 2.022819 1_545
O139 Si31 1.658590 1_555
O139 Ta9 2.007816 1_555
O140 Si32 1.592783 1_555
O141 Si33 1.655713 1_555
O141 Ta8 2.057285 1_445
O142 Si34 1.669440 1_555
O142 Ta9 2.027996 1_455
O143 Si35 1.596517 1_555
O144 Si15 1.598559 1_545
O145 Si16 1.622271 1_555
O145 Ta10 2.013654 1_555
O146 Si17 1.657634 1_555
O146 Ta11 2.039231 1_555
O147 Si9 1.590616 1_555
O148 Si10 1.632724 1_555
O148 Ta10 2.042282 1_555
O149 Si11 1.656829 1_555
O149 Ta11 2.019960 1_555
O150 Si12 1.595974 1_655
O151 Si13 1.644600 1_555
O151 Ta10 2.035503 1_555
O152 Si14 1.642112 1_655
O152 Ta11 2.023154 1_555
O153 Si3 1.594717 1_555
O154 Si4 1.652705 1_555
O154 Ta12 2.019045 1_555
O155 Si5 1.639947 1_555
O155 Ta13 2.014004 1_555
O156 Si6 1.593966 1_555
O157 Si7 1.634368 1_555
O157 Ta12 2.036745 1_555
O158 Si8 1.659122 1_655
O158 Ta13 2.014997 1_555
O159 Si0 1.602154 1_545
O160 Si1 1.621776 1_555
O160 Ta12 2.008891 1_555
O161 Si2 1.657962 1_555
O161 Ta13 2.048977 1_555
O162 Si36 1.614988 1_555
O162 Ta14 2.021043 1_555
O163 Si37 1.593051 1_555
O164 Si38 1.634767 1_555
O164 Ta15 1.993318 1_555
O165 Si39 1.627858 1_655
O165 Ta14 2.008445 1_555
O166 Si40 1.589699 1_655
O167 Si41 1.645951 1_655
O167 Ta15 2.062970 1_555
O168 Si44 1.634589 1_545
O168 Ta14 1.996905 1_555
O169 Si42 1.594522 1_555
O170 Si43 1.626615 1_555
O170 Ta15 2.085451 1_555
O171 Si47 1.635662 1_545
O171 Ta16 1.991060 1_555
O172 Si45 1.594913 1_555
O173 Si46 1.628460 1_555
O173 Ta17 2.001889 1_555
O174 Si48 1.631024 1_555
O174 Ta16 1.995746 1_555
O175 Si49 1.588760 1_555
O176 Si50 1.635753 1_555
O176 Ta17 2.003202 1_555
O177 Si51 1.618454 1_655
O177 Ta16 2.005613 1_555
O178 Si52 1.603516 1_655
O179 Si53 1.628044 1_655
O179 Ta17 2.015021 1_555
O180 Si33 1.669164 1_555
O180 Ta18 2.013566 1_555
O181 Si34 1.661934 1_555
O181 Ta19 2.034238 1_555
O182 Si35 1.652592 1_555
O182 Ta20 2.018858 1_555
O183 Si27 1.662112 1_455
O183 Ta18 2.008271 1_555
O184 Si28 1.705197 1_455
O184 Ta19 2.007370 1_555
O185 Si29 1.644285 1_455
O185 Ta20 2.101850 1_555
O186 Si31 1.654763 1_555
O186 Ta18 2.079737 1_555
O187 Si32 1.671979 1_555
O187 Ta19 2.026226 1_555
O188 Si30 1.650814 1_565
O188 Ta20 1.988809 1_555
O189 Si22 1.656449 1_555
O189 Ta21 2.080372 1_555
O190 Si23 1.663384 1_555
O190 Ta22 2.035134 1_555
O191 Si21 1.661331 1_565
O191 Ta23 2.034812 1_555
O192 Si24 1.661811 1_555
O192 Ta21 2.010098 1_555
O193 Si25 1.698915 1_555
O193 Ta22 2.037266 1_555
O194 Si26 1.642676 1_555
O194 Ta23 2.088552 1_555
O195 Si18 1.663377 1_455
O195 Ta21 2.026779 1_555
O196 Si19 1.654821 1_455
O196 Ta22 2.055999 1_555
O197 Si20 1.668994 1_455
O197 Ta23 2.061773 1_555
O198 Si1 1.649865 1_555
O198 Ta24 2.059239 1_555
O199 Si2 1.657699 1_555
O199 Ta25 2.046735 1_555
O200 Si0 1.656542 1_555
O200 Ta26 2.010668 1_555
O201 Si3 1.652546 1_555
O201 Ta24 2.022799 1_555
O202 Si4 1.656325 1_555
O202 Ta25 1.992966 1_555
O203 Si5 1.649118 1_555
O203 Ta26 2.102530 1_555
O204 Si6 1.665623 1_455
O204 Ta24 2.052435 1_555
O205 Si7 1.646413 1_455
O205 Ta25 2.069194 1_555
O206 Si8 1.649346 1_555
O206 Ta26 1.997639 1_555
O207 Si9 1.659422 1_555
O207 Ta27 2.066117 1_555
O208 Si10 1.653654 1_555
O208 Ta28 2.050014 1_555
O209 Si11 1.643090 1_555
O209 Ta29 2.016443 1_555
O210 Si12 1.652340 1_555
O210 Ta27 2.025367 1_555
O211 Si13 1.655372 1_455
O211 Ta28 1.980023 1_555
O212 Si14 1.648441 1_555
O212 Ta29 2.111082 1_555
O213 Si16 1.650408 1_555
O213 Ta27 2.059231 1_555
O214 Si17 1.657690 1_555
O214 Ta28 2.053512 1_555
O215 Si15 1.652856 1_555
O215 Ta29 2.017692 1_555
