# generated using pymatgen
data_Ba(InSe2)2
_symmetry_space_group_name_H-M   'P 1'
_cell_length_a   16.37160637
_cell_length_b   13.55625733
_cell_length_c   13.40166120
_cell_angle_alpha   74.78692981
_cell_angle_beta   53.03638727
_cell_angle_gamma   52.17668293
_symmetry_Int_Tables_number   1
_chemical_formula_structural   Ba(InSe2)2
_chemical_formula_sum   'Ba8 In16 Se32'
_cell_volume   1850.41406339
_cell_formula_units_Z   8
loop_
 _symmetry_equiv_pos_site_id
 _symmetry_equiv_pos_as_xyz
  1  'x, y, z'
loop_
 _atom_site_type_symbol
 _atom_site_label
 _atom_site_symmetry_multiplicity
 _atom_site_fract_x
 _atom_site_fract_y
 _atom_site_fract_z
 _atom_site_occupancy
  Ba  Ba0  1  0.49775100  0.49775100  0.00224900  1
  Ba  Ba1  1  0.00224900  0.00224900  0.49775100  1
  Ba  Ba2  1  0.75224900  0.75224900  0.24775100  1
  Ba  Ba3  1  0.24775100  0.24775100  0.75224900  1
  Ba  Ba4  1  0.25000000  0.25000000  0.25000000  1
  Ba  Ba5  1  0.00000000  0.00000000  0.00000000  1
  Ba  Ba6  1  0.75000000  0.75000000  0.75000000  1
  Ba  Ba7  1  0.50000000  0.50000000  0.50000000  1
  In  In0  1  0.59272900  0.15700900  0.26612800  1
  In  In1  1  0.98413500  0.26612800  0.15700900  1
  In  In2  1  0.26612800  0.98413500  0.59272900  1
  In  In3  1  0.15700900  0.59272900  0.98413500  1
  In  In4  1  0.65727100  0.09299100  0.98387200  1
  In  In5  1  0.26586500  0.98387200  0.09299100  1
  In  In6  1  0.98387200  0.26586500  0.65727100  1
  In  In7  1  0.09299100  0.65727100  0.26586500  1
  In  In8  1  0.23697800  0.51164000  0.48908800  1
  In  In9  1  0.76229400  0.48908800  0.51164000  1
  In  In10  1  0.48908800  0.76229400  0.23697800  1
  In  In11  1  0.51164000  0.23697800  0.76229400  1
  In  In12  1  0.01302200  0.73836000  0.76091200  1
  In  In13  1  0.48770600  0.76091200  0.73836000  1
  In  In14  1  0.76091200  0.48770600  0.01302200  1
  In  In15  1  0.73836000  0.01302200  0.48770600  1
  Se  Se0  1  0.30719900  0.44003800  0.77442200  1
  Se  Se1  1  0.47834200  0.77442200  0.44003800  1
  Se  Se2  1  0.77442200  0.47834200  0.30719900  1
  Se  Se3  1  0.44003800  0.30719900  0.47834200  1
  Se  Se4  1  0.94280100  0.80996200  0.47557800  1
  Se  Se5  1  0.77165800  0.47557800  0.80996200  1
  Se  Se6  1  0.47557800  0.77165800  0.94280100  1
  Se  Se7  1  0.80996200  0.94280100  0.77165800  1
  Se  Se8  1  0.96540300  0.78661400  0.97158600  1
  Se  Se9  1  0.27639700  0.97158600  0.78661400  1
  Se  Se10  1  0.97158600  0.27639700  0.96540300  1
  Se  Se11  1  0.78661400  0.96540300  0.27639700  1
  Se  Se12  1  0.28459700  0.46338600  0.27841400  1
  Se  Se13  1  0.97360300  0.27841400  0.46338600  1
  Se  Se14  1  0.27841400  0.97360300  0.28459700  1
  Se  Se15  1  0.46338600  0.28459700  0.97360300  1
  Se  Se16  1  0.21192700  0.20984200  0.03828900  1
  Se  Se17  1  0.53994200  0.03828900  0.20984200  1
  Se  Se18  1  0.03828900  0.53994200  0.21192700  1
  Se  Se19  1  0.20984200  0.21192700  0.53994200  1
  Se  Se20  1  0.03807300  0.04015800  0.21171100  1
  Se  Se21  1  0.71005800  0.21171100  0.04015800  1
  Se  Se22  1  0.21171100  0.71005800  0.03807300  1
  Se  Se23  1  0.04015800  0.03807300  0.71005800  1
  Se  Se24  1  0.54114500  0.53782800  0.70923000  1
  Se  Se25  1  0.21179700  0.70923000  0.53782800  1
  Se  Se26  1  0.70923000  0.21179700  0.54114500  1
  Se  Se27  1  0.53782800  0.54114500  0.21179700  1
  Se  Se28  1  0.70885500  0.71217200  0.54077000  1
  Se  Se29  1  0.03820300  0.54077000  0.71217200  1
  Se  Se30  1  0.54077000  0.03820300  0.70885500  1
  Se  Se31  1  0.71217200  0.70885500  0.03820300  1
loop_
_geom_bond_atom_site_label_1
_geom_bond_atom_site_label_2
_geom_bond_distance
_geom_bond_site_symmetry_2
Ba0 Se15 3.413111 1_554
Ba0 Se12 3.413111 1_555
Ba0 Se5 3.419959 1_554
Ba0 Se6 3.419959 1_554
Ba0 Se21 3.454716 1_555
Ba0 Se22 3.454716 1_555
Ba0 Se24 3.495620 1_554
Ba0 Se27 3.495620 1_555
Ba1 Se14 3.413111 1_545
Ba1 Se13 3.413111 1_455
Ba1 Se7 3.419966 1_445
Ba1 Se4 3.419972 1_445
Ba1 Se23 3.454716 1_555
Ba1 Se20 3.454716 1_555
Ba1 Se26 3.495620 1_455
Ba1 Se25 3.495620 1_545
Ba2 Se11 3.413111 1_555
Ba2 Se8 3.413111 1_554
Ba2 Se1 3.419959 1_555
Ba2 Se2 3.419959 1_555
Ba2 Se18 3.454716 1_655
Ba2 Se17 3.454716 1_565
Ba2 Se28 3.495620 1_555
Ba2 Se31 3.495620 1_555
Ba3 Se10 3.413111 1_455
Ba3 Se9 3.413111 1_545
Ba3 Se3 3.419966 1_555
Ba3 Se0 3.419972 1_555
Ba3 Se16 3.454716 1_556
Ba3 Se19 3.454716 1_555
Ba3 Se30 3.495620 1_555
Ba3 Se29 3.495620 1_555
Ba4 Se12 3.417692 1_555
Ba4 Se15 3.417692 1_554
Ba4 Se13 3.417692 1_455
Ba4 Se14 3.417692 1_545
Ba4 Se19 3.476880 1_555
Ba4 Se17 3.476880 1_555
Ba4 Se18 3.476880 1_555
Ba4 Se16 3.476880 1_555
Ba5 Se10 3.417692 1_454
Ba5 Se9 3.417692 1_544
Ba5 Se11 3.417692 1_445
Ba5 Se8 3.417692 1_444
Ba5 Se20 3.476880 1_555
Ba5 Se22 3.476880 1_545
Ba5 Se21 3.476880 1_455
Ba5 Se23 3.476880 1_554
Ba6 Se7 3.430270 1_555
Ba6 Se4 3.430276 1_555
Ba6 Se5 3.430283 1_555
Ba6 Se6 3.430283 1_555
Ba6 Se31 3.468304 1_556
Ba6 Se29 3.468304 1_655
Ba6 Se30 3.468304 1_565
Ba6 Se28 3.468304 1_555
Ba7 Se3 3.430270 1_555
Ba7 Se0 3.430276 1_555
Ba7 Se1 3.430283 1_555
Ba7 Se2 3.430283 1_555
Ba7 Se24 3.468304 1_555
Ba7 Se26 3.468304 1_555
Ba7 Se25 3.468304 1_555
Ba7 Se27 3.468304 1_555
In0 Se3 2.594141 1_555
In0 Se21 2.642603 1_555
In0 Se17 2.651974 1_555
In0 Se11 2.658400 1_545
In1 Se2 2.594141 1_555
In1 Se20 2.642606 1_655
In1 Se16 2.651960 1_655
In1 Se10 2.658411 1_554
In2 Se1 2.594141 1_555
In2 Se23 2.642609 1_565
In2 Se19 2.651962 1_565
In2 Se9 2.658397 1_555
In3 Se0 2.594141 1_555
In3 Se22 2.642594 1_556
In3 Se18 2.651965 1_556
In3 Se8 2.658407 1_455
In4 Se7 2.594141 1_545
In4 Se17 2.642603 1_556
In4 Se21 2.651974 1_556
In4 Se15 2.658400 1_555
In5 Se6 2.594141 1_554
In5 Se16 2.642606 1_565
In5 Se20 2.651960 1_565
In5 Se14 2.658411 1_555
In6 Se5 2.594141 1_555
In6 Se19 2.642609 1_655
In6 Se23 2.651962 1_655
In6 Se13 2.658397 1_555
In7 Se4 2.594141 1_455
In7 Se18 2.642594 1_555
In7 Se22 2.651965 1_555
In7 Se12 2.658407 1_555
In8 Se12 2.589190 1_555
In8 Se25 2.647923 1_555
In8 Se29 2.650926 1_555
In8 Se3 2.662185 1_555
In9 Se13 2.589190 1_555
In9 Se24 2.647923 1_555
In9 Se28 2.650926 1_555
In9 Se2 2.662176 1_555
In10 Se14 2.589190 1_555
In10 Se27 2.647923 1_555
In10 Se31 2.650926 1_555
In10 Se1 2.662189 1_555
In11 Se15 2.589190 1_555
In11 Se26 2.647923 1_555
In11 Se30 2.650926 1_555
In11 Se0 2.662179 1_555
In12 Se8 2.589190 1_455
In12 Se29 2.647923 1_555
In12 Se25 2.650926 1_555
In12 Se7 2.662185 1_455
In13 Se9 2.589190 1_555
In13 Se28 2.647923 1_555
In13 Se24 2.650926 1_555
In13 Se6 2.662176 1_555
In14 Se10 2.589190 1_554
In14 Se31 2.647923 1_555
In14 Se27 2.650926 1_555
In14 Se5 2.662189 1_554
In15 Se11 2.589190 1_545
In15 Se30 2.647923 1_555
In15 Se26 2.650926 1_555
In15 Se4 2.662179 1_545
