# generated using pymatgen
data_Sr2MgMnMoO6
_symmetry_space_group_name_H-M   'P 1'
_cell_length_a   6.06176970
_cell_length_b   6.77157662
_cell_length_c   5.72571907
_cell_angle_alpha   114.88340151
_cell_angle_beta   113.20821249
_cell_angle_gamma   108.35958416
_symmetry_Int_Tables_number   1
_chemical_formula_structural   Sr2MgMnMoO6
_chemical_formula_sum   'Sr2 Mg1 Mn1 Mo1 O6'
_cell_volume   160.09290235
_cell_formula_units_Z   1
loop_
 _symmetry_equiv_pos_site_id
 _symmetry_equiv_pos_as_xyz
  1  'x, y, z'
loop_
 _atom_site_type_symbol
 _atom_site_label
 _atom_site_symmetry_multiplicity
 _atom_site_fract_x
 _atom_site_fract_y
 _atom_site_fract_z
 _atom_site_occupancy
  Sr  Sr0  1  0.73986090  0.32102324  0.55080181  1
  Sr  Sr1  1  0.26013910  0.67897676  0.44919819  1
  Mg  Mg0  1  -0.00000000  0.00000000  0.50000000  1
  Mn  Mn0  1  -0.00000000  0.00000000  -0.00000000  1
  Mo  Mo0  1  0.50000000  0.50000000  -0.00000000  1
  O  O0  1  0.16830519  0.30600002  0.48308537  1
  O  O1  1  0.83169481  0.69399998  0.51691463  1
  O  O2  1  0.11529204  0.29169368  0.93702126  1
  O  O3  1  0.88470796  0.70830632  0.06297874  1
  O  O4  1  0.46997135  0.15727598  0.80453023  1
  O  O5  1  0.53002865  0.84272402  0.19546977  1
loop_
_geom_bond_atom_site_label_1
_geom_bond_atom_site_label_2
_geom_bond_distance
_geom_bond_site_symmetry_2
Mg0 O3 2.060093 1_445
Mg0 O2 2.060093 1_555
Mg0 O0 2.063702 1_555
Mg0 O1 2.063702 1_445
Mg0 O4 2.213914 1_555
Mg0 O5 2.213914 1_445
Mn0 O3 2.109119 1_445
Mn0 O2 2.109119 1_554
Mn0 O1 2.146192 1_444
Mn0 O0 2.146192 1_555
Mo0 O5 2.014755 1_555
Mo0 O4 2.014755 1_554
Mo0 O2 2.096415 1_554
Mo0 O3 2.096415 1_555
Mo0 O0 2.214082 1_554
Mo0 O1 2.214082 1_555
O0 Sr1 2.517582 1_555
O0 Sr0 2.798689 1_455
O1 Sr0 2.517582 1_555
O1 Sr1 2.798689 1_655
O2 Sr1 2.509279 1_556
O2 Sr0 2.607052 1_455
O3 Sr0 2.509279 1_554
O3 Sr1 2.607052 1_655
O4 Sr1 2.463143 1_545
O4 Sr0 2.846519 1_555
O5 Sr0 2.463143 1_565
O5 Sr1 2.846519 1_555
