# generated using pymatgen
data_K2LiAlH6
_symmetry_space_group_name_H-M   'P 1'
_cell_length_a   9.56678602
_cell_length_b   9.56678655
_cell_length_c   9.56678741
_cell_angle_alpha   33.71382534
_cell_angle_beta   33.71381878
_cell_angle_gamma   33.71382814
_symmetry_Int_Tables_number   1
_chemical_formula_structural   K2LiAlH6
_chemical_formula_sum   'K4 Li2 Al2 H12'
_cell_volume   240.33102027
_cell_formula_units_Z   2
loop_
 _symmetry_equiv_pos_site_id
 _symmetry_equiv_pos_as_xyz
  1  'x, y, z'
loop_
 _atom_site_type_symbol
 _atom_site_label
 _atom_site_symmetry_multiplicity
 _atom_site_fract_x
 _atom_site_fract_y
 _atom_site_fract_z
 _atom_site_occupancy
  K  K0  1  0.12709566  0.12709566  0.12709566  1
  K  K1  1  0.87290434  0.87290434  0.87290434  1
  K  K2  1  0.28651616  0.28651616  0.28651616  1
  K  K3  1  0.71348384  0.71348384  0.71348384  1
  Li  Li0  1  0.40787708  0.40787708  0.40787708  1
  Li  Li1  1  0.59212292  0.59212292  0.59212292  1
  Al  Al0  1  -0.00000000  0.00000000  -0.00000000  1
  Al  Al1  1  0.50000000  0.50000000  0.50000000  1
  H  H0  1  0.18841061  0.18841061  0.73501986  1
  H  H1  1  0.18841061  0.73501986  0.18841061  1
  H  H2  1  0.73501986  0.18841061  0.18841061  1
  H  H3  1  0.26498014  0.81158939  0.81158939  1
  H  H4  1  0.81158939  0.81158939  0.26498014  1
  H  H5  1  0.81158939  0.26498014  0.81158939  1
  H  H6  1  0.39505668  0.39505668  0.82786972  1
  H  H7  1  0.39505668  0.82786972  0.39505668  1
  H  H8  1  0.60494332  0.17213028  0.60494332  1
  H  H9  1  0.60494332  0.60494332  0.17213028  1
  H  H10  1  0.17213028  0.60494332  0.60494332  1
  H  H11  1  0.82786972  0.39505668  0.39505668  1
loop_
_geom_bond_atom_site_label_1
_geom_bond_atom_site_label_2
_geom_bond_distance
_geom_bond_site_symmetry_2
Al0 H4 1.768011 1_445
Al0 H0 1.768011 1_554
Al0 H2 1.768011 1_455
Al0 H3 1.768011 1_544
Al0 H1 1.768011 1_545
Al0 H5 1.768011 1_454
Al1 H10 1.747409 1_555
Al1 H11 1.747409 1_555
Al1 H8 1.747409 1_555
Al1 H7 1.747409 1_555
Al1 H9 1.747409 1_555
Al1 H6 1.747409 1_555
H0 Li0 2.020274 1_555
H0 K3 2.790162 1_545
H0 K3 2.790162 1_455
H0 K0 2.830036 1_556
H0 K2 2.870264 1_555
H1 Li0 2.020274 1_555
H1 K3 2.790161 1_554
H1 K3 2.790161 1_455
H1 K0 2.830036 1_565
H1 K2 2.870264 1_555
H2 Li0 2.020274 1_555
H2 K3 2.790162 1_554
H2 K3 2.790162 1_545
H2 K0 2.830035 1_655
H2 K2 2.870264 1_555
H3 Li1 2.020274 1_555
H3 K2 2.790162 1_556
H3 K2 2.790162 1_565
H3 K1 2.830035 1_455
H3 K3 2.870264 1_555
H4 Li1 2.020274 1_555
H4 K2 2.790162 1_565
H4 K2 2.790162 1_655
H4 K1 2.830036 1_554
H4 K3 2.870264 1_555
H5 Li1 2.020274 1_555
H5 K2 2.790161 1_556
H5 K2 2.790161 1_655
H5 K1 2.830036 1_545
H5 K3 2.870264 1_555
H6 Li1 1.990178 1_555
H6 K1 2.782545 1_455
H6 K1 2.782545 1_545
H6 K0 2.802474 1_556
H6 K2 2.836037 1_556
H7 Li1 1.990179 1_555
H7 K1 2.782545 1_554
H7 K1 2.782545 1_455
H7 K0 2.802474 1_565
H7 K2 2.836037 1_565
H8 Li0 1.990179 1_555
H8 K0 2.782545 1_556
H8 K0 2.782545 1_655
H8 K1 2.802474 1_545
H8 K3 2.836037 1_545
H9 Li0 1.990178 1_555
H9 K0 2.782545 1_655
H9 K0 2.782545 1_565
H9 K1 2.802474 1_554
H9 K3 2.836037 1_554
H10 Li0 1.990179 1_555
H10 K0 2.782545 1_556
H10 K0 2.782545 1_565
H10 K1 2.802474 1_455
H10 K3 2.836036 1_455
H11 Li1 1.990179 1_555
H11 K1 2.782545 1_554
H11 K1 2.782545 1_545
H11 K0 2.802474 1_655
H11 K2 2.836036 1_655
