# generated using pymatgen
data_RbMgFe(SeO4)2
_symmetry_space_group_name_H-M   'P 1'
_cell_length_a   6.27299248
_cell_length_b   5.76745868
_cell_length_c   7.51177748
_cell_angle_alpha   79.96556004
_cell_angle_beta   101.72609367
_cell_angle_gamma   127.55845288
_symmetry_Int_Tables_number   1
_chemical_formula_structural   RbMgFe(SeO4)2
_chemical_formula_sum   'Rb1 Mg1 Fe1 Se2 O8'
_cell_volume   210.50041666
_cell_formula_units_Z   1
loop_
 _symmetry_equiv_pos_site_id
 _symmetry_equiv_pos_as_xyz
  1  'x, y, z'
loop_
 _atom_site_type_symbol
 _atom_site_label
 _atom_site_symmetry_multiplicity
 _atom_site_fract_x
 _atom_site_fract_y
 _atom_site_fract_z
 _atom_site_occupancy
  Rb  Rb0  1  0.00036811  0.03861319  0.96632066  1
  Mg  Mg0  1  0.70550422  0.31680129  0.23826261  1
  Fe  Fe0  1  0.04700951  0.94797071  0.45124708  1
  Se  Se0  1  0.61455307  0.34325120  0.73698553  1
  Se  Se1  1  0.40164998  0.63394070  0.29834537  1
  O  O0  1  0.70386167  0.15669079  0.67676396  1
  O  O1  1  0.78584024  0.69151578  0.64832217  1
  O  O2  1  0.28121949  0.18630597  0.66872245  1
  O  O3  1  0.75805661  0.98675458  0.30734079  1
  O  O4  1  0.30670093  0.66779643  0.07880818  1
  O  O5  1  0.65169302  0.36670645  0.96212067  1
  O  O6  1  1.01721881  0.68378077  0.33413563  1
  O  O7  1  0.40132534  0.31737215  0.30405489  1
loop_
_geom_bond_atom_site_label_1
_geom_bond_atom_site_label_2
_geom_bond_distance
_geom_bond_site_symmetry_2
Mg0 O6 1.932644 1_555
Mg0 O5 2.031099 1_554
Mg0 O7 2.068015 1_555
Mg0 O3 2.086303 1_545
Fe0 O6 1.784276 1_455
Fe0 O2 2.015349 1_565
Fe0 O3 2.029212 1_455
Fe0 O1 2.081311 1_455
Fe0 O7 2.259780 1_565
O0 Se0 1.638218 1_555
O0 Rb0 2.835128 1_655
O1 Se0 1.681103 1_555
O1 Rb0 2.932571 1_665
O2 Se0 1.694991 1_555
O2 Rb0 2.816835 1_555
O3 Se1 1.893105 1_555
O3 Rb0 3.118252 1_664
O4 Se1 1.656137 1_555
O4 Rb0 3.079286 1_554
O5 Se0 1.677429 1_555
O5 Rb0 3.079495 1_665
O5 Rb0 3.298647 1_555
O6 Rb0 3.163498 1_664
O7 Se1 1.817578 1_555
O7 Rb0 3.040577 1_554
