# generated using pymatgen
data_NaSbCl6
_symmetry_space_group_name_H-M   'P 1'
_cell_length_a   6.41222487
_cell_length_b   6.41222487
_cell_length_c   10.68095785
_cell_angle_alpha   90.00000000
_cell_angle_beta   90.00000000
_cell_angle_gamma   90.00000000
_symmetry_Int_Tables_number   1
_chemical_formula_structural   NaSbCl6
_chemical_formula_sum   'Na2 Sb2 Cl12'
_cell_volume   439.16496829
_cell_formula_units_Z   2
loop_
 _symmetry_equiv_pos_site_id
 _symmetry_equiv_pos_as_xyz
  1  'x, y, z'
loop_
 _atom_site_type_symbol
 _atom_site_label
 _atom_site_symmetry_multiplicity
 _atom_site_fract_x
 _atom_site_fract_y
 _atom_site_fract_z
 _atom_site_occupancy
  Na  Na0  1  -0.00000000  -0.00000000  0.75000000  1
  Na  Na1  1  -0.00000000  -0.00000000  0.25000000  1
  Sb  Sb0  1  0.50000000  -0.00000000  0.50000000  1
  Sb  Sb1  1  -0.00000000  0.50000000  -0.00000000  1
  Cl  Cl0  1  0.78597105  0.19406923  -0.00000000  1
  Cl  Cl1  1  0.80593077  0.78597105  0.50000000  1
  Cl  Cl2  1  0.19406923  0.21402895  0.50000000  1
  Cl  Cl3  1  0.21402895  0.80593077  -0.00000000  1
  Cl  Cl4  1  0.21724852  0.34930120  0.15806926  1
  Cl  Cl5  1  0.65069880  0.21724852  0.65806926  1
  Cl  Cl6  1  0.34930120  0.78275148  0.65806926  1
  Cl  Cl7  1  0.78275148  0.65069880  0.15806926  1
  Cl  Cl8  1  0.78275148  0.65069880  0.84193074  1
  Cl  Cl9  1  0.34930120  0.78275148  0.34193074  1
  Cl  Cl10  1  0.65069880  0.21724852  0.34193074  1
  Cl  Cl11  1  0.21724852  0.34930120  0.84193074  1
loop_
_geom_bond_atom_site_label_1
_geom_bond_atom_site_label_2
_geom_bond_distance
_geom_bond_site_symmetry_2
Cl0 Sb1 2.394106 1_655
Cl0 Na1 3.249959 1_655
Cl0 Na0 3.249959 1_654
Cl1 Sb0 2.394106 1_565
Cl1 Na1 3.249959 1_665
Cl1 Na0 3.249959 1_665
Cl2 Sb0 2.394106 1_555
Cl2 Na0 3.249959 1_555
Cl2 Na1 3.249959 1_555
Cl3 Sb1 2.394106 1_555
Cl3 Na0 3.249959 1_564
Cl3 Na1 3.249959 1_565
Cl4 Sb1 2.392656 1_555
Cl4 Na1 2.814501 1_555
Cl5 Sb0 2.392656 1_555
Cl5 Na0 2.814501 1_655
Cl6 Sb0 2.392656 1_565
Cl6 Na0 2.814501 1_565
Cl7 Sb1 2.392656 1_655
Cl7 Na1 2.814501 1_665
Cl8 Sb1 2.392656 1_656
Cl8 Na0 2.814501 1_665
Cl9 Sb0 2.392656 1_565
Cl9 Na1 2.814501 1_565
Cl10 Sb0 2.392656 1_555
Cl10 Na1 2.814501 1_655
Cl11 Sb1 2.392656 1_556
Cl11 Na0 2.814501 1_555
