# generated using pymatgen
data_MgTe2Mo3W(Se2S)2
_symmetry_space_group_name_H-M   'P 1'
_cell_length_a   6.67137800
_cell_length_b   6.67122540
_cell_length_c   93.35300056
_cell_angle_alpha   90.01106409
_cell_angle_beta   90.00000000
_cell_angle_gamma   120.00076661
_symmetry_Int_Tables_number   1
_chemical_formula_structural   MgTe2Mo3W(Se2S)2
_chemical_formula_sum   'Mg8 Te16 Mo24 W8 Se32 S16'
_cell_volume   3598.12883937
_cell_formula_units_Z   8
loop_
 _symmetry_equiv_pos_site_id
 _symmetry_equiv_pos_as_xyz
  1  'x, y, z'
loop_
 _atom_site_type_symbol
 _atom_site_label
 _atom_site_symmetry_multiplicity
 _atom_site_fract_x
 _atom_site_fract_y
 _atom_site_fract_z
 _atom_site_occupancy
  Mg  Mg0_0  1  0.00000750  0.00001450  0.28019300  1
  Mg  Mg0_1  1  0.00000750  0.00001450  0.78019300  1
  Mg  Mg0_2  1  0.00000750  0.50001450  0.28019300  1
  Mg  Mg0_3  1  0.00000750  0.50001450  0.78019300  1
  Mg  Mg0_4  1  0.50000750  0.00001450  0.28019300  1
  Mg  Mg0_5  1  0.50000750  0.00001450  0.78019300  1
  Mg  Mg0_6  1  0.50000750  0.50001450  0.28019300  1
  Mg  Mg0_7  1  0.50000750  0.50001450  0.78019300  1
  Te  Te0_0  1  0.16673100  0.33346200  0.35243300  1
  Te  Te0_1  1  0.16673100  0.33346200  0.85243300  1
  Te  Te0_2  1  0.16673100  0.83346200  0.35243300  1
  Te  Te0_3  1  0.16673100  0.83346200  0.85243300  1
  Te  Te0_4  1  0.66673100  0.33346200  0.35243300  1
  Te  Te0_5  1  0.66673100  0.33346200  0.85243300  1
  Te  Te0_6  1  0.66673100  0.83346200  0.35243300  1
  Te  Te0_7  1  0.66673100  0.83346200  0.85243300  1
  Te  Te1_0  1  0.16666900  0.33333900  0.31155650  1
  Te  Te1_1  1  0.16666900  0.33333900  0.81155650  1
  Te  Te1_2  1  0.16666900  0.83333900  0.31155650  1
  Te  Te1_3  1  0.16666900  0.83333900  0.81155650  1
  Te  Te1_4  1  0.66666900  0.33333900  0.31155650  1
  Te  Te1_5  1  0.66666900  0.33333900  0.81155650  1
  Te  Te1_6  1  0.66666900  0.83333900  0.31155650  1
  Te  Te1_7  1  0.66666900  0.83333900  0.81155650  1
  Mo  Mo0_0  1  0.16659050  0.33318050  0.04698850  1
  Mo  Mo0_1  1  0.16659050  0.33318050  0.54698850  1
  Mo  Mo0_2  1  0.16659050  0.83318050  0.04698850  1
  Mo  Mo0_3  1  0.16659050  0.83318050  0.54698850  1
  Mo  Mo0_4  1  0.66659050  0.33318050  0.04698850  1
  Mo  Mo0_5  1  0.66659050  0.33318050  0.54698850  1
  Mo  Mo0_6  1  0.66659050  0.83318050  0.04698850  1
  Mo  Mo0_7  1  0.66659050  0.83318050  0.54698850  1
  Mo  Mo1_0  1  0.33335800  0.16671550  0.14099100  1
  Mo  Mo1_1  1  0.33335800  0.16671550  0.64099100  1
  Mo  Mo1_2  1  0.33335800  0.66671550  0.14099100  1
  Mo  Mo1_3  1  0.33335800  0.66671550  0.64099100  1
  Mo  Mo1_4  1  0.83335800  0.16671550  0.14099100  1
  Mo  Mo1_5  1  0.83335800  0.16671550  0.64099100  1
  Mo  Mo1_6  1  0.83335800  0.66671550  0.14099100  1
  Mo  Mo1_7  1  0.83335800  0.66671550  0.64099100  1
  Mo  Mo2_0  1  0.33336650  0.16673350  0.33214250  1
  Mo  Mo2_1  1  0.33336650  0.16673350  0.83214250  1
  Mo  Mo2_2  1  0.33336650  0.66673350  0.33214250  1
  Mo  Mo2_3  1  0.33336650  0.66673350  0.83214250  1
  Mo  Mo2_4  1  0.83336650  0.16673350  0.33214250  1
  Mo  Mo2_5  1  0.83336650  0.16673350  0.83214250  1
  Mo  Mo2_6  1  0.83336650  0.66673350  0.33214250  1
  Mo  Mo2_7  1  0.83336650  0.66673350  0.83214250  1
  W  W0_0  1  0.16668150  0.33336200  0.23000000  1
  W  W0_1  1  0.16668150  0.33336200  0.73000000  1
  W  W0_2  1  0.16668150  0.83336200  0.23000000  1
  W  W0_3  1  0.16668150  0.83336200  0.73000000  1
  W  W0_4  1  0.66668150  0.33336200  0.23000000  1
  W  W0_5  1  0.66668150  0.33336200  0.73000000  1
  W  W0_6  1  0.66668150  0.83336200  0.23000000  1
  W  W0_7  1  0.66668150  0.83336200  0.73000000  1
  Se  Se0_0  1  0.16671050  0.33342200  0.15887600  1
  Se  Se0_1  1  0.16671050  0.33342200  0.65887600  1
  Se  Se0_2  1  0.16671050  0.83342200  0.15887600  1
  Se  Se0_3  1  0.16671050  0.83342200  0.65887600  1
  Se  Se0_4  1  0.66671050  0.33342200  0.15887600  1
  Se  Se0_5  1  0.66671050  0.33342200  0.65887600  1
  Se  Se0_6  1  0.66671050  0.83342200  0.15887600  1
  Se  Se0_7  1  0.66671050  0.83342200  0.65887600  1
  Se  Se1_0  1  0.33321700  0.16643400  0.02911150  1
  Se  Se1_1  1  0.33321700  0.16643400  0.52911150  1
  Se  Se1_2  1  0.33321700  0.66643400  0.02911150  1
  Se  Se1_3  1  0.33321700  0.66643400  0.52911150  1
  Se  Se1_4  1  0.83321700  0.16643400  0.02911150  1
  Se  Se1_5  1  0.83321700  0.16643400  0.52911150  1
  Se  Se1_6  1  0.83321700  0.66643400  0.02911150  1
  Se  Se1_7  1  0.83321700  0.66643400  0.52911150  1
  Se  Se2_0  1  0.33330100  0.16660100  0.06487150  1
  Se  Se2_1  1  0.33330100  0.16660100  0.56487150  1
  Se  Se2_2  1  0.33330100  0.66660100  0.06487150  1
  Se  Se2_3  1  0.33330100  0.66660100  0.56487150  1
  Se  Se2_4  1  0.83330100  0.16660100  0.06487150  1
  Se  Se2_5  1  0.83330100  0.16660100  0.56487150  1
  Se  Se2_6  1  0.83330100  0.66660100  0.06487150  1
  Se  Se2_7  1  0.83330100  0.66660100  0.56487150  1
  Se  Se3_0  1  0.16666550  0.33333100  0.12311950  1
  Se  Se3_1  1  0.16666550  0.33333100  0.62311950  1
  Se  Se3_2  1  0.16666550  0.83333100  0.12311950  1
  Se  Se3_3  1  0.16666550  0.83333100  0.62311950  1
  Se  Se3_4  1  0.66666550  0.33333100  0.12311950  1
  Se  Se3_5  1  0.66666550  0.33333100  0.62311950  1
  Se  Se3_6  1  0.66666550  0.83333100  0.12311950  1
  Se  Se3_7  1  0.66666550  0.83333100  0.62311950  1
  S  S0_0  1  0.33332200  0.16664250  0.21374300  1
  S  S0_1  1  0.33332200  0.16664250  0.71374300  1
  S  S0_2  1  0.33332200  0.66664250  0.21374300  1
  S  S0_3  1  0.33332200  0.66664250  0.71374300  1
  S  S0_4  1  0.83332200  0.16664250  0.21374300  1
  S  S0_5  1  0.83332200  0.16664250  0.71374300  1
  S  S0_6  1  0.83332200  0.66664250  0.21374300  1
  S  S0_7  1  0.83332200  0.66664250  0.71374300  1
  S  S1_0  1  0.33338100  0.16676200  0.24639000  1
  S  S1_1  1  0.33338100  0.16676200  0.74639000  1
  S  S1_2  1  0.33338100  0.66676200  0.24639000  1
  S  S1_3  1  0.33338100  0.66676200  0.74639000  1
  S  S1_4  1  0.83338100  0.16676200  0.24639000  1
  S  S1_5  1  0.83338100  0.16676200  0.74639000  1
  S  S1_6  1  0.83338100  0.66676200  0.24639000  1
  S  S1_7  1  0.83338100  0.66676200  0.74639000  1
loop_
_geom_bond_atom_site_label_1
_geom_bond_atom_site_label_2
_geom_bond_distance
_geom_bond_site_symmetry_2
Mg0_0 Mg0_6 3.335612 1_555
Mg0_0 Mg0_6 3.335612 1_445
Mg0_0 Mg0_2 3.335613 1_545
Mg0_0 Mg0_2 3.335613 1_555
Mg0_0 Mg0_4 3.335689 1_555
Mg0_0 Mg0_4 3.335689 1_455
Mg0_0 Te1_0 3.504064 1_555
Mg0_0 Te1_2 3.504666 1_545
Mg0_0 Te1_6 3.504671 1_445
Mg0_1 Mg0_7 3.335612 1_555
Mg0_1 Mg0_7 3.335612 1_445
Mg0_1 Mg0_3 3.335613 1_545
Mg0_1 Mg0_3 3.335613 1_555
Mg0_1 Mg0_5 3.335689 1_555
Mg0_1 Mg0_5 3.335689 1_455
Mg0_1 Te1_1 3.504064 1_555
Mg0_1 Te1_3 3.504666 1_545
Mg0_1 Te1_7 3.504671 1_445
Mg0_2 Mg0_4 3.335612 1_565
Mg0_2 Mg0_4 3.335612 1_455
Mg0_2 Mg0_6 3.335689 1_555
Mg0_2 Mg0_6 3.335689 1_455
Mg0_2 Te1_2 3.504064 1_555
Mg0_2 Te1_0 3.504666 1_555
Mg0_2 Te1_4 3.504671 1_455
Mg0_3 Mg0_5 3.335612 1_455
Mg0_3 Mg0_5 3.335612 1_565
Mg0_3 Mg0_7 3.335689 1_555
Mg0_3 Mg0_7 3.335689 1_455
Mg0_3 Te1_3 3.504064 1_555
Mg0_3 Te1_1 3.504666 1_555
Mg0_3 Te1_5 3.504671 1_455
Mg0_4 Mg0_6 3.335613 1_545
Mg0_4 Mg0_6 3.335613 1_555
Mg0_4 Te1_4 3.504064 1_555
Mg0_4 Te1_6 3.504666 1_545
Mg0_4 Te1_2 3.504671 1_545
Mg0_5 Mg0_7 3.335613 1_545
Mg0_5 Mg0_7 3.335613 1_555
Mg0_5 Te1_5 3.504064 1_555
Mg0_5 Te1_7 3.504666 1_545
Mg0_5 Te1_3 3.504671 1_545
Mg0_6 Te1_6 3.504064 1_555
Mg0_6 Te1_4 3.504666 1_555
Mg0_6 Te1_0 3.504671 1_555
Mg0_7 Te1_7 3.504064 1_555
Mg0_7 Te1_5 3.504666 1_555
Mg0_7 Te1_1 3.504671 1_555
Mo0_0 Se1_2 2.548235 1_555
Mo0_0 Se1_0 2.548369 1_555
Mo0_0 Se1_4 2.548371 1_455
Mo0_0 Se2_4 2.548652 1_455
Mo0_0 Se2_0 2.548654 1_555
Mo0_0 Se2_2 2.548769 1_555
Mo0_1 Se1_3 2.548235 1_555
Mo0_1 Se1_1 2.548369 1_555
Mo0_1 Se1_5 2.548371 1_455
Mo0_1 Se2_5 2.548652 1_455
Mo0_1 Se2_1 2.548654 1_555
Mo0_1 Se2_3 2.548769 1_555
Mo0_2 Se1_0 2.548235 1_565
Mo0_2 Se1_2 2.548369 1_555
Mo0_2 Se1_6 2.548371 1_455
Mo0_2 Se2_6 2.548652 1_455
Mo0_2 Se2_2 2.548654 1_555
Mo0_2 Se2_0 2.548769 1_565
Mo0_3 Se1_1 2.548235 1_565
Mo0_3 Se1_3 2.548369 1_555
Mo0_3 Se1_7 2.548371 1_455
Mo0_3 Se2_7 2.548652 1_455
Mo0_3 Se2_3 2.548654 1_555
Mo0_3 Se2_1 2.548769 1_565
Mo0_4 Se1_6 2.548235 1_555
Mo0_4 Se1_4 2.548369 1_555
Mo0_4 Se1_0 2.548371 1_555
Mo0_4 Se2_0 2.548652 1_555
Mo0_4 Se2_4 2.548654 1_555
Mo0_4 Se2_6 2.548769 1_555
Mo0_5 Se1_7 2.548235 1_555
Mo0_5 Se1_5 2.548369 1_555
Mo0_5 Se1_1 2.548371 1_555
Mo0_5 Se2_1 2.548652 1_555
Mo0_5 Se2_5 2.548654 1_555
Mo0_5 Se2_7 2.548769 1_555
Mo0_6 Se1_4 2.548235 1_565
Mo0_6 Se1_6 2.548369 1_555
Mo0_6 Se1_2 2.548371 1_555
Mo0_6 Se2_2 2.548652 1_555
Mo0_6 Se2_6 2.548654 1_555
Mo0_6 Se2_4 2.548769 1_565
Mo0_7 Se1_5 2.548235 1_565
Mo0_7 Se1_7 2.548369 1_555
Mo0_7 Se1_3 2.548371 1_555
Mo0_7 Se2_3 2.548652 1_555
Mo0_7 Se2_7 2.548654 1_555
Mo0_7 Se2_5 2.548769 1_565
Mo1_0 Se3_2 2.547909 1_545
Mo1_0 Se3_4 2.548027 1_555
Mo1_0 Se3_0 2.548030 1_555
Mo1_0 Se0_4 2.548768 1_555
Mo1_0 Se0_0 2.548775 1_555
Mo1_0 Se0_2 2.548899 1_545
Mo1_1 Se3_3 2.547909 1_545
Mo1_1 Se3_5 2.548027 1_555
Mo1_1 Se3_1 2.548030 1_555
Mo1_1 Se0_5 2.548768 1_555
Mo1_1 Se0_1 2.548775 1_555
Mo1_1 Se0_3 2.548899 1_545
Mo1_2 Se3_0 2.547909 1_555
Mo1_2 Se3_6 2.548027 1_555
Mo1_2 Se3_2 2.548030 1_555
Mo1_2 Se0_6 2.548768 1_555
Mo1_2 Se0_2 2.548775 1_555
Mo1_2 Se0_0 2.548899 1_555
Mo1_3 Se3_1 2.547909 1_555
Mo1_3 Se3_7 2.548027 1_555
Mo1_3 Se3_3 2.548030 1_555
Mo1_3 Se0_7 2.548768 1_555
Mo1_3 Se0_3 2.548775 1_555
Mo1_3 Se0_1 2.548899 1_555
Mo1_4 Se3_6 2.547909 1_545
Mo1_4 Se3_0 2.548027 1_655
Mo1_4 Se3_4 2.548030 1_555
Mo1_4 Se0_0 2.548768 1_655
Mo1_4 Se0_4 2.548775 1_555
Mo1_4 Se0_6 2.548899 1_545
Mo1_5 Se3_7 2.547909 1_545
Mo1_5 Se3_1 2.548027 1_655
Mo1_5 Se3_5 2.548030 1_555
Mo1_5 Se0_1 2.548768 1_655
Mo1_5 Se0_5 2.548775 1_555
Mo1_5 Se0_7 2.548899 1_545
Mo1_6 Se3_4 2.547909 1_555
Mo1_6 Se3_2 2.548027 1_655
Mo1_6 Se3_6 2.548030 1_555
Mo1_6 Se0_2 2.548768 1_655
Mo1_6 Se0_6 2.548775 1_555
Mo1_6 Se0_4 2.548899 1_555
Mo1_7 Se3_5 2.547909 1_555
Mo1_7 Se3_3 2.548027 1_655
Mo1_7 Se3_7 2.548030 1_555
Mo1_7 Se0_3 2.548768 1_655
Mo1_7 Se0_7 2.548775 1_555
Mo1_7 Se0_5 2.548899 1_555
Mo2_0 Te0_0 2.701234 1_555
Mo2_0 Te0_4 2.701236 1_555
Mo2_0 Te0_2 2.701273 1_545
Mo2_0 Te1_2 2.720589 1_545
Mo2_0 Te1_4 2.720699 1_555
Mo2_0 Te1_0 2.720701 1_555
Mo2_1 Te0_1 2.701234 1_555
Mo2_1 Te0_5 2.701236 1_555
Mo2_1 Te0_3 2.701273 1_545
Mo2_1 Te1_3 2.720589 1_545
Mo2_1 Te1_5 2.720699 1_555
Mo2_1 Te1_1 2.720701 1_555
Mo2_2 Te0_2 2.701234 1_555
Mo2_2 Te0_6 2.701236 1_555
Mo2_2 Te0_0 2.701273 1_555
Mo2_2 Te1_0 2.720589 1_555
Mo2_2 Te1_6 2.720699 1_555
Mo2_2 Te1_2 2.720701 1_555
Mo2_3 Te0_3 2.701234 1_555
Mo2_3 Te0_7 2.701236 1_555
Mo2_3 Te0_1 2.701273 1_555
Mo2_3 Te1_1 2.720589 1_555
Mo2_3 Te1_7 2.720699 1_555
Mo2_3 Te1_3 2.720701 1_555
Mo2_4 Te0_4 2.701234 1_555
Mo2_4 Te0_0 2.701236 1_655
Mo2_4 Te0_6 2.701273 1_545
Mo2_4 Te1_6 2.720589 1_545
Mo2_4 Te1_0 2.720699 1_655
Mo2_4 Te1_4 2.720701 1_555
Mo2_5 Te0_5 2.701234 1_555
Mo2_5 Te0_1 2.701236 1_655
Mo2_5 Te0_7 2.701273 1_545
Mo2_5 Te1_7 2.720589 1_545
Mo2_5 Te1_1 2.720699 1_655
Mo2_5 Te1_5 2.720701 1_555
Mo2_6 Te0_6 2.701234 1_555
Mo2_6 Te0_2 2.701236 1_655
Mo2_6 Te0_4 2.701273 1_555
Mo2_6 Te1_4 2.720589 1_555
Mo2_6 Te1_2 2.720699 1_655
Mo2_6 Te1_6 2.720701 1_555
Mo2_7 Te0_7 2.701234 1_555
Mo2_7 Te0_3 2.701236 1_655
Mo2_7 Te0_5 2.701273 1_555
Mo2_7 Te1_5 2.720589 1_555
Mo2_7 Te1_3 2.720699 1_655
Mo2_7 Te1_7 2.720701 1_555
S0_0 W0_4 2.451947 1_555
S0_0 W0_0 2.451949 1_555
S0_0 W0_2 2.451953 1_545
S0_1 W0_5 2.451947 1_555
S0_1 W0_1 2.451949 1_555
S0_1 W0_3 2.451953 1_545
S0_2 W0_6 2.451947 1_555
S0_2 W0_2 2.451949 1_555
S0_2 W0_0 2.451953 1_555
S0_3 W0_7 2.451947 1_555
S0_3 W0_3 2.451949 1_555
S0_3 W0_1 2.451953 1_555
S0_4 W0_0 2.451947 1_655
S0_4 W0_4 2.451949 1_555
S0_4 W0_6 2.451953 1_545
S0_5 W0_1 2.451947 1_655
S0_5 W0_5 2.451949 1_555
S0_5 W0_7 2.451953 1_545
S0_6 W0_2 2.451947 1_655
S0_6 W0_6 2.451949 1_555
S0_6 W0_4 2.451953 1_555
S0_7 W0_3 2.451947 1_655
S0_7 W0_7 2.451949 1_555
S0_7 W0_5 2.451953 1_555
S1_0 W0_0 2.459646 1_555
S1_0 W0_4 2.459650 1_555
S1_0 W0_2 2.459665 1_545
S1_1 W0_1 2.459646 1_555
S1_1 W0_5 2.459650 1_555
S1_1 W0_3 2.459665 1_545
S1_2 W0_2 2.459646 1_555
S1_2 W0_6 2.459650 1_555
S1_2 W0_0 2.459665 1_555
S1_3 W0_3 2.459646 1_555
S1_3 W0_7 2.459650 1_555
S1_3 W0_1 2.459665 1_555
S1_4 W0_4 2.459646 1_555
S1_4 W0_0 2.459650 1_655
S1_4 W0_6 2.459665 1_545
S1_5 W0_5 2.459646 1_555
S1_5 W0_1 2.459650 1_655
S1_5 W0_7 2.459665 1_545
S1_6 W0_6 2.459646 1_555
S1_6 W0_2 2.459650 1_655
S1_6 W0_4 2.459665 1_555
S1_7 W0_7 2.459646 1_555
S1_7 W0_3 2.459650 1_655
S1_7 W0_5 2.459665 1_555
