# generated using pymatgen
data_KVH24(SO10)2
_symmetry_space_group_name_H-M   'P 1'
_cell_length_a   12.38282583
_cell_length_b   12.38282583
_cell_length_c   12.38282583
_cell_angle_alpha   90.00000000
_cell_angle_beta   90.00000000
_cell_angle_gamma   90.00000000
_symmetry_Int_Tables_number   1
_chemical_formula_structural   KVH24(SO10)2
_chemical_formula_sum   'K4 V4 H96 S8 O80'
_cell_volume   1898.71286602
_cell_formula_units_Z   4
loop_
 _symmetry_equiv_pos_site_id
 _symmetry_equiv_pos_as_xyz
  1  'x, y, z'
loop_
 _atom_site_type_symbol
 _atom_site_label
 _atom_site_symmetry_multiplicity
 _atom_site_fract_x
 _atom_site_fract_y
 _atom_site_fract_z
 _atom_site_occupancy
  K  K0  1  0.50000000  -0.00000000  -0.00000000  1
  K  K1  1  -0.00000000  0.50000000  -0.00000000  1
  K  K2  1  -0.00000000  -0.00000000  0.50000000  1
  K  K3  1  0.50000000  0.50000000  0.50000000  1
  V  V0  1  -0.00000000  -0.00000000  -0.00000000  1
  V  V1  1  0.50000000  -0.00000000  0.50000000  1
  V  V2  1  0.50000000  0.50000000  -0.00000000  1
  V  V3  1  -0.00000000  0.50000000  0.50000000  1
  H  H0  1  0.70724575  0.06522541  0.52641107  1
  H  H1  1  0.20724575  0.43477459  0.47358893  1
  H  H2  1  0.29275425  0.56522541  0.97358893  1
  H  H3  1  0.43477459  0.47358893  0.20724575  1
  H  H4  1  0.97358893  0.29275425  0.56522541  1
  H  H5  1  0.47358893  0.20724575  0.43477459  1
  H  H6  1  0.06522541  0.52641107  0.70724575  1
  H  H7  1  0.52641107  0.70724575  0.06522541  1
  H  H8  1  0.56522541  0.97358893  0.29275425  1
  H  H9  1  0.93477459  0.02641107  0.79275425  1
  H  H10  1  0.02641107  0.79275425  0.93477459  1
  H  H11  1  0.79275425  0.93477459  0.02641107  1
  H  H12  1  0.29275425  0.93477459  0.47358893  1
  H  H13  1  0.79275425  0.56522541  0.52641107  1
  H  H14  1  0.70724575  0.43477459  0.02641107  1
  H  H15  1  0.56522541  0.52641107  0.79275425  1
  H  H16  1  0.02641107  0.70724575  0.43477459  1
  H  H17  1  0.52641107  0.79275425  0.56522541  1
  H  H18  1  0.93477459  0.47358893  0.29275425  1
  H  H19  1  0.47358893  0.29275425  0.93477459  1
  H  H20  1  0.43477459  0.02641107  0.70724575  1
  H  H21  1  0.06522541  0.97358893  0.20724575  1
  H  H22  1  0.97358893  0.20724575  0.06522541  1
  H  H23  1  0.20724575  0.06522541  0.97358893  1
  H  H24  1  0.71396907  0.94062296  0.47871358  1
  H  H25  1  0.21396907  0.55937704  0.52128642  1
  H  H26  1  0.28603093  0.44062296  0.02128642  1
  H  H27  1  0.55937704  0.52128642  0.21396907  1
  H  H28  1  0.02128642  0.28603093  0.44062296  1
  H  H29  1  0.52128642  0.21396907  0.55937704  1
  H  H30  1  0.94062296  0.47871358  0.71396907  1
  H  H31  1  0.47871358  0.71396907  0.94062296  1
  H  H32  1  0.44062296  0.02128642  0.28603093  1
  H  H33  1  0.05937704  0.97871358  0.78603093  1
  H  H34  1  0.97871358  0.78603093  0.05937704  1
  H  H35  1  0.78603093  0.05937704  0.97871358  1
  H  H36  1  0.28603093  0.05937704  0.52128642  1
  H  H37  1  0.78603093  0.44062296  0.47871358  1
  H  H38  1  0.71396907  0.55937704  0.97871358  1
  H  H39  1  0.44062296  0.47871358  0.78603093  1
  H  H40  1  0.97871358  0.71396907  0.55937704  1
  H  H41  1  0.47871358  0.78603093  0.44062296  1
  H  H42  1  0.05937704  0.52128642  0.28603093  1
  H  H43  1  0.52128642  0.28603093  0.05937704  1
  H  H44  1  0.55937704  0.97871358  0.71396907  1
  H  H45  1  0.94062296  0.02128642  0.21396907  1
  H  H46  1  0.02128642  0.21396907  0.94062296  1
  H  H47  1  0.50645168  0.22228428  0.21347879  1
  H  H48  1  0.62630143  0.21358003  0.17593097  1
  H  H49  1  0.12630143  0.28641997  0.82406903  1
  H  H50  1  0.37369857  0.71358003  0.32406903  1
  H  H51  1  0.28641997  0.82406903  0.12630143  1
  H  H52  1  0.32406903  0.37369857  0.71358003  1
  H  H53  1  0.82406903  0.12630143  0.28641997  1
  H  H54  1  0.21358003  0.17593097  0.62630143  1
  H  H55  1  0.17593097  0.62630143  0.21358003  1
  H  H56  1  0.71358003  0.32406903  0.37369857  1
  H  H57  1  0.78641997  0.67593097  0.87369857  1
  H  H58  1  0.67593097  0.87369857  0.78641997  1
  H  H59  1  0.87369857  0.78641997  0.67593097  1
  H  H60  1  0.37369857  0.78641997  0.82406903  1
  H  H61  1  0.87369857  0.71358003  0.17593097  1
  H  H62  1  0.62630143  0.28641997  0.67593097  1
  H  H63  1  0.71358003  0.17593097  0.87369857  1
  H  H64  1  0.67593097  0.62630143  0.28641997  1
  H  H65  1  0.17593097  0.87369857  0.71358003  1
  H  H66  1  0.78641997  0.82406903  0.37369857  1
  H  H67  1  0.82406903  0.37369857  0.78641997  1
  H  H68  1  0.28641997  0.67593097  0.62630143  1
  H  H69  1  0.21358003  0.32406903  0.12630143  1
  H  H70  1  0.32406903  0.12630143  0.21358003  1
  H  H71  1  0.12630143  0.21358003  0.32406903  1
  H  H72  1  0.00645168  0.22228428  0.28652121  1
  H  H73  1  0.28652121  0.00645168  0.22228428  1
  H  H74  1  0.22228428  0.28652121  0.00645168  1
  H  H75  1  0.27771572  0.71347879  0.50645168  1
  H  H76  1  0.78652121  0.49354832  0.77771572  1
  H  H77  1  0.77771572  0.78652121  0.49354832  1
  H  H78  1  0.21347879  0.99354832  0.72228428  1
  H  H79  1  0.71347879  0.50645168  0.27771572  1
  H  H80  1  0.72228428  0.21347879  0.99354832  1
  H  H81  1  0.50645168  0.27771572  0.71347879  1
  H  H82  1  0.99354832  0.72228428  0.21347879  1
  H  H83  1  0.49354832  0.77771572  0.78652121  1
  H  H84  1  0.99354832  0.77771572  0.71347879  1
  H  H85  1  0.71347879  0.99354832  0.77771572  1
  H  H86  1  0.77771572  0.71347879  0.99354832  1
  H  H87  1  0.72228428  0.28652121  0.49354832  1
  H  H88  1  0.21347879  0.50645168  0.22228428  1
  H  H89  1  0.22228428  0.21347879  0.50645168  1
  H  H90  1  0.78652121  0.00645168  0.27771572  1
  H  H91  1  0.28652121  0.49354832  0.72228428  1
  H  H92  1  0.27771572  0.78652121  0.00645168  1
  H  H93  1  0.49354832  0.72228428  0.28652121  1
  H  H94  1  0.00645168  0.27771572  0.78652121  1
  H  H95  1  0.21396907  0.94062296  0.02128642  1
  S  S0  1  0.32520104  0.17479896  0.82520104  1
  S  S1  1  0.17479896  0.82520104  0.32520104  1
  S  S2  1  0.82520104  0.32520104  0.17479896  1
  S  S3  1  0.67479896  0.67479896  0.67479896  1
  S  S4  1  0.67479896  0.82520104  0.17479896  1
  S  S5  1  0.32520104  0.32520104  0.32520104  1
  S  S6  1  0.17479896  0.67479896  0.82520104  1
  S  S7  1  0.82520104  0.17479896  0.67479896  1
  O  O0  1  0.55160269  0.20120752  0.15067151  1
  O  O1  1  0.05160269  0.29879248  0.84932849  1
  O  O2  1  0.44839731  0.70120752  0.34932849  1
  O  O3  1  0.29879248  0.84932849  0.05160269  1
  O  O4  1  0.34932849  0.44839731  0.70120752  1
  O  O5  1  0.84932849  0.05160269  0.29879248  1
  O  O6  1  0.20120752  0.15067151  0.55160269  1
  O  O7  1  0.15067151  0.55160269  0.20120752  1
  O  O8  1  0.70120752  0.34932849  0.44839731  1
  O  O9  1  0.79879248  0.65067151  0.94839731  1
  O  O10  1  0.65067151  0.94839731  0.79879248  1
  O  O11  1  0.94839731  0.79879248  0.65067151  1
  O  O12  1  0.44839731  0.79879248  0.84932849  1
  O  O13  1  0.94839731  0.70120752  0.15067151  1
  O  O14  1  0.55160269  0.29879248  0.65067151  1
  O  O15  1  0.70120752  0.15067151  0.94839731  1
  O  O16  1  0.65067151  0.55160269  0.29879248  1
  O  O17  1  0.15067151  0.94839731  0.70120752  1
  O  O18  1  0.79879248  0.84932849  0.44839731  1
  O  O19  1  0.84932849  0.44839731  0.79879248  1
  O  O20  1  0.29879248  0.65067151  0.55160269  1
  O  O21  1  0.20120752  0.34932849  0.05160269  1
  O  O22  1  0.34932849  0.05160269  0.20120752  1
  O  O23  1  0.05160269  0.20120752  0.34932849  1
  O  O24  1  0.16385715  0.00114827  0.99725912  1
  O  O25  1  0.99725912  0.16385715  0.00114827  1
  O  O26  1  0.00114827  0.99725912  0.16385715  1
  O  O27  1  0.49885173  0.00274088  0.66385715  1
  O  O28  1  0.49725912  0.33614285  0.99885173  1
  O  O29  1  0.99885173  0.49725912  0.33614285  1
  O  O30  1  0.50274088  0.83614285  0.50114827  1
  O  O31  1  0.00274088  0.66385715  0.49885173  1
  O  O32  1  0.50114827  0.50274088  0.83614285  1
  O  O33  1  0.66385715  0.49885173  0.00274088  1
  O  O34  1  0.83614285  0.50114827  0.50274088  1
  O  O35  1  0.33614285  0.99885173  0.49725912  1
  O  O36  1  0.83614285  0.99885173  0.00274088  1
  O  O37  1  0.00274088  0.83614285  0.99885173  1
  O  O38  1  0.99885173  0.00274088  0.83614285  1
  O  O39  1  0.50114827  0.99725912  0.33614285  1
  O  O40  1  0.50274088  0.66385715  0.00114827  1
  O  O41  1  0.00114827  0.50274088  0.66385715  1
  O  O42  1  0.49725912  0.16385715  0.49885173  1
  O  O43  1  0.99725912  0.33614285  0.50114827  1
  O  O44  1  0.49885173  0.49725912  0.16385715  1
  O  O45  1  0.33614285  0.50114827  0.99725912  1
  O  O46  1  0.16385715  0.49885173  0.49725912  1
  O  O47  1  0.66385715  0.00114827  0.50274088  1
  O  O48  1  0.77972814  0.32949728  0.06311263  1
  O  O49  1  0.27972814  0.17050272  0.93688737  1
  O  O50  1  0.22027186  0.82949728  0.43688737  1
  O  O51  1  0.17050272  0.93688737  0.27972814  1
  O  O52  1  0.43688737  0.22027186  0.82949728  1
  O  O53  1  0.93688737  0.27972814  0.17050272  1
  O  O54  1  0.32949728  0.06311263  0.77972814  1
  O  O55  1  0.06311263  0.77972814  0.32949728  1
  O  O56  1  0.82949728  0.43688737  0.22027186  1
  O  O57  1  0.67050272  0.56311263  0.72027186  1
  O  O58  1  0.56311263  0.72027186  0.67050272  1
  O  O59  1  0.72027186  0.67050272  0.56311263  1
  O  O60  1  0.22027186  0.67050272  0.93688737  1
  O  O61  1  0.72027186  0.82949728  0.06311263  1
  O  O62  1  0.77972814  0.17050272  0.56311263  1
  O  O63  1  0.82949728  0.06311263  0.72027186  1
  O  O64  1  0.56311263  0.77972814  0.17050272  1
  O  O65  1  0.06311263  0.72027186  0.82949728  1
  O  O66  1  0.67050272  0.93688737  0.22027186  1
  O  O67  1  0.93688737  0.22027186  0.67050272  1
  O  O68  1  0.17050272  0.56311263  0.77972814  1
  O  O69  1  0.32949728  0.43688737  0.27972814  1
  O  O70  1  0.43688737  0.27972814  0.32949728  1
  O  O71  1  0.27972814  0.32949728  0.43688737  1
  O  O72  1  0.25524036  0.25524036  0.25524036  1
  O  O73  1  0.24475964  0.75524036  0.25524036  1
  O  O74  1  0.75524036  0.25524036  0.24475964  1
  O  O75  1  0.74475964  0.74475964  0.74475964  1
  O  O76  1  0.74475964  0.75524036  0.24475964  1
  O  O77  1  0.75524036  0.24475964  0.74475964  1
  O  O78  1  0.24475964  0.74475964  0.75524036  1
  O  O79  1  0.25524036  0.24475964  0.75524036  1
loop_
_geom_bond_atom_site_label_1
_geom_bond_atom_site_label_2
_geom_bond_distance
_geom_bond_site_symmetry_2
K0 O15 3.177569 1_554
K0 O10 3.177569 1_544
K0 O12 3.177569 1_544
K0 O3 3.177569 1_545
K0 O22 3.177569 1_555
K0 O0 3.177569 1_555
K1 O13 3.177569 1_455
K1 O19 3.177569 1_454
K1 O1 3.177569 1_554
K1 O9 3.177569 1_454
K1 O21 3.177569 1_555
K1 O7 3.177569 1_555
K2 O18 3.177569 1_445
K2 O11 3.177569 1_445
K2 O5 3.177569 1_455
K2 O17 3.177569 1_545
K2 O6 3.177569 1_555
K2 O23 3.177569 1_555
K3 O4 3.177569 1_555
K3 O20 3.177569 1_555
K3 O14 3.177569 1_555
K3 O2 3.177569 1_555
K3 O8 3.177569 1_555
K3 O16 3.177569 1_555
H0 O47 1.002070 1_555
H0 O62 1.646684 1_555
H1 O46 1.002070 1_555
H1 O71 1.646684 1_555
H2 O45 1.002070 1_555
H2 O60 1.646684 1_555
H3 O44 1.002070 1_555
H3 O69 1.646684 1_555
H4 O43 1.002070 1_555
H4 O67 1.646684 1_555
H5 O42 1.002070 1_555
H5 O70 1.646684 1_555
H6 O41 1.002070 1_555
H6 O68 1.646684 1_555
H7 O40 1.002070 1_555
H7 O64 1.646684 1_555
H8 O39 1.002070 1_555
H8 O66 1.646684 1_555
H9 O38 1.002070 1_555
H9 O63 1.646684 1_555
H10 O37 1.002070 1_555
H10 O65 1.646684 1_555
H11 O36 1.002070 1_555
H11 O61 1.646684 1_555
H12 O35 1.002070 1_555
H12 O50 1.646684 1_555
H13 O34 1.002070 1_555
H13 O59 1.646684 1_555
H14 O33 1.002070 1_555
H14 O48 1.646684 1_555
H15 O32 1.002070 1_555
H15 O57 1.646684 1_555
H16 O31 1.002070 1_555
H16 O55 1.646684 1_555
H17 O30 1.002070 1_555
H17 O58 1.646684 1_555
H18 O29 1.002070 1_555
H18 O56 1.646684 1_555
H19 O28 1.002070 1_555
H19 O52 1.646684 1_555
H20 O27 1.002070 1_555
H20 O54 1.646684 1_555
H21 O26 1.002070 1_555
H21 O51 1.646684 1_555
H22 O25 1.002070 1_555
H22 O53 1.646684 1_555
H23 O24 1.002070 1_555
H23 O49 1.646684 1_555
H24 O47 1.017491 1_565
H24 O18 1.588131 1_555
H25 O46 1.017491 1_555
H25 O20 1.588131 1_555
H26 O45 1.017491 1_554
H26 O21 1.588131 1_555
H27 O44 1.017491 1_555
H27 O16 1.588131 1_555
H28 O43 1.017491 1_455
H28 O23 1.588131 1_555
H29 O42 1.017491 1_555
H29 O14 1.588131 1_555
H30 O41 1.017491 1_655
H30 O19 1.588131 1_555
H31 O40 1.017491 1_556
H31 O12 1.588131 1_555
H32 O39 1.017491 1_545
H32 O22 1.588131 1_555
H33 O38 1.017491 1_465
H33 O17 1.588131 1_555
H34 O37 1.017491 1_654
H34 O13 1.588131 1_555
H35 O36 1.017491 1_546
H35 O15 1.588131 1_555
H36 O35 1.017491 1_545
H36 O6 1.588131 1_555
H37 O34 1.017491 1_555
H37 O8 1.588131 1_555
H38 O33 1.017491 1_556
H38 O9 1.588131 1_555
H39 O32 1.017491 1_555
H39 O4 1.588131 1_555
H40 O31 1.017491 1_655
H40 O11 1.588131 1_555
H41 O30 1.017491 1_555
H41 O2 1.588131 1_555
H42 O29 1.017491 1_455
H42 O7 1.588131 1_555
H43 O28 1.017491 1_554
H43 O0 1.588131 1_555
H44 O27 1.017491 1_565
H44 O10 1.588131 1_555
H45 O26 1.017491 1_645
H45 O5 1.588131 1_555
H46 O25 1.017491 1_456
H46 O1 1.588131 1_555
H47 O0 0.992760 1_555
H48 O0 0.988381 1_555
H49 O1 0.988381 1_555
H50 O2 0.988381 1_555
H51 O3 0.988381 1_555
H52 O4 0.988381 1_555
H53 O5 0.988381 1_555
H54 O6 0.988381 1_555
H55 O7 0.988381 1_555
H56 O8 0.988381 1_555
H57 O9 0.988381 1_555
H58 O10 0.988381 1_555
H59 O11 0.988381 1_555
H60 O12 0.988381 1_555
H61 O13 0.988381 1_555
H62 O14 0.988381 1_555
H63 O15 0.988381 1_555
H64 O16 0.988381 1_555
H65 O17 0.988381 1_555
H66 O18 0.988381 1_555
H67 O19 0.988381 1_555
H68 O20 0.988381 1_555
H69 O21 0.988381 1_555
H70 O22 0.988381 1_555
H71 O23 0.988381 1_555
H72 O23 0.992760 1_555
H73 O22 0.992760 1_555
H74 O21 0.992760 1_555
H75 O20 0.992760 1_555
H76 O19 0.992760 1_555
H77 O18 0.992760 1_555
H78 O17 0.992760 1_555
H79 O16 0.992760 1_555
H80 O15 0.992760 1_555
H81 O14 0.992760 1_555
H82 O13 0.992760 1_555
H83 O12 0.992760 1_555
H84 O11 0.992760 1_555
H85 O10 0.992760 1_555
H86 O9 0.992760 1_555
H87 O8 0.992760 1_555
H88 O7 0.992760 1_555
H89 O6 0.992760 1_555
H90 O5 0.992760 1_555
H91 O4 0.992760 1_555
H92 O3 0.992760 1_555
H93 O2 0.992760 1_555
H94 O1 0.992760 1_555
H95 O24 1.017491 1_564
H95 O3 1.588131 1_555
O24 V0 2.029348 1_556
O25 V0 2.029348 1_655
O26 V0 2.029348 1_565
O27 V1 2.029348 1_555
O28 V2 2.029348 1_556
O29 V3 2.029348 1_655
O30 V1 2.029348 1_565
O31 V3 2.029348 1_555
O32 V2 2.029348 1_556
O33 V2 2.029348 1_555
O34 V3 2.029348 1_655
O35 V1 2.029348 1_565
O36 V0 2.029348 1_665
O37 V0 2.029348 1_566
O38 V0 2.029348 1_656
O39 V1 2.029348 1_565
O40 V2 2.029348 1_555
O41 V3 2.029348 1_555
O42 V1 2.029348 1_555
O43 V3 2.029348 1_655
O44 V2 2.029348 1_555
O45 V2 2.029348 1_556
O46 V3 2.029348 1_555
O47 V1 2.029348 1_555
O48 S2 1.494176 1_555
O49 S0 1.494176 1_555
O50 S1 1.494176 1_555
O51 S1 1.494176 1_555
O52 S0 1.494176 1_555
O53 S2 1.494176 1_555
O54 S0 1.494176 1_555
O55 S1 1.494176 1_555
O56 S2 1.494176 1_555
O57 S3 1.494176 1_555
O58 S3 1.494176 1_555
O59 S3 1.494176 1_555
O60 S6 1.494176 1_555
O61 S4 1.494176 1_555
O62 S7 1.494176 1_555
O63 S7 1.494176 1_555
O64 S4 1.494176 1_555
O65 S6 1.494176 1_555
O66 S4 1.494176 1_555
O67 S7 1.494176 1_555
O68 S6 1.494176 1_555
O69 S5 1.494176 1_555
O70 S5 1.494176 1_555
O71 S5 1.494176 1_555
O72 S5 1.500495 1_555
O73 S1 1.500495 1_555
O74 S2 1.500495 1_555
O75 S3 1.500495 1_555
O76 S4 1.500495 1_555
O77 S7 1.500495 1_555
O78 S6 1.500495 1_555
O79 S0 1.500495 1_555
