# generated using pymatgen
data_U2SnRu2
_symmetry_space_group_name_H-M   'P 1'
_cell_length_a   15.07048186
_cell_length_b   15.07048186
_cell_length_c   6.92664052
_cell_angle_alpha   90.00000000
_cell_angle_beta   90.00000000
_cell_angle_gamma   90.00000000
_symmetry_Int_Tables_number   1
_chemical_formula_structural   U2SnRu2
_chemical_formula_sum   'U32 Sn16 Ru32'
_cell_volume   1573.17460164
_cell_formula_units_Z   16
loop_
 _symmetry_equiv_pos_site_id
 _symmetry_equiv_pos_as_xyz
  1  'x, y, z'
loop_
 _atom_site_type_symbol
 _atom_site_label
 _atom_site_symmetry_multiplicity
 _atom_site_fract_x
 _atom_site_fract_y
 _atom_site_fract_z
 _atom_site_occupancy
  U  U0_0  1  0.16601696  0.41601696  0.25000000  1
  U  U0_1  1  0.16601696  0.41601696  0.75000000  1
  U  U0_2  1  0.16601696  0.91601696  0.25000000  1
  U  U0_3  1  0.16601696  0.91601696  0.75000000  1
  U  U0_4  1  0.66601696  0.41601696  0.25000000  1
  U  U0_5  1  0.66601696  0.41601696  0.75000000  1
  U  U0_6  1  0.66601696  0.91601696  0.25000000  1
  U  U0_7  1  0.66601696  0.91601696  0.75000000  1
  U  U1_0  1  0.41601696  0.33398305  0.25000000  1
  U  U1_1  1  0.41601696  0.33398305  0.75000000  1
  U  U1_2  1  0.41601696  0.83398305  0.25000000  1
  U  U1_3  1  0.41601696  0.83398305  0.75000000  1
  U  U1_4  1  0.91601696  0.33398305  0.25000000  1
  U  U1_5  1  0.91601696  0.33398305  0.75000000  1
  U  U1_6  1  0.91601696  0.83398305  0.25000000  1
  U  U1_7  1  0.91601696  0.83398305  0.75000000  1
  U  U2_0  1  0.08398305  0.16601696  0.25000000  1
  U  U2_1  1  0.08398305  0.16601696  0.75000000  1
  U  U2_2  1  0.08398305  0.66601696  0.25000000  1
  U  U2_3  1  0.08398305  0.66601696  0.75000000  1
  U  U2_4  1  0.58398305  0.16601696  0.25000000  1
  U  U2_5  1  0.58398305  0.16601696  0.75000000  1
  U  U2_6  1  0.58398305  0.66601696  0.25000000  1
  U  U2_7  1  0.58398305  0.66601696  0.75000000  1
  U  U3_0  1  0.33398305  0.08398305  0.25000000  1
  U  U3_1  1  0.33398305  0.08398305  0.75000000  1
  U  U3_2  1  0.33398305  0.58398305  0.25000000  1
  U  U3_3  1  0.33398305  0.58398305  0.75000000  1
  U  U3_4  1  0.83398305  0.08398305  0.25000000  1
  U  U3_5  1  0.83398305  0.08398305  0.75000000  1
  U  U3_6  1  0.83398305  0.58398305  0.25000000  1
  U  U3_7  1  0.83398305  0.58398305  0.75000000  1
  Sn  Sn0_0  1  0.00000000  0.00000000  0.00000000  1
  Sn  Sn0_1  1  0.00000000  0.00000000  0.50000000  1
  Sn  Sn0_2  1  0.00000000  0.50000000  0.00000000  1
  Sn  Sn0_3  1  0.00000000  0.50000000  0.50000000  1
  Sn  Sn0_4  1  0.50000000  0.00000000  0.00000000  1
  Sn  Sn0_5  1  0.50000000  0.00000000  0.50000000  1
  Sn  Sn0_6  1  0.50000000  0.50000000  0.00000000  1
  Sn  Sn0_7  1  0.50000000  0.50000000  0.50000000  1
  Sn  Sn1_0  1  0.25000000  0.25000000  0.00000000  1
  Sn  Sn1_1  1  0.25000000  0.25000000  0.50000000  1
  Sn  Sn1_2  1  0.25000000  0.75000000  0.00000000  1
  Sn  Sn1_3  1  0.25000000  0.75000000  0.50000000  1
  Sn  Sn1_4  1  0.75000000  0.25000000  0.00000000  1
  Sn  Sn1_5  1  0.75000000  0.25000000  0.50000000  1
  Sn  Sn1_6  1  0.75000000  0.75000000  0.00000000  1
  Sn  Sn1_7  1  0.75000000  0.75000000  0.50000000  1
  Ru  Ru0_0  1  0.18166246  0.06833754  0.00000000  1
  Ru  Ru0_1  1  0.18166246  0.06833754  0.50000000  1
  Ru  Ru0_2  1  0.18166246  0.56833754  0.00000000  1
  Ru  Ru0_3  1  0.18166246  0.56833754  0.50000000  1
  Ru  Ru0_4  1  0.68166246  0.06833754  0.00000000  1
  Ru  Ru0_5  1  0.68166246  0.06833754  0.50000000  1
  Ru  Ru0_6  1  0.68166246  0.56833754  0.00000000  1
  Ru  Ru0_7  1  0.68166246  0.56833754  0.50000000  1
  Ru  Ru1_0  1  0.43166246  0.18166246  0.00000000  1
  Ru  Ru1_1  1  0.43166246  0.18166246  0.50000000  1
  Ru  Ru1_2  1  0.43166246  0.68166246  0.00000000  1
  Ru  Ru1_3  1  0.43166246  0.68166246  0.50000000  1
  Ru  Ru1_4  1  0.93166246  0.18166246  0.00000000  1
  Ru  Ru1_5  1  0.93166246  0.18166246  0.50000000  1
  Ru  Ru1_6  1  0.93166246  0.68166246  0.00000000  1
  Ru  Ru1_7  1  0.93166246  0.68166246  0.50000000  1
  Ru  Ru2_0  1  0.06833754  0.31833754  0.00000000  1
  Ru  Ru2_1  1  0.06833754  0.31833754  0.50000000  1
  Ru  Ru2_2  1  0.06833754  0.81833754  0.00000000  1
  Ru  Ru2_3  1  0.06833754  0.81833754  0.50000000  1
  Ru  Ru2_4  1  0.56833754  0.31833754  0.00000000  1
  Ru  Ru2_5  1  0.56833754  0.31833754  0.50000000  1
  Ru  Ru2_6  1  0.56833754  0.81833754  0.00000000  1
  Ru  Ru2_7  1  0.56833754  0.81833754  0.50000000  1
  Ru  Ru3_0  1  0.31833754  0.43166246  0.00000000  1
  Ru  Ru3_1  1  0.31833754  0.43166246  0.50000000  1
  Ru  Ru3_2  1  0.31833754  0.93166246  0.00000000  1
  Ru  Ru3_3  1  0.31833754  0.93166246  0.50000000  1
  Ru  Ru3_4  1  0.81833754  0.43166246  0.00000000  1
  Ru  Ru3_5  1  0.81833754  0.43166246  0.50000000  1
  Ru  Ru3_6  1  0.81833754  0.93166246  0.00000000  1
  Ru  Ru3_7  1  0.81833754  0.93166246  0.50000000  1
loop_
_geom_bond_atom_site_label_1
_geom_bond_atom_site_label_2
_geom_bond_distance
_geom_bond_site_symmetry_2
Sn0_0 U1_7 3.295502 1_444
Sn0_0 U1_6 3.295502 1_445
Sn0_0 U3_5 3.295502 1_454
Sn0_0 U3_4 3.295502 1_455
Sn0_0 U0_2 3.295502 1_545
Sn0_0 U0_3 3.295502 1_544
Sn0_0 U2_0 3.295502 1_555
Sn0_0 U2_1 3.295502 1_554
Sn0_0 Sn0_1 3.463320 1_555
Sn0_0 Sn0_1 3.463320 1_554
Sn0_1 U1_6 3.295502 1_445
Sn0_1 U1_7 3.295502 1_445
Sn0_1 U3_4 3.295502 1_455
Sn0_1 U3_5 3.295502 1_455
Sn0_1 U0_3 3.295502 1_545
Sn0_1 U2_0 3.295502 1_555
Sn0_1 U0_2 3.295502 1_545
Sn0_1 U2_1 3.295502 1_555
Sn0_2 U0_0 3.295502 1_555
Sn0_2 U3_7 3.295502 1_454
Sn0_2 U1_4 3.295502 1_455
Sn0_2 U1_5 3.295502 1_454
Sn0_2 U3_6 3.295502 1_455
Sn0_2 U0_1 3.295502 1_554
Sn0_2 U2_2 3.295502 1_555
Sn0_2 U2_3 3.295502 1_554
Sn0_2 Sn0_3 3.463320 1_555
Sn0_2 Sn0_3 3.463320 1_554
Sn0_3 U0_0 3.295502 1_555
Sn0_3 U3_7 3.295502 1_455
Sn0_3 U1_4 3.295502 1_455
Sn0_3 U3_6 3.295502 1_455
Sn0_3 U1_5 3.295502 1_455
Sn0_3 U2_2 3.295502 1_555
Sn0_3 U0_1 3.295502 1_555
Sn0_3 U2_3 3.295502 1_555
Sn0_4 U1_2 3.295502 1_545
Sn0_4 U1_3 3.295502 1_544
Sn0_4 U3_0 3.295502 1_555
Sn0_4 U3_1 3.295502 1_554
Sn0_4 U0_7 3.295502 1_544
Sn0_4 U0_6 3.295502 1_545
Sn0_4 U2_4 3.295502 1_555
Sn0_4 U2_5 3.295502 1_554
Sn0_4 Sn0_5 3.463320 1_555
Sn0_4 Sn0_5 3.463320 1_554
Sn0_5 U1_2 3.295502 1_545
Sn0_5 U1_3 3.295502 1_545
Sn0_5 U3_0 3.295502 1_555
Sn0_5 U0_7 3.295502 1_545
Sn0_5 U0_6 3.295502 1_545
Sn0_5 U3_1 3.295502 1_555
Sn0_5 U2_4 3.295502 1_555
Sn0_5 U2_5 3.295502 1_555
Sn0_6 U1_1 3.295502 1_554
Sn0_6 U1_0 3.295502 1_555
Sn0_6 U0_4 3.295502 1_555
Sn0_6 U0_5 3.295502 1_554
Sn0_6 U3_2 3.295502 1_555
Sn0_6 U3_3 3.295502 1_554
Sn0_6 U2_6 3.295502 1_555
Sn0_6 U2_7 3.295502 1_554
Sn0_6 Sn0_7 3.463320 1_555
Sn0_6 Sn0_7 3.463320 1_554
Sn0_7 U1_0 3.295502 1_555
Sn0_7 U0_4 3.295502 1_555
Sn0_7 U1_1 3.295502 1_555
Sn0_7 U3_2 3.295502 1_555
Sn0_7 U0_5 3.295502 1_555
Sn0_7 U3_3 3.295502 1_555
Sn0_7 U2_6 3.295502 1_555
Sn0_7 U2_7 3.295502 1_555
Sn1_0 U2_1 3.295502 1_554
Sn1_0 U3_0 3.295502 1_555
Sn1_0 U2_0 3.295502 1_555
Sn1_0 U3_1 3.295502 1_554
Sn1_0 U0_1 3.295502 1_554
Sn1_0 U0_0 3.295502 1_555
Sn1_0 U1_0 3.295502 1_555
Sn1_0 U1_1 3.295502 1_554
Sn1_0 Sn1_1 3.463320 1_555
Sn1_0 Sn1_1 3.463320 1_554
Sn1_1 U3_0 3.295502 1_555
Sn1_1 U2_0 3.295502 1_555
Sn1_1 U2_1 3.295502 1_555
Sn1_1 U3_1 3.295502 1_555
Sn1_1 U0_0 3.295502 1_555
Sn1_1 U0_1 3.295502 1_555
Sn1_1 U1_0 3.295502 1_555
Sn1_1 U1_1 3.295502 1_555
Sn1_2 U0_3 3.295502 1_554
Sn1_2 U0_2 3.295502 1_555
Sn1_2 U2_2 3.295502 1_555
Sn1_2 U3_2 3.295502 1_555
Sn1_2 U3_3 3.295502 1_554
Sn1_2 U1_3 3.295502 1_554
Sn1_2 U1_2 3.295502 1_555
Sn1_2 U2_3 3.295502 1_554
Sn1_2 Sn1_3 3.463320 1_555
Sn1_2 Sn1_3 3.463320 1_554
Sn1_3 U0_2 3.295502 1_555
Sn1_3 U0_3 3.295502 1_555
Sn1_3 U2_2 3.295502 1_555
Sn1_3 U3_2 3.295502 1_555
Sn1_3 U1_2 3.295502 1_555
Sn1_3 U2_3 3.295502 1_555
Sn1_3 U1_3 3.295502 1_555
Sn1_3 U3_3 3.295502 1_555
Sn1_4 U1_4 3.295502 1_555
Sn1_4 U1_5 3.295502 1_554
Sn1_4 U3_5 3.295502 1_554
Sn1_4 U3_4 3.295502 1_555
Sn1_4 U2_5 3.295502 1_554
Sn1_4 U2_4 3.295502 1_555
Sn1_4 U0_4 3.295502 1_555
Sn1_4 U0_5 3.295502 1_554
Sn1_4 Sn1_5 3.463320 1_555
Sn1_4 Sn1_5 3.463320 1_554
Sn1_5 U1_4 3.295502 1_555
Sn1_5 U3_4 3.295502 1_555
Sn1_5 U1_5 3.295502 1_555
Sn1_5 U3_5 3.295502 1_555
Sn1_5 U2_5 3.295502 1_555
Sn1_5 U2_4 3.295502 1_555
Sn1_5 U0_4 3.295502 1_555
Sn1_5 U0_5 3.295502 1_555
Sn1_6 U1_7 3.295502 1_554
Sn1_6 U1_6 3.295502 1_555
Sn1_6 U0_7 3.295502 1_554
Sn1_6 U0_6 3.295502 1_555
Sn1_6 U3_7 3.295502 1_554
Sn1_6 U3_6 3.295502 1_555
Sn1_6 U2_6 3.295502 1_555
Sn1_6 U2_7 3.295502 1_554
Sn1_6 Sn1_7 3.463320 1_555
Sn1_6 Sn1_7 3.463320 1_554
Sn1_7 U1_6 3.295502 1_555
Sn1_7 U1_7 3.295502 1_555
Sn1_7 U0_6 3.295502 1_555
Sn1_7 U0_7 3.295502 1_555
Sn1_7 U3_6 3.295502 1_555
Sn1_7 U3_7 3.295502 1_555
Sn1_7 U2_6 3.295502 1_555
Sn1_7 U2_7 3.295502 1_555
Ru0_0 U2_0 2.707889 1_555
Ru0_0 U2_1 2.707889 1_554
Ru0_0 U0_3 2.885094 1_544
Ru0_0 U0_2 2.885094 1_545
Ru0_0 U3_0 2.885094 1_555
Ru0_0 U3_1 2.885094 1_554
Ru0_0 Ru3_2 2.912940 1_545
Ru0_0 Sn1_0 2.925043 1_555
Ru0_0 Sn0_0 2.925043 1_555
Ru0_1 U2_0 2.707889 1_555
Ru0_1 U2_1 2.707889 1_555
Ru0_1 U0_2 2.885094 1_545
Ru0_1 U0_3 2.885094 1_545
Ru0_1 U3_0 2.885094 1_555
Ru0_1 U3_1 2.885094 1_555
Ru0_1 Ru3_3 2.912940 1_545
Ru0_1 Sn1_1 2.925043 1_555
Ru0_1 Sn0_1 2.925043 1_555
Ru0_2 U2_3 2.707889 1_554
Ru0_2 U2_2 2.707889 1_555
Ru0_2 U0_1 2.885094 1_554
Ru0_2 U0_0 2.885094 1_555
Ru0_2 U3_2 2.885094 1_555
Ru0_2 U3_3 2.885094 1_554
Ru0_2 Ru3_0 2.912940 1_555
Ru0_2 Sn0_2 2.925043 1_555
Ru0_2 Sn1_2 2.925043 1_555
Ru0_3 U2_2 2.707889 1_555
Ru0_3 U2_3 2.707889 1_555
Ru0_3 U0_0 2.885094 1_555
Ru0_3 U0_1 2.885094 1_555
Ru0_3 U3_2 2.885094 1_555
Ru0_3 U3_3 2.885094 1_555
Ru0_3 Ru3_1 2.912940 1_555
Ru0_3 Sn0_3 2.925043 1_555
Ru0_3 Sn1_3 2.925043 1_555
Ru0_4 U2_4 2.707889 1_555
Ru0_4 U2_5 2.707889 1_554
Ru0_4 U3_5 2.885094 1_554
Ru0_4 U0_6 2.885094 1_545
Ru0_4 U3_4 2.885094 1_555
Ru0_4 U0_7 2.885094 1_544
Ru0_4 Ru3_6 2.912940 1_545
Ru0_4 Sn1_4 2.925043 1_555
Ru0_4 Sn0_4 2.925043 1_555
Ru0_5 U2_4 2.707889 1_555
Ru0_5 U2_5 2.707889 1_555
Ru0_5 U0_6 2.885094 1_545
Ru0_5 U3_4 2.885094 1_555
Ru0_5 U3_5 2.885094 1_555
Ru0_5 U0_7 2.885094 1_545
Ru0_5 Ru3_7 2.912940 1_545
Ru0_5 Sn1_5 2.925043 1_555
Ru0_5 Sn0_5 2.925043 1_555
Ru0_6 U2_6 2.707889 1_555
Ru0_6 U2_7 2.707889 1_554
Ru0_6 U0_5 2.885094 1_554
Ru0_6 U0_4 2.885094 1_555
Ru0_6 U3_7 2.885094 1_554
Ru0_6 U3_6 2.885094 1_555
Ru0_6 Ru3_4 2.912940 1_555
Ru0_6 Sn1_6 2.925043 1_555
Ru0_6 Sn0_6 2.925043 1_555
Ru0_7 U2_6 2.707889 1_555
Ru0_7 U2_7 2.707889 1_555
Ru0_7 U0_4 2.885094 1_555
Ru0_7 U0_5 2.885094 1_555
Ru0_7 U3_6 2.885094 1_555
Ru0_7 U3_7 2.885094 1_555
Ru0_7 Ru3_5 2.912940 1_555
Ru0_7 Sn0_7 2.925043 1_555
Ru0_7 Sn1_7 2.925043 1_555
Ru1_0 U3_1 2.707889 1_554
Ru1_0 U3_0 2.707889 1_555
Ru1_0 U2_4 2.885094 1_555
Ru1_0 U2_5 2.885094 1_554
Ru1_0 U1_0 2.885094 1_555
Ru1_0 U1_1 2.885094 1_554
Ru1_0 Ru2_4 2.912940 1_555
Ru1_0 Sn0_4 2.925043 1_555
Ru1_0 Sn1_0 2.925043 1_555
Ru1_1 U3_0 2.707889 1_555
Ru1_1 U3_1 2.707889 1_555
Ru1_1 U2_4 2.885094 1_555
Ru1_1 U1_0 2.885094 1_555
Ru1_1 U2_5 2.885094 1_555
Ru1_1 U1_1 2.885094 1_555
Ru1_1 Ru2_5 2.912940 1_555
Ru1_1 Sn0_5 2.925043 1_555
Ru1_1 Sn1_1 2.925043 1_555
Ru1_2 U3_2 2.707889 1_555
Ru1_2 U3_3 2.707889 1_554
Ru1_2 U2_7 2.885094 1_554
Ru1_2 U1_3 2.885094 1_554
Ru1_2 U1_2 2.885094 1_555
Ru1_2 U2_6 2.885094 1_555
Ru1_2 Ru2_6 2.912940 1_555
Ru1_2 Sn0_6 2.925043 1_555
Ru1_2 Sn1_2 2.925043 1_555
Ru1_3 U3_2 2.707889 1_555
Ru1_3 U3_3 2.707889 1_555
Ru1_3 U1_2 2.885094 1_555
Ru1_3 U2_6 2.885094 1_555
Ru1_3 U2_7 2.885094 1_555
Ru1_3 U1_3 2.885094 1_555
Ru1_3 Ru2_7 2.912940 1_555
Ru1_3 Sn0_7 2.925043 1_555
Ru1_3 Sn1_3 2.925043 1_555
Ru1_4 U3_5 2.707889 1_554
Ru1_4 U3_4 2.707889 1_555
Ru1_4 U2_1 2.885094 1_654
Ru1_4 U2_0 2.885094 1_655
Ru1_4 U1_4 2.885094 1_555
Ru1_4 U1_5 2.885094 1_554
Ru1_4 Ru2_0 2.912940 1_655
Ru1_4 Sn0_0 2.925043 1_655
Ru1_4 Sn1_4 2.925043 1_555
Ru1_5 U3_4 2.707889 1_555
Ru1_5 U3_5 2.707889 1_555
Ru1_5 U2_0 2.885094 1_655
Ru1_5 U1_4 2.885094 1_555
Ru1_5 U2_1 2.885094 1_655
Ru1_5 U1_5 2.885094 1_555
Ru1_5 Ru2_1 2.912940 1_655
Ru1_5 Sn1_5 2.925043 1_555
Ru1_5 Sn0_1 2.925043 1_655
Ru1_6 U3_7 2.707889 1_554
Ru1_6 U3_6 2.707889 1_555
Ru1_6 U1_6 2.885094 1_555
Ru1_6 U2_2 2.885094 1_655
Ru1_6 U2_3 2.885094 1_654
Ru1_6 U1_7 2.885094 1_554
Ru1_6 Ru2_2 2.912940 1_655
Ru1_6 Sn1_6 2.925043 1_555
Ru1_6 Sn0_2 2.925043 1_655
Ru1_7 U3_6 2.707889 1_555
Ru1_7 U3_7 2.707889 1_555
Ru1_7 U1_6 2.885094 1_555
Ru1_7 U2_2 2.885094 1_655
Ru1_7 U2_3 2.885094 1_655
Ru1_7 U1_7 2.885094 1_555
Ru1_7 Ru2_3 2.912940 1_655
Ru1_7 Sn1_7 2.925043 1_555
Ru1_7 Sn0_3 2.925043 1_655
Ru2_0 U0_1 2.707889 1_554
Ru2_0 U0_0 2.707889 1_555
Ru2_0 U1_4 2.885094 1_455
Ru2_0 U1_5 2.885094 1_454
Ru2_0 U2_0 2.885094 1_555
Ru2_0 U2_1 2.885094 1_554
Ru2_0 Sn0_2 2.925043 1_555
Ru2_0 Sn1_0 2.925043 1_555
Ru2_1 U0_0 2.707889 1_555
Ru2_1 U0_1 2.707889 1_555
Ru2_1 U1_4 2.885094 1_455
Ru2_1 U1_5 2.885094 1_455
Ru2_1 U2_0 2.885094 1_555
Ru2_1 U2_1 2.885094 1_555
Ru2_1 Sn0_3 2.925043 1_555
Ru2_1 Sn1_1 2.925043 1_555
Ru2_2 U0_2 2.707889 1_555
Ru2_2 U0_3 2.707889 1_554
Ru2_2 U1_7 2.885094 1_454
Ru2_2 U1_6 2.885094 1_455
Ru2_2 U2_2 2.885094 1_555
Ru2_2 U2_3 2.885094 1_554
Ru2_2 Sn0_0 2.925043 1_565
Ru2_2 Sn1_2 2.925043 1_555
Ru2_3 U0_2 2.707889 1_555
Ru2_3 U0_3 2.707889 1_555
Ru2_3 U1_6 2.885094 1_455
Ru2_3 U1_7 2.885094 1_455
Ru2_3 U2_2 2.885094 1_555
Ru2_3 U2_3 2.885094 1_555
Ru2_3 Sn0_1 2.925043 1_565
Ru2_3 Sn1_3 2.925043 1_555
Ru2_4 U0_4 2.707889 1_555
Ru2_4 U0_5 2.707889 1_554
Ru2_4 U1_1 2.885094 1_554
Ru2_4 U1_0 2.885094 1_555
Ru2_4 U2_5 2.885094 1_554
Ru2_4 U2_4 2.885094 1_555
Ru2_4 Sn0_6 2.925043 1_555
Ru2_4 Sn1_4 2.925043 1_555
Ru2_5 U0_4 2.707889 1_555
Ru2_5 U0_5 2.707889 1_555
Ru2_5 U1_0 2.885094 1_555
Ru2_5 U1_1 2.885094 1_555
Ru2_5 U2_4 2.885094 1_555
Ru2_5 U2_5 2.885094 1_555
Ru2_5 Sn0_7 2.925043 1_555
Ru2_5 Sn1_5 2.925043 1_555
Ru2_6 U0_6 2.707889 1_555
Ru2_6 U0_7 2.707889 1_554
Ru2_6 U1_2 2.885094 1_555
Ru2_6 U1_3 2.885094 1_554
Ru2_6 U2_6 2.885094 1_555
Ru2_6 U2_7 2.885094 1_554
Ru2_6 Sn0_4 2.925043 1_565
Ru2_6 Sn1_6 2.925043 1_555
Ru2_7 U0_6 2.707889 1_555
Ru2_7 U0_7 2.707889 1_555
Ru2_7 U1_3 2.885094 1_555
Ru2_7 U1_2 2.885094 1_555
Ru2_7 U2_6 2.885094 1_555
Ru2_7 U2_7 2.885094 1_555
Ru2_7 Sn0_5 2.925043 1_565
Ru2_7 Sn1_7 2.925043 1_555
Ru3_0 U1_0 2.707889 1_555
Ru3_0 U1_1 2.707889 1_554
Ru3_0 U3_2 2.885094 1_555
Ru3_0 U3_3 2.885094 1_554
Ru3_0 U0_1 2.885094 1_554
Ru3_0 U0_0 2.885094 1_555
Ru3_0 Sn0_6 2.925043 1_555
Ru3_0 Sn1_0 2.925043 1_555
Ru3_1 U1_0 2.707889 1_555
Ru3_1 U1_1 2.707889 1_555
Ru3_1 U3_2 2.885094 1_555
Ru3_1 U3_3 2.885094 1_555
Ru3_1 U0_0 2.885094 1_555
Ru3_1 U0_1 2.885094 1_555
Ru3_1 Sn0_7 2.925043 1_555
Ru3_1 Sn1_1 2.925043 1_555
Ru3_2 U1_3 2.707889 1_554
Ru3_2 U1_2 2.707889 1_555
Ru3_2 U3_0 2.885094 1_565
Ru3_2 U3_1 2.885094 1_564
Ru3_2 U0_3 2.885094 1_554
Ru3_2 U0_2 2.885094 1_555
Ru3_2 Sn0_4 2.925043 1_565
Ru3_2 Sn1_2 2.925043 1_555
Ru3_3 U1_2 2.707889 1_555
Ru3_3 U1_3 2.707889 1_555
Ru3_3 U3_0 2.885094 1_565
Ru3_3 U3_1 2.885094 1_565
Ru3_3 U0_2 2.885094 1_555
Ru3_3 U0_3 2.885094 1_555
Ru3_3 Sn0_5 2.925043 1_565
Ru3_3 Sn1_3 2.925043 1_555
Ru3_4 U1_4 2.707889 1_555
Ru3_4 U1_5 2.707889 1_554
Ru3_4 U3_7 2.885094 1_554
Ru3_4 U3_6 2.885094 1_555
Ru3_4 U0_4 2.885094 1_555
Ru3_4 U0_5 2.885094 1_554
Ru3_4 Sn0_2 2.925043 1_655
Ru3_4 Sn1_4 2.925043 1_555
Ru3_5 U1_4 2.707889 1_555
Ru3_5 U1_5 2.707889 1_555
Ru3_5 U3_6 2.885094 1_555
Ru3_5 U3_7 2.885094 1_555
Ru3_5 U0_4 2.885094 1_555
Ru3_5 U0_5 2.885094 1_555
Ru3_5 Sn0_3 2.925043 1_655
Ru3_5 Sn1_5 2.925043 1_555
Ru3_6 U1_7 2.707889 1_554
Ru3_6 U1_6 2.707889 1_555
Ru3_6 U3_5 2.885094 1_564
Ru3_6 U3_4 2.885094 1_565
Ru3_6 U0_6 2.885094 1_555
Ru3_6 U0_7 2.885094 1_554
Ru3_6 Sn0_0 2.925043 1_665
Ru3_6 Sn1_6 2.925043 1_555
Ru3_7 U1_6 2.707889 1_555
Ru3_7 U1_7 2.707889 1_555
Ru3_7 U3_4 2.885094 1_565
Ru3_7 U3_5 2.885094 1_565
Ru3_7 U0_6 2.885094 1_555
Ru3_7 U0_7 2.885094 1_555
Ru3_7 Sn0_1 2.925043 1_665
Ru3_7 Sn1_7 2.925043 1_555
