# generated using pymatgen
data_Na5La2Ta2Si3(PO8)3
_symmetry_space_group_name_H-M   'P 1'
_cell_length_a   9.34561476
_cell_length_b   9.38307706
_cell_length_c   22.77599664
_cell_angle_alpha   90.27523579
_cell_angle_beta   89.82325060
_cell_angle_gamma   119.29091358
_symmetry_Int_Tables_number   1
_chemical_formula_structural   Na5La2Ta2Si3(PO8)3
_chemical_formula_sum   'Na15 La6 Ta6 Si9 P9 O72'
_cell_volume   1741.86707555
_cell_formula_units_Z   3
loop_
 _symmetry_equiv_pos_site_id
 _symmetry_equiv_pos_as_xyz
  1  'x, y, z'
loop_
 _atom_site_type_symbol
 _atom_site_label
 _atom_site_symmetry_multiplicity
 _atom_site_fract_x
 _atom_site_fract_y
 _atom_site_fract_z
 _atom_site_occupancy
  Na  Na0  1  0.98980221  0.63890105  0.24139605  1
  Na  Na1  1  0.35479038  0.01328243  0.74226081  1
  Na  Na2  1  0.03606266  0.68897153  0.57737609  1
  Na  Na3  1  0.64755021  0.97905422  0.58103805  1
  Na  Na4  1  0.30640248  0.96157152  0.07729584  1
  Na  Na5  1  0.01897554  0.35608435  0.08325496  1
  Na  Na6  1  0.99604048  0.68630077  0.91401678  1
  Na  Na7  1  0.98097023  0.31271030  0.41026049  1
  Na  Na8  1  0.31660806  0.01082537  0.41437713  1
  Na  Na9  1  0.98113923  0.98450811  0.49738346  1
  Na  Na10  1  0.99718205  0.00516859  0.99877523  1
  Na  Na11  1  0.67490149  0.31753074  0.83479839  1
  Na  Na12  1  0.66790265  0.32971755  0.33281720  1
  Na  Na13  1  0.35321167  0.65206965  0.16769349  1
  Na  Na14  1  0.34383395  0.64090109  0.66620013  1
  La  La0  1  0.98437480  0.99550536  0.34779608  1
  La  La1  1  0.99577131  0.01203117  0.85285044  1
  La  La2  1  0.67223378  0.33993721  0.68785301  1
  La  La3  1  0.66115718  0.32724011  0.18587959  1
  La  La4  1  0.34194642  0.66266207  0.01441186  1
  La  La5  1  0.34479502  0.66453995  0.51475607  1
  Ta  Ta0  1  0.99829919  0.00102478  0.64712975  1
  Ta  Ta1  1  0.99915323  0.00151424  0.14840879  1
  Ta  Ta2  1  0.65509017  0.33199237  0.98125829  1
  Ta  Ta3  1  0.66263461  0.33903388  0.48086790  1
  Ta  Ta4  1  0.33458690  0.66471277  0.31610310  1
  Ta  Ta5  1  0.34393132  0.67134643  0.81500491  1
  Si  Si0  1  0.02315279  0.31472456  0.25342619  1
  Si  Si1  1  0.68794808  0.97920287  0.74953039  1
  Si  Si2  1  0.36286401  0.04729166  0.58448803  1
  Si  Si3  1  0.68523330  0.64371216  0.58510654  1
  Si  Si4  1  0.95232702  0.63672266  0.08377811  1
  Si  Si5  1  0.35384929  0.31513001  0.08502187  1
  Si  Si6  1  0.35279310  0.97336379  0.91996808  1
  Si  Si7  1  0.62576688  0.97959096  0.41921605  1
  Si  Si8  1  0.02649500  0.65289076  0.41996688  1
  P  P0  1  0.28577124  0.97473994  0.25180809  1
  P  P1  1  0.69115703  0.71619342  0.24767902  1
  P  P2  1  0.27800007  0.30440549  0.74911939  1
  P  P3  1  0.02632699  0.71705590  0.75172243  1
  P  P4  1  0.95274168  0.31281695  0.57989600  1
  P  P5  1  0.68803294  0.04897455  0.08055044  1
  P  P6  1  0.62282678  0.63948751  0.91432421  1
  P  P7  1  0.02294246  0.38469228  0.91804114  1
  P  P8  1  0.35313163  0.37688375  0.41297877  1
  O  O0  1  0.21611142  0.99234871  0.30973227  1
  O  O1  1  0.78686464  0.77117738  0.30450624  1
  O  O2  1  0.00375607  0.22910305  0.31547841  1
  O  O3  1  0.21761109  0.20391211  0.80451211  1
  O  O4  1  0.01172950  0.79186526  0.80929098  1
  O  O5  1  0.78708481  0.00206134  0.80804652  1
  O  O6  1  0.80076332  0.96928947  0.69098515  1
  O  O7  1  0.15649907  0.19948687  0.69639543  1
  O  O8  1  0.04209775  0.84005241  0.69850990  1
  O  O9  1  0.80009828  0.83977755  0.19650267  1
  O  O10  1  0.02771702  0.19103826  0.19666688  1
  O  O11  1  0.16073482  0.95881998  0.19921600  1
  O  O12  1  0.88055272  0.34012858  0.63499156  1
  O  O13  1  0.47275946  0.11003734  0.64220729  1
  O  O14  1  0.66924562  0.54440110  0.64247829  1
  O  O15  1  0.89272941  0.52732299  0.14187644  1
  O  O16  1  0.65711722  0.11279415  0.13727577  1
  O  O17  1  0.45557104  0.33781885  0.14252820  1
  O  O18  1  0.46764820  0.29791196  0.02746178  1
  O  O19  1  0.82368387  0.52441760  0.02685823  1
  O  O20  1  0.70790768  0.17295940  0.02892554  1
  O  O21  1  0.47544847  0.17644691  0.52731308  1
  O  O22  1  0.69985983  0.53061051  0.52717345  1
  O  O23  1  0.83340243  0.29428171  0.52573174  1
  O  O24  1  0.56776730  0.67519128  0.97178326  1
  O  O25  1  0.10138401  0.45102432  0.97771469  1
  O  O26  1  0.32658998  0.87992669  0.98082815  1
  O  O27  1  0.55972877  0.89393758  0.48109650  1
  O  O28  1  0.29983820  0.42766924  0.46795193  1
  O  O29  1  0.11862902  0.66881193  0.48037198  1
  O  O30  1  0.14568691  0.63238978  0.36375999  1
  O  O31  1  0.49422201  0.85494284  0.36468262  1
  O  O32  1  0.37257520  0.50001655  0.36123108  1
  O  O33  1  0.13836399  0.50426639  0.86755090  1
  O  O34  1  0.36748401  0.85141743  0.86384370  1
  O  O35  1  0.50087624  0.62622326  0.86254794  1
  O  O36  1  0.01457317  0.81710039  0.41281921  1
  O  O37  1  0.81718369  0.02746412  0.41523668  1
  O  O38  1  0.22537324  0.19912054  0.40126859  1
  O  O39  1  0.98944948  0.20937439  0.91384350  1
  O  O40  1  0.18958007  0.98858107  0.91181476  1
  O  O41  1  0.80137281  0.76892756  0.90445597  1
  O  O42  1  0.95008606  0.14225479  0.58453620  1
  O  O43  1  0.18325867  0.04522211  0.59330249  1
  O  O44  1  0.86881878  0.82040242  0.58919135  1
  O  O45  1  0.95596570  0.81678783  0.09385783  1
  O  O46  1  0.85981453  0.05254864  0.08550716  1
  O  O47  1  0.17883978  0.13141103  0.09063271  1
  O  O48  1  0.63452561  0.11824364  0.74759726  1
  O  O49  1  0.45017670  0.33133434  0.73914969  1
  O  O50  1  0.88958854  0.54490152  0.74492179  1
  O  O51  1  0.66495135  0.54508158  0.23736460  1
  O  O52  1  0.87635285  0.35882208  0.24884037  1
  O  O53  1  0.45900332  0.11200947  0.24401225  1
  O  O54  1  0.61747329  0.46824937  0.91882007  1
  O  O55  1  0.85673714  0.39093126  0.91653060  1
  O  O56  1  0.52699771  0.15220436  0.92430425  1
  O  O57  1  0.61593980  0.15461817  0.41963927  1
  O  O58  1  0.52468902  0.38483046  0.42079593  1
  O  O59  1  0.84928918  0.47569394  0.42195727  1
  O  O60  1  0.30039878  0.45287544  0.07928881  1
  O  O61  1  0.14161138  0.67848597  0.07529756  1
  O  O62  1  0.54748815  0.87623101  0.07203585  1
  O  O63  1  0.32034917  0.85904202  0.57571444  1
  O  O64  1  0.54353874  0.69318531  0.58246338  1
  O  O65  1  0.12597762  0.45429097  0.57303601  1
  O  O66  1  0.28236383  0.80372707  0.25325353  1
  O  O67  1  0.52504038  0.71722615  0.25302990  1
  O  O68  1  0.20194157  0.49332787  0.25630944  1
  O  O69  1  0.28011795  0.47210937  0.75575188  1
  O  O70  1  0.19777215  0.71837819  0.75373742  1
  O  O71  1  0.50917988  0.79684099  0.75710283  1
loop_
_geom_bond_atom_site_label_1
_geom_bond_atom_site_label_2
_geom_bond_distance
_geom_bond_site_symmetry_2
Na0 O52 2.309988 1_555
Na0 O66 2.409028 1_655
Na0 O15 2.473334 1_555
Na0 O51 2.717742 1_555
Na0 O11 2.794970 1_655
Na1 O48 2.302337 1_555
Na1 O70 2.431041 1_545
Na1 O13 2.501542 1_555
Na1 O49 2.665390 1_555
Na1 O8 2.743980 1_545
Na2 O63 2.336268 1_555
Na2 O29 2.375033 1_555
Na2 O44 2.432386 1_455
Na2 O65 2.715288 1_555
Na3 O64 2.364360 1_555
Na3 O27 2.417755 1_555
Na3 O42 2.471662 1_565
Na3 O63 2.695383 1_555
Na3 O13 2.837932 1_565
Na3 O23 2.889215 1_565
Na3 O6 2.912411 1_555
Na4 O61 2.329351 1_555
Na4 O26 2.360641 1_554
Na4 O47 2.430060 1_565
Na4 O62 2.737659 1_555
Na5 O60 2.326445 1_555
Na5 O46 2.486457 1_455
Na5 O25 2.550045 1_554
Na5 O61 2.666311 1_555
Na5 O15 2.753350 1_455
Na5 O20 2.837073 1_455
Na6 O41 2.311389 1_555
Na6 O55 2.418635 1_555
Na6 O40 2.509934 1_655
Na6 O4 2.563280 1_655
Na7 O2 2.337811 1_655
Na7 O37 2.347880 1_555
Na7 O59 2.399948 1_555
Na8 O38 2.327737 1_555
Na8 O57 2.442902 1_555
Na8 O36 2.500503 1_545
Na8 O0 2.538351 1_545
Na9 O44 2.506207 1_555
Na9 O42 2.569783 1_565
Na9 O37 2.576836 1_565
Na9 O36 2.592707 1_655
Na9 O43 2.761496 1_665
Na10 O46 2.506461 1_556
Na10 O47 2.587039 1_656
Na10 O45 2.707027 1_546
Na10 O40 2.725625 1_645
Na10 O39 2.755079 1_555
Na10 O41 2.981031 1_545
Na11 O55 2.385261 1_555
Na11 O56 2.527403 1_555
Na11 O54 2.580799 1_555
Na11 O48 2.619561 1_555
Na11 O50 2.931836 1_555
Na12 O57 2.467816 1_555
Na12 O59 2.567919 1_555
Na12 O58 2.593214 1_555
Na12 O52 2.643743 1_555
Na12 O53 2.856174 1_555
Na12 O51 2.984596 1_555
Na13 O67 2.403616 1_555
Na13 O68 2.498324 1_555
Na13 O60 2.618872 1_555
Na13 O66 2.673609 1_555
Na13 O62 2.958061 1_555
Na13 O61 2.985118 1_555
Na14 O69 2.474629 1_555
Na14 O64 2.540171 1_555
Na14 O71 2.567796 1_555
Na14 O70 2.703171 1_555
Na14 O65 2.866420 1_555
Na14 O63 2.994646 1_555
La0 O1 2.235937 1_555
La0 O2 2.237204 1_665
La0 O37 2.308670 1_565
La0 O0 2.343875 1_655
La0 O36 2.358774 1_655
La0 O38 2.447496 1_665
La1 O5 2.164856 1_555
La1 O3 2.259311 1_655
La1 O39 2.333211 1_555
La1 O40 2.353820 1_645
La1 O4 2.356917 1_645
La1 O41 2.417220 1_545
La2 O14 2.195701 1_555
La2 O12 2.285167 1_555
La2 O13 2.294555 1_555
La2 O49 2.345262 1_555
La2 O48 2.368508 1_555
La2 O50 2.384133 1_555
La3 O17 2.208057 1_555
La3 O16 2.276004 1_555
La3 O15 2.289500 1_555
La3 O51 2.336801 1_555
La3 O52 2.370523 1_555
La3 O53 2.382803 1_555
La4 O26 2.250232 1_554
La4 O24 2.270706 1_554
La4 O25 2.307300 1_554
La4 O60 2.342109 1_555
La4 O62 2.377368 1_555
La4 O61 2.388392 1_555
La5 O27 2.243070 1_555
La5 O29 2.275056 1_555
La5 O28 2.306301 1_555
La5 O64 2.329246 1_555
La5 O63 2.385837 1_555
La5 O65 2.428305 1_555
O0 P0 1.513102 1_555
O1 P1 1.513474 1_555
O2 Si0 1.594537 1_555
O3 P2 1.511840 1_555
O4 P3 1.521277 1_555
O5 Si1 1.578316 1_545
O6 Si1 1.727536 1_555
O6 Ta0 1.986963 1_565
O7 P2 1.613626 1_555
O7 Ta0 2.051552 1_455
O8 P3 1.633524 1_555
O8 Ta0 2.107899 1_465
O9 P1 1.609440 1_555
O9 Ta1 2.050512 1_565
O10 Si0 1.747456 1_555
O10 Ta1 1.990046 1_455
O11 P0 1.630563 1_555
O11 Ta1 2.094532 1_465
O12 P4 1.502115 1_555
O13 Si2 1.593386 1_555
O14 Si3 1.572379 1_555
O15 Si4 1.601244 1_555
O16 P5 1.506927 1_555
O17 Si5 1.572105 1_555
O18 Si5 1.741653 1_555
O18 Ta2 1.929263 1_554
O19 Si4 1.730131 1_555
O19 Ta2 2.007395 1_554
O20 P5 1.603368 1_555
O20 Ta2 2.094910 1_554
O21 Si2 1.740836 1_555
O21 Ta3 1.974685 1_555
O22 Si3 1.735896 1_555
O22 Ta3 1.958763 1_555
O23 P4 1.616369 1_555
O23 Ta3 2.106503 1_555
O24 P6 1.499994 1_555
O25 P7 1.524328 1_555
O26 Si6 1.596725 1_555
O27 Si7 1.591655 1_555
O28 P8 1.505147 1_555
O29 Si8 1.592476 1_555
O30 Si8 1.764981 1_555
O30 Ta4 1.963205 1_555
O31 Si7 1.735083 1_555
O31 Ta4 2.005377 1_555
O32 P8 1.601040 1_555
O32 Ta4 2.031001 1_555
O33 P7 1.601664 1_555
O33 Ta5 2.153528 1_555
O34 Si6 1.760887 1_555
O34 Ta5 1.939108 1_555
O35 P6 1.604102 1_555
O35 Ta5 2.031012 1_555
O36 Si8 1.607313 1_555
O37 Si7 1.619657 1_545
O38 P8 1.525729 1_555
O39 P7 1.519227 1_655
O40 Si6 1.611398 1_555
O41 P6 1.525525 1_555
O42 P4 1.592420 1_555
O42 Ta0 2.144270 1_555
O43 Si2 1.680531 1_555
O43 Ta0 1.988288 1_455
O44 Si3 1.707975 1_555
O44 Ta0 2.014849 1_565
O45 Si4 1.687778 1_555
O45 Ta1 2.002198 1_565
O46 P5 1.593611 1_555
O46 Ta1 2.146110 1_555
O47 Si5 1.704430 1_555
O47 Ta1 2.009028 1_455
O48 Si1 1.609751 1_545
O49 P2 1.518243 1_555
O50 P3 1.498440 1_655
O51 P1 1.518207 1_555
O52 Si0 1.618974 1_655
O53 P0 1.507174 1_545
O54 P6 1.586661 1_555
O54 Ta2 2.059338 1_555
O55 P7 1.583239 1_655
O55 Ta2 2.236411 1_555
O56 Si6 1.674041 1_545
O56 Ta2 1.993520 1_555
O57 Si7 1.689107 1_545
O57 Ta3 2.090721 1_555
O58 P8 1.578770 1_555
O58 Ta3 2.068143 1_555
O59 Si8 1.677827 1_655
O59 Ta3 2.073855 1_555
O60 Si5 1.603383 1_555
O61 Si4 1.624955 1_455
O62 P5 1.518360 1_565
O63 Si2 1.621173 1_565
O64 Si3 1.604661 1_555
O65 P4 1.518296 1_455
O66 P0 1.589788 1_555
O66 Ta4 2.152640 1_555
O67 P1 1.561610 1_555
O67 Ta4 2.146487 1_555
O68 Si0 1.692440 1_555
O68 Ta4 2.004045 1_555
O69 P2 1.570547 1_555
O69 Ta5 2.135795 1_555
O70 P3 1.597027 1_555
O70 Ta5 2.148321 1_555
O71 Si1 1.718340 1_555
O71 Ta5 1.932283 1_555
