# generated using pymatgen
data_Ba2MgFeMoO6
_symmetry_space_group_name_H-M   'P 1'
_cell_length_a   5.85429729
_cell_length_b   6.12865974
_cell_length_c   6.27973700
_cell_angle_alpha   104.27147067
_cell_angle_beta   121.20559272
_cell_angle_gamma   106.45770149
_symmetry_Int_Tables_number   1
_chemical_formula_structural   Ba2MgFeMoO6
_chemical_formula_sum   'Ba2 Mg1 Fe1 Mo1 O6'
_cell_volume   162.18587102
_cell_formula_units_Z   1
loop_
 _symmetry_equiv_pos_site_id
 _symmetry_equiv_pos_as_xyz
  1  'x, y, z'
loop_
 _atom_site_type_symbol
 _atom_site_label
 _atom_site_symmetry_multiplicity
 _atom_site_fract_x
 _atom_site_fract_y
 _atom_site_fract_z
 _atom_site_occupancy
  Ba  Ba0  1  0.74546965  0.17625950  0.42366429  1
  Ba  Ba1  1  0.30625414  0.90159260  0.61878581  1
  Mg  Mg0  1  0.18307523  0.34961468  0.24658810  1
  Fe  Fe0  1  0.89976041  0.78441757  0.82304523  1
  Mo  Mo0  1  0.51058610  0.52693743  0.01654023  1
  O  O0  1  0.59540118  0.68569635  0.42671457  1
  O  O1  1  0.38493473  0.34575770  0.61002387  1
  O  O2  1  0.81192375  0.87603790  0.07449740  1
  O  O3  1  0.16578789  0.65177483  -0.12432300  1
  O  O4  1  0.17827223  0.15350349  0.93998261  1
  O  O5  1  0.85395270  0.41993494  0.17712090  1
loop_
_geom_bond_atom_site_label_1
_geom_bond_atom_site_label_2
_geom_bond_distance
_geom_bond_site_symmetry_2
Ba0 O5 2.579155 1_555
Ba0 O3 2.688069 1_656
Ba0 O2 2.764969 1_545
Ba0 O0 2.891440 1_545
Ba0 O4 2.976987 1_655
Ba0 O1 3.020048 1_655
Ba0 O4 3.057589 1_554
Ba0 O3 3.155194 1_545
Ba0 O1 3.179021 1_555
Ba1 O1 2.648561 1_565
Ba1 O5 2.709646 1_455
Ba1 O3 2.738938 1_556
Ba1 O4 2.774783 1_565
Ba1 O0 2.944297 1_555
Ba1 O2 2.946663 1_556
Ba1 O2 3.051496 1_455
Ba1 O5 3.123076 1_566
Mg0 O5 1.944414 1_455
Mg0 O1 1.963046 1_555
Mg0 O4 1.984018 1_554
Mg0 O0 2.133910 1_555
Mg0 O2 2.600003 1_445
Fe0 O3 1.874042 1_656
Fe0 O2 1.908135 1_556
Fe0 O0 1.945955 1_555
Fe0 O4 2.040826 1_665
Mo0 O5 2.111918 1_555
Mo0 O1 2.117710 1_554
Mo0 O2 2.152736 1_555
Mo0 O3 2.191090 1_555
Mo0 O0 2.234558 1_555
Mo0 O4 2.284594 1_554
