# generated using pymatgen
data_Na2MgAlP(SO6)2
_symmetry_space_group_name_H-M   'P 1'
_cell_length_a   8.64121540
_cell_length_b   8.61292842
_cell_length_c   21.89277119
_cell_angle_alpha   90.49630192
_cell_angle_beta   90.00000000
_cell_angle_gamma   120.10870159
_symmetry_Int_Tables_number   1
_chemical_formula_structural   Na2MgAlP(SO6)2
_chemical_formula_sum   'Na12 Mg6 Al6 P6 S12 O72'
_cell_volume   1409.47870713
_cell_formula_units_Z   6
loop_
 _symmetry_equiv_pos_site_id
 _symmetry_equiv_pos_as_xyz
  1  'x, y, z'
loop_
 _atom_site_type_symbol
 _atom_site_label
 _atom_site_symmetry_multiplicity
 _atom_site_fract_x
 _atom_site_fract_y
 _atom_site_fract_z
 _atom_site_occupancy
  Na  Na0  1  0.99838012  0.63772516  0.24491652  1
  Na  Na1  1  0.63934504  0.63772516  0.74491652  1
  Na  Na2  1  0.66109002  0.96266835  0.58107501  1
  Na  Na3  1  0.30157934  0.96266835  0.08107501  1
  Na  Na4  1  0.69405284  0.02694915  0.91209332  1
  Na  Na5  1  0.33289531  0.02694915  0.41209332  1
  Na  Na6  1  0.98665654  0.99321887  0.49800429  1
  Na  Na7  1  0.00656233  0.99321887  0.99800429  1
  Na  Na8  1  0.66124277  0.31994609  0.83133915  1
  Na  Na9  1  0.65870431  0.31994609  0.33133915  1
  Na  Na10  1  0.33463014  0.65873350  0.16480028  1
  Na  Na11  1  0.32410236  0.65873350  0.66480028  1
  Mg  Mg0  1  0.99591518  0.00344292  0.35237263  1
  Mg  Mg1  1  0.00752774  0.00344292  0.85237263  1
  Mg  Mg2  1  0.66672289  0.32909983  0.68530782  1
  Mg  Mg3  1  0.66237794  0.32909983  0.18530782  1
  Mg  Mg4  1  0.32491075  0.66472831  0.01892258  1
  Mg  Mg5  1  0.33981656  0.66472831  0.51892258  1
  Al  Al0  1  0.99126865  0.98953987  0.64943592  1
  Al  Al1  1  0.99827122  0.98953987  0.14943592  1
  Al  Al2  1  0.66676530  0.34107023  0.98214786  1
  Al  Al3  1  0.67430593  0.34107023  0.48214786  1
  Al  Al4  1  0.34662620  0.68405485  0.31549521  1
  Al  Al5  1  0.33742765  0.68405485  0.81549521  1
  P  P0  1  0.29373742  -0.00089885  0.25189191  1
  P  P1  1  0.70536373  -0.00089885  0.75189191  1
  P  P2  1  0.67197488  0.62353948  0.58541563  1
  P  P3  1  0.95156560  0.62353948  0.08541563  1
  P  P4  1  0.33696400  0.96618026  0.91983410  1
  P  P5  1  0.62921526  0.96618026  0.41983410  1
  S  S0  1  0.70359403  0.71208778  0.25041531  1
  S  S1  1  0.00683184  0.29126328  0.24976604  1
  S  S2  1  0.28443144  0.29126328  0.74976604  1
  S  S3  1  0.00849376  0.71208778  0.75041531  1
  S  S4  1  0.95900650  0.33309808  0.58374763  1
  S  S5  1  0.36662463  0.04437830  0.58291471  1
  S  S6  1  0.67775467  0.04437830  0.08291471  1
  S  S7  1  0.37409257  0.33309808  0.08374763  1
  S  S8  1  0.61961314  0.65786038  0.91654496  1
  S  S9  1  0.04337352  0.38227007  0.91588818  1
  S  S10  1  0.33889555  0.38227007  0.41588818  1
  S  S11  1  0.03824624  0.65786038  0.41654496  1
  O  O0  1  0.20774820  0.01984511  0.30974568  1
  O  O1  1  0.81626703  0.79207483  0.30432275  1
  O  O2  1  0.97796094  0.18610244  0.30430105  1
  O  O3  1  0.20814150  0.18610244  0.80430105  1
  O  O4  1  0.97580780  0.79207483  0.80432275  1
  O  O5  1  0.81209691  0.01984511  0.80974568  1
  O  O6  1  0.79415988  0.96173318  0.69424801  1
  O  O7  1  0.17335358  0.20279751  0.69405379  1
  O  O8  1  0.03861561  0.82444898  0.69492235  1
  O  O9  1  0.78583338  0.82444898  0.19492235  1
  O  O10  1  0.02944392  0.20279751  0.19405379  1
  O  O11  1  0.16757330  0.96173318  0.19424801  1
  O  O12  1  0.87921344  0.35841058  0.63865464  1
  O  O13  1  0.48535934  0.12511964  0.63560236  1
  O  O14  1  0.64817157  0.52117083  0.64408353  1
  O  O15  1  0.87300026  0.52117083  0.14408353  1
  O  O16  1  0.63976130  0.12511964  0.13560236  1
  O  O17  1  0.47919814  0.35841058  0.13865464  1
  O  O18  1  0.45570475  0.29417816  0.02884960  1
  O  O19  1  0.83083575  0.52864047  0.02851364  1
  O  O20  1  0.70266448  0.15135520  0.02600307  1
  O  O21  1  0.44869172  0.15135520  0.52600307  1
  O  O22  1  0.69780572  0.52864047  0.52851364  1
  O  O23  1  0.83847441  0.29417816  0.52884960  1
  O  O24  1  0.53642447  0.68902635  0.96965975  1
  O  O25  1  0.14885282  0.45851855  0.97093148  1
  O  O26  1  0.31460257  0.86099647  0.97786172  1
  O  O27  1  0.54639290  0.86099647  0.47786172  1
  O  O28  1  0.30966472  0.45851855  0.47093148  1
  O  O29  1  0.15260088  0.68902635  0.46965975  1
  O  O30  1  0.11851834  0.62963346  0.35921108  1
  O  O31  1  0.49834612  0.87421721  0.36377517  1
  O  O32  1  0.36212083  0.49282801  0.36070173  1
  O  O33  1  0.13070618  0.49282801  0.86070173  1
  O  O34  1  0.37587008  0.87421721  0.86377517  1
  O  O35  1  0.51111412  0.62963346  0.85921108  1
  O  O36  1  0.01953629  0.81903649  0.41062423  1
  O  O37  1  0.81379813  0.98995491  0.41070620  1
  O  O38  1  0.18525738  0.19697303  0.40978486  1
  O  O39  1  0.01171565  0.19697303  0.90978486  1
  O  O40  1  0.17615678  0.98995491  0.91070620  1
  O  O41  1  0.79950020  0.81903649  0.91062423  1
  O  O42  1  0.97260509  0.16505278  0.58930884  1
  O  O43  1  0.19006485  0.03290219  0.59104710  1
  O  O44  1  0.84512778  0.81829453  0.59010947  1
  O  O45  1  0.97316676  0.81829453  0.09010947  1
  O  O46  1  0.84283734  0.03290219  0.09104710  1
  O  O47  1  0.19244769  0.16505278  0.08930884  1
  O  O48  1  0.67966268  0.15953928  0.74378911  1
  O  O49  1  0.46855519  0.32120564  0.74353450  1
  O  O50  1  0.84841126  0.53229311  0.74324595  1
  O  O51  1  0.68388285  0.53229311  0.24324595  1
  O  O52  1  0.85265144  0.32120564  0.24353450  1
  O  O53  1  0.47987760  0.15953928  0.24378911  1
  O  O54  1  0.63678434  0.49486801  0.92278484  1
  O  O55  1  0.86053469  0.36465351  0.92110594  1
  O  O56  1  0.51717822  0.15491657  0.92588070  1
  O  O57  1  0.63773935  0.15491657  0.42588070  1
  O  O58  1  0.50411983  0.36465351  0.42110594  1
  O  O59  1  0.85808467  0.49486801  0.42278484  1
  O  O60  1  0.35356647  0.48972253  0.07531451  1
  O  O61  1  0.14297473  0.65428162  0.07902459  1
  O  O62  1  0.52016590  0.86166824  0.07646172  1
  O  O63  1  0.34150134  0.86166824  0.57646172  1
  O  O64  1  0.51130589  0.65428162  0.57902459  1
  O  O65  1  0.13615505  0.48972253  0.57531451  1
  O  O66  1  0.30224951  0.81885175  0.25696003  1
  O  O67  1  0.52323056  0.69396546  0.25719143  1
  O  O68  1  0.17256290  0.47446746  0.25535553  1
  O  O69  1  0.30190356  0.47446746  0.75535553  1
  O  O70  1  0.17073390  0.69396546  0.75719143  1
  O  O71  1  0.51660124  0.81885175  0.75696003  1
loop_
_geom_bond_atom_site_label_1
_geom_bond_atom_site_label_2
_geom_bond_distance
_geom_bond_site_symmetry_2
Na0 O66 2.298072 1_655
Na0 O52 2.360709 1_555
Na0 O51 2.394785 1_555
Na0 O15 2.434156 1_555
Na0 O68 2.534532 1_655
Na0 O11 2.667582 1_655
Na0 O30 2.723845 1_655
Na0 O1 2.829173 1_555
Na1 O71 2.298079 1_555
Na1 O49 2.360709 1_555
Na1 O50 2.394793 1_555
Na1 O14 2.434158 1_555
Na1 O69 2.534540 1_555
Na1 O6 2.667582 1_555
Na1 O35 2.723848 1_555
Na1 O4 2.829173 1_555
Na2 O64 2.298042 1_555
Na2 O42 2.367280 1_565
Na2 O27 2.439266 1_555
Na2 O63 2.445769 1_555
Na2 O44 2.470370 1_555
Na2 O6 2.733275 1_555
Na2 O23 2.734034 1_565
Na2 O13 2.791311 1_565
Na3 O61 2.298043 1_555
Na3 O47 2.367287 1_565
Na3 O26 2.439262 1_554
Na3 O62 2.445753 1_555
Na3 O45 2.470378 1_455
Na3 O11 2.733278 1_555
Na3 O18 2.734034 1_565
Na3 O16 2.791311 1_565
Na4 O56 2.307875 1_555
Na4 O39 2.377040 1_655
Na4 O41 2.382040 1_545
Na4 O5 2.474893 1_555
Na4 O55 2.522015 1_555
Na4 O34 2.599281 1_545
Na4 O20 2.691914 1_556
Na4 O24 2.828570 1_545
Na5 O57 2.307890 1_555
Na5 O38 2.377033 1_555
Na5 O36 2.382034 1_545
Na5 O0 2.474889 1_555
Na5 O58 2.522016 1_555
Na5 O31 2.599281 1_545
Na5 O21 2.691917 1_555
Na5 O29 2.828570 1_545
Na6 O37 2.416933 1_555
Na6 O44 2.456746 1_555
Na6 O42 2.515910 1_565
Na6 O36 2.523658 1_655
Na6 O43 2.596294 1_665
Na6 O38 2.606189 1_665
Na7 O40 2.416933 1_555
Na7 O45 2.456746 1_456
Na7 O47 2.515910 1_566
Na7 O41 2.523658 1_455
Na7 O46 2.596294 1_466
Na7 O39 2.606189 1_565
Na8 O48 2.404708 1_555
Na8 O56 2.475834 1_555
Na8 O55 2.509533 1_555
Na8 O49 2.546801 1_555
Na8 O54 2.567040 1_555
Na8 O50 2.602635 1_555
Na9 O53 2.404708 1_555
Na9 O57 2.475834 1_555
Na9 O58 2.509533 1_555
Na9 O52 2.546801 1_555
Na9 O59 2.567040 1_555
Na9 O51 2.602635 1_555
Na10 O60 2.484631 1_555
Na10 O61 2.491121 1_555
Na10 O68 2.496995 1_555
Na10 O67 2.516472 1_555
Na10 O66 2.527836 1_555
Na10 O62 2.571536 1_555
Na11 O65 2.484631 1_555
Na11 O64 2.491121 1_555
Na11 O69 2.496995 1_555
Na11 O70 2.516472 1_555
Na11 O71 2.527836 1_555
Na11 O63 2.571536 1_555
Mg0 O2 1.969845 1_555
Mg0 O37 1.984983 1_545
Mg0 O1 1.990508 1_545
Mg0 O0 1.996099 1_655
Mg0 O38 2.064643 1_655
Mg0 O36 2.133308 1_645
Mg1 O3 1.969845 1_555
Mg1 O40 1.984983 1_545
Mg1 O4 1.990508 1_445
Mg1 O5 1.996099 1_455
Mg1 O39 2.064643 1_555
Mg1 O41 2.133308 1_445
Mg2 O14 1.966938 1_555
Mg2 O13 1.982759 1_555
Mg2 O48 1.995181 1_555
Mg2 O12 2.004462 1_555
Mg2 O50 2.083629 1_555
Mg2 O49 2.108703 1_555
Mg3 O15 1.966938 1_555
Mg3 O16 1.982759 1_555
Mg3 O53 1.995181 1_555
Mg3 O17 2.004462 1_555
Mg3 O51 2.083629 1_555
Mg3 O52 2.108703 1_555
Mg4 O25 1.956935 1_554
Mg4 O26 1.962401 1_554
Mg4 O61 2.017723 1_555
Mg4 O24 2.041501 1_554
Mg4 O60 2.064991 1_555
Mg4 O62 2.098198 1_555
Mg5 O28 1.956935 1_555
Mg5 O27 1.962401 1_555
Mg5 O64 2.017723 1_555
Mg5 O29 2.041501 1_555
Mg5 O65 2.064991 1_555
Mg5 O63 2.098198 1_555
Al0 O6 1.875030 1_555
Al0 O44 1.885523 1_555
Al0 O8 1.946561 1_655
Al0 O7 1.967987 1_665
Al0 O43 2.022149 1_665
Al0 O42 2.079190 1_565
Al1 O11 1.875030 1_655
Al1 O45 1.885523 1_555
Al1 O9 1.946561 1_555
Al1 O10 1.967987 1_665
Al1 O46 2.022149 1_565
Al1 O47 2.079190 1_665
Al2 O19 1.823184 1_556
Al2 O56 1.909305 1_555
Al2 O18 1.950111 1_556
Al2 O54 1.971030 1_555
Al2 O20 2.055174 1_556
Al2 O55 2.072261 1_555
Al3 O22 1.823184 1_555
Al3 O57 1.909305 1_555
Al3 O23 1.950111 1_555
Al3 O59 1.971030 1_555
Al3 O21 2.055174 1_555
Al3 O58 2.072261 1_555
Al4 O31 1.825999 1_555
Al4 O66 1.899905 1_555
Al4 O67 1.958741 1_555
Al4 O32 1.989874 1_555
Al4 O30 2.025299 1_555
Al4 O68 2.118776 1_555
Al5 O34 1.825999 1_555
Al5 O71 1.899905 1_555
Al5 O70 1.958741 1_555
Al5 O33 1.989874 1_555
Al5 O35 2.025299 1_555
Al5 O69 2.118776 1_555
O0 P0 1.522348 1_555
O1 S0 1.458890 1_555
O2 S1 1.449168 1_655
O3 S2 1.449168 1_555
O4 S3 1.458890 1_655
O5 P1 1.522348 1_555
O6 P1 1.589239 1_565
O7 S2 1.496554 1_555
O8 S3 1.499307 1_555
O9 S0 1.499307 1_555
O10 S1 1.496554 1_555
O11 P0 1.589239 1_565
O12 S4 1.454027 1_555
O13 S5 1.461873 1_555
O14 P2 1.518898 1_555
O15 P3 1.518898 1_555
O16 S6 1.461873 1_555
O17 S7 1.454027 1_555
O18 S7 1.511425 1_555
O19 P3 1.560504 1_555
O20 S6 1.506184 1_555
O21 S5 1.506184 1_555
O22 P2 1.560504 1_555
O23 S4 1.511425 1_555
O24 S8 1.459165 1_555
O25 S9 1.449120 1_555
O26 P4 1.521924 1_555
O27 P5 1.521924 1_555
O28 S10 1.449120 1_555
O29 S11 1.459165 1_555
O30 S11 1.509861 1_555
O31 P5 1.580177 1_555
O32 S10 1.494965 1_555
O33 S9 1.494965 1_555
O34 P4 1.580177 1_555
O35 S8 1.509861 1_555
O36 S11 1.482676 1_555
O37 P5 1.516239 1_555
O38 S10 1.482571 1_555
O39 S9 1.482574 1_555
O40 P4 1.516230 1_555
O41 S8 1.482681 1_555
O42 S4 1.515644 1_555
O43 S5 1.489365 1_555
O44 P2 1.594358 1_555
O45 P3 1.594362 1_555
O46 S6 1.489356 1_555
O47 S7 1.515649 1_555
O48 P1 1.517374 1_555
O49 S2 1.485097 1_555
O50 S3 1.477440 1_655
O51 S0 1.477444 1_555
O52 S1 1.485088 1_655
O53 P0 1.517379 1_555
O54 S8 1.491227 1_555
O55 S9 1.513968 1_655
O56 P4 1.594240 1_545
O57 P5 1.594232 1_545
O58 S10 1.513985 1_555
O59 S11 1.491217 1_655
O60 S7 1.459351 1_555
O61 P3 1.544889 1_455
O62 S6 1.482205 1_565
O63 S5 1.482198 1_565
O64 P2 1.544906 1_555
O65 S4 1.459341 1_455
O66 P0 1.595447 1_565
O67 S0 1.493925 1_555
O68 S1 1.511701 1_555
O69 S2 1.511705 1_555
O70 S3 1.493916 1_555
O71 P1 1.595452 1_565
