# generated using pymatgen
data_Cs2TiOF5
_symmetry_space_group_name_H-M   'P 1'
_cell_length_a   6.69589795
_cell_length_b   6.69589795
_cell_length_c   8.09519665
_cell_angle_alpha   90.00000000
_cell_angle_beta   90.00000000
_cell_angle_gamma   91.99605845
_symmetry_Int_Tables_number   1
_chemical_formula_structural   Cs2TiOF5
_chemical_formula_sum   'Cs4 Ti2 O2 F10'
_cell_volume   362.72831328
_cell_formula_units_Z   2
loop_
 _symmetry_equiv_pos_site_id
 _symmetry_equiv_pos_as_xyz
  1  'x, y, z'
loop_
 _atom_site_type_symbol
 _atom_site_label
 _atom_site_symmetry_multiplicity
 _atom_site_fract_x
 _atom_site_fract_y
 _atom_site_fract_z
 _atom_site_occupancy
  Cs  Cs0  1  0.00074535  0.50191390  0.25000000  1
  Cs  Cs1  1  0.49808610  -0.00074535  0.75000000  1
  Cs  Cs2  1  -0.00074535  0.49808610  0.75000000  1
  Cs  Cs3  1  0.50191390  0.00074535  0.25000000  1
  Ti  Ti0  1  0.50000000  0.50000000  0.50000000  1
  Ti  Ti1  1  0.50000000  0.50000000  0.00000000  1
  O  O0  1  0.00797931  0.00797931  0.25000000  1
  O  O1  1  0.99202069  0.99202069  0.75000000  1
  F  F0  1  0.69474567  0.30525433  0.50000000  1
  F  F1  1  0.69474567  0.30525433  0.00000000  1
  F  F2  1  0.30525433  0.69474567  0.50000000  1
  F  F3  1  0.30525433  0.69474567  0.00000000  1
  F  F4  1  0.30102396  0.30102396  0.49965394  1
  F  F5  1  0.69897604  0.69897604  0.50034606  1
  F  F6  1  0.30102396  0.30102396  0.00034606  1
  F  F7  1  0.69897604  0.69897604  -0.00034606  1
  F  F8  1  0.50099692  0.50099692  0.25000000  1
  F  F9  1  0.49900308  0.49900308  0.75000000  1
loop_
_geom_bond_atom_site_label_1
_geom_bond_atom_site_label_2
_geom_bond_distance
_geom_bond_site_symmetry_2
Cs0 F3 3.120397 1_555
Cs0 F2 3.120397 1_555
Cs0 F0 3.136873 1_455
Cs0 F1 3.136873 1_455
Cs0 F7 3.180697 1_455
Cs0 F5 3.180697 1_455
Cs0 F4 3.181963 1_555
Cs0 F6 3.181963 1_555
Cs0 O0 3.309377 1_555
Cs0 F8 3.346056 1_455
Cs0 F8 3.349853 1_555
Cs0 O0 3.387221 1_565
Cs1 F3 3.120397 1_546
Cs1 F2 3.120397 1_545
Cs1 F1 3.136873 1_556
Cs1 F0 3.136873 1_555
Cs1 F4 3.180697 1_555
Cs1 F6 3.180697 1_556
Cs1 F7 3.181963 1_546
Cs1 F5 3.181963 1_545
Cs1 O1 3.309377 1_545
Cs1 F9 3.346056 1_555
Cs1 F9 3.349853 1_545
Cs1 O1 3.387221 1_445
Cs2 F0 3.120397 1_455
Cs2 F1 3.120397 1_456
Cs2 F2 3.136873 1_555
Cs2 F3 3.136873 1_556
Cs2 F4 3.180697 1_555
Cs2 F6 3.180697 1_556
Cs2 F5 3.181963 1_455
Cs2 F7 3.181963 1_456
Cs2 O1 3.309377 1_455
Cs2 F9 3.346056 1_555
Cs2 F9 3.349853 1_455
Cs2 O1 3.387221 1_445
Cs3 F0 3.120397 1_555
Cs3 F1 3.120397 1_555
Cs3 F3 3.136873 1_545
Cs3 F2 3.136873 1_545
Cs3 F7 3.180697 1_545
Cs3 F5 3.180697 1_545
Cs3 F6 3.181963 1_555
Cs3 F4 3.181963 1_555
Cs3 O0 3.309377 1_555
Cs3 F8 3.346056 1_545
Cs3 F8 3.349853 1_555
Cs3 O0 3.387221 1_655
F0 Ti0 1.875972 1_555
F1 Ti1 1.875972 1_555
F2 Ti0 1.875972 1_555
F3 Ti1 1.875972 1_555
F4 Ti0 1.851087 1_555
F5 Ti0 1.851087 1_555
F6 Ti1 1.851087 1_555
F7 Ti1 1.851087 1_555
F8 Ti0 2.023820 1_555
F8 Ti1 2.023820 1_555
F9 Ti0 2.023820 1_555
F9 Ti1 2.023820 1_556
