# generated using pymatgen
data_Ba2Tb2Co4O11
_symmetry_space_group_name_H-M   'P 1'
_cell_length_a   3.92112700
_cell_length_b   7.68920000
_cell_length_c   7.86510700
_cell_angle_alpha   90.00000000
_cell_angle_beta   90.00000000
_cell_angle_gamma   90.00000000
_symmetry_Int_Tables_number   1
_chemical_formula_structural   Ba2Tb2Co4O11
_chemical_formula_sum   'Ba2 Tb2 Co4 O11'
_cell_volume   237.13556940
_cell_formula_units_Z   1
loop_
 _symmetry_equiv_pos_site_id
 _symmetry_equiv_pos_as_xyz
  1  'x, y, z'
loop_
 _atom_site_type_symbol
 _atom_site_label
 _atom_site_symmetry_multiplicity
 _atom_site_fract_x
 _atom_site_fract_y
 _atom_site_fract_z
 _atom_site_occupancy
  Ba  Ba0  1  0.50000100  0.00000000  0.75052900  1
  Ba  Ba1  1  0.50000100  0.00000000  0.24947100  1
  Tb  Tb0  1  0.50000100  0.50000000  0.27201400  1
  Tb  Tb1  1  0.50000100  0.50000000  0.72798600  1
  Co  Co0  1  0.00000000  0.25999800  0.00000000  1
  Co  Co1  1  0.00000000  0.74000200  0.00000000  1
  Co  Co2  1  0.00000000  0.74602200  0.49999900  1
  Co  Co3  1  0.00000000  0.25397800  0.49999900  1
  O  O0  1  0.00000000  0.30295000  0.77047200  1
  O  O1  1  0.00000000  0.69705000  0.22952800  1
  O  O2  1  0.00000000  0.30295000  0.22952800  1
  O  O3  1  0.00000000  0.69705000  0.77047200  1
  O  O4  1  0.50000100  0.27798500  0.49999900  1
  O  O5  1  0.50000100  0.72201600  0.49999900  1
  O  O6  1  0.50000100  0.31569500  0.00000000  1
  O  O7  1  0.50000100  0.68430500  0.00000000  1
  O  O8  1  0.00000000  0.00000000  0.00000000  1
  O  O9  1  0.00000000  0.50000000  0.49999900  1
  O  O10  1  0.00000000  0.00000000  0.49999900  1
loop_
_geom_bond_atom_site_label_1
_geom_bond_atom_site_label_2
_geom_bond_distance
_geom_bond_site_symmetry_2
Ba0 O8 2.773751 1_656
Ba0 O8 2.773756 1_556
Ba0 O10 2.779649 1_655
Ba0 O10 2.779654 1_555
Ba0 O5 2.907138 1_545
Ba0 O4 2.907144 1_555
Ba0 O0 3.048721 1_655
Ba0 O3 3.048721 1_645
Ba0 O0 3.048726 1_555
Ba0 O3 3.048726 1_545
Ba0 O7 3.121278 1_546
Ba0 O6 3.121278 1_556
Ba1 O8 2.773751 1_655
Ba1 O8 2.773756 1_555
Ba1 O10 2.779638 1_655
Ba1 O10 2.779643 1_555
Ba1 O5 2.907127 1_545
Ba1 O4 2.907133 1_555
Ba1 O2 3.048721 1_655
Ba1 O1 3.048721 1_645
Ba1 O2 3.048726 1_555
Ba1 O1 3.048726 1_545
Ba1 O7 3.121278 1_545
Ba1 O6 3.121278 1_555
Co0 O0 1.835224 1_554
Co0 O2 1.835224 1_555
Co0 O8 1.999177 1_555
Co0 O6 2.006790 1_455
Co0 O6 2.006797 1_555
Co1 O3 1.835224 1_554
Co1 O1 1.835224 1_555
Co1 O8 1.999177 1_565
Co1 O7 2.006790 1_455
Co1 O7 2.006797 1_555
Co2 O9 1.891712 1_555
Co2 O10 1.952888 1_565
Co2 O5 1.969230 1_455
Co2 O5 1.969238 1_555
Co2 O1 2.160354 1_555
Co2 O3 2.160369 1_555
Co3 O9 1.891712 1_555
Co3 O10 1.952888 1_555
Co3 O4 1.969231 1_455
Co3 O4 1.969238 1_555
Co3 O2 2.160354 1_555
Co3 O0 2.160369 1_555
O0 Tb1 2.500231 1_455
O0 Tb1 2.500237 1_555
O1 Tb0 2.500231 1_455
O1 Tb0 2.500237 1_555
O2 Tb0 2.500231 1_455
O2 Tb0 2.500237 1_555
O3 Tb1 2.500231 1_455
O3 Tb1 2.500237 1_555
O4 Tb0 2.475793 1_555
O4 Tb1 2.475805 1_555
O5 Tb0 2.475799 1_555
O5 Tb1 2.475810 1_555
O6 Tb1 2.566213 1_554
O6 Tb0 2.566213 1_555
O7 Tb1 2.566213 1_554
O7 Tb0 2.566213 1_555
O9 Tb0 2.656896 1_455
O9 Tb0 2.656902 1_555
O9 Tb1 2.656907 1_455
O9 Tb1 2.656912 1_555
