# generated using pymatgen
data_V2(PO4)3
_symmetry_space_group_name_H-M   'P 1'
_cell_length_a   8.51173690
_cell_length_b   8.51173690
_cell_length_c   8.51173739
_cell_angle_alpha   60.62351838
_cell_angle_beta   60.62351838
_cell_angle_gamma   60.62352486
_symmetry_Int_Tables_number   1
_chemical_formula_structural   V2(PO4)3
_chemical_formula_sum   'V4 P6 O24'
_cell_volume   442.19298911
_cell_formula_units_Z   2
loop_
 _symmetry_equiv_pos_site_id
 _symmetry_equiv_pos_as_xyz
  1  'x, y, z'
loop_
 _atom_site_type_symbol
 _atom_site_label
 _atom_site_symmetry_multiplicity
 _atom_site_fract_x
 _atom_site_fract_y
 _atom_site_fract_z
 _atom_site_occupancy
  V  V0  1  0.36362500  0.36362500  0.36362500  1
  V  V1  1  0.13637500  0.13637500  0.13637500  1
  V  V2  1  0.86362500  0.86362500  0.86362500  1
  V  V3  1  0.63637500  0.63637500  0.63637500  1
  P  P0  1  0.03571800  0.46428200  0.75000000  1
  P  P1  1  0.96428200  0.53571800  0.25000000  1
  P  P2  1  0.25000000  0.96428200  0.53571800  1
  P  P3  1  0.53571800  0.25000000  0.96428200  1
  P  P4  1  0.46428200  0.75000000  0.03571800  1
  P  P5  1  0.75000000  0.03571800  0.46428200  1
  O  O0  1  0.69787100  0.86926700  0.50042300  1
  O  O1  1  0.94047400  0.72578000  0.08333900  1
  O  O2  1  0.44047400  0.58333900  0.22578000  1
  O  O3  1  0.55952600  0.41666100  0.77422000  1
  O  O4  1  0.22578000  0.44047400  0.58333900  1
  O  O5  1  0.27422000  0.91666100  0.05952600  1
  O  O6  1  0.77422000  0.55952600  0.41666100  1
  O  O7  1  0.19787100  0.00042300  0.36926700  1
  O  O8  1  0.80212900  0.99957700  0.63073300  1
  O  O9  1  0.00042300  0.36926700  0.19787100  1
  O  O10  1  0.36926700  0.19787100  0.00042300  1
  O  O11  1  0.30212900  0.13073300  0.49957700  1
  O  O12  1  0.86926700  0.50042300  0.69787100  1
  O  O13  1  0.72578000  0.08333900  0.94047400  1
  O  O14  1  0.13073300  0.49957700  0.30212900  1
  O  O15  1  0.50042300  0.69787100  0.86926700  1
  O  O16  1  0.41666100  0.77422000  0.55952600  1
  O  O17  1  0.58333900  0.22578000  0.44047400  1
  O  O18  1  0.99957700  0.63073300  0.80212900  1
  O  O19  1  0.05952600  0.27422000  0.91666100  1
  O  O20  1  0.49957700  0.30212900  0.13073300  1
  O  O21  1  0.08333900  0.94047400  0.72578000  1
  O  O22  1  0.91666100  0.05952600  0.27422000  1
  O  O23  1  0.63073300  0.80212900  0.99957700  1
loop_
_geom_bond_atom_site_label_1
_geom_bond_atom_site_label_2
_geom_bond_distance
_geom_bond_site_symmetry_2
O0 P5 1.534288 1_565
O0 V3 1.927652 1_555
O1 P1 1.542544 1_555
O1 V2 1.896419 1_554
O2 P4 1.542544 1_555
O2 V0 1.896418 1_555
O3 P3 1.542544 1_555
O3 V3 1.896418 1_555
O4 P0 1.542544 1_555
O4 V0 1.896419 1_555
O5 P4 1.542544 1_555
O5 V1 1.896419 1_565
O6 P1 1.542544 1_555
O6 V3 1.896419 1_555
O7 P2 1.534288 1_545
O7 V1 1.927652 1_555
O8 P5 1.534288 1_565
O8 V2 1.927652 1_555
O9 P1 1.534288 1_455
O9 V1 1.927652 1_555
O10 P3 1.534288 1_554
O10 V1 1.927652 1_555
O11 P2 1.534288 1_545
O11 V0 1.927652 1_555
O12 P0 1.534288 1_655
O12 V3 1.927652 1_555
O13 P3 1.542544 1_555
O13 V2 1.896419 1_545
O14 P1 1.534288 1_455
O14 V0 1.927652 1_555
O15 P4 1.534288 1_556
O15 V3 1.927652 1_555
O16 P2 1.542544 1_555
O16 V3 1.896419 1_555
O17 P5 1.542544 1_555
O17 V0 1.896419 1_555
O18 P0 1.534288 1_655
O18 V2 1.927652 1_555
O19 P0 1.542544 1_555
O19 V1 1.896419 1_556
O20 P3 1.534288 1_554
O20 V0 1.927652 1_555
O21 P2 1.542544 1_555
O21 V2 1.896418 1_455
O22 P5 1.542544 1_555
O22 V1 1.896418 1_655
O23 P4 1.534288 1_556
O23 V2 1.927652 1_555
