# generated using pymatgen
data_KY3F10
_symmetry_space_group_name_H-M   'P 1'
_cell_length_a   8.15330750
_cell_length_b   8.15330931
_cell_length_c   8.15330040
_cell_angle_alpha   59.99992598
_cell_angle_beta   59.99992716
_cell_angle_gamma   59.99984838
_symmetry_Int_Tables_number   1
_chemical_formula_structural   KY3F10
_chemical_formula_sum   'K2 Y6 F20'
_cell_volume   383.25268562
_cell_formula_units_Z   2
loop_
 _symmetry_equiv_pos_site_id
 _symmetry_equiv_pos_as_xyz
  1  'x, y, z'
loop_
 _atom_site_type_symbol
 _atom_site_label
 _atom_site_symmetry_multiplicity
 _atom_site_fract_x
 _atom_site_fract_y
 _atom_site_fract_z
 _atom_site_occupancy
  K  K0  1  0.74999991  0.74999992  0.75000004  1
  K  K1  1  0.25000010  0.24999993  0.25000001  1
  Y  Y0  1  0.75991817  0.75991942  0.24008196  1
  Y  Y1  1  0.24008240  0.75991708  0.24008183  1
  Y  Y2  1  0.75991805  0.24008187  0.24008191  1
  Y  Y3  1  0.24008043  0.24008188  0.75991865  1
  Y  Y4  1  0.75991838  0.24008174  0.75991766  1
  Y  Y5  1  0.24008268  0.75991798  0.75991790  1
  F  F0  1  0.88783523  0.88783519  0.33649354  1
  F  F1  1  0.88783539  0.33649365  0.88783539  1
  F  F2  1  0.33649366  0.88783515  0.88783545  1
  F  F3  1  0.88783516  0.88783520  0.88783552  1
  F  F4  1  0.11216458  0.11216483  0.66350652  1
  F  F5  1  0.11216470  0.66350627  0.11216460  1
  F  F6  1  0.66350646  0.11216465  0.11216460  1
  F  F7  1  0.11216462  0.11216510  0.11216443  1
  F  F8  1  0.50000047  0.50000021  0.83182306  1
  F  F9  1  0.16817761  0.50000030  0.83182238  1
  F  F10  1  0.49999992  0.16817775  0.83182251  1
  F  F11  1  0.16817750  0.83182227  0.50000003  1
  F  F12  1  0.50000027  0.83182261  0.50000071  1
  F  F13  1  0.49999980  0.83182234  0.16817760  1
  F  F14  1  0.83182180  0.16817824  0.49999992  1
  F  F15  1  0.83182289  0.50000003  0.16817719  1
  F  F16  1  0.83182318  0.50000035  0.50000050  1
  F  F17  1  0.49999996  0.49999958  0.16817701  1
  F  F18  1  0.49999970  0.16817662  0.49999962  1
  F  F19  1  0.16817698  0.49999985  0.49999948  1
loop_
_geom_bond_atom_site_label_1
_geom_bond_atom_site_label_2
_geom_bond_distance
_geom_bond_site_symmetry_2
F0 Y0 2.349630 1_555
F0 Y2 2.349640 1_565
F0 Y1 2.349643 1_655
F0 K0 2.752769 1_555
F1 Y3 2.349629 1_655
F1 Y2 2.349638 1_556
F1 Y4 2.349644 1_555
F1 K0 2.752769 1_555
F2 Y1 2.349638 1_556
F2 Y5 2.349638 1_555
F2 Y3 2.349640 1_565
F2 K0 2.752768 1_555
F3 Y0 2.349637 1_556
F3 Y4 2.349639 1_565
F3 Y5 2.349645 1_655
F3 K0 2.752772 1_555
F4 Y3 2.349633 1_555
F4 Y4 2.349637 1_455
F4 Y5 2.349642 1_545
F4 K1 2.752770 1_555
F5 Y1 2.349638 1_555
F5 Y0 2.349638 1_455
F5 Y5 2.349640 1_554
F5 K1 2.752769 1_555
F6 Y0 2.349631 1_545
F6 Y2 2.349641 1_555
F6 Y4 2.349641 1_554
F6 K1 2.752769 1_555
F7 Y3 2.349633 1_554
F7 Y2 2.349639 1_455
F7 Y1 2.349649 1_545
F7 K1 2.752771 1_555
F8 Y5 2.198784 1_555
F8 Y4 2.198788 1_555
F9 Y5 2.198790 1_555
F9 Y3 2.198792 1_555
F10 Y4 2.198790 1_555
F10 Y3 2.198797 1_555
F11 Y5 2.198790 1_555
F11 Y1 2.198791 1_555
F12 Y5 2.198783 1_555
F12 Y0 2.198785 1_555
F13 Y1 2.198789 1_555
F13 Y0 2.198794 1_555
F14 Y4 2.198783 1_555
F14 Y2 2.198785 1_555
F15 Y2 2.198792 1_555
F15 Y0 2.198800 1_555
F16 Y4 2.198788 1_555
F16 Y0 2.198792 1_555
F17 Y1 2.198781 1_555
F17 Y2 2.198785 1_555
F18 Y2 2.198789 1_555
F18 Y3 2.198795 1_555
F19 Y1 2.198784 1_555
F19 Y3 2.198788 1_555
