# generated using pymatgen
data_La2MgZnSbO6
_symmetry_space_group_name_H-M   'P 1'
_cell_length_a   6.88252135
_cell_length_b   6.60394196
_cell_length_c   6.37356183
_cell_angle_alpha   56.12331725
_cell_angle_beta   56.10665654
_cell_angle_gamma   51.04478832
_symmetry_Int_Tables_number   1
_chemical_formula_structural   La2MgZnSbO6
_chemical_formula_sum   'La2 Mg1 Zn1 Sb1 O6'
_cell_volume   177.13766911
_cell_formula_units_Z   1
loop_
 _symmetry_equiv_pos_site_id
 _symmetry_equiv_pos_as_xyz
  1  'x, y, z'
loop_
 _atom_site_type_symbol
 _atom_site_label
 _atom_site_symmetry_multiplicity
 _atom_site_fract_x
 _atom_site_fract_y
 _atom_site_fract_z
 _atom_site_occupancy
  La  La0  1  0.69726851  0.70990146  0.73247284  1
  La  La1  1  0.32501181  0.33233524  0.32685088  1
  Mg  Mg0  1  0.07359818  0.08660915  0.13680822  1
  Zn  Zn0  1  0.57084557  0.53103733  0.45693025  1
  Sb  Sb0  1  0.93663209  0.92198899  0.87269984  1
  O  O0  1  0.38805555  0.72496768  0.16920726  1
  O  O1  1  0.72674111  0.14907387  0.41623526  1
  O  O2  1  0.09806610  0.35605491  0.77604687  1
  O  O3  1  0.61749427  0.31546704  0.86358032  1
  O  O4  1  0.88515492  0.59672237  0.31688729  1
  O  O5  1  0.30613189  0.90084196  0.56769796  1
loop_
_geom_bond_atom_site_label_1
_geom_bond_atom_site_label_2
_geom_bond_distance
_geom_bond_site_symmetry_2
La0 O2 2.274325 1_655
La0 O0 2.392235 1_556
La0 O1 2.506416 1_565
La0 O4 2.533454 1_555
La0 O3 2.577770 1_555
La0 O5 2.710776 1_555
La1 O4 2.379425 1_455
La1 O5 2.420729 1_545
La1 O2 2.421932 1_555
La1 O0 2.438266 1_555
La1 O1 2.492888 1_555
La1 O3 2.497718 1_554
Mg0 O2 1.966040 1_554
Mg0 O0 1.969694 1_545
Mg0 O1 1.969741 1_455
O0 Zn0 2.124772 1_555
O1 Zn0 2.144089 1_555
O3 Sb0 2.092200 1_545
O3 Zn0 2.255483 1_555
O4 Zn0 2.063804 1_555
O4 Sb0 2.411083 1_554
O5 Sb0 2.146671 1_455
O5 Zn0 2.162107 1_555
