# generated using pymatgen
data_Eu(ZnGe)2
_symmetry_space_group_name_H-M   'P 1'
_cell_length_a   4.29846231
_cell_length_b   4.29846271
_cell_length_c   6.11419111
_cell_angle_alpha   110.58002383
_cell_angle_beta   110.58001991
_cell_angle_gamma   89.99999684
_symmetry_Int_Tables_number   1
_chemical_formula_structural   Eu(ZnGe)2
_chemical_formula_sum   'Eu1 Zn2 Ge2'
_cell_volume   98.02265711
_cell_formula_units_Z   1
loop_
 _symmetry_equiv_pos_site_id
 _symmetry_equiv_pos_as_xyz
  1  'x, y, z'
loop_
 _atom_site_type_symbol
 _atom_site_label
 _atom_site_symmetry_multiplicity
 _atom_site_fract_x
 _atom_site_fract_y
 _atom_site_fract_z
 _atom_site_occupancy
  Eu  Eu0  1  -0.00000000  0.00000000  -0.00000000  1
  Zn  Zn0  1  0.75000000  0.25000000  0.50000000  1
  Zn  Zn1  1  0.25000000  0.75000000  0.50000000  1
  Ge  Ge0  1  0.61866084  0.61866084  0.23732268  1
  Ge  Ge1  1  0.38133916  0.38133916  0.76267732  1
loop_
_geom_bond_atom_site_label_1
_geom_bond_atom_site_label_2
_geom_bond_distance
_geom_bond_site_symmetry_2
Eu0 Ge0 3.289917 1_555
Eu0 Ge1 3.289917 1_444
Eu0 Ge1 3.289919 1_544
Eu0 Ge0 3.289919 1_455
Eu0 Ge1 3.289920 1_454
Eu0 Ge0 3.289920 1_545
Eu0 Ge0 3.289922 1_445
Eu0 Ge1 3.289922 1_554
Eu0 Zn1 3.414005 1_544
Eu0 Zn0 3.414005 1_455
Eu0 Zn1 3.414005 1_444
Eu0 Zn0 3.414005 1_555
Eu0 Zn0 3.414005 1_444
Eu0 Zn1 3.414005 1_555
Eu0 Zn1 3.414005 1_545
Eu0 Zn0 3.414005 1_454
Ge0 Ge1 2.518079 1_554
Ge0 Zn1 2.561478 1_555
Ge0 Zn0 2.561478 1_555
Ge0 Zn1 2.561481 1_655
Ge0 Zn0 2.561482 1_565
Ge1 Zn0 2.561478 1_555
Ge1 Zn1 2.561478 1_555
Ge1 Zn0 2.561481 1_455
Ge1 Zn1 2.561482 1_545
