# generated using pymatgen
data_Na3AlGa(PO4)3
_symmetry_space_group_name_H-M   'P 1'
_cell_length_a   8.65179212
_cell_length_b   8.65445919
_cell_length_c   21.62483955
_cell_angle_alpha   90.03151793
_cell_angle_beta   89.98760881
_cell_angle_gamma   120.01585411
_symmetry_Int_Tables_number   1
_chemical_formula_structural   Na3AlGa(PO4)3
_chemical_formula_sum   'Na18 Al6 Ga6 P18 O72'
_cell_volume   1402.03890669
_cell_formula_units_Z   6
loop_
 _symmetry_equiv_pos_site_id
 _symmetry_equiv_pos_as_xyz
  1  'x, y, z'
loop_
 _atom_site_type_symbol
 _atom_site_label
 _atom_site_symmetry_multiplicity
 _atom_site_fract_x
 _atom_site_fract_y
 _atom_site_fract_z
 _atom_site_occupancy
  Na  Na0  1  0.00026327  0.99995857  0.49999618  1
  Na  Na1  1  0.00027427  -0.00002417  0.99988166  1
  Na  Na2  1  0.64579910  0.32150135  0.83381728  1
  Na  Na3  1  0.67847040  0.35421502  0.33341639  1
  Na  Na4  1  0.33400481  0.66654836  0.16660345  1
  Na  Na5  1  0.33339684  0.66614898  0.66705864  1
  Na  Na6  1  0.63230319  0.99723546  0.24975087  1
  Na  Na7  1  0.36751647  0.36620716  0.24979782  1
  Na  Na8  1  0.63560778  0.63360609  0.75020803  1
  Na  Na9  1  0.00183127  0.36621848  0.75018113  1
  Na  Na10  1  0.02826271  0.69842155  0.58352620  1
  Na  Na11  1  0.66574208  0.96866941  0.58326773  1
  Na  Na12  1  0.30056613  0.96989215  0.08350758  1
  Na  Na13  1  0.03332101  0.33530786  0.08331358  1
  Na  Na14  1  0.96644045  0.66424678  0.91731668  1
  Na  Na15  1  0.69864923  0.02994037  0.91669503  1
  Na  Na16  1  0.96888641  0.30213147  0.41632186  1
  Na  Na17  1  0.33743227  0.03422159  0.41690957  1
  Al  Al0  1  0.99390242  0.99190669  0.35267026  1
  Al  Al1  1  0.00826015  0.00609758  0.85293657  1
  Al  Al2  1  0.66079843  0.33410302  0.98078926  1
  Al  Al3  1  0.33843728  0.66638690  0.01751901  1
  Al  Al4  1  0.33357491  0.66157489  0.51785393  1
  Al  Al5  1  0.33550752  0.67174789  0.81615628  1
  Ga  Ga0  1  0.00788284  0.00678513  0.65031803  1
  Ga  Ga1  1  0.99291015  0.99189569  0.14849321  1
  Ga  Ga2  1  0.65849031  0.32711380  0.68475666  1
  Ga  Ga3  1  0.67269820  0.34150845  0.18406075  1
  Ga  Ga4  1  0.66532145  0.33942646  0.48224386  1
  Ga  Ga5  1  0.32810790  0.66482698  0.31606577  1
  P  P0  1  0.28595005  0.99574559  0.25072810  1
  P  P1  1  0.71361652  0.71076848  0.25136333  1
  P  P2  1  0.00002411  0.29043630  0.25068632  1
  P  P3  1  0.28934602  0.28953670  0.75242168  1
  P  P4  1  0.00733677  0.71403835  0.75182460  1
  P  P5  1  0.70615778  0.99729584  0.75182553  1
  P  P6  1  0.96350795  0.33553788  0.58277694  1
  P  P7  1  0.37325089  0.04007326  0.58155979  1
  P  P8  1  0.66080933  0.62384975  0.58393222  1
  P  P9  1  0.95648018  0.62284094  0.08040735  1
  P  P10  1  0.66359392  0.03982289  0.08156287  1
  P  P11  1  0.38056412  0.34041586  0.08245067  1
  P  P12  1  0.61901409  0.66286053  0.91597378  1
  P  P13  1  0.04736677  0.37647249  0.91684250  1
  P  P14  1  0.33335811  0.95702383  0.91737310  1
  P  P15  1  0.62643106  0.95370846  0.41713119  1
  P  P16  1  0.33453485  0.37770103  0.41591875  1
  P  P17  1  0.04188093  0.66839421  0.41765541  1
  O  O0  1  0.19856573  0.02933271  0.30773988  1
  O  O1  1  0.83003153  0.80063568  0.30790623  1
  O  O2  1  0.96842843  0.17027983  0.30801289  1
  O  O3  1  0.19936705  0.17019529  0.80792808  1
  O  O4  1  0.97037721  0.80137960  0.80776673  1
  O  O5  1  0.82961940  0.03162164  0.80810105  1
  O  O6  1  0.78178116  0.95750621  0.69234490  1
  O  O7  1  0.17194475  0.21744503  0.69379660  1
  O  O8  1  0.03625830  0.81978831  0.69127459  1
  O  O9  1  0.78708342  0.82809093  0.19301465  1
  O  O10  1  0.03750189  0.21275286  0.19139535  1
  O  O11  1  0.17979608  0.96810255  0.19046323  1
  O  O12  1  0.88481899  0.37668329  0.64127202  1
  O  O13  1  0.49774051  0.11987027  0.63803166  1
  O  O14  1  0.62915922  0.51487450  0.64400513  1
  O  O15  1  0.88063854  0.50279030  0.13800573  1
  O  O16  1  0.62342407  0.11530728  0.14112019  1
  O  O17  1  0.48488478  0.37046124  0.14365459  1
  O  O18  1  0.47082239  0.30185350  0.02827409  1
  O  O19  1  0.84113054  0.53520599  0.02266139  1
  O  O20  1  0.69852232  0.16375461  0.02517584  1
  O  O21  1  0.45213518  0.15126780  0.52256200  1
  O  O22  1  0.70697879  0.54325747  0.52864644  1
  O  O23  1  0.84193731  0.29491661  0.52536639  1
  O  O24  1  0.53401152  0.70317999  0.97116456  1
  O  O25  1  0.16007450  0.46275854  0.97483164  1
  O  O26  1  0.29585007  0.83837665  0.97537097  1
  O  O27  1  0.53702624  0.83952047  0.47489100  1
  O  O28  1  0.29715395  0.46649904  0.47106126  1
  O  O29  1  0.16164503  0.70416807  0.47555310  1
  O  O30  1  0.12124451  0.62524265  0.36113859  1
  O  O31  1  0.50874210  0.87819855  0.35881243  1
  O  O32  1  0.36673166  0.48505683  0.35595030  1
  O  O33  1  0.13044800  0.49722248  0.85946170  1
  O  O34  1  0.37193122  0.87020613  0.86170174  1
  O  O35  1  0.50812966  0.63459833  0.85687851  1
  O  O36  1  0.03037219  0.84010141  0.41001458  1
  O  O37  1  0.81521728  0.97764946  0.41061605  1
  O  O38  1  0.16332609  0.18822850  0.41049289  1
  O  O39  1  0.02018295  0.18618661  0.90971281  1
  O  O40  1  0.16312561  0.97132417  0.90907374  1
  O  O41  1  0.81010348  0.83250047  0.90954410  1
  O  O42  1  0.97558033  0.16444483  0.58926131  1
  O  O43  1  0.18454213  0.01509048  0.58829210  1
  O  O44  1  0.82985658  0.81360897  0.58892261  1
  O  O45  1  0.98054972  0.81190798  0.08613841  1
  O  O46  1  0.83611276  0.02887698  0.08697063  1
  O  O47  1  0.19082704  0.16959099  0.08637128  1
  O  O48  1  0.69537227  0.16997636  0.74588487  1
  O  O49  1  0.47867474  0.31354042  0.74644714  1
  O  O50  1  0.83595261  0.52455559  0.74737545  1
  O  O51  1  0.69015281  0.52188184  0.24617615  1
  O  O52  1  0.82747260  0.30139927  0.24565120  1
  O  O53  1  0.47486575  0.16730239  0.24715914  1
  O  O54  1  0.64480222  0.49898050  0.92370522  1
  O  O55  1  0.85652939  0.35544649  0.92278042  1
  O  O56  1  0.50369611  0.14279383  0.92478544  1
  O  O57  1  0.64843096  0.14396548  0.42232814  1
  O  O58  1  0.49685132  0.35020395  0.42226581  1
  O  O59  1  0.85670246  0.49886152  0.42377678  1
  O  O60  1  0.35454013  0.50309371  0.07406060  1
  O  O61  1  0.14649323  0.64444549  0.07411088  1
  O  O62  1  0.49457604  0.85522391  0.07345040  1
  O  O63  1  0.35409935  0.85107705  0.57541242  1
  O  O64  1  0.49637124  0.64682848  0.57513711  1
  O  O65  1  0.14691658  0.50613038  0.57446236  1
  O  O66  1  0.31347603  0.83339538  0.25595286  1
  O  O67  1  0.52345722  0.68923384  0.25637287  1
  O  O68  1  0.16962626  0.47541651  0.25592142  1
  O  O69  1  0.31095521  0.47970161  0.75931989  1
  O  O70  1  0.16997252  0.68726982  0.75946843  1
  O  O71  1  0.52109809  0.82832177  0.75938163  1
loop_
_geom_bond_atom_site_label_1
_geom_bond_atom_site_label_2
_geom_bond_distance
_geom_bond_site_symmetry_2
Na0 O43 2.448873 1_565
Na0 O37 2.455183 1_455
Na0 O38 2.468563 1_565
Na0 O44 2.468995 1_455
Na0 O42 2.469664 1_465
Na0 O36 2.474982 1_555
Na1 O45 2.425469 1_446
Na1 O47 2.438847 1_556
Na1 O46 2.445464 1_456
Na1 O39 2.480812 1_555
Na1 O41 2.497309 1_445
Na1 O40 2.500119 1_545
Na2 O49 2.359347 1_555
Na2 O56 2.423476 1_555
Na2 O48 2.465572 1_555
Na2 O54 2.479455 1_555
Na2 O50 2.529589 1_555
Na2 O55 2.564455 1_555
Na3 O51 2.351828 1_555
Na3 O59 2.414641 1_555
Na3 O52 2.461785 1_555
Na3 O58 2.471049 1_555
Na3 O53 2.519189 1_555
Na3 O57 2.570168 1_555
Na4 O66 2.470473 1_555
Na4 O68 2.477524 1_555
Na4 O67 2.484482 1_555
Na4 O60 2.507144 1_555
Na4 O61 2.521812 1_555
Na4 O62 2.527257 1_555
Na5 O64 2.490326 1_555
Na5 O63 2.497546 1_555
Na5 O70 2.506572 1_555
Na5 O65 2.508657 1_555
Na5 O71 2.512162 1_555
Na5 O69 2.512349 1_555
Na6 O52 2.311196 1_565
Na6 O67 2.345555 1_555
Na6 O66 2.392561 1_555
Na6 O53 2.455749 1_565
Na6 O16 2.578701 1_565
Na6 O31 2.581880 1_555
Na6 O9 2.720290 1_555
Na6 O2 2.815920 1_565
Na7 O53 2.329923 1_555
Na7 O68 2.336852 1_555
Na7 O51 2.418793 1_555
Na7 O67 2.425293 1_555
Na7 O17 2.502541 1_555
Na7 O32 2.516320 1_555
Na7 O10 2.777955 1_555
Na7 O0 2.818889 1_555
Na8 O71 2.351699 1_555
Na8 O50 2.352762 1_555
Na8 O49 2.400002 1_555
Na8 O69 2.441201 1_555
Na8 O14 2.504707 1_555
Na8 O35 2.558488 1_555
Na8 O6 2.734830 1_555
Na8 O4 2.799732 1_555
Na9 O48 2.327617 1_455
Na9 O69 2.351282 1_555
Na9 O70 2.415026 1_555
Na9 O50 2.430802 1_455
Na9 O12 2.583172 1_455
Na9 O33 2.616150 1_555
Na9 O7 2.684039 1_555
Na9 O5 2.803696 1_455
Na10 O65 2.360192 1_555
Na10 O43 2.375308 1_565
Na10 O44 2.380301 1_455
Na10 O63 2.448923 1_555
Na10 O8 2.542012 1_555
Na10 O29 2.593740 1_555
Na10 O22 2.683930 1_455
Na10 O12 2.720051 1_455
Na11 O42 2.351443 1_565
Na11 O63 2.364135 1_555
Na11 O44 2.395516 1_555
Na11 O64 2.419190 1_555
Na11 O6 2.584450 1_555
Na11 O27 2.595184 1_555
Na11 O13 2.669829 1_565
Na11 O23 2.749645 1_565
Na12 O62 2.348570 1_555
Na12 O47 2.352400 1_565
Na12 O45 2.398139 1_455
Na12 O61 2.448351 1_555
Na12 O11 2.534623 1_555
Na12 O26 2.591542 1_554
Na12 O16 2.724198 1_565
Na12 O18 2.760310 1_565
Na13 O46 2.328866 1_455
Na13 O61 2.352832 1_555
Na13 O60 2.415518 1_555
Na13 O47 2.423575 1_555
Na13 O10 2.574912 1_555
Na13 O25 2.591154 1_554
Na13 O15 2.675410 1_455
Na13 O20 2.805734 1_455
Na14 O40 2.337974 1_655
Na14 O55 2.349086 1_555
Na14 O54 2.413815 1_555
Na14 O41 2.439059 1_555
Na14 O19 2.530325 1_556
Na14 O4 2.642812 1_555
Na14 O26 2.769838 1_655
Na14 O33 2.778044 1_655
Na15 O56 2.340364 1_555
Na15 O41 2.349820 1_545
Na15 O39 2.413819 1_655
Na15 O55 2.443135 1_555
Na15 O5 2.604078 1_555
Na15 O20 2.615838 1_556
Na15 O24 2.717805 1_545
Na15 O34 2.721330 1_545
Na16 O38 2.340187 1_655
Na16 O59 2.349426 1_555
Na16 O57 2.404271 1_555
Na16 O37 2.435826 1_545
Na16 O23 2.588661 1_555
Na16 O2 2.603922 1_555
Na16 O30 2.701176 1_655
Na16 O28 2.729199 1_655
Na17 O36 2.331716 1_545
Na17 O57 2.366196 1_555
Na17 O58 2.370703 1_555
Na17 O38 2.464494 1_555
Na17 O21 2.494708 1_555
Na17 O0 2.639846 1_555
Na17 O31 2.756452 1_545
Na17 O29 2.781599 1_545
Al0 O1 1.827050 1_555
Al0 O0 1.900034 1_665
Al0 O2 1.925194 1_565
Al0 O36 1.944238 1_655
Al0 O37 1.945211 1_555
Al0 O38 2.026250 1_665
Al1 O3 1.830181 1_555
Al1 O4 1.902055 1_445
Al1 O5 1.928747 1_455
Al1 O40 1.940108 1_545
Al1 O39 1.945335 1_555
Al1 O41 2.029541 1_445
Al2 O18 1.836975 1_556
Al2 O19 1.888221 1_556
Al2 O20 1.919484 1_556
Al2 O54 1.943883 1_555
Al2 O56 1.949985 1_555
Al2 O55 2.040046 1_555
Al3 O24 1.851991 1_554
Al3 O25 1.901885 1_554
Al3 O60 1.926277 1_555
Al3 O26 1.931941 1_554
Al3 O62 1.936083 1_555
Al3 O61 1.993839 1_555
Al4 O28 1.854587 1_555
Al4 O27 1.903154 1_555
Al4 O64 1.927524 1_555
Al4 O29 1.932577 1_555
Al4 O65 1.934866 1_555
Al4 O63 1.994243 1_555
Al5 O34 1.864429 1_555
Al5 O35 1.894899 1_555
Al5 O33 1.904145 1_555
Al5 O71 1.935436 1_555
Al5 O70 1.940448 1_555
Al5 O69 1.990685 1_555
Ga0 O7 1.905853 1_555
Ga0 O8 1.965436 1_545
Ga0 O6 1.999872 1_445
Ga0 O43 2.007393 1_555
Ga0 O42 2.016634 1_455
Ga0 O44 2.086207 1_445
Ga1 O9 1.892837 1_555
Ga1 O11 1.953058 1_655
Ga1 O10 1.980769 1_665
Ga1 O45 2.021673 1_555
Ga1 O46 2.036757 1_565
Ga1 O47 2.113870 1_665
Ga2 O13 1.917052 1_555
Ga2 O14 1.973763 1_555
Ga2 O49 2.007536 1_555
Ga2 O12 2.015402 1_555
Ga2 O48 2.033461 1_555
Ga2 O50 2.117632 1_555
Ga3 O15 1.914466 1_555
Ga3 O17 1.968465 1_555
Ga3 O51 2.006451 1_555
Ga3 O16 2.009876 1_555
Ga3 O52 2.038102 1_555
Ga3 O53 2.117538 1_555
Ga4 O22 1.900208 1_555
Ga4 O21 1.951864 1_555
Ga4 O23 1.985649 1_555
Ga4 O58 1.988070 1_555
Ga4 O59 1.989807 1_555
Ga4 O57 2.076536 1_555
Ga5 O30 1.912261 1_555
Ga5 O32 1.948812 1_555
Ga5 O31 1.954051 1_555
Ga5 O68 2.002115 1_555
Ga5 O66 2.005261 1_555
Ga5 O67 2.051732 1_555
O0 P0 1.547616 1_545
O1 P1 1.526492 1_555
O2 P2 1.552343 1_655
O3 P3 1.519893 1_555
O4 P4 1.541993 1_655
O5 P5 1.546895 1_545
O6 P5 1.557461 1_555
O7 P3 1.547205 1_555
O8 P4 1.544916 1_555
O9 P1 1.543513 1_555
O10 P2 1.555004 1_555
O11 P0 1.542550 1_555
O12 P6 1.559505 1_555
O13 P7 1.543946 1_555
O14 P8 1.547531 1_555
O15 P9 1.542865 1_555
O16 P10 1.559589 1_555
O17 P11 1.548962 1_555
O18 P11 1.534159 1_555
O19 P9 1.540386 1_555
O20 P10 1.550985 1_555
O21 P7 1.537355 1_555
O22 P8 1.533946 1_555
O23 P6 1.549623 1_555
O24 P12 1.530666 1_555
O25 P13 1.533628 1_555
O26 P14 1.549371 1_555
O27 P15 1.539873 1_555
O28 P16 1.537727 1_555
O29 P17 1.554434 1_555
O30 P17 1.536332 1_555
O31 P15 1.545385 1_555
O32 P16 1.537784 1_555
O33 P13 1.548541 1_555
O34 P14 1.541088 1_555
O35 P12 1.542301 1_555
O36 P17 1.547199 1_555
O37 P15 1.546585 1_555
O38 P16 1.570523 1_555
O39 P13 1.550272 1_555
O40 P14 1.548941 1_555
O41 P12 1.574736 1_555
O42 P6 1.542097 1_555
O43 P7 1.542825 1_555
O44 P8 1.563513 1_555
O45 P9 1.547577 1_555
O46 P10 1.546624 1_555
O47 P11 1.568315 1_555
O48 P5 1.548660 1_545
O49 P3 1.549997 1_555
O50 P4 1.569785 1_655
O51 P1 1.547214 1_555
O52 P2 1.546396 1_655
O53 P0 1.566530 1_545
O54 P12 1.551179 1_555
O55 P13 1.573222 1_655
O56 P14 1.552967 1_545
O57 P15 1.564067 1_545
O58 P16 1.543398 1_555
O59 P17 1.544468 1_655
O60 P11 1.543764 1_555
O61 P9 1.564764 1_455
O62 P10 1.544006 1_565
O63 P7 1.564970 1_565
O64 P8 1.543688 1_555
O65 P6 1.544771 1_455
O66 P0 1.542276 1_555
O67 P1 1.564095 1_555
O68 P2 1.542239 1_555
O69 P3 1.567700 1_555
O70 P4 1.545048 1_555
O71 P5 1.544792 1_555
