# generated using pymatgen
data_Sn2Bi2O7
_symmetry_space_group_name_H-M   'P 1'
_cell_length_a   7.51091692
_cell_length_b   7.51091692
_cell_length_c   7.51091692
_cell_angle_alpha   60.00000000
_cell_angle_beta   60.00000000
_cell_angle_gamma   60.00000000
_symmetry_Int_Tables_number   1
_chemical_formula_structural   Sn2Bi2O7
_chemical_formula_sum   'Sn4 Bi4 O14'
_cell_volume   299.61522436
_cell_formula_units_Z   2
loop_
 _symmetry_equiv_pos_site_id
 _symmetry_equiv_pos_as_xyz
  1  'x, y, z'
loop_
 _atom_site_type_symbol
 _atom_site_label
 _atom_site_symmetry_multiplicity
 _atom_site_fract_x
 _atom_site_fract_y
 _atom_site_fract_z
 _atom_site_occupancy
  Sn  Sn0  1  0.62500000  0.62500000  0.12500000  1
  Sn  Sn1  1  0.62500000  0.12500000  0.62500000  1
  Sn  Sn2  1  0.12500000  0.62500000  0.62500000  1
  Sn  Sn3  1  0.62500000  0.62500000  0.62500000  1
  Bi  Bi0  1  0.12500000  0.12500000  0.62500000  1
  Bi  Bi1  1  0.12500000  0.62500000  0.12500000  1
  Bi  Bi2  1  0.62500000  0.12500000  0.12500000  1
  Bi  Bi3  1  0.12500000  0.12500000  0.12500000  1
  O  O0  1  0.00000000  -0.00000000  0.00000000  1
  O  O1  1  0.25000000  0.25000000  0.25000000  1
  O  O2  1  0.95648096  0.54351904  0.95648096  1
  O  O3  1  0.70648096  0.29351904  0.70648096  1
  O  O4  1  0.95648096  0.95648096  0.54351904  1
  O  O5  1  0.54351904  0.95648096  0.95648096  1
  O  O6  1  0.95648096  0.54351904  0.54351904  1
  O  O7  1  0.54351904  0.54351904  0.95648096  1
  O  O8  1  0.54351904  0.95648096  0.54351904  1
  O  O9  1  0.29351904  0.70648096  0.70648096  1
  O  O10  1  0.70648096  0.29351904  0.29351904  1
  O  O11  1  0.29351904  0.70648096  0.29351904  1
  O  O12  1  0.70648096  0.70648096  0.29351904  1
  O  O13  1  0.29351904  0.29351904  0.70648096  1
loop_
_geom_bond_atom_site_label_1
_geom_bond_atom_site_label_2
_geom_bond_distance
_geom_bond_site_symmetry_2
Bi0 O0 2.299739 1_556
Bi0 O1 2.299739 1_555
Bi0 O4 2.594229 1_445
Bi0 O6 2.594229 1_455
Bi0 O3 2.594229 1_455
Bi0 O8 2.594229 1_545
Bi0 O9 2.594229 1_545
Bi0 O13 2.594229 1_555
Bi1 O1 2.299739 1_555
Bi1 O0 2.299739 1_565
Bi1 O12 2.594229 1_455
Bi1 O9 2.594229 1_554
Bi1 O2 2.594229 1_454
Bi1 O6 2.594229 1_455
Bi1 O7 2.594229 1_554
Bi1 O11 2.594229 1_555
Bi2 O0 2.299739 1_655
Bi2 O1 2.299739 1_555
Bi2 O3 2.594229 1_554
Bi2 O5 2.594229 1_544
Bi2 O8 2.594229 1_545
Bi2 O7 2.594229 1_554
Bi2 O12 2.594229 1_545
Bi2 O10 2.594229 1_555
Bi3 O0 2.299739 1_555
Bi3 O1 2.299739 1_555
Bi3 O5 2.594229 1_544
Bi3 O4 2.594229 1_445
Bi3 O2 2.594229 1_454
Bi3 O10 2.594229 1_455
Bi3 O13 2.594229 1_554
Bi3 O11 2.594229 1_545
O2 Sn2 2.067595 1_655
O2 Sn0 2.067595 1_556
O3 Sn3 2.067595 1_555
O3 Sn1 2.067595 1_555
O4 Sn2 2.067595 1_655
O4 Sn1 2.067595 1_565
O5 Sn1 2.067595 1_565
O5 Sn0 2.067595 1_556
O6 Sn2 2.067595 1_655
O6 Sn3 2.067595 1_555
O7 Sn3 2.067595 1_555
O7 Sn0 2.067595 1_556
O8 Sn3 2.067595 1_555
O8 Sn1 2.067595 1_565
O9 Sn3 2.067595 1_555
O9 Sn2 2.067595 1_555
O10 Sn1 2.067595 1_555
O10 Sn0 2.067595 1_555
O11 Sn2 2.067595 1_555
O11 Sn0 2.067595 1_555
O12 Sn3 2.067595 1_555
O12 Sn0 2.067595 1_555
O13 Sn2 2.067595 1_555
O13 Sn1 2.067595 1_555
