# generated using pymatgen
data_Ca2MnGaO5
_symmetry_space_group_name_H-M   'P 1'
_cell_length_a   5.40702084
_cell_length_b   5.63315408
_cell_length_c   8.46366360
_cell_angle_alpha   109.43902371
_cell_angle_beta   108.57319423
_cell_angle_gamma   89.99991108
_symmetry_Int_Tables_number   1
_chemical_formula_structural   Ca2MnGaO5
_chemical_formula_sum   'Ca4 Mn2 Ga2 O10'
_cell_volume   228.80907731
_cell_formula_units_Z   2
loop_
 _symmetry_equiv_pos_site_id
 _symmetry_equiv_pos_as_xyz
  1  'x, y, z'
loop_
 _atom_site_type_symbol
 _atom_site_label
 _atom_site_symmetry_multiplicity
 _atom_site_fract_x
 _atom_site_fract_y
 _atom_site_fract_z
 _atom_site_occupancy
  Ca  Ca0  1  0.61155400  0.13687700  0.21956900  1
  Ca  Ca1  1  0.39162200  0.86322600  0.78043200  1
  Ca  Ca2  1  0.11162000  0.58271400  0.21957200  1
  Ca  Ca3  1  0.89167000  0.41719400  0.78043800  1
  Mn  Mn0  1  0.98712600  0.99958600  0.00009900  1
  Mn  Mn1  1  0.48716000  0.50050200  0.00011300  1
  Ga  Ga0  1  0.27737500  0.18322400  0.49995900  1
  Ga  Ga1  1  0.77740300  0.81681900  0.49999200  1
  O  O0  1  0.62962100  0.12666600  0.49996500  1
  O  O1  1  0.12961700  0.87335100  0.49994600  1
  O  O2  1  0.30003000  0.43139700  0.71165600  1
  O  O3  1  0.58973400  0.56796500  0.28837000  1
  O  O4  1  0.80015000  0.78027700  0.71170200  1
  O  O5  1  0.08974200  0.22030300  0.28827800  1
  O  O6  1  0.25788000  0.76515300  0.03005500  1
  O  O7  1  0.22093800  0.22512300  0.96994300  1
  O  O8  1  0.72089500  0.24475700  0.96989600  1
  O  O9  1  0.75786400  0.76487100  0.03002000  1
loop_
_geom_bond_atom_site_label_1
_geom_bond_atom_site_label_2
_geom_bond_distance
_geom_bond_site_symmetry_2
Ca0 O3 2.313570 1_555
Ca0 O0 2.363894 1_555
Ca0 O5 2.470725 1_655
Ca0 O9 2.482287 1_545
Ca0 O6 2.534745 1_545
Ca0 O8 2.614352 1_554
Ca0 O7 2.651057 1_554
Ca1 O2 2.318473 1_555
Ca1 O1 2.365062 1_555
Ca1 O4 2.464482 1_555
Ca1 O8 2.499540 1_565
Ca1 O7 2.519310 1_565
Ca1 O9 2.608642 1_556
Ca1 O6 2.653661 1_556
Ca2 O5 2.313856 1_555
Ca2 O1 2.363887 1_555
Ca2 O3 2.470293 1_555
Ca2 O6 2.481881 1_555
Ca2 O9 2.535009 1_455
Ca2 O7 2.614126 1_554
Ca2 O8 2.651690 1_454
Ca3 O4 2.318442 1_555
Ca3 O0 2.364866 1_555
Ca3 O2 2.463827 1_655
Ca3 O7 2.499770 1_655
Ca3 O8 2.519404 1_555
Ca3 O6 2.608641 1_656
Ca3 O9 2.653533 1_556
Mn0 O7 1.923261 1_664
Mn0 O9 1.942119 1_555
Mn0 O6 1.984409 1_655
Mn0 O8 2.011348 1_564
Mn0 O5 2.218585 1_665
Mn0 O4 2.219717 1_554
Mn1 O8 1.923214 1_554
Mn1 O6 1.942251 1_555
Mn1 O9 1.984285 1_555
Mn1 O7 2.011431 1_554
Mn1 O3 2.219259 1_555
Mn1 O2 2.220258 1_554
Ga0 O2 1.836478 1_555
Ga0 O5 1.836822 1_555
Ga0 O1 1.919661 1_545
Ga0 O0 1.931052 1_555
Ga1 O4 1.836658 1_555
Ga1 O3 1.836800 1_555
Ga1 O0 1.919666 1_565
Ga1 O1 1.931015 1_655
