# generated using pymatgen
data_LaHO
_symmetry_space_group_name_H-M   'P 1'
_cell_length_a   8.06370942
_cell_length_b   8.06370942
_cell_length_c   5.70344509
_cell_angle_alpha   90.00000000
_cell_angle_beta   90.00000000
_cell_angle_gamma   90.00000000
_symmetry_Int_Tables_number   1
_chemical_formula_structural   LaHO
_chemical_formula_sum   'La8 H8 O8'
_cell_volume   370.85744628
_cell_formula_units_Z   8
loop_
 _symmetry_equiv_pos_site_id
 _symmetry_equiv_pos_as_xyz
  1  'x, y, z'
loop_
 _atom_site_type_symbol
 _atom_site_label
 _atom_site_symmetry_multiplicity
 _atom_site_fract_x
 _atom_site_fract_y
 _atom_site_fract_z
 _atom_site_occupancy
  La  La0  1  0.25000000  0.75000000  0.50000000  1
  La  La1  1  0.25000000  0.25000000  0.50000000  1
  La  La2  1  0.75000000  0.75000000  0.50000000  1
  La  La3  1  0.75000000  0.25000000  0.50000000  1
  La  La4  1  0.50000000  0.00000000  0.05752858  1
  La  La5  1  0.00000000  0.50000000  0.94247142  1
  La  La6  1  0.50000000  0.50000000  -0.00000000  1
  La  La7  1  0.00000000  0.00000000  -0.00000000  1
  H  H0  1  0.50000000  0.76913606  0.75657495  1
  H  H1  1  0.50000000  0.23086394  0.75657495  1
  H  H2  1  0.73086394  0.00000000  0.75657495  1
  H  H3  1  0.26913606  0.00000000  0.75657495  1
  H  H4  1  0.76913606  0.50000000  0.24342505  1
  H  H5  1  0.00000000  0.73086394  0.24342505  1
  H  H6  1  0.00000000  0.26913606  0.24342505  1
  H  H7  1  0.23086394  0.50000000  0.24342505  1
  O  O0  1  0.26389836  0.50000000  0.74139657  1
  O  O1  1  -0.00000000  0.23610164  0.74139657  1
  O  O2  1  -0.00000000  0.76389836  0.74139657  1
  O  O3  1  0.73610164  0.50000000  0.74139657  1
  O  O4  1  0.23610164  -0.00000000  0.25860343  1
  O  O5  1  0.76389836  -0.00000000  0.25860343  1
  O  O6  1  0.50000000  0.26389836  0.25860343  1
  O  O7  1  0.50000000  0.73610164  0.25860343  1
loop_
_geom_bond_atom_site_label_1
_geom_bond_atom_site_label_2
_geom_bond_distance
_geom_bond_site_symmetry_2
La0 O7 2.443784 1_555
La0 O2 2.443784 1_555
La0 O4 2.443784 1_565
La0 O0 2.443784 1_555
La1 O1 2.443784 1_555
La1 O6 2.443784 1_555
La1 O4 2.443784 1_555
La1 O0 2.443784 1_555
La2 O7 2.443784 1_555
La2 O2 2.443784 1_655
La2 O5 2.443784 1_565
La2 O3 2.443784 1_555
La3 O1 2.443784 1_655
La3 O6 2.443784 1_555
La3 O5 2.443784 1_555
La3 O3 2.443784 1_555
La4 O5 2.417349 1_555
La4 O6 2.417349 1_555
La4 O7 2.417349 1_545
La4 O4 2.417349 1_555
La5 O3 2.417349 1_455
La5 O0 2.417349 1_555
La5 O2 2.417349 1_555
La5 O1 2.417349 1_555
La6 O3 2.408336 1_554
La6 O6 2.408336 1_555
La6 O7 2.408336 1_555
La6 O0 2.408336 1_554
La7 O1 2.408336 1_554
La7 O2 2.408336 1_544
La7 O5 2.408336 1_455
La7 O4 2.408336 1_555
H0 La0 2.495836 1_555
H0 La2 2.495836 1_555
H0 La4 2.532174 1_566
H0 La6 2.576328 1_556
H1 La3 2.495836 1_555
H1 La1 2.495836 1_555
H1 La4 2.532174 1_556
H1 La6 2.576328 1_556
H2 La3 2.495836 1_555
H2 La2 2.495836 1_545
H2 La4 2.532174 1_556
H2 La7 2.576328 1_656
H3 La0 2.495836 1_545
H3 La1 2.495836 1_555
H3 La4 2.532174 1_556
H3 La7 2.576328 1_556
H4 La2 2.495836 1_555
H4 La3 2.495836 1_555
H4 La5 2.532174 1_654
H4 La6 2.576328 1_555
H5 La0 2.495836 1_555
H5 La2 2.495836 1_455
H5 La5 2.532174 1_554
H5 La7 2.576328 1_565
H6 La3 2.495836 1_455
H6 La1 2.495836 1_555
H6 La5 2.532174 1_554
H6 La7 2.576328 1_555
H7 La0 2.495836 1_555
H7 La1 2.495836 1_555
H7 La5 2.532174 1_554
H7 La6 2.576328 1_555
