# generated using pymatgen
data_Tb2CoGe2
_symmetry_space_group_name_H-M   'P 1'
_cell_length_a   7.14027772
_cell_length_b   7.14027772
_cell_length_c   7.48881310
_cell_angle_alpha   81.59237213
_cell_angle_beta   81.59237213
_cell_angle_gamma   33.82233564
_symmetry_Int_Tables_number   1
_chemical_formula_structural   Tb2CoGe2
_chemical_formula_sum   'Tb4 Co2 Ge4'
_cell_volume   210.02452173
_cell_formula_units_Z   2
loop_
 _symmetry_equiv_pos_site_id
 _symmetry_equiv_pos_as_xyz
  1  'x, y, z'
loop_
 _atom_site_type_symbol
 _atom_site_label
 _atom_site_symmetry_multiplicity
 _atom_site_fract_x
 _atom_site_fract_y
 _atom_site_fract_z
 _atom_site_occupancy
  Tb  Tb0  1  0.63859300  0.63859300  0.41504600  1
  Tb  Tb1  1  0.13138900  0.13138900  0.99706400  1
  Tb  Tb2  1  0.86861100  0.86861100  0.00293600  1
  Tb  Tb3  1  0.36140700  0.36140700  0.58495400  1
  Co  Co0  1  0.47077300  0.47077300  0.16777600  1
  Co  Co1  1  0.52922700  0.52922700  0.83222400  1
  Ge  Ge0  1  0.01766700  0.01766700  0.66681800  1
  Ge  Ge1  1  0.28066600  0.28066600  0.24986500  1
  Ge  Ge2  1  0.71933400  0.71933400  0.75013500  1
  Ge  Ge3  1  0.98233300  0.98233300  0.33318200  1
loop_
_geom_bond_atom_site_label_1
_geom_bond_atom_site_label_2
_geom_bond_distance
_geom_bond_site_symmetry_2
Co0 Ge3 2.435805 1_545
Co0 Ge3 2.435805 1_455
Co0 Co1 2.517745 1_554
Co0 Ge1 2.576149 1_555
Co0 Tb2 2.883219 1_455
Co0 Tb2 2.883219 1_545
Co0 Tb1 3.147500 1_564
Co0 Tb1 3.147500 1_654
Co0 Tb0 3.159793 1_555
Co0 Tb3 3.250600 1_555
Co1 Ge0 2.435805 1_565
Co1 Ge0 2.435805 1_655
Co1 Ge2 2.576149 1_555
Co1 Tb1 2.883219 1_565
Co1 Tb1 2.883219 1_655
Co1 Tb2 3.147500 1_456
Co1 Tb2 3.147500 1_546
Co1 Tb3 3.159793 1_555
Co1 Tb0 3.250600 1_555
Ge0 Ge3 2.616187 1_445
Ge0 Tb2 2.986076 1_446
Ge0 Tb0 3.105915 1_455
Ge0 Tb0 3.105915 1_545
Ge0 Tb3 3.106138 1_545
Ge0 Tb3 3.106138 1_455
Ge0 Tb1 3.115325 1_555
Ge1 Tb3 2.891415 1_555
Ge1 Tb2 2.915181 1_545
Ge1 Tb2 2.915181 1_455
Ge1 Tb0 2.979657 1_455
Ge1 Tb0 2.979657 1_545
Ge1 Tb1 2.987337 1_554
Ge2 Tb0 2.891415 1_555
Ge2 Tb1 2.915181 1_565
Ge2 Tb1 2.915181 1_655
Ge2 Tb3 2.979657 1_565
Ge2 Tb3 2.979657 1_655
Ge2 Tb2 2.987337 1_556
Ge3 Tb1 2.986076 1_664
Ge3 Tb3 3.105915 1_655
Ge3 Tb3 3.105915 1_565
Ge3 Tb0 3.106138 1_565
Ge3 Tb0 3.106138 1_655
Ge3 Tb2 3.115325 1_555
