# generated using pymatgen
data_Na2Y4SiS5O24
_symmetry_space_group_name_H-M   'P 1'
_cell_length_a   9.20797920
_cell_length_b   9.19566639
_cell_length_c   24.39289993
_cell_angle_alpha   90.04162097
_cell_angle_beta   89.95623718
_cell_angle_gamma   119.92709470
_symmetry_Int_Tables_number   1
_chemical_formula_structural   Na2Y4SiS5O24
_chemical_formula_sum   'Na6 Y12 Si3 S15 O72'
_cell_volume   1790.02882217
_cell_formula_units_Z   3
loop_
 _symmetry_equiv_pos_site_id
 _symmetry_equiv_pos_as_xyz
  1  'x, y, z'
loop_
 _atom_site_type_symbol
 _atom_site_label
 _atom_site_symmetry_multiplicity
 _atom_site_fract_x
 _atom_site_fract_y
 _atom_site_fract_z
 _atom_site_occupancy
  Na  Na0  1  0.98539343  0.98230543  0.50825116  1
  Na  Na1  1  0.00001997  0.00003852  0.99783516  1
  Na  Na2  1  0.66888288  0.31770604  0.82040412  1
  Na  Na3  1  0.65090929  0.31943635  0.33493205  1
  Na  Na4  1  0.33058155  0.68118772  0.17487940  1
  Na  Na5  1  0.36356929  0.67721264  0.66427771  1
  Y  Y0  1  0.01211949  0.00197049  0.35112564  1
  Y  Y1  1  0.99088633  0.00271179  0.84575678  1
  Y  Y2  1  0.97860854  0.98734824  0.64819244  1
  Y  Y3  1  0.00875295  0.99720129  0.15232140  1
  Y  Y4  1  0.66495846  0.33297659  0.68268127  1
  Y  Y5  1  0.65728319  0.32440653  0.18845229  1
  Y  Y6  1  0.66697746  0.33260654  0.98089933  1
  Y  Y7  1  0.66797259  0.34299974  0.48572603  1
  Y  Y8  1  0.33306461  0.66727366  0.01726917  1
  Y  Y9  1  0.34412249  0.66682496  0.52153114  1
  Y  Y10  1  0.33259089  0.67611299  0.31539398  1
  Y  Y11  1  0.34308103  0.67516058  0.81010671  1
  Si  Si0  1  0.29737385  0.99693062  0.25005527  1
  Si  Si1  1  0.70253002  0.00793870  0.75019389  1
  Si  Si2  1  0.66831900  0.63106223  0.58396977  1
  S  S0  1  0.70541501  0.70646279  0.24994680  1
  S  S1  1  0.00145563  0.29466564  0.24985007  1
  S  S2  1  0.29483635  0.29304396  0.75026857  1
  S  S3  1  0.99901769  0.70422493  0.75080080  1
  S  S4  1  0.96263306  0.33420427  0.58246070  1
  S  S5  1  0.37003918  0.03860836  0.58272873  1
  S  S6  1  0.95982762  0.62710665  0.08266330  1
  S  S7  1  0.66772934  0.03854944  0.08256700  1
  S  S8  1  0.37201617  0.33389470  0.08253840  1
  S  S9  1  0.62862200  0.66716129  0.91774121  1
  S  S10  1  0.04037048  0.37186907  0.91765622  1
  S  S11  1  0.33139280  0.96092897  0.91769546  1
  S  S12  1  0.62969375  0.96340918  0.41617819  1
  S  S13  1  0.33353487  0.37297302  0.41588603  1
  S  S14  1  0.03709278  0.66372861  0.41686714  1
  O  O0  1  0.20554143  0.02098684  0.30339914  1
  O  O1  1  0.80632915  0.78761039  0.29901326  1
  O  O2  1  0.97402307  0.19072926  0.29888404  1
  O  O3  1  0.21524634  0.19185306  0.80083467  1
  O  O4  1  0.98110694  0.78651300  0.80118374  1
  O  O5  1  0.80964251  0.02421772  0.80668220  1
  O  O6  1  0.79368382  0.98176403  0.69748162  1
  O  O7  1  0.19556026  0.21274883  0.70116972  1
  O  O8  1  0.02722172  0.80832646  0.70197576  1
  O  O9  1  0.78225022  0.80879150  0.19978010  1
  O  O10  1  0.02002027  0.21346505  0.19963232  1
  O  O11  1  0.18760096  0.97613549  0.19446741  1
  O  O12  1  0.88268499  0.35407465  0.63203759  1
  O  O13  1  0.47378236  0.11428088  0.63207618  1
  O  O14  1  0.64605322  0.51840759  0.63802884  1
  O  O15  1  0.88141755  0.52703524  0.13211425  1
  O  O16  1  0.64563619  0.11859285  0.13188133  1
  O  O17  1  0.47377418  0.35647079  0.13180334  1
  O  O18  1  0.45430648  0.31295426  0.03313122  1
  O  O19  1  0.85813705  0.54324837  0.03312408  1
  O  O20  1  0.68637789  0.14119210  0.03311627  1
  O  O21  1  0.45345425  0.13830742  0.53284848  1
  O  O22  1  0.68572549  0.53966925  0.52831527  1
  O  O23  1  0.85856428  0.30826423  0.53290240  1
  O  O24  1  0.54587355  0.68766697  0.96768291  1
  O  O25  1  0.14202379  0.45624652  0.96775038  1
  O  O26  1  0.31346303  0.85857288  0.96771722  1
  O  O27  1  0.54762401  0.86135328  0.46519812  1
  O  O28  1  0.31395499  0.45484170  0.46501824  1
  O  O29  1  0.13885947  0.68561979  0.46568126  1
  O  O30  1  0.11944916  0.64583983  0.36665018  1
  O  O31  1  0.52738051  0.88024848  0.36634657  1
  O  O32  1  0.35307914  0.47337663  0.36598651  1
  O  O33  1  0.11807238  0.47257002  0.86875730  1
  O  O34  1  0.35432496  0.88146720  0.86892377  1
  O  O35  1  0.52641834  0.64335337  0.86899041  1
  O  O36  1  0.01647383  0.81427794  0.41118509  1
  O  O37  1  0.79751957  0.97911418  0.41016908  1
  O  O38  1  0.17955413  0.20458538  0.41148330  1
  O  O39  1  0.02403034  0.20287428  0.91502020  1
  O  O40  1  0.18133562  0.97969193  0.91426530  1
  O  O41  1  0.79837319  0.81689312  0.91415264  1
  O  O42  1  0.98739457  0.18747276  0.58709524  1
  O  O43  1  0.20500390  0.02669394  0.58813645  1
  O  O44  1  0.83683340  0.81726481  0.58481114  1
  O  O45  1  0.97583266  0.79608479  0.08602161  1
  O  O46  1  0.81807232  0.02034906  0.08690324  1
  O  O47  1  0.20242948  0.18387273  0.08684024  1
  O  O48  1  0.68198111  0.17357235  0.74759136  1
  O  O49  1  0.46500137  0.31483189  0.74723542  1
  O  O50  1  0.84693990  0.53758001  0.74644294  1
  O  O51  1  0.69329510  0.53975281  0.24341125  1
  O  O52  1  0.85347139  0.31780866  0.24337528  1
  O  O53  1  0.48392040  0.16625990  0.24516931  1
  O  O54  1  0.64481827  0.51452444  0.92485302  1
  O  O55  1  0.87029355  0.35308562  0.92490924  1
  O  O56  1  0.48431818  0.12963188  0.92459233  1
  O  O57  1  0.64616730  0.13189662  0.42022734  1
  O  O58  1  0.48289965  0.35113151  0.42004906  1
  O  O59  1  0.86890670  0.51052453  0.41991428  1
  O  O60  1  0.35546976  0.48623987  0.07643629  1
  O  O61  1  0.13004509  0.64632486  0.07641305  1
  O  O62  1  0.51506054  0.86983098  0.07660979  1
  O  O63  1  0.34848148  0.86788039  0.57660319  1
  O  O64  1  0.49926781  0.64992175  0.57925817  1
  O  O65  1  0.12794360  0.48892567  0.57611144  1
  O  O66  1  0.31707714  0.82940130  0.25342604  1
  O  O67  1  0.53455484  0.68267776  0.25514731  1
  O  O68  1  0.15471049  0.46120150  0.25519179  1
  O  O69  1  0.30789766  0.46041262  0.75713982  1
  O  O70  1  0.14749392  0.68240919  0.75764135  1
  O  O71  1  0.51679374  0.83596055  0.75547796  1
loop_
_geom_bond_atom_site_label_1
_geom_bond_atom_site_label_2
_geom_bond_distance
_geom_bond_site_symmetry_2
Na0 O44 2.364509 1_555
Na0 O42 2.686768 1_565
Na0 O43 2.689651 1_665
Na0 O36 2.917241 1_655
Na0 O37 2.945030 1_555
Na0 O38 3.049641 1_665
Na1 O39 2.683656 1_555
Na1 O40 2.698864 1_545
Na1 O41 2.707633 1_445
Na1 O45 2.789757 1_446
Na1 O46 2.805019 1_456
Na1 O47 2.811077 1_556
Na2 O48 2.254237 1_555
Na2 O49 2.581886 1_555
Na2 O50 2.593092 1_555
Na3 O53 2.642380 1_555
Na3 O58 2.689457 1_555
Na3 O57 2.689762 1_555
Na3 O59 2.809947 1_555
Na3 O51 2.908087 1_555
Na3 O52 2.913482 1_555
Na4 O66 2.389340 1_555
Na4 O68 2.699034 1_555
Na4 O67 2.709482 1_555
Na4 O61 2.948980 1_555
Na4 O62 2.949629 1_555
Na4 O60 3.071699 1_555
Na5 O64 2.496672 1_555
Na5 O71 2.648703 1_555
Na5 O63 2.813563 1_555
Na5 O69 2.890224 1_555
Na5 O65 2.929813 1_555
Na5 O70 3.038954 1_555
O0 Si0 1.625317 1_545
O0 Y0 2.060178 1_555
O1 S0 1.470141 1_555
O1 Y0 2.316289 1_665
O2 S1 1.472483 1_655
O2 Y0 2.317601 1_655
O3 S2 1.498068 1_555
O3 Y1 2.215363 1_455
O4 S3 1.494339 1_555
O4 Y1 2.227363 1_565
O5 Si1 1.657794 1_555
O5 Y1 2.016135 1_555
O6 Si1 1.617159 1_565
O6 Y2 2.063338 1_555
O7 S2 1.463602 1_555
O7 Y2 2.413585 1_445
O8 S3 1.468129 1_455
O8 Y2 2.317520 1_455
O9 S0 1.489813 1_555
O9 Y3 2.255104 1_655
O10 S1 1.487617 1_555
O10 Y3 2.255762 1_545
O11 Si0 1.644904 1_555
O11 Y3 2.031667 1_555
O12 S4 1.473200 1_555
O12 Y4 2.278485 1_555
O13 S5 1.477493 1_555
O13 Y4 2.265894 1_555
O14 Si2 1.625946 1_555
O14 Y4 2.103190 1_555
O15 S6 1.469858 1_555
O15 Y5 2.404614 1_555
O16 S7 1.475778 1_555
O16 Y5 2.300332 1_555
O17 S8 1.473915 1_555
O17 Y5 2.313640 1_555
O18 S8 1.485784 1_555
O18 Y6 2.265875 1_554
O19 S6 1.487136 1_555
O19 Y6 2.251877 1_554
O20 S7 1.488295 1_555
O20 Y6 2.251638 1_554
O21 S5 1.486088 1_555
O21 Y7 2.248510 1_555
O22 Si2 1.645423 1_555
O22 Y7 2.019710 1_555
O23 S4 1.486543 1_555
O23 Y7 2.251475 1_555
O24 S9 1.497261 1_555
O24 Y8 2.228908 1_556
O25 S10 1.499005 1_555
O25 Y8 2.216511 1_556
O26 S11 1.499438 1_555
O26 Y8 2.215472 1_556
O27 S12 1.474520 1_555
O27 Y9 2.292255 1_555
O28 S13 1.472890 1_555
O28 Y9 2.287734 1_555
O29 S14 1.466138 1_555
O29 Y9 2.405904 1_555
O30 S14 1.491765 1_555
O30 Y10 2.223542 1_555
O31 S12 1.493795 1_555
O31 Y10 2.219479 1_555
O32 S13 1.483880 1_555
O32 Y10 2.321384 1_555
O33 S10 1.459920 1_555
O33 Y11 2.440921 1_555
O34 S11 1.464981 1_555
O34 Y11 2.338486 1_555
O35 S9 1.464058 1_555
O35 Y11 2.344256 1_555
O36 S14 1.494792 1_555
O36 Y0 2.280273 1_565
O37 S12 1.485735 1_555
O37 Y0 2.367458 1_665
O38 S13 1.492940 1_555
O38 Y0 2.269214 1_555
O39 S10 1.486041 1_555
O39 Y1 2.402363 1_455
O40 S11 1.477837 1_555
O40 Y1 2.507618 1_465
O41 S9 1.482969 1_555
O41 Y1 2.413057 1_565
O42 S4 1.480739 1_555
O42 Y2 2.338701 1_545
O43 S5 1.473873 1_555
O43 Y2 2.422028 1_445
O44 Si2 1.639796 1_555
O44 Y2 2.122026 1_555
O45 S6 1.488042 1_555
O45 Y3 2.358957 1_655
O46 S7 1.478874 1_555
O46 Y3 2.460112 1_645
O47 S8 1.484279 1_555
O47 Y3 2.371373 1_545
O48 Si1 1.627089 1_555
O48 Y4 2.216576 1_555
O49 S2 1.478960 1_555
O49 Y4 2.363651 1_555
O50 S3 1.476261 1_555
O50 Y4 2.370827 1_555
O51 S0 1.488944 1_555
O51 Y5 2.273810 1_555
O52 S1 1.488872 1_655
O52 Y5 2.274900 1_555
O53 Si0 1.649396 1_545
O53 Y5 2.064067 1_555
O54 S9 1.493881 1_555
O54 Y6 2.247990 1_555
O55 S10 1.497802 1_655
O55 Y6 2.247293 1_555
O56 S11 1.496027 1_545
O56 Y6 2.250901 1_555
O57 S12 1.482755 1_545
O57 Y7 2.443038 1_555
O58 S13 1.489329 1_555
O58 Y7 2.368074 1_555
O59 S14 1.487155 1_655
O59 Y7 2.351297 1_555
O60 S8 1.490383 1_555
O60 Y8 2.289869 1_555
O61 S6 1.494786 1_455
O61 Y8 2.291305 1_555
O62 S7 1.492704 1_565
O62 Y8 2.293090 1_555
O63 S5 1.488370 1_565
O63 Y9 2.268674 1_555
O64 Si2 1.654091 1_555
O64 Y9 2.067068 1_555
O65 S4 1.484690 1_455
O65 Y9 2.271787 1_555
O66 Si0 1.640743 1_555
O66 Y10 2.120508 1_555
O67 S0 1.481728 1_555
O67 Y10 2.346420 1_555
O68 S1 1.482317 1_555
O68 Y10 2.348301 1_555
O69 S2 1.492061 1_555
O69 Y11 2.243321 1_555
O70 S3 1.487041 1_455
O70 Y11 2.238119 1_555
O71 Si1 1.656447 1_565
O71 Y11 2.039686 1_555
