# generated using pymatgen
data_La3AsI3
_symmetry_space_group_name_H-M   'P 1'
_cell_length_a   10.96413026
_cell_length_b   10.96380372
_cell_length_c   10.96357670
_cell_angle_alpha   109.47007398
_cell_angle_beta   109.47187977
_cell_angle_gamma   109.46982122
_symmetry_Int_Tables_number   1
_chemical_formula_structural   La3AsI3
_chemical_formula_sum   'La12 As4 I12'
_cell_volume   1014.55575781
_cell_formula_units_Z   4
loop_
 _symmetry_equiv_pos_site_id
 _symmetry_equiv_pos_as_xyz
  1  'x, y, z'
loop_
 _atom_site_type_symbol
 _atom_site_label
 _atom_site_symmetry_multiplicity
 _atom_site_fract_x
 _atom_site_fract_y
 _atom_site_fract_z
 _atom_site_occupancy
  La  La0  1  0.76560435  0.53119784  0.51558927  1
  La  La1  1  0.98440466  0.51558857  0.24999864  1
  La  La2  1  0.53110099  0.51554534  0.76554886  1
  La  La3  1  0.25000022  0.76553351  0.73445776  1
  La  La4  1  0.51559846  0.76560158  0.53120176  1
  La  La5  1  0.73440580  0.24999044  0.76558818  1
  La  La6  1  0.51559465  0.24999294  0.98439752  1
  La  La7  1  0.73443811  0.98444543  0.96887986  1
  La  La8  1  0.76556007  0.73443435  0.25000054  1
  La  La9  1  0.96882361  0.73440525  0.98440562  1
  La  La10  1  0.25000051  0.98442648  0.51556640  1
  La  La11  1  0.98442843  0.96884274  0.73441577  1
  As  As0  1  0.75000662  0.75000266  0.74999703  1
  As  As1  1  -0.00000414  0.74999653  0.49999412  1
  As  As2  1  0.75000175  0.49999786  -0.00000022  1
  As  As3  1  0.50000175  0.00000106  0.74999993  1
  I  I0  1  0.25976524  0.74998556  0.24021523  1
  I  I1  1  0.74999775  0.00979888  0.49018992  1
  I  I2  1  0.00981486  0.49018778  0.74999558  1
  I  I3  1  0.01961279  0.25979514  0.00979451  1
  I  I4  1  0.49018743  0.24017478  0.48038316  1
  I  I5  1  0.00980804  0.01961698  0.25981307  1
  I  I6  1  0.24023174  0.48045847  0.49021511  1
  I  I7  1  0.24018205  0.25979494  0.74999622  1
  I  I8  1  0.49019304  0.75000076  0.00980767  1
  I  I9  1  0.48043310  0.49019804  0.24020046  1
  I  I10  1  0.75001523  0.24020021  0.25979665  1
  I  I11  1  0.25979389  0.00978589  0.01954937  1
loop_
_geom_bond_atom_site_label_1
_geom_bond_atom_site_label_2
_geom_bond_distance
_geom_bond_site_symmetry_2
As0 La4 2.974059 1_555
As0 La0 2.974121 1_555
As0 La9 2.974165 1_555
As0 La11 2.974396 1_555
As0 La7 2.974626 1_555
As0 La2 2.974815 1_555
As1 La0 2.974042 1_455
As1 La1 2.974125 1_455
As1 La11 2.974254 1_455
As1 La8 2.974425 1_455
As1 La10 2.974527 1_555
As1 La3 2.974826 1_555
As2 La1 2.974099 1_555
As2 La5 2.974205 1_554
As2 La6 2.974208 1_554
As2 La9 2.974270 1_554
As2 La8 2.974522 1_555
As2 La2 2.974608 1_554
As3 La4 2.974025 1_545
As3 La6 2.974036 1_555
As3 La5 2.974168 1_555
As3 La10 2.974406 1_545
As3 La7 2.974457 1_545
As3 La3 2.974905 1_545
I0 La10 3.310257 1_555
I0 La1 3.310323 1_455
I0 La9 3.379854 1_454
I0 La4 3.380057 1_555
I1 La11 3.310629 1_545
I1 La4 3.310768 1_545
I1 La8 3.379547 1_545
I1 La5 3.379984 1_555
I2 La9 3.310748 1_455
I2 La0 3.310783 1_455
I2 La3 3.379299 1_555
I2 La5 3.380201 1_455
I3 La5 3.310690 1_454
I3 La7 3.310734 1_444
I3 La11 3.379752 1_444
I3 La1 3.380144 1_455
I4 La5 3.310634 1_555
I4 La2 3.310692 1_555
I4 La10 3.379634 1_545
I4 La0 3.380433 1_555
I5 La8 3.310773 1_445
I5 La9 3.310845 1_444
I5 La7 3.379615 1_444
I5 La10 3.379638 1_545
I6 La3 3.310150 1_555
I6 La4 3.310244 1_555
I6 La2 3.379452 1_555
I6 La1 3.379855 1_455
I7 La10 3.310690 1_545
I7 La6 3.310739 1_555
I7 La2 3.379648 1_555
I7 La11 3.379718 1_445
I8 La2 3.310682 1_554
I8 La7 3.310748 1_554
I8 La3 3.379213 1_554
I8 La8 3.379593 1_555
I9 La0 3.310376 1_555
I9 La8 3.310404 1_555
I9 La6 3.379876 1_554
I9 La4 3.380321 1_555
I10 La1 3.310557 1_555
I10 La6 3.310644 1_554
I10 La7 3.379392 1_544
I10 La0 3.380118 1_555
I11 La3 3.310153 1_544
I11 La11 3.310279 1_444
I11 La6 3.379888 1_554
I11 La9 3.380215 1_444
