# generated using pymatgen
data_Hf(Se2Cl3)2
_symmetry_space_group_name_H-M   'P 1'
_cell_length_a   10.99167943
_cell_length_b   10.99167943
_cell_length_c   10.63295212
_cell_angle_alpha   90.00000000
_cell_angle_beta   90.00000000
_cell_angle_gamma   90.00000000
_symmetry_Int_Tables_number   1
_chemical_formula_structural   Hf(Se2Cl3)2
_chemical_formula_sum   'Hf4 Se16 Cl24'
_cell_volume   1284.64155377
_cell_formula_units_Z   4
loop_
 _symmetry_equiv_pos_site_id
 _symmetry_equiv_pos_as_xyz
  1  'x, y, z'
loop_
 _atom_site_type_symbol
 _atom_site_label
 _atom_site_symmetry_multiplicity
 _atom_site_fract_x
 _atom_site_fract_y
 _atom_site_fract_z
 _atom_site_occupancy
  Hf  Hf0  1  0.75000000  0.25000000  0.75000000  1
  Hf  Hf1  1  0.25000000  0.25000000  0.25000000  1
  Hf  Hf2  1  0.75000000  0.75000000  0.25000000  1
  Hf  Hf3  1  0.25000000  0.75000000  0.75000000  1
  Se  Se0  1  0.85467739  0.14532261  0.25000000  1
  Se  Se1  1  0.35467739  0.35467739  0.75000000  1
  Se  Se2  1  0.64532261  0.64532261  0.75000000  1
  Se  Se3  1  0.14532261  0.85467739  0.25000000  1
  Se  Se4  1  0.64532261  0.35467739  0.25000000  1
  Se  Se5  1  0.14532261  0.14532261  0.75000000  1
  Se  Se6  1  0.85467739  0.85467739  0.75000000  1
  Se  Se7  1  0.35467739  0.64532261  0.25000000  1
  Se  Se8  1  0.15921588  0.65921588  0.17152918  1
  Se  Se9  1  0.84078412  0.34078412  0.17152918  1
  Se  Se10  1  0.15921588  0.34078412  0.67152918  1
  Se  Se11  1  0.84078412  0.65921588  0.67152918  1
  Se  Se12  1  0.65921588  0.15921588  0.32847082  1
  Se  Se13  1  0.34078412  0.15921588  0.82847082  1
  Se  Se14  1  0.65921588  0.84078412  0.82847082  1
  Se  Se15  1  0.34078412  0.84078412  0.32847082  1
  Cl  Cl0  1  0.41702752  0.69395145  0.89396310  1
  Cl  Cl1  1  0.58297248  0.30604855  0.89396310  1
  Cl  Cl2  1  0.19395145  0.08297248  0.39396310  1
  Cl  Cl3  1  0.80604855  0.91702752  0.39396310  1
  Cl  Cl4  1  0.69395145  0.41702752  0.60603690  1
  Cl  Cl5  1  0.08297248  0.19395145  0.10603690  1
  Cl  Cl6  1  0.91702752  0.80604855  0.10603690  1
  Cl  Cl7  1  0.30604855  0.58297248  0.60603690  1
  Cl  Cl8  1  0.08297248  0.80604855  0.60603690  1
  Cl  Cl9  1  0.91702752  0.19395145  0.60603690  1
  Cl  Cl10  1  0.30604855  0.41702752  0.10603690  1
  Cl  Cl11  1  0.69395145  0.58297248  0.10603690  1
  Cl  Cl12  1  0.80604855  0.08297248  0.89396310  1
  Cl  Cl13  1  0.41702752  0.30604855  0.39396310  1
  Cl  Cl14  1  0.58297248  0.69395145  0.39396310  1
  Cl  Cl15  1  0.19395145  0.91702752  0.89396310  1
  Cl  Cl16  1  0.11552195  0.61552195  0.86340992  1
  Cl  Cl17  1  0.88447805  0.38447805  0.86340992  1
  Cl  Cl18  1  0.11552195  0.38447805  0.36340992  1
  Cl  Cl19  1  0.88447805  0.61552195  0.36340992  1
  Cl  Cl20  1  0.38447805  0.88447805  0.63659008  1
  Cl  Cl21  1  0.61552195  0.88447805  0.13659008  1
  Cl  Cl22  1  0.38447805  0.11552195  0.13659008  1
  Cl  Cl23  1  0.61552195  0.11552195  0.63659008  1
loop_
_geom_bond_atom_site_label_1
_geom_bond_atom_site_label_2
_geom_bond_distance
_geom_bond_site_symmetry_2
Se0 Se12 2.309836 1_555
Se0 Se9 2.309836 1_555
Se1 Se10 2.309836 1_555
Se1 Se13 2.309836 1_555
Se3 Se8 2.309836 1_555
Se4 Se9 2.309836 1_555
Se7 Se8 2.309836 1_555
Se10 Se5 2.309836 1_555
Se11 Se2 2.309836 1_555
Se11 Se6 2.309836 1_555
Se12 Se4 2.309836 1_555
Se13 Se5 2.309836 1_555
Se14 Se2 2.309836 1_555
Se14 Se6 2.309836 1_555
Se15 Se7 2.309836 1_555
Se15 Se3 2.309836 1_555
Cl0 Hf3 2.468465 1_555
Cl0 Se2 2.987596 1_555
Cl1 Hf0 2.468465 1_555
Cl1 Se1 2.987596 1_555
Cl2 Hf1 2.468465 1_555
Cl2 Se3 2.987596 1_545
Cl3 Hf2 2.468465 1_555
Cl3 Se0 2.987596 1_565
Cl4 Hf0 2.468465 1_555
Cl4 Se2 2.987596 1_555
Cl5 Hf1 2.468465 1_555
Cl5 Se0 2.987596 1_455
Cl6 Hf2 2.468465 1_555
Cl6 Se3 2.987596 1_655
Cl7 Hf3 2.468465 1_555
Cl7 Se1 2.987596 1_555
Cl8 Hf3 2.468465 1_555
Cl8 Se6 2.987596 1_455
Cl9 Hf0 2.468465 1_555
Cl9 Se5 2.987596 1_655
Cl10 Hf1 2.468465 1_555
Cl10 Se7 2.987596 1_555
Cl11 Hf2 2.468465 1_555
Cl11 Se4 2.987596 1_555
Cl12 Hf0 2.468465 1_555
Cl12 Se6 2.987596 1_545
Cl13 Hf1 2.468465 1_555
Cl13 Se4 2.987596 1_555
Cl14 Hf2 2.468465 1_555
Cl14 Se7 2.987596 1_555
Cl15 Hf3 2.468465 1_555
Cl15 Se5 2.987596 1_565
Cl16 Hf3 2.413285 1_555
Cl17 Hf0 2.413285 1_555
Cl18 Hf1 2.413285 1_555
Cl19 Hf2 2.413285 1_555
Cl20 Hf3 2.413285 1_555
Cl21 Hf2 2.413285 1_555
Cl22 Hf1 2.413285 1_555
Cl23 Hf0 2.413285 1_555
