# generated using pymatgen
data_Na4CaSi2SnSO12
_symmetry_space_group_name_H-M   'P 1'
_cell_length_a   9.46177731
_cell_length_b   9.36065974
_cell_length_c   22.77998474
_cell_angle_alpha   91.86627965
_cell_angle_beta   90.00000000
_cell_angle_gamma   120.35798843
_symmetry_Int_Tables_number   1
_chemical_formula_structural   Na4CaSi2SnSO12
_chemical_formula_sum   'Na24 Ca6 Si12 Sn6 S6 O72'
_cell_volume   1739.70547983
_cell_formula_units_Z   6
loop_
 _symmetry_equiv_pos_site_id
 _symmetry_equiv_pos_as_xyz
  1  'x, y, z'
loop_
 _atom_site_type_symbol
 _atom_site_label
 _atom_site_symmetry_multiplicity
 _atom_site_fract_x
 _atom_site_fract_y
 _atom_site_fract_z
 _atom_site_occupancy
  Na  Na0  1  0.64211961  0.02086828  0.25534943  1
  Na  Na1  1  0.36406225  0.35133353  0.24381059  1
  Na  Na2  1  0.99584918  0.62577019  0.24119130  1
  Na  Na3  1  0.62992100  0.62577019  0.74119130  1
  Na  Na4  1  0.98727128  0.35133353  0.74381059  1
  Na  Na5  1  0.37874867  0.02086828  0.75534943  1
  Na  Na6  1  0.30878661  0.35420128  0.58868243  1
  Na  Na7  1  0.03072925  0.68466653  0.57714359  1
  Na  Na8  1  0.66251618  0.95910319  0.57452430  1
  Na  Na9  1  0.29658800  0.95910319  0.07452430  1
  Na  Na10  1  0.65393828  0.68466653  0.07714359  1
  Na  Na11  1  0.04541567  0.35420128  0.08868243  1
  Na  Na12  1  0.97545261  0.68753528  0.92201643  1
  Na  Na13  1  0.69739525  0.01800053  0.91047759  1
  Na  Na14  1  0.32918218  0.29243719  0.90785830  1
  Na  Na15  1  0.96325400  0.29243719  0.40785830  1
  Na  Na16  1  0.32060428  0.01800053  0.41047759  1
  Na  Na17  1  0.71208167  0.68753528  0.42201643  1
  Na  Na18  1  0.98056478  0.98626473  0.49645153  1
  Na  Na19  1  0.00569995  0.98626473  0.99645153  1
  Na  Na20  1  0.64723178  0.31959773  0.82978453  1
  Na  Na21  1  0.67236695  0.31959773  0.32978453  1
  Na  Na22  1  0.31389778  0.65293173  0.16311853  1
  Na  Na23  1  0.33903295  0.65293173  0.66311853  1
  Ca  Ca0  1  0.00186438  0.00096538  0.34967073  1
  Ca  Ca1  1  0.99910100  0.00096538  0.84967073  1
  Ca  Ca2  1  0.66853138  0.33429838  0.68300373  1
  Ca  Ca3  1  0.66576800  0.33429838  0.18300373  1
  Ca  Ca4  1  0.33519738  0.66763238  0.01633773  1
  Ca  Ca5  1  0.33243400  0.66763238  0.51633773  1
  Si  Si0  1  0.30301610  0.99605059  0.25333801  1
  Si  Si1  1  0.00719870  0.30150379  0.25339969  1
  Si  Si2  1  0.29430509  0.30150379  0.75339969  1
  Si  Si3  1  0.69303449  0.99605059  0.75333801  1
  Si  Si4  1  0.96968310  0.32938359  0.58667101  1
  Si  Si5  1  0.67386570  0.63483679  0.58673269  1
  Si  Si6  1  0.96097209  0.63483679  0.08673269  1
  Si  Si7  1  0.35970149  0.32938359  0.08667101  1
  Si  Si8  1  0.63634910  0.66271759  0.92000501  1
  Si  Si9  1  0.34053170  0.96817079  0.92006669  1
  Si  Si10  1  0.62763809  0.96817079  0.42006669  1
  Si  Si11  1  0.02636749  0.66271759  0.42000501  1
  Sn  Sn0  1  0.98142483  0.00855455  0.65069955  1
  Sn  Sn1  1  0.02712972  0.00855455  0.15069955  1
  Sn  Sn2  1  0.64809183  0.34188755  0.98403255  1
  Sn  Sn3  1  0.69379672  0.34188755  0.48403255  1
  Sn  Sn4  1  0.31475783  0.67522155  0.31736655  1
  Sn  Sn5  1  0.36046272  0.67522155  0.81736655  1
  S  S0  1  0.69690625  0.70782872  0.24953769  1
  S  S1  1  0.01092247  0.70782872  0.74953769  1
  S  S2  1  0.36357325  0.04116172  0.58287069  1
  S  S3  1  0.67758947  0.04116172  0.08287069  1
  S  S4  1  0.03023925  0.37449572  0.91620469  1
  S  S5  1  0.34425547  0.37449572  0.41620469  1
  O  O0  1  0.22167122  0.01935729  0.31136839  1
  O  O1  1  0.79272873  0.78474125  0.30324991  1
  O  O2  1  0.97523712  0.19422483  0.30985012  1
  O  O3  1  0.21898772  0.19422483  0.80985012  1
  O  O4  1  0.99201252  0.78474125  0.80324991  1
  O  O5  1  0.79768608  0.01935729  0.81136839  1
  O  O6  1  0.77615033  0.95851436  0.69301682  1
  O  O7  1  0.17306710  0.20801781  0.69191426  1
  O  O8  1  0.03243820  0.81066588  0.69682384  1
  O  O9  1  0.77822769  0.81066588  0.19682384  1
  O  O10  1  0.03495071  0.20801781  0.19191426  1
  O  O11  1  0.18236403  0.95851436  0.19301682  1
  O  O12  1  0.88833822  0.35269029  0.64470139  1
  O  O13  1  0.45939573  0.11807425  0.63658291  1
  O  O14  1  0.64190412  0.52755783  0.64318312  1
  O  O15  1  0.88565472  0.52755783  0.14318312  1
  O  O16  1  0.65867952  0.11807425  0.13658291  1
  O  O17  1  0.46435308  0.35269029  0.14470139  1
  O  O18  1  0.44281733  0.29184736  0.02634982  1
  O  O19  1  0.83973410  0.54135081  0.02524726  1
  O  O20  1  0.69910520  0.14399888  0.03015684  1
  O  O21  1  0.44489469  0.14399888  0.53015684  1
  O  O22  1  0.70161771  0.54135081  0.52524726  1
  O  O23  1  0.84903103  0.29184736  0.52634982  1
  O  O24  1  0.55500422  0.68602429  0.97803539  1
  O  O25  1  0.12606173  0.45140825  0.96991691  1
  O  O26  1  0.30857012  0.86089183  0.97651712  1
  O  O27  1  0.55232072  0.86089183  0.47651712  1
  O  O28  1  0.32534552  0.45140825  0.46991691  1
  O  O29  1  0.13101908  0.68602429  0.47803539  1
  O  O30  1  0.10948333  0.62518136  0.35968382  1
  O  O31  1  0.50640010  0.87468481  0.35858126  1
  O  O32  1  0.36577120  0.47733288  0.36349084  1
  O  O33  1  0.11156069  0.47733288  0.86349084  1
  O  O34  1  0.36828371  0.87468481  0.85858126  1
  O  O35  1  0.51569703  0.62518136  0.85968382  1
  O  O36  1  0.00074042  0.82062534  0.41511196  1
  O  O37  1  0.81258991  0.00346552  0.41305410  1
  O  O38  1  0.19780809  0.20730377  0.41087971  1
  O  O39  1  0.00949568  0.20730377  0.91087971  1
  O  O40  1  0.19087561  0.00346552  0.91305410  1
  O  O41  1  0.81988491  0.82062534  0.91511196  1
  O  O42  1  0.97768747  0.15239220  0.58556123  1
  O  O43  1  0.19749227  0.02628903  0.58573064  1
  O  O44  1  0.85896044  0.81526296  0.58999049  1
  O  O45  1  0.95630253  0.81526296  0.08999049  1
  O  O46  1  0.82879676  0.02628903  0.08573064  1
  O  O47  1  0.17470473  0.15239220  0.08556123  1
  O  O48  1  0.66740742  0.15395834  0.74844496  1
  O  O49  1  0.47925691  0.33679852  0.74638710  1
  O  O50  1  0.86447509  0.54063677  0.74421271  1
  O  O51  1  0.67616268  0.54063677  0.24421271  1
  O  O52  1  0.85754261  0.33679852  0.24638710  1
  O  O53  1  0.48655191  0.15395834  0.24844496  1
  O  O54  1  0.64435447  0.48572520  0.91889423  1
  O  O55  1  0.86415927  0.35962203  0.91906364  1
  O  O56  1  0.52562744  0.14859596  0.92332349  1
  O  O57  1  0.62296953  0.14859596  0.42332349  1
  O  O58  1  0.49546376  0.35962203  0.41906364  1
  O  O59  1  0.84137173  0.48572520  0.41889423  1
  O  O60  1  0.33407342  0.48729234  0.08177896  1
  O  O61  1  0.14592291  0.67013252  0.07972110  1
  O  O62  1  0.53114109  0.87397077  0.07754671  1
  O  O63  1  0.34282868  0.87397077  0.57754671  1
  O  O64  1  0.52420861  0.67013252  0.57972110  1
  O  O65  1  0.15321791  0.48729234  0.58177896  1
  O  O66  1  0.31102047  0.81905920  0.25222823  1
  O  O67  1  0.53082527  0.69295603  0.25239764  1
  O  O68  1  0.19229344  0.48192996  0.25665749  1
  O  O69  1  0.28963553  0.48192996  0.75665749  1
  O  O70  1  0.16212976  0.69295603  0.75239764  1
  O  O71  1  0.50803773  0.81905920  0.75222823  1
loop_
_geom_bond_atom_site_label_1
_geom_bond_atom_site_label_2
_geom_bond_distance
_geom_bond_site_symmetry_2
Na0 O53 2.368491 1_555
Na0 O52 2.624569 1_555
Na0 O67 2.693409 1_545
Na0 O66 2.719790 1_545
Na0 O31 2.735875 1_545
Na0 O16 2.861547 1_555
Na0 O2 2.967807 1_555
Na1 O17 2.446947 1_555
Na1 O68 2.491272 1_555
Na1 O51 2.563217 1_555
Na1 O53 2.635326 1_555
Na1 O67 2.759159 1_555
Na1 O10 2.927156 1_555
Na1 O32 2.931792 1_555
Na2 O52 2.342259 1_555
Na2 O15 2.411286 1_555
Na2 O66 2.597345 1_655
Na2 O51 2.712246 1_555
Na2 O68 2.820002 1_655
Na2 O30 2.906716 1_655
Na2 O11 2.947310 1_655
Na3 O49 2.342259 1_555
Na3 O14 2.411289 1_555
Na3 O71 2.597352 1_555
Na3 O50 2.712255 1_555
Na3 O69 2.820011 1_555
Na3 O35 2.906719 1_555
Na3 O6 2.947310 1_555
Na4 O12 2.446944 1_555
Na4 O69 2.491264 1_655
Na4 O50 2.563209 1_555
Na4 O48 2.635319 1_555
Na4 O70 2.759159 1_655
Na4 O7 2.927156 1_655
Na4 O33 2.931790 1_655
Na5 O48 2.368499 1_555
Na5 O49 2.624567 1_555
Na5 O70 2.693410 1_545
Na5 O71 2.719783 1_545
Na5 O34 2.735873 1_545
Na5 O13 2.861548 1_555
Na5 O3 2.967807 1_555
Na6 O65 2.368505 1_555
Na6 O64 2.624571 1_555
Na6 O43 2.693409 1_555
Na6 O42 2.719790 1_455
Na6 O7 2.735875 1_555
Na6 O28 2.861529 1_555
Na6 O14 2.967807 1_555
Na7 O29 2.446921 1_555
Na7 O44 2.491272 1_455
Na7 O63 2.563210 1_555
Na7 O65 2.635312 1_555
Na7 O43 2.759159 1_565
Na7 O22 2.927156 1_455
Na7 O8 2.931792 1_555
Na8 O64 2.342252 1_555
Na8 O27 2.411267 1_555
Na8 O42 2.597345 1_565
Na8 O63 2.712258 1_555
Na8 O44 2.820002 1_555
Na8 O6 2.906716 1_555
Na8 O23 2.947310 1_565
Na9 O61 2.342253 1_555
Na9 O26 2.411262 1_554
Na9 O47 2.597352 1_565
Na9 O62 2.712240 1_555
Na9 O45 2.820011 1_455
Na9 O11 2.906719 1_555
Na9 O18 2.947310 1_565
Na10 O24 2.446928 1_554
Na10 O45 2.491264 1_555
Na10 O62 2.563225 1_555
Na10 O60 2.635327 1_555
Na10 O46 2.759159 1_565
Na10 O19 2.927156 1_555
Na10 O9 2.931790 1_555
Na11 O60 2.368488 1_555
Na11 O61 2.624575 1_555
Na11 O46 2.693410 1_455
Na11 O47 2.719783 1_555
Na11 O10 2.735873 1_555
Na11 O25 2.861527 1_554
Na11 O15 2.967807 1_455
Na12 O41 2.368491 1_555
Na12 O40 2.624569 1_665
Na12 O55 2.693419 1_555
Na12 O54 2.719784 1_555
Na12 O19 2.735856 1_556
Na12 O4 2.861547 1_555
Na12 O26 2.967807 1_655
Na13 O5 2.446947 1_555
Na13 O56 2.491254 1_555
Na13 O39 2.563217 1_655
Na13 O41 2.635326 1_545
Na13 O55 2.759150 1_555
Na13 O34 2.927156 1_545
Na13 O20 2.931766 1_556
Na14 O40 2.342259 1_555
Na14 O3 2.411286 1_555
Na14 O54 2.597349 1_555
Na14 O39 2.712246 1_555
Na14 O56 2.820015 1_555
Na14 O18 2.906700 1_556
Na14 O35 2.947310 1_555
Na15 O37 2.342259 1_555
Na15 O2 2.411289 1_555
Na15 O59 2.597334 1_555
Na15 O38 2.712255 1_655
Na15 O57 2.819998 1_555
Na15 O23 2.906693 1_555
Na15 O30 2.947310 1_655
Na16 O0 2.446944 1_555
Na16 O57 2.491271 1_555
Na16 O38 2.563209 1_555
Na16 O36 2.635319 1_545
Na16 O58 2.759150 1_555
Na16 O31 2.927156 1_545
Na16 O21 2.931770 1_555
Na17 O36 2.368499 1_655
Na17 O37 2.624567 1_565
Na17 O58 2.693415 1_555
Na17 O59 2.719799 1_555
Na17 O22 2.735860 1_555
Na17 O1 2.861548 1_555
Na17 O27 2.967807 1_555
Na18 O36 2.446594 1_655
Na18 O42 2.525216 1_565
Na18 O37 2.537662 1_565
Na18 O44 2.605181 1_555
Na18 O43 2.768127 1_665
Na18 O38 2.875727 1_665
Na19 O41 2.446594 1_455
Na19 O47 2.525216 1_566
Na19 O40 2.537662 1_565
Na19 O45 2.605181 1_456
Na19 O46 2.768127 1_466
Na19 O39 2.875727 1_565
Na20 O48 2.446594 1_555
Na20 O54 2.525216 1_555
Na20 O49 2.537662 1_555
Na20 O56 2.605181 1_555
Na20 O55 2.768127 1_555
Na20 O50 2.875727 1_555
Na21 O53 2.446594 1_555
Na21 O59 2.525216 1_555
Na21 O52 2.537662 1_555
Na21 O57 2.605181 1_555
Na21 O58 2.768127 1_555
Na21 O51 2.875727 1_555
Na22 O60 2.446594 1_555
Na22 O66 2.525216 1_555
Na22 O61 2.537662 1_555
Na22 O68 2.605181 1_555
Na22 O67 2.768127 1_555
Na22 O62 2.875727 1_555
Na23 O65 2.446594 1_555
Na23 O71 2.525216 1_555
Na23 O64 2.537662 1_555
Na23 O69 2.605181 1_555
Na23 O70 2.768127 1_555
Na23 O63 2.875727 1_555
Ca0 O2 2.174056 1_455
Ca0 O0 2.182710 1_555
Ca0 O1 2.223216 1_445
Ca0 O36 2.284273 1_545
Ca0 O38 2.305857 1_555
Ca0 O37 2.309265 1_455
Ca1 O3 2.174056 1_655
Ca1 O5 2.182709 1_555
Ca1 O4 2.223216 1_545
Ca1 O41 2.284273 1_545
Ca1 O39 2.305857 1_655
Ca1 O40 2.309265 1_655
Ca2 O14 2.174056 1_555
Ca2 O12 2.182710 1_555
Ca2 O13 2.223216 1_555
Ca2 O48 2.284273 1_555
Ca2 O50 2.305857 1_555
Ca2 O49 2.309265 1_555
Ca3 O15 2.174056 1_555
Ca3 O17 2.182709 1_555
Ca3 O16 2.223216 1_555
Ca3 O53 2.284273 1_555
Ca3 O51 2.305857 1_555
Ca3 O52 2.309265 1_555
Ca4 O26 2.174056 1_554
Ca4 O24 2.182710 1_554
Ca4 O25 2.223216 1_554
Ca4 O60 2.284273 1_555
Ca4 O62 2.305857 1_555
Ca4 O61 2.309265 1_555
Ca5 O27 2.174056 1_555
Ca5 O29 2.182709 1_555
Ca5 O28 2.223216 1_555
Ca5 O65 2.284273 1_555
Ca5 O63 2.305857 1_555
Ca5 O64 2.309265 1_555
O0 Si0 1.593245 1_545
O1 S0 1.456119 1_555
O2 Si1 1.590806 1_655
O3 Si2 1.590806 1_555
O4 S1 1.456119 1_655
O5 Si3 1.593245 1_545
O6 Si3 1.696458 1_555
O6 Sn0 2.007702 1_565
O7 Si2 1.717251 1_555
O7 Sn0 2.029583 1_455
O8 S1 1.512370 1_555
O8 Sn0 2.408062 1_465
O9 S0 1.512370 1_555
O9 Sn1 2.408062 1_665
O10 Si1 1.717251 1_555
O10 Sn1 2.029583 1_555
O11 Si0 1.696458 1_555
O11 Sn1 2.007702 1_565
O12 Si4 1.593245 1_555
O13 S2 1.456119 1_555
O14 Si5 1.590806 1_555
O15 Si6 1.590806 1_555
O16 S3 1.456119 1_555
O17 Si7 1.593245 1_555
O18 Si7 1.696458 1_555
O18 Sn2 2.007702 1_554
O19 Si6 1.717251 1_555
O19 Sn2 2.029583 1_554
O20 S3 1.512370 1_555
O20 Sn2 2.408062 1_554
O21 S2 1.512370 1_555
O21 Sn3 2.408062 1_555
O22 Si5 1.717251 1_555
O22 Sn3 2.029583 1_555
O23 Si4 1.696458 1_555
O23 Sn3 2.007702 1_555
O24 Si8 1.593245 1_555
O25 S4 1.456119 1_555
O26 Si9 1.590806 1_555
O27 Si10 1.590806 1_555
O28 S5 1.456119 1_555
O29 Si11 1.593245 1_555
O30 Si11 1.696458 1_555
O30 Sn4 2.007702 1_555
O31 Si10 1.717251 1_555
O31 Sn4 2.029583 1_555
O32 S5 1.512370 1_555
O32 Sn4 2.408062 1_555
O33 S4 1.512370 1_555
O33 Sn5 2.408062 1_555
O34 Si9 1.717251 1_555
O34 Sn5 2.029583 1_555
O35 Si8 1.696458 1_555
O35 Sn5 2.007702 1_555
O36 Si11 1.621442 1_555
O37 Si10 1.617439 1_545
O38 S5 1.476375 1_555
O39 S4 1.476378 1_555
O40 Si9 1.617430 1_545
O41 Si8 1.621448 1_555
O42 Si4 1.695676 1_555
O42 Sn0 2.047963 1_555
O43 S2 1.507464 1_555
O43 Sn0 2.463815 1_455
O44 Si5 1.710881 1_555
O44 Sn0 2.060764 1_565
O45 Si6 1.710886 1_555
O45 Sn1 2.060764 1_665
O46 S3 1.507455 1_555
O46 Sn1 2.463815 1_655
O47 Si7 1.695682 1_555
O47 Sn1 2.047963 1_555
O48 Si3 1.621442 1_545
O49 Si2 1.617439 1_555
O50 S1 1.476375 1_655
O51 S0 1.476378 1_555
O52 Si1 1.617430 1_655
O53 Si0 1.621448 1_545
O54 Si8 1.695691 1_555
O54 Sn2 2.047963 1_555
O55 S4 1.507450 1_655
O55 Sn2 2.463815 1_555
O56 Si9 1.710882 1_545
O56 Sn2 2.060764 1_555
O57 Si10 1.710872 1_545
O57 Sn3 2.060764 1_555
O58 S5 1.507468 1_555
O58 Sn3 2.463815 1_555
O59 Si11 1.695680 1_655
O59 Sn3 2.047963 1_555
O60 Si7 1.621455 1_555
O61 Si6 1.617424 1_455
O62 S3 1.476372 1_565
O63 S2 1.476364 1_565
O64 Si5 1.617443 1_555
O65 Si4 1.621443 1_455
O66 Si0 1.695676 1_555
O66 Sn4 2.047963 1_555
O67 S0 1.507464 1_555
O67 Sn4 2.463815 1_555
O68 Si1 1.710881 1_555
O68 Sn4 2.060764 1_555
O69 Si2 1.710886 1_555
O69 Sn5 2.060764 1_555
O70 S1 1.507455 1_555
O70 Sn5 2.463815 1_555
O71 Si3 1.695682 1_555
O71 Sn5 2.047963 1_555
