# generated using pymatgen
data_BaNdMn2O6
_symmetry_space_group_name_H-M   'P 1'
_cell_length_a   3.93982300
_cell_length_b   3.93982300
_cell_length_c   7.92496400
_cell_angle_alpha   90.00000000
_cell_angle_beta   90.00000000
_cell_angle_gamma   90.00000000
_symmetry_Int_Tables_number   1
_chemical_formula_structural   BaNdMn2O6
_chemical_formula_sum   'Ba1 Nd1 Mn2 O6'
_cell_volume   123.01291798
_cell_formula_units_Z   1
loop_
 _symmetry_equiv_pos_site_id
 _symmetry_equiv_pos_as_xyz
  1  'x, y, z'
loop_
 _atom_site_type_symbol
 _atom_site_label
 _atom_site_symmetry_multiplicity
 _atom_site_fract_x
 _atom_site_fract_y
 _atom_site_fract_z
 _atom_site_occupancy
  Ba  Ba0  1  0.00000000  0.00000000  0.49999900  1
  Nd  Nd0  1  0.00000000  0.00000000  0.00000000  1
  Mn  Mn0  1  0.50000100  0.50000100  0.75345500  1
  Mn  Mn1  1  0.50000100  0.50000100  0.24654500  1
  O  O0  1  0.50000100  0.50000100  0.00000000  1
  O  O1  1  0.00000000  0.50000100  0.77538600  1
  O  O2  1  0.50000100  0.00000000  0.77538600  1
  O  O3  1  0.00000000  0.50000100  0.22461400  1
  O  O4  1  0.50000100  0.50000100  0.49999900  1
  O  O5  1  0.50000100  0.00000000  0.22461400  1
loop_
_geom_bond_atom_site_label_1
_geom_bond_atom_site_label_2
_geom_bond_distance
_geom_bond_site_symmetry_2
Ba0 O4 2.785870 1_445
Ba0 O4 2.785876 1_455
Ba0 O4 2.785876 1_545
Ba0 O4 2.785881 1_555
Ba0 O3 2.939979 1_545
Ba0 O5 2.939979 1_455
Ba0 O5 2.939984 1_555
Ba0 O3 2.939984 1_555
Ba0 O2 2.939991 1_455
Ba0 O1 2.939991 1_545
Ba0 O2 2.939996 1_555
Ba0 O1 2.939996 1_555
Nd0 O5 2.655022 1_455
Nd0 O3 2.655022 1_545
Nd0 O2 2.655022 1_454
Nd0 O1 2.655022 1_544
Nd0 O5 2.655028 1_555
Nd0 O3 2.655028 1_555
Nd0 O1 2.655028 1_554
Nd0 O2 2.655028 1_554
Nd0 O0 2.785870 1_445
Nd0 O0 2.785876 1_545
Nd0 O0 2.785876 1_455
Nd0 O0 2.785881 1_555
Mn0 O0 1.953860 1_556
Mn0 O1 1.977560 1_655
Mn0 O2 1.977560 1_565
Mn0 O2 1.977568 1_555
Mn0 O1 1.977568 1_555
Mn0 O4 2.008630 1_555
Mn1 O0 1.953860 1_555
Mn1 O3 1.977560 1_655
Mn1 O5 1.977560 1_565
Mn1 O5 1.977568 1_555
Mn1 O3 1.977568 1_555
Mn1 O4 2.008614 1_555
