# generated using pymatgen
data_MgTiVO4
_symmetry_space_group_name_H-M   'P 1'
_cell_length_a   5.23387911
_cell_length_b   5.23387807
_cell_length_c   5.23387820
_cell_angle_alpha   133.36935614
_cell_angle_beta   133.35358434
_cell_angle_gamma   68.08704476
_symmetry_Int_Tables_number   1
_chemical_formula_structural   MgTiVO4
_chemical_formula_sum   'Mg1 Ti1 V1 O4'
_cell_volume   74.46515784
_cell_formula_units_Z   1
loop_
 _symmetry_equiv_pos_site_id
 _symmetry_equiv_pos_as_xyz
  1  'x, y, z'
loop_
 _atom_site_type_symbol
 _atom_site_label
 _atom_site_symmetry_multiplicity
 _atom_site_fract_x
 _atom_site_fract_y
 _atom_site_fract_z
 _atom_site_occupancy
  Mg  Mg0  1  0.51166800  0.51166800  0.00000000  1
  Ti  Ti0  1  0.76190500  0.26190500  0.50000000  1
  V  V0  1  0.01196200  0.01196200  0.00000000  1
  O  O0  1  0.53538200  0.03538200  0.50000000  1
  O  O1  1  0.26455100  0.26455100  0.00000000  1
  O  O2  1  0.98848900  0.48848900  0.50000000  1
  O  O3  1  0.75937600  0.75937600  0.00000000  1
loop_
_geom_bond_atom_site_label_1
_geom_bond_atom_site_label_2
_geom_bond_distance
_geom_bond_site_symmetry_2
Mg0 O0 2.081709 1_565
Mg0 O0 2.081709 1_554
Mg0 O2 2.081914 1_555
Mg0 O2 2.081914 1_454
Mg0 O1 2.143422 1_555
Mg0 O3 2.148549 1_555
O0 Ti0 1.964796 1_555
O0 V0 2.082117 1_656
O0 V0 2.082117 1_555
O1 Ti0 2.072311 1_555
O1 Ti0 2.072311 1_454
O1 V0 2.190885 1_555
O2 Ti0 1.965325 1_555
O2 V0 2.081504 1_666
O2 V0 2.081504 1_655
O3 Ti0 2.071639 1_565
O3 Ti0 2.071639 1_554
O3 V0 2.190859 1_665
