# generated using pymatgen
data_Sr2Al3Si3HO13
_symmetry_space_group_name_H-M   'P 1'
_cell_length_a   5.66788800
_cell_length_b   10.36862300
_cell_length_c   16.53873800
_cell_angle_alpha   90.00000000
_cell_angle_beta   90.00000000
_cell_angle_gamma   90.00000000
_symmetry_Int_Tables_number   1
_chemical_formula_structural   Sr2Al3Si3HO13
_chemical_formula_sum   'Sr8 Al12 Si12 H4 O52'
_cell_volume   971.95176129
_cell_formula_units_Z   4
loop_
 _symmetry_equiv_pos_site_id
 _symmetry_equiv_pos_as_xyz
  1  'x, y, z'
loop_
 _atom_site_type_symbol
 _atom_site_label
 _atom_site_symmetry_multiplicity
 _atom_site_fract_x
 _atom_site_fract_y
 _atom_site_fract_z
 _atom_site_occupancy
  Sr  Sr0  1  0.25000000  0.38752600  0.95694900  1
  Sr  Sr1  1  0.75000000  0.61247400  0.04305100  1
  Sr  Sr2  1  0.75000000  0.88752600  0.54305100  1
  Sr  Sr3  1  0.25000000  0.11247400  0.45694900  1
  Sr  Sr4  1  0.25000000  0.05950800  0.86851500  1
  Sr  Sr5  1  0.75000000  0.94049200  0.13148500  1
  Sr  Sr6  1  0.75000000  0.55950800  0.63148500  1
  Sr  Sr7  1  0.25000000  0.44049200  0.36851500  1
  Al  Al0  1  0.49563100  0.68877600  0.24668900  1
  Al  Al1  1  0.99563100  0.18877600  0.25331100  1
  Al  Al2  1  0.49563100  0.81122400  0.74668900  1
  Al  Al3  1  0.00436900  0.68877600  0.24668900  1
  Al  Al4  1  0.50436900  0.31122400  0.75331100  1
  Al  Al5  1  0.00436900  0.81122400  0.74668900  1
  Al  Al6  1  0.50436900  0.18877600  0.25331100  1
  Al  Al7  1  0.99563100  0.31122400  0.75331100  1
  Al  Al8  1  0.75000000  0.29681200  0.11011300  1
  Al  Al9  1  0.25000000  0.70318800  0.88988700  1
  Al  Al10  1  0.25000000  0.79681200  0.38988700  1
  Al  Al11  1  0.75000000  0.20318800  0.61011300  1
  Si  Si0  1  0.25000000  0.07123500  0.66323200  1
  Si  Si1  1  0.75000000  0.89417700  0.91279100  1
  Si  Si2  1  0.75000000  0.60582300  0.41279100  1
  Si  Si3  1  0.25000000  0.39417700  0.58720900  1
  Si  Si4  1  0.25000000  0.10582300  0.08720900  1
  Si  Si5  1  0.75000000  0.28404200  0.41251700  1
  Si  Si6  1  0.25000000  0.71595800  0.58748300  1
  Si  Si7  1  0.25000000  0.78404200  0.08748300  1
  Si  Si8  1  0.75000000  0.21595800  0.91251700  1
  Si  Si9  1  0.25000000  0.42876500  0.16323200  1
  Si  Si10  1  0.75000000  0.92876500  0.33676800  1
  Si  Si11  1  0.75000000  0.57123500  0.83676800  1
  H  H0  1  0.25000000  0.51719000  0.77140100  1
  H  H1  1  0.75000000  0.48281000  0.22859900  1
  H  H2  1  0.75000000  0.01719000  0.72859900  1
  H  H3  1  0.25000000  0.98281000  0.27140100  1
  O  O0  1  0.25000000  0.31029200  0.23216900  1
  O  O1  1  0.75000000  0.57797200  0.22777300  1
  O  O2  1  0.75000000  0.92202800  0.72777300  1
  O  O3  1  0.25000000  0.07797200  0.27222700  1
  O  O4  1  0.75000000  0.05554300  0.91385200  1
  O  O5  1  0.25000000  0.94445700  0.08614800  1
  O  O6  1  0.25000000  0.55554300  0.58614800  1
  O  O7  1  0.75000000  0.44445700  0.41385200  1
  O  O8  1  0.75000000  0.21714100  0.50092000  1
  O  O9  1  0.25000000  0.78285900  0.49908000  1
  O  O10  1  0.25000000  0.71714100  0.99908000  1
  O  O11  1  0.75000000  0.28285900  0.00092000  1
  O  O12  1  0.25000000  0.34029900  0.49761600  1
  O  O13  1  0.75000000  0.65970100  0.50238400  1
  O  O14  1  0.75000000  0.84029900  0.00238400  1
  O  O15  1  0.25000000  0.15970100  0.99761600  1
  O  O16  1  0.75000000  0.44190300  0.77518200  1
  O  O17  1  0.48545900  0.74074600  0.13804300  1
  O  O18  1  0.25000000  0.94190300  0.72481800  1
  O  O19  1  0.75000000  0.05809700  0.27518200  1
  O  O20  1  0.25000000  0.18970800  0.73216900  1
  O  O21  1  0.75000000  0.81029200  0.26783100  1
  O  O22  1  0.75000000  0.68970800  0.76783100  1
  O  O23  1  0.25000000  0.42202800  0.77222700  1
  O  O24  1  0.75000000  0.20422800  0.72178200  1
  O  O25  1  0.25000000  0.79577200  0.27821800  1
  O  O26  1  0.25000000  0.70422800  0.77821800  1
  O  O27  1  0.75000000  0.29577200  0.22178200  1
  O  O28  1  0.00277700  0.14739100  0.13574100  1
  O  O29  1  0.50277700  0.85260900  0.86425900  1
  O  O30  1  0.99722300  0.64739100  0.36425900  1
  O  O31  1  0.49722300  0.35260900  0.63574100  1
  O  O32  1  0.99722300  0.85260900  0.86425900  1
  O  O33  1  0.49722300  0.14739100  0.13574100  1
  O  O34  1  0.00277700  0.35260900  0.63574100  1
  O  O35  1  0.50277700  0.64739100  0.36425900  1
  O  O36  1  0.01396800  0.42061600  0.10515500  1
  O  O37  1  0.51396800  0.57938400  0.89484500  1
  O  O38  1  0.98603200  0.92061600  0.39484500  1
  O  O39  1  0.48603200  0.07938400  0.60515500  1
  O  O40  1  0.98603200  0.57938400  0.89484500  1
  O  O41  1  0.48603200  0.42061600  0.10515500  1
  O  O42  1  0.01396800  0.07938400  0.60515500  1
  O  O43  1  0.51396800  0.92061600  0.39484500  1
  O  O44  1  0.98545900  0.24074600  0.36195700  1
  O  O45  1  0.48545900  0.75925400  0.63804300  1
  O  O46  1  0.01454100  0.74074600  0.13804300  1
  O  O47  1  0.51454100  0.25925400  0.86195700  1
  O  O48  1  0.01454100  0.75925400  0.63804300  1
  O  O49  1  0.51454100  0.24074600  0.36195700  1
  O  O50  1  0.98545900  0.25925400  0.86195700  1
  O  O51  1  0.25000000  0.55809700  0.22481800  1
loop_
_geom_bond_atom_site_label_1
_geom_bond_atom_site_label_2
_geom_bond_distance
_geom_bond_site_symmetry_2
Al0 O25 1.854974 1_555
Al0 O1 1.869869 1_555
Al0 O17 1.876812 1_555
Al0 O21 1.946367 1_555
Al0 O51 1.976109 1_555
Al0 O35 1.991656 1_555
Al1 O27 1.854974 1_555
Al1 O3 1.869869 1_655
Al1 O44 1.876812 1_555
Al1 O0 1.946367 1_655
Al1 O19 1.976109 1_555
Al1 O28 1.991656 1_655
Al2 O26 1.854974 1_555
Al2 O2 1.869869 1_555
Al2 O45 1.876812 1_555
Al2 O22 1.946367 1_555
Al2 O18 1.976109 1_555
Al2 O29 1.991656 1_555
Al3 O25 1.854974 1_555
Al3 O1 1.869869 1_455
Al3 O46 1.876812 1_555
Al3 O21 1.946367 1_455
Al3 O51 1.976109 1_555
Al3 O30 1.991656 1_455
Al4 O24 1.854974 1_555
Al4 O23 1.869869 1_555
Al4 O47 1.876812 1_555
Al4 O20 1.946367 1_555
Al4 O16 1.976109 1_555
Al4 O31 1.991656 1_555
Al5 O26 1.854974 1_555
Al5 O2 1.869869 1_455
Al5 O48 1.876812 1_555
Al5 O22 1.946367 1_455
Al5 O18 1.976109 1_555
Al5 O32 1.991656 1_455
Al6 O27 1.854974 1_555
Al6 O3 1.869869 1_555
Al6 O49 1.876812 1_555
Al6 O0 1.946367 1_555
Al6 O19 1.976109 1_555
Al6 O33 1.991656 1_555
Al7 O24 1.854974 1_555
Al7 O23 1.869869 1_655
Al7 O50 1.876812 1_555
Al7 O20 1.946367 1_655
Al7 O16 1.976109 1_555
Al7 O34 1.991656 1_655
Al8 O11 1.811700 1_555
Al8 O27 1.846896 1_555
Al8 O41 1.973066 1_555
Al8 O36 1.973066 1_655
Al8 O33 2.152351 1_555
Al8 O28 2.152351 1_655
Al9 O10 1.811700 1_555
Al9 O26 1.846896 1_555
Al9 O40 1.973066 1_455
Al9 O37 1.973066 1_555
Al9 O32 2.152351 1_455
Al9 O29 2.152351 1_555
Al10 O9 1.811700 1_555
Al10 O25 1.846896 1_555
Al10 O43 1.973066 1_555
Al10 O38 1.973066 1_455
Al10 O35 2.152351 1_555
Al10 O30 2.152351 1_455
Al11 O8 1.811700 1_555
Al11 O24 1.846896 1_555
Al11 O39 1.973066 1_555
Al11 O42 1.973066 1_655
Al11 O31 2.152351 1_555
Al11 O34 2.152351 1_655
H0 O23 0.986793 1_555
H1 O1 0.986793 1_555
H2 O2 0.986793 1_545
H3 O3 0.986793 1_565
O0 Si9 1.675968 1_555
O0 Sr7 2.628206 1_555
O4 Si8 1.663429 1_555
O4 Si1 1.673235 1_545
O4 Sr4 2.931749 1_655
O4 Sr4 2.931749 1_555
O5 Si7 1.663429 1_555
O5 Si4 1.673235 1_565
O5 Sr5 2.931749 1_555
O5 Sr5 2.931749 1_455
O6 Si6 1.663429 1_555
O6 Si3 1.673235 1_555
O6 Sr6 2.931749 1_455
O6 Sr6 2.931749 1_555
O7 Si5 1.663429 1_555
O7 Si2 1.673235 1_555
O7 Sr7 2.931749 1_655
O7 Sr7 2.931749 1_555
O8 Si5 1.618283 1_555
O9 Si6 1.618283 1_555
O10 Si7 1.618283 1_556
O11 Si8 1.618283 1_554
O12 Si3 1.583565 1_555
O12 Sr7 2.374485 1_555
O12 Sr3 2.456115 1_555
O13 Si2 1.583565 1_555
O13 Sr6 2.374485 1_555
O13 Sr2 2.456115 1_555
O14 Si1 1.583565 1_554
O14 Sr5 2.374485 1_555
O14 Sr1 2.456115 1_555
O15 Si4 1.583565 1_556
O15 Sr4 2.374485 1_555
O15 Sr0 2.456115 1_555
O16 Si11 1.683960 1_555
O16 Sr6 2.671144 1_555
O17 Si7 1.637619 1_555
O17 Sr1 2.546619 1_555
O17 Sr5 2.559169 1_555
O18 Si0 1.683960 1_565
O18 Sr4 2.671144 1_565
O19 Si10 1.683960 1_545
O19 Sr5 2.671144 1_545
O20 Si0 1.675968 1_555
O20 Sr4 2.628206 1_555
O21 Si10 1.675968 1_555
O21 Sr5 2.628206 1_555
O22 Si11 1.675968 1_555
O22 Sr6 2.628206 1_555
O28 Si4 1.671369 1_555
O28 Sr5 2.580649 1_445
O29 Si1 1.671369 1_555
O29 Sr4 2.580649 1_565
O30 Si2 1.671369 1_555
O30 Sr7 2.580649 1_655
O31 Si3 1.671369 1_555
O31 Sr6 2.580649 1_555
O32 Si1 1.671369 1_555
O32 Sr4 2.580649 1_665
O33 Si4 1.671369 1_555
O33 Sr5 2.580649 1_545
O34 Si3 1.671369 1_555
O34 Sr6 2.580649 1_455
O35 Si2 1.671369 1_555
O35 Sr7 2.580649 1_555
O36 Si9 1.649077 1_555
O36 Sr1 2.692721 1_455
O36 Sr0 2.813454 1_554
O37 Si11 1.649077 1_555
O37 Sr0 2.692721 1_555
O37 Sr1 2.813454 1_556
O38 Si10 1.649077 1_555
O38 Sr3 2.692721 1_665
O38 Sr2 2.813454 1_555
O39 Si0 1.649077 1_555
O39 Sr2 2.692721 1_545
O39 Sr3 2.813454 1_555
O40 Si11 1.649077 1_555
O40 Sr0 2.692721 1_655
O40 Sr1 2.813454 1_556
O41 Si9 1.649077 1_555
O41 Sr1 2.692721 1_555
O41 Sr0 2.813454 1_554
O42 Si0 1.649077 1_555
O42 Sr2 2.692721 1_445
O42 Sr3 2.813454 1_555
O43 Si10 1.649077 1_555
O43 Sr3 2.692721 1_565
O43 Sr2 2.813454 1_555
O44 Si5 1.637619 1_555
O44 Sr3 2.546619 1_655
O44 Sr7 2.559169 1_655
O45 Si6 1.637619 1_555
O45 Sr2 2.546619 1_555
O45 Sr6 2.559169 1_555
O46 Si7 1.637619 1_555
O46 Sr1 2.546619 1_455
O46 Sr5 2.559169 1_455
O47 Si8 1.637619 1_555
O47 Sr0 2.546619 1_555
O47 Sr4 2.559169 1_555
O48 Si6 1.637619 1_555
O48 Sr2 2.546619 1_455
O48 Sr6 2.559169 1_455
O49 Si5 1.637619 1_555
O49 Sr3 2.546619 1_555
O49 Sr7 2.559169 1_555
O50 Si8 1.637619 1_555
O50 Sr0 2.546619 1_655
O50 Sr4 2.559169 1_655
O51 Si9 1.683960 1_555
O51 Sr7 2.671144 1_555
