# generated using pymatgen
data_Na6Hf4Nb4Si9(SO16)3
_symmetry_space_group_name_H-M   'P 1'
_cell_length_a   18.02163423
_cell_length_b   8.98039753
_cell_length_c   22.91222027
_cell_angle_alpha   90.00631145
_cell_angle_beta   89.93061892
_cell_angle_gamma   119.82582991
_symmetry_Int_Tables_number   1
_chemical_formula_structural   Na6Hf4Nb4Si9(SO16)3
_chemical_formula_sum   'Na18 Hf12 Nb12 Si27 S9 O144'
_cell_volume   3216.96761877
_cell_formula_units_Z   3
loop_
 _symmetry_equiv_pos_site_id
 _symmetry_equiv_pos_as_xyz
  1  'x, y, z'
loop_
 _atom_site_type_symbol
 _atom_site_label
 _atom_site_symmetry_multiplicity
 _atom_site_fract_x
 _atom_site_fract_y
 _atom_site_fract_z
 _atom_site_occupancy
  Na  Na0  1  0.00193157  0.64680240  0.24444313  1
  Na  Na1  1  0.50018612  0.62452169  0.24783789  1
  Na  Na2  1  0.99984435  0.37589750  0.74818481  1
  Na  Na3  1  0.50248907  0.36417203  0.74638613  1
  Na  Na4  1  0.33373880  0.97472163  0.58745735  1
  Na  Na5  1  0.83225410  0.69143515  0.08129287  1
  Na  Na6  1  0.99748333  0.00902637  0.50299478  1
  Na  Na7  1  0.50535486  0.00191796  0.50366094  1
  Na  Na8  1  0.00501575  0.01100698  0.99881066  1
  Na  Na9  1  0.49822847  0.98799021  0.99656574  1
  Na  Na10  1  0.32824583  0.33922623  0.82971265  1
  Na  Na11  1  0.82659603  0.33846217  0.83160517  1
  Na  Na12  1  0.32904965  0.31850669  0.33362353  1
  Na  Na13  1  0.82120675  0.31330252  0.33373467  1
  Na  Na14  1  0.17209454  0.68094549  0.16002614  1
  Na  Na15  1  0.66242403  0.65376677  0.16835532  1
  Na  Na16  1  0.16471394  0.67441456  0.67048713  1
  Na  Na17  1  0.66559569  0.66250871  0.66637767  1
  Hf  Hf0  1  0.50649800  0.01238331  0.64879646  1
  Hf  Hf1  1  0.00466541  0.98965271  0.14502739  1
  Hf  Hf2  1  0.33422063  0.32583871  0.69049670  1
  Hf  Hf3  1  0.82843648  0.34294511  0.68630101  1
  Hf  Hf4  1  0.32943176  0.31431081  0.18597622  1
  Hf  Hf5  1  0.82965104  0.34088086  0.18735487  1
  Hf  Hf6  1  0.66303524  0.67111234  0.01880815  1
  Hf  Hf7  1  0.16529941  0.65613720  0.52107209  1
  Hf  Hf8  1  0.17570777  0.67645992  0.31589061  1
  Hf  Hf9  1  0.66703269  0.67529855  0.31045907  1
  Hf  Hf10  1  0.16807393  0.65910398  0.81044188  1
  Hf  Hf11  1  0.67052655  0.67597984  0.81390171  1
  Nb  Nb0  1  0.00037572  0.99775636  0.35568499  1
  Nb  Nb1  1  0.50437991  0.00978823  0.35656993  1
  Nb  Nb2  1  0.00299559  0.99800903  0.85583641  1
  Nb  Nb3  1  0.49934034  0.98545254  0.85101483  1
  Nb  Nb4  1  0.00626920  0.99698206  0.64054234  1
  Nb  Nb5  1  0.50620602  0.01549668  0.13955782  1
  Nb  Nb6  1  0.33447117  0.34707890  0.98576624  1
  Nb  Nb7  1  0.83204332  0.34351091  0.97335749  1
  Nb  Nb8  1  0.33271616  0.32277932  0.47510622  1
  Nb  Nb9  1  0.83337376  0.32017368  0.48682503  1
  Nb  Nb10  1  0.16882664  0.65264384  0.02229856  1
  Nb  Nb11  1  0.66814848  0.68422520  0.52365832  1
  Si  Si0  1  0.14750090  0.00116384  0.25213915  1
  Si  Si1  1  0.64413767  0.00366060  0.24831687  1
  Si  Si2  1  0.85417892  0.71262737  0.24890261  1
  Si  Si3  1  0.49889025  0.28757618  0.25024284  1
  Si  Si4  1  0.14328938  0.28366248  0.74837495  1
  Si  Si5  1  0.64747383  0.29148219  0.75298432  1
  Si  Si6  1  0.99888753  0.70922762  0.75033334  1
  Si  Si7  1  0.50139323  0.70798404  0.74734868  1
  Si  Si8  1  0.35481596  0.99396399  0.74904834  1
  Si  Si9  1  0.47918419  0.33527165  0.58291189  1
  Si  Si10  1  0.97966127  0.33369210  0.58934327  1
  Si  Si11  1  0.19174293  0.04572024  0.58211666  1
  Si  Si12  1  0.68522379  0.04473427  0.58652001  1
  Si  Si13  1  0.83291929  0.62423540  0.58052293  1
  Si  Si14  1  0.47998158  0.62480389  0.08908978  1
  Si  Si15  1  0.97888517  0.61625929  0.08317092  1
  Si  Si16  1  0.33239376  0.04126964  0.08047840  1
  Si  Si17  1  0.18707896  0.32870786  0.08620419  1
  Si  Si18  1  0.69038689  0.33867034  0.08092892  1
  Si  Si19  1  0.31327457  0.66734001  0.91600817  1
  Si  Si20  1  0.81253170  0.67544764  0.91795979  1
  Si  Si21  1  0.02266913  0.37763494  0.91522801  1
  Si  Si22  1  0.66503765  0.96138041  0.91656235  1
  Si  Si23  1  0.31445275  0.95489826  0.41909596  1
  Si  Si24  1  0.81097274  0.95945980  0.41590268  1
  Si  Si25  1  0.16684017  0.37392228  0.41607044  1
  Si  Si26  1  0.52262463  0.66675085  0.41534933  1
  S  S0  1  0.35719904  0.71604966  0.25003188  1
  S  S1  1  0.00071440  0.28749397  0.25055651  1
  S  S2  1  0.85765328  0.99856331  0.74991090  1
  S  S3  1  0.33343910  0.62004384  0.58280427  1
  S  S4  1  0.83341499  0.04675778  0.08331290  1
  S  S5  1  0.51919695  0.37382525  0.91647322  1
  S  S6  1  0.16918498  0.95840743  0.91718207  1
  S  S7  1  0.66947522  0.38038633  0.41701995  1
  S  S8  1  0.01983987  0.66311245  0.41567648  1
  O  O0  1  0.09438674  0.01715752  0.30887970  1
  O  O1  1  0.59433202  0.02343747  0.30625787  1
  O  O2  1  0.40877845  0.79775133  0.30343052  1
  O  O3  1  0.91956746  0.81717716  0.30441789  1
  O  O4  1  0.48830552  0.16552059  0.30778120  1
  O  O5  1  0.99008047  0.18476239  0.30380485  1
  O  O6  1  0.09207077  0.16479140  0.80631135  1
  O  O7  1  0.59527076  0.16831134  0.80924650  1
  O  O8  1  0.48865202  0.80142909  0.80682095  1
  O  O9  1  0.98811118  0.81044935  0.80786158  1
  O  O10  1  0.41861243  0.02360460  0.80535395  1
  O  O11  1  0.91023932  0.02177133  0.80342103  1
  O  O12  1  0.39638363  0.97112886  0.68866426  1
  O  O13  1  0.89627907  0.97403691  0.69722133  1
  O  O14  1  0.07905113  0.18680603  0.69250565  1
  O  O15  1  0.58649652  0.20993288  0.69515567  1
  O  O16  1  0.00657730  0.82901068  0.69310273  1
  O  O17  1  0.51558397  0.82905279  0.69165664  1
  O  O18  1  0.39447547  0.81711542  0.19731894  1
  O  O19  1  0.89776933  0.82373319  0.18980169  1
  O  O20  1  0.01303883  0.20876209  0.19806576  1
  O  O21  1  0.50652555  0.18340233  0.19312254  1
  O  O22  1  0.08518115  0.96594655  0.19536495  1
  O  O23  1  0.58096230  0.97467367  0.19242412  1
  O  O24  1  0.44029529  0.36793635  0.64259544  1
  O  O25  1  0.93586761  0.35951737  0.64690615  1
  O  O26  1  0.25193491  0.13399687  0.63806537  1
  O  O27  1  0.74562734  0.13128207  0.64181462  1
  O  O28  1  0.32182802  0.51879842  0.63545042  1
  O  O29  1  0.81577289  0.50764226  0.63824799  1
  O  O30  1  0.43571740  0.51131099  0.14682797  1
  O  O31  1  0.93995449  0.50975137  0.14426315  1
  O  O32  1  0.31514217  0.12236775  0.13874283  1
  O  O33  1  0.82264404  0.12731081  0.13664577  1
  O  O34  1  0.24547644  0.36039502  0.14259845  1
  O  O35  1  0.75027613  0.36953810  0.13849127  1
  O  O36  1  0.23614497  0.30685840  0.02776713  1
  O  O37  1  0.73634899  0.30729100  0.02495233  1
  O  O38  1  0.41750789  0.52800709  0.03048850  1
  O  O39  1  0.91229740  0.51610579  0.02968711  1
  O  O40  1  0.34798941  0.16711994  0.02377928  1
  O  O41  1  0.84439772  0.14674661  0.03080178  1
  O  O42  1  0.23578324  0.16605948  0.52423602  1
  O  O43  1  0.73659694  0.16375315  0.52752554  1
  O  O44  1  0.34228642  0.53861521  0.52942146  1
  O  O45  1  0.84818761  0.52894745  0.52306796  1
  O  O46  1  0.41328095  0.31161700  0.52821065  1
  O  O47  1  0.91738590  0.30638501  0.53026947  1
  O  O48  1  0.26408027  0.68825611  0.97394268  1
  O  O49  1  0.77158355  0.69984395  0.97796288  1
  O  O50  1  0.08540136  0.47639242  0.97146333  1
  O  O51  1  0.57301825  0.46095254  0.96851869  1
  O  O52  1  0.15515501  0.85397730  0.96970836  1
  O  O53  1  0.65018279  0.84105561  0.97356740  1
  O  O54  1  0.27061329  0.84137659  0.47664935  1
  O  O55  1  0.76622731  0.84076984  0.47359018  1
  O  O56  1  0.14843335  0.46004927  0.47224617  1
  O  O57  1  0.65565105  0.45608575  0.46915613  1
  O  O58  1  0.07342522  0.68797492  0.46727460  1
  O  O59  1  0.58636019  0.69652667  0.47078613  1
  O  O60  1  0.06072388  0.64439808  0.36162334  1
  O  O61  1  0.56000658  0.62986078  0.35618069  1
  O  O62  1  0.25462606  0.86840569  0.36153153  1
  O  O63  1  0.75207683  0.87133070  0.35928928  1
  O  O64  1  0.17731839  0.48890037  0.35823437  1
  O  O65  1  0.67903036  0.47952951  0.36358297  1
  O  O66  1  0.05967550  0.48985509  0.85645689  1
  O  O67  1  0.55928302  0.47792013  0.86312283  1
  O  O68  1  0.17870502  0.87800183  0.86416134  1
  O  O69  1  0.67924621  0.87109802  0.85963410  1
  O  O70  1  0.25210529  0.63365051  0.86039165  1
  O  O71  1  0.75305077  0.64202138  0.86169028  1
  O  O72  1  0.01169961  0.82132460  0.41173368  1
  O  O73  1  0.51356499  0.84099385  0.40765462  1
  O  O74  1  0.40998160  0.97876728  0.40846787  1
  O  O75  1  0.90778579  0.98093495  0.40718872  1
  O  O76  1  0.08155098  0.18081989  0.40660967  1
  O  O77  1  0.59096746  0.20235482  0.41185205  1
  O  O78  1  0.01349019  0.18551339  0.90901109  1
  O  O79  1  0.51065190  0.20308074  0.91304088  1
  O  O80  1  0.09039412  0.97866697  0.91232312  1
  O  O81  1  0.58161781  0.98769630  0.91070966  1
  O  O82  1  0.40759756  0.83919226  0.91135174  1
  O  O83  1  0.90951900  0.84184417  0.90885838  1
  O  O84  1  0.48013644  0.15400519  0.58444532  1
  O  O85  1  0.98502193  0.15716560  0.59140717  1
  O  O86  1  0.09550295  0.02466648  0.58813134  1
  O  O87  1  0.59145371  0.02370699  0.58505200  1
  O  O88  1  0.40860090  0.79569933  0.58621727  1
  O  O89  1  0.91787945  0.81363378  0.58864716  1
  O  O90  1  0.48520872  0.81217796  0.09246478  1
  O  O91  1  0.98085061  0.80325199  0.08667825  1
  O  O92  1  0.41728777  0.02128763  0.08965480  1
  O  O93  1  0.90991030  0.02350636  0.08920201  1
  O  O94  1  0.09106990  0.16451901  0.08812990  1
  O  O95  1  0.59525226  0.16732072  0.08776326  1
  O  O96  1  0.35291881  0.17522666  0.74673196  1
  O  O97  1  0.85129787  0.15676306  0.74717071  1
  O  O98  1  0.23646442  0.30304646  0.74378337  1
  O  O99  1  0.73985121  0.30299882  0.74920415  1
  O  O100  1  0.41624460  0.51948671  0.74577620  1
  O  O101  1  0.91604691  0.51702181  0.74744432  1
  O  O102  1  0.34965861  0.54420572  0.24733625  1
  O  O103  1  0.85559707  0.52920774  0.24693646  1
  O  O104  1  0.41612264  0.31532367  0.24763530  1
  O  O105  1  0.92306561  0.30569493  0.24662237  1
  O  O106  1  0.23970929  0.17113823  0.24939480  1
  O  O107  1  0.73967829  0.16932443  0.24397784  1
  O  O108  1  0.32477675  0.49501667  0.92567171  1
  O  O109  1  0.82562642  0.50484782  0.92266103  1
  O  O110  1  0.43341346  0.35957470  0.92223608  1
  O  O111  1  0.92715938  0.34972033  0.92924665  1
  O  O112  1  0.24492763  0.13315964  0.92225100  1
  O  O113  1  0.75241804  0.14924421  0.92534480  1
  O  O114  1  0.32549340  0.14811336  0.42249535  1
  O  O115  1  0.82541668  0.15691236  0.42407688  1
  O  O116  1  0.25200220  0.35623390  0.42363041  1
  O  O117  1  0.74542738  0.35666346  0.42131529  1
  O  O118  1  0.42652919  0.50538159  0.42824038  1
  O  O119  1  0.93411096  0.51123411  0.42005067  1
  O  O120  1  0.17905721  0.50240196  0.07715126  1
  O  O121  1  0.68321277  0.51084189  0.07591519  1
  O  O122  1  0.07492331  0.64767653  0.07273983  1
  O  O123  1  0.57358195  0.64527087  0.07858429  1
  O  O124  1  0.24786910  0.85355912  0.07088851  1
  O  O125  1  0.75672325  0.86996769  0.07980777  1
  O  O126  1  0.18291226  0.85708581  0.57472829  1
  O  O127  1  0.67849939  0.85595629  0.57698401  1
  O  O128  1  0.25543319  0.64163045  0.57853085  1
  O  O129  1  0.74832670  0.64223368  0.56985145  1
  O  O130  1  0.07268063  0.50124283  0.57764914  1
  O  O131  1  0.57470320  0.50015313  0.57031697  1
  O  O132  1  0.14837090  0.81855095  0.25771139  1
  O  O133  1  0.64650219  0.82471688  0.25319337  1
  O  O134  1  0.26901364  0.69433690  0.25580309  1
  O  O135  1  0.75967476  0.68353092  0.25700458  1
  O  O136  1  0.07584850  0.46462468  0.25646620  1
  O  O137  1  0.58423906  0.47454242  0.25472274  1
  O  O138  1  0.14517718  0.46688950  0.75336744  1
  O  O139  1  0.65308869  0.47806677  0.75956193  1
  O  O140  1  0.08455279  0.69440594  0.75489205  1
  O  O141  1  0.58385085  0.68068115  0.75595854  1
  O  O142  1  0.26016987  0.83089360  0.75726667  1
  O  O143  1  0.77112192  0.84557147  0.75570425  1
loop_
_geom_bond_atom_site_label_1
_geom_bond_atom_site_label_2
_geom_bond_distance
_geom_bond_site_symmetry_2
Na0 O103 2.302734 1_455
Na0 O132 2.321402 1_555
Na0 O31 2.582458 1_455
Na0 O136 2.587632 1_555
Na0 O105 2.659933 1_455
Na0 O22 2.729273 1_555
Na0 O60 2.891574 1_555
Na0 O3 2.947247 1_455
Na1 O133 2.342083 1_555
Na1 O104 2.412647 1_555
Na1 O102 2.435804 1_555
Na1 O137 2.482653 1_555
Na1 O30 2.563350 1_555
Na1 O61 2.698469 1_555
Na2 O138 2.326691 1_655
Na2 O101 2.406443 1_555
Na2 O97 2.408220 1_555
Na2 O140 2.488478 1_655
Na2 O25 2.563878 1_555
Na2 O66 2.696730 1_655
Na3 O96 2.365428 1_555
Na3 O139 2.396650 1_555
Na3 O141 2.476302 1_555
Na3 O100 2.553013 1_555
Na3 O24 2.637578 1_555
Na3 O15 2.769432 1_555
Na3 O67 2.865497 1_555
Na3 O10 2.976838 1_555
Na4 O84 2.309092 1_565
Na4 O126 2.394757 1_555
Na4 O88 2.561858 1_555
Na4 O12 2.587541 1_555
Na4 O128 2.604350 1_555
Na4 O26 2.767111 1_565
Na4 O54 2.797352 1_555
Na4 O46 2.955180 1_565
Na5 O91 2.349647 1_555
Na5 O121 2.351053 1_555
Na5 O125 2.568181 1_555
Na5 O93 2.594907 1_565
Na5 O49 2.625791 1_554
Na5 O19 2.756402 1_555
Na5 O35 2.829237 1_555
Na5 O39 2.865801 1_555
Na6 O85 2.493855 1_555
Na6 O89 2.545253 1_545
Na6 O86 2.589738 1_655
Na6 O75 2.664230 1_545
Na6 O76 2.687026 1_655
Na6 O72 2.776108 1_645
Na7 O87 2.372437 1_555
Na7 O84 2.472417 1_555
Na7 O88 2.613162 1_545
Na7 O73 2.675884 1_545
Na7 O77 2.697371 1_555
Na7 O74 2.721780 1_545
Na8 O94 2.524708 1_556
Na8 O78 2.544494 1_555
Na8 O80 2.610678 1_545
Na8 O91 2.629485 1_446
Na8 O83 2.631471 1_445
Na8 O93 2.724388 1_456
Na9 O82 2.470114 1_555
Na9 O81 2.474859 1_555
Na9 O90 2.647041 1_556
Na9 O79 2.648243 1_565
Na9 O92 2.681892 1_566
Na9 O95 2.687770 1_566
Na10 O98 2.488153 1_555
Na10 O100 2.504743 1_555
Na10 O96 2.574953 1_555
Na10 O108 2.623217 1_555
Na10 O112 2.720990 1_555
Na10 O110 2.790109 1_555
Na11 O99 2.370983 1_555
Na11 O101 2.512015 1_555
Na11 O109 2.571143 1_555
Na11 O113 2.649855 1_555
Na11 O97 2.706124 1_555
Na11 O111 2.850825 1_555
Na12 O106 2.440396 1_555
Na12 O104 2.526248 1_555
Na12 O114 2.528785 1_555
Na12 O116 2.599338 1_555
Na12 O102 2.721226 1_555
Na12 O118 2.770924 1_555
Na13 O107 2.485332 1_555
Na13 O115 2.523865 1_555
Na13 O117 2.562336 1_555
Na13 O103 2.626996 1_555
Na13 O105 2.733850 1_555
Na13 O119 2.760828 1_555
Na14 O124 2.515384 1_555
Na14 O120 2.528066 1_555
Na14 O122 2.577501 1_555
Na14 O132 2.691091 1_555
Na14 O134 2.771491 1_555
Na14 O136 2.881816 1_555
Na15 O137 2.495966 1_555
Na15 O133 2.579499 1_555
Na15 O123 2.585798 1_555
Na15 O121 2.597992 1_555
Na15 O135 2.609827 1_555
Na15 O125 2.735728 1_555
Na16 O140 2.471909 1_555
Na16 O142 2.547633 1_555
Na16 O138 2.559244 1_555
Na16 O126 2.660148 1_555
Na16 O130 2.671353 1_555
Na16 O128 2.769306 1_555
Na17 O141 2.577086 1_555
Na17 O127 2.620113 1_555
Na17 O139 2.642169 1_555
Na17 O131 2.699173 1_555
Na17 O143 2.721564 1_555
Na17 O129 2.722012 1_555
Hf0 O15 1.952737 1_555
Hf0 O17 1.992651 1_545
Hf0 O12 2.043045 1_545
Hf0 O87 2.080219 1_555
Hf0 O84 2.149489 1_555
Hf0 O88 2.354901 1_545
Hf1 O22 1.947406 1_555
Hf1 O91 2.014917 1_455
Hf1 O19 2.030766 1_455
Hf1 O94 2.037988 1_565
Hf1 O20 2.252976 1_565
Hf1 O93 2.272954 1_465
Hf2 O96 2.014431 1_555
Hf2 O26 2.018128 1_555
Hf2 O100 2.064097 1_555
Hf2 O98 2.066969 1_555
Hf2 O24 2.068324 1_555
Hf2 O28 2.242655 1_555
Hf3 O29 1.946432 1_555
Hf3 O27 2.015113 1_555
Hf3 O99 2.044360 1_555
Hf3 O25 2.072312 1_555
Hf3 O101 2.109256 1_555
Hf3 O97 2.365904 1_555
Hf4 O32 1.940994 1_555
Hf4 O34 2.018633 1_555
Hf4 O30 2.056379 1_555
Hf4 O106 2.075027 1_555
Hf4 O104 2.104272 1_555
Hf4 O102 2.371449 1_555
Hf5 O35 1.932885 1_555
Hf5 O103 2.038869 1_555
Hf5 O107 2.048479 1_555
Hf5 O31 2.055005 1_555
Hf5 O33 2.191647 1_555
Hf5 O105 2.304945 1_555
Hf6 O53 1.951880 1_554
Hf6 O123 2.037425 1_555
Hf6 O49 2.064636 1_554
Hf6 O121 2.106659 1_555
Hf6 O51 2.116557 1_554
Hf6 O125 2.235865 1_555
Hf7 O56 1.978080 1_555
Hf7 O130 2.021622 1_555
Hf7 O54 2.064096 1_555
Hf7 O126 2.073495 1_555
Hf7 O128 2.145791 1_555
Hf7 O58 2.195095 1_555
Hf8 O62 1.911066 1_555
Hf8 O64 1.956588 1_555
Hf8 O132 2.067655 1_555
Hf8 O134 2.115329 1_555
Hf8 O60 2.208207 1_555
Hf8 O136 2.304628 1_555
Hf9 O63 2.004916 1_555
Hf9 O133 2.038235 1_555
Hf9 O135 2.040889 1_555
Hf9 O61 2.048526 1_555
Hf9 O137 2.106118 1_555
Hf9 O65 2.235707 1_555
Hf10 O70 2.000996 1_555
Hf10 O142 2.016833 1_555
Hf10 O138 2.037713 1_555
Hf10 O66 2.068761 1_555
Hf10 O140 2.113158 1_555
Hf10 O68 2.245302 1_555
Hf11 O69 1.979666 1_555
Hf11 O71 1.989698 1_555
Hf11 O139 2.062204 1_555
Hf11 O141 2.067588 1_555
Hf11 O143 2.152269 1_555
Hf11 O67 2.214177 1_555
Nb0 O0 1.937230 1_565
Nb0 O3 1.945493 1_455
Nb0 O76 1.953353 1_565
Nb0 O75 1.986002 1_455
Nb0 O72 2.126957 1_555
Nb0 O5 2.139783 1_465
Nb1 O4 1.921865 1_555
Nb1 O1 1.941557 1_555
Nb1 O74 1.977227 1_545
Nb1 O73 1.986357 1_545
Nb1 O77 2.085649 1_555
Nb1 O2 2.194954 1_545
Nb2 O9 1.915244 1_455
Nb2 O6 1.926693 1_565
Nb2 O83 1.981383 1_455
Nb2 O78 2.009691 1_565
Nb2 O80 2.112624 1_555
Nb2 O11 2.154505 1_465
Nb3 O8 1.864665 1_555
Nb3 O7 1.942588 1_565
Nb3 O10 1.956551 1_565
Nb3 O81 2.011200 1_555
Nb3 O82 2.050523 1_555
Nb3 O79 2.341933 1_565
Nb4 O86 1.920325 1_565
Nb4 O16 1.932480 1_555
Nb4 O14 1.955270 1_565
Nb4 O85 2.008152 1_465
Nb4 O89 2.014317 1_455
Nb4 O13 2.290324 1_455
Nb5 O95 1.913590 1_555
Nb5 O21 1.941875 1_555
Nb5 O23 1.977875 1_545
Nb5 O90 1.988609 1_545
Nb5 O92 1.991292 1_555
Nb5 O18 2.324982 1_545
Nb6 O38 1.874585 1_556
Nb6 O36 1.885685 1_556
Nb6 O40 1.955040 1_556
Nb6 O108 1.980723 1_555
Nb6 O110 2.259552 1_555
Nb6 O112 2.309500 1_555
Nb7 O109 1.905047 1_555
Nb7 O113 1.956036 1_555
Nb7 O111 1.965607 1_555
Nb7 O37 1.978528 1_556
Nb7 O39 1.983462 1_556
Nb7 O41 2.301484 1_556
Nb8 O114 1.930618 1_555
Nb8 O46 1.935879 1_555
Nb8 O42 1.962018 1_555
Nb8 O118 1.984604 1_555
Nb8 O116 2.009005 1_555
Nb8 O44 2.236718 1_555
Nb9 O43 1.855799 1_555
Nb9 O47 1.867792 1_555
Nb9 O45 1.943782 1_555
Nb9 O115 2.006998 1_555
Nb9 O117 2.322679 1_555
Nb9 O119 2.340061 1_555
Nb10 O120 1.918943 1_555
Nb10 O48 1.930281 1_554
Nb10 O50 1.938813 1_554
Nb10 O124 1.992695 1_555
Nb10 O122 2.030201 1_555
Nb10 O52 2.286049 1_554
Nb11 O127 1.902632 1_555
Nb11 O59 1.954129 1_555
Nb11 O129 1.973843 1_555
Nb11 O131 1.984519 1_555
Nb11 O55 1.985005 1_555
Nb11 O57 2.312740 1_555
O0 Si0 1.661538 1_555
O1 Si1 1.659890 1_555
O2 S0 1.491116 1_555
O3 Si2 1.670598 1_555
O4 Si3 1.663599 1_555
O5 S1 1.483296 1_655
O6 Si4 1.664600 1_555
O7 Si5 1.653051 1_555
O8 Si7 1.674632 1_555
O9 Si6 1.666172 1_555
O10 Si8 1.660156 1_545
O11 S2 1.500332 1_545
O12 Si8 1.633289 1_555
O13 S2 1.463183 1_555
O14 Si4 1.654421 1_555
O15 Si5 1.643863 1_555
O16 Si6 1.657520 1_455
O17 Si7 1.612043 1_555
O18 S0 1.457920 1_555
O19 Si2 1.632293 1_555
O20 S1 1.466648 1_555
O21 Si3 1.653576 1_555
O22 Si0 1.644277 1_565
O23 Si1 1.647013 1_565
O24 Si9 1.627676 1_555
O25 Si10 1.611100 1_555
O26 Si11 1.611267 1_555
O27 Si12 1.598649 1_555
O28 S3 1.461461 1_555
O29 Si13 1.618201 1_555
O30 Si14 1.616854 1_555
O31 Si15 1.642196 1_555
O32 Si16 1.622721 1_555
O33 S4 1.480917 1_555
O34 Si17 1.601074 1_555
O35 Si18 1.639188 1_555
O36 Si17 1.668166 1_555
O37 Si18 1.624800 1_555
O38 Si14 1.689943 1_555
O39 Si15 1.637185 1_555
O40 Si16 1.651498 1_555
O41 S4 1.454614 1_555
O42 Si11 1.643510 1_555
O43 Si12 1.685108 1_555
O44 S3 1.473600 1_555
O45 Si13 1.665543 1_555
O46 Si9 1.667071 1_555
O47 Si10 1.697508 1_555
O48 Si19 1.657115 1_555
O49 Si20 1.625104 1_555
O50 Si21 1.652498 1_555
O51 S5 1.490866 1_555
O52 S6 1.468155 1_555
O53 Si22 1.630009 1_555
O54 Si23 1.612140 1_555
O55 Si24 1.635888 1_555
O56 Si25 1.618299 1_555
O57 S7 1.455591 1_555
O58 S8 1.472518 1_555
O59 Si26 1.643814 1_555
O60 S8 1.491932 1_555
O61 Si26 1.619006 1_555
O62 Si23 1.635704 1_555
O63 Si24 1.613386 1_555
O64 Si25 1.632050 1_555
O65 S7 1.472632 1_555
O66 Si21 1.613453 1_555
O67 S5 1.488728 1_555
O68 S6 1.465999 1_555
O69 Si22 1.621643 1_555
O70 Si19 1.613117 1_555
O71 Si20 1.607651 1_555
O72 S8 1.501923 1_555
O73 Si26 1.661479 1_555
O74 Si23 1.643477 1_555
O75 Si24 1.669010 1_555
O76 Si25 1.663147 1_555
O77 S7 1.523870 1_555
O78 Si21 1.655450 1_555
O79 S5 1.464988 1_555
O80 S6 1.522857 1_555
O81 Si22 1.639463 1_555
O82 Si19 1.634840 1_555
O83 Si20 1.653053 1_555
O84 Si9 1.636829 1_555
O85 Si10 1.636168 1_555
O86 Si11 1.654122 1_555
O87 Si12 1.604752 1_555
O88 S3 1.484595 1_555
O89 Si13 1.637697 1_555
O90 Si14 1.639702 1_555
O91 Si15 1.663871 1_555
O92 Si16 1.640418 1_555
O93 S4 1.499686 1_555
O94 Si17 1.622295 1_555
O95 Si18 1.645271 1_555
O96 Si8 1.645946 1_545
O97 S2 1.482342 1_545
O98 Si4 1.603055 1_555
O99 Si5 1.618057 1_555
O100 Si7 1.624117 1_555
O101 Si6 1.627714 1_555
O102 S0 1.481629 1_555
O103 Si2 1.660646 1_555
O104 Si3 1.631104 1_555
O105 S1 1.490260 1_655
O106 Si0 1.603730 1_555
O107 Si1 1.624609 1_555
O108 Si19 1.675150 1_555
O109 Si20 1.665600 1_555
O110 S5 1.492149 1_555
O111 Si21 1.642604 1_655
O112 S6 1.486284 1_545
O113 Si22 1.650616 1_545
O114 Si23 1.647112 1_545
O115 Si24 1.669727 1_545
O116 Si25 1.629074 1_555
O117 S7 1.489643 1_555
O118 Si26 1.639773 1_555
O119 S8 1.469972 1_655
O120 Si17 1.649692 1_555
O121 Si18 1.618479 1_555
O122 Si15 1.626511 1_455
O123 Si14 1.621031 1_555
O124 Si16 1.629948 1_565
O125 S4 1.501599 1_565
O126 Si11 1.629568 1_565
O127 Si12 1.652904 1_565
O128 S3 1.514875 1_555
O129 Si13 1.629730 1_555
O130 Si10 1.623556 1_455
O131 Si9 1.643908 1_555
O132 Si0 1.652745 1_565
O133 Si1 1.632443 1_565
O134 S0 1.507465 1_555
O135 Si2 1.599975 1_555
O136 S1 1.496652 1_555
O137 Si3 1.620773 1_555
O138 Si4 1.632800 1_555
O139 Si5 1.634601 1_555
O140 Si6 1.617663 1_455
O141 Si7 1.634152 1_555
O142 Si8 1.613678 1_555
O143 S2 1.485064 1_555
