# generated using pymatgen
data_Na21Nb2Zn10P15(SO24)3
_symmetry_space_group_name_H-M   'P 1'
_cell_length_a   9.04641926
_cell_length_b   9.06614499
_cell_length_c   21.97204169
_cell_angle_alpha   89.63345396
_cell_angle_beta   89.77720693
_cell_angle_gamma   120.04571314
_symmetry_Int_Tables_number   1
_chemical_formula_structural   Na21Nb2Zn10P15(SO24)3
_chemical_formula_sum   'Na21 Nb2 Zn10 P15 S3 O72'
_cell_volume   1559.82802737
_cell_formula_units_Z   1
loop_
 _symmetry_equiv_pos_site_id
 _symmetry_equiv_pos_as_xyz
  1  'x, y, z'
loop_
 _atom_site_type_symbol
 _atom_site_label
 _atom_site_symmetry_multiplicity
 _atom_site_fract_x
 _atom_site_fract_y
 _atom_site_fract_z
 _atom_site_occupancy
  Na  Na0  1  0.36520240  0.35325436  0.24690025  1
  Na  Na1  1  0.98366374  0.35187133  0.74105419  1
  Na  Na2  1  0.36727989  0.01407792  0.74131900  1
  Na  Na3  1  0.29283677  0.32685049  0.58019264  1
  Na  Na4  1  0.04131771  0.70132026  0.58348862  1
  Na  Na5  1  0.66722295  0.97413744  0.58215971  1
  Na  Na6  1  0.29793905  0.97427564  0.08653555  1
  Na  Na7  1  0.66163451  0.69446991  0.08961054  1
  Na  Na8  1  0.04142412  0.33105650  0.08768993  1
  Na  Na9  1  0.96187093  0.66968321  0.91422994  1
  Na  Na10  1  0.70918516  0.03934440  0.91478493  1
  Na  Na11  1  0.32954236  0.28926695  0.91778906  1
  Na  Na12  1  0.96062810  0.29110450  0.41640409  1
  Na  Na13  1  0.33038376  0.04094365  0.41708459  1
  Na  Na14  1  0.70774779  0.66830625  0.41349717  1
  Na  Na15  1  0.00571999  0.00670571  0.49826870  1
  Na  Na16  1  0.00744354  0.00642776  0.99937807  1
  Na  Na17  1  0.66557939  0.34442362  0.82832918  1
  Na  Na18  1  0.67828196  0.33312093  0.32894882  1
  Na  Na19  1  0.33263673  0.67047403  0.16600232  1
  Na  Na20  1  0.33701505  0.66643907  0.65707653  1
  Nb  Nb0  1  0.33317156  0.66995371  0.31348859  1
  Nb  Nb1  1  0.33583136  0.66642947  0.81410484  1
  Zn  Zn0  1  0.99562544  0.99859809  0.34313532  1
  Zn  Zn1  1  0.99946221  0.99646993  0.84364528  1
  Zn  Zn2  1  0.00729298  0.00801276  0.65536586  1
  Zn  Zn3  1  0.00620282  0.00653120  0.16644093  1
  Zn  Zn4  1  0.66699066  0.33127229  0.68015427  1
  Zn  Zn5  1  0.66652048  0.33666166  0.18778467  1
  Zn  Zn6  1  0.65792691  0.33088778  0.98357588  1
  Zn  Zn7  1  0.66453326  0.32174078  0.48470266  1
  Zn  Zn8  1  0.33366671  0.65734711  0.01080032  1
  Zn  Zn9  1  0.32530385  0.66625502  0.51184684  1
  P  P0  1  0.29809571  0.00036935  0.25006208  1
  P  P1  1  0.70361848  0.70303773  0.25033380  1
  P  P2  1  0.99680307  0.29986202  0.25090216  1
  P  P3  1  0.30081144  0.29843755  0.75167682  1
  P  P4  1  0.99604322  0.70046161  0.75193567  1
  P  P5  1  0.70535249  0.99979263  0.75095116  1
  P  P6  1  0.96522577  0.33261401  0.58354934  1
  P  P7  1  0.36693237  0.03497596  0.58415529  1
  P  P8  1  0.36746471  0.33258325  0.08291684  1
  P  P9  1  0.63257940  0.67061234  0.91920034  1
  P  P10  1  0.03472677  0.36820605  0.91903474  1
  P  P11  1  0.33221878  0.95912253  0.91948492  1
  P  P12  1  0.62872380  0.95844445  0.41891272  1
  P  P13  1  0.33374889  0.37180242  0.41872011  1
  P  P14  1  0.03581600  0.66884773  0.41852596  1
  S  S0  1  0.66808631  0.62898563  0.58272940  1
  S  S1  1  0.96199749  0.62876362  0.08125998  1
  S  S2  1  0.66734331  0.03826052  0.08182665  1
  O  O0  1  0.21229444  0.02556198  0.30615033  1
  O  O1  1  0.80477668  0.78570635  0.30756402  1
  O  O2  1  0.97949719  0.19717124  0.30859398  1
  O  O3  1  0.21940836  0.19188170  0.80971110  1
  O  O4  1  0.97914188  0.78032721  0.81077116  1
  O  O5  1  0.81032931  0.02518806  0.80850861  1
  O  O6  1  0.77940079  0.96820080  0.69314980  1
  O  O7  1  0.18570706  0.23078418  0.69531253  1
  O  O8  1  0.03917239  0.81550948  0.69524898  1
  O  O9  1  0.77813996  0.80791070  0.19124193  1
  O  O10  1  0.04295072  0.23217831  0.19324472  1
  O  O11  1  0.19360121  0.96370260  0.19109539  1
  O  O12  1  0.88396880  0.36127847  0.64122407  1
  O  O13  1  0.47432496  0.11736706  0.64173400  1
  O  O14  1  0.64365136  0.52083963  0.63651401  1
  O  O15  1  0.87428047  0.51713186  0.13425718  1
  O  O16  1  0.64711017  0.12721320  0.13446323  1
  O  O17  1  0.48069286  0.35848498  0.13878510  1
  O  O18  1  0.44714358  0.30618372  0.02364401  1
  O  O19  1  0.86576623  0.55159720  0.02390780  1
  O  O20  1  0.69256313  0.13785922  0.02409061  1
  O  O21  1  0.44847481  0.14676688  0.52641377  1
  O  O22  1  0.69065801  0.55278501  0.52599958  1
  O  O23  1  0.85741872  0.30924635  0.52593166  1
  O  O24  1  0.55624807  0.69883612  0.97721369  1
  O  O25  1  0.14099703  0.44729595  0.97612795  1
  O  O26  1  0.30746497  0.85102929  0.97653781  1
  O  O27  1  0.54987856  0.85349555  0.47725902  1
  O  O28  1  0.30806702  0.45334243  0.47586126  1
  O  O29  1  0.13972969  0.69796715  0.47678907  1
  O  O30  1  0.14374881  0.65086104  0.36436935  1
  O  O31  1  0.50602109  0.85168303  0.36464051  1
  O  O32  1  0.34973262  0.48956452  0.36194208  1
  O  O33  1  0.13749853  0.48906147  0.86266529  1
  O  O34  1  0.34801977  0.85721831  0.86306785  1
  O  O35  1  0.50666039  0.65223567  0.86516545  1
  O  O36  1  0.01853547  0.82788300  0.40987728  1
  O  O37  1  0.80673717  0.97813272  0.41115134  1
  O  O38  1  0.17420476  0.19417663  0.41223804  1
  O  O39  1  0.01747771  0.19171543  0.91170511  1
  O  O40  1  0.17341714  0.97837833  0.91284437  1
  O  O41  1  0.80970555  0.82912483  0.91065316  1
  O  O42  1  0.97922619  0.16789690  0.58759987  1
  O  O43  1  0.18443187  0.01315562  0.58819179  1
  O  O44  1  0.82312625  0.80169625  0.58735861  1
  O  O45  1  0.97670805  0.79945620  0.08572982  1
  O  O46  1  0.81986283  0.01673905  0.08638517  1
  O  O47  1  0.18611784  0.17051685  0.08749849  1
  O  O48  1  0.67445901  0.15260929  0.74748160  1
  O  O49  1  0.47801263  0.31877123  0.74466527  1
  O  O50  1  0.85048865  0.51641716  0.74700680  1
  O  O51  1  0.66457112  0.51718760  0.24730563  1
  O  O52  1  0.84560728  0.32813398  0.24416380  1
  O  O53  1  0.47672152  0.15908457  0.24552173  1
  O  O54  1  0.63790896  0.50315512  0.91675884  1
  O  O55  1  0.86101715  0.36243948  0.91789451  1
  O  O56  1  0.50002880  0.13292256  0.91666771  1
  O  O57  1  0.63389290  0.13124418  0.41591320  1
  O  O58  1  0.50149091  0.36588276  0.41702111  1
  O  O59  1  0.86297282  0.50097043  0.41695414  1
  O  O60  1  0.34999157  0.49659190  0.07986901  1
  O  O61  1  0.13768652  0.65073664  0.07932891  1
  O  O62  1  0.50926204  0.86615044  0.07961806  1
  O  O63  1  0.35315989  0.85652825  0.58037334  1
  O  O64  1  0.51327430  0.64827096  0.58005027  1
  O  O65  1  0.14820633  0.49274790  0.58007609  1
  O  O66  1  0.31755588  0.83649179  0.25865612  1
  O  O67  1  0.51639559  0.68395727  0.25666478  1
  O  O68  1  0.16933658  0.48245332  0.25796764  1
  O  O69  1  0.31520723  0.48090950  0.76025502  1
  O  O70  1  0.16876705  0.68587779  0.75860915  1
  O  O71  1  0.51782265  0.83583422  0.75878008  1
loop_
_geom_bond_atom_site_label_1
_geom_bond_atom_site_label_2
_geom_bond_distance
_geom_bond_site_symmetry_2
Na0 O51 2.348011 1_555
Na0 O53 2.428260 1_555
Na0 O68 2.578637 1_555
Na0 O17 2.581956 1_555
Na0 O67 2.609604 1_555
Na0 O10 2.816409 1_555
Na0 O32 2.854206 1_555
Na0 O0 2.873289 1_555
Na1 O50 2.344144 1_555
Na1 O12 2.392070 1_555
Na1 O48 2.457899 1_555
Na1 O69 2.654204 1_655
Na1 O70 2.657961 1_655
Na1 O7 2.750474 1_655
Na2 O13 2.377312 1_555
Na2 O48 2.414131 1_555
Na2 O49 2.423192 1_555
Na2 O71 2.610216 1_545
Na2 O70 2.617695 1_545
Na2 O8 2.787751 1_545
Na3 O65 2.438161 1_555
Na3 O42 2.459961 1_455
Na3 O43 2.506060 1_555
Na3 O28 2.528790 1_555
Na3 O64 2.578582 1_555
Na3 O7 2.683889 1_555
Na3 O21 2.890999 1_555
Na4 O63 2.442385 1_555
Na4 O43 2.453385 1_565
Na4 O29 2.510287 1_555
Na4 O65 2.519635 1_555
Na4 O44 2.555363 1_455
Na4 O8 2.674770 1_555
Na5 O42 2.471230 1_565
Na5 O63 2.485634 1_555
Na5 O27 2.554266 1_555
Na5 O64 2.559689 1_555
Na5 O44 2.579395 1_555
Na5 O6 2.655588 1_555
Na5 O23 2.901362 1_565
Na5 O13 2.952604 1_565
Na6 O47 2.447791 1_565
Na6 O11 2.463298 1_555
Na6 O45 2.519068 1_455
Na6 O61 2.545621 1_555
Na6 O62 2.552442 1_555
Na6 O26 2.688230 1_554
Na6 O18 2.941309 1_565
Na6 O16 2.944130 1_565
Na7 O9 2.473320 1_555
Na7 O60 2.481392 1_555
Na7 O45 2.513510 1_555
Na7 O46 2.529643 1_565
Na7 O62 2.552906 1_555
Na7 O24 2.657856 1_554
Na7 O17 2.841936 1_555
Na8 O47 2.395753 1_555
Na8 O60 2.423182 1_555
Na8 O10 2.483704 1_555
Na8 O46 2.533895 1_455
Na8 O61 2.580039 1_555
Na8 O25 2.632446 1_554
Na9 O41 2.445930 1_555
Na9 O4 2.451369 1_555
Na9 O55 2.459600 1_555
Na9 O40 2.476091 1_655
Na9 O54 2.537389 1_555
Na9 O19 2.593842 1_556
Na10 O39 2.414626 1_655
Na10 O56 2.430823 1_555
Na10 O41 2.490907 1_545
Na10 O5 2.532040 1_555
Na10 O55 2.538892 1_555
Na10 O20 2.597589 1_556
Na11 O40 2.443285 1_545
Na11 O54 2.474822 1_555
Na11 O39 2.504796 1_555
Na11 O18 2.534824 1_556
Na11 O3 2.564313 1_555
Na11 O56 2.564701 1_555
Na12 O37 2.460150 1_545
Na12 O59 2.466614 1_555
Na12 O38 2.492687 1_655
Na12 O2 2.556144 1_555
Na12 O57 2.558897 1_555
Na12 O23 2.613738 1_555
Na13 O38 2.429457 1_555
Na13 O57 2.440873 1_555
Na13 O36 2.503091 1_545
Na13 O58 2.551116 1_555
Na13 O21 2.618266 1_555
Na13 O0 2.641453 1_555
Na14 O58 2.424511 1_555
Na14 O36 2.434675 1_655
Na14 O37 2.484671 1_555
Na14 O1 2.517494 1_555
Na14 O59 2.532161 1_555
Na14 O22 2.651961 1_555
Na15 O38 2.475353 1_555
Na15 O42 2.535627 1_455
Na15 O43 2.540189 1_555
Na15 O37 2.556863 1_445
Na15 O36 2.576916 1_545
Na15 O44 2.620828 1_445
Na16 O47 2.495564 1_556
Na16 O40 2.510066 1_545
Na16 O39 2.519027 1_555
Na16 O45 2.574110 1_446
Na16 O46 2.584361 1_456
Na16 O41 2.602308 1_445
Na17 O50 2.398222 1_555
Na17 O49 2.438653 1_555
Na17 O54 2.510281 1_555
Na17 O48 2.522792 1_555
Na17 O56 2.596383 1_555
Na17 O55 2.601404 1_555
Na18 O52 2.410683 1_555
Na18 O51 2.487741 1_555
Na18 O53 2.521206 1_555
Na18 O59 2.522504 1_555
Na18 O57 2.524967 1_555
Na18 O58 2.617206 1_555
Na19 O60 2.524909 1_555
Na19 O62 2.529349 1_555
Na19 O61 2.546268 1_555
Na19 O67 2.563588 1_555
Na19 O68 2.565583 1_555
Na19 O66 2.582864 1_555
Na20 O63 2.353838 1_555
Na20 O65 2.371218 1_555
Na20 O64 2.383168 1_555
Na20 O70 2.751676 1_555
Na20 O71 2.753983 1_555
Na20 O69 2.760994 1_555
Nb0 O31 1.969847 1_555
Nb0 O30 1.975297 1_555
Nb0 O66 1.985639 1_555
Nb0 O32 2.013661 1_555
Nb0 O68 2.022915 1_555
Nb0 O67 2.023237 1_555
Nb1 O35 1.968309 1_555
Nb1 O71 1.993871 1_555
Nb1 O69 1.994153 1_555
Nb1 O34 1.998804 1_555
Nb1 O33 2.004349 1_555
Nb1 O70 2.020018 1_555
O0 P0 1.532018 1_555
O0 Zn0 2.016754 1_445
O1 P1 1.521375 1_555
O1 Zn0 2.002457 1_555
O2 P2 1.528240 1_555
O2 Zn0 2.021076 1_545
O3 P3 1.538199 1_555
O3 Zn1 2.023670 1_445
O4 P4 1.529747 1_555
O4 Zn1 2.013432 1_555
O5 P5 1.532429 1_545
O5 Zn1 2.011228 1_545
O6 P5 1.527699 1_555
O6 Zn2 2.075435 1_665
O7 P3 1.540907 1_555
O7 Zn2 2.055216 1_555
O8 P4 1.537390 1_455
O8 Zn2 2.093670 1_565
O9 P1 1.542655 1_555
O9 Zn3 2.013591 1_665
O10 P2 1.555023 1_455
O10 Zn3 1.994584 1_555
O11 P0 1.543725 1_565
O11 Zn3 1.995452 1_565
O12 P6 1.549847 1_555
O12 Zn4 2.026771 1_555
O13 P7 1.548321 1_555
O13 Zn4 2.039355 1_555
O14 S0 1.474057 1_555
O14 Zn4 2.064365 1_555
O15 S1 1.477650 1_555
O15 Zn5 2.114598 1_555
O16 S2 1.476330 1_555
O16 Zn5 2.169191 1_555
O17 P8 1.543958 1_555
O17 Zn5 2.090140 1_555
O18 P8 1.562817 1_555
O18 Zn6 2.004496 1_554
O19 S1 1.498397 1_555
O19 Zn6 2.143034 1_554
O20 S2 1.501168 1_555
O20 Zn6 2.117674 1_554
O21 P7 1.551954 1_555
O21 Zn7 2.009798 1_555
O22 S0 1.490956 1_555
O22 Zn7 2.190235 1_555
O23 P6 1.550762 1_555
O23 Zn7 2.021664 1_555
O24 P9 1.530148 1_555
O24 Zn8 1.991727 1_556
O25 P10 1.530563 1_555
O25 Zn8 1.987449 1_556
O26 P11 1.531111 1_555
O26 Zn8 2.026708 1_556
O27 P12 1.534680 1_555
O27 Zn9 2.025980 1_555
O28 P13 1.535697 1_555
O28 Zn9 2.023513 1_555
O29 P14 1.535370 1_555
O29 Zn9 1.996213 1_555
O30 P14 1.596492 1_555
O31 P12 1.593789 1_555
O32 P13 1.595016 1_555
O33 P10 1.597660 1_555
O34 P11 1.598783 1_555
O35 P9 1.599351 1_555
O36 P14 1.536840 1_555
O36 Zn0 2.209853 1_455
O37 P12 1.537500 1_555
O37 Zn0 2.201542 1_555
O38 P13 1.540711 1_555
O38 Zn0 2.290034 1_445
O39 P10 1.537543 1_555
O39 Zn1 2.267827 1_445
O40 P11 1.538827 1_555
O40 Zn1 2.255877 1_455
O41 P9 1.535040 1_555
O41 Zn1 2.181747 1_555
O42 P6 1.562639 1_555
O42 Zn2 2.174047 1_655
O43 P7 1.563426 1_555
O43 Zn2 2.157413 1_555
O44 S0 1.494411 1_555
O44 Zn2 2.332758 1_665
O45 S1 1.489297 1_555
O45 Zn3 2.507047 1_665
O46 S2 1.490717 1_555
O46 Zn3 2.474150 1_655
O47 P8 1.563144 1_555
O47 Zn3 2.321615 1_555
O48 P5 1.545950 1_545
O48 Zn4 2.212771 1_555
O49 P3 1.526183 1_555
O49 Zn4 2.174786 1_555
O50 P4 1.527412 1_555
O50 Zn4 2.234060 1_555
O51 P1 1.540730 1_555
O51 Zn5 2.108425 1_555
O52 P2 1.520067 1_555
O52 Zn5 2.074857 1_555
O53 P0 1.536289 1_555
O53 Zn5 2.082832 1_555
O54 P9 1.544159 1_555
O54 Zn6 2.209819 1_555
O55 P10 1.546244 1_655
O55 Zn6 2.233337 1_555
O56 P11 1.547223 1_545
O56 Zn6 2.214878 1_555
O57 P12 1.544716 1_545
O57 Zn7 2.213898 1_555
O58 P13 1.545351 1_555
O58 Zn7 2.268840 1_555
O59 P14 1.542902 1_655
O59 Zn7 2.259664 1_555
O60 P8 1.573083 1_555
O60 Zn8 2.153587 1_555
O61 S1 1.499951 1_455
O61 Zn8 2.299063 1_555
O62 S2 1.499735 1_565
O62 Zn8 2.331812 1_555
O63 P7 1.561975 1_565
O63 Zn9 2.215218 1_555
O64 S0 1.497042 1_555
O64 Zn9 2.336275 1_555
O65 P6 1.563557 1_455
O65 Zn9 2.171655 1_555
O66 P0 1.591431 1_565
O67 P1 1.619368 1_555
O68 P2 1.618152 1_455
O69 P3 1.605519 1_555
O70 P4 1.639788 1_455
O71 P5 1.608236 1_555
