# generated using pymatgen
data_MgMn6O11F
_symmetry_space_group_name_H-M   'P 1'
_cell_length_a   4.99271458
_cell_length_b   5.05464973
_cell_length_c   8.64931566
_cell_angle_alpha   89.37205438
_cell_angle_beta   90.53673724
_cell_angle_gamma   101.57110208
_symmetry_Int_Tables_number   1
_chemical_formula_structural   MgMn6O11F
_chemical_formula_sum   'Mg1 Mn6 O11 F1'
_cell_volume   213.82306344
_cell_formula_units_Z   1
loop_
 _symmetry_equiv_pos_site_id
 _symmetry_equiv_pos_as_xyz
  1  'x, y, z'
loop_
 _atom_site_type_symbol
 _atom_site_label
 _atom_site_symmetry_multiplicity
 _atom_site_fract_x
 _atom_site_fract_y
 _atom_site_fract_z
 _atom_site_occupancy
  Mg  Mg0  1  0.52335661  0.03452040  0.15941446  1
  Mn  Mn0  1  0.00892565  0.98149508  0.99509613  1
  Mn  Mn1  1  0.00399102  0.99412838  0.33533055  1
  Mn  Mn2  1  0.00708465  0.99016184  0.65607767  1
  Mn  Mn3  1  0.44370400  0.54314251  0.82457377  1
  Mn  Mn4  1  0.41906853  0.52170631  0.16499704  1
  Mn  Mn5  1  0.55908555  0.46487064  0.49798708  1
  O  O0  1  0.14910081  0.79833896  0.16125135  1
  O  O1  1  0.11988100  0.80082436  0.49815861  1
  O  O2  1  0.13185237  0.79346409  0.83068771  1
  O  O3  1  0.34773619  0.26255855  0.99783162  1
  O  O4  1  0.36544134  0.24630159  0.32561814  1
  O  O5  1  0.34792270  0.27302805  0.66615298  1
  O  O6  1  0.62634791  0.75524012  0.00309335  1
  O  O7  1  0.64072688  0.73887169  0.32228523  1
  O  O8  1  0.65834114  0.72971974  0.65794790  1
  O  O9  1  0.90413829  0.19443284  0.15994901  1
  O  O10  1  0.87043097  0.18927137  0.49195310  1
  F  F0  1  0.87286039  0.18792351  0.83016131  1
loop_
_geom_bond_atom_site_label_1
_geom_bond_atom_site_label_2
_geom_bond_distance
_geom_bond_site_symmetry_2
Mg0 O9 1.910793 1_555
Mg0 O0 2.005539 1_545
Mg0 O4 2.056121 1_555
Mg0 O3 2.097103 1_554
Mg0 O6 2.105080 1_545
Mg0 O7 2.202457 1_545
Mn0 O2 1.892648 1_555
Mn0 O0 1.903718 1_556
Mn0 O9 1.933596 1_466
Mn0 O3 1.978950 1_565
Mn0 O6 2.021284 1_456
Mn1 O1 1.858575 1_555
Mn1 O10 1.887547 1_465
Mn1 O9 1.931157 1_465
Mn1 O4 1.991516 1_565
Mn1 O7 2.006850 1_455
Mn1 O0 2.027819 1_555
Mn2 O1 1.832486 1_555
Mn2 O10 1.928617 1_465
Mn2 O8 1.960995 1_455
Mn2 O2 1.963504 1_555
Mn2 O5 1.992882 1_565
Mn3 O8 1.925759 1_555
Mn3 O5 1.933173 1_555
Mn3 O6 1.995688 1_556
Mn3 O3 2.044740 1_555
Mn3 O2 2.195741 1_555
Mn4 O4 1.937696 1_555
Mn4 O3 1.943688 1_554
Mn4 O7 1.948754 1_555
Mn4 O6 1.981478 1_555
Mn4 O0 2.127738 1_555
Mn5 O8 1.927064 1_555
Mn5 O5 1.937815 1_555
Mn5 O4 1.989620 1_555
Mn5 O7 2.032930 1_555
Mn5 O10 2.287247 1_555
F0 Mn0 1.954205 1_645
F0 Mn2 2.009005 1_645
