# generated using pymatgen
data_UGeS
_symmetry_space_group_name_H-M   'P 1'
_cell_length_a   3.84533602
_cell_length_b   3.84533602
_cell_length_c   8.54250677
_cell_angle_alpha   90.00000000
_cell_angle_beta   90.00000000
_cell_angle_gamma   90.00000000
_symmetry_Int_Tables_number   1
_chemical_formula_structural   UGeS
_chemical_formula_sum   'U2 Ge2 S2'
_cell_volume   126.31470840
_cell_formula_units_Z   2
loop_
 _symmetry_equiv_pos_site_id
 _symmetry_equiv_pos_as_xyz
  1  'x, y, z'
loop_
 _atom_site_type_symbol
 _atom_site_label
 _atom_site_symmetry_multiplicity
 _atom_site_fract_x
 _atom_site_fract_y
 _atom_site_fract_z
 _atom_site_occupancy
  U  U0  1  0.00000000  0.50000000  0.71256816  1
  U  U1  1  0.50000000  -0.00000000  0.28743184  1
  Ge  Ge0  1  0.00000000  0.00000000  -0.00000000  1
  Ge  Ge1  1  0.50000000  0.50000000  -0.00000000  1
  S  S0  1  0.00000000  0.50000000  0.36995597  1
  S  S1  1  0.50000000  -0.00000000  0.63004403  1
loop_
_geom_bond_atom_site_label_1
_geom_bond_atom_site_label_2
_geom_bond_distance
_geom_bond_site_symmetry_2
Ge0 Ge1 2.719063 1_445
Ge0 Ge1 2.719063 1_545
Ge0 Ge1 2.719063 1_455
Ge0 Ge1 2.719063 1_555
Ge0 U0 3.118587 1_554
Ge0 U0 3.118587 1_544
Ge0 U1 3.118587 1_455
Ge0 U1 3.118587 1_555
Ge1 U0 3.118587 1_654
Ge1 U0 3.118587 1_554
Ge1 U1 3.118587 1_565
Ge1 U1 3.118587 1_555
S0 U1 2.808964 1_555
S0 U1 2.808964 1_455
S0 U1 2.808964 1_565
S0 U1 2.808964 1_465
S0 U0 2.926767 1_555
S1 U0 2.808964 1_545
S1 U0 2.808964 1_655
S1 U0 2.808964 1_555
S1 U0 2.808964 1_645
S1 U1 2.926767 1_555
