# generated using pymatgen
data_Na6La3NbSi2(PO6)4
_symmetry_space_group_name_H-M   'P 1'
_cell_length_a   16.60650448
_cell_length_b   9.47688737
_cell_length_c   9.61085830
_cell_angle_alpha   90.57582824
_cell_angle_beta   125.40254064
_cell_angle_gamma   89.57521769
_symmetry_Int_Tables_number   1
_chemical_formula_structural   Na6La3NbSi2(PO6)4
_chemical_formula_sum   'Na12 La6 Nb2 Si4 P8 O48'
_cell_volume   1232.80780519
_cell_formula_units_Z   2
loop_
 _symmetry_equiv_pos_site_id
 _symmetry_equiv_pos_as_xyz
  1  'x, y, z'
loop_
 _atom_site_type_symbol
 _atom_site_label
 _atom_site_symmetry_multiplicity
 _atom_site_fract_x
 _atom_site_fract_y
 _atom_site_fract_z
 _atom_site_occupancy
  Na  Na0  1  0.25170656  0.75082117  0.99895297  1
  Na  Na1  1  0.74885677  0.76030301  0.50288548  1
  Na  Na2  1  0.75170656  0.25082117  0.99895297  1
  Na  Na3  1  0.24885677  0.26030301  0.50288548  1
  Na  Na4  1  0.50428605  0.07026040  0.75034128  1
  Na  Na5  1  0.50364997  0.91009132  0.24388084  1
  Na  Na6  1  0.00428605  0.57026040  0.75034128  1
  Na  Na7  1  0.00364997  0.41009132  0.24388084  1
  Na  Na8  1  0.18379988  0.92074546  0.30391861  1
  Na  Na9  1  0.81219173  0.09201531  0.70783034  1
  Na  Na10  1  0.68379988  0.42074546  0.30391861  1
  Na  Na11  1  0.31219173  0.59201531  0.70783034  1
  La  La0  1  0.10124915  0.76647457  0.56355801  1
  La  La1  1  0.89858253  0.23740318  0.44070735  1
  La  La2  1  0.10808507  0.25302848  0.05395383  1
  La  La3  1  0.60124915  0.26647457  0.56355801  1
  La  La4  1  0.39858253  0.73740318  0.44070735  1
  La  La5  1  0.60808507  0.75302848  0.05395383  1
  Nb  Nb0  1  0.89734969  0.74364050  0.94988756  1
  Nb  Nb1  1  0.39734969  0.24364050  0.94988756  1
  Si  Si0  1  0.35137622  0.91291840  0.75681057  1
  Si  Si1  1  0.64948735  0.11124809  0.25186682  1
  Si  Si2  1  0.85137622  0.41291840  0.75681057  1
  Si  Si3  1  0.14948735  0.61124809  0.25186682  1
  P  P0  1  0.99347878  0.93232070  0.76993215  1
  P  P1  1  0.99037853  0.04531575  0.22826979  1
  P  P2  1  0.49347878  0.43232070  0.76993215  1
  P  P3  1  0.49037853  0.54531575  0.22826979  1
  P  P4  1  0.65887860  0.89677259  0.74411282  1
  P  P5  1  0.35622877  0.09376840  0.24612929  1
  P  P6  1  0.15887860  0.39677259  0.74411282  1
  P  P7  1  0.85622877  0.59376840  0.24612929  1
  O  O0  1  0.17030676  0.55958477  0.74785733  1
  O  O1  1  0.84757772  0.58996147  0.78195340  1
  O  O2  1  0.85069749  0.43215373  0.21602271  1
  O  O3  1  0.15102039  0.43924185  0.25527977  1
  O  O4  1  0.67030676  0.05958477  0.74785733  1
  O  O5  1  0.34757772  0.08996147  0.78195340  1
  O  O6  1  0.35069749  0.93215373  0.21602271  1
  O  O7  1  0.65102039  0.93924185  0.25527977  1
  O  O8  1  0.43105088  0.52838435  0.60979504  1
  O  O9  1  0.55635666  0.52295544  0.93048499  1
  O  O10  1  0.54248517  0.46067780  0.39425193  1
  O  O11  1  0.43804064  0.43675775  0.07414296  1
  O  O12  1  0.93105088  0.02838435  0.60979504  1
  O  O13  1  0.05635666  0.02295544  0.93048499  1
  O  O14  1  0.04248517  0.96067780  0.39425193  1
  O  O15  1  0.93804064  0.93675775  0.07414296  1
  O  O16  1  0.26560616  0.83498503  0.75949326  1
  O  O17  1  0.75438744  0.82977011  0.77398644  1
  O  O18  1  0.72651816  0.19306839  0.22592588  1
  O  O19  1  0.26912870  0.14832995  0.24670264  1
  O  O20  1  0.76560616  0.33498503  0.75949326  1
  O  O21  1  0.25438744  0.32977011  0.77398644  1
  O  O22  1  0.22651816  0.69306839  0.22592588  1
  O  O23  1  0.76912870  0.64832995  0.24670264  1
  O  O24  1  0.34687952  0.89075488  0.58040262  1
  O  O25  1  0.64922246  0.86055501  0.88943970  1
  O  O26  1  0.66636225  0.16791330  0.42706433  1
  O  O27  1  0.35824112  0.16497706  0.09589127  1
  O  O28  1  0.84687952  0.39075488  0.58040262  1
  O  O29  1  0.14922246  0.36055501  0.88943970  1
  O  O30  1  0.16636225  0.66791330  0.42706433  1
  O  O31  1  0.85824112  0.66497706  0.09589127  1
  O  O32  1  0.45880232  0.86180511  0.91933958  1
  O  O33  1  0.56677230  0.84176906  0.57153983  1
  O  O34  1  0.53014940  0.16820479  0.08817660  1
  O  O35  1  0.45411144  0.13059276  0.41581911  1
  O  O36  1  0.95880232  0.36180511  0.91933958  1
  O  O37  1  0.06677230  0.34176906  0.57153983  1
  O  O38  1  0.03014940  0.66820479  0.08817660  1
  O  O39  1  0.95411144  0.63059276  0.41581911  1
  O  O40  1  0.05773756  0.81938227  0.76036113  1
  O  O41  1  0.91328324  0.84680423  0.77541547  1
  O  O42  1  0.91246434  0.14677022  0.21276765  1
  O  O43  1  0.07321225  0.12747336  0.23484865  1
  O  O44  1  0.55773756  0.31938227  0.76036113  1
  O  O45  1  0.41328324  0.34680423  0.77541547  1
  O  O46  1  0.41246434  0.64677022  0.21276765  1
  O  O47  1  0.57321225  0.62747336  0.23484865  1
loop_
_geom_bond_atom_site_label_1
_geom_bond_atom_site_label_2
_geom_bond_distance
_geom_bond_site_symmetry_2
Na0 O46 2.442857 1_556
Na0 O6 2.450329 1_556
Na0 O22 2.513494 1_556
Na0 O16 2.577030 1_555
Na0 O0 2.665395 1_555
Na0 O40 2.738066 1_555
Na1 O41 2.586863 1_555
Na1 O7 2.595950 1_555
Na1 O17 2.630530 1_555
Na1 O1 2.727719 1_555
Na1 O47 2.830547 1_555
Na1 O23 2.864270 1_555
Na2 O42 2.442857 1_556
Na2 O2 2.450329 1_556
Na2 O18 2.513494 1_556
Na2 O20 2.577030 1_555
Na2 O4 2.665395 1_555
Na2 O44 2.738066 1_555
Na3 O45 2.586863 1_555
Na3 O3 2.595950 1_555
Na3 O21 2.630530 1_555
Na3 O5 2.727719 1_555
Na3 O43 2.830547 1_555
Na3 O19 2.864270 1_555
Na4 O44 2.509680 1_555
Na4 O24 2.730906 1_545
Na4 O4 2.772014 1_555
Na4 O25 2.790027 1_545
Na4 O5 2.794149 1_555
Na4 O35 2.878152 1_555
Na4 O32 2.935861 1_545
Na5 O6 2.402569 1_555
Na5 O7 2.403416 1_555
Na5 O33 2.764243 1_555
Na5 O32 2.788877 1_554
Na5 O46 2.850646 1_555
Na5 O47 2.929356 1_555
Na6 O40 2.509680 1_555
Na6 O28 2.730906 1_455
Na6 O0 2.772014 1_555
Na6 O29 2.790027 1_555
Na6 O1 2.794149 1_455
Na6 O39 2.878152 1_455
Na6 O36 2.935861 1_455
Na7 O2 2.402569 1_455
Na7 O3 2.403416 1_555
Na7 O37 2.764243 1_555
Na7 O36 2.788877 1_454
Na7 O42 2.850646 1_455
Na7 O43 2.929356 1_555
Na8 O24 2.478280 1_555
Na8 O43 2.492353 1_565
Na8 O22 2.506303 1_555
Na8 O30 2.773104 1_555
Na8 O19 2.816742 1_565
Na9 O26 2.470875 1_555
Na9 O20 2.557860 1_555
Na9 O4 2.618685 1_555
Na9 O12 2.696871 1_555
Na9 O41 2.710994 1_545
Na9 O17 2.876904 1_545
Na10 O28 2.478280 1_555
Na10 O47 2.492353 1_555
Na10 O18 2.506303 1_555
Na10 O26 2.773104 1_555
Na10 O23 2.816742 1_555
Na11 O30 2.470875 1_555
Na11 O16 2.557860 1_555
Na11 O0 2.618685 1_555
Na11 O8 2.696871 1_555
Na11 O45 2.710994 1_555
Na11 O21 2.876904 1_555
La0 O14 2.276182 1_555
La0 O30 2.316556 1_555
La0 O16 2.337489 1_555
La0 O39 2.373790 1_455
La0 O40 2.431085 1_555
La0 O0 2.445349 1_555
La1 O18 2.401798 1_555
La1 O12 2.426727 1_555
La1 O28 2.435104 1_555
La1 O42 2.476774 1_555
La1 O37 2.511425 1_655
La1 O2 2.602024 1_555
La2 O36 2.270477 1_454
La2 O29 2.302005 1_554
La2 O13 2.386376 1_554
La2 O3 2.391252 1_555
La2 O19 2.413692 1_555
La2 O43 2.447872 1_555
La3 O10 2.276182 1_555
La3 O26 2.316556 1_555
La3 O20 2.337489 1_555
La3 O35 2.373790 1_555
La3 O44 2.431085 1_555
La3 O4 2.445349 1_555
La4 O22 2.401798 1_555
La4 O8 2.426727 1_555
La4 O24 2.435104 1_555
La4 O46 2.476774 1_555
La4 O33 2.511425 1_555
La4 O6 2.602024 1_555
La5 O32 2.270477 1_554
La5 O25 2.302005 1_554
La5 O9 2.386376 1_554
La5 O7 2.391252 1_555
La5 O23 2.413692 1_555
La5 O47 2.447872 1_555
Nb0 O38 1.934096 1_656
Nb0 O1 1.958108 1_555
Nb0 O31 2.007654 1_556
Nb0 O15 2.066789 1_556
Nb0 O41 2.094866 1_555
Nb0 O17 2.123525 1_555
Nb1 O34 1.934096 1_556
Nb1 O5 1.958108 1_555
Nb1 O27 2.007654 1_556
Nb1 O11 2.066789 1_556
Nb1 O45 2.094866 1_555
Nb1 O21 2.123525 1_555
O0 P6 1.553489 1_555
O1 Si2 1.698642 1_555
O2 P7 1.549308 1_555
O3 Si3 1.630457 1_555
O4 P4 1.553489 1_545
O5 Si0 1.698642 1_545
O6 P5 1.549308 1_565
O7 Si1 1.630457 1_565
O8 P2 1.561333 1_555
O9 P2 1.526082 1_555
O10 P3 1.533942 1_555
O11 P3 1.580818 1_555
O12 P0 1.561333 1_545
O13 P0 1.526082 1_445
O14 P1 1.533942 1_465
O15 P1 1.580818 1_565
O16 Si0 1.622782 1_555
O17 P4 1.569188 1_555
O18 Si1 1.639482 1_555
O19 P5 1.535460 1_555
O20 Si2 1.622782 1_555
O21 P6 1.569188 1_555
O22 Si3 1.639482 1_555
O23 P7 1.535460 1_555
O24 Si0 1.664502 1_555
O25 P4 1.537624 1_555
O26 Si1 1.624634 1_555
O27 P5 1.617789 1_555
O28 Si2 1.664502 1_555
O29 P6 1.537624 1_555
O30 Si3 1.624634 1_555
O31 P7 1.617789 1_555
O32 Si0 1.621996 1_555
O33 P4 1.554754 1_555
O34 Si1 1.755753 1_555
O35 P5 1.532712 1_555
O36 Si2 1.621996 1_555
O37 P6 1.554754 1_555
O38 Si3 1.755753 1_555
O39 P7 1.532712 1_555
O40 P0 1.545174 1_455
O41 P0 1.591024 1_555
O42 P1 1.543320 1_555
O43 P1 1.554525 1_455
O44 P2 1.545174 1_555
O45 P2 1.591024 1_555
O46 P3 1.543320 1_555
O47 P3 1.554525 1_555
