# generated using pymatgen
data_Bi2(SeO3)3
_symmetry_space_group_name_H-M   'P 1'
_cell_length_a   4.67730780
_cell_length_b   13.50763056
_cell_length_c   15.28425487
_cell_angle_alpha   62.51112917
_cell_angle_beta   90.00000000
_cell_angle_gamma   90.00000000
_symmetry_Int_Tables_number   1
_chemical_formula_structural   Bi2(SeO3)3
_chemical_formula_sum   'Bi8 Se12 O36'
_cell_volume   856.62791558
_cell_formula_units_Z   4
loop_
 _symmetry_equiv_pos_site_id
 _symmetry_equiv_pos_as_xyz
  1  'x, y, z'
loop_
 _atom_site_type_symbol
 _atom_site_label
 _atom_site_symmetry_multiplicity
 _atom_site_fract_x
 _atom_site_fract_y
 _atom_site_fract_z
 _atom_site_occupancy
  Bi  Bi0  1  0.36067667  0.65196827  0.65687092  1
  Bi  Bi1  1  0.86067667  0.34803173  0.84312908  1
  Bi  Bi2  1  0.63932333  0.34803173  0.34312908  1
  Bi  Bi3  1  0.13932333  0.65196827  0.15687092  1
  Bi  Bi4  1  0.35943261  0.83239791  0.31014710  1
  Bi  Bi5  1  0.85943261  0.16760209  0.18985290  1
  Bi  Bi6  1  0.64056739  0.16760209  0.68985290  1
  Bi  Bi7  1  0.14056739  0.83239791  0.81014710  1
  Se  Se0  1  0.28905677  0.43227885  0.62133172  1
  Se  Se1  1  0.78905677  0.56772115  0.87866828  1
  Se  Se2  1  0.71094323  0.56772115  0.37866828  1
  Se  Se3  1  0.21094323  0.43227885  0.12133172  1
  Se  Se4  1  0.38509443  0.17167493  0.01761720  1
  Se  Se5  1  0.88509443  0.82832507  0.48238280  1
  Se  Se6  1  0.61490557  0.82832507  0.98238280  1
  Se  Se7  1  0.11490557  0.17167493  0.51761720  1
  Se  Se8  1  0.40673974  0.07008248  0.37009152  1
  Se  Se9  1  0.90673974  0.92991752  0.12990848  1
  Se  Se10  1  0.59326026  0.92991752  0.62990848  1
  Se  Se11  1  0.09326026  0.07008248  0.87009152  1
  O  O0  1  0.24778172  0.81905906  0.98932885  1
  O  O1  1  0.74778172  0.18094094  0.51067115  1
  O  O2  1  0.75221828  0.18094094  0.01067115  1
  O  O3  1  0.25221828  0.81905906  0.48932885  1
  O  O4  1  0.46906206  0.79738818  0.70625354  1
  O  O5  1  0.96906206  0.20261182  0.79374646  1
  O  O6  1  0.53093794  0.20261182  0.29374646  1
  O  O7  1  0.03093794  0.79738818  0.20625354  1
  O  O8  1  0.46747186  0.98858823  0.70031151  1
  O  O9  1  0.96747186  0.01141177  0.79968849  1
  O  O10  1  0.53252814  0.01141177  0.29968849  1
  O  O11  1  0.03252814  0.98858823  0.20031151  1
  O  O12  1  0.45312751  0.55886492  0.56361957  1
  O  O13  1  0.95312751  0.44113508  0.93638043  1
  O  O14  1  0.54687249  0.44113508  0.43638043  1
  O  O15  1  0.04687249  0.55886492  0.06361957  1
  O  O16  1  0.43324030  0.65502010  0.31753781  1
  O  O17  1  0.93324030  0.34497990  0.18246219  1
  O  O18  1  0.56675970  0.34497990  0.68246219  1
  O  O19  1  0.06675970  0.65502010  0.81753781  1
  O  O20  1  0.05111347  0.08419523  0.34457763  1
  O  O21  1  0.55111347  0.91580477  0.15542237  1
  O  O22  1  0.94888653  0.91580477  0.65542237  1
  O  O23  1  0.44888653  0.08419523  0.84457763  1
  O  O24  1  0.15470401  0.45735105  0.71621568  1
  O  O25  1  0.65470401  0.54264895  0.78378432  1
  O  O26  1  0.84529599  0.54264895  0.28378432  1
  O  O27  1  0.34529599  0.45735105  0.21621568  1
  O  O28  1  0.18978137  0.28988077  0.40988159  1
  O  O29  1  0.68978137  0.71011923  0.09011841  1
  O  O30  1  0.81021863  0.71011923  0.59011841  1
  O  O31  1  0.31021863  0.28988077  0.90988159  1
  O  O32  1  0.16686364  0.21130481  0.60781741  1
  O  O33  1  0.66686364  0.78869519  0.89218259  1
  O  O34  1  0.83313636  0.78869519  0.39218259  1
  O  O35  1  0.33313636  0.21130481  0.10781741  1
loop_
_geom_bond_atom_site_label_1
_geom_bond_atom_site_label_2
_geom_bond_distance
_geom_bond_site_symmetry_2
Bi0 O25 2.278223 1_555
Bi0 O30 2.310676 1_555
Bi0 O12 2.335523 1_555
Bi0 O4 2.460434 1_555
Bi0 O24 2.541719 1_555
Bi0 O3 2.563862 1_555
Bi0 O30 2.747178 1_455
Bi0 O19 2.831147 1_555
Bi1 O24 2.278223 1_655
Bi1 O31 2.310676 1_655
Bi1 O13 2.335523 1_555
Bi1 O5 2.460434 1_555
Bi1 O25 2.541719 1_555
Bi1 O2 2.563862 1_556
Bi1 O31 2.747178 1_555
Bi1 O18 2.831147 1_555
Bi2 O27 2.278223 1_555
Bi2 O28 2.310676 1_555
Bi2 O14 2.335523 1_555
Bi2 O6 2.460434 1_555
Bi2 O26 2.541719 1_555
Bi2 O1 2.563862 1_555
Bi2 O28 2.747178 1_655
Bi2 O17 2.831147 1_555
Bi3 O26 2.278223 1_455
Bi3 O29 2.310676 1_455
Bi3 O15 2.335523 1_555
Bi3 O7 2.460434 1_555
Bi3 O27 2.541719 1_555
Bi3 O0 2.563862 1_554
Bi3 O29 2.747178 1_555
Bi3 O16 2.831147 1_555
Bi4 O21 2.281678 1_555
Bi4 O16 2.371219 1_555
Bi4 O7 2.408140 1_555
Bi4 O34 2.479207 1_555
Bi4 O10 2.484189 1_565
Bi4 O11 2.517470 1_555
Bi4 O34 2.701305 1_455
Bi4 O3 2.707152 1_555
Bi5 O20 2.281678 1_655
Bi5 O17 2.371219 1_555
Bi5 O6 2.408140 1_555
Bi5 O35 2.479207 1_655
Bi5 O11 2.484189 1_645
Bi5 O10 2.517470 1_555
Bi5 O35 2.701305 1_555
Bi5 O2 2.707152 1_555
Bi6 O23 2.281678 1_555
Bi6 O18 2.371219 1_555
Bi6 O5 2.408140 1_555
Bi6 O32 2.479207 1_555
Bi6 O8 2.484189 1_545
Bi6 O9 2.517470 1_555
Bi6 O32 2.701305 1_655
Bi6 O1 2.707152 1_555
Bi7 O22 2.281678 1_455
Bi7 O19 2.371219 1_555
Bi7 O4 2.408140 1_555
Bi7 O33 2.479207 1_455
Bi7 O9 2.484189 1_465
Bi7 O8 2.517470 1_555
Bi7 O33 2.701305 1_555
Bi7 O0 2.707152 1_555
O0 Se6 1.721418 1_555
O1 Se7 1.721418 1_655
O2 Se4 1.721418 1_555
O3 Se5 1.721418 1_455
O4 Se10 1.724923 1_555
O5 Se11 1.724923 1_655
O6 Se8 1.724923 1_555
O7 Se9 1.724923 1_455
O8 Se10 1.708614 1_555
O9 Se11 1.708614 1_655
O10 Se8 1.708614 1_555
O11 Se9 1.708614 1_455
O12 Se0 1.702446 1_555
O13 Se1 1.702446 1_555
O14 Se2 1.702446 1_555
O15 Se3 1.702446 1_555
O16 Se2 1.712759 1_555
O17 Se3 1.712759 1_655
O18 Se0 1.712759 1_555
O19 Se1 1.712759 1_455
O20 Se8 1.698998 1_555
O21 Se9 1.698998 1_555
O22 Se10 1.698998 1_555
O23 Se11 1.698998 1_555
O24 Se0 1.751046 1_555
O25 Se1 1.751046 1_555
O26 Se2 1.751046 1_555
O27 Se3 1.751046 1_555
O28 Se7 1.719414 1_555
O29 Se6 1.719414 1_554
O30 Se5 1.719414 1_555
O31 Se4 1.719414 1_556
O32 Se7 1.711009 1_555
O33 Se6 1.711009 1_555
O34 Se5 1.711009 1_555
O35 Se4 1.711009 1_555
