# generated using pymatgen
data_Na8La2Mg2Si3(SO8)3
_symmetry_space_group_name_H-M   'P 1'
_cell_length_a   9.58267111
_cell_length_b   9.58586287
_cell_length_c   22.96475613
_cell_angle_alpha   89.66031861
_cell_angle_beta   89.50010344
_cell_angle_gamma   120.10968846
_symmetry_Int_Tables_number   1
_chemical_formula_structural   Na8La2Mg2Si3(SO8)3
_chemical_formula_sum   'Na24 La6 Mg6 Si9 S9 O72'
_cell_volume   1824.65948174
_cell_formula_units_Z   3
loop_
 _symmetry_equiv_pos_site_id
 _symmetry_equiv_pos_as_xyz
  1  'x, y, z'
loop_
 _atom_site_type_symbol
 _atom_site_label
 _atom_site_symmetry_multiplicity
 _atom_site_fract_x
 _atom_site_fract_y
 _atom_site_fract_z
 _atom_site_occupancy
  Na  Na0  1  0.64091316  0.02883808  0.26235188  1
  Na  Na1  1  0.34528963  0.33719109  0.25508535  1
  Na  Na2  1  0.99898523  0.62039828  0.24153685  1
  Na  Na3  1  0.62198015  0.61692806  0.72800269  1
  Na  Na4  1  0.98691681  0.34289429  0.73233261  1
  Na  Na5  1  0.39838482  0.03481422  0.75101941  1
  Na  Na6  1  0.30588127  0.35994488  0.59516832  1
  Na  Na7  1  0.01126961  0.67165827  0.58603862  1
  Na  Na8  1  0.66699574  0.95149697  0.58081604  1
  Na  Na9  1  0.28306747  0.93559718  0.08291598  1
  Na  Na10  1  0.68013170  0.69303925  0.08148858  1
  Na  Na11  1  0.03285650  0.35683073  0.09892358  1
  Na  Na12  1  0.98597810  0.69695435  0.91987970  1
  Na  Na13  1  0.68616979  0.02287107  0.89567286  1
  Na  Na14  1  0.31204206  0.26317954  0.89899755  1
  Na  Na15  1  0.95119476  0.26879685  0.41848784  1
  Na  Na16  1  0.34125533  0.02860389  0.40758935  1
  Na  Na17  1  0.70251088  0.69454783  0.43357674  1
  Na  Na18  1  0.96613018  0.99852944  0.50251410  1
  Na  Na19  1  0.01056606  0.97809623  0.99368843  1
  Na  Na20  1  0.64389620  0.31236339  0.81798357  1
  Na  Na21  1  0.66481389  0.30022157  0.32803005  1
  Na  Na22  1  0.29993652  0.66574430  0.16961125  1
  Na  Na23  1  0.34161960  0.65105790  0.65891100  1
  La  La0  1  0.99617137  0.00972797  0.65274445  1
  La  La1  1  0.00934136  0.00234994  0.16002957  1
  La  La2  1  0.66526208  0.33026098  0.98851024  1
  La  La3  1  0.67327948  0.33067798  0.49269061  1
  La  La4  1  0.33444774  0.67615858  0.32119167  1
  La  La5  1  0.34120347  0.67622287  0.81687728  1
  Mg  Mg0  1  0.00587445  0.01901134  0.34611024  1
  Mg  Mg1  1  0.01240112  0.01155959  0.83724349  1
  Mg  Mg2  1  0.67623073  0.34115271  0.68037657  1
  Mg  Mg3  1  0.68581581  0.33577307  0.19036412  1
  Mg  Mg4  1  0.29827981  0.67193431  0.01543121  1
  Mg  Mg5  1  0.35849914  0.67035298  0.52282801  1
  Si  Si0  1  0.31534752  0.01431926  0.24999686  1
  Si  Si1  1  0.99590981  0.30481506  0.24920886  1
  Si  Si2  1  0.31676942  0.30463801  0.75001780  1
  Si  Si3  1  0.70351011  0.01324870  0.75355831  1
  Si  Si4  1  0.98724754  0.35202387  0.58208220  1
  Si  Si5  1  0.66370305  0.63327447  0.58266597  1
  Si  Si6  1  0.96904002  0.63149775  0.08402630  1
  Si  Si7  1  0.32137230  0.97038978  0.91945202  1
  Si  Si8  1  0.64458223  0.96729116  0.41648315  1
  S  S0  1  0.69930242  0.68465537  0.25076262  1
  S  S1  1  0.98527403  0.69290002  0.75405145  1
  S  S2  1  0.36573899  0.01685621  0.58471411  1
  S  S3  1  0.65481867  0.01710133  0.08532399  1
  S  S4  1  0.36458837  0.35002602  0.08443053  1
  S  S5  1  0.63896606  0.67677416  0.92302647  1
  S  S6  1  0.03967497  0.35879302  0.92182935  1
  S  S7  1  0.32260401  0.35482312  0.41748109  1
  S  S8  1  0.02858266  0.68007077  0.41784269  1
  O  O0  1  0.20833306  0.02815689  0.30423874  1
  O  O1  1  0.80511067  0.78044206  0.29878159  1
  O  O2  1  0.97997245  0.18348738  0.30245026  1
  O  O3  1  0.21969104  0.18954915  0.80694988  1
  O  O4  1  0.97976454  0.78652561  0.80495472  1
  O  O5  1  0.81302760  0.01921122  0.81028742  1
  O  O6  1  0.77202373  0.97077745  0.69498938  1
  O  O7  1  0.20902397  0.22830428  0.69171534  1
  O  O8  1  0.01552191  0.78673712  0.69948142  1
  O  O9  1  0.75885163  0.77563438  0.19430545  1
  O  O10  1  0.01821171  0.23370572  0.18646145  1
  O  O11  1  0.21493833  0.97884388  0.18830790  1
  O  O12  1  0.88257453  0.36543892  0.63722848  1
  O  O13  1  0.47029285  0.11236790  0.63330396  1
  O  O14  1  0.65085212  0.51453117  0.63672102  1
  O  O15  1  0.86330819  0.51130868  0.13845436  1
  O  O16  1  0.64170777  0.10865478  0.13474650  1
  O  O17  1  0.46113105  0.35708350  0.13533253  1
  O  O18  1  0.43763261  0.32671457  0.03021989  1
  O  O19  1  0.87479396  0.55900417  0.02185247  1
  O  O20  1  0.67908171  0.10948447  0.02992649  1
  O  O21  1  0.42484703  0.10879305  0.52865584  1
  O  O22  1  0.67800183  0.55768169  0.52004613  1
  O  O23  1  0.88354601  0.31657901  0.52136081  1
  O  O24  1  0.54619846  0.67914865  0.97482487  1
  O  O25  1  0.13878012  0.45283977  0.97231032  1
  O  O26  1  0.30420568  0.85957550  0.97741407  1
  O  O27  1  0.53791123  0.84529196  0.47073366  1
  O  O28  1  0.31294840  0.44893102  0.46660949  1
  O  O29  1  0.12769690  0.68630345  0.46769711  1
  O  O30  1  0.09716575  0.65550035  0.36255797  1
  O  O31  1  0.54945958  0.89648745  0.35449062  1
  O  O32  1  0.34472338  0.44372210  0.36145388  1
  O  O33  1  0.11043429  0.45057066  0.86724678  1
  O  O34  1  0.35788864  0.89450597  0.86173549  1
  O  O35  1  0.54631272  0.65623036  0.86937554  1
  O  O36  1  0.02470769  0.83378874  0.41409321  1
  O  O37  1  0.82501166  0.98145616  0.41364031  1
  O  O38  1  0.17062002  0.19433657  0.41574157  1
  O  O39  1  0.02981166  0.19941913  0.92078776  1
  O  O40  1  0.15305696  0.97829906  0.91312928  1
  O  O41  1  0.79831117  0.82867619  0.92012940  1
  O  O42  1  0.01867622  0.19699610  0.58409066  1
  O  O43  1  0.19674359  0.98104161  0.59175728  1
  O  O44  1  0.82801083  0.81457454  0.58317570  1
  O  O45  1  0.99088080  0.81574225  0.08573049  1
  O  O46  1  0.79768795  0.99404640  0.08955186  1
  O  O47  1  0.19615677  0.20890565  0.08651262  1
  O  O48  1  0.70241679  0.18421536  0.74751078  1
  O  O49  1  0.49498317  0.31950825  0.74376893  1
  O  O50  1  0.83089086  0.53753601  0.75184473  1
  O  O51  1  0.69574946  0.52795342  0.24714412  1
  O  O52  1  0.83260576  0.32104424  0.24880283  1
  O  O53  1  0.49102820  0.18395377  0.24493662  1
  O  O54  1  0.66758321  0.53661496  0.92436682  1
  O  O55  1  0.87178552  0.33284698  0.92556928  1
  O  O56  1  0.48163757  0.15822491  0.92161851  1
  O  O57  1  0.66149480  0.15003352  0.41805919  1
  O  O58  1  0.46301206  0.32785756  0.42160152  1
  O  O59  1  0.85983806  0.54052640  0.42083810  1
  O  O60  1  0.35941974  0.50286217  0.07985750  1
  O  O61  1  0.14860610  0.64283101  0.08283316  1
  O  O62  1  0.50543820  0.85558483  0.08217169  1
  O  O63  1  0.36528400  0.86153837  0.58096584  1
  O  O64  1  0.50148474  0.65207014  0.58308603  1
  O  O65  1  0.16231033  0.52211506  0.57707083  1
  O  O66  1  0.34502234  0.85790474  0.25329011  1
  O  O67  1  0.53024235  0.65079671  0.25769440  1
  O  O68  1  0.15816157  0.48837111  0.25177749  1
  O  O69  1  0.33930957  0.48867582  0.75330323  1
  O  O70  1  0.12021833  0.65819329  0.75923821  1
  O  O71  1  0.51321227  0.86405660  0.75511455  1
loop_
_geom_bond_atom_site_label_1
_geom_bond_atom_site_label_2
_geom_bond_distance
_geom_bond_site_symmetry_2
Na0 O31 2.382249 1_545
Na0 O66 2.474013 1_545
Na0 O52 2.476753 1_555
Na0 O53 2.565060 1_555
Na1 O53 2.493797 1_555
Na1 O67 2.615389 1_555
Na1 O32 2.654182 1_555
Na1 O0 2.793915 1_555
Na1 O68 2.815990 1_555
Na1 O51 2.911948 1_555
Na1 O17 2.925709 1_555
Na2 O68 2.433776 1_655
Na2 O52 2.490710 1_555
Na2 O51 2.579565 1_555
Na2 O15 2.665861 1_555
Na2 O30 2.908873 1_655
Na2 O66 2.949618 1_655
Na3 O14 2.391876 1_555
Na3 O69 2.410225 1_555
Na3 O49 2.497882 1_555
Na3 O50 2.535635 1_555
Na4 O48 2.384165 1_555
Na4 O12 2.462887 1_555
Na4 O70 2.703850 1_655
Na5 O71 2.388724 1_545
Na5 O49 2.406159 1_555
Na5 O48 2.520694 1_555
Na5 O13 2.786585 1_555
Na5 O34 2.800495 1_545
Na6 O42 2.404762 1_555
Na6 O7 2.474979 1_555
Na6 O64 2.479391 1_555
Na6 O65 2.574930 1_555
Na7 O65 2.504439 1_555
Na7 O43 2.586842 1_555
Na7 O44 2.716582 1_455
Na7 O12 2.796610 1_455
Na7 O8 2.827787 1_555
Na7 O29 2.904426 1_555
Na7 O63 2.937748 1_555
Na8 O44 2.477668 1_555
Na8 O64 2.487167 1_555
Na8 O63 2.569250 1_555
Na8 O27 2.789088 1_555
Na8 O6 2.790511 1_555
Na8 O42 2.991720 1_665
Na9 O61 2.430692 1_555
Na9 O45 2.435612 1_455
Na9 O26 2.569560 1_554
Na9 O11 2.590715 1_555
Na9 O62 2.601660 1_555
Na10 O46 2.525408 1_555
Na10 O45 2.598572 1_555
Na10 O60 2.674217 1_555
Na10 O9 2.714296 1_555
Na10 O24 2.748143 1_554
Na10 O62 2.801298 1_555
Na11 O10 2.292317 1_555
Na11 O61 2.410983 1_555
Na11 O47 2.600769 1_555
Na11 O60 2.741861 1_555
Na11 O15 2.839141 1_455
Na12 O40 2.349323 1_655
Na12 O19 2.621818 1_556
Na12 O54 2.640006 1_555
Na12 O41 2.665816 1_555
Na12 O4 2.780906 1_555
Na13 O5 2.307806 1_555
Na13 O41 2.634520 1_545
Na13 O55 2.684596 1_555
Na13 O34 2.861481 1_545
Na13 O56 2.901755 1_555
Na13 O39 2.914433 1_655
Na14 O3 2.274501 1_555
Na14 O56 2.360568 1_555
Na14 O40 2.385465 1_545
Na14 O39 2.500537 1_555
Na15 O37 2.392833 1_545
Na15 O57 2.415073 1_555
Na15 O38 2.537463 1_655
Na15 O23 2.548573 1_555
Na15 O2 2.843429 1_555
Na16 O58 2.520556 1_555
Na16 O36 2.648845 1_545
Na16 O57 2.694857 1_555
Na16 O0 2.702404 1_555
Na16 O38 2.799501 1_555
Na16 O21 2.899794 1_555
Na17 O22 2.317642 1_555
Na17 O37 2.426535 1_555
Na17 O59 2.601732 1_555
Na17 O36 2.710822 1_655
Na17 O27 2.753540 1_555
Na18 O37 2.418902 1_555
Na18 O44 2.422682 1_555
Na18 O42 2.545607 1_665
Na18 O38 2.744283 1_665
Na18 O36 2.799930 1_655
Na19 O40 2.289155 1_555
Na19 O41 2.491562 1_455
Na19 O45 2.566121 1_456
Na19 O39 2.626361 1_565
Na20 O49 2.254950 1_555
Na20 O48 2.267498 1_555
Na20 O50 2.491971 1_555
Na20 O56 2.802439 1_555
Na21 O52 2.357572 1_555
Na21 O53 2.423894 1_555
Na21 O57 2.503170 1_555
Na21 O51 2.756233 1_555
Na21 O58 2.979183 1_555
Na21 O59 3.024872 1_555
Na22 O61 2.420460 1_555
Na22 O68 2.428330 1_555
Na22 O66 2.555483 1_555
Na22 O62 2.741156 1_555
Na22 O60 2.814570 1_555
Na23 O64 2.305947 1_555
Na23 O65 2.442441 1_555
Na23 O63 2.611014 1_555
Na23 O69 2.654598 1_555
Na23 O71 2.915822 1_555
La0 O6 2.202024 1_545
La0 O7 2.262215 1_655
La0 O42 2.307987 1_655
La0 O44 2.388418 1_545
La0 O8 2.475778 1_645
La0 O43 2.493831 1_645
La1 O11 2.195462 1_545
La1 O10 2.263138 1_555
La1 O9 2.411895 1_445
La1 O45 2.422060 1_445
La1 O47 2.515327 1_555
La1 O46 2.576109 1_445
La2 O19 2.248392 1_556
La2 O56 2.311139 1_555
La2 O18 2.359122 1_556
La2 O20 2.379190 1_556
La2 O55 2.430417 1_555
La2 O54 2.450281 1_555
La3 O23 2.192478 1_555
La3 O22 2.247153 1_555
La3 O21 2.395441 1_555
La3 O57 2.406471 1_555
La3 O59 2.503251 1_555
La3 O58 2.594053 1_555
La4 O31 2.229638 1_555
La4 O66 2.294550 1_555
La4 O30 2.370677 1_555
La4 O68 2.380170 1_555
La4 O32 2.454860 1_555
La4 O67 2.473828 1_555
La5 O71 2.218531 1_555
La5 O34 2.271085 1_555
La5 O69 2.315762 1_555
La5 O35 2.402067 1_555
La5 O70 2.439413 1_555
La5 O33 2.456333 1_555
Mg0 O2 1.982660 1_455
Mg0 O0 2.119449 1_555
Mg0 O37 2.204291 1_445
Mg0 O38 2.299514 1_555
Mg0 O1 2.400865 1_445
Mg0 O36 2.432275 1_545
Mg1 O3 1.975405 1_555
Mg1 O5 2.049247 1_455
Mg1 O4 2.155702 1_445
Mg1 O40 2.328291 1_545
Mg1 O39 2.587806 1_555
Mg1 O41 2.681261 1_445
Mg2 O14 2.053396 1_555
Mg2 O12 2.108811 1_555
Mg2 O49 2.183968 1_555
Mg2 O48 2.249673 1_555
Mg2 O13 2.365538 1_555
Mg2 O50 2.390369 1_555
Mg3 O52 2.007379 1_555
Mg3 O15 2.052980 1_555
Mg3 O53 2.093989 1_555
Mg3 O51 2.226607 1_555
Mg3 O16 2.380968 1_555
Mg3 O17 2.600067 1_555
Mg4 O26 1.969471 1_554
Mg4 O61 2.021275 1_555
Mg4 O25 2.134949 1_554
Mg4 O62 2.442910 1_555
Mg4 O60 2.469482 1_555
Mg4 O24 2.512800 1_554
Mg5 O64 2.023411 1_555
Mg5 O27 2.060788 1_555
Mg5 O65 2.088822 1_555
Mg5 O63 2.248657 1_555
Mg5 O28 2.339914 1_555
Mg5 O29 2.627505 1_555
O0 Si0 1.654390 1_555
O1 S0 1.478047 1_555
O2 Si1 1.634800 1_555
O3 Si2 1.650413 1_555
O4 S1 1.494551 1_555
O5 Si3 1.663257 1_555
O6 Si3 1.632527 1_565
O7 Si2 1.634579 1_555
O8 S1 1.477266 1_455
O9 S0 1.497184 1_555
O10 Si1 1.655042 1_455
O11 Si0 1.658197 1_565
O12 Si4 1.653977 1_555
O13 S2 1.482725 1_555
O14 Si5 1.640644 1_555
O15 Si6 1.644960 1_555
O16 S3 1.481256 1_555
O17 S4 1.477808 1_555
O18 S4 1.494912 1_555
O19 Si6 1.655829 1_555
O20 S3 1.493875 1_555
O21 S2 1.492583 1_555
O22 Si5 1.649355 1_555
O23 Si4 1.654839 1_555
O24 S5 1.485914 1_555
O25 S6 1.493717 1_555
O26 Si7 1.652669 1_555
O27 Si8 1.650998 1_555
O28 S7 1.479605 1_555
O29 S8 1.476240 1_555
O30 S8 1.497856 1_555
O31 Si8 1.652780 1_555
O32 S7 1.492519 1_555
O33 S6 1.475988 1_555
O34 Si7 1.633127 1_555
O35 S5 1.480422 1_555
O36 S8 1.494490 1_555
O37 Si8 1.665684 1_555
O38 S7 1.497727 1_555
O39 S6 1.482930 1_555
O40 Si7 1.659807 1_555
O41 S5 1.490828 1_555
O42 Si4 1.658230 1_455
O43 S2 1.484428 1_565
O44 Si5 1.659728 1_555
O45 Si6 1.671733 1_555
O46 S3 1.496079 1_565
O47 S4 1.498194 1_555
O48 Si3 1.649189 1_555
O49 Si2 1.645786 1_555
O50 S1 1.483523 1_555
O51 S0 1.488172 1_555
O52 Si1 1.648533 1_555
O53 Si0 1.655169 1_555
O54 S5 1.500195 1_555
O55 S6 1.501145 1_655
O56 Si7 1.682578 1_545
O57 Si8 1.676959 1_545
O58 S7 1.495652 1_555
O59 S8 1.495191 1_655
O60 S4 1.493644 1_555
O61 Si6 1.668839 1_455
O62 S3 1.493646 1_565
O63 S2 1.489675 1_565
O64 Si5 1.652193 1_555
O65 Si4 1.654095 1_455
O66 Si0 1.661775 1_565
O67 S0 1.490829 1_555
O68 Si1 1.665806 1_455
O69 Si2 1.668581 1_555
O70 S1 1.493623 1_455
O71 Si3 1.659402 1_565
