# generated using pymatgen
data_MgCo4(AgO2)4
_symmetry_space_group_name_H-M   'P 1'
_cell_length_a   3.06107281
_cell_length_b   3.06107281
_cell_length_c   26.71018301
_cell_angle_alpha   91.01322883
_cell_angle_beta   88.98677117
_cell_angle_gamma   120.65306465
_symmetry_Int_Tables_number   1
_chemical_formula_structural   MgCo4(AgO2)4
_chemical_formula_sum   'Mg1 Co4 Ag4 O8'
_cell_volume   215.26285774
_cell_formula_units_Z   1
loop_
 _symmetry_equiv_pos_site_id
 _symmetry_equiv_pos_as_xyz
  1  'x, y, z'
loop_
 _atom_site_type_symbol
 _atom_site_label
 _atom_site_symmetry_multiplicity
 _atom_site_fract_x
 _atom_site_fract_y
 _atom_site_fract_z
 _atom_site_occupancy
  Mg  Mg0  1  0.00344846  0.99655154  0.81478761  1
  Co  Co0  1  0.33265209  0.66734791  0.13568627  1
  Co  Co1  1  0.66956931  0.33043069  0.90906027  1
  Co  Co2  1  0.66646216  0.33353784  0.60190173  1
  Co  Co3  1  0.33231898  0.66768102  0.36819120  1
  Ag  Ag0  1  -0.00778187  0.00778187  0.01991979  1
  Ag  Ag1  1  0.00075256  0.99924744  0.48504078  1
  Ag  Ag2  1  0.66975924  0.33024076  0.25135986  1
  Ag  Ag3  1  0.33707738  0.66292262  0.72252792  1
  O  O0  1  -0.01646603  0.01646603  0.09872694  1
  O  O1  1  0.99855923  0.00144077  0.94037161  1
  O  O2  1  0.00022935  -0.00022935  0.56362359  1
  O  O3  1  0.00003835  0.99996165  0.40603477  1
  O  O4  1  0.68150767  0.31849233  0.17258551  1
  O  O5  1  0.33147926  0.66852074  0.84818404  1
  O  O6  1  0.33543683  0.66456317  0.63924043  1
  O  O7  1  0.66495704  0.33504296  0.33004967  1
loop_
_geom_bond_atom_site_label_1
_geom_bond_atom_site_label_2
_geom_bond_distance
_geom_bond_site_symmetry_2
Mg0 O5 1.973757 1_455
Mg0 O5 1.973757 1_565
Mg0 O5 1.975781 1_555
Co0 O4 1.970269 1_565
Co0 O4 1.970269 1_455
Co0 O0 1.970504 1_665
Co0 O0 1.970504 1_555
Co0 O4 2.118801 1_555
Co0 O0 2.120812 1_565
Co1 O1 1.947408 1_455
Co1 O1 1.947408 1_565
Co1 O1 1.954866 1_555
Co1 O5 2.371733 1_655
Co1 O5 2.371733 1_545
Co1 O5 2.448917 1_555
Co2 O6 2.005907 1_555
Co2 O2 2.030643 1_655
Co2 O6 2.033588 1_655
Co2 O6 2.033588 1_545
Co2 O2 2.039722 1_555
Co2 O2 2.039722 1_665
Co3 O3 2.018182 1_555
Co3 O7 2.023681 1_555
Co3 O3 2.037356 1_545
Co3 O3 2.037356 1_655
Co3 O7 2.040537 1_455
Co3 O7 2.040537 1_565
Ag0 O0 2.104520 1_555
Ag0 O1 2.124328 1_454
Ag1 O2 2.098906 1_565
Ag1 O3 2.110346 1_555
Ag2 O7 2.101455 1_555
Ag2 O4 2.103733 1_555
Ag3 O6 2.224819 1_555
