# generated using pymatgen
data_MgMnS2
_symmetry_space_group_name_H-M   'P 1'
_cell_length_a   6.64248090
_cell_length_b   6.63597764
_cell_length_c   6.64248025
_cell_angle_alpha   31.77042455
_cell_angle_beta   31.76330127
_cell_angle_gamma   31.77042631
_symmetry_Int_Tables_number   1
_chemical_formula_structural   MgMnS2
_chemical_formula_sum   'Mg1 Mn1 S2'
_cell_volume   72.08229120
_cell_formula_units_Z   1
loop_
 _symmetry_equiv_pos_site_id
 _symmetry_equiv_pos_as_xyz
  1  'x, y, z'
loop_
 _atom_site_type_symbol
 _atom_site_label
 _atom_site_symmetry_multiplicity
 _atom_site_fract_x
 _atom_site_fract_y
 _atom_site_fract_z
 _atom_site_occupancy
  Mg  Mg0  1  0.16970300  0.16292900  0.16970300  1
  Mn  Mn0  1  0.99953300  0.99934800  0.99953300  1
  S  S0  1  0.58694500  0.58624400  0.58694500  1
  S  S1  1  0.41346200  0.41219200  0.41346200  1
loop_
_geom_bond_atom_site_label_1
_geom_bond_atom_site_label_2
_geom_bond_distance
_geom_bond_site_symmetry_2
Mg0 S0 2.645970 1_545
Mg0 S0 2.657459 1_455
Mg0 S0 2.657460 1_554
Mg0 S1 2.662559 1_545
Mg0 S1 2.680744 1_554
Mg0 S1 2.680745 1_455
Mn0 S0 2.579492 1_655
Mn0 S0 2.579492 1_556
Mn0 S0 2.581588 1_565
Mn0 S1 2.587031 1_566
Mn0 S1 2.587032 1_665
Mn0 S1 2.593241 1_656
