# generated using pymatgen
data_MgCo6O7F5
_symmetry_space_group_name_H-M   'P 1'
_cell_length_a   8.31287189
_cell_length_b   5.74117789
_cell_length_c   5.93027106
_cell_angle_alpha   66.15131282
_cell_angle_beta   61.35719274
_cell_angle_gamma   63.75965063
_symmetry_Int_Tables_number   1
_chemical_formula_structural   MgCo6O7F5
_chemical_formula_sum   'Mg1 Co6 O7 F5'
_cell_volume   216.03738293
_cell_formula_units_Z   1
loop_
 _symmetry_equiv_pos_site_id
 _symmetry_equiv_pos_as_xyz
  1  'x, y, z'
loop_
 _atom_site_type_symbol
 _atom_site_label
 _atom_site_symmetry_multiplicity
 _atom_site_fract_x
 _atom_site_fract_y
 _atom_site_fract_z
 _atom_site_occupancy
  Mg  Mg0  1  0.50880600  0.96858900  0.50230300  1
  Co  Co0  1  0.85946200  0.67712900  0.66580200  1
  Co  Co1  1  0.30006800  0.61709900  0.65940700  1
  Co  Co2  1  0.66872100  0.36466200  0.30586900  1
  Co  Co3  1  0.19765400  0.35419300  0.34147200  1
  Co  Co4  1  0.48975300  0.99937700  0.99684800  1
  Co  Co5  1  0.01196700  0.00264600  0.99188200  1
  O  O0  1  0.33027400  0.35400900  0.98349900  1
  O  O1  1  0.66574800  0.02512000  0.63603700  1
  O  O2  1  0.38721400  0.38009400  0.43842800  1
  O  O3  1  0.33278600  0.96907200  0.36017100  1
  O  O4  1  0.66485500  0.64606800  0.01768000  1
  O  O5  1  0.00918300  0.31974200  0.68295000  1
  O  O6  1  0.02851700  0.69431400  0.30885900  1
  F  F0  1  0.62151700  0.58026400  0.53720100  1
  F  F1  1  0.31156600  0.89769000  0.86205200  1
  F  F2  1  0.94424800  0.23668500  0.22157500  1
  F  F3  1  0.01722500  0.77607300  0.78846200  1
  F  F4  1  0.70876500  0.07765000  0.13997600  1
loop_
_geom_bond_atom_site_label_1
_geom_bond_atom_site_label_2
_geom_bond_distance
_geom_bond_site_symmetry_2
Mg0 O1 2.002724 1_565
Mg0 O3 2.007091 1_555
Mg0 O2 2.068438 1_565
Co0 O5 1.861127 1_655
Co0 O6 1.888713 1_655
Co0 O4 1.929034 1_556
Co0 O1 1.938614 1_565
Co0 F3 2.116416 1_655
Co1 O2 1.937455 1_555
Co1 O0 1.954018 1_555
Co1 F3 1.972091 1_555
Co1 O3 2.104747 1_555
Co1 F0 2.340525 1_555
Co1 F1 2.420770 1_555
Co2 O4 1.818237 1_555
Co2 F2 1.935714 1_555
Co2 F0 1.998931 1_555
Co2 O2 2.052170 1_555
Co2 F4 2.075026 1_555
Co2 O1 2.131691 1_555
Co3 O6 1.831614 1_555
Co3 O0 1.865232 1_554
Co3 O5 1.871654 1_555
Co3 O3 1.971738 1_545
Co3 O2 1.995189 1_555
Co4 O0 1.868848 1_565
Co4 O3 1.891435 1_556
Co4 O4 1.899308 1_556
Co4 O1 1.917021 1_565
Co4 F1 2.334768 1_555
Co4 F4 2.598160 1_566
Co5 O5 1.994376 1_555
Co5 O6 2.006932 1_546
Co5 F2 2.013401 1_456
Co5 F3 2.077817 1_545
Co5 F1 2.090071 1_545
Co5 F4 2.129193 1_456
F0 Mg0 1.963867 1_555
F1 Mg0 1.984927 1_555
F4 Mg0 2.044570 1_545
