# generated using pymatgen
data_Na6Ca3Si2Ge(SO6)4
_symmetry_space_group_name_H-M   'P 1'
_cell_length_a   9.34440848
_cell_length_b   9.38316553
_cell_length_c   22.71654988
_cell_angle_alpha   90.54432765
_cell_angle_beta   88.54875051
_cell_angle_gamma   120.45229267
_symmetry_Int_Tables_number   1
_chemical_formula_structural   Na6Ca3Si2Ge(SO6)4
_chemical_formula_sum   'Na18 Ca9 Si6 Ge3 S12 O72'
_cell_volume   1716.46193580
_cell_formula_units_Z   3
loop_
 _symmetry_equiv_pos_site_id
 _symmetry_equiv_pos_as_xyz
  1  'x, y, z'
loop_
 _atom_site_type_symbol
 _atom_site_label
 _atom_site_symmetry_multiplicity
 _atom_site_fract_x
 _atom_site_fract_y
 _atom_site_fract_z
 _atom_site_occupancy
  Na  Na0  1  0.64767389  0.00939503  0.26639216  1
  Na  Na1  1  0.36169156  0.36118026  0.23672462  1
  Na  Na2  1  0.63089579  0.64765578  0.74349922  1
  Na  Na3  1  0.31342910  0.34490002  0.59177275  1
  Na  Na4  1  0.02158791  0.69945053  0.58032345  1
  Na  Na5  1  0.65475792  0.93017040  0.57684337  1
  Na  Na6  1  0.30290524  0.97884269  0.07225643  1
  Na  Na7  1  0.05972711  0.33607336  0.06908782  1
  Na  Na8  1  0.99205623  0.68091194  0.92362566  1
  Na  Na9  1  0.69370892  0.02836316  0.90247324  1
  Na  Na10  1  0.30947452  0.30467033  0.91599461  1
  Na  Na11  1  0.68388725  0.69212359  0.42701578  1
  Na  Na12  1  0.98804088  0.00878938  0.49810519  1
  Na  Na13  1  0.01607256  0.01260964  0.99531588  1
  Na  Na14  1  0.66115727  0.30242964  0.83088521  1
  Na  Na15  1  0.67083685  0.31114017  0.34099125  1
  Na  Na16  1  0.33971279  0.64870526  0.16135973  1
  Na  Na17  1  0.36271531  0.67930652  0.67645479  1
  Ca  Ca0  1  0.00279668  0.00500559  0.35342048  1
  Ca  Ca1  1  -0.00166981  0.01044661  0.84635035  1
  Ca  Ca2  1  0.96484332  0.98235882  0.65625130  1
  Ca  Ca3  1  0.00914042  0.00075115  0.14410541  1
  Ca  Ca4  1  0.65434089  0.31271489  0.69079500  1
  Ca  Ca5  1  0.66983865  0.34809469  0.18274177  1
  Ca  Ca6  1  0.34652090  0.66878574  0.01472911  1
  Ca  Ca7  1  0.33490600  0.66442003  0.51164450  1
  Ca  Ca8  1  0.33872294  0.69071511  0.32578832  1
  Si  Si0  1  0.65514643  0.96678547  0.75791350  1
  Si  Si1  1  0.66730620  0.61904200  0.58382690  1
  Si  Si2  1  0.37867738  0.33391422  0.08198099  1
  Si  Si3  1  0.02773573  0.38196595  0.91987386  1
  Si  Si4  1  0.33660760  0.98017518  0.92453631  1
  Si  Si5  1  0.65160028  0.99847103  0.42293425  1
  Ge  Ge0  1  0.65434466  0.32155042  0.97415979  1
  Ge  Ge1  1  0.66999532  0.33370377  0.48346922  1
  Ge  Ge2  1  0.29556590  0.70184300  0.82188661  1
  S  S0  1  0.30785858  0.99116928  0.24610263  1
  S  S1  1  0.69096704  0.69740467  0.25582541  1
  S  S2  1  0.00829818  0.30933350  0.24629707  1
  S  S3  1  0.30160409  0.31884165  0.74959396  1
  S  S4  1  0.00379212  0.69006200  0.75334619  1
  S  S5  1  0.94977138  0.32434119  0.57977667  1
  S  S6  1  0.36768095  0.04497671  0.57809241  1
  S  S7  1  0.96861361  0.63682918  0.07666830  1
  S  S8  1  0.68215387  0.05554983  0.07719487  1
  S  S9  1  0.63803495  0.64479635  0.91465730  1
  S  S10  1  0.35215079  0.35808684  0.41875404  1
  S  S11  1  0.00720884  0.65508782  0.42507891  1
  O  O0  1  0.20237135  -0.01425162  0.29646319  1
  O  O1  1  0.76515843  0.77795372  0.31256489  1
  O  O2  1  0.99888036  0.19793129  0.29425386  1
  O  O3  1  0.21969571  0.22592093  0.80408383  1
  O  O4  1  0.00200431  0.78107861  0.80612711  1
  O  O5  1  0.77005873  0.97393337  0.81063460  1
  O  O6  1  0.71116933  0.91494543  0.69499276  1
  O  O7  1  0.21930569  0.21739775  0.69597885  1
  O  O8  1  0.02191512  0.78061797  0.69806056  1
  O  O9  1  0.79690811  0.79796737  0.20574399  1
  O  O10  1  0.01701188  0.23628186  0.18839899  1
  O  O11  1  0.23153631  0.99253815  0.18979529  1
  O  O12  1  0.86978576  0.33238782  0.63469514  1
  O  O13  1  0.47121512  0.11242600  0.63008586  1
  O  O14  1  0.66151846  0.52756187  0.64368374  1
  O  O15  1  0.86845005  0.54464149  0.12820792  1
  O  O16  1  0.68468588  0.14533212  0.13118442  1
  O  O17  1  0.45041095  0.32507449  0.14488560  1
  O  O18  1  0.50378368  0.32107013  0.02461426  1
  O  O19  1  0.88789912  0.55155627  0.02077434  1
  O  O20  1  0.69431508  0.15332574  0.02210936  1
  O  O21  1  0.46144832  0.14479523  0.52436528  1
  O  O22  1  0.68335439  0.50450824  0.52407472  1
  O  O23  1  0.84584487  0.30620767  0.52736208  1
  O  O24  1  0.56656927  0.67188643  0.96909500  1
  O  O25  1  0.13546407  0.44839912  0.97744892  1
  O  O26  1  0.31289223  0.87719743  0.98291870  1
  O  O27  1  0.55611418  0.87673764  0.47853247  1
  O  O28  1  0.33029915  0.43057584  0.47398379  1
  O  O29  1  0.08851799  0.66247869  0.48077715  1
  O  O30  1  0.10185864  0.64843721  0.37394431  1
  O  O31  1  0.55170276  0.92965451  0.36121962  1
  O  O32  1  0.36070021  0.46017963  0.36727763  1
  O  O33  1  0.13535632  0.53444958  0.86559623  1
  O  O34  1  0.36255494  0.87829963  0.86677360  1
  O  O35  1  0.53977521  0.62607799  0.86325048  1
  O  O36  1  0.97798502  0.79672899  0.42200273  1
  O  O37  1  0.83533917  0.01747812  0.42026660  1
  O  O38  1  0.22152990  0.18521801  0.41408623  1
  O  O39  1  0.99147956  0.19792540  0.90615841  1
  O  O40  1  0.18609057  0.01577373  0.91551438  1
  O  O41  1  0.81349490  0.77911498  0.91029915  1
  O  O42  1  0.97071440  0.17576467  0.57935813  1
  O  O43  1  0.21148496  0.05160977  0.58293209  1
  O  O44  1  0.83701259  0.80256930  0.57510451  1
  O  O45  1  0.99122613  0.80651241  0.07525530  1
  O  O46  1  0.83269461  0.03855159  0.07410254  1
  O  O47  1  0.19762279  0.16352789  0.07066706  1
  O  O48  1  0.62526961  0.12163326  0.75594087  1
  O  O49  1  0.47864946  0.36062815  0.75162620  1
  O  O50  1  0.85726202  0.52382520  0.75386916  1
  O  O51  1  0.66220738  0.52618339  0.25549602  1
  O  O52  1  0.85504180  0.32145783  0.25104432  1
  O  O53  1  0.47623053  0.14612428  0.25224181  1
  O  O54  1  0.63469774  0.47912890  0.91831157  1
  O  O55  1  0.84089257  0.37438354  0.92448367  1
  O  O56  1  0.52360273  0.15838627  0.92154807  1
  O  O57  1  0.66108658  0.18574053  0.43156775  1
  O  O58  1  0.52187729  0.37096621  0.41930474  1
  O  O59  1  0.83832890  0.49765720  0.42289508  1
  O  O60  1  0.35564677  0.49422690  0.08062466  1
  O  O61  1  0.13517322  0.65257530  0.08209828  1
  O  O62  1  0.52800144  0.89358041  0.07796956  1
  O  O63  1  0.32198472  0.86853473  0.57228007  1
  O  O64  1  0.49679746  0.62957945  0.57886189  1
  O  O65  1  0.11603955  0.47598757  0.57483760  1
  O  O66  1  0.33521219  0.84759314  0.24614654  1
  O  O67  1  0.52363837  0.68491492  0.25087715  1
  O  O68  1  0.16239868  0.47362552  0.25120864  1
  O  O69  1  0.29559147  0.47251866  0.74690715  1
  O  O70  1  0.16207840  0.67748766  0.75521164  1
  O  O71  1  0.46686652  0.78100314  0.77135830  1
loop_
_geom_bond_atom_site_label_1
_geom_bond_atom_site_label_2
_geom_bond_distance
_geom_bond_site_symmetry_2
Na0 O31 2.292829 1_545
Na0 O53 2.536359 1_555
Na0 O66 2.569629 1_545
Na0 O52 2.585378 1_555
Na0 O67 2.675964 1_545
Na0 O2 2.915389 1_555
Na1 O17 2.310461 1_555
Na1 O51 2.470966 1_555
Na1 O68 2.577515 1_555
Na1 O67 2.639562 1_555
Na1 O53 2.750198 1_555
Na2 O49 2.328916 1_555
Na2 O6 2.484092 1_555
Na2 O71 2.489017 1_555
Na2 O14 2.595867 1_555
Na2 O69 2.700847 1_555
Na2 O35 2.807954 1_555
Na2 O50 2.898553 1_555
Na3 O64 2.346755 1_555
Na3 O43 2.421385 1_555
Na3 O7 2.586558 1_555
Na3 O65 2.721711 1_555
Na3 O28 2.778823 1_555
Na3 O42 2.781994 1_455
Na4 O44 2.372584 1_455
Na4 O29 2.399704 1_555
Na4 O63 2.428009 1_555
Na4 O65 2.656380 1_555
Na4 O8 2.773588 1_555
Na4 O43 2.851179 1_565
Na5 O27 2.388123 1_555
Na5 O64 2.432090 1_555
Na5 O44 2.529447 1_555
Na5 O42 2.672094 1_565
Na5 O6 2.767151 1_555
Na5 O63 2.864771 1_555
Na6 O26 2.254075 1_554
Na6 O47 2.388165 1_565
Na6 O45 2.513979 1_455
Na6 O62 2.608194 1_555
Na6 O61 2.647707 1_555
Na6 O11 2.753314 1_555
Na7 O25 2.270738 1_554
Na7 O60 2.405624 1_555
Na7 O46 2.509524 1_455
Na7 O47 2.530018 1_555
Na7 O61 2.697340 1_555
Na7 O10 2.827826 1_555
Na8 O41 2.305242 1_555
Na8 O19 2.456722 1_556
Na8 O55 2.479860 1_555
Na8 O33 2.675995 1_655
Na8 O40 2.722747 1_665
Na8 O4 2.821875 1_655
Na8 O54 2.890962 1_555
Na8 O26 2.958869 1_655
Na9 O5 2.322932 1_545
Na9 O39 2.408836 1_555
Na9 O56 2.474607 1_555
Na9 O34 2.811526 1_545
Na9 O55 2.856697 1_555
Na9 O20 2.948626 1_556
Na10 O40 2.347280 1_555
Na10 O54 2.623337 1_555
Na10 O39 2.625897 1_455
Na10 O3 2.675201 1_555
Na11 O36 2.404344 1_555
Na11 O58 2.604356 1_555
Na11 O37 2.639087 1_565
Na11 O1 2.702737 1_555
Na11 O27 2.789808 1_555
Na11 O22 2.832803 1_555
Na11 O59 2.842578 1_555
Na12 O37 2.327614 1_555
Na12 O44 2.442677 1_545
Na12 O42 2.464733 1_555
Na12 O36 2.590399 1_545
Na12 O38 2.707697 1_655
Na12 O43 2.751897 1_655
Na13 O47 2.340776 1_556
Na13 O40 2.370344 1_555
Na13 O46 2.541251 1_456
Na13 O45 2.584875 1_446
Na13 O39 2.770197 1_455
Na13 O41 2.830935 1_445
Na14 O48 2.299171 1_555
Na14 O56 2.424561 1_555
Na14 O50 2.604301 1_555
Na14 O55 2.608006 1_555
Na14 O54 2.661293 1_555
Na14 O49 2.750762 1_555
Na15 O57 2.356755 1_555
Na15 O58 2.462749 1_555
Na15 O59 2.506663 1_555
Na15 O52 2.608429 1_555
Na15 O53 2.653527 1_555
Na15 O51 2.845568 1_555
Na16 O60 2.375135 1_555
Na16 O68 2.596795 1_555
Na16 O67 2.603174 1_555
Na16 O61 2.672503 1_555
Na16 O66 2.683532 1_555
Na16 O62 2.789202 1_555
Na17 O69 2.343969 1_555
Na17 O71 2.373056 1_555
Na17 O70 2.552324 1_555
Na17 O64 2.671090 1_555
Na17 O6 2.902137 1_555
Ca0 O37 2.197736 1_455
Ca0 O2 2.280511 1_455
Ca0 O0 2.323692 1_555
Ca0 O38 2.351863 1_555
Ca0 O1 2.366994 1_445
Ca0 O36 2.424975 1_445
Ca1 O5 2.160372 1_445
Ca1 O3 2.232827 1_555
Ca1 O39 2.238058 1_455
Ca1 O4 2.346058 1_545
Ca1 O40 2.366139 1_555
Ca1 O41 2.436739 1_445
Ca2 O6 2.275662 1_555
Ca2 O44 2.383413 1_555
Ca2 O8 2.419276 1_655
Ca2 O7 2.467294 1_665
Ca2 O42 2.510367 1_565
Ca2 O43 2.610778 1_665
Ca3 O47 2.321805 1_555
Ca3 O45 2.333635 1_445
Ca3 O9 2.366237 1_445
Ca3 O11 2.382239 1_545
Ca3 O10 2.387210 1_555
Ca3 O46 2.471720 1_455
Ca4 O48 2.239394 1_555
Ca4 O14 2.261454 1_555
Ca4 O13 2.274325 1_555
Ca4 O12 2.282317 1_555
Ca4 O49 2.329897 1_555
Ca4 O50 2.418414 1_555
Ca5 O17 2.151109 1_555
Ca5 O15 2.199499 1_555
Ca5 O16 2.286411 1_555
Ca5 O51 2.364591 1_555
Ca5 O53 2.407066 1_555
Ca5 O52 2.459020 1_555
Ca6 O25 2.190986 1_554
Ca6 O26 2.259735 1_554
Ca6 O60 2.263942 1_555
Ca6 O24 2.266164 1_554
Ca6 O61 2.410889 1_555
Ca6 O62 2.414290 1_555
Ca7 O27 2.140783 1_555
Ca7 O64 2.314029 1_555
Ca7 O28 2.327817 1_555
Ca7 O65 2.367228 1_555
Ca7 O63 2.399146 1_555
Ca7 O29 2.414922 1_555
Ca8 O31 2.271389 1_555
Ca8 O30 2.290983 1_555
Ca8 O66 2.354487 1_555
Ca8 O67 2.414368 1_555
Ca8 O32 2.471545 1_555
Ca8 O68 2.531432 1_555
Ge0 O18 1.790266 1_556
Ge0 O56 1.846122 1_555
Ge0 O55 1.895498 1_555
Ge0 O54 2.037660 1_555
Ge0 O20 2.113870 1_556
Ge0 O19 2.416892 1_556
Ge1 O57 1.783618 1_555
Ge1 O22 1.791644 1_555
Ge1 O59 2.052344 1_555
Ge1 O21 2.059333 1_555
Ge1 O23 2.068456 1_555
Ge1 O58 2.182865 1_555
Ge2 O34 1.767110 1_555
Ge2 O71 1.774663 1_555
Ge2 O33 1.806932 1_555
Ge2 O70 1.924162 1_555
O0 S0 1.475183 1_545
O1 S1 1.486211 1_555
O2 S2 1.486864 1_655
O3 S3 1.474548 1_555
O4 S4 1.470112 1_555
O5 Si0 1.607008 1_555
O6 Si0 1.661531 1_555
O7 S3 1.504751 1_555
O8 S4 1.480405 1_555
O9 S1 1.476883 1_555
O10 S2 1.496786 1_555
O11 S0 1.483484 1_555
O12 S5 1.459081 1_555
O13 S6 1.467852 1_555
O14 Si1 1.600006 1_555
O15 S7 1.462234 1_555
O16 S8 1.475160 1_555
O17 Si2 1.614091 1_555
O18 Si2 1.772601 1_555
O19 S7 1.496243 1_555
O20 S8 1.526250 1_555
O21 S6 1.506744 1_555
O22 Si1 1.773475 1_555
O23 S5 1.508971 1_555
O24 S9 1.471091 1_555
O25 Si3 1.589869 1_555
O26 Si4 1.591887 1_555
O27 Si5 1.622734 1_555
O28 S10 1.479871 1_555
O29 S11 1.475335 1_555
O30 S11 1.462186 1_555
O31 Si5 1.640697 1_555
O32 S10 1.493470 1_555
O33 Si3 1.758116 1_555
O34 Si4 1.699805 1_555
O35 S9 1.457591 1_555
O36 S11 1.488767 1_655
O37 Si5 1.633365 1_545
O38 S10 1.458956 1_555
O39 Si3 1.611232 1_655
O40 Si4 1.619851 1_545
O41 S9 1.478508 1_555
O42 S5 1.502717 1_555
O43 S6 1.493351 1_555
O44 Si1 1.655900 1_555
O45 S7 1.496757 1_555
O46 S8 1.493797 1_555
O47 Si2 1.660393 1_555
O48 Si0 1.613721 1_545
O49 S3 1.496283 1_555
O50 S4 1.463773 1_655
O51 S1 1.488508 1_555
O52 S2 1.494169 1_655
O53 S0 1.515696 1_545
O54 S9 1.541905 1_555
O55 Si3 1.711519 1_655
O56 Si4 1.699545 1_545
O57 Si5 1.723500 1_545
O58 S10 1.528670 1_555
O59 S11 1.521365 1_655
O60 Si2 1.624610 1_555
O61 S7 1.495231 1_455
O62 S8 1.471447 1_565
O63 S6 1.490920 1_565
O64 Si1 1.652306 1_555
O65 S5 1.484754 1_455
O66 S0 1.493105 1_555
O67 S1 1.514624 1_555
O68 S2 1.489026 1_555
O69 S3 1.473142 1_555
O70 S4 1.543889 1_555
O71 Si0 1.761128 1_555
