# generated using pymatgen
data_Na2Ta2Nb2Si5SO24
_symmetry_space_group_name_H-M   'P 1'
_cell_length_a   8.88990380
_cell_length_b   8.91644210
_cell_length_c   22.89857302
_cell_angle_alpha   90.00027554
_cell_angle_beta   90.07718300
_cell_angle_gamma   120.10839205
_symmetry_Int_Tables_number   1
_chemical_formula_structural   Na2Ta2Nb2Si5SO24
_chemical_formula_sum   'Na6 Ta6 Nb6 Si15 S3 O72'
_cell_volume   1570.18849556
_cell_formula_units_Z   3
loop_
 _symmetry_equiv_pos_site_id
 _symmetry_equiv_pos_as_xyz
  1  'x, y, z'
loop_
 _atom_site_type_symbol
 _atom_site_label
 _atom_site_symmetry_multiplicity
 _atom_site_fract_x
 _atom_site_fract_y
 _atom_site_fract_z
 _atom_site_occupancy
  Na  Na0  1  0.00136939  0.99637937  0.50198899  1
  Na  Na1  1  0.00542375  0.99579296  0.99644806  1
  Na  Na2  1  0.66147434  0.32451574  0.82902446  1
  Na  Na3  1  0.67153300  0.33441159  0.34151115  1
  Na  Na4  1  0.32966169  0.65530213  0.16858524  1
  Na  Na5  1  0.33734635  0.66529075  0.66240710  1
  Ta  Ta0  1  0.98531768  0.99703826  0.36013128  1
  Ta  Ta1  1  0.99571703  0.01058700  0.64122983  1
  Ta  Ta2  1  0.65767621  0.32332837  0.68568899  1
  Ta  Ta3  1  0.66749855  0.33555796  0.47868477  1
  Ta  Ta4  1  0.33299711  0.66527249  0.52302451  1
  Ta  Ta5  1  0.33987768  0.66678484  0.81100680  1
  Nb  Nb0  1  0.00656227  0.01505237  0.85659793  1
  Nb  Nb1  1  0.99870690  0.00382334  0.14454548  1
  Nb  Nb2  1  0.68027552  0.35677801  0.19051746  1
  Nb  Nb3  1  0.65948446  0.34336691  0.97363059  1
  Nb  Nb4  1  0.32560123  0.65633881  0.01970572  1
  Nb  Nb5  1  0.33233323  0.65483681  0.31546820  1
  Si  Si0  1  0.71099048  0.72162315  0.25102893  1
  Si  Si1  1  0.99975477  0.28690387  0.25068806  1
  Si  Si2  1  0.28975029  0.28925768  0.74895643  1
  Si  Si3  1  0.71328636  0.00291829  0.74945141  1
  Si  Si4  1  0.95224352  0.33952372  0.58331646  1
  Si  Si5  1  0.37661902  0.04317778  0.58175412  1
  Si  Si6  1  0.66692127  0.61849057  0.58398885  1
  Si  Si7  1  0.95795067  0.62478650  0.08196201  1
  Si  Si8  1  0.38109580  0.33470288  0.08392169  1
  Si  Si9  1  0.62230627  0.67546289  0.91633194  1
  Si  Si10  1  0.04358253  0.38289363  0.91466102  1
  Si  Si11  1  0.33168626  0.94802130  0.91625151  1
  Si  Si12  1  0.61106492  0.95347495  0.41758371  1
  Si  Si13  1  0.33412041  0.37576292  0.41913384  1
  Si  Si14  1  0.04769670  0.66687541  0.41717126  1
  S  S0  1  0.28745374  0.00073149  0.24937603  1
  S  S1  1  0.00005613  0.71356822  0.75009196  1
  S  S2  1  0.66541563  0.04752417  0.08383111  1
  O  O0  1  0.20925142  0.02770112  0.30178007  1
  O  O1  1  0.83476800  0.80739869  0.30722706  1
  O  O2  1  0.97826975  0.16575864  0.30644799  1
  O  O3  1  0.19681805  0.16895953  0.80732378  1
  O  O4  1  0.97790018  0.79413852  0.80341839  1
  O  O5  1  0.83311797  0.02070423  0.80711021  1
  O  O6  1  0.80525774  0.97194496  0.69279299  1
  O  O7  1  0.16683546  0.18718805  0.69323656  1
  O  O8  1  0.02471646  0.81773778  0.69720783  1
  O  O9  1  0.81362741  0.83374098  0.19278309  1
  O  O10  1  0.02543369  0.19244178  0.19235342  1
  O  O11  1  0.18098459  0.98012250  0.19562581  1
  O  O12  1  0.85983774  0.36057043  0.64188831  1
  O  O13  1  0.49734647  0.13540416  0.64064288  1
  O  O14  1  0.63964628  0.49778161  0.64161351  1
  O  O15  1  0.86505100  0.50453551  0.14110009  1
  O  O16  1  0.64687090  0.12960147  0.13724204  1
  O  O17  1  0.50118594  0.35113798  0.14083383  1
  O  O18  1  0.47101179  0.30492420  0.02634112  1
  O  O19  1  0.83346411  0.52319863  0.02651905  1
  O  O20  1  0.69180144  0.14934454  0.03090821  1
  O  O21  1  0.46812451  0.16683841  0.52535895  1
  O  O22  1  0.69642032  0.52876262  0.52629637  1
  O  O23  1  0.83257837  0.30555444  0.52574129  1
  O  O24  1  0.53105739  0.69737442  0.97507127  1
  O  O25  1  0.16416692  0.46884776  0.97394882  1
  O  O26  1  0.30526068  0.82946568  0.97468505  1
  O  O27  1  0.52567189  0.83171192  0.47408166  1
  O  O28  1  0.30025895  0.46668084  0.47456754  1
  O  O29  1  0.16836862  0.69648936  0.47399387  1
  O  O30  1  0.13995663  0.63871414  0.35846474  1
  O  O31  1  0.49911813  0.85927372  0.35796646  1
  O  O32  1  0.36253901  0.49580778  0.35948174  1
  O  O33  1  0.13527781  0.50161480  0.85814032  1
  O  O34  1  0.36022265  0.85747810  0.85906646  1
  O  O35  1  0.49956832  0.63951637  0.85899770  1
  O  O36  1  0.03126025  0.84069727  0.40663012  1
  O  O37  1  0.80564065  0.97123621  0.41026242  1
  O  O38  1  0.16332453  0.18574558  0.40708389  1
  O  O39  1  0.02905145  0.19247714  0.91065622  1
  O  O40  1  0.16115419  0.96932448  0.90887029  1
  O  O41  1  0.81599671  0.83846181  0.90916445  1
  O  O42  1  0.97057558  0.16422204  0.58988157  1
  O  O43  1  0.18553079  0.02260120  0.59264041  1
  O  O44  1  0.84061392  0.80928449  0.59308307  1
  O  O45  1  0.97378588  0.81431980  0.09089950  1
  O  O46  1  0.82546099  0.02844319  0.08907123  1
  O  O47  1  0.18666842  0.16395461  0.09148312  1
  O  O48  1  0.69913066  0.17826019  0.74467316  1
  O  O49  1  0.48497723  0.31568572  0.74435069  1
  O  O50  1  0.84419370  0.53766706  0.74543596  1
  O  O51  1  0.68939262  0.52495942  0.24376171  1
  O  O52  1  0.81990521  0.29566962  0.24134116  1
  O  O53  1  0.46341388  0.15654030  0.24195164  1
  O  O54  1  0.63542233  0.49738044  0.92197882  1
  O  O55  1  0.85115006  0.35617242  0.92523508  1
  O  O56  1  0.50441019  0.13984624  0.92594245  1
  O  O57  1  0.63796822  0.14599438  0.42237051  1
  O  O58  1  0.50682465  0.36010010  0.42273592  1
  O  O59  1  0.85572132  0.49648085  0.42278741  1
  O  O60  1  0.36601208  0.50920317  0.07853538  1
  O  O61  1  0.15158404  0.64771815  0.07825045  1
  O  O62  1  0.51180230  0.87081632  0.08013708  1
  O  O63  1  0.36088888  0.85440682  0.57658866  1
  O  O64  1  0.49593867  0.63904536  0.57687488  1
  O  O65  1  0.14490157  0.50714891  0.57776250  1
  O  O66  1  0.30220421  0.84351202  0.25234553  1
  O  O67  1  0.51923642  0.69989695  0.25372803  1
  O  O68  1  0.16620372  0.48244163  0.25469706  1
  O  O69  1  0.30109954  0.47793201  0.75655356  1
  O  O70  1  0.15832172  0.69548552  0.75554778  1
  O  O71  1  0.51759562  0.83224582  0.75673290  1
loop_
_geom_bond_atom_site_label_1
_geom_bond_atom_site_label_2
_geom_bond_distance
_geom_bond_site_symmetry_2
Na0 O43 2.578898 1_565
Na0 O42 2.603408 1_465
Na0 O44 2.606256 1_455
Na0 O37 2.662403 1_455
Na0 O36 2.671545 1_555
Na0 O38 2.686285 1_565
Na1 O40 2.515804 1_555
Na1 O41 2.533625 1_455
Na1 O39 2.571097 1_565
Na1 O45 2.630615 1_456
Na1 O47 2.673338 1_566
Na1 O46 2.760267 1_466
Na2 O48 2.446053 1_555
Na2 O49 2.468871 1_555
Na2 O50 2.612542 1_555
Na2 O56 2.699601 1_555
Na2 O55 2.699815 1_555
Na2 O54 2.705440 1_555
Na3 O57 2.416267 1_555
Na3 O59 2.418871 1_555
Na3 O58 2.449414 1_555
Na3 O52 2.754214 1_555
Na3 O51 2.766276 1_555
Na3 O53 2.860149 1_555
Na4 O67 2.473520 1_555
Na4 O68 2.477102 1_555
Na4 O60 2.545078 1_555
Na4 O61 2.583288 1_555
Na4 O66 2.639451 1_555
Na4 O62 2.702523 1_555
Na5 O64 2.493376 1_555
Na5 O65 2.498545 1_555
Na5 O63 2.529028 1_555
Na5 O69 2.646515 1_555
Na5 O71 2.654516 1_555
Na5 O70 2.755577 1_555
Nb0 O3 1.921843 1_555
Nb0 O5 1.933234 1_455
Nb0 O39 1.938292 1_555
Nb0 O40 2.011327 1_545
Nb0 O41 2.031609 1_445
Nb0 O4 2.218868 1_445
Nb1 O10 1.918787 1_655
Nb1 O9 1.930963 1_545
Nb1 O47 1.979634 1_655
Nb1 O45 2.009189 1_545
Nb1 O46 2.089920 1_555
Nb1 O11 2.092136 1_645
Nb2 O15 1.883689 1_555
Nb2 O51 1.902519 1_555
Nb2 O17 1.935561 1_555
Nb2 O52 1.966412 1_555
Nb2 O53 2.200989 1_555
Nb2 O16 2.252776 1_555
Nb3 O54 1.903820 1_555
Nb3 O18 1.952153 1_556
Nb3 O56 1.967754 1_555
Nb3 O19 1.984122 1_556
Nb3 O55 1.988531 1_555
Nb3 O20 2.300714 1_556
Nb4 O25 1.881774 1_554
Nb4 O26 1.938548 1_554
Nb4 O24 1.961910 1_554
Nb4 O61 2.020539 1_555
Nb4 O60 2.033837 1_555
Nb4 O62 2.264945 1_555
Nb5 O32 1.865424 1_555
Nb5 O30 1.916434 1_555
Nb5 O31 1.937191 1_555
Nb5 O68 2.048730 1_555
Nb5 O67 2.063365 1_555
Nb5 O66 2.332853 1_555
O0 S0 1.466651 1_555
O0 Ta0 2.298753 1_445
O1 Si0 1.613566 1_555
O1 Ta0 1.960387 1_555
O2 Si1 1.620875 1_555
O2 Ta0 1.967888 1_545
O3 Si2 1.653272 1_555
O4 S1 1.479385 1_655
O5 Si3 1.652245 1_555
O6 Si3 1.630154 1_565
O6 Ta1 1.949289 1_565
O7 Si2 1.627489 1_555
O7 Ta1 1.950310 1_455
O8 S1 1.474333 1_555
O8 Ta1 2.260570 1_465
O9 Si0 1.642848 1_555
O10 Si1 1.655158 1_455
O11 S0 1.505613 1_565
O12 Si4 1.632949 1_555
O12 Ta2 1.937074 1_555
O13 Si5 1.660452 1_555
O13 Ta2 1.871659 1_555
O14 Si6 1.642374 1_555
O14 Ta2 1.927074 1_555
O15 Si7 1.667368 1_555
O16 S2 1.476536 1_555
O17 Si8 1.642821 1_555
O18 Si8 1.632085 1_555
O19 Si7 1.627112 1_555
O20 S2 1.461158 1_555
O21 Si5 1.627295 1_555
O21 Ta3 1.968982 1_555
O22 Si6 1.632641 1_555
O22 Ta3 1.943518 1_555
O23 Si4 1.623125 1_555
O23 Ta3 1.943181 1_555
O24 Si9 1.633187 1_555
O25 Si10 1.658742 1_555
O26 Si11 1.647639 1_555
O27 Si12 1.613848 1_555
O27 Ta4 1.961428 1_555
O28 Si13 1.613970 1_555
O28 Ta4 1.983297 1_555
O29 Si14 1.620368 1_555
O29 Ta4 1.970837 1_555
O30 Si14 1.659056 1_555
O31 Si12 1.648404 1_555
O32 Si13 1.674807 1_555
O33 Si10 1.611599 1_555
O33 Ta5 1.989955 1_555
O34 Si11 1.623935 1_555
O34 Ta5 1.955955 1_555
O35 Si9 1.631623 1_555
O35 Ta5 1.903735 1_555
O36 Si14 1.645853 1_555
O36 Ta0 1.952901 1_455
O37 Si12 1.664692 1_555
O37 Ta0 1.886356 1_555
O38 Si13 1.634028 1_555
O38 Ta0 1.953279 1_445
O39 Si10 1.639412 1_555
O40 Si11 1.628239 1_555
O41 Si9 1.610637 1_555
O42 Si4 1.657662 1_555
O42 Ta1 1.901451 1_555
O43 Si5 1.634021 1_555
O43 Ta1 1.980032 1_455
O44 Si6 1.638724 1_555
O44 Ta1 1.962466 1_565
O45 Si7 1.636739 1_555
O46 S2 1.519890 1_555
O47 Si8 1.641977 1_555
O48 Si3 1.633849 1_555
O48 Ta2 2.027343 1_555
O49 Si2 1.633696 1_555
O49 Ta2 2.016602 1_555
O50 S1 1.486763 1_655
O50 Ta2 2.255694 1_555
O51 Si0 1.673794 1_555
O52 Si1 1.653081 1_555
O53 S0 1.492082 1_555
O54 Si9 1.654489 1_555
O55 Si10 1.622992 1_655
O56 Si11 1.642139 1_545
O57 Si12 1.613667 1_545
O57 Ta3 2.035325 1_555
O58 Si13 1.611926 1_555
O58 Ta3 2.009515 1_555
O59 Si14 1.623779 1_655
O59 Ta3 2.023368 1_555
O60 Si8 1.631982 1_555
O61 Si7 1.630785 1_455
O62 S2 1.481740 1_565
O63 Si5 1.621851 1_565
O63 Ta4 1.997371 1_555
O64 Si6 1.627701 1_555
O64 Ta4 2.002127 1_555
O65 Si4 1.617343 1_455
O65 Ta4 1.998837 1_555
O66 S0 1.473558 1_565
O67 Si0 1.617479 1_555
O68 Si1 1.627599 1_455
O69 Si2 1.643243 1_555
O69 Ta5 1.981296 1_555
O70 S1 1.499425 1_555
O70 Ta5 2.166134 1_555
O71 Si3 1.647666 1_565
O71 Ta5 1.970788 1_555
