# generated using pymatgen
data_Na2ScZnP(SO6)2
_symmetry_space_group_name_H-M   'P 1'
_cell_length_a   8.89855839
_cell_length_b   8.87710007
_cell_length_c   22.71697015
_cell_angle_alpha   89.84285444
_cell_angle_beta   90.00000000
_cell_angle_gamma   120.07999477
_symmetry_Int_Tables_number   1
_chemical_formula_structural   Na2ScZnP(SO6)2
_chemical_formula_sum   'Na12 Sc6 Zn6 P6 S12 O72'
_cell_volume   1552.81238675
_cell_formula_units_Z   6
loop_
 _symmetry_equiv_pos_site_id
 _symmetry_equiv_pos_as_xyz
  1  'x, y, z'
loop_
 _atom_site_type_symbol
 _atom_site_label
 _atom_site_symmetry_multiplicity
 _atom_site_fract_x
 _atom_site_fract_y
 _atom_site_fract_z
 _atom_site_occupancy
  Na  Na0  1  0.99903828  0.63581497  0.24682753  1
  Na  Na1  1  0.63677669  0.63581497  0.74682753  1
  Na  Na2  1  0.66167028  0.96129970  0.58146694  1
  Na  Na3  1  0.29963042  0.96129970  0.08146694  1
  Na  Na4  1  0.69601686  0.02937312  0.91366518  1
  Na  Na5  1  0.33335525  0.02937312  0.41366518  1
  Na  Na6  1  0.99145279  0.99561098  0.49739610  1
  Na  Na7  1  0.00415819  0.99561098  0.99739610  1
  Na  Na8  1  0.66318351  0.32461783  0.83082692  1
  Na  Na9  1  0.66143532  0.32461783  0.33082692  1
  Na  Na10  1  0.33429631  0.66179863  0.16434846  1
  Na  Na11  1  0.32750131  0.66179863  0.66434846  1
  Sc  Sc0  1  0.99462719  0.99444837  0.64867596  1
  Sc  Sc1  1  0.99982118  0.99444837  0.14867596  1
  Sc  Sc2  1  0.66923219  0.34241160  0.98211819  1
  Sc  Sc3  1  0.67318041  0.34241160  0.48211819  1
  Sc  Sc4  1  0.34523106  0.68005965  0.31524517  1
  Sc  Sc5  1  0.33482760  0.68005965  0.81524517  1
  Zn  Zn0  1  0.99367533  0.00354496  0.34940662  1
  Zn  Zn1  1  0.00986963  0.00354496  0.84940662  1
  Zn  Zn2  1  0.66639449  0.32873294  0.68276473  1
  Zn  Zn3  1  0.66233945  0.32873294  0.18276473  1
  Zn  Zn4  1  0.31855502  0.66354146  0.01593529  1
  Zn  Zn5  1  0.34498545  0.66354146  0.51593529  1
  P  P0  1  0.29692041  0.00703302  0.25141540  1
  P  P1  1  0.71011261  0.00703302  0.75141540  1
  P  P2  1  0.66346553  0.62247696  0.58546681  1
  P  P3  1  0.95901243  0.62247696  0.08546681  1
  P  P4  1  0.32842471  0.96117372  0.91841439  1
  P  P5  1  0.63274801  0.96117372  0.41841439  1
  S  S0  1  0.70737621  0.70680627  0.25059710  1
  S  S1  1  0.99893100  0.29144889  0.25037646  1
  S  S2  1  0.29251789  0.29144889  0.75037646  1
  S  S3  1  -0.00056993  0.70680627  0.75059710  1
  S  S4  1  0.96299156  0.33892331  0.58381387  1
  S  S5  1  0.37233526  0.04015205  0.58326189  1
  S  S6  1  0.66781779  0.04015205  0.08326189  1
  S  S7  1  0.37593274  0.33892331  0.08381387  1
  S  S8  1  0.62446091  0.66662995  0.91697698  1
  S  S9  1  0.04296829  0.37382729  0.91699867  1
  S  S10  1  0.33085800  0.37382729  0.41699867  1
  S  S11  1  0.04216804  0.66662995  0.41697698  1
  O  O0  1  0.21123603  0.02737598  0.30735385  1
  O  O1  1  0.81664466  0.78538614  0.30297205  1
  O  O2  1  0.97173327  0.18633672  0.30341010  1
  O  O3  1  0.21460344  0.18633672  0.80341010  1
  O  O4  1  0.96874148  0.78538614  0.80297205  1
  O  O5  1  0.81613995  0.02737598  0.80735385  1
  O  O6  1  0.79162489  0.96959058  0.69576301  1
  O  O7  1  0.18547869  0.21080628  0.69731512  1
  O  O8  1  0.03000117  0.81631414  0.69735150  1
  O  O9  1  0.78631296  0.81631414  0.19735150  1
  O  O10  1  0.02532759  0.21080628  0.19731512  1
  O  O11  1  0.17796570  0.96959058  0.19576301  1
  O  O12  1  0.88281952  0.36243321  0.63683053  1
  O  O13  1  0.48447647  0.11924452  0.63511896  1
  O  O14  1  0.63916905  0.51707985  0.64191107  1
  O  O15  1  0.87791180  0.51707985  0.14191107  1
  O  O16  1  0.63476905  0.11924452  0.13511896  1
  O  O17  1  0.47961469  0.36243321  0.13683053  1
  O  O18  1  0.45330260  0.30165954  0.03118166  1
  O  O19  1  0.84419610  0.53729892  0.03066136  1
  O  O20  1  0.69408022  0.14604729  0.02892360  1
  O  O21  1  0.45196806  0.14604729  0.52892360  1
  O  O22  1  0.69310381  0.53729892  0.53066136  1
  O  O23  1  0.84835794  0.30165954  0.53118166  1
  O  O24  1  0.54268241  0.69468540  0.96912150  1
  O  O25  1  0.14794784  0.45084942  0.97011440  1
  O  O26  1  0.30550992  0.85491730  0.97467813  1
  O  O27  1  0.54940638  0.85491730  0.47467813  1
  O  O28  1  0.30290058  0.45084942  0.47011440  1
  O  O29  1  0.15200199  0.69468540  0.46912150  1
  O  O30  1  0.11887311  0.63792046  0.36251758  1
  O  O31  1  0.50906519  0.87448524  0.36446444  1
  O  O32  1  0.35894219  0.48161576  0.36405327  1
  O  O33  1  0.12267257  0.48161576  0.86405327  1
  O  O34  1  0.36541905  0.87448524  0.86446444  1
  O  O35  1  0.51904635  0.63792046  0.86251758  1
  O  O36  1  0.02743887  0.82547998  0.41074982  1
  O  O37  1  0.81219844  0.98062208  0.40975821  1
  O  O38  1  0.17966142  0.19493663  0.41134937  1
  O  O39  1  0.01527520  0.19493663  0.91134937  1
  O  O40  1  0.16842364  0.98062208  0.90975821  1
  O  O41  1  0.79804111  0.82547998  0.91074982  1
  O  O42  1  0.97461902  0.17521836  0.58932415  1
  O  O43  1  0.19973244  0.02532691  0.58960833  1
  O  O44  1  0.82892396  0.81100981  0.58952660  1
  O  O45  1  0.98208586  0.81100981  0.08952660  1
  O  O46  1  0.82559447  0.02532691  0.08960833  1
  O  O47  1  0.20059934  0.17521836  0.08932415  1
  O  O48  1  0.68666972  0.16522023  0.74301802  1
  O  O49  1  0.47061481  0.31725598  0.74456968  1
  O  O50  1  0.84079804  0.53365763  0.74398769  1
  O  O51  1  0.69286059  0.53365763  0.24398769  1
  O  O52  1  0.84664217  0.31725598  0.24456968  1
  O  O53  1  0.47855152  0.16522023  0.24301802  1
  O  O54  1  0.64264735  0.50956806  0.92227659  1
  O  O55  1  0.86460044  0.35374773  0.92257671  1
  O  O56  1  0.50233708  0.14127223  0.92345565  1
  O  O57  1  0.63893616  0.14127223  0.42345565  1
  O  O58  1  0.48914829  0.35374773  0.42257671  1
  O  O59  1  0.86692171  0.50956806  0.42227659  1
  O  O60  1  0.35624895  0.49211737  0.07567623  1
  O  O61  1  0.14544590  0.65123776  0.07914632  1
  O  O62  1  0.51049379  0.86516204  0.07705238  1
  O  O63  1  0.35466725  0.86516204  0.57705238  1
  O  O64  1  0.50579086  0.65123776  0.57914632  1
  O  O65  1  0.13586741  0.49211737  0.57567623  1
  O  O66  1  0.30291434  0.83182952  0.25618844  1
  O  O67  1  0.53217373  0.68753307  0.25602355  1
  O  O68  1  0.15712443  0.46973220  0.25597144  1
  O  O69  1  0.31260678  0.46973220  0.75597144  1
  O  O70  1  0.15535834  0.68753307  0.75602355  1
  O  O71  1  0.52891418  0.83182952  0.75618844  1
loop_
_geom_bond_atom_site_label_1
_geom_bond_atom_site_label_2
_geom_bond_distance
_geom_bond_site_symmetry_2
Na0 O66 2.381256 1_655
Na0 O51 2.402758 1_555
Na0 O52 2.448506 1_555
Na0 O68 2.504607 1_655
Na0 O15 2.613083 1_555
Na0 O11 2.812831 1_655
Na0 O30 2.832810 1_655
Na0 O1 2.862418 1_555
Na1 O71 2.381263 1_555
Na1 O50 2.402767 1_555
Na1 O49 2.448506 1_555
Na1 O69 2.504615 1_555
Na1 O14 2.613085 1_555
Na1 O6 2.812831 1_555
Na1 O35 2.832813 1_555
Na1 O4 2.862418 1_555
Na2 O64 2.382531 1_555
Na2 O63 2.421768 1_555
Na2 O44 2.453083 1_555
Na2 O42 2.468575 1_565
Na2 O27 2.615676 1_555
Na2 O6 2.828434 1_555
Na2 O23 2.853629 1_565
Na2 O13 2.857107 1_565
Na3 O61 2.382531 1_555
Na3 O62 2.421751 1_555
Na3 O45 2.453090 1_455
Na3 O47 2.468582 1_565
Na3 O26 2.615672 1_554
Na3 O11 2.828437 1_555
Na3 O18 2.853629 1_565
Na3 O16 2.857107 1_565
Na4 O56 2.392464 1_555
Na4 O41 2.398435 1_545
Na4 O39 2.459243 1_655
Na4 O55 2.501210 1_555
Na4 O5 2.644751 1_555
Na4 O34 2.783511 1_545
Na4 O20 2.821597 1_556
Na4 O24 2.862133 1_545
Na5 O57 2.392481 1_555
Na5 O36 2.398429 1_545
Na5 O38 2.459236 1_555
Na5 O58 2.501210 1_555
Na5 O0 2.644748 1_555
Na5 O31 2.783511 1_545
Na5 O21 2.821600 1_555
Na5 O29 2.862133 1_545
Na6 O37 2.512830 1_555
Na6 O36 2.599793 1_655
Na6 O44 2.600552 1_555
Na6 O38 2.601380 1_665
Na6 O42 2.680170 1_565
Na6 O43 2.721340 1_665
Na7 O40 2.512830 1_555
Na7 O41 2.599793 1_455
Na7 O45 2.600552 1_456
Na7 O39 2.601380 1_565
Na7 O47 2.680170 1_566
Na7 O46 2.721340 1_466
Na8 O48 2.517306 1_555
Na8 O49 2.582390 1_555
Na8 O56 2.602211 1_555
Na8 O50 2.621657 1_555
Na8 O55 2.676164 1_555
Na8 O54 2.713720 1_555
Na9 O53 2.517306 1_555
Na9 O52 2.582390 1_555
Na9 O57 2.602211 1_555
Na9 O51 2.621657 1_555
Na9 O58 2.676164 1_555
Na9 O59 2.713720 1_555
Na10 O61 2.534210 1_555
Na10 O60 2.583853 1_555
Na10 O62 2.606350 1_555
Na10 O68 2.647789 1_555
Na10 O67 2.662557 1_555
Na10 O66 2.673717 1_555
Na11 O64 2.534210 1_555
Na11 O65 2.583853 1_555
Na11 O63 2.606350 1_555
Na11 O69 2.647789 1_555
Na11 O70 2.662557 1_555
Na11 O71 2.673718 1_555
O0 P0 1.538851 1_555
O0 Zn0 2.072130 1_455
O1 S0 1.473872 1_555
O1 Zn0 2.073131 1_565
O2 S1 1.465657 1_555
O2 Zn0 2.017738 1_555
O3 S2 1.465657 1_555
O3 Zn1 2.017738 1_555
O4 S3 1.473872 1_655
O4 Zn1 2.073131 1_665
O5 P1 1.538851 1_555
O5 Zn1 2.072130 1_655
O6 P1 1.574456 1_565
O6 Sc0 2.013754 1_555
O7 S2 1.481186 1_555
O7 Sc0 2.129760 1_445
O8 S3 1.486791 1_555
O8 Sc0 2.076469 1_455
O9 S0 1.486791 1_555
O9 Sc1 2.076469 1_555
O10 S1 1.481186 1_455
O10 Sc1 2.129760 1_445
O11 P0 1.574456 1_565
O11 Sc1 2.013754 1_455
O12 S4 1.467539 1_555
O12 Zn2 2.075593 1_555
O13 S5 1.476053 1_555
O13 Zn2 2.060025 1_555
O14 P2 1.535227 1_555
O14 Zn2 2.028063 1_555
O15 P3 1.535227 1_555
O15 Zn3 2.028063 1_555
O16 S6 1.476053 1_555
O16 Zn3 2.060025 1_555
O17 S7 1.467539 1_555
O17 Zn3 2.075593 1_555
O18 S7 1.497819 1_555
O18 Sc2 2.089536 1_554
O19 P3 1.548038 1_555
O19 Sc2 1.985830 1_554
O20 S6 1.495145 1_555
O20 Sc2 2.143408 1_554
O21 S5 1.495145 1_555
O21 Sc3 2.143409 1_555
O22 P2 1.548038 1_555
O22 Sc3 1.985830 1_555
O23 S4 1.497819 1_555
O23 Sc3 2.089536 1_555
O24 S8 1.475831 1_555
O24 Zn4 2.151914 1_556
O25 S9 1.469820 1_555
O25 Zn4 2.022527 1_556
O26 P4 1.538028 1_555
O26 Zn4 1.991726 1_556
O27 P5 1.538028 1_555
O27 Zn5 1.991726 1_555
O28 S10 1.469820 1_555
O28 Zn5 2.022527 1_555
O29 S11 1.475831 1_555
O29 Zn5 2.151914 1_555
O30 S11 1.495827 1_555
O30 Sc4 2.143104 1_555
O31 P5 1.568989 1_555
O31 Sc4 1.960293 1_555
O32 S10 1.476018 1_555
O32 Sc4 2.133602 1_555
O33 S9 1.476018 1_555
O33 Sc5 2.133602 1_555
O34 P4 1.568989 1_555
O34 Sc5 1.960293 1_555
O35 S8 1.495827 1_555
O35 Sc5 2.143104 1_555
O36 S11 1.486548 1_555
O36 Zn0 2.234904 1_465
O37 P5 1.530315 1_555
O37 Zn0 2.048896 1_565
O38 S10 1.485888 1_555
O38 Zn0 2.190934 1_455
O39 S9 1.485891 1_555
O39 Zn1 2.190934 1_555
O40 P4 1.530306 1_555
O40 Zn1 2.048896 1_565
O41 S8 1.486553 1_555
O41 Zn1 2.234904 1_665
O42 S4 1.512602 1_555
O42 Sc0 2.167771 1_545
O43 S5 1.481357 1_555
O43 Sc0 2.168706 1_445
O44 P2 1.583685 1_555
O44 Sc0 2.058277 1_555
O45 P3 1.583689 1_555
O45 Sc1 2.058277 1_555
O46 S6 1.481348 1_555
O46 Sc1 2.168706 1_545
O47 S7 1.512607 1_555
O47 Sc1 2.167771 1_445
O48 P1 1.531007 1_555
O48 Zn2 2.065094 1_555
O49 S2 1.489088 1_555
O49 Zn2 2.199559 1_555
O50 S3 1.484591 1_655
O50 Zn2 2.199083 1_555
O51 S0 1.484595 1_555
O51 Zn3 2.199083 1_555
O52 S1 1.489079 1_555
O52 Zn3 2.199559 1_555
O53 P0 1.531013 1_555
O53 Zn3 2.065094 1_555
O54 S8 1.486570 1_555
O54 Sc2 2.108710 1_555
O55 S9 1.511079 1_655
O55 Sc2 2.164696 1_555
O56 P4 1.576369 1_545
O56 Sc2 2.127098 1_555
O57 P5 1.576360 1_545
O57 Sc3 2.127098 1_555
O58 S10 1.511097 1_555
O58 Sc3 2.164696 1_555
O59 S11 1.486559 1_655
O59 Sc3 2.108710 1_555
O60 S7 1.466844 1_555
O60 Zn4 2.184118 1_555
O61 P3 1.553467 1_455
O61 Zn4 2.068164 1_555
O62 S6 1.487981 1_565
O62 Zn4 2.235515 1_555
O63 S5 1.487974 1_565
O63 Zn5 2.235515 1_555
O64 P2 1.553485 1_555
O64 Zn5 2.068164 1_555
O65 S4 1.466833 1_455
O65 Zn5 2.184118 1_555
O66 P0 1.586123 1_565
O66 Sc4 2.062875 1_555
O67 S0 1.485801 1_555
O67 Sc4 2.114358 1_555
O68 S1 1.506768 1_455
O68 Sc4 2.232035 1_555
O69 S2 1.506771 1_555
O69 Sc5 2.232035 1_555
O70 S3 1.485792 1_555
O70 Sc5 2.114358 1_555
O71 P1 1.586128 1_565
O71 Sc5 2.062875 1_555
