# generated using pymatgen
data_MgMn2Cr2O8
_symmetry_space_group_name_H-M   'P 1'
_cell_length_a   5.33996936
_cell_length_b   5.34005895
_cell_length_c   6.43044674
_cell_angle_alpha   92.63198742
_cell_angle_beta   87.36635531
_cell_angle_gamma   114.82780365
_symmetry_Int_Tables_number   1
_chemical_formula_structural   MgMn2Cr2O8
_chemical_formula_sum   'Mg1 Mn2 Cr2 O8'
_cell_volume   166.17342771
_cell_formula_units_Z   1
loop_
 _symmetry_equiv_pos_site_id
 _symmetry_equiv_pos_as_xyz
  1  'x, y, z'
loop_
 _atom_site_type_symbol
 _atom_site_label
 _atom_site_symmetry_multiplicity
 _atom_site_fract_x
 _atom_site_fract_y
 _atom_site_fract_z
 _atom_site_occupancy
  Mg  Mg0  1  0.50000000  0.50000000  0.50000000  1
  Mn  Mn0  1  0.00000000  0.00000000  0.50000000  1
  Mn  Mn1  1  0.00000000  0.00000000  0.00000000  1
  Cr  Cr0  1  0.67040400  0.32956400  0.79197500  1
  Cr  Cr1  1  0.32959600  0.67043600  0.20802500  1
  O  O0  1  0.76777200  0.23221600  0.56113300  1
  O  O1  1  0.23222900  0.76778400  0.43886700  1
  O  O2  1  0.76066000  0.23932000  0.01002400  1
  O  O3  1  0.23934000  0.76068000  0.98997600  1
  O  O4  1  0.76617500  0.69790100  0.74124900  1
  O  O5  1  0.69792100  0.76617200  0.25874900  1
  O  O6  1  0.23382500  0.30209900  0.25875100  1
  O  O7  1  0.30207900  0.23382800  0.74125100  1
loop_
_geom_bond_atom_site_label_1
_geom_bond_atom_site_label_2
_geom_bond_distance
_geom_bond_site_symmetry_2
Mg0 O5 2.081897 1_555
Mg0 O7 2.081897 1_555
Mg0 O4 2.081920 1_555
Mg0 O6 2.081920 1_555
Mg0 O1 2.462595 1_555
Mg0 O0 2.462600 1_555
Mn0 O0 2.105209 1_455
Mn0 O1 2.105213 1_545
Mn0 O4 2.220012 1_445
Mn0 O6 2.220012 1_555
Mn0 O7 2.220017 1_555
Mn0 O5 2.220017 1_445
Mn1 O2 2.151135 1_455
Mn1 O3 2.151135 1_544
Mn1 O7 2.276475 1_554
Mn1 O5 2.276475 1_445
Mn1 O6 2.276594 1_555
Mn1 O4 2.276594 1_444
Cr0 O2 1.658243 1_556
Cr0 O0 1.682040 1_555
Cr0 O7 1.853497 1_555
Cr0 O4 1.853548 1_555
Cr1 O3 1.658243 1_554
Cr1 O1 1.682037 1_555
Cr1 O5 1.853497 1_555
Cr1 O6 1.853548 1_555
