# generated using pymatgen
data_Nd2InPd2
_symmetry_space_group_name_H-M   'P 1'
_cell_length_a   7.84342692
_cell_length_b   7.84342692
_cell_length_c   3.86089002
_cell_angle_alpha   90.00000000
_cell_angle_beta   90.00000000
_cell_angle_gamma   90.00000000
_symmetry_Int_Tables_number   1
_chemical_formula_structural   Nd2InPd2
_chemical_formula_sum   'Nd4 In2 Pd4'
_cell_volume   237.51942843
_cell_formula_units_Z   2
loop_
 _symmetry_equiv_pos_site_id
 _symmetry_equiv_pos_as_xyz
  1  'x, y, z'
loop_
 _atom_site_type_symbol
 _atom_site_label
 _atom_site_symmetry_multiplicity
 _atom_site_fract_x
 _atom_site_fract_y
 _atom_site_fract_z
 _atom_site_occupancy
  Nd  Nd0  1  0.32436551  0.82436551  0.50000000  1
  Nd  Nd1  1  0.82436551  0.67563449  0.50000000  1
  Nd  Nd2  1  0.17563449  0.32436551  0.50000000  1
  Nd  Nd3  1  0.67563449  0.17563449  0.50000000  1
  In  In0  1  -0.00000000  -0.00000000  0.00000000  1
  In  In1  1  0.50000000  0.50000000  0.00000000  1
  Pd  Pd0  1  0.37267502  0.12732498  -0.00000000  1
  Pd  Pd1  1  0.87267502  0.37267502  -0.00000000  1
  Pd  Pd2  1  0.12732498  0.62732498  0.00000000  1
  Pd  Pd3  1  0.62732498  0.87267502  0.00000000  1
loop_
_geom_bond_atom_site_label_1
_geom_bond_atom_site_label_2
_geom_bond_distance
_geom_bond_site_symmetry_2
Nd0 Pd2 2.916092 1_555
Nd0 Pd2 2.916092 1_556
Nd0 Pd3 3.084917 1_556
Nd0 Pd0 3.084917 1_565
Nd0 Pd0 3.084917 1_566
Nd0 Pd3 3.084917 1_555
Nd1 Pd3 2.916092 1_556
Nd1 Pd3 2.916092 1_555
Nd1 Pd1 3.084917 1_556
Nd1 Pd1 3.084917 1_555
Nd1 Pd2 3.084917 1_656
Nd1 Pd2 3.084917 1_655
Nd2 Pd0 2.916092 1_555
Nd2 Pd0 2.916092 1_556
Nd2 Pd2 3.084917 1_555
Nd2 Pd1 3.084917 1_456
Nd2 Pd1 3.084917 1_455
Nd2 Pd2 3.084917 1_556
Nd3 Pd1 2.916092 1_555
Nd3 Pd1 2.916092 1_556
Nd3 Pd0 3.084917 1_555
Nd3 Pd0 3.084917 1_556
Nd3 Pd3 3.084917 1_546
Nd3 Pd3 3.084917 1_545
In0 Pd3 3.088940 1_445
In0 Pd2 3.088940 1_545
In0 Pd0 3.088940 1_555
In0 Pd1 3.088940 1_455
In0 Nd2 3.478070 1_554
In0 Nd1 3.478070 1_444
In0 Nd3 3.478070 1_454
In0 Nd2 3.478070 1_555
In0 Nd3 3.478070 1_455
In0 Nd1 3.478070 1_445
In0 Nd0 3.478070 1_544
In0 Nd0 3.478070 1_545
In1 Pd1 3.088940 1_555
In1 Pd0 3.088940 1_555
In1 Pd2 3.088940 1_555
In1 Pd3 3.088940 1_555
In1 Nd2 3.478070 1_554
In1 Nd1 3.478070 1_555
In1 Nd0 3.478070 1_554
In1 Nd3 3.478070 1_554
In1 Nd2 3.478070 1_555
In1 Nd1 3.478070 1_554
In1 Nd0 3.478070 1_555
In1 Nd3 3.478070 1_555
Pd0 Pd3 2.824649 1_545
Pd1 Pd2 2.824649 1_655
