# generated using pymatgen
data_Yb2InPd2
_symmetry_space_group_name_H-M   'P 1'
_cell_length_a   7.46226300
_cell_length_b   7.46226300
_cell_length_c   3.99577300
_cell_angle_alpha   90.00000000
_cell_angle_beta   90.00000000
_cell_angle_gamma   90.00000000
_symmetry_Int_Tables_number   1
_chemical_formula_structural   Yb2InPd2
_chemical_formula_sum   'Yb4 In2 Pd4'
_cell_volume   222.50609427
_cell_formula_units_Z   2
loop_
 _symmetry_equiv_pos_site_id
 _symmetry_equiv_pos_as_xyz
  1  'x, y, z'
loop_
 _atom_site_type_symbol
 _atom_site_label
 _atom_site_symmetry_multiplicity
 _atom_site_fract_x
 _atom_site_fract_y
 _atom_site_fract_z
 _atom_site_occupancy
  Yb  Yb0  1  0.33287900  0.83287900  0.50000000  1
  Yb  Yb1  1  0.83287900  0.66712100  0.50000000  1
  Yb  Yb2  1  0.16712100  0.33287900  0.50000000  1
  Yb  Yb3  1  0.66712100  0.16712100  0.50000000  1
  In  In0  1  0.00000000  0.00000000  0.00000000  1
  In  In1  1  0.50000000  0.50000000  0.00000000  1
  Pd  Pd0  1  0.36547500  0.13452500  0.00000000  1
  Pd  Pd1  1  0.86547500  0.36547500  0.00000000  1
  Pd  Pd2  1  0.13452500  0.63452500  0.00000000  1
  Pd  Pd3  1  0.63452500  0.86547500  0.00000000  1
loop_
_geom_bond_atom_site_label_1
_geom_bond_atom_site_label_2
_geom_bond_distance
_geom_bond_site_symmetry_2
In0 Pd2 2.906156 1_545
In0 Pd3 2.906156 1_445
In0 Pd0 2.906156 1_555
In0 Pd1 2.906156 1_455
In0 Yb2 3.423042 1_555
In0 Yb0 3.423042 1_545
In0 Yb2 3.423042 1_554
In0 Yb0 3.423042 1_544
In0 Yb3 3.423042 1_455
In0 Yb3 3.423042 1_454
In0 Yb1 3.423042 1_444
In0 Yb1 3.423042 1_445
In1 Pd1 2.906156 1_555
In1 Pd0 2.906156 1_555
In1 Pd2 2.906156 1_555
In1 Pd3 2.906156 1_555
In1 Yb0 3.423042 1_554
In1 Yb1 3.423042 1_555
In1 Yb2 3.423042 1_555
In1 Yb3 3.423042 1_554
In1 Yb3 3.423042 1_555
In1 Yb0 3.423042 1_555
In1 Yb2 3.423042 1_554
In1 Yb1 3.423042 1_554
Pd0 Pd3 2.839347 1_545
Pd0 Yb2 2.893675 1_554
Pd0 Yb2 2.893675 1_555
Pd0 Yb0 3.019527 1_544
Pd0 Yb0 3.019527 1_545
Pd0 Yb3 3.019527 1_554
Pd0 Yb3 3.019527 1_555
Pd1 Pd2 2.839347 1_655
Pd1 Yb3 2.893675 1_554
Pd1 Yb3 2.893675 1_555
Pd1 Yb1 3.019527 1_555
Pd1 Yb1 3.019527 1_554
Pd1 Yb2 3.019527 1_655
Pd1 Yb2 3.019527 1_654
Pd2 Yb0 2.893675 1_555
Pd2 Yb0 2.893675 1_554
Pd2 Yb2 3.019527 1_555
Pd2 Yb1 3.019527 1_455
Pd2 Yb1 3.019527 1_454
Pd2 Yb2 3.019527 1_554
Pd3 Yb1 2.893675 1_554
Pd3 Yb1 2.893675 1_555
Pd3 Yb0 3.019527 1_555
Pd3 Yb0 3.019527 1_554
Pd3 Yb3 3.019527 1_565
Pd3 Yb3 3.019527 1_564
