# generated using pymatgen
data_MgNbTlO3
_symmetry_space_group_name_H-M   'P 1'
_cell_length_a   4.17427100
_cell_length_b   4.17427100
_cell_length_c   5.09408100
_cell_angle_alpha   90.00000000
_cell_angle_beta   90.00000000
_cell_angle_gamma   90.00000000
_symmetry_Int_Tables_number   1
_chemical_formula_structural   MgNbTlO3
_chemical_formula_sum   'Mg1 Nb1 Tl1 O3'
_cell_volume   88.76200990
_cell_formula_units_Z   1
loop_
 _symmetry_equiv_pos_site_id
 _symmetry_equiv_pos_as_xyz
  1  'x, y, z'
loop_
 _atom_site_type_symbol
 _atom_site_label
 _atom_site_symmetry_multiplicity
 _atom_site_fract_x
 _atom_site_fract_y
 _atom_site_fract_z
 _atom_site_occupancy
  Mg  Mg0  1  0.00000000  0.00000000  0.50000000  1
  Nb  Nb0  1  0.50000100  0.50000100  0.50000100  1
  Tl  Tl0  1  0.00000000  0.00000000  0.00000000  1
  O  O0  1  0.50000100  0.50000100  0.00000000  1
  O  O1  1  0.50000100  0.00000000  0.50000100  1
  O  O2  1  0.00000000  0.50000100  0.50000100  1
loop_
_geom_bond_atom_site_label_1
_geom_bond_atom_site_label_2
_geom_bond_distance
_geom_bond_site_symmetry_2
Mg0 O2 2.087131 1_545
Mg0 O1 2.087131 1_455
Mg0 O2 2.087140 1_555
Mg0 O1 2.087140 1_555
Mg0 Tl0 2.547041 1_556
Mg0 Tl0 2.547041 1_555
Nb0 O2 2.087131 1_655
Nb0 O1 2.087131 1_565
Nb0 O2 2.087140 1_555
Nb0 O1 2.087140 1_555
Nb0 O0 2.547035 1_556
Nb0 O0 2.547046 1_555
