# generated using pymatgen
data_MgVCrP2(O4F)2
_symmetry_space_group_name_H-M   'P 1'
_cell_length_a   5.22305152
_cell_length_b   5.40801991
_cell_length_c   7.39841105
_cell_angle_alpha   109.92950141
_cell_angle_beta   106.68708574
_cell_angle_gamma   97.21848100
_symmetry_Int_Tables_number   1
_chemical_formula_structural   MgVCrP2(O4F)2
_chemical_formula_sum   'Mg1 V1 Cr1 P2 O8 F2'
_cell_volume   182.29970505
_cell_formula_units_Z   1
loop_
 _symmetry_equiv_pos_site_id
 _symmetry_equiv_pos_as_xyz
  1  'x, y, z'
loop_
 _atom_site_type_symbol
 _atom_site_label
 _atom_site_symmetry_multiplicity
 _atom_site_fract_x
 _atom_site_fract_y
 _atom_site_fract_z
 _atom_site_occupancy
  Mg  Mg0  1  0.07906300  0.43105800  0.82272600  1
  V  V0  1  0.00047600  0.00398000  0.00962600  1
  Cr  Cr0  1  0.48314800  0.49401200  0.48971200  1
  P  P0  1  0.43775200  0.11222100  0.75614000  1
  P  P1  1  0.56561600  0.87568200  0.23830600  1
  O  O0  1  0.29108500  0.17227500  0.91871600  1
  O  O1  1  0.34367400  0.81242400  0.61611400  1
  O  O2  1  0.33421500  0.31060900  0.65425000  1
  O  O3  1  0.25127900  0.77838100  0.08824500  1
  O  O4  1  0.76045400  0.20484500  0.85970900  1
  O  O5  1  0.63058600  0.67856100  0.34131400  1
  O  O6  1  0.62946100  0.16809900  0.39644200  1
  O  O7  1  0.72562100  0.84884000  0.08939700  1
  F  F0  1  0.13366400  0.33398300  0.26731500  1
  F  F1  1  0.84953200  0.65628000  0.73100500  1
loop_
_geom_bond_atom_site_label_1
_geom_bond_atom_site_label_2
_geom_bond_distance
_geom_bond_site_symmetry_2
Mg0 O3 2.059452 1_556
Mg0 O0 2.074774 1_555
Mg0 O4 2.078178 1_455
Mg0 O2 2.091071 1_555
Cr0 F0 1.922407 1_555
Cr0 O5 1.958042 1_555
Cr0 O6 1.994724 1_555
Cr0 O1 1.994770 1_555
Cr0 F1 2.041349 1_555
Cr0 O2 2.060041 1_555
O0 P0 1.569846 1_555
O0 V0 2.059391 1_556
O1 P0 1.518462 1_565
O2 P0 1.573160 1_555
O3 P1 1.594619 1_555
O3 V0 1.997665 1_565
O4 P0 1.569519 1_555
O4 V0 2.084927 1_656
O5 P1 1.525979 1_555
O6 P1 1.537181 1_545
O7 P1 1.543833 1_555
O7 V0 1.906455 1_665
F0 V0 1.977490 1_555
F1 Mg0 1.960737 1_655
F1 V0 2.111449 1_666
