# generated using pymatgen
data_Na2La8SiS11O48
_symmetry_space_group_name_H-M   'P 1'
_cell_length_a   19.27564323
_cell_length_b   9.63359082
_cell_length_c   25.22578202
_cell_angle_alpha   89.98861348
_cell_angle_beta   90.00590511
_cell_angle_gamma   120.04411437
_symmetry_Int_Tables_number   1
_chemical_formula_structural   Na2La8SiS11O48
_chemical_formula_sum   'Na6 La24 Si3 S33 O144'
_cell_volume   4054.89030970
_cell_formula_units_Z   3
loop_
 _symmetry_equiv_pos_site_id
 _symmetry_equiv_pos_as_xyz
  1  'x, y, z'
loop_
 _atom_site_type_symbol
 _atom_site_label
 _atom_site_symmetry_multiplicity
 _atom_site_fract_x
 _atom_site_fract_y
 _atom_site_fract_z
 _atom_site_occupancy
  Na  Na0  1  0.00144871  0.98702371  0.50023071  1
  Na  Na1  1  0.50135941  0.01788690  0.99168218  1
  Na  Na2  1  0.34096391  0.33525886  0.83713753  1
  Na  Na3  1  0.84200897  0.35203552  0.82622992  1
  Na  Na4  1  0.33058999  0.33009949  0.33471089  1
  Na  Na5  1  0.84492376  0.35142928  0.34014502  1
  La  La0  1  0.00130915  0.98857180  0.35474395  1
  La  La1  1  0.49917932  0.99914243  0.35630631  1
  La  La2  1  0.99850387  0.98689470  0.85190708  1
  La  La3  1  0.50032645  0.01240459  0.85340006  1
  La  La4  1  0.99944067  0.98885159  0.65446944  1
  La  La5  1  0.50123705  0.99906173  0.64587865  1
  La  La6  1  0.99991703  0.00207174  0.14451608  1
  La  La7  1  0.49971835  0.99900942  0.14899263  1
  La  La8  1  0.33220952  0.33451136  0.68539065  1
  La  La9  1  0.84070178  0.34535695  0.68670932  1
  La  La10  1  0.33254424  0.33467996  0.18271365  1
  La  La11  1  0.83442500  0.33167207  0.18388444  1
  La  La12  1  0.33955760  0.33469588  0.97791671  1
  La  La13  1  0.83423224  0.33392754  0.98026166  1
  La  La14  1  0.33325786  0.33422028  0.48364607  1
  La  La15  1  0.83982066  0.34357937  0.48101086  1
  La  La16  1  0.16570669  0.66491209  0.01858621  1
  La  La17  1  0.66123179  0.65246622  0.01645954  1
  La  La18  1  0.15980436  0.66845085  0.51896705  1
  La  La19  1  0.66665748  0.66872736  0.52306252  1
  La  La20  1  0.15787083  0.66306854  0.31544821  1
  La  La21  1  0.66802947  0.66715343  0.31206468  1
  La  La22  1  0.16076544  0.66819366  0.80798053  1
  La  La23  1  0.66006302  0.65403914  0.81437829  1
  Si  Si0  1  0.99603014  0.70007665  0.75171261  1
  Si  Si1  1  0.51773214  0.36769116  0.91659034  1
  Si  Si2  1  0.01659564  0.66497693  0.41672199  1
  S  S0  1  0.14892287  0.00564841  0.24941290  1
  S  S1  1  0.64759868  0.00387553  0.25150831  1
  S  S2  1  0.35369740  0.70410981  0.25154413  1
  S  S3  1  0.85340024  0.70309771  0.24982522  1
  S  S4  1  0.99769814  0.28913820  0.25039242  1
  S  S5  1  0.49775161  0.29192939  0.25128011  1
  S  S6  1  0.14973975  0.29394005  0.75113333  1
  S  S7  1  0.64769783  0.29098122  0.74957243  1
  S  S8  1  0.49779098  0.70559242  0.75056567  1
  S  S9  1  0.35457904  0.00486039  0.74941791  1
  S  S10  1  0.85151176  0.00142577  0.75176792  1
  S  S11  1  0.47928154  0.33201196  0.58357701  1
  S  S12  1  0.98071527  0.32521927  0.58258479  1
  S  S13  1  0.18515438  0.04227186  0.58285973  1
  S  S14  1  0.68753916  0.04299472  0.58305169  1
  S  S15  1  0.33322156  0.62697154  0.58326440  1
  S  S16  1  0.83491167  0.63260309  0.58204877  1
  S  S17  1  0.48039227  0.63179921  0.08332969  1
  S  S18  1  0.98009435  0.62668954  0.08328456  1
  S  S19  1  0.33452586  0.03779913  0.08305351  1
  S  S20  1  0.83241139  0.03924041  0.08310828  1
  S  S21  1  0.18731374  0.33422051  0.08253874  1
  S  S22  1  0.68544482  0.32916251  0.08340447  1
  S  S23  1  0.31375461  0.66712350  0.91651153  1
  S  S24  1  0.81309390  0.66303399  0.91653593  1
  S  S25  1  0.01892409  0.37259513  0.91628729  1
  S  S26  1  0.16803327  0.96128769  0.91658239  1
  S  S27  1  0.66696554  0.96381141  0.91692498  1
  S  S28  1  0.31337277  0.96473365  0.41555042  1
  S  S29  1  0.81290269  0.96046633  0.41643958  1
  S  S30  1  0.16823869  0.37141074  0.41659006  1
  S  S31  1  0.66774978  0.37578382  0.41579816  1
  S  S32  1  0.51933787  0.66208749  0.41554557  1
  O  O0  1  0.11117963  0.02871714  0.29752327  1
  O  O1  1  0.60752059  0.02502679  0.29872320  1
  O  O2  1  0.40550747  0.78449929  0.29867681  1
  O  O3  1  0.90258716  0.77903501  0.29783068  1
  O  O4  1  0.48713724  0.19081488  0.29853270  1
  O  O5  1  0.98679708  0.19095816  0.29821218  1
  O  O6  1  0.11073389  0.19460900  0.79841645  1
  O  O7  1  0.60841663  0.19222161  0.79764996  1
  O  O8  1  0.48685320  0.78239260  0.79832555  1
  O  O9  1  0.98550768  0.79175159  0.80340349  1
  O  O10  1  0.40402191  0.02849753  0.79755578  1
  O  O11  1  0.90314125  0.02667113  0.79874392  1
  O  O12  1  0.39528825  0.98968396  0.70167372  1
  O  O13  1  0.89017338  0.98481096  0.70285315  1
  O  O14  1  0.10260500  0.21882212  0.70241675  1
  O  O15  1  0.59830652  0.21021761  0.70183915  1
  O  O16  1  0.00561620  0.80511653  0.69773981  1
  O  O17  1  0.50478735  0.80060603  0.70222387  1
  O  O18  1  0.39370595  0.80030718  0.20298086  1
  O  O19  1  0.89238012  0.79997572  0.20198402  1
  O  O20  1  0.00472124  0.20811154  0.20208585  1
  O  O21  1  0.50746505  0.21539368  0.20284015  1
  O  O22  1  0.10029926  0.98919760  0.20169225  1
  O  O23  1  0.59956812  0.98408835  0.20304270  1
  O  O24  1  0.44045552  0.35607395  0.63073312  1
  O  O25  1  0.94179924  0.34534170  0.63036489  1
  O  O26  1  0.23337313  0.12399573  0.63072685  1
  O  O27  1  0.73699888  0.11706905  0.63049464  1
  O  O28  1  0.32222568  0.52496698  0.63069753  1
  O  O29  1  0.82476018  0.53702123  0.63004797  1
  O  O30  1  0.44025931  0.53381310  0.13158148  1
  O  O31  1  0.94117913  0.52574665  0.13111314  1
  O  O32  1  0.32548912  0.11666854  0.13136462  1
  O  O33  1  0.82193993  0.11900769  0.13119311  1
  O  O34  1  0.23750228  0.35766338  0.13099176  1
  O  O35  1  0.73339988  0.34381111  0.13160791  1
  O  O36  1  0.22554724  0.30929019  0.03583137  1
  O  O37  1  0.72437313  0.30708217  0.03578221  1
  O  O38  1  0.43007272  0.55529011  0.03598822  1
  O  O39  1  0.92918131  0.54954152  0.03604698  1
  O  O40  1  0.34683444  0.13873984  0.03579772  1
  O  O41  1  0.84531822  0.14315378  0.03605993  1
  O  O42  1  0.22668854  0.14182886  0.53487709  1
  O  O43  1  0.72518339  0.14168152  0.53506203  1
  O  O44  1  0.34594963  0.54879284  0.53558515  1
  O  O45  1  0.84461500  0.55246805  0.53441675  1
  O  O46  1  0.42936360  0.30925454  0.53554816  1
  O  O47  1  0.93059152  0.30631746  0.53477430  1
  O  O48  1  0.27386888  0.68315083  0.96515045  1
  O  O49  1  0.77374044  0.67866812  0.96488105  1
  O  O50  1  0.06678436  0.45342058  0.96495146  1
  O  O51  1  0.56994259  0.45695297  0.97038407  1
  O  O52  1  0.16058534  0.86505535  0.96506285  1
  O  O53  1  0.65951582  0.87017544  0.96526312  1
  O  O54  1  0.27662565  0.87011686  0.46377546  1
  O  O55  1  0.77280380  0.86341438  0.46426673  1
  O  O56  1  0.16123502  0.45042925  0.46471811  1
  O  O57  1  0.65830762  0.45341864  0.46371205  1
  O  O58  1  0.07085729  0.68254893  0.46932630  1
  O  O59  1  0.56673003  0.68033874  0.46377810  1
  O  O60  1  0.06164588  0.64929445  0.36312735  1
  O  O61  1  0.55911404  0.64202509  0.36787078  1
  O  O62  1  0.26441619  0.88754061  0.36776901  1
  O  O63  1  0.76499111  0.87850182  0.36813299  1
  O  O64  1  0.17805302  0.46694967  0.36828511  1
  O  O65  1  0.67758687  0.47592467  0.36796165  1
  O  O66  1  0.05741171  0.47355815  0.86912332  1
  O  O67  1  0.56323943  0.47547715  0.86391815  1
  O  O68  1  0.17937854  0.88408420  0.86925096  1
  O  O69  1  0.67697705  0.88814861  0.86894519  1
  O  O70  1  0.26703089  0.65252130  0.86878142  1
  O  O71  1  0.76391025  0.64119563  0.86881698  1
  O  O72  1  0.00754373  0.82809251  0.41351164  1
  O  O73  1  0.51107551  0.80655065  0.40891118  1
  O  O74  1  0.39465295  0.98338032  0.40859377  1
  O  O75  1  0.89429173  0.97922906  0.41233614  1
  O  O76  1  0.09511556  0.20889467  0.41241091  1
  O  O77  1  0.59470941  0.21559514  0.40870475  1
  O  O78  1  0.01039761  0.21334688  0.91099674  1
  O  O79  1  0.50794914  0.18587977  0.91436312  1
  O  O80  1  0.09592586  0.97645200  0.91198089  1
  O  O81  1  0.59383771  0.98036550  0.91302934  1
  O  O82  1  0.39604462  0.81186298  0.91403865  1
  O  O83  1  0.89317864  0.80675645  0.91181871  1
  O  O84  1  0.48774277  0.18881485  0.59057767  1
  O  O85  1  0.98890619  0.18033162  0.58683991  1
  O  O86  1  0.10437441  0.02631777  0.58567154  1
  O  O87  1  0.60618825  0.02291830  0.59030216  1
  O  O88  1  0.40604062  0.78662737  0.59055054  1
  O  O89  1  0.90674081  0.79609938  0.58564483  1
  O  O90  1  0.48847971  0.79444834  0.08969709  1
  O  O91  1  0.98836113  0.78690576  0.09124917  1
  O  O92  1  0.40721918  0.01990399  0.08934087  1
  O  O93  1  0.90536962  0.02526401  0.09104393  1
  O  O94  1  0.10680686  0.19096883  0.09136540  1
  O  O95  1  0.60359519  0.18299937  0.08875229  1
  O  O96  1  0.34543442  0.15040497  0.74419921  1
  O  O97  1  0.84169750  0.14581828  0.74659401  1
  O  O98  1  0.23153835  0.31006596  0.74581306  1
  O  O99  1  0.72809480  0.30639236  0.74461482  1
  O  O100  1  0.42514770  0.54086081  0.74523742  1
  O  O101  1  0.91545532  0.51827736  0.74789572  1
  O  O102  1  0.34609940  0.54112102  0.24631683  1
  O  O103  1  0.84339967  0.53910279  0.24441146  1
  O  O104  1  0.42530067  0.31010246  0.24602544  1
  O  O105  1  0.92516562  0.30912130  0.24510836  1
  O  O106  1  0.23095229  0.15232725  0.24426040  1
  O  O107  1  0.72896348  0.14833397  0.24616020  1
  O  O108  1  0.32151215  0.52056795  0.92144408  1
  O  O109  1  0.82207486  0.51649232  0.92187890  1
  O  O110  1  0.42712627  0.34941015  0.91944645  1
  O  O111  1  0.93698781  0.35594877  0.92225889  1
  O  O112  1  0.24040856  0.12488873  0.92188385  1
  O  O113  1  0.73941134  0.12848773  0.92188915  1
  O  O114  1  0.32337026  0.12976454  0.42043376  1
  O  O115  1  0.81960680  0.12112910  0.41978100  1
  O  O116  1  0.24093036  0.35128009  0.42051054  1
  O  O117  1  0.73925889  0.35574619  0.41990886  1
  O  O118  1  0.43742787  0.51704109  0.41979827  1
  O  O119  1  0.92593838  0.50258249  0.41913218  1
  O  O120  1  0.17872333  0.47779020  0.07596892  1
  O  O121  1  0.67819836  0.47362421  0.07858771  1
  O  O122  1  0.06009687  0.64337672  0.07611905  1
  O  O123  1  0.56020651  0.64906961  0.07821902  1
  O  O124  1  0.26272865  0.87794490  0.07677429  1
  O  O125  1  0.76147556  0.88077893  0.07628496  1
  O  O126  1  0.17930271  0.88447431  0.57775872  1
  O  O127  1  0.67772848  0.87991037  0.57490702  1
  O  O128  1  0.26226489  0.64278127  0.57547335  1
  O  O129  1  0.76205303  0.64715167  0.57497009  1
  O  O130  1  0.06064197  0.47006135  0.57636963  1
  O  O131  1  0.55939681  0.47614817  0.57590822  1
  O  O132  1  0.15780695  0.86302659  0.25483710  1
  O  O133  1  0.65549442  0.85935687  0.25819314  1
  O  O134  1  0.27453243  0.68809405  0.25783562  1
  O  O135  1  0.77301031  0.68683163  0.25639058  1
  O  O136  1  0.07019638  0.44909951  0.25487450  1
  O  O137  1  0.56990857  0.45240158  0.25781985  1
  O  O138  1  0.16010299  0.45534162  0.75714866  1
  O  O139  1  0.65590459  0.45121479  0.75476692  1
  O  O140  1  0.07599257  0.68379675  0.75864158  1
  O  O141  1  0.57009870  0.69090464  0.75507399  1
  O  O142  1  0.27527160  0.86100850  0.75500631  1
  O  O143  1  0.77224228  0.85675550  0.75861515  1
loop_
_geom_bond_atom_site_label_1
_geom_bond_atom_site_label_2
_geom_bond_distance
_geom_bond_site_symmetry_2
Na0 O72 2.706457 1_555
Na0 O86 2.823506 1_565
Na0 O89 2.827567 1_455
Na0 O85 2.958422 1_465
Na0 O76 2.978373 1_565
Na0 O75 3.005302 1_455
Na1 O79 2.496481 1_555
Na1 O82 2.804042 1_545
Na1 O81 2.809098 1_545
Na2 O110 2.619292 1_555
Na2 O112 2.915474 1_555
Na2 O108 2.919290 1_555
Na2 O100 2.951468 1_555
Na2 O96 2.971610 1_555
Na2 O98 3.049858 1_555
Na3 O101 2.490551 1_555
Na3 O97 2.823455 1_555
Na3 O99 2.878553 1_555
Na3 O109 3.015073 1_555
Na3 O111 3.025100 1_555
Na4 O116 2.840246 1_555
Na4 O114 2.854752 1_555
Na4 O118 2.894520 1_555
Na4 O106 2.921433 1_555
Na4 O102 2.929824 1_555
Na4 O104 2.954322 1_555
Na5 O119 2.500529 1_555
Na5 O115 2.847860 1_555
Na5 O117 2.878259 1_555
Na5 O105 2.989690 1_555
Na5 O103 3.025402 1_555
La0 O72 2.187993 1_555
La0 O0 2.428687 1_565
La0 O3 2.431309 1_455
La0 O76 2.459342 1_565
La0 O75 2.487704 1_455
La0 O5 2.541295 1_465
La1 O74 2.348699 1_555
La1 O77 2.375243 1_565
La1 O73 2.383444 1_555
La1 O2 2.431331 1_555
La1 O1 2.452020 1_565
La1 O4 2.452637 1_565
La2 O9 2.150168 1_555
La2 O83 2.426744 1_555
La2 O80 2.453876 1_655
La2 O11 2.455366 1_565
La2 O6 2.483881 1_665
La2 O78 2.556162 1_665
La3 O79 2.221376 1_555
La3 O7 2.388556 1_555
La3 O10 2.396254 1_555
La3 O81 2.482575 1_545
La3 O82 2.494719 1_545
La3 O8 2.516439 1_545
La4 O16 2.132790 1_655
La4 O13 2.417780 1_555
La4 O14 2.431999 1_665
La4 O89 2.516615 1_555
La4 O86 2.550058 1_665
La4 O85 2.593866 1_565
La5 O87 2.376079 1_565
La5 O88 2.396579 1_555
La5 O17 2.410388 1_555
La5 O15 2.412675 1_565
La5 O84 2.414610 1_565
La5 O12 2.444515 1_555
La6 O93 2.365979 1_555
La6 O94 2.366332 1_655
La6 O91 2.385466 1_545
La6 O20 2.423734 1_655
La6 O22 2.465616 1_645
La6 O19 2.479349 1_545
La7 O90 2.396121 1_555
La7 O18 2.403623 1_555
La7 O92 2.417137 1_565
La7 O23 2.420833 1_555
La7 O21 2.429440 1_565
La7 O95 2.430202 1_565
La8 O28 2.378956 1_555
La8 O98 2.384759 1_555
La8 O26 2.403257 1_555
La8 O96 2.421366 1_555
La8 O24 2.421609 1_555
La8 O100 2.423799 1_555
La9 O101 2.197867 1_555
La9 O25 2.412167 1_555
La9 O97 2.452206 1_555
La9 O29 2.472578 1_555
La9 O99 2.484059 1_555
La9 O27 2.538097 1_555
La10 O34 2.347999 1_555
La10 O30 2.380329 1_555
La10 O32 2.412959 1_555
La10 O106 2.426131 1_555
La10 O102 2.465472 1_555
La10 O104 2.495323 1_555
La11 O33 2.351428 1_555
La11 O31 2.376799 1_555
La11 O35 2.402540 1_555
La11 O105 2.423122 1_555
La11 O103 2.451406 1_555
La11 O107 2.474706 1_555
La12 O110 2.192165 1_555
La12 O112 2.422452 1_555
La12 O40 2.445238 1_556
La12 O108 2.445249 1_555
La12 O38 2.448295 1_556
La12 O36 2.546712 1_556
La13 O111 2.385094 1_555
La13 O109 2.393476 1_555
La13 O41 2.407629 1_556
La13 O113 2.409200 1_555
La13 O39 2.416281 1_556
La13 O37 2.442286 1_556
La14 O42 2.347820 1_555
La14 O44 2.354578 1_555
La14 O46 2.376827 1_555
La14 O116 2.454168 1_555
La14 O114 2.466535 1_555
La14 O118 2.487206 1_555
La15 O119 2.234247 1_555
La15 O47 2.378605 1_555
La15 O45 2.384928 1_555
La15 O43 2.494168 1_555
La15 O115 2.508991 1_555
La15 O117 2.524612 1_555
La16 O50 2.393311 1_554
La16 O52 2.395786 1_554
La16 O48 2.414193 1_554
La16 O120 2.420667 1_555
La16 O122 2.423015 1_555
La16 O124 2.453835 1_555
La17 O51 2.162542 1_554
La17 O49 2.431473 1_554
La17 O121 2.468715 1_555
La17 O53 2.477120 1_554
La17 O123 2.481351 1_555
La17 O125 2.567863 1_555
La18 O58 2.181450 1_555
La18 O130 2.396766 1_555
La18 O126 2.426840 1_555
La18 O56 2.518733 1_555
La18 O54 2.530285 1_555
La18 O128 2.545955 1_555
La19 O127 2.336918 1_555
La19 O129 2.349698 1_555
La19 O131 2.377466 1_555
La19 O55 2.461846 1_555
La19 O59 2.484798 1_555
La19 O57 2.497316 1_555
La20 O60 2.158338 1_555
La20 O136 2.439740 1_555
La20 O132 2.459597 1_555
La20 O62 2.487885 1_555
La20 O64 2.496451 1_555
La20 O134 2.585482 1_555
La21 O135 2.391557 1_555
La21 O65 2.398893 1_555
La21 O133 2.404268 1_555
La21 O137 2.410846 1_555
La21 O63 2.414379 1_555
La21 O61 2.437107 1_555
La22 O140 2.118310 1_555
La22 O138 2.413272 1_555
La22 O142 2.449899 1_555
La22 O68 2.469238 1_555
La22 O66 2.474393 1_555
La22 O70 2.622936 1_555
La23 O67 2.188348 1_555
La23 O139 2.435121 1_555
La23 O141 2.446886 1_555
La23 O71 2.481009 1_555
La23 O143 2.497853 1_555
La23 O69 2.520384 1_555
O0 S0 1.487866 1_555
O1 S1 1.488217 1_555
O2 S2 1.495461 1_555
O3 S3 1.485308 1_555
O4 S5 1.487136 1_555
O5 S4 1.481374 1_555
O6 S6 1.477480 1_555
O7 S7 1.492564 1_555
O8 S8 1.483220 1_555
O9 Si0 1.643550 1_555
O10 S9 1.489050 1_555
O11 S10 1.487047 1_555
O12 S9 1.484186 1_565
O13 S10 1.491051 1_565
O14 S6 1.483625 1_555
O15 S7 1.489980 1_555
O16 Si0 1.650479 1_455
O17 S8 1.489654 1_555
O18 S2 1.496129 1_555
O19 S3 1.479722 1_555
O20 S4 1.489552 1_455
O21 S5 1.486759 1_555
O22 S0 1.484513 1_565
O23 S1 1.487054 1_565
O24 S11 1.484205 1_555
O25 S12 1.482865 1_555
O26 S13 1.486320 1_555
O27 S14 1.472856 1_555
O28 S15 1.494421 1_555
O29 S16 1.473574 1_555
O30 S17 1.496521 1_555
O31 S18 1.494422 1_555
O32 S19 1.491899 1_555
O33 S20 1.502763 1_555
O34 S21 1.503970 1_555
O35 S22 1.490692 1_555
O36 S21 1.471926 1_555
O37 S22 1.487130 1_555
O38 S17 1.481375 1_555
O39 S18 1.484978 1_555
O40 S19 1.480368 1_555
O41 S20 1.490902 1_555
O42 S13 1.502248 1_555
O43 S14 1.484862 1_555
O44 S15 1.503149 1_555
O45 S16 1.489860 1_555
O46 S11 1.493459 1_555
O47 S12 1.498296 1_555
O48 S23 1.496490 1_555
O49 S24 1.483258 1_555
O50 S25 1.498399 1_555
O51 Si1 1.651457 1_555
O52 S26 1.497330 1_555
O53 S27 1.480225 1_555
O54 S28 1.471632 1_555
O55 S29 1.484345 1_555
O56 S30 1.474776 1_555
O57 S31 1.479886 1_555
O58 Si2 1.644999 1_555
O59 S32 1.478111 1_555
O60 Si2 1.654207 1_555
O61 S32 1.490031 1_555
O62 S28 1.481133 1_555
O63 S29 1.493739 1_555
O64 S30 1.480865 1_555
O65 S31 1.496397 1_555
O66 S25 1.479556 1_555
O67 Si1 1.643390 1_555
O68 S26 1.479806 1_555
O69 S27 1.474681 1_555
O70 S23 1.467512 1_555
O71 S24 1.480611 1_555
O72 Si2 1.667560 1_555
O73 S32 1.487293 1_555
O74 S28 1.495303 1_555
O75 S29 1.490195 1_555
O76 S30 1.496430 1_555
O77 S31 1.490015 1_555
O78 S25 1.464919 1_555
O79 Si1 1.666063 1_555
O80 S26 1.473079 1_555
O81 S27 1.499027 1_555
O82 S23 1.499818 1_555
O83 S24 1.474426 1_555
O84 S11 1.478513 1_555
O85 S12 1.485018 1_555
O86 S13 1.487801 1_555
O87 S14 1.492021 1_555
O88 S15 1.485902 1_555
O89 S16 1.490769 1_555
O90 S17 1.503585 1_555
O91 S18 1.483867 1_555
O92 S19 1.503360 1_555
O93 S20 1.491799 1_555
O94 S21 1.489208 1_555
O95 S22 1.505160 1_555
O96 S9 1.503906 1_555
O97 S10 1.500392 1_555
O98 S6 1.510946 1_555
O99 S7 1.486241 1_555
O100 S8 1.507362 1_555
O101 Si0 1.662861 1_555
O102 S2 1.508003 1_555
O103 S3 1.498965 1_555
O104 S5 1.497770 1_555
O105 S4 1.509636 1_555
O106 S0 1.508779 1_555
O107 S1 1.493016 1_555
O108 S23 1.497499 1_555
O109 S24 1.511863 1_555
O110 Si1 1.666870 1_555
O111 S25 1.513030 1_655
O112 S26 1.498830 1_545
O113 S27 1.504729 1_545
O114 S28 1.507711 1_545
O115 S29 1.489676 1_545
O116 S30 1.510877 1_555
O117 S31 1.488069 1_555
O118 S32 1.499227 1_555
O119 Si2 1.663539 1_655
O120 S21 1.482247 1_555
O121 S22 1.471612 1_555
O122 S18 1.479324 1_455
O123 S17 1.467965 1_555
O124 S19 1.475760 1_565
O125 S20 1.462723 1_565
O126 S13 1.472596 1_565
O127 S14 1.499637 1_565
O128 S15 1.463231 1_555
O129 S16 1.490267 1_555
O130 S12 1.480714 1_455
O131 S11 1.484274 1_555
O132 S0 1.473545 1_565
O133 S1 1.483910 1_565
O134 S2 1.463496 1_555
O135 S3 1.486622 1_555
O136 S4 1.477846 1_455
O137 S5 1.482776 1_555
O138 S6 1.472971 1_555
O139 S7 1.476664 1_555
O140 Si0 1.634878 1_455
O141 S8 1.474113 1_555
O142 S9 1.468307 1_565
O143 S10 1.474621 1_565
