# generated using pymatgen
data_Na3YZr3(PO4)6
_symmetry_space_group_name_H-M   'P 1'
_cell_length_a   9.04902406
_cell_length_b   9.05314324
_cell_length_c   23.48234990
_cell_angle_alpha   89.89809810
_cell_angle_beta   90.08870756
_cell_angle_gamma   120.31640920
_symmetry_Int_Tables_number   1
_chemical_formula_structural   Na3YZr3(PO4)6
_chemical_formula_sum   'Na9 Y3 Zr9 P18 O72'
_cell_volume   1660.65333042
_cell_formula_units_Z   3
loop_
 _symmetry_equiv_pos_site_id
 _symmetry_equiv_pos_as_xyz
  1  'x, y, z'
loop_
 _atom_site_type_symbol
 _atom_site_label
 _atom_site_symmetry_multiplicity
 _atom_site_fract_x
 _atom_site_fract_y
 _atom_site_fract_z
 _atom_site_occupancy
  Na  Na0  1  0.36454256  0.36074691  0.24853583  1
  Na  Na1  1  0.63574236  0.63322082  0.74948778  1
  Na  Na2  1  0.96937183  0.29978469  0.41574269  1
  Na  Na3  1  0.00036648  0.99280534  0.50010945  1
  Na  Na4  1  0.99988475  0.99991463  0.00139775  1
  Na  Na5  1  0.66696364  0.32607083  0.83416440  1
  Na  Na6  1  0.66734147  0.33364393  0.33062795  1
  Na  Na7  1  0.33276878  0.67354902  0.16504539  1
  Na  Na8  1  0.32611533  0.66696876  0.66564924  1
  Y  Y0  1  0.99804605  0.99047652  0.35270795  1
  Y  Y1  1  0.66788013  0.32639895  0.68475806  1
  Y  Y2  1  0.67406334  0.33277113  0.18215622  1
  Zr  Zr0  1  0.00187817  0.00202588  0.85498015  1
  Zr  Zr1  1  0.00240087  0.00270390  0.64630287  1
  Zr  Zr2  1  0.99767189  0.99741558  0.14645418  1
  Zr  Zr3  1  0.66630219  0.33377103  0.98188488  1
  Zr  Zr4  1  0.66043599  0.33417412  0.48269018  1
  Zr  Zr5  1  0.33385102  0.66620574  0.01871598  1
  Zr  Zr6  1  0.33558574  0.66822173  0.52001526  1
  Zr  Zr7  1  0.33537988  0.67482065  0.31349695  1
  Zr  Zr8  1  0.32737241  0.66729794  0.81574660  1
  P  P0  1  0.29104519  0.99852059  0.24937099  1
  P  P1  1  0.70424609  0.70628825  0.24965031  1
  P  P2  1  0.00112004  0.29283400  0.25159444  1
  P  P3  1  0.28748583  0.29099077  0.75119261  1
  P  P4  1  0.00374139  0.71553269  0.75086453  1
  P  P5  1  0.71181654  0.99796592  0.75154227  1
  P  P6  1  0.96125836  0.33274754  0.58179376  1
  P  P7  1  0.37029461  0.03735969  0.58281307  1
  P  P8  1  0.66709835  0.62859496  0.58407322  1
  P  P9  1  0.96313539  0.62980862  0.08175480  1
  P  P10  1  0.66707664  0.03825467  0.08194139  1
  P  P11  1  0.37138625  0.33321267  0.08317149  1
  P  P12  1  0.62305719  0.66507408  0.91624104  1
  P  P13  1  0.04089071  0.37576889  0.91733533  1
  P  P14  1  0.33441884  0.95803176  0.91719979  1
  P  P15  1  0.62198218  0.95959842  0.41819917  1
  P  P16  1  0.33732710  0.38084500  0.41687278  1
  P  P17  1  0.04350939  0.66406308  0.41848559  1
  O  O0  1  0.21398133  0.02918500  0.30257179  1
  O  O1  1  0.80828623  0.78396660  0.30307290  1
  O  O2  1  0.97989290  0.19345904  0.30666662  1
  O  O3  1  0.19830455  0.17987484  0.80367358  1
  O  O4  1  0.97858435  0.80329075  0.80332670  1
  O  O5  1  0.82202384  0.01684946  0.80407469  1
  O  O6  1  0.79458068  0.96792255  0.69791386  1
  O  O7  1  0.17820307  0.20573316  0.69737811  1
  O  O8  1  0.02781866  0.82454543  0.69694981  1
  O  O9  1  0.79217353  0.81943436  0.19666674  1
  O  O10  1  0.03150502  0.20492691  0.19920019  1
  O  O11  1  0.17739046  0.97240632  0.19639172  1
  O  O12  1  0.88579753  0.36484442  0.63472896  1
  O  O13  1  0.47693200  0.11175778  0.63605844  1
  O  O14  1  0.63581573  0.52574637  0.63876618  1
  O  O15  1  0.89145676  0.52498247  0.13543895  1
  O  O16  1  0.63322445  0.10911231  0.13554224  1
  O  O17  1  0.47269626  0.36505807  0.13817747  1
  O  O18  1  0.46329996  0.30794395  0.03112634  1
  O  O19  1  0.84639853  0.53944036  0.02932011  1
  O  O20  1  0.69348590  0.15453290  0.02942030  1
  O  O21  1  0.45955055  0.15320258  0.52989824  1
  O  O22  1  0.69208447  0.53730361  0.53160275  1
  O  O23  1  0.84941640  0.30639026  0.52765972  1
  O  O24  1  0.53655146  0.69201374  0.96796200  1
  O  O25  1  0.15401097  0.46106106  0.96931569  1
  O  O26  1  0.30687577  0.84526512  0.96921072  1
  O  O27  1  0.53267472  0.84783105  0.47016035  1
  O  O28  1  0.31297552  0.47098317  0.46857349  1
  O  O29  1  0.15422857  0.68293698  0.47051999  1
  O  O30  1  0.12698989  0.63444663  0.36468310  1
  O  O31  1  0.51218505  0.87368132  0.36426301  1
  O  O32  1  0.36158011  0.48734179  0.36183652  1
  O  O33  1  0.12788576  0.48817785  0.86351592  1
  O  O34  1  0.35972341  0.87174097  0.86340233  1
  O  O35  1  0.51446873  0.64005827  0.86131911  1
  O  O36  1  0.02247347  0.81938580  0.41513833  1
  O  O37  1  0.80325463  0.98689166  0.41453991  1
  O  O38  1  0.17291240  0.20545860  0.41384947  1
  O  O39  1  0.02313163  0.19738298  0.90939205  1
  O  O40  1  0.17408144  0.97622683  0.90911982  1
  O  O41  1  0.80319322  0.82617116  0.90908978  1
  O  O42  1  0.97835760  0.17086824  0.58880723  1
  O  O43  1  0.19140542  0.02071071  0.58861210  1
  O  O44  1  0.82969455  0.80855231  0.58913179  1
  O  O45  1  0.97964219  0.80875298  0.08815177  1
  O  O46  1  0.82921975  0.02138923  0.08859320  1
  O  O47  1  0.19092344  0.17071247  0.08876265  1
  O  O48  1  0.69012793  0.15349713  0.74770571  1
  O  O49  1  0.46970429  0.31910767  0.74706224  1
  O  O50  1  0.83903290  0.53964263  0.74670840  1
  O  O51  1  0.67116584  0.52285318  0.24411214  1
  O  O52  1  0.84832423  0.31802146  0.24560462  1
  O  O53  1  0.46784994  0.15972202  0.24360197  1
  O  O54  1  0.64157888  0.50517869  0.92361890  1
  O  O55  1  0.86234242  0.35705813  0.92376395  1
  O  O56  1  0.49487585  0.13746291  0.92371125  1
  O  O57  1  0.64253826  0.14137656  0.42426963  1
  O  O58  1  0.49801505  0.36263295  0.42424143  1
  O  O59  1  0.86586578  0.49477674  0.42447487  1
  O  O60  1  0.35029484  0.49116913  0.07278797  1
  O  O61  1  0.14288700  0.65179974  0.07223324  1
  O  O62  1  0.50912824  0.85752415  0.07235290  1
  O  O63  1  0.34843561  0.85831796  0.57366521  1
  O  O64  1  0.50960340  0.64949554  0.57399677  1
  O  O65  1  0.14219858  0.49034089  0.57342101  1
  O  O66  1  0.30731424  0.83535347  0.25607447  1
  O  O67  1  0.52145611  0.68758413  0.25566016  1
  O  O68  1  0.17276346  0.47173001  0.25651409  1
  O  O69  1  0.30891067  0.47363430  0.75748075  1
  O  O70  1  0.16390744  0.69594547  0.75754100  1
  O  O71  1  0.53351423  0.82871202  0.75772125  1
loop_
_geom_bond_atom_site_label_1
_geom_bond_atom_site_label_2
_geom_bond_distance
_geom_bond_site_symmetry_2
Na0 O51 2.398473 1_555
Na0 O68 2.412105 1_555
Na0 O53 2.432701 1_555
Na0 O67 2.561010 1_555
Na0 O17 2.764781 1_555
Na0 O10 2.849113 1_555
Na0 O0 2.887827 1_555
Na0 O32 2.904293 1_555
Na1 O50 2.383260 1_555
Na1 O71 2.383264 1_555
Na1 O49 2.456476 1_555
Na1 O69 2.560561 1_555
Na1 O14 2.777835 1_555
Na1 O35 2.860493 1_555
Na1 O6 2.882644 1_555
Na1 O4 2.960787 1_555
Na2 O59 2.388863 1_555
Na2 O38 2.389945 1_655
Na2 O37 2.446595 1_545
Na2 O57 2.561760 1_555
Na2 O2 2.756492 1_555
Na2 O23 2.857192 1_555
Na2 O30 2.877683 1_655
Na2 O28 2.956124 1_655
Na3 O36 2.610680 1_555
Na3 O43 2.630827 1_565
Na3 O44 2.633338 1_455
Na3 O37 2.667360 1_455
Na3 O38 2.684865 1_565
Na3 O42 2.704410 1_465
Na4 O45 2.616734 1_555
Na4 O47 2.624860 1_665
Na4 O46 2.632416 1_565
Na4 O41 2.741239 1_554
Na4 O39 2.741527 1_664
Na4 O40 2.753126 1_654
Na5 O48 2.636280 1_555
Na5 O56 2.659916 1_555
Na5 O55 2.668557 1_555
Na5 O49 2.692449 1_555
Na5 O50 2.708666 1_555
Na5 O54 2.735718 1_555
Na6 O52 2.633114 1_555
Na6 O51 2.643998 1_555
Na6 O53 2.654175 1_555
Na6 O57 2.740244 1_555
Na6 O59 2.750504 1_555
Na6 O58 2.769015 1_555
Na7 O66 2.668583 1_555
Na7 O67 2.688849 1_555
Na7 O62 2.715347 1_555
Na7 O68 2.715348 1_555
Na7 O61 2.718364 1_555
Na7 O60 2.779001 1_555
Na8 O70 2.698171 1_555
Na8 O65 2.707699 1_555
Na8 O63 2.709634 1_555
Na8 O69 2.729542 1_555
Na8 O71 2.750496 1_555
Na8 O64 2.773334 1_555
O0 P0 1.524283 1_545
O0 Y0 2.154384 1_445
O1 P1 1.511859 1_555
O1 Y0 2.136103 1_555
O2 P2 1.529992 1_655
O2 Y0 2.206785 1_545
O3 P3 1.536572 1_555
O3 Zr0 2.076979 1_555
O4 P4 1.545197 1_655
O4 Zr0 2.092083 1_665
O5 P5 1.539586 1_545
O5 Zr0 2.075963 1_655
O6 P5 1.559023 1_555
O6 Zr1 2.124241 1_665
O7 P3 1.549071 1_555
O7 Zr1 2.097057 1_555
O8 P4 1.550374 1_555
O8 Zr1 2.106095 1_565
O9 P1 1.551140 1_555
O9 Zr2 2.102295 1_555
O10 P2 1.564650 1_555
O10 Zr2 2.140927 1_445
O11 P0 1.553376 1_555
O11 Zr2 2.106188 1_455
O12 P6 1.516608 1_555
O12 Y1 2.168564 1_555
O13 P7 1.513684 1_555
O13 Y1 2.163666 1_555
O14 P8 1.525563 1_555
O14 Y1 2.242396 1_555
O15 P9 1.512403 1_555
O15 Y2 2.155319 1_555
O16 P10 1.513951 1_555
O16 Y2 2.164675 1_555
O17 P11 1.524074 1_555
O17 Y2 2.236758 1_555
O18 P11 1.560117 1_555
O18 Zr3 2.082829 1_554
O19 P9 1.558318 1_555
O19 Zr3 2.074101 1_554
O20 P10 1.558413 1_555
O20 Zr3 2.082122 1_554
O21 P7 1.561893 1_555
O21 Zr4 2.051994 1_555
O22 P8 1.563796 1_555
O22 Zr4 2.063454 1_555
O23 P6 1.565386 1_555
O23 Zr4 2.128497 1_555
O24 P12 1.531033 1_555
O24 Zr5 2.100619 1_556
O25 P13 1.528232 1_555
O25 Zr5 2.096146 1_556
O26 P14 1.528281 1_555
O26 Zr5 2.104920 1_556
O27 P15 1.529340 1_555
O27 Zr6 2.065747 1_555
O28 P16 1.540872 1_555
O28 Zr6 2.080291 1_555
O29 P17 1.533017 1_555
O29 Zr6 2.067871 1_555
O30 P17 1.564412 1_555
O30 Zr7 2.108059 1_555
O31 P15 1.554259 1_555
O31 Zr7 2.077462 1_555
O32 P16 1.559100 1_555
O32 Zr7 2.150352 1_555
O33 P13 1.562779 1_555
O33 Zr8 2.047212 1_555
O34 P14 1.563205 1_555
O34 Zr8 2.054998 1_555
O35 P12 1.566078 1_555
O35 Zr8 2.118340 1_555
O36 P17 1.513103 1_555
O36 Y0 2.221202 1_455
O37 P15 1.533078 1_555
O37 Y0 2.272941 1_555
O38 P16 1.534559 1_555
O38 Y0 2.290631 1_445
O39 P13 1.551665 1_555
O39 Zr0 2.112196 1_555
O40 P14 1.551950 1_555
O40 Zr0 2.111699 1_565
O41 P12 1.553144 1_555
O41 Zr0 2.119372 1_665
O42 P6 1.557817 1_555
O42 Zr1 2.124645 1_655
O43 P7 1.554341 1_555
O43 Zr1 2.124121 1_555
O44 P8 1.553497 1_555
O44 Zr1 2.136099 1_665
O45 P9 1.557501 1_555
O45 Zr2 2.131789 1_555
O46 P10 1.557519 1_555
O46 Zr2 2.131504 1_545
O47 P11 1.556554 1_555
O47 Zr2 2.141212 1_445
O48 P5 1.519114 1_545
O48 Y1 2.232633 1_555
O49 P3 1.539398 1_555
O49 Y1 2.291083 1_555
O50 P4 1.539701 1_655
O50 Y1 2.286132 1_555
O51 P1 1.537243 1_555
O51 Y2 2.265657 1_555
O52 P2 1.516932 1_655
O52 Y2 2.220104 1_555
O53 P0 1.533182 1_545
O53 Y2 2.251076 1_555
O54 P12 1.548378 1_555
O54 Zr3 2.161500 1_555
O55 P13 1.544764 1_655
O55 Zr3 2.164037 1_555
O56 P14 1.545770 1_545
O56 Zr3 2.156336 1_555
O57 P15 1.566794 1_545
O57 Zr4 2.162674 1_555
O58 P16 1.553252 1_555
O58 Zr4 2.117811 1_555
O59 P17 1.570164 1_655
O59 Zr4 2.170390 1_555
O60 P11 1.554006 1_555
O60 Zr5 2.091826 1_555
O61 P9 1.552231 1_455
O61 Zr5 2.088317 1_555
O62 P10 1.552431 1_565
O62 Zr5 2.080911 1_555
O63 P7 1.545958 1_565
O63 Zr6 2.089893 1_555
O64 P8 1.547241 1_555
O64 Zr6 2.092318 1_555
O65 P6 1.548132 1_455
O65 Zr6 2.093571 1_555
O66 P0 1.564335 1_555
O66 Zr7 2.087934 1_555
O67 P1 1.581903 1_555
O67 Zr7 2.122079 1_555
O68 P2 1.584097 1_555
O68 Zr7 2.146534 1_555
O69 P3 1.571813 1_555
O69 Zr8 2.164716 1_555
O70 P4 1.554120 1_555
O70 Zr8 2.122079 1_555
O71 P5 1.573608 1_555
O71 Zr8 2.172678 1_555
