# generated using pymatgen
data_LiSn4Ir
_symmetry_space_group_name_H-M   'P 1'
_cell_length_a   6.62479097
_cell_length_b   6.62479086
_cell_length_c   7.37951947
_cell_angle_alpha   116.67078027
_cell_angle_beta   116.67078219
_cell_angle_gamma   89.99999293
_symmetry_Int_Tables_number   1
_chemical_formula_structural   LiSn4Ir
_chemical_formula_sum   'Li2 Sn8 Ir2'
_cell_volume   250.25075535
_cell_formula_units_Z   2
loop_
 _symmetry_equiv_pos_site_id
 _symmetry_equiv_pos_as_xyz
  1  'x, y, z'
loop_
 _atom_site_type_symbol
 _atom_site_label
 _atom_site_symmetry_multiplicity
 _atom_site_fract_x
 _atom_site_fract_y
 _atom_site_fract_z
 _atom_site_occupancy
  Li  Li0  1  0.50000000  0.50000000  -0.00000000  1
  Li  Li1  1  -0.00000000  0.00000000  -0.00000000  1
  Sn  Sn0  1  0.52306662  0.70718064  0.73024726  1
  Sn  Sn1  1  0.02306662  0.52306662  0.73024726  1
  Sn  Sn2  1  0.70718064  0.20718064  0.73024726  1
  Sn  Sn3  1  0.29281936  0.79281936  0.26975274  1
  Sn  Sn4  1  0.97693338  0.47693338  0.26975274  1
  Sn  Sn5  1  0.47693338  0.29281936  0.26975274  1
  Sn  Sn6  1  0.79281936  0.97693338  0.26975274  1
  Sn  Sn7  1  0.20718064  0.02306662  0.73024726  1
  Ir  Ir0  1  0.75000000  0.75000000  0.50000000  1
  Ir  Ir1  1  0.25000000  0.25000000  0.50000000  1
loop_
_geom_bond_atom_site_label_1
_geom_bond_atom_site_label_2
_geom_bond_distance
_geom_bond_site_symmetry_2
Li0 Sn1 2.931846 1_554
Li0 Sn4 2.931846 1_555
Li0 Sn3 2.931846 1_555
Li0 Sn2 2.931846 1_554
Li0 Sn5 2.931846 1_555
Li0 Sn0 2.931846 1_554
Li0 Sn7 2.931846 1_554
Li0 Sn6 2.931846 1_555
Li1 Sn2 2.931846 1_454
Li1 Sn3 2.931846 1_545
Li1 Sn4 2.931846 1_455
Li1 Sn1 2.931846 1_544
Li1 Sn0 2.931846 1_444
Li1 Sn5 2.931846 1_555
Li1 Sn7 2.931846 1_554
Li1 Sn6 2.931846 1_445
Ir0 Sn1 2.820194 1_655
Ir0 Sn3 2.820194 1_555
Ir0 Sn2 2.820194 1_565
Ir0 Sn4 2.820194 1_555
Ir0 Sn6 2.820194 1_555
Ir0 Sn5 2.820194 1_555
Ir0 Sn7 2.820194 1_665
Ir0 Sn0 2.820194 1_555
Ir0 Li1 2.851025 1_666
Ir0 Li0 2.851025 1_555
Ir1 Sn4 2.820194 1_455
Ir1 Sn2 2.820194 1_555
Ir1 Sn3 2.820194 1_545
Ir1 Sn1 2.820194 1_555
Ir1 Sn7 2.820194 1_555
Ir1 Sn0 2.820194 1_555
Ir1 Sn6 2.820194 1_445
Ir1 Sn5 2.820194 1_555
Ir1 Li0 2.851025 1_556
Ir1 Li1 2.851025 1_555
