# generated using pymatgen
data_MgH10SO9
_symmetry_space_group_name_H-M   'P 1'
_cell_length_a   6.25933000
_cell_length_b   6.43293484
_cell_length_c   10.52360144
_cell_angle_alpha   73.23339313
_cell_angle_beta   85.81194782
_cell_angle_gamma   75.78309860
_symmetry_Int_Tables_number   1
_chemical_formula_structural   MgH10SO9
_chemical_formula_sum   'Mg2 H20 S2 O18'
_cell_volume   393.30034789
_cell_formula_units_Z   2
loop_
 _symmetry_equiv_pos_site_id
 _symmetry_equiv_pos_as_xyz
  1  'x, y, z'
loop_
 _atom_site_type_symbol
 _atom_site_label
 _atom_site_symmetry_multiplicity
 _atom_site_fract_x
 _atom_site_fract_y
 _atom_site_fract_z
 _atom_site_occupancy
  Mg  Mg0  1  0.00000000  0.00000000  0.00000000  1
  Mg  Mg1  1  0.00000000  0.00000000  0.50000000  1
  H  H0  1  0.31707400  0.22110400  0.21546800  1
  H  H1  1  0.68292600  0.77889600  0.78453200  1
  H  H2  1  0.30405000  0.47600500  0.14268500  1
  H  H3  1  0.69595000  0.52399500  0.85731500  1
  H  H4  1  0.00035000  0.39343800  0.34121900  1
  H  H5  1  0.99965000  0.60656200  0.65878100  1
  H  H6  1  0.69518000  0.81151800  0.39536600  1
  H  H7  1  0.30482000  0.18848200  0.60463400  1
  H  H8  1  0.95247000  0.71616300  0.39830900  1
  H  H9  1  0.04753000  0.28383700  0.60169100  1
  H  H10  1  0.65127400  0.23254100  0.12054300  1
  H  H11  1  0.34872600  0.76745900  0.87945700  1
  H  H12  1  0.86248900  0.20944100  0.20100600  1
  H  H13  1  0.13751100  0.79055900  0.79899400  1
  H  H14  1  0.76969600  0.70441800  0.00137200  1
  H  H15  1  0.23030400  0.29558200  0.99862800  1
  H  H16  1  0.72704700  0.74394500  0.14332600  1
  H  H17  1  0.27295300  0.25605500  0.85667400  1
  H  H18  1  0.25636100  0.57481500  0.65419500  1
  H  H19  1  0.74363900  0.42518500  0.34580500  1
  S  S0  1  0.68702700  0.23909500  0.71467400  1
  S  S1  1  0.31297300  0.76090500  0.28532600  1
  O  O0  1  0.63945300  0.67578100  0.86582100  1
  O  O1  1  0.36054700  0.32421900  0.13417900  1
  O  O2  1  0.83286500  0.82862000  0.42579700  1
  O  O3  1  0.16713500  0.17138000  0.57420300  1
  O  O4  1  0.81393100  0.17852100  0.12285800  1
  O  O5  1  0.18606900  0.82147900  0.87714200  1
  O  O6  1  0.83762300  0.74162500  0.07183800  1
  O  O7  1  0.16237700  0.25837500  0.92816200  1
  O  O8  1  0.55824200  0.68150800  0.29783500  1
  O  O9  1  0.44175800  0.31849200  0.70216500  1
  O  O10  1  0.20508800  0.57734800  0.35547000  1
  O  O11  1  0.79491200  0.42265200  0.64453000  1
  O  O12  1  0.24215000  0.95183600  0.34646100  1
  O  O13  1  0.75785000  0.04816400  0.65353900  1
  O  O14  1  0.25653900  0.83688800  0.14197900  1
  O  O15  1  0.74346100  0.16311200  0.85802100  1
  O  O16  1  0.11528300  0.69047800  0.64760000  1
  O  O17  1  0.88471700  0.30952200  0.35240000  1
loop_
_geom_bond_atom_site_label_1
_geom_bond_atom_site_label_2
_geom_bond_distance
_geom_bond_site_symmetry_2
Mg0 O4 2.080061 1_455
Mg0 O5 2.080061 1_544
Mg0 O6 2.087996 1_445
Mg0 O7 2.087996 1_554
Mg0 O15 2.128428 1_454
Mg0 O14 2.128428 1_545
Mg1 O2 2.025389 1_445
Mg1 O3 2.025389 1_555
Mg1 O16 2.138130 1_545
Mg1 O17 2.138130 1_455
Mg1 O13 2.168997 1_455
Mg1 O12 2.168997 1_545
H0 O1 0.986471 1_555
H1 O0 0.986471 1_555
H2 O1 0.981164 1_555
H3 O0 0.981164 1_555
H4 O17 0.985876 1_455
H5 O16 0.985876 1_655
H6 O2 0.982138 1_555
H7 O3 0.982138 1_555
H8 O2 0.995280 1_555
H8 O10 1.713333 1_655
H9 O3 0.995280 1_555
H9 O11 1.713333 1_455
H10 O4 0.991405 1_555
H11 O5 0.991405 1_555
H12 O4 0.984309 1_555
H13 O5 0.984309 1_555
H14 O6 0.993182 1_555
H15 O7 0.993182 1_555
H16 O6 0.985186 1_555
H17 O7 0.985186 1_555
H18 O16 0.997319 1_555
H19 O17 0.997319 1_555
O8 S1 1.496889 1_555
O9 S0 1.496889 1_555
O10 S1 1.487006 1_555
O11 S0 1.487006 1_555
O12 S1 1.505266 1_555
O13 S0 1.505266 1_555
O14 S1 1.485582 1_555
O15 S0 1.485582 1_555
