# generated using pymatgen
data_Rb2IN3
_symmetry_space_group_name_H-M   'P 1'
_cell_length_a   6.28842983
_cell_length_b   6.28842983
_cell_length_c   8.06753408
_cell_angle_alpha   90.00000000
_cell_angle_beta   90.00000000
_cell_angle_gamma   90.00000000
_symmetry_Int_Tables_number   1
_chemical_formula_structural   Rb2IN3
_chemical_formula_sum   'Rb4 I2 N6'
_cell_volume   319.02538909
_cell_formula_units_Z   2
loop_
 _symmetry_equiv_pos_site_id
 _symmetry_equiv_pos_as_xyz
  1  'x, y, z'
loop_
 _atom_site_type_symbol
 _atom_site_label
 _atom_site_symmetry_multiplicity
 _atom_site_fract_x
 _atom_site_fract_y
 _atom_site_fract_z
 _atom_site_occupancy
  Rb  Rb0  1  0.00000000  0.00000000  0.26352581  1
  Rb  Rb1  1  0.00000000  0.00000000  0.73647419  1
  Rb  Rb2  1  0.50000000  0.50000000  0.73647419  1
  Rb  Rb3  1  0.50000000  0.50000000  0.26352581  1
  I  I0  1  0.50000000  0.00000000  -0.00000000  1
  I  I1  1  0.00000000  0.50000000  -0.00000000  1
  N  N0  1  0.86702524  0.36702524  0.50000000  1
  N  N1  1  0.63297476  0.86702524  0.50000000  1
  N  N2  1  0.36702524  0.13297476  0.50000000  1
  N  N3  1  0.13297476  0.63297476  0.50000000  1
  N  N4  1  0.00000000  0.50000000  0.50000000  1
  N  N5  1  0.50000000  0.00000000  0.50000000  1
loop_
_geom_bond_atom_site_label_1
_geom_bond_atom_site_label_2
_geom_bond_distance
_geom_bond_site_symmetry_2
I0 Rb2 3.795521 1_544
I0 Rb1 3.795521 1_654
I0 Rb1 3.795521 1_554
I0 Rb2 3.795521 1_554
I0 Rb0 3.795521 1_555
I0 Rb3 3.795521 1_545
I0 Rb3 3.795521 1_555
I0 Rb0 3.795521 1_655
I1 Rb1 3.795521 1_564
I1 Rb1 3.795521 1_554
I1 Rb2 3.795521 1_454
I1 Rb2 3.795521 1_554
I1 Rb0 3.795521 1_565
I1 Rb3 3.795521 1_455
I1 Rb0 3.795521 1_555
I1 Rb3 3.795521 1_555
N0 N4 1.182569 1_655
N0 Rb3 3.108974 1_555
N0 Rb0 3.108974 1_655
N0 Rb1 3.108974 1_655
N0 Rb2 3.108974 1_555
N1 N5 1.182569 1_565
N1 Rb3 3.108974 1_555
N1 Rb0 3.108974 1_665
N1 Rb1 3.108974 1_665
N1 Rb2 3.108974 1_555
N2 N5 1.182569 1_555
N2 Rb3 3.108974 1_555
N2 Rb0 3.108974 1_555
N2 Rb1 3.108974 1_555
N2 Rb2 3.108974 1_555
N3 N4 1.182569 1_555
N3 Rb3 3.108974 1_555
N3 Rb1 3.108974 1_565
N3 Rb0 3.108974 1_565
N3 Rb2 3.108974 1_555
