# generated using pymatgen
data_MgCu2WS4
_symmetry_space_group_name_H-M   'P 1'
_cell_length_a   5.68990406
_cell_length_b   5.68990504
_cell_length_c   6.74728088
_cell_angle_alpha   114.93844033
_cell_angle_beta   114.93845252
_cell_angle_gamma   89.99999224
_symmetry_Int_Tables_number   1
_chemical_formula_structural   MgCu2WS4
_chemical_formula_sum   'Mg1 Cu2 W1 S4'
_cell_volume   175.35870898
_cell_formula_units_Z   1
loop_
 _symmetry_equiv_pos_site_id
 _symmetry_equiv_pos_as_xyz
  1  'x, y, z'
loop_
 _atom_site_type_symbol
 _atom_site_label
 _atom_site_symmetry_multiplicity
 _atom_site_fract_x
 _atom_site_fract_y
 _atom_site_fract_z
 _atom_site_occupancy
  Mg  Mg0  1  0.50000000  0.50000000  0.00000000  1
  Cu  Cu0  1  0.50000000  0.00000000  0.00000000  1
  Cu  Cu1  1  0.00000000  0.50000000  0.00000000  1
  W  W0  1  0.00000000  0.00000000  0.00000000  1
  S  S0  1  0.88414300  0.88414300  0.24401300  1
  S  S1  1  0.35986900  0.35986900  0.24401300  1
  S  S2  1  0.11585700  0.64013100  0.75598700  1
  S  S3  1  0.64013100  0.11585700  0.75598700  1
loop_
_geom_bond_atom_site_label_1
_geom_bond_atom_site_label_2
_geom_bond_distance
_geom_bond_site_symmetry_2
Mg0 S0 2.489218 1_555
Mg0 S2 2.489221 1_554
Mg0 S3 2.489221 1_554
Mg0 S1 2.489225 1_555
Cu0 S2 2.408998 1_544
Cu0 S0 2.409000 1_545
Cu0 S1 2.409001 1_555
Cu0 S3 2.409004 1_554
Cu0 W0 2.844952 1_555
Cu0 W0 2.844952 1_655
Cu1 S3 2.408998 1_454
Cu1 S1 2.409001 1_555
Cu1 S0 2.409001 1_455
Cu1 S2 2.409004 1_554
Cu1 W0 2.844953 1_555
Cu1 W0 2.844953 1_565
S0 W0 2.326019 1_665
S1 W0 2.326013 1_555
S2 W0 2.326016 1_566
S3 W0 2.326015 1_656
