# generated using pymatgen
data_CaVNiP2O9
_symmetry_space_group_name_H-M   'P 1'
_cell_length_a   6.47149500
_cell_length_b   7.49245200
_cell_length_c   14.26355600
_cell_angle_alpha   90.00000000
_cell_angle_beta   90.00000000
_cell_angle_gamma   90.00000000
_symmetry_Int_Tables_number   1
_chemical_formula_structural   CaVNiP2O9
_chemical_formula_sum   'Ca4 V4 Ni4 P8 O36'
_cell_volume   691.60225532
_cell_formula_units_Z   4
loop_
 _symmetry_equiv_pos_site_id
 _symmetry_equiv_pos_as_xyz
  1  'x, y, z'
loop_
 _atom_site_type_symbol
 _atom_site_label
 _atom_site_symmetry_multiplicity
 _atom_site_fract_x
 _atom_site_fract_y
 _atom_site_fract_z
 _atom_site_occupancy
  Ca  Ca0  1  0.75000000  0.88029200  0.77981200  1
  Ca  Ca1  1  0.75000000  0.61970800  0.27981200  1
  Ca  Ca2  1  0.25000000  0.11970800  0.22018800  1
  Ca  Ca3  1  0.25000000  0.38029200  0.72018800  1
  V  V0  1  0.75000000  0.34579700  0.88243100  1
  V  V1  1  0.25000000  0.65420300  0.11756900  1
  V  V2  1  0.25000000  0.84579700  0.61756900  1
  V  V3  1  0.75000000  0.15420300  0.38243100  1
  Ni  Ni0  1  0.50000000  0.00000000  0.00000000  1
  Ni  Ni1  1  0.50000000  0.50000000  0.50000000  1
  Ni  Ni2  1  0.00000000  0.50000000  0.50000000  1
  Ni  Ni3  1  0.00000000  0.00000000  0.00000000  1
  P  P0  1  0.25000000  0.35131500  0.93769100  1
  P  P1  1  0.75000000  0.64868500  0.06230900  1
  P  P2  1  0.75000000  0.85131500  0.56230900  1
  P  P3  1  0.25000000  0.14868500  0.43769100  1
  P  P4  1  0.75000000  0.38574900  0.69181400  1
  P  P5  1  0.25000000  0.61425100  0.30818600  1
  P  P6  1  0.25000000  0.88574900  0.80818600  1
  P  P7  1  0.75000000  0.11425100  0.19181400  1
  O  O0  1  0.05191500  0.60691100  0.36789100  1
  O  O1  1  0.55191500  0.39308900  0.63210900  1
  O  O2  1  0.94808500  0.10691100  0.13210900  1
  O  O3  1  0.44808500  0.89308900  0.86789100  1
  O  O4  1  0.94808500  0.39308900  0.63210900  1
  O  O5  1  0.44808500  0.60691100  0.36789100  1
  O  O6  1  0.05191500  0.89308900  0.86789100  1
  O  O7  1  0.55191500  0.10691100  0.13210900  1
  O  O8  1  0.25000000  0.33442500  0.48418200  1
  O  O9  1  0.75000000  0.66557500  0.51581800  1
  O  O10  1  0.75000000  0.83442500  0.01581800  1
  O  O11  1  0.25000000  0.16557500  0.98418200  1
  O  O12  1  0.75000000  0.14321400  0.93923700  1
  O  O13  1  0.25000000  0.85678600  0.06076300  1
  O  O14  1  0.25000000  0.64321400  0.56076300  1
  O  O15  1  0.75000000  0.35678600  0.43923700  1
  O  O16  1  0.75000000  0.21315800  0.75450600  1
  O  O17  1  0.25000000  0.78684200  0.24549400  1
  O  O18  1  0.25000000  0.71315800  0.74549400  1
  O  O19  1  0.75000000  0.28684200  0.25450600  1
  O  O20  1  0.43790500  0.13086500  0.37000800  1
  O  O21  1  0.93790500  0.86913500  0.62999200  1
  O  O22  1  0.56209500  0.63086500  0.12999200  1
  O  O23  1  0.06209500  0.36913500  0.87000800  1
  O  O24  1  0.56209500  0.86913500  0.62999200  1
  O  O25  1  0.06209500  0.13086500  0.37000800  1
  O  O26  1  0.43790500  0.36913500  0.87000800  1
  O  O27  1  0.93790500  0.63086500  0.12999200  1
  O  O28  1  0.75000000  0.96535300  0.26996300  1
  O  O29  1  0.25000000  0.03464700  0.73003700  1
  O  O30  1  0.25000000  0.46535300  0.23003700  1
  O  O31  1  0.75000000  0.53464700  0.76996300  1
  O  O32  1  0.75000000  0.99251200  0.48586600  1
  O  O33  1  0.25000000  0.00748800  0.51413400  1
  O  O34  1  0.25000000  0.49251200  0.01413400  1
  O  O35  1  0.75000000  0.50748800  0.98586600  1
loop_
_geom_bond_atom_site_label_1
_geom_bond_atom_site_label_2
_geom_bond_distance
_geom_bond_site_symmetry_2
Ca0 O6 2.324872 1_655
Ca0 O3 2.324872 1_555
Ca0 O21 2.460149 1_555
Ca0 O24 2.460149 1_555
Ca0 O16 2.519968 1_565
Ca0 O31 2.593536 1_555
Ca1 O0 2.324872 1_655
Ca1 O5 2.324872 1_555
Ca1 O27 2.460149 1_555
Ca1 O22 2.460149 1_555
Ca1 O19 2.519968 1_555
Ca1 O28 2.593536 1_555
Ca2 O7 2.324872 1_555
Ca2 O2 2.324872 1_455
Ca2 O25 2.460149 1_555
Ca2 O20 2.460149 1_555
Ca2 O17 2.519968 1_545
Ca2 O30 2.593536 1_555
Ca3 O1 2.324872 1_555
Ca3 O4 2.324872 1_455
Ca3 O26 2.460149 1_555
Ca3 O23 2.460149 1_555
Ca3 O18 2.519968 1_555
Ca3 O29 2.593536 1_555
Ni0 O11 2.051199 1_554
Ni0 O10 2.051199 1_545
Ni0 O7 2.074914 1_555
Ni0 O3 2.074914 1_544
Ni0 O13 2.126043 1_545
Ni0 O12 2.126043 1_554
Ni1 O9 2.051199 1_555
Ni1 O8 2.051199 1_555
Ni1 O5 2.074914 1_555
Ni1 O1 2.074914 1_555
Ni1 O15 2.126043 1_555
Ni1 O14 2.126043 1_555
Ni2 O9 2.051199 1_455
Ni2 O8 2.051199 1_555
Ni2 O0 2.074914 1_555
Ni2 O4 2.074914 1_455
Ni2 O15 2.126043 1_455
Ni2 O14 2.126043 1_555
Ni3 O11 2.051199 1_554
Ni3 O10 2.051199 1_445
Ni3 O6 2.074914 1_544
Ni3 O2 2.074914 1_455
Ni3 O13 2.126043 1_545
Ni3 O12 2.126043 1_454
O0 P5 1.539980 1_555
O1 P4 1.539980 1_555
O2 P7 1.539980 1_555
O3 P6 1.539980 1_555
O4 P4 1.539980 1_555
O5 P5 1.539980 1_555
O6 P6 1.539980 1_555
O7 P7 1.539980 1_555
O8 P3 1.541565 1_555
O9 P2 1.541565 1_555
O10 P1 1.541565 1_555
O11 P0 1.541565 1_555
O12 V0 1.720570 1_555
O13 V1 1.720570 1_555
O14 V2 1.720570 1_555
O15 V3 1.720570 1_555
O16 P4 1.572195 1_555
O16 V0 2.077745 1_555
O17 P5 1.572195 1_555
O17 V1 2.077745 1_555
O18 P6 1.572195 1_555
O18 V2 2.077745 1_555
O19 P7 1.572195 1_555
O19 V3 2.077745 1_555
O20 P3 1.558379 1_555
O20 V3 2.035006 1_555
O21 P2 1.558379 1_555
O21 V2 2.035006 1_655
O22 P1 1.558379 1_555
O22 V1 2.035006 1_555
O23 P0 1.558379 1_555
O23 V0 2.035006 1_455
O24 P2 1.558379 1_555
O24 V2 2.035006 1_555
O25 P3 1.558379 1_555
O25 V3 2.035006 1_455
O26 P0 1.558379 1_555
O26 V0 2.035006 1_555
O27 P1 1.558379 1_555
O27 V1 2.035006 1_655
O28 P7 1.577056 1_565
O28 V3 2.139046 1_565
O29 P6 1.577056 1_545
O29 V2 2.139046 1_545
O30 P5 1.577056 1_555
O30 V1 2.139046 1_555
O31 P4 1.577056 1_555
O31 V0 2.139046 1_555
O32 P2 1.519223 1_555
O32 V3 1.909005 1_565
O33 P3 1.519223 1_555
O33 V2 1.909005 1_545
O34 P0 1.519223 1_554
O34 V1 1.909005 1_555
O35 P1 1.519223 1_556
O35 V0 1.909005 1_555
