# generated using pymatgen
data_AuSeBr
_symmetry_space_group_name_H-M   'P 1'
_cell_length_a   6.92433513
_cell_length_b   7.51845485
_cell_length_c   12.45785328
_cell_angle_alpha   90.00000000
_cell_angle_beta   90.00000000
_cell_angle_gamma   90.00000000
_symmetry_Int_Tables_number   1
_chemical_formula_structural   AuSeBr
_chemical_formula_sum   'Au8 Se8 Br8'
_cell_volume   648.55959208
_cell_formula_units_Z   8
loop_
 _symmetry_equiv_pos_site_id
 _symmetry_equiv_pos_as_xyz
  1  'x, y, z'
loop_
 _atom_site_type_symbol
 _atom_site_label
 _atom_site_symmetry_multiplicity
 _atom_site_fract_x
 _atom_site_fract_y
 _atom_site_fract_z
 _atom_site_occupancy
  Au  Au0  1  0.33551189  0.74992127  0.75000000  1
  Au  Au1  1  0.83551189  0.75007873  0.75000000  1
  Au  Au2  1  0.16448811  0.24992127  0.25000000  1
  Au  Au3  1  0.66448811  0.25007873  0.25000000  1
  Au  Au4  1  0.58609214  0.36178584  0.75000000  1
  Au  Au5  1  0.08609214  0.13821416  0.75000000  1
  Au  Au6  1  0.91390786  0.86178584  0.25000000  1
  Au  Au7  1  0.41390786  0.63821416  0.25000000  1
  Se  Se0  1  0.58503797  0.61944069  0.87299955  1
  Se  Se1  1  0.08503797  0.88055931  0.62700045  1
  Se  Se2  1  0.41496203  0.38055931  0.37299955  1
  Se  Se3  1  0.58503797  0.61944069  0.62700045  1
  Se  Se4  1  0.08503797  0.88055931  0.87299955  1
  Se  Se5  1  0.91496203  0.11944069  0.37299955  1
  Se  Se6  1  0.41496203  0.38055931  0.12700045  1
  Se  Se7  1  0.91496203  0.11944069  0.12700045  1
  Br  Br0  1  0.91349001  0.63226432  0.39426733  1
  Br  Br1  1  0.08650999  0.36773568  0.89426733  1
  Br  Br2  1  0.58650999  0.13226432  0.60573267  1
  Br  Br3  1  0.58650999  0.13226432  0.89426733  1
  Br  Br4  1  0.41349001  0.86773568  0.39426733  1
  Br  Br5  1  0.91349001  0.63226432  0.10573267  1
  Br  Br6  1  0.41349001  0.86773568  0.10573267  1
  Br  Br7  1  0.08650999  0.36773568  0.60573267  1
loop_
_geom_bond_atom_site_label_1
_geom_bond_atom_site_label_2
_geom_bond_distance
_geom_bond_site_symmetry_2
Au0 Se3 2.509116 1_555
Au0 Se0 2.509116 1_555
Au0 Se1 2.514102 1_555
Au0 Se4 2.514102 1_555
Au1 Se1 2.509116 1_655
Au1 Se4 2.509116 1_655
Au1 Se3 2.514102 1_555
Au1 Se0 2.514102 1_555
Au2 Se5 2.509116 1_455
Au2 Se7 2.509116 1_455
Au2 Se2 2.514102 1_555
Au2 Se6 2.514102 1_555
Au3 Se2 2.509116 1_555
Au3 Se6 2.509116 1_555
Au3 Se5 2.514102 1_555
Au3 Se7 2.514102 1_555
Au4 Se3 2.469948 1_555
Au4 Se0 2.469948 1_555
Au4 Br3 2.491589 1_555
Au4 Br2 2.491589 1_555
Au5 Se1 2.469948 1_545
Au5 Se4 2.469948 1_545
Au5 Br1 2.491589 1_555
Au5 Br7 2.491589 1_555
Au6 Se7 2.469948 1_565
Au6 Se5 2.469948 1_565
Au6 Br5 2.491589 1_555
Au6 Br0 2.491589 1_555
Au7 Se6 2.469948 1_555
Au7 Se2 2.469948 1_555
Au7 Br6 2.491589 1_555
Au7 Br4 2.491589 1_555
