# generated using pymatgen
data_NaZr2Al2P3(SO8)3
_symmetry_space_group_name_H-M   'P 1'
_cell_length_a   8.66353770
_cell_length_b   8.67435167
_cell_length_c   22.39102910
_cell_angle_alpha   90.12232969
_cell_angle_beta   89.56973881
_cell_angle_gamma   120.04926502
_symmetry_Int_Tables_number   1
_chemical_formula_structural   NaZr2Al2P3(SO8)3
_chemical_formula_sum   'Na3 Zr6 Al6 P9 S9 O72'
_cell_volume   1456.49218914
_cell_formula_units_Z   3
loop_
 _symmetry_equiv_pos_site_id
 _symmetry_equiv_pos_as_xyz
  1  'x, y, z'
loop_
 _atom_site_type_symbol
 _atom_site_label
 _atom_site_symmetry_multiplicity
 _atom_site_fract_x
 _atom_site_fract_y
 _atom_site_fract_z
 _atom_site_occupancy
  Na  Na0  1  0.67930912  0.33529744  0.83405819  1
  Na  Na1  1  0.66196803  0.34040147  0.32977314  1
  Na  Na2  1  0.34883222  0.67664883  0.17363960  1
  Zr  Zr0  1  0.00588416  0.99243472  0.35412981  1
  Zr  Zr1  1  0.99313477  0.00186832  0.85381403  1
  Zr  Zr2  1  0.99342624  0.99179750  0.64735037  1
  Zr  Zr3  1  0.99988912  0.99860163  0.14384907  1
  Zr  Zr4  1  0.33437565  0.66290946  0.02563346  1
  Zr  Zr5  1  0.32784510  0.66280018  0.52282917  1
  Al  Al0  1  0.67076199  0.33184375  0.68906264  1
  Al  Al1  1  0.65112119  0.32746724  0.18708299  1
  Al  Al2  1  0.67051538  0.32520179  0.98168196  1
  Al  Al3  1  0.66518416  0.33847791  0.47468107  1
  Al  Al4  1  0.33264475  0.66194135  0.31470239  1
  Al  Al5  1  0.32110384  0.66784480  0.81166683  1
  P  P0  1  0.30507660  0.99467609  0.24948716  1
  P  P1  1  0.69362916  0.69326010  0.24972390  1
  P  P2  1  0.99762870  0.69405792  0.75021817  1
  P  P3  1  0.68864746  0.99570594  0.75071859  1
  P  P4  1  0.66713581  0.06350548  0.08472781  1
  P  P5  1  0.39728037  0.33099510  0.08247075  1
  P  P6  1  0.03857594  0.39150369  0.91485206  1
  P  P7  1  0.34665471  0.38639471  0.41461100  1
  P  P8  1  0.03849691  0.64804714  0.41509493  1
  S  S0  1  0.99902894  0.30317707  0.25017219  1
  S  S1  1  0.30460588  0.30515515  0.74946260  1
  S  S2  1  0.93450020  0.32913492  0.58323855  1
  S  S3  1  0.39816833  0.06735508  0.58344514  1
  S  S4  1  0.66723842  0.60292526  0.58362178  1
  S  S5  1  0.93620317  0.60377044  0.08391919  1
  S  S6  1  0.61316083  0.64948541  0.91455263  1
  S  S7  1  0.34641451  0.96261669  0.91497307  1
  S  S8  1  0.61685264  0.96434758  0.41603924  1
  O  O0  1  0.21689637  0.03183914  0.30443860  1
  O  O1  1  0.81569837  0.78465663  0.30431001  1
  O  O2  1  0.96529224  0.18801028  0.30300557  1
  O  O3  1  0.22462936  0.18357512  0.80143024  1
  O  O4  1  0.95926084  0.78468342  0.80337682  1
  O  O5  1  0.82126866  0.04164179  0.80332672  1
  O  O6  1  0.78241514  0.96363780  0.69555736  1
  O  O7  1  0.18737512  0.22067726  0.69664953  1
  O  O8  1  0.03249458  0.81960759  0.69505712  1
  O  O9  1  0.78291156  0.81676159  0.19497380  1
  O  O10  1  0.03314702  0.22099271  0.19699879  1
  O  O11  1  0.18234887  0.96278341  0.19531141  1
  O  O12  1  0.85382327  0.35292768  0.63792235  1
  O  O13  1  0.50196237  0.14895311  0.63768978  1
  O  O14  1  0.64436161  0.49893828  0.63801597  1
  O  O15  1  0.85732694  0.50105429  0.13834785  1
  O  O16  1  0.64343642  0.14881826  0.14072638  1
  O  O17  1  0.50391569  0.36261662  0.13928311  1
  O  O18  1  0.48381172  0.31638678  0.02458051  1
  O  O19  1  0.84144994  0.52532503  0.02801203  1
  O  O20  1  0.69188023  0.16358694  0.02597937  1
  O  O21  1  0.47974142  0.17063166  0.52861548  1
  O  O22  1  0.69189018  0.52417657  0.52874757  1
  O  O23  1  0.83208895  0.30693730  0.52890184  1
  O  O24  1  0.53951815  0.68482270  0.96949389  1
  O  O25  1  0.15163358  0.47128432  0.97140422  1
  O  O26  1  0.31552842  0.85606558  0.96955847  1
  O  O27  1  0.54095201  0.85614177  0.47144611  1
  O  O28  1  0.31750551  0.46857799  0.47297186  1
  O  O29  1  0.15218549  0.68528380  0.47280240  1
  O  O30  1  0.13470868  0.62621702  0.36137718  1
  O  O31  1  0.50378936  0.87923459  0.36408950  1
  O  O32  1  0.37621542  0.50863217  0.36158117  1
  O  O33  1  0.13450576  0.50843636  0.86012238  1
  O  O34  1  0.37308550  0.87550743  0.86223344  1
  O  O35  1  0.50296076  0.62820182  0.86206755  1
  O  O36  1  0.01424877  0.81129140  0.40905071  1
  O  O37  1  0.79547876  0.98763863  0.40908388  1
  O  O38  1  0.17874897  0.20398740  0.40727237  1
  O  O39  1  0.01939915  0.20533648  0.90587826  1
  O  O40  1  0.18713196  0.98147067  0.90710622  1
  O  O41  1  0.79365250  0.81018867  0.90867615  1
  O  O42  1  0.95667675  0.17126964  0.58930885  1
  O  O43  1  0.21865350  0.04824657  0.58975990  1
  O  O44  1  0.82922406  0.78308224  0.58862497  1
  O  O45  1  0.95642830  0.78292782  0.08743269  1
  O  O46  1  0.82981344  0.03743804  0.09173852  1
  O  O47  1  0.21009244  0.16617854  0.08906802  1
  O  O48  1  0.66930366  0.16035224  0.73942320  1
  O  O49  1  0.48173459  0.32288709  0.73904666  1
  O  O50  1  0.83005920  0.51165285  0.73923349  1
  O  O51  1  0.68036811  0.51111462  0.24069453  1
  O  O52  1  0.84239008  0.32435174  0.24165076  1
  O  O53  1  0.48943500  0.16170338  0.24185071  1
  O  O54  1  0.63262526  0.49137565  0.92150787  1
  O  O55  1  0.85142024  0.36961362  0.92355316  1
  O  O56  1  0.50602090  0.14173701  0.92134257  1
  O  O57  1  0.63233189  0.14123846  0.42509182  1
  O  O58  1  0.51121346  0.36422701  0.42402027  1
  O  O59  1  0.85462089  0.48075284  0.42491891  1
  O  O60  1  0.37090799  0.49801004  0.07874381  1
  O  O61  1  0.12029076  0.62824847  0.08078168  1
  O  O62  1  0.49715566  0.87347283  0.08019219  1
  O  O63  1  0.37903741  0.88828134  0.57864310  1
  O  O64  1  0.50992341  0.62614745  0.57961299  1
  O  O65  1  0.11488755  0.49037281  0.57960583  1
  O  O66  1  0.31828454  0.82705337  0.26108767  1
  O  O67  1  0.50960537  0.67568872  0.26018217  1
  O  O68  1  0.16124141  0.47935466  0.25808838  1
  O  O69  1  0.32151062  0.47837791  0.76043297  1
  O  O70  1  0.16262520  0.67955565  0.76038322  1
  O  O71  1  0.51281535  0.82943215  0.76455463  1
loop_
_geom_bond_atom_site_label_1
_geom_bond_atom_site_label_2
_geom_bond_distance
_geom_bond_site_symmetry_2
Na0 O55 2.434200 1_555
Na0 O56 2.517556 1_555
Na0 O54 2.521080 1_555
Na0 O50 2.554467 1_555
Na0 O48 2.580266 1_555
Na0 O49 2.708600 1_555
Na1 O51 2.442941 1_555
Na1 O53 2.494683 1_555
Na1 O58 2.535532 1_555
Na1 O52 2.554684 1_555
Na1 O59 2.610345 1_555
Na1 O57 2.677500 1_555
Na2 O67 2.397362 1_555
Na2 O66 2.435827 1_555
Na2 O68 2.515513 1_555
Na2 O62 2.592671 1_555
Na2 O60 2.688725 1_555
Na2 O61 2.764990 1_555
Al0 O50 1.859944 1_555
Al0 O48 1.863521 1_555
Al0 O12 1.882302 1_555
Al0 O13 1.916407 1_555
Al0 O49 1.945748 1_555
Al0 O14 1.950028 1_555
Al1 O17 1.810038 1_555
Al1 O16 1.836878 1_555
Al1 O53 1.870321 1_555
Al1 O51 1.906589 1_555
Al1 O15 1.983256 1_555
Al1 O52 2.077224 1_555
Al2 O20 1.803318 1_556
Al2 O18 1.843354 1_556
Al2 O55 1.914590 1_555
Al2 O19 1.929638 1_556
Al2 O56 2.034049 1_555
Al2 O54 2.118898 1_555
Al3 O59 1.846089 1_555
Al3 O58 1.854238 1_555
Al3 O22 1.932991 1_555
Al3 O57 1.936519 1_555
Al3 O21 1.948105 1_555
Al3 O23 2.015851 1_555
Al4 O32 1.878152 1_555
Al4 O30 1.889752 1_555
Al4 O67 1.909009 1_555
Al4 O66 1.922498 1_555
Al4 O68 1.996198 1_555
Al4 O31 2.047167 1_555
Al5 O70 1.837891 1_555
Al5 O33 1.855788 1_555
Al5 O71 1.866697 1_555
Al5 O34 1.978917 1_555
Al5 O69 2.003702 1_555
Al5 O35 2.108328 1_555
O0 P0 1.559584 1_545
O0 Zr0 2.010490 1_545
O1 P1 1.554483 1_555
O1 Zr0 2.062178 1_655
O2 S0 1.479976 1_555
O2 Zr0 2.219004 1_645
O3 S1 1.485807 1_555
O3 Zr1 2.165438 1_455
O4 P2 1.548221 1_555
O4 Zr1 2.086373 1_565
O5 P3 1.557655 1_545
O5 Zr1 2.038485 1_555
O6 P3 1.572449 1_555
O6 Zr2 2.022627 1_555
O7 S1 1.495284 1_555
O7 Zr2 2.158965 1_445
O8 P2 1.572732 1_455
O8 Zr2 2.001278 1_455
O9 P1 1.552521 1_555
O9 Zr3 2.082775 1_555
O10 S0 1.488375 1_455
O10 Zr3 2.158566 1_445
O11 P0 1.549804 1_555
O11 Zr3 2.108040 1_455
O12 S2 1.469993 1_555
O13 S3 1.469742 1_555
O14 S4 1.469125 1_555
O15 S5 1.458925 1_555
O16 P4 1.518659 1_555
O17 P5 1.519638 1_555
O18 P5 1.529082 1_555
O19 S5 1.468444 1_555
O20 P4 1.531098 1_555
O21 S3 1.472019 1_555
O22 S4 1.469861 1_555
O23 S2 1.465826 1_555
O24 S6 1.482175 1_555
O24 Zr4 2.098577 1_556
O25 P6 1.541997 1_555
O25 Zr4 2.031896 1_556
O26 S7 1.473743 1_555
O26 Zr4 2.167141 1_556
O27 S8 1.492355 1_555
O27 Zr5 2.102479 1_555
O28 P7 1.565556 1_555
O28 Zr5 1.983682 1_555
O29 P8 1.562935 1_555
O29 Zr5 1.983062 1_555
O30 P8 1.522958 1_555
O31 S8 1.465196 1_555
O32 P7 1.525989 1_555
O33 P6 1.538523 1_555
O34 S7 1.478448 1_555
O35 S6 1.471755 1_555
O36 P8 1.538432 1_555
O36 Zr0 2.027342 1_555
O37 S8 1.464011 1_555
O37 Zr0 2.174670 1_655
O38 P7 1.531010 1_555
O38 Zr0 2.071566 1_545
O39 P6 1.551204 1_555
O39 Zr1 2.029498 1_455
O40 S7 1.480484 1_555
O40 Zr1 2.146810 1_465
O41 S6 1.490083 1_555
O41 Zr1 2.087912 1_565
O42 S2 1.481641 1_555
O42 Zr2 2.173761 1_545
O43 S3 1.484872 1_555
O43 Zr2 2.172111 1_445
O44 S4 1.493120 1_555
O44 Zr2 2.114025 1_555
O45 S5 1.476147 1_555
O45 Zr3 2.128167 1_555
O46 P4 1.544250 1_555
O46 Zr3 2.042211 1_545
O47 P5 1.539828 1_555
O47 Zr3 2.063231 1_445
O48 P3 1.540678 1_545
O49 S1 1.480311 1_555
O50 P2 1.541046 1_555
O51 P1 1.538716 1_555
O52 S0 1.471525 1_555
O53 P0 1.535857 1_545
O54 S6 1.471947 1_555
O55 P6 1.546003 1_655
O56 S7 1.482180 1_545
O57 S8 1.485428 1_545
O58 P7 1.546966 1_555
O59 P8 1.540423 1_655
O60 P5 1.578079 1_555
O60 Zr4 2.006664 1_555
O61 S5 1.500935 1_455
O61 Zr4 2.112803 1_555
O62 P4 1.570550 1_565
O62 Zr4 2.062515 1_555
O63 S3 1.481094 1_565
O63 Zr5 2.170996 1_555
O64 S4 1.477500 1_555
O64 Zr5 2.177180 1_555
O65 S2 1.488174 1_455
O65 Zr5 2.113399 1_555
O66 P0 1.537341 1_555
O67 P1 1.539815 1_555
O68 S0 1.481072 1_455
O69 S1 1.455388 1_555
O70 P2 1.515277 1_455
O71 P3 1.513675 1_555
