# generated using pymatgen
data_YbIn2Pd
_symmetry_space_group_name_H-M   'P 1'
_cell_length_a   4.48616300
_cell_length_b   5.59470073
_cell_length_c   7.95835300
_cell_angle_alpha   90.00000000
_cell_angle_beta   90.00000000
_cell_angle_gamma   113.63630373
_symmetry_Int_Tables_number   1
_chemical_formula_structural   YbIn2Pd
_chemical_formula_sum   'Yb2 In4 Pd2'
_cell_volume   182.98782682
_cell_formula_units_Z   2
loop_
 _symmetry_equiv_pos_site_id
 _symmetry_equiv_pos_as_xyz
  1  'x, y, z'
loop_
 _atom_site_type_symbol
 _atom_site_label
 _atom_site_symmetry_multiplicity
 _atom_site_fract_x
 _atom_site_fract_y
 _atom_site_fract_z
 _atom_site_occupancy
  Yb  Yb0  1  0.93332700  0.86665400  0.25000000  1
  Yb  Yb1  1  0.06667300  0.13334600  0.75000000  1
  In  In0  1  0.35644300  0.71288600  0.55285000  1
  In  In1  1  0.64355700  0.28711400  0.44715000  1
  In  In2  1  0.35644300  0.71288600  0.94715000  1
  In  In3  1  0.64355700  0.28711400  0.05285000  1
  Pd  Pd0  1  0.78270600  0.56541200  0.75000000  1
  Pd  Pd1  1  0.21729400  0.43458800  0.25000000  1
loop_
_geom_bond_atom_site_label_1
_geom_bond_atom_site_label_2
_geom_bond_distance
_geom_bond_site_symmetry_2
In0 Pd1 2.800634 1_555
In0 Pd0 2.839799 1_555
In0 Pd0 2.839800 1_455
In0 Yb1 3.359270 1_555
In0 Yb0 3.385490 1_455
In0 Yb0 3.385490 1_555
In0 Yb1 3.483848 1_565
In0 Yb1 3.483848 1_665
In1 Pd0 2.800634 1_555
In1 Pd1 2.839799 1_555
In1 Pd1 2.839800 1_655
In1 Yb0 3.359270 1_555
In1 Yb1 3.385490 1_655
In1 Yb1 3.385490 1_555
In1 Yb0 3.483848 1_545
In1 Yb0 3.483848 1_445
In2 Pd1 2.800634 1_556
In2 Pd0 2.839799 1_555
In2 Pd0 2.839800 1_455
In2 Yb1 3.359270 1_555
In2 Yb0 3.385490 1_456
In2 Yb0 3.385490 1_556
In2 Yb1 3.483848 1_565
In2 Yb1 3.483848 1_665
In3 Pd0 2.800634 1_554
In3 Pd1 2.839799 1_555
In3 Pd1 2.839800 1_655
In3 Yb0 3.359270 1_555
In3 Yb1 3.385490 1_654
In3 Yb1 3.385490 1_554
In3 Yb0 3.483848 1_545
In3 Yb0 3.483848 1_445
Pd0 Yb1 2.910863 1_665
Pd0 Yb1 3.152045 1_655
Pd0 Yb1 3.152045 1_555
Pd1 Yb0 2.910863 1_445
Pd1 Yb0 3.152045 1_455
Pd1 Yb0 3.152045 1_555
