# generated using pymatgen
data_Na14Nb5In3(SiO4)12
_symmetry_space_group_name_H-M   'P 1'
_cell_length_a   18.36695404
_cell_length_b   9.17671255
_cell_length_c   22.42312424
_cell_angle_alpha   90.03699574
_cell_angle_beta   89.89664556
_cell_angle_gamma   119.98664973
_symmetry_Int_Tables_number   1
_chemical_formula_structural   Na14Nb5In3(SiO4)12
_chemical_formula_sum   'Na42 Nb15 In9 Si36 O144'
_cell_volume   3273.47256271
_cell_formula_units_Z   3
loop_
 _symmetry_equiv_pos_site_id
 _symmetry_equiv_pos_as_xyz
  1  'x, y, z'
loop_
 _atom_site_type_symbol
 _atom_site_label
 _atom_site_symmetry_multiplicity
 _atom_site_fract_x
 _atom_site_fract_y
 _atom_site_fract_z
 _atom_site_occupancy
  Na  Na0  1  0.31942251  0.01408086  0.24654811  1
  Na  Na1  1  0.81605168  0.00963182  0.24438150  1
  Na  Na2  1  0.18903036  0.36823564  0.24429012  1
  Na  Na3  1  0.68769548  0.36130642  0.24695710  1
  Na  Na4  1  0.99497099  0.62000826  0.24570467  1
  Na  Na5  1  0.49219610  0.62572537  0.24595277  1
  Na  Na6  1  0.31586375  0.62232488  0.74582362  1
  Na  Na7  1  0.81552183  0.62183228  0.74622855  1
  Na  Na8  1  0.99460247  0.36830399  0.74663388  1
  Na  Na9  1  0.49439800  0.36782154  0.74621291  1
  Na  Na10  1  0.19007935  0.01002430  0.74615327  1
  Na  Na11  1  0.68953832  0.00975248  0.74595792  1
  Na  Na12  1  0.15374862  0.34894477  0.57915392  1
  Na  Na13  1  0.65255051  0.34747900  0.57892266  1
  Na  Na14  1  0.02068832  0.69418764  0.57886061  1
  Na  Na15  1  0.52066202  0.69365945  0.57887629  1
  Na  Na16  1  0.32553062  0.95650779  0.57853866  1
  Na  Na17  1  0.82654358  0.95885382  0.58003118  1
  Na  Na18  1  0.15424999  0.95885738  0.07923264  1
  Na  Na19  1  0.65354549  0.95844242  0.07923303  1
  Na  Na20  1  0.32628767  0.69481328  0.07999568  1
  Na  Na21  1  0.82556665  0.69334219  0.07974413  1
  Na  Na22  1  0.02033328  0.34754348  0.07857217  1
  Na  Na23  1  0.52028515  0.34746957  0.07895898  1
  Na  Na24  1  0.34875236  0.02812002  0.91970945  1
  Na  Na25  1  0.84863282  0.02813572  0.91972185  1
  Na  Na26  1  0.48492876  0.29090063  0.41407505  1
  Na  Na27  1  0.65970674  0.02903041  0.41378494  1
  Na  Na28  1  0.35395185  0.68030377  0.41441314  1
  Na  Na29  1  0.84871678  0.67031670  0.41738338  1
  Na  Na30  1  0.00609035  0.01172762  0.49654772  1
  Na  Na31  1  0.49943816  0.99987751  0.49335129  1
  Na  Na32  1  0.00582585  0.99980840  0.99723544  1
  Na  Na33  1  0.50573765  0.00017992  0.99803847  1
  Na  Na34  1  0.33296639  0.34046155  0.83355967  1
  Na  Na35  1  0.83287415  0.34041476  0.83361087  1
  Na  Na36  1  0.33035210  0.32833847  0.32979328  1
  Na  Na37  1  0.83588299  0.33019619  0.33015806  1
  Na  Na38  1  0.16751601  0.66749569  0.15991798  1
  Na  Na39  1  0.66612861  0.66661121  0.15963553  1
  Na  Na40  1  0.16732302  0.66744350  0.66042419  1
  Na  Na41  1  0.66632677  0.66623692  0.66084711  1
  Nb  Nb0  1  0.00271155  0.00423238  0.35422101  1
  Nb  Nb1  1  0.00192038  0.00035306  0.85481471  1
  Nb  Nb2  1  0.50188927  0.00016085  0.85479998  1
  Nb  Nb3  1  -0.00006367  0.99963554  0.64490848  1
  Nb  Nb4  1  0.49980028  0.99984968  0.64416611  1
  Nb  Nb5  1  0.99979018  -0.00011386  0.14431857  1
  Nb  Nb6  1  0.49979666  0.00010889  0.14634496  1
  Nb  Nb7  1  0.33366997  0.33770255  0.97877588  1
  Nb  Nb8  1  0.83343642  0.33742021  0.97885146  1
  Nb  Nb9  1  0.33052975  0.32846181  0.47918903  1
  Nb  Nb10  1  0.83631981  0.33448306  0.47917729  1
  Nb  Nb11  1  0.16719342  0.66851584  0.31484866  1
  Nb  Nb12  1  0.66580248  0.66567410  0.31339516  1
  Nb  Nb13  1  0.16618294  0.66516250  0.81545196  1
  Nb  Nb14  1  0.66596106  0.66492685  0.81545938  1
  In  In0  1  0.49941881  0.99957374  0.34982948  1
  In  In1  1  0.33316925  0.33295485  0.68597998  1
  In  In2  1  0.83333900  0.33314431  0.68622908  1
  In  In3  1  0.33265109  0.33300023  0.18322973  1
  In  In4  1  0.83383629  0.33395042  0.18431902  1
  In  In5  1  0.16567955  0.66530454  0.01439440  1
  In  In6  1  0.66566203  0.66520481  0.01430126  1
  In  In7  1  0.16371141  0.66332748  0.51492069  1
  In  In8  1  0.66859827  0.66948686  0.51615250  1
  Si  Si0  1  0.14405218  0.99445014  0.24935891  1
  Si  Si1  1  0.64686071  0.99862617  0.25129618  1
  Si  Si2  1  0.35137413  0.70599269  0.25134564  1
  Si  Si3  1  0.85458144  0.71153278  0.25113149  1
  Si  Si4  1  0.00216789  0.29203378  0.25020249  1
  Si  Si5  1  0.50068784  0.29600357  0.25134347  1
  Si  Si6  1  0.14390523  0.29259309  0.74979878  1
  Si  Si7  1  0.64372845  0.29217110  0.74966057  1
  Si  Si8  1  0.00193690  0.71201741  0.75028609  1
  Si  Si9  1  0.50188981  0.71227355  0.75005504  1
  Si  Si10  1  0.35407895  0.99596744  0.75103311  1
  Si  Si11  1  0.85386373  0.99584900  0.75112380  1
  Si  Si12  1  0.47939528  0.33297891  0.58496381  1
  Si  Si13  1  0.97983796  0.33238868  0.58608513  1
  Si  Si14  1  0.18620808  0.03954026  0.58619696  1
  Si  Si15  1  0.68731124  0.04257507  0.58467781  1
  Si  Si16  1  0.33327861  0.62588558  0.58480714  1
  Si  Si17  1  0.83394811  0.62672888  0.58536819  1
  Si  Si18  1  0.48014751  0.62816578  0.08475847  1
  Si  Si19  1  0.97990464  0.62644736  0.08535255  1
  Si  Si20  1  0.33362329  0.04008486  0.08430556  1
  Si  Si21  1  0.83390665  0.04048911  0.08370633  1
  Si  Si22  1  0.18621332  0.33163984  0.08425867  1
  Si  Si23  1  0.68676027  0.33244845  0.08526310  1
  Si  Si24  1  0.31419753  0.66470095  0.91708408  1
  Si  Si25  1  0.81420492  0.66484834  0.91705890  1
  Si  Si26  1  0.01823481  0.37115352  0.91804651  1
  Si  Si27  1  0.51819988  0.37087409  0.91806589  1
  Si  Si28  1  0.16670143  0.96347414  0.91826457  1
  Si  Si29  1  0.66669139  0.96357689  0.91819318  1
  Si  Si30  1  0.31309667  0.96236619  0.41859937  1
  Si  Si31  1  0.81483147  0.96345534  0.41676804  1
  Si  Si32  1  0.16660369  0.37147455  0.41815557  1
  Si  Si33  1  0.66760236  0.37149277  0.41824297  1
  Si  Si34  1  0.01912305  0.66647530  0.41768490  1
  Si  Si35  1  0.51833145  0.66485803  0.41860153  1
  O  O0  1  0.09111024  0.01214539  0.30485510  1
  O  O1  1  0.60965548  0.03224991  0.31104679  1
  O  O2  1  0.40582452  0.77981944  0.31096818  1
  O  O3  1  0.91325257  0.81001779  0.30828035  1
  O  O4  1  0.48424845  0.18868502  0.31114668  1
  O  O5  1  0.99214874  0.16700046  0.30532065  1
  O  O6  1  0.09108348  0.16899154  0.80485108  1
  O  O7  1  0.59113806  0.16901628  0.80490023  1
  O  O8  1  0.49187936  0.81648101  0.80518905  1
  O  O9  1  0.99177904  0.81651773  0.80517984  1
  O  O10  1  0.41307396  0.01622128  0.80794533  1
  O  O11  1  0.91307773  0.01632749  0.80789837  1
  O  O12  1  0.40175961  0.96985182  0.69167651  1
  O  O13  1  0.90165307  0.97005830  0.69163722  1
  O  O14  1  0.08432654  0.19935922  0.69001777  1
  O  O15  1  0.58446567  0.19955045  0.68986766  1
  O  O16  1  0.01554681  0.83179912  0.69039753  1
  O  O17  1  0.51578516  0.83194037  0.69024603  1
  O  O18  1  0.40201724  0.83335093  0.19326135  1
  O  O19  1  0.90171771  0.83299843  0.19179603  1
  O  O20  1  0.01558042  0.19883418  0.19046090  1
  O  O21  1  0.51462566  0.19637694  0.19322287  1
  O  O22  1  0.08431201  0.96904753  0.18988247  1
  O  O23  1  0.58344705  0.97101068  0.19320757  1
  O  O24  1  0.44324211  0.36736737  0.64576698  1
  O  O25  1  0.94388999  0.36699403  0.64676245  1
  O  O26  1  0.23919629  0.11104237  0.64693613  1
  O  O27  1  0.74090691  0.11413461  0.64529336  1
  O  O28  1  0.31613472  0.51886708  0.64550602  1
  O  O29  1  0.81684943  0.51961639  0.64587643  1
  O  O30  1  0.44401979  0.52278192  0.14542556  1
  O  O31  1  0.94495150  0.52220796  0.14674163  1
  O  O32  1  0.31535924  0.11070135  0.14515083  1
  O  O33  1  0.81820201  0.11462853  0.14442729  1
  O  O34  1  0.23786274  0.36468063  0.14540566  1
  O  O35  1  0.73996063  0.37001418  0.14621689  1
  O  O36  1  0.23790570  0.30347882  0.02827727  1
  O  O37  1  0.73828163  0.30384842  0.02895711  1
  O  O38  1  0.41491787  0.52357879  0.02845425  1
  O  O39  1  0.91454875  0.52234706  0.02926416  1
  O  O40  1  0.34807854  0.16528901  0.02622354  1
  O  O41  1  0.84842456  0.16502489  0.02557720  1
  O  O42  1  0.23788779  0.17111237  0.52975152  1
  O  O43  1  0.73626809  0.16804499  0.52650978  1
  O  O44  1  0.34791277  0.52902541  0.52672844  1
  O  O45  1  0.84778469  0.52918328  0.52703666  1
  O  O46  1  0.41617718  0.30452724  0.52715896  1
  O  O47  1  0.91509120  0.30671569  0.52925196  1
  O  O48  1  0.28093454  0.71396597  0.97574502  1
  O  O49  1  0.78103952  0.71414317  0.97575992  1
  O  O50  1  0.07004868  0.43876082  0.97853379  1
  O  O51  1  0.57010445  0.43863666  0.97850094  1
  O  O52  1  0.14960412  0.86016100  0.97891552  1
  O  O53  1  0.64996466  0.86047582  0.97882364  1
  O  O54  1  0.27500795  0.84944666  0.47751337  1
  O  O55  1  0.78268042  0.85291031  0.47663841  1
  O  O56  1  0.14884539  0.43699378  0.47944628  1
  O  O57  1  0.65182146  0.44885173  0.47785621  1
  O  O58  1  0.06853415  0.70008499  0.47926096  1
  O  O59  1  0.57477817  0.70164459  0.47741600  1
  O  O60  1  0.06956977  0.64302606  0.35990270  1
  O  O61  1  0.56960168  0.63938897  0.36025161  1
  O  O62  1  0.25180153  0.86033112  0.35962899  1
  O  O63  1  0.75001216  0.86327191  0.35973559  1
  O  O64  1  0.18022645  0.50036397  0.36092928  1
  O  O65  1  0.68105103  0.49998654  0.36017212  1
  O  O66  1  0.06995180  0.49624792  0.85996067  1
  O  O67  1  0.56992060  0.49629232  0.86001060  1
  O  O68  1  0.17980392  0.85957885  0.86077499  1
  O  O69  1  0.68000942  0.85996603  0.86070338  1
  O  O70  1  0.25148838  0.64145468  0.85898299  1
  O  O71  1  0.75154619  0.64156874  0.85895568  1
  O  O72  1  0.00125571  0.82384845  0.40770105  1
  O  O73  1  0.50402583  0.82415495  0.41340358  1
  O  O74  1  0.40720621  0.99046170  0.41365572  1
  O  O75  1  0.90757173  0.98385394  0.40600997  1
  O  O76  1  0.08717625  0.18208611  0.40664981  1
  O  O77  1  0.58742025  0.18428121  0.41341556  1
  O  O78  1  0.00196912  0.17908128  0.90753719  1
  O  O79  1  0.50193588  0.17897595  0.90752902  1
  O  O80  1  0.08622303  0.99045857  0.90669416  1
  O  O81  1  0.58623769  0.99043790  0.90671571  1
  O  O82  1  0.40691907  0.83175218  0.90594606  1
  O  O83  1  0.90696247  0.83187704  0.90592910  1
  O  O84  1  0.48213976  0.15348593  0.58777154  1
  O  O85  1  0.98183467  0.15282427  0.58748470  1
  O  O86  1  0.09435118  0.03562064  0.58774772  1
  O  O87  1  0.59475043  0.03562711  0.58762939  1
  O  O88  1  0.42283934  0.81106193  0.58803994  1
  O  O89  1  0.92345586  0.81169561  0.58789433  1
  O  O90  1  0.48278206  0.81259778  0.08754021  1
  O  O91  1  0.98201650  0.81038791  0.08747326  1
  O  O92  1  0.42328791  0.03438399  0.08854451  1
  O  O93  1  0.92321046  0.03307054  0.08753532  1
  O  O94  1  0.09384240  0.15284954  0.08700174  1
  O  O95  1  0.59458654  0.15360478  0.08834828  1
  O  O96  1  0.34440822  0.16179474  0.75060396  1
  O  O97  1  0.84420376  0.16162427  0.75060711  1
  O  O98  1  0.23588158  0.31093574  0.75058995  1
  O  O99  1  0.73578848  0.31054353  0.75054194  1
  O  O100  1  0.41897001  0.52823468  0.75054076  1
  O  O101  1  0.91890269  0.52823326  0.75065439  1
  O  O102  1  0.33668721  0.51746220  0.24630291  1
  O  O103  1  0.84478174  0.52667924  0.25083100  1
  O  O104  1  0.42061523  0.32391970  0.24648145  1
  O  O105  1  0.91967226  0.31061769  0.25055479  1
  O  O106  1  0.23596170  0.15863268  0.25027940  1
  O  O107  1  0.74095164  0.15909571  0.24655643  1
  O  O108  1  0.32123026  0.49414148  0.92183821  1
  O  O109  1  0.82138991  0.49441447  0.92197333  1
  O  O110  1  0.42371243  0.35038513  0.92069991  1
  O  O111  1  0.92377444  0.35087500  0.92071052  1
  O  O112  1  0.25560825  0.14448685  0.92049159  1
  O  O113  1  0.75554988  0.14491087  0.92057218  1
  O  O114  1  0.31983809  0.14908860  0.42213014  1
  O  O115  1  0.81694298  0.14491702  0.42139261  1
  O  O116  1  0.25635931  0.36932435  0.42121127  1
  O  O117  1  0.75618529  0.36496104  0.42105305  1
  O  O118  1  0.42707761  0.48689442  0.42143009  1
  O  O119  1  0.92426316  0.49569069  0.42112813  1
  O  O120  1  0.17220653  0.49166382  0.07818276  1
  O  O121  1  0.67224816  0.49161422  0.07827151  1
  O  O122  1  0.07413847  0.65622684  0.07947783  1
  O  O123  1  0.57437332  0.65739429  0.07899925  1
  O  O124  1  0.25445874  0.85038690  0.07896889  1
  O  O125  1  0.75445813  0.85089640  0.07908032  1
  O  O126  1  0.17093484  0.85108778  0.58000318  1
  O  O127  1  0.67257211  0.85381586  0.57926048  1
  O  O128  1  0.25408434  0.65669056  0.57945796  1
  O  O129  1  0.75512177  0.65829774  0.58053524  1
  O  O130  1  0.07395199  0.49105107  0.58029209  1
  O  O131  1  0.57400724  0.49100902  0.57973576  1
  O  O132  1  0.14816899  0.81949316  0.25513689  1
  O  O133  1  0.65060316  0.82085283  0.25428128  1
  O  O134  1  0.25932196  0.70058021  0.25405505  1
  O  O135  1  0.76224571  0.70133401  0.25598124  1
  O  O136  1  0.08902797  0.47557575  0.25614435  1
  O  O137  1  0.59032508  0.48019686  0.25440320  1
  O  O138  1  0.14903251  0.47705925  0.75488626  1
  O  O139  1  0.64916268  0.47710384  0.75494789  1
  O  O140  1  0.08884789  0.70144868  0.75574968  1
  O  O141  1  0.58884889  0.70134177  0.75577021  1
  O  O142  1  0.26120891  0.82197082  0.75519160  1
  O  O143  1  0.76113187  0.82184537  0.75504243  1
loop_
_geom_bond_atom_site_label_1
_geom_bond_atom_site_label_2
_geom_bond_distance
_geom_bond_site_symmetry_2
Na0 O32 2.455718 1_555
Na0 O106 2.479614 1_555
Na0 O104 2.501266 1_555
Na0 O134 2.519714 1_545
Na0 O132 2.739189 1_545
Na0 O62 2.864306 1_545
Na0 O18 2.997585 1_545
Na0 O4 2.999071 1_555
Na1 O107 2.382662 1_555
Na1 O33 2.432639 1_555
Na1 O105 2.452780 1_555
Na1 O135 2.500734 1_545
Na1 O133 2.649620 1_545
Na1 O63 2.886238 1_545
Na2 O102 2.349534 1_555
Na2 O34 2.396641 1_555
Na2 O106 2.473633 1_555
Na2 O136 2.494185 1_555
Na2 O134 2.660918 1_555
Na2 O64 2.920114 1_555
Na2 O20 3.013893 1_555
Na3 O35 2.438504 1_555
Na3 O107 2.492896 1_555
Na3 O103 2.501787 1_555
Na3 O137 2.523026 1_555
Na3 O135 2.716923 1_555
Na3 O65 2.868640 1_555
Na3 O1 2.984920 1_555
Na3 O21 3.008211 1_555
Na4 O31 2.398817 1_555
Na4 O103 2.448172 1_555
Na4 O105 2.461778 1_555
Na4 O132 2.483148 1_655
Na4 O136 2.662060 1_655
Na4 O60 2.863854 1_655
Na5 O104 2.399886 1_555
Na5 O30 2.434212 1_555
Na5 O102 2.511680 1_555
Na5 O133 2.549516 1_555
Na5 O137 2.734107 1_555
Na5 O61 2.905194 1_555
Na5 O2 2.978742 1_555
Na5 O23 2.989481 1_555
Na6 O28 2.441980 1_555
Na6 O100 2.445059 1_555
Na6 O98 2.477634 1_555
Na6 O142 2.499105 1_555
Na6 O138 2.668814 1_555
Na6 O70 2.839587 1_555
Na7 O29 2.442094 1_555
Na7 O101 2.446239 1_555
Na7 O99 2.476358 1_555
Na7 O143 2.497520 1_555
Na7 O139 2.660828 1_555
Na7 O71 2.829166 1_555
Na8 O25 2.424676 1_555
Na8 O97 2.449098 1_555
Na8 O101 2.476750 1_555
Na8 O138 2.499502 1_655
Na8 O140 2.663661 1_655
Na8 O66 2.852333 1_655
Na9 O24 2.441196 1_555
Na9 O96 2.442617 1_555
Na9 O100 2.476602 1_555
Na9 O139 2.505283 1_555
Na9 O141 2.667567 1_555
Na9 O67 2.863457 1_555
Na10 O26 2.404624 1_555
Na10 O98 2.453708 1_555
Na10 O96 2.457439 1_555
Na10 O140 2.501672 1_545
Na10 O142 2.642149 1_545
Na10 O68 2.879210 1_545
Na11 O27 2.448356 1_555
Na11 O99 2.450998 1_555
Na11 O97 2.463003 1_555
Na11 O141 2.499190 1_545
Na11 O143 2.648023 1_545
Na11 O69 2.881417 1_545
Na12 O56 2.394865 1_555
Na12 O130 2.399919 1_555
Na12 O128 2.483828 1_555
Na12 O86 2.521706 1_555
Na12 O85 2.749881 1_455
Na12 O14 2.816607 1_555
Na12 O42 2.964942 1_555
Na12 O28 2.984089 1_555
Na13 O131 2.390706 1_555
Na13 O57 2.452884 1_555
Na13 O129 2.512933 1_555
Na13 O87 2.513563 1_555
Na13 O84 2.726444 1_555
Na13 O15 2.809209 1_555
Na14 O58 2.389249 1_555
Na14 O126 2.391129 1_555
Na14 O130 2.501232 1_555
Na14 O89 2.513275 1_455
Na14 O86 2.729486 1_565
Na14 O16 2.823640 1_555
Na15 O127 2.417845 1_555
Na15 O59 2.467476 1_555
Na15 O131 2.498033 1_555
Na15 O88 2.522778 1_555
Na15 O87 2.733082 1_565
Na15 O17 2.821933 1_555
Na15 O44 2.989386 1_555
Na15 O24 2.996580 1_555
Na16 O128 2.383961 1_555
Na16 O54 2.459944 1_555
Na16 O126 2.500671 1_555
Na16 O84 2.527544 1_565
Na16 O88 2.721660 1_555
Na16 O12 2.872660 1_555
Na17 O129 2.389875 1_555
Na17 O55 2.487984 1_555
Na17 O127 2.490435 1_555
Na17 O85 2.501589 1_565
Na17 O89 2.725307 1_555
Na17 O13 2.836689 1_555
Na17 O27 2.979160 1_565
Na17 O47 2.990023 1_565
Na18 O122 2.406858 1_555
Na18 O52 2.410042 1_554
Na18 O124 2.491925 1_555
Na18 O94 2.530563 1_565
Na18 O91 2.754544 1_455
Na18 O22 2.814785 1_555
Na18 O32 2.962110 1_565
Na18 O36 2.967962 1_565
Na19 O123 2.393964 1_555
Na19 O53 2.412588 1_554
Na19 O125 2.497554 1_555
Na19 O95 2.521765 1_565
Na19 O90 2.732252 1_555
Na19 O23 2.887655 1_555
Na19 O37 2.967693 1_565
Na19 O33 3.002958 1_565
Na20 O124 2.379514 1_555
Na20 O120 2.492509 1_555
Na20 O48 2.518566 1_554
Na20 O90 2.520841 1_555
Na20 O92 2.715174 1_565
Na20 O18 2.870946 1_555
Na21 O125 2.384127 1_555
Na21 O121 2.479364 1_555
Na21 O49 2.511051 1_554
Na21 O91 2.521338 1_555
Na21 O93 2.716206 1_565
Na21 O19 2.851032 1_555
Na21 O35 2.971767 1_555
Na21 O39 2.994849 1_555
Na22 O50 2.407759 1_554
Na22 O120 2.417120 1_555
Na22 O122 2.490573 1_555
Na22 O93 2.530645 1_455
Na22 O94 2.731910 1_555
Na22 O20 2.837081 1_555
Na23 O51 2.416839 1_554
Na23 O121 2.418587 1_555
Na23 O123 2.500297 1_555
Na23 O92 2.521451 1_555
Na23 O95 2.738626 1_555
Na23 O21 2.890929 1_555
Na23 O40 2.987061 1_555
Na23 O30 3.002265 1_555
Na24 O112 2.427632 1_555
Na24 O79 2.451792 1_555
Na24 O82 2.531074 1_545
Na24 O110 2.563574 1_555
Na24 O40 2.701956 1_556
Na24 O10 2.793933 1_555
Na24 O48 2.801955 1_545
Na24 O68 2.997038 1_545
Na25 O113 2.429571 1_555
Na25 O78 2.454223 1_655
Na25 O83 2.532558 1_545
Na25 O111 2.567294 1_555
Na25 O41 2.685697 1_556
Na25 O11 2.795917 1_555
Na25 O49 2.801077 1_545
Na25 O69 2.993234 1_545
Na26 O74 2.388525 1_545
Na26 O4 2.488443 1_555
Na26 O118 2.510057 1_555
Na26 O77 2.518357 1_555
Na26 O114 2.640907 1_555
Na26 O46 2.861087 1_555
Na27 O77 2.383986 1_555
Na27 O1 2.487554 1_555
Na27 O73 2.517384 1_545
Na27 O115 2.536113 1_555
Na27 O117 2.685110 1_555
Na27 O43 2.865184 1_555
Na27 O59 2.967825 1_545
Na27 O63 3.007663 1_545
Na28 O73 2.388197 1_555
Na28 O2 2.499420 1_555
Na28 O116 2.503304 1_555
Na28 O74 2.505036 1_555
Na28 O118 2.713444 1_555
Na28 O44 2.851620 1_555
Na28 O54 2.958552 1_555
Na28 O64 3.015077 1_555
Na29 O72 2.435987 1_655
Na29 O117 2.446760 1_555
Na29 O75 2.530422 1_555
Na29 O119 2.592989 1_555
Na29 O3 2.740101 1_555
Na29 O45 2.775793 1_555
Na29 O55 2.840242 1_555
Na29 O65 2.961824 1_555
Na30 O76 2.528111 1_555
Na30 O86 2.552264 1_555
Na30 O85 2.569592 1_455
Na30 O72 2.606254 1_545
Na30 O75 2.647840 1_445
Na30 O89 2.660316 1_445
Na31 O74 2.436192 1_555
Na31 O77 2.438787 1_565
Na31 O73 2.439810 1_555
Na31 O84 2.647999 1_565
Na31 O88 2.654596 1_555
Na31 O87 2.660757 1_565
Na32 O94 2.525059 1_566
Na32 O80 2.534808 1_555
Na32 O91 2.559001 1_456
Na32 O78 2.622623 1_565
Na32 O93 2.635637 1_466
Na32 O83 2.660072 1_455
Na33 O90 2.538611 1_546
Na33 O95 2.541190 1_556
Na33 O81 2.551135 1_545
Na33 O79 2.633475 1_555
Na33 O92 2.640754 1_556
Na33 O82 2.674435 1_545
Na34 O100 2.490479 1_555
Na34 O98 2.498530 1_555
Na34 O108 2.500483 1_555
Na34 O110 2.542444 1_555
Na34 O112 2.548150 1_555
Na34 O96 2.555681 1_555
Na35 O101 2.489722 1_555
Na35 O99 2.499414 1_555
Na35 O109 2.502059 1_555
Na35 O111 2.542118 1_555
Na35 O113 2.546683 1_555
Na35 O97 2.556412 1_555
Na36 O106 2.432809 1_555
Na36 O104 2.509165 1_555
Na36 O102 2.516343 1_555
Na36 O116 2.586561 1_555
Na36 O114 2.591407 1_555
Na36 O118 2.630740 1_555
Na37 O105 2.419252 1_555
Na37 O103 2.479974 1_555
Na37 O107 2.508195 1_555
Na37 O115 2.570549 1_555
Na37 O119 2.577995 1_555
Na37 O117 2.617968 1_555
Na38 O124 2.444585 1_555
Na38 O122 2.457472 1_555
Na38 O120 2.470741 1_555
Na38 O134 2.625145 1_555
Na38 O132 2.668217 1_555
Na38 O136 2.700264 1_555
Na39 O123 2.446400 1_555
Na39 O125 2.450618 1_555
Na39 O121 2.469009 1_555
Na39 O133 2.643125 1_555
Na39 O137 2.644553 1_555
Na39 O135 2.708482 1_555
Na40 O126 2.447053 1_555
Na40 O128 2.447799 1_555
Na40 O130 2.454029 1_555
Na40 O142 2.658006 1_555
Na40 O138 2.658428 1_555
Na40 O140 2.679809 1_555
Na41 O129 2.452787 1_555
Na41 O131 2.459806 1_555
Na41 O127 2.475676 1_555
Na41 O139 2.649414 1_555
Na41 O143 2.656357 1_555
Na41 O141 2.665638 1_555
Nb0 O0 1.934548 1_555
Nb0 O5 1.939991 1_455
Nb0 O76 1.981342 1_555
Nb0 O3 2.003461 1_445
Nb0 O75 2.025670 1_445
Nb0 O72 2.033985 1_545
Nb1 O6 1.947889 1_555
Nb1 O9 1.950281 1_445
Nb1 O80 1.976403 1_545
Nb1 O11 2.009076 1_455
Nb1 O83 2.011339 1_445
Nb1 O78 2.020814 1_555
Nb2 O7 1.948511 1_555
Nb2 O8 1.949621 1_545
Nb2 O81 1.976873 1_545
Nb2 O10 2.008302 1_555
Nb2 O82 2.011645 1_545
Nb2 O79 2.021562 1_555
Nb3 O13 1.983422 1_455
Nb3 O16 1.984767 1_555
Nb3 O14 1.987044 1_565
Nb3 O89 2.040600 1_455
Nb3 O86 2.044290 1_565
Nb3 O85 2.053232 1_465
Nb4 O12 1.987767 1_555
Nb4 O15 1.995354 1_565
Nb4 O17 1.995847 1_555
Nb4 O88 2.034469 1_555
Nb4 O84 2.037879 1_565
Nb4 O87 2.043648 1_565
Nb5 O20 1.989255 1_655
Nb5 O19 1.990252 1_545
Nb5 O22 1.994779 1_645
Nb5 O93 2.031595 1_555
Nb5 O94 2.043707 1_655
Nb5 O91 2.046095 1_545
Nb6 O18 1.980383 1_545
Nb6 O21 1.982744 1_555
Nb6 O23 1.988042 1_545
Nb6 O92 2.049953 1_555
Nb6 O95 2.061372 1_555
Nb6 O90 2.063563 1_545
Nb7 O38 1.958681 1_556
Nb7 O36 1.966121 1_556
Nb7 O108 2.018525 1_555
Nb7 O40 2.031509 1_556
Nb7 O110 2.060215 1_555
Nb7 O112 2.090488 1_555
Nb8 O39 1.963056 1_556
Nb8 O37 1.966428 1_556
Nb8 O109 2.018212 1_555
Nb8 O41 2.028508 1_556
Nb8 O111 2.062901 1_555
Nb8 O113 2.086301 1_555
Nb9 O42 1.950613 1_555
Nb9 O46 2.007886 1_555
Nb9 O44 2.009241 1_555
Nb9 O114 2.014970 1_555
Nb9 O116 2.050413 1_555
Nb9 O118 2.086324 1_555
Nb10 O47 1.947723 1_555
Nb10 O45 2.002645 1_555
Nb10 O43 2.006403 1_555
Nb10 O119 2.024387 1_555
Nb10 O115 2.052221 1_555
Nb10 O117 2.088549 1_555
Nb11 O62 1.946953 1_555
Nb11 O60 1.965928 1_555
Nb11 O64 1.969323 1_555
Nb11 O134 2.074275 1_555
Nb11 O132 2.079028 1_555
Nb11 O136 2.095624 1_555
Nb12 O61 1.962570 1_555
Nb12 O65 1.979698 1_555
Nb12 O63 1.989948 1_555
Nb12 O137 2.052730 1_555
Nb12 O133 2.064932 1_555
Nb12 O135 2.077286 1_555
Nb13 O66 1.944165 1_555
Nb13 O70 1.949743 1_555
Nb13 O68 1.957258 1_555
Nb13 O138 2.092424 1_555
Nb13 O140 2.097812 1_555
Nb13 O142 2.103852 1_555
Nb14 O67 1.941987 1_555
Nb14 O71 1.952127 1_555
Nb14 O69 1.958629 1_555
Nb14 O139 2.091401 1_555
Nb14 O141 2.095112 1_555
Nb14 O143 2.107671 1_555
In0 O2 2.078237 1_555
In0 O4 2.080348 1_565
In0 O1 2.081521 1_565
In0 O73 2.184080 1_555
In0 O74 2.184862 1_555
In0 O77 2.187479 1_565
In1 O24 2.087027 1_555
In1 O28 2.090163 1_555
In1 O26 2.093389 1_555
In1 O96 2.222070 1_555
In1 O98 2.227730 1_555
In1 O100 2.229908 1_555
In2 O27 2.087243 1_555
In2 O29 2.087988 1_555
In2 O25 2.089479 1_555
In2 O97 2.217896 1_555
In2 O99 2.225416 1_555
In2 O101 2.225813 1_555
In3 O32 2.083870 1_555
In3 O34 2.084807 1_555
In3 O30 2.090557 1_555
In3 O102 2.177844 1_555
In3 O104 2.184442 1_555
In3 O106 2.264410 1_555
In4 O31 2.081094 1_555
In4 O33 2.086684 1_555
In4 O35 2.094861 1_555
In4 O107 2.165807 1_555
In4 O103 2.243876 1_555
In4 O105 2.254659 1_555
In5 O50 2.099171 1_554
In5 O52 2.109018 1_554
In5 O48 2.116750 1_554
In5 O120 2.189480 1_555
In5 O122 2.194285 1_555
In5 O124 2.208427 1_555
In6 O51 2.098320 1_554
In6 O53 2.108589 1_554
In6 O49 2.117043 1_554
In6 O123 2.189131 1_555
In6 O121 2.192257 1_555
In6 O125 2.213788 1_555
In7 O54 2.074864 1_555
In7 O58 2.098540 1_555
In7 O56 2.110209 1_555
In7 O130 2.180574 1_555
In7 O126 2.210218 1_555
In7 O128 2.227758 1_555
In8 O57 2.075297 1_555
In8 O59 2.079655 1_555
In8 O55 2.116240 1_555
In8 O127 2.177827 1_555
In8 O129 2.189007 1_555
In8 O131 2.209830 1_555
O0 Si0 1.635124 1_545
O1 Si1 1.601296 1_545
O2 Si2 1.604029 1_555
O3 Si3 1.627925 1_555
O4 Si5 1.600712 1_555
O5 Si4 1.633350 1_655
O6 Si6 1.627616 1_555
O7 Si7 1.628126 1_555
O8 Si9 1.627902 1_555
O9 Si8 1.626655 1_655
O10 Si10 1.624984 1_545
O11 Si11 1.624568 1_545
O12 Si10 1.673619 1_555
O13 Si11 1.675917 1_555
O14 Si6 1.671612 1_555
O15 Si7 1.668475 1_555
O16 Si8 1.673355 1_555
O17 Si9 1.670372 1_555
O18 Si2 1.684750 1_555
O19 Si3 1.671918 1_555
O20 Si4 1.671710 1_555
O21 Si5 1.682567 1_555
O22 Si0 1.669163 1_555
O23 Si1 1.681478 1_555
O24 Si12 1.614003 1_555
O25 Si13 1.610508 1_555
O26 Si14 1.611817 1_555
O27 Si15 1.614049 1_555
O28 Si16 1.614675 1_555
O29 Si17 1.611607 1_555
O30 Si18 1.607195 1_555
O31 Si19 1.614522 1_555
O32 Si20 1.615054 1_555
O33 Si21 1.610425 1_555
O34 Si22 1.608859 1_555
O35 Si23 1.615299 1_555
O36 Si22 1.668672 1_555
O37 Si23 1.673892 1_555
O38 Si18 1.674801 1_555
O39 Si19 1.671200 1_555
O40 Si20 1.668100 1_555
O41 Si21 1.664982 1_555
O42 Si14 1.677136 1_555
O43 Si15 1.672808 1_555
O44 Si16 1.671637 1_555
O45 Si17 1.673726 1_555
O46 Si12 1.672835 1_555
O47 Si13 1.678918 1_555
O48 Si24 1.606310 1_555
O49 Si25 1.606244 1_555
O50 Si26 1.594850 1_555
O51 Si27 1.594655 1_555
O52 Si28 1.596728 1_555
O53 Si29 1.596074 1_555
O54 Si30 1.606897 1_555
O55 Si31 1.606284 1_555
O56 Si32 1.596876 1_555
O57 Si33 1.605564 1_555
O58 Si34 1.596661 1_555
O59 Si35 1.607039 1_555
O60 Si34 1.666776 1_555
O61 Si35 1.693642 1_555
O62 Si30 1.686035 1_555
O63 Si31 1.675686 1_555
O64 Si32 1.677241 1_555
O65 Si33 1.690157 1_555
O66 Si26 1.680471 1_555
O67 Si27 1.681150 1_555
O68 Si28 1.689772 1_555
O69 Si29 1.689797 1_555
O70 Si24 1.681920 1_555
O71 Si25 1.681315 1_555
O72 Si34 1.648592 1_555
O73 Si35 1.613635 1_555
O74 Si30 1.618755 1_555
O75 Si31 1.635391 1_555
O76 Si32 1.637585 1_555
O77 Si33 1.613480 1_555
O78 Si26 1.650717 1_555
O79 Si27 1.649255 1_555
O80 Si28 1.637342 1_555
O81 Si29 1.635883 1_555
O82 Si24 1.643771 1_555
O83 Si25 1.644035 1_555
O84 Si12 1.674147 1_555
O85 Si13 1.666760 1_555
O86 Si14 1.669744 1_555
O87 Si15 1.670299 1_555
O88 Si16 1.674784 1_555
O89 Si17 1.672685 1_555
O90 Si18 1.669949 1_555
O91 Si19 1.669570 1_555
O92 Si20 1.676494 1_555
O93 Si21 1.677655 1_555
O94 Si22 1.670736 1_555
O95 Si23 1.669364 1_555
O96 Si10 1.617892 1_545
O97 Si11 1.617317 1_545
O98 Si6 1.611934 1_555
O99 Si7 1.613377 1_555
O100 Si9 1.612689 1_555
O101 Si8 1.612220 1_655
O102 Si2 1.616203 1_555
O103 Si3 1.613947 1_555
O104 Si5 1.617919 1_555
O105 Si4 1.607236 1_655
O106 Si0 1.605566 1_545
O107 Si1 1.619274 1_545
O108 Si24 1.637125 1_555
O109 Si25 1.637778 1_555
O110 Si27 1.650482 1_555
O111 Si26 1.650806 1_655
O112 Si28 1.648351 1_545
O113 Si29 1.649543 1_545
O114 Si30 1.656942 1_545
O115 Si31 1.649381 1_545
O116 Si32 1.660025 1_555
O117 Si33 1.659080 1_555
O118 Si35 1.656479 1_555
O119 Si34 1.663719 1_655
O120 Si22 1.618407 1_555
O121 Si23 1.618220 1_555
O122 Si19 1.616815 1_455
O123 Si18 1.618323 1_555
O124 Si20 1.621449 1_565
O125 Si21 1.621622 1_565
O126 Si14 1.613572 1_565
O127 Si15 1.618527 1_565
O128 Si16 1.619176 1_555
O129 Si17 1.616062 1_555
O130 Si13 1.615070 1_455
O131 Si12 1.617707 1_555
O132 Si0 1.649813 1_555
O133 Si1 1.668184 1_555
O134 Si2 1.667446 1_555
O135 Si3 1.654521 1_555
O136 Si4 1.647514 1_555
O137 Si5 1.670583 1_555
O138 Si6 1.651626 1_555
O139 Si7 1.653646 1_555
O140 Si8 1.651676 1_555
O141 Si9 1.654801 1_555
O142 Si10 1.656769 1_555
O143 Si11 1.655121 1_555
