# generated using pymatgen
data_Pt5Se4
_symmetry_space_group_name_H-M   'P 1'
_cell_length_a   4.65976483
_cell_length_b   6.61321982
_cell_length_c   11.21046565
_cell_angle_alpha   101.53439958
_cell_angle_beta   90.00000000
_cell_angle_gamma   90.00000000
_symmetry_Int_Tables_number   1
_chemical_formula_structural   Pt5Se4
_chemical_formula_sum   'Pt10 Se8'
_cell_volume   338.48559106
_cell_formula_units_Z   2
loop_
 _symmetry_equiv_pos_site_id
 _symmetry_equiv_pos_as_xyz
  1  'x, y, z'
loop_
 _atom_site_type_symbol
 _atom_site_label
 _atom_site_symmetry_multiplicity
 _atom_site_fract_x
 _atom_site_fract_y
 _atom_site_fract_z
 _atom_site_occupancy
  Pt  Pt0  1  0.66812768  0.66841948  0.99762090  1
  Pt  Pt1  1  0.16812768  0.33158052  0.50237910  1
  Pt  Pt2  1  0.33187232  0.33158052  0.00237910  1
  Pt  Pt3  1  0.83187232  0.66841948  0.49762090  1
  Pt  Pt4  1  0.33812083  0.77712660  0.82709841  1
  Pt  Pt5  1  0.83812083  0.22287340  0.67290159  1
  Pt  Pt6  1  0.66187917  0.22287340  0.17290159  1
  Pt  Pt7  1  0.16187917  0.77712660  0.32709841  1
  Pt  Pt8  1  0.00000000  -0.00000000  0.00000000  1
  Pt  Pt9  1  0.50000000  -0.00000000  0.50000000  1
  Se  Se0  1  0.63522344  0.08891519  0.86210123  1
  Se  Se1  1  0.13522344  0.91108481  0.63789877  1
  Se  Se2  1  0.36477656  0.91108481  0.13789877  1
  Se  Se3  1  0.86477656  0.08891519  0.36210123  1
  Se  Se4  1  0.03953635  0.48614809  0.85573889  1
  Se  Se5  1  0.53953635  0.51385191  0.64426111  1
  Se  Se6  1  0.96046365  0.51385191  0.14426111  1
  Se  Se7  1  0.46046365  0.48614809  0.35573889  1
loop_
_geom_bond_atom_site_label_1
_geom_bond_atom_site_label_2
_geom_bond_distance
_geom_bond_site_symmetry_2
Pt0 Se2 2.457081 1_556
Pt0 Se4 2.492265 1_655
Pt0 Se6 2.504982 1_556
Pt0 Pt4 2.661852 1_555
Pt0 Pt8 2.679041 1_666
Pt0 Pt2 2.732692 1_556
Pt1 Se3 2.457081 1_455
Pt1 Se5 2.492265 1_555
Pt1 Se7 2.504982 1_555
Pt1 Pt5 2.661852 1_455
Pt1 Pt9 2.679041 1_555
Pt1 Pt3 2.732692 1_455
Pt2 Se0 2.457081 1_554
Pt2 Se6 2.492265 1_455
Pt2 Se4 2.504982 1_554
Pt2 Pt6 2.661852 1_555
Pt2 Pt8 2.679041 1_555
Pt3 Se1 2.457081 1_655
Pt3 Se7 2.492265 1_555
Pt3 Se5 2.504982 1_555
Pt3 Pt7 2.661852 1_655
Pt3 Pt9 2.679041 1_565
Pt4 Se4 2.447229 1_555
Pt4 Se0 2.449202 1_565
Pt4 Se5 2.585797 1_555
Pt4 Se1 2.632268 1_555
Pt4 Pt8 2.696172 1_566
Pt5 Se5 2.447229 1_555
Pt5 Se1 2.449202 1_645
Pt5 Se4 2.585797 1_655
Pt5 Se0 2.632268 1_555
Pt5 Pt9 2.696172 1_555
Pt6 Se6 2.447229 1_555
Pt6 Se2 2.449202 1_545
Pt6 Se7 2.585797 1_555
Pt6 Se3 2.632268 1_555
Pt6 Pt8 2.696172 1_655
Pt7 Se7 2.447229 1_555
Pt7 Se3 2.449202 1_465
Pt7 Se6 2.585797 1_455
Pt7 Se2 2.632268 1_555
Pt7 Pt9 2.696172 1_565
Pt8 Se0 2.447111 1_454
Pt8 Se2 2.447111 1_545
Pt9 Se3 2.447111 1_555
Pt9 Se1 2.447111 1_545
