# generated using pymatgen
data_YNb3(PO4)6
_symmetry_space_group_name_H-M   'P 1'
_cell_length_a   8.91915485
_cell_length_b   8.91915456
_cell_length_c   22.90951848
_cell_angle_alpha   90.00000000
_cell_angle_beta   90.00000000
_cell_angle_gamma   120.00000112
_symmetry_Int_Tables_number   1
_chemical_formula_structural   YNb3(PO4)6
_chemical_formula_sum   'Y3 Nb9 P18 O72'
_cell_volume   1578.31608192
_cell_formula_units_Z   3
loop_
 _symmetry_equiv_pos_site_id
 _symmetry_equiv_pos_as_xyz
  1  'x, y, z'
loop_
 _atom_site_type_symbol
 _atom_site_label
 _atom_site_symmetry_multiplicity
 _atom_site_fract_x
 _atom_site_fract_y
 _atom_site_fract_z
 _atom_site_occupancy
  Y  Y0  1  0.00000000  -0.00000000  0.36618791  1
  Y  Y1  1  0.66666700  0.33333300  0.69402206  1
  Y  Y2  1  0.66666700  0.33333300  0.18921411  1
  Nb  Nb0  1  0.00000000  -0.00000000  0.85951307  1
  Nb  Nb1  1  0.00000000  -0.00000000  0.64100172  1
  Nb  Nb2  1  0.00000000  -0.00000000  0.14717351  1
  Nb  Nb3  1  0.66666700  0.33333300  0.97924354  1
  Nb  Nb4  1  0.66666700  0.33333300  0.47671393  1
  Nb  Nb5  1  0.33333300  0.66666700  0.02043252  1
  Nb  Nb6  1  0.33333300  0.66666700  0.52360412  1
  Nb  Nb7  1  0.33333300  0.66666700  0.30711156  1
  Nb  Nb8  1  0.33333300  0.66666700  0.80818367  1
  P  P0  1  0.27655343  0.98691879  0.25152810  1
  P  P1  1  0.71036536  0.72344657  0.25152810  1
  P  P2  1  0.01308121  0.28963464  0.25152810  1
  P  P3  1  0.26876273  0.28161623  0.75173334  1
  P  P4  1  0.01285349  0.73123727  0.75173334  1
  P  P5  1  0.71838377  0.98714651  0.75173334  1
  P  P6  1  0.95257576  0.33111329  0.58297165  1
  P  P7  1  0.37853854  0.04742424  0.58297165  1
  P  P8  1  0.66888671  0.62146146  0.58297165  1
  P  P9  1  0.95735703  0.62827947  0.08085262  1
  P  P10  1  0.67092344  0.04264297  0.08085262  1
  P  P11  1  0.37172053  0.32907656  0.08085262  1
  P  P12  1  0.61391553  0.66051012  0.91522362  1
  P  P13  1  0.04659358  0.38608447  0.91522362  1
  P  P14  1  0.33948988  0.95340642  0.91522362  1
  P  P15  1  0.60048514  0.95315672  0.41761145  1
  P  P16  1  0.35267058  0.39951486  0.41761145  1
  P  P17  1  0.04684328  0.64732942  0.41761145  1
  O  O0  1  0.19727649  0.01311261  0.30528009  1
  O  O1  1  0.81583612  0.80272351  0.30528009  1
  O  O2  1  0.98688739  0.18416388  0.30528009  1
  O  O3  1  0.17679224  0.17446850  0.80740144  1
  O  O4  1  0.99767626  0.82320776  0.80740144  1
  O  O5  1  0.82553150  0.00232374  0.80740144  1
  O  O6  1  0.80238842  0.95965552  0.69686575  1
  O  O7  1  0.15726709  0.19761158  0.69686575  1
  O  O8  1  0.04034448  0.84273291  0.69686575  1
  O  O9  1  0.80354039  0.84072985  0.19531433  1
  O  O10  1  0.03718946  0.19645961  0.19531433  1
  O  O11  1  0.15927015  0.96281054  0.19531433  1
  O  O12  1  0.88701656  0.37351555  0.63731126  1
  O  O13  1  0.48649999  0.11298344  0.63731126  1
  O  O14  1  0.62648445  0.51350001  0.63731126  1
  O  O15  1  0.89569034  0.51410243  0.13329576  1
  O  O16  1  0.61841308  0.10430966  0.13329576  1
  O  O17  1  0.48589757  0.38158692  0.13329576  1
  O  O18  1  0.46773315  0.30170592  0.02709266  1
  O  O19  1  0.83397377  0.53226685  0.02709266  1
  O  O20  1  0.69829408  0.16602623  0.02709266  1
  O  O21  1  0.46461837  0.16946361  0.53019390  1
  O  O22  1  0.70484624  0.53538163  0.53019390  1
  O  O23  1  0.83053639  0.29515376  0.53019390  1
  O  O24  1  0.53075758  0.69661362  0.96779300  1
  O  O25  1  0.16585504  0.46924242  0.96779300  1
  O  O26  1  0.30338638  0.83414496  0.96779300  1
  O  O27  1  0.50526917  0.84524352  0.47242833  1
  O  O28  1  0.33997335  0.49473083  0.47242833  1
  O  O29  1  0.15475648  0.66002665  0.47242833  1
  O  O30  1  0.13135365  0.62222463  0.36237525  1
  O  O31  1  0.49086998  0.86864635  0.36237525  1
  O  O32  1  0.37777537  0.50913002  0.36237525  1
  O  O33  1  0.13086340  0.50274339  0.86136500  1
  O  O34  1  0.37187899  0.86913660  0.86136500  1
  O  O35  1  0.49725661  0.62812101  0.86136500  1
  O  O36  1  0.02588679  0.80350375  0.41700023  1
  O  O37  1  0.77761696  0.97411321  0.41700023  1
  O  O38  1  0.19649625  0.22238304  0.41700023  1
  O  O39  1  0.02392981  0.20313592  0.90617033  1
  O  O40  1  0.17920611  0.97607019  0.90617033  1
  O  O41  1  0.79686408  0.82079389  0.90617033  1
  O  O42  1  0.96695962  0.16367655  0.59329117  1
  O  O43  1  0.19671694  0.03304038  0.59329117  1
  O  O44  1  0.83632345  0.80328306  0.59329117  1
  O  O45  1  0.97236011  0.80650977  0.08916169  1
  O  O46  1  0.83414966  0.02763989  0.08916169  1
  O  O47  1  0.19349023  0.16585034  0.08916169  1
  O  O48  1  0.69857213  0.14373185  0.74826913  1
  O  O49  1  0.44516072  0.30142787  0.74826913  1
  O  O50  1  0.85626815  0.55483928  0.74826913  1
  O  O51  1  0.67317527  0.54322630  0.23900107  1
  O  O52  1  0.87005203  0.32682473  0.23900107  1
  O  O53  1  0.45677370  0.12994797  0.23900107  1
  O  O54  1  0.63378250  0.50079908  0.92692770  1
  O  O55  1  0.86701758  0.36621750  0.92692770  1
  O  O56  1  0.49920092  0.13298242  0.92692770  1
  O  O57  1  0.61111055  0.13216817  0.42761652  1
  O  O58  1  0.52105862  0.38888945  0.42761652  1
  O  O59  1  0.86783183  0.47894138  0.42761652  1
  O  O60  1  0.34324983  0.48329331  0.06291329  1
  O  O61  1  0.14004249  0.65675017  0.06291329  1
  O  O62  1  0.51670669  0.85995751  0.06291329  1
  O  O63  1  0.33768462  0.86052772  0.56929867  1
  O  O64  1  0.52284210  0.66231538  0.56929867  1
  O  O65  1  0.13947228  0.47715790  0.56929867  1
  O  O66  1  0.27733247  0.81118835  0.25812052  1
  O  O67  1  0.53385488  0.72266753  0.25812052  1
  O  O68  1  0.18881165  0.46614512  0.25812052  1
  O  O69  1  0.27923084  0.46133544  0.76145823  1
  O  O70  1  0.18210360  0.72076916  0.76145823  1
  O  O71  1  0.53866456  0.81789640  0.76145823  1
loop_
_geom_bond_atom_site_label_1
_geom_bond_atom_site_label_2
_geom_bond_distance
_geom_bond_site_symmetry_2
Nb0 O4 1.969631 1_445
Nb0 O3 1.969631 1_555
Nb0 O5 1.969631 1_455
Nb0 O39 2.020894 1_555
Nb0 O41 2.020894 1_445
Nb0 O40 2.020894 1_545
Nb1 O42 1.960341 1_455
Nb1 O44 1.960341 1_445
Nb1 O43 1.960341 1_555
Nb1 O8 2.059053 1_545
Nb1 O7 2.059053 1_555
Nb1 O6 2.059053 1_445
Nb2 O10 1.953343 1_555
Nb2 O9 1.953343 1_445
Nb2 O11 1.953343 1_545
Nb2 O45 2.092824 1_445
Nb2 O47 2.092824 1_555
Nb2 O46 2.092824 1_455
Nb3 O19 1.982154 1_556
Nb3 O20 1.982154 1_556
Nb3 O18 1.982154 1_556
Nb3 O56 2.047340 1_555
Nb3 O54 2.047340 1_555
Nb3 O55 2.047340 1_555
Nb4 O57 1.959813 1_555
Nb4 O59 1.959813 1_555
Nb4 O58 1.959813 1_555
Nb4 O22 2.061792 1_555
Nb4 O21 2.061792 1_555
Nb4 O23 2.061792 1_555
Nb5 O62 1.942837 1_555
Nb5 O61 1.942837 1_555
Nb5 O60 1.942837 1_555
Nb5 O25 2.038616 1_554
Nb5 O26 2.038616 1_554
Nb5 O24 2.038616 1_554
Nb6 O27 1.954631 1_555
Nb6 O28 1.954631 1_555
Nb6 O29 1.954631 1_555
Nb6 O63 2.004985 1_555
Nb6 O65 2.004985 1_555
Nb6 O64 2.004985 1_555
Nb7 O68 1.953086 1_555
Nb7 O66 1.953086 1_555
Nb7 O67 1.953086 1_555
Nb7 O31 2.071546 1_555
Nb7 O32 2.071546 1_555
Nb7 O30 2.071546 1_555
Nb8 O69 1.961879 1_555
Nb8 O71 1.961879 1_555
Nb8 O70 1.961879 1_555
Nb8 O34 2.059822 1_555
Nb8 O33 2.059822 1_555
Nb8 O35 2.059822 1_555
O0 P0 1.495382 1_545
O0 Y0 2.202482 1_555
O1 P1 1.495382 1_555
O1 Y0 2.202482 1_665
O2 P2 1.495382 1_655
O2 Y0 2.202482 1_655
O3 P3 1.558436 1_555
O4 P4 1.558436 1_655
O5 P5 1.558436 1_545
O6 P5 1.544421 1_555
O7 P3 1.544421 1_555
O8 P4 1.544421 1_555
O9 P1 1.604391 1_555
O10 P2 1.604391 1_555
O11 P0 1.604391 1_555
O12 P6 1.501947 1_555
O12 Y1 2.230376 1_555
O13 P7 1.501947 1_555
O13 Y1 2.230376 1_555
O14 P8 1.501947 1_555
O14 Y1 2.230376 1_555
O15 P9 1.490952 1_555
O15 Y2 2.262700 1_555
O16 P10 1.490953 1_555
O16 Y2 2.262700 1_555
O17 P11 1.490953 1_555
O17 Y2 2.262700 1_555
O18 P11 1.587093 1_555
O19 P9 1.587093 1_555
O20 P10 1.587093 1_555
O21 P7 1.549360 1_555
O22 P8 1.549360 1_555
O23 P6 1.549360 1_555
O24 P12 1.530712 1_555
O25 P13 1.530712 1_555
O26 P14 1.530712 1_555
O27 P15 1.551556 1_555
O28 P16 1.551556 1_555
O29 P17 1.551556 1_555
O30 P17 1.545443 1_555
O31 P15 1.545443 1_555
O32 P16 1.545443 1_555
O33 P13 1.545301 1_555
O34 P14 1.545301 1_555
O35 P12 1.545301 1_555
O36 P17 1.495254 1_555
O36 Y0 2.210112 1_565
O37 P15 1.495263 1_555
O37 Y0 2.210112 1_665
O38 P16 1.495259 1_555
O38 Y0 2.210112 1_555
O39 P13 1.554552 1_555
O40 P14 1.554543 1_555
O41 P12 1.554548 1_555
O42 P6 1.579293 1_555
O43 P7 1.579302 1_555
O44 P8 1.579298 1_555
O45 P9 1.538978 1_555
O46 P10 1.538969 1_555
O47 P11 1.538974 1_555
O48 P5 1.494933 1_545
O48 Y1 2.228553 1_555
O49 P3 1.494942 1_555
O49 Y1 2.228553 1_555
O50 P4 1.494938 1_655
O50 Y1 2.228553 1_555
O51 P1 1.497658 1_555
O51 Y2 2.168019 1_555
O52 P2 1.497649 1_655
O52 Y2 2.168019 1_555
O53 P0 1.497655 1_545
O53 Y2 2.168019 1_555
O54 P12 1.544304 1_555
O55 P13 1.544286 1_655
O56 P14 1.544293 1_545
O57 P15 1.568259 1_545
O58 P16 1.568277 1_555
O59 P17 1.568267 1_655
O60 P11 1.573094 1_555
O61 P9 1.573077 1_455
O62 P10 1.573083 1_565
O63 P7 1.549915 1_565
O64 P8 1.549932 1_555
O65 P6 1.549920 1_455
O66 P0 1.578096 1_555
O67 P1 1.578105 1_555
O68 P2 1.578101 1_555
O69 P3 1.574205 1_555
O70 P4 1.574196 1_555
O71 P5 1.574201 1_555
