# generated using pymatgen
data_Rb6Si10O23
_symmetry_space_group_name_H-M   'P 1'
_cell_length_a   9.40131702
_cell_length_b   9.40131702
_cell_length_c   8.04540235
_cell_angle_alpha   90.00000000
_cell_angle_beta   90.00000000
_cell_angle_gamma   120.45736048
_symmetry_Int_Tables_number   1
_chemical_formula_structural   Rb6Si10O23
_chemical_formula_sum   'Rb6 Si10 O23'
_cell_volume   612.96513215
_cell_formula_units_Z   1
loop_
 _symmetry_equiv_pos_site_id
 _symmetry_equiv_pos_as_xyz
  1  'x, y, z'
loop_
 _atom_site_type_symbol
 _atom_site_label
 _atom_site_symmetry_multiplicity
 _atom_site_fract_x
 _atom_site_fract_y
 _atom_site_fract_z
 _atom_site_occupancy
  Rb  Rb0  1  0.22724811  0.98960227  0.50000000  1
  Rb  Rb1  1  0.98960227  0.22724811  0.50000000  1
  Rb  Rb2  1  0.24288446  0.00044790  0.00000000  1
  Rb  Rb3  1  0.00044790  0.24288446  0.00000000  1
  Rb  Rb4  1  0.75110249  0.75110249  0.50000000  1
  Rb  Rb5  1  0.75693392  0.75693392  0.00000000  1
  Si  Si0  1  0.30924218  0.65547353  0.68821805  1
  Si  Si1  1  0.65547353  0.30924218  0.31178195  1
  Si  Si2  1  0.30924218  0.65547353  0.31178195  1
  Si  Si3  1  0.65547353  0.30924218  0.68821805  1
  Si  Si4  1  0.58904976  0.97930820  0.80924712  1
  Si  Si5  1  0.97930820  0.58904976  0.19075288  1
  Si  Si6  1  0.58904976  0.97930820  0.19075288  1
  Si  Si7  1  0.97930820  0.58904976  0.80924712  1
  Si  Si8  1  0.40007582  0.40007582  0.20024053  1
  Si  Si9  1  0.40007582  0.40007582  0.79975947  1
  O  O0  1  0.58197069  0.15161599  0.80992960  1
  O  O1  1  0.15161599  0.58197069  0.19007040  1
  O  O2  1  0.58197069  0.15161599  0.19007040  1
  O  O3  1  0.15161599  0.58197069  0.80992960  1
  O  O4  1  0.42327612  0.85365029  0.69968721  1
  O  O5  1  0.85365029  0.42327612  0.30031279  1
  O  O6  1  0.42327612  0.85365029  0.30031279  1
  O  O7  1  0.85365029  0.42327612  0.69968721  1
  O  O8  1  0.75675783  0.99787122  0.75030044  1
  O  O9  1  0.99787122  0.75675783  0.24969956  1
  O  O10  1  0.75675783  0.99787122  0.24969956  1
  O  O11  1  0.99787122  0.75675783  0.75030044  1
  O  O12  1  0.42079380  0.57479646  0.72963012  1
  O  O13  1  0.57479646  0.42079380  0.27036988  1
  O  O14  1  0.42079380  0.57479646  0.27036988  1
  O  O15  1  0.57479646  0.42079380  0.72963012  1
  O  O16  1  0.42941346  0.42941346  0.00000000  1
  O  O17  1  0.90920000  0.53597106  0.00000000  1
  O  O18  1  0.53597106  0.90920000  0.00000000  1
  O  O19  1  0.60836133  0.23734370  0.50000000  1
  O  O20  1  0.23734370  0.60836133  0.50000000  1
  O  O21  1  0.23746277  0.23746277  0.75034158  1
  O  O22  1  0.23746277  0.23746277  0.24965842  1
loop_
_geom_bond_atom_site_label_1
_geom_bond_atom_site_label_2
_geom_bond_distance
_geom_bond_site_symmetry_2
O0 Si3 1.610665 1_555
O0 Si4 1.654659 1_545
O0 Rb2 3.150810 1_556
O1 Si2 1.610665 1_555
O1 Si5 1.654659 1_455
O1 Rb3 3.150810 1_555
O2 Si1 1.610665 1_555
O2 Si6 1.654659 1_545
O2 Rb2 3.150810 1_555
O3 Si0 1.610665 1_555
O3 Si7 1.654659 1_455
O3 Rb3 3.150810 1_556
O4 Si0 1.613730 1_555
O4 Si4 1.653760 1_555
O4 Rb0 3.162119 1_555
O5 Si1 1.613730 1_555
O5 Si5 1.653760 1_555
O5 Rb1 3.162119 1_555
O6 Si2 1.613730 1_555
O6 Si6 1.653760 1_555
O6 Rb0 3.162119 1_555
O7 Si3 1.613730 1_555
O7 Si7 1.653760 1_555
O7 Rb1 3.162119 1_555
O8 Si4 1.569180 1_555
O8 Rb1 2.951569 1_565
O8 Rb5 3.028271 1_556
O8 Rb3 3.039801 1_666
O8 Rb4 3.052083 1_555
O9 Si5 1.569180 1_555
O9 Rb0 2.951569 1_655
O9 Rb5 3.028271 1_555
O9 Rb2 3.039801 1_665
O9 Rb4 3.052083 1_555
O10 Si6 1.569180 1_555
O10 Rb1 2.951569 1_565
O10 Rb5 3.028271 1_555
O10 Rb3 3.039801 1_665
O10 Rb4 3.052083 1_555
O11 Si7 1.569180 1_555
O11 Rb0 2.951569 1_655
O11 Rb5 3.028271 1_556
O11 Rb2 3.039801 1_666
O11 Rb4 3.052083 1_555
O12 Si0 1.610133 1_555
O12 Si9 1.652294 1_555
O12 Rb4 3.253531 1_555
O13 Si1 1.610133 1_555
O13 Si8 1.652294 1_555
O13 Rb4 3.253531 1_555
O14 Si2 1.610133 1_555
O14 Si8 1.652294 1_555
O14 Rb4 3.253531 1_555
O15 Si3 1.610133 1_555
O15 Si9 1.652294 1_555
O15 Rb4 3.253531 1_555
O16 Si9 1.634134 1_554
O16 Si8 1.634134 1_555
O16 Rb5 3.057813 1_555
O17 Si7 1.644765 1_554
O17 Si5 1.644765 1_555
O17 Rb5 3.062562 1_555
O17 Rb3 3.274823 1_655
O18 Si6 1.644765 1_555
O18 Si4 1.644765 1_554
O18 Rb5 3.062562 1_555
O18 Rb2 3.274823 1_565
O19 Si1 1.625617 1_555
O19 Si3 1.625617 1_555
O19 Rb0 3.130839 1_545
O20 Si2 1.625617 1_555
O20 Si0 1.625617 1_555
O20 Rb1 3.130839 1_455
O21 Si9 1.569393 1_555
O21 Rb3 3.019492 1_556
O21 Rb2 3.019492 1_556
O21 Rb0 3.044480 1_545
O21 Rb1 3.044480 1_455
O22 Si8 1.569393 1_555
O22 Rb3 3.019492 1_555
O22 Rb2 3.019492 1_555
O22 Rb1 3.044480 1_455
O22 Rb0 3.044480 1_545
