# generated using pymatgen
data_Na7Ti2In2Si3(PO8)3
_symmetry_space_group_name_H-M   'P 1'
_cell_length_a   9.07271239
_cell_length_b   9.07499270
_cell_length_c   22.17494195
_cell_angle_alpha   89.97212997
_cell_angle_beta   89.99668589
_cell_angle_gamma   120.00597054
_symmetry_Int_Tables_number   1
_chemical_formula_structural   Na7Ti2In2Si3(PO8)3
_chemical_formula_sum   'Na21 Ti6 In6 Si9 P9 O72'
_cell_volume   1581.06724688
_cell_formula_units_Z   3
loop_
 _symmetry_equiv_pos_site_id
 _symmetry_equiv_pos_as_xyz
  1  'x, y, z'
loop_
 _atom_site_type_symbol
 _atom_site_label
 _atom_site_symmetry_multiplicity
 _atom_site_fract_x
 _atom_site_fract_y
 _atom_site_fract_z
 _atom_site_occupancy
  Na  Na0  1  0.62755911  0.00164627  0.25262088  1
  Na  Na1  1  0.37142199  0.37370434  0.24876969  1
  Na  Na2  1  0.00083034  0.62097097  0.25033745  1
  Na  Na3  1  0.63122429  0.63199558  0.74937166  1
  Na  Na4  1  0.98992686  0.36366096  0.74815694  1
  Na  Na5  1  0.37540110  0.00183236  0.74543540  1
  Na  Na6  1  0.02988320  0.69432950  0.58443592  1
  Na  Na7  1  0.65850852  0.96638186  0.58258334  1
  Na  Na8  1  0.67008983  0.69204879  0.08334250  1
  Na  Na9  1  0.02723191  0.33764425  0.08595885  1
  Na  Na10  1  0.95839972  0.66349322  0.92076727  1
  Na  Na11  1  0.70267600  0.03388342  0.91594669  1
  Na  Na12  1  0.34246308  0.30408786  0.91902617  1
  Na  Na13  1  0.97101815  0.30913510  0.41612059  1
  Na  Na14  1  0.33620606  0.03337595  0.41690232  1
  Na  Na15  1  0.00217840  0.99865962  0.49996270  1
  Na  Na16  1  0.01003655  0.99431044  0.00287435  1
  Na  Na17  1  0.66688597  0.33347441  0.83308362  1
  Na  Na18  1  0.67272165  0.34660193  0.33751246  1
  Na  Na19  1  0.32566643  0.67130713  0.16499341  1
  Na  Na20  1  0.33393394  0.65711710  0.66198592  1
  Ti  Ti0  1  0.98703606  0.99532430  0.35652917  1
  Ti  Ti1  1  0.00077924  0.00821798  0.64446620  1
  Ti  Ti2  1  0.01181237  0.00728551  0.14635432  1
  Ti  Ti3  1  0.66800271  0.32881077  0.48406515  1
  Ti  Ti4  1  0.33605860  0.66716974  0.01996628  1
  Ti  Ti5  1  0.32955079  0.67131357  0.51531789  1
  In  In0  1  0.99546824  0.99798023  0.85243430  1
  In  In1  1  0.66819929  0.33142569  0.67699190  1
  In  In2  1  0.67167218  0.33630302  0.18192206  1
  In  In3  1  0.66411172  0.33704283  0.98891529  1
  In  In4  1  0.32812064  0.66193415  0.31933510  1
  In  In5  1  0.33744256  0.66855708  0.81369439  1
  Si  Si0  1  0.99930150  0.28665527  0.25093910  1
  Si  Si1  1  0.70685682  0.00307887  0.74874959  1
  Si  Si2  1  0.97072053  0.33721601  0.58263220  1
  Si  Si3  1  0.36618071  0.03436231  0.58231825  1
  Si  Si4  1  0.97577533  0.64170959  0.08420843  1
  Si  Si5  1  0.36407418  0.33317638  0.08357962  1
  Si  Si6  1  0.62717938  0.66307574  0.91660383  1
  Si  Si7  1  0.62716744  0.96266718  0.41652705  1
  Si  Si8  1  0.02949090  0.66467416  0.41623055  1
  P  P0  1  0.28367827  0.00158072  0.25159458  1
  P  P1  1  0.71673527  0.71823406  0.25001569  1
  P  P2  1  0.28896045  0.28780575  0.74885037  1
  P  P3  1  0.99781647  0.70735137  0.74832485  1
  P  P4  1  0.66218628  0.62664823  0.58327909  1
  P  P5  1  0.66551930  0.02846104  0.08431206  1
  P  P6  1  0.04262070  0.37641863  0.91770596  1
  P  P7  1  0.33622797  0.95868932  0.91685405  1
  P  P8  1  0.33821010  0.37286985  0.41667425  1
  O  O0  1  0.19730458  0.01726487  0.30905086  1
  O  O1  1  0.82827292  0.81217354  0.30632573  1
  O  O2  1  0.98439220  0.16870140  0.31041771  1
  O  O3  1  0.22186728  0.18917311  0.80885218  1
  O  O4  1  0.97704988  0.78181395  0.80852932  1
  O  O5  1  0.81417826  0.03710789  0.81119244  1
  O  O6  1  0.81651045  0.98409196  0.69148393  1
  O  O7  1  0.17041793  0.18211653  0.69554905  1
  O  O8  1  0.01912060  0.82252065  0.69348070  1
  O  O9  1  0.80279684  0.81946312  0.19296811  1
  O  O10  1  0.01319036  0.18446375  0.19223659  1
  O  O11  1  0.17322391  0.98483351  0.19579292  1
  O  O12  1  0.90871558  0.39088342  0.64331849  1
  O  O13  1  0.48054629  0.09811258  0.64306307  1
  O  O14  1  0.63297819  0.53380845  0.64408293  1
  O  O15  1  0.90478684  0.51400847  0.14280980  1
  O  O16  1  0.63195629  0.10401856  0.14126886  1
  O  O17  1  0.48891428  0.38363330  0.14234071  1
  O  O18  1  0.43274172  0.29080970  0.02286577  1
  O  O19  1  0.85141050  0.56762061  0.02556838  1
  O  O20  1  0.70656119  0.14495860  0.02854738  1
  O  O21  1  0.46933612  0.16093257  0.52572802  1
  O  O22  1  0.69180209  0.52568820  0.53325118  1
  O  O23  1  0.83233896  0.30045069  0.52789975  1
  O  O24  1  0.51818471  0.68089886  0.97347244  1
  O  O25  1  0.15569336  0.47614645  0.97224404  1
  O  O26  1  0.31511447  0.83717911  0.96914528  1
  O  O27  1  0.52863568  0.83828405  0.47355411  1
  O  O28  1  0.30734194  0.47270529  0.46657519  1
  O  O29  1  0.16699280  0.69797879  0.47115855  1
  O  O30  1  0.09196824  0.60964097  0.35530164  1
  O  O31  1  0.51365811  0.89560054  0.35514546  1
  O  O32  1  0.37038482  0.46655411  0.35544536  1
  O  O33  1  0.11131300  0.47778052  0.85848227  1
  O  O34  1  0.35779593  0.88907025  0.85588539  1
  O  O35  1  0.51963341  0.62977846  0.85431152  1
  O  O36  1  0.02882004  0.84513741  0.41062051  1
  O  O37  1  0.82144178  0.98835468  0.41177442  1
  O  O38  1  0.17152768  0.19306518  0.41384755  1
  O  O39  1  0.04044717  0.20424727  0.91802480  1
  O  O40  1  0.17418805  0.97637574  0.91746483  1
  O  O41  1  0.81302654  0.83948742  0.91989879  1
  O  O42  1  0.97370616  0.15665121  0.58899521  1
  O  O43  1  0.17271532  0.00604290  0.58863360  1
  O  O44  1  0.83020390  0.80608923  0.58629299  1
  O  O45  1  0.98511687  0.82488838  0.09477895  1
  O  O46  1  0.82446023  0.00688671  0.09085704  1
  O  O47  1  0.16904381  0.17154118  0.09209345  1
  O  O48  1  0.68545716  0.17117372  0.74546094  1
  O  O49  1  0.47004744  0.31718223  0.74249606  1
  O  O50  1  0.83537978  0.53079111  0.74477902  1
  O  O51  1  0.70058244  0.53908891  0.25068187  1
  O  O52  1  0.82431673  0.29834147  0.25094028  1
  O  O53  1  0.46185326  0.16493320  0.24774837  1
  O  O54  1  0.65036229  0.49573418  0.91944004  1
  O  O55  1  0.85985271  0.34559509  0.92384294  1
  O  O56  1  0.49896764  0.13436214  0.92272818  1
  O  O57  1  0.65176011  0.15498137  0.42592389  1
  O  O58  1  0.48946213  0.34342087  0.42692677  1
  O  O59  1  0.84389670  0.49812753  0.43043945  1
  O  O60  1  0.34201320  0.50344832  0.07510420  1
  O  O61  1  0.16261394  0.65950626  0.07274840  1
  O  O62  1  0.51022453  0.84776243  0.07589168  1
  O  O63  1  0.34586118  0.84313411  0.57237306  1
  O  O64  1  0.51173997  0.65743366  0.57318174  1
  O  O65  1  0.15687673  0.50214701  0.56906445  1
  O  O66  1  0.30087040  0.83945554  0.25063186  1
  O  O67  1  0.53869781  0.70267739  0.25314203  1
  O  O68  1  0.17390463  0.47345515  0.25020845  1
  O  O69  1  0.28944230  0.45887841  0.74789522  1
  O  O70  1  0.15965972  0.68923505  0.74897503  1
  O  O71  1  0.52174383  0.82636732  0.74583611  1
loop_
_geom_bond_atom_site_label_1
_geom_bond_atom_site_label_2
_geom_bond_distance
_geom_bond_site_symmetry_2
Na0 O52 2.372808 1_555
Na0 O67 2.413182 1_545
Na0 O31 2.483075 1_545
Na0 O66 2.567119 1_545
Na0 O53 2.587615 1_555
Na0 O16 2.631053 1_555
Na1 O68 2.377881 1_555
Na1 O53 2.412035 1_555
Na1 O32 2.513099 1_555
Na1 O17 2.572493 1_555
Na1 O51 2.586497 1_555
Na1 O67 2.587294 1_555
Na2 O66 2.437874 1_555
Na2 O51 2.438888 1_455
Na2 O30 2.489359 1_555
Na2 O68 2.521968 1_555
Na2 O52 2.539189 1_455
Na2 O15 2.558024 1_455
Na3 O71 2.420010 1_555
Na3 O50 2.446676 1_555
Na3 O49 2.479036 1_555
Na3 O14 2.502314 1_555
Na3 O35 2.533737 1_555
Na3 O69 2.685576 1_555
Na4 O69 2.404685 1_655
Na4 O48 2.420643 1_555
Na4 O12 2.488020 1_555
Na4 O50 2.529627 1_555
Na4 O70 2.559425 1_655
Na4 O33 2.670690 1_655
Na5 O48 2.439492 1_555
Na5 O13 2.447645 1_555
Na5 O70 2.516157 1_545
Na5 O71 2.532402 1_545
Na5 O49 2.544296 1_555
Na5 O34 2.627815 1_545
Na6 O43 2.454361 1_565
Na6 O44 2.479940 1_455
Na6 O63 2.498221 1_555
Na6 O65 2.548681 1_555
Na6 O8 2.706700 1_555
Na6 O12 2.732247 1_455
Na6 O29 2.795821 1_555
Na6 O22 2.888915 1_455
Na7 O64 2.438009 1_555
Na7 O63 2.485045 1_555
Na7 O42 2.498225 1_565
Na7 O44 2.610677 1_555
Na7 O27 2.686667 1_555
Na7 O6 2.771766 1_555
Na7 O13 2.786849 1_565
Na7 O23 2.891848 1_565
Na8 O46 2.480082 1_565
Na8 O62 2.485476 1_555
Na8 O45 2.498163 1_555
Na8 O60 2.593750 1_555
Na8 O9 2.703101 1_555
Na8 O19 2.735273 1_555
Na8 O17 2.764399 1_555
Na8 O24 2.776087 1_554
Na9 O47 2.426046 1_555
Na9 O60 2.485925 1_555
Na9 O61 2.556739 1_555
Na9 O46 2.623471 1_455
Na9 O15 2.676779 1_455
Na9 O10 2.705982 1_555
Na9 O25 2.797883 1_554
Na9 O20 2.838504 1_455
Na10 O54 2.423571 1_555
Na10 O19 2.500613 1_556
Na10 O40 2.518004 1_655
Na10 O41 2.529367 1_555
Na10 O55 2.558669 1_555
Na10 O4 2.681734 1_555
Na11 O41 2.426651 1_545
Na11 O56 2.440396 1_555
Na11 O55 2.456029 1_555
Na11 O5 2.527896 1_555
Na11 O39 2.654226 1_655
Na11 O20 2.686786 1_556
Na12 O39 2.417952 1_555
Na12 O54 2.443184 1_555
Na12 O18 2.467023 1_556
Na12 O56 2.565667 1_555
Na12 O40 2.575947 1_545
Na12 O3 2.667391 1_555
Na13 O38 2.517536 1_655
Na13 O57 2.518141 1_555
Na13 O59 2.520223 1_555
Na13 O37 2.524748 1_545
Na13 O2 2.700106 1_555
Na13 O30 2.731887 1_655
Na13 O23 2.762875 1_555
Na13 O28 2.870159 1_655
Na14 O36 2.439361 1_545
Na14 O58 2.446858 1_555
Na14 O57 2.508890 1_555
Na14 O38 2.549995 1_555
Na14 O0 2.673138 1_555
Na14 O21 2.688319 1_555
Na14 O31 2.836447 1_545
Na14 O29 2.896771 1_545
Na15 O43 2.482224 1_565
Na15 O36 2.502779 1_555
Na15 O37 2.523693 1_455
Na15 O42 2.528516 1_465
Na15 O38 2.530811 1_565
Na15 O44 2.534264 1_455
Na16 O41 2.458768 1_454
Na16 O40 2.464542 1_554
Na16 O45 2.493515 1_455
Na16 O47 2.502984 1_565
Na16 O39 2.591658 1_564
Na16 O46 2.616539 1_465
Na17 O54 2.466025 1_555
Na17 O48 2.494809 1_555
Na17 O50 2.576057 1_555
Na17 O56 2.603928 1_555
Na17 O55 2.633565 1_555
Na17 O49 2.642525 1_555
Na18 O52 2.524250 1_555
Na18 O51 2.525415 1_555
Na18 O59 2.533028 1_555
Na18 O57 2.563130 1_555
Na18 O58 2.578402 1_555
Na18 O53 2.681281 1_555
Na19 O68 2.492818 1_555
Na19 O61 2.495230 1_555
Na19 O66 2.516256 1_555
Na19 O60 2.558236 1_555
Na19 O62 2.566442 1_555
Na19 O67 2.662352 1_555
Na20 O71 2.470897 1_555
Na20 O69 2.509742 1_555
Na20 O64 2.544645 1_555
Na20 O65 2.558854 1_555
Na20 O63 2.573754 1_555
Na20 O70 2.601355 1_555
In0 O5 2.061990 1_565
In0 O4 2.120874 1_555
In0 O3 2.144101 1_665
In0 O41 2.159419 1_555
In0 O39 2.241564 1_665
In0 O40 2.250573 1_655
In1 O13 2.084211 1_555
In1 O12 2.105280 1_555
In1 O14 2.143259 1_555
In1 O48 2.161091 1_555
In1 O50 2.256480 1_555
In1 O49 2.264001 1_555
In2 O15 2.100746 1_555
In2 O17 2.101505 1_555
In2 O16 2.151341 1_555
In2 O52 2.203611 1_555
In2 O53 2.282442 1_555
In2 O51 2.302232 1_555
In3 O18 2.065885 1_556
In3 O19 2.090972 1_556
In3 O20 2.151585 1_556
In3 O54 2.154191 1_555
In3 O56 2.242472 1_555
In3 O55 2.259152 1_555
In4 O31 2.095806 1_555
In4 O30 2.105772 1_555
In4 O32 2.147248 1_555
In4 O68 2.200493 1_555
In4 O67 2.287768 1_555
In4 O66 2.318083 1_555
In5 O35 2.061320 1_555
In5 O34 2.132200 1_555
In5 O33 2.153689 1_555
In5 O71 2.171113 1_555
In5 O70 2.235908 1_555
In5 O69 2.261268 1_555
O0 P0 1.539247 1_555
O0 Ti0 2.099306 1_445
O1 P1 1.564710 1_555
O1 Ti0 1.919411 1_555
O2 Si0 1.660570 1_555
O2 Ti0 1.886235 1_545
O3 P2 1.547851 1_555
O4 P3 1.550041 1_555
O5 Si1 1.631128 1_555
O6 Si1 1.674364 1_565
O6 Ti1 1.887706 1_665
O7 P2 1.563063 1_555
O7 Ti1 1.927444 1_555
O8 P3 1.550956 1_455
O8 Ti1 2.080301 1_565
O9 P1 1.528141 1_555
O9 Ti2 2.082070 1_665
O10 Si0 1.639649 1_455
O10 Ti2 1.897929 1_555
O11 P0 1.551288 1_565
O11 Ti2 1.919993 1_565
O12 Si2 1.624560 1_555
O13 Si3 1.620584 1_555
O14 P4 1.540644 1_555
O15 Si4 1.642679 1_555
O16 P5 1.538741 1_555
O17 Si5 1.634759 1_555
O18 Si5 1.608890 1_555
O19 Si4 1.630433 1_555
O20 P5 1.546098 1_555
O21 Si3 1.641113 1_555
O21 Ti3 1.917109 1_555
O22 P4 1.545806 1_555
O22 Ti3 2.011087 1_555
O23 Si2 1.655970 1_555
O23 Ti3 1.902054 1_555
O24 Si6 1.659619 1_555
O24 Ti4 1.898052 1_556
O25 P6 1.551351 1_555
O25 Ti4 1.991867 1_556
O26 P7 1.544241 1_555
O26 Ti4 1.994498 1_556
O27 Si7 1.631457 1_555
O27 Ti5 1.917606 1_555
O28 P8 1.542223 1_555
O28 Ti5 2.023881 1_555
O29 Si8 1.659713 1_555
O29 Ti5 1.884012 1_555
O30 Si8 1.637041 1_555
O31 Si7 1.630259 1_555
O32 P8 1.549874 1_555
O33 P6 1.544217 1_555
O34 P7 1.545880 1_555
O35 Si6 1.630062 1_555
O36 Si8 1.645404 1_555
O36 Ti0 1.988795 1_455
O37 Si7 1.661682 1_555
O37 Ti0 1.914841 1_555
O38 P8 1.576535 1_555
O38 Ti0 2.153068 1_445
O39 P6 1.552699 1_555
O40 P7 1.556685 1_555
O41 Si6 1.646704 1_555
O42 Si2 1.658283 1_555
O42 Ti1 1.928013 1_655
O43 Si3 1.647829 1_555
O43 Ti1 1.999303 1_555
O44 P4 1.580283 1_555
O44 Ti1 2.141742 1_665
O45 Si4 1.638593 1_555
O45 Ti2 1.925468 1_665
O46 P5 1.556024 1_555
O46 Ti2 2.097116 1_655
O47 Si5 1.649832 1_555
O47 Ti2 1.891016 1_555
O48 Si1 1.632838 1_555
O49 P2 1.533647 1_555
O50 P3 1.543945 1_555
O51 P1 1.557694 1_555
O52 Si0 1.643191 1_555
O53 P0 1.555978 1_555
O54 Si6 1.635174 1_555
O55 P6 1.543506 1_655
O56 P7 1.544181 1_545
O57 Si7 1.658308 1_545
O57 Ti3 1.985436 1_555
O58 P8 1.540456 1_555
O58 Ti3 2.112287 1_555
O59 Si8 1.634932 1_655
O59 Ti3 1.966526 1_555
O60 Si5 1.664973 1_555
O60 Ti4 1.945226 1_555
O61 Si4 1.640192 1_455
O61 Ti4 1.934238 1_555
O62 P5 1.548719 1_565
O62 Ti4 2.032934 1_555
O63 Si3 1.665716 1_565
O63 Ti5 1.955786 1_555
O64 P4 1.540348 1_555
O64 Ti5 2.145427 1_555
O65 Si2 1.629240 1_455
O65 Ti5 1.955522 1_555
O66 P0 1.555322 1_565
O67 P1 1.551055 1_555
O68 Si0 1.642409 1_455
O69 P2 1.550436 1_555
O70 P3 1.557164 1_455
O71 Si1 1.644036 1_565
