# generated using pymatgen
data_KMgMn4O8
_symmetry_space_group_name_H-M   'P 1'
_cell_length_a   3.16285058
_cell_length_b   7.49121639
_cell_length_c   7.57164232
_cell_angle_alpha   85.83059529
_cell_angle_beta   73.87922572
_cell_angle_gamma   82.33612940
_symmetry_Int_Tables_number   1
_chemical_formula_structural   KMgMn4O8
_chemical_formula_sum   'K1 Mg1 Mn4 O8'
_cell_volume   170.68577209
_cell_formula_units_Z   1
loop_
 _symmetry_equiv_pos_site_id
 _symmetry_equiv_pos_as_xyz
  1  'x, y, z'
loop_
 _atom_site_type_symbol
 _atom_site_label
 _atom_site_symmetry_multiplicity
 _atom_site_fract_x
 _atom_site_fract_y
 _atom_site_fract_z
 _atom_site_occupancy
  K  K0  1  0.55032300  0.94324200  0.92279400  1
  Mg  Mg0  1  0.90064500  0.24469000  0.20016800  1
  Mn  Mn0  1  0.55533100  0.56723100  0.15980900  1
  Mn  Mn1  1  0.17982800  0.16678100  0.52304600  1
  Mn  Mn2  1  0.83551800  0.80553900  0.50122600  1
  Mn  Mn3  1  0.29488300  0.48222700  0.80268800  1
  O  O0  1  0.80079900  0.60729700  0.67873300  1
  O  O1  1  0.44719400  0.72460600  0.35514700  1
  O  O2  1  0.52110200  0.26090900  0.66018600  1
  O  O3  1  0.28256300  0.35516800  0.31070700  1
  O  O4  1  0.09680200  0.66109300  0.01757100  1
  O  O5  1  0.88204100  0.04314900  0.36805100  1
  O  O6  1  0.80612900  0.36323300  0.97368000  1
  O  O7  1  0.22183400  0.92298900  0.63730500  1
loop_
_geom_bond_atom_site_label_1
_geom_bond_atom_site_label_2
_geom_bond_distance
_geom_bond_site_symmetry_2
K0 O7 2.572692 1_655
K0 O4 2.656403 1_556
K0 O7 2.666828 1_555
K0 O4 2.731987 1_656
K0 O2 2.996755 1_565
Mg0 O5 1.897849 1_555
Mg0 O3 1.942525 1_655
Mg0 O6 1.952239 1_554
Mg0 O3 1.991901 1_555
Mn0 O1 1.886655 1_555
Mn0 O4 1.942697 1_655
Mn0 O3 2.031655 1_555
Mn0 O4 2.059804 1_555
Mn0 O6 2.078406 1_554
Mn1 O2 1.916360 1_555
Mn1 O7 1.967442 1_545
Mn1 O5 2.031414 1_455
Mn1 O3 2.045568 1_555
Mn1 O2 2.104623 1_455
Mn1 O5 2.308634 1_555
Mn2 O0 1.922288 1_555
Mn2 O1 1.982458 1_655
Mn2 O5 1.983244 1_565
Mn2 O1 2.037147 1_555
Mn2 O7 2.041790 1_555
Mn2 O7 2.108636 1_655
Mn3 O0 1.938337 1_555
Mn3 O2 1.984918 1_555
Mn3 O6 1.987157 1_455
Mn3 O4 2.088571 1_556
Mn3 O0 2.120581 1_455
Mn3 O6 2.386590 1_555
