# generated using pymatgen
data_KMgFe(SO4)2
_symmetry_space_group_name_H-M   'P 1'
_cell_length_a   4.97106528
_cell_length_b   4.96814485
_cell_length_c   10.26254708
_cell_angle_alpha   77.38817804
_cell_angle_beta   77.78179078
_cell_angle_gamma   65.19282513
_symmetry_Int_Tables_number   1
_chemical_formula_structural   KMgFe(SO4)2
_chemical_formula_sum   'K1 Mg1 Fe1 S2 O8'
_cell_volume   222.44476715
_cell_formula_units_Z   1
loop_
 _symmetry_equiv_pos_site_id
 _symmetry_equiv_pos_as_xyz
  1  'x, y, z'
loop_
 _atom_site_type_symbol
 _atom_site_label
 _atom_site_symmetry_multiplicity
 _atom_site_fract_x
 _atom_site_fract_y
 _atom_site_fract_z
 _atom_site_occupancy
  K  K0  1  0.06001805  0.08376826  0.60342531  1
  Mg  Mg0  1  0.89686347  0.88496663  0.29955718  1
  Fe  Fe0  1  -0.00287182  -0.00182253  0.97112187  1
  S  S0  1  0.60119784  0.59217553  0.16310442  1
  S  S1  1  0.39141298  0.39543044  0.81827310  1
  O  O0  1  0.25662528  0.72363054  0.82707317  1
  O  O1  1  0.26849022  0.71461420  0.16121005  1
  O  O2  1  0.72371028  0.25920730  0.16068929  1
  O  O3  1  0.71738578  0.27777614  0.82980475  1
  O  O4  1  0.24788528  0.24226402  0.93480570  1
  O  O5  1  0.74069017  0.73483826  0.04526631  1
  O  O6  1  0.35760873  0.35226762  0.68598077  1
  O  O7  1  0.65765175  0.64366159  0.29135509  1
loop_
_geom_bond_atom_site_label_1
_geom_bond_atom_site_label_2
_geom_bond_distance
_geom_bond_site_symmetry_2
K0 O0 2.667063 1_545
K0 O3 2.674480 1_455
K0 O6 2.713963 1_555
K0 O6 3.165790 1_455
K0 O6 3.284546 1_545
K0 Mg0 3.800771 1_445
Mg0 O7 2.034953 1_555
Mg0 O1 2.060938 1_655
Mg0 O2 2.061074 1_565
Fe0 O4 2.009407 1_555
Fe0 O0 2.075283 1_545
Fe0 O3 2.078374 1_455
Fe0 O5 2.114213 1_446
Fe0 O2 2.411916 1_456
Fe0 O1 2.434951 1_546
O0 S1 1.495896 1_555
O1 S0 1.506668 1_555
O2 S0 1.508023 1_555
O3 S1 1.495870 1_555
O4 S1 1.488408 1_555
O5 S0 1.459047 1_555
O6 S1 1.473565 1_555
O7 S0 1.496699 1_555
