# generated using pymatgen
data_La(GePt)2
_symmetry_space_group_name_H-M   'P 1'
_cell_length_a   4.43367760
_cell_length_b   4.41896548
_cell_length_c   9.95300982
_cell_angle_alpha   90.00000000
_cell_angle_beta   90.70450133
_cell_angle_gamma   90.00000000
_symmetry_Int_Tables_number   1
_chemical_formula_structural   La(GePt)2
_chemical_formula_sum   'La2 Ge4 Pt4'
_cell_volume   194.98729752
_cell_formula_units_Z   2
loop_
 _symmetry_equiv_pos_site_id
 _symmetry_equiv_pos_as_xyz
  1  'x, y, z'
loop_
 _atom_site_type_symbol
 _atom_site_label
 _atom_site_symmetry_multiplicity
 _atom_site_fract_x
 _atom_site_fract_y
 _atom_site_fract_z
 _atom_site_occupancy
  La  La0  1  0.74693693  0.74575636  0.25406601  1
  La  La1  1  0.25306307  0.24575636  0.74593399  1
  Ge  Ge0  1  0.25258720  0.74621219  0.50013447  1
  Ge  Ge1  1  0.22828832  0.24527266  0.12680180  1
  Ge  Ge2  1  0.74741280  0.24621219  0.49986553  1
  Ge  Ge3  1  0.77171168  0.74527266  0.87319820  1
  Pt  Pt0  1  0.72032270  0.24495199  0.99891125  1
  Pt  Pt1  1  0.75526185  0.74620679  0.62195136  1
  Pt  Pt2  1  0.24473815  0.24620679  0.37804864  1
  Pt  Pt3  1  0.27967730  0.74495199  0.00108875  1
loop_
_geom_bond_atom_site_label_1
_geom_bond_atom_site_label_2
_geom_bond_distance
_geom_bond_site_symmetry_2
La0 Pt3 3.240885 1_555
La0 Pt2 3.346648 1_655
La0 Pt2 3.349275 1_665
La0 Pt0 3.364822 1_564
La0 Pt0 3.369487 1_554
La0 Pt2 3.379503 1_555
La0 Pt2 3.382104 1_565
La0 Pt3 3.473478 1_655
La1 Pt0 3.240885 1_555
La1 Pt1 3.346648 1_445
La1 Pt1 3.349275 1_455
La1 Pt3 3.364822 1_556
La1 Pt3 3.369487 1_546
La1 Pt1 3.379503 1_545
La1 Pt1 3.382104 1_555
La1 Pt0 3.473478 1_455
Ge0 Pt2 2.521587 1_565
Ge0 Pt2 2.521629 1_555
Ge0 Pt1 2.524018 1_555
Ge0 Pt1 2.529368 1_455
Ge0 La1 3.295131 1_565
Ge0 La1 3.297831 1_555
Ge0 La0 3.299887 1_455
Ge0 La0 3.306681 1_555
Ge1 Pt2 2.500832 1_555
Ge1 Pt0 2.539210 1_554
Ge1 Pt3 2.549517 1_555
Ge1 Pt3 2.551972 1_545
Ge1 Pt0 2.573320 1_454
Ge1 La0 3.331352 1_445
Ge1 La0 3.334186 1_455
Ge1 La0 3.419499 1_545
Ge1 La0 3.422260 1_555
Ge2 Pt1 2.521587 1_555
Ge2 Pt1 2.521629 1_545
Ge2 Pt2 2.524018 1_555
Ge2 Pt2 2.529368 1_655
Ge2 La0 3.295131 1_555
Ge2 La0 3.297831 1_545
Ge2 La1 3.299887 1_655
Ge2 La1 3.306681 1_555
Ge3 Pt1 2.500832 1_555
Ge3 Pt3 2.539210 1_556
Ge3 Pt0 2.549517 1_565
Ge3 Pt0 2.551972 1_555
Ge3 Pt3 2.573320 1_656
Ge3 La1 3.331352 1_655
Ge3 La1 3.334186 1_665
Ge3 La1 3.419499 1_555
Ge3 La1 3.422260 1_565
