# generated using pymatgen
data_NaNbSn3(PO4)6
_symmetry_space_group_name_H-M   'P 1'
_cell_length_a   8.74522014
_cell_length_b   8.74521986
_cell_length_c   22.78363545
_cell_angle_alpha   90.00000000
_cell_angle_beta   90.00000000
_cell_angle_gamma   120.00000106
_symmetry_Int_Tables_number   1
_chemical_formula_structural   NaNbSn3(PO4)6
_chemical_formula_sum   'Na3 Nb3 Sn9 P18 O72'
_cell_volume   1509.02046217
_cell_formula_units_Z   3
loop_
 _symmetry_equiv_pos_site_id
 _symmetry_equiv_pos_as_xyz
  1  'x, y, z'
loop_
 _atom_site_type_symbol
 _atom_site_label
 _atom_site_symmetry_multiplicity
 _atom_site_fract_x
 _atom_site_fract_y
 _atom_site_fract_z
 _atom_site_occupancy
  Na  Na0  1  -0.00000000  -0.00000000  0.99824901  1
  Na  Na1  1  0.66666700  0.33333300  0.83391851  1
  Na  Na2  1  0.66666700  0.33333300  0.33312371  1
  Nb  Nb0  1  -0.00000000  -0.00000000  0.64500155  1
  Nb  Nb1  1  0.00000000  -0.00000000  0.14652724  1
  Nb  Nb2  1  0.33333300  0.66666700  0.52136538  1
  Sn  Sn0  1  -0.00000000  -0.00000000  0.35547731  1
  Sn  Sn1  1  -0.00000000  -0.00000000  0.85289237  1
  Sn  Sn2  1  0.66666700  0.33333300  0.68608397  1
  Sn  Sn3  1  0.66666700  0.33333300  0.18552061  1
  Sn  Sn4  1  0.66666700  0.33333300  0.98051243  1
  Sn  Sn5  1  0.66666700  0.33333300  0.48042566  1
  Sn  Sn6  1  0.33333300  0.66666700  0.02046394  1
  Sn  Sn7  1  0.33333300  0.66666700  0.31111562  1
  Sn  Sn8  1  0.33333300  0.66666700  0.81176275  1
  P  P0  1  0.29043277  0.00064213  0.25098425  1
  P  P1  1  0.71020935  0.70956723  0.25098425  1
  P  P2  1  0.99935787  0.28979065  0.25098425  1
  P  P3  1  0.29049880  0.29051191  0.75039055  1
  P  P4  1  0.00001311  0.70950120  0.75039055  1
  P  P5  1  0.70948809  -0.00001311  0.75039055  1
  P  P6  1  0.95416055  0.33343117  0.58327572  1
  P  P7  1  0.37927161  0.04583945  0.58327572  1
  P  P8  1  0.66656883  0.62072839  0.58327572  1
  P  P9  1  0.95740995  0.62190173  0.08308894  1
  P  P10  1  0.66449279  0.04259005  0.08308894  1
  P  P11  1  0.37809827  0.33550721  0.08308894  1
  P  P12  1  0.62309496  0.66661998  0.91647376  1
  P  P13  1  0.04352402  0.37690504  0.91647376  1
  P  P14  1  0.33338002  0.95647598  0.91647376  1
  P  P15  1  0.62257844  0.95623421  0.41581637  1
  P  P16  1  0.33365477  0.37742156  0.41581637  1
  P  P17  1  0.04376579  0.66634523  0.41581637  1
  O  O0  1  0.21118376  0.03765362  0.30559743  1
  O  O1  1  0.82646986  0.78881624  0.30559743  1
  O  O2  1  0.96234638  0.17353014  0.30559743  1
  O  O3  1  0.21241429  0.17457201  0.80532028  1
  O  O4  1  0.96215772  0.78758571  0.80532028  1
  O  O5  1  0.82542799  0.03784228  0.80532028  1
  O  O6  1  0.80259517  0.97561456  0.69560571  1
  O  O7  1  0.17301939  0.19740483  0.69560571  1
  O  O8  1  0.02438544  0.82698061  0.69560571  1
  O  O9  1  0.80251048  0.82690892  0.19593593  1
  O  O10  1  0.02439844  0.19748952  0.19593593  1
  O  O11  1  0.17309108  0.97560156  0.19593593  1
  O  O12  1  0.87984146  0.37292350  0.63818029  1
  O  O13  1  0.49308304  0.12015854  0.63818029  1
  O  O14  1  0.62707650  0.50691696  0.63818029  1
  O  O15  1  0.87761266  0.51060219  0.13843710  1
  O  O16  1  0.63299054  0.12238734  0.13843710  1
  O  O17  1  0.48939781  0.36700946  0.13843710  1
  O  O18  1  0.45162754  0.29181746  0.02812474  1
  O  O19  1  0.84019092  0.54837246  0.02812474  1
  O  O20  1  0.70818254  0.15980908  0.02812474  1
  O  O21  1  0.45350014  0.15978147  0.52850326  1
  O  O22  1  0.70628233  0.54649986  0.52850326  1
  O  O23  1  0.84021853  0.29371767  0.52850326  1
  O  O24  1  0.54534191  0.70040512  0.97206065  1
  O  O25  1  0.15506221  0.45465809  0.97206065  1
  O  O26  1  0.29959488  0.84493779  0.97206065  1
  O  O27  1  0.53061396  0.83970630  0.47100894  1
  O  O28  1  0.30909133  0.46938604  0.47100894  1
  O  O29  1  0.16029370  0.69090867  0.47100894  1
  O  O30  1  0.12223174  0.62911065  0.36119612  1
  O  O31  1  0.50687791  0.87776826  0.36119612  1
  O  O32  1  0.37088935  0.49312209  0.36119612  1
  O  O33  1  0.12171612  0.48896807  0.86097036  1
  O  O34  1  0.36725095  0.87828388  0.86097036  1
  O  O35  1  0.51103193  0.63274905  0.86097036  1
  O  O36  1  0.02941401  0.83241049  0.41071267  1
  O  O37  1  0.80299648  0.97058599  0.41071267  1
  O  O38  1  0.16758951  0.19700352  0.41071267  1
  O  O39  1  0.02408583  0.19105746  0.91109189  1
  O  O40  1  0.16697163  0.97591417  0.91109189  1
  O  O41  1  0.80894254  0.83302837  0.91109189  1
  O  O42  1  0.97744824  0.17140005  0.59413271  1
  O  O43  1  0.19395180  0.02255176  0.59413271  1
  O  O44  1  0.82859995  0.80604820  0.59413271  1
  O  O45  1  0.97564845  0.80791003  0.09229874  1
  O  O46  1  0.83226158  0.02435155  0.09229874  1
  O  O47  1  0.19208997  0.16773842  0.09229874  1
  O  O48  1  0.69252299  0.16662794  0.74325067  1
  O  O49  1  0.47410595  0.30747701  0.74325067  1
  O  O50  1  0.83337206  0.52589405  0.74325067  1
  O  O51  1  0.69240907  0.52550461  0.24348450  1
  O  O52  1  0.83309653  0.30759093  0.24348450  1
  O  O53  1  0.47449539  0.16690347  0.24348450  1
  O  O54  1  0.64239871  0.50013335  0.92217419  1
  O  O55  1  0.85773564  0.35760129  0.92217419  1
  O  O56  1  0.49986665  0.14226436  0.92217419  1
  O  O57  1  0.64056642  0.14059270  0.42323775  1
  O  O58  1  0.50002729  0.35943358  0.42323775  1
  O  O59  1  0.85940730  0.49997271  0.42323775  1
  O  O60  1  0.35492241  0.49550955  0.07540693  1
  O  O61  1  0.14058614  0.64507759  0.07540693  1
  O  O62  1  0.50449045  0.85941386  0.07540693  1
  O  O63  1  0.35579341  0.86051176  0.57255341  1
  O  O64  1  0.50471734  0.64420659  0.57255341  1
  O  O65  1  0.13948824  0.49528266  0.57255341  1
  O  O66  1  0.30394647  0.83425678  0.25615758  1
  O  O67  1  0.53030931  0.69605353  0.25615758  1
  O  O68  1  0.16574322  0.46969069  0.25615758  1
  O  O69  1  0.30423289  0.47024965  0.75593722  1
  O  O70  1  0.16601575  0.69576711  0.75593722  1
  O  O71  1  0.52975035  0.83398425  0.75593722  1
loop_
_geom_bond_atom_site_label_1
_geom_bond_atom_site_label_2
_geom_bond_distance
_geom_bond_site_symmetry_2
Na0 O39 2.535224 1_555
Na0 O41 2.535224 1_445
Na0 O40 2.535224 1_545
Na0 O45 2.664796 1_446
Na0 O47 2.664796 1_556
Na0 O46 2.664796 1_456
Na1 O56 2.554546 1_555
Na1 O54 2.554546 1_555
Na1 O55 2.554546 1_555
Na1 O50 2.602588 1_555
Na1 O48 2.602588 1_555
Na1 O49 2.602588 1_555
Na2 O52 2.582194 1_555
Na2 O53 2.582194 1_555
Na2 O51 2.582194 1_555
Na2 O58 2.593027 1_555
Na2 O59 2.593027 1_555
Na2 O57 2.593027 1_555
Nb0 O44 1.981045 1_445
Nb0 O43 1.981045 1_555
Nb0 O42 1.981045 1_455
Nb0 O7 1.996720 1_555
Nb0 O8 1.996720 1_545
Nb0 O6 1.996720 1_445
Nb1 O10 1.981686 1_555
Nb1 O9 1.981686 1_445
Nb1 O11 1.981686 1_545
Nb1 O45 2.009000 1_445
Nb1 O47 2.009000 1_555
Nb1 O46 2.009001 1_455
Nb2 O64 1.984817 1_555
Nb2 O65 1.984817 1_555
Nb2 O63 1.984817 1_555
Nb2 O28 1.992996 1_555
Nb2 O27 1.992996 1_555
Nb2 O29 1.992996 1_555
O0 P0 1.535466 1_555
O0 Sn0 2.050034 1_555
O1 P1 1.535466 1_555
O1 Sn0 2.050034 1_665
O2 P2 1.535466 1_555
O2 Sn0 2.050034 1_655
O3 P3 1.538901 1_555
O3 Sn1 2.029838 1_555
O4 P4 1.538902 1_655
O4 Sn1 2.029838 1_665
O5 P5 1.538902 1_555
O5 Sn1 2.029838 1_655
O6 P5 1.562039 1_565
O7 P3 1.562039 1_555
O8 P4 1.562039 1_555
O9 P1 1.565024 1_555
O10 P2 1.565024 1_455
O11 P0 1.565024 1_565
O12 P6 1.526755 1_555
O12 Sn2 2.034962 1_555
O13 P7 1.526755 1_555
O13 Sn2 2.034962 1_555
O14 P8 1.526755 1_555
O14 Sn2 2.034962 1_555
O15 P9 1.531450 1_555
O15 Sn3 2.024193 1_555
O16 P10 1.531450 1_555
O16 Sn3 2.024193 1_555
O17 P11 1.531450 1_555
O17 Sn3 2.024193 1_555
O18 P11 1.540575 1_555
O18 Sn4 2.040180 1_554
O19 P9 1.540575 1_555
O19 Sn4 2.040180 1_554
O20 P10 1.540575 1_555
O20 Sn4 2.040180 1_554
O21 P7 1.524714 1_555
O21 Sn5 2.036972 1_555
O22 P8 1.524714 1_555
O22 Sn5 2.036972 1_555
O23 P6 1.524714 1_555
O23 Sn5 2.036972 1_555
O24 P12 1.534439 1_555
O24 Sn6 2.047864 1_556
O25 P13 1.534439 1_555
O25 Sn6 2.047864 1_556
O26 P14 1.534439 1_555
O26 Sn6 2.047864 1_556
O27 P15 1.564289 1_555
O28 P16 1.564289 1_555
O29 P17 1.564289 1_555
O30 P17 1.532645 1_555
O30 Sn7 2.052227 1_555
O31 P15 1.532645 1_555
O31 Sn7 2.052227 1_555
O32 P16 1.532645 1_555
O32 Sn7 2.052227 1_555
O33 P13 1.535258 1_555
O33 Sn8 2.054466 1_555
O34 P14 1.535258 1_555
O34 Sn8 2.054466 1_555
O35 P12 1.535258 1_555
O35 Sn8 2.054466 1_555
O36 P17 1.523370 1_555
O36 Sn0 2.043257 1_565
O37 P15 1.523379 1_555
O37 Sn0 2.043257 1_665
O38 P16 1.523375 1_555
O38 Sn0 2.043257 1_555
O39 P13 1.552153 1_555
O39 Sn1 2.059709 1_555
O40 P14 1.552144 1_555
O40 Sn1 2.059709 1_565
O41 P12 1.552149 1_555
O41 Sn1 2.059709 1_665
O42 P6 1.548911 1_555
O43 P7 1.548920 1_555
O44 P8 1.548916 1_555
O45 P9 1.567199 1_555
O46 P10 1.567191 1_555
O47 P11 1.567196 1_555
O48 P5 1.545460 1_555
O48 Sn2 2.050021 1_555
O49 P3 1.545469 1_555
O49 Sn2 2.050021 1_555
O50 P4 1.545465 1_655
O50 Sn2 2.050021 1_555
O51 P1 1.547219 1_555
O51 Sn3 2.059312 1_555
O52 P2 1.547211 1_555
O52 Sn3 2.059311 1_555
O53 P0 1.547216 1_555
O53 Sn3 2.059311 1_555
O54 P12 1.552734 1_555
O54 Sn4 2.061336 1_555
O55 P13 1.552716 1_655
O55 Sn4 2.061336 1_555
O56 P14 1.552723 1_545
O56 Sn4 2.061336 1_555
O57 P15 1.548897 1_545
O57 Sn5 2.050887 1_555
O58 P16 1.548914 1_555
O58 Sn5 2.050887 1_555
O59 P17 1.548904 1_655
O59 Sn5 2.050887 1_555
O60 P11 1.520929 1_555
O60 Sn6 2.031181 1_555
O61 P9 1.520912 1_455
O61 Sn6 2.031181 1_555
O62 P10 1.520919 1_565
O62 Sn6 2.031181 1_555
O63 P7 1.547848 1_565
O64 P8 1.547866 1_555
O65 P6 1.547855 1_455
O66 P0 1.522192 1_565
O66 Sn7 2.039257 1_555
O67 P1 1.522201 1_555
O67 Sn7 2.039257 1_555
O68 P2 1.522197 1_455
O68 Sn7 2.039257 1_555
O69 P3 1.520627 1_555
O69 Sn8 2.048394 1_555
O70 P4 1.520618 1_555
O70 Sn8 2.048394 1_555
O71 P5 1.520623 1_565
O71 Sn8 2.048394 1_555
