# generated using pymatgen
data_Ba3MgV2O8
_symmetry_space_group_name_H-M   'P 1'
_cell_length_a   7.91242854
_cell_length_b   7.89872130
_cell_length_c   7.88806972
_cell_angle_alpha   49.82743464
_cell_angle_beta   46.03938524
_cell_angle_gamma   45.98606258
_symmetry_Int_Tables_number   1
_chemical_formula_structural   Ba3MgV2O8
_chemical_formula_sum   'Ba3 Mg1 V2 O8'
_cell_volume   242.26374952
_cell_formula_units_Z   1
loop_
 _symmetry_equiv_pos_site_id
 _symmetry_equiv_pos_as_xyz
  1  'x, y, z'
loop_
 _atom_site_type_symbol
 _atom_site_label
 _atom_site_symmetry_multiplicity
 _atom_site_fract_x
 _atom_site_fract_y
 _atom_site_fract_z
 _atom_site_occupancy
  Ba  Ba0  1  0.18152374  0.16366951  0.24218181  1
  Ba  Ba1  1  0.81905448  0.75748067  0.83529917  1
  Ba  Ba2  1  0.00149546  0.11760746  0.88128356  1
  Mg  Mg0  1  0.99954422  0.63708310  0.36219149  1
  V  V0  1  0.57731274  0.57535417  0.60364435  1
  V  V1  1  0.42246387  0.39744271  0.42242888  1
  O  O0  1  0.70192298  0.62281494  0.69789750  1
  O  O1  1  0.29828376  0.30152205  0.37636723  1
  O  O2  1  0.24151234  0.78306957  0.66941108  1
  O  O3  1  0.80450960  0.67689141  0.25722794  1
  O  O4  1  0.71518063  0.24469153  0.71310632  1
  O  O5  1  0.75833784  0.33076503  0.21601069  1
  O  O6  1  0.19468288  0.74367614  0.31968427  1
  O  O7  1  0.28417545  0.28959871  0.75326573  1
loop_
_geom_bond_atom_site_label_1
_geom_bond_atom_site_label_2
_geom_bond_distance
_geom_bond_site_symmetry_2
Ba0 O1 2.720654 1_555
Ba0 O5 2.731892 1_455
Ba0 O2 2.790457 1_545
Ba0 O7 2.889138 1_554
Ba0 O6 2.895093 1_545
Ba0 O4 2.929132 1_455
Ba0 O3 2.944549 1_455
Ba0 O4 3.391224 1_554
Ba1 O0 2.723417 1_555
Ba1 O2 2.729772 1_655
Ba1 O5 2.792441 1_556
Ba1 O3 2.886532 1_556
Ba1 O4 2.886700 1_565
Ba1 O7 2.915343 1_655
Ba1 O6 2.954142 1_655
Ba1 O7 3.401376 1_565
Ba2 O7 2.680479 1_555
Ba2 O4 2.682135 1_455
Ba2 O5 2.772928 1_456
Ba2 O2 2.774831 1_545
Ba2 O1 2.789041 1_555
Ba2 O0 2.793431 1_455
Mg0 O0 1.974029 1_555
Mg0 O1 1.975633 1_655
Mg0 O6 1.982139 1_655
Mg0 O3 1.982301 1_555
O0 V0 1.885834 1_555
O1 V1 1.885952 1_555
O2 V0 1.774015 1_555
O3 V0 1.923015 1_555
O4 V0 1.787691 1_555
O5 V1 1.773431 1_555
O6 V1 1.924315 1_555
O7 V1 1.787758 1_555
