# generated using pymatgen
data_MgV3FeO8
_symmetry_space_group_name_H-M   'P 1'
_cell_length_a   6.53038040
_cell_length_b   6.53038040
_cell_length_c   7.10537205
_cell_angle_alpha   74.03186039
_cell_angle_beta   105.96813961
_cell_angle_gamma   146.07200370
_symmetry_Int_Tables_number   1
_chemical_formula_structural   MgV3FeO8
_chemical_formula_sum   'Mg1 V3 Fe1 O8'
_cell_volume   161.98143411
_cell_formula_units_Z   1
loop_
 _symmetry_equiv_pos_site_id
 _symmetry_equiv_pos_as_xyz
  1  'x, y, z'
loop_
 _atom_site_type_symbol
 _atom_site_label
 _atom_site_symmetry_multiplicity
 _atom_site_fract_x
 _atom_site_fract_y
 _atom_site_fract_z
 _atom_site_occupancy
  Mg  Mg0  1  0.16963900  0.83036100  0.00541200  1
  V  V0  1  0.31153900  0.68846100  0.74458700  1
  V  V1  1  0.39838500  0.60161500  0.33283900  1
  V  V2  1  0.60485600  0.39514400  0.67542300  1
  Fe  Fe0  1  0.70716800  0.29283200  0.34327300  1
  O  O0  1  0.14501600  0.85498400  0.70541400  1
  O  O1  1  0.22918500  0.77081500  0.29376300  1
  O  O2  1  0.34750200  0.65249800  0.99465500  1
  O  O3  1  0.43010100  0.56989900  0.61490000  1
  O  O4  1  0.55720200  0.44279800  0.40142700  1
  O  O5  1  0.62475800  0.37524200  0.94819000  1
  O  O6  1  0.76924100  0.23075900  0.66791900  1
  O  O7  1  0.88249300  0.11750700  0.30344600  1
loop_
_geom_bond_atom_site_label_1
_geom_bond_atom_site_label_2
_geom_bond_distance
_geom_bond_site_symmetry_2
Mg0 O1 1.968348 1_555
Mg0 O5 1.994739 1_564
Mg0 O5 1.994739 1_454
Mg0 O0 2.064256 1_554
Mg0 O2 2.245124 1_554
Fe0 O1 1.971171 1_655
Fe0 O1 1.971171 1_545
Fe0 O4 2.031215 1_555
Fe0 O6 2.212097 1_555
Fe0 O7 2.287744 1_555
Fe0 O5 2.697752 1_554
O0 V2 1.966230 1_565
O0 V2 1.966230 1_455
O0 V0 2.017913 1_555
O1 V1 2.051178 1_555
O2 V0 1.702868 1_555
O2 V1 2.302057 1_556
O3 V1 1.927905 1_555
O3 V0 1.956518 1_555
O3 V2 2.100215 1_555
O4 V2 1.864916 1_555
O4 V1 1.902007 1_555
O5 V2 1.881729 1_555
O6 V0 2.010184 1_545
O6 V0 2.010184 1_655
O6 V2 2.069539 1_555
O7 V1 1.920841 1_545
O7 V1 1.920841 1_655
