# generated using pymatgen
data_MgMn4Zn2O8
_symmetry_space_group_name_H-M   'P 1'
_cell_length_a   5.99783053
_cell_length_b   6.31709489
_cell_length_c   6.19050817
_cell_angle_alpha   60.65092171
_cell_angle_beta   58.93113497
_cell_angle_gamma   66.87138855
_symmetry_Int_Tables_number   1
_chemical_formula_structural   MgMn4Zn2O8
_chemical_formula_sum   'Mg1 Mn4 Zn2 O8'
_cell_volume   172.01841514
_cell_formula_units_Z   1
loop_
 _symmetry_equiv_pos_site_id
 _symmetry_equiv_pos_as_xyz
  1  'x, y, z'
loop_
 _atom_site_type_symbol
 _atom_site_label
 _atom_site_symmetry_multiplicity
 _atom_site_fract_x
 _atom_site_fract_y
 _atom_site_fract_z
 _atom_site_occupancy
  Mg  Mg0  1  0.12500000  0.62500000  0.12500000  1
  Mn  Mn0  1  0.97155463  0.09517696  0.96658666  1
  Mn  Mn1  1  0.27844537  0.15482304  0.28341334  1
  Mn  Mn2  1  0.62500000  0.62500000  0.12500000  1
  Mn  Mn3  1  0.62500000  0.62500000  0.62500000  1
  Zn  Zn0  1  0.12500000  0.62500000  0.62500000  1
  Zn  Zn1  1  0.62500000  0.12500000  0.62500000  1
  O  O0  1  0.35988604  0.41085910  0.35627396  1
  O  O1  1  0.44288825  0.79511594  0.38096314  1
  O  O2  1  0.35989792  0.41088403  0.87302920  1
  O  O3  1  0.87649450  0.35580671  0.38387574  1
  O  O4  1  0.37350550  0.89419329  0.86612426  1
  O  O5  1  0.80711175  0.45488406  0.86903686  1
  O  O6  1  0.89010208  0.83911597  0.37697080  1
  O  O7  1  0.89011396  0.83914090  0.89372604  1
loop_
_geom_bond_atom_site_label_1
_geom_bond_atom_site_label_2
_geom_bond_distance
_geom_bond_site_symmetry_2
Mg0 O3 2.129779 1_455
Mg0 O4 2.129779 1_554
Mg0 O6 2.133161 1_455
Mg0 O2 2.133161 1_554
Mg0 O7 2.133213 1_454
Mg0 O0 2.133213 1_555
Mn0 O5 2.002452 1_555
Mn0 O6 2.149599 1_546
Mn0 O7 2.149701 1_545
Mn0 O4 2.152385 1_645
Mn1 O1 2.002452 1_545
Mn1 O2 2.149599 1_554
Mn1 O0 2.149701 1_555
Mn1 O3 2.152385 1_455
Mn2 O5 1.954322 1_554
Mn2 O1 1.954322 1_555
Mn2 O7 1.962077 1_554
Mn2 O0 1.962077 1_555
Mn2 O3 2.354538 1_555
Mn2 O4 2.354538 1_554
Mn3 O1 1.954420 1_555
Mn3 O5 1.954420 1_555
Mn3 O6 1.961928 1_555
Mn3 O2 1.961928 1_555
Mn3 O3 2.354644 1_555
Mn3 O4 2.354644 1_555
O0 Zn0 2.207242 1_555
O0 Zn1 2.467082 1_555
O1 Zn0 2.029198 1_555
O2 Zn0 2.207230 1_555
O2 Zn1 2.467733 1_555
O3 Zn1 1.974764 1_555
O4 Zn1 1.974764 1_565
O5 Zn0 2.029198 1_655
O6 Zn0 2.207230 1_655
O6 Zn1 2.467733 1_565
O7 Zn0 2.207242 1_655
O7 Zn1 2.467082 1_565
