# generated using pymatgen
data_GdCdCu
_symmetry_space_group_name_H-M   'P 1'
_cell_length_a   7.48819020
_cell_length_b   7.48819020
_cell_length_c   3.97190200
_cell_angle_alpha   90.00000000
_cell_angle_beta   90.00000000
_cell_angle_gamma   120.00000177
_symmetry_Int_Tables_number   1
_chemical_formula_structural   GdCdCu
_chemical_formula_sum   'Gd3 Cd3 Cu3'
_cell_volume   192.87808362
_cell_formula_units_Z   3
loop_
 _symmetry_equiv_pos_site_id
 _symmetry_equiv_pos_as_xyz
  1  'x, y, z'
loop_
 _atom_site_type_symbol
 _atom_site_label
 _atom_site_symmetry_multiplicity
 _atom_site_fract_x
 _atom_site_fract_y
 _atom_site_fract_z
 _atom_site_occupancy
  Gd  Gd0  1  0.58814200  0.00000000  0.50000000  1
  Gd  Gd1  1  0.41185800  0.41185800  0.50000000  1
  Gd  Gd2  1  0.00000000  0.58814200  0.50000000  1
  Cd  Cd0  1  0.24989200  0.00000000  0.00000000  1
  Cd  Cd1  1  0.75010800  0.75010800  0.00000000  1
  Cd  Cd2  1  0.00000000  0.24989200  0.00000000  1
  Cu  Cu0  1  0.00000000  0.00000000  0.50000000  1
  Cu  Cu1  1  0.33333300  0.66666700  0.00000000  1
  Cu  Cu2  1  0.66666700  0.33333300  0.00000000  1
loop_
_geom_bond_atom_site_label_1
_geom_bond_atom_site_label_2
_geom_bond_distance
_geom_bond_site_symmetry_2
Cd0 Cu0 2.728651 1_555
Cd0 Cu0 2.728651 1_554
Cd0 Cu1 2.860125 1_545
Cd0 Cu2 2.860130 1_555
Cd0 Gd0 3.218615 1_555
Cd0 Gd0 3.218615 1_554
Cd0 Gd2 3.344547 1_544
Cd0 Gd2 3.344547 1_545
Cd0 Gd1 3.344547 1_555
Cd0 Gd1 3.344547 1_554
Cd1 Cu0 2.728651 1_664
Cd1 Cu0 2.728651 1_665
Cd1 Cu2 2.860133 1_555
Cd1 Cu1 2.860133 1_555
Cd1 Gd1 3.218615 1_554
Cd1 Gd1 3.218615 1_555
Cd1 Gd0 3.344547 1_565
Cd1 Gd0 3.344547 1_564
Cd1 Gd2 3.344547 1_654
Cd1 Gd2 3.344547 1_655
Cd2 Cu0 2.728651 1_555
Cd2 Cu0 2.728651 1_554
Cd2 Cu2 2.860125 1_455
Cd2 Cu1 2.860130 1_555
Cd2 Gd2 3.218615 1_554
Cd2 Gd2 3.218615 1_555
Cd2 Gd0 3.344547 1_454
Cd2 Gd0 3.344547 1_455
Cd2 Gd1 3.344547 1_555
Cd2 Gd1 3.344547 1_554
Cu0 Gd1 3.084071 1_555
Cu0 Gd2 3.084071 1_545
Cu0 Gd0 3.084071 1_455
Cu1 Gd2 3.008715 1_554
Cu1 Gd2 3.008715 1_555
Cu1 Gd0 3.008717 1_565
Cu1 Gd0 3.008717 1_564
Cu1 Gd1 3.008721 1_554
Cu1 Gd1 3.008721 1_555
Cu2 Gd0 3.008715 1_555
Cu2 Gd0 3.008715 1_554
Cu2 Gd2 3.008717 1_654
Cu2 Gd2 3.008717 1_655
Cu2 Gd1 3.008721 1_554
Cu2 Gd1 3.008721 1_555
