# generated using pymatgen
data_Na10Zr4Ti4Si9(SO16)3
_symmetry_space_group_name_H-M   'P 1'
_cell_length_a   18.07142040
_cell_length_b   9.05026156
_cell_length_c   22.70601889
_cell_angle_alpha   90.03899903
_cell_angle_beta   89.93506400
_cell_angle_gamma   119.87297024
_symmetry_Int_Tables_number   1
_chemical_formula_structural   Na10Zr4Ti4Si9(SO16)3
_chemical_formula_sum   'Na30 Zr12 Ti12 Si27 S9 O144'
_cell_volume   3220.17337177
_cell_formula_units_Z   3
loop_
 _symmetry_equiv_pos_site_id
 _symmetry_equiv_pos_as_xyz
  1  'x, y, z'
loop_
 _atom_site_type_symbol
 _atom_site_label
 _atom_site_symmetry_multiplicity
 _atom_site_fract_x
 _atom_site_fract_y
 _atom_site_fract_z
 _atom_site_occupancy
  Na  Na0  1  0.31978477  0.99892423  0.24943724  1
  Na  Na1  1  0.82112945  0.00206896  0.24840927  1
  Na  Na2  1  0.18382209  0.98900762  0.74917155  1
  Na  Na3  1  0.68423704  0.99597422  0.74761299  1
  Na  Na4  1  0.01875194  0.70221277  0.57904527  1
  Na  Na5  1  0.51626229  0.70547597  0.57944744  1
  Na  Na6  1  0.01740709  0.33728877  0.07944372  1
  Na  Na7  1  0.51818791  0.32966500  0.07956141  1
  Na  Na8  1  0.48380788  0.66683141  0.91275105  1
  Na  Na9  1  0.35021488  0.03400080  0.91542111  1
  Na  Na10  1  0.85438935  0.04168297  0.91395827  1
  Na  Na11  1  0.16025981  0.29989324  0.91712465  1
  Na  Na12  1  0.48475571  0.30566083  0.41432665  1
  Na  Na13  1  0.98689616  0.30860043  0.41375993  1
  Na  Na14  1  0.16306649  0.02900608  0.41636732  1
  Na  Na15  1  0.66646378  0.02732838  0.41977792  1
  Na  Na16  1  0.34686932  0.66241152  0.41613432  1
  Na  Na17  1  0.85182726  0.66930293  0.41541827  1
  Na  Na18  1  0.00368869  0.00698612  0.50232768  1
  Na  Na19  1  0.50235707  0.00200018  0.50148774  1
  Na  Na20  1  0.00473873  0.98944704  0.00208041  1
  Na  Na21  1  0.50810488  0.01317745  0.99697629  1
  Na  Na22  1  0.34212303  0.34290145  0.83135860  1
  Na  Na23  1  0.84500321  0.35366075  0.83547973  1
  Na  Na24  1  0.33881861  0.35154712  0.33118526  1
  Na  Na25  1  0.84013272  0.35169741  0.32886828  1
  Na  Na26  1  0.17058717  0.66090102  0.16258648  1
  Na  Na27  1  0.67282443  0.65849100  0.16541103  1
  Na  Na28  1  0.17659537  0.67030422  0.66735966  1
  Na  Na29  1  0.67870658  0.67156811  0.66761544  1
  Zr  Zr0  1  0.49433123  0.99430090  0.35226043  1
  Zr  Zr1  1  0.49475469  0.98675776  0.64954128  1
  Zr  Zr2  1  0.49813843  0.00795895  0.14533004  1
  Zr  Zr3  1  0.33015667  0.33278725  0.68818752  1
  Zr  Zr4  1  0.83478729  0.33294225  0.68941375  1
  Zr  Zr5  1  0.32628728  0.33120657  0.18524692  1
  Zr  Zr6  1  0.32568697  0.31893733  0.97834311  1
  Zr  Zr7  1  0.32539342  0.32942019  0.48265273  1
  Zr  Zr8  1  0.83134693  0.33700946  0.48305280  1
  Zr  Zr9  1  0.67606145  0.67982091  0.51884690  1
  Zr  Zr10  1  0.16267179  0.65091042  0.31151291  1
  Zr  Zr11  1  0.66699734  0.65413185  0.31236687  1
  Ti  Ti0  1  0.99262290  0.99448591  0.35215939  1
  Ti  Ti1  1  0.99641472  0.99373898  0.85283655  1
  Ti  Ti2  1  0.49300443  0.99502737  0.85612168  1
  Ti  Ti3  1  0.99348021  0.97361244  0.64923372  1
  Ti  Ti4  1  0.99238462  0.01323505  0.14502997  1
  Ti  Ti5  1  0.83447112  0.34553302  0.18309884  1
  Ti  Ti6  1  0.82915486  0.31002445  0.98092539  1
  Ti  Ti7  1  0.17408461  0.67127289  0.01543930  1
  Ti  Ti8  1  0.67103281  0.66835392  0.01797682  1
  Ti  Ti9  1  0.17359558  0.67811861  0.51678797  1
  Ti  Ti10  1  0.16315489  0.67124366  0.81721754  1
  Ti  Ti11  1  0.66422596  0.68206782  0.81411193  1
  Si  Si0  1  0.35104044  0.70101588  0.24943289  1
  Si  Si1  1  0.86003740  0.71119818  0.24728017  1
  Si  Si2  1  0.99614131  0.28776623  0.24866188  1
  Si  Si3  1  0.49988207  0.30279137  0.24889222  1
  Si  Si4  1  0.00042865  0.70938349  0.75294568  1
  Si  Si5  1  0.49873399  0.70790638  0.75448176  1
  Si  Si6  1  0.34987809  0.99227954  0.75457084  1
  Si  Si7  1  0.85524485  0.99098735  0.75242060  1
  Si  Si8  1  0.18082762  0.02914553  0.58588158  1
  Si  Si9  1  0.68346581  0.03648805  0.58558732  1
  Si  Si10  1  0.32794954  0.62750096  0.58235455  1
  Si  Si11  1  0.83273307  0.62926884  0.58611636  1
  Si  Si12  1  0.32738584  0.02731873  0.08220208  1
  Si  Si13  1  0.82707693  0.03941179  0.08508159  1
  Si  Si14  1  0.18037839  0.33227992  0.08178014  1
  Si  Si15  1  0.69346740  0.33953272  0.08052933  1
  Si  Si16  1  0.30960349  0.66743439  0.91332078  1
  Si  Si17  1  0.02149532  0.38302945  0.91764349  1
  Si  Si18  1  0.52871481  0.38268137  0.91627048  1
  Si  Si19  1  0.15863220  0.94294125  0.91651645  1
  Si  Si20  1  0.66514813  0.95479461  0.91803150  1
  Si  Si21  1  0.31040179  0.95685185  0.41488144  1
  Si  Si22  1  0.81611192  0.96553117  0.41177244  1
  Si  Si23  1  0.16215552  0.37345222  0.41806473  1
  Si  Si24  1  0.66603092  0.37141458  0.41837712  1
  Si  Si25  1  0.02303606  0.67196990  0.41809900  1
  Si  Si26  1  0.52034573  0.66400940  0.41808296  1
  S  S0  1  0.13970544  0.99837033  0.24955619  1
  S  S1  1  0.64987069  0.00639019  0.24860224  1
  S  S2  1  0.13896884  0.28612029  0.75068409  1
  S  S3  1  0.64307060  0.29333406  0.75322245  1
  S  S4  1  0.48037223  0.33300351  0.58352618  1
  S  S5  1  0.98285122  0.32975994  0.58387527  1
  S  S6  1  0.48280529  0.62649519  0.08141924  1
  S  S7  1  0.97508245  0.62125011  0.08275840  1
  S  S8  1  0.81003724  0.66388268  0.91597160  1
  O  O0  1  0.10197547  0.01876143  0.30521867  1
  O  O1  1  0.60968314  0.02409771  0.30379109  1
  O  O2  1  0.40508995  0.78455420  0.31071019  1
  O  O3  1  0.91562823  0.80149549  0.30882943  1
  O  O4  1  0.48770822  0.18536834  0.30808198  1
  O  O5  1  0.98457755  0.16305214  0.30635666  1
  O  O6  1  0.10120249  0.18271280  0.80571203  1
  O  O7  1  0.60102202  0.18043866  0.80425935  1
  O  O8  1  0.49177978  0.81416093  0.81092419  1
  O  O9  1  0.99306825  0.82476799  0.80727030  1
  O  O10  1  0.41324361  0.01740827  0.81165031  1
  O  O11  1  0.91383593  0.01659800  0.81167763  1
  O  O12  1  0.39901229  0.97539420  0.69689914  1
  O  O13  1  0.90867742  0.97663551  0.69611896  1
  O  O14  1  0.08923929  0.20099001  0.69786878  1
  O  O15  1  0.59399699  0.21824938  0.69809929  1
  O  O16  1  0.01504080  0.82787502  0.69310679  1
  O  O17  1  0.52207379  0.82588093  0.69456772  1
  O  O18  1  0.40508137  0.82832152  0.19501437  1
  O  O19  1  0.91322387  0.84103181  0.19302945  1
  O  O20  1  0.00741607  0.19052985  0.19033040  1
  O  O21  1  0.51299118  0.21001731  0.19048580  1
  O  O22  1  0.09013801  0.98509673  0.19713612  1
  O  O23  1  0.59577672  0.98409137  0.19719654  1
  O  O24  1  0.43528639  0.35428824  0.63499991  1
  O  O25  1  0.93795228  0.35650322  0.63494852  1
  O  O26  1  0.24179638  0.12024096  0.64362121  1
  O  O27  1  0.74189840  0.12759336  0.64392888  1
  O  O28  1  0.32051355  0.50743018  0.63887001  1
  O  O29  1  0.82640422  0.50729367  0.64048276  1
  O  O30  1  0.43979795  0.51600528  0.13342833  1
  O  O31  1  0.93317273  0.50901051  0.13639912  1
  O  O32  1  0.31946065  0.12141049  0.14179958  1
  O  O33  1  0.81908227  0.13995670  0.14241030  1
  O  O34  1  0.24421562  0.36624536  0.13739989  1
  O  O35  1  0.75432572  0.36335324  0.13867440  1
  O  O36  1  0.22490898  0.30428331  0.02235502  1
  O  O37  1  0.74713520  0.31997553  0.02519187  1
  O  O38  1  0.43124675  0.55018026  0.02727453  1
  O  O39  1  0.92246496  0.53906360  0.03002266  1
  O  O40  1  0.34903562  0.15660167  0.02511093  1
  O  O41  1  0.84837034  0.16379577  0.02582521  1
  O  O42  1  0.22433919  0.14389727  0.52622523  1
  O  O43  1  0.73078288  0.14535394  0.52560357  1
  O  O44  1  0.35089399  0.54964975  0.52386505  1
  O  O45  1  0.85508737  0.55773432  0.52548988  1
  O  O46  1  0.43048137  0.30988863  0.52872801  1
  O  O47  1  0.93128844  0.30442001  0.52898647  1
  O  O48  1  0.26678859  0.70327053  0.97206877  1
  O  O49  1  0.77054107  0.69549201  0.96945152  1
  O  O50  1  0.08367515  0.46674895  0.97522584  1
  O  O51  1  0.58529021  0.47463417  0.97613778  1
  O  O52  1  0.14986390  0.82522881  0.97320559  1
  O  O53  1  0.65415234  0.82272552  0.97181857  1
  O  O54  1  0.26246631  0.82854339  0.47128491  1
  O  O55  1  0.77530059  0.83788282  0.46861347  1
  O  O56  1  0.14585929  0.47039088  0.47351103  1
  O  O57  1  0.64515933  0.45739659  0.47404377  1
  O  O58  1  0.08230591  0.70304695  0.47685242  1
  O  O59  1  0.57732238  0.69896809  0.47801144  1
  O  O60  1  0.06512343  0.63132462  0.36143329  1
  O  O61  1  0.56818799  0.63378855  0.36217827  1
  O  O62  1  0.25328973  0.88075356  0.35596291  1
  O  O63  1  0.75559364  0.88724445  0.35431500  1
  O  O64  1  0.18679183  0.49807869  0.36072903  1
  O  O65  1  0.68793332  0.49588788  0.36099207  1
  O  O66  1  0.07038540  0.50447299  0.86041825  1
  O  O67  1  0.58112907  0.51479295  0.86194809  1
  O  O68  1  0.17896943  0.86257092  0.85787987  1
  O  O69  1  0.68573565  0.87281863  0.85839392  1
  O  O70  1  0.24574429  0.63416360  0.85863618  1
  O  O71  1  0.75845581  0.64158353  0.86326605  1
  O  O72  1  0.01402719  0.84361069  0.40977841  1
  O  O73  1  0.51289613  0.83659682  0.41235706  1
  O  O74  1  0.40507446  0.97205109  0.41499243  1
  O  O75  1  0.91006315  0.97769875  0.40691981  1
  O  O76  1  0.07876713  0.18390262  0.40939747  1
  O  O77  1  0.58412742  0.18062428  0.41135203  1
  O  O78  1  0.00999920  0.18835516  0.90818587  1
  O  O79  1  0.51381849  0.18925203  0.90863394  1
  O  O80  1  0.07962228  0.98237521  0.90907564  1
  O  O81  1  0.57843127  0.96521654  0.91134517  1
  O  O82  1  0.40506305  0.84128623  0.90987015  1
  O  O83  1  0.89595527  0.82679881  0.91205425  1
  O  O84  1  0.49121021  0.18337431  0.58987682  1
  O  O85  1  0.99217385  0.17975470  0.59154625  1
  O  O86  1  0.08615551  0.01254136  0.59407571  1
  O  O87  1  0.58915098  0.02137040  0.58749706  1
  O  O88  1  0.41577339  0.81481519  0.58855135  1
  O  O89  1  0.92024860  0.81805480  0.59329728  1
  O  O90  1  0.49497769  0.79902330  0.08817651  1
  O  O91  1  0.98468157  0.79181710  0.09056979  1
  O  O92  1  0.41712965  0.01792442  0.08466518  1
  O  O93  1  0.91604925  0.02814942  0.09078546  1
  O  O94  1  0.08598824  0.15930069  0.09131812  1
  O  O95  1  0.59790112  0.17054283  0.08522465  1
  O  O96  1  0.33624981  0.15977549  0.75080287  1
  O  O97  1  0.83944545  0.15510541  0.74831232  1
  O  O98  1  0.22569367  0.29690083  0.74742902  1
  O  O99  1  0.72881549  0.30190078  0.74847698  1
  O  O100  1  0.41541937  0.51927768  0.74889906  1
  O  O101  1  0.91541694  0.52291446  0.74954745  1
  O  O102  1  0.34044057  0.51233010  0.24610978  1
  O  O103  1  0.84925118  0.52100663  0.23930011  1
  O  O104  1  0.40864227  0.29906451  0.24495222  1
  O  O105  1  0.90683688  0.29177088  0.24215411  1
  O  O106  1  0.22847707  0.15271602  0.24672997  1
  O  O107  1  0.73559613  0.16114407  0.24391938  1
  O  O108  1  0.32350381  0.50279653  0.91988131  1
  O  O109  1  0.82224438  0.51616347  0.92359220  1
  O  O110  1  0.43346320  0.36763532  0.92054921  1
  O  O111  1  0.92434973  0.35541271  0.92585031  1
  O  O112  1  0.24722094  0.13463110  0.91981332  1
  O  O113  1  0.75399273  0.14020385  0.92607926  1
  O  O114  1  0.32510064  0.14783975  0.42412337  1
  O  O115  1  0.83130057  0.15695464  0.42161092  1
  O  O116  1  0.24672939  0.35010759  0.42310382  1
  O  O117  1  0.75208687  0.35422926  0.42215945  1
  O  O118  1  0.42547465  0.49401702  0.42167835  1
  O  O119  1  0.92821864  0.50254331  0.42394096  1
  O  O120  1  0.16455849  0.49511826  0.07536304  1
  O  O121  1  0.67892462  0.50538812  0.07336343  1
  O  O122  1  0.05906693  0.62934508  0.07972983  1
  O  O123  1  0.56729871  0.63513913  0.07727290  1
  O  O124  1  0.24199634  0.84147593  0.07477769  1
  O  O125  1  0.74552231  0.85032943  0.07271151  1
  O  O126  1  0.16595835  0.83510755  0.57746173  1
  O  O127  1  0.66682933  0.84055287  0.58305050  1
  O  O128  1  0.24226228  0.64196856  0.57535183  1
  O  O129  1  0.74763339  0.64528016  0.58348694  1
  O  O130  1  0.06558050  0.49006387  0.57918053  1
  O  O131  1  0.56380754  0.49153674  0.58045770  1
  O  O132  1  0.15236044  0.84786469  0.25260721  1
  O  O133  1  0.66110405  0.85461106  0.25166145  1
  O  O134  1  0.26192521  0.70683236  0.25048859  1
  O  O135  1  0.76885960  0.71040343  0.25072436  1
  O  O136  1  0.08086155  0.47443044  0.25069998  1
  O  O137  1  0.58438334  0.49170101  0.24925440  1
  O  O138  1  0.15049654  0.45818675  0.75547550  1
  O  O139  1  0.65607180  0.46631750  0.75978489  1
  O  O140  1  0.08860962  0.70141344  0.75800839  1
  O  O141  1  0.58819880  0.69764469  0.76221693  1
  O  O142  1  0.25544858  0.82267611  0.76001660  1
  O  O143  1  0.75958451  0.82021522  0.75944493  1
loop_
_geom_bond_atom_site_label_1
_geom_bond_atom_site_label_2
_geom_bond_distance
_geom_bond_site_symmetry_2
Na0 O134 2.308372 1_555
Na0 O104 2.371151 1_565
Na0 O132 2.628232 1_555
Na0 O106 2.636647 1_565
Na0 O62 2.674875 1_555
Na0 O32 2.685575 1_565
Na0 O18 2.941236 1_555
Na0 O4 2.955417 1_565
Na1 O105 2.290867 1_555
Na1 O135 2.319274 1_545
Na1 O133 2.510896 1_545
Na1 O107 2.586422 1_555
Na1 O63 2.652555 1_545
Na1 O33 2.720608 1_555
Na1 O5 2.880586 1_555
Na1 O19 2.980623 1_545
Na2 O140 2.305229 1_555
Na2 O96 2.395200 1_565
Na2 O142 2.438113 1_555
Na2 O98 2.497694 1_565
Na2 O26 2.647776 1_565
Na2 O68 2.704282 1_555
Na2 O16 2.936969 1_555
Na3 O141 2.396639 1_555
Na3 O97 2.432612 1_565
Na3 O99 2.468445 1_565
Na3 O143 2.572049 1_555
Na3 O27 2.609412 1_565
Na3 O69 2.757588 1_555
Na3 O17 2.814242 1_555
Na4 O126 2.310253 1_555
Na4 O130 2.453806 1_555
Na4 O86 2.465748 1_565
Na4 O89 2.495980 1_455
Na4 O58 2.586252 1_555
Na4 O16 2.842000 1_555
Na4 O45 2.844237 1_455
Na4 O25 2.997117 1_455
Na5 O127 2.364658 1_555
Na5 O88 2.471573 1_555
Na5 O131 2.478908 1_555
Na5 O87 2.488054 1_565
Na5 O59 2.566051 1_555
Na5 O17 2.813149 1_555
Na5 O44 2.884481 1_555
Na6 O120 2.310023 1_555
Na6 O122 2.360289 1_555
Na6 O93 2.478700 1_455
Na6 O94 2.488693 1_555
Na6 O50 2.646933 1_554
Na6 O20 2.810811 1_555
Na6 O41 2.916651 1_455
Na6 O31 2.958785 1_455
Na7 O123 2.447325 1_555
Na7 O92 2.485128 1_555
Na7 O95 2.496548 1_555
Na7 O121 2.526679 1_555
Na7 O51 2.668222 1_554
Na7 O21 2.725224 1_555
Na7 O40 2.926167 1_555
Na7 O30 2.952954 1_555
Na8 O81 2.370138 1_555
Na8 O110 2.395304 1_555
Na8 O108 2.517424 1_555
Na8 O82 2.600113 1_555
Na8 O8 2.637508 1_555
Na8 O38 2.788892 1_556
Na8 O67 2.953143 1_555
Na8 O53 2.990982 1_555
Na9 O82 2.400374 1_545
Na9 O112 2.447785 1_555
Na9 O79 2.569090 1_555
Na9 O110 2.620859 1_555
Na9 O10 2.652455 1_555
Na9 O40 2.730285 1_556
Na9 O48 2.896919 1_545
Na9 O68 2.985722 1_545
Na10 O113 2.402606 1_555
Na10 O83 2.408983 1_545
Na10 O78 2.442949 1_655
Na10 O111 2.481321 1_555
Na10 O11 2.614514 1_555
Na10 O41 2.792913 1_556
Na10 O69 2.929612 1_545
Na10 O49 2.995317 1_545
Na11 O78 2.388331 1_555
Na11 O80 2.498614 1_545
Na11 O108 2.585079 1_555
Na11 O36 2.652456 1_556
Na11 O112 2.655589 1_555
Na11 O6 2.745590 1_555
Na11 O50 2.830421 1_555
Na11 O70 2.940669 1_555
Na12 O118 2.428958 1_555
Na12 O114 2.511525 1_555
Na12 O77 2.556152 1_555
Na12 O74 2.618918 1_545
Na12 O4 2.657387 1_555
Na12 O46 2.782527 1_555
Na12 O61 2.834537 1_555
Na12 O57 2.857966 1_555
Na13 O76 2.430177 1_655
Na13 O115 2.444735 1_555
Na13 O119 2.472179 1_555
Na13 O75 2.603496 1_545
Na13 O5 2.761348 1_555
Na13 O47 2.795137 1_555
Na13 O60 2.797972 1_655
Na13 O56 2.837779 1_655
Na14 O72 2.364449 1_545
Na14 O116 2.525376 1_555
Na14 O76 2.537569 1_555
Na14 O114 2.574055 1_555
Na14 O42 2.717585 1_555
Na14 O0 2.738746 1_555
Na14 O58 2.903595 1_545
Na14 O62 2.917432 1_545
Na15 O73 2.436871 1_545
Na15 O77 2.496544 1_555
Na15 O117 2.567067 1_555
Na15 O115 2.602017 1_555
Na15 O43 2.651767 1_555
Na15 O1 2.822362 1_555
Na15 O59 2.899372 1_545
Na15 O63 2.904698 1_545
Na16 O74 2.454343 1_555
Na16 O116 2.488649 1_555
Na16 O118 2.552164 1_555
Na16 O73 2.604319 1_555
Na16 O2 2.626471 1_555
Na16 O44 2.666098 1_555
Na16 O64 2.807648 1_555
Na16 O54 2.903938 1_555
Na17 O75 2.451337 1_555
Na17 O117 2.506658 1_555
Na17 O119 2.509471 1_555
Na17 O72 2.547547 1_655
Na17 O3 2.691022 1_555
Na17 O45 2.707856 1_555
Na17 O55 2.791904 1_555
Na17 O65 2.852673 1_555
Na18 O86 2.548649 1_555
Na18 O76 2.586692 1_555
Na18 O89 2.625505 1_445
Na18 O72 2.628153 1_545
Na18 O85 2.628851 1_455
Na18 O75 2.680806 1_445
Na19 O87 2.457110 1_555
Na19 O74 2.560026 1_545
Na19 O88 2.565771 1_545
Na19 O77 2.569754 1_555
Na19 O73 2.579128 1_545
Na19 O84 2.662130 1_555
Na20 O80 2.524791 1_554
Na20 O94 2.525597 1_565
Na20 O91 2.593253 1_455
Na20 O93 2.701700 1_465
Na20 O83 2.707823 1_454
Na20 O78 2.762109 1_564
Na21 O81 2.475243 1_545
Na21 O95 2.525468 1_556
Na21 O79 2.532508 1_555
Na21 O92 2.594594 1_556
Na21 O82 2.630179 1_545
Na21 O90 2.765362 1_546
Na22 O100 2.387538 1_555
Na22 O96 2.434076 1_555
Na22 O110 2.552433 1_555
Na22 O108 2.593633 1_555
Na22 O112 2.702805 1_555
Na22 O98 2.714307 1_555
Na23 O101 2.414424 1_555
Na23 O111 2.500167 1_555
Na23 O109 2.632775 1_555
Na23 O97 2.640524 1_555
Na23 O113 2.738899 1_555
Na23 O99 2.749359 1_555
Na24 O102 2.410608 1_555
Na24 O104 2.498349 1_555
Na24 O118 2.515768 1_555
Na24 O116 2.663878 1_555
Na24 O106 2.705765 1_555
Na24 O114 2.731728 1_555
Na25 O103 2.502622 1_555
Na25 O105 2.503668 1_555
Na25 O119 2.626165 1_555
Na25 O107 2.649850 1_555
Na25 O117 2.654779 1_555
Na25 O115 2.700058 1_555
Na26 O120 2.453361 1_555
Na26 O134 2.490739 1_555
Na26 O124 2.491792 1_555
Na26 O136 2.598339 1_555
Na26 O122 2.667787 1_555
Na26 O132 2.774625 1_555
Na27 O137 2.459874 1_555
Na27 O135 2.485813 1_555
Na27 O121 2.539299 1_555
Na27 O125 2.626249 1_555
Na27 O123 2.700551 1_555
Na27 O133 2.720190 1_555
Na28 O128 2.476950 1_555
Na28 O142 2.530583 1_555
Na28 O126 2.592065 1_555
Na28 O138 2.648009 1_555
Na28 O140 2.698458 1_555
Na28 O130 2.727487 1_555
Na29 O129 2.355055 1_555
Na29 O143 2.517536 1_555
Na29 O127 2.530581 1_555
Na29 O139 2.691496 1_555
Na29 O131 2.741783 1_555
Na29 O141 2.778627 1_555
O0 S0 1.489767 1_545
O0 Ti0 2.156970 1_445
O1 S1 1.495669 1_555
O1 Zr0 2.250463 1_545
O2 Si0 1.651532 1_555
O2 Zr0 2.011405 1_555
O3 Si1 1.677495 1_555
O3 Ti0 1.880022 1_555
O4 Si3 1.659026 1_555
O4 Zr0 2.054152 1_545
O5 Si2 1.673381 1_555
O5 Ti0 1.911425 1_545
O6 S2 1.505389 1_555
O6 Ti1 2.104178 1_445
O7 S3 1.480027 1_555
O7 Ti2 2.178855 1_545
O8 Si5 1.643571 1_555
O8 Ti2 1.922179 1_555
O9 Si4 1.663107 1_655
O9 Ti1 1.821682 1_555
O10 Si6 1.669211 1_545
O10 Ti2 1.852750 1_545
O11 Si7 1.656354 1_545
O11 Ti1 1.858539 1_545
O12 Si6 1.630583 1_555
O12 Zr1 1.994778 1_555
O13 Si7 1.644823 1_555
O13 Ti3 1.876348 1_555
O14 S2 1.466568 1_555
O14 Ti3 2.214189 1_445
O15 S3 1.488573 1_555
O15 Zr1 2.253833 1_545
O16 Si4 1.668797 1_555
O16 Ti3 1.843490 1_455
O17 Si5 1.649445 1_555
O17 Zr1 2.031764 1_555
O18 Si0 1.638996 1_555
O18 Zr2 2.004624 1_565
O19 Si1 1.641989 1_555
O19 Ti4 1.855002 1_565
O20 Si2 1.657285 1_455
O20 Ti4 1.808484 1_455
O21 Si3 1.647957 1_555
O21 Zr2 1.994115 1_555
O22 S0 1.458949 1_555
O22 Ti4 2.244680 1_465
O23 S1 1.471218 1_565
O23 Zr2 2.220732 1_565
O24 S4 1.490248 1_555
O24 Zr3 2.175456 1_555
O25 S5 1.501625 1_555
O25 Zr4 2.156327 1_555
O26 Si8 1.646024 1_555
O26 Zr3 2.053096 1_555
O27 Si9 1.638322 1_555
O27 Zr4 2.057171 1_555
O28 Si10 1.643674 1_555
O28 Zr3 2.014880 1_555
O29 Si11 1.622131 1_555
O29 Zr4 1.997018 1_555
O30 S6 1.491268 1_555
O30 Zr5 2.229130 1_555
O31 S7 1.523848 1_555
O31 Ti5 1.965669 1_555
O32 Si12 1.642057 1_555
O32 Zr5 2.087563 1_555
O33 Si13 1.634704 1_555
O33 Ti5 1.968563 1_555
O34 Si14 1.633950 1_555
O34 Zr5 1.988274 1_555
O35 Si15 1.663066 1_555
O35 Ti5 1.837771 1_555
O36 Si14 1.653062 1_555
O36 Zr6 2.022000 1_554
O37 Si15 1.648835 1_555
O37 Ti6 1.828878 1_554
O38 S6 1.488959 1_555
O38 Zr6 2.297380 1_554
O39 S7 1.479203 1_555
O39 Ti6 2.214084 1_554
O40 Si12 1.657530 1_555
O40 Zr6 2.021101 1_554
O41 Si13 1.671818 1_555
O41 Ti6 1.836244 1_554
O42 Si8 1.648543 1_555
O42 Zr7 2.019076 1_555
O43 Si9 1.648296 1_555
O43 Zr8 2.025576 1_555
O44 Si10 1.649425 1_555
O44 Zr7 2.035702 1_555
O45 Si11 1.653897 1_555
O45 Zr8 2.060972 1_555
O46 S4 1.489664 1_555
O46 Zr7 2.251988 1_555
O47 S5 1.504499 1_555
O47 Zr8 2.229811 1_555
O48 Si16 1.652351 1_555
O48 Ti7 1.836739 1_556
O49 S8 1.505591 1_555
O49 Ti8 2.015926 1_556
O50 Si17 1.643187 1_555
O50 Ti7 1.979343 1_556
O51 Si18 1.655210 1_555
O51 Ti8 1.916272 1_556
O52 Si19 1.627920 1_555
O52 Ti7 1.913866 1_556
O53 Si20 1.650612 1_555
O53 Ti8 1.889624 1_556
O54 Si21 1.654234 1_555
O54 Ti9 1.822169 1_555
O55 Si22 1.641767 1_555
O55 Zr9 2.001388 1_555
O56 Si23 1.642084 1_555
O56 Ti9 1.952204 1_555
O57 Si24 1.623382 1_555
O57 Zr9 2.068235 1_555
O58 Si25 1.645807 1_555
O58 Ti9 1.992285 1_555
O59 Si26 1.640109 1_555
O59 Zr9 2.094196 1_555
O60 Si25 1.626380 1_555
O60 Zr10 2.026892 1_555
O61 Si26 1.632852 1_555
O61 Zr11 2.042002 1_555
O62 Si21 1.619586 1_555
O62 Zr10 2.152883 1_555
O63 Si22 1.621792 1_555
O63 Zr11 2.134821 1_555
O64 Si23 1.632694 1_555
O64 Zr10 1.988906 1_555
O65 Si24 1.637111 1_555
O65 Zr11 1.988984 1_555
O66 Si17 1.645887 1_555
O66 Ti10 1.878426 1_555
O67 Si18 1.649041 1_555
O67 Ti11 1.860256 1_555
O68 Si19 1.643365 1_555
O68 Ti10 1.854154 1_555
O69 Si20 1.671815 1_555
O69 Ti11 1.863432 1_555
O70 Si16 1.618880 1_555
O70 Ti10 1.930595 1_555
O71 S8 1.468538 1_555
O71 Ti11 2.214961 1_555
O72 Si25 1.651553 1_555
O72 Ti0 2.062877 1_455
O73 Si26 1.638456 1_555
O73 Zr0 2.119513 1_555
O74 Si21 1.646686 1_555
O74 Zr0 2.083946 1_555
O75 Si22 1.649317 1_555
O75 Ti0 1.888209 1_555
O76 Si23 1.636303 1_555
O76 Ti0 2.096282 1_445
O77 Si24 1.628479 1_555
O77 Zr0 2.133788 1_545
O78 Si17 1.681775 1_555
O78 Ti1 2.075801 1_445
O79 Si18 1.642356 1_555
O79 Ti2 1.998125 1_545
O80 Si19 1.644029 1_555
O80 Ti1 2.015156 1_455
O81 Si20 1.623434 1_555
O81 Ti2 2.109050 1_555
O82 Si16 1.659428 1_555
O82 Ti2 1.935511 1_555
O83 S8 1.520523 1_555
O83 Ti1 2.156702 1_555
O84 S4 1.468844 1_555
O84 Zr1 2.263366 1_545
O85 S5 1.459448 1_555
O85 Ti3 2.290013 1_545
O86 Si8 1.651499 1_555
O86 Ti3 1.976262 1_445
O87 Si9 1.641076 1_555
O87 Zr1 2.110835 1_545
O88 Si10 1.653038 1_555
O88 Zr1 2.040960 1_555
O89 Si11 1.659956 1_555
O89 Ti3 1.868672 1_555
O90 S6 1.472269 1_555
O90 Zr2 2.269843 1_565
O91 S7 1.475612 1_555
O91 Ti4 2.298523 1_565
O92 Si12 1.666780 1_555
O92 Zr2 2.045708 1_555
O93 Si13 1.666166 1_555
O93 Ti4 1.904678 1_555
O94 Si14 1.657361 1_555
O94 Ti4 1.966272 1_455
O95 Si15 1.643678 1_555
O95 Zr2 2.152328 1_555
O96 Si6 1.654690 1_545
O96 Zr3 2.158786 1_555
O97 Si7 1.648961 1_545
O97 Zr4 2.127002 1_555
O98 S2 1.522711 1_555
O98 Zr3 2.205159 1_555
O99 S3 1.516123 1_555
O99 Zr4 2.236886 1_555
O100 Si5 1.623880 1_555
O100 Zr3 2.129348 1_555
O101 Si4 1.622197 1_655
O101 Zr4 2.109307 1_555
O102 Si0 1.622492 1_555
O102 Zr5 2.059686 1_555
O103 Si1 1.642885 1_555
O103 Ti5 1.948658 1_555
O104 Si3 1.634846 1_555
O104 Zr5 2.138642 1_555
O105 Si2 1.639055 1_555
O105 Ti5 2.093733 1_555
O106 S0 1.515425 1_545
O106 Zr5 2.199052 1_555
O107 S1 1.487039 1_555
O107 Ti5 2.216269 1_555
O108 Si16 1.636666 1_555
O108 Zr6 2.144987 1_555
O109 S8 1.469724 1_555
O109 Ti6 2.329500 1_555
O110 Si18 1.660455 1_555
O110 Zr6 2.202182 1_555
O111 Si17 1.655719 1_655
O111 Ti6 1.995973 1_555
O112 Si19 1.676800 1_545
O112 Zr6 2.050434 1_555
O113 Si20 1.656307 1_545
O113 Ti6 1.918229 1_555
O114 Si21 1.626202 1_545
O114 Zr7 2.110727 1_555
O115 Si22 1.628646 1_545
O115 Zr8 2.144123 1_555
O116 Si23 1.647950 1_555
O116 Zr7 2.038131 1_555
O117 Si24 1.640529 1_555
O117 Zr8 2.052984 1_555
O118 Si26 1.638679 1_555
O118 Zr7 2.172604 1_555
O119 Si25 1.639293 1_655
O119 Zr8 2.120225 1_555
O120 Si14 1.641624 1_555
O120 Ti7 2.037546 1_555
O121 Si15 1.655913 1_555
O121 Ti8 1.997415 1_555
O122 S7 1.484107 1_455
O122 Ti7 2.409033 1_555
O123 S6 1.492364 1_555
O123 Ti8 2.202450 1_555
O124 Si12 1.628883 1_565
O124 Ti7 1.952435 1_555
O125 Si13 1.633184 1_565
O125 Ti8 1.965083 1_555
O126 Si8 1.649914 1_565
O126 Ti9 2.031719 1_555
O127 Si9 1.645296 1_565
O127 Zr9 2.123067 1_555
O128 Si10 1.625672 1_555
O128 Ti9 1.955474 1_555
O129 Si11 1.616114 1_555
O129 Zr9 2.081469 1_555
O130 S5 1.480031 1_455
O130 Ti9 2.324107 1_555
O131 S4 1.477069 1_555
O131 Zr9 2.351429 1_555
O132 S0 1.490950 1_555
O132 Zr10 2.309895 1_555
O133 S1 1.486899 1_565
O133 Zr11 2.323684 1_555
O134 Si0 1.637443 1_555
O134 Zr10 2.117616 1_555
O135 Si1 1.645912 1_555
O135 Zr11 2.160599 1_555
O136 Si2 1.619766 1_455
O136 Zr10 2.071906 1_555
O137 Si3 1.629185 1_555
O137 Zr11 2.063789 1_555
O138 S2 1.468642 1_555
O138 Ti10 2.300736 1_555
O139 S3 1.470268 1_555
O139 Ti11 2.250890 1_555
O140 Si4 1.634860 1_555
O140 Ti10 2.016874 1_555
O141 Si5 1.674399 1_555
O141 Ti11 1.868910 1_555
O142 Si6 1.635212 1_555
O142 Ti10 2.016794 1_555
O143 Si7 1.655525 1_555
O143 Ti11 1.981051 1_555
