# generated using pymatgen
data_Na8Al2Si5Ge2SO24
_symmetry_space_group_name_H-M   'P 1'
_cell_length_a   8.81760141
_cell_length_b   8.79582523
_cell_length_c   21.54690094
_cell_angle_alpha   90.38865587
_cell_angle_beta   88.89878359
_cell_angle_gamma   120.15165683
_symmetry_Int_Tables_number   1
_chemical_formula_structural   Na8Al2Si5Ge2SO24
_chemical_formula_sum   'Na24 Al6 Si15 Ge6 S3 O72'
_cell_volume   1444.75488328
_cell_formula_units_Z   3
loop_
 _symmetry_equiv_pos_site_id
 _symmetry_equiv_pos_as_xyz
  1  'x, y, z'
loop_
 _atom_site_type_symbol
 _atom_site_label
 _atom_site_symmetry_multiplicity
 _atom_site_fract_x
 _atom_site_fract_y
 _atom_site_fract_z
 _atom_site_occupancy
  Na  Na0  1  0.63958213  0.00306816  0.25143522  1
  Na  Na1  1  0.35933592  0.36307480  0.24844907  1
  Na  Na2  1  0.99945650  0.63707420  0.24995111  1
  Na  Na3  1  0.63311902  0.63460650  0.74735787  1
  Na  Na4  1  0.99804869  0.36517814  0.74940101  1
  Na  Na5  1  0.36868886  0.00532883  0.74991448  1
  Na  Na6  1  0.29927835  0.33746653  0.58531560  1
  Na  Na7  1  0.03969177  0.70357501  0.58326917  1
  Na  Na8  1  0.66582009  0.95989409  0.58331018  1
  Na  Na9  1  0.28917165  0.96305145  0.08091686  1
  Na  Na10  1  0.66793411  0.69508555  0.08716242  1
  Na  Na11  1  0.04215180  0.33511609  0.08821014  1
  Na  Na12  1  0.97108302  0.66566707  0.91627802  1
  Na  Na13  1  0.70219002  0.04052953  0.90948437  1
  Na  Na14  1  0.32446418  0.28628164  0.91893483  1
  Na  Na15  1  0.96209312  0.29521118  0.41095773  1
  Na  Na16  1  0.33053636  0.02825705  0.41586655  1
  Na  Na17  1  0.70972259  0.67439086  0.41852860  1
  Na  Na18  1  0.99341944  0.99272308  0.49969691  1
  Na  Na19  1  0.01478583  0.00601311  0.00042235  1
  Na  Na20  1  0.66605545  0.32655727  0.83306250  1
  Na  Na21  1  0.67133682  0.33228000  0.33340147  1
  Na  Na22  1  0.32658349  0.65844630  0.16585120  1
  Na  Na23  1  0.33553069  0.66742304  0.66418180  1
  Al  Al0  1  0.98980804  0.98964823  0.34968633  1
  Al  Al1  1  0.01151404  0.00966492  0.85085717  1
  Al  Al2  1  0.01221077  0.99899996  0.15025280  1
  Al  Al3  1  0.66502556  0.33179534  0.98012369  1
  Al  Al4  1  0.30523302  0.64583029  0.01949481  1
  Al  Al5  1  0.33729383  0.68165935  0.52406211  1
  Si  Si0  1  0.28801704  0.00405231  0.24977634  1
  Si  Si1  1  0.71155533  0.71688175  0.25033395  1
  Si  Si2  1  0.99934402  0.28586687  0.24993894  1
  Si  Si3  1  0.28966309  0.29033153  0.75045054  1
  Si  Si4  1  0.99555505  0.71663282  0.75056703  1
  Si  Si5  1  0.71392533  0.99907536  0.75182829  1
  Si  Si6  1  0.96018278  0.33348501  0.58475027  1
  Si  Si7  1  0.38277011  0.05137916  0.58437568  1
  Si  Si8  1  0.66635275  0.61930586  0.58320163  1
  Si  Si9  1  0.95109804  0.62203658  0.08186250  1
  Si  Si10  1  0.37835146  0.33506920  0.08208302  1
  Si  Si11  1  0.03969913  0.37128834  0.91685093  1
  Si  Si12  1  0.33358192  0.95361523  0.91878485  1
  Si  Si13  1  0.62169417  0.95386492  0.41786151  1
  Si  Si14  1  0.04655773  0.66892131  0.41922261  1
  Ge  Ge0  1  0.00073112  0.00162220  0.64648912  1
  Ge  Ge1  1  0.66805634  0.33575596  0.68761459  1
  Ge  Ge2  1  0.66862738  0.35036194  0.19000997  1
  Ge  Ge3  1  0.68412152  0.32984870  0.48478868  1
  Ge  Ge4  1  0.32804326  0.67930998  0.30998463  1
  Ge  Ge5  1  0.31766155  0.67213453  0.80873541  1
  S  S0  1  0.66551037  0.04348447  0.08156478  1
  S  S1  1  0.61916933  0.66569721  0.91795987  1
  S  S2  1  0.33289683  0.38020998  0.41677654  1
  O  O0  1  0.20468848  0.04400483  0.31111836  1
  O  O1  1  0.83153754  0.79328122  0.31086989  1
  O  O2  1  0.96539323  0.16632051  0.31139324  1
  O  O3  1  0.20897022  0.16744077  0.81096042  1
  O  O4  1  0.96133257  0.80129053  0.81204599  1
  O  O5  1  0.83573757  0.03334552  0.81130832  1
  O  O6  1  0.79423651  0.95502166  0.68905309  1
  O  O7  1  0.16337593  0.21071616  0.68948743  1
  O  O8  1  0.04076154  0.84024536  0.68845892  1
  O  O9  1  0.79537346  0.83973085  0.18915767  1
  O  O10  1  0.03449304  0.19995509  0.18835706  1
  O  O11  1  0.16895501  0.96041174  0.18911661  1
  O  O12  1  0.87277708  0.37853455  0.64443233  1
  O  O13  1  0.50893447  0.13545383  0.64445966  1
  O  O14  1  0.62691871  0.49536644  0.64446638  1
  O  O15  1  0.86656275  0.49193206  0.14417515  1
  O  O16  1  0.63228436  0.11801204  0.13908712  1
  O  O17  1  0.50335422  0.37453790  0.14443489  1
  O  O18  1  0.46948389  0.29695823  0.02250971  1
  O  O19  1  0.82714440  0.52833475  0.02267049  1
  O  O20  1  0.69163692  0.15369382  0.02632940  1
  O  O21  1  0.46919999  0.17999783  0.52255463  1
  O  O22  1  0.70875245  0.53202073  0.52145289  1
  O  O23  1  0.83543071  0.28252526  0.52310583  1
  O  O24  1  0.53302673  0.68934528  0.97352839  1
  O  O25  1  0.16513192  0.45402429  0.97642016  1
  O  O26  1  0.30749705  0.82806007  0.97807921  1
  O  O27  1  0.53193563  0.82796215  0.47719216  1
  O  O28  1  0.31032315  0.46377015  0.47295990  1
  O  O29  1  0.16844269  0.69779239  0.47799466  1
  O  O30  1  0.12709553  0.62259620  0.35583912  1
  O  O31  1  0.49538385  0.87108599  0.35583006  1
  O  O32  1  0.35963194  0.48591071  0.35958262  1
  O  O33  1  0.12859336  0.50427696  0.85542167  1
  O  O34  1  0.37571703  0.86989788  0.85518782  1
  O  O35  1  0.51575097  0.63675404  0.86103188  1
  O  O36  1  0.02653140  0.84355325  0.41154773  1
  O  O37  1  0.81968508  0.98127353  0.41097430  1
  O  O38  1  0.17361208  0.20279540  0.41413859  1
  O  O39  1  0.01628848  0.17450713  0.91036038  1
  O  O40  1  0.15509757  0.96749915  0.91291648  1
  O  O41  1  0.79602619  0.82505971  0.91468257  1
  O  O42  1  0.97347940  0.15411465  0.58959169  1
  O  O43  1  0.18747496  0.03398591  0.58820455  1
  O  O44  1  0.84583106  0.81411500  0.58737447  1
  O  O45  1  0.96921394  0.81685429  0.08898978  1
  O  O46  1  0.82597358  0.02953529  0.08452060  1
  O  O47  1  0.18137991  0.16068159  0.08891717  1
  O  O48  1  0.69187574  0.17447395  0.74550722  1
  O  O49  1  0.48597922  0.31069858  0.74442910  1
  O  O50  1  0.82238605  0.51786032  0.74553193  1
  O  O51  1  0.68748464  0.51718222  0.24657756  1
  O  O52  1  0.82297373  0.30878302  0.24440243  1
  O  O53  1  0.48980098  0.17604603  0.24198119  1
  O  O54  1  0.63956644  0.50698488  0.92162358  1
  O  O55  1  0.84592523  0.35600679  0.92368210  1
  O  O56  1  0.50940520  0.15157196  0.92246365  1
  O  O57  1  0.63663918  0.15239342  0.42234392  1
  O  O58  1  0.49164496  0.36162076  0.41808784  1
  O  O59  1  0.84583832  0.48681473  0.42227939  1
  O  O60  1  0.36425475  0.51571302  0.07664998  1
  O  O61  1  0.14839027  0.64345189  0.07906044  1
  O  O62  1  0.50982363  0.86412244  0.07650504  1
  O  O63  1  0.35989908  0.85623205  0.57936143  1
  O  O64  1  0.49282230  0.63884052  0.57678904  1
  O  O65  1  0.15377167  0.50528255  0.57572638  1
  O  O66  1  0.31162406  0.82863853  0.25397337  1
  O  O67  1  0.51004771  0.68682970  0.25804068  1
  O  O68  1  0.17698222  0.48587090  0.25534585  1
  O  O69  1  0.31422301  0.49002996  0.75736673  1
  O  O70  1  0.17281899  0.69519429  0.75231735  1
  O  O71  1  0.51503327  0.82064603  0.75601432  1
loop_
_geom_bond_atom_site_label_1
_geom_bond_atom_site_label_2
_geom_bond_distance
_geom_bond_site_symmetry_2
Na0 O52 2.344471 1_555
Na0 O67 2.422708 1_545
Na0 O53 2.476666 1_555
Na0 O66 2.501485 1_545
Na0 O31 2.542981 1_545
Na0 O16 2.644033 1_555
Na0 O9 2.763588 1_545
Na0 O2 2.820935 1_555
Na1 O68 2.346785 1_555
Na1 O53 2.437406 1_555
Na1 O67 2.473655 1_555
Na1 O51 2.503484 1_555
Na1 O17 2.531945 1_555
Na1 O32 2.619867 1_555
Na1 O0 2.774045 1_555
Na1 O10 2.815731 1_555
Na2 O66 2.402335 1_655
Na2 O51 2.403530 1_555
Na2 O52 2.502487 1_555
Na2 O68 2.516566 1_655
Na2 O30 2.595194 1_655
Na2 O15 2.599576 1_555
Na2 O11 2.783090 1_655
Na2 O1 2.783442 1_555
Na3 O71 2.344506 1_555
Na3 O50 2.357904 1_555
Na3 O69 2.441034 1_555
Na3 O49 2.468131 1_555
Na3 O14 2.513677 1_555
Na3 O35 2.644266 1_555
Na3 O6 2.738003 1_555
Na3 O4 2.886638 1_555
Na4 O48 2.359387 1_555
Na4 O69 2.438860 1_655
Na4 O50 2.511142 1_555
Na4 O70 2.512424 1_655
Na4 O12 2.565042 1_555
Na4 O33 2.586281 1_655
Na4 O7 2.744282 1_655
Na4 O5 2.851264 1_555
Na5 O49 2.346711 1_555
Na5 O70 2.385895 1_545
Na5 O48 2.464914 1_555
Na5 O71 2.537011 1_545
Na5 O13 2.551013 1_555
Na5 O34 2.585408 1_545
Na5 O3 2.769021 1_555
Na5 O8 2.850624 1_545
Na6 O64 2.328748 1_555
Na6 O43 2.336135 1_555
Na6 O65 2.405096 1_555
Na6 O42 2.489938 1_455
Na6 O7 2.511083 1_555
Na6 O28 2.650143 1_555
Na6 O21 2.823740 1_555
Na6 O14 2.826017 1_555
Na7 O44 2.353260 1_455
Na7 O65 2.415094 1_555
Na7 O63 2.442504 1_555
Na7 O43 2.520369 1_565
Na7 O29 2.528687 1_555
Na7 O8 2.556316 1_555
Na7 O12 2.797549 1_455
Na7 O22 2.874888 1_455
Na8 O42 2.377277 1_565
Na8 O63 2.377395 1_555
Na8 O64 2.448812 1_555
Na8 O44 2.494533 1_555
Na8 O6 2.573808 1_555
Na8 O27 2.580696 1_555
Na8 O23 2.772082 1_565
Na8 O13 2.842976 1_565
Na9 O47 2.367335 1_565
Na9 O61 2.437181 1_555
Na9 O45 2.446015 1_455
Na9 O62 2.498838 1_555
Na9 O11 2.537812 1_555
Na9 O26 2.547378 1_554
Na9 O18 2.831926 1_565
Na9 O16 2.926091 1_565
Na10 O45 2.313252 1_555
Na10 O60 2.342035 1_555
Na10 O62 2.511239 1_555
Na10 O9 2.516343 1_555
Na10 O46 2.545611 1_565
Na10 O17 2.728793 1_555
Na10 O24 2.731758 1_554
Na10 O19 2.831763 1_555
Na11 O61 2.391579 1_555
Na11 O46 2.391704 1_455
Na11 O47 2.398894 1_555
Na11 O10 2.454144 1_555
Na11 O60 2.469385 1_555
Na11 O25 2.620342 1_554
Na11 O15 2.793716 1_455
Na12 O40 2.314504 1_655
Na12 O55 2.375182 1_555
Na12 O54 2.529208 1_555
Na12 O41 2.554622 1_555
Na12 O4 2.573172 1_555
Na12 O19 2.590523 1_556
Na12 O33 2.747519 1_655
Na12 O26 2.912444 1_655
Na13 O56 2.359612 1_555
Na13 O39 2.404722 1_655
Na13 O5 2.417173 1_555
Na13 O55 2.422860 1_555
Na13 O41 2.422979 1_545
Na13 O20 2.718092 1_556
Na13 O34 2.770119 1_545
Na14 O39 2.391199 1_555
Na14 O40 2.430047 1_545
Na14 O56 2.452774 1_555
Na14 O54 2.465336 1_555
Na14 O3 2.555603 1_555
Na14 O18 2.571135 1_556
Na14 O25 2.770493 1_555
Na14 O35 2.941501 1_555
Na15 O59 2.381367 1_555
Na15 O38 2.381746 1_655
Na15 O37 2.391335 1_545
Na15 O2 2.426151 1_555
Na15 O57 2.495836 1_555
Na15 O23 2.621785 1_555
Na15 O30 2.755115 1_655
Na16 O36 2.338007 1_545
Na16 O57 2.355548 1_555
Na16 O38 2.531722 1_555
Na16 O58 2.536607 1_555
Na16 O0 2.568955 1_555
Na16 O21 2.643453 1_555
Na16 O31 2.760352 1_545
Na16 O29 2.844213 1_545
Na17 O37 2.371379 1_555
Na17 O36 2.418985 1_655
Na17 O58 2.439699 1_555
Na17 O59 2.482740 1_555
Na17 O1 2.537145 1_555
Na17 O22 2.551982 1_555
Na17 O27 2.812089 1_555
Na18 O44 2.371195 1_555
Na18 O36 2.396662 1_655
Na18 O37 2.442638 1_555
Na18 O42 2.449129 1_565
Na18 O43 2.487703 1_665
Na18 O38 2.514279 1_665
Na19 O40 2.350150 1_544
Na19 O47 2.389428 1_555
Na19 O45 2.431770 1_445
Na19 O39 2.445545 1_554
Na19 O46 2.514586 1_455
Na19 O41 2.584557 1_444
Na20 O48 2.378136 1_555
Na20 O56 2.406203 1_555
Na20 O50 2.429316 1_555
Na20 O49 2.465436 1_555
Na20 O55 2.468715 1_555
Na20 O54 2.555114 1_555
Na21 O52 2.383600 1_555
Na21 O57 2.408762 1_555
Na21 O59 2.420625 1_555
Na21 O51 2.442047 1_555
Na21 O58 2.489978 1_555
Na21 O53 2.491107 1_555
Na22 O68 2.386025 1_555
Na22 O60 2.396308 1_555
Na22 O61 2.425854 1_555
Na22 O66 2.452309 1_555
Na22 O67 2.517175 1_555
Na22 O62 2.565315 1_555
Na23 O64 2.403356 1_555
Na23 O63 2.410805 1_555
Na23 O70 2.442446 1_555
Na23 O65 2.453468 1_555
Na23 O71 2.485581 1_555
Na23 O69 2.496967 1_555
Al0 O1 1.798380 1_555
Al0 O2 1.871437 1_565
Al0 O0 1.882555 1_665
Al0 O37 1.952875 1_555
Al0 O36 1.997665 1_655
Al0 O38 2.251437 1_665
Al1 O3 1.796567 1_555
Al1 O4 1.852861 1_445
Al1 O5 1.883963 1_455
Al1 O39 1.913998 1_555
Al1 O40 2.017931 1_545
Al1 O41 2.229044 1_445
Al2 O11 1.801737 1_555
Al2 O10 1.864033 1_565
Al2 O9 1.893272 1_455
Al2 O47 1.952635 1_565
Al2 O45 1.957896 1_455
Al2 O46 2.304877 1_465
Al3 O18 1.820274 1_556
Al3 O19 1.848982 1_556
Al3 O55 1.912172 1_555
Al3 O56 1.947561 1_555
Al3 O20 1.974778 1_556
Al3 O54 2.097252 1_555
Al4 O25 1.778460 1_554
Al4 O26 1.830977 1_554
Al4 O61 1.861019 1_555
Al4 O60 1.933765 1_555
Al4 O24 2.078045 1_554
Al4 O62 2.241321 1_555
Al5 O27 1.831335 1_555
Al5 O29 1.868979 1_555
Al5 O63 1.869253 1_555
Al5 O65 1.922723 1_555
Al5 O64 1.974295 1_555
Al5 O28 2.113188 1_555
Ge0 O8 1.868208 1_545
Ge0 O6 1.874983 1_445
Ge0 O7 1.917257 1_555
Ge0 O42 1.928009 1_455
Ge0 O43 1.955524 1_555
Ge0 O44 1.995860 1_445
Ge1 O13 1.865984 1_555
Ge1 O14 1.873269 1_555
Ge1 O12 1.877155 1_555
Ge1 O49 1.922864 1_555
Ge1 O50 1.955320 1_555
Ge1 O48 1.986449 1_555
Ge2 O15 1.827355 1_555
Ge2 O51 1.845189 1_555
Ge2 O17 1.871486 1_555
Ge2 O53 1.902078 1_555
Ge2 O52 1.981583 1_555
Ge2 O16 2.192834 1_555
Ge3 O23 1.799958 1_555
Ge3 O22 1.852853 1_555
Ge3 O21 1.853866 1_555
Ge3 O59 1.930613 1_555
Ge3 O57 1.938712 1_555
Ge3 O58 2.366375 1_555
Ge4 O30 1.848253 1_555
Ge4 O66 1.849850 1_555
Ge4 O31 1.879215 1_555
Ge4 O67 1.912564 1_555
Ge4 O68 1.952327 1_555
Ge4 O32 2.150703 1_555
Ge5 O34 1.841528 1_555
Ge5 O33 1.858526 1_555
Ge5 O70 1.863682 1_555
Ge5 O71 1.919885 1_555
Ge5 O69 1.928754 1_555
Ge5 O35 2.245867 1_555
O0 Si0 1.620522 1_555
O1 Si1 1.612191 1_555
O2 Si2 1.623604 1_555
O3 Si3 1.607916 1_555
O4 Si4 1.611615 1_555
O5 Si5 1.615388 1_545
O6 Si5 1.647092 1_555
O7 Si3 1.648095 1_555
O8 Si4 1.641885 1_455
O9 Si1 1.622032 1_555
O10 Si2 1.622841 1_455
O11 Si0 1.612123 1_565
O12 Si6 1.632939 1_555
O13 Si7 1.635979 1_555
O14 Si8 1.634927 1_555
O15 Si9 1.671336 1_555
O16 S0 1.489863 1_555
O17 Si10 1.675283 1_555
O18 Si10 1.622003 1_555
O19 Si9 1.623241 1_555
O20 S0 1.479866 1_555
O21 Si7 1.658410 1_555
O22 Si8 1.659756 1_555
O23 Si6 1.651649 1_555
O24 S1 1.474515 1_555
O25 Si11 1.622851 1_555
O26 Si12 1.630177 1_555
O27 Si13 1.608382 1_555
O28 S2 1.473413 1_555
O29 Si14 1.611512 1_555
O30 Si14 1.667749 1_555
O31 Si13 1.669257 1_555
O32 S2 1.490924 1_555
O33 Si11 1.671730 1_555
O34 Si12 1.673205 1_555
O35 S1 1.485436 1_555
O36 Si14 1.641637 1_555
O37 Si13 1.641857 1_555
O38 S2 1.486990 1_555
O39 Si11 1.642230 1_555
O40 Si12 1.645811 1_555
O41 S1 1.484212 1_555
O42 Si6 1.643875 1_555
O43 Si7 1.650960 1_555
O44 Si8 1.651644 1_555
O45 Si9 1.645557 1_555
O46 S0 1.482909 1_555
O47 Si10 1.645591 1_555
O48 Si5 1.655809 1_545
O49 Si3 1.650931 1_555
O50 Si4 1.649852 1_555
O51 Si1 1.661679 1_555
O52 Si2 1.672051 1_555
O53 Si0 1.664488 1_555
O54 S1 1.497224 1_555
O55 Si11 1.648941 1_655
O56 Si12 1.653068 1_545
O57 Si13 1.686125 1_545
O58 S2 1.489435 1_555
O59 Si14 1.688633 1_655
O60 Si10 1.659904 1_555
O61 Si9 1.653002 1_455
O62 S0 1.487650 1_565
O63 Si7 1.627643 1_565
O64 Si8 1.631702 1_555
O65 Si6 1.623276 1_455
O66 Si0 1.660521 1_565
O67 Si1 1.664917 1_555
O68 Si2 1.672689 1_455
O69 Si3 1.664331 1_555
O70 Si4 1.666895 1_455
O71 Si5 1.666654 1_555
