# generated using pymatgen
data_MgV4(PbO6)2
_symmetry_space_group_name_H-M   'P 1'
_cell_length_a   3.78150112
_cell_length_b   8.43683801
_cell_length_c   10.33997043
_cell_angle_alpha   107.38205951
_cell_angle_beta   90.02838894
_cell_angle_gamma   102.94230402
_symmetry_Int_Tables_number   1
_chemical_formula_structural   MgV4(PbO6)2
_chemical_formula_sum   'Mg1 V4 Pb2 O12'
_cell_volume   306.01646238
_cell_formula_units_Z   1
loop_
 _symmetry_equiv_pos_site_id
 _symmetry_equiv_pos_as_xyz
  1  'x, y, z'
loop_
 _atom_site_type_symbol
 _atom_site_label
 _atom_site_symmetry_multiplicity
 _atom_site_fract_x
 _atom_site_fract_y
 _atom_site_fract_z
 _atom_site_occupancy
  Mg  Mg0  1  0.78550600  0.57119400  0.00766400  1
  V  V0  1  0.59335900  0.18711300  0.81256000  1
  V  V1  1  0.40907800  0.81799200  0.18605200  1
  V  V2  1  0.84238300  0.68402800  0.37037800  1
  V  V3  1  0.15724900  0.31539000  0.62833800  1
  Pb  Pb0  1  0.89203700  0.78339900  0.76293500  1
  Pb  Pb1  1  0.12083000  0.24364500  0.24635700  1
  O  O0  1  0.64993800  0.30063900  0.67141100  1
  O  O1  1  0.36162500  0.72259800  0.33772400  1
  O  O2  1  0.87824800  0.75625900  0.19958200  1
  O  O3  1  0.09099000  0.18247500  0.75784700  1
  O  O4  1  0.66348800  0.32699800  0.97710400  1
  O  O5  1  0.32993300  0.66002000  0.01211800  1
  O  O6  1  0.10632000  0.21402600  0.45679400  1
  O  O7  1  0.89270300  0.78431500  0.53739000  1
  O  O8  1  0.47822000  0.95629700  0.79914300  1
  O  O9  1  0.73481600  0.46925300  0.33694700  1
  O  O10  1  0.26400000  0.52884300  0.66256700  1
  O  O11  1  0.51713400  0.03457800  0.20236700  1
loop_
_geom_bond_atom_site_label_1
_geom_bond_atom_site_label_2
_geom_bond_distance
_geom_bond_site_symmetry_2
Mg0 O4 1.934531 1_554
Mg0 O5 2.022220 1_555
Mg0 O5 2.022468 1_655
Mg0 O2 2.097993 1_555
O0 V3 1.954767 1_655
O0 V3 1.954779 1_555
O0 V0 1.958816 1_555
O1 V1 1.956830 1_555
O1 V2 1.963416 1_555
O1 V2 1.963511 1_455
O2 V1 1.973755 1_555
O2 V1 1.973760 1_655
O2 V2 2.028509 1_555
O3 V0 1.970504 1_555
O3 V0 1.970669 1_455
O3 V3 1.971094 1_555
O4 V0 1.737097 1_555
O5 V1 1.867893 1_555
O6 V3 1.712958 1_555
O6 Pb1 2.262499 1_555
O7 V2 1.669980 1_555
O7 Pb0 2.334450 1_555
O8 V0 1.860039 1_565
O8 Pb0 2.325088 1_455
O8 Pb0 2.326701 1_555
O9 V2 1.692284 1_555
O9 Pb1 2.609947 1_655
O9 Pb1 2.616120 1_555
O10 V3 1.680698 1_555
O11 V1 1.736590 1_545
O11 Pb1 2.499107 1_655
O11 Pb1 2.503870 1_555
