# generated using pymatgen
data_Li2TiPCO7
_symmetry_space_group_name_H-M   'P 1'
_cell_length_a   6.39912200
_cell_length_b   5.11468100
_cell_length_c   8.59754496
_cell_angle_alpha   86.52456018
_cell_angle_beta   90.00000000
_cell_angle_gamma   90.00000000
_symmetry_Int_Tables_number   1
_chemical_formula_structural   Li2TiPCO7
_chemical_formula_sum   'Li4 Ti2 P2 C2 O14'
_cell_volume   280.87555312
_cell_formula_units_Z   2
loop_
 _symmetry_equiv_pos_site_id
 _symmetry_equiv_pos_as_xyz
  1  'x, y, z'
loop_
 _atom_site_type_symbol
 _atom_site_label
 _atom_site_symmetry_multiplicity
 _atom_site_fract_x
 _atom_site_fract_y
 _atom_site_fract_z
 _atom_site_occupancy
  Li  Li0  1  0.00909500  0.75074200  0.77902700  1
  Li  Li1  1  0.99090500  0.24925800  0.22097300  1
  Li  Li2  1  0.50909500  0.24925800  0.22097300  1
  Li  Li3  1  0.49090500  0.75074200  0.77902700  1
  Ti  Ti0  1  0.75000000  0.79457500  0.34205200  1
  Ti  Ti1  1  0.25000000  0.20542500  0.65794800  1
  P  P0  1  0.25000000  0.71282500  0.42331500  1
  P  P1  1  0.75000000  0.28717500  0.57668500  1
  C  C0  1  0.75000000  0.73106300  0.05406100  1
  C  C1  1  0.25000000  0.26893700  0.94593900  1
  O  O0  1  0.75000000  0.53071000  0.16020100  1
  O  O1  1  0.75000000  0.96148000  0.11421300  1
  O  O2  1  0.25000000  0.46929000  0.83979900  1
  O  O3  1  0.94390500  0.18292600  0.66835300  1
  O  O4  1  0.55609500  0.18292600  0.66835300  1
  O  O5  1  0.75000000  0.18116000  0.41071500  1
  O  O6  1  0.25000000  0.81884000  0.58928500  1
  O  O7  1  0.44390500  0.81707400  0.33164700  1
  O  O8  1  0.05609500  0.81707400  0.33164700  1
  O  O9  1  0.25000000  0.40859700  0.43664600  1
  O  O10  1  0.75000000  0.70059300  0.90934300  1
  O  O11  1  0.25000000  0.29940700  0.09065700  1
  O  O12  1  0.75000000  0.59140300  0.56335400  1
  O  O13  1  0.25000000  0.03852000  0.88578700  1
loop_
_geom_bond_atom_site_label_1
_geom_bond_atom_site_label_2
_geom_bond_distance
_geom_bond_site_symmetry_2
Li0 O10 2.008765 1_455
Li0 O2 2.151870 1_555
Li0 O6 2.256122 1_555
Li0 O13 2.355680 1_565
Li0 O3 2.389696 1_465
Li1 O11 2.008765 1_655
Li1 O0 2.151870 1_555
Li1 O5 2.256122 1_555
Li1 O1 2.355680 1_545
Li1 O8 2.389696 1_645
Li2 O11 2.008765 1_555
Li2 O0 2.151870 1_555
Li2 O5 2.256122 1_555
Li2 O1 2.355680 1_545
Li2 O7 2.389696 1_545
Li3 O10 2.008765 1_555
Li3 O2 2.151870 1_555
Li3 O6 2.256122 1_555
Li3 O13 2.355680 1_565
Li3 O4 2.389696 1_565
C0 O10 1.263281 1_554
C0 O1 1.315383 1_555
C0 O0 1.330209 1_555
C1 O11 1.263281 1_556
C1 O13 1.315383 1_555
C1 O2 1.330209 1_555
O0 Ti0 2.126417 1_555
O1 Ti0 2.088809 1_555
O2 Ti1 2.126417 1_555
O3 P1 1.547296 1_555
O3 Ti1 1.963837 1_655
O4 P1 1.547296 1_555
O4 Ti1 1.963837 1_555
O5 P1 1.556909 1_555
O5 Ti0 2.097514 1_545
O6 P0 1.556909 1_555
O6 Ti1 2.097514 1_565
O7 P0 1.547296 1_555
O7 Ti0 1.963837 1_555
O8 P0 1.547296 1_555
O8 Ti0 1.963837 1_455
O9 P0 1.553300 1_555
O9 Ti1 2.111926 1_555
O12 P1 1.553300 1_555
O12 Ti0 2.111926 1_555
O13 Ti1 2.088809 1_555
