# generated using pymatgen
data_Tl3CoCl5
_symmetry_space_group_name_H-M   'P 1'
_cell_length_a   8.39876591
_cell_length_b   8.39876668
_cell_length_c   9.33994593
_cell_angle_alpha   116.71900407
_cell_angle_beta   116.71900630
_cell_angle_gamma   90.00000112
_symmetry_Int_Tables_number   1
_chemical_formula_structural   Tl3CoCl5
_chemical_formula_sum   'Tl6 Co2 Cl10'
_cell_volume   508.49453652
_cell_formula_units_Z   2
loop_
 _symmetry_equiv_pos_site_id
 _symmetry_equiv_pos_as_xyz
  1  'x, y, z'
loop_
 _atom_site_type_symbol
 _atom_site_label
 _atom_site_symmetry_multiplicity
 _atom_site_fract_x
 _atom_site_fract_y
 _atom_site_fract_z
 _atom_site_occupancy
  Tl  Tl0  1  0.75000000  0.75000000  0.50000000  1
  Tl  Tl1  1  0.25000000  0.25000000  0.50000000  1
  Tl  Tl2  1  0.34033624  0.84033624  -0.00000000  1
  Tl  Tl3  1  0.15966376  0.34033624  -0.00000000  1
  Tl  Tl4  1  0.84033624  0.65966376  0.00000000  1
  Tl  Tl5  1  0.65966376  0.15966376  0.00000000  1
  Co  Co0  1  0.75000000  0.25000000  0.50000000  1
  Co  Co1  1  0.25000000  0.75000000  0.50000000  1
  Cl  Cl0  1  0.50000000  0.50000000  0.00000000  1
  Cl  Cl1  1  0.00000000  0.00000000  0.00000000  1
  Cl  Cl2  1  0.00477232  0.50477232  0.31045227  1
  Cl  Cl3  1  0.69432006  0.19432006  0.68954773  1
  Cl  Cl4  1  0.99522768  0.49522768  0.68954773  1
  Cl  Cl5  1  0.19432006  0.99522768  0.68954773  1
  Cl  Cl6  1  0.49522768  0.69432006  0.68954773  1
  Cl  Cl7  1  0.80567994  0.00477232  0.31045227  1
  Cl  Cl8  1  0.30567994  0.80567994  0.31045227  1
  Cl  Cl9  1  0.50477232  0.30567994  0.31045227  1
loop_
_geom_bond_atom_site_label_1
_geom_bond_atom_site_label_2
_geom_bond_distance
_geom_bond_site_symmetry_2
Cl0 Tl3 3.157325 1_555
Cl0 Tl4 3.157325 1_555
Cl0 Tl5 3.157325 1_555
Cl0 Tl2 3.157325 1_555
Cl1 Tl5 3.157325 1_455
Cl1 Tl2 3.157325 1_545
Cl1 Tl4 3.157325 1_445
Cl1 Tl3 3.157325 1_555
Cl2 Co1 2.249560 1_555
Cl2 Tl5 3.177271 1_455
Cl3 Co0 2.249559 1_555
Cl3 Tl5 3.177271 1_556
Cl4 Co0 2.249560 1_555
Cl4 Tl2 3.177271 1_656
Cl5 Co1 2.249560 1_555
Cl5 Tl3 3.177271 1_566
Cl6 Co1 2.249559 1_555
Cl6 Tl4 3.177271 1_556
Cl7 Co0 2.249560 1_555
Cl7 Tl4 3.177271 1_545
Cl8 Co1 2.249559 1_555
Cl8 Tl2 3.177271 1_555
Cl9 Co0 2.249559 1_555
Cl9 Tl3 3.177271 1_555
