# generated using pymatgen
data_Sr2MgZnMoO6
_symmetry_space_group_name_H-M   'P 1'
_cell_length_a   6.75183030
_cell_length_b   6.94505742
_cell_length_c   6.07741410
_cell_angle_alpha   131.04413818
_cell_angle_beta   126.56426741
_cell_angle_gamma   78.47453353
_symmetry_Int_Tables_number   1
_chemical_formula_structural   Sr2MgZnMoO6
_chemical_formula_sum   'Sr2 Mg1 Zn1 Mo1 O6'
_cell_volume   163.79150826
_cell_formula_units_Z   1
loop_
 _symmetry_equiv_pos_site_id
 _symmetry_equiv_pos_as_xyz
  1  'x, y, z'
loop_
 _atom_site_type_symbol
 _atom_site_label
 _atom_site_symmetry_multiplicity
 _atom_site_fract_x
 _atom_site_fract_y
 _atom_site_fract_z
 _atom_site_occupancy
  Sr  Sr0  1  0.74848553  0.17698666  0.50331672  1
  Sr  Sr1  1  0.25151447  0.82301334  0.49668328  1
  Mg  Mg0  1  -0.00000000  0.50000000  0.50000000  1
  Zn  Zn0  1  0.50000000  0.50000000  0.00000000  1
  Mo  Mo0  1  -0.00000000  0.00000000  0.00000000  1
  O  O0  1  0.11724895  0.34788228  0.16774805  1
  O  O1  1  0.88275105  0.65211772  0.83225195  1
  O  O2  1  0.69655352  0.14048504  0.00644062  1
  O  O3  1  0.30344648  0.85951496  0.99355938  1
  O  O4  1  0.17680747  0.24286557  0.58491870  1
  O  O5  1  0.82319253  0.75713443  0.41508130  1
loop_
_geom_bond_atom_site_label_1
_geom_bond_atom_site_label_2
_geom_bond_distance
_geom_bond_site_symmetry_2
Mg0 O2 2.077414 1_455
Mg0 O3 2.077414 1_555
Mg0 O4 2.122496 1_555
Mg0 O5 2.122496 1_455
Mg0 O0 2.142173 1_555
Mg0 O1 2.142173 1_455
Mo0 O1 2.017764 1_444
Mo0 O0 2.017764 1_555
Mo0 O3 2.097075 1_544
Mo0 O2 2.097075 1_455
Mo0 O4 2.186529 1_555
Mo0 O5 2.186529 1_444
O0 Sr1 2.465750 1_555
O0 Sr0 2.611812 1_454
O1 Sr0 2.465750 1_555
O1 Sr1 2.611812 1_656
O2 Sr1 2.464504 1_544
O2 Zn0 2.596021 1_555
O2 Sr0 2.659808 1_555
O3 Sr0 2.464504 1_566
O3 Zn0 2.596021 1_556
O3 Sr1 2.659808 1_555
O4 Zn0 1.843066 1_556
O4 Sr1 2.593354 1_545
O4 Sr0 2.709368 1_455
O5 Zn0 1.843066 1_555
O5 Sr0 2.593354 1_565
O5 Sr1 2.709368 1_655
