# generated using pymatgen
data_ZnSiSn3S5O24
_symmetry_space_group_name_H-M   'P 1'
_cell_length_a   8.82463015
_cell_length_b   8.78140683
_cell_length_c   22.77940999
_cell_angle_alpha   90.17267090
_cell_angle_beta   90.27055609
_cell_angle_gamma   120.07220335
_symmetry_Int_Tables_number   1
_chemical_formula_structural   ZnSiSn3S5O24
_chemical_formula_sum   'Zn3 Si3 Sn9 S15 O72'
_cell_volume   1527.58026819
_cell_formula_units_Z   3
loop_
 _symmetry_equiv_pos_site_id
 _symmetry_equiv_pos_as_xyz
  1  'x, y, z'
loop_
 _atom_site_type_symbol
 _atom_site_label
 _atom_site_symmetry_multiplicity
 _atom_site_fract_x
 _atom_site_fract_y
 _atom_site_fract_z
 _atom_site_occupancy
  Zn  Zn0  1  0.00026749  0.99954316  0.35272966  1
  Zn  Zn1  1  0.66457995  0.34349118  0.68773310  1
  Zn  Zn2  1  0.66599826  0.33335306  0.18553200  1
  Si  Si0  1  0.66881935  0.62303353  0.58583330  1
  Si  Si1  1  0.04459301  0.37741295  0.91631934  1
  Si  Si2  1  0.33194868  0.95467613  0.91625519  1
  Sn  Sn0  1  0.00743262  0.00659738  0.85670711  1
  Sn  Sn1  1  0.99300888  0.99315387  0.64751929  1
  Sn  Sn2  1  0.00129326  0.00066531  0.14669848  1
  Sn  Sn3  1  0.66863135  0.32765833  0.97542245  1
  Sn  Sn4  1  0.66806760  0.33873246  0.48432958  1
  Sn  Sn5  1  0.32586464  0.66418135  0.01597159  1
  Sn  Sn6  1  0.33738669  0.66527607  0.52328685  1
  Sn  Sn7  1  0.33424485  0.66743780  0.31238582  1
  Sn  Sn8  1  0.32728488  0.66881366  0.81483769  1
  S  S0  1  0.29327154  0.00418300  0.25139498  1
  S  S1  1  0.71094538  0.70741532  0.25130181  1
  S  S2  1  0.99574948  0.28889673  0.25134139  1
  S  S3  1  0.29294587  0.29193694  0.74935807  1
  S  S4  1  0.99855732  0.70758146  0.75055179  1
  S  S5  1  0.70648445  0.00088747  0.75068858  1
  S  S6  1  0.95708210  0.33245482  0.58449162  1
  S  S7  1  0.37546794  0.04343055  0.58453154  1
  S  S8  1  0.95580863  0.62146475  0.08522095  1
  S  S9  1  0.66440212  0.03944760  0.08521677  1
  S  S10  1  0.37894438  0.33718531  0.08448886  1
  S  S11  1  0.62447541  0.66734180  0.91655446  1
  S  S12  1  0.62753770  0.96144902  0.41718059  1
  S  S13  1  0.33049471  0.37134205  0.41608679  1
  S  S14  1  0.04307032  0.66709173  0.41708303  1
  O  O0  1  0.21077397  0.02858116  0.30292550  1
  O  O1  1  0.81821612  0.79044535  0.30324407  1
  O  O2  1  0.97219385  0.18220935  0.30285195  1
  O  O3  1  0.20848994  0.17987793  0.80112605  1
  O  O4  1  0.96814883  0.79152142  0.80257176  1
  O  O5  1  0.81897612  0.02825972  0.80310652  1
  O  O6  1  0.78478112  0.96479988  0.69714887  1
  O  O7  1  0.17604006  0.21351958  0.69521263  1
  O  O8  1  0.03794664  0.82403819  0.69739620  1
  O  O9  1  0.78389214  0.82149802  0.19703409  1
  O  O10  1  0.03677744  0.21576421  0.19679732  1
  O  O11  1  0.17851867  0.96203612  0.19673708  1
  O  O12  1  0.87987454  0.36290733  0.63568529  1
  O  O13  1  0.48705571  0.11693965  0.63553428  1
  O  O14  1  0.63046176  0.49969064  0.64078859  1
  O  O15  1  0.87674211  0.51610105  0.13724495  1
  O  O16  1  0.63623765  0.11765340  0.13744891  1
  O  O17  1  0.48322055  0.36293574  0.13722465  1
  O  O18  1  0.45300272  0.30258360  0.03099368  1
  O  O19  1  0.84609410  0.54873693  0.03135626  1
  O  O20  1  0.70072298  0.14888401  0.03212480  1
  O  O21  1  0.44821824  0.14653666  0.52835639  1
  O  O22  1  0.70777366  0.54986626  0.52327001  1
  O  O23  1  0.84921637  0.29302709  0.52854772  1
  O  O24  1  0.55204448  0.70302210  0.97057139  1
  O  O25  1  0.16359131  0.44831584  0.97615224  1
  O  O26  1  0.29908686  0.84375921  0.97679927  1
  O  O27  1  0.54372303  0.84891457  0.46892753  1
  O  O28  1  0.29936751  0.45402870  0.46818028  1
  O  O29  1  0.15657233  0.69753730  0.46999521  1
  O  O30  1  0.12244020  0.63059508  0.36361458  1
  O  O31  1  0.51127515  0.88413635  0.36334872  1
  O  O32  1  0.37000433  0.48957577  0.36304867  1
  O  O33  1  0.12548039  0.49321357  0.85751566  1
  O  O34  1  0.38143771  0.88117527  0.85821446  1
  O  O35  1  0.51416254  0.63030830  0.86320484  1
  O  O36  1  0.02624030  0.82135689  0.40877324  1
  O  O37  1  0.79754896  0.97826353  0.40827927  1
  O  O38  1  0.17585796  0.20063865  0.40724934  1
  O  O39  1  0.01450737  0.18220578  0.90893638  1
  O  O40  1  0.15614050  0.96475205  0.90836485  1
  O  O41  1  0.79711324  0.82321384  0.90859209  1
  O  O42  1  0.98332052  0.17871825  0.59014821  1
  O  O43  1  0.20082277  0.02807769  0.59036613  1
  O  O44  1  0.84080293  0.82066513  0.59009450  1
  O  O45  1  0.97541219  0.80359254  0.09121325  1
  O  O46  1  0.82661235  0.02155120  0.09173156  1
  O  O47  1  0.19742121  0.17559394  0.09080784  1
  O  O48  1  0.68961285  0.15506303  0.74144699  1
  O  O49  1  0.46110945  0.30396876  0.74247535  1
  O  O50  1  0.84642562  0.53534727  0.74308381  1
  O  O51  1  0.68884162  0.53435794  0.24148319  1
  O  O52  1  0.84557157  0.31082548  0.24128414  1
  O  O53  1  0.46531842  0.15483436  0.24160972  1
  O  O54  1  0.64016079  0.51009036  0.92530767  1
  O  O55  1  0.85952059  0.36941192  0.92545709  1
  O  O56  1  0.49835933  0.14975473  0.92489741  1
  O  O57  1  0.64042896  0.13758019  0.42513976  1
  O  O58  1  0.49042742  0.35653015  0.42302238  1
  O  O59  1  0.87069256  0.50290973  0.42306969  1
  O  O60  1  0.36018256  0.49543170  0.07732169  1
  O  O61  1  0.13268431  0.64370047  0.07879454  1
  O  O62  1  0.51114009  0.85985570  0.07691490  1
  O  O63  1  0.35083670  0.86421053  0.57435304  1
  O  O64  1  0.49572082  0.64370671  0.57495563  1
  O  O65  1  0.13003799  0.49338820  0.57419709  1
  O  O66  1  0.30704997  0.83821019  0.25709622  1
  O  O67  1  0.53163975  0.69300701  0.25722275  1
  O  O68  1  0.16119799  0.46893757  0.25716215  1
  O  O69  1  0.30864543  0.46846618  0.75599264  1
  O  O70  1  0.16172690  0.69730398  0.75514628  1
  O  O71  1  0.53364803  0.83534823  0.75665607  1
loop_
_geom_bond_atom_site_label_1
_geom_bond_atom_site_label_2
_geom_bond_distance
_geom_bond_site_symmetry_2
O0 S0 1.454875 1_555
O0 Zn0 2.085640 1_545
O1 S1 1.456099 1_555
O1 Zn0 2.058469 1_655
O2 S2 1.453102 1_555
O2 Zn0 2.081322 1_645
O3 S3 1.481453 1_555
O3 Sn0 2.096082 1_555
O4 S4 1.488455 1_555
O4 Sn0 2.129254 1_665
O5 S5 1.488933 1_555
O5 Sn0 2.142904 1_655
O6 S5 1.513380 1_565
O6 Sn1 2.068676 1_555
O7 S3 1.526655 1_555
O7 Sn1 2.090979 1_445
O8 S4 1.512614 1_455
O8 Sn1 2.061479 1_455
O9 S1 1.521460 1_555
O9 Sn2 2.115973 1_665
O10 S2 1.523068 1_455
O10 Sn2 2.087857 1_555
O11 S0 1.523929 1_565
O11 Sn2 2.092232 1_565
O12 S6 1.443562 1_555
O12 Zn1 2.177662 1_555
O13 S7 1.443540 1_555
O13 Zn1 2.161168 1_555
O14 Si0 1.581014 1_555
O14 Zn1 1.880240 1_555
O15 S8 1.454217 1_555
O15 Zn2 2.069496 1_555
O16 S9 1.455335 1_555
O16 Zn2 2.083914 1_555
O17 S10 1.456154 1_555
O17 Zn2 2.069992 1_555
O18 S10 1.486168 1_555
O18 Sn3 2.208228 1_554
O19 S8 1.488349 1_555
O19 Sn3 2.182707 1_554
O20 S9 1.480167 1_555
O20 Sn3 2.160424 1_554
O21 S7 1.517105 1_555
O21 Sn4 2.089333 1_555
O22 Si0 1.668087 1_555
O22 Sn4 1.919170 1_555
O23 S6 1.518406 1_555
O23 Sn4 2.088378 1_555
O24 S11 1.492177 1_555
O24 Sn5 2.123458 1_556
O25 Si1 1.635290 1_555
O25 Sn5 1.929673 1_556
O26 Si2 1.632074 1_555
O26 Sn5 1.928414 1_556
O27 S12 1.481840 1_555
O27 Sn6 2.130705 1_555
O28 S13 1.486140 1_555
O28 Sn6 2.118440 1_555
O29 S14 1.498586 1_555
O29 Sn6 2.129963 1_555
O30 S14 1.519024 1_555
O30 Sn7 2.092090 1_555
O31 S12 1.517329 1_555
O31 Sn7 2.097530 1_555
O32 S13 1.519206 1_555
O32 Sn7 2.091004 1_555
O33 Si1 1.621010 1_555
O33 Sn8 1.941048 1_555
O34 Si2 1.624242 1_555
O34 Sn8 1.942584 1_555
O35 S11 1.483060 1_555
O35 Sn8 2.142844 1_555
O36 S14 1.447729 1_555
O36 Zn0 2.121180 1_555
O37 S12 1.447350 1_555
O37 Zn0 2.127001 1_655
O38 S13 1.447512 1_555
O38 Zn0 2.070782 1_545
O39 Si1 1.605917 1_555
O39 Sn0 1.920729 1_555
O40 Si2 1.606904 1_555
O40 Sn0 1.926948 1_565
O41 S11 1.463443 1_555
O41 Sn0 2.114647 1_665
O42 S6 1.485536 1_555
O42 Sn1 2.126492 1_545
O43 S7 1.484884 1_555
O43 Sn1 2.147898 1_445
O44 Si0 1.637874 1_555
O44 Sn1 1.934440 1_555
O45 S8 1.525655 1_555
O45 Sn2 2.057312 1_665
O46 S9 1.522939 1_555
O46 Sn2 2.060128 1_655
O47 S10 1.525015 1_555
O47 Sn2 2.084288 1_555
O48 S5 1.450140 1_555
O48 Zn1 2.158660 1_555
O49 S3 1.443298 1_555
O49 Zn1 2.073327 1_555
O50 S4 1.442279 1_555
O50 Zn1 2.064445 1_555
O51 S1 1.448443 1_555
O51 Zn2 2.099546 1_555
O52 S2 1.448809 1_555
O52 Zn2 2.111844 1_555
O53 S0 1.448090 1_555
O53 Zn2 2.115816 1_555
O54 S11 1.469261 1_555
O54 Sn3 2.084337 1_555
O55 Si1 1.613658 1_655
O55 Sn3 1.915505 1_555
O56 Si2 1.613681 1_545
O56 Sn3 1.908747 1_555
O57 S12 1.503267 1_545
O57 Sn4 2.132690 1_555
O58 S13 1.488546 1_555
O58 Sn4 2.158316 1_555
O59 S14 1.488761 1_655
O59 Sn4 2.162237 1_555
O60 S10 1.488898 1_555
O60 Sn5 2.167698 1_555
O61 S8 1.480790 1_455
O61 Sn5 2.168821 1_555
O62 S9 1.486705 1_565
O62 Sn5 2.168325 1_555
O63 S7 1.494108 1_565
O63 Sn6 2.048817 1_555
O64 Si0 1.643871 1_555
O64 Sn6 1.903809 1_555
O65 S6 1.491779 1_455
O65 Sn6 2.057670 1_555
O66 S0 1.527899 1_565
O66 Sn7 2.064439 1_555
O67 S1 1.529501 1_555
O67 Sn7 2.072234 1_555
O68 S2 1.527221 1_455
O68 Sn7 2.062483 1_555
O69 S3 1.492727 1_555
O69 Sn8 2.147746 1_555
O70 S4 1.490407 1_455
O70 Sn8 2.096560 1_555
O71 S5 1.496352 1_565
O71 Sn8 2.139393 1_555
