# generated using pymatgen
data_Sr3Fe2Br2O5
_symmetry_space_group_name_H-M   'P 1'
_cell_length_a   4.01024801
_cell_length_b   4.01024823
_cell_length_c   13.65876343
_cell_angle_alpha   98.44160599
_cell_angle_beta   98.44159544
_cell_angle_gamma   89.99999745
_symmetry_Int_Tables_number   1
_chemical_formula_structural   Sr3Fe2Br2O5
_chemical_formula_sum   'Sr3 Fe2 Br2 O5'
_cell_volume   214.87548514
_cell_formula_units_Z   1
loop_
 _symmetry_equiv_pos_site_id
 _symmetry_equiv_pos_as_xyz
  1  'x, y, z'
loop_
 _atom_site_type_symbol
 _atom_site_label
 _atom_site_symmetry_multiplicity
 _atom_site_fract_x
 _atom_site_fract_y
 _atom_site_fract_z
 _atom_site_occupancy
  Sr  Sr0  1  0.85899400  0.85899500  0.71799100  1
  Sr  Sr1  1  0.14100400  0.14100500  0.28200900  1
  Sr  Sr2  1  0.00000000  0.00000000  0.00000000  1
  Fe  Fe0  1  0.42806300  0.42806300  0.85612400  1
  Fe  Fe1  1  0.57193700  0.57193700  0.14387600  1
  Br  Br0  1  0.30572300  0.30572400  0.61144700  1
  Br  Br1  1  0.69427700  0.69427600  0.38855300  1
  O  O0  1  0.58185600  0.08185300  0.16370900  1
  O  O1  1  0.41814500  0.91814600  0.83629100  1
  O  O2  1  0.91814500  0.41814600  0.83629100  1
  O  O3  1  0.50000000  0.49999900  0.00000000  1
  O  O4  1  0.08185600  0.58185400  0.16370900  1
loop_
_geom_bond_atom_site_label_1
_geom_bond_atom_site_label_2
_geom_bond_distance
_geom_bond_site_symmetry_2
Fe0 O3 1.922351 1_556
Fe0 O2 2.022553 1_555
Fe0 O1 2.022557 1_555
Fe0 O1 2.022561 1_545
Fe0 O2 2.022565 1_455
Fe1 O3 1.922351 1_555
Fe1 O4 2.022549 1_555
Fe1 O0 2.022557 1_565
Fe1 O0 2.022561 1_555
Fe1 O4 2.022569 1_655
Br0 Sr0 3.172935 1_555
Br0 Sr0 3.172939 1_455
Br0 Sr0 3.172940 1_545
Br0 Sr0 3.172945 1_445
Br0 Fe0 3.269170 1_555
Br1 Sr1 3.172934 1_655
Br1 Sr1 3.172940 1_665
Br1 Sr1 3.172940 1_555
Br1 Sr1 3.172945 1_565
Br1 Fe1 3.269170 1_555
O0 Sr1 2.553208 1_655
O0 Sr1 2.553220 1_555
O0 Sr2 2.967317 1_655
O0 Sr2 2.967325 1_555
O1 Sr0 2.553211 1_555
O1 Sr0 2.553217 1_455
O1 Sr2 2.967319 1_566
O1 Sr2 2.967322 1_666
O2 Sr0 2.553211 1_555
O2 Sr0 2.553217 1_545
O2 Sr2 2.967319 1_666
O2 Sr2 2.967322 1_656
O3 Sr2 2.835671 1_655
O3 Sr2 2.835671 1_555
O3 Sr2 2.835676 1_565
O3 Sr2 2.835677 1_665
O4 Sr1 2.553211 1_555
O4 Sr1 2.553217 1_565
O4 Sr2 2.967319 1_555
O4 Sr2 2.967322 1_565
