# generated using pymatgen
data_Na8CaHf3Si4(PO12)2
_symmetry_space_group_name_H-M   'P 1'
_cell_length_a   9.26776360
_cell_length_b   9.26945418
_cell_length_c   22.53075755
_cell_angle_alpha   90.04657996
_cell_angle_beta   89.88778419
_cell_angle_gamma   119.98790398
_symmetry_Int_Tables_number   1
_chemical_formula_structural   Na8CaHf3Si4(PO12)2
_chemical_formula_sum   'Na24 Ca3 Hf9 Si12 P6 O72'
_cell_volume   1676.43846488
_cell_formula_units_Z   3
loop_
 _symmetry_equiv_pos_site_id
 _symmetry_equiv_pos_as_xyz
  1  'x, y, z'
loop_
 _atom_site_type_symbol
 _atom_site_label
 _atom_site_symmetry_multiplicity
 _atom_site_fract_x
 _atom_site_fract_y
 _atom_site_fract_z
 _atom_site_occupancy
  Na  Na0  1  0.63888773  0.01179521  0.23747352  1
  Na  Na1  1  0.37344445  0.35953024  0.23872987  1
  Na  Na2  1  0.98759612  0.62859650  0.23868134  1
  Na  Na3  1  0.63422265  0.62063990  0.74424889  1
  Na  Na4  1  0.98207695  0.36921688  0.75130777  1
  Na  Na5  1  0.38438388  0.00855718  0.74259201  1
  Na  Na6  1  0.31935976  0.33804033  0.58574067  1
  Na  Na7  1  0.02686275  0.69479859  0.58301485  1
  Na  Na8  1  0.65809767  0.97486561  0.59308349  1
  Na  Na9  1  0.31761011  0.97537599  0.08125113  1
  Na  Na10  1  0.65785061  0.68262793  0.08111521  1
  Na  Na11  1  0.02492750  0.34230363  0.08116724  1
  Na  Na12  1  0.96772031  0.66475420  0.91649092  1
  Na  Na13  1  0.69891264  0.03452665  0.91649400  1
  Na  Na14  1  0.33478828  0.30199885  0.91908580  1
  Na  Na15  1  0.97138927  0.29217094  0.41254985  1
  Na  Na16  1  0.31546005  0.03219000  0.41576317  1
  Na  Na17  1  0.71104329  0.67496301  0.41186103  1
  Na  Na18  1  0.00852151  0.99820354  0.49769593  1
  Na  Na19  1  0.00121761  0.00122688  0.00005628  1
  Na  Na20  1  0.67254440  0.33300999  0.82997098  1
  Na  Na21  1  0.66792649  0.33714793  0.32891732  1
  Na  Na22  1  0.33435374  0.66775015  0.15928533  1
  Na  Na23  1  0.34268112  0.67936091  0.66889927  1
  Ca  Ca0  1  0.00120669  0.99916976  0.35192344  1
  Ca  Ca1  1  0.66541699  0.33280339  0.68372771  1
  Ca  Ca2  1  0.66694790  0.33408664  0.17673097  1
  Hf  Hf0  1  0.99586249  0.99599780  0.85399379  1
  Hf  Hf1  1  0.99747123  0.99263006  0.64822549  1
  Hf  Hf2  1  0.00057011  0.99988134  0.14706554  1
  Hf  Hf3  1  0.66783817  0.33367381  0.98326913  1
  Hf  Hf4  1  0.66374680  0.33842789  0.48258747  1
  Hf  Hf5  1  0.33336724  0.66713728  0.01508769  1
  Hf  Hf6  1  0.33180169  0.66695525  0.51827699  1
  Hf  Hf7  1  0.32910732  0.66098097  0.31513217  1
  Hf  Hf8  1  0.33504035  0.67068281  0.81458311  1
  Si  Si0  1  0.00826495  0.70925022  0.75174355  1
  Si  Si1  1  0.70336091  0.99315059  0.75148330  1
  Si  Si2  1  0.36496560  0.03183148  0.58460465  1
  Si  Si3  1  0.66576729  0.63746204  0.58489253  1
  Si  Si4  1  0.97226242  0.63693415  0.08475225  1
  Si  Si5  1  0.66521865  0.02823739  0.08465077  1
  Si  Si6  1  0.36358633  0.33560968  0.08462952  1
  Si  Si7  1  0.62785505  0.66234190  0.91524865  1
  Si  Si8  1  0.03612997  0.37197656  0.91520692  1
  Si  Si9  1  0.33747565  0.96654772  0.91585857  1
  Si  Si10  1  0.34216336  0.37648339  0.41790752  1
  Si  Si11  1  0.03187491  0.65431582  0.41725315  1
  P  P0  1  0.29827327  0.99372141  0.25242986  1
  P  P1  1  0.69611181  0.70373525  0.25245012  1
  P  P2  1  0.00604422  0.30306879  0.25260240  1
  P  P3  1  0.28303562  0.29284037  0.75134200  1
  P  P4  1  0.96723319  0.33197385  0.58266083  1
  P  P5  1  0.61646446  0.96249006  0.41683813  1
  O  O0  1  0.22072039  0.00679306  0.31063409  1
  O  O1  1  0.78562639  0.78039043  0.31072687  1
  O  O2  1  0.99238074  0.21320452  0.31089241  1
  O  O3  1  0.18836365  0.19000286  0.80675000  1
  O  O4  1  0.00283654  0.81373550  0.80958434  1
  O  O5  1  0.81512547  0.00312964  0.80934571  1
  O  O6  1  0.80215302  0.98282887  0.69150263  1
  O  O7  1  0.18080400  0.20247339  0.69459585  1
  O  O8  1  0.02253965  0.82112041  0.69202577  1
  O  O9  1  0.79939309  0.81790491  0.19861218  1
  O  O10  1  0.01955232  0.20178432  0.19879657  1
  O  O11  1  0.18346837  0.98050263  0.19846201  1
  O  O12  1  0.90210871  0.37078924  0.63935243  1
  O  O13  1  0.47485317  0.09211401  0.64391124  1
  O  O14  1  0.61945710  0.52754284  0.64407712  1
  O  O15  1  0.91184471  0.53150965  0.14494639  1
  O  O16  1  0.61950518  0.08905677  0.14466649  1
  O  O17  1  0.46938861  0.38129784  0.14468003  1
  O  O18  1  0.46252558  0.30396421  0.02907502  1
  O  O19  1  0.84189053  0.53771770  0.02940836  1
  O  O20  1  0.69707843  0.15884385  0.02926442  1
  O  O21  1  0.46967773  0.15779150  0.52819124  1
  O  O22  1  0.69391455  0.53534014  0.52869259  1
  O  O23  1  0.85140168  0.30935850  0.52864880  1
  O  O24  1  0.53714135  0.69065035  0.97241739  1
  O  O25  1  0.15377967  0.46430804  0.97237500  1
  O  O26  1  0.30872578  0.84748733  0.97294398  1
  O  O27  1  0.52209409  0.85745615  0.47161663  1
  O  O28  1  0.33717373  0.48131252  0.47512845  1
  O  O29  1  0.14639853  0.66821255  0.47415298  1
  O  O30  1  0.13319773  0.64144499  0.35798893  1
  O  O31  1  0.51080569  0.87103339  0.36050944  1
  O  O32  1  0.36121152  0.49204235  0.35844271  1
  O  O33  1  0.12717606  0.48982721  0.85672433  1
  O  O34  1  0.36385759  0.87240691  0.85794636  1
  O  O35  1  0.50975242  0.63528242  0.85704109  1
  O  O36  1  0.00533429  0.81371953  0.41890139  1
  O  O37  1  0.79099693  0.98254637  0.41645694  1
  O  O38  1  0.17789943  0.19410984  0.41966871  1
  O  O39  1  0.01511446  0.18501564  0.91247685  1
  O  O40  1  0.17499044  0.99276326  0.91232965  1
  O  O41  1  0.81645333  0.82761007  0.91277763  1
  O  O42  1  0.97815474  0.17037773  0.58652046  1
  O  O43  1  0.18635761  0.03157692  0.58687954  1
  O  O44  1  0.84089673  0.81947779  0.58634864  1
  O  O45  1  0.98174754  0.82003368  0.09000933  1
  O  O46  1  0.83891965  0.01888398  0.09029416  1
  O  O47  1  0.18066822  0.16185841  0.09016522  1
  O  O48  1  0.68262505  0.15584999  0.75366910  1
  O  O49  1  0.45651911  0.31033440  0.75168257  1
  O  O50  1  0.84207692  0.52853064  0.75301560  1
  O  O51  1  0.67159496  0.52737841  0.24798473  1
  O  O52  1  0.85534851  0.32907312  0.24788788  1
  O  O53  1  0.47391320  0.14671414  0.24790071  1
  O  O54  1  0.64563130  0.49579491  0.92217722  1
  O  O55  1  0.85191011  0.35529833  0.92190584  1
  O  O56  1  0.50648995  0.14914005  0.92205897  1
  O  O57  1  0.62906617  0.13576710  0.41973106  1
  O  O58  1  0.51362402  0.36261333  0.41989645  1
  O  O59  1  0.85248704  0.47754477  0.41953464  1
  O  O60  1  0.32936849  0.49071956  0.07341739  1
  O  O61  1  0.16149915  0.67061252  0.07378029  1
  O  O62  1  0.50976462  0.83916124  0.07350524  1
  O  O63  1  0.32464229  0.83856003  0.57510213  1
  O  O64  1  0.51132845  0.67516595  0.57512916  1
  O  O65  1  0.14829927  0.48123842  0.57406955  1
  O  O66  1  0.30743780  0.82786140  0.25076578  1
  O  O67  1  0.52309537  0.69882321  0.25055583  1
  O  O68  1  0.17443994  0.47735560  0.25094605  1
  O  O69  1  0.29489627  0.46669225  0.75226052  1
  O  O70  1  0.17986265  0.69618223  0.75153719  1
  O  O71  1  0.52227875  0.81690542  0.75189365  1
loop_
_geom_bond_atom_site_label_1
_geom_bond_atom_site_label_2
_geom_bond_distance
_geom_bond_site_symmetry_2
Na0 O16 2.247223 1_555
Na0 O53 2.422082 1_555
Na0 O67 2.557890 1_545
Na0 O52 2.613790 1_555
Na0 O66 2.682234 1_545
Na1 O17 2.266176 1_555
Na1 O51 2.409058 1_555
Na1 O53 2.576575 1_555
Na1 O68 2.584814 1_555
Na1 O67 2.743297 1_555
Na1 O10 2.986639 1_555
Na1 O32 2.988182 1_555
Na2 O15 2.265859 1_555
Na2 O52 2.419094 1_555
Na2 O51 2.598508 1_555
Na2 O66 2.607991 1_655
Na2 O68 2.733035 1_655
Na2 O11 2.972544 1_655
Na2 O30 2.985621 1_655
Na3 O14 2.395250 1_555
Na3 O50 2.474808 1_555
Na3 O49 2.505624 1_555
Na3 O71 2.510241 1_555
Na3 O69 2.733289 1_555
Na3 O35 2.819888 1_555
Na4 O50 2.404335 1_555
Na4 O48 2.475730 1_555
Na4 O69 2.569730 1_655
Na4 O12 2.632557 1_555
Na4 O70 2.644283 1_655
Na4 O33 2.684165 1_655
Na5 O13 2.364850 1_555
Na5 O48 2.407485 1_555
Na5 O49 2.538509 1_555
Na5 O70 2.555511 1_545
Na5 O71 2.665386 1_545
Na5 O34 2.854338 1_545
Na6 O43 2.467705 1_555
Na6 O65 2.539715 1_555
Na6 O64 2.725758 1_555
Na6 O42 2.739038 1_455
Na6 O7 2.760953 1_555
Na6 O14 2.770429 1_555
Na6 O28 2.790435 1_555
Na6 O21 2.954621 1_555
Na7 O63 2.397079 1_555
Na7 O44 2.510417 1_455
Na7 O43 2.706505 1_565
Na7 O8 2.728910 1_555
Na7 O65 2.729757 1_555
Na7 O29 2.750498 1_555
Na7 O12 2.915056 1_455
Na7 O22 2.942242 1_455
Na8 O64 2.440156 1_555
Na8 O6 2.572508 1_555
Na8 O42 2.594172 1_565
Na8 O13 2.685548 1_565
Na8 O44 2.721339 1_555
Na8 O63 2.722473 1_555
Na9 O61 2.452879 1_555
Na9 O47 2.613533 1_565
Na9 O62 2.653727 1_555
Na9 O26 2.695437 1_554
Na9 O45 2.705335 1_455
Na9 O16 2.836556 1_565
Na9 O18 2.893661 1_565
Na9 O11 2.927092 1_555
Na10 O62 2.451581 1_555
Na10 O45 2.617867 1_555
Na10 O60 2.655248 1_555
Na10 O46 2.710287 1_565
Na10 O24 2.710911 1_554
Na10 O17 2.832568 1_555
Na10 O19 2.889744 1_555
Na10 O9 2.943676 1_555
Na11 O60 2.449936 1_555
Na11 O46 2.614390 1_455
Na11 O61 2.653412 1_555
Na11 O47 2.708714 1_555
Na11 O25 2.712247 1_554
Na11 O15 2.840183 1_455
Na11 O20 2.887389 1_455
Na11 O10 2.943347 1_555
Na12 O55 2.513466 1_555
Na12 O41 2.523366 1_555
Na12 O54 2.589449 1_555
Na12 O40 2.665439 1_655
Na12 O4 2.714377 1_655
Na12 O19 2.799934 1_556
Na13 O56 2.493494 1_555
Na13 O39 2.540590 1_655
Na13 O55 2.579139 1_555
Na13 O41 2.638254 1_545
Na13 O5 2.715648 1_555
Na13 O20 2.792586 1_556
Na14 O40 2.487882 1_545
Na14 O54 2.521584 1_555
Na14 O39 2.601041 1_555
Na14 O56 2.607455 1_555
Na14 O18 2.744603 1_556
Na14 O3 2.815349 1_555
Na15 O2 2.440806 1_555
Na15 O59 2.466451 1_555
Na15 O37 2.498662 1_545
Na15 O38 2.501079 1_655
Na15 O57 2.755678 1_555
Na15 O23 2.875654 1_555
Na16 O38 2.407885 1_555
Na16 O0 2.497480 1_555
Na16 O36 2.558901 1_545
Na16 O57 2.566815 1_555
Na16 O58 2.672039 1_555
Na16 O21 2.856708 1_555
Na17 O36 2.369162 1_655
Na17 O1 2.438680 1_555
Na17 O58 2.543088 1_555
Na17 O37 2.564500 1_555
Na17 O59 2.737951 1_555
Na17 O22 2.903063 1_555
Na18 O38 2.448924 1_565
Na18 O36 2.453908 1_555
Na18 O43 2.520307 1_565
Na18 O44 2.562840 1_455
Na18 O42 2.659516 1_465
Na18 O37 2.675258 1_455
Na19 O39 2.568597 1_554
Na19 O40 2.572963 1_544
Na19 O47 2.576364 1_555
Na19 O41 2.577276 1_444
Na19 O46 2.580001 1_455
Na19 O45 2.581122 1_445
Na20 O48 2.410198 1_555
Na20 O50 2.430535 1_555
Na20 O49 2.599302 1_555
Na20 O55 2.601156 1_555
Na20 O56 2.636164 1_555
Na20 O54 2.650298 1_555
Na21 O51 2.525986 1_555
Na21 O52 2.544218 1_555
Na21 O53 2.552606 1_555
Na21 O59 2.563581 1_555
Na21 O58 2.574431 1_555
Na21 O57 2.670591 1_555
Na22 O62 2.512623 1_555
Na22 O61 2.516559 1_555
Na22 O60 2.521366 1_555
Na22 O66 2.622258 1_555
Na22 O67 2.623156 1_555
Na22 O68 2.637320 1_555
Na23 O71 2.404073 1_555
Na23 O70 2.447786 1_555
Na23 O69 2.596133 1_555
Na23 O63 2.631502 1_555
Na23 O64 2.637360 1_555
Na23 O65 2.807941 1_555
Ca0 O0 2.204130 1_565
Ca0 O1 2.218082 1_455
Ca0 O2 2.227783 1_465
Ca0 O36 2.303032 1_555
Ca0 O38 2.307353 1_565
Ca0 O37 2.371159 1_455
Ca1 O13 2.228370 1_555
Ca1 O14 2.238465 1_555
Ca1 O12 2.270544 1_555
Ca1 O50 2.333521 1_555
Ca1 O48 2.337909 1_555
Ca1 O49 2.391978 1_555
Ca2 O15 2.203831 1_555
Ca2 O17 2.207251 1_555
Ca2 O16 2.207780 1_555
Ca2 O53 2.382351 1_555
Ca2 O51 2.389110 1_555
Ca2 O52 2.390266 1_555
Hf0 O5 1.984801 1_565
Hf0 O4 1.991433 1_655
Hf0 O3 2.082879 1_665
Hf0 O41 2.086982 1_555
Hf0 O39 2.126635 1_665
Hf0 O40 2.131377 1_655
Hf1 O8 1.981916 1_655
Hf1 O6 2.016069 1_555
Hf1 O44 2.074002 1_555
Hf1 O7 2.112313 1_665
Hf1 O43 2.112997 1_665
Hf1 O42 2.231387 1_565
Hf2 O45 2.041780 1_455
Hf2 O47 2.042886 1_565
Hf2 O46 2.045290 1_465
Hf2 O9 2.126320 1_455
Hf2 O11 2.135147 1_555
Hf2 O10 2.135460 1_565
Hf3 O19 2.052691 1_556
Hf3 O20 2.053407 1_556
Hf3 O18 2.056819 1_556
Hf3 O54 2.123426 1_555
Hf3 O56 2.123970 1_555
Hf3 O55 2.123972 1_555
Hf4 O22 1.994183 1_555
Hf4 O21 2.019744 1_555
Hf4 O58 2.073904 1_555
Hf4 O59 2.116413 1_555
Hf4 O23 2.156436 1_555
Hf4 O57 2.243166 1_555
Hf5 O25 2.026415 1_554
Hf5 O24 2.029802 1_554
Hf5 O26 2.033117 1_554
Hf5 O61 2.080826 1_555
Hf5 O60 2.084573 1_555
Hf5 O62 2.084889 1_555
Hf6 O29 1.991897 1_555
Hf6 O28 1.997874 1_555
Hf6 O27 2.053369 1_555
Hf6 O63 2.067786 1_555
Hf6 O64 2.072783 1_555
Hf6 O65 2.122379 1_555
Hf7 O30 1.981534 1_555
Hf7 O32 1.990575 1_555
Hf7 O31 2.097132 1_555
Hf7 O68 2.146723 1_555
Hf7 O67 2.198254 1_555
Hf7 O66 2.202654 1_555
Hf8 O34 2.005277 1_555
Hf8 O35 2.045059 1_555
Hf8 O33 2.046985 1_555
Hf8 O71 2.117941 1_555
Hf8 O70 2.119019 1_555
Hf8 O69 2.231602 1_555
O0 P0 1.527779 1_545
O1 P1 1.526641 1_555
O2 P2 1.526565 1_655
O3 P3 1.548723 1_555
O4 Si0 1.638684 1_555
O5 Si1 1.640232 1_545
O6 Si1 1.660200 1_555
O7 P3 1.563215 1_555
O8 Si0 1.663608 1_555
O9 P1 1.578767 1_555
O10 P2 1.575373 1_555
O11 P0 1.581164 1_555
O12 P4 1.529234 1_555
O13 Si2 1.603167 1_555
O14 Si3 1.601038 1_555
O15 Si4 1.600009 1_555
O16 Si5 1.600323 1_555
O17 Si6 1.600172 1_555
O18 Si6 1.660522 1_555
O19 Si4 1.659454 1_555
O20 Si5 1.659452 1_555
O21 Si2 1.668972 1_555
O22 Si3 1.676622 1_555
O23 P4 1.567487 1_555
O24 Si7 1.628028 1_555
O25 Si8 1.628272 1_555
O26 Si9 1.627959 1_555
O27 P5 1.543571 1_555
O28 Si10 1.628226 1_555
O29 Si11 1.629423 1_555
O30 Si11 1.669067 1_555
O31 P5 1.568926 1_555
O32 Si10 1.669124 1_555
O33 Si8 1.648673 1_555
O34 Si9 1.653472 1_555
O35 Si7 1.646670 1_555
O36 Si11 1.615032 1_555
O37 P5 1.533091 1_555
O38 Si10 1.613758 1_555
O39 Si8 1.645466 1_555
O40 Si9 1.642964 1_555
O41 Si7 1.651705 1_555
O42 P4 1.553493 1_555
O43 Si2 1.654812 1_555
O44 Si3 1.656717 1_555
O45 Si4 1.659195 1_555
O46 Si5 1.659984 1_555
O47 Si6 1.659380 1_555
O48 Si1 1.613502 1_545
O49 P3 1.533235 1_555
O50 Si0 1.612444 1_655
O51 P1 1.537081 1_555
O52 P2 1.535272 1_655
O53 P0 1.537287 1_545
O54 Si7 1.639989 1_555
O55 Si8 1.642180 1_655
O56 Si9 1.639520 1_545
O57 P5 1.552436 1_545
O58 Si10 1.657756 1_555
O59 Si11 1.651720 1_655
O60 Si6 1.639603 1_555
O61 Si4 1.638753 1_455
O62 Si5 1.639212 1_565
O63 Si2 1.650901 1_565
O64 Si3 1.649415 1_555
O65 P4 1.563965 1_455
O66 P0 1.582006 1_555
O67 P1 1.581869 1_555
O68 P2 1.589496 1_555
O69 P3 1.559603 1_555
O70 Si0 1.654199 1_555
O71 Si1 1.656728 1_555
