# generated using pymatgen
data_Na4MgTi3Si3(SO8)3
_symmetry_space_group_name_H-M   'P 1'
_cell_length_a   8.82994816
_cell_length_b   8.84702802
_cell_length_c   22.40214798
_cell_angle_alpha   89.34499275
_cell_angle_beta   90.63276666
_cell_angle_gamma   120.01137623
_symmetry_Int_Tables_number   1
_chemical_formula_structural   Na4MgTi3Si3(SO8)3
_chemical_formula_sum   'Na12 Mg3 Ti9 Si9 S9 O72'
_cell_volume   1515.26802380
_cell_formula_units_Z   3
loop_
 _symmetry_equiv_pos_site_id
 _symmetry_equiv_pos_as_xyz
  1  'x, y, z'
loop_
 _atom_site_type_symbol
 _atom_site_label
 _atom_site_symmetry_multiplicity
 _atom_site_fract_x
 _atom_site_fract_y
 _atom_site_fract_z
 _atom_site_occupancy
  Na  Na0  1  0.63323591  0.00731962  0.24297984  1
  Na  Na1  1  0.37219248  0.35674563  0.25010436  1
  Na  Na2  1  0.99455856  0.63972185  0.24895294  1
  Na  Na3  1  0.99450216  0.36036037  0.75341807  1
  Na  Na4  1  0.37647780  0.00815762  0.75291503  1
  Na  Na5  1  0.70470270  0.67552727  0.40955273  1
  Na  Na6  1  0.00766379  0.01438713  0.49452179  1
  Na  Na7  1  0.00217576  0.00518117  0.00081327  1
  Na  Na8  1  0.66072445  0.33372969  0.83443734  1
  Na  Na9  1  0.65456804  0.32372078  0.32783696  1
  Na  Na10  1  0.34089401  0.67570639  0.16146497  1
  Na  Na11  1  0.34608179  0.66544205  0.66887577  1
  Mg  Mg0  1  0.00700737  0.00619990  0.35367595  1
  Mg  Mg1  1  0.66128833  0.33236258  0.68716281  1
  Mg  Mg2  1  0.65458827  0.32290865  0.18240940  1
  Ti  Ti0  1  0.01556493  0.02923843  0.85729077  1
  Ti  Ti1  1  0.99272714  0.01057663  0.65245228  1
  Ti  Ti2  1  0.98639797  0.98162251  0.14742718  1
  Ti  Ti3  1  0.66823697  0.30737473  0.97766660  1
  Ti  Ti4  1  0.65195137  0.31877122  0.47605079  1
  Ti  Ti5  1  0.32891080  0.67467104  0.01896993  1
  Ti  Ti6  1  0.34192613  0.66051986  0.51528884  1
  Ti  Ti7  1  0.35844753  0.68493997  0.31204129  1
  Ti  Ti8  1  0.34196539  0.66854076  0.81768229  1
  Si  Si0  1  0.28832174  0.00164060  0.25192483  1
  Si  Si1  1  0.71387424  0.70617831  0.25322340  1
  Si  Si2  1  0.29667738  0.29880491  0.75106833  1
  Si  Si3  1  0.70627682  0.99469183  0.75254378  1
  Si  Si4  1  0.66789016  0.03458777  0.08636169  1
  Si  Si5  1  0.04783412  0.38628900  0.91786117  1
  Si  Si6  1  0.32787400  0.95405576  0.91517492  1
  Si  Si7  1  0.62832436  0.95994220  0.41739153  1
  Si  Si8  1  0.32402777  0.37055151  0.41570626  1
  S  S0  1  0.00134075  0.28994183  0.25010273  1
  S  S1  1  0.99706799  0.71334417  0.74981331  1
  S  S2  1  0.95726851  0.33577463  0.58365797  1
  S  S3  1  0.37285394  0.03869609  0.58344546  1
  S  S4  1  0.66909426  0.62468990  0.58295021  1
  S  S5  1  0.95575620  0.62141030  0.08288252  1
  S  S6  1  0.37506688  0.33413934  0.08231937  1
  S  S7  1  0.62416656  0.66680661  0.91833378  1
  S  S8  1  0.04468039  0.66259788  0.41845595  1
  O  O0  1  0.20425937  0.04039996  0.30728367  1
  O  O1  1  0.82221991  0.78790817  0.31297827  1
  O  O2  1  0.96557063  0.18206370  0.30366163  1
  O  O3  1  0.19700948  0.16498532  0.80730975  1
  O  O4  1  0.97162706  0.79050778  0.80321153  1
  O  O5  1  0.83978695  0.02342844  0.80720840  1
  O  O6  1  0.80281801  0.96590437  0.69220628  1
  O  O7  1  0.15820302  0.19223598  0.69328688  1
  O  O8  1  0.02835452  0.82741888  0.69512701  1
  O  O9  1  0.80009350  0.83929691  0.19404824  1
  O  O10  1  0.03477523  0.21232160  0.19677993  1
  O  O11  1  0.15748471  0.96478576  0.19214926  1
  O  O12  1  0.88150230  0.35938965  0.63825735  1
  O  O13  1  0.47933310  0.11655276  0.63705280  1
  O  O14  1  0.64189528  0.51756789  0.63561667  1
  O  O15  1  0.88305804  0.52294637  0.13861051  1
  O  O16  1  0.63503694  0.11394251  0.14473798  1
  O  O17  1  0.47699066  0.36376862  0.13821385  1
  O  O18  1  0.46441599  0.31185282  0.03006443  1
  O  O19  1  0.84612023  0.53839239  0.02978747  1
  O  O20  1  0.69385229  0.16354525  0.02663025  1
  O  O21  1  0.46269213  0.15398847  0.52982399  1
  O  O22  1  0.69057011  0.54365717  0.52804004  1
  O  O23  1  0.84584665  0.31132465  0.53050294  1
  O  O24  1  0.54143047  0.69566891  0.97026203  1
  O  O25  1  0.17302867  0.47701103  0.97495206  1
  O  O26  1  0.30649723  0.83095557  0.97290122  1
  O  O27  1  0.51617591  0.83103840  0.47377628  1
  O  O28  1  0.31265077  0.47898777  0.47452469  1
  O  O29  1  0.15484023  0.68327525  0.47202183  1
  O  O30  1  0.11790716  0.63212293  0.36381369  1
  O  O31  1  0.50388348  0.87582602  0.35740820  1
  O  O32  1  0.37175357  0.50544042  0.35884219  1
  O  O33  1  0.13857275  0.50017129  0.85647658  1
  O  O34  1  0.36486895  0.86617674  0.85617136  1
  O  O35  1  0.51143234  0.63830184  0.86281365  1
  O  O36  1  0.02296603  0.81552891  0.41544667  1
  O  O37  1  0.81016549  0.96608593  0.41550994  1
  O  O38  1  0.16129375  0.18162055  0.41621039  1
  O  O39  1  0.02263483  0.18978283  0.91044758  1
  O  O40  1  0.15118120  0.96603881  0.90803286  1
  O  O41  1  0.79670316  0.82289305  0.90950307  1
  O  O42  1  0.97516007  0.17436834  0.58804802  1
  O  O43  1  0.19743824  0.02322399  0.58722735  1
  O  O44  1  0.82701249  0.80283537  0.58770937  1
  O  O45  1  0.97645636  0.80056188  0.08675391  1
  O  O46  1  0.84848038  0.02189271  0.08960754  1
  O  O47  1  0.19910828  0.17517527  0.08768834  1
  O  O48  1  0.69761624  0.17133027  0.74365721  1
  O  O49  1  0.47849588  0.30485446  0.74385941  1
  O  O50  1  0.84753390  0.53598879  0.74116743  1
  O  O51  1  0.68859148  0.51549436  0.24202599  1
  O  O52  1  0.85010757  0.31881316  0.24196112  1
  O  O53  1  0.48647442  0.16186790  0.24499298  1
  O  O54  1  0.63742908  0.50802848  0.92373058  1
  O  O55  1  0.85318897  0.36680087  0.92445398  1
  O  O56  1  0.50006027  0.14973121  0.92428296  1
  O  O57  1  0.64157800  0.15125553  0.42819107  1
  O  O58  1  0.51405161  0.37113868  0.42887426  1
  O  O59  1  0.86456911  0.50359281  0.42660055  1
  O  O60  1  0.35535371  0.49149436  0.07493003  1
  O  O61  1  0.13507342  0.64257307  0.07696163  1
  O  O62  1  0.49722369  0.84032228  0.07215737  1
  O  O63  1  0.35318892  0.86286789  0.57520553  1
  O  O64  1  0.50843619  0.64523925  0.57677134  1
  O  O65  1  0.13551752  0.49194822  0.57640057  1
  O  O66  1  0.29608581  0.81418173  0.25751889  1
  O  O67  1  0.51532596  0.69059303  0.25556637  1
  O  O68  1  0.16230985  0.46752030  0.25640644  1
  O  O69  1  0.29478212  0.48113935  0.75570218  1
  O  O70  1  0.16050973  0.69976518  0.75309635  1
  O  O71  1  0.51008590  0.82438806  0.75620631  1
loop_
_geom_bond_atom_site_label_1
_geom_bond_atom_site_label_2
_geom_bond_distance
_geom_bond_site_symmetry_2
Na0 O53 2.307824 1_555
Na0 O16 2.381598 1_555
Na0 O52 2.445909 1_555
Na0 O67 2.466826 1_545
Na0 O66 2.609308 1_545
Na0 O9 2.801041 1_545
Na0 O31 2.810059 1_545
Na0 O2 2.875937 1_555
Na1 O53 2.398193 1_555
Na1 O51 2.427086 1_555
Na1 O68 2.498146 1_555
Na1 O67 2.570310 1_555
Na1 O17 2.670823 1_555
Na1 O0 2.735134 1_555
Na1 O32 2.782635 1_555
Na1 O10 2.843316 1_555
Na2 O66 2.322174 1_655
Na2 O51 2.356985 1_555
Na2 O52 2.468828 1_555
Na2 O68 2.605575 1_655
Na2 O15 2.670977 1_555
Na2 O11 2.788825 1_655
Na2 O30 2.796278 1_655
Na2 O1 2.859821 1_555
Na3 O48 2.308011 1_555
Na3 O69 2.310565 1_655
Na3 O50 2.484578 1_555
Na3 O70 2.600346 1_655
Na3 O33 2.627714 1_655
Na3 O12 2.754331 1_555
Na3 O5 2.843315 1_555
Na3 O7 2.890655 1_655
Na4 O49 2.317144 1_555
Na4 O70 2.423991 1_545
Na4 O71 2.440201 1_545
Na4 O48 2.465570 1_555
Na4 O34 2.597892 1_545
Na4 O13 2.757776 1_555
Na4 O3 2.863905 1_555
Na4 O8 2.953678 1_545
Na5 O37 2.259061 1_555
Na5 O1 2.390451 1_555
Na5 O58 2.393264 1_555
Na5 O36 2.441851 1_655
Na5 O59 2.564184 1_555
Na5 O32 2.781712 1_555
Na5 O22 2.865872 1_555
Na6 O38 2.256636 1_555
Na6 O37 2.358064 1_445
Na6 O36 2.562380 1_545
Na6 O43 2.631157 1_555
Na6 O42 2.638724 1_455
Na6 O44 2.720879 1_445
Na7 O46 2.467297 1_455
Na7 O39 2.536806 1_554
Na7 O47 2.539555 1_555
Na7 O45 2.560075 1_445
Na7 O40 2.589156 1_544
Na7 O41 2.672695 1_444
Na8 O49 2.510043 1_555
Na8 O56 2.528155 1_555
Na8 O55 2.545717 1_555
Na8 O54 2.611228 1_555
Na8 O48 2.618360 1_555
Na8 O50 2.706771 1_555
Na9 O53 2.360416 1_555
Na9 O51 2.468305 1_555
Na9 O52 2.614256 1_555
Na9 O57 2.673500 1_555
Na9 O58 2.728204 1_555
Na9 O59 2.811415 1_555
Na10 O62 2.452046 1_555
Na10 O61 2.525126 1_555
Na10 O67 2.562289 1_555
Na10 O60 2.591567 1_555
Na10 O66 2.617568 1_555
Na10 O68 2.735277 1_555
Na11 O69 2.419779 1_555
Na11 O71 2.421825 1_555
Na11 O64 2.583514 1_555
Na11 O70 2.629836 1_555
Na11 O65 2.690236 1_555
Na11 O63 2.695824 1_555
Mg0 O0 1.926367 1_555
Mg0 O1 2.019506 1_445
Mg0 O38 2.029681 1_555
Mg0 O2 2.080991 1_455
Mg0 O37 2.119118 1_445
Mg0 O36 2.227194 1_545
Mg1 O49 1.980624 1_555
Mg1 O48 2.035003 1_555
Mg1 O14 2.068947 1_555
Mg1 O13 2.104140 1_555
Mg1 O50 2.110871 1_555
Mg1 O12 2.148125 1_555
Mg2 O16 1.967991 1_555
Mg2 O53 2.020812 1_555
Mg2 O17 2.023537 1_555
Mg2 O51 2.075624 1_555
Mg2 O15 2.144080 1_555
Mg2 O52 2.184546 1_555
O0 Si0 1.578354 1_555
O1 Si1 1.591189 1_555
O2 S0 1.459754 1_655
O3 Si2 1.646718 1_555
O3 Ti0 1.829471 1_555
O4 S1 1.457907 1_555
O4 Ti0 2.303788 1_665
O5 Si3 1.621568 1_545
O5 Ti0 1.885077 1_655
O6 Si3 1.693844 1_555
O6 Ti1 1.767271 1_565
O7 Si2 1.702717 1_555
O7 Ti1 1.791563 1_455
O8 S1 1.515256 1_455
O8 Ti1 2.026447 1_465
O9 Si1 1.677385 1_555
O9 Ti2 1.821613 1_555
O10 S0 1.488292 1_555
O10 Ti2 2.177048 1_445
O11 Si0 1.683206 1_565
O11 Ti2 1.869858 1_455
O12 S2 1.466643 1_555
O13 S3 1.465188 1_555
O14 S4 1.449438 1_555
O15 S5 1.470690 1_555
O16 Si4 1.587563 1_555
O17 S6 1.480944 1_555
O18 S6 1.487602 1_555
O18 Ti3 2.176581 1_554
O19 S5 1.474675 1_555
O19 Ti3 2.193252 1_554
O20 Si4 1.689665 1_555
O20 Ti3 1.767486 1_554
O21 S3 1.515340 1_555
O21 Ti4 1.984033 1_555
O22 S4 1.491433 1_555
O22 Ti4 2.190129 1_555
O23 S2 1.483188 1_555
O23 Ti4 2.118599 1_555
O24 S7 1.471177 1_555
O24 Ti5 2.106753 1_556
O25 Si5 1.614512 1_555
O25 Ti5 1.877913 1_556
O26 Si6 1.631442 1_555
O26 Ti5 1.803497 1_556
O27 Si7 1.655803 1_555
O27 Ti6 1.784827 1_555
O28 Si8 1.671789 1_555
O28 Ti6 1.758716 1_555
O29 S8 1.490247 1_555
O29 Ti6 2.000461 1_555
O30 S8 1.479397 1_555
O30 Ti7 2.263608 1_555
O31 Si7 1.655028 1_555
O31 Ti7 1.837108 1_555
O32 Si8 1.642711 1_555
O32 Ti7 1.944416 1_555
O33 Si5 1.653243 1_555
O33 Ti8 1.878378 1_555
O34 Si6 1.656934 1_555
O34 Ti8 1.875756 1_555
O35 S7 1.526487 1_555
O35 Ti8 1.921924 1_555
O36 S8 1.459113 1_555
O37 Si7 1.580182 1_555
O38 Si8 1.567176 1_555
O39 Si5 1.648721 1_555
O39 Ti0 1.840561 1_555
O40 Si6 1.621907 1_555
O40 Ti0 1.914141 1_565
O41 S7 1.470695 1_555
O41 Ti0 2.215264 1_665
O42 S2 1.515201 1_555
O42 Ti1 2.092278 1_555
O43 S3 1.488484 1_555
O43 Ti1 2.295041 1_455
O44 S4 1.497276 1_555
O44 Ti1 2.224051 1_565
O45 S5 1.505330 1_555
O45 Ti2 2.080279 1_555
O46 Si4 1.654408 1_555
O46 Ti2 1.917385 1_545
O47 S6 1.490220 1_555
O47 Ti2 2.244263 1_445
O48 Si3 1.612355 1_545
O49 Si2 1.589334 1_555
O50 S1 1.473673 1_555
O51 Si1 1.609466 1_555
O52 S0 1.488796 1_655
O53 Si0 1.617028 1_555
O54 S7 1.470346 1_555
O54 Ti3 2.260978 1_555
O55 Si5 1.647449 1_655
O55 Ti3 1.879973 1_555
O56 Si6 1.648755 1_545
O56 Ti3 1.872868 1_555
O57 Si7 1.657576 1_545
O57 Ti4 1.803512 1_555
O58 Si8 1.697875 1_555
O58 Ti4 1.827282 1_555
O59 S8 1.517894 1_655
O59 Ti4 2.087858 1_555
O60 S6 1.494059 1_555
O60 Ti5 2.139613 1_555
O61 S5 1.505723 1_455
O61 Ti5 2.062125 1_555
O62 Si4 1.654416 1_565
O62 Ti5 1.896903 1_555
O63 S3 1.489845 1_565
O63 Ti6 2.211378 1_555
O64 S4 1.522407 1_555
O64 Ti6 2.055942 1_555
O65 S2 1.495934 1_455
O65 Ti6 2.170155 1_555
O66 Si0 1.696959 1_565
O66 Ti7 1.919767 1_555
O67 Si1 1.689801 1_555
O67 Ti7 1.868140 1_555
O68 S0 1.508383 1_555
O68 Ti7 2.219773 1_555
O69 Si2 1.626062 1_555
O69 Ti8 2.049179 1_555
O70 S1 1.507814 1_455
O70 Ti8 2.262594 1_555
O71 Si3 1.633152 1_555
O71 Ti8 1.988888 1_555
