# generated using pymatgen
data_CuBr2
_symmetry_space_group_name_H-M   'P 1'
_cell_length_a   4.51939414
_cell_length_b   4.51939414
_cell_length_c   6.91154911
_cell_angle_alpha   66.79722135
_cell_angle_beta   66.79722135
_cell_angle_gamma   45.46805168
_symmetry_Int_Tables_number   1
_chemical_formula_structural   CuBr2
_chemical_formula_sum   'Cu1 Br2'
_cell_volume   90.98914098
_cell_formula_units_Z   1
loop_
 _symmetry_equiv_pos_site_id
 _symmetry_equiv_pos_as_xyz
  1  'x, y, z'
loop_
 _atom_site_type_symbol
 _atom_site_label
 _atom_site_symmetry_multiplicity
 _atom_site_fract_x
 _atom_site_fract_y
 _atom_site_fract_z
 _atom_site_occupancy
  Cu  Cu0  1  0.00000000  0.00000000  -0.00000000  1
  Br  Br0  1  0.49436401  0.49436401  0.76128952  1
  Br  Br1  1  0.50563599  0.50563599  0.23871048  1
loop_
_geom_bond_atom_site_label_1
_geom_bond_atom_site_label_2
_geom_bond_distance
_geom_bond_site_symmetry_2
Br0 Cu0 2.416788 1_656
Br0 Cu0 2.416788 1_566
Br1 Cu0 2.416788 1_655
Br1 Cu0 2.416788 1_565
