# generated using pymatgen
data_Na10TaAl7Si6(SO8)6
_symmetry_space_group_name_H-M   'P 1'
_cell_length_a   17.29079030
_cell_length_b   8.66974623
_cell_length_c   21.78030278
_cell_angle_alpha   89.70424595
_cell_angle_beta   89.36724135
_cell_angle_gamma   119.79076445
_symmetry_Int_Tables_number   1
_chemical_formula_structural   Na10TaAl7Si6(SO8)6
_chemical_formula_sum   'Na30 Ta3 Al21 Si18 S18 O144'
_cell_volume   2833.14236511
_cell_formula_units_Z   3
loop_
 _symmetry_equiv_pos_site_id
 _symmetry_equiv_pos_as_xyz
  1  'x, y, z'
loop_
 _atom_site_type_symbol
 _atom_site_label
 _atom_site_symmetry_multiplicity
 _atom_site_fract_x
 _atom_site_fract_y
 _atom_site_fract_z
 _atom_site_occupancy
  Na  Na0  1  0.31829000  0.99834658  0.24990957  1
  Na  Na1  1  0.81964420  0.99975748  0.25151949  1
  Na  Na2  1  0.18222249  0.36394285  0.25093364  1
  Na  Na3  1  0.68373651  0.37079251  0.24281953  1
  Na  Na4  1  0.99876874  0.63488434  0.24780561  1
  Na  Na5  1  0.49730260  0.62332879  0.25269824  1
  Na  Na6  1  0.31530188  0.62973516  0.75018948  1
  Na  Na7  1  0.80904839  0.62241708  0.75009655  1
  Na  Na8  1  0.99753206  0.35429852  0.74920464  1
  Na  Na9  1  0.68183715  0.00650957  0.75427773  1
  Na  Na10  1  0.16129262  0.34575324  0.58095332  1
  Na  Na11  1  0.01337177  0.69481638  0.57970262  1
  Na  Na12  1  0.33320464  0.96577906  0.58477284  1
  Na  Na13  1  0.82993106  0.96542898  0.57854977  1
  Na  Na14  1  0.83373584  0.68832373  0.07626600  1
  Na  Na15  1  0.17002534  0.30751898  0.91219848  1
  Na  Na16  1  0.67056512  0.30826037  0.91649741  1
  Na  Na17  1  0.35495135  0.66545427  0.41780637  1
  Na  Na18  1  0.99856938  0.99587719  0.49334210  1
  Na  Na19  1  0.50931036  0.99468490  0.49910920  1
  Na  Na20  1  0.99342572  0.98146073  0.99486573  1
  Na  Na21  1  0.49460816  0.97565820  0.99662873  1
  Na  Na22  1  0.33632985  0.33082264  0.83418804  1
  Na  Na23  1  0.83111392  0.33208193  0.83608795  1
  Na  Na24  1  0.33872980  0.33198685  0.33541664  1
  Na  Na25  1  0.83711814  0.33872823  0.33473614  1
  Na  Na26  1  0.16158963  0.66399274  0.16391126  1
  Na  Na27  1  0.65510816  0.64718092  0.16089892  1
  Na  Na28  1  0.16911330  0.67339525  0.66509525  1
  Na  Na29  1  0.65875737  0.63754589  0.66709880  1
  Ta  Ta0  1  0.99826475  0.00586930  0.64395979  1
  Ta  Ta1  1  0.00105522  0.99475030  0.14791715  1
  Ta  Ta2  1  0.49601355  0.00154114  0.14081951  1
  Al  Al0  1  0.99804310  0.00062964  0.34503169  1
  Al  Al1  1  0.49661436  0.98408276  0.35309654  1
  Al  Al2  1  0.99256413  0.00468209  0.85226135  1
  Al  Al3  1  0.49863182  0.99261939  0.85317511  1
  Al  Al4  1  0.50242320  0.00306091  0.64725985  1
  Al  Al5  1  0.32095217  0.32296248  0.68322585  1
  Al  Al6  1  0.82577302  0.33000570  0.68482703  1
  Al  Al7  1  0.34272696  0.34351748  0.19242406  1
  Al  Al8  1  0.84422010  0.36240194  0.18336963  1
  Al  Al9  1  0.34215540  0.36391384  0.97941201  1
  Al  Al10  1  0.83553408  0.36290553  0.98225711  1
  Al  Al11  1  0.34347418  0.35714282  0.48458231  1
  Al  Al12  1  0.83580953  0.33902004  0.48272894  1
  Al  Al13  1  0.17088083  0.67543588  0.01761544  1
  Al  Al14  1  0.66615484  0.65590375  0.02178055  1
  Al  Al15  1  0.16882255  0.66755204  0.52467105  1
  Al  Al16  1  0.66329030  0.65875040  0.51638475  1
  Al  Al17  1  0.16272127  0.66292816  0.30950110  1
  Al  Al18  1  0.66021754  0.64600857  0.31591048  1
  Al  Al19  1  0.17084753  0.66004253  0.81800454  1
  Al  Al20  1  0.67061350  0.65308304  0.81348429  1
  Si  Si0  1  0.14846832  0.00562278  0.25432503  1
  Si  Si1  1  0.35287946  0.70580171  0.25408216  1
  Si  Si2  1  0.85101249  0.70446010  0.25594501  1
  Si  Si3  1  0.99577342  0.29022793  0.25225299  1
  Si  Si4  1  0.50121579  0.28493708  0.25570003  1
  Si  Si5  1  0.14777739  0.29028500  0.75605118  1
  Si  Si6  1  0.63755421  0.28190564  0.75029041  1
  Si  Si7  1  0.84923539  0.00200452  0.75293786  1
  Si  Si8  1  0.97332524  0.34121505  0.58173309  1
  Si  Si9  1  0.19677276  0.05189631  0.57910096  1
  Si  Si10  1  0.34131975  0.63446781  0.58436056  1
  Si  Si11  1  0.82289294  0.60718007  0.58177518  1
  Si  Si12  1  0.48049687  0.61165743  0.08333412  1
  Si  Si13  1  0.98669900  0.62157883  0.08060075  1
  Si  Si14  1  0.69308877  0.33586776  0.08207859  1
  Si  Si15  1  0.31530076  0.67344666  0.91714090  1
  Si  Si16  1  0.81522149  0.67467656  0.91693845  1
  Si  Si17  1  0.52397948  0.66822407  0.41745118  1
  S  S0  1  0.64446309  0.99929753  0.25138744  1
  S  S1  1  0.00480126  0.71516486  0.75390648  1
  S  S2  1  0.49875097  0.70726452  0.74985867  1
  S  S3  1  0.35610222  0.00669299  0.75069183  1
  S  S4  1  0.47817367  0.33807080  0.58462181  1
  S  S5  1  0.68634787  0.04504097  0.58227116  1
  S  S6  1  0.32823183  0.05068571  0.08067000  1
  S  S7  1  0.83225373  0.05473030  0.08211607  1
  S  S8  1  0.19267843  0.33903267  0.08123911  1
  S  S9  1  0.02100057  0.38046490  0.91783079  1
  S  S10  1  0.52089278  0.37900752  0.91614534  1
  S  S11  1  0.16760725  0.95111378  0.91626896  1
  S  S12  1  0.66664584  0.94775828  0.91601321  1
  S  S13  1  0.30856905  0.95637474  0.41698566  1
  S  S14  1  0.81251940  0.96043089  0.41685862  1
  S  S15  1  0.16235195  0.37530303  0.41679127  1
  S  S16  1  0.66885470  0.37369317  0.41781942  1
  S  S17  1  0.02198219  0.66652584  0.41734997  1
  O  O0  1  0.10320942  0.05364749  0.31031742  1
  O  O1  1  0.60406703  0.03263742  0.30588618  1
  O  O2  1  0.41737846  0.78910065  0.31220865  1
  O  O3  1  0.92223504  0.79585438  0.30946565  1
  O  O4  1  0.48586583  0.15325896  0.31265625  1
  O  O5  1  0.97373736  0.15536827  0.30921446  1
  O  O6  1  0.09789534  0.16741404  0.81523915  1
  O  O7  1  0.59491968  0.15223868  0.81128996  1
  O  O8  1  0.47837151  0.78641677  0.80398865  1
  O  O9  1  0.98922488  0.80480078  0.80523814  1
  O  O10  1  0.41076378  0.02551747  0.80454464  1
  O  O11  1  0.92005211  0.04646767  0.80630809  1
  O  O12  1  0.39232730  0.96513591  0.69400645  1
  O  O13  1  0.89417291  0.95742787  0.69153791  1
  O  O14  1  0.08368056  0.19776789  0.69433158  1
  O  O15  1  0.57808081  0.18164287  0.69128416  1
  O  O16  1  0.01821488  0.81506228  0.69434422  1
  O  O17  1  0.51452147  0.82044419  0.69428506  1
  O  O18  1  0.39763186  0.84247911  0.19500267  1
  O  O19  1  0.89445064  0.83185651  0.19218324  1
  O  O20  1  0.02043326  0.20372756  0.19197217  1
  O  O21  1  0.52184453  0.20007258  0.19408040  1
  O  O22  1  0.08062037  0.95624434  0.19431805  1
  O  O23  1  0.58745891  0.96305212  0.19623445  1
  O  O24  1  0.43653970  0.36478098  0.64006110  1
  O  O25  1  0.93119854  0.37336021  0.64387462  1
  O  O26  1  0.25546292  0.12607907  0.64056067  1
  O  O27  1  0.74248916  0.12236761  0.63797266  1
  O  O28  1  0.31719093  0.50295972  0.64419257  1
  O  O29  1  0.81423412  0.50409527  0.64597876  1
  O  O30  1  0.43574010  0.49858897  0.14631001  1
  O  O31  1  0.94535605  0.52147171  0.14589187  1
  O  O32  1  0.31914400  0.12648644  0.13907054  1
  O  O33  1  0.82378484  0.13490493  0.13983928  1
  O  O34  1  0.24227156  0.35466846  0.13764553  1
  O  O35  1  0.75262853  0.36247209  0.14317234  1
  O  O36  1  0.23176397  0.30625243  0.02508397  1
  O  O37  1  0.73217360  0.29665391  0.02009852  1
  O  O38  1  0.41795395  0.53085184  0.02491799  1
  O  O39  1  0.91760888  0.53432373  0.02552176  1
  O  O40  1  0.34003302  0.15963806  0.02605842  1
  O  O41  1  0.84623503  0.16429368  0.02695038  1
  O  O42  1  0.24238577  0.18820860  0.52225841  1
  O  O43  1  0.72799648  0.15524715  0.52699337  1
  O  O44  1  0.35554420  0.55070585  0.52217985  1
  O  O45  1  0.84910168  0.52616034  0.52407825  1
  O  O46  1  0.42181834  0.30219597  0.52948396  1
  O  O47  1  0.90774173  0.28390569  0.52424157  1
  O  O48  1  0.26283262  0.69668573  0.97515763  1
  O  O49  1  0.76599018  0.69858431  0.97775979  1
  O  O50  1  0.07920487  0.46794830  0.96995145  1
  O  O51  1  0.57680456  0.45822490  0.97042853  1
  O  O52  1  0.15291290  0.84178427  0.97186869  1
  O  O53  1  0.65341542  0.83791610  0.97051952  1
  O  O54  1  0.26487739  0.83781064  0.47190086  1
  O  O55  1  0.77072597  0.85239121  0.47387217  1
  O  O56  1  0.15372535  0.46296676  0.47347370  1
  O  O57  1  0.65690361  0.46275784  0.47187559  1
  O  O58  1  0.07515760  0.68563492  0.47297519  1
  O  O59  1  0.58591467  0.69276244  0.47600488  1
  O  O60  1  0.06586029  0.64508070  0.36150544  1
  O  O61  1  0.56988119  0.64411754  0.35503946  1
  O  O62  1  0.25586355  0.87130364  0.36132339  1
  O  O63  1  0.75906696  0.87472476  0.36178021  1
  O  O64  1  0.17543249  0.49027077  0.36174099  1
  O  O65  1  0.68544568  0.48432920  0.36099740  1
  O  O66  1  0.06011406  0.48772040  0.85968444  1
  O  O67  1  0.56070180  0.49242058  0.86049494  1
  O  O68  1  0.17781309  0.86251062  0.86073693  1
  O  O69  1  0.67343782  0.86256795  0.85823089  1
  O  O70  1  0.25250462  0.63101393  0.85569756  1
  O  O71  1  0.75062498  0.63054185  0.85715759  1
  O  O72  1  0.01332621  0.82795773  0.41297224  1
  O  O73  1  0.51040461  0.84554262  0.41134888  1
  O  O74  1  0.39798718  0.96938834  0.41369744  1
  O  O75  1  0.90263790  0.97732467  0.41257570  1
  O  O76  1  0.08138753  0.19930761  0.41308351  1
  O  O77  1  0.58851993  0.19851760  0.41236690  1
  O  O78  1  0.01711567  0.20477080  0.91291848  1
  O  O79  1  0.51479262  0.20168878  0.90898266  1
  O  O80  1  0.08919624  0.97745629  0.91191171  1
  O  O81  1  0.58742078  0.97651194  0.91236399  1
  O  O82  1  0.41366602  0.84855273  0.90683115  1
  O  O83  1  0.91461875  0.84950871  0.90759366  1
  O  O84  1  0.48609867  0.17421511  0.59040472  1
  O  O85  1  0.98761302  0.16509304  0.58812064  1
  O  O86  1  0.09512509  0.02543070  0.58882093  1
  O  O87  1  0.59726337  0.02672607  0.58972472  1
  O  O88  1  0.42443908  0.83712127  0.59476475  1
  O  O89  1  0.91676003  0.80918613  0.58897069  1
  O  O90  1  0.48689649  0.81033494  0.09261622  1
  O  O91  1  0.99010311  0.82089984  0.08631761  1
  O  O92  1  0.41229161  0.03477933  0.08336030  1
  O  O93  1  0.91440709  0.03121111  0.08545241  1
  O  O94  1  0.10074942  0.17661230  0.08533482  1
  O  O95  1  0.59221014  0.16163268  0.08830139  1
  O  O96  1  0.35092693  0.17016373  0.74382249  1
  O  O97  1  0.84256671  0.18012020  0.74033986  1
  O  O98  1  0.24689223  0.31590784  0.74638750  1
  O  O99  1  0.73983293  0.30909937  0.74355430  1
  O  O100  1  0.42083075  0.52788309  0.74322801  1
  O  O101  1  0.92415089  0.53638600  0.74935972  1
  O  O102  1  0.34106899  0.51096528  0.24337229  1
  O  O103  1  0.83928715  0.50896191  0.24574529  1
  O  O104  1  0.41206082  0.30004937  0.24693397  1
  O  O105  1  0.90603408  0.30308915  0.24156692  1
  O  O106  1  0.24400866  0.17452379  0.23779599  1
  O  O107  1  0.73355322  0.15726386  0.24346360  1
  O  O108  1  0.31922835  0.48547706  0.92213687  1
  O  O109  1  0.82232092  0.48990803  0.92099039  1
  O  O110  1  0.42907634  0.35010996  0.92318418  1
  O  O111  1  0.92973060  0.35210388  0.92408248  1
  O  O112  1  0.24879757  0.12961891  0.92092085  1
  O  O113  1  0.74811320  0.12663956  0.91874627  1
  O  O114  1  0.31795768  0.13265900  0.42335971  1
  O  O115  1  0.81934841  0.13880924  0.42166638  1
  O  O116  1  0.24427716  0.36111909  0.41913047  1
  O  O117  1  0.74950421  0.35302444  0.42384362  1
  O  O118  1  0.42208238  0.48887786  0.42322450  1
  O  O119  1  0.93240129  0.50248837  0.42125366  1
  O  O120  1  0.18210429  0.49716635  0.07543295  1
  O  O121  1  0.68390459  0.51390140  0.07722354  1
  O  O122  1  0.08529667  0.64824508  0.07168986  1
  O  O123  1  0.58094214  0.64870651  0.07265158  1
  O  O124  1  0.25200418  0.86854092  0.07655301  1
  O  O125  1  0.75483714  0.87375992  0.07902445  1
  O  O126  1  0.17753347  0.84942075  0.57146124  1
  O  O127  1  0.67855827  0.86679044  0.57713151  1
  O  O128  1  0.25022745  0.65121243  0.57523011  1
  O  O129  1  0.74180258  0.65165440  0.57194010  1
  O  O130  1  0.07446037  0.50649833  0.57340269  1
  O  O131  1  0.56795451  0.49521646  0.57662181  1
  O  O132  1  0.15537424  0.82771397  0.26146958  1
  O  O133  1  0.65558945  0.84105074  0.25706375  1
  O  O134  1  0.25515181  0.68670015  0.26195083  1
  O  O135  1  0.75553419  0.69594405  0.26385345  1
  O  O136  1  0.08328111  0.48436703  0.26031305  1
  O  O137  1  0.58870204  0.48425773  0.25841946  1
  O  O138  1  0.15376122  0.48861093  0.75773505  1
  O  O139  1  0.64934174  0.48027715  0.75701014  1
  O  O140  1  0.08450811  0.69438170  0.76000685  1
  O  O141  1  0.58099162  0.69787422  0.75816905  1
  O  O142  1  0.26429603  0.84653916  0.75783301  1
  O  O143  1  0.75108018  0.82685805  0.75877842  1
loop_
_geom_bond_atom_site_label_1
_geom_bond_atom_site_label_2
_geom_bond_distance
_geom_bond_site_symmetry_2
Na0 O104 2.292737 1_565
Na0 O134 2.369853 1_555
Na0 O106 2.450494 1_565
Na0 O132 2.454927 1_555
Na0 O18 2.638350 1_555
Na0 O62 2.645746 1_555
Na0 O32 2.649065 1_565
Na0 O4 2.882125 1_565
Na1 O105 2.297331 1_565
Na1 O135 2.307302 1_555
Na1 O133 2.463065 1_555
Na1 O107 2.476793 1_565
Na1 O63 2.613191 1_555
Na1 O5 2.649116 1_565
Na1 O33 2.679193 1_565
Na1 O19 2.704737 1_555
Na2 O106 2.379391 1_555
Na2 O102 2.388440 1_555
Na2 O136 2.414088 1_555
Na2 O134 2.446457 1_555
Na2 O0 2.655080 1_555
Na2 O64 2.680802 1_555
Na2 O34 2.683514 1_555
Na2 O20 2.764232 1_555
Na3 O137 2.319625 1_555
Na3 O103 2.340096 1_555
Na3 O107 2.398697 1_555
Na3 O35 2.482832 1_555
Na3 O135 2.499233 1_555
Na3 O21 2.668008 1_555
Na3 O65 2.755710 1_555
Na3 O1 2.878027 1_555
Na4 O132 2.395929 1_655
Na4 O103 2.410360 1_555
Na4 O136 2.410892 1_655
Na4 O31 2.431529 1_555
Na4 O105 2.507954 1_555
Na4 O22 2.671050 1_655
Na4 O3 2.705104 1_555
Na4 O60 2.729472 1_655
Na5 O102 2.384753 1_555
Na5 O137 2.421370 1_555
Na5 O133 2.436564 1_555
Na5 O104 2.438536 1_555
Na5 O61 2.533197 1_555
Na5 O30 2.570675 1_555
Na5 O2 2.758366 1_555
Na5 O23 2.824063 1_555
Na6 O98 2.369668 1_555
Na6 O100 2.393428 1_555
Na6 O138 2.432636 1_555
Na6 O142 2.446579 1_555
Na6 O70 2.533184 1_555
Na6 O28 2.568882 1_555
Na6 O8 2.729825 1_555
Na6 O12 2.793876 1_555
Na7 O99 2.368283 1_555
Na7 O139 2.402992 1_555
Na7 O143 2.438557 1_555
Na7 O101 2.447852 1_555
Na7 O29 2.512730 1_555
Na7 O71 2.546214 1_555
Na7 O13 2.810937 1_555
Na7 O9 2.975845 1_555
Na8 O97 2.343296 1_555
Na8 O138 2.361207 1_655
Na8 O101 2.468270 1_555
Na8 O140 2.572788 1_655
Na8 O11 2.615415 1_555
Na8 O25 2.616937 1_555
Na8 O66 2.672384 1_655
Na8 O14 2.734043 1_655
Na9 O99 2.305798 1_555
Na9 O141 2.359171 1_545
Na9 O143 2.392270 1_545
Na9 O97 2.429274 1_555
Na9 O69 2.547196 1_545
Na9 O7 2.694170 1_555
Na9 O27 2.719188 1_555
Na9 O17 2.854313 1_545
Na10 O128 2.310683 1_555
Na10 O86 2.425754 1_555
Na10 O130 2.511102 1_555
Na10 O56 2.577621 1_555
Na10 O85 2.609450 1_455
Na10 O42 2.710617 1_555
Na10 O28 2.733449 1_555
Na10 O14 2.779968 1_555
Na11 O89 2.335594 1_455
Na11 O130 2.347952 1_555
Na11 O126 2.468105 1_555
Na11 O86 2.497898 1_565
Na11 O58 2.565692 1_555
Na11 O16 2.696891 1_555
Na11 O45 2.764210 1_455
Na11 O25 2.778590 1_455
Na12 O84 2.352003 1_565
Na12 O88 2.352370 1_555
Na12 O128 2.379861 1_555
Na12 O126 2.380956 1_555
Na12 O12 2.600892 1_555
Na12 O26 2.655641 1_565
Na12 O54 2.731335 1_555
Na12 O46 2.790518 1_565
Na13 O127 2.315332 1_555
Na13 O129 2.373362 1_555
Na13 O85 2.408326 1_565
Na13 O89 2.483066 1_555
Na13 O55 2.506812 1_555
Na13 O47 2.659479 1_565
Na13 O13 2.725795 1_555
Na13 O27 2.798469 1_565
Na14 O121 2.259323 1_555
Na14 O91 2.367872 1_555
Na14 O49 2.477956 1_554
Na14 O125 2.574470 1_555
Na14 O93 2.591309 1_565
Na14 O39 2.647854 1_555
Na14 O19 2.796007 1_555
Na14 O35 2.836685 1_555
Na15 O108 2.267926 1_555
Na15 O78 2.332975 1_555
Na15 O6 2.463725 1_555
Na15 O80 2.483593 1_545
Na15 O112 2.521941 1_555
Na15 O36 2.693352 1_556
Na15 O70 2.713910 1_555
Na15 O50 2.850897 1_555
Na16 O109 2.296963 1_555
Na16 O79 2.381911 1_555
Na16 O81 2.498821 1_545
Na16 O113 2.525536 1_555
Na16 O37 2.528595 1_556
Na16 O7 2.670466 1_555
Na16 O71 2.733769 1_555
Na16 O51 2.786863 1_555
Na17 O118 2.339167 1_555
Na17 O73 2.345555 1_555
Na17 O74 2.356446 1_555
Na17 O116 2.367571 1_555
Na17 O44 2.478899 1_555
Na17 O2 2.524674 1_555
Na18 O76 2.370694 1_665
Na18 O72 2.373657 1_655
Na18 O75 2.382018 1_555
Na18 O89 2.565915 1_555
Na18 O85 2.597749 1_565
Na18 O86 2.614316 1_665
Na19 O73 2.318389 1_555
Na19 O87 2.436664 1_565
Na19 O77 2.464032 1_565
Na19 O88 2.504258 1_555
Na19 O74 2.622541 1_555
Na19 O84 2.678187 1_565
Na20 O83 2.304183 1_555
Na20 O91 2.407877 1_556
Na20 O80 2.449379 1_655
Na20 O78 2.502368 1_665
Na20 O93 2.545659 1_566
Na20 O94 2.680344 1_666
Na21 O82 2.355530 1_555
Na21 O81 2.422152 1_555
Na21 O90 2.493175 1_556
Na21 O92 2.555888 1_566
Na21 O95 2.615000 1_566
Na21 O79 2.621668 1_565
Na22 O98 2.436055 1_555
Na22 O108 2.441830 1_555
Na22 O110 2.482434 1_555
Na22 O112 2.486274 1_555
Na22 O96 2.498844 1_555
Na22 O100 2.529673 1_555
Na23 O109 2.354054 1_555
Na23 O113 2.417245 1_555
Na23 O99 2.520831 1_555
Na23 O101 2.521986 1_555
Na23 O111 2.528311 1_555
Na23 O97 2.530299 1_555
Na24 O104 2.387213 1_555
Na24 O118 2.392628 1_555
Na24 O114 2.473488 1_555
Na24 O102 2.516380 1_555
Na24 O116 2.530678 1_555
Na24 O106 2.636664 1_555
Na25 O103 2.418740 1_555
Na25 O105 2.439713 1_555
Na25 O119 2.460252 1_555
Na25 O115 2.471333 1_555
Na25 O117 2.490202 1_555
Na25 O107 2.635377 1_555
Na26 O122 2.382382 1_555
Na26 O124 2.520667 1_555
Na26 O120 2.540640 1_555
Na26 O136 2.544666 1_555
Na26 O132 2.592097 1_555
Na26 O134 2.641917 1_555
Na27 O123 2.325945 1_555
Na27 O121 2.340493 1_555
Na27 O137 2.475606 1_555
Na27 O125 2.557794 1_555
Na27 O133 2.689781 1_555
Na27 O135 2.754737 1_555
Na28 O128 2.458929 1_555
Na28 O138 2.498082 1_555
Na28 O126 2.499952 1_555
Na28 O130 2.551370 1_555
Na28 O140 2.578383 1_555
Na28 O142 2.586818 1_555
Na29 O139 2.337804 1_555
Na29 O131 2.457514 1_555
Na29 O129 2.475794 1_555
Na29 O141 2.581986 1_555
Na29 O143 2.594252 1_555
Na29 O127 2.678780 1_555
Al0 O5 1.772458 1_555
Al0 O3 1.787273 1_545
Al0 O0 1.795846 1_655
Al0 O75 2.130367 1_545
Al0 O76 2.201722 1_655
Al0 O72 2.208953 1_645
Al1 O4 1.795201 1_565
Al1 O2 1.808006 1_555
Al1 O73 1.839778 1_555
Al1 O1 1.965359 1_565
Al1 O74 2.097437 1_555
Al1 O77 2.186892 1_565
Al2 O11 1.783337 1_555
Al2 O83 1.795662 1_545
Al2 O6 1.833099 1_655
Al2 O9 1.993865 1_545
Al2 O78 2.058918 1_655
Al2 O80 2.229807 1_645
Al3 O7 1.784154 1_565
Al3 O82 1.791026 1_555
Al3 O8 1.967768 1_555
Al3 O10 1.993624 1_565
Al3 O81 2.072013 1_555
Al3 O79 2.089961 1_565
Al4 O15 1.748804 1_555
Al4 O88 1.821709 1_545
Al4 O17 1.979024 1_545
Al4 O87 1.979702 1_555
Al4 O12 2.024943 1_545
Al4 O84 2.054241 1_555
Al5 O26 1.782798 1_555
Al5 O28 1.802948 1_555
Al5 O98 1.848906 1_555
Al5 O24 2.060262 1_555
Al5 O96 2.108252 1_555
Al5 O100 2.207210 1_555
Al6 O29 1.823056 1_555
Al6 O25 1.881379 1_555
Al6 O99 1.888134 1_555
Al6 O97 1.897711 1_555
Al6 O27 1.957365 1_555
Al6 O101 2.263839 1_555
Al7 O30 1.790159 1_555
Al7 O102 1.843092 1_555
Al7 O104 1.861323 1_555
Al7 O106 1.870700 1_555
Al7 O32 2.080318 1_555
Al7 O34 2.158996 1_555
Al8 O31 1.785134 1_555
Al8 O35 1.818287 1_555
Al8 O105 1.892831 1_555
Al8 O103 1.894845 1_555
Al8 O33 2.061089 1_555
Al8 O107 2.253162 1_555
Al9 O38 1.718549 1_556
Al9 O108 1.799054 1_555
Al9 O36 1.971686 1_556
Al9 O110 1.978005 1_555
Al9 O40 2.021405 1_556
Al9 O112 2.273486 1_555
Al10 O39 1.748959 1_556
Al10 O37 1.773639 1_556
Al10 O109 1.812939 1_555
Al10 O41 2.061566 1_556
Al10 O111 2.091456 1_555
Al10 O113 2.322267 1_555
Al11 O44 1.788922 1_555
Al11 O42 1.812664 1_555
Al11 O118 1.827396 1_555
Al11 O46 1.919393 1_555
Al11 O114 2.224197 1_555
Al11 O116 2.255561 1_555
Al12 O45 1.773528 1_555
Al12 O47 1.789886 1_555
Al12 O43 1.983996 1_555
Al12 O117 2.026641 1_555
Al12 O119 2.041995 1_555
Al12 O115 2.098572 1_555
Al13 O48 1.758307 1_554
Al13 O122 1.801262 1_555
Al13 O52 1.899067 1_554
Al13 O50 2.012101 1_554
Al13 O124 2.036344 1_555
Al13 O120 2.072564 1_555
Al14 O123 1.809501 1_555
Al14 O49 1.833340 1_554
Al14 O121 1.853742 1_555
Al14 O51 2.000488 1_554
Al14 O53 2.029230 1_554
Al14 O125 2.159130 1_555
Al15 O126 1.825216 1_555
Al15 O130 1.849589 1_555
Al15 O128 1.855979 1_555
Al15 O54 1.939740 1_555
Al15 O56 2.006082 1_555
Al15 O58 2.050855 1_555
Al16 O59 1.750917 1_555
Al16 O129 1.851844 1_555
Al16 O57 1.916296 1_555
Al16 O55 1.993413 1_555
Al16 O131 2.014809 1_555
Al16 O127 2.152352 1_555
Al17 O134 1.817482 1_555
Al17 O132 1.821933 1_555
Al17 O136 1.835130 1_555
Al17 O60 1.952085 1_555
Al17 O64 1.974449 1_555
Al17 O62 2.074009 1_555
Al18 O61 1.763914 1_555
Al18 O137 1.841955 1_555
Al18 O135 1.853071 1_555
Al18 O65 1.929318 1_555
Al18 O63 2.131157 1_555
Al18 O133 2.150087 1_555
Al19 O70 1.762777 1_555
Al19 O138 1.900478 1_555
Al19 O68 1.941974 1_555
Al19 O66 1.956346 1_555
Al19 O142 2.068332 1_555
Al19 O140 2.095807 1_555
Al20 O71 1.775605 1_555
Al20 O139 1.836916 1_555
Al20 O143 1.867422 1_555
Al20 O67 1.977932 1_555
Al20 O69 2.044976 1_555
Al20 O141 2.153607 1_555
O0 Si0 1.606532 1_555
O1 S0 1.471814 1_545
O2 Si1 1.615057 1_555
O3 Si2 1.604648 1_555
O4 Si4 1.609241 1_555
O5 Si3 1.607265 1_555
O6 Si5 1.608988 1_555
O7 Si6 1.646766 1_555
O8 S2 1.491476 1_555
O9 S1 1.461751 1_655
O10 S3 1.472712 1_555
O11 Si7 1.601936 1_555
O12 S3 1.502727 1_565
O13 Si7 1.679959 1_565
O13 Ta0 1.921674 1_565
O14 Si5 1.685063 1_555
O14 Ta0 1.940590 1_455
O15 Si6 1.617793 1_555
O16 S1 1.506319 1_555
O16 Ta0 2.148590 1_465
O17 S2 1.488910 1_555
O18 Si1 1.646153 1_555
O18 Ta2 1.948332 1_565
O19 Si2 1.688038 1_555
O19 Ta1 1.918768 1_655
O20 Si3 1.668397 1_455
O20 Ta1 1.933222 1_545
O21 Si4 1.652322 1_555
O21 Ta2 1.943174 1_555
O22 Si0 1.675801 1_565
O22 Ta1 1.873253 1_555
O23 S0 1.495168 1_555
O23 Ta2 2.151844 1_565
O24 S4 1.476216 1_555
O25 Si8 1.619855 1_555
O26 Si9 1.620399 1_555
O27 S5 1.500448 1_555
O28 Si10 1.634686 1_555
O29 Si11 1.620529 1_555
O30 Si12 1.627904 1_555
O31 Si13 1.623218 1_555
O32 S6 1.476933 1_555
O33 S7 1.480310 1_555
O34 S8 1.473942 1_555
O35 Si14 1.637415 1_555
O36 S8 1.486471 1_555
O37 Si14 1.614788 1_555
O38 Si12 1.601824 1_555
O39 Si13 1.606720 1_555
O40 S6 1.462945 1_555
O41 S7 1.469018 1_555
O42 Si9 1.608909 1_555
O43 S5 1.471838 1_555
O44 Si10 1.613163 1_555
O45 Si11 1.609589 1_555
O46 S4 1.488960 1_555
O47 Si8 1.605829 1_555
O48 Si15 1.618427 1_555
O49 Si16 1.635753 1_555
O50 S9 1.467116 1_555
O51 S10 1.475812 1_555
O52 S11 1.473605 1_555
O53 S12 1.460969 1_555
O54 S13 1.501212 1_555
O55 S14 1.495710 1_555
O56 S15 1.497428 1_555
O57 S16 1.479083 1_555
O58 S17 1.488609 1_555
O59 Si17 1.620222 1_555
O60 S17 1.487180 1_555
O61 Si17 1.632591 1_555
O62 S13 1.486606 1_555
O63 S14 1.482133 1_555
O64 S15 1.496643 1_555
O65 S16 1.496821 1_555
O66 S9 1.506642 1_555
O67 S10 1.485427 1_555
O68 S11 1.491207 1_555
O69 S12 1.495217 1_555
O70 Si15 1.656947 1_555
O71 Si16 1.643730 1_555
O72 S17 1.482357 1_555
O73 Si17 1.671288 1_555
O74 S13 1.494139 1_555
O75 S14 1.492673 1_555
O76 S15 1.475040 1_555
O77 S16 1.469481 1_555
O78 S9 1.495439 1_555
O79 S10 1.496829 1_555
O80 S11 1.486480 1_555
O81 S12 1.512123 1_555
O82 Si15 1.634087 1_555
O83 Si16 1.641108 1_555
O84 S4 1.498223 1_555
O85 Si8 1.668926 1_555
O85 Ta0 1.912820 1_555
O86 Si9 1.666455 1_555
O86 Ta0 1.986753 1_455
O87 S5 1.474922 1_555
O88 Si10 1.644986 1_555
O89 Si11 1.705862 1_555
O89 Ta0 1.999669 1_565
O90 Si12 1.683675 1_555
O90 Ta2 1.907107 1_565
O91 Si13 1.704841 1_555
O91 Ta1 1.962280 1_655
O92 S6 1.528386 1_555
O92 Ta2 2.048327 1_555
O93 S7 1.534473 1_555
O93 Ta1 2.169495 1_645
O94 S8 1.512905 1_555
O94 Ta1 2.130868 1_545
O95 Si14 1.648388 1_555
O95 Ta2 1.910248 1_555
O96 S3 1.470753 1_555
O97 Si7 1.626791 1_555
O98 Si5 1.626016 1_555
O99 Si6 1.668604 1_555
O100 S2 1.476235 1_555
O101 S1 1.487864 1_655
O102 Si1 1.616108 1_555
O103 Si2 1.620690 1_555
O104 Si4 1.623873 1_555
O105 Si3 1.629078 1_555
O106 Si0 1.606418 1_555
O107 S0 1.474353 1_545
O108 Si15 1.667486 1_555
O109 Si16 1.668264 1_555
O110 S10 1.485153 1_555
O111 S9 1.476084 1_655
O112 S11 1.490647 1_545
O113 S12 1.491642 1_545
O114 S13 1.462054 1_545
O115 S14 1.495676 1_545
O116 S15 1.482888 1_555
O117 S16 1.498679 1_555
O118 Si17 1.675893 1_555
O119 S17 1.495297 1_655
O120 S8 1.475399 1_555
O121 Si14 1.631275 1_555
O122 Si13 1.611878 1_455
O123 Si12 1.615450 1_555
O124 S6 1.474736 1_565
O125 S7 1.474515 1_565
O126 Si9 1.625976 1_565
O127 S5 1.488013 1_565
O128 Si10 1.665910 1_555
O129 Si11 1.644225 1_555
O130 Si8 1.626229 1_455
O131 S4 1.478648 1_555
O132 Si0 1.611984 1_565
O133 S0 1.481761 1_555
O134 Si1 1.620934 1_555
O135 Si2 1.622667 1_555
O136 Si3 1.622189 1_455
O137 Si4 1.638145 1_555
O138 Si5 1.671068 1_555
O139 Si6 1.635765 1_555
O140 S1 1.483272 1_555
O141 S2 1.477179 1_555
O142 S3 1.508020 1_565
O143 Si7 1.623207 1_565
