# generated using pymatgen
data_MgCu3AsS4
_symmetry_space_group_name_H-M   'P 1'
_cell_length_a   5.54942150
_cell_length_b   5.54942150
_cell_length_c   5.54942150
_cell_angle_alpha   87.86901541
_cell_angle_beta   87.86901541
_cell_angle_gamma   92.13098459
_symmetry_Int_Tables_number   1
_chemical_formula_structural   MgCu3AsS4
_chemical_formula_sum   'Mg1 Cu3 As1 S4'
_cell_volume   170.53680443
_cell_formula_units_Z   1
loop_
 _symmetry_equiv_pos_site_id
 _symmetry_equiv_pos_as_xyz
  1  'x, y, z'
loop_
 _atom_site_type_symbol
 _atom_site_label
 _atom_site_symmetry_multiplicity
 _atom_site_fract_x
 _atom_site_fract_y
 _atom_site_fract_z
 _atom_site_occupancy
  Mg  Mg0  1  0.26981300  0.26981300  0.73018700  1
  Cu  Cu0  1  0.98903300  0.51838800  0.48161200  1
  Cu  Cu1  1  0.51838800  0.51838800  0.01096700  1
  Cu  Cu2  1  0.51838800  0.98903300  0.48161200  1
  As  As0  1  0.97553000  0.97553000  0.02447000  1
  S  S0  1  0.25862900  0.73074800  0.74137100  1
  S  S1  1  0.73084200  0.73084200  0.26915800  1
  S  S2  1  0.73074800  0.25862900  0.74137100  1
  S  S3  1  0.25862900  0.25862900  0.26925200  1
loop_
_geom_bond_atom_site_label_1
_geom_bond_atom_site_label_2
_geom_bond_distance
_geom_bond_site_symmetry_2
Mg0 S0 2.563981 1_555
Mg0 S2 2.563981 1_555
Mg0 S3 2.563981 1_555
Mg0 S3 2.988121 1_556
Mg0 S2 2.988121 1_455
Mg0 S0 2.988121 1_545
Cu0 S1 2.231792 1_555
Cu0 S2 2.397605 1_555
Cu0 S3 2.420885 1_655
Cu0 S0 2.420885 1_655
Cu0 Mg0 2.532156 1_655
Cu1 S1 2.231792 1_555
Cu1 S3 2.397605 1_555
Cu1 S0 2.420885 1_554
Cu1 S2 2.420885 1_554
Cu1 Mg0 2.532156 1_554
Cu2 S1 2.231792 1_555
Cu2 S0 2.397605 1_555
Cu2 S3 2.420885 1_565
Cu2 S2 2.420885 1_565
Cu2 Mg0 2.532156 1_565
As0 S1 2.262769 1_555
As0 S3 2.629718 1_665
As0 S2 2.629718 1_564
As0 S0 2.629718 1_654
As0 Mg0 2.721402 1_664
