# generated using pymatgen
data_Na2La2MgTi3O10
_symmetry_space_group_name_H-M   'P 1'
_cell_length_a   3.92270290
_cell_length_b   3.92270331
_cell_length_c   16.13964604
_cell_angle_alpha   96.98005384
_cell_angle_beta   96.98005483
_cell_angle_gamma   89.99999574
_symmetry_Int_Tables_number   1
_chemical_formula_structural   Na2La2MgTi3O10
_chemical_formula_sum   'Na2 La2 Mg1 Ti3 O10'
_cell_volume   244.65527439
_cell_formula_units_Z   1
loop_
 _symmetry_equiv_pos_site_id
 _symmetry_equiv_pos_as_xyz
  1  'x, y, z'
loop_
 _atom_site_type_symbol
 _atom_site_label
 _atom_site_symmetry_multiplicity
 _atom_site_fract_x
 _atom_site_fract_y
 _atom_site_fract_z
 _atom_site_occupancy
  Na  Na0  1  0.71565900  0.71565900  0.43131800  1
  Na  Na1  1  0.28434100  0.28434100  0.56868200  1
  La  La0  1  0.59609700  0.59609700  0.19219500  1
  La  La1  1  0.40390300  0.40390300  0.80780500  1
  Mg  Mg0  1  0.50000000  0.50000000  0.00000000  1
  Ti  Ti0  1  0.84313900  0.84313900  0.68627900  1
  Ti  Ti1  1  0.15686100  0.15686100  0.31372100  1
  Ti  Ti2  1  0.00000000  0.00000000  0.00000000  1
  O  O0  1  0.85816500  0.35816500  0.71633000  1
  O  O1  1  0.35816500  0.85816500  0.71633000  1
  O  O2  1  0.14183500  0.64183500  0.28367000  1
  O  O3  1  0.64183500  0.14183500  0.28367000  1
  O  O4  1  0.78790000  0.78790000  0.57579900  1
  O  O5  1  0.21210000  0.21210000  0.42420100  1
  O  O6  1  0.00000000  0.50000000  0.00000000  1
  O  O7  1  0.06836300  0.06836300  0.13672700  1
  O  O8  1  0.93163700  0.93163700  0.86327300  1
  O  O9  1  0.50000000  0.00000000  0.00000000  1
loop_
_geom_bond_atom_site_label_1
_geom_bond_atom_site_label_2
_geom_bond_distance
_geom_bond_site_symmetry_2
Na0 O4 2.297177 1_555
Na0 O5 2.776074 1_665
Na0 O5 2.776077 1_565
Na0 O5 2.776077 1_655
Na0 O5 2.776080 1_555
Na1 O5 2.297177 1_555
Na1 O4 2.776074 1_445
Na1 O4 2.776077 1_545
Na1 O4 2.776077 1_455
Na1 O4 2.776080 1_555
La0 O2 2.441760 1_555
La0 O3 2.441760 1_555
La0 O2 2.441763 1_655
La0 O3 2.441764 1_565
La0 O7 2.910596 1_565
La0 O7 2.910596 1_655
La0 O7 2.910597 1_665
La0 O7 2.910597 1_555
La1 O0 2.441760 1_555
La1 O1 2.441760 1_555
La1 O0 2.441763 1_455
La1 O1 2.441764 1_545
La1 O8 2.910596 1_545
La1 O8 2.910596 1_455
La1 O8 2.910597 1_445
La1 O8 2.910597 1_555
Mg0 O6 1.961351 1_655
Mg0 O6 1.961351 1_555
Mg0 O9 1.961352 1_565
Mg0 O9 1.961352 1_555
O0 Ti0 2.018708 1_555
O0 Ti0 2.018712 1_545
O1 Ti0 2.018708 1_555
O1 Ti0 2.018712 1_455
O2 Ti1 2.018708 1_555
O2 Ti1 2.018712 1_565
O3 Ti1 2.018708 1_555
O3 Ti1 2.018712 1_655
O4 Ti0 1.756578 1_555
O5 Ti1 1.756578 1_555
O6 Ti2 1.961352 1_555
O6 Ti2 1.961352 1_565
O7 Ti2 2.173892 1_555
O7 Ti1 2.814118 1_555
O8 Ti2 2.173892 1_666
O8 Ti0 2.814118 1_555
O9 Ti2 1.961351 1_655
O9 Ti2 1.961351 1_555
