# generated using pymatgen
data_Na3NbAlSi2PO12
_symmetry_space_group_name_H-M   'P 1'
_cell_length_a   15.43652169
_cell_length_b   26.58644432
_cell_length_c   8.92035977
_cell_angle_alpha   90.00000000
_cell_angle_beta   124.99387871
_cell_angle_gamma   90.00000000
_symmetry_Int_Tables_number   1
_chemical_formula_structural   Na3NbAlSi2PO12
_chemical_formula_sum   'Na36 Nb12 Al12 Si24 P12 O144'
_cell_volume   2999.08711218
_cell_formula_units_Z   12
loop_
 _symmetry_equiv_pos_site_id
 _symmetry_equiv_pos_as_xyz
  1  'x, y, z'
loop_
 _atom_site_type_symbol
 _atom_site_label
 _atom_site_symmetry_multiplicity
 _atom_site_fract_x
 _atom_site_fract_y
 _atom_site_fract_z
 _atom_site_occupancy
  Na  Na0  1  0.25713439  0.25391534  0.00607386  1
  Na  Na1  1  0.24992432  0.58695630  0.01675412  1
  Na  Na2  1  0.25102930  0.91755540  0.01825235  1
  Na  Na3  1  0.75713439  0.24608466  0.50607386  1
  Na  Na4  1  0.75102930  0.58244460  0.51825235  1
  Na  Na5  1  0.74992432  0.91304370  0.51675412  1
  Na  Na6  1  0.74992432  0.08695630  0.01675412  1
  Na  Na7  1  0.75102930  0.41755540  0.01825235  1
  Na  Na8  1  0.75713439  0.75391534  0.00607386  1
  Na  Na9  1  0.25102930  0.08244460  0.51825235  1
  Na  Na10  1  0.24992432  0.41304370  0.51675412  1
  Na  Na11  1  0.25713439  0.74608466  0.50607386  1
  Na  Na12  1  0.49717214  0.03829784  0.75234155  1
  Na  Na13  1  0.49939852  0.37230249  0.75759341  1
  Na  Na14  1  0.49708225  0.70472052  0.74707670  1
  Na  Na15  1  0.49708225  0.29527948  0.24707670  1
  Na  Na16  1  0.49939852  0.62769751  0.25759341  1
  Na  Na17  1  0.49717214  0.96170216  0.25234155  1
  Na  Na18  1  0.99708225  0.20472052  0.74707670  1
  Na  Na19  1  0.99717214  0.53829784  0.75234155  1
  Na  Na20  1  0.99939852  0.87230249  0.75759341  1
  Na  Na21  1  0.99939852  0.12769751  0.25759341  1
  Na  Na22  1  0.99717214  0.46170216  0.25234155  1
  Na  Na23  1  0.99708225  0.79527948  0.24707670  1
  Na  Na24  1  0.81239006  0.64480347  0.21242147  1
  Na  Na25  1  0.81348844  0.97911463  0.22446760  1
  Na  Na26  1  0.19699046  0.31000295  0.28451977  1
  Na  Na27  1  0.19699046  0.68999705  0.78451977  1
  Na  Na28  1  0.81348844  0.02088537  0.72446760  1
  Na  Na29  1  0.81239006  0.35519653  0.71242147  1
  Na  Na30  1  0.31239006  0.14480347  0.21242147  1
  Na  Na31  1  0.31348844  0.47911463  0.22446760  1
  Na  Na32  1  0.69699046  0.81000295  0.28451977  1
  Na  Na33  1  0.69699046  0.18999705  0.78451977  1
  Na  Na34  1  0.31348844  0.52088537  0.72446760  1
  Na  Na35  1  0.31239006  0.85519653  0.71242147  1
  Nb  Nb0  1  0.11040884  0.24727415  0.57089066  1
  Nb  Nb1  1  0.10421943  0.58261755  0.56742043  1
  Nb  Nb2  1  0.10649397  0.91763362  0.56634535  1
  Nb  Nb3  1  0.10649397  0.08236638  0.06634535  1
  Nb  Nb4  1  0.10421943  0.41738245  0.06742043  1
  Nb  Nb5  1  0.11040884  0.75272585  0.07089066  1
  Nb  Nb6  1  0.60421943  0.08261755  0.56742043  1
  Nb  Nb7  1  0.60649397  0.41763362  0.56634535  1
  Nb  Nb8  1  0.61040884  0.74727415  0.57089066  1
  Nb  Nb9  1  0.61040884  0.25272585  0.07089066  1
  Nb  Nb10  1  0.60649397  0.58236638  0.06634535  1
  Nb  Nb11  1  0.60421943  0.91738245  0.06742043  1
  Al  Al0  1  0.89673385  0.24918203  0.93937527  1
  Al  Al1  1  0.89262283  0.58153793  0.93476595  1
  Al  Al2  1  0.89278156  0.91247186  0.93613594  1
  Al  Al3  1  0.89278156  0.08752814  0.43613594  1
  Al  Al4  1  0.89262283  0.41846207  0.43476595  1
  Al  Al5  1  0.89673385  0.75081797  0.43937527  1
  Al  Al6  1  0.39262283  0.08153793  0.93476595  1
  Al  Al7  1  0.39278156  0.41247186  0.93613594  1
  Al  Al8  1  0.39673385  0.74918203  0.93937527  1
  Al  Al9  1  0.39673385  0.25081797  0.43937527  1
  Al  Al10  1  0.39278156  0.58752814  0.43613594  1
  Al  Al11  1  0.39262283  0.91846207  0.43476595  1
  Si  Si0  1  0.35618744  0.29938464  0.74820968  1
  Si  Si1  1  0.35651907  0.63342911  0.75118708  1
  Si  Si2  1  0.35505247  0.96774930  0.74647336  1
  Si  Si3  1  0.64452024  0.29610424  0.73515574  1
  Si  Si4  1  0.64572500  0.62663321  0.73671089  1
  Si  Si5  1  0.64578730  0.96018137  0.73814521  1
  Si  Si6  1  0.64578730  0.03981863  0.23814521  1
  Si  Si7  1  0.64572500  0.37336679  0.23671089  1
  Si  Si8  1  0.64452024  0.70389576  0.23515574  1
  Si  Si9  1  0.35505247  0.03225070  0.24647336  1
  Si  Si10  1  0.35651907  0.36657089  0.25118708  1
  Si  Si11  1  0.35618744  0.70061536  0.24820968  1
  Si  Si12  1  0.85651907  0.13342911  0.75118708  1
  Si  Si13  1  0.85505247  0.46774930  0.74647336  1
  Si  Si14  1  0.85618744  0.79938464  0.74820968  1
  Si  Si15  1  0.14572500  0.12663321  0.73671089  1
  Si  Si16  1  0.14578730  0.46018137  0.73814521  1
  Si  Si17  1  0.14452024  0.79610424  0.73515574  1
  Si  Si18  1  0.14452024  0.20389576  0.23515574  1
  Si  Si19  1  0.14578730  0.53981863  0.23814521  1
  Si  Si20  1  0.14572500  0.87336679  0.23671089  1
  Si  Si21  1  0.85618744  0.20061536  0.24820968  1
  Si  Si22  1  0.85505247  0.53225070  0.24647336  1
  Si  Si23  1  0.85651907  0.86657089  0.25118708  1
  P  P0  1  0.99829077  0.32086952  0.74490408  1
  P  P1  1  0.99022585  0.65582882  0.74114741  1
  P  P2  1  0.99471722  0.98774856  0.73749555  1
  P  P3  1  0.99471722  0.01225144  0.23749555  1
  P  P4  1  0.99022585  0.34417118  0.24114741  1
  P  P5  1  0.99829077  0.67913048  0.24490408  1
  P  P6  1  0.49022585  0.15582882  0.74114741  1
  P  P7  1  0.49471722  0.48774856  0.73749555  1
  P  P8  1  0.49829077  0.82086952  0.74490408  1
  P  P9  1  0.49829077  0.17913048  0.24490408  1
  P  P10  1  0.49471722  0.51225144  0.23749555  1
  P  P11  1  0.49022585  0.84417118  0.24114741  1
  O  O0  1  0.14920421  0.19004768  0.74129726  1
  O  O1  1  0.15116829  0.52424932  0.74256189  1
  O  O2  1  0.15029032  0.85859650  0.73883746  1
  O  O3  1  0.85177622  0.19432519  0.76442248  1
  O  O4  1  0.85516933  0.52765169  0.76573674  1
  O  O5  1  0.85291467  0.86034121  0.76277837  1
  O  O6  1  0.85291467  0.13965879  0.26277837  1
  O  O7  1  0.85516933  0.47234831  0.26573674  1
  O  O8  1  0.85177622  0.80567481  0.26442248  1
  O  O9  1  0.15029032  0.14140350  0.23883746  1
  O  O10  1  0.15116829  0.47575068  0.24256189  1
  O  O11  1  0.14920421  0.80995232  0.24129726  1
  O  O12  1  0.65116829  0.02424932  0.74256189  1
  O  O13  1  0.65029032  0.35859650  0.73883746  1
  O  O14  1  0.64920421  0.69004768  0.74129726  1
  O  O15  1  0.35516933  0.02765169  0.76573674  1
  O  O16  1  0.35291467  0.36034121  0.76277837  1
  O  O17  1  0.35177622  0.69432519  0.76442248  1
  O  O18  1  0.35177622  0.30567481  0.26442248  1
  O  O19  1  0.35291467  0.63965879  0.26277837  1
  O  O20  1  0.35516933  0.97234831  0.26573674  1
  O  O21  1  0.64920421  0.30995232  0.24129726  1
  O  O22  1  0.65029032  0.64140350  0.23883746  1
  O  O23  1  0.65116829  0.97575068  0.24256189  1
  O  O24  1  0.43026879  0.18711615  0.56575883  1
  O  O25  1  0.43207568  0.52075644  0.56732533  1
  O  O26  1  0.43662057  0.85613592  0.58304425  1
  O  O27  1  0.56022808  0.18964054  0.91216900  1
  O  O28  1  0.55750761  0.52143506  0.91296586  1
  O  O29  1  0.56617560  0.85232011  0.92806198  1
  O  O30  1  0.56617560  0.14767989  0.42806198  1
  O  O31  1  0.55750761  0.47856494  0.41296586  1
  O  O32  1  0.56022808  0.81035946  0.41216900  1
  O  O33  1  0.43662057  0.14386408  0.08304425  1
  O  O34  1  0.43207568  0.47924356  0.06732533  1
  O  O35  1  0.43026879  0.81288385  0.06575883  1
  O  O36  1  0.93207568  0.02075644  0.56732533  1
  O  O37  1  0.93662057  0.35613592  0.58304425  1
  O  O38  1  0.93026879  0.68711615  0.56575883  1
  O  O39  1  0.05750761  0.02143506  0.91296586  1
  O  O40  1  0.06617560  0.35232011  0.92806198  1
  O  O41  1  0.06022808  0.68964054  0.91216900  1
  O  O42  1  0.06022808  0.31035946  0.41216900  1
  O  O43  1  0.06617560  0.64767989  0.42806198  1
  O  O44  1  0.05750761  0.97856494  0.41296586  1
  O  O45  1  0.93026879  0.31288385  0.06575883  1
  O  O46  1  0.93662057  0.64386408  0.08304425  1
  O  O47  1  0.93207568  0.97924356  0.06732533  1
  O  O48  1  0.25395873  0.27476694  0.73591054  1
  O  O49  1  0.25494473  0.60915925  0.74546729  1
  O  O50  1  0.25614211  0.93997476  0.73783844  1
  O  O51  1  0.75018135  0.27414711  0.76057106  1
  O  O52  1  0.75244366  0.60550169  0.77219397  1
  O  O53  1  0.75460303  0.94245254  0.76837548  1
  O  O54  1  0.75460303  0.05754746  0.26837548  1
  O  O55  1  0.75244366  0.39449831  0.27219397  1
  O  O56  1  0.75018135  0.72585289  0.26057106  1
  O  O57  1  0.25614211  0.06002524  0.23783844  1
  O  O58  1  0.25494473  0.39084075  0.24546729  1
  O  O59  1  0.25395873  0.72523306  0.23591054  1
  O  O60  1  0.75494473  0.10915925  0.74546729  1
  O  O61  1  0.75614211  0.43997476  0.73783844  1
  O  O62  1  0.75395873  0.77476694  0.73591054  1
  O  O63  1  0.25244366  0.10550169  0.77219397  1
  O  O64  1  0.25460303  0.44245254  0.76837548  1
  O  O65  1  0.25018135  0.77414711  0.76057106  1
  O  O66  1  0.25018135  0.22585289  0.26057106  1
  O  O67  1  0.25460303  0.55754746  0.26837548  1
  O  O68  1  0.25244366  0.89449831  0.27219397  1
  O  O69  1  0.75395873  0.22523306  0.23591054  1
  O  O70  1  0.75614211  0.56002524  0.23783844  1
  O  O71  1  0.75494473  0.89084075  0.24546729  1
  O  O72  1  0.35735904  0.28558666  0.57229249  1
  O  O73  1  0.36053852  0.61675293  0.58337085  1
  O  O74  1  0.36549746  0.95087183  0.58566713  1
  O  O75  1  0.64148459  0.28402911  0.91541288  1
  O  O76  1  0.64053190  0.61696281  0.91879240  1
  O  O77  1  0.64419319  0.94956349  0.92282459  1
  O  O78  1  0.64419319  0.05043651  0.42282459  1
  O  O79  1  0.64053190  0.38303719  0.41879240  1
  O  O80  1  0.64148459  0.71597089  0.41541288  1
  O  O81  1  0.36549746  0.04912817  0.08566713  1
  O  O82  1  0.36053852  0.38324707  0.08337085  1
  O  O83  1  0.35735904  0.71441334  0.07229249  1
  O  O84  1  0.86053852  0.11675293  0.58337085  1
  O  O85  1  0.86549746  0.45087183  0.58566713  1
  O  O86  1  0.85735904  0.78558666  0.57229249  1
  O  O87  1  0.14053190  0.11696281  0.91879240  1
  O  O88  1  0.14419319  0.44956349  0.92282459  1
  O  O89  1  0.14148459  0.78402911  0.91541288  1
  O  O90  1  0.14148459  0.21597089  0.41541288  1
  O  O91  1  0.14419319  0.55043651  0.42282459  1
  O  O92  1  0.14053190  0.88303719  0.41879240  1
  O  O93  1  0.85735904  0.21441334  0.07229249  1
  O  O94  1  0.86549746  0.54912817  0.08566713  1
  O  O95  1  0.86053852  0.88324707  0.08337085  1
  O  O96  1  0.46272520  0.27695573  0.93743665  1
  O  O97  1  0.46088244  0.60883289  0.94150146  1
  O  O98  1  0.46166810  0.94214997  0.93908584  1
  O  O99  1  0.53831037  0.27304203  0.55804267  1
  O  O100  1  0.53593451  0.60713215  0.55689459  1
  O  O101  1  0.53820341  0.94047053  0.55722855  1
  O  O102  1  0.53820341  0.05952947  0.05722855  1
  O  O103  1  0.53593451  0.39286785  0.05689459  1
  O  O104  1  0.53831037  0.72695797  0.05804267  1
  O  O105  1  0.46166810  0.05785003  0.43908584  1
  O  O106  1  0.46088244  0.39116711  0.44150146  1
  O  O107  1  0.46272520  0.72304427  0.43743665  1
  O  O108  1  0.96088244  0.10883289  0.94150146  1
  O  O109  1  0.96166810  0.44214997  0.93908584  1
  O  O110  1  0.96272520  0.77695573  0.93743665  1
  O  O111  1  0.03593451  0.10713215  0.55689459  1
  O  O112  1  0.03820341  0.44047053  0.55722855  1
  O  O113  1  0.03831037  0.77304203  0.55804267  1
  O  O114  1  0.03831037  0.22695797  0.05804267  1
  O  O115  1  0.03820341  0.55952947  0.05722855  1
  O  O116  1  0.03593451  0.89286785  0.05689459  1
  O  O117  1  0.96272520  0.22304427  0.43743665  1
  O  O118  1  0.96166810  0.55785003  0.43908584  1
  O  O119  1  0.96088244  0.89116711  0.44150146  1
  O  O120  1  0.07893545  0.28591961  0.74493168  1
  O  O121  1  0.07702908  0.62220608  0.74234670  1
  O  O122  1  0.08005254  0.95423335  0.74550684  1
  O  O123  1  0.91977937  0.28742153  0.75568482  1
  O  O124  1  0.91827004  0.62010927  0.75582517  1
  O  O125  1  0.91803608  0.95373863  0.74797501  1
  O  O126  1  0.91803608  0.04626137  0.24797501  1
  O  O127  1  0.91827004  0.37989073  0.25582517  1
  O  O128  1  0.91977937  0.71257847  0.25568482  1
  O  O129  1  0.08005254  0.04576665  0.24550684  1
  O  O130  1  0.07702908  0.37779392  0.24234670  1
  O  O131  1  0.07893545  0.71408039  0.24493168  1
  O  O132  1  0.57702908  0.12220608  0.74234670  1
  O  O133  1  0.58005254  0.45423335  0.74550684  1
  O  O134  1  0.57893545  0.78591961  0.74493168  1
  O  O135  1  0.41827004  0.12010927  0.75582517  1
  O  O136  1  0.41803608  0.45373863  0.74797501  1
  O  O137  1  0.41977937  0.78742153  0.75568482  1
  O  O138  1  0.41977937  0.21257847  0.25568482  1
  O  O139  1  0.41803608  0.54626137  0.24797501  1
  O  O140  1  0.41827004  0.87989073  0.25582517  1
  O  O141  1  0.57893545  0.21408039  0.24493168  1
  O  O142  1  0.58005254  0.54576665  0.24550684  1
  O  O143  1  0.57702908  0.87779392  0.24234670  1
loop_
_geom_bond_atom_site_label_1
_geom_bond_atom_site_label_2
_geom_bond_distance
_geom_bond_site_symmetry_2
Na0 O18 2.340370 1_555
Na0 O48 2.445834 1_554
Na0 O66 2.449790 1_555
Na0 O138 2.461128 1_555
Na0 O120 2.523398 1_554
Na0 O0 2.593098 1_554
Na1 O19 2.303326 1_555
Na1 O67 2.338510 1_555
Na1 O139 2.453554 1_555
Na1 O49 2.534926 1_554
Na1 O121 2.549496 1_554
Na1 O1 2.609421 1_554
Na2 O68 2.334714 1_555
Na2 O20 2.347241 1_555
Na2 O140 2.425585 1_555
Na2 O122 2.543817 1_554
Na2 O2 2.577230 1_554
Na2 O50 2.616278 1_554
Na3 O3 2.340370 1_555
Na3 O69 2.445834 1_555
Na3 O51 2.449790 1_555
Na3 O123 2.461128 1_555
Na3 O141 2.523398 1_555
Na3 O21 2.593098 1_555
Na4 O52 2.334714 1_555
Na4 O4 2.347241 1_555
Na4 O124 2.425585 1_555
Na4 O142 2.543817 1_555
Na4 O22 2.577230 1_555
Na4 O70 2.616278 1_555
Na5 O5 2.303326 1_555
Na5 O53 2.338510 1_555
Na5 O125 2.453554 1_555
Na5 O71 2.534926 1_555
Na5 O143 2.549496 1_555
Na5 O23 2.609421 1_555
Na6 O6 2.303326 1_555
Na6 O54 2.338510 1_555
Na6 O126 2.453554 1_555
Na6 O60 2.534926 1_554
Na6 O132 2.549496 1_554
Na6 O12 2.609421 1_554
Na7 O55 2.334714 1_555
Na7 O7 2.347241 1_555
Na7 O127 2.425585 1_555
Na7 O133 2.543817 1_554
Na7 O13 2.577230 1_554
Na7 O61 2.616278 1_554
Na8 O8 2.340370 1_555
Na8 O62 2.445834 1_554
Na8 O56 2.449790 1_555
Na8 O128 2.461128 1_555
Na8 O134 2.523398 1_554
Na8 O14 2.593098 1_554
Na9 O63 2.334714 1_555
Na9 O15 2.347241 1_555
Na9 O135 2.425585 1_555
Na9 O129 2.543817 1_555
Na9 O9 2.577230 1_555
Na9 O57 2.616278 1_555
Na10 O16 2.303326 1_555
Na10 O64 2.338510 1_555
Na10 O136 2.453554 1_555
Na10 O58 2.534926 1_555
Na10 O130 2.549496 1_555
Na10 O10 2.609421 1_555
Na11 O17 2.340370 1_555
Na11 O59 2.445834 1_555
Na11 O65 2.449790 1_555
Na11 O137 2.461128 1_555
Na11 O131 2.523398 1_555
Na11 O11 2.593098 1_555
Na12 O15 2.280309 1_555
Na12 O12 2.456804 1_555
Na12 O102 2.478061 1_556
Na12 O135 2.501757 1_555
Na12 O105 2.573409 1_555
Na12 O132 2.574909 1_555
Na13 O16 2.310034 1_555
Na13 O103 2.453194 1_556
Na13 O13 2.456245 1_555
Na13 O136 2.479683 1_555
Na13 O133 2.541738 1_555
Na13 O106 2.575394 1_555
Na14 O17 2.351497 1_555
Na14 O14 2.409957 1_555
Na14 O134 2.506990 1_555
Na14 O137 2.523752 1_555
Na14 O104 2.534638 1_556
Na14 O107 2.543149 1_555
Na15 O18 2.351497 1_555
Na15 O21 2.409957 1_555
Na15 O141 2.506990 1_555
Na15 O138 2.523752 1_555
Na15 O99 2.534638 1_555
Na15 O96 2.543149 1_554
Na16 O19 2.310034 1_555
Na16 O100 2.453194 1_555
Na16 O22 2.456245 1_555
Na16 O139 2.479683 1_555
Na16 O142 2.541738 1_555
Na16 O97 2.575394 1_554
Na17 O20 2.280309 1_555
Na17 O23 2.456804 1_555
Na17 O101 2.478061 1_555
Na17 O140 2.501757 1_555
Na17 O98 2.573409 1_554
Na17 O143 2.574909 1_555
Na18 O3 2.351497 1_555
Na18 O0 2.409957 1_655
Na18 O120 2.506990 1_655
Na18 O123 2.523752 1_555
Na18 O114 2.534638 1_656
Na18 O117 2.543149 1_555
Na19 O4 2.280309 1_555
Na19 O1 2.456804 1_655
Na19 O115 2.478061 1_656
Na19 O124 2.501757 1_555
Na19 O118 2.573409 1_555
Na19 O121 2.574909 1_655
Na20 O5 2.310034 1_555
Na20 O116 2.453194 1_656
Na20 O2 2.456245 1_655
Na20 O125 2.479683 1_555
Na20 O122 2.541738 1_655
Na20 O119 2.575394 1_555
Na21 O6 2.310034 1_555
Na21 O111 2.453194 1_655
Na21 O9 2.456245 1_655
Na21 O126 2.479683 1_555
Na21 O129 2.541738 1_655
Na21 O108 2.575394 1_554
Na22 O7 2.280309 1_555
Na22 O10 2.456804 1_655
Na22 O112 2.478061 1_655
Na22 O127 2.501757 1_555
Na22 O109 2.573409 1_554
Na22 O130 2.574909 1_655
Na23 O8 2.351497 1_555
Na23 O11 2.409957 1_655
Na23 O131 2.506990 1_655
Na23 O128 2.523752 1_555
Na23 O113 2.534638 1_655
Na23 O110 2.543149 1_554
Na24 O128 2.325943 1_555
Na24 O70 2.472124 1_555
Na24 O56 2.494582 1_555
Na24 O76 2.544870 1_554
Na24 O22 2.645993 1_555
Na24 O46 2.747462 1_555
Na24 O38 2.816515 1_555
Na25 O126 2.333934 1_565
Na25 O54 2.395054 1_565
Na25 O71 2.560047 1_555
Na25 O77 2.573244 1_554
Na25 O23 2.603123 1_555
Na25 O36 2.740265 1_565
Na25 O47 2.873873 1_555
Na26 O72 2.418787 1_555
Na26 O58 2.428612 1_555
Na26 O66 2.434398 1_555
Na26 O130 2.453562 1_555
Na26 O18 2.499140 1_555
Na26 O40 2.844203 1_554
Na26 O42 2.917326 1_555
Na27 O83 2.418787 1_556
Na27 O49 2.428612 1_555
Na27 O65 2.434398 1_555
Na27 O121 2.453562 1_555
Na27 O17 2.499140 1_555
Na27 O43 2.844203 1_555
Na27 O41 2.917326 1_555
Na28 O125 2.333934 1_545
Na28 O53 2.395054 1_545
Na28 O60 2.560047 1_555
Na28 O78 2.573244 1_555
Na28 O12 2.603123 1_555
Na28 O47 2.740265 1_546
Na28 O36 2.873873 1_555
Na29 O123 2.325943 1_555
Na29 O61 2.472124 1_555
Na29 O51 2.494582 1_555
Na29 O79 2.544870 1_555
Na29 O13 2.645993 1_555
Na29 O37 2.747462 1_555
Na29 O45 2.816515 1_556
Na30 O138 2.325943 1_555
Na30 O57 2.472124 1_555
Na30 O66 2.494582 1_555
Na30 O87 2.544870 1_554
Na30 O9 2.645993 1_555
Na30 O33 2.747462 1_555
Na30 O24 2.816515 1_555
Na31 O139 2.333934 1_555
Na31 O67 2.395054 1_555
Na31 O58 2.560047 1_555
Na31 O88 2.573244 1_554
Na31 O10 2.603123 1_555
Na31 O25 2.740265 1_555
Na31 O34 2.873873 1_555
Na32 O86 2.418787 1_555
Na32 O71 2.428612 1_555
Na32 O56 2.434398 1_555
Na32 O143 2.453562 1_555
Na32 O8 2.499140 1_555
Na32 O29 2.844203 1_554
Na32 O32 2.917326 1_555
Na33 O93 2.418787 1_556
Na33 O60 2.428612 1_555
Na33 O51 2.434398 1_555
Na33 O132 2.453562 1_555
Na33 O3 2.499140 1_555
Na33 O30 2.844203 1_555
Na33 O27 2.917326 1_555
Na34 O136 2.333934 1_555
Na34 O64 2.395054 1_555
Na34 O49 2.560047 1_555
Na34 O91 2.573244 1_555
Na34 O1 2.603123 1_555
Na34 O34 2.740265 1_556
Na34 O25 2.873873 1_555
Na35 O137 2.325943 1_555
Na35 O50 2.472124 1_555
Na35 O65 2.494582 1_555
Na35 O92 2.544870 1_555
Na35 O2 2.645993 1_555
Na35 O26 2.747462 1_555
Na35 O35 2.816515 1_556
Nb0 O90 1.899835 1_555
Nb0 O48 1.967255 1_555
Nb0 O117 1.979015 1_455
Nb0 O0 1.984940 1_555
Nb0 O42 2.039554 1_555
Nb0 O120 2.137077 1_555
Nb1 O91 1.920773 1_555
Nb1 O118 1.922750 1_455
Nb1 O43 2.011225 1_555
Nb1 O1 2.018788 1_555
Nb1 O49 2.048271 1_555
Nb1 O121 2.114244 1_555
Nb2 O92 1.909915 1_555
Nb2 O44 1.970111 1_555
Nb2 O119 1.979028 1_455
Nb2 O50 1.994012 1_555
Nb2 O2 2.023633 1_555
Nb2 O122 2.101388 1_555
Nb3 O87 1.909915 1_554
Nb3 O39 1.970111 1_554
Nb3 O108 1.979028 1_454
Nb3 O57 1.994012 1_555
Nb3 O9 2.023633 1_555
Nb3 O129 2.101388 1_555
Nb4 O88 1.920773 1_554
Nb4 O109 1.922750 1_454
Nb4 O40 2.011225 1_554
Nb4 O10 2.018788 1_555
Nb4 O58 2.048271 1_555
Nb4 O130 2.114244 1_555
Nb5 O89 1.899835 1_554
Nb5 O59 1.967255 1_555
Nb5 O110 1.979015 1_454
Nb5 O11 1.984940 1_555
Nb5 O41 2.039554 1_554
Nb5 O131 2.137077 1_555
Nb6 O78 1.920773 1_555
Nb6 O105 1.922750 1_555
Nb6 O30 2.011225 1_555
Nb6 O12 2.018788 1_555
Nb6 O60 2.048271 1_555
Nb6 O132 2.114244 1_555
Nb7 O79 1.909915 1_555
Nb7 O31 1.970111 1_555
Nb7 O106 1.979028 1_555
Nb7 O61 1.994012 1_555
Nb7 O13 2.023633 1_555
Nb7 O133 2.101388 1_555
Nb8 O80 1.899835 1_555
Nb8 O62 1.967255 1_555
Nb8 O107 1.979015 1_555
Nb8 O14 1.984940 1_555
Nb8 O32 2.039554 1_555
Nb8 O134 2.137077 1_555
Nb9 O75 1.899835 1_554
Nb9 O69 1.967255 1_555
Nb9 O96 1.979015 1_554
Nb9 O21 1.984940 1_555
Nb9 O27 2.039554 1_554
Nb9 O141 2.137077 1_555
Nb10 O76 1.909915 1_554
Nb10 O28 1.970111 1_554
Nb10 O97 1.979028 1_554
Nb10 O70 1.994012 1_555
Nb10 O22 2.023633 1_555
Nb10 O142 2.101388 1_555
Nb11 O77 1.920773 1_554
Nb11 O98 1.922750 1_554
Nb11 O29 2.011225 1_554
Nb11 O23 2.018788 1_555
Nb11 O71 2.048271 1_555
Nb11 O143 2.114244 1_555
Al0 O93 1.859112 1_556
Al0 O114 1.895363 1_656
Al0 O45 1.933362 1_556
Al0 O3 1.949882 1_555
Al0 O51 1.990915 1_555
Al0 O123 2.124544 1_555
Al1 O94 1.837453 1_556
Al1 O52 1.895278 1_555
Al1 O4 1.913198 1_555
Al1 O115 1.941688 1_656
Al1 O46 1.981458 1_556
Al1 O124 2.116855 1_555
Al2 O95 1.823786 1_556
Al2 O116 1.893385 1_656
Al2 O5 1.897229 1_555
Al2 O53 1.939929 1_555
Al2 O47 2.018581 1_556
Al2 O125 2.218881 1_555
Al3 O84 1.823786 1_555
Al3 O111 1.893385 1_655
Al3 O6 1.897229 1_555
Al3 O54 1.939929 1_555
Al3 O36 2.018581 1_555
Al3 O126 2.218881 1_555
Al4 O85 1.837453 1_555
Al4 O55 1.895278 1_555
Al4 O7 1.913198 1_555
Al4 O112 1.941688 1_655
Al4 O37 1.981458 1_555
Al4 O127 2.116855 1_555
Al5 O86 1.859112 1_555
Al5 O113 1.895363 1_655
Al5 O38 1.933362 1_555
Al5 O8 1.949882 1_555
Al5 O56 1.990915 1_555
Al5 O128 2.124544 1_555
Al6 O81 1.837453 1_556
Al6 O63 1.895278 1_555
Al6 O15 1.913198 1_555
Al6 O102 1.941688 1_556
Al6 O33 1.981458 1_556
Al6 O135 2.116855 1_555
Al7 O82 1.823786 1_556
Al7 O103 1.893385 1_556
Al7 O16 1.897229 1_555
Al7 O64 1.939929 1_555
Al7 O34 2.018581 1_556
Al7 O136 2.218881 1_555
Al8 O83 1.859112 1_556
Al8 O104 1.895363 1_556
Al8 O35 1.933362 1_556
Al8 O17 1.949882 1_555
Al8 O65 1.990915 1_555
Al8 O137 2.124544 1_555
Al9 O72 1.859112 1_555
Al9 O99 1.895363 1_555
Al9 O24 1.933362 1_555
Al9 O18 1.949882 1_555
Al9 O66 1.990915 1_555
Al9 O138 2.124544 1_555
Al10 O73 1.823786 1_555
Al10 O100 1.893385 1_555
Al10 O19 1.897229 1_555
Al10 O67 1.939929 1_555
Al10 O25 2.018581 1_555
Al10 O139 2.218881 1_555
Al11 O74 1.837453 1_555
Al11 O68 1.895278 1_555
Al11 O20 1.913198 1_555
Al11 O101 1.941688 1_555
Al11 O26 1.981458 1_555
Al11 O140 2.116855 1_555
O0 Si15 1.686570 1_555
O1 Si16 1.704718 1_555
O2 Si17 1.663149 1_555
O3 Si12 1.628007 1_555
O4 Si13 1.601725 1_555
O5 Si14 1.628919 1_555
O6 Si21 1.628919 1_555
O7 Si22 1.601725 1_555
O8 Si23 1.628007 1_555
O9 Si18 1.663149 1_555
O10 Si19 1.704718 1_555
O11 Si20 1.686570 1_555
O12 Si5 1.704718 1_545
O13 Si3 1.663149 1_555
O14 Si4 1.686570 1_555
O15 Si2 1.601725 1_545
O16 Si0 1.628919 1_555
O17 Si1 1.628007 1_555
O18 Si10 1.628007 1_555
O19 Si11 1.628919 1_555
O20 Si9 1.601725 1_565
O21 Si7 1.686570 1_555
O22 Si8 1.663149 1_555
O23 Si6 1.704718 1_565
O24 P6 1.528213 1_555
O25 P7 1.525066 1_555
O26 P8 1.514441 1_555
O27 P6 1.553163 1_555
O28 P7 1.565720 1_555
O29 P8 1.582068 1_555
O30 P9 1.582068 1_555
O31 P10 1.565720 1_555
O32 P11 1.553163 1_555
O33 P9 1.514441 1_555
O34 P10 1.525066 1_555
O35 P11 1.528213 1_555
O36 P2 1.525066 1_545
O37 P0 1.514441 1_555
O38 P1 1.528213 1_555
O39 P2 1.565720 1_445
O40 P0 1.582068 1_455
O41 P1 1.553163 1_455
O42 P4 1.553163 1_455
O43 P5 1.582068 1_455
O44 P3 1.565720 1_465
O45 P4 1.528213 1_555
O46 P5 1.514441 1_555
O47 P3 1.525066 1_565
O48 Si0 1.652902 1_555
O49 Si1 1.669033 1_555
O50 Si2 1.657567 1_555
O51 Si3 1.621216 1_555
O52 Si4 1.591089 1_555
O53 Si5 1.611477 1_555
O54 Si6 1.611477 1_555
O55 Si7 1.591089 1_555
O56 Si8 1.621216 1_555
O57 Si9 1.657567 1_555
O58 Si10 1.669033 1_555
O59 Si11 1.652902 1_555
O60 Si12 1.669033 1_555
O61 Si13 1.657567 1_555
O62 Si14 1.652902 1_555
O63 Si15 1.591089 1_555
O64 Si16 1.611477 1_555
O65 Si17 1.621216 1_555
O66 Si18 1.621216 1_555
O67 Si19 1.611477 1_555
O68 Si20 1.591089 1_555
O69 Si21 1.652902 1_555
O70 Si22 1.657567 1_555
O71 Si23 1.669033 1_555
O72 Si0 1.621721 1_555
O73 Si1 1.596216 1_555
O74 Si2 1.596953 1_555
O75 Si3 1.666497 1_555
O76 Si4 1.691153 1_555
O77 Si5 1.685449 1_555
O78 Si6 1.685449 1_555
O79 Si7 1.691153 1_555
O80 Si8 1.666497 1_555
O81 Si9 1.596953 1_555
O82 Si10 1.596216 1_555
O83 Si11 1.621721 1_555
O84 Si12 1.596216 1_555
O85 Si13 1.596953 1_555
O86 Si14 1.621721 1_555
O87 Si15 1.691153 1_555
O88 Si16 1.685449 1_555
O89 Si17 1.666497 1_555
O90 Si18 1.666497 1_555
O91 Si19 1.685449 1_555
O92 Si20 1.691153 1_555
O93 Si21 1.621721 1_555
O94 Si22 1.596953 1_555
O95 Si23 1.596216 1_555
O96 Si0 1.650893 1_555
O97 Si1 1.663765 1_555
O98 Si2 1.697222 1_555
O99 Si3 1.609057 1_555
O100 Si4 1.611199 1_555
O101 Si5 1.600949 1_555
O102 Si6 1.600949 1_555
O103 Si7 1.611199 1_555
O104 Si8 1.609057 1_555
O105 Si9 1.697222 1_555
O106 Si10 1.663765 1_555
O107 Si11 1.650893 1_555
O108 Si12 1.663765 1_555
O109 Si13 1.697222 1_555
O110 Si14 1.650893 1_555
O111 Si15 1.611199 1_555
O112 Si16 1.600949 1_555
O113 Si17 1.609057 1_555
O114 Si18 1.609057 1_555
O115 Si19 1.600949 1_555
O116 Si20 1.611199 1_555
O117 Si21 1.650893 1_555
O118 Si22 1.697222 1_555
O119 Si23 1.663765 1_555
O120 P0 1.553306 1_455
O121 P1 1.605673 1_455
O122 P2 1.557669 1_455
O123 P0 1.550008 1_555
O124 P1 1.523009 1_555
O125 P2 1.534392 1_555
O126 P3 1.534392 1_555
O127 P4 1.523009 1_555
O128 P5 1.550008 1_555
O129 P3 1.557669 1_455
O130 P4 1.605673 1_455
O131 P5 1.553306 1_455
O132 P6 1.605673 1_555
O133 P7 1.557669 1_555
O134 P8 1.553306 1_555
O135 P6 1.523009 1_555
O136 P7 1.534392 1_555
O137 P8 1.550008 1_555
O138 P9 1.550008 1_555
O139 P10 1.534392 1_555
O140 P11 1.523009 1_555
O141 P9 1.553306 1_555
O142 P10 1.557669 1_555
O143 P11 1.605673 1_555
