# generated using pymatgen
data_Gd6MgWO12
_symmetry_space_group_name_H-M   'P 1'
_cell_length_a   6.66351324
_cell_length_b   6.66351215
_cell_length_c   6.66351208
_cell_angle_alpha   93.14127678
_cell_angle_beta   93.14137190
_cell_angle_gamma   93.14119855
_symmetry_Int_Tables_number   1
_chemical_formula_structural   Gd6MgWO12
_chemical_formula_sum   'Gd6 Mg1 W1 O12'
_cell_volume   294.49130536
_cell_formula_units_Z   1
loop_
 _symmetry_equiv_pos_site_id
 _symmetry_equiv_pos_as_xyz
  1  'x, y, z'
loop_
 _atom_site_type_symbol
 _atom_site_label
 _atom_site_symmetry_multiplicity
 _atom_site_fract_x
 _atom_site_fract_y
 _atom_site_fract_z
 _atom_site_occupancy
  Gd  Gd0  1  0.43607762  0.92062588  0.73662194  1
  Gd  Gd1  1  0.26337905  0.56392238  0.07937312  1
  Gd  Gd2  1  0.07937412  0.26337905  0.56392238  1
  Gd  Gd3  1  0.92062588  0.73662095  0.43607762  1
  Gd  Gd4  1  0.73662095  0.43607762  0.92062688  1
  Gd  Gd5  1  0.56392238  0.07937412  0.26337806  1
  Mg  Mg0  1  0.50000000  0.50000000  0.50000000  1
  W  W0  1  0.00000000  0.00000000  -0.00000000  1
  O  O0  1  0.07480280  0.93208306  0.70071863  1
  O  O1  1  0.29928237  0.92519720  0.06791694  1
  O  O2  1  0.19423897  0.54241777  0.41040202  1
  O  O3  1  0.58959898  0.80576103  0.45758223  1
  O  O4  1  0.06791694  0.29928037  0.92519720  1
  O  O5  1  0.45758223  0.58959798  0.80576103  1
  O  O6  1  0.54241777  0.41040202  0.19423897  1
  O  O7  1  0.93208306  0.70071963  0.07480280  1
  O  O8  1  0.41040102  0.19423897  0.54241777  1
  O  O9  1  0.80576103  0.45758223  0.58959798  1
  O  O10  1  0.70071763  0.07480280  0.93208306  1
  O  O11  1  0.92519720  0.06791694  0.29928137  1
loop_
_geom_bond_atom_site_label_1
_geom_bond_atom_site_label_2
_geom_bond_distance
_geom_bond_site_symmetry_2
Gd0 O3 2.286476 1_555
Gd0 O5 2.288484 1_555
Gd0 O10 2.294478 1_565
Gd0 O8 2.301428 1_565
Gd0 O0 2.411942 1_555
Gd0 O1 2.433412 1_556
Gd1 O6 2.286467 1_555
Gd1 O2 2.288493 1_555
Gd1 O4 2.294489 1_554
Gd1 O5 2.301420 1_554
Gd1 O1 2.411942 1_555
Gd1 O7 2.433422 1_455
Gd2 O2 2.286468 1_555
Gd2 O8 2.288479 1_555
Gd2 O11 2.294486 1_455
Gd2 O9 2.301423 1_455
Gd2 O4 2.411942 1_555
Gd2 O0 2.433420 1_545
Gd3 O9 2.286468 1_555
Gd3 O3 2.288479 1_555
Gd3 O0 2.294486 1_655
Gd3 O2 2.301423 1_655
Gd3 O7 2.411942 1_555
Gd3 O11 2.433420 1_565
Gd4 O5 2.286467 1_555
Gd4 O9 2.288493 1_555
Gd4 O7 2.294489 1_556
Gd4 O6 2.301420 1_556
Gd4 O10 2.411942 1_555
Gd4 O4 2.433422 1_655
Gd5 O8 2.286476 1_555
Gd5 O6 2.288484 1_555
Gd5 O1 2.294478 1_545
Gd5 O3 2.301428 1_545
Gd5 O11 2.411942 1_555
Gd5 O10 2.433412 1_554
Mg0 O2 2.129743 1_555
Mg0 O9 2.129743 1_555
Mg0 O5 2.129744 1_555
Mg0 O6 2.129744 1_555
Mg0 O8 2.129747 1_555
Mg0 O3 2.129747 1_555
O0 W0 2.113082 1_566
O1 W0 2.113086 1_565
O4 W0 2.113076 1_556
O7 W0 2.113076 1_665
O10 W0 2.113086 1_656
O11 W0 2.113082 1_655
