# generated using pymatgen
data_MgV3Zn2O8
_symmetry_space_group_name_H-M   'P 1'
_cell_length_a   7.43351480
_cell_length_b   6.01797806
_cell_length_c   5.92255546
_cell_angle_alpha   60.98923808
_cell_angle_beta   88.65331208
_cell_angle_gamma   130.50109197
_symmetry_Int_Tables_number   1
_chemical_formula_structural   MgV3Zn2O8
_chemical_formula_sum   'Mg1 V3 Zn2 O8'
_cell_volume   151.65382298
_cell_formula_units_Z   1
loop_
 _symmetry_equiv_pos_site_id
 _symmetry_equiv_pos_as_xyz
  1  'x, y, z'
loop_
 _atom_site_type_symbol
 _atom_site_label
 _atom_site_symmetry_multiplicity
 _atom_site_fract_x
 _atom_site_fract_y
 _atom_site_fract_z
 _atom_site_occupancy
  Mg  Mg0  1  0.13148554  0.75277620  0.89285376  1
  V  V0  1  0.57080348  0.18619226  0.17258114  1
  V  V1  1  0.69128215  0.32535287  0.60299013  1
  V  V2  1  0.61846432  0.74418219  0.63945620  1
  Zn  Zn0  1  0.99095920  0.14669393  -0.07853905  1
  Zn  Zn1  1  0.22804340  0.32468358  0.33682746  1
  O  O0  1  0.84229916  0.31409572  0.33364111  1
  O  O1  1  0.41100434  0.17265414  0.43047703  1
  O  O2  1  0.84224261  0.33150222  0.87909314  1
  O  O3  1  0.88611274  0.86343510  0.35133054  1
  O  O4  1  0.86528764  0.80720054  0.83688924  1
  O  O5  1  0.40947703  0.17696708  0.91622155  1
  O  O6  1  0.36387048  0.64308941  0.46601320  1
  O  O7  1  0.39866691  0.71117476  0.89724754  1
loop_
_geom_bond_atom_site_label_1
_geom_bond_atom_site_label_2
_geom_bond_distance
_geom_bond_site_symmetry_2
Mg0 O0 2.021304 1_456
Mg0 O2 2.045759 1_455
Mg0 O5 2.076073 1_565
Mg0 O1 2.098206 1_565
Mg0 O7 2.156366 1_555
Mg0 O4 2.213616 1_455
O0 V1 1.982169 1_555
O0 V2 2.057320 1_545
O0 V0 2.088117 1_555
O1 V0 1.849037 1_555
O1 Zn1 2.038121 1_555
O1 V1 2.180134 1_555
O2 Zn0 1.965035 1_556
O2 V0 1.981477 1_556
O2 V1 2.006397 1_555
O3 V1 1.982492 1_555
O3 Zn0 1.991617 1_565
O3 V2 2.045307 1_555
O3 Zn1 2.183334 1_665
O4 Zn0 1.957840 1_566
O4 V2 2.122408 1_555
O4 V0 2.161849 1_556
O4 Zn1 2.347712 1_665
O5 V0 1.956356 1_556
O5 V2 2.077809 1_555
O5 V1 2.099488 1_555
O6 V0 1.975676 1_565
O6 V2 2.051577 1_555
O6 Zn1 2.054702 1_555
O6 Zn0 2.227249 1_456
O7 Zn1 1.983922 1_556
O7 V2 2.051113 1_555
O7 V1 2.135615 1_565
