# generated using pymatgen
data_KF3
_symmetry_space_group_name_H-M   'P 1'
_cell_length_a   7.24443647
_cell_length_b   7.40352295
_cell_length_c   9.44613204
_cell_angle_alpha   87.31746052
_cell_angle_beta   90.00434690
_cell_angle_gamma   89.99549834
_symmetry_Int_Tables_number   1
_chemical_formula_structural   KF3
_chemical_formula_sum   'K8 F24'
_cell_volume   506.08198338
_cell_formula_units_Z   8
loop_
 _symmetry_equiv_pos_site_id
 _symmetry_equiv_pos_as_xyz
  1  'x, y, z'
loop_
 _atom_site_type_symbol
 _atom_site_label
 _atom_site_symmetry_multiplicity
 _atom_site_fract_x
 _atom_site_fract_y
 _atom_site_fract_z
 _atom_site_occupancy
  K  K0  1  0.41779113  0.80603190  0.61876321  1
  K  K1  1  0.91781501  0.69396065  0.38138548  1
  K  K2  1  0.58343971  0.30269707  0.86599915  1
  K  K3  1  0.08350154  0.19722402  0.13396461  1
  K  K4  1  0.45180407  0.82132183  0.09815378  1
  K  K5  1  0.95189416  0.67875300  0.90194957  1
  K  K6  1  0.54844283  0.32724156  0.38515460  1
  K  K7  1  0.04844897  0.17293992  0.61467090  1
  F  F0  1  0.78294923  0.71111329  0.64702751  1
  F  F1  1  0.28293941  0.78864434  0.35298897  1
  F  F2  1  0.21957819  0.21359439  0.86902095  1
  F  F3  1  0.71958148  0.28652921  0.13093729  1
  F  F4  1  0.03570841  0.79572531  0.63298049  1
  F  F5  1  0.53574932  0.70416165  0.36725750  1
  F  F6  1  0.96781490  0.30293591  0.87019564  1
  F  F7  1  0.46788528  0.19701565  0.12976948  1
  F  F8  1  0.22658474  0.95233924  0.86081871  1
  F  F9  1  0.72629071  0.54780222  0.13927264  1
  F  F10  1  0.76792778  0.45408978  0.61798313  1
  F  F11  1  0.26824911  0.04560430  0.38199501  1
  F  F12  1  0.80659871  0.93590412  0.15407542  1
  F  F13  1  0.30684162  0.56437818  0.84602721  1
  F  F14  1  0.19036806  0.44115455  0.34112373  1
  F  F15  1  0.69048462  0.05872472  0.65870323  1
  F  F16  1  0.25407702  0.46759438  0.53997832  1
  F  F17  1  0.75428543  0.03240099  0.45980082  1
  F  F18  1  0.74522115  0.96993673  0.95347340  1
  F  F19  1  0.24526138  0.53003080  0.04654068  1
  F  F20  1  0.55148176  0.66525452  0.86279014  1
  F  F21  1  0.05113154  0.83481243  0.13736245  1
  F  F22  1  0.45000991  0.16973732  0.63238262  1
  F  F23  1  0.94984383  0.33034500  0.36745234  1
loop_
_geom_bond_atom_site_label_1
_geom_bond_atom_site_label_2
_geom_bond_distance
_geom_bond_site_symmetry_2
F0 K1 2.701374 1_555
F0 K5 2.701751 1_555
F0 K0 2.746836 1_555
F1 K4 2.701053 1_555
F1 K0 2.702528 1_555
F1 K1 2.746416 1_455
F2 K3 2.687370 1_556
F2 K2 2.717141 1_555
F2 K7 2.732661 1_555
F3 K2 2.687347 1_554
F3 K3 2.717811 1_655
F3 K6 2.731792 1_555
F4 K1 2.666964 1_455
F4 K5 2.714452 1_455
F4 K0 2.772124 1_555
F4 K7 2.791511 1_565
F5 K0 2.666683 1_555
F5 K4 2.716102 1_555
F5 K1 2.771909 1_555
F5 K6 2.789252 1_555
F6 K7 2.703907 1_655
F6 K3 2.709246 1_656
F6 K2 2.784863 1_555
F6 K5 2.814771 1_555
F7 K6 2.703220 1_555
F7 K2 2.709061 1_554
F7 K3 2.784930 1_555
F7 K4 2.813729 1_545
F8 K5 2.853194 1_455
F8 K4 2.902535 1_556
F8 K0 2.924403 1_555
F8 K7 3.063142 1_565
F9 K4 2.851541 1_555
F9 K5 2.904144 1_554
F9 K1 2.925395 1_555
F9 K6 3.060530 1_555
F10 K2 2.878565 1_555
F10 K6 2.905216 1_555
F10 K7 2.910149 1_655
F10 K1 2.992813 1_555
F11 K3 2.879890 1_555
F11 K7 2.906752 1_555
F11 K6 2.911240 1_555
F11 K0 2.991608 1_545
F12 K4 2.765345 1_555
F12 K3 2.787369 1_665
F12 K1 2.847392 1_555
F13 K5 2.765842 1_455
F13 K2 2.787344 1_555
F13 K0 2.845428 1_555
F14 K6 2.753179 1_555
F14 K1 2.759080 1_455
F14 K3 2.832112 1_555
F15 K7 2.753283 1_655
F15 K0 2.758890 1_545
F15 K2 2.833608 1_555
F16 K7 2.707832 1_555
F16 K6 2.812222 1_555
F16 K0 2.900612 1_555
F17 K6 2.709435 1_555
F17 K7 2.811845 1_655
F17 K1 2.898934 1_545
F18 K5 2.687713 1_555
F18 K4 2.730713 1_556
F18 K2 2.816834 1_565
F19 K4 2.688163 1_555
F19 K5 2.730032 1_454
F19 K3 2.817158 1_555
F20 K4 2.653305 1_556
F20 K0 2.666918 1_555
F20 K2 2.692907 1_555
F20 K5 2.926531 1_555
F21 K5 2.652768 1_454
F21 K1 2.666284 1_455
F21 K3 2.692064 1_565
F21 K4 2.928496 1_555
F22 K2 2.641279 1_555
F22 K6 2.658494 1_555
F22 K0 2.711861 1_545
F22 K7 2.913908 1_555
F23 K3 2.641404 1_655
F23 K7 2.658316 1_655
F23 K1 2.711327 1_555
F23 K6 2.912771 1_555
