# generated using pymatgen
data_PrRuO3
_symmetry_space_group_name_H-M   'P 1'
_cell_length_a   5.38091500
_cell_length_b   5.98659900
_cell_length_c   7.85229300
_cell_angle_alpha   90.00000000
_cell_angle_beta   90.00000000
_cell_angle_gamma   90.00000000
_symmetry_Int_Tables_number   1
_chemical_formula_structural   PrRuO3
_chemical_formula_sum   'Pr4 Ru4 O12'
_cell_volume   252.94890109
_cell_formula_units_Z   4
loop_
 _symmetry_equiv_pos_site_id
 _symmetry_equiv_pos_as_xyz
  1  'x, y, z'
loop_
 _atom_site_type_symbol
 _atom_site_label
 _atom_site_symmetry_multiplicity
 _atom_site_fract_x
 _atom_site_fract_y
 _atom_site_fract_z
 _atom_site_occupancy
  Pr  Pr0  1  0.02685100  0.92463700  0.75000000  1
  Pr  Pr1  1  0.52685100  0.57536300  0.25000000  1
  Pr  Pr2  1  0.47314900  0.42463700  0.75000000  1
  Pr  Pr3  1  0.97314900  0.07536300  0.25000000  1
  Ru  Ru0  1  0.50000000  0.00000000  0.50000000  1
  Ru  Ru1  1  0.00000000  0.50000000  0.50000000  1
  Ru  Ru2  1  0.00000000  0.50000000  0.00000000  1
  Ru  Ru3  1  0.50000000  0.00000000  0.00000000  1
  O  O0  1  0.89444200  0.53653400  0.75000000  1
  O  O1  1  0.39444200  0.96346600  0.25000000  1
  O  O2  1  0.60555800  0.03653400  0.75000000  1
  O  O3  1  0.10555800  0.46346600  0.25000000  1
  O  O4  1  0.68431900  0.30258400  0.44900600  1
  O  O5  1  0.18431900  0.19741600  0.55099400  1
  O  O6  1  0.81568100  0.80258400  0.05099400  1
  O  O7  1  0.31568100  0.69741600  0.94900600  1
  O  O8  1  0.68431900  0.30258400  0.05099400  1
  O  O9  1  0.18431900  0.19741600  0.94900600  1
  O  O10  1  0.81568100  0.80258400  0.44900600  1
  O  O11  1  0.31568100  0.69741600  0.55099400  1
loop_
_geom_bond_atom_site_label_1
_geom_bond_atom_site_label_2
_geom_bond_distance
_geom_bond_site_symmetry_2
O0 Ru2 2.055265 1_656
O0 Ru1 2.055265 1_655
O0 Pr2 2.363846 1_555
O0 Pr0 2.430205 1_655
O1 Ru0 2.055265 1_565
O1 Ru3 2.055265 1_565
O1 Pr3 2.363846 1_465
O1 Pr1 2.430205 1_555
O2 Ru0 2.055265 1_555
O2 Ru3 2.055265 1_556
O2 Pr0 2.363846 1_645
O2 Pr2 2.430205 1_555
O3 Ru2 2.055265 1_555
O3 Ru1 2.055265 1_555
O3 Pr1 2.363846 1_555
O3 Pr3 2.430205 1_455
O4 Ru0 2.103654 1_555
O4 Ru1 2.107730 1_655
O4 Pr1 2.413833 1_555
O4 Pr3 2.589922 1_555
O4 Pr2 2.722342 1_555
O5 Ru1 2.103654 1_555
O5 Ru0 2.107730 1_555
O5 Pr0 2.413833 1_545
O5 Pr2 2.589922 1_555
O5 Pr3 2.722342 1_455
O6 Ru2 2.103654 1_655
O6 Ru3 2.107730 1_565
O6 Pr3 2.413833 1_565
O6 Pr1 2.589922 1_555
O6 Pr0 2.722342 1_654
O7 Ru3 2.103654 1_566
O7 Ru2 2.107730 1_556
O7 Pr2 2.413833 1_555
O7 Pr0 2.589922 1_555
O7 Pr1 2.722342 1_556
O8 Ru3 2.103654 1_555
O8 Ru2 2.107730 1_655
O8 Pr1 2.413833 1_555
O8 Pr3 2.589922 1_555
O8 Pr2 2.722342 1_554
O9 Ru2 2.103654 1_556
O9 Ru3 2.107730 1_556
O9 Pr0 2.413833 1_545
O9 Pr2 2.589922 1_555
O9 Pr3 2.722342 1_456
O10 Ru1 2.103654 1_655
O10 Ru0 2.107730 1_565
O10 Pr3 2.413833 1_565
O10 Pr1 2.589922 1_555
O10 Pr0 2.722342 1_655
O11 Ru0 2.103654 1_565
O11 Ru1 2.107730 1_555
O11 Pr2 2.413833 1_555
O11 Pr0 2.589922 1_555
O11 Pr1 2.722342 1_555
