# generated using pymatgen
data_Na6Mg2Zn2SiS5O24
_symmetry_space_group_name_H-M   'P 1'
_cell_length_a   9.05604509
_cell_length_b   8.98626303
_cell_length_c   21.98686939
_cell_angle_alpha   89.20578102
_cell_angle_beta   90.31134956
_cell_angle_gamma   120.15605358
_symmetry_Int_Tables_number   1
_chemical_formula_structural   Na6Mg2Zn2SiS5O24
_chemical_formula_sum   'Na18 Mg6 Zn6 Si3 S15 O72'
_cell_volume   1546.97839224
_cell_formula_units_Z   3
loop_
 _symmetry_equiv_pos_site_id
 _symmetry_equiv_pos_as_xyz
  1  'x, y, z'
loop_
 _atom_site_type_symbol
 _atom_site_label
 _atom_site_symmetry_multiplicity
 _atom_site_fract_x
 _atom_site_fract_y
 _atom_site_fract_z
 _atom_site_occupancy
  Na  Na0  1  0.62570253  -0.00000481  0.25049302  1
  Na  Na1  1  0.35889334  0.34238032  0.25301054  1
  Na  Na2  1  0.01380341  0.65362992  0.24568843  1
  Na  Na3  1  0.63367971  0.64413777  0.74189247  1
  Na  Na4  1  0.98633835  0.35076357  0.75514217  1
  Na  Na5  1  0.37326014  0.00134562  0.75042521  1
  Na  Na6  1  0.31363241  0.34159258  0.58592705  1
  Na  Na7  1  0.02012797  0.69719995  0.57831872  1
  Na  Na8  1  0.66994552  0.95872649  0.58795943  1
  Na  Na9  1  0.29873391  0.96854346  0.09060020  1
  Na  Na10  1  0.70008428  0.03212759  0.91035531  1
  Na  Na11  1  0.70168759  0.66567004  0.42318778  1
  Na  Na12  1  0.00179065  0.00233171  0.49781006  1
  Na  Na13  1  0.00043254  0.00034456  0.00039370  1
  Na  Na14  1  0.66695781  0.33632314  0.83354689  1
  Na  Na15  1  0.64611071  0.30454443  0.33575948  1
  Na  Na16  1  0.33079523  0.66622225  0.16625804  1
  Na  Na17  1  0.35448602  0.67562393  0.66721252  1
  Mg  Mg0  1  0.99307135  0.00216236  0.85070154  1
  Mg  Mg1  1  0.00308398  0.99819522  0.15025753  1
  Mg  Mg2  1  0.66364258  0.33184539  0.18106931  1
  Mg  Mg3  1  0.66929959  0.33941812  0.98434930  1
  Mg  Mg4  1  0.33070505  0.66002391  0.01645646  1
  Mg  Mg5  1  0.33135640  0.67473139  0.31822433  1
  Zn  Zn0  1  0.02349738  0.01093073  0.34595396  1
  Zn  Zn1  1  0.96885607  0.97668689  0.65411836  1
  Zn  Zn2  1  0.66415569  0.33057001  0.68052752  1
  Zn  Zn3  1  0.67105696  0.33919152  0.48635691  1
  Zn  Zn4  1  0.34451723  0.66673999  0.51362251  1
  Zn  Zn5  1  0.34412543  0.67354686  0.82179441  1
  Si  Si0  1  0.30218917  0.00069896  0.24666058  1
  Si  Si1  1  0.69550726  0.00250881  0.75174882  1
  Si  Si2  1  0.66677748  0.62963627  0.58212864  1
  S  S0  1  0.70451116  0.70446761  0.25140281  1
  S  S1  1  0.99825148  0.29299554  0.24941016  1
  S  S2  1  0.28880516  0.29057884  0.75002716  1
  S  S3  1  0.00433036  0.70797518  0.75184286  1
  S  S4  1  0.96709365  0.33497181  0.58304222  1
  S  S5  1  0.36713165  0.03416263  0.58268911  1
  S  S6  1  0.96274772  0.63017854  0.08313382  1
  S  S7  1  0.66841683  0.03513910  0.08206759  1
  S  S8  1  0.37008530  0.33583798  0.08316243  1
  S  S9  1  0.63135358  0.66398337  0.91716693  1
  S  S10  1  0.03805228  0.37151148  0.91654873  1
  S  S11  1  0.33242756  0.96764262  0.91868722  1
  S  S12  1  0.63820346  0.97015333  0.41606310  1
  S  S13  1  0.32910753  0.36697709  0.41603113  1
  S  S14  1  0.03457159  0.66357615  0.41685685  1
  O  O0  1  0.21896939  0.04954821  0.30338788  1
  O  O1  1  0.80127337  0.77642178  0.30872566  1
  O  O2  1  0.95398753  0.18090379  0.30453503  1
  O  O3  1  0.19875207  0.17765773  0.80264809  1
  O  O4  1  0.98977369  0.80396296  0.80311148  1
  O  O5  1  0.81680269  0.03598468  0.81080178  1
  O  O6  1  0.77173728  0.96475683  0.69005124  1
  O  O7  1  0.19699481  0.21213625  0.69206681  1
  O  O8  1  0.03723133  0.80809451  0.69327910  1
  O  O9  1  0.78664145  0.82371406  0.19944658  1
  O  O10  1  0.02290849  0.20935787  0.19596530  1
  O  O11  1  0.18123691  0.96240041  0.18657066  1
  O  O12  1  0.89206693  0.35584849  0.64044707  1
  O  O13  1  0.46999609  0.10233080  0.63955006  1
  O  O14  1  0.63445566  0.50960451  0.64349386  1
  O  O15  1  0.88337448  0.53360830  0.14065620  1
  O  O16  1  0.64571110  0.11976185  0.13627956  1
  O  O17  1  0.46616136  0.35543396  0.14067943  1
  O  O18  1  0.46109621  0.31161413  0.03167961  1
  O  O19  1  0.85856872  0.53641318  0.03020251  1
  O  O20  1  0.68793915  0.13886980  0.02610401  1
  O  O21  1  0.45689797  0.14344573  0.52923179  1
  O  O22  1  0.69694061  0.54573767  0.52125318  1
  O  O23  1  0.85017584  0.29921330  0.53102423  1
  O  O24  1  0.53818357  0.68912638  0.96737516  1
  O  O25  1  0.14343647  0.46473011  0.96891508  1
  O  O26  1  0.31322725  0.86013033  0.97324411  1
  O  O27  1  0.55585605  0.86504931  0.47236198  1
  O  O28  1  0.31835852  0.44898567  0.47337205  1
  O  O29  1  0.13305500  0.67668928  0.47319675  1
  O  O30  1  0.12487548  0.65711534  0.36170087  1
  O  O31  1  0.53377878  0.88291315  0.36138379  1
  O  O32  1  0.34560499  0.47733639  0.36219336  1
  O  O33  1  0.11512313  0.46754294  0.85838722  1
  O  O34  1  0.35877819  0.88968966  0.86290311  1
  O  O35  1  0.53766056  0.63973361  0.85845228  1
  O  O36  1  0.00936460  0.81601386  0.41502763  1
  O  O37  1  0.80723303  0.97982038  0.41202121  1
  O  O38  1  0.17323253  0.19587691  0.41385891  1
  O  O39  1  0.01913498  0.19610982  0.91580290  1
  O  O40  1  0.18038196  0.98751727  0.91317570  1
  O  O41  1  0.80311566  0.82410122  0.91390435  1
  O  O42  1  -0.00000733  0.18874025  0.58706023  1
  O  O43  1  0.19996642  0.02696825  0.58726169  1
  O  O44  1  0.84102329  0.82183496  0.58496264  1
  O  O45  1  0.98011982  0.80427651  0.08369003  1
  O  O46  1  0.81910334  0.01340104  0.08802496  1
  O  O47  1  0.19744584  0.17770093  0.08610039  1
  O  O48  1  0.67718870  0.17742535  0.74463330  1
  O  O49  1  0.46418461  0.31568339  0.75018185  1
  O  O50  1  0.84327627  0.53881429  0.74941926  1
  O  O51  1  0.69429983  0.53469046  0.24264943  1
  O  O52  1  0.85465190  0.32767315  0.24072015  1
  O  O53  1  0.49723049  0.16999180  0.24181361  1
  O  O54  1  0.65211818  0.51174433  0.92557145  1
  O  O55  1  0.86102803  0.34628627  0.92054154  1
  O  O56  1  0.49282604  0.13984034  0.92357269  1
  O  O57  1  0.65608883  0.14300968  0.42009994  1
  O  O58  1  0.48746334  0.35436809  0.41651149  1
  O  O59  1  0.86223560  0.50510849  0.41739763  1
  O  O60  1  0.35221222  0.49042991  0.07592209  1
  O  O61  1  0.13930314  0.65418330  0.07950845  1
  O  O62  1  0.50687296  0.86332571  0.07805292  1
  O  O63  1  0.33708017  0.85554187  0.57704258  1
  O  O64  1  0.49538231  0.65202418  0.57859119  1
  O  O65  1  0.13397406  0.49798649  0.57560818  1
  O  O66  1  0.32050692  0.82690891  0.25476958  1
  O  O67  1  0.52637546  0.67353546  0.25613754  1
  O  O68  1  0.15940209  0.46215063  0.25668814  1
  O  O69  1  0.30033900  0.46208678  0.75410980  1
  O  O70  1  0.15094096  0.67831579  0.75811660  1
  O  O71  1  0.50251450  0.82877676  0.75735572  1
loop_
_geom_bond_atom_site_label_1
_geom_bond_atom_site_label_2
_geom_bond_distance
_geom_bond_site_symmetry_2
Na0 O53 2.344974 1_555
Na0 O66 2.397217 1_545
Na0 O67 2.602051 1_545
Na0 O31 2.610644 1_545
Na0 O52 2.620876 1_555
Na0 O16 2.689117 1_555
Na0 O2 2.837692 1_555
Na0 O9 2.877505 1_545
Na1 O53 2.448200 1_555
Na1 O0 2.518218 1_555
Na1 O68 2.527119 1_555
Na1 O67 2.574989 1_555
Na1 O17 2.638359 1_555
Na1 O51 2.643335 1_555
Na1 O32 2.734694 1_555
Na1 O10 2.933569 1_555
Na2 O66 2.415861 1_555
Na2 O51 2.532107 1_455
Na2 O52 2.536651 1_455
Na2 O15 2.578930 1_455
Na2 O68 2.649964 1_555
Na2 O11 2.716972 1_555
Na2 O30 2.731624 1_555
Na3 O14 2.494686 1_555
Na3 O71 2.505941 1_555
Na3 O50 2.514605 1_555
Na3 O49 2.556824 1_555
Na3 O69 2.626055 1_555
Na3 O35 2.704143 1_555
Na3 O6 2.732899 1_555
Na4 O48 2.437071 1_555
Na4 O69 2.495864 1_655
Na4 O33 2.534191 1_655
Na4 O70 2.546810 1_655
Na4 O50 2.596543 1_555
Na4 O12 2.665135 1_555
Na4 O5 2.723482 1_555
Na5 O71 2.369274 1_545
Na5 O48 2.391261 1_555
Na5 O49 2.513929 1_555
Na5 O70 2.574240 1_545
Na5 O13 2.587851 1_555
Na5 O34 2.634841 1_545
Na6 O64 2.427825 1_555
Na6 O42 2.456594 1_555
Na6 O43 2.475490 1_555
Na6 O7 2.575278 1_555
Na6 O28 2.636460 1_555
Na6 O65 2.637845 1_555
Na6 O14 2.815776 1_555
Na6 O21 2.967812 1_555
Na7 O44 2.395592 1_455
Na7 O65 2.475734 1_555
Na7 O63 2.482048 1_555
Na7 O43 2.576123 1_565
Na7 O29 2.578533 1_555
Na7 O8 2.704886 1_555
Na7 O22 2.828072 1_455
Na8 O64 2.402564 1_555
Na8 O6 2.412880 1_555
Na8 O44 2.415797 1_555
Na8 O42 2.645521 1_665
Na8 O63 2.682214 1_555
Na8 O27 2.718993 1_555
Na8 O23 2.913994 1_565
Na8 O13 2.939630 1_565
Na9 O11 2.355823 1_555
Na9 O61 2.457976 1_555
Na9 O47 2.471819 1_565
Na9 O45 2.499931 1_455
Na9 O62 2.515256 1_555
Na9 O26 2.797517 1_554
Na9 O16 2.905585 1_565
Na9 O18 2.949618 1_565
Na10 O5 2.428138 1_555
Na10 O55 2.454451 1_555
Na10 O41 2.473639 1_545
Na10 O39 2.501489 1_655
Na10 O56 2.526520 1_555
Na10 O20 2.754212 1_556
Na10 O34 2.882272 1_545
Na10 O24 2.931608 1_545
Na11 O22 2.387971 1_555
Na11 O36 2.416131 1_655
Na11 O58 2.483248 1_555
Na11 O37 2.493132 1_555
Na11 O59 2.515298 1_555
Na11 O1 2.681582 1_555
Na11 O27 2.927415 1_555
Na12 O44 2.448256 1_445
Na12 O38 2.464073 1_555
Na12 O37 2.513863 1_445
Na12 O36 2.514373 1_545
Na12 O43 2.590865 1_555
Na12 O42 2.603057 1_555
Na13 O45 2.465945 1_445
Na13 O39 2.489177 1_554
Na13 O47 2.542470 1_555
Na13 O41 2.553574 1_444
Na13 O40 2.564213 1_544
Na13 O46 2.580095 1_455
Na14 O48 2.466071 1_555
Na14 O50 2.510315 1_555
Na14 O49 2.529187 1_555
Na14 O55 2.562332 1_555
Na14 O56 2.581049 1_555
Na14 O54 2.627001 1_555
Na15 O57 2.368410 1_555
Na15 O53 2.438744 1_555
Na15 O58 2.472451 1_555
Na15 O59 2.609282 1_555
Na15 O52 2.759136 1_555
Na15 O51 2.764825 1_555
Na16 O66 2.469019 1_555
Na16 O61 2.537378 1_555
Na16 O62 2.557676 1_555
Na16 O68 2.607301 1_555
Na16 O60 2.622429 1_555
Na16 O67 2.625884 1_555
Na17 O64 2.404180 1_555
Na17 O71 2.410908 1_555
Na17 O69 2.556596 1_555
Na17 O63 2.594836 1_555
Na17 O65 2.726765 1_555
Na17 O70 2.734841 1_555
Mg0 O5 1.968500 1_555
Mg0 O3 2.024031 1_655
Mg0 O4 2.065395 1_545
Mg0 O41 2.156258 1_545
Mg0 O39 2.189587 1_655
Mg0 O40 2.230582 1_645
Mg1 O11 1.960649 1_555
Mg1 O10 2.086042 1_565
Mg1 O9 2.087665 1_455
Mg1 O47 2.191176 1_565
Mg1 O46 2.205835 1_465
Mg1 O45 2.219317 1_455
Mg2 O53 1.983971 1_555
Mg2 O16 2.089915 1_555
Mg2 O15 2.094331 1_555
Mg2 O17 2.095312 1_555
Mg2 O52 2.180101 1_555
Mg2 O51 2.188336 1_555
Mg3 O19 2.017478 1_556
Mg3 O18 2.059435 1_556
Mg3 O54 2.068052 1_555
Mg3 O20 2.092191 1_556
Mg3 O56 2.172498 1_555
Mg3 O55 2.214312 1_555
Mg4 O25 2.022358 1_554
Mg4 O24 2.069748 1_554
Mg4 O60 2.076113 1_555
Mg4 O26 2.097205 1_554
Mg4 O62 2.198588 1_555
Mg4 O61 2.204950 1_555
Mg5 O66 1.976574 1_555
Mg5 O30 2.037936 1_555
Mg5 O32 2.068534 1_555
Mg5 O31 2.084576 1_555
Mg5 O68 2.228173 1_555
Mg5 O67 2.242407 1_555
O0 Si0 1.635268 1_555
O0 Zn0 1.876631 1_555
O1 S0 1.488543 1_555
O1 Zn0 2.220344 1_665
O2 S1 1.486629 1_555
O2 Zn0 2.116559 1_655
O3 S2 1.476352 1_555
O4 S3 1.474749 1_655
O5 Si1 1.626729 1_555
O6 Si1 1.640150 1_565
O6 Zn1 1.908669 1_555
O7 S2 1.495571 1_555
O7 Zn1 2.253793 1_445
O8 S3 1.502982 1_555
O8 Zn1 2.078612 1_455
O9 S0 1.476816 1_555
O10 S1 1.480381 1_455
O11 Si0 1.637651 1_565
O12 S4 1.494598 1_555
O12 Zn2 2.152055 1_555
O13 S5 1.497082 1_555
O13 Zn2 2.126209 1_555
O14 Si2 1.648116 1_555
O14 Zn2 1.928684 1_555
O15 S6 1.490657 1_555
O16 S7 1.492044 1_555
O17 S8 1.492504 1_555
O18 S8 1.484998 1_555
O19 S6 1.473446 1_555
O20 S7 1.489696 1_555
O21 S5 1.477506 1_555
O21 Zn3 2.071359 1_555
O22 Si2 1.635046 1_555
O22 Zn3 1.920693 1_555
O23 S4 1.479057 1_555
O23 Zn3 2.069592 1_555
O24 S9 1.479927 1_555
O25 S10 1.466205 1_555
O26 S11 1.484550 1_555
O27 S12 1.500130 1_555
O27 Zn4 2.051590 1_555
O28 S13 1.497071 1_555
O28 Zn4 2.061155 1_555
O29 S14 1.493398 1_555
O29 Zn4 2.148630 1_555
O30 S14 1.484336 1_555
O31 S12 1.491024 1_555
O32 S13 1.492495 1_555
O33 S10 1.497034 1_555
O33 Zn5 2.120087 1_555
O34 S11 1.498983 1_555
O34 Zn5 2.096559 1_555
O35 S9 1.498032 1_555
O35 Zn5 2.080072 1_555
O36 S14 1.497582 1_555
O36 Zn0 2.256993 1_565
O37 S12 1.492069 1_555
O37 Zn0 2.343824 1_665
O38 S13 1.476360 1_555
O38 Zn0 2.147681 1_555
O39 S10 1.497807 1_555
O40 S11 1.478914 1_555
O41 S9 1.498224 1_555
O42 S4 1.487687 1_455
O42 Zn1 2.295936 1_445
O43 S5 1.486334 1_555
O43 Zn1 2.410452 1_445
O44 Si2 1.655477 1_555
O44 Zn1 2.002383 1_555
O45 S6 1.491894 1_555
O46 S7 1.477393 1_555
O47 S8 1.494742 1_555
O48 Si1 1.666609 1_555
O48 Zn2 2.000528 1_555
O49 S2 1.487749 1_555
O49 Zn2 2.328931 1_555
O50 S3 1.488189 1_655
O50 Zn2 2.330145 1_555
O51 S0 1.496474 1_555
O52 S1 1.492507 1_555
O53 Si0 1.656309 1_555
O54 S9 1.480601 1_555
O55 S10 1.504996 1_655
O56 S11 1.503524 1_545
O57 S12 1.482511 1_545
O57 Zn3 2.253333 1_555
O58 S13 1.494185 1_555
O58 Zn3 2.309876 1_555
O59 S14 1.493497 1_655
O59 Zn3 2.211713 1_555
O60 S8 1.483554 1_555
O61 S6 1.504569 1_455
O62 S7 1.504931 1_565
O63 S5 1.494053 1_565
O63 Zn4 2.238047 1_555
O64 Si2 1.663649 1_555
O64 Zn4 2.019819 1_555
O65 S4 1.492762 1_455
O65 Zn4 2.204185 1_555
O66 Si0 1.658474 1_565
O67 S0 1.497006 1_555
O68 S1 1.497134 1_455
O69 S2 1.495428 1_555
O69 Zn5 2.301677 1_555
O70 S3 1.485063 1_555
O70 Zn5 2.251621 1_555
O71 Si1 1.662148 1_565
O71 Zn5 1.991890 1_555
