# generated using pymatgen
data_Na3Nb4Zn2(PO4)9
_symmetry_space_group_name_H-M   'P 1'
_cell_length_a   8.76915606
_cell_length_b   8.76915578
_cell_length_c   22.82726784
_cell_angle_alpha   90.00000000
_cell_angle_beta   90.00000000
_cell_angle_gamma   120.00000107
_symmetry_Int_Tables_number   1
_chemical_formula_structural   Na3Nb4Zn2(PO4)9
_chemical_formula_sum   'Na6 Nb8 Zn4 P18 O72'
_cell_volume   1520.19796081
_cell_formula_units_Z   2
loop_
 _symmetry_equiv_pos_site_id
 _symmetry_equiv_pos_as_xyz
  1  'x, y, z'
loop_
 _atom_site_type_symbol
 _atom_site_label
 _atom_site_symmetry_multiplicity
 _atom_site_fract_x
 _atom_site_fract_y
 _atom_site_fract_z
 _atom_site_occupancy
  Na  Na0  1  -0.00000000  -0.00000000  0.49448469  1
  Na  Na1  1  -0.00000000  -0.00000000  0.99448469  1
  Na  Na2  1  0.66666700  0.33333300  0.82484919  1
  Na  Na3  1  0.66666700  0.33333300  0.32484919  1
  Na  Na4  1  0.33333300  0.66666700  0.16697178  1
  Na  Na5  1  0.33333300  0.66666700  0.66697178  1
  Nb  Nb0  1  -0.00000000  -0.00000000  0.64903463  1
  Nb  Nb1  1  -0.00000000  -0.00000000  0.14903463  1
  Nb  Nb2  1  0.66666700  0.33333300  0.97871090  1
  Nb  Nb3  1  0.66666700  0.33333300  0.47871090  1
  Nb  Nb4  1  0.33333300  0.66666700  0.02007498  1
  Nb  Nb5  1  0.33333300  0.66666700  0.52007498  1
  Nb  Nb6  1  0.33333300  0.66666700  0.30920769  1
  Nb  Nb7  1  0.33333300  0.66666700  0.80920769  1
  Zn  Zn0  1  -0.00000000  -0.00000000  0.35201590  1
  Zn  Zn1  1  -0.00000000  -0.00000000  0.85201590  1
  Zn  Zn2  1  0.66666700  0.33333300  0.68559143  1
  Zn  Zn3  1  0.66666700  0.33333300  0.18559143  1
  P  P0  1  0.29273088  0.00742728  0.25269636  1
  P  P1  1  0.71469640  0.70726912  0.25269636  1
  P  P2  1  0.99257272  0.28530360  0.25269636  1
  P  P3  1  0.29273088  0.28530360  0.75269636  1
  P  P4  1  0.99257272  0.70726912  0.75269636  1
  P  P5  1  0.71469640  0.00742728  0.75269636  1
  P  P6  1  0.95340084  0.33219053  0.58469576  1
  P  P7  1  0.37879070  0.04659916  0.58469576  1
  P  P8  1  0.66780947  0.62120930  0.58469576  1
  P  P9  1  0.95340084  0.62120930  0.08469576  1
  P  P10  1  0.66780947  0.04659916  0.08469576  1
  P  P11  1  0.37879070  0.33219053  0.08469576  1
  P  P12  1  0.62460513  0.67030530  0.91612212  1
  P  P13  1  0.04569917  0.37539487  0.91612212  1
  P  P14  1  0.32969470  0.95430083  0.91612212  1
  P  P15  1  0.62460513  0.95430083  0.41612212  1
  P  P16  1  0.32969470  0.37539487  0.41612212  1
  P  P17  1  0.04569917  0.67030530  0.41612212  1
  O  O0  1  0.20787080  0.02743439  0.30641991  1
  O  O1  1  0.81956359  0.79212920  0.30641991  1
  O  O2  1  0.97256561  0.18043641  0.30641991  1
  O  O3  1  0.20787080  0.18043641  0.80641991  1
  O  O4  1  0.97256561  0.79212920  0.80641991  1
  O  O5  1  0.81956359  0.02743439  0.80641991  1
  O  O6  1  0.80044664  0.97065282  0.69567954  1
  O  O7  1  0.17020618  0.19955336  0.69567954  1
  O  O8  1  0.02934718  0.82979382  0.69567954  1
  O  O9  1  0.80044664  0.82979382  0.19567954  1
  O  O10  1  0.02934718  0.19955336  0.19567954  1
  O  O11  1  0.17020618  0.97065282  0.19567954  1
  O  O12  1  0.88256715  0.37075686  0.63839475  1
  O  O13  1  0.48819071  0.11743285  0.63839475  1
  O  O14  1  0.62924314  0.51180929  0.63839475  1
  O  O15  1  0.88256715  0.51180929  0.13839475  1
  O  O16  1  0.62924314  0.11743285  0.13839475  1
  O  O17  1  0.48819071  0.37075686  0.13839475  1
  O  O18  1  0.46693193  0.30582225  0.02832503  1
  O  O19  1  0.83889132  0.53306807  0.02832503  1
  O  O20  1  0.69417775  0.16110868  0.02832503  1
  O  O21  1  0.46693193  0.16110868  0.52832503  1
  O  O22  1  0.69417775  0.53306807  0.52832503  1
  O  O23  1  0.83889132  0.30582225  0.52832503  1
  O  O24  1  0.52604739  0.68526518  0.97116680  1
  O  O25  1  0.15921679  0.47395261  0.97116680  1
  O  O26  1  0.31473482  0.84078321  0.97116680  1
  O  O27  1  0.52604739  0.84078321  0.47116680  1
  O  O28  1  0.31473482  0.47395261  0.47116680  1
  O  O29  1  0.15921679  0.68526518  0.47116680  1
  O  O30  1  0.13241388  0.63601412  0.36214397  1
  O  O31  1  0.50359924  0.86758612  0.36214397  1
  O  O32  1  0.36398588  0.49640076  0.36214397  1
  O  O33  1  0.13241388  0.49640076  0.86214397  1
  O  O34  1  0.36398588  0.86758612  0.86214397  1
  O  O35  1  0.50359924  0.63601412  0.86214397  1
  O  O36  1  0.02563880  0.82950335  0.41365690  1
  O  O37  1  0.80386454  0.97436120  0.41365690  1
  O  O38  1  0.17049665  0.19613546  0.41365690  1
  O  O39  1  0.02563880  0.19613546  0.91365690  1
  O  O40  1  0.17049665  0.97436120  0.91365690  1
  O  O41  1  0.80386454  0.82950335  0.91365690  1
  O  O42  1  0.97590052  0.16716663  0.58913307  1
  O  O43  1  0.19126610  0.02409948  0.58913307  1
  O  O44  1  0.83283337  0.80873390  0.58913307  1
  O  O45  1  0.97590052  0.80873390  0.08913307  1
  O  O46  1  0.83283337  0.02409948  0.08913307  1
  O  O47  1  0.19126610  0.16716663  0.08913307  1
  O  O48  1  0.68323551  0.15877483  0.74280139  1
  O  O49  1  0.47554031  0.31676449  0.74280139  1
  O  O50  1  0.84122517  0.52445969  0.74280139  1
  O  O51  1  0.68323551  0.52445969  0.24280139  1
  O  O52  1  0.84122517  0.31676449  0.24280139  1
  O  O53  1  0.47554031  0.15877483  0.24280139  1
  O  O54  1  0.63386147  0.49703689  0.92525048  1
  O  O55  1  0.86317643  0.36613853  0.92525048  1
  O  O56  1  0.50296311  0.13682357  0.92525048  1
  O  O57  1  0.63386147  0.13682357  0.42525048  1
  O  O58  1  0.50296311  0.36613853  0.42525048  1
  O  O59  1  0.86317643  0.49703689  0.42525048  1
  O  O60  1  0.35162777  0.49376456  0.07254608  1
  O  O61  1  0.14213579  0.64837223  0.07254608  1
  O  O62  1  0.50623544  0.85786421  0.07254608  1
  O  O63  1  0.35162777  0.85786421  0.57254608  1
  O  O64  1  0.50623544  0.64837223  0.57254608  1
  O  O65  1  0.14213579  0.49376456  0.57254608  1
  O  O66  1  0.30176051  0.82925630  0.25732078  1
  O  O67  1  0.52749480  0.69823949  0.25732078  1
  O  O68  1  0.17074370  0.47250520  0.25732078  1
  O  O69  1  0.30176051  0.47250520  0.75732078  1
  O  O70  1  0.17074370  0.69823949  0.75732078  1
  O  O71  1  0.52749480  0.82925630  0.75732078  1
loop_
_geom_bond_atom_site_label_1
_geom_bond_atom_site_label_2
_geom_bond_distance
_geom_bond_site_symmetry_2
Na0 O36 2.454866 1_545
Na0 O38 2.454866 1_555
Na0 O37 2.454866 1_445
Na0 O44 2.677944 1_445
Na0 O43 2.677944 1_555
Na0 O42 2.677944 1_455
Na1 O40 2.454866 1_545
Na1 O41 2.454866 1_445
Na1 O39 2.454866 1_555
Na1 O45 2.677944 1_446
Na1 O47 2.677944 1_556
Na1 O46 2.677944 1_456
Na2 O48 2.468703 1_555
Na2 O50 2.468703 1_555
Na2 O49 2.468703 1_555
Na2 O54 2.794507 1_555
Na2 O56 2.794507 1_555
Na2 O55 2.794507 1_555
Na3 O52 2.468703 1_555
Na3 O53 2.468703 1_555
Na3 O51 2.468703 1_555
Na3 O58 2.794507 1_555
Na3 O59 2.794507 1_555
Na3 O57 2.794507 1_555
Na4 O66 2.599577 1_555
Na4 O68 2.599577 1_555
Na4 O67 2.599577 1_555
Na4 O62 2.685883 1_555
Na4 O60 2.685883 1_555
Na4 O61 2.685883 1_555
Na5 O70 2.599577 1_555
Na5 O71 2.599577 1_555
Na5 O69 2.599577 1_555
Na5 O63 2.685883 1_555
Na5 O65 2.685883 1_555
Na5 O64 2.685883 1_555
Nb0 O7 1.952393 1_555
Nb0 O8 1.952393 1_545
Nb0 O6 1.952393 1_445
Nb0 O44 2.091196 1_445
Nb0 O43 2.091196 1_555
Nb0 O42 2.091196 1_455
Nb1 O10 1.952393 1_555
Nb1 O9 1.952393 1_445
Nb1 O11 1.952393 1_545
Nb1 O45 2.091196 1_445
Nb1 O47 2.091196 1_555
Nb1 O46 2.091196 1_455
Nb2 O19 1.996526 1_556
Nb2 O20 1.996526 1_556
Nb2 O18 1.996526 1_556
Nb2 O54 2.011414 1_555
Nb2 O56 2.011414 1_555
Nb2 O55 2.011414 1_555
Nb3 O22 1.996526 1_555
Nb3 O21 1.996526 1_555
Nb3 O23 1.996526 1_555
Nb3 O58 2.011414 1_555
Nb3 O59 2.011414 1_555
Nb3 O57 2.011414 1_555
Nb4 O25 1.962990 1_554
Nb4 O26 1.962990 1_554
Nb4 O24 1.962990 1_554
Nb4 O62 2.000632 1_555
Nb4 O60 2.000632 1_555
Nb4 O61 2.000632 1_555
Nb5 O28 1.962990 1_555
Nb5 O27 1.962990 1_555
Nb5 O29 1.962990 1_555
Nb5 O63 2.000632 1_555
Nb5 O65 2.000632 1_555
Nb5 O64 2.000632 1_555
Nb6 O66 1.976641 1_555
Nb6 O68 1.976641 1_555
Nb6 O67 1.976641 1_555
Nb6 O31 2.040374 1_555
Nb6 O32 2.040374 1_555
Nb6 O30 2.040374 1_555
Nb7 O70 1.976641 1_555
Nb7 O71 1.976641 1_555
Nb7 O69 1.976641 1_555
Nb7 O34 2.040374 1_555
Nb7 O33 2.040374 1_555
Nb7 O35 2.040374 1_555
O0 P0 1.489652 1_555
O0 Zn0 2.006355 1_555
O1 P1 1.489652 1_555
O1 Zn0 2.006355 1_665
O2 P2 1.489652 1_555
O2 Zn0 2.006355 1_655
O3 P3 1.489652 1_555
O3 Zn1 2.006355 1_555
O4 P4 1.489652 1_555
O4 Zn1 2.006355 1_665
O5 P5 1.489652 1_555
O5 Zn1 2.006355 1_655
O6 P5 1.614288 1_565
O7 P3 1.614288 1_555
O8 P4 1.614288 1_455
O9 P1 1.614288 1_555
O10 P2 1.614288 1_455
O11 P0 1.614288 1_565
O12 P6 1.487570 1_555
O12 Zn2 2.057072 1_555
O13 P7 1.487570 1_555
O13 Zn2 2.057072 1_555
O14 P8 1.487570 1_555
O14 Zn2 2.057072 1_555
O15 P9 1.487570 1_555
O15 Zn3 2.057072 1_555
O16 P10 1.487570 1_555
O16 Zn3 2.057072 1_555
O17 P11 1.487570 1_555
O17 Zn3 2.057072 1_555
O18 P11 1.576524 1_555
O19 P9 1.576524 1_555
O20 P10 1.576524 1_555
O21 P7 1.576524 1_555
O22 P8 1.576524 1_555
O23 P6 1.576524 1_555
O24 P12 1.567288 1_555
O25 P13 1.567288 1_555
O26 P14 1.567288 1_555
O27 P15 1.567288 1_555
O28 P16 1.567288 1_555
O29 P17 1.567288 1_555
O30 P17 1.554209 1_555
O31 P15 1.554209 1_555
O32 P16 1.554209 1_555
O33 P13 1.554209 1_555
O34 P14 1.554209 1_555
O35 P12 1.554209 1_555
O36 P17 1.492849 1_555
O36 Zn0 2.145221 1_565
O37 P15 1.492858 1_555
O37 Zn0 2.145221 1_665
O38 P16 1.492854 1_555
O38 Zn0 2.145221 1_555
O39 P13 1.492858 1_555
O39 Zn1 2.145221 1_555
O40 P14 1.492849 1_555
O40 Zn1 2.145221 1_565
O41 P12 1.492854 1_555
O41 Zn1 2.145221 1_665
O42 P6 1.558482 1_555
O43 P7 1.558491 1_555
O44 P8 1.558488 1_555
O45 P9 1.558491 1_555
O46 P10 1.558482 1_555
O47 P11 1.558488 1_555
O48 P5 1.501572 1_555
O48 Zn2 2.071747 1_555
O49 P3 1.501581 1_555
O49 Zn2 2.071748 1_555
O50 P4 1.501578 1_555
O50 Zn2 2.071747 1_555
O51 P1 1.501581 1_555
O51 Zn3 2.071747 1_555
O52 P2 1.501572 1_555
O52 Zn3 2.071747 1_555
O53 P0 1.501578 1_555
O53 Zn3 2.071747 1_555
O54 P12 1.575427 1_555
O55 P13 1.575410 1_655
O56 P14 1.575418 1_545
O57 P15 1.575410 1_545
O58 P16 1.575427 1_555
O59 P17 1.575418 1_655
O60 P11 1.574377 1_555
O61 P9 1.574360 1_455
O62 P10 1.574367 1_565
O63 P7 1.574360 1_565
O64 P8 1.574377 1_555
O65 P6 1.574367 1_455
O66 P0 1.606938 1_565
O67 P1 1.606947 1_555
O68 P2 1.606943 1_455
O69 P3 1.606947 1_555
O70 P4 1.606938 1_455
O71 P5 1.606943 1_565
