# generated using pymatgen
data_BaMgTiO3
_symmetry_space_group_name_H-M   'P 1'
_cell_length_a   3.89603209
_cell_length_b   3.89603209
_cell_length_c   6.39411470
_cell_angle_alpha   90.00000000
_cell_angle_beta   90.00000000
_cell_angle_gamma   90.00000000
_symmetry_Int_Tables_number   1
_chemical_formula_structural   BaMgTiO3
_chemical_formula_sum   'Ba1 Mg1 Ti1 O3'
_cell_volume   97.05668934
_cell_formula_units_Z   1
loop_
 _symmetry_equiv_pos_site_id
 _symmetry_equiv_pos_as_xyz
  1  'x, y, z'
loop_
 _atom_site_type_symbol
 _atom_site_label
 _atom_site_symmetry_multiplicity
 _atom_site_fract_x
 _atom_site_fract_y
 _atom_site_fract_z
 _atom_site_occupancy
  Ba  Ba0  1  0.00000000  0.00000000  0.04406072  1
  Mg  Mg0  1  0.00000000  0.00000000  0.51868384  1
  Ti  Ti0  1  0.50000000  0.50000000  0.61454269  1
  O  O0  1  0.00000000  0.50000000  0.47112849  1
  O  O1  1  0.50000000  -0.00000000  0.47112849  1
  O  O2  1  0.50000000  0.50000000  0.91007977  1
loop_
_geom_bond_atom_site_label_1
_geom_bond_atom_site_label_2
_geom_bond_distance
_geom_bond_site_symmetry_2
Ba0 O2 2.885039 1_454
Ba0 O2 2.885039 1_544
Ba0 O2 2.885039 1_554
Ba0 O2 2.885039 1_444
Mg0 O0 1.971605 1_555
Mg0 O1 1.971605 1_455
Mg0 O0 1.971605 1_545
Mg0 O1 1.971605 1_555
O0 Ti0 2.153060 1_555
O0 Ti0 2.153060 1_455
O1 Ti0 2.153060 1_555
O1 Ti0 2.153060 1_545
O2 Ti0 1.889698 1_555
