# generated using pymatgen
data_Na6NbAl3Si2(PO6)4
_symmetry_space_group_name_H-M   'P 1'
_cell_length_a   8.72754608
_cell_length_b   8.74351464
_cell_length_c   21.75950253
_cell_angle_alpha   89.95412827
_cell_angle_beta   89.87435202
_cell_angle_gamma   119.77980674
_symmetry_Int_Tables_number   1
_chemical_formula_structural   Na6NbAl3Si2(PO6)4
_chemical_formula_sum   'Na18 Nb3 Al9 Si6 P12 O72'
_cell_volume   1441.16949506
_cell_formula_units_Z   3
loop_
 _symmetry_equiv_pos_site_id
 _symmetry_equiv_pos_as_xyz
  1  'x, y, z'
loop_
 _atom_site_type_symbol
 _atom_site_label
 _atom_site_symmetry_multiplicity
 _atom_site_fract_x
 _atom_site_fract_y
 _atom_site_fract_z
 _atom_site_occupancy
  Na  Na0  1  0.99906303  0.98985533  0.50263910  1
  Na  Na1  1  0.97908437  0.99101034  0.99707082  1
  Na  Na2  1  0.66333255  0.33494082  0.82762759  1
  Na  Na3  1  0.66390066  0.33949779  0.32910258  1
  Na  Na4  1  0.33511034  0.65882571  0.16298855  1
  Na  Na5  1  0.33084977  0.66512318  0.66308763  1
  Na  Na6  1  0.63807334  0.00628481  0.24560290  1
  Na  Na7  1  0.99843465  0.36086986  0.74574032  1
  Na  Na8  1  0.36422636  0.00287626  0.74944946  1
  Na  Na9  1  0.29977628  0.33287057  0.58757845  1
  Na  Na10  1  0.66787497  0.96690940  0.58491872  1
  Na  Na11  1  0.29579214  0.96509843  0.08462111  1
  Na  Na12  1  0.03323583  0.33466363  0.08271512  1
  Na  Na13  1  0.97179429  0.67495868  0.91367470  1
  Na  Na14  1  0.32791517  0.29553368  0.91299810  1
  Na  Na15  1  0.96338923  0.29673351  0.41743780  1
  Na  Na16  1  0.33516859  0.03588596  0.41435146  1
  Na  Na17  1  0.69956176  0.67019952  0.41882302  1
  Nb  Nb0  1  0.66770379  0.33100035  0.97842034  1
  Nb  Nb1  1  0.33213682  0.67167618  0.30916766  1
  Nb  Nb2  1  0.33986322  0.66297324  0.81140078  1
  Al  Al0  1  0.99784242  0.99902896  0.35012799  1
  Al  Al1  1  0.00204592  0.00299071  0.85404781  1
  Al  Al2  1  0.00127020  0.99707611  0.64755454  1
  Al  Al3  1  0.99848348  0.99447146  0.14843839  1
  Al  Al4  1  0.66503970  0.33926609  0.68503829  1
  Al  Al5  1  0.66157378  0.33647179  0.18845050  1
  Al  Al6  1  0.66543742  0.33130881  0.48365408  1
  Al  Al7  1  0.33779442  0.66632497  0.01823673  1
  Al  Al8  1  0.33478921  0.67028563  0.52051116  1
  Si  Si0  1  0.28659294  0.01681544  0.24877786  1
  Si  Si1  1  0.28956715  0.27973293  0.74666396  1
  Si  Si2  1  0.63030999  0.68395293  0.92050476  1
  Si  Si3  1  0.04862571  0.37207838  0.91933061  1
  Si  Si4  1  0.32777061  0.94822856  0.91919316  1
  Si  Si5  1  0.63015954  0.96225958  0.42052466  1
  P  P0  1  0.72461474  0.71151481  0.24964595  1
  P  P1  1  0.99608572  0.28188469  0.24804084  1
  P  P2  1  0.98932747  0.71182364  0.74834801  1
  P  P3  1  0.72209626  0.00407440  0.74657783  1
  P  P4  1  0.95668045  0.33849934  0.58311644  1
  P  P5  1  0.37497673  0.04086259  0.58335654  1
  P  P6  1  0.67049222  0.62220533  0.58244506  1
  P  P7  1  0.95466855  0.62571103  0.08787412  1
  P  P8  1  0.66597371  0.03499649  0.08843947  1
  P  P9  1  0.37424203  0.33756209  0.08750820  1
  P  P10  1  0.33314971  0.37635981  0.42064728  1
  P  P11  1  0.04210420  0.66634391  0.42051809  1
  O  O0  1  0.19622805  0.02879446  0.31233944  1
  O  O1  1  0.82264036  0.79315063  0.31027755  1
  O  O2  1  0.96601268  0.17000638  0.30691462  1
  O  O3  1  0.20249287  0.16501021  0.80864359  1
  O  O4  1  0.97045484  0.79091062  0.80867711  1
  O  O5  1  0.83474603  0.02931137  0.80304595  1
  O  O6  1  0.79831220  0.97474761  0.68677603  1
  O  O7  1  0.16320113  0.19709033  0.68684605  1
  O  O8  1  0.02391854  0.83220613  0.69283872  1
  O  O9  1  0.80182004  0.83730658  0.19510866  1
  O  O10  1  0.02363724  0.19859568  0.19030015  1
  O  O11  1  0.16970413  0.97548951  0.18780184  1
  O  O12  1  0.86825730  0.35969949  0.64145438  1
  O  O13  1  0.49558110  0.12626046  0.63989410  1
  O  O14  1  0.63615494  0.49853257  0.63730807  1
  O  O15  1  0.85810986  0.49662376  0.14017016  1
  O  O16  1  0.63801867  0.12718093  0.14415645  1
  O  O17  1  0.49290090  0.35782441  0.14142939  1
  O  O18  1  0.45847070  0.30531124  0.02805595  1
  O  O19  1  0.84837771  0.54037985  0.02711471  1
  O  O20  1  0.69774073  0.15956771  0.03117506  1
  O  O21  1  0.46041247  0.16063742  0.52585080  1
  O  O22  1  0.69335461  0.53811329  0.52284788  1
  O  O23  1  0.83900033  0.30788150  0.52579890  1
  O  O24  1  0.53160964  0.70144587  0.97860453  1
  O  O25  1  0.16608324  0.46499418  0.97928661  1
  O  O26  1  0.29643239  0.82866829  0.97915534  1
  O  O27  1  0.53558351  0.82866083  0.47749994  1
  O  O28  1  0.29891672  0.46170785  0.47706373  1
  O  O29  1  0.16719241  0.69876646  0.47415566  1
  O  O30  1  0.12501157  0.62975453  0.36186777  1
  O  O31  1  0.50000652  0.86940789  0.35918779  1
  O  O32  1  0.36549318  0.49620409  0.36359356  1
  O  O33  1  0.13086375  0.50066075  0.85759061  1
  O  O34  1  0.36744770  0.86963519  0.85595604  1
  O  O35  1  0.49872945  0.62767674  0.85917936  1
  O  O36  1  0.02459464  0.83241956  0.41224169  1
  O  O37  1  0.82400599  0.98041166  0.40896611  1
  O  O38  1  0.16805786  0.19237034  0.41260082  1
  O  O39  1  0.02805754  0.18280196  0.90875592  1
  O  O40  1  0.15929043  0.97490236  0.91059737  1
  O  O41  1  0.82407469  0.84217136  0.90772717  1
  O  O42  1  0.97461377  0.16846913  0.58608679  1
  O  O43  1  0.19002531  0.02377913  0.58939054  1
  O  O44  1  0.83143273  0.81066553  0.58889146  1
  O  O45  1  0.97357640  0.81072998  0.09116883  1
  O  O46  1  0.83708972  0.02446264  0.09176649  1
  O  O47  1  0.18740406  0.16880195  0.08978728  1
  O  O48  1  0.69741353  0.16902643  0.74181881  1
  O  O49  1  0.48613673  0.30284020  0.73982514  1
  O  O50  1  0.83401203  0.52099261  0.74126534  1
  O  O51  1  0.70062507  0.52731753  0.24223064  1
  O  O52  1  0.83453748  0.30830778  0.24297263  1
  O  O53  1  0.49106304  0.17595153  0.24417884  1
  O  O54  1  0.64286565  0.49907791  0.92479956  1
  O  O55  1  0.85612752  0.36365646  0.92255416  1
  O  O56  1  0.50210397  0.14767024  0.92399000  1
  O  O57  1  0.64527235  0.15608299  0.42563175  1
  O  O58  1  0.50198555  0.36002950  0.42548873  1
  O  O59  1  0.85678651  0.50098697  0.42547741  1
  O  O60  1  0.35175909  0.50060480  0.08070218  1
  O  O61  1  0.14053764  0.64281028  0.08217452  1
  O  O62  1  0.49604778  0.85737016  0.08033607  1
  O  O63  1  0.36098552  0.85736545  0.57609127  1
  O  O64  1  0.49909711  0.63957058  0.57809744  1
  O  O65  1  0.14552050  0.50037385  0.57649725  1
  O  O66  1  0.31130074  0.83287036  0.25503337  1
  O  O67  1  0.53279021  0.69179531  0.25606632  1
  O  O68  1  0.16559221  0.46689696  0.25531252  1
  O  O69  1  0.30531648  0.47837347  0.75111501  1
  O  O70  1  0.16224326  0.69397083  0.75093198  1
  O  O71  1  0.52947095  0.84200664  0.75114056  1
loop_
_geom_bond_atom_site_label_1
_geom_bond_atom_site_label_2
_geom_bond_distance
_geom_bond_site_symmetry_2
Na0 O44 2.413266 1_555
Na0 O43 2.439790 1_665
Na0 O42 2.472933 1_565
Na0 O36 2.474009 1_655
Na0 O37 2.526705 1_555
Na0 O38 2.556696 1_665
Na1 O41 2.360077 1_555
Na1 O39 2.442732 1_665
Na1 O46 2.493379 1_566
Na1 O40 2.498273 1_655
Na1 O45 2.568750 1_556
Na1 O47 2.646866 1_666
Na2 O49 2.388137 1_555
Na2 O50 2.443848 1_555
Na2 O48 2.471785 1_555
Na2 O56 2.598181 1_555
Na2 O55 2.599464 1_555
Na2 O54 2.611534 1_555
Na3 O53 2.368281 1_555
Na3 O51 2.417083 1_555
Na3 O52 2.489303 1_555
Na3 O58 2.582143 1_555
Na3 O57 2.596953 1_555
Na3 O59 2.623814 1_555
Na4 O60 2.311570 1_555
Na4 O61 2.402667 1_555
Na4 O62 2.404754 1_555
Na4 O68 2.560490 1_555
Na4 O67 2.585305 1_555
Na4 O66 2.586023 1_555
Na5 O64 2.437372 1_555
Na5 O65 2.438151 1_555
Na5 O69 2.452837 1_555
Na5 O63 2.455917 1_555
Na5 O70 2.497950 1_555
Na5 O71 2.534577 1_555
Na6 O52 2.327740 1_555
Na6 O53 2.395549 1_555
Na6 O67 2.438343 1_545
Na6 O16 2.446806 1_555
Na6 O66 2.485178 1_545
Na6 O9 2.743273 1_545
Na6 O31 2.746370 1_545
Na6 O2 2.823243 1_555
Na7 O48 2.312304 1_555
Na7 O69 2.347520 1_655
Na7 O50 2.454565 1_555
Na7 O70 2.530677 1_655
Na7 O12 2.537716 1_555
Na7 O33 2.714225 1_655
Na7 O7 2.793054 1_655
Na7 O5 2.805778 1_555
Na8 O49 2.298014 1_555
Na8 O70 2.381941 1_545
Na8 O71 2.464714 1_545
Na8 O48 2.528865 1_555
Na8 O34 2.599509 1_545
Na8 O13 2.629885 1_555
Na8 O3 2.764734 1_555
Na8 O8 2.860397 1_545
Na9 O64 2.371408 1_555
Na9 O43 2.377196 1_555
Na9 O65 2.444377 1_555
Na9 O42 2.463573 1_455
Na9 O7 2.464713 1_555
Na9 O28 2.656308 1_555
Na9 O14 2.771298 1_555
Na9 O21 2.851234 1_555
Na10 O63 2.362698 1_555
Na10 O42 2.363709 1_565
Na10 O44 2.418436 1_555
Na10 O6 2.479259 1_555
Na10 O64 2.489418 1_555
Na10 O27 2.624418 1_555
Na10 O13 2.776557 1_565
Na10 O23 2.887225 1_565
Na11 O62 2.363304 1_555
Na11 O47 2.398585 1_565
Na11 O45 2.444965 1_455
Na11 O61 2.446896 1_555
Na11 O11 2.519677 1_555
Na11 O26 2.588518 1_554
Na11 O18 2.858418 1_565
Na11 O16 2.902217 1_565
Na12 O61 2.372735 1_555
Na12 O46 2.389805 1_455
Na12 O60 2.414098 1_555
Na12 O47 2.424052 1_555
Na12 O25 2.525839 1_554
Na12 O10 2.607370 1_555
Na12 O20 2.781966 1_455
Na12 O15 2.837044 1_455
Na13 O40 2.301387 1_655
Na13 O41 2.385192 1_555
Na13 O55 2.394560 1_555
Na13 O4 2.501199 1_555
Na13 O54 2.505140 1_555
Na13 O19 2.713389 1_556
Na13 O33 2.799337 1_655
Na13 O26 2.846441 1_655
Na14 O39 2.295156 1_555
Na14 O40 2.435193 1_545
Na14 O54 2.435847 1_555
Na14 O56 2.448107 1_555
Na14 O3 2.535915 1_555
Na14 O18 2.736736 1_556
Na14 O35 2.777407 1_555
Na14 O25 2.888604 1_555
Na15 O38 2.377576 1_655
Na15 O59 2.394974 1_555
Na15 O37 2.413086 1_545
Na15 O57 2.420398 1_555
Na15 O23 2.615706 1_555
Na15 O2 2.653524 1_555
Na15 O30 2.799506 1_655
Na15 O28 2.857088 1_655
Na16 O57 2.380658 1_555
Na16 O36 2.392650 1_545
Na16 O38 2.446014 1_555
Na16 O58 2.472792 1_555
Na16 O0 2.517700 1_555
Na16 O21 2.665034 1_555
Na16 O31 2.775714 1_545
Na16 O29 2.867761 1_545
Na17 O37 2.377863 1_555
Na17 O58 2.387944 1_555
Na17 O36 2.465873 1_655
Na17 O59 2.471838 1_555
Na17 O22 2.528521 1_555
Na17 O1 2.593418 1_555
Na17 O27 2.749977 1_555
Na17 O32 2.805649 1_555
Nb0 O56 1.941727 1_555
Nb0 O55 1.946233 1_555
Nb0 O54 1.970489 1_555
Nb0 O20 2.005516 1_556
Nb0 O19 2.025720 1_556
Nb0 O18 2.033492 1_556
Nb1 O66 1.913084 1_555
Nb1 O31 1.952962 1_555
Nb1 O30 2.012251 1_555
Nb1 O68 2.029162 1_555
Nb1 O67 2.029179 1_555
Nb1 O32 2.069649 1_555
Nb2 O35 1.878660 1_555
Nb2 O33 1.941564 1_555
Nb2 O34 1.958233 1_555
Nb2 O69 1.984584 1_555
Nb2 O71 2.078989 1_555
Nb2 O70 2.152558 1_555
Al0 O0 1.813136 1_665
Al0 O1 1.898557 1_555
Al0 O2 1.899371 1_565
Al0 O37 1.926981 1_555
Al0 O36 2.083135 1_655
Al0 O38 2.104873 1_665
Al1 O3 1.889916 1_555
Al1 O41 1.890500 1_445
Al1 O39 1.894741 1_555
Al1 O5 1.938295 1_455
Al1 O40 1.949232 1_545
Al1 O4 1.996362 1_445
Al2 O7 1.827369 1_565
Al2 O8 1.835668 1_555
Al2 O6 1.885115 1_455
Al2 O43 1.994605 1_565
Al2 O44 2.023571 1_455
Al2 O42 2.105529 1_465
Al3 O11 1.801659 1_655
Al3 O9 1.874260 1_555
Al3 O10 1.917701 1_665
Al3 O45 1.959246 1_555
Al3 O46 1.986834 1_565
Al3 O47 2.040067 1_665
Al4 O14 1.851742 1_555
Al4 O49 1.859515 1_555
Al4 O12 1.937662 1_555
Al4 O50 1.969717 1_555
Al4 O13 1.973342 1_555
Al4 O48 2.058711 1_555
Al5 O17 1.878321 1_555
Al5 O53 1.889315 1_555
Al5 O15 1.900137 1_555
Al5 O51 1.926131 1_555
Al5 O16 1.987431 1_555
Al5 O52 2.030641 1_555
Al6 O23 1.868555 1_555
Al6 O21 1.899980 1_555
Al6 O22 1.903163 1_555
Al6 O57 1.925748 1_555
Al6 O58 2.015733 1_555
Al6 O59 2.029550 1_555
Al7 O24 1.782267 1_554
Al7 O26 1.837587 1_554
Al7 O25 1.857533 1_554
Al7 O60 2.033434 1_555
Al7 O62 2.060053 1_555
Al7 O61 2.139882 1_555
Al8 O27 1.855994 1_555
Al8 O29 1.893895 1_555
Al8 O28 1.937674 1_555
Al8 O63 1.955360 1_555
Al8 O65 1.992580 1_555
Al8 O64 2.022007 1_555
O0 Si0 1.619673 1_555
O1 P0 1.543329 1_555
O2 P1 1.551899 1_555
O3 Si1 1.624397 1_555
O4 P2 1.530427 1_555
O5 P3 1.521601 1_555
O6 P3 1.538717 1_565
O7 Si1 1.627521 1_555
O8 P2 1.529270 1_455
O9 P0 1.526508 1_555
O10 P1 1.529966 1_455
O11 Si0 1.603820 1_565
O12 P4 1.542553 1_555
O13 P5 1.550924 1_555
O14 P6 1.535806 1_555
O15 P7 1.525747 1_555
O16 P8 1.540988 1_555
O17 P9 1.517860 1_555
O18 P9 1.579797 1_555
O19 P7 1.576258 1_555
O20 P8 1.584985 1_555
O21 P5 1.560962 1_555
O22 P6 1.551853 1_555
O23 P4 1.554047 1_555
O24 Si2 1.578002 1_555
O25 Si3 1.610337 1_555
O26 Si4 1.606930 1_555
O27 Si5 1.618098 1_555
O28 P10 1.540926 1_555
O29 P11 1.527443 1_555
O30 P11 1.575167 1_555
O31 Si5 1.680196 1_555
O32 P10 1.556110 1_555
O33 Si3 1.666051 1_555
O34 Si4 1.649645 1_555
O35 Si2 1.669733 1_555
O36 P11 1.544170 1_555
O37 Si5 1.637680 1_555
O38 P10 1.547175 1_555
O39 Si3 1.590501 1_555
O40 Si4 1.610371 1_555
O41 Si2 1.588813 1_555
O42 P4 1.571579 1_555
O43 P5 1.550690 1_555
O44 P6 1.552420 1_555
O45 P7 1.544163 1_555
O46 P8 1.543091 1_555
O47 P9 1.564662 1_555
O48 P3 1.563881 1_555
O49 Si1 1.631158 1_555
O50 P2 1.549149 1_555
O51 P0 1.526203 1_555
O52 P1 1.541952 1_555
O53 Si0 1.631898 1_555
O54 Si2 1.676135 1_555
O55 Si3 1.646041 1_655
O56 Si4 1.652942 1_545
O57 Si5 1.637094 1_545
O58 P10 1.553192 1_555
O59 P11 1.547269 1_655
O60 P9 1.539586 1_555
O61 P7 1.558005 1_455
O62 P8 1.534993 1_565
O63 P5 1.555608 1_565
O64 P6 1.579811 1_555
O65 P4 1.556199 1_455
O66 Si0 1.730903 1_565
O67 P0 1.601328 1_555
O68 P1 1.566737 1_455
O69 Si1 1.675707 1_555
O70 P2 1.593537 1_455
O71 P3 1.573779 1_565
