# generated using pymatgen
data_Na7Ga2Si3Ge2(PO8)3
_symmetry_space_group_name_H-M   'P 1'
_cell_length_a   8.76967639
_cell_length_b   8.76568461
_cell_length_c   21.86129016
_cell_angle_alpha   89.74045628
_cell_angle_beta   89.66575591
_cell_angle_gamma   119.97230972
_symmetry_Int_Tables_number   1
_chemical_formula_structural   Na7Ga2Si3Ge2(PO8)3
_chemical_formula_sum   'Na21 Ga6 Si9 Ge6 P9 O72'
_cell_volume   1455.70546857
_cell_formula_units_Z   3
loop_
 _symmetry_equiv_pos_site_id
 _symmetry_equiv_pos_as_xyz
  1  'x, y, z'
loop_
 _atom_site_type_symbol
 _atom_site_label
 _atom_site_symmetry_multiplicity
 _atom_site_fract_x
 _atom_site_fract_y
 _atom_site_fract_z
 _atom_site_occupancy
  Na  Na0  1  0.63198189  0.00143719  0.25111712  1
  Na  Na1  1  0.36808628  0.36947063  0.24909277  1
  Na  Na2  1  0.00000201  0.62760957  0.24998416  1
  Na  Na3  1  0.63180983  0.63362873  0.74977250  1
  Na  Na4  1  0.99645197  0.36509660  0.74927194  1
  Na  Na5  1  0.37122233  0.00106027  0.74873900  1
  Na  Na6  1  0.03236662  0.69782951  0.58318259  1
  Na  Na7  1  0.66444246  0.96801990  0.58293337  1
  Na  Na8  1  0.66574314  0.69448081  0.08284152  1
  Na  Na9  1  0.03141222  0.33424410  0.08457103  1
  Na  Na10  1  0.96262541  0.66576310  0.91802633  1
  Na  Na11  1  0.70120676  0.03263360  0.91648621  1
  Na  Na12  1  0.33724914  0.30138089  0.91761661  1
  Na  Na13  1  0.96698849  0.30156975  0.41635506  1
  Na  Na14  1  0.33525854  0.03159655  0.41749602  1
  Na  Na15  1  0.99967269  0.99989857  0.50001495  1
  Na  Na16  1  0.00484712  0.99791718  0.00096817  1
  Na  Na17  1  0.66637523  0.33314419  0.83333842  1
  Na  Na18  1  0.66974233  0.33813270  0.33452355  1
  Na  Na19  1  0.32999009  0.66814112  0.16607914  1
  Na  Na20  1  0.33363001  0.66308561  0.66514268  1
  Ga  Ga0  1  0.99196658  0.99673829  0.85075823  1
  Ga  Ga1  1  0.66853063  0.32607762  0.68134557  1
  Ga  Ga2  1  0.67287282  0.33644526  0.18152252  1
  Ga  Ga3  1  0.66474998  0.34248814  0.98516515  1
  Ga  Ga4  1  0.32725532  0.66303364  0.31846514  1
  Ga  Ga5  1  0.34195032  0.67061345  0.81593703  1
  Si  Si0  1  -0.00000681  0.28739065  0.24996893  1
  Si  Si1  1  0.71128365  0.00173181  0.74950569  1
  Si  Si2  1  0.96310869  0.33573577  0.58278569  1
  Si  Si3  1  0.37516801  0.04696044  0.58320694  1
  Si  Si4  1  0.96470384  0.63167560  0.08321553  1
  Si  Si5  1  0.37518270  0.32860300  0.08385773  1
  Si  Si6  1  0.62267833  0.66520233  0.91692453  1
  Si  Si7  1  0.62102336  0.95093646  0.41648843  1
  Si  Si8  1  0.03664054  0.66610137  0.41671309  1
  Ge  Ge0  1  0.98739697  0.99208732  0.35413516  1
  Ge  Ge1  1  0.00447240  0.00974348  0.64605463  1
  Ge  Ge2  1  0.01154672  0.00427249  0.14646307  1
  Ge  Ge3  1  0.66868371  0.33034999  0.48155959  1
  Ge  Ge4  1  0.33474816  0.66783167  0.02060042  1
  Ge  Ge5  1  0.33051051  0.66987326  0.51841200  1
  P  P0  1  0.28645677  0.00046136  0.25038740  1
  P  P1  1  0.71355529  0.71405548  0.24987819  1
  P  P2  1  0.28794619  0.28757077  0.75025404  1
  P  P3  1  0.99916600  0.71086062  0.74978804  1
  P  P4  1  0.66154598  0.61727439  0.58333687  1
  P  P5  1  0.66264324  0.04159864  0.08306650  1
  P  P6  1  0.04527392  0.37880488  0.91653983  1
  P  P7  1  0.33425555  0.95534604  0.91687234  1
  P  P8  1  0.33890117  0.38130119  0.41716210  1
  O  O0  1  0.20383774  0.03655221  0.30804631  1
  O  O1  1  0.83551542  0.79618373  0.30602113  1
  O  O2  1  0.96325172  0.15936842  0.31046859  1
  O  O3  1  0.21055112  0.17107599  0.80813805  1
  O  O4  1  0.96609849  0.79107283  0.80753892  1
  O  O5  1  0.83380362  0.04324889  0.80946031  1
  O  O6  1  0.80160063  0.95914153  0.68965764  1
  O  O7  1  0.16650892  0.20259759  0.69403538  1
  O  O8  1  0.03826634  0.83182057  0.69225219  1
  O  O9  1  0.79615274  0.83283143  0.19205870  1
  O  O10  1  0.03617375  0.19633239  0.18989646  1
  O  O11  1  0.16468566  0.96079054  0.19424511  1
  O  O12  1  0.88536407  0.38212326  0.64291149  1
  O  O13  1  0.49521604  0.12101066  0.64338978  1
  O  O14  1  0.63208450  0.51041053  0.64245361  1
  O  O15  1  0.88537428  0.50561438  0.14338528  1
  O  O16  1  0.63017094  0.11849092  0.14132809  1
  O  O17  1  0.49814735  0.37530829  0.14421679  1
  O  O18  1  0.45287302  0.29270835  0.02216342  1
  O  O19  1  0.84184758  0.55017527  0.02337702  1
  O  O20  1  0.70490168  0.15912716  0.02555951  1
  O  O21  1  0.46327165  0.16853299  0.52198845  1
  O  O22  1  0.70427983  0.53665101  0.52719949  1
  O  O23  1  0.83246120  0.29214687  0.52368859  1
  O  O24  1  0.53313125  0.70777227  0.97676422  1
  O  O25  1  0.16351794  0.46174362  0.97380706  1
  O  O26  1  0.29410533  0.83105301  0.97306850  1
  O  O27  1  0.53390328  0.83005727  0.47797768  1
  O  O28  1  0.29492159  0.46218320  0.47283620  1
  O  O29  1  0.16639099  0.70872827  0.47605604  1
  O  O30  1  0.11573820  0.62088251  0.35672152  1
  O  O31  1  0.50076026  0.87493155  0.35591538  1
  O  O32  1  0.37047420  0.48823351  0.35798216  1
  O  O33  1  0.12339133  0.49593455  0.85893164  1
  O  O34  1  0.36765870  0.87664580  0.85859956  1
  O  O35  1  0.49954829  0.62348354  0.85716952  1
  O  O36  1  0.03014609  0.85048422  0.40800274  1
  O  O37  1  0.82263578  0.98240033  0.41071800  1
  O  O38  1  0.17062419  0.19366876  0.41117506  1
  O  O39  1  0.03155159  0.19597982  0.91204655  1
  O  O40  1  0.16931586  0.97611389  0.91127557  1
  O  O41  1  0.81867973  0.84205965  0.91238049  1
  O  O42  1  0.97141149  0.15274791  0.59028299  1
  O  O43  1  0.17271668  0.01344627  0.59157903  1
  O  O44  1  0.83128147  0.80463372  0.58856104  1
  O  O45  1  0.97174770  0.82202508  0.09284606  1
  O  O46  1  0.82949091  0.02075570  0.08976466  1
  O  O47  1  0.17365311  0.15985034  0.09035986  1
  O  O48  1  0.69067460  0.17697942  0.74451400  1
  O  O49  1  0.47387989  0.31138325  0.74367105  1
  O  O50  1  0.83203652  0.52831474  0.74430386  1
  O  O51  1  0.69359550  0.52906700  0.24563741  1
  O  O52  1  0.82239806  0.30429796  0.24496098  1
  O  O53  1  0.47015136  0.16648890  0.24442397  1
  O  O54  1  0.64412526  0.49049956  0.92161084  1
  O  O55  1  0.85877581  0.35461405  0.92311435  1
  O  O56  1  0.50165178  0.13764281  0.92256661  1
  O  O57  1  0.64193782  0.15028421  0.42380543  1
  O  O58  1  0.50050772  0.35560954  0.42416764  1
  O  O59  1  0.84327799  0.48823535  0.42621875  1
  O  O60  1  0.35480547  0.50856571  0.07587305  1
  O  O61  1  0.15777903  0.64455374  0.07397278  1
  O  O62  1  0.49978494  0.85379033  0.07668994  1
  O  O63  1  0.35632004  0.84871627  0.57584758  1
  O  O64  1  0.50059977  0.64412105  0.57620482  1
  O  O65  1  0.15716230  0.51287582  0.57359015  1
  O  O66  1  0.30667445  0.83545483  0.25458378  1
  O  O67  1  0.53006701  0.69668878  0.25549761  1
  O  O68  1  0.17713218  0.48189808  0.25497301  1
  O  O69  1  0.30131976  0.47034808  0.75468245  1
  O  O70  1  0.16423442  0.69013765  0.75538864  1
  O  O71  1  0.51519194  0.82496332  0.75414298  1
loop_
_geom_bond_atom_site_label_1
_geom_bond_atom_site_label_2
_geom_bond_distance
_geom_bond_site_symmetry_2
Na0 O52 2.327911 1_555
Na0 O67 2.356932 1_545
Na0 O66 2.471950 1_545
Na0 O53 2.486126 1_555
Na0 O31 2.544394 1_545
Na0 O16 2.609230 1_555
Na0 O9 2.836495 1_545
Na0 O2 2.842817 1_555
Na1 O68 2.332302 1_555
Na1 O53 2.359922 1_555
Na1 O51 2.473455 1_555
Na1 O67 2.489876 1_555
Na1 O17 2.543672 1_555
Na1 O32 2.598471 1_555
Na1 O0 2.827776 1_555
Na1 O10 2.845778 1_555
Na2 O51 2.379113 1_455
Na2 O66 2.381485 1_555
Na2 O68 2.457515 1_555
Na2 O52 2.462556 1_455
Na2 O15 2.561370 1_455
Na2 O30 2.562159 1_555
Na2 O11 2.798763 1_555
Na2 O1 2.809011 1_455
Na3 O50 2.359648 1_555
Na3 O71 2.362647 1_555
Na3 O49 2.451855 1_555
Na3 O69 2.512043 1_555
Na3 O14 2.587744 1_555
Na3 O35 2.594006 1_555
Na3 O6 2.789965 1_555
Na3 O4 2.847846 1_555
Na4 O48 2.346789 1_555
Na4 O69 2.356557 1_655
Na4 O70 2.473422 1_655
Na4 O50 2.489848 1_555
Na4 O12 2.558586 1_555
Na4 O33 2.661210 1_655
Na4 O5 2.765655 1_555
Na4 O7 2.797912 1_655
Na5 O49 2.402386 1_555
Na5 O70 2.407158 1_545
Na5 O48 2.431888 1_555
Na5 O71 2.436828 1_545
Na5 O13 2.529536 1_555
Na5 O34 2.626749 1_545
Na5 O8 2.825278 1_545
Na5 O3 2.826112 1_555
Na6 O65 2.375584 1_555
Na6 O44 2.376603 1_455
Na6 O43 2.409891 1_565
Na6 O63 2.466681 1_555
Na6 O29 2.594003 1_555
Na6 O8 2.652103 1_555
Na6 O12 2.721825 1_455
Na6 O22 2.787011 1_455
Na7 O42 2.355157 1_565
Na7 O63 2.366867 1_555
Na7 O64 2.465232 1_555
Na7 O44 2.510232 1_555
Na7 O27 2.590390 1_555
Na7 O6 2.649715 1_555
Na7 O23 2.771723 1_565
Na7 O13 2.780182 1_565
Na8 O45 2.347468 1_555
Na8 O60 2.383609 1_555
Na8 O62 2.473388 1_555
Na8 O46 2.483473 1_565
Na8 O24 2.628337 1_554
Na8 O9 2.674274 1_555
Na8 O19 2.760159 1_555
Na8 O17 2.760859 1_555
Na9 O61 2.379083 1_555
Na9 O47 2.411282 1_555
Na9 O46 2.415085 1_455
Na9 O60 2.464826 1_555
Na9 O10 2.606000 1_555
Na9 O25 2.665274 1_554
Na9 O15 2.733210 1_455
Na9 O20 2.808724 1_455
Na10 O40 2.402996 1_655
Na10 O55 2.407259 1_555
Na10 O54 2.424222 1_555
Na10 O41 2.438477 1_555
Na10 O19 2.516120 1_556
Na10 O4 2.642591 1_555
Na10 O26 2.801059 1_655
Na10 O33 2.822417 1_655
Na11 O56 2.352759 1_555
Na11 O41 2.362155 1_545
Na11 O55 2.450619 1_555
Na11 O39 2.510610 1_655
Na11 O5 2.587145 1_555
Na11 O20 2.627776 1_556
Na11 O24 2.787042 1_545
Na11 O34 2.844276 1_545
Na12 O54 2.354737 1_555
Na12 O39 2.363369 1_555
Na12 O40 2.475453 1_545
Na12 O56 2.493671 1_555
Na12 O18 2.521917 1_556
Na12 O3 2.656129 1_555
Na12 O35 2.769998 1_555
Na12 O25 2.817774 1_555
Na13 O59 2.382222 1_555
Na13 O38 2.404752 1_655
Na13 O37 2.431311 1_545
Na13 O57 2.475187 1_555
Na13 O23 2.602511 1_555
Na13 O2 2.626670 1_555
Na13 O30 2.744906 1_655
Na13 O28 2.790885 1_655
Na14 O36 2.342674 1_545
Na14 O57 2.354698 1_555
Na14 O58 2.466134 1_555
Na14 O38 2.484336 1_555
Na14 O21 2.574428 1_555
Na14 O0 2.671425 1_555
Na14 O29 2.756658 1_545
Na14 O31 2.791099 1_545
Na15 O37 2.458652 1_555
Na15 O42 2.469983 1_565
Na15 O43 2.486242 1_665
Na15 O36 2.490031 1_655
Na15 O44 2.503718 1_555
Na15 O38 2.509261 1_665
Na16 O47 2.446353 1_565
Na16 O45 2.452299 1_455
Na16 O41 2.472809 1_454
Na16 O40 2.491468 1_554
Na16 O39 2.530978 1_564
Na16 O46 2.539594 1_465
Na17 O54 2.439915 1_555
Na17 O48 2.449621 1_555
Na17 O50 2.505883 1_555
Na17 O56 2.508370 1_555
Na17 O49 2.539479 1_555
Na17 O55 2.541445 1_555
Na18 O52 2.466813 1_555
Na18 O59 2.474741 1_555
Na18 O57 2.478823 1_555
Na18 O51 2.497359 1_555
Na18 O58 2.502527 1_555
Na18 O53 2.577383 1_555
Na19 O68 2.448057 1_555
Na19 O61 2.470882 1_555
Na19 O62 2.490047 1_555
Na19 O60 2.493386 1_555
Na19 O66 2.501410 1_555
Na19 O67 2.562865 1_555
Na20 O71 2.477500 1_555
Na20 O63 2.478146 1_555
Na20 O65 2.481636 1_555
Na20 O64 2.482929 1_555
Na20 O69 2.500300 1_555
Na20 O70 2.545073 1_555
Ga0 O5 1.865872 1_565
Ga0 O4 1.950269 1_555
Ga0 O41 1.965549 1_555
Ga0 O3 1.979231 1_665
Ga0 O39 2.094458 1_665
Ga0 O40 2.122429 1_655
Ga1 O13 1.878358 1_555
Ga1 O12 1.899330 1_555
Ga1 O48 1.973119 1_555
Ga1 O14 1.985599 1_555
Ga1 O49 2.130388 1_555
Ga1 O50 2.144376 1_555
Ga2 O15 1.891155 1_555
Ga2 O17 1.913816 1_555
Ga2 O16 1.966375 1_555
Ga2 O52 2.027093 1_555
Ga2 O51 2.136897 1_555
Ga2 O53 2.139521 1_555
Ga3 O18 1.861794 1_556
Ga3 O19 1.904746 1_556
Ga3 O54 1.966587 1_555
Ga3 O20 2.010825 1_556
Ga3 O55 2.130194 1_555
Ga3 O56 2.149821 1_555
Ga4 O30 1.889727 1_555
Ga4 O31 1.907876 1_555
Ga4 O32 1.951875 1_555
Ga4 O68 2.033118 1_555
Ga4 O66 2.126863 1_555
Ga4 O67 2.142151 1_555
Ga5 O35 1.864135 1_555
Ga5 O34 1.947627 1_555
Ga5 O71 1.967065 1_555
Ga5 O33 1.983750 1_555
Ga5 O69 2.098499 1_555
Ga5 O70 2.121051 1_555
Ge0 O2 1.845576 1_565
Ge0 O37 1.865654 1_555
Ge0 O36 1.877466 1_655
Ge0 O1 1.891213 1_555
Ge0 O0 2.001217 1_665
Ge0 O38 2.113192 1_665
Ge1 O6 1.859713 1_445
Ge1 O42 1.869589 1_455
Ge1 O43 1.878180 1_555
Ge1 O7 1.900142 1_555
Ge1 O8 1.997812 1_545
Ge1 O44 2.105571 1_445
Ge2 O47 1.847290 1_555
Ge2 O10 1.853670 1_555
Ge2 O45 1.874149 1_445
Ge2 O11 1.887913 1_545
Ge2 O9 1.987007 1_445
Ge2 O46 2.087638 1_455
Ge3 O21 1.858812 1_555
Ge3 O23 1.875226 1_555
Ge3 O59 1.889277 1_555
Ge3 O57 1.947324 1_555
Ge3 O22 1.954249 1_555
Ge3 O58 2.035617 1_555
Ge4 O24 1.853810 1_554
Ge4 O61 1.863310 1_555
Ge4 O60 1.916399 1_555
Ge4 O26 1.937576 1_554
Ge4 O25 1.972065 1_554
Ge4 O62 1.984170 1_555
Ge5 O27 1.844561 1_555
Ge5 O65 1.879689 1_555
Ge5 O29 1.883453 1_555
Ge5 O63 1.937019 1_555
Ge5 O28 1.963884 1_555
Ge5 O64 2.056208 1_555
O0 P0 1.560732 1_555
O1 P1 1.556470 1_555
O2 Si0 1.653097 1_655
O3 P2 1.546119 1_555
O4 P3 1.542690 1_555
O5 Si1 1.623225 1_555
O6 Si1 1.663220 1_565
O7 P2 1.558978 1_555
O8 P3 1.563172 1_455
O9 P1 1.558932 1_555
O10 Si0 1.649277 1_555
O11 P0 1.554287 1_565
O12 Si2 1.621508 1_555
O13 Si3 1.613006 1_555
O14 P4 1.535500 1_555
O15 Si4 1.625834 1_555
O16 P5 1.533936 1_555
O17 Si5 1.628498 1_555
O18 Si5 1.609207 1_555
O19 Si4 1.624279 1_555
O20 P5 1.542900 1_555
O21 Si3 1.635858 1_555
O22 P4 1.553424 1_555
O23 Si2 1.646859 1_555
O24 Si6 1.659061 1_555
O25 P6 1.562472 1_555
O26 P7 1.555572 1_555
O27 Si7 1.636968 1_555
O28 P8 1.551878 1_555
O29 Si8 1.647479 1_555
O30 Si8 1.620835 1_555
O31 Si7 1.622323 1_555
O32 P8 1.534460 1_555
O33 P6 1.544335 1_555
O34 P7 1.545998 1_555
O35 Si6 1.622478 1_555
O36 Si8 1.655613 1_555
O37 Si7 1.651643 1_555
O38 P8 1.574517 1_555
O39 P6 1.549608 1_555
O40 P7 1.550917 1_555
O41 Si6 1.643732 1_555
O42 Si2 1.649084 1_555
O43 Si3 1.657270 1_555
O44 P4 1.577049 1_555
O45 Si4 1.653036 1_555
O46 P5 1.570077 1_555
O47 Si5 1.647692 1_555
O48 Si1 1.637222 1_555
O49 P2 1.542720 1_555
O50 P3 1.543854 1_555
O51 P1 1.544866 1_555
O52 Si0 1.640755 1_655
O53 P0 1.543851 1_555
O54 Si6 1.636342 1_555
O55 P6 1.546297 1_655
O56 P7 1.544052 1_545
O57 Si7 1.671929 1_545
O58 P8 1.550437 1_555
O59 Si8 1.643426 1_655
O60 Si5 1.682389 1_555
O61 Si4 1.650861 1_455
O62 P5 1.557105 1_565
O63 Si3 1.669975 1_565
O64 P4 1.551123 1_555
O65 Si2 1.643311 1_455
O66 P0 1.545035 1_565
O67 P1 1.542836 1_555
O68 Si0 1.639952 1_555
O69 P2 1.550439 1_555
O70 P3 1.551814 1_455
O71 Si1 1.643963 1_565
