# generated using pymatgen
data_Bi2W2O9
_symmetry_space_group_name_H-M   'P 1'
_cell_length_a   5.42493033
_cell_length_b   5.43991765
_cell_length_c   23.86668193
_cell_angle_alpha   90.00000000
_cell_angle_beta   90.00000000
_cell_angle_gamma   90.00000000
_symmetry_Int_Tables_number   1
_chemical_formula_structural   Bi2W2O9
_chemical_formula_sum   'Bi8 W8 O36'
_cell_volume   704.33380926
_cell_formula_units_Z   4
loop_
 _symmetry_equiv_pos_site_id
 _symmetry_equiv_pos_as_xyz
  1  'x, y, z'
loop_
 _atom_site_type_symbol
 _atom_site_label
 _atom_site_symmetry_multiplicity
 _atom_site_fract_x
 _atom_site_fract_y
 _atom_site_fract_z
 _atom_site_occupancy
  Bi  Bi0  1  0.27069355  0.64225511  0.69642285  1
  Bi  Bi1  1  0.22930645  0.35774489  0.19642285  1
  Bi  Bi2  1  0.72930645  0.14225511  0.69642285  1
  Bi  Bi3  1  0.77069355  0.85774489  0.19642285  1
  Bi  Bi4  1  0.77069355  0.64225511  0.80357715  1
  Bi  Bi5  1  0.72930645  0.35774489  0.30357715  1
  Bi  Bi6  1  0.22930645  0.14225511  0.80357715  1
  Bi  Bi7  1  0.27069355  0.85774489  0.30357715  1
  W  W0  1  0.74579153  0.32784359  0.07682716  1
  W  W1  1  0.75420847  0.67215641  0.57682716  1
  W  W2  1  0.25420847  0.82784359  0.07682716  1
  W  W3  1  0.24579153  0.17215641  0.57682716  1
  W  W4  1  0.25420847  0.67215641  0.92317284  1
  W  W5  1  0.24579153  0.32784359  0.42317284  1
  W  W6  1  0.74579153  0.17215641  0.92317284  1
  W  W7  1  0.75420847  0.82784359  0.42317284  1
  O  O0  1  0.18055829  0.72790856  0.84767705  1
  O  O1  1  0.31944171  0.27209144  0.34767705  1
  O  O2  1  0.81944171  0.22790856  0.84767705  1
  O  O3  1  0.68055829  0.77209144  0.34767705  1
  O  O4  1  0.46721125  0.50405641  0.08861010  1
  O  O5  1  0.03278875  0.49594359  0.58861010  1
  O  O6  1  0.53278875  0.00405641  0.08861010  1
  O  O7  1  0.96721125  0.99594359  0.58861010  1
  O  O8  1  0.53278875  0.49594359  0.91138990  1
  O  O9  1  0.96721125  0.50405641  0.41138990  1
  O  O10  1  0.46721125  0.99594359  0.91138990  1
  O  O11  1  0.03278875  0.00405641  0.41138990  1
  O  O12  1  0.81944171  0.27209144  0.15232295  1
  O  O13  1  0.68055829  0.72790856  0.65232295  1
  O  O14  1  0.18055829  0.77209144  0.15232295  1
  O  O15  1  0.31944171  0.22790856  0.65232295  1
  O  O16  1  0.00921172  0.08321497  0.25051750  1
  O  O17  1  0.49078828  0.91678503  0.75051750  1
  O  O18  1  0.99078828  0.58321497  0.25051750  1
  O  O19  1  0.50921172  0.41678503  0.75051750  1
  O  O20  1  0.50921172  0.08321497  0.24948250  1
  O  O21  1  0.99078828  0.91678503  0.74948250  1
  O  O22  1  0.49078828  0.58321497  0.24948250  1
  O  O23  1  0.00921172  0.41678503  0.74948250  1
  O  O24  1  0.18784020  0.25000000  0.50000000  1
  O  O25  1  0.31215980  0.75000000  0.00000000  1
  O  O26  1  0.95858239  0.57324550  0.06576831  1
  O  O27  1  0.68784020  0.25000000  0.00000000  1
  O  O28  1  0.54141761  0.07324550  0.43423169  1
  O  O29  1  0.95858239  0.92675450  0.93423169  1
  O  O30  1  0.45858239  0.57324550  0.43423169  1
  O  O31  1  0.04141761  0.42675450  0.93423169  1
  O  O32  1  0.45858239  0.92675450  0.56576831  1
  O  O33  1  0.04141761  0.07324550  0.06576831  1
  O  O34  1  0.54141761  0.42675450  0.56576831  1
  O  O35  1  0.81215980  0.75000000  0.50000000  1
loop_
_geom_bond_atom_site_label_1
_geom_bond_atom_site_label_2
_geom_bond_distance
_geom_bond_site_symmetry_2
Bi0 O19 2.201255 1_555
Bi0 O23 2.262799 1_555
Bi0 O17 2.307113 1_555
Bi0 O21 2.477843 1_455
Bi0 O15 2.501659 1_555
Bi0 O13 2.503757 1_555
Bi1 O18 2.201255 1_455
Bi1 O22 2.262799 1_555
Bi1 O16 2.307113 1_555
Bi1 O20 2.477843 1_555
Bi1 O14 2.501659 1_555
Bi1 O12 2.503757 1_455
Bi2 O17 2.201255 1_545
Bi2 O21 2.262799 1_545
Bi2 O19 2.307113 1_555
Bi2 O23 2.477843 1_655
Bi2 O13 2.501659 1_545
Bi2 O15 2.503757 1_555
Bi3 O16 2.201255 1_665
Bi3 O20 2.262799 1_565
Bi3 O18 2.307113 1_555
Bi3 O22 2.477843 1_555
Bi3 O12 2.501659 1_565
Bi3 O14 2.503757 1_655
Bi4 O23 2.201255 1_655
Bi4 O19 2.262799 1_555
Bi4 O21 2.307113 1_555
Bi4 O17 2.477843 1_555
Bi4 O2 2.501659 1_555
Bi4 O0 2.503757 1_655
Bi5 O22 2.201255 1_555
Bi5 O18 2.262799 1_555
Bi5 O20 2.307113 1_555
Bi5 O16 2.477843 1_655
Bi5 O3 2.501659 1_555
Bi5 O1 2.503757 1_555
Bi6 O21 2.201255 1_445
Bi6 O17 2.262799 1_545
Bi6 O23 2.307113 1_555
Bi6 O19 2.477843 1_555
Bi6 O0 2.501659 1_545
Bi6 O2 2.503757 1_455
Bi7 O20 2.201255 1_565
Bi7 O16 2.262799 1_565
Bi7 O22 2.307113 1_555
Bi7 O18 2.477843 1_455
Bi7 O1 2.501659 1_565
Bi7 O3 2.503757 1_555
O0 W4 1.870355 1_555
O1 W5 1.870355 1_555
O2 W6 1.870355 1_555
O3 W7 1.870355 1_555
O4 W0 1.811610 1_555
O4 W2 2.125269 1_555
O5 W1 1.811610 1_455
O5 W3 2.125269 1_555
O6 W2 1.811610 1_545
O6 W0 2.125269 1_555
O7 W3 1.811610 1_665
O7 W1 2.125269 1_555
O8 W4 1.811610 1_555
O8 W6 2.125269 1_555
O9 W5 1.811610 1_655
O9 W7 2.125269 1_555
O10 W6 1.811610 1_565
O10 W4 2.125269 1_555
O11 W7 1.811610 1_445
O11 W5 2.125269 1_555
O12 W0 1.870355 1_555
O13 W1 1.870355 1_555
O14 W2 1.870355 1_555
O15 W3 1.870355 1_555
O24 W3 1.907952 1_555
O24 W5 1.907952 1_555
O25 W2 1.907952 1_555
O25 W4 1.907952 1_554
O26 W0 1.784483 1_555
O26 W2 2.135389 1_655
O27 W6 1.907952 1_554
O27 W0 1.907952 1_555
O28 W7 1.784483 1_545
O28 W5 2.135389 1_555
O29 W6 1.784483 1_565
O29 W4 2.135389 1_655
O30 W5 1.784483 1_555
O30 W7 2.135389 1_555
O31 W4 1.784483 1_555
O31 W6 2.135389 1_455
O32 W3 1.784483 1_565
O32 W1 2.135389 1_555
O33 W2 1.784483 1_545
O33 W0 2.135389 1_455
O34 W1 1.784483 1_555
O34 W3 2.135389 1_555
O35 W1 1.907952 1_555
O35 W7 1.907952 1_555
