# generated using pymatgen
data_Na2Mg2Ti6Si3(S3O16)3
_symmetry_space_group_name_H-M   'P 1'
_cell_length_a   17.33886176
_cell_length_b   8.64882899
_cell_length_c   22.44385323
_cell_angle_alpha   90.01958618
_cell_angle_beta   89.84235553
_cell_angle_gamma   119.95555693
_symmetry_Int_Tables_number   1
_chemical_formula_structural   Na2Mg2Ti6Si3(S3O16)3
_chemical_formula_sum   'Na6 Mg6 Ti18 Si9 S27 O144'
_cell_volume   2916.07247364
_cell_formula_units_Z   3
loop_
 _symmetry_equiv_pos_site_id
 _symmetry_equiv_pos_as_xyz
  1  'x, y, z'
loop_
 _atom_site_type_symbol
 _atom_site_label
 _atom_site_symmetry_multiplicity
 _atom_site_fract_x
 _atom_site_fract_y
 _atom_site_fract_z
 _atom_site_occupancy
  Na  Na0  1  0.00125258  0.99654023  0.49675493  1
  Na  Na1  1  0.50023338  0.00428357  0.99864052  1
  Na  Na2  1  0.33324871  0.33101388  0.83588938  1
  Na  Na3  1  0.83426742  0.33397762  0.83501149  1
  Na  Na4  1  0.33054114  0.33046894  0.33353094  1
  Na  Na5  1  0.83412946  0.33635697  0.33429489  1
  Mg  Mg0  1  0.00359866  0.99811059  0.35378486  1
  Mg  Mg1  1  0.49978703  0.00321250  0.85453784  1
  Mg  Mg2  1  0.00105031  0.00329740  0.64885954  1
  Mg  Mg3  1  0.50027108  0.99703568  0.14904870  1
  Mg  Mg4  1  0.83431050  0.33370530  0.98178864  1
  Mg  Mg5  1  0.33313090  0.33288086  0.47997518  1
  Ti  Ti0  1  0.51106662  0.01138448  0.35485490  1
  Ti  Ti1  1  0.01223776  0.01205980  0.85611943  1
  Ti  Ti2  1  0.50269277  0.00105860  0.64096017  1
  Ti  Ti3  1  0.01006848  0.00284257  0.14447862  1
  Ti  Ti4  1  0.32453888  0.32600688  0.68742779  1
  Ti  Ti5  1  0.83193953  0.32100652  0.68315939  1
  Ti  Ti6  1  0.32524267  0.33483026  0.18768310  1
  Ti  Ti7  1  0.82767027  0.31994146  0.18811652  1
  Ti  Ti8  1  0.32706655  0.32089993  0.97687187  1
  Ti  Ti9  1  0.82740105  0.33369679  0.47488979  1
  Ti  Ti10  1  0.16422860  0.67044698  0.02477905  1
  Ti  Ti11  1  0.66066181  0.65180194  0.02300981  1
  Ti  Ti12  1  0.16277707  0.66826676  0.51720807  1
  Ti  Ti13  1  0.66463040  0.66160615  0.52155356  1
  Ti  Ti14  1  0.15905594  0.66956106  0.30977900  1
  Ti  Ti15  1  0.66830540  0.66195753  0.30836498  1
  Ti  Ti16  1  0.16722189  0.67100421  0.81059814  1
  Ti  Ti17  1  0.66141952  0.65980945  0.81532536  1
  Si  Si0  1  0.14419887  0.00177283  0.25194308  1
  Si  Si1  1  0.64232982  0.99321004  0.24765935  1
  Si  Si2  1  0.14204392  0.29180042  0.74778808  1
  Si  Si3  1  0.68987081  0.04105066  0.58111295  1
  Si  Si4  1  0.18902035  0.33696317  0.08170074  1
  Si  Si5  1  0.51929494  0.37041457  0.91809788  1
  Si  Si6  1  0.16627373  0.94887443  0.91705754  1
  Si  Si7  1  0.66496003  0.38178066  0.41639878  1
  Si  Si8  1  0.01966284  0.67005248  0.41625197  1
  S  S0  1  0.35557495  0.71364129  0.25084211  1
  S  S1  1  0.85668293  0.71187055  0.24915833  1
  S  S2  1  0.99948579  0.28598872  0.24999565  1
  S  S3  1  0.49933924  0.28817926  0.24990842  1
  S  S4  1  0.64502512  0.28907883  0.74987667  1
  S  S5  1  0.99883145  0.70963461  0.75010827  1
  S  S6  1  0.50008992  0.71209919  0.74996402  1
  S  S7  1  0.35687086  0.00097997  0.74932495  1
  S  S8  1  0.85473027  0.99730882  0.75063389  1
  S  S9  1  0.47637075  0.33318138  0.58385250  1
  S  S10  1  0.97793558  0.33185425  0.58164422  1
  S  S11  1  0.18759299  0.04237200  0.58172985  1
  S  S12  1  0.33255011  0.62161122  0.58312336  1
  S  S13  1  0.83438080  0.62323667  0.58292427  1
  S  S14  1  0.47652689  0.62238707  0.08236465  1
  S  S15  1  0.97539663  0.61977060  0.08334878  1
  S  S16  1  0.33487431  0.04634931  0.08316378  1
  S  S17  1  0.83366031  0.04257990  0.08252406  1
  S  S18  1  0.68829339  0.33065358  0.08230903  1
  S  S19  1  0.31022680  0.66823717  0.91721880  1
  S  S20  1  0.81064166  0.66761168  0.91644319  1
  S  S21  1  0.02201446  0.37980961  0.91647401  1
  S  S22  1  0.66726214  0.95454118  0.91721788  1
  S  S23  1  0.31092801  0.95432621  0.41569547  1
  S  S24  1  0.81050705  0.95220710  0.41677667  1
  S  S25  1  0.16752329  0.38007174  0.41640226  1
  S  S26  1  0.52207006  0.66431238  0.41600055  1
  O  O0  1  0.10650409  0.04690032  0.30820561  1
  O  O1  1  0.59996087  0.03445831  0.30843596  1
  O  O2  1  0.41183613  0.79311103  0.30405481  1
  O  O3  1  0.90831457  0.78377749  0.30316558  1
  O  O4  1  0.48319423  0.17577095  0.30404891  1
  O  O5  1  0.98027309  0.17912643  0.30362353  1
  O  O6  1  0.10001324  0.16564864  0.80840869  1
  O  O7  1  0.60744429  0.17888199  0.80261658  1
  O  O8  1  0.48370558  0.78781332  0.80309468  1
  O  O9  1  0.98212718  0.78902373  0.80396415  1
  O  O10  1  0.41024751  0.03425511  0.80260446  1
  O  O11  1  0.91032861  0.03150864  0.80382450  1
  O  O12  1  0.39801978  0.97317575  0.69573936  1
  O  O13  1  0.89115170  0.96775789  0.69637846  1
  O  O14  1  0.08631908  0.20823583  0.69087467  1
  O  O15  1  0.58922158  0.20757739  0.69632552  1
  O  O16  1  0.01431590  0.81494675  0.69660743  1
  O  O17  1  0.51404758  0.82337236  0.69610514  1
  O  O18  1  0.39178676  0.81678896  0.19665028  1
  O  O19  1  0.89496884  0.82079276  0.19550269  1
  O  O20  1  0.01268852  0.20495412  0.19593921  1
  O  O21  1  0.51558704  0.21418343  0.19666418  1
  O  O22  1  0.08252680  0.96802485  0.19175140  1
  O  O23  1  0.58622444  0.96418224  0.19076290  1
  O  O24  1  0.43570396  0.36197146  0.63745996  1
  O  O25  1  0.93678919  0.36426102  0.63696632  1
  O  O26  1  0.24513588  0.12950756  0.63655826  1
  O  O27  1  0.75209559  0.14036963  0.64086850  1
  O  O28  1  0.31929097  0.50874698  0.63747844  1
  O  O29  1  0.81954964  0.50931392  0.63684805  1
  O  O30  1  0.43999092  0.51181509  0.13638051  1
  O  O31  1  0.93559073  0.50870060  0.13692679  1
  O  O32  1  0.31926506  0.12695433  0.13642511  1
  O  O33  1  0.81772352  0.12966093  0.13688528  1
  O  O34  1  0.25217435  0.36719327  0.14018490  1
  O  O35  1  0.74492790  0.36276782  0.13633055  1
  O  O36  1  0.23795214  0.30257832  0.02594391  1
  O  O37  1  0.72921139  0.30480226  0.02936146  1
  O  O38  1  0.42253377  0.53630322  0.02917179  1
  O  O39  1  0.92324726  0.54426844  0.02984084  1
  O  O40  1  0.34952470  0.15675846  0.02887220  1
  O  O41  1  0.84949386  0.15497460  0.03058084  1
  O  O42  1  0.22995137  0.15548047  0.53012179  1
  O  O43  1  0.73736211  0.17433925  0.52643866  1
  O  O44  1  0.35164301  0.54691781  0.53105021  1
  O  O45  1  0.84961210  0.54155959  0.52947402  1
  O  O46  1  0.42298187  0.29846736  0.53059641  1
  O  O47  1  0.92168037  0.30744538  0.53001621  1
  O  O48  1  0.26842433  0.69449968  0.97065432  1
  O  O49  1  0.76960240  0.69671649  0.97017333  1
  O  O50  1  0.07711372  0.45650782  0.97011171  1
  O  O51  1  0.58704847  0.48226821  0.97450628  1
  O  O52  1  0.15199773  0.82641447  0.97499089  1
  O  O53  1  0.65504673  0.84375740  0.97064353  1
  O  O54  1  0.26948063  0.84286333  0.47078479  1
  O  O55  1  0.76794641  0.84234071  0.47095331  1
  O  O56  1  0.15666574  0.47090857  0.47171411  1
  O  O57  1  0.65213455  0.47706644  0.47521975  1
  O  O58  1  0.08586658  0.69208769  0.47454640  1
  O  O59  1  0.57749025  0.69719717  0.47047538  1
  O  O60  1  0.06955573  0.63238342  0.35996168  1
  O  O61  1  0.56435700  0.63680178  0.36325049  1
  O  O62  1  0.25386960  0.86992869  0.36302078  1
  O  O63  1  0.75516820  0.87501127  0.36330881  1
  O  O64  1  0.18270070  0.49133813  0.36326119  1
  O  O65  1  0.68190283  0.50626542  0.35881545  1
  O  O66  1  0.06424496  0.49128559  0.86293996  1
  O  O67  1  0.57139328  0.50639868  0.85955345  1
  O  O68  1  0.18169275  0.85815371  0.85842718  1
  O  O69  1  0.68208402  0.87108502  0.86222242  1
  O  O70  1  0.25543122  0.63647072  0.86292351  1
  O  O71  1  0.75273347  0.63808571  0.86246055  1
  O  O72  1  0.01036419  0.84156344  0.41512102  1
  O  O73  1  0.51223986  0.82419003  0.40851649  1
  O  O74  1  0.39817707  0.96827437  0.40806822  1
  O  O75  1  0.89906599  0.97428138  0.41085743  1
  O  O76  1  0.08566507  0.20783319  0.41368352  1
  O  O77  1  0.57718577  0.18573531  0.40704250  1
  O  O78  1  0.01176967  0.19975194  0.90779047  1
  O  O79  1  0.51404432  0.18421431  0.91242092  1
  O  O80  1  0.07789511  0.96822069  0.90686857  1
  O  O81  1  0.58678769  0.96666245  0.90993662  1
  O  O82  1  0.39909824  0.82387559  0.91029411  1
  O  O83  1  0.89761392  0.82721320  0.90670295  1
  O  O84  1  0.48763948  0.17362636  0.59461716  1
  O  O85  1  0.98558041  0.17260334  0.58888537  1
  O  O86  1  0.09889658  0.01857657  0.58990314  1
  O  O87  1  0.59261015  0.02344027  0.59725198  1
  O  O88  1  0.41235735  0.80116999  0.59523826  1
  O  O89  1  0.91274001  0.80003422  0.59046379  1
  O  O90  1  0.48720325  0.80052301  0.08749054  1
  O  O91  1  0.98550252  0.79911322  0.09196807  1
  O  O92  1  0.41298826  0.02483588  0.08945377  1
  O  O93  1  0.91076305  0.02195170  0.09471519  1
  O  O94  1  0.09127353  0.16368752  0.09404486  1
  O  O95  1  0.59841990  0.17956970  0.08951598  1
  O  O96  1  0.34606241  0.16199742  0.74026096  1
  O  O97  1  0.84611304  0.16493364  0.74337383  1
  O  O98  1  0.24482312  0.31363573  0.74036417  1
  O  O99  1  0.73666250  0.31383583  0.74093101  1
  O  O100  1  0.42183809  0.52992781  0.74056758  1
  O  O101  1  0.91871883  0.52719746  0.74377324  1
  O  O102  1  0.34853683  0.53164133  0.24434862  1
  O  O103  1  0.84484948  0.52843354  0.24012847  1
  O  O104  1  0.42089548  0.31246545  0.24408801  1
  O  O105  1  0.92113495  0.31457542  0.24029057  1
  O  O106  1  0.24604216  0.17104260  0.23816871  1
  O  O107  1  0.74478436  0.17628606  0.24057288  1
  O  O108  1  0.31878837  0.50577113  0.92333732  1
  O  O109  1  0.81870773  0.50665842  0.92198846  1
  O  O110  1  0.42622625  0.36859358  0.92595351  1
  O  O111  1  0.93314895  0.36046847  0.92256293  1
  O  O112  1  0.25267447  0.14824597  0.92368005  1
  O  O113  1  0.74743530  0.13175168  0.92220286  1
  O  O114  1  0.31964104  0.13141765  0.42337766  1
  O  O115  1  0.81855620  0.13139170  0.42404575  1
  O  O116  1  0.24714691  0.36242923  0.42431820  1
  O  O117  1  0.75200081  0.35727022  0.42394151  1
  O  O118  1  0.43358615  0.50588740  0.42348547  1
  O  O119  1  0.92617433  0.48440579  0.42742665  1
  O  O120  1  0.17810068  0.50926743  0.06998726  1
  O  O121  1  0.68331323  0.49941792  0.07588136  1
  O  O122  1  0.06568402  0.63980044  0.07647225  1
  O  O123  1  0.56834009  0.64329249  0.07381312  1
  O  O124  1  0.25376331  0.86825199  0.07491354  1
  O  O125  1  0.75267397  0.86640774  0.07496100  1
  O  O126  1  0.18354924  0.86690620  0.57641096  1
  O  O127  1  0.67684932  0.84571053  0.57148423  1
  O  O128  1  0.25455825  0.64274135  0.57644372  1
  O  O129  1  0.75333663  0.63800480  0.57573846  1
  O  O130  1  0.06731893  0.49399586  0.57571670  1
  O  O131  1  0.56626905  0.49085333  0.57676503  1
  O  O132  1  0.15805019  0.82735284  0.25905693  1
  O  O133  1  0.65930576  0.83071127  0.26602153  1
  O  O134  1  0.26532341  0.68414425  0.26108548  1
  O  O135  1  0.76611008  0.68990933  0.25655654  1
  O  O136  1  0.08022858  0.46452116  0.25639041  1
  O  O137  1  0.57905130  0.46802601  0.25980913  1
  O  O138  1  0.15971417  0.48896039  0.76570229  1
  O  O139  1  0.65566803  0.46976328  0.75734083  1
  O  O140  1  0.07777216  0.68750441  0.75962713  1
  O  O141  1  0.58124844  0.69577769  0.75699733  1
  O  O142  1  0.26719599  0.84283589  0.75601571  1
  O  O143  1  0.76420022  0.84382355  0.76072026  1
loop_
_geom_bond_atom_site_label_1
_geom_bond_atom_site_label_2
_geom_bond_distance
_geom_bond_site_symmetry_2
Na0 O72 2.320911 1_555
Na0 O76 2.504812 1_565
Na0 O75 2.563382 1_455
Na0 O86 2.640130 1_565
Na0 O89 2.654631 1_455
Na0 O85 2.660113 1_465
Na1 O79 2.418892 1_555
Na1 O92 2.593362 1_556
Na1 O82 2.593414 1_545
Na1 O90 2.595303 1_546
Na1 O81 2.606227 1_545
Na1 O95 2.606933 1_556
Na2 O112 2.472728 1_555
Na2 O110 2.506950 1_555
Na2 O108 2.563808 1_555
Na2 O98 2.599532 1_555
Na2 O96 2.666880 1_555
Na2 O100 2.691005 1_555
Na3 O111 2.545411 1_555
Na3 O109 2.551758 1_555
Na3 O113 2.551803 1_555
Na3 O101 2.583051 1_555
Na3 O97 2.589450 1_555
Na3 O99 2.660446 1_555
Na4 O102 2.566670 1_555
Na4 O106 2.574187 1_555
Na4 O116 2.588754 1_555
Na4 O104 2.595098 1_555
Na4 O114 2.596370 1_555
Na4 O118 2.623127 1_555
Na5 O117 2.519912 1_555
Na5 O119 2.555668 1_555
Na5 O107 2.572016 1_555
Na5 O115 2.606618 1_555
Na5 O103 2.636823 1_555
Na5 O105 2.651161 1_555
Mg0 O0 1.909577 1_565
Mg0 O72 1.975550 1_555
Mg0 O3 2.099271 1_455
Mg0 O5 2.125580 1_465
Mg0 O76 2.133880 1_565
Mg0 O75 2.140722 1_455
Mg1 O79 1.952787 1_555
Mg1 O10 2.065769 1_555
Mg1 O82 2.074782 1_545
Mg1 O7 2.075503 1_555
Mg1 O8 2.088765 1_545
Mg1 O81 2.099579 1_545
Mg2 O14 1.899013 1_555
Mg2 O16 2.057122 1_545
Mg2 O13 2.065680 1_445
Mg2 O86 2.100114 1_555
Mg2 O85 2.103223 1_455
Mg2 O89 2.115204 1_445
Mg3 O23 1.899767 1_555
Mg3 O18 2.042419 1_555
Mg3 O21 2.059579 1_565
Mg3 O90 2.112902 1_555
Mg3 O95 2.116505 1_565
Mg3 O92 2.124124 1_565
Mg4 O37 2.014407 1_556
Mg4 O39 2.015157 1_556
Mg4 O41 2.016730 1_556
Mg4 O111 2.085413 1_555
Mg4 O113 2.119028 1_555
Mg4 O109 2.125933 1_555
Mg5 O42 2.017492 1_555
Mg5 O116 2.058965 1_555
Mg5 O44 2.061817 1_555
Mg5 O118 2.065568 1_555
Mg5 O46 2.068701 1_555
Mg5 O114 2.073026 1_555
O0 Si0 1.556892 1_555
O1 Si1 1.668380 1_545
O1 Ti0 1.784664 1_555
O2 S0 1.478727 1_555
O2 Ti0 2.142351 1_565
O3 S1 1.451526 1_555
O4 S3 1.492382 1_555
O4 Ti0 2.060458 1_555
O5 S2 1.450846 1_555
O6 Si2 1.665576 1_555
O6 Ti1 1.788994 1_555
O7 S4 1.452718 1_555
O8 S6 1.454254 1_555
O9 S5 1.487442 1_555
O9 Ti1 2.088040 1_665
O10 S7 1.452292 1_555
O11 S8 1.470818 1_545
O11 Ti1 2.199201 1_655
O12 S7 1.476382 1_565
O12 Ti2 2.101061 1_565
O13 S8 1.450399 1_555
O14 Si2 1.548007 1_555
O15 S4 1.484021 1_555
O15 Ti2 2.077956 1_555
O16 S5 1.448546 1_455
O17 S6 1.487461 1_555
O17 Ti2 2.058412 1_565
O18 S0 1.451400 1_555
O19 S1 1.466348 1_555
O19 Ti3 2.150340 1_665
O20 S2 1.474332 1_455
O20 Ti3 2.076352 1_555
O21 S3 1.447291 1_555
O22 Si0 1.658207 1_565
O22 Ti3 1.783295 1_565
O23 Si1 1.550083 1_555
O24 S9 1.475549 1_555
O24 Ti4 2.111686 1_555
O25 S10 1.524400 1_555
O25 Ti5 1.957175 1_555
O26 S11 1.527386 1_555
O26 Ti4 1.938532 1_555
O27 Si3 1.668000 1_555
O27 Ti5 1.761972 1_555
O28 S12 1.506358 1_555
O28 Ti4 1.976962 1_555
O29 S13 1.499244 1_555
O29 Ti5 2.032429 1_555
O30 S14 1.475516 1_555
O30 Ti6 2.138824 1_555
O31 S15 1.476232 1_555
O31 Ti7 2.103647 1_555
O32 S16 1.474545 1_555
O32 Ti6 2.092788 1_555
O33 S17 1.528896 1_555
O33 Ti7 1.943332 1_555
O34 Si4 1.646855 1_555
O34 Ti6 1.783720 1_555
O35 S18 1.498468 1_555
O35 Ti7 2.021504 1_555
O36 Si4 1.618682 1_555
O36 Ti8 1.836252 1_554
O37 S18 1.455713 1_555
O38 S14 1.471565 1_555
O38 Ti8 2.125582 1_554
O39 S15 1.449831 1_555
O40 S16 1.489296 1_555
O40 Ti8 2.021082 1_554
O41 S17 1.453244 1_555
O42 S11 1.454854 1_555
O43 Si3 1.600059 1_555
O43 Ti9 1.875565 1_555
O44 S12 1.450436 1_555
O45 S13 1.480493 1_555
O45 Ti9 2.047141 1_555
O46 S9 1.450527 1_555
O47 S10 1.462548 1_555
O47 Ti9 2.153262 1_555
O48 S19 1.474686 1_555
O48 Ti10 2.096578 1_556
O49 S20 1.482523 1_555
O49 Ti11 2.092924 1_556
O50 S21 1.474742 1_555
O50 Ti10 2.104319 1_556
O51 Si5 1.670677 1_555
O51 Ti11 1.761163 1_556
O52 Si6 1.615871 1_555
O52 Ti10 1.844258 1_556
O53 S22 1.482370 1_555
O53 Ti11 2.076156 1_556
O54 S23 1.509499 1_555
O54 Ti12 1.997308 1_555
O55 S24 1.490489 1_555
O55 Ti13 2.033665 1_555
O56 S25 1.529546 1_555
O56 Ti12 1.945799 1_555
O57 Si7 1.628532 1_555
O57 Ti13 1.824966 1_555
O58 Si8 1.689792 1_555
O58 Ti12 1.737555 1_555
O59 S26 1.494112 1_555
O59 Ti13 2.041092 1_555
O60 Si8 1.650995 1_555
O60 Ti14 1.808985 1_555
O61 S26 1.471432 1_555
O61 Ti15 2.099901 1_555
O62 S23 1.481182 1_555
O62 Ti14 2.073148 1_555
O63 S24 1.473945 1_555
O63 Ti15 2.102754 1_555
O64 S25 1.471049 1_555
O64 Ti14 2.149407 1_555
O65 Si7 1.612063 1_555
O65 Ti15 1.862916 1_555
O66 S21 1.483333 1_555
O66 Ti16 2.049930 1_555
O67 Si5 1.690935 1_555
O67 Ti17 1.762508 1_555
O68 Si6 1.620349 1_555
O68 Ti16 1.852011 1_555
O69 S22 1.514415 1_555
O69 Ti17 1.980440 1_555
O70 S19 1.486135 1_555
O70 Ti16 2.067345 1_555
O71 S20 1.513836 1_555
O71 Ti17 1.991895 1_555
O72 Si8 1.570322 1_555
O73 S26 1.484910 1_555
O73 Ti0 2.026447 1_565
O74 S23 1.465864 1_555
O74 Ti0 2.157622 1_565
O75 S24 1.455344 1_555
O76 S25 1.458165 1_555
O77 Si7 1.630866 1_555
O77 Ti0 1.799958 1_555
O78 S21 1.489433 1_555
O78 Ti1 1.997984 1_555
O79 Si5 1.572089 1_555
O80 Si6 1.639057 1_555
O80 Ti1 1.782020 1_565
O81 S22 1.460139 1_555
O82 S19 1.462176 1_555
O83 S20 1.465217 1_555
O83 Ti1 2.147193 1_665
O84 S9 1.506851 1_555
O84 Ti2 1.941426 1_555
O85 S10 1.457267 1_555
O86 S11 1.457231 1_555
O87 Si3 1.654835 1_555
O87 Ti2 1.766579 1_555
O88 S12 1.502060 1_555
O88 Ti2 1.948989 1_565
O89 S13 1.462558 1_555
O90 S14 1.461621 1_555
O91 S15 1.484117 1_555
O91 Ti3 1.981647 1_665
O92 S16 1.463458 1_555
O93 S17 1.460878 1_555
O93 Ti3 2.129409 1_655
O94 Si4 1.629806 1_555
O94 Ti3 1.798662 1_555
O95 S18 1.458491 1_555
O96 S7 1.508944 1_555
O96 Ti4 2.022302 1_555
O97 S8 1.538600 1_545
O97 Ti5 2.010781 1_555
O98 Si2 1.703382 1_555
O98 Ti4 1.782360 1_555
O99 S4 1.506400 1_555
O99 Ti5 2.073669 1_555
O100 S6 1.494753 1_555
O100 Ti4 2.101754 1_555
O101 S5 1.500499 1_555
O101 Ti5 2.150543 1_555
O102 S0 1.523807 1_555
O102 Ti6 1.998197 1_555
O103 S1 1.508353 1_555
O103 Ti7 2.041343 1_555
O104 S3 1.482373 1_555
O104 Ti6 2.173196 1_555
O105 S2 1.513681 1_555
O105 Ti7 2.021189 1_555
O106 Si0 1.665127 1_555
O106 Ti6 1.796169 1_555
O107 Si1 1.696400 1_545
O107 Ti7 1.789880 1_555
O108 S19 1.491264 1_555
O108 Ti8 2.062099 1_555
O109 S20 1.472248 1_555
O110 Si5 1.615064 1_555
O110 Ti8 1.927033 1_555
O111 S21 1.470463 1_655
O112 Si6 1.631258 1_545
O112 Ti8 1.844599 1_555
O113 S22 1.472078 1_545
O114 S23 1.472188 1_545
O115 S24 1.493900 1_545
O115 Ti9 2.029481 1_555
O116 S25 1.473975 1_555
O117 Si7 1.634678 1_555
O117 Ti9 1.825611 1_555
O118 S26 1.469302 1_555
O119 Si8 1.633208 1_655
O119 Ti9 1.878407 1_555
O120 Si4 1.614950 1_555
O120 Ti10 1.835155 1_555
O121 S18 1.511563 1_555
O121 Ti11 1.954458 1_555
O122 S15 1.494127 1_455
O122 Ti10 1.967947 1_555
O123 S14 1.521409 1_555
O123 Ti11 1.933985 1_555
O124 S16 1.490860 1_565
O124 Ti10 1.989701 1_555
O125 S17 1.478739 1_565
O125 Ti11 2.097952 1_555
O126 S11 1.488576 1_565
O126 Ti12 2.056680 1_555
O127 Si3 1.603450 1_565
O127 Ti13 1.870638 1_555
O128 S12 1.460307 1_555
O128 Ti12 2.170583 1_555
O129 S13 1.482381 1_555
O129 Ti13 2.051889 1_555
O130 S10 1.488189 1_455
O130 Ti12 2.057593 1_555
O131 S9 1.480068 1_555
O131 Ti13 2.024715 1_555
O132 Si0 1.649550 1_565
O132 Ti14 1.784275 1_555
O133 Si1 1.626616 1_555
O133 Ti15 1.812989 1_555
O134 S0 1.471768 1_555
O134 Ti14 2.088592 1_555
O135 S1 1.493519 1_555
O135 Ti15 1.966276 1_555
O136 S2 1.485578 1_455
O136 Ti14 2.008904 1_555
O137 S3 1.494524 1_555
O137 Ti15 1.952349 1_555
O138 Si2 1.625334 1_555
O138 Ti16 1.818289 1_555
O139 S4 1.488684 1_555
O139 Ti17 2.059322 1_555
O140 S5 1.489629 1_455
O140 Ti16 1.991343 1_555
O141 S6 1.491529 1_555
O141 Ti17 2.045722 1_555
O142 S7 1.478495 1_565
O142 Ti16 2.032494 1_555
O143 S8 1.481444 1_555
O143 Ti17 2.089892 1_555
