# generated using pymatgen
data_Na10Hf4Si9Sn4(SO16)3
_symmetry_space_group_name_H-M   'P 1'
_cell_length_a   18.07609290
_cell_length_b   9.05415386
_cell_length_c   22.97786833
_cell_angle_alpha   90.17513599
_cell_angle_beta   89.96508211
_cell_angle_gamma   120.05705060
_symmetry_Int_Tables_number   1
_chemical_formula_structural   Na10Hf4Si9Sn4(SO16)3
_chemical_formula_sum   'Na30 Hf12 Si27 Sn12 S9 O144'
_cell_volume   3254.92191106
_cell_formula_units_Z   3
loop_
 _symmetry_equiv_pos_site_id
 _symmetry_equiv_pos_as_xyz
  1  'x, y, z'
loop_
 _atom_site_type_symbol
 _atom_site_label
 _atom_site_symmetry_multiplicity
 _atom_site_fract_x
 _atom_site_fract_y
 _atom_site_fract_z
 _atom_site_occupancy
  Na  Na0  1  0.32020581  0.99922108  0.24934909  1
  Na  Na1  1  0.82126742  -0.00019482  0.24963974  1
  Na  Na2  1  0.18380470  0.99257528  0.74828005  1
  Na  Na3  1  0.68313243  0.99586382  0.74765641  1
  Na  Na4  1  0.01775179  0.70522183  0.58139112  1
  Na  Na5  1  0.51715277  0.70499898  0.58167949  1
  Na  Na6  1  0.01875478  0.33146456  0.08148283  1
  Na  Na7  1  0.51583896  0.32615223  0.08223749  1
  Na  Na8  1  0.48419771  0.66538232  0.91461000  1
  Na  Na9  1  0.34841123  0.03171652  0.91655322  1
  Na  Na10  1  0.85109272  0.04050243  0.91477832  1
  Na  Na11  1  0.16598607  0.30342876  0.91941590  1
  Na  Na12  1  0.48448671  0.30268356  0.41487905  1
  Na  Na13  1  0.98544891  0.30484349  0.41496943  1
  Na  Na14  1  0.16657928  0.03140079  0.41886317  1
  Na  Na15  1  0.66645479  0.03173687  0.41880588  1
  Na  Na16  1  0.34896810  0.66561798  0.41613731  1
  Na  Na17  1  0.84902717  0.66551995  0.41650376  1
  Na  Na18  1  0.00150201  0.00091946  0.50068226  1
  Na  Na19  1  0.50028594  0.99977722  0.50108525  1
  Na  Na20  1  0.00522274  0.00215167  0.00121319  1
  Na  Na21  1  0.50325888  0.00718935  0.99970103  1
  Na  Na22  1  0.33871878  0.33841113  0.83252141  1
  Na  Na23  1  0.84111341  0.34176330  0.83226373  1
  Na  Na24  1  0.33656443  0.34518107  0.33203830  1
  Na  Na25  1  0.83728150  0.34578196  0.33244511  1
  Na  Na26  1  0.17119092  0.66193888  0.16661283  1
  Na  Na27  1  0.67053911  0.66066381  0.16802250  1
  Na  Na28  1  0.17412905  0.67422440  0.66691495  1
  Na  Na29  1  0.67378117  0.67229418  0.66515057  1
  Hf  Hf0  1  0.99500974  0.99627348  0.35218344  1
  Hf  Hf1  1  0.99750459  0.99431730  0.85067764  1
  Hf  Hf2  1  0.49543119  0.99666027  0.85353544  1
  Hf  Hf3  1  0.99462456  0.98236821  0.64675891  1
  Hf  Hf4  1  0.99647930  0.00852528  0.14753252  1
  Hf  Hf5  1  0.83243686  0.33990504  0.18600420  1
  Hf  Hf6  1  0.82868131  0.31920893  0.98180002  1
  Hf  Hf7  1  0.17360202  0.67172954  0.01849953  1
  Hf  Hf8  1  0.66809954  0.66753028  0.02012292  1
  Hf  Hf9  1  0.17470976  0.67700269  0.51926900  1
  Hf  Hf10  1  0.16652156  0.67165065  0.81583717  1
  Hf  Hf11  1  0.66166373  0.67208736  0.81260746  1
  Si  Si0  1  0.35407398  0.70482017  0.24963181  1
  Si  Si1  1  0.85215786  0.70451059  0.25024489  1
  Si  Si2  1  0.00172423  0.30021594  0.25067269  1
  Si  Si3  1  0.50106319  0.29912480  0.25009467  1
  Si  Si4  1  0.99766081  0.70000560  0.74927464  1
  Si  Si5  1  0.49582004  0.70246728  0.74963335  1
  Si  Si6  1  0.35467045  0.00245034  0.74867220  1
  Si  Si7  1  0.85397324  0.00197524  0.74961724  1
  Si  Si8  1  0.18796511  0.04425076  0.58440006  1
  Si  Si9  1  0.68697737  0.04250085  0.58468637  1
  Si  Si10  1  0.33135435  0.62067359  0.58449969  1
  Si  Si11  1  0.82882373  0.61838791  0.58326216  1
  Si  Si12  1  0.33070372  0.04097555  0.08487277  1
  Si  Si13  1  0.83068969  0.03883525  0.08487884  1
  Si  Si14  1  0.18807015  0.33275874  0.08388309  1
  Si  Si15  1  0.68574045  0.32927859  0.08423902  1
  Si  Si16  1  0.31227860  0.66267717  0.91602365  1
  Si  Si17  1  0.02017981  0.37852107  0.91725117  1
  Si  Si18  1  0.52181695  0.37521789  0.91814180  1
  Si  Si19  1  0.16296363  0.95320772  0.91759352  1
  Si  Si20  1  0.66566877  0.95896875  0.91702414  1
  Si  Si21  1  0.31203634  0.96014852  0.41472149  1
  Si  Si22  1  0.81085996  0.95889409  0.41517653  1
  Si  Si23  1  0.16582805  0.37459765  0.41803167  1
  Si  Si24  1  0.66512015  0.37432153  0.41773374  1
  Si  Si25  1  0.02217906  0.66539216  0.41785575  1
  Si  Si26  1  0.52260266  0.66657682  0.41735038  1
  Sn  Sn0  1  0.49522188  0.99665360  0.35173489  1
  Sn  Sn1  1  0.49541345  0.98300961  0.64785213  1
  Sn  Sn2  1  0.49558377  0.00890940  0.14797982  1
  Sn  Sn3  1  0.33454558  0.33355761  0.68542967  1
  Sn  Sn4  1  0.83418732  0.33438990  0.68528185  1
  Sn  Sn5  1  0.33236991  0.33798218  0.18598027  1
  Sn  Sn6  1  0.32791153  0.31940124  0.98048268  1
  Sn  Sn7  1  0.32922557  0.33582029  0.48126587  1
  Sn  Sn8  1  0.82884593  0.33441639  0.48117746  1
  Sn  Sn9  1  0.67336234  0.67614269  0.51802186  1
  Sn  Sn10  1  0.16608343  0.65313133  0.31569728  1
  Sn  Sn11  1  0.66565305  0.65288016  0.31565625  1
  S  S0  1  0.14467499  0.99814850  0.24994847  1
  S  S1  1  0.64441797  0.99876307  0.24942690  1
  S  S2  1  0.14420067  0.29083299  0.74912648  1
  S  S3  1  0.64424721  0.29075440  0.74961752  1
  S  S4  1  0.48018871  0.33131811  0.58290465  1
  S  S5  1  0.97935809  0.33105994  0.58283926  1
  S  S6  1  0.47943901  0.62852582  0.08316384  1
  S  S7  1  0.97808158  0.62493515  0.08312457  1
  S  S8  1  0.81077674  0.66343302  0.91598801  1
  O  O0  1  0.10612425  0.02485711  0.30326065  1
  O  O1  1  0.60848760  0.02960057  0.30358614  1
  O  O2  1  0.41149408  0.78537714  0.30921760  1
  O  O3  1  0.91038127  0.79187814  0.30857358  1
  O  O4  1  0.48065355  0.17581498  0.30801070  1
  O  O5  1  0.98436732  0.17517248  0.30711553  1
  O  O6  1  0.10545859  0.18370721  0.80267051  1
  O  O7  1  0.60508487  0.18108254  0.80126284  1
  O  O8  1  0.48666822  0.79625420  0.80738767  1
  O  O9  1  0.98546367  0.79920582  0.80501608  1
  O  O10  1  0.41289497  0.03415973  0.80688999  1
  O  O11  1  0.91089516  0.03036752  0.80863701  1
  O  O12  1  0.40025002  0.97555725  0.69143936  1
  O  O13  1  0.90247222  0.97917854  0.69398189  1
  O  O14  1  0.09172911  0.20915398  0.69779244  1
  O  O15  1  0.59278246  0.21698459  0.69643730  1
  O  O16  1  0.01741721  0.82648842  0.69276069  1
  O  O17  1  0.52358848  0.82770997  0.69234955  1
  O  O18  1  0.39874137  0.83112730  0.19357522  1
  O  O19  1  0.90061184  0.83138116  0.19530530  1
  O  O20  1  0.01512856  0.20700141  0.19323390  1
  O  O21  1  0.51907712  0.21784984  0.19186772  1
  O  O22  1  0.09200809  0.97471568  0.19829207  1
  O  O23  1  0.59102343  0.97062520  0.19762319  1
  O  O24  1  0.44182368  0.36534914  0.63480700  1
  O  O25  1  0.94083122  0.36562551  0.63473212  1
  O  O26  1  0.24607421  0.12553777  0.64301880  1
  O  O27  1  0.74531786  0.12396531  0.64314326  1
  O  O28  1  0.31843832  0.50320756  0.64102145  1
  O  O29  1  0.81755348  0.50308380  0.64018152  1
  O  O30  1  0.44264898  0.51801006  0.13493412  1
  O  O31  1  0.93790433  0.51440267  0.13506068  1
  O  O32  1  0.31912236  0.13001893  0.14379730  1
  O  O33  1  0.81984339  0.13175883  0.14209241  1
  O  O34  1  0.24914787  0.36994655  0.14031917  1
  O  O35  1  0.74722126  0.36236720  0.13991392  1
  O  O36  1  0.22807748  0.30234039  0.02367610  1
  O  O37  1  0.73322137  0.30755850  0.02713857  1
  O  O38  1  0.42807819  0.55414104  0.02962583  1
  O  O39  1  0.92463385  0.54572846  0.03096119  1
  O  O40  1  0.35652692  0.16619558  0.02682093  1
  O  O41  1  0.85137486  0.16206086  0.02727772  1
  O  O42  1  0.22899513  0.15426616  0.52451765  1
  O  O43  1  0.72758335  0.15283247  0.52487978  1
  O  O44  1  0.35647365  0.54851422  0.52553206  1
  O  O45  1  0.85595913  0.54813704  0.52494158  1
  O  O46  1  0.42797712  0.30175281  0.52934446  1
  O  O47  1  0.92688216  0.30120192  0.52932570  1
  O  O48  1  0.27144740  0.70510089  0.97220133  1
  O  O49  1  0.77277594  0.69720863  0.96839551  1
  O  O50  1  0.07948403  0.45790339  0.97553215  1
  O  O51  1  0.57876834  0.46398343  0.97612321  1
  O  O52  1  0.14988979  0.83627889  0.97369165  1
  O  O53  1  0.65111207  0.83299649  0.97170614  1
  O  O54  1  0.27009080  0.83586694  0.47054336  1
  O  O55  1  0.77427388  0.83675570  0.47163698  1
  O  O56  1  0.14590711  0.46064979  0.47338056  1
  O  O57  1  0.64252153  0.45425781  0.47407545  1
  O  O58  1  0.07996072  0.69953648  0.47614951  1
  O  O59  1  0.58014902  0.70440049  0.47667330  1
  O  O60  1  0.06306958  0.62673551  0.36039881  1
  O  O61  1  0.56347537  0.62748316  0.36037759  1
  O  O62  1  0.25170295  0.88254229  0.35674896  1
  O  O63  1  0.75090306  0.88212363  0.35690229  1
  O  O64  1  0.19018083  0.49614152  0.36100116  1
  O  O65  1  0.69000445  0.49606178  0.36097082  1
  O  O66  1  0.06678813  0.49309858  0.86019392  1
  O  O67  1  0.56752287  0.50013772  0.86238357  1
  O  O68  1  0.18457414  0.87663454  0.85929416  1
  O  O69  1  0.68580729  0.87436869  0.85978886  1
  O  O70  1  0.25039109  0.62489160  0.86034497  1
  O  O71  1  0.75857252  0.63762405  0.86411893  1
  O  O72  1  0.01246062  0.83543381  0.41005144  1
  O  O73  1  0.51368533  0.83893162  0.41030643  1
  O  O74  1  0.40704185  0.97747469  0.41206101  1
  O  O75  1  0.90618472  0.97918864  0.40986733  1
  O  O76  1  0.08289117  0.18366372  0.40934364  1
  O  O77  1  0.58130849  0.18177323  0.40922361  1
  O  O78  1  0.00900129  0.18440364  0.90976939  1
  O  O79  1  0.50785725  0.18458592  0.91048358  1
  O  O80  1  0.08322579  0.98875968  0.90886804  1
  O  O81  1  0.58037049  0.97170727  0.90886087  1
  O  O82  1  0.40667640  0.83417216  0.91058944  1
  O  O83  1  0.89641954  0.82348429  0.91069067  1
  O  O84  1  0.48979313  0.17974961  0.58976968  1
  O  O85  1  0.98912859  0.18123868  0.59041108  1
  O  O86  1  0.09245064  0.02359215  0.59034672  1
  O  O87  1  0.59071793  0.02332114  0.59040922  1
  O  O88  1  0.42023054  0.80984421  0.58710569  1
  O  O89  1  0.91721938  0.80675494  0.58912976  1
  O  O90  1  0.49028513  0.80008201  0.09067317  1
  O  O91  1  0.98811948  0.79554706  0.09107853  1
  O  O92  1  0.41974356  0.02964738  0.08738451  1
  O  O93  1  0.91894348  0.02730330  0.08907620  1
  O  O94  1  0.09254641  0.16136796  0.09054665  1
  O  O95  1  0.58977072  0.15628960  0.09004148  1
  O  O96  1  0.33936592  0.16886609  0.74400251  1
  O  O97  1  0.83790111  0.16684525  0.74425403  1
  O  O98  1  0.22941423  0.30177592  0.74566105  1
  O  O99  1  0.72980682  0.30254418  0.74499978  1
  O  O100  1  0.41224193  0.51366549  0.74329071  1
  O  O101  1  0.91153724  0.51341770  0.74313890  1
  O  O102  1  0.34436841  0.51582220  0.24433392  1
  O  O103  1  0.84275425  0.51732265  0.24398451  1
  O  O104  1  0.40983604  0.30002357  0.24344814  1
  O  O105  1  0.91178737  0.30145319  0.24280375  1
  O  O106  1  0.23220440  0.15218480  0.24592711  1
  O  O107  1  0.73167359  0.15239996  0.24376098  1
  O  O108  1  0.32485662  0.49636738  0.92400502  1
  O  O109  1  0.82275028  0.51603888  0.92406629  1
  O  O110  1  0.42719324  0.36238201  0.92385073  1
  O  O111  1  0.92401821  0.35301750  0.92383133  1
  O  O112  1  0.25090001  0.14444102  0.92013832  1
  O  O113  1  0.75329292  0.14478927  0.92267484  1
  O  O114  1  0.32425277  0.15133427  0.42364674  1
  O  O115  1  0.82372334  0.15099843  0.42348786  1
  O  O116  1  0.25197562  0.35595082  0.42134620  1
  O  O117  1  0.75080672  0.35469681  0.42165260  1
  O  O118  1  0.42731032  0.49402901  0.42374924  1
  O  O119  1  0.92630650  0.49226442  0.42349422  1
  O  O120  1  0.17083878  0.49443555  0.07816643  1
  O  O121  1  0.67078237  0.49358980  0.07681376  1
  O  O122  1  0.06215972  0.63547607  0.07780602  1
  O  O123  1  0.56472517  0.63997218  0.07694676  1
  O  O124  1  0.24645477  0.85448538  0.07882597  1
  O  O125  1  0.74802624  0.85110404  0.07583551  1
  O  O126  1  0.17143858  0.84825036  0.57844562  1
  O  O127  1  0.66995350  0.84488681  0.57891407  1
  O  O128  1  0.24698991  0.63879418  0.57825874  1
  O  O129  1  0.74405924  0.63748454  0.57845900  1
  O  O130  1  0.06351803  0.48978842  0.57711367  1
  O  O131  1  0.56446189  0.49090052  0.57778858  1
  O  O132  1  0.15582793  0.84690935  0.25486699  1
  O  O133  1  0.65615040  0.84825383  0.25487107  1
  O  O134  1  0.26287486  0.70587683  0.25526759  1
  O  O135  1  0.76084095  0.70559633  0.25524865  1
  O  O136  1  0.08650763  0.48892943  0.25424644  1
  O  O137  1  0.58529586  0.48866998  0.25466820  1
  O  O138  1  0.15425627  0.46209523  0.75572818  1
  O  O139  1  0.65593310  0.46318378  0.75768930  1
  O  O140  1  0.08582589  0.69238958  0.75533159  1
  O  O141  1  0.58418697  0.69104213  0.75604284  1
  O  O142  1  0.25924688  0.83405840  0.75511317  1
  O  O143  1  0.75895619  0.83123511  0.75705480  1
loop_
_geom_bond_atom_site_label_1
_geom_bond_atom_site_label_2
_geom_bond_distance
_geom_bond_site_symmetry_2
Na0 O134 2.321970 1_555
Na0 O104 2.375433 1_565
Na0 O132 2.577304 1_555
Na0 O106 2.581159 1_565
Na0 O32 2.706670 1_565
Na0 O62 2.727874 1_555
Na0 O18 2.850299 1_555
Na0 O4 2.851540 1_565
Na1 O135 2.322254 1_545
Na1 O105 2.384742 1_555
Na1 O133 2.589130 1_545
Na1 O107 2.606284 1_555
Na1 O63 2.735380 1_545
Na1 O33 2.753878 1_555
Na1 O19 2.849257 1_545
Na1 O5 2.874005 1_555
Na2 O140 2.393842 1_555
Na2 O142 2.430325 1_555
Na2 O96 2.443147 1_565
Na2 O98 2.491933 1_565
Na2 O26 2.687627 1_565
Na2 O68 2.764077 1_555
Na2 O16 2.897759 1_555
Na2 O6 3.000320 1_565
Na3 O97 2.427217 1_565
Na3 O141 2.431296 1_555
Na3 O99 2.465767 1_565
Na3 O143 2.489139 1_555
Na3 O27 2.661517 1_565
Na3 O17 2.800780 1_555
Na3 O69 2.814580 1_555
Na3 O7 2.945359 1_565
Na4 O126 2.407431 1_555
Na4 O89 2.418910 1_455
Na4 O130 2.472635 1_555
Na4 O86 2.504507 1_565
Na4 O58 2.677475 1_555
Na4 O16 2.782748 1_555
Na4 O45 2.843429 1_455
Na4 O25 2.937352 1_455
Na5 O88 2.377205 1_555
Na5 O127 2.394375 1_555
Na5 O131 2.481215 1_555
Na5 O87 2.504565 1_565
Na5 O59 2.668552 1_555
Na5 O17 2.751040 1_555
Na5 O44 2.824696 1_555
Na5 O24 2.937303 1_555
Na6 O120 2.382761 1_555
Na6 O93 2.427968 1_455
Na6 O122 2.457096 1_555
Na6 O94 2.500904 1_555
Na6 O50 2.682800 1_554
Na6 O20 2.794873 1_555
Na6 O41 2.898663 1_455
Na6 O31 2.967353 1_455
Na7 O92 2.359822 1_555
Na7 O121 2.430134 1_555
Na7 O95 2.498858 1_555
Na7 O123 2.521085 1_555
Na7 O21 2.717253 1_555
Na7 O51 2.718407 1_554
Na7 O40 2.797710 1_555
Na7 O30 2.919136 1_555
Na8 O110 2.409297 1_555
Na8 O81 2.429826 1_555
Na8 O108 2.504064 1_555
Na8 O82 2.540452 1_555
Na8 O8 2.727781 1_555
Na8 O38 2.831520 1_556
Na8 O67 2.862063 1_555
Na8 O53 2.921213 1_555
Na9 O112 2.440632 1_555
Na9 O82 2.492476 1_545
Na9 O79 2.499330 1_555
Na9 O110 2.597279 1_555
Na9 O10 2.771210 1_555
Na9 O40 2.779648 1_556
Na9 O48 2.866253 1_545
Na9 O68 2.881183 1_545
Na10 O113 2.391741 1_555
Na10 O111 2.459209 1_555
Na10 O78 2.476564 1_655
Na10 O83 2.480422 1_545
Na10 O11 2.687004 1_555
Na10 O41 2.805454 1_556
Na10 O69 2.876926 1_545
Na10 O49 2.965899 1_545
Na11 O80 2.478021 1_545
Na11 O78 2.489748 1_555
Na11 O108 2.506730 1_555
Na11 O112 2.577185 1_555
Na11 O36 2.648317 1_556
Na11 O70 2.866154 1_555
Na11 O50 2.870705 1_555
Na11 O6 2.892398 1_555
Na12 O118 2.429485 1_555
Na12 O77 2.489283 1_555
Na12 O114 2.516475 1_555
Na12 O74 2.550252 1_545
Na12 O4 2.693979 1_555
Na12 O46 2.819488 1_555
Na12 O57 2.821383 1_555
Na12 O61 2.840669 1_555
Na13 O119 2.424013 1_555
Na13 O76 2.501538 1_655
Na13 O115 2.539004 1_555
Na13 O75 2.554729 1_545
Na13 O5 2.734925 1_555
Na13 O60 2.821160 1_655
Na13 O47 2.826417 1_555
Na13 O56 2.845799 1_655
Na14 O72 2.448917 1_545
Na14 O114 2.492754 1_555
Na14 O76 2.515589 1_555
Na14 O116 2.544847 1_555
Na14 O42 2.670919 1_555
Na14 O0 2.862053 1_555
Na14 O62 2.878224 1_545
Na14 O58 2.919188 1_545
Na15 O73 2.425057 1_545
Na15 O115 2.486718 1_555
Na15 O77 2.521784 1_555
Na15 O117 2.532266 1_555
Na15 O43 2.671539 1_555
Na15 O1 2.844353 1_555
Na15 O63 2.871481 1_545
Na15 O59 2.894064 1_545
Na16 O116 2.454987 1_555
Na16 O74 2.473009 1_555
Na16 O118 2.579821 1_555
Na16 O73 2.581870 1_555
Na16 O2 2.697077 1_555
Na16 O44 2.760774 1_555
Na16 O64 2.789024 1_555
Na16 O54 2.856478 1_555
Na17 O117 2.466330 1_555
Na17 O75 2.493892 1_555
Na17 O72 2.562110 1_655
Na17 O119 2.575813 1_555
Na17 O3 2.726220 1_555
Na17 O45 2.739278 1_555
Na17 O65 2.796367 1_555
Na17 O55 2.814067 1_555
Na18 O86 2.579374 1_555
Na18 O89 2.622428 1_445
Na18 O76 2.624112 1_555
Na18 O72 2.626556 1_545
Na18 O75 2.650295 1_445
Na18 O85 2.703906 1_455
Na19 O88 2.546107 1_555
Na19 O87 2.565648 1_565
Na19 O74 2.593610 1_555
Na19 O73 2.620054 1_555
Na19 O77 2.629767 1_565
Na19 O84 2.670694 1_565
Na20 O94 2.547489 1_555
Na20 O80 2.582877 1_544
Na20 O93 2.628552 1_455
Na20 O78 2.655318 1_554
Na20 O91 2.702262 1_445
Na20 O83 2.758403 1_444
Na21 O95 2.539501 1_556
Na21 O79 2.583700 1_555
Na21 O92 2.584754 1_556
Na21 O81 2.616085 1_545
Na21 O82 2.634335 1_545
Na21 O90 2.742936 1_546
Na22 O100 2.528257 1_555
Na22 O96 2.548050 1_555
Na22 O110 2.581145 1_555
Na22 O108 2.620481 1_555
Na22 O112 2.623446 1_555
Na22 O98 2.709528 1_555
Na23 O101 2.502856 1_555
Na23 O97 2.547475 1_555
Na23 O111 2.555909 1_555
Na23 O113 2.683112 1_555
Na23 O99 2.734896 1_555
Na23 O109 2.748300 1_555
Na24 O102 2.503716 1_555
Na24 O104 2.568887 1_555
Na24 O116 2.588996 1_555
Na24 O118 2.592324 1_555
Na24 O114 2.681716 1_555
Na24 O106 2.684861 1_555
Na25 O103 2.533541 1_555
Na25 O119 2.564125 1_555
Na25 O105 2.598186 1_555
Na25 O117 2.602503 1_555
Na25 O115 2.671263 1_555
Na25 O107 2.738086 1_555
Na26 O134 2.528507 1_555
Na26 O120 2.530199 1_555
Na26 O136 2.542681 1_555
Na26 O124 2.569309 1_555
Na26 O132 2.727397 1_555
Na26 O122 2.763075 1_555
Na27 O135 2.486126 1_555
Na27 O137 2.524814 1_555
Na27 O121 2.582227 1_555
Na27 O125 2.649798 1_555
Na27 O133 2.712196 1_555
Na27 O123 2.777870 1_555
Na28 O142 2.514782 1_555
Na28 O128 2.530486 1_555
Na28 O126 2.591129 1_555
Na28 O140 2.638051 1_555
Na28 O138 2.704531 1_555
Na28 O130 2.771898 1_555
Na29 O129 2.464811 1_555
Na29 O127 2.549633 1_555
Na29 O143 2.582028 1_555
Na29 O141 2.698630 1_555
Na29 O131 2.713943 1_555
Na29 O139 2.760791 1_555
Hf0 O3 1.980843 1_555
Hf0 O5 2.013882 1_565
Hf0 O75 2.026967 1_555
Hf0 O76 2.101491 1_665
Hf0 O72 2.112058 1_655
Hf0 O0 2.200712 1_665
Hf1 O9 1.967932 1_555
Hf1 O11 2.001584 1_565
Hf1 O80 2.066967 1_655
Hf1 O78 2.115816 1_665
Hf1 O6 2.149922 1_665
Hf1 O83 2.193531 1_555
Hf2 O10 2.000380 1_565
Hf2 O82 2.025301 1_555
Hf2 O8 2.035302 1_555
Hf2 O79 2.064408 1_565
Hf2 O81 2.091919 1_555
Hf2 O7 2.203083 1_565
Hf3 O16 1.967515 1_655
Hf3 O13 1.975545 1_555
Hf3 O89 2.000052 1_555
Hf3 O86 2.070138 1_665
Hf3 O14 2.247155 1_665
Hf3 O85 2.263190 1_565
Hf4 O20 1.956472 1_655
Hf4 O19 2.001169 1_545
Hf4 O93 2.009929 1_555
Hf4 O94 2.060630 1_655
Hf4 O22 2.229353 1_645
Hf4 O91 2.262096 1_545
Hf5 O35 1.962856 1_555
Hf5 O103 2.019218 1_555
Hf5 O33 2.044622 1_555
Hf5 O105 2.094569 1_555
Hf5 O31 2.119501 1_555
Hf5 O107 2.207775 1_555
Hf6 O41 1.969523 1_556
Hf6 O37 1.972330 1_556
Hf6 O113 2.007502 1_555
Hf6 O111 2.075815 1_555
Hf6 O39 2.217104 1_556
Hf6 O109 2.270101 1_555
Hf7 O48 1.953344 1_554
Hf7 O52 2.028065 1_554
Hf7 O124 2.049170 1_555
Hf7 O50 2.075633 1_554
Hf7 O120 2.095723 1_555
Hf7 O122 2.315122 1_555
Hf8 O51 2.008882 1_554
Hf8 O53 2.011936 1_554
Hf8 O125 2.018042 1_555
Hf8 O121 2.066057 1_555
Hf8 O49 2.134252 1_554
Hf8 O123 2.188776 1_555
Hf9 O54 1.954054 1_555
Hf9 O128 2.030221 1_555
Hf9 O56 2.046101 1_555
Hf9 O58 2.076042 1_555
Hf9 O126 2.082147 1_555
Hf9 O130 2.297246 1_555
Hf10 O68 1.982560 1_555
Hf10 O66 1.997683 1_555
Hf10 O70 2.042296 1_555
Hf10 O140 2.091482 1_555
Hf10 O142 2.111701 1_555
Hf10 O138 2.262675 1_555
Hf11 O69 1.976841 1_555
Hf11 O141 1.981021 1_555
Hf11 O67 1.995593 1_555
Hf11 O143 2.066069 1_555
Hf11 O139 2.229348 1_555
Hf11 O71 2.262571 1_555
O0 S0 1.486827 1_545
O1 S1 1.492319 1_545
O1 Sn0 2.211857 1_545
O2 Si0 1.649592 1_555
O2 Sn0 1.998640 1_555
O3 Si1 1.640424 1_555
O4 Si3 1.658155 1_555
O4 Sn0 2.036745 1_545
O5 Si2 1.647704 1_655
O6 S2 1.506894 1_555
O7 S3 1.482374 1_555
O8 Si5 1.625768 1_555
O9 Si4 1.639151 1_555
O10 Si6 1.635941 1_555
O11 Si7 1.642717 1_555
O12 Si6 1.632557 1_565
O12 Sn1 1.961813 1_555
O13 Si7 1.619784 1_565
O14 S2 1.459878 1_555
O15 S3 1.476049 1_555
O15 Sn1 2.254959 1_545
O16 Si4 1.650497 1_455
O17 Si5 1.645757 1_555
O17 Sn1 2.002177 1_555
O18 Si0 1.643664 1_555
O18 Sn2 1.984559 1_565
O19 Si1 1.637062 1_555
O20 Si2 1.646385 1_555
O21 Si3 1.634345 1_555
O21 Sn2 1.990035 1_555
O22 S0 1.468913 1_555
O23 S1 1.471933 1_555
O23 Sn2 2.236387 1_565
O24 S4 1.486260 1_555
O24 Sn3 2.153235 1_555
O25 S5 1.489886 1_555
O25 Sn4 2.144372 1_555
O26 Si8 1.637216 1_555
O26 Sn3 2.006982 1_555
O27 Si9 1.636114 1_555
O27 Sn4 2.018095 1_555
O28 Si10 1.622266 1_555
O28 Sn3 1.985787 1_555
O29 Si11 1.623865 1_555
O29 Sn4 1.991815 1_555
O30 S6 1.482671 1_555
O30 Sn5 2.181821 1_555
O31 S7 1.493764 1_555
O32 Si12 1.639836 1_555
O32 Sn5 2.019832 1_555
O33 Si13 1.622577 1_555
O34 Si14 1.625001 1_555
O34 Sn5 1.971668 1_555
O35 Si15 1.620886 1_555
O36 Si14 1.645806 1_555
O36 Sn6 1.996254 1_554
O37 Si15 1.631837 1_555
O38 S6 1.482857 1_555
O38 Sn6 2.281139 1_554
O39 S7 1.478668 1_555
O40 Si12 1.661615 1_555
O40 Sn6 2.013424 1_554
O41 Si13 1.651340 1_555
O42 Si8 1.643977 1_555
O42 Sn7 1.999200 1_555
O43 Si9 1.642510 1_555
O43 Sn8 2.013745 1_555
O44 Si10 1.661301 1_555
O44 Sn7 2.006047 1_555
O45 Si11 1.657560 1_555
O45 Sn8 2.008630 1_555
O46 S4 1.491083 1_555
O46 Sn7 2.249003 1_555
O47 S5 1.492430 1_555
O47 Sn8 2.234521 1_555
O48 Si16 1.624303 1_555
O49 S8 1.490856 1_555
O50 Si17 1.638043 1_555
O51 Si18 1.626971 1_555
O52 Si19 1.611082 1_555
O53 Si20 1.629907 1_555
O54 Si21 1.624598 1_555
O55 Si22 1.618179 1_555
O55 Sn9 1.981902 1_555
O56 Si23 1.621299 1_555
O57 Si24 1.629877 1_555
O57 Sn9 2.057390 1_555
O58 Si25 1.629839 1_555
O59 Si26 1.642995 1_555
O59 Sn9 2.059714 1_555
O60 Si25 1.633093 1_555
O60 Sn10 2.032952 1_555
O61 Si26 1.625691 1_555
O61 Sn11 2.023324 1_555
O62 Si21 1.638897 1_555
O62 Sn10 2.090228 1_555
O63 Si22 1.640781 1_555
O63 Sn11 2.089680 1_555
O64 Si23 1.626322 1_555
O64 Sn10 1.980810 1_555
O65 Si24 1.621692 1_555
O65 Sn11 1.982317 1_555
O66 Si17 1.623675 1_555
O67 Si18 1.635492 1_555
O68 Si19 1.640964 1_555
O69 Si20 1.649674 1_555
O70 Si16 1.618948 1_555
O71 S8 1.464357 1_555
O72 Si25 1.644989 1_555
O73 Si26 1.655589 1_555
O73 Sn0 2.109909 1_555
O74 Si21 1.645486 1_555
O74 Sn0 2.052754 1_555
O75 Si22 1.643299 1_555
O76 Si23 1.636470 1_555
O77 Si24 1.650844 1_555
O77 Sn0 2.086151 1_545
O78 Si17 1.673880 1_555
O79 Si18 1.623473 1_555
O80 Si19 1.639148 1_555
O81 Si20 1.613828 1_555
O82 Si16 1.638613 1_555
O83 S8 1.504981 1_555
O84 S4 1.475912 1_555
O84 Sn1 2.271689 1_545
O85 S5 1.463911 1_555
O86 Si8 1.646490 1_555
O87 Si9 1.664995 1_555
O87 Sn1 2.052685 1_545
O88 Si10 1.661704 1_555
O88 Sn1 2.026809 1_555
O89 Si11 1.658030 1_555
O90 S6 1.474546 1_555
O90 Sn2 2.263090 1_565
O91 S7 1.473129 1_555
O92 Si12 1.664281 1_555
O92 Sn2 2.028552 1_555
O93 Si13 1.652948 1_555
O94 Si14 1.652280 1_555
O95 Si15 1.661196 1_555
O95 Sn2 2.045464 1_555
O96 Si6 1.666414 1_555
O96 Sn3 2.045740 1_555
O97 Si7 1.662381 1_555
O97 Sn4 2.063149 1_555
O98 S2 1.495256 1_555
O98 Sn3 2.249679 1_555
O99 S3 1.499689 1_555
O99 Sn4 2.231664 1_555
O100 Si5 1.624059 1_555
O100 Sn3 2.023406 1_555
O101 Si4 1.631489 1_555
O101 Sn4 2.017071 1_555
O102 Si0 1.634589 1_555
O102 Sn5 2.018648 1_555
O103 Si1 1.622339 1_555
O104 Si3 1.660256 1_555
O104 Sn5 2.075986 1_555
O105 Si2 1.641449 1_655
O106 S0 1.499046 1_545
O106 Sn5 2.228359 1_555
O107 S1 1.497569 1_545
O108 Si16 1.642386 1_555
O108 Sn6 2.087078 1_555
O109 S8 1.467368 1_555
O110 Si18 1.660412 1_555
O110 Sn6 2.089525 1_555
O111 Si17 1.641777 1_655
O112 Si19 1.664493 1_545
O112 Sn6 2.037111 1_555
O113 Si20 1.638818 1_545
O114 Si21 1.643850 1_545
O114 Sn7 2.094588 1_555
O115 Si22 1.645826 1_545
O115 Sn8 2.087176 1_555
O116 Si23 1.650089 1_555
O116 Sn7 2.034101 1_555
O117 Si24 1.647623 1_555
O117 Sn8 2.039055 1_555
O118 Si26 1.653720 1_555
O118 Sn7 2.099207 1_555
O119 Si25 1.660414 1_655
O119 Sn8 2.095125 1_555
O120 Si14 1.647751 1_555
O121 Si15 1.649247 1_555
O122 S7 1.479322 1_455
O123 S6 1.499193 1_555
O124 Si12 1.616337 1_565
O125 Si13 1.618355 1_565
O126 Si8 1.650679 1_565
O127 Si9 1.661530 1_565
O127 Sn9 2.092103 1_555
O128 Si10 1.619903 1_555
O129 Si11 1.629555 1_555
O129 Sn9 2.034044 1_555
O130 S5 1.485881 1_455
O131 S4 1.489306 1_555
O131 Sn9 2.297282 1_555
O132 S0 1.485270 1_555
O132 Sn10 2.325391 1_555
O133 S1 1.486017 1_555
O133 Sn11 2.330075 1_555
O134 Si0 1.658319 1_555
O134 Sn10 2.093171 1_555
O135 Si1 1.659514 1_555
O135 Sn11 2.072073 1_555
O136 Si2 1.628224 1_555
O136 Sn10 2.029918 1_555
O137 Si3 1.629767 1_555
O137 Sn11 2.027477 1_555
O138 S2 1.475390 1_555
O139 S3 1.477938 1_555
O140 Si4 1.635345 1_455
O141 Si5 1.658237 1_555
O142 Si6 1.639626 1_565
O143 Si7 1.646358 1_565
