# generated using pymatgen
data_FeS
_symmetry_space_group_name_H-M   'P 1'
_cell_length_a   5.89723989
_cell_length_b   11.42051442
_cell_length_c   5.89463920
_cell_angle_alpha   89.96991658
_cell_angle_beta   119.98921495
_cell_angle_gamma   90.01100511
_symmetry_Int_Tables_number   1
_chemical_formula_structural   FeS
_chemical_formula_sum   'Fe12 S12'
_cell_volume   343.85033087
_cell_formula_units_Z   12
loop_
 _symmetry_equiv_pos_site_id
 _symmetry_equiv_pos_as_xyz
  1  'x, y, z'
loop_
 _atom_site_type_symbol
 _atom_site_label
 _atom_site_symmetry_multiplicity
 _atom_site_fract_x
 _atom_site_fract_y
 _atom_site_fract_z
 _atom_site_occupancy
  Fe  Fe0  1  0.67878500  0.62098600  0.60534300  1
  Fe  Fe1  1  0.60554700  0.37899600  0.67857900  1
  Fe  Fe2  1  0.39440200  0.62123900  0.07309000  1
  Fe  Fe3  1  0.92688400  0.62121200  0.32143400  1
  Fe  Fe4  1  0.60539100  0.12103800  0.67904300  1
  Fe  Fe5  1  0.32202000  0.12076300  0.92678100  1
  Fe  Fe6  1  0.92661700  0.87882800  0.32142400  1
  Fe  Fe7  1  0.39473200  0.87893400  0.07347700  1
  Fe  Fe8  1  0.32091700  0.37932700  0.92625700  1
  Fe  Fe9  1  0.07301300  0.12099300  0.39429400  1
  Fe  Fe10  1  0.67850300  0.87897600  0.60546800  1
  Fe  Fe11  1  0.07346900  0.37893100  0.39529200  1
  S  S0  1  0.00221900  0.24971600  0.66206400  1
  S  S1  1  0.33312500  0.97458900  0.66671800  1
  S  S2  1  0.66661900  0.47411500  0.33307100  1
  S  S3  1  0.33778400  0.24996600  0.34049700  1
  S  S4  1  0.65998300  0.25014300  0.99723500  1
  S  S5  1  0.34070800  0.75006700  0.33726200  1
  S  S6  1  0.99977300  0.99984600  0.00000100  1
  S  S7  1  0.33358500  0.52537300  0.66676500  1
  S  S8  1  0.66647200  0.02590600  0.33332900  1
  S  S9  1  0.99666200  0.74999800  0.65934500  1
  S  S10  1  0.00001700  0.50003500  0.99972000  1
  S  S11  1  0.66277200  0.75002200  0.00351100  1
loop_
_geom_bond_atom_site_label_1
_geom_bond_atom_site_label_2
_geom_bond_distance
_geom_bond_site_symmetry_2
Fe0 S9 2.277982 1_555
Fe0 S2 2.298292 1_555
Fe0 S5 2.344017 1_555
Fe0 S7 2.490617 1_555
Fe0 S10 2.548763 1_655
Fe0 S11 2.813274 1_556
Fe1 S4 2.278440 1_555
Fe1 S7 2.293674 1_555
Fe1 S3 2.343670 1_555
Fe1 S2 2.487669 1_555
Fe1 S10 2.550526 1_655
Fe1 S0 2.809035 1_655
Fe2 S5 2.277127 1_555
Fe2 S2 2.299516 1_555
Fe2 S11 2.341688 1_555
Fe2 S7 2.491557 1_554
Fe2 S10 2.550725 1_554
Fe2 S9 2.809099 1_454
Fe3 S11 2.276414 1_555
Fe3 S2 2.299290 1_555
Fe3 S9 2.341703 1_555
Fe3 S7 2.492409 1_655
Fe3 S10 2.553053 1_654
Fe3 S5 2.810885 1_655
Fe4 S4 2.279186 1_555
Fe4 S1 2.294146 1_545
Fe4 S3 2.343180 1_555
Fe4 S8 2.489839 1_555
Fe4 S6 2.550291 1_546
Fe4 S0 2.806921 1_655
Fe5 S0 2.284142 1_555
Fe5 S1 2.290030 1_545
Fe5 S4 2.345218 1_555
Fe5 S8 2.484866 1_556
Fe5 S6 2.554010 1_446
Fe5 S3 2.812528 1_556
Fe6 S11 2.276812 1_555
Fe6 S8 2.299707 1_565
Fe6 S9 2.340457 1_555
Fe6 S1 2.491849 1_655
Fe6 S6 2.549554 1_555
Fe6 S5 2.812081 1_655
Fe7 S5 2.275498 1_555
Fe7 S8 2.297706 1_565
Fe7 S11 2.342952 1_555
Fe7 S1 2.490166 1_554
Fe7 S6 2.551779 1_455
Fe7 S9 2.812835 1_454
Fe8 S0 2.285612 1_555
Fe8 S7 2.288834 1_555
Fe8 S4 2.348208 1_555
Fe8 S2 2.488629 1_556
Fe8 S10 2.547555 1_555
Fe8 S3 2.812178 1_556
Fe9 S3 2.280734 1_555
Fe9 S1 2.294127 1_545
Fe9 S0 2.342699 1_555
Fe9 S8 2.488854 1_455
Fe9 S6 2.549976 1_445
Fe9 S4 2.808038 1_454
Fe10 S9 2.279434 1_555
Fe10 S8 2.297291 1_565
Fe10 S5 2.342675 1_555
Fe10 S1 2.491499 1_555
Fe10 S6 2.549752 1_556
Fe10 S11 2.810097 1_556
Fe11 S3 2.282087 1_555
Fe11 S7 2.293205 1_555
Fe11 S0 2.341993 1_555
Fe11 S2 2.488711 1_455
Fe11 S10 2.554356 1_554
Fe11 S4 2.810238 1_454
