# generated using pymatgen
data_NaZr3NbSi3(SO8)3
_symmetry_space_group_name_H-M   'P 1'
_cell_length_a   9.00080520
_cell_length_b   9.00498988
_cell_length_c   23.45084179
_cell_angle_alpha   89.92417994
_cell_angle_beta   90.56629483
_cell_angle_gamma   119.81454605
_symmetry_Int_Tables_number   1
_chemical_formula_structural   NaZr3NbSi3(SO8)3
_chemical_formula_sum   'Na3 Zr9 Nb3 Si9 S9 O72'
_cell_volume   1649.06315603
_cell_formula_units_Z   3
loop_
 _symmetry_equiv_pos_site_id
 _symmetry_equiv_pos_as_xyz
  1  'x, y, z'
loop_
 _atom_site_type_symbol
 _atom_site_label
 _atom_site_symmetry_multiplicity
 _atom_site_fract_x
 _atom_site_fract_y
 _atom_site_fract_z
 _atom_site_occupancy
  Na  Na0  1  0.01150476  0.99364674  0.99434046  1
  Na  Na1  1  0.65303608  0.31359590  0.82980334  1
  Na  Na2  1  0.68432395  0.33890160  0.33484872  1
  Zr  Zr0  1  0.99425236  0.99844308  0.35914782  1
  Zr  Zr1  1  0.01355571  0.00984047  0.85119117  1
  Zr  Zr2  1  0.64527240  0.32293762  0.68771400  1
  Zr  Zr3  1  0.67886362  0.34635812  0.18475099  1
  Zr  Zr4  1  0.65284368  0.33354513  0.98004840  1
  Zr  Zr5  1  0.66728971  0.34571893  0.48416676  1
  Zr  Zr6  1  0.31867340  0.66715346  0.02320252  1
  Zr  Zr7  1  0.31336591  0.65405816  0.30921261  1
  Zr  Zr8  1  0.34890053  0.68465850  0.80544189  1
  Nb  Nb0  1  0.99783294  0.00224423  0.64584754  1
  Nb  Nb1  1  0.01266585  0.01385300  0.14316851  1
  Nb  Nb2  1  0.32823740  0.67646286  0.52645352  1
  Si  Si0  1  0.99155216  0.27960366  0.25113224  1
  Si  Si1  1  0.28662285  0.29106329  0.74968916  1
  Si  Si2  1  0.72107118  0.00988699  0.74969759  1
  Si  Si3  1  0.37279511  0.05090596  0.58277961  1
  Si  Si4  1  0.66769691  0.62759026  0.58450485  1
  Si  Si5  1  0.95272923  0.62632088  0.08290424  1
  Si  Si6  1  0.38226498  0.33983033  0.08402115  1
  Si  Si7  1  0.33267434  0.95672038  0.91617046  1
  Si  Si8  1  0.04093386  0.65897507  0.41680338  1
  S  S0  1  0.28683318  0.00311283  0.25049146  1
  S  S1  1  0.71403126  0.71561671  0.25048039  1
  S  S2  1  0.99708147  0.71215379  0.74891981  1
  S  S3  1  0.95973084  0.33425029  0.58341112  1
  S  S4  1  0.67028185  0.04412300  0.08394912  1
  S  S5  1  0.62306231  0.66933589  0.91698393  1
  S  S6  1  0.04169432  0.37696750  0.91650579  1
  S  S7  1  0.61465293  0.95105680  0.41697138  1
  S  S8  1  0.33528495  0.38202789  0.41636643  1
  O  O0  1  0.20356692  0.02560915  0.30107388  1
  O  O1  1  0.82287356  0.79274379  0.30236641  1
  O  O2  1  0.97339726  0.16276027  0.30631842  1
  O  O3  1  0.20471795  0.16773528  0.80552156  1
  O  O4  1  0.96992849  0.78955677  0.80091531  1
  O  O5  1  0.83079909  0.02479028  0.80705471  1
  O  O6  1  0.81658861  0.98309082  0.69346363  1
  O  O7  1  0.16713386  0.18650067  0.69368070  1
  O  O8  1  0.02276828  0.81946621  0.69764053  1
  O  O9  1  0.79573489  0.81711301  0.19912626  1
  O  O10  1  0.01382385  0.17925506  0.19474090  1
  O  O11  1  0.17883107  0.97477390  0.19786653  1
  O  O12  1  0.88899375  0.37089050  0.63358472  1
  O  O13  1  0.49799152  0.12528403  0.63756170  1
  O  O14  1  0.63398326  0.50419199  0.63801125  1
  O  O15  1  0.86845123  0.50934683  0.13977690  1
  O  O16  1  0.64562004  0.12359995  0.13551257  1
  O  O17  1  0.48861576  0.35100917  0.14145131  1
  O  O18  1  0.45704847  0.28933578  0.02883802  1
  O  O19  1  0.83267620  0.53880383  0.02740236  1
  O  O20  1  0.70506440  0.15284561  0.03311520  1
  O  O21  1  0.46387200  0.16083165  0.52578385  1
  O  O22  1  0.70314935  0.54332130  0.52746165  1
  O  O23  1  0.85257439  0.30572674  0.53140115  1
  O  O24  1  0.54181849  0.68770969  0.96854955  1
  O  O25  1  0.14770504  0.45572311  0.96900180  1
  O  O26  1  0.31596149  0.84349244  0.97302169  1
  O  O27  1  0.53602862  0.84574647  0.46845331  1
  O  O28  1  0.31167709  0.46097668  0.46734071  1
  O  O29  1  0.16614178  0.68101054  0.47211458  1
  O  O30  1  0.13850006  0.63768177  0.36068600  1
  O  O31  1  0.51207288  0.86940087  0.36485470  1
  O  O32  1  0.36308674  0.48798013  0.36434673  1
  O  O33  1  0.12166959  0.47832349  0.86553478  1
  O  O34  1  0.35221456  0.85996896  0.86047394  1
  O  O35  1  0.51779242  0.64171523  0.86498662  1
  O  O36  1  0.02804223  0.83124983  0.40586100  1
  O  O37  1  0.78758606  0.96645821  0.41058879  1
  O  O38  1  0.18160215  0.20966707  0.40802822  1
  O  O39  1  0.02208250  0.20176515  0.91293071  1
  O  O40  1  0.16013355  0.97551457  0.91355695  1
  O  O41  1  0.79620284  0.82106116  0.91195032  1
  O  O42  1  0.98059018  0.18242879  0.59017848  1
  O  O43  1  0.18241635  0.01807702  0.59602611  1
  O  O44  1  0.83077132  0.81751015  0.59683228  1
  O  O45  1  0.97109866  0.81672392  0.09769558  1
  O  O46  1  0.82698054  0.02405502  0.09251822  1
  O  O47  1  0.18522160  0.16412529  0.09494720  1
  O  O48  1  0.70792803  0.18199518  0.74236003  1
  O  O49  1  0.47768456  0.31288055  0.74462806  1
  O  O50  1  0.84607379  0.54102365  0.74197009  1
  O  O51  1  0.69255616  0.53965416  0.24554528  1
  O  O52  1  0.82298642  0.30105312  0.24484969  1
  O  O53  1  0.45770338  0.15503271  0.24416960  1
  O  O54  1  0.64255614  0.51239036  0.92163405  1
  O  O55  1  0.86889695  0.35800278  0.92386922  1
  O  O56  1  0.50646153  0.14794936  0.92256133  1
  O  O57  1  0.63741986  0.12470765  0.42270720  1
  O  O58  1  0.48801689  0.35887687  0.42103803  1
  O  O59  1  0.85279394  0.48905031  0.42272280  1
  O  O60  1  0.35629742  0.49929409  0.07195983  1
  O  O61  1  0.14288477  0.65437018  0.07559760  1
  O  O62  1  0.52353142  0.87281027  0.07630507  1
  O  O63  1  0.35127251  0.85557940  0.57008463  1
  O  O64  1  0.49816277  0.64620186  0.56568925  1
  O  O65  1  0.13586805  0.48589939  0.57268269  1
  O  O66  1  0.30530635  0.84881757  0.25687119  1
  O  O67  1  0.54487360  0.70051120  0.25883550  1
  O  O68  1  0.16631239  0.46610533  0.25747886  1
  O  O69  1  0.29556963  0.47177734  0.76052653  1
  O  O70  1  0.15174365  0.69642556  0.75593703  1
  O  O71  1  0.53322087  0.83834968  0.75537429  1
loop_
_geom_bond_atom_site_label_1
_geom_bond_atom_site_label_2
_geom_bond_distance
_geom_bond_site_symmetry_2
Na0 O40 2.381878 1_555
Na0 O41 2.615898 1_455
Na0 O39 2.642497 1_565
Na0 O47 2.813834 1_566
Na0 O45 2.824214 1_456
Na0 O46 2.943429 1_466
Na1 O49 2.531488 1_555
Na1 O48 2.542086 1_555
Na1 O56 2.605480 1_555
Na1 O55 2.818862 1_555
Na1 O50 2.824348 1_555
Na1 O54 2.834296 1_555
Na2 O59 2.506178 1_555
Na2 O52 2.570067 1_555
Na2 O57 2.709349 1_555
Na2 O51 2.742122 1_555
Na2 O58 2.761751 1_555
Na2 O53 2.826542 1_555
Nb0 O6 1.921880 1_545
Nb0 O7 1.946877 1_655
Nb0 O44 1.957842 1_545
Nb0 O43 1.986961 1_655
Nb0 O8 2.142729 1_645
Nb0 O42 2.145199 1_555
Nb1 O47 1.860894 1_555
Nb1 O10 1.915808 1_555
Nb1 O45 1.940357 1_445
Nb1 O46 2.079842 1_455
Nb1 O11 2.119039 1_545
Nb1 O9 2.297363 1_445
Nb2 O63 1.832789 1_555
Nb2 O64 1.909472 1_555
Nb2 O29 1.943369 1_555
Nb2 O65 2.048329 1_555
Nb2 O27 2.209416 1_555
Nb2 O28 2.329091 1_555
O0 S0 1.476139 1_555
O0 Zr0 2.248458 1_445
O1 S1 1.491555 1_555
O1 Zr0 2.169860 1_555
O2 Si0 1.624264 1_555
O2 Zr0 2.006559 1_545
O3 Si1 1.640809 1_555
O3 Zr1 1.931023 1_555
O4 S2 1.486565 1_555
O4 Zr1 2.168320 1_665
O5 Si2 1.626370 1_555
O5 Zr1 1.995367 1_655
O6 Si2 1.663120 1_565
O7 Si1 1.654321 1_555
O8 S2 1.487831 1_455
O9 S1 1.474015 1_555
O10 Si0 1.671552 1_455
O11 S0 1.504510 1_565
O12 S3 1.457185 1_555
O12 Zr2 2.392006 1_555
O13 Si3 1.609968 1_555
O13 Zr2 1.984187 1_555
O14 Si4 1.603069 1_555
O14 Zr2 2.047066 1_555
O15 Si5 1.638745 1_555
O15 Zr3 1.928585 1_555
O16 S4 1.479606 1_555
O16 Zr3 2.202057 1_555
O17 Si6 1.618435 1_555
O17 Zr3 2.000478 1_555
O18 Si6 1.630224 1_555
O18 Zr4 1.978469 1_554
O19 Si5 1.615829 1_555
O19 Zr4 2.065057 1_554
O20 S4 1.475514 1_555
O20 Zr4 2.271783 1_554
O21 Si3 1.627764 1_555
O21 Zr5 2.019034 1_555
O22 Si4 1.648954 1_555
O22 Zr5 1.930933 1_555
O23 S3 1.488311 1_555
O23 Zr5 2.167388 1_555
O24 S5 1.470626 1_555
O24 Zr6 2.321956 1_556
O25 S6 1.495043 1_555
O25 Zr6 2.159375 1_556
O26 Si7 1.639372 1_555
O26 Zr6 1.984935 1_556
O27 S7 1.484654 1_555
O28 S8 1.461856 1_555
O29 Si8 1.655690 1_555
O30 Si8 1.652503 1_555
O30 Zr7 1.939683 1_555
O31 S7 1.480494 1_555
O31 Zr7 2.274553 1_555
O32 S8 1.492191 1_555
O32 Zr7 2.181186 1_555
O33 S6 1.463142 1_555
O33 Zr8 2.427454 1_555
O34 Si7 1.629694 1_555
O34 Zr8 2.028892 1_555
O35 S5 1.479916 1_555
O35 Zr8 2.225188 1_555
O36 Si8 1.631962 1_555
O36 Zr0 2.000917 1_455
O37 S7 1.501444 1_555
O37 Zr0 2.123459 1_555
O38 S8 1.490378 1_555
O38 Zr0 2.133904 1_445
O39 S6 1.500145 1_555
O39 Zr1 2.227470 1_555
O40 Si7 1.644286 1_555
O40 Zr1 2.083584 1_565
O41 S5 1.481629 1_555
O41 Zr1 2.342863 1_665
O42 S3 1.477707 1_555
O43 Si3 1.620722 1_555
O44 Si4 1.630835 1_555
O45 Si5 1.675104 1_555
O46 S4 1.519887 1_555
O47 Si6 1.712327 1_555
O48 Si2 1.620738 1_555
O48 Zr2 2.065007 1_555
O49 Si1 1.636488 1_555
O49 Zr2 1.992125 1_555
O50 S2 1.470446 1_555
O50 Zr2 2.274615 1_555
O51 S1 1.502334 1_555
O51 Zr3 2.206198 1_555
O52 Si0 1.627240 1_555
O52 Zr3 2.079455 1_555
O53 S0 1.473306 1_555
O53 Zr3 2.347471 1_555
O54 S5 1.511911 1_555
O54 Zr4 2.149130 1_555
O55 S6 1.489664 1_655
O55 Zr4 2.278122 1_555
O56 Si7 1.658958 1_545
O56 Zr4 2.031694 1_555
O57 S7 1.478746 1_545
O57 Zr5 2.361851 1_555
O58 S8 1.492394 1_555
O58 Zr5 2.225270 1_555
O59 Si8 1.629647 1_655
O59 Zr5 2.104674 1_555
O60 Si6 1.589970 1_555
O60 Zr6 2.050288 1_555
O61 Si5 1.611946 1_455
O61 Zr6 1.970634 1_555
O62 S4 1.458246 1_565
O62 Zr6 2.223843 1_555
O63 Si3 1.697455 1_565
O64 Si4 1.670955 1_555
O65 S3 1.515161 1_455
O66 S0 1.486346 1_565
O66 Zr7 2.169513 1_555
O67 S1 1.474771 1_555
O67 Zr7 2.256830 1_555
O68 Si0 1.638927 1_455
O68 Zr7 1.958169 1_555
O69 Si1 1.609239 1_555
O69 Zr8 2.023622 1_555
O70 S2 1.475299 1_455
O70 Zr8 2.157318 1_555
O71 Si2 1.633831 1_565
O71 Zr8 1.948690 1_555
