# generated using pymatgen
data_U2Si(H2O5)2
_symmetry_space_group_name_H-M   'P 1'
_cell_length_a   11.08199992
_cell_length_b   10.30538846
_cell_length_c   7.03788492
_cell_angle_alpha   76.88177476
_cell_angle_beta   64.91150620
_cell_angle_gamma   38.20671904
_symmetry_Int_Tables_number   1
_chemical_formula_structural   U2Si(H2O5)2
_chemical_formula_sum   'U4 Si2 H8 O20'
_cell_volume   442.05265163
_cell_formula_units_Z   2
loop_
 _symmetry_equiv_pos_site_id
 _symmetry_equiv_pos_as_xyz
  1  'x, y, z'
loop_
 _atom_site_type_symbol
 _atom_site_label
 _atom_site_symmetry_multiplicity
 _atom_site_fract_x
 _atom_site_fract_y
 _atom_site_fract_z
 _atom_site_occupancy
  U  U0  1  0.08136800  0.08136800  0.41863200  1
  U  U1  1  0.41863200  0.41863200  0.08136800  1
  U  U2  1  0.16863200  0.16863200  0.83136800  1
  U  U3  1  0.83136800  0.83136800  0.16863200  1
  Si  Si0  1  0.00000000  0.00000000  0.00000000  1
  Si  Si1  1  0.25000000  0.25000000  0.25000000  1
  H  H0  1  0.63199300  0.51513500  0.80434100  1
  H  H1  1  0.04853100  0.80434100  0.51513500  1
  H  H2  1  0.80434100  0.04853100  0.63199300  1
  H  H3  1  0.51513500  0.63199300  0.04853100  1
  H  H4  1  0.61800700  0.73486500  0.44565900  1
  H  H5  1  0.20146900  0.44565900  0.73486500  1
  H  H6  1  0.44565900  0.20146900  0.61800700  1
  H  H7  1  0.73486500  0.61800700  0.20146900  1
  O  O0  1  0.89488500  0.44404300  0.93929700  1
  O  O1  1  0.93929700  0.72177400  0.89488500  1
  O  O2  1  0.52822600  0.31070300  0.80595700  1
  O  O3  1  0.35511500  0.80595700  0.31070300  1
  O  O4  1  0.80595700  0.35511500  0.52822600  1
  O  O5  1  0.44404300  0.89488500  0.72177400  1
  O  O6  1  0.12399100  0.49022100  0.21439500  1
  O  O7  1  0.17139300  0.21439500  0.49022100  1
  O  O8  1  0.21439500  0.17139300  0.12399100  1
  O  O9  1  0.49022100  0.12399100  0.17139300  1
  O  O10  1  0.12600900  0.75977900  0.03560500  1
  O  O11  1  0.07860700  0.03560500  0.75977900  1
  O  O12  1  0.03560500  0.07860700  0.12600900  1
  O  O13  1  0.75977900  0.12600900  0.07860700  1
  O  O14  1  0.70548200  0.70548200  0.29451800  1
  O  O15  1  0.29451800  0.29451800  0.70548200  1
  O  O16  1  0.54451800  0.54451800  0.95548200  1
  O  O17  1  0.95548200  0.95548200  0.54451800  1
  O  O18  1  0.31070300  0.52822600  0.35511500  1
  O  O19  1  0.72177400  0.93929700  0.44404300  1
loop_
_geom_bond_atom_site_label_1
_geom_bond_atom_site_label_2
_geom_bond_distance
_geom_bond_site_symmetry_2
H0 O16 0.986580 1_555
H1 O17 0.986580 1_455
H2 O17 0.986580 1_545
H3 O16 0.986580 1_554
H4 O14 0.986580 1_555
H5 O15 0.986580 1_555
H6 O15 0.986580 1_555
H7 O14 0.986580 1_555
O0 U2 1.824416 1_655
O1 U3 1.824420 1_556
O2 U1 1.824414 1_556
O3 U0 1.824416 1_565
O4 U0 1.824417 1_655
O5 U2 1.824417 1_565
O6 Si1 1.650323 1_555
O6 U3 2.331164 1_455
O6 U1 2.453105 1_555
O7 Si1 1.650323 1_555
O7 U2 2.331164 1_555
O7 U0 2.453105 1_555
O8 Si1 1.650323 1_555
O8 U2 2.331164 1_554
O8 U0 2.453105 1_555
O9 Si1 1.650323 1_555
O9 U3 2.331164 1_545
O9 U1 2.453105 1_555
O10 Si0 1.650323 1_565
O10 U1 2.331164 1_555
O10 U3 2.453105 1_455
O11 Si0 1.650323 1_556
O11 U0 2.331164 1_555
O11 U2 2.453105 1_555
O12 Si0 1.650323 1_555
O12 U0 2.331164 1_555
O12 U2 2.453105 1_554
O13 Si0 1.650323 1_655
O13 U1 2.331164 1_555
O13 U3 2.453105 1_545
O14 U3 2.385066 1_555
O15 U2 2.385066 1_555
O16 U1 2.385066 1_556
O17 U0 2.385066 1_665
O18 U1 1.824420 1_555
O19 U3 1.824414 1_555
