# generated using pymatgen
data_Na8HfMg3(PO4)6
_symmetry_space_group_name_H-M   'P 1'
_cell_length_a   9.05082374
_cell_length_b   9.05082342
_cell_length_c   22.05963182
_cell_angle_alpha   90.00000000
_cell_angle_beta   90.00000000
_cell_angle_gamma   120.00000115
_symmetry_Int_Tables_number   1
_chemical_formula_structural   Na8HfMg3(PO4)6
_chemical_formula_sum   'Na24 Hf3 Mg9 P18 O72'
_cell_volume   1564.96664588
_cell_formula_units_Z   3
loop_
 _symmetry_equiv_pos_site_id
 _symmetry_equiv_pos_as_xyz
  1  'x, y, z'
loop_
 _atom_site_type_symbol
 _atom_site_label
 _atom_site_symmetry_multiplicity
 _atom_site_fract_x
 _atom_site_fract_y
 _atom_site_fract_z
 _atom_site_occupancy
  Na  Na0  1  0.63496561  0.99896555  0.25263344  1
  Na  Na1  1  0.36399994  0.36503439  0.25263344  1
  Na  Na2  1  0.00103445  0.63600006  0.25263344  1
  Na  Na3  1  0.64734378  0.63472004  0.73985947  1
  Na  Na4  1  0.98737626  0.35265622  0.73985947  1
  Na  Na5  1  0.36527996  0.01262374  0.73985947  1
  Na  Na6  1  0.29568688  0.33353989  0.57970178  1
  Na  Na7  1  0.03785400  0.70431312  0.57970178  1
  Na  Na8  1  0.66646011  0.96214600  0.57970178  1
  Na  Na9  1  0.29646811  0.96320354  0.09524994  1
  Na  Na10  1  0.66673643  0.70353189  0.09524994  1
  Na  Na11  1  0.03679646  0.33326357  0.09524994  1
  Na  Na12  1  0.97478300  0.68126243  0.91472943  1
  Na  Na13  1  0.70647842  0.02521700  0.91472943  1
  Na  Na14  1  0.31873757  0.29352158  0.91472943  1
  Na  Na15  1  0.98083570  0.29996003  0.40507597  1
  Na  Na16  1  0.31912333  0.01916430  0.40507597  1
  Na  Na17  1  0.70003997  0.68087667  0.40507597  1
  Na  Na18  1  0.00000000  0.00000000  0.49564382  1
  Na  Na19  1  0.00000000  0.00000000  0.00707000  1
  Na  Na20  1  0.66666700  0.33333300  0.82517886  1
  Na  Na21  1  0.66666700  0.33333300  0.32312712  1
  Na  Na22  1  0.33333300  0.66666700  0.17430364  1
  Na  Na23  1  0.33333300  0.66666700  0.65556411  1
  Hf  Hf0  1  0.66666700  0.33333300  0.98375199  1
  Hf  Hf1  1  0.66666700  0.33333300  0.48252610  1
  Hf  Hf2  1  0.33333300  0.66666700  0.81478976  1
  Mg  Mg0  1  0.00000000  0.00000000  0.34555231  1
  Mg  Mg1  1  0.00000000  0.00000000  0.84809434  1
  Mg  Mg2  1  0.00000000  0.00000000  0.64939732  1
  Mg  Mg3  1  0.00000000  0.00000000  0.15454690  1
  Mg  Mg4  1  0.66666700  0.33333300  0.68166254  1
  Mg  Mg5  1  0.66666700  0.33333300  0.18430618  1
  Mg  Mg6  1  0.33333300  0.66666700  0.02003090  1
  Mg  Mg7  1  0.33333300  0.66666700  0.51393060  1
  Mg  Mg8  1  0.33333300  0.66666700  0.31665926  1
  P  P0  1  0.29871132  0.99931093  0.24958318  1
  P  P1  1  0.70059961  0.70128868  0.24958318  1
  P  P2  1  0.00068907  0.29940039  0.24958318  1
  P  P3  1  0.29609053  0.29501692  0.75107460  1
  P  P4  1  0.99892639  0.70390947  0.75107460  1
  P  P5  1  0.70498308  0.00107361  0.75107460  1
  P  P6  1  0.96563577  0.33399749  0.58636983  1
  P  P7  1  0.36836273  0.03436423  0.58636983  1
  P  P8  1  0.66600251  0.63163727  0.58636983  1
  P  P9  1  0.96600271  0.63163207  0.08439085  1
  P  P10  1  0.66563035  0.03399729  0.08439085  1
  P  P11  1  0.36836793  0.33436965  0.08439085  1
  P  P12  1  0.63055109  0.66770302  0.91844072  1
  P  P13  1  0.03715093  0.36944891  0.91844072  1
  P  P14  1  0.33229698  0.96284907  0.91844072  1
  P  P15  1  0.63020708  0.96195610  0.41799985  1
  P  P16  1  0.33174801  0.36979292  0.41799985  1
  P  P17  1  0.03804390  0.66825199  0.41799985  1
  O  O0  1  0.21240366  0.02296049  0.30625681  1
  O  O1  1  0.81055683  0.78759634  0.30625681  1
  O  O2  1  0.97703951  0.18944317  0.30625681  1
  O  O3  1  0.21448036  0.19259949  0.80900658  1
  O  O4  1  0.97811914  0.78551964  0.80900658  1
  O  O5  1  0.80740051  0.02188086  0.80900658  1
  O  O6  1  0.78386531  0.96817261  0.69499646  1
  O  O7  1  0.18430729  0.21613469  0.69499646  1
  O  O8  1  0.03182739  0.81569271  0.69499646  1
  O  O9  1  0.78460820  0.80965775  0.19224676  1
  O  O10  1  0.02504955  0.21539180  0.19224676  1
  O  O11  1  0.19034225  0.97495045  0.19224676  1
  O  O12  1  0.88133451  0.35711772  0.64318152  1
  O  O13  1  0.47578422  0.11866549  0.64318152  1
  O  O14  1  0.64288228  0.52421578  0.64318152  1
  O  O15  1  0.87518126  0.51763064  0.13832852  1
  O  O16  1  0.64245037  0.12481874  0.13832852  1
  O  O17  1  0.48236936  0.35754963  0.13832852  1
  O  O18  1  0.46117226  0.31485996  0.02519390  1
  O  O19  1  0.85368870  0.53882774  0.02519390  1
  O  O20  1  0.68514004  0.14631130  0.02519390  1
  O  O21  1  0.46547358  0.14986112  0.53051586  1
  O  O22  1  0.68438854  0.53452642  0.53051586  1
  O  O23  1  0.85013888  0.31561146  0.53051586  1
  O  O24  1  0.54345348  0.68898408  0.97367654  1
  O  O25  1  0.14552960  0.45654652  0.97367654  1
  O  O26  1  0.31101592  0.85447040  0.97367654  1
  O  O27  1  0.54855910  0.85854824  0.47582270  1
  O  O28  1  0.30998813  0.45144090  0.47582270  1
  O  O29  1  0.14145176  0.69001187  0.47582270  1
  O  O30  1  0.11672547  0.63472752  0.36193249  1
  O  O31  1  0.51800106  0.88327453  0.36193249  1
  O  O32  1  0.36527248  0.48199894  0.36193249  1
  O  O33  1  0.12501878  0.48300042  0.86104194  1
  O  O34  1  0.35798064  0.87498122  0.86104194  1
  O  O35  1  0.51699958  0.64201936  0.86104194  1
  O  O36  1  0.01153691  0.82363590  0.41257053  1
  O  O37  1  0.81209900  0.98846309  0.41257053  1
  O  O38  1  0.17636410  0.18790100  0.41257053  1
  O  O39  1  0.01284892  0.18943920  0.91181184  1
  O  O40  1  0.17659028  0.98715108  0.91181184  1
  O  O41  1  0.81056080  0.82340972  0.91181184  1
  O  O42  1  0.97802066  0.16977453  0.58718339  1
  O  O43  1  0.19175387  0.02197934  0.58718339  1
  O  O44  1  0.83022547  0.80824613  0.58718339  1
  O  O45  1  0.97768853  0.80724502  0.08492638  1
  O  O46  1  0.82955649  0.02231147  0.08492638  1
  O  O47  1  0.19275498  0.17044351  0.08492638  1
  O  O48  1  0.67853104  0.15672590  0.74631856  1
  O  O49  1  0.47819586  0.32146896  0.74631856  1
  O  O50  1  0.84327410  0.52180414  0.74631856  1
  O  O51  1  0.68154524  0.52100294  0.24557361  1
  O  O52  1  0.83945870  0.31845476  0.24557361  1
  O  O53  1  0.47899706  0.16054130  0.24557361  1
  O  O54  1  0.64472138  0.50123619  0.91974458  1
  O  O55  1  0.85651582  0.35527862  0.91974458  1
  O  O56  1  0.49876381  0.14348418  0.91974458  1
  O  O57  1  0.65054153  0.14668513  0.42373418  1
  O  O58  1  0.49614460  0.34945847  0.42373418  1
  O  O59  1  0.85331487  0.50385540  0.42373418  1
  O  O60  1  0.35106363  0.49426138  0.07807368  1
  O  O61  1  0.14319675  0.64893637  0.07807368  1
  O  O62  1  0.50573862  0.85680325  0.07807368  1
  O  O63  1  0.34987538  0.85608195  0.57990159  1
  O  O64  1  0.50620557  0.65012462  0.57990159  1
  O  O65  1  0.14391805  0.49379443  0.57990159  1
  O  O66  1  0.31784617  0.83829050  0.25446027  1
  O  O67  1  0.52044333  0.68215383  0.25446027  1
  O  O68  1  0.16170950  0.47955667  0.25446027  1
  O  O69  1  0.31664940  0.48006394  0.75634698  1
  O  O70  1  0.16341354  0.68335060  0.75634698  1
  O  O71  1  0.51993606  0.83658646  0.75634698  1
loop_
_geom_bond_atom_site_label_1
_geom_bond_atom_site_label_2
_geom_bond_distance
_geom_bond_site_symmetry_2
Na0 O66 2.486060 1_555
Na0 O53 2.493986 1_565
Na0 O67 2.515133 1_555
Na0 O52 2.541550 1_565
Na0 O31 2.630971 1_555
Na0 O16 2.753725 1_565
Na0 O2 2.935879 1_565
Na0 O9 2.977447 1_555
Na1 O67 2.486060 1_555
Na1 O51 2.493994 1_555
Na1 O68 2.515142 1_555
Na1 O53 2.541557 1_555
Na1 O32 2.630972 1_555
Na1 O17 2.753729 1_555
Na1 O0 2.935879 1_555
Na1 O10 2.977447 1_555
Na2 O68 2.486052 1_555
Na2 O52 2.493994 1_455
Na2 O66 2.515135 1_555
Na2 O51 2.541549 1_455
Na2 O30 2.630969 1_555
Na2 O15 2.753727 1_455
Na2 O1 2.935879 1_455
Na2 O11 2.977447 1_555
Na3 O14 2.347313 1_555
Na3 O50 2.453928 1_555
Na3 O49 2.462079 1_555
Na3 O69 2.619244 1_555
Na3 O71 2.628122 1_555
Na3 O6 2.808113 1_555
Na3 O35 2.936028 1_555
Na4 O12 2.347309 1_555
Na4 O48 2.453921 1_555
Na4 O50 2.462071 1_555
Na4 O70 2.619243 1_655
Na4 O69 2.628114 1_655
Na4 O7 2.808113 1_655
Na4 O33 2.936026 1_655
Na5 O13 2.347311 1_555
Na5 O49 2.453920 1_555
Na5 O48 2.462079 1_555
Na5 O71 2.619236 1_545
Na5 O70 2.628115 1_545
Na5 O8 2.808113 1_545
Na5 O34 2.936025 1_545
Na6 O65 2.446020 1_555
Na6 O43 2.492235 1_555
Na6 O42 2.495808 1_455
Na6 O28 2.503690 1_555
Na6 O64 2.526092 1_555
Na6 O7 2.746423 1_555
Na7 O63 2.446005 1_555
Na7 O44 2.492243 1_455
Na7 O43 2.495808 1_565
Na7 O29 2.503683 1_555
Na7 O65 2.526078 1_555
Na7 O8 2.746425 1_555
Na8 O64 2.446005 1_555
Na8 O42 2.492237 1_565
Na8 O44 2.495800 1_555
Na8 O27 2.503687 1_555
Na8 O63 2.526095 1_555
Na8 O6 2.746422 1_555
Na9 O11 2.369475 1_555
Na9 O47 2.492371 1_565
Na9 O61 2.492518 1_555
Na9 O45 2.509221 1_455
Na9 O62 2.546069 1_555
Na9 O16 2.875418 1_565
Na9 O26 2.882328 1_554
Na10 O9 2.369473 1_555
Na10 O45 2.492363 1_555
Na10 O62 2.492534 1_555
Na10 O46 2.509220 1_565
Na10 O60 2.546083 1_555
Na10 O17 2.875418 1_555
Na10 O24 2.882334 1_554
Na11 O10 2.369472 1_555
Na11 O46 2.492364 1_455
Na11 O60 2.492519 1_555
Na11 O47 2.509213 1_555
Na11 O61 2.546086 1_555
Na11 O15 2.875418 1_455
Na11 O25 2.882332 1_554
Na12 O41 2.404337 1_555
Na12 O40 2.438925 1_655
Na12 O4 2.510382 1_555
Na12 O55 2.589371 1_555
Na12 O54 2.593022 1_555
Na12 O19 2.718132 1_556
Na13 O39 2.404345 1_655
Na13 O41 2.438932 1_545
Na13 O5 2.510385 1_555
Na13 O56 2.589354 1_555
Na13 O55 2.593021 1_555
Na13 O20 2.718127 1_556
Na14 O40 2.404345 1_545
Na14 O39 2.438923 1_555
Na14 O3 2.510383 1_555
Na14 O54 2.589368 1_555
Na14 O56 2.593037 1_555
Na14 O18 2.718135 1_556
Na15 O2 2.391522 1_555
Na15 O38 2.445950 1_655
Na15 O37 2.450002 1_545
Na15 O57 2.623641 1_555
Na15 O59 2.652738 1_555
Na15 O30 2.805772 1_655
Na16 O0 2.391518 1_555
Na16 O36 2.445943 1_545
Na16 O38 2.449994 1_555
Na16 O58 2.623642 1_555
Na16 O57 2.652755 1_555
Na16 O31 2.805772 1_545
Na17 O1 2.391520 1_555
Na17 O37 2.445941 1_555
Na17 O36 2.450002 1_655
Na17 O59 2.623657 1_555
Na17 O58 2.652752 1_555
Na17 O32 2.805772 1_555
Na18 O38 2.466549 1_555
Na18 O37 2.466549 1_445
Na18 O36 2.466549 1_545
Na18 O44 2.604626 1_445
Na18 O42 2.604626 1_455
Na18 O43 2.604626 1_555
Na19 O45 2.383658 1_445
Na19 O47 2.383658 1_555
Na19 O46 2.383659 1_455
Na19 O39 2.677617 1_554
Na19 O41 2.677617 1_444
Na19 O40 2.677617 1_544
Na20 O50 2.400935 1_555
Na20 O48 2.400935 1_555
Na20 O49 2.400935 1_555
Na20 O54 2.646209 1_555
Na20 O56 2.646209 1_555
Na20 O55 2.646209 1_555
Na21 O51 2.366723 1_555
Na21 O53 2.366723 1_555
Na21 O52 2.366723 1_555
Na21 O57 2.748468 1_555
Na21 O59 2.748468 1_555
Na21 O58 2.748468 1_555
Na22 O68 2.403507 1_555
Na22 O66 2.403507 1_555
Na22 O67 2.403507 1_555
Na22 O62 2.686507 1_555
Na22 O60 2.686507 1_555
Na22 O61 2.686507 1_555
Na23 O63 2.343208 1_555
Na23 O65 2.343208 1_555
Na23 O64 2.343209 1_555
Na23 O69 2.750084 1_555
Na23 O71 2.750084 1_555
Na23 O70 2.750084 1_555
Hf0 O19 2.002986 1_556
Hf0 O20 2.002986 1_556
Hf0 O18 2.002986 1_556
Hf0 O54 2.155077 1_555
Hf0 O56 2.155077 1_555
Hf0 O55 2.155077 1_555
Hf1 O22 2.042127 1_555
Hf1 O21 2.042127 1_555
Hf1 O23 2.042127 1_555
Hf1 O57 2.076189 1_555
Hf1 O59 2.076189 1_555
Hf1 O58 2.076189 1_555
Hf2 O34 2.055475 1_555
Hf2 O33 2.055475 1_555
Hf2 O35 2.055475 1_555
Hf2 O69 2.069372 1_555
Hf2 O71 2.069372 1_555
Hf2 O70 2.069372 1_555
Mg0 O1 2.022580 1_445
Mg0 O2 2.022580 1_455
Mg0 O0 2.022581 1_555
Mg0 O38 2.216128 1_555
Mg0 O37 2.216128 1_445
Mg0 O36 2.216128 1_545
Mg1 O3 2.041231 1_555
Mg1 O5 2.041231 1_455
Mg1 O4 2.041231 1_445
Mg1 O39 2.174761 1_555
Mg1 O41 2.174761 1_445
Mg1 O40 2.174761 1_545
Mg2 O8 2.087585 1_545
Mg2 O7 2.087585 1_555
Mg2 O6 2.087585 1_445
Mg2 O44 2.142409 1_445
Mg2 O42 2.142409 1_455
Mg2 O43 2.142409 1_555
Mg3 O10 2.025215 1_555
Mg3 O9 2.025216 1_445
Mg3 O11 2.025216 1_545
Mg3 O45 2.256274 1_445
Mg3 O47 2.256274 1_555
Mg3 O46 2.256274 1_455
Mg4 O14 2.030667 1_555
Mg4 O13 2.030667 1_555
Mg4 O12 2.030667 1_555
Mg4 O50 2.184600 1_555
Mg4 O48 2.184600 1_555
Mg4 O49 2.184600 1_555
Mg5 O16 2.055413 1_555
Mg5 O15 2.055413 1_555
Mg5 O17 2.055413 1_555
Mg5 O51 2.121600 1_555
Mg5 O53 2.121600 1_555
Mg5 O52 2.121600 1_555
Mg6 O25 2.078220 1_554
Mg6 O26 2.078220 1_554
Mg6 O24 2.078220 1_554
Mg6 O62 2.085781 1_555
Mg6 O60 2.085781 1_555
Mg6 O61 2.085781 1_555
Mg7 O28 2.033308 1_555
Mg7 O27 2.033308 1_555
Mg7 O29 2.033308 1_555
Mg7 O63 2.196055 1_555
Mg7 O65 2.196055 1_555
Mg7 O64 2.196055 1_555
Mg8 O31 2.087517 1_555
Mg8 O30 2.087517 1_555
Mg8 O32 2.087517 1_555
Mg8 O68 2.129048 1_555
Mg8 O66 2.129048 1_555
Mg8 O67 2.129048 1_555
O0 P0 1.544741 1_545
O1 P1 1.544741 1_555
O2 P2 1.544741 1_655
O3 P3 1.534058 1_555
O4 P4 1.534058 1_555
O5 P5 1.534058 1_555
O6 P5 1.530138 1_565
O7 P3 1.530138 1_555
O8 P4 1.530138 1_455
O9 P1 1.547305 1_555
O10 P2 1.547305 1_555
O11 P0 1.547305 1_555
O12 P6 1.535004 1_555
O13 P7 1.535004 1_555
O14 P8 1.535004 1_555
O15 P9 1.519178 1_555
O16 P10 1.519178 1_555
O17 P11 1.519178 1_555
O18 P11 1.609441 1_555
O19 P9 1.609441 1_555
O20 P10 1.609441 1_555
O21 P7 1.569902 1_555
O22 P8 1.569902 1_555
O23 P6 1.569902 1_555
O24 P12 1.514945 1_555
O25 P13 1.514945 1_555
O26 P14 1.514945 1_555
O27 P15 1.535399 1_555
O28 P16 1.535399 1_555
O29 P17 1.535399 1_555
O30 P17 1.531344 1_555
O31 P15 1.531344 1_555
O32 P16 1.531344 1_555
O33 P13 1.573093 1_555
O34 P14 1.573093 1_555
O35 P12 1.573093 1_555
O36 P17 1.545033 1_555
O37 P15 1.545042 1_555
O38 P16 1.545038 1_555
O39 P13 1.538121 1_555
O40 P14 1.538112 1_555
O41 P12 1.538118 1_555
O42 P6 1.545556 1_555
O43 P7 1.545565 1_555
O44 P8 1.545561 1_555
O45 P9 1.539332 1_555
O46 P10 1.539323 1_555
O47 P11 1.539328 1_555
O48 P5 1.546050 1_555
O49 P3 1.546059 1_555
O50 P4 1.546056 1_555
O51 P1 1.555222 1_555
O52 P2 1.555214 1_655
O53 P0 1.555219 1_545
O54 P12 1.574973 1_555
O55 P13 1.574955 1_655
O56 P14 1.574963 1_545
O57 P15 1.592978 1_545
O58 P16 1.592996 1_555
O59 P17 1.592985 1_655
O60 P11 1.537806 1_555
O61 P9 1.537788 1_455
O62 P10 1.537796 1_565
O63 P7 1.543396 1_565
O64 P8 1.543414 1_555
O65 P6 1.543403 1_455
O66 P0 1.554955 1_555
O67 P1 1.554964 1_555
O68 P2 1.554960 1_555
O69 P3 1.594226 1_555
O70 P4 1.594217 1_455
O71 P5 1.594222 1_565
