# generated using pymatgen
data_MgNb2(O2F)2
_symmetry_space_group_name_H-M   'P 1'
_cell_length_a   5.55511561
_cell_length_b   5.74061957
_cell_length_c   5.55511534
_cell_angle_alpha   59.40997454
_cell_angle_beta   55.98003247
_cell_angle_gamma   59.40997279
_symmetry_Int_Tables_number   1
_chemical_formula_structural   MgNb2(O2F)2
_chemical_formula_sum   'Mg1 Nb2 O4 F2'
_cell_volume   119.99550225
_cell_formula_units_Z   1
loop_
 _symmetry_equiv_pos_site_id
 _symmetry_equiv_pos_as_xyz
  1  'x, y, z'
loop_
 _atom_site_type_symbol
 _atom_site_label
 _atom_site_symmetry_multiplicity
 _atom_site_fract_x
 _atom_site_fract_y
 _atom_site_fract_z
 _atom_site_occupancy
  Mg  Mg0  1  0.66779200  0.75000000  0.83220800  1
  Nb  Nb0  1  0.97941700  0.01080100  0.00143900  1
  Nb  Nb1  1  0.49856100  0.48919900  0.52058300  1
  O  O0  1  0.35876800  0.14984800  0.78383500  1
  O  O1  1  0.71616500  0.35015200  0.14123200  1
  O  O2  1  0.34944800  0.70272700  0.77994100  1
  O  O3  1  0.72005900  0.79727300  0.15055200  1
  F  F0  1  0.05653200  0.75000000  0.44346800  1
  F  F1  1  0.90325800  0.25000000  0.59674200  1
loop_
_geom_bond_atom_site_label_1
_geom_bond_atom_site_label_2
_geom_bond_distance
_geom_bond_site_symmetry_2
Mg0 O0 2.041037 1_565
Mg0 O1 2.041037 1_556
Mg0 O3 2.104402 1_556
Mg0 O2 2.104402 1_555
Nb0 O3 1.921750 1_545
Nb0 O1 1.976393 1_555
Nb0 O0 2.102094 1_654
Nb0 O2 2.133474 1_644
Nb1 O2 1.921749 1_555
Nb1 O0 1.976393 1_555
Nb1 O1 2.102094 1_555
Nb1 O3 2.133474 1_555
F0 Mg0 2.026979 1_455
F0 Nb0 2.288489 1_465
F0 Nb1 2.288489 1_555
F1 Nb0 2.109438 1_556
F1 Nb1 2.109439 1_555
