# generated using pymatgen
data_Sc2P3(HO3)3
_symmetry_space_group_name_H-M   'P 1'
_cell_length_a   8.43540163
_cell_length_b   8.43540163
_cell_length_c   7.80501000
_cell_angle_alpha   90.00000000
_cell_angle_beta   90.00000000
_cell_angle_gamma   119.99999713
_symmetry_Int_Tables_number   1
_chemical_formula_structural   Sc2P3(HO3)3
_chemical_formula_sum   'Sc4 P6 H6 O18'
_cell_volume   480.96739787
_cell_formula_units_Z   2
loop_
 _symmetry_equiv_pos_site_id
 _symmetry_equiv_pos_as_xyz
  1  'x, y, z'
loop_
 _atom_site_type_symbol
 _atom_site_label
 _atom_site_symmetry_multiplicity
 _atom_site_fract_x
 _atom_site_fract_y
 _atom_site_fract_z
 _atom_site_occupancy
  Sc  Sc0  1  0.33333300  0.66666700  0.45448800  1
  Sc  Sc1  1  0.66666700  0.33333300  0.95448800  1
  Sc  Sc2  1  0.66666700  0.33333300  0.54551200  1
  Sc  Sc3  1  0.33333300  0.66666700  0.04551200  1
  P  P0  1  0.64488200  0.95686900  0.75000000  1
  P  P1  1  0.68801300  0.64488200  0.25000000  1
  P  P2  1  0.95686900  0.31198700  0.25000000  1
  P  P3  1  0.04313100  0.68801300  0.75000000  1
  P  P4  1  0.31198700  0.35511800  0.75000000  1
  P  P5  1  0.35511800  0.04313100  0.25000000  1
  H  H0  1  0.83050700  0.00483400  0.75000000  1
  H  H1  1  0.99516600  0.82567300  0.75000000  1
  H  H2  1  0.16949300  0.99516600  0.25000000  1
  H  H3  1  0.82567300  0.83050700  0.25000000  1
  H  H4  1  0.17432700  0.16949300  0.75000000  1
  H  H5  1  0.00483400  0.17432700  0.25000000  1
  O  O0  1  0.43960100  0.15200600  0.41423500  1
  O  O1  1  0.28759500  0.43960100  0.91423500  1
  O  O2  1  0.15200600  0.71240500  0.91423500  1
  O  O3  1  0.84799400  0.28759500  0.41423500  1
  O  O4  1  0.13923400  0.49802500  0.25000000  1
  O  O5  1  0.86076600  0.50197500  0.75000000  1
  O  O6  1  0.64120900  0.13923400  0.75000000  1
  O  O7  1  0.49802500  0.35879100  0.75000000  1
  O  O8  1  0.50197500  0.64120900  0.25000000  1
  O  O9  1  0.35879100  0.86076600  0.25000000  1
  O  O10  1  0.43960100  0.15200600  0.08576500  1
  O  O11  1  0.28759500  0.43960100  0.58576500  1
  O  O12  1  0.15200600  0.71240500  0.58576500  1
  O  O13  1  0.84799400  0.28759500  0.08576500  1
  O  O14  1  0.71240500  0.56039900  0.08576500  1
  O  O15  1  0.56039900  0.84799400  0.58576500  1
  O  O16  1  0.56039900  0.84799400  0.91423500  1
  O  O17  1  0.71240500  0.56039900  0.41423500  1
loop_
_geom_bond_atom_site_label_1
_geom_bond_atom_site_label_2
_geom_bond_distance
_geom_bond_site_symmetry_2
H0 P0 1.407822 1_545
H1 P3 1.407822 1_655
H2 P5 1.407822 1_565
H3 P1 1.407822 1_555
H4 P4 1.407822 1_555
H5 P2 1.407822 1_455
O0 P5 1.529702 1_555
O0 Sc2 2.031853 1_555
O1 P4 1.529702 1_555
O1 Sc3 2.031855 1_556
O2 P3 1.529702 1_555
O2 Sc3 2.031848 1_556
O3 P2 1.529702 1_555
O3 Sc2 2.031848 1_555
O4 P2 1.554045 1_455
O4 Sc0 2.218692 1_555
O4 Sc3 2.218692 1_555
O5 P3 1.554045 1_655
O5 Sc2 2.218692 1_555
O5 Sc1 2.218692 1_555
O6 P0 1.554045 1_545
O6 Sc2 2.218690 1_555
O6 Sc1 2.218690 1_555
O7 P4 1.554045 1_555
O7 Sc2 2.218696 1_555
O7 Sc1 2.218696 1_555
O8 P1 1.554045 1_555
O8 Sc0 2.218696 1_555
O8 Sc3 2.218696 1_555
O9 P5 1.554045 1_565
O9 Sc3 2.218690 1_555
O9 Sc0 2.218690 1_555
O10 P5 1.529702 1_555
O10 Sc1 2.031853 1_554
O11 P4 1.529702 1_555
O11 Sc0 2.031855 1_555
O12 P3 1.529702 1_555
O12 Sc0 2.031848 1_555
O13 P2 1.529702 1_555
O13 Sc1 2.031848 1_554
O14 P1 1.529702 1_555
O14 Sc1 2.031855 1_554
O15 P0 1.529702 1_555
O15 Sc0 2.031853 1_555
O16 P0 1.529702 1_555
O16 Sc3 2.031853 1_556
O17 P1 1.529702 1_555
O17 Sc2 2.031855 1_555
