# generated using pymatgen
data_NaP(HO2)2
_symmetry_space_group_name_H-M   'P 1'
_cell_length_a   6.76293598
_cell_length_b   7.22018392
_cell_length_c   13.27095057
_cell_angle_alpha   90.00000000
_cell_angle_beta   90.00000000
_cell_angle_gamma   92.92332164
_symmetry_Int_Tables_number   1
_chemical_formula_structural   NaP(HO2)2
_chemical_formula_sum   'Na8 P8 H16 O32'
_cell_volume   647.17248493
_cell_formula_units_Z   8
loop_
 _symmetry_equiv_pos_site_id
 _symmetry_equiv_pos_as_xyz
  1  'x, y, z'
loop_
 _atom_site_type_symbol
 _atom_site_label
 _atom_site_symmetry_multiplicity
 _atom_site_fract_x
 _atom_site_fract_y
 _atom_site_fract_z
 _atom_site_occupancy
  Na  Na0  1  0.14074703  -0.00018014  0.59824722  1
  Na  Na1  1  0.85925297  0.50018014  0.09824722  1
  Na  Na2  1  0.85925297  0.00018014  0.40175278  1
  Na  Na3  1  0.14074703  0.49981986  0.90175278  1
  Na  Na4  1  0.64301208  0.73523111  0.60069479  1
  Na  Na5  1  0.35698792  0.76476889  0.10069479  1
  Na  Na6  1  0.35698792  0.26476889  0.39930521  1
  Na  Na7  1  0.64301208  0.23523111  0.89930521  1
  P  P0  1  0.67043585  0.14464364  0.63140594  1
  P  P1  1  0.32956415  0.35535636  0.13140594  1
  P  P2  1  0.32956415  0.85535636  0.36859406  1
  P  P3  1  0.67043585  0.64464364  0.86859406  1
  P  P4  1  0.17383402  0.48479632  0.63025275  1
  P  P5  1  0.82616598  0.01520368  0.13025175  1
  P  P6  1  0.82616598  0.51520368  0.36974825  1
  P  P7  1  0.17383402  0.98479632  0.86974725  1
  H  H0  1  0.99386535  0.15857976  0.96964069  1
  H  H1  1  0.00613465  0.34142024  0.46964069  1
  H  H2  1  0.00613465  0.84142024  0.03035931  1
  H  H3  1  0.99386535  0.65857976  0.53035931  1
  H  H4  1  0.94206617  0.84571042  0.77196429  1
  H  H5  1  0.05793383  0.65428958  0.27196429  1
  H  H6  1  0.05793383  0.15428958  0.22803571  1
  H  H7  1  0.94206617  0.34571042  0.72803571  1
  H  H8  1  0.51215059  0.88656368  0.90541280  1
  H  H9  1  0.48784941  0.61343632  0.40541280  1
  H  H10  1  0.48784941  0.11343632  0.09458720  1
  H  H11  1  0.51215059  0.38656368  0.59458720  1
  H  H12  1  0.44535217  0.52099695  0.76537006  1
  H  H13  1  0.55464783  0.97900305  0.26537006  1
  H  H14  1  0.55464783  0.47900305  0.23462994  1
  H  H15  1  0.44535217  0.02099695  0.73462994  1
  O  O0  1  0.47663222  0.52098331  0.84045973  1
  O  O1  1  0.24953292  0.26535507  0.22629060  1
  O  O2  1  0.24953292  0.76535507  0.27370940  1
  O  O3  1  0.75046708  0.73464493  0.77370940  1
  O  O4  1  0.47663222  0.02098331  0.65954027  1
  O  O5  1  0.52336778  0.47901669  0.15954027  1
  O  O6  1  0.52336778  0.97901669  0.34045973  1
  O  O7  1  0.75046708  0.23464493  0.72629060  1
  O  O8  1  0.80194063  0.02524828  0.57201187  1
  O  O9  1  0.19805937  0.47475172  0.07201187  1
  O  O10  1  0.19805937  0.97475172  0.42798813  1
  O  O11  1  0.80194063  0.52524828  0.92798813  1
  O  O12  1  0.59401501  0.29678638  0.55700547  1
  O  O13  1  0.40598499  0.20321362  0.05700547  1
  O  O14  1  0.40598499  0.70321362  0.44299453  1
  O  O15  1  0.59401501  0.79678638  0.94299453  1
  O  O16  1  0.39010456  0.03073324  0.84499458  1
  O  O17  1  0.92356062  0.07948986  0.23170859  1
  O  O18  1  0.92356062  0.57948986  0.26829141  1
  O  O19  1  0.07643938  0.92051014  0.76829141  1
  O  O20  1  0.14808849  0.33501228  0.55112240  1
  O  O21  1  0.85191151  0.16498772  0.05112240  1
  O  O22  1  0.85191151  0.66498772  0.44887760  1
  O  O23  1  0.14808849  0.83501228  0.94887760  1
  O  O24  1  0.07405107  0.66456922  0.59651801  1
  O  O25  1  0.92594893  0.83543078  0.09651801  1
  O  O26  1  0.92594893  0.33543078  0.40348199  1
  O  O27  1  0.07405107  0.16456922  0.90348199  1
  O  O28  1  0.39010456  0.53073324  0.65500542  1
  O  O29  1  0.60989544  0.96926676  0.15500542  1
  O  O30  1  0.60989544  0.46926676  0.34499458  1
  O  O31  1  0.07643938  0.42051014  0.73170859  1
loop_
_geom_bond_atom_site_label_1
_geom_bond_atom_site_label_2
_geom_bond_distance
_geom_bond_site_symmetry_2
Na0 O10 2.301193 1_545
Na0 O8 2.334098 1_455
Na0 O19 2.363072 1_545
Na0 O4 2.410316 1_555
Na0 O24 2.439628 1_545
Na0 O20 2.497690 1_555
Na1 O11 2.301193 1_554
Na1 O9 2.334098 1_655
Na1 O18 2.363072 1_555
Na1 O5 2.410316 1_555
Na1 O25 2.439628 1_555
Na1 O21 2.497690 1_555
Na2 O8 2.301193 1_555
Na2 O10 2.334098 1_645
Na2 O17 2.363072 1_555
Na2 O6 2.410316 1_545
Na2 O26 2.439628 1_555
Na2 O22 2.497690 1_545
Na3 O9 2.301193 1_556
Na3 O11 2.334098 1_455
Na3 O31 2.363072 1_555
Na3 O0 2.410316 1_555
Na3 O27 2.439628 1_555
Na3 O23 2.497690 1_555
Na4 O28 2.316774 1_555
Na4 O8 2.335662 1_565
Na4 O3 2.408396 1_555
Na4 O4 2.523785 1_565
Na4 O22 2.526952 1_555
Na4 O14 2.639166 1_555
Na5 O29 2.316774 1_555
Na5 O9 2.335662 1_555
Na5 O2 2.408396 1_555
Na5 O5 2.523785 1_555
Na5 O23 2.526952 1_554
Na5 O15 2.639166 1_554
Na6 O30 2.316774 1_555
Na6 O10 2.335662 1_545
Na6 O1 2.408396 1_555
Na6 O6 2.523785 1_545
Na6 O20 2.526952 1_555
Na6 O12 2.639166 1_555
Na7 O16 2.316774 1_555
Na7 O11 2.335662 1_555
Na7 O7 2.408396 1_555
Na7 O0 2.523785 1_555
Na7 O21 2.526952 1_556
Na7 O13 2.639166 1_556
H0 O27 1.031708 1_655
H0 O21 1.448314 1_556
H1 O26 1.031708 1_455
H1 O20 1.448314 1_555
H2 O25 1.031708 1_455
H2 O23 1.448314 1_554
H3 O24 1.031708 1_655
H3 O22 1.448314 1_555
H4 O19 1.034325 1_655
H4 O3 1.488839 1_555
H5 O18 1.034325 1_455
H5 O2 1.488839 1_555
H6 O17 1.034325 1_455
H6 O1 1.488839 1_555
H7 O31 1.034325 1_655
H7 O7 1.488839 1_555
H8 O15 1.006006 1_555
H8 O16 1.579663 1_565
H9 O14 1.006006 1_555
H9 O30 1.579663 1_555
H10 O13 1.006006 1_555
H10 O29 1.579663 1_545
H11 O12 1.006006 1_555
H11 O28 1.579663 1_555
H12 O0 1.018719 1_555
H12 O28 1.514069 1_555
H13 O6 1.018719 1_555
H13 O29 1.514069 1_555
H14 O5 1.018719 1_555
H14 O30 1.514069 1_555
H15 O4 1.018719 1_555
H15 O16 1.514069 1_555
O0 P3 1.592203 1_555
O1 P1 1.504977 1_555
O2 P2 1.504977 1_555
O3 P3 1.504977 1_555
O4 P0 1.592203 1_555
O5 P1 1.592203 1_555
O6 P2 1.592203 1_555
O7 P0 1.504977 1_555
O8 P0 1.494518 1_555
O9 P1 1.494518 1_555
O10 P2 1.494518 1_555
O11 P3 1.494518 1_555
O12 P0 1.583228 1_555
O13 P1 1.583228 1_555
O14 P2 1.583228 1_555
O15 P3 1.583228 1_555
O16 P7 1.519112 1_545
O17 P5 1.559160 1_555
O18 P6 1.559160 1_555
O19 P7 1.559149 1_555
O20 P4 1.511114 1_555
O21 P5 1.511105 1_555
O22 P6 1.511105 1_555
O23 P7 1.511114 1_555
O24 P4 1.558829 1_555
O25 P5 1.558825 1_565
O26 P6 1.558825 1_555
O27 P7 1.558829 1_545
O28 P4 1.519112 1_555
O29 P5 1.519115 1_565
O30 P6 1.519115 1_555
O31 P4 1.559149 1_555
