# generated using pymatgen
data_CuAs2
_symmetry_space_group_name_H-M   'P 1'
_cell_length_a   3.82072300
_cell_length_b   4.80597400
_cell_length_c   5.96060600
_cell_angle_alpha   90.00000000
_cell_angle_beta   90.00000000
_cell_angle_gamma   90.00000000
_symmetry_Int_Tables_number   1
_chemical_formula_structural   CuAs2
_chemical_formula_sum   'Cu2 As4'
_cell_volume   109.45040813
_cell_formula_units_Z   2
loop_
 _symmetry_equiv_pos_site_id
 _symmetry_equiv_pos_as_xyz
  1  'x, y, z'
loop_
 _atom_site_type_symbol
 _atom_site_label
 _atom_site_symmetry_multiplicity
 _atom_site_fract_x
 _atom_site_fract_y
 _atom_site_fract_z
 _atom_site_occupancy
  Cu  Cu0  1  0.50000000  0.50000000  0.50000000  1
  Cu  Cu1  1  0.00000000  0.00000000  0.00000000  1
  As  As0  1  0.50000000  0.29402600  0.87461600  1
  As  As1  1  0.50000000  0.70597400  0.12538400  1
  As  As2  1  0.00000000  0.79402600  0.62538400  1
  As  As3  1  0.00000000  0.20597400  0.37461600  1
loop_
_geom_bond_atom_site_label_1
_geom_bond_atom_site_label_2
_geom_bond_distance
_geom_bond_site_symmetry_2
As0 Cu0 2.442525 1_555
As0 As1 2.480699 1_556
As0 Cu1 2.490950 1_656
As0 Cu1 2.490950 1_556
As1 Cu0 2.442525 1_555
As1 Cu1 2.490950 1_565
As1 Cu1 2.490950 1_665
As2 Cu1 2.442525 1_566
As2 As3 2.480699 1_565
As2 Cu0 2.490950 1_555
As2 Cu0 2.490950 1_455
As3 Cu1 2.442525 1_555
As3 Cu0 2.490950 1_555
As3 Cu0 2.490950 1_455
