# generated using pymatgen
data_Na3Zr3InSi3(SO8)3
_symmetry_space_group_name_H-M   'P 1'
_cell_length_a   9.04166535
_cell_length_b   9.10382032
_cell_length_c   23.44601297
_cell_angle_alpha   89.81975340
_cell_angle_beta   90.23575124
_cell_angle_gamma   120.24684218
_symmetry_Int_Tables_number   1
_chemical_formula_structural   Na3Zr3InSi3(SO8)3
_chemical_formula_sum   'Na9 Zr9 In3 Si9 S9 O72'
_cell_volume   1667.17851255
_cell_formula_units_Z   3
loop_
 _symmetry_equiv_pos_site_id
 _symmetry_equiv_pos_as_xyz
  1  'x, y, z'
loop_
 _atom_site_type_symbol
 _atom_site_label
 _atom_site_symmetry_multiplicity
 _atom_site_fract_x
 _atom_site_fract_y
 _atom_site_fract_z
 _atom_site_occupancy
  Na  Na0  1  0.35542127  0.35884568  0.24306846  1
  Na  Na1  1  0.63669950  0.62453986  0.75358361  1
  Na  Na2  1  0.96878837  0.28724111  0.41528705  1
  Na  Na3  1  0.99411418  0.00764394  0.49680087  1
  Na  Na4  1  0.99633418  0.98600178  0.00226565  1
  Na  Na5  1  0.66443479  0.34051603  0.83057982  1
  Na  Na6  1  0.66986673  0.32118120  0.32958744  1
  Na  Na7  1  0.30671076  0.65381814  0.16310457  1
  Na  Na8  1  0.29722863  0.64718347  0.66635954  1
  Zr  Zr0  1  0.00540088  0.99161534  0.85193918  1
  Zr  Zr1  1  0.01203654  0.01528265  0.64751149  1
  Zr  Zr2  1  0.00936322  0.01103366  0.14438868  1
  Zr  Zr3  1  0.66499542  0.35471448  0.98198669  1
  Zr  Zr4  1  0.66169457  0.31960240  0.47935285  1
  Zr  Zr5  1  0.33846522  0.65775492  0.02214984  1
  Zr  Zr6  1  0.33237054  0.65442000  0.51762589  1
  Zr  Zr7  1  0.33669761  0.66333310  0.31545856  1
  Zr  Zr8  1  0.32452314  0.65420673  0.81241923  1
  In  In0  1  0.99317311  0.00856414  0.35255218  1
  In  In1  1  0.67856311  0.33992549  0.68645816  1
  In  In2  1  0.68773055  0.34594490  0.18035264  1
  Si  Si0  1  0.99260165  0.29562119  0.25114783  1
  Si  Si1  1  0.29735323  0.29096557  0.75052894  1
  Si  Si2  1  0.00272286  0.71066871  0.74791827  1
  Si  Si3  1  0.95989533  0.33365047  0.58351945  1
  Si  Si4  1  0.96600560  0.63470847  0.08343457  1
  Si  Si5  1  0.37955169  0.33467669  0.08738570  1
  Si  Si6  1  0.62898850  0.67311082  0.91492529  1
  Si  Si7  1  0.62402051  0.95384945  0.41730018  1
  Si  Si8  1  0.33683862  0.37034549  0.41537952  1
  S  S0  1  0.28971028  0.99806699  0.25058391  1
  S  S1  1  0.70949953  0.70897133  0.25110097  1
  S  S2  1  0.71028618  0.99887734  0.75109392  1
  S  S3  1  0.37378415  0.03817309  0.58385449  1
  S  S4  1  0.66775984  0.62735286  0.58359078  1
  S  S5  1  0.66543548  0.04214577  0.08202189  1
  S  S6  1  0.03843186  0.37151581  0.91728512  1
  S  S7  1  0.33813165  0.95733813  0.91705778  1
  S  S8  1  0.04307476  0.66883552  0.41687504  1
  O  O0  1  0.20769879  0.01909321  0.30207247  1
  O  O1  1  0.81181734  0.78409438  0.30320100  1
  O  O2  1  0.97347514  0.19779008  0.31153262  1
  O  O3  1  0.19902296  0.17895653  0.80657701  1
  O  O4  1  0.97158134  0.80213672  0.80413501  1
  O  O5  1  0.81557404  0.02159017  0.80221568  1
  O  O6  1  0.78829547  0.97183033  0.69947936  1
  O  O7  1  0.17650837  0.20667265  0.69392741  1
  O  O8  1  0.02031827  0.82678844  0.69223950  1
  O  O9  1  0.79259038  0.80918743  0.19987898  1
  O  O10  1  0.02675696  0.19606817  0.19810293  1
  O  O11  1  0.18316402  0.97322567  0.19893994  1
  O  O12  1  0.87404961  0.36076571  0.63962008  1
  O  O13  1  0.47468979  0.11593382  0.63585477  1
  O  O14  1  0.63628219  0.52901803  0.63716983  1
  O  O15  1  0.90199941  0.52087220  0.14031144  1
  O  O16  1  0.63389748  0.11042875  0.13463479  1
  O  O17  1  0.47891758  0.35726642  0.14750586  1
  O  O18  1  0.47106105  0.30729677  0.03145304  1
  O  O19  1  0.84332042  0.53728230  0.02746728  1
  O  O20  1  0.69161790  0.14780829  0.03141491  1
  O  O21  1  0.45661024  0.14680843  0.53256966  1
  O  O22  1  0.68567435  0.53792821  0.53390863  1
  O  O23  1  0.84747793  0.31385243  0.52509104  1
  O  O24  1  0.52746752  0.68926649  0.96945011  1
  O  O25  1  0.14476034  0.45651222  0.96794501  1
  O  O26  1  0.31113151  0.85285779  0.96808385  1
  O  O27  1  0.52251494  0.84366561  0.47326523  1
  O  O28  1  0.30008757  0.46496649  0.46898586  1
  O  O29  1  0.14696482  0.69259390  0.46840258  1
  O  O30  1  0.12201638  0.63723379  0.36586107  1
  O  O31  1  0.50515967  0.86603909  0.36062123  1
  O  O32  1  0.35852769  0.48538372  0.35773877  1
  O  O33  1  0.11905975  0.47940141  0.86533110  1
  O  O34  1  0.35243204  0.87177916  0.86503153  1
  O  O35  1  0.51499947  0.65030376  0.85694156  1
  O  O36  1  0.02357577  0.81760416  0.40971613  1
  O  O37  1  0.81381970  0.97566212  0.41583740  1
  O  O38  1  0.16592184  0.18374208  0.41308125  1
  O  O39  1  0.02743619  0.20510493  0.91108052  1
  O  O40  1  0.18421577  0.97879781  0.91173555  1
  O  O41  1  0.81949022  0.84428940  0.91089319  1
  O  O42  1  0.97559594  0.16032499  0.58789104  1
  O  O43  1  0.20095742  0.02163885  0.58693788  1
  O  O44  1  0.82259832  0.79797397  0.58751097  1
  O  O45  1  0.97367965  0.81791740  0.09067175  1
  O  O46  1  0.81925277  0.02221315  0.08844433  1
  O  O47  1  0.18530746  0.16656960  0.08917376  1
  O  O48  1  0.68692788  0.14701579  0.74656495  1
  O  O49  1  0.48775657  0.31600050  0.74426218  1
  O  O50  1  0.82873857  0.52541525  0.74760808  1
  O  O51  1  0.67459811  0.53105881  0.24774455  1
  O  O52  1  0.82190647  0.31175460  0.24574099  1
  O  O53  1  0.45858182  0.15569411  0.24531682  1
  O  O54  1  0.64402149  0.49955757  0.92011925  1
  O  O55  1  0.86653059  0.35034584  0.92227207  1
  O  O56  1  0.49378606  0.12648134  0.92133401  1
  O  O57  1  0.65367222  0.15031370  0.42247510  1
  O  O58  1  0.51168631  0.36477915  0.42468276  1
  O  O59  1  0.87332365  0.50963870  0.42265828  1
  O  O60  1  0.35800351  0.50248294  0.07798014  1
  O  O61  1  0.15770157  0.66481436  0.07080089  1
  O  O62  1  0.51380860  0.86867315  0.07505983  1
  O  O63  1  0.35379908  0.86839200  0.57656007  1
  O  O64  1  0.51497689  0.64886189  0.57657653  1
  O  O65  1  0.15143425  0.50421201  0.57681841  1
  O  O66  1  0.30912520  0.84579493  0.25505207  1
  O  O67  1  0.53624155  0.69665499  0.25505692  1
  O  O68  1  0.17525931  0.48502248  0.25437111  1
  O  O69  1  0.32305071  0.48516289  0.75657019  1
  O  O70  1  0.17474185  0.69684746  0.75673466  1
  O  O71  1  0.54028290  0.83961277  0.75653616  1
loop_
_geom_bond_atom_site_label_1
_geom_bond_atom_site_label_2
_geom_bond_distance
_geom_bond_site_symmetry_2
Na0 O68 2.435945 1_555
Na0 O53 2.455642 1_555
Na0 O51 2.497726 1_555
Na0 O17 2.510799 1_555
Na0 O67 2.673201 1_555
Na0 O10 2.772335 1_555
Na0 O32 2.922752 1_555
Na1 O50 2.330296 1_555
Na1 O49 2.437567 1_555
Na1 O69 2.456251 1_555
Na1 O71 2.513852 1_555
Na1 O35 2.724684 1_555
Na1 O14 2.866640 1_555
Na1 O4 2.870100 1_555
Na2 O38 2.400109 1_655
Na2 O37 2.450573 1_545
Na2 O57 2.474794 1_555
Na2 O2 2.575017 1_555
Na2 O59 2.576482 1_555
Na2 O23 2.860859 1_555
Na2 O28 2.876631 1_655
Na2 O30 2.992887 1_655
Na3 O37 2.417742 1_545
Na3 O38 2.516456 1_655
Na3 O42 2.603342 1_555
Na3 O44 2.755193 1_545
Na3 O43 2.776560 1_655
Na3 O36 2.779221 1_645
Na4 O45 2.519452 1_555
Na4 O41 2.592606 1_554
Na4 O47 2.633714 1_665
Na4 O46 2.705072 1_565
Na4 O40 2.745576 1_654
Na4 O39 2.835763 1_664
Na5 O50 2.511713 1_555
Na5 O49 2.512875 1_555
Na5 O54 2.613278 1_555
Na5 O48 2.722277 1_555
Na5 O56 2.770766 1_555
Na5 O55 2.787979 1_555
Na6 O52 2.429799 1_555
Na6 O53 2.628915 1_555
Na6 O57 2.633632 1_555
Na6 O51 2.688858 1_555
Na6 O58 2.788888 1_555
Na6 O59 2.810737 1_555
Na7 O68 2.552087 1_555
Na7 O61 2.572799 1_555
Na7 O60 2.600996 1_555
Na7 O66 2.772611 1_555
Na7 O62 2.812479 1_555
Na7 O67 2.874056 1_555
Na8 O65 2.470850 1_555
Na8 O70 2.539810 1_555
Na8 O69 2.650843 1_555
Na8 O63 2.773897 1_555
Na8 O64 2.882929 1_555
Na8 O71 2.911212 1_555
In0 O2 2.054644 1_555
In0 O37 2.109205 1_545
In0 O38 2.117428 1_655
In0 O1 2.197061 1_545
In0 O0 2.236774 1_655
In0 O36 2.314714 1_645
In1 O12 2.010702 1_555
In1 O50 2.107145 1_555
In1 O49 2.121172 1_555
In1 O14 2.256520 1_555
In1 O13 2.274675 1_555
In1 O48 2.278904 1_555
In2 O15 2.016948 1_555
In2 O52 2.069101 1_555
In2 O17 2.086123 1_555
In2 O16 2.223018 1_555
In2 O51 2.360226 1_555
In2 O53 2.450848 1_555
O0 S0 1.481772 1_545
O1 S1 1.474544 1_555
O2 Si0 1.632940 1_555
O3 Si1 1.626332 1_555
O3 Zr0 2.025008 1_545
O4 Si2 1.660162 1_655
O4 Zr0 1.950187 1_655
O5 S2 1.476320 1_545
O5 Zr0 2.198374 1_645
O6 S2 1.485419 1_555
O6 Zr1 2.223647 1_665
O7 Si1 1.641229 1_555
O7 Zr1 1.954454 1_555
O8 Si2 1.634203 1_555
O8 Zr1 2.041462 1_565
O9 S1 1.465974 1_555
O9 Zr2 2.299646 1_665
O10 Si0 1.660051 1_455
O10 Zr2 2.047734 1_555
O11 S0 1.489289 1_555
O11 Zr2 2.179311 1_565
O12 Si3 1.611518 1_555
O13 S3 1.471590 1_555
O14 S4 1.483132 1_555
O15 Si4 1.606449 1_555
O16 S5 1.475034 1_555
O17 Si5 1.625314 1_555
O18 Si5 1.638671 1_555
O18 Zr3 1.963970 1_554
O19 Si4 1.656264 1_555
O19 Zr3 1.948440 1_554
O20 S5 1.467967 1_555
O20 Zr3 2.321600 1_554
O21 S3 1.496173 1_555
O21 Zr4 2.130217 1_555
O22 S4 1.478596 1_555
O22 Zr4 2.283255 1_555
O23 Si3 1.657657 1_555
O23 Zr4 2.011925 1_555
O24 Si6 1.626450 1_555
O24 Zr5 2.012605 1_556
O25 S6 1.476736 1_555
O25 Zr5 2.191531 1_556
O26 S7 1.468640 1_555
O26 Zr5 2.290914 1_556
O27 Si7 1.626168 1_555
O27 Zr6 2.006271 1_555
O28 Si8 1.652499 1_555
O28 Zr6 1.965440 1_555
O29 S8 1.475230 1_555
O29 Zr6 2.198050 1_555
O30 S8 1.496292 1_555
O30 Zr7 2.184766 1_555
O31 Si7 1.639940 1_555
O31 Zr7 2.003499 1_555
O32 Si8 1.657721 1_555
O32 Zr7 1.989103 1_555
O33 S6 1.502781 1_555
O33 Zr8 2.133272 1_555
O34 S7 1.489999 1_555
O34 Zr8 2.240070 1_555
O35 Si6 1.651730 1_555
O35 Zr8 2.025736 1_555
O36 S8 1.460287 1_555
O37 Si7 1.625648 1_555
O38 Si8 1.622361 1_555
O39 S6 1.475033 1_555
O39 Zr0 2.316132 1_545
O40 S7 1.504251 1_555
O40 Zr0 2.182558 1_555
O41 Si6 1.643320 1_555
O41 Zr0 2.066680 1_655
O42 Si3 1.656815 1_555
O42 Zr1 2.056463 1_655
O43 S3 1.494531 1_555
O43 Zr1 2.204091 1_555
O44 S4 1.479934 1_555
O44 Zr1 2.326048 1_665
O45 Si4 1.643348 1_555
O45 Zr2 2.054345 1_665
O46 S5 1.497393 1_555
O46 Zr2 2.200537 1_655
O47 Si5 1.649486 1_555
O47 Zr2 1.986877 1_555
O48 S2 1.469876 1_545
O49 Si1 1.626005 1_555
O50 Si2 1.626712 1_655
O51 S1 1.488227 1_555
O52 Si0 1.626738 1_555
O53 S0 1.482864 1_545
O54 Si6 1.656716 1_555
O54 Zr3 2.028902 1_555
O55 S6 1.471785 1_655
O55 Zr3 2.318749 1_555
O56 S7 1.475943 1_545
O56 Zr3 2.344332 1_555
O57 Si7 1.674397 1_545
O57 Zr4 2.014538 1_555
O58 Si8 1.620876 1_555
O58 Zr4 2.048446 1_555
O59 S8 1.494668 1_655
O59 Zr4 2.256723 1_555
O60 Si5 1.648567 1_555
O60 Zr5 1.995218 1_555
O61 Si4 1.640776 1_455
O61 Zr5 2.024394 1_555
O62 S5 1.489559 1_565
O62 Zr5 2.161321 1_555
O63 S3 1.473426 1_565
O63 Zr6 2.318597 1_555
O64 S4 1.498043 1_555
O64 Zr6 2.168844 1_555
O65 Si3 1.651222 1_455
O65 Zr6 2.055568 1_555
O66 S0 1.485798 1_555
O66 Zr7 2.286214 1_555
O67 S1 1.516376 1_555
O67 Zr7 2.195377 1_555
O68 Si0 1.684418 1_455
O68 Zr7 2.104138 1_555
O69 Si1 1.669466 1_555
O69 Zr8 2.018675 1_555
O70 Si2 1.634622 1_555
O70 Zr8 2.049680 1_555
O71 S2 1.495463 1_555
O71 Zr8 2.249718 1_555
