# generated using pymatgen
data_NaSc2Al2PS5O24
_symmetry_space_group_name_H-M   'P 1'
_cell_length_a   8.53867742
_cell_length_b   8.53845133
_cell_length_c   22.38765801
_cell_angle_alpha   89.98373098
_cell_angle_beta   90.05974519
_cell_angle_gamma   119.89005395
_symmetry_Int_Tables_number   1
_chemical_formula_structural   NaSc2Al2PS5O24
_chemical_formula_sum   'Na3 Sc6 Al6 P3 S15 O72'
_cell_volume   1415.10557653
_cell_formula_units_Z   3
loop_
 _symmetry_equiv_pos_site_id
 _symmetry_equiv_pos_as_xyz
  1  'x, y, z'
loop_
 _atom_site_type_symbol
 _atom_site_label
 _atom_site_symmetry_multiplicity
 _atom_site_fract_x
 _atom_site_fract_y
 _atom_site_fract_z
 _atom_site_occupancy
  Na  Na0  1  0.99928858  0.99377087  0.99803883  1
  Na  Na1  1  0.66048893  0.33231618  0.83525995  1
  Na  Na2  1  0.67145852  0.33238165  0.33349662  1
  Sc  Sc0  1  0.99950573  0.99366315  0.85275447  1
  Sc  Sc1  1  0.00230105  0.00818110  0.15164405  1
  Sc  Sc2  1  0.67381960  0.33377895  0.18970769  1
  Sc  Sc3  1  0.66103424  0.33360836  0.97835544  1
  Sc  Sc4  1  0.33804780  0.67293343  0.01913184  1
  Sc  Sc5  1  0.34112188  0.67259646  0.81081628  1
  Al  Al0  1  0.99765290  0.00494626  0.35348010  1
  Al  Al1  1  0.00048764  0.00044923  0.64548265  1
  Al  Al2  1  0.66596361  0.33325868  0.68198540  1
  Al  Al3  1  0.66658091  0.33338915  0.48361915  1
  Al  Al4  1  0.33318575  0.66692937  0.51973626  1
  Al  Al5  1  0.32860752  0.66136050  0.31351579  1
  P  P0  1  0.00922047  0.29538803  0.25661687  1
  P  P1  1  0.62582596  0.66752591  0.91568359  1
  P  P2  1  0.33351108  0.95879134  0.91571347  1
  S  S0  1  0.28557734  0.99087080  0.25621753  1
  S  S1  1  0.70501043  0.71462683  0.25614902  1
  S  S2  1  0.29432977  0.28501425  0.74400180  1
  S  S3  1  0.98979810  0.70341347  0.74360794  1
  S  S4  1  0.71638900  0.01146942  0.74379998  1
  S  S5  1  0.95526707  0.33399240  0.58259639  1
  S  S6  1  0.37861335  0.04474573  0.58256984  1
  S  S7  1  0.66612115  0.62149940  0.58259221  1
  S  S8  1  0.96026682  0.62825562  0.08386470  1
  S  S9  1  0.66826103  0.04091932  0.08377039  1
  S  S10  1  0.37250550  0.33239103  0.08459357  1
  S  S11  1  0.04232951  0.37522540  0.91565893  1
  S  S12  1  0.61924283  0.95300317  0.41738749  1
  S  S13  1  0.33474345  0.37955245  0.41775685  1
  S  S14  1  0.04538890  0.66750043  0.41746886  1
  O  O0  1  0.19600933  0.02208700  0.30794164  1
  O  O1  1  0.82795763  0.80071976  0.30781024  1
  O  O2  1  0.97312836  0.16648851  0.30961548  1
  O  O3  1  0.22189953  0.17750880  0.79906400  1
  O  O4  1  0.95386550  0.77579034  0.79878257  1
  O  O5  1  0.82299975  0.04602297  0.79903010  1
  O  O6  1  0.80749372  0.98290985  0.69191635  1
  O  O7  1  0.17552352  0.19316678  0.69189353  1
  O  O8  1  0.01840026  0.82387350  0.69191711  1
  O  O9  1  0.77971809  0.81690501  0.20038316  1
  O  O10  1  0.03835020  0.21620658  0.19858583  1
  O  O11  1  0.18129738  0.95877579  0.20049793  1
  O  O12  1  0.87268473  0.36962116  0.63556512  1
  O  O13  1  0.49685962  0.12721381  0.63559266  1
  O  O14  1  0.63041146  0.50323081  0.63557516  1
  O  O15  1  0.87337733  0.51930447  0.13798290  1
  O  O16  1  0.64541628  0.12682405  0.13784602  1
  O  O17  1  0.48143480  0.35486329  0.13841874  1
  O  O18  1  0.45422601  0.30314246  0.03080629  1
  O  O19  1  0.84904078  0.54589547  0.03031075  1
  O  O20  1  0.69782604  0.15174732  0.03029896  1
  O  O21  1  0.46182445  0.16355983  0.52932938  1
  O  O22  1  0.70173254  0.53806273  0.52936019  1
  O  O23  1  0.83622966  0.29828290  0.52926458  1
  O  O24  1  0.54193112  0.69265767  0.97253142  1
  O  O25  1  0.14790829  0.45377713  0.97035906  1
  O  O26  1  0.30152168  0.84683292  0.97237712  1
  O  O27  1  0.53517880  0.83896473  0.47124532  1
  O  O28  1  0.30298419  0.46328713  0.47142017  1
  O  O29  1  0.15996812  0.69800720  0.47136177  1
  O  O30  1  0.12658370  0.63117695  0.36440321  1
  O  O31  1  0.50268022  0.87239464  0.36405667  1
  O  O32  1  0.37212097  0.49702848  0.36464102  1
  O  O33  1  0.12323947  0.48280303  0.86149121  1
  O  O34  1  0.35747643  0.87177538  0.85914701  1
  O  O35  1  0.51193805  0.63663296  0.85926482  1
  O  O36  1  0.02502152  0.82759890  0.40730531  1
  O  O37  1  0.79925341  0.97117505  0.40825026  1
  O  O38  1  0.17532191  0.19892378  0.40808374  1
  O  O39  1  0.02369354  0.19498688  0.91046911  1
  O  O40  1  0.16756946  0.98290816  0.91086338  1
  O  O41  1  0.81128030  0.83859484  0.91071190  1
  O  O42  1  0.97460605  0.17307993  0.59309054  1
  O  O43  1  0.19849173  0.02541624  0.59308666  1
  O  O44  1  0.82670430  0.80134128  0.59318612  1
  O  O45  1  0.97762019  0.80839209  0.08972482  1
  O  O46  1  0.83028784  0.02121368  0.08882454  1
  O  O47  1  0.19289994  0.16704435  0.08879791  1
  O  O48  1  0.69618490  0.17409423  0.73493484  1
  O  O49  1  0.47713390  0.30437313  0.73514656  1
  O  O50  1  0.82585926  0.52198953  0.73481444  1
  O  O51  1  0.68442961  0.53245182  0.25031419  1
  O  O52  1  0.83770654  0.31278491  0.25007029  1
  O  O53  1  0.46480610  0.15558002  0.25013122  1
  O  O54  1  0.65006664  0.50203541  0.91977907  1
  O  O55  1  0.86226551  0.35658281  0.92063656  1
  O  O56  1  0.50428811  0.14393073  0.92009250  1
  O  O57  1  0.63944147  0.13722634  0.42665979  1
  O  O58  1  0.49935529  0.36031021  0.42720197  1
  O  O59  1  0.86211691  0.50272876  0.42680812  1
  O  O60  1  0.35283707  0.49129788  0.07884798  1
  O  O61  1  0.13642928  0.64165484  0.07894855  1
  O  O62  1  0.50662960  0.86361189  0.07974559  1
  O  O63  1  0.36035935  0.86466363  0.57164262  1
  O  O64  1  0.50438394  0.63997785  0.57158184  1
  O  O65  1  0.13517664  0.49539706  0.57159739  1
  O  O66  1  0.30799527  0.83288514  0.26588465  1
  O  O67  1  0.52766397  0.69902488  0.26595916  1
  O  O68  1  0.17480388  0.48078719  0.26667188  1
  O  O69  1  0.31004026  0.46256065  0.75004805  1
  O  O70  1  0.14955084  0.68483907  0.75029914  1
  O  O71  1  0.53787505  0.84991309  0.74929385  1
loop_
_geom_bond_atom_site_label_1
_geom_bond_atom_site_label_2
_geom_bond_distance
_geom_bond_site_symmetry_2
Na0 O40 2.453774 1_655
Na0 O41 2.455572 1_555
Na0 O45 2.541655 1_556
Na0 O39 2.545740 1_665
Na0 O47 2.570491 1_666
Na0 O46 2.571312 1_566
Na1 O54 2.412205 1_555
Na1 O56 2.416301 1_555
Na1 O55 2.510433 1_555
Na1 O49 2.674358 1_555
Na1 O48 2.715932 1_555
Na1 O50 2.720085 1_555
Na2 O52 2.402896 1_555
Na2 O51 2.491702 1_555
Na2 O53 2.493117 1_555
Na2 O57 2.597446 1_555
Na2 O59 2.600868 1_555
Na2 O58 2.640706 1_555
Al0 O2 1.788137 1_555
Al0 O1 1.914500 1_545
Al0 O0 1.919865 1_655
Al0 O37 1.993437 1_545
Al0 O38 2.007997 1_655
Al0 O36 2.037346 1_645
Al1 O7 1.888813 1_555
Al1 O6 1.891086 1_445
Al1 O8 1.898894 1_545
Al1 O42 1.980008 1_455
Al1 O43 1.981071 1_555
Al1 O44 1.986481 1_445
Al2 O50 1.914312 1_555
Al2 O48 1.914863 1_555
Al2 O49 1.919499 1_555
Al2 O14 1.927580 1_555
Al2 O13 1.929991 1_555
Al2 O12 1.936367 1_555
Al3 O23 1.913636 1_555
Al3 O22 1.915831 1_555
Al3 O21 1.919053 1_555
Al3 O58 2.002546 1_555
Al3 O59 2.023167 1_555
Al3 O57 2.024581 1_555
Al4 O27 1.946515 1_555
Al4 O28 1.952820 1_555
Al4 O29 1.954108 1_555
Al4 O63 1.965921 1_555
Al4 O64 1.966888 1_555
Al4 O65 1.971500 1_555
Al5 O68 1.783724 1_555
Al5 O66 1.889081 1_555
Al5 O67 1.893322 1_555
Al5 O30 1.975052 1_555
Al5 O32 1.983608 1_555
Al5 O31 2.016102 1_555
O0 S0 1.483935 1_545
O1 S1 1.486248 1_555
O2 P0 1.541455 1_655
O3 S2 1.476416 1_555
O3 Sc0 2.132527 1_445
O4 S3 1.480554 1_555
O4 Sc0 2.085739 1_555
O5 S4 1.474708 1_555
O5 Sc0 2.141358 1_545
O6 S4 1.484901 1_565
O7 S2 1.486666 1_555
O8 S3 1.485360 1_455
O9 S1 1.474467 1_555
O9 Sc1 2.092783 1_665
O10 P0 1.541299 1_555
O10 Sc1 1.951814 1_555
O11 S0 1.476041 1_555
O11 Sc1 2.085430 1_565
O12 S5 1.487197 1_555
O13 S6 1.487864 1_555
O14 S7 1.487583 1_555
O15 S8 1.482269 1_555
O15 Sc2 2.016585 1_555
O16 S9 1.478269 1_555
O16 Sc2 2.025555 1_555
O17 S10 1.474421 1_555
O17 Sc2 2.083282 1_555
O18 S10 1.474757 1_555
O18 Sc3 2.027597 1_554
O19 S8 1.471881 1_555
O19 Sc3 2.076704 1_554
O20 S9 1.467703 1_555
O20 Sc3 2.084862 1_554
O21 S6 1.495787 1_555
O22 S7 1.495792 1_555
O23 S5 1.496813 1_555
O24 P1 1.527812 1_555
O24 Sc4 1.964425 1_556
O25 S11 1.468929 1_555
O25 Sc4 2.073464 1_556
O26 P2 1.528889 1_555
O26 Sc4 1.964086 1_556
O27 S12 1.490542 1_555
O28 S13 1.490797 1_555
O29 S14 1.491469 1_555
O30 S14 1.484745 1_555
O31 S12 1.484951 1_555
O32 S13 1.484282 1_555
O33 S11 1.469785 1_555
O33 Sc5 2.091149 1_555
O34 P2 1.533052 1_555
O34 Sc5 1.961272 1_555
O35 P1 1.533816 1_555
O35 Sc5 1.959849 1_555
O36 S14 1.478977 1_555
O37 S12 1.480335 1_555
O38 S13 1.478401 1_555
O39 S11 1.470782 1_555
O39 Sc0 2.077008 1_445
O40 P2 1.533731 1_555
O40 Sc0 1.971689 1_455
O41 P1 1.532470 1_555
O41 Sc0 1.975401 1_555
O42 S5 1.481906 1_555
O43 S6 1.481843 1_555
O44 S7 1.481666 1_555
O45 S8 1.475738 1_555
O45 Sc1 2.125681 1_665
O46 S9 1.478797 1_555
O46 Sc1 2.075106 1_655
O47 S10 1.481976 1_555
O47 Sc1 2.066793 1_555
O48 S4 1.495255 1_555
O49 S2 1.498841 1_555
O50 S3 1.495419 1_555
O51 S1 1.481596 1_555
O51 Sc2 2.138861 1_555
O52 P0 1.550700 1_655
O52 Sc2 2.015575 1_555
O53 S0 1.481112 1_545
O53 Sc2 2.151175 1_555
O54 P1 1.529476 1_555
O54 Sc3 1.982312 1_555
O55 S11 1.469051 1_655
O55 Sc3 2.080664 1_555
O56 P2 1.528803 1_545
O56 Sc3 1.988168 1_555
O57 S12 1.508916 1_545
O58 S13 1.508924 1_555
O59 S14 1.509361 1_655
O60 S10 1.453503 1_555
O60 Sc4 2.098136 1_555
O61 S8 1.454861 1_455
O61 Sc4 2.091596 1_555
O62 S9 1.456776 1_565
O62 Sc4 2.055626 1_555
O63 S6 1.486503 1_565
O64 S7 1.486376 1_555
O65 S5 1.486722 1_455
O66 S0 1.469782 1_555
O67 S1 1.469257 1_555
O68 P0 1.524613 1_555
O69 S2 1.460096 1_555
O69 Sc5 2.159573 1_555
O70 S3 1.457216 1_455
O70 Sc5 2.165168 1_555
O71 S4 1.464935 1_565
O71 Sc5 2.116668 1_555
