# generated using pymatgen
data_Na2TiCl4
_symmetry_space_group_name_H-M   'P 1'
_cell_length_a   3.76420400
_cell_length_b   6.99893800
_cell_length_c   12.24448800
_cell_angle_alpha   90.00000000
_cell_angle_beta   90.00000000
_cell_angle_gamma   90.00000000
_symmetry_Int_Tables_number   1
_chemical_formula_structural   Na2TiCl4
_chemical_formula_sum   'Na4 Ti2 Cl8'
_cell_volume   322.58630658
_cell_formula_units_Z   2
loop_
 _symmetry_equiv_pos_site_id
 _symmetry_equiv_pos_as_xyz
  1  'x, y, z'
loop_
 _atom_site_type_symbol
 _atom_site_label
 _atom_site_symmetry_multiplicity
 _atom_site_fract_x
 _atom_site_fract_y
 _atom_site_fract_z
 _atom_site_occupancy
  Na  Na0  1  0.00000000  0.41694600  0.31797300  1
  Na  Na1  1  0.00000000  0.58305400  0.68202700  1
  Na  Na2  1  0.00000000  0.91694600  0.18202700  1
  Na  Na3  1  0.00000000  0.08305400  0.81797300  1
  Ti  Ti0  1  0.50000000  0.00000000  0.50000000  1
  Ti  Ti1  1  0.50000000  0.50000000  0.00000000  1
  Cl  Cl0  1  0.00000000  0.26206700  0.04225400  1
  Cl  Cl1  1  0.50000000  0.87668100  0.69588900  1
  Cl  Cl2  1  0.50000000  0.12331900  0.30411100  1
  Cl  Cl3  1  0.50000000  0.37668100  0.80411100  1
  Cl  Cl4  1  0.50000000  0.62331900  0.19588900  1
  Cl  Cl5  1  0.00000000  0.76206700  0.45774600  1
  Cl  Cl6  1  0.00000000  0.23793300  0.54225400  1
  Cl  Cl7  1  0.00000000  0.73793300  0.95774600  1
loop_
_geom_bond_atom_site_label_1
_geom_bond_atom_site_label_2
_geom_bond_distance
_geom_bond_site_symmetry_2
Cl0 Ti1 2.565763 1_455
Cl0 Ti1 2.565763 1_555
Cl0 Na2 2.960338 1_545
Cl0 Na3 3.018511 1_554
Cl1 Ti0 2.549125 1_565
Cl1 Na1 2.791856 1_555
Cl1 Na1 2.791856 1_655
Cl1 Na3 2.804135 1_565
Cl1 Na3 2.804135 1_665
Cl2 Ti0 2.549125 1_555
Cl2 Na0 2.791856 1_555
Cl2 Na0 2.791856 1_655
Cl2 Na2 2.804135 1_545
Cl2 Na2 2.804135 1_645
Cl3 Ti1 2.549125 1_556
Cl3 Na3 2.791856 1_555
Cl3 Na3 2.791856 1_655
Cl3 Na1 2.804135 1_655
Cl3 Na1 2.804135 1_555
Cl4 Ti1 2.549125 1_555
Cl4 Na2 2.791856 1_555
Cl4 Na2 2.791856 1_655
Cl4 Na0 2.804135 1_655
Cl4 Na0 2.804135 1_555
Cl5 Ti0 2.565763 1_465
Cl5 Ti0 2.565763 1_565
Cl5 Na0 2.960338 1_555
Cl5 Na1 3.018511 1_555
Cl6 Ti0 2.565763 1_455
Cl6 Ti0 2.565763 1_555
Cl6 Na1 2.960338 1_555
Cl6 Na0 3.018511 1_555
Cl7 Ti1 2.565763 1_456
Cl7 Ti1 2.565763 1_556
Cl7 Na3 2.960338 1_565
Cl7 Na2 3.018511 1_556
