# generated using pymatgen
data_La2NiO4
_symmetry_space_group_name_H-M   'P 1'
_cell_length_a   5.51165200
_cell_length_b   5.67646700
_cell_length_c   6.80232992
_cell_angle_alpha   90.00029533
_cell_angle_beta   66.09971854
_cell_angle_gamma   90.00108591
_symmetry_Int_Tables_number   1
_chemical_formula_structural   La2NiO4
_chemical_formula_sum   'La4 Ni2 O8'
_cell_volume   194.57341474
_cell_formula_units_Z   2
loop_
 _symmetry_equiv_pos_site_id
 _symmetry_equiv_pos_as_xyz
  1  'x, y, z'
loop_
 _atom_site_type_symbol
 _atom_site_label
 _atom_site_symmetry_multiplicity
 _atom_site_fract_x
 _atom_site_fract_y
 _atom_site_fract_z
 _atom_site_occupancy
  La  La0  1  0.63683600  0.98503400  0.72597400  1
  La  La1  1  0.36309800  0.01498200  0.27370900  1
  La  La2  1  0.13684400  0.51509000  0.72608900  1
  La  La3  1  0.86306600  0.48512500  0.27383100  1
  Ni  Ni0  1  0.49934300  0.49976700  0.00142500  1
  Ni  Ni1  1  0.00011400  0.99981300  0.00019000  1
  O  O0  1  0.23433000  0.74981300  0.03188700  1
  O  O1  1  0.26591200  0.25012100  0.96790200  1
  O  O2  1  0.76626500  0.24978700  0.96786900  1
  O  O3  1  0.73396200  0.75007100  0.03193000  1
  O  O4  1  0.82056900  0.06320100  0.35857600  1
  O  O5  1  0.17961600  0.93687500  0.64105000  1
  O  O6  1  0.32051400  0.43698400  0.35854900  1
  O  O7  1  0.67953200  0.56333600  0.64101700  1
loop_
_geom_bond_atom_site_label_1
_geom_bond_atom_site_label_2
_geom_bond_distance
_geom_bond_site_symmetry_2
La0 O4 2.327548 1_565
La0 O7 2.451372 1_555
La0 O1 2.534966 1_565
La0 O2 2.534966 1_565
La0 O0 2.700724 1_556
La0 O3 2.701807 1_556
La0 O5 2.817555 1_555
La0 O5 2.820973 1_655
La1 O5 2.327135 1_545
La1 O6 2.452901 1_555
La1 O3 2.533866 1_545
La1 O0 2.534008 1_545
La1 O2 2.701198 1_554
La1 O1 2.701607 1_554
La1 O4 2.818720 1_555
La1 O4 2.819741 1_455
La2 O6 2.328351 1_555
La2 O5 2.451962 1_555
La2 O1 2.534212 1_555
La2 O2 2.534301 1_455
La2 O3 2.700923 1_456
La2 O0 2.701213 1_556
La2 O7 2.818680 1_455
La2 O7 2.820289 1_555
La3 O7 2.326304 1_555
La3 O4 2.452338 1_555
La3 O0 2.534641 1_655
La3 O3 2.534699 1_555
La3 O1 2.701148 1_654
La3 O2 2.701959 1_554
La3 O6 2.817988 1_655
La3 O6 2.820040 1_555
Ni0 O0 1.986435 1_555
Ni0 O3 1.987816 1_555
Ni0 O1 1.988257 1_554
Ni0 O2 1.989477 1_554
Ni0 O6 2.249381 1_555
Ni0 O7 2.270253 1_554
Ni1 O3 1.987850 1_455
Ni1 O0 1.988079 1_555
Ni1 O1 1.988086 1_564
Ni1 O2 1.988152 1_464
Ni1 O4 2.257678 1_465
Ni1 O5 2.261901 1_554
