# generated using pymatgen
data_MgTe4Mo3W(SeS)2
_symmetry_space_group_name_H-M   'P 1'
_cell_length_a   6.78297600
_cell_length_b   6.78295237
_cell_length_c   77.03089000
_cell_angle_alpha   90.00035995
_cell_angle_beta   89.99949370
_cell_angle_gamma   120.00093034
_symmetry_Int_Tables_number   1
_chemical_formula_structural   MgTe4Mo3W(SeS)2
_chemical_formula_sum   'Mg8 Te32 Mo24 W8 Se16 S16'
_cell_volume   3069.23769991
_cell_formula_units_Z   8
loop_
 _symmetry_equiv_pos_site_id
 _symmetry_equiv_pos_as_xyz
  1  'x, y, z'
loop_
 _atom_site_type_symbol
 _atom_site_label
 _atom_site_symmetry_multiplicity
 _atom_site_fract_x
 _atom_site_fract_y
 _atom_site_fract_z
 _atom_site_occupancy
  Mg  Mg0_0  1  0.17713400  0.32875850  0.43707500  1
  Mg  Mg0_1  1  0.17713400  0.32875850  0.93707500  1
  Mg  Mg0_2  1  0.17713400  0.82875850  0.43707500  1
  Mg  Mg0_3  1  0.17713400  0.82875850  0.93707500  1
  Mg  Mg0_4  1  0.67713400  0.32875850  0.43707500  1
  Mg  Mg0_5  1  0.67713400  0.32875850  0.93707500  1
  Mg  Mg0_6  1  0.67713400  0.82875850  0.43707500  1
  Mg  Mg0_7  1  0.67713400  0.82875850  0.93707500  1
  Te  Te0_0  1  0.16667100  0.33335350  0.35328750  1
  Te  Te0_1  1  0.16667100  0.33335350  0.85328750  1
  Te  Te0_2  1  0.16667100  0.83335350  0.35328750  1
  Te  Te0_3  1  0.16667100  0.83335350  0.85328750  1
  Te  Te0_4  1  0.66667100  0.33335350  0.35328750  1
  Te  Te0_5  1  0.66667100  0.33335350  0.85328750  1
  Te  Te0_6  1  0.66667100  0.83335350  0.35328750  1
  Te  Te0_7  1  0.66667100  0.83335350  0.85328750  1
  Te  Te1_0  1  0.33332300  0.16664800  0.02264050  1
  Te  Te1_1  1  0.33332300  0.16664800  0.52264050  1
  Te  Te1_2  1  0.33332300  0.66664800  0.02264050  1
  Te  Te1_3  1  0.33332300  0.66664800  0.52264050  1
  Te  Te1_4  1  0.83332300  0.16664800  0.02264050  1
  Te  Te1_5  1  0.83332300  0.16664800  0.52264050  1
  Te  Te1_6  1  0.83332300  0.66664800  0.02264050  1
  Te  Te1_7  1  0.83332300  0.66664800  0.52264050  1
  Te  Te2_0  1  0.33332050  0.16664900  0.07130850  1
  Te  Te2_1  1  0.33332050  0.16664900  0.57130850  1
  Te  Te2_2  1  0.33332050  0.66664900  0.07130850  1
  Te  Te2_3  1  0.33332050  0.66664900  0.57130850  1
  Te  Te2_4  1  0.83332050  0.16664900  0.07130850  1
  Te  Te2_5  1  0.83332050  0.16664900  0.57130850  1
  Te  Te2_6  1  0.83332050  0.66664900  0.07130850  1
  Te  Te2_7  1  0.83332050  0.66664900  0.57130850  1
  Te  Te3_0  1  0.16667300  0.33335000  0.30430850  1
  Te  Te3_1  1  0.16667300  0.33335000  0.80430850  1
  Te  Te3_2  1  0.16667300  0.83335000  0.30430850  1
  Te  Te3_3  1  0.16667300  0.83335000  0.80430850  1
  Te  Te3_4  1  0.66667300  0.33335000  0.30430850  1
  Te  Te3_5  1  0.66667300  0.33335000  0.80430850  1
  Te  Te3_6  1  0.66667300  0.83335000  0.30430850  1
  Te  Te3_7  1  0.66667300  0.83335000  0.80430850  1
  Mo  Mo0_0  1  0.16665450  0.33331300  0.04694200  1
  Mo  Mo0_1  1  0.16665450  0.33331300  0.54694200  1
  Mo  Mo0_2  1  0.16665450  0.83331300  0.04694200  1
  Mo  Mo0_3  1  0.16665450  0.83331300  0.54694200  1
  Mo  Mo0_4  1  0.66665450  0.33331300  0.04694200  1
  Mo  Mo0_5  1  0.66665450  0.33331300  0.54694200  1
  Mo  Mo0_6  1  0.66665450  0.83331300  0.04694200  1
  Mo  Mo0_7  1  0.66665450  0.83331300  0.54694200  1
  Mo  Mo1_0  1  0.16665400  0.33331400  0.23480500  1
  Mo  Mo1_1  1  0.16665400  0.33331400  0.73480500  1
  Mo  Mo1_2  1  0.16665400  0.83331400  0.23480500  1
  Mo  Mo1_3  1  0.16665400  0.83331400  0.73480500  1
  Mo  Mo1_4  1  0.66665400  0.33331400  0.23480500  1
  Mo  Mo1_5  1  0.66665400  0.33331400  0.73480500  1
  Mo  Mo1_6  1  0.66665400  0.83331400  0.23480500  1
  Mo  Mo1_7  1  0.66665400  0.83331400  0.73480500  1
  Mo  Mo2_0  1  0.33333850  0.16669300  0.14090750  1
  Mo  Mo2_1  1  0.33333850  0.16669300  0.64090750  1
  Mo  Mo2_2  1  0.33333850  0.66669300  0.14090750  1
  Mo  Mo2_3  1  0.33333850  0.66669300  0.64090750  1
  Mo  Mo2_4  1  0.83333850  0.16669300  0.14090750  1
  Mo  Mo2_5  1  0.83333850  0.16669300  0.64090750  1
  Mo  Mo2_6  1  0.83333850  0.66669300  0.14090750  1
  Mo  Mo2_7  1  0.83333850  0.66669300  0.64090750  1
  W  W0_0  1  0.33333950  0.16668500  0.32882600  1
  W  W0_1  1  0.33333950  0.16668500  0.82882600  1
  W  W0_2  1  0.33333950  0.66668500  0.32882600  1
  W  W0_3  1  0.33333950  0.66668500  0.82882600  1
  W  W0_4  1  0.83333950  0.16668500  0.32882600  1
  W  W0_5  1  0.83333950  0.16668500  0.82882600  1
  W  W0_6  1  0.83333950  0.66668500  0.32882600  1
  W  W0_7  1  0.83333950  0.66668500  0.82882600  1
  Se  Se0_0  1  0.33332500  0.16665050  0.21337500  1
  Se  Se0_1  1  0.33332500  0.16665050  0.71337500  1
  Se  Se0_2  1  0.33332500  0.66665050  0.21337500  1
  Se  Se0_3  1  0.33332500  0.66665050  0.71337500  1
  Se  Se0_4  1  0.83332500  0.16665050  0.21337500  1
  Se  Se0_5  1  0.83332500  0.16665050  0.71337500  1
  Se  Se0_6  1  0.83332500  0.66665050  0.21337500  1
  Se  Se0_7  1  0.83332500  0.66665050  0.71337500  1
  Se  Se1_0  1  0.33332050  0.16664800  0.25623250  1
  Se  Se1_1  1  0.33332050  0.16664800  0.75623250  1
  Se  Se1_2  1  0.33332050  0.66664800  0.25623250  1
  Se  Se1_3  1  0.33332050  0.66664800  0.75623250  1
  Se  Se1_4  1  0.83332050  0.16664800  0.25623250  1
  Se  Se1_5  1  0.83332050  0.16664800  0.75623250  1
  Se  Se1_6  1  0.83332050  0.66664800  0.25623250  1
  Se  Se1_7  1  0.83332050  0.66664800  0.75623250  1
  S  S0_0  1  0.16667300  0.33335150  0.16043400  1
  S  S0_1  1  0.16667300  0.33335150  0.66043400  1
  S  S0_2  1  0.16667300  0.83335150  0.16043400  1
  S  S0_3  1  0.16667300  0.83335150  0.66043400  1
  S  S0_4  1  0.66667300  0.33335150  0.16043400  1
  S  S0_5  1  0.66667300  0.33335150  0.66043400  1
  S  S0_6  1  0.66667300  0.83335150  0.16043400  1
  S  S0_7  1  0.66667300  0.83335150  0.66043400  1
  S  S1_0  1  0.16667950  0.33335700  0.12138600  1
  S  S1_1  1  0.16667950  0.33335700  0.62138600  1
  S  S1_2  1  0.16667950  0.83335700  0.12138600  1
  S  S1_3  1  0.16667950  0.83335700  0.62138600  1
  S  S1_4  1  0.66667950  0.33335700  0.12138600  1
  S  S1_5  1  0.66667950  0.33335700  0.62138600  1
  S  S1_6  1  0.66667950  0.83335700  0.12138600  1
  S  S1_7  1  0.66667950  0.83335700  0.62138600  1
loop_
_geom_bond_atom_site_label_1
_geom_bond_atom_site_label_2
_geom_bond_distance
_geom_bond_site_symmetry_2
Mg0_0 Mg0_6 3.391434 1_445
Mg0_0 Mg0_6 3.391434 1_555
Mg0_0 Mg0_2 3.391476 1_555
Mg0_0 Mg0_2 3.391476 1_545
Mg0_0 Mg0_4 3.391488 1_455
Mg0_0 Mg0_4 3.391488 1_555
Mg0_1 Mg0_7 3.391434 1_445
Mg0_1 Mg0_7 3.391434 1_555
Mg0_1 Mg0_3 3.391476 1_545
Mg0_1 Mg0_3 3.391476 1_555
Mg0_1 Mg0_5 3.391488 1_455
Mg0_1 Mg0_5 3.391488 1_555
Mg0_2 Mg0_4 3.391434 1_455
Mg0_2 Mg0_4 3.391434 1_565
Mg0_2 Mg0_6 3.391488 1_555
Mg0_2 Mg0_6 3.391488 1_455
Mg0_3 Mg0_5 3.391434 1_455
Mg0_3 Mg0_5 3.391434 1_565
Mg0_3 Mg0_7 3.391488 1_455
Mg0_3 Mg0_7 3.391488 1_555
Mg0_4 Mg0_6 3.391476 1_545
Mg0_4 Mg0_6 3.391476 1_555
Mg0_5 Mg0_7 3.391476 1_545
Mg0_5 Mg0_7 3.391476 1_555
Te0_0 W0_2 2.717442 1_555
Te0_0 W0_4 2.717453 1_455
Te0_0 W0_0 2.717473 1_555
Te0_1 W0_3 2.717442 1_555
Te0_1 W0_5 2.717453 1_455
Te0_1 W0_1 2.717473 1_555
Te0_2 W0_0 2.717442 1_565
Te0_2 W0_6 2.717453 1_455
Te0_2 W0_2 2.717473 1_555
Te0_3 W0_1 2.717442 1_565
Te0_3 W0_7 2.717453 1_455
Te0_3 W0_3 2.717473 1_555
Te0_4 W0_6 2.717442 1_555
Te0_4 W0_0 2.717453 1_555
Te0_4 W0_4 2.717473 1_555
Te0_5 W0_7 2.717442 1_555
Te0_5 W0_1 2.717453 1_555
Te0_5 W0_5 2.717473 1_555
Te0_6 W0_4 2.717442 1_565
Te0_6 W0_2 2.717453 1_555
Te0_6 W0_6 2.717473 1_555
Te0_7 W0_5 2.717442 1_565
Te0_7 W0_3 2.717453 1_555
Te0_7 W0_7 2.717473 1_555
Te3_0 W0_4 2.720437 1_455
Te3_0 W0_2 2.720444 1_555
Te3_0 W0_0 2.720466 1_555
Te3_1 W0_5 2.720437 1_455
Te3_1 W0_3 2.720444 1_555
Te3_1 W0_1 2.720466 1_555
Te3_2 W0_6 2.720437 1_455
Te3_2 W0_0 2.720444 1_565
Te3_2 W0_2 2.720466 1_555
Te3_3 W0_7 2.720437 1_455
Te3_3 W0_1 2.720444 1_565
Te3_3 W0_3 2.720466 1_555
Te3_4 W0_0 2.720437 1_555
Te3_4 W0_6 2.720444 1_555
Te3_4 W0_4 2.720466 1_555
Te3_5 W0_1 2.720437 1_555
Te3_5 W0_7 2.720444 1_555
Te3_5 W0_5 2.720466 1_555
Te3_6 W0_2 2.720437 1_555
Te3_6 W0_4 2.720444 1_565
Te3_6 W0_6 2.720466 1_555
Te3_7 W0_3 2.720437 1_555
Te3_7 W0_5 2.720444 1_565
Te3_7 W0_7 2.720466 1_555
Mo0_0 Te1_4 2.708921 1_455
Mo0_0 Te1_2 2.708925 1_555
Mo0_0 Te1_0 2.708927 1_555
Mo0_0 Te2_4 2.712377 1_455
Mo0_0 Te2_2 2.712386 1_555
Mo0_0 Te2_0 2.712398 1_555
Mo0_1 Te1_5 2.708921 1_455
Mo0_1 Te1_3 2.708925 1_555
Mo0_1 Te1_1 2.708927 1_555
Mo0_1 Te2_5 2.712377 1_455
Mo0_1 Te2_3 2.712386 1_555
Mo0_1 Te2_1 2.712398 1_555
Mo0_2 Te1_6 2.708921 1_455
Mo0_2 Te1_0 2.708925 1_565
Mo0_2 Te1_2 2.708927 1_555
Mo0_2 Te2_6 2.712377 1_455
Mo0_2 Te2_0 2.712386 1_565
Mo0_2 Te2_2 2.712398 1_555
Mo0_3 Te1_7 2.708921 1_455
Mo0_3 Te1_1 2.708925 1_565
Mo0_3 Te1_3 2.708927 1_555
Mo0_3 Te2_7 2.712377 1_455
Mo0_3 Te2_1 2.712386 1_565
Mo0_3 Te2_3 2.712398 1_555
Mo0_4 Te1_0 2.708921 1_555
Mo0_4 Te1_6 2.708925 1_555
Mo0_4 Te1_4 2.708927 1_555
Mo0_4 Te2_0 2.712377 1_555
Mo0_4 Te2_6 2.712386 1_555
Mo0_4 Te2_4 2.712398 1_555
Mo0_5 Te1_1 2.708921 1_555
Mo0_5 Te1_7 2.708925 1_555
Mo0_5 Te1_5 2.708927 1_555
Mo0_5 Te2_1 2.712377 1_555
Mo0_5 Te2_7 2.712386 1_555
Mo0_5 Te2_5 2.712398 1_555
Mo0_6 Te1_2 2.708921 1_555
Mo0_6 Te1_4 2.708925 1_565
Mo0_6 Te1_6 2.708927 1_555
Mo0_6 Te2_2 2.712377 1_555
Mo0_6 Te2_4 2.712386 1_565
Mo0_6 Te2_6 2.712398 1_555
Mo0_7 Te1_3 2.708921 1_555
Mo0_7 Te1_5 2.708925 1_565
Mo0_7 Te1_7 2.708927 1_555
Mo0_7 Te2_3 2.712377 1_555
Mo0_7 Te2_5 2.712386 1_565
Mo0_7 Te2_7 2.712398 1_555
Mo1_0 Se1_4 2.560931 1_455
Mo1_0 Se1_2 2.560933 1_555
Mo1_0 Se1_0 2.560964 1_555
Mo1_0 Se0_4 2.561051 1_455
Mo1_0 Se0_2 2.561074 1_555
Mo1_0 Se0_0 2.561075 1_555
Mo1_1 Se1_5 2.560931 1_455
Mo1_1 Se1_3 2.560933 1_555
Mo1_1 Se1_1 2.560964 1_555
Mo1_1 Se0_5 2.561051 1_455
Mo1_1 Se0_3 2.561074 1_555
Mo1_1 Se0_1 2.561075 1_555
Mo1_2 Se1_6 2.560931 1_455
Mo1_2 Se1_0 2.560933 1_565
Mo1_2 Se1_2 2.560964 1_555
Mo1_2 Se0_6 2.561051 1_455
Mo1_2 Se0_0 2.561074 1_565
Mo1_2 Se0_2 2.561075 1_555
Mo1_3 Se1_7 2.560931 1_455
Mo1_3 Se1_1 2.560933 1_565
Mo1_3 Se1_3 2.560964 1_555
Mo1_3 Se0_7 2.561051 1_455
Mo1_3 Se0_1 2.561074 1_565
Mo1_3 Se0_3 2.561075 1_555
Mo1_4 Se1_0 2.560931 1_555
Mo1_4 Se1_6 2.560933 1_555
Mo1_4 Se1_4 2.560964 1_555
Mo1_4 Se0_0 2.561051 1_555
Mo1_4 Se0_6 2.561074 1_555
Mo1_4 Se0_4 2.561075 1_555
Mo1_5 Se1_1 2.560931 1_555
Mo1_5 Se1_7 2.560933 1_555
Mo1_5 Se1_5 2.560964 1_555
Mo1_5 Se0_1 2.561051 1_555
Mo1_5 Se0_7 2.561074 1_555
Mo1_5 Se0_5 2.561075 1_555
Mo1_6 Se1_2 2.560931 1_555
Mo1_6 Se1_4 2.560933 1_565
Mo1_6 Se1_6 2.560964 1_555
Mo1_6 Se0_2 2.561051 1_555
Mo1_6 Se0_4 2.561074 1_565
Mo1_6 Se0_6 2.561075 1_555
Mo1_7 Se1_3 2.560931 1_555
Mo1_7 Se1_5 2.560933 1_565
Mo1_7 Se1_7 2.560964 1_555
Mo1_7 Se0_3 2.561051 1_555
Mo1_7 Se0_5 2.561074 1_565
Mo1_7 Se0_7 2.561075 1_555
Mo2_0 S1_0 2.468844 1_555
Mo2_0 S1_2 2.468867 1_545
Mo2_0 S1_4 2.468890 1_555
Mo2_0 S0_0 2.469062 1_555
Mo2_0 S0_4 2.469110 1_555
Mo2_0 S0_2 2.469132 1_545
Mo2_1 S1_1 2.468844 1_555
Mo2_1 S1_3 2.468867 1_545
Mo2_1 S1_5 2.468890 1_555
Mo2_1 S0_1 2.469062 1_555
Mo2_1 S0_5 2.469110 1_555
Mo2_1 S0_3 2.469132 1_545
Mo2_2 S1_2 2.468844 1_555
Mo2_2 S1_0 2.468867 1_555
Mo2_2 S1_6 2.468890 1_555
Mo2_2 S0_2 2.469062 1_555
Mo2_2 S0_6 2.469110 1_555
Mo2_2 S0_0 2.469132 1_555
Mo2_3 S1_3 2.468844 1_555
Mo2_3 S1_1 2.468867 1_555
Mo2_3 S1_7 2.468890 1_555
Mo2_3 S0_3 2.469062 1_555
Mo2_3 S0_7 2.469110 1_555
Mo2_3 S0_1 2.469132 1_555
Mo2_4 S1_4 2.468844 1_555
Mo2_4 S1_6 2.468867 1_545
Mo2_4 S1_0 2.468890 1_655
Mo2_4 S0_4 2.469062 1_555
Mo2_4 S0_0 2.469110 1_655
Mo2_4 S0_6 2.469132 1_545
Mo2_5 S1_5 2.468844 1_555
Mo2_5 S1_7 2.468867 1_545
Mo2_5 S1_1 2.468890 1_655
Mo2_5 S0_5 2.469062 1_555
Mo2_5 S0_1 2.469110 1_655
Mo2_5 S0_7 2.469132 1_545
Mo2_6 S1_6 2.468844 1_555
Mo2_6 S1_4 2.468867 1_555
Mo2_6 S1_2 2.468890 1_655
Mo2_6 S0_6 2.469062 1_555
Mo2_6 S0_2 2.469110 1_655
Mo2_6 S0_4 2.469132 1_555
Mo2_7 S1_7 2.468844 1_555
Mo2_7 S1_5 2.468867 1_555
Mo2_7 S1_3 2.468890 1_655
Mo2_7 S0_7 2.469062 1_555
Mo2_7 S0_3 2.469110 1_655
Mo2_7 S0_5 2.469132 1_555
