# generated using pymatgen
data_Na2ZnSi2Ge3(SO6)4
_symmetry_space_group_name_H-M   'P 1'
_cell_length_a   8.51314273
_cell_length_b   8.51457848
_cell_length_c   22.14574698
_cell_angle_alpha   88.87951170
_cell_angle_beta   90.07546211
_cell_angle_gamma   119.67191428
_symmetry_Int_Tables_number   1
_chemical_formula_structural   Na2ZnSi2Ge3(SO6)4
_chemical_formula_sum   'Na6 Zn3 Si6 Ge9 S12 O72'
_cell_volume   1394.43142809
_cell_formula_units_Z   3
loop_
 _symmetry_equiv_pos_site_id
 _symmetry_equiv_pos_as_xyz
  1  'x, y, z'
loop_
 _atom_site_type_symbol
 _atom_site_label
 _atom_site_symmetry_multiplicity
 _atom_site_fract_x
 _atom_site_fract_y
 _atom_site_fract_z
 _atom_site_occupancy
  Na  Na0  1  0.98771698  0.99018714  0.50427947  1
  Na  Na1  1  0.01648489  0.01547339  0.00037795  1
  Na  Na2  1  0.66723768  0.32277148  0.83437953  1
  Na  Na3  1  0.66327739  0.32186474  0.33499294  1
  Na  Na4  1  0.33503976  0.66184669  0.16551406  1
  Na  Na5  1  0.35067931  0.67390073  0.66987026  1
  Zn  Zn0  1  0.96889501  0.97597268  0.64690494  1
  Zn  Zn1  1  0.01612258  0.01544401  0.14198751  1
  Zn  Zn2  1  0.34890454  0.68506958  0.31978380  1
  Si  Si0  1  0.70470942  0.99408555  0.75059612  1
  Si  Si1  1  0.66866697  0.61224234  0.58214539  1
  Si  Si2  1  0.38439000  0.34347761  0.07899565  1
  Si  Si3  1  0.04312696  0.38253500  0.91624983  1
  Si  Si4  1  0.32367321  0.94887283  0.91747613  1
  Si  Si5  1  0.62717784  0.96721904  0.41627726  1
  Ge  Ge0  1  0.98722655  0.99615959  0.35237208  1
  Ge  Ge1  1  0.00400981  0.02248621  0.85594227  1
  Ge  Ge2  1  0.66359315  0.33280167  0.69003059  1
  Ge  Ge3  1  0.65973423  0.33906808  0.18075843  1
  Ge  Ge4  1  0.65180227  0.31491802  0.97408847  1
  Ge  Ge5  1  0.66971807  0.33111790  0.48294972  1
  Ge  Ge6  1  0.31660452  0.64688870  0.01518209  1
  Ge  Ge7  1  0.36069727  0.67376017  0.52199619  1
  Ge  Ge8  1  0.33088396  0.68415911  0.81715574  1
  S  S0  1  0.29075952  0.00353250  0.25002233  1
  S  S1  1  0.71343815  0.70659728  0.24818633  1
  S  S2  1  0.99573298  0.29436019  0.24859008  1
  S  S3  1  0.28990397  0.29281380  0.74942341  1
  S  S4  1  0.00036157  0.70866457  0.75050101  1
  S  S5  1  0.96313150  0.34173270  0.58136857  1
  S  S6  1  0.37780209  0.04179747  0.58298303  1
  S  S7  1  0.95243852  0.61606661  0.08210385  1
  S  S8  1  0.66099715  0.04494389  0.08345010  1
  S  S9  1  0.62161361  0.66795283  0.91638835  1
  S  S10  1  0.33148990  0.37118083  0.41642734  1
  S  S11  1  0.04315947  0.66699882  0.41667152  1
  O  O0  1  0.21015339  0.03686648  0.30728452  1
  O  O1  1  0.82388263  0.78402885  0.30577547  1
  O  O2  1  0.95948874  0.17745568  0.30634174  1
  O  O3  1  0.21507223  0.17640893  0.80594013  1
  O  O4  1  0.96979016  0.78747680  0.80493197  1
  O  O5  1  0.83545438  0.03576379  0.81038477  1
  O  O6  1  0.77025871  0.95566318  0.68900840  1
  O  O7  1  0.18884156  0.21455872  0.69497934  1
  O  O8  1  0.03831046  0.81453747  0.69469644  1
  O  O9  1  0.79933279  0.81834308  0.19486679  1
  O  O10  1  0.02208483  0.21212249  0.19569083  1
  O  O11  1  0.18414323  0.98290796  0.19670536  1
  O  O12  1  0.88157382  0.37126912  0.63598555  1
  O  O13  1  0.49426371  0.11439619  0.63685938  1
  O  O14  1  0.62816020  0.48221331  0.64324234  1
  O  O15  1  0.87908022  0.50027583  0.14080611  1
  O  O16  1  0.63137590  0.12811773  0.14035542  1
  O  O17  1  0.50406921  0.38377510  0.14302667  1
  O  O18  1  0.48939697  0.31464068  0.02308850  1
  O  O19  1  0.84497529  0.52942604  0.02905453  1
  O  O20  1  0.70080834  0.16188412  0.02836873  1
  O  O21  1  0.46217191  0.14927176  0.52611330  1
  O  O22  1  0.68848362  0.51558067  0.52147299  1
  O  O23  1  0.84741246  0.30373163  0.52621913  1
  O  O24  1  0.54454829  0.70215770  0.97181063  1
  O  O25  1  0.16560543  0.45298273  0.97660864  1
  O  O26  1  0.29555566  0.82635876  0.97936140  1
  O  O27  1  0.54099201  0.83392773  0.47656394  1
  O  O28  1  0.29121567  0.44707321  0.47118822  1
  O  O29  1  0.15391376  0.69711139  0.47173979  1
  O  O30  1  0.11356225  0.63211993  0.36183861  1
  O  O31  1  0.51530070  0.90306162  0.35617366  1
  O  O32  1  0.36088988  0.47703773  0.36098662  1
  O  O33  1  0.13718513  0.50577805  0.85596248  1
  O  O34  1  0.37571554  0.87533195  0.85865545  1
  O  O35  1  0.50809448  0.63200462  0.86224636  1
  O  O36  1  0.02813436  0.83719694  0.41001831  1
  O  O37  1  0.83041183  0.98381697  0.40869780  1
  O  O38  1  0.17010235  0.18478655  0.41098773  1
  O  O39  1  0.01900132  0.18138526  0.91058840  1
  O  O40  1  0.14068778  0.96294371  0.90617450  1
  O  O41  1  0.80273264  0.82890467  0.91024312  1
  O  O42  1  0.99485397  0.18992382  0.58612464  1
  O  O43  1  0.20405553  0.03194764  0.58847074  1
  O  O44  1  0.84265105  0.80660475  0.58175143  1
  O  O45  1  0.96172155  0.79050946  0.08900276  1
  O  O46  1  0.81917954  0.02209907  0.09009429  1
  O  O47  1  0.18995793  0.16720657  0.08279325  1
  O  O48  1  0.68323816  0.18105805  0.74219468  1
  O  O49  1  0.47708826  0.31216032  0.74696173  1
  O  O50  1  0.83318159  0.52399538  0.74581536  1
  O  O51  1  0.70458181  0.52361899  0.24563245  1
  O  O52  1  0.82324701  0.30599856  0.24380913  1
  O  O53  1  0.47685971  0.17176682  0.24586665  1
  O  O54  1  0.64263607  0.50577115  0.92264320  1
  O  O55  1  0.84583842  0.36929783  0.92640240  1
  O  O56  1  0.50193086  0.14955166  0.92281894  1
  O  O57  1  0.65617102  0.17028020  0.42956054  1
  O  O58  1  0.49548752  0.35311851  0.42443107  1
  O  O59  1  0.85717087  0.50920743  0.42416457  1
  O  O60  1  0.37480192  0.53399765  0.07383302  1
  O  O61  1  0.13614125  0.63474738  0.07998518  1
  O  O62  1  0.49355699  0.87168665  0.07925047  1
  O  O63  1  0.35587030  0.85496821  0.57632998  1
  O  O64  1  0.47492614  0.61841467  0.57813778  1
  O  O65  1  0.13778418  0.51790328  0.57225224  1
  O  O66  1  0.30899673  0.84163389  0.25567292  1
  O  O67  1  0.52995611  0.67864197  0.25516777  1
  O  O68  1  0.15210326  0.47332970  0.25751221  1
  O  O69  1  0.30955579  0.47324985  0.75785887  1
  O  O70  1  0.16037514  0.68008950  0.75653910  1
  O  O71  1  0.50264664  0.81356219  0.76145627  1
loop_
_geom_bond_atom_site_label_1
_geom_bond_atom_site_label_2
_geom_bond_distance
_geom_bond_site_symmetry_2
Na0 O44 2.213935 1_555
Na0 O42 2.489816 1_565
Na0 O37 2.490369 1_555
Na0 O43 2.522533 1_665
Na0 O36 2.593236 1_655
Na0 O38 2.598478 1_665
Na1 O47 2.318913 1_555
Na1 O39 2.410465 1_554
Na1 O40 2.486128 1_544
Na1 O45 2.590304 1_445
Na1 O46 2.622793 1_455
Na1 O41 2.659270 1_444
Na2 O56 2.414748 1_555
Na2 O48 2.429412 1_555
Na2 O55 2.459447 1_555
Na2 O49 2.496036 1_555
Na2 O50 2.501502 1_555
Na2 O54 2.595332 1_555
Na3 O57 2.423384 1_555
Na3 O53 2.475884 1_555
Na3 O52 2.480048 1_555
Na3 O51 2.502349 1_555
Na3 O58 2.537455 1_555
Na3 O59 2.583909 1_555
Na4 O60 2.423833 1_555
Na4 O61 2.475840 1_555
Na4 O62 2.479727 1_555
Na4 O67 2.546250 1_555
Na4 O68 2.560905 1_555
Na4 O66 2.614540 1_555
Na5 O71 2.401215 1_555
Na5 O64 2.450892 1_555
Na5 O69 2.473410 1_555
Na5 O70 2.531406 1_555
Na5 O63 2.545173 1_555
Na5 O65 2.727841 1_555
Ge0 O37 1.791517 1_555
Ge0 O2 1.943319 1_565
Ge0 O1 1.960440 1_555
Ge0 O36 1.995226 1_655
Ge0 O0 2.014699 1_665
Ge0 O38 2.070973 1_665
Ge1 O39 1.789970 1_555
Ge1 O5 1.800570 1_455
Ge1 O40 1.845798 1_545
Ge1 O3 1.946623 1_555
Ge1 O41 2.056845 1_445
Ge1 O4 2.208037 1_445
Ge2 O14 1.763693 1_555
Ge2 O48 1.785185 1_555
Ge2 O49 1.965125 1_555
Ge2 O50 2.001933 1_555
Ge2 O13 2.085632 1_555
Ge2 O12 2.090968 1_555
Ge3 O17 1.755950 1_555
Ge3 O15 1.890237 1_555
Ge3 O16 1.928213 1_555
Ge3 O51 2.042525 1_555
Ge3 O53 2.064420 1_555
Ge3 O52 2.081874 1_555
Ge4 O18 1.757750 1_556
Ge4 O56 1.783149 1_555
Ge4 O55 1.812864 1_555
Ge4 O20 1.947443 1_556
Ge4 O54 1.999430 1_555
Ge4 O19 2.151734 1_556
Ge5 O22 1.738916 1_555
Ge5 O57 1.786972 1_555
Ge5 O23 1.896745 1_555
Ge5 O21 1.915970 1_555
Ge5 O59 2.018225 1_555
Ge5 O58 2.043309 1_555
Ge6 O25 1.749016 1_554
Ge6 O26 1.794392 1_554
Ge6 O60 1.810370 1_555
Ge6 O24 1.998181 1_554
Ge6 O61 2.067183 1_555
Ge6 O62 2.278572 1_555
Ge7 O27 1.762379 1_555
Ge7 O64 1.772320 1_555
Ge7 O63 1.991384 1_555
Ge7 O65 2.013817 1_555
Ge7 O28 2.072245 1_555
Ge7 O29 2.170223 1_555
Ge8 O34 1.755677 1_555
Ge8 O71 1.797265 1_555
Ge8 O33 1.799339 1_555
Ge8 O70 1.963968 1_555
Ge8 O35 2.027865 1_555
Ge8 O69 2.179697 1_555
O0 S0 1.539076 1_555
O1 S1 1.536629 1_555
O2 S2 1.539124 1_555
O3 S3 1.511012 1_555
O4 S4 1.475278 1_655
O5 Si0 1.655714 1_545
O6 Si0 1.574442 1_555
O6 Zn0 1.862034 1_555
O7 S3 1.448802 1_555
O7 Zn0 2.253809 1_445
O8 S4 1.453766 1_555
O8 Zn0 2.025943 1_455
O9 S1 1.450444 1_555
O9 Zn1 2.110981 1_665
O10 S2 1.449596 1_455
O10 Zn1 2.053044 1_555
O11 S0 1.447855 1_565
O11 Zn1 1.991420 1_565
O12 S5 1.481646 1_555
O13 S6 1.485801 1_555
O14 Si1 1.655306 1_555
O15 S7 1.547405 1_555
O16 S8 1.538118 1_555
O17 Si2 1.683940 1_555
O18 Si2 1.620011 1_555
O19 S7 1.457475 1_555
O20 S8 1.487855 1_555
O21 S6 1.498667 1_555
O22 Si1 1.640889 1_555
O23 S5 1.504498 1_555
O24 S9 1.492298 1_555
O25 Si3 1.625480 1_555
O26 Si4 1.649685 1_555
O27 Si5 1.651587 1_555
O28 S10 1.502300 1_555
O29 S11 1.487226 1_555
O30 S11 1.454038 1_555
O30 Zn2 2.044228 1_555
O31 Si5 1.577079 1_555
O31 Zn2 1.885086 1_555
O32 S10 1.454871 1_555
O32 Zn2 2.023858 1_555
O33 Si3 1.625103 1_555
O34 Si4 1.610373 1_555
O35 S9 1.477735 1_555
O36 S11 1.520945 1_555
O37 Si5 1.673127 1_555
O38 S10 1.506369 1_555
O39 Si3 1.628288 1_555
O40 Si4 1.638981 1_555
O41 S9 1.474868 1_555
O42 S5 1.447417 1_555
O42 Zn0 2.164608 1_545
O43 S6 1.444605 1_555
O43 Zn0 2.224327 1_445
O44 Si1 1.582804 1_555
O44 Zn0 1.964535 1_555
O45 S7 1.458888 1_555
O45 Zn1 2.113690 1_665
O46 S8 1.459654 1_555
O46 Zn1 2.054591 1_655
O47 Si2 1.592261 1_555
O47 Zn1 1.903640 1_555
O48 Si0 1.696732 1_545
O49 S3 1.519678 1_555
O50 S4 1.516276 1_655
O51 S1 1.524248 1_555
O52 S2 1.523308 1_555
O53 S0 1.522735 1_555
O54 S9 1.481641 1_555
O55 Si3 1.642167 1_655
O56 Si4 1.636074 1_545
O57 Si5 1.653486 1_545
O58 S10 1.488330 1_555
O59 S11 1.491786 1_655
O60 Si2 1.665856 1_555
O61 S7 1.492269 1_455
O62 S8 1.462827 1_565
O63 S6 1.517287 1_565
O64 Si1 1.678161 1_555
O65 S5 1.510737 1_455
O66 S0 1.464622 1_565
O66 Zn2 2.069159 1_555
O67 S1 1.466807 1_555
O67 Zn2 2.125728 1_555
O68 S2 1.461486 1_455
O68 Zn2 2.249383 1_555
O69 S3 1.476444 1_555
O70 S4 1.503032 1_555
O71 Si0 1.657812 1_555
