# generated using pymatgen
data_KMgSc(MoO4)2
_symmetry_space_group_name_H-M   'P 1'
_cell_length_a   5.89360607
_cell_length_b   5.89360634
_cell_length_c   9.93846842
_cell_angle_alpha   90.00000000
_cell_angle_beta   90.00000000
_cell_angle_gamma   120.00000405
_symmetry_Int_Tables_number   1
_chemical_formula_structural   KMgSc(MoO4)2
_chemical_formula_sum   'K1 Mg1 Sc1 Mo2 O8'
_cell_volume   298.95946251
_cell_formula_units_Z   1
loop_
 _symmetry_equiv_pos_site_id
 _symmetry_equiv_pos_as_xyz
  1  'x, y, z'
loop_
 _atom_site_type_symbol
 _atom_site_label
 _atom_site_symmetry_multiplicity
 _atom_site_fract_x
 _atom_site_fract_y
 _atom_site_fract_z
 _atom_site_occupancy
  K  K0  1  0.00000000  0.00000000  0.37639051  1
  Mg  Mg0  1  0.00000000  0.00000000  0.74688215  1
  Sc  Sc0  1  0.00000000  0.00000000  0.01465648  1
  Mo  Mo0  1  0.33333300  0.66666700  0.20284045  1
  Mo  Mo1  1  0.66666700  0.33333300  0.81365126  1
  O  O0  1  0.30414476  0.15207238  0.87290105  1
  O  O1  1  0.84792762  0.15207238  0.87290105  1
  O  O2  1  0.84792762  0.69585524  0.87290105  1
  O  O3  1  0.16403051  0.83596949  0.14929471  1
  O  O4  1  0.33333300  0.66666700  0.37957030  1
  O  O5  1  0.66666700  0.33333300  0.63156454  1
  O  O6  1  0.16403051  0.32806101  0.14929471  1
  O  O7  1  0.67193899  0.83596949  0.14929471  1
loop_
_geom_bond_atom_site_label_1
_geom_bond_atom_site_label_2
_geom_bond_distance
_geom_bond_site_symmetry_2
K0 O7 2.810282 1_445
K0 O6 2.810282 1_555
K0 O3 2.810282 1_545
Mg0 O0 1.994595 1_555
Mg0 O2 1.994595 1_445
Mg0 O1 1.994595 1_455
Mo0 O4 1.756424 1_555
Mo0 O3 1.808321 1_555
Mo0 O7 1.808326 1_555
Mo0 O6 1.808326 1_555
Mo1 O5 1.809663 1_555
Mo1 O1 1.941753 1_555
Mo1 O0 1.941758 1_555
Mo1 O2 1.941758 1_555
O0 Sc0 2.096336 1_556
O1 Sc0 2.096336 1_656
O2 Sc0 2.096336 1_666
O3 Sc0 2.143412 1_565
O6 Sc0 2.143412 1_555
O7 Sc0 2.143412 1_665
