# generated using pymatgen
data_CeInPd2
_symmetry_space_group_name_H-M   'P 1'
_cell_length_a   4.63570544
_cell_length_b   4.63570544
_cell_length_c   9.17854313
_cell_angle_alpha   90.00000000
_cell_angle_beta   90.00000000
_cell_angle_gamma   120.00001367
_symmetry_Int_Tables_number   1
_chemical_formula_structural   CeInPd2
_chemical_formula_sum   'Ce2 In2 Pd4'
_cell_volume   170.81892691
_cell_formula_units_Z   2
loop_
 _symmetry_equiv_pos_site_id
 _symmetry_equiv_pos_as_xyz
  1  'x, y, z'
loop_
 _atom_site_type_symbol
 _atom_site_label
 _atom_site_symmetry_multiplicity
 _atom_site_fract_x
 _atom_site_fract_y
 _atom_site_fract_z
 _atom_site_occupancy
  Ce  Ce0  1  0.66666700  0.33333300  0.75000000  1
  Ce  Ce1  1  0.33333300  0.66666700  0.25000000  1
  In  In0  1  0.00000000  -0.00000000  0.99972582  1
  In  In1  1  0.00000000  -0.00000000  0.50027418  1
  Pd  Pd0  1  0.33333300  0.66666700  0.91699948  1
  Pd  Pd1  1  0.66666700  0.33333300  0.41734598  1
  Pd  Pd2  1  0.33333300  0.66666700  0.58300052  1
  Pd  Pd3  1  0.66666700  0.33333300  0.08265402  1
loop_
_geom_bond_atom_site_label_1
_geom_bond_atom_site_label_2
_geom_bond_distance
_geom_bond_site_symmetry_2
Ce0 Pd1 3.053279 1_555
Ce0 Pd3 3.053279 1_556
Ce0 Pd0 3.084275 1_545
Ce0 Pd2 3.084275 1_545
Ce0 Pd2 3.084275 1_655
Ce0 Pd0 3.084275 1_655
Ce0 Pd2 3.084282 1_555
Ce0 Pd0 3.084282 1_555
Ce1 Pd0 3.056460 1_554
Ce1 Pd2 3.056460 1_555
Ce1 Pd3 3.085857 1_565
Ce1 Pd1 3.085857 1_455
Ce1 Pd1 3.085857 1_565
Ce1 Pd3 3.085857 1_455
Ce1 Pd3 3.085864 1_555
Ce1 Pd1 3.085864 1_555
In0 Pd0 2.782048 1_545
In0 Pd0 2.782051 1_555
In0 Pd0 2.782051 1_445
In0 Pd3 2.782554 1_456
In0 Pd3 2.782557 1_446
In0 Pd3 2.782557 1_556
In1 Pd2 2.782048 1_545
In1 Pd2 2.782051 1_445
In1 Pd2 2.782051 1_555
In1 Pd1 2.782554 1_455
In1 Pd1 2.782557 1_445
In1 Pd1 2.782557 1_555
