# generated using pymatgen
data_Na4MgMn4O8
_symmetry_space_group_name_H-M   'P 1'
_cell_length_a   3.00871455
_cell_length_b   5.77315853
_cell_length_c   12.57759869
_cell_angle_alpha   92.64363086
_cell_angle_beta   90.00084607
_cell_angle_gamma   89.99947950
_symmetry_Int_Tables_number   1
_chemical_formula_structural   Na4MgMn4O8
_chemical_formula_sum   'Na4 Mg1 Mn4 O8'
_cell_volume   218.23768838
_cell_formula_units_Z   1
loop_
 _symmetry_equiv_pos_site_id
 _symmetry_equiv_pos_as_xyz
  1  'x, y, z'
loop_
 _atom_site_type_symbol
 _atom_site_label
 _atom_site_symmetry_multiplicity
 _atom_site_fract_x
 _atom_site_fract_y
 _atom_site_fract_z
 _atom_site_occupancy
  Na  Na0  1  0.25003076  0.36963263  0.01566772  1
  Na  Na1  1  0.24999683  0.11586372  0.64532170  1
  Na  Na2  1  0.74998155  0.49478631  0.82068872  1
  Na  Na3  1  0.74998422  0.07580436  0.42098892  1
  Mg  Mg0  1  0.75003354  0.34790079  0.21668752  1
  Mn  Mn0  1  0.25003992  0.84949325  0.09840212  1
  Mn  Mn1  1  0.75001124  0.96927803  0.86462386  1
  Mn  Mn2  1  0.75000802  0.56807457  0.41938332  1
  Mn  Mn3  1  0.24999972  0.63382439  0.62102551  1
  O  O0  1  0.75004327  0.61653710  0.12279585  1
  O  O1  1  0.24998663  0.19391859  0.84157803  1
  O  O2  1  0.25003405  0.35183598  0.32293260  1
  O  O3  1  0.74999842  0.80688177  0.69973606  1
  O  O4  1  0.75001670  0.09522512  0.10252636  1
  O  O5  1  0.25002363  0.77178960  0.91633951  1
  O  O6  1  0.75002409  0.40380462  0.57796090  1
  O  O7  1  0.25000041  0.79962915  0.47111930  1
loop_
_geom_bond_atom_site_label_1
_geom_bond_atom_site_label_2
_geom_bond_distance
_geom_bond_site_symmetry_2
Na0 O1 2.370367 1_554
Na0 O0 2.435810 1_455
Na0 O0 2.435848 1_555
Na0 O4 2.475016 1_555
Na0 O4 2.475105 1_455
Na0 O5 2.686766 1_554
Na1 O6 2.423598 1_455
Na1 O6 2.423734 1_555
Na1 O3 2.454791 1_545
Na1 O3 2.454818 1_445
Na1 O1 2.488697 1_555
Na1 O7 2.786533 1_545
Na2 O1 2.321902 1_655
Na2 O1 2.321907 1_555
Na2 O3 2.411138 1_555
Na2 O5 2.467788 1_555
Na2 O5 2.467939 1_655
Na3 O7 2.301180 1_545
Na3 O7 2.301213 1_645
Na3 O2 2.550369 1_555
Na3 O2 2.550584 1_655
Na3 O6 2.671857 1_555
Mg0 O0 1.992179 1_555
Mg0 O4 1.999107 1_555
Mg0 O2 2.011584 1_655
Mg0 O2 2.011611 1_555
Mn0 O0 2.050367 1_555
Mn0 O0 2.050377 1_455
Mn0 O4 2.066733 1_565
Mn0 O4 2.066817 1_465
Mn0 O5 2.313043 1_554
Mn1 O5 2.013566 1_555
Mn1 O5 2.013592 1_655
Mn1 O1 2.015819 1_665
Mn1 O1 2.015905 1_565
Mn1 O3 2.236213 1_555
Mn2 O7 2.096009 1_655
Mn2 O7 2.096038 1_555
Mn2 O6 2.247665 1_555
Mn2 O2 2.270075 1_555
Mn2 O2 2.270188 1_655
Mn3 O3 2.037174 1_555
Mn3 O3 2.037188 1_455
Mn3 O6 2.062363 1_455
Mn3 O6 2.062464 1_555
Mn3 O7 2.153535 1_555
