# generated using pymatgen
data_BaSi
_symmetry_space_group_name_H-M   'P 1'
_cell_length_a   4.14940840
_cell_length_b   5.07420473
_cell_length_c   6.57216016
_cell_angle_alpha   112.70817851
_cell_angle_beta   90.00000000
_cell_angle_gamma   90.00000000
_symmetry_Int_Tables_number   1
_chemical_formula_structural   BaSi
_chemical_formula_sum   'Ba2 Si2'
_cell_volume   127.64995758
_cell_formula_units_Z   2
loop_
 _symmetry_equiv_pos_site_id
 _symmetry_equiv_pos_as_xyz
  1  'x, y, z'
loop_
 _atom_site_type_symbol
 _atom_site_label
 _atom_site_symmetry_multiplicity
 _atom_site_fract_x
 _atom_site_fract_y
 _atom_site_fract_z
 _atom_site_occupancy
  Ba  Ba0  1  0.25000000  0.85989274  0.71978549  1
  Ba  Ba1  1  0.75000000  0.14010726  0.28021451  1
  Si  Si0  1  0.25000000  0.55714273  0.11428547  1
  Si  Si1  1  0.75000000  0.44285727  0.88571453  1
loop_
_geom_bond_atom_site_label_1
_geom_bond_atom_site_label_2
_geom_bond_distance
_geom_bond_site_symmetry_2
Ba0 Si1 3.428306 1_455
Ba0 Si1 3.428306 1_555
Ba0 Si1 3.428306 1_465
Ba0 Si1 3.428306 1_565
Ba0 Si0 3.486731 1_556
Ba0 Si0 3.486732 1_566
Ba0 Si0 3.670969 1_555
Ba1 Si0 3.428306 1_555
Ba1 Si0 3.428306 1_655
Ba1 Si0 3.428306 1_645
Ba1 Si0 3.428306 1_545
Ba1 Si1 3.486731 1_554
Ba1 Si1 3.486732 1_544
Ba1 Si1 3.670969 1_555
Si0 Si1 2.494940 1_554
Si0 Si1 2.494940 1_454
