# generated using pymatgen
data_BaNdCo2O5
_symmetry_space_group_name_H-M   'P 1'
_cell_length_a   3.90297700
_cell_length_b   4.01863100
_cell_length_c   7.80707300
_cell_angle_alpha   90.00000000
_cell_angle_beta   90.00000000
_cell_angle_gamma   90.00000000
_symmetry_Int_Tables_number   1
_chemical_formula_structural   BaNdCo2O5
_chemical_formula_sum   'Ba1 Nd1 Co2 O5'
_cell_volume   122.45100739
_cell_formula_units_Z   1
loop_
 _symmetry_equiv_pos_site_id
 _symmetry_equiv_pos_as_xyz
  1  'x, y, z'
loop_
 _atom_site_type_symbol
 _atom_site_label
 _atom_site_symmetry_multiplicity
 _atom_site_fract_x
 _atom_site_fract_y
 _atom_site_fract_z
 _atom_site_occupancy
  Ba  Ba0  1  0.50000000  0.50000000  0.50000000  1
  Nd  Nd0  1  0.50000000  0.50000000  0.00000000  1
  Co  Co0  1  0.00000000  0.00000000  0.24521400  1
  Co  Co1  1  0.00000000  0.00000000  0.75478600  1
  O  O0  1  0.50000000  0.00000000  0.19030600  1
  O  O1  1  0.50000000  0.00000000  0.80969400  1
  O  O2  1  0.00000000  0.50000000  0.19656900  1
  O  O3  1  0.00000000  0.50000000  0.80343100  1
  O  O4  1  0.00000000  0.00000000  0.50000000  1
loop_
_geom_bond_atom_site_label_1
_geom_bond_atom_site_label_2
_geom_bond_distance
_geom_bond_site_symmetry_2
Ba0 O4 2.801010 1_565
Ba0 O4 2.801010 1_665
Ba0 O4 2.801010 1_555
Ba0 O4 2.801010 1_655
Ba0 O2 3.069207 1_555
Ba0 O3 3.069207 1_655
Ba0 O3 3.069207 1_555
Ba0 O2 3.069207 1_655
Ba0 O0 3.143744 1_555
Ba0 O1 3.143744 1_565
Ba0 O1 3.143744 1_555
Ba0 O0 3.143744 1_565
Nd0 O3 2.482618 1_654
Nd0 O2 2.482618 1_655
Nd0 O3 2.482618 1_554
Nd0 O2 2.482618 1_555
Nd0 O1 2.498950 1_554
Nd0 O0 2.498950 1_565
Nd0 O1 2.498950 1_564
Nd0 O0 2.498950 1_555
Co0 O4 1.989133 1_555
Co0 O0 1.998016 1_455
Co0 O0 1.998016 1_555
Co0 O2 2.044891 1_555
Co0 O2 2.044891 1_545
Co1 O4 1.989133 1_555
Co1 O1 1.998016 1_455
Co1 O1 1.998016 1_555
Co1 O3 2.044891 1_555
Co1 O3 2.044891 1_545
