# generated using pymatgen
data_NaNdTiO4
_symmetry_space_group_name_H-M   'P 1'
_cell_length_a   3.75920900
_cell_length_b   3.75920900
_cell_length_c   13.09858400
_cell_angle_alpha   90.00000000
_cell_angle_beta   90.00000000
_cell_angle_gamma   90.00000000
_symmetry_Int_Tables_number   1
_chemical_formula_structural   NaNdTiO4
_chemical_formula_sum   'Na2 Nd2 Ti2 O8'
_cell_volume   185.10463478
_cell_formula_units_Z   2
loop_
 _symmetry_equiv_pos_site_id
 _symmetry_equiv_pos_as_xyz
  1  'x, y, z'
loop_
 _atom_site_type_symbol
 _atom_site_label
 _atom_site_symmetry_multiplicity
 _atom_site_fract_x
 _atom_site_fract_y
 _atom_site_fract_z
 _atom_site_occupancy
  Na  Na0  1  0.50000000  0.00000000  0.58351700  1
  Na  Na1  1  0.00000000  0.50000000  0.41648300  1
  Nd  Nd0  1  0.00000000  0.50000000  0.10807000  1
  Nd  Nd1  1  0.50000000  0.00000000  0.89193000  1
  Ti  Ti0  1  0.50000000  0.00000000  0.27114000  1
  Ti  Ti1  1  0.00000000  0.50000000  0.72886000  1
  O  O0  1  0.00000000  0.50000000  0.93053200  1
  O  O1  1  0.50000000  0.00000000  0.06946800  1
  O  O2  1  0.00000000  0.50000000  0.59409800  1
  O  O3  1  0.50000000  0.00000000  0.40590200  1
  O  O4  1  0.00000000  0.00000000  0.23386500  1
  O  O5  1  0.50000000  0.50000000  0.23386500  1
  O  O6  1  0.00000000  0.00000000  0.76613500  1
  O  O7  1  0.50000000  0.50000000  0.76613500  1
loop_
_geom_bond_atom_site_label_1
_geom_bond_atom_site_label_2
_geom_bond_distance
_geom_bond_site_symmetry_2
Na0 O3 2.326505 1_555
Na0 O2 2.661773 1_545
Na0 O2 2.661773 1_645
Na0 O2 2.661773 1_555
Na0 O2 2.661773 1_655
Na1 O2 2.326505 1_555
Na1 O3 2.661773 1_565
Na1 O3 2.661773 1_465
Na1 O3 2.661773 1_455
Na1 O3 2.661773 1_555
Nd0 O0 2.325496 1_554
Nd0 O5 2.499590 1_455
Nd0 O5 2.499590 1_555
Nd0 O4 2.499590 1_565
Nd0 O4 2.499590 1_555
Nd0 O1 2.705825 1_455
Nd0 O1 2.705825 1_555
Nd0 O1 2.705825 1_565
Nd0 O1 2.705825 1_465
Nd1 O1 2.325496 1_556
Nd1 O7 2.499590 1_545
Nd1 O6 2.499590 1_555
Nd1 O6 2.499590 1_655
Nd1 O7 2.499590 1_555
Nd1 O0 2.705825 1_655
Nd1 O0 2.705825 1_545
Nd1 O0 2.705825 1_555
Nd1 O0 2.705825 1_645
O0 Ti1 2.641618 1_555
O1 Ti0 2.641618 1_555
O2 Ti1 1.765191 1_555
O3 Ti0 1.765191 1_555
O4 Ti0 1.941984 1_455
O4 Ti0 1.941984 1_555
O5 Ti0 1.941984 1_565
O5 Ti0 1.941984 1_555
O6 Ti1 1.941984 1_555
O6 Ti1 1.941984 1_545
O7 Ti1 1.941984 1_555
O7 Ti1 1.941984 1_655
