# generated using pymatgen
data_YAsS
_symmetry_space_group_name_H-M   'P 1'
_cell_length_a   3.81773039
_cell_length_b   3.86211647
_cell_length_c   17.00028878
_cell_angle_alpha   90.00000000
_cell_angle_beta   90.00000000
_cell_angle_gamma   90.00000000
_symmetry_Int_Tables_number   1
_chemical_formula_structural   YAsS
_chemical_formula_sum   'Y4 As4 S4'
_cell_volume   250.66108802
_cell_formula_units_Z   4
loop_
 _symmetry_equiv_pos_site_id
 _symmetry_equiv_pos_as_xyz
  1  'x, y, z'
loop_
 _atom_site_type_symbol
 _atom_site_label
 _atom_site_symmetry_multiplicity
 _atom_site_fract_x
 _atom_site_fract_y
 _atom_site_fract_z
 _atom_site_occupancy
  Y  Y0  1  0.25000000  0.76711160  0.14596165  1
  Y  Y1  1  0.25000000  0.73288840  0.64596165  1
  Y  Y2  1  0.75000000  0.23288840  0.85403835  1
  Y  Y3  1  0.75000000  0.26711160  0.35403835  1
  As  As0  1  0.75000000  0.78730655  0.49829276  1
  As  As1  1  0.75000000  0.71269345  0.99829276  1
  As  As2  1  0.25000000  0.21269345  0.50170724  1
  As  As3  1  0.25000000  0.28730655  0.00170724  1
  S  S0  1  0.25000000  0.76423942  0.31297653  1
  S  S1  1  0.25000000  0.73576058  0.81297653  1
  S  S2  1  0.75000000  0.23576058  0.68702347  1
  S  S3  1  0.75000000  0.26423942  0.18702347  1
loop_
_geom_bond_atom_site_label_1
_geom_bond_atom_site_label_2
_geom_bond_distance
_geom_bond_site_symmetry_2
As0 As2 2.519174 1_565
As0 As2 2.519174 1_665
As0 As2 2.927812 1_655
As0 As2 2.927812 1_555
As0 Y3 3.073751 1_565
As0 Y1 3.160714 1_555
As0 Y1 3.160714 1_655
As0 Y3 3.170236 1_555
As1 As3 2.519174 1_656
As1 As3 2.519174 1_556
As1 As3 2.927812 1_566
As1 As3 2.927812 1_666
As1 Y2 3.073751 1_555
As1 Y0 3.160714 1_656
As1 Y0 3.160714 1_556
As1 Y2 3.170236 1_565
As2 Y1 3.073751 1_545
As2 Y3 3.160714 1_455
As2 Y3 3.160714 1_555
As2 Y1 3.170236 1_555
As3 Y0 3.073751 1_555
As3 Y2 3.160714 1_554
As3 Y2 3.160714 1_454
As3 Y0 3.170236 1_545
S0 Y3 2.795948 1_455
S0 Y3 2.795948 1_555
S0 Y3 2.811229 1_565
S0 Y3 2.811229 1_465
S0 Y0 2.839323 1_555
S1 Y2 2.795948 1_465
S1 Y2 2.795948 1_565
S1 Y2 2.811229 1_455
S1 Y2 2.811229 1_555
S1 Y1 2.839323 1_555
S2 Y1 2.795948 1_555
S2 Y1 2.795948 1_655
S2 Y1 2.811229 1_645
S2 Y1 2.811229 1_545
S2 Y2 2.839323 1_555
S3 Y0 2.795948 1_545
S3 Y0 2.795948 1_645
S3 Y0 2.811229 1_655
S3 Y0 2.811229 1_555
S3 Y3 2.839323 1_555
