# generated using pymatgen
data_Na2NbAlSi(PO6)2
_symmetry_space_group_name_H-M   'P 1'
_cell_length_a   8.74662209
_cell_length_b   8.74662181
_cell_length_c   22.22933171
_cell_angle_alpha   89.74510518
_cell_angle_beta   90.25489482
_cell_angle_gamma   119.82361433
_symmetry_Int_Tables_number   1
_chemical_formula_structural   Na2NbAlSi(PO6)2
_chemical_formula_sum   'Na12 Nb6 Al6 Si6 P12 O72'
_cell_volume   1475.37076682
_cell_formula_units_Z   6
loop_
 _symmetry_equiv_pos_site_id
 _symmetry_equiv_pos_as_xyz
  1  'x, y, z'
loop_
 _atom_site_type_symbol
 _atom_site_label
 _atom_site_symmetry_multiplicity
 _atom_site_fract_x
 _atom_site_fract_y
 _atom_site_fract_z
 _atom_site_occupancy
  Na  Na0  1  0.99374303  0.62970375  0.24651232  1
  Na  Na1  1  0.37029625  0.00625697  0.74651232  1
  Na  Na2  1  0.66063649  0.96528275  0.58297487  1
  Na  Na3  1  0.03471725  0.33936351  0.08297487  1
  Na  Na4  1  0.97335626  0.67245019  0.91632862  1
  Na  Na5  1  0.32754981  0.02664374  0.41632862  1
  Na  Na6  1  0.00037419  0.99687247  0.49459357  1
  Na  Na7  1  0.00312753  0.99962581  0.99459357  1
  Na  Na8  1  0.66875584  0.33018541  0.82793008  1
  Na  Na9  1  0.66981459  0.33124416  0.32793008  1
  Na  Na10  1  0.34949961  0.67669080  0.16101793  1
  Na  Na11  1  0.32330920  0.65050039  0.66101793  1
  Nb  Nb0  1  0.00262080  -0.00016547  0.64536767  1
  Nb  Nb1  1  0.00016547  0.99737920  0.14536767  1
  Nb  Nb2  1  0.66157504  0.33037054  0.97843916  1
  Nb  Nb3  1  0.66962946  0.33842496  0.47843916  1
  Nb  Nb4  1  0.32720323  0.65861564  0.31160030  1
  Nb  Nb5  1  0.34138436  0.67279678  0.81160030  1
  Al  Al0  1  0.99138668  0.99725714  0.35379854  1
  Al  Al1  1  0.00274286  0.00861332  0.85379854  1
  Al  Al2  1  0.66998526  0.32992056  0.68622659  1
  Al  Al3  1  0.67007944  0.33001474  0.18622659  1
  Al  Al4  1  0.33053518  0.67437902  0.01988175  1
  Al  Al5  1  0.32562098  0.66946482  0.51988175  1
  Si  Si0  1  0.98482066  0.27604612  0.25231036  1
  Si  Si1  1  0.72395388  0.01517934  0.75231036  1
  Si  Si2  1  0.37956275  0.03815724  0.58482723  1
  Si  Si3  1  0.96184276  0.62043725  0.08482723  1
  Si  Si4  1  0.32342410  0.95458910  0.91787377  1
  Si  Si5  1  0.04541090  0.67657590  0.41787377  1
  P  P0  1  0.29820370  0.01490045  0.25276617  1
  P  P1  1  0.71376043  0.70900643  0.25200288  1
  P  P2  1  0.29099357  0.28623957  0.75200288  1
  P  P3  1  0.98509955  0.70179630  0.75276617  1
  P  P4  1  0.96216317  0.34654856  0.58555007  1
  P  P5  1  0.65614535  0.61226248  0.58623446  1
  P  P6  1  0.65345144  0.03783683  0.08555007  1
  P  P7  1  0.38773752  0.34385465  0.08623446  1
  P  P8  1  0.62230287  0.67657136  0.92023940  1
  P  P9  1  0.05232213  0.37279688  0.91916382  1
  P  P10  1  0.62720312  0.94767787  0.41916382  1
  P  P11  1  0.32342864  0.37769713  0.42023940  1
  O  O0  1  0.21048655  0.03197950  0.30939073  1
  O  O1  1  0.83529585  0.79476093  0.30581515  1
  O  O2  1  0.97060579  0.15785706  0.30882271  1
  O  O3  1  0.20523907  0.16470415  0.80581515  1
  O  O4  1  0.96802050  0.78951345  0.80939073  1
  O  O5  1  0.84214294  0.02939421  0.80882271  1
  O  O6  1  0.79947697  0.97405306  0.68950114  1
  O  O7  1  0.17364417  0.19971836  0.69453091  1
  O  O8  1  0.03072877  0.82935758  0.69685227  1
  O  O9  1  0.80028164  0.82635583  0.19453091  1
  O  O10  1  0.02594694  0.20052303  0.18950114  1
  O  O11  1  0.17064242  0.96927123  0.19685227  1
  O  O12  1  0.87258713  0.36831483  0.64051330  1
  O  O13  1  0.50320916  0.13362238  0.64274428  1
  O  O14  1  0.63881223  0.50067227  0.64064588  1
  O  O15  1  0.86637762  0.49679084  0.14274428  1
  O  O16  1  0.63168517  0.12741287  0.14051330  1
  O  O17  1  0.49932773  0.36118777  0.14064588  1
  O  O18  1  0.46567820  0.30542006  0.02835778  1
  O  O19  1  0.83954689  0.53335998  0.02342267  1
  O  O20  1  0.69385027  0.16020560  0.02884792  1
  O  O21  1  0.46664002  0.16045311  0.52342267  1
  O  O22  1  0.69457994  0.53432180  0.52835778  1
  O  O23  1  0.83979440  0.30614973  0.52884792  1
  O  O24  1  0.52714225  0.69270533  0.97431118  1
  O  O25  1  0.15787978  0.45694661  0.97651184  1
  O  O26  1  0.29041186  0.82310997  0.97304145  1
  O  O27  1  0.54305339  0.84212022  0.47651184  1
  O  O28  1  0.30729467  0.47285775  0.47431118  1
  O  O29  1  0.17689003  0.70958814  0.47304145  1
  O  O30  1  0.13159172  0.63946706  0.35606508  1
  O  O31  1  0.50371675  0.86504471  0.36360973  1
  O  O32  1  0.35969034  0.49227330  0.36188048  1
  O  O33  1  0.13495529  0.49628325  0.86360973  1
  O  O34  1  0.36053294  0.86840828  0.85606508  1
  O  O35  1  0.50772670  0.64030966  0.86188048  1
  O  O36  1  0.02951735  0.85108603  0.40716805  1
  O  O37  1  0.80994883  0.97165646  0.41019487  1
  O  O38  1  0.16667878  0.19223104  0.41204317  1
  O  O39  1  0.02834354  0.19005117  0.91019487  1
  O  O40  1  0.14891397  0.97048265  0.90716805  1
  O  O41  1  0.80776896  0.83332122  0.91204317  1
  O  O42  1  0.97031168  0.17051687  0.58899797  1
  O  O43  1  0.18272275  0.02017632  0.58879678  1
  O  O44  1  0.82410994  0.80227717  0.58977628  1
  O  O45  1  0.97982368  0.81727725  0.08879678  1
  O  O46  1  0.82948313  0.02968832  0.08899797  1
  O  O47  1  0.19772283  0.17589006  0.08977628  1
  O  O48  1  0.68635319  0.17759833  0.74412794  1
  O  O49  1  0.47369261  0.30738137  0.74253762  1
  O  O50  1  0.82499869  0.52300190  0.74142084  1
  O  O51  1  0.69261863  0.52630739  0.24253762  1
  O  O52  1  0.82240167  0.31364681  0.24412794  1
  O  O53  1  0.47699810  0.17500131  0.24142084  1
  O  O54  1  0.64337095  0.50749357  0.92276079  1
  O  O55  1  0.86603999  0.36164859  0.92280756  1
  O  O56  1  0.50329064  0.14884358  0.92205177  1
  O  O57  1  0.63835141  0.13396001  0.42280756  1
  O  O58  1  0.49250643  0.35662905  0.42276079  1
  O  O59  1  0.85115642  0.49670936  0.42205177  1
  O  O60  1  0.36180090  0.50242669  0.07674853  1
  O  O61  1  0.15269790  0.63447560  0.07664353  1
  O  O62  1  0.49783202  0.85488392  0.07560305  1
  O  O63  1  0.36552440  0.84730210  0.57664353  1
  O  O64  1  0.49757331  0.63819910  0.57674853  1
  O  O65  1  0.14511608  0.50216798  0.57560305  1
  O  O66  1  0.31171618  0.84173350  0.25577139  1
  O  O67  1  0.53243964  0.69814957  0.25628885  1
  O  O68  1  0.16741016  0.47947312  0.25575695  1
  O  O69  1  0.30185043  0.46756036  0.75628885  1
  O  O70  1  0.15826650  0.68828382  0.75577139  1
  O  O71  1  0.52052688  0.83258984  0.75575695  1
loop_
_geom_bond_atom_site_label_1
_geom_bond_atom_site_label_2
_geom_bond_distance
_geom_bond_site_symmetry_2
Na0 O51 2.322092 1_555
Na0 O52 2.402214 1_555
Na0 O68 2.460969 1_655
Na0 O66 2.466720 1_655
Na0 O15 2.574138 1_555
Na0 O30 2.695358 1_655
Na0 O1 2.786757 1_555
Na0 O11 2.801610 1_655
Na1 O49 2.322092 1_555
Na1 O48 2.402214 1_555
Na1 O71 2.460969 1_545
Na1 O70 2.466720 1_545
Na1 O13 2.574138 1_555
Na1 O34 2.695358 1_545
Na1 O3 2.786757 1_555
Na1 O8 2.801610 1_545
Na2 O63 2.257449 1_555
Na2 O42 2.395731 1_565
Na2 O44 2.474658 1_555
Na2 O64 2.486198 1_555
Na2 O27 2.591917 1_555
Na2 O6 2.640350 1_555
Na2 O13 2.807054 1_565
Na2 O23 2.851321 1_565
Na3 O61 2.257449 1_555
Na3 O46 2.395731 1_455
Na3 O47 2.474658 1_555
Na3 O60 2.486198 1_555
Na3 O25 2.591917 1_554
Na3 O10 2.640350 1_555
Na3 O15 2.807054 1_455
Na3 O20 2.851321 1_455
Na4 O40 2.282815 1_655
Na4 O55 2.398229 1_555
Na4 O41 2.472088 1_555
Na4 O54 2.508458 1_555
Na4 O4 2.593517 1_555
Na4 O19 2.664582 1_556
Na4 O26 2.713869 1_655
Na4 O33 2.818256 1_655
Na5 O36 2.282816 1_545
Na5 O57 2.398229 1_555
Na5 O38 2.472088 1_555
Na5 O58 2.508458 1_555
Na5 O0 2.593517 1_555
Na5 O21 2.664582 1_555
Na5 O29 2.713869 1_545
Na5 O31 2.818256 1_545
Na6 O36 2.411962 1_555
Na6 O38 2.434459 1_565
Na6 O37 2.439905 1_455
Na6 O43 2.573175 1_565
Na6 O44 2.671626 1_455
Na6 O42 2.685200 1_465
Na7 O40 2.411962 1_555
Na7 O41 2.434459 1_455
Na7 O39 2.439905 1_565
Na7 O45 2.573175 1_456
Na7 O47 2.671626 1_566
Na7 O46 2.685200 1_466
Na8 O48 2.346097 1_555
Na8 O50 2.472248 1_555
Na8 O49 2.487972 1_555
Na8 O56 2.588833 1_555
Na8 O55 2.646114 1_555
Na8 O54 2.697024 1_555
Na9 O52 2.346097 1_555
Na9 O53 2.472248 1_555
Na9 O51 2.487972 1_555
Na9 O59 2.588833 1_555
Na9 O57 2.646114 1_555
Na9 O58 2.697024 1_555
Na10 O62 2.387852 1_555
Na10 O61 2.441812 1_555
Na10 O60 2.456466 1_555
Na10 O67 2.599105 1_555
Na10 O66 2.671590 1_555
Na10 O68 2.685554 1_555
Na11 O65 2.387853 1_555
Na11 O63 2.441812 1_555
Na11 O64 2.456466 1_555
Na11 O69 2.599105 1_555
Na11 O70 2.671590 1_555
Na11 O71 2.685554 1_555
Nb0 O6 1.945617 1_445
Nb0 O43 1.957401 1_555
Nb0 O7 1.972243 1_555
Nb0 O8 1.985085 1_545
Nb0 O44 2.066171 1_445
Nb0 O42 2.068476 1_455
Nb1 O10 1.945617 1_565
Nb1 O45 1.957401 1_455
Nb1 O9 1.972243 1_455
Nb1 O11 1.985085 1_555
Nb1 O47 2.066171 1_565
Nb1 O46 2.068476 1_465
Nb2 O56 1.955668 1_555
Nb2 O19 1.956599 1_556
Nb2 O18 1.964092 1_556
Nb2 O20 1.987672 1_556
Nb2 O54 2.045456 1_555
Nb2 O55 2.081459 1_555
Nb3 O59 1.955668 1_555
Nb3 O21 1.956599 1_555
Nb3 O22 1.964092 1_555
Nb3 O23 1.987672 1_555
Nb3 O58 2.045456 1_555
Nb3 O57 2.081458 1_555
Nb4 O30 1.913346 1_555
Nb4 O68 1.942457 1_555
Nb4 O32 1.959780 1_555
Nb4 O31 2.051896 1_555
Nb4 O67 2.062096 1_555
Nb4 O66 2.078575 1_555
Nb5 O34 1.913345 1_555
Nb5 O71 1.942457 1_555
Nb5 O35 1.959780 1_555
Nb5 O33 2.051896 1_555
Nb5 O69 2.062096 1_555
Nb5 O70 2.078575 1_555
Al0 O2 1.801569 1_565
Al0 O36 1.886897 1_655
Al0 O1 1.933217 1_555
Al0 O37 1.949872 1_555
Al0 O0 2.043159 1_665
Al0 O38 2.082452 1_665
Al1 O5 1.801569 1_455
Al1 O40 1.886897 1_545
Al1 O3 1.933217 1_555
Al1 O39 1.949872 1_555
Al1 O4 2.043159 1_445
Al1 O41 2.082452 1_445
Al2 O13 1.876460 1_555
Al2 O48 1.903944 1_555
Al2 O12 1.925285 1_555
Al2 O14 1.928896 1_555
Al2 O50 1.980364 1_555
Al2 O49 2.057610 1_555
Al3 O15 1.876460 1_555
Al3 O52 1.903944 1_555
Al3 O16 1.925285 1_555
Al3 O17 1.928896 1_555
Al3 O53 1.980364 1_555
Al3 O51 2.057610 1_555
Al4 O26 1.827140 1_554
Al4 O61 1.899197 1_555
Al4 O24 1.936217 1_554
Al4 O62 1.967597 1_555
Al4 O25 1.993373 1_554
Al4 O60 2.079398 1_555
Al5 O29 1.827141 1_555
Al5 O63 1.899197 1_555
Al5 O28 1.936217 1_555
Al5 O65 1.967597 1_555
Al5 O27 1.993373 1_555
Al5 O64 2.079398 1_555
O0 P0 1.523027 1_555
O1 P1 1.525492 1_555
O2 Si0 1.588779 1_555
O3 P2 1.525491 1_555
O4 P3 1.523027 1_555
O5 Si1 1.588779 1_555
O6 Si1 1.662579 1_565
O7 P2 1.575662 1_555
O8 P3 1.580560 1_455
O9 P1 1.575662 1_555
O10 Si0 1.662579 1_455
O11 P0 1.580560 1_565
O12 P4 1.517180 1_555
O13 Si2 1.619673 1_555
O14 P5 1.510807 1_555
O15 Si3 1.619673 1_555
O16 P6 1.517180 1_555
O17 P7 1.510807 1_555
O18 P7 1.572448 1_555
O19 Si3 1.665345 1_555
O20 P6 1.573196 1_555
O21 Si2 1.665345 1_555
O22 P5 1.572448 1_555
O23 P4 1.573196 1_555
O24 P8 1.511519 1_555
O25 P9 1.530115 1_555
O26 Si4 1.603153 1_555
O27 P10 1.530115 1_555
O28 P11 1.511519 1_555
O29 Si5 1.603153 1_555
O30 Si5 1.678652 1_555
O31 P10 1.560007 1_555
O32 P11 1.569644 1_555
O33 P9 1.560007 1_555
O34 Si4 1.678652 1_555
O35 P8 1.569644 1_555
O36 Si5 1.616573 1_555
O37 P10 1.519098 1_555
O38 P11 1.527301 1_555
O39 P9 1.519098 1_555
O40 Si4 1.616573 1_555
O41 P8 1.527301 1_555
O42 P4 1.577856 1_555
O43 Si2 1.651854 1_555
O44 P5 1.580577 1_555
O45 Si3 1.651854 1_555
O46 P6 1.577856 1_555
O47 P7 1.580577 1_555
O48 Si1 1.619039 1_555
O49 P2 1.529964 1_555
O50 P3 1.514039 1_555
O51 P1 1.529964 1_555
O52 Si0 1.619039 1_555
O53 P0 1.514039 1_555
O54 P8 1.579353 1_555
O55 P9 1.585526 1_655
O56 Si4 1.646770 1_545
O57 P10 1.585525 1_545
O58 P11 1.579353 1_555
O59 Si5 1.646770 1_655
O60 P7 1.526287 1_555
O61 Si3 1.622801 1_455
O62 P6 1.515346 1_565
O63 Si2 1.622801 1_565
O64 P5 1.526287 1_555
O65 P4 1.515346 1_455
O66 P0 1.577849 1_565
O67 P1 1.544273 1_555
O68 Si0 1.701761 1_455
O69 P2 1.544273 1_555
O70 P3 1.577849 1_455
O71 Si1 1.701761 1_565
