# generated using pymatgen
data_RbAl(H2N)4
_symmetry_space_group_name_H-M   'P 1'
_cell_length_a   9.19207189
_cell_length_b   9.19207189
_cell_length_c   4.45337483
_cell_angle_alpha   90.00000000
_cell_angle_beta   90.00000000
_cell_angle_gamma   90.00000000
_symmetry_Int_Tables_number   1
_chemical_formula_structural   RbAl(H2N)4
_chemical_formula_sum   'Rb2 Al2 H16 N8'
_cell_volume   376.28427959
_cell_formula_units_Z   2
loop_
 _symmetry_equiv_pos_site_id
 _symmetry_equiv_pos_as_xyz
  1  'x, y, z'
loop_
 _atom_site_type_symbol
 _atom_site_label
 _atom_site_symmetry_multiplicity
 _atom_site_fract_x
 _atom_site_fract_y
 _atom_site_fract_z
 _atom_site_occupancy
  Rb  Rb0  1  0.50000000  0.00000000  0.82539174  1
  Rb  Rb1  1  0.00000000  0.50000000  0.17460826  1
  Al  Al0  1  0.00000000  0.00000000  -0.00000000  1
  Al  Al1  1  0.50000000  0.50000000  -0.00000000  1
  H  H0  1  0.21650328  0.22786868  0.01432357  1
  H  H1  1  0.72786868  0.28349672  0.01432357  1
  H  H2  1  0.27213132  0.71650328  0.01432357  1
  H  H3  1  0.78349672  0.77213132  0.01432357  1
  H  H4  1  0.28349672  0.27213132  0.98567643  1
  H  H5  1  0.77213132  0.21650328  0.98567643  1
  H  H6  1  0.22786868  0.78349672  0.98567643  1
  H  H7  1  0.71650328  0.72786868  0.98567643  1
  H  H8  1  0.64263704  0.39848562  0.42050377  1
  H  H9  1  0.89848562  0.85736296  0.42050377  1
  H  H10  1  0.10151438  0.14263704  0.42050377  1
  H  H11  1  0.35736296  0.60151438  0.42050377  1
  H  H12  1  0.14263704  0.89848562  0.57949623  1
  H  H13  1  0.39848562  0.35736296  0.57949623  1
  H  H14  1  0.60151438  0.64263704  0.57949623  1
  H  H15  1  0.85736296  0.10151438  0.57949623  1
  N  N0  1  0.33707449  0.52674079  0.25290117  1
  N  N1  1  0.02674079  0.16292551  0.25290117  1
  N  N2  1  0.97325921  0.83707449  0.25290117  1
  N  N3  1  0.66292551  0.47325921  0.25290117  1
  N  N4  1  0.16292551  0.97325921  0.74709783  1
  N  N5  1  0.47325921  0.33707449  0.74709783  1
  N  N6  1  0.52674079  0.66292551  0.74709783  1
  N  N7  1  0.83707449  0.02674079  0.74709783  1
loop_
_geom_bond_atom_site_label_1
_geom_bond_atom_site_label_2
_geom_bond_distance
_geom_bond_site_symmetry_2
Al0 N2 1.889911 1_445
Al0 N1 1.889911 1_555
Al0 N7 1.889914 1_454
Al0 N4 1.889914 1_544
Al1 N0 1.889911 1_555
Al1 N3 1.889911 1_555
Al1 N5 1.889914 1_554
Al1 N6 1.889914 1_554
H0 H4 0.749023 1_554
H1 H5 0.749023 1_554
H2 H6 0.749023 1_554
H3 H7 0.749023 1_554
H8 N3 1.031651 1_555
H9 N2 1.031651 1_555
H10 N1 1.031651 1_555
H11 N0 1.031651 1_555
H12 N4 1.031647 1_555
H13 N5 1.031647 1_555
H14 N6 1.031647 1_555
H15 N7 1.031647 1_555
N0 Rb1 3.127643 1_555
N1 Rb1 3.127643 1_555
N2 Rb1 3.127643 1_655
N3 Rb1 3.127643 1_655
N4 Rb0 3.127644 1_565
N5 Rb0 3.127644 1_555
N6 Rb0 3.127644 1_565
N7 Rb0 3.127644 1_555
