# generated using pymatgen
data_Nb4Zn2Si3(SO6)6
_symmetry_space_group_name_H-M   'P 1'
_cell_length_a   8.87275889
_cell_length_b   8.86065699
_cell_length_c   22.71339946
_cell_angle_alpha   90.34435566
_cell_angle_beta   90.00000000
_cell_angle_gamma   120.04519063
_symmetry_Int_Tables_number   1
_chemical_formula_structural   Nb4Zn2Si3(SO6)6
_chemical_formula_sum   'Nb8 Zn4 Si6 S12 O72'
_cell_volume   1545.71336436
_cell_formula_units_Z   2
loop_
 _symmetry_equiv_pos_site_id
 _symmetry_equiv_pos_as_xyz
  1  'x, y, z'
loop_
 _atom_site_type_symbol
 _atom_site_label
 _atom_site_symmetry_multiplicity
 _atom_site_fract_x
 _atom_site_fract_y
 _atom_site_fract_z
 _atom_site_occupancy
  Nb  Nb0  1  0.99800216  0.00391141  0.64172403  1
  Nb  Nb1  1  0.00590925  0.00391141  0.14172403  1
  Nb  Nb2  1  0.65621461  0.33904006  0.97650738  1
  Nb  Nb3  1  0.68282645  0.33904006  0.47650738  1
  Nb  Nb4  1  0.32394467  0.66946686  0.02433615  1
  Nb  Nb5  1  0.34552120  0.66946686  0.52433615  1
  Nb  Nb6  1  0.33965390  0.67541002  0.30721486  1
  Nb  Nb7  1  0.33575512  0.67541002  0.80721486  1
  Zn  Zn0  1  0.98868196  0.00351665  0.35841596  1
  Zn  Zn1  1  0.01483469  0.00351665  0.85841596  1
  Zn  Zn2  1  0.67738250  0.34886983  0.68391592  1
  Zn  Zn3  1  0.67148832  0.34886983  0.18391592  1
  Si  Si0  1  0.95328052  0.34034157  0.58603360  1
  Si  Si1  1  0.66704599  0.61021450  0.58733500  1
  Si  Si2  1  0.94316951  0.61021450  0.08733500  1
  Si  Si3  1  0.38706205  0.34034157  0.08603360  1
  Si  Si4  1  0.33320310  0.95681522  0.91566334  1
  Si  Si5  1  0.62361112  0.95681522  0.41566334  1
  S  S0  1  0.28516571  0.00278798  0.25209875  1
  S  S1  1  0.71585676  0.71250506  0.25194780  1
  S  S2  1  0.99478372  0.28480834  0.25195555  1
  S  S3  1  0.29002462  0.28480834  0.75195555  1
  S  S4  1  0.99664830  0.71250506  0.75194780  1
  S  S5  1  0.71762227  0.00278798  0.75209875  1
  S  S6  1  0.38042607  0.04757179  0.58394996  1
  S  S7  1  0.66714672  0.04757179  0.08394996  1
  S  S8  1  0.61699987  0.66864003  0.91458116  1
  S  S9  1  0.04772508  0.38381181  0.91531141  1
  S  S10  1  0.33608574  0.38381181  0.41531141  1
  S  S11  1  0.05163916  0.66864003  0.41458116  1
  O  O0  1  0.20412909  0.02511022  0.30422024  1
  O  O1  1  0.81813763  0.79629001  0.30430566  1
  O  O2  1  0.97905164  0.18399685  0.30404483  1
  O  O3  1  0.20494521  0.18399685  0.80404483  1
  O  O4  1  0.97815239  0.79629001  0.80430566  1
  O  O5  1  0.82098113  0.02511022  0.80422024  1
  O  O6  1  0.80105035  0.97131558  0.69835839  1
  O  O7  1  0.17403048  0.20314351  0.69808987  1
  O  O8  1  0.03424605  0.82329576  0.69871006  1
  O  O9  1  0.78904971  0.82329576  0.19871006  1
  O  O10  1  0.02911303  0.20314351  0.19808987  1
  O  O11  1  0.17026523  0.97131558  0.19835839  1
  O  O12  1  0.87715087  0.36960168  0.64401995  1
  O  O13  1  0.48397720  0.10889017  0.63702479  1
  O  O14  1  0.61162496  0.49714122  0.64418143  1
  O  O15  1  0.88551726  0.49714122  0.14418143  1
  O  O16  1  0.62491398  0.10889017  0.13702479  1
  O  O17  1  0.49245182  0.36960168  0.14401995  1
  O  O18  1  0.47144440  0.29935529  0.02585859  1
  O  O19  1  0.82452632  0.52184998  0.02764909  1
  O  O20  1  0.70125156  0.15779469  0.03138631  1
  O  O21  1  0.45654412  0.15779469  0.53138631  1
  O  O22  1  0.69732466  0.52184998  0.52764909  1
  O  O23  1  0.82791189  0.29935529  0.52585859  1
  O  O24  1  0.53117572  0.68496314  0.96748113  1
  O  O25  1  0.15898177  0.46814321  0.96857491  1
  O  O26  1  0.32151007  0.83243965  0.97068745  1
  O  O27  1  0.51092858  0.83243965  0.47068745  1
  O  O28  1  0.30916045  0.46814321  0.46857491  1
  O  O29  1  0.15378642  0.68496314  0.46748113  1
  O  O30  1  0.12983881  0.63148725  0.36163534  1
  O  O31  1  0.49115660  0.85463285  0.35732695  1
  O  O32  1  0.36170656  0.49693657  0.36277715  1
  O  O33  1  0.13522900  0.49693657  0.86277715  1
  O  O34  1  0.36347525  0.85463285  0.85732695  1
  O  O35  1  0.50164744  0.63148725  0.86163534  1
  O  O36  1  0.03515530  0.82133523  0.40703223  1
  O  O37  1  0.80757691  0.97599791  0.40973429  1
  O  O38  1  0.18516708  0.21190822  0.40861853  1
  O  O39  1  0.02674114  0.21190822  0.90861853  1
  O  O40  1  0.16842100  0.97599791  0.90973429  1
  O  O41  1  0.78617992  0.82133523  0.90703223  1
  O  O42  1  0.97992662  0.16701037  0.59578450  1
  O  O43  1  0.20324929  0.02903203  0.59224740  1
  O  O44  1  0.84368174  0.80630634  0.59807481  1
  O  O45  1  0.96262460  0.80630634  0.09807481  1
  O  O46  1  0.82578274  0.02903203  0.09224740  1
  O  O47  1  0.18708376  0.16701037  0.09578450  1
  O  O48  1  0.67720500  0.13946507  0.74206533  1
  O  O49  1  0.46162196  0.30767686  0.74314421  1
  O  O50  1  0.85384924  0.53565883  0.74552998  1
  O  O51  1  0.68181059  0.53565883  0.24552998  1
  O  O52  1  0.84605590  0.30767686  0.24314421  1
  O  O53  1  0.46226107  0.13946507  0.24206533  1
  O  O54  1  0.62974272  0.50411855  0.92053591  1
  O  O55  1  0.87973048  0.37936469  0.92342920  1
  O  O56  1  0.51920695  0.14017801  0.92665283  1
  O  O57  1  0.62097206  0.14017801  0.42665283  1
  O  O58  1  0.49963521  0.37936469  0.42342920  1
  O  O59  1  0.87437683  0.50411855  0.42053591  1
  O  O60  1  0.35757909  0.49958224  0.06568645  1
  O  O61  1  0.14294287  0.65534223  0.06902657  1
  O  O62  1  0.52217529  0.86512083  0.07119459  1
  O  O63  1  0.34294454  0.86512083  0.57119459  1
  O  O64  1  0.51239836  0.65534223  0.56902657  1
  O  O65  1  0.14200215  0.49958224  0.56568645  1
  O  O66  1  0.28639123  0.82752873  0.25721433  1
  O  O67  1  0.53221880  0.69745170  0.25842018  1
  O  O68  1  0.16088605  0.46282340  0.25828565  1
  O  O69  1  0.30193635  0.46282340  0.75828565  1
  O  O70  1  0.16523190  0.69745170  0.75842018  1
  O  O71  1  0.54113650  0.82752873  0.75721433  1
loop_
_geom_bond_atom_site_label_1
_geom_bond_atom_site_label_2
_geom_bond_distance
_geom_bond_site_symmetry_2
Nb0 O42 1.858282 1_555
Nb0 O44 1.871330 1_545
Nb0 O43 2.055716 1_655
Nb0 O6 2.071467 1_545
Nb0 O7 2.099219 1_655
Nb0 O8 2.209117 1_645
Nb1 O47 1.858282 1_555
Nb1 O45 1.871330 1_445
Nb1 O46 2.055716 1_455
Nb1 O11 2.071467 1_545
Nb1 O10 2.099219 1_555
Nb1 O9 2.209117 1_445
Nb2 O18 1.869577 1_556
Nb2 O56 1.922478 1_555
Nb2 O19 1.938659 1_556
Nb2 O54 2.043835 1_555
Nb2 O55 2.193126 1_555
Nb2 O20 2.226921 1_556
Nb3 O23 1.869577 1_555
Nb3 O57 1.922478 1_555
Nb3 O22 1.938659 1_555
Nb3 O59 2.043835 1_555
Nb3 O58 2.193126 1_555
Nb3 O21 2.226921 1_555
Nb4 O61 1.850805 1_555
Nb4 O26 1.903411 1_554
Nb4 O60 1.924551 1_555
Nb4 O62 2.038687 1_555
Nb4 O25 2.070478 1_554
Nb4 O24 2.194691 1_554
Nb5 O64 1.850805 1_555
Nb5 O27 1.903411 1_555
Nb5 O65 1.924551 1_555
Nb5 O63 2.038687 1_555
Nb5 O28 2.070478 1_555
Nb5 O29 2.194691 1_555
Nb6 O31 1.861459 1_555
Nb6 O67 1.963202 1_555
Nb6 O66 1.996529 1_555
Nb6 O68 2.069334 1_555
Nb6 O30 2.103643 1_555
Nb6 O32 2.113195 1_555
Nb7 O34 1.861459 1_555
Nb7 O70 1.963202 1_555
Nb7 O71 1.996529 1_555
Nb7 O69 2.069334 1_555
Nb7 O35 2.103643 1_555
Nb7 O33 2.113195 1_555
O0 S0 1.448177 1_555
O0 Zn0 2.200619 1_455
O1 S1 1.450420 1_555
O1 Zn0 2.088631 1_565
O2 S2 1.450869 1_555
O2 Zn0 2.061634 1_555
O3 S3 1.450869 1_555
O3 Zn1 2.061634 1_555
O4 S4 1.450420 1_555
O4 Zn1 2.088631 1_665
O5 S5 1.448177 1_555
O5 Zn1 2.200619 1_655
O6 S5 1.522584 1_565
O7 S3 1.524248 1_555
O8 S4 1.491142 1_455
O9 S1 1.491142 1_555
O10 S2 1.524248 1_455
O11 S0 1.522584 1_565
O12 Si0 1.558659 1_555
O12 Zn2 1.916401 1_555
O13 S6 1.443907 1_555
O13 Zn2 2.217986 1_555
O14 Si1 1.560434 1_555
O14 Zn2 1.913839 1_555
O15 Si2 1.560434 1_555
O15 Zn3 1.913839 1_555
O16 S7 1.443907 1_555
O16 Zn3 2.217987 1_555
O17 Si3 1.558659 1_555
O17 Zn3 1.916400 1_555
O18 Si3 1.681321 1_555
O19 Si2 1.649525 1_555
O20 S7 1.479486 1_555
O21 S6 1.479486 1_555
O22 Si1 1.649525 1_555
O23 Si0 1.681321 1_555
O24 S8 1.467205 1_555
O25 S9 1.498975 1_555
O26 Si4 1.639909 1_555
O27 Si5 1.639909 1_555
O28 S10 1.498975 1_555
O29 S11 1.467205 1_555
O30 S11 1.503316 1_555
O31 Si5 1.696075 1_555
O32 S10 1.505459 1_555
O33 S9 1.505459 1_555
O34 Si4 1.696075 1_555
O35 S8 1.503316 1_555
O36 S11 1.443013 1_555
O36 Zn0 2.164055 1_465
O37 Si5 1.560074 1_555
O37 Zn0 1.900344 1_565
O38 S10 1.446054 1_555
O38 Zn0 2.121378 1_455
O39 S9 1.446058 1_555
O39 Zn1 2.121378 1_555
O40 Si4 1.560066 1_555
O40 Zn1 1.900344 1_565
O41 S8 1.443018 1_555
O41 Zn1 2.164055 1_665
O42 Si0 1.682679 1_555
O43 S6 1.508512 1_555
O44 Si1 1.674149 1_555
O45 Si2 1.674152 1_555
O46 S7 1.508503 1_555
O47 Si3 1.682684 1_555
O48 S5 1.444086 1_555
O48 Zn2 2.283356 1_555
O49 S3 1.445960 1_555
O49 Zn2 2.216773 1_555
O50 S4 1.446082 1_555
O50 Zn2 2.127563 1_555
O51 S1 1.446085 1_555
O51 Zn3 2.127563 1_555
O52 S2 1.445951 1_555
O52 Zn3 2.216774 1_555
O53 S0 1.444092 1_555
O53 Zn3 2.283356 1_555
O54 S8 1.524330 1_555
O55 S9 1.482780 1_655
O56 Si4 1.654026 1_545
O57 Si5 1.654017 1_545
O58 S10 1.482798 1_555
O59 S11 1.524320 1_655
O60 Si3 1.627980 1_555
O61 Si2 1.663424 1_455
O62 S7 1.504680 1_565
O63 S6 1.504675 1_565
O64 Si1 1.663441 1_555
O65 Si0 1.627970 1_455
O66 S0 1.563404 1_565
O67 S1 1.573809 1_555
O68 S2 1.533017 1_455
O69 S3 1.533021 1_555
O70 S4 1.573800 1_455
O71 S5 1.563409 1_565
