# generated using pymatgen
data_Na2La4Sc4SiS11O48
_symmetry_space_group_name_H-M   'P 1'
_cell_length_a   18.29468838
_cell_length_b   9.18060497
_cell_length_c   24.20884121
_cell_angle_alpha   90.07878622
_cell_angle_beta   90.04704193
_cell_angle_gamma   120.22169292
_symmetry_Int_Tables_number   1
_chemical_formula_structural   Na2La4Sc4SiS11O48
_chemical_formula_sum   'Na6 La12 Sc12 Si3 S33 O144'
_cell_volume   3513.38183740
_cell_formula_units_Z   3
loop_
 _symmetry_equiv_pos_site_id
 _symmetry_equiv_pos_as_xyz
  1  'x, y, z'
loop_
 _atom_site_type_symbol
 _atom_site_label
 _atom_site_symmetry_multiplicity
 _atom_site_fract_x
 _atom_site_fract_y
 _atom_site_fract_z
 _atom_site_occupancy
  Na  Na0  1  0.00207779  0.98990222  0.49652580  1
  Na  Na1  1  0.50156016  0.02436550  0.99696138  1
  Na  Na2  1  0.34424040  0.33594632  0.83719970  1
  Na  Na3  1  0.84165607  0.35357558  0.82868817  1
  Na  Na4  1  0.33184721  0.33064711  0.33474724  1
  Na  Na5  1  0.84371557  0.35143950  0.33131827  1
  La  La0  1  0.00036489  0.99310330  0.85737146  1
  La  La1  1  0.49890991  0.00696238  0.85781471  1
  La  La2  1  0.00040020  0.98717302  0.65041639  1
  La  La3  1  0.49942518  0.00088085  0.64000591  1
  La  La4  1  0.33800832  0.33617763  0.68246671  1
  La  La5  1  0.83922685  0.35230272  0.68249660  1
  La  La6  1  0.34206255  0.33685564  0.98586242  1
  La  La7  1  0.83927968  0.34384348  0.47341735  1
  La  La8  1  0.66105869  0.65337473  0.02644564  1
  La  La9  1  0.16029913  0.66945461  0.51035205  1
  La  La10  1  0.15627064  0.65975900  0.81146900  1
  La  La11  1  0.66493537  0.66106288  0.81883919  1
  Sc  Sc0  1  0.00074999  0.99381166  0.34908957  1
  Sc  Sc1  1  0.50054433  -0.00022890  0.35132312  1
  Sc  Sc2  1  0.99847414  0.00114513  0.14890653  1
  Sc  Sc3  1  0.50065036  0.00206196  0.15549987  1
  Sc  Sc4  1  0.32677089  0.32949103  0.18332331  1
  Sc  Sc5  1  0.84014144  0.34074545  0.18479317  1
  Sc  Sc6  1  0.83537262  0.33580097  0.98843428  1
  Sc  Sc7  1  0.33497403  0.33589815  0.47817374  1
  Sc  Sc8  1  0.16442489  0.66462029  0.02292530  1
  Sc  Sc9  1  0.66508811  0.66898953  0.51228869  1
  Sc  Sc10  1  0.16216141  0.66768630  0.31259247  1
  Sc  Sc11  1  0.66382557  0.66315400  0.31075367  1
  Si  Si0  1  0.99306270  0.69056216  0.75157223  1
  Si  Si1  1  0.51228461  0.36304747  0.91872003  1
  Si  Si2  1  0.01891538  0.67490025  0.40708579  1
  S  S0  1  0.14475910  0.00440749  0.24851645  1
  S  S1  1  0.64521237  0.00361507  0.25276123  1
  S  S2  1  0.35799289  0.70984313  0.25181583  1
  S  S3  1  0.85564381  0.71050904  0.24948815  1
  S  S4  1  0.99806536  0.28539061  0.25024847  1
  S  S5  1  0.49809929  0.28610899  0.25113052  1
  S  S6  1  0.15642933  0.30005763  0.75129337  1
  S  S7  1  0.64934068  0.29654355  0.74955792  1
  S  S8  1  0.49921795  0.70236170  0.75103281  1
  S  S9  1  0.35053043  0.00315490  0.74961105  1
  S  S10  1  0.84936426  0.00607560  0.75140663  1
  S  S11  1  0.48411346  0.34921216  0.57314550  1
  S  S12  1  0.98576328  0.32654781  0.58014069  1
  S  S13  1  0.18868685  0.05068368  0.57505401  1
  S  S14  1  0.68702534  0.02029858  0.57817046  1
  S  S15  1  0.33239144  0.61816085  0.57577464  1
  S  S16  1  0.82470000  0.63864100  0.57596934  1
  S  S17  1  0.47568843  0.63983314  0.09360804  1
  S  S18  1  0.97698622  0.62598523  0.08521504  1
  S  S19  1  0.33526644  0.03133925  0.08947707  1
  S  S20  1  0.84263651  0.06298706  0.08834376  1
  S  S21  1  0.18183957  0.32985415  0.08793264  1
  S  S22  1  0.68928813  0.31155235  0.08875851  1
  S  S23  1  0.30799017  0.66522761  0.92387009  1
  S  S24  1  0.81507609  0.64403494  0.92257434  1
  S  S25  1  0.01508477  0.37933857  0.92700248  1
  S  S26  1  0.16745566  0.95190861  0.92437187  1
  S  S27  1  0.67743764  0.98527778  0.92307947  1
  S  S28  1  0.31924268  0.97160941  0.40993395  1
  S  S29  1  0.80849038  0.93829525  0.41109960  1
  S  S30  1  0.16796969  0.36415445  0.41102779  1
  S  S31  1  0.65851451  0.37888274  0.40992138  1
  S  S32  1  0.52264197  0.66876759  0.41303590  1
  O  O0  1  0.10787888  0.04030022  0.29770935  1
  O  O1  1  0.60500393  0.03555224  0.30153978  1
  O  O2  1  0.41465122  0.78845727  0.30095328  1
  O  O3  1  0.91153064  0.78776867  0.29811387  1
  O  O4  1  0.48275369  0.17413276  0.29930496  1
  O  O5  1  0.97956843  0.17612963  0.29942029  1
  O  O6  1  0.11096059  0.20489583  0.80127539  1
  O  O7  1  0.60537103  0.19905371  0.79949350  1
  O  O8  1  0.49346128  0.78577373  0.80182679  1
  O  O9  1  0.99039715  0.79583190  0.80505965  1
  O  O10  1  0.40039431  0.01709643  0.79942038  1
  O  O11  1  0.90057082  0.02418987  0.80147072  1
  O  O12  1  0.39626678  0.00544591  0.69853340  1
  O  O13  1  0.89372604  0.00216699  0.70069354  1
  O  O14  1  0.10971386  0.21549111  0.70032315  1
  O  O15  1  0.60107826  0.20804285  0.69885420  1
  O  O16  1  -0.00729674  0.77788063  0.69278764  1
  O  O17  1  0.49696470  0.79260883  0.70078326  1
  O  O18  1  0.39935062  0.81918712  0.20267063  1
  O  O19  1  0.89435764  0.81776507  0.19982287  1
  O  O20  1  0.01002721  0.20271478  0.20087150  1
  O  O21  1  0.51450824  0.21086974  0.20118826  1
  O  O22  1  0.09021816  0.97618615  0.19935793  1
  O  O23  1  0.59101695  0.97355847  0.20315849  1
  O  O24  1  0.45415409  0.38067957  0.62611217  1
  O  O25  1  0.94422930  0.33354887  0.63154242  1
  O  O26  1  0.22892948  0.12868007  0.62832085  1
  O  O27  1  0.73554688  0.08770052  0.62966299  1
  O  O28  1  0.32370766  0.52924159  0.62847575  1
  O  O29  1  0.81304972  0.54894567  0.62860990  1
  O  O30  1  0.42429052  0.51643572  0.13772493  1
  O  O31  1  0.93828807  0.51304433  0.13449653  1
  O  O32  1  0.32030073  0.12423074  0.13518400  1
  O  O33  1  0.83083289  0.14861003  0.13740367  1
  O  O34  1  0.24265096  0.36225165  0.13525653  1
  O  O35  1  0.74364078  0.33084835  0.13731183  1
  O  O36  1  0.21241139  0.28527110  0.03819967  1
  O  O37  1  0.72711437  0.28861145  0.03744849  1
  O  O38  1  0.43185119  0.58613720  0.04000171  1
  O  O39  1  0.91969791  0.54840478  0.03694605  1
  O  O40  1  0.35910640  0.13285404  0.03831515  1
  O  O41  1  0.85658993  0.16729592  0.03825567  1
  O  O42  1  0.24114026  0.15722992  0.52762001  1
  O  O43  1  0.72894891  0.13560476  0.53112390  1
  O  O44  1  0.33868783  0.51890976  0.52833230  1
  O  O45  1  0.83840069  0.54752591  0.53008151  1
  O  O46  1  0.42375016  0.32519400  0.52759382  1
  O  O47  1  0.93420243  0.31868338  0.53122620  1
  O  O48  1  0.25730798  0.66779170  0.97200026  1
  O  O49  1  0.76890506  0.66309598  0.96956357  1
  O  O50  1  0.07352123  0.47979341  0.97297431  1
  O  O51  1  0.56172387  0.46581266  0.97491067  1
  O  O52  1  0.16754618  0.84990478  0.97277229  1
  O  O53  1  0.66793022  0.87550416  0.97031334  1
  O  O54  1  0.28987672  0.87551917  0.46173144  1
  O  O55  1  0.76894029  0.84197950  0.46244700  1
  O  O56  1  0.15219075  0.42601154  0.46340118  1
  O  O57  1  0.64838899  0.45539750  0.46111595  1
  O  O58  1  0.06286432  0.69800469  0.46728418  1
  O  O59  1  0.57555280  0.69858856  0.46273268  1
  O  O60  1  0.07784779  0.65786463  0.35842046  1
  O  O61  1  0.56195773  0.63590472  0.36410045  1
  O  O62  1  0.26011860  0.88509096  0.36354554  1
  O  O63  1  0.75479196  0.84659461  0.36237883  1
  O  O64  1  0.18324281  0.48049809  0.36437587  1
  O  O65  1  0.66982979  0.48910452  0.36151322  1
  O  O66  1  0.04395220  0.46933956  0.87397651  1
  O  O67  1  0.55983440  0.45906943  0.86220440  1
  O  O68  1  0.17694608  0.88154718  0.87203520  1
  O  O69  1  0.68908350  0.91805425  0.87043905  1
  O  O70  1  0.26880076  0.66380979  0.87075465  1
  O  O71  1  0.76844359  0.61675011  0.87014680  1
  O  O72  1  0.00950642  0.84234208  0.39779393  1
  O  O73  1  0.51379963  0.81913517  0.40307905  1
  O  O74  1  0.40392889  0.99296123  0.39696717  1
  O  O75  1  0.89415598  0.95912132  0.40615653  1
  O  O76  1  0.09257679  0.19465188  0.40075119  1
  O  O77  1  0.58197125  0.21024999  0.40144038  1
  O  O78  1  0.00871862  0.21391851  0.92472711  1
  O  O79  1  0.50320943  0.17696855  0.92342672  1
  O  O80  1  0.08871462  0.95754006  0.92574080  1
  O  O81  1  0.60090330  0.00188522  0.92142738  1
  O  O82  1  0.39364371  0.81640871  0.92865243  1
  O  O83  1  0.89933315  0.79519215  0.92023263  1
  O  O84  1  0.48967590  0.19506329  0.57706009  1
  O  O85  1  0.99346867  0.17422903  0.57802429  1
  O  O86  1  0.10455028  0.03542200  0.57094797  1
  O  O87  1  0.60123328  -0.00188748  0.58387417  1
  O  O88  1  0.41125842  0.78284389  0.57652308  1
  O  O89  1  0.89979818  0.81066565  0.57727352  1
  O  O90  1  0.48564029  0.80815193  0.10516716  1
  O  O91  1  0.98583106  0.79306800  0.09704268  1
  O  O92  1  0.40930716  0.01035891  0.10360909  1
  O  O93  1  0.91840404  0.04570118  0.09757344  1
  O  O94  1  0.09795870  0.18431469  0.10343741  1
  O  O95  1  0.60320359  0.15919277  0.09563297  1
  O  O96  1  0.34039111  0.15432004  0.75063506  1
  O  O97  1  0.83666491  0.15321804  0.75039068  1
  O  O98  1  0.24058743  0.31121271  0.75188578  1
  O  O99  1  0.73296322  0.30870954  0.74920478  1
  O  O100  1  0.42354931  0.52881000  0.75173765  1
  O  O101  1  0.90925902  0.50244926  0.75408618  1
  O  O102  1  0.34872349  0.53846685  0.24306506  1
  O  O103  1  0.84640184  0.53930441  0.24050639  1
  O  O104  1  0.42195665  0.30360107  0.24241603  1
  O  O105  1  0.92250031  0.30883513  0.24123575  1
  O  O106  1  0.23133198  0.15937161  0.23948162  1
  O  O107  1  0.73089404  0.15373623  0.24459832  1
  O  O108  1  0.31438933  0.51052975  0.92585678  1
  O  O109  1  0.82385715  0.49206108  0.93121132  1
  O  O110  1  0.41818611  0.34401944  0.91556953  1
  O  O111  1  0.92997417  0.35950651  0.93733974  1
  O  O112  1  0.24126904  0.12465565  0.92799268  1
  O  O113  1  0.75362631  0.15564241  0.93099461  1
  O  O114  1  0.32848482  0.14355895  0.41724901  1
  O  O115  1  0.81468683  0.10551695  0.41297355  1
  O  O116  1  0.24554945  0.34626171  0.41743075  1
  O  O117  1  0.73418740  0.36033950  0.41269977  1
  O  O118  1  0.43657993  0.51605943  0.42127219  1
  O  O119  1  0.92586292  0.50322142  0.40504986  1
  O  O120  1  0.17539735  0.48238707  0.07905724  1
  O  O121  1  0.68235981  0.46384378  0.08543174  1
  O  O122  1  0.06053518  0.64322693  0.07406427  1
  O  O123  1  0.55899176  0.65290295  0.09245173  1
  O  O124  1  0.25874009  0.86546134  0.08043350  1
  O  O125  1  0.76676467  0.89646140  0.08259890  1
  O  O126  1  0.18297342  0.88545162  0.57301349  1
  O  O127  1  0.67756230  0.85269222  0.56597427  1
  O  O128  1  0.25843265  0.63748185  0.56942577  1
  O  O129  1  0.74747720  0.64746101  0.56484207  1
  O  O130  1  0.06975511  0.48001365  0.57801211  1
  O  O131  1  0.56758978  0.49657279  0.56118853  1
  O  O132  1  0.15571163  0.85730216  0.25714540  1
  O  O133  1  0.65191678  0.85056100  0.26287447  1
  O  O134  1  0.27493391  0.69388182  0.26066510  1
  O  O135  1  0.77081373  0.69018573  0.25981927  1
  O  O136  1  0.07466084  0.45255172  0.25870640  1
  O  O137  1  0.57381530  0.45535782  0.26088837  1
  O  O138  1  0.16880048  0.47054539  0.75182337  1
  O  O139  1  0.65868473  0.46505882  0.75048176  1
  O  O140  1  0.07691513  0.67463466  0.75188179  1
  O  O141  1  0.57706099  0.69344500  0.75030123  1
  O  O142  1  0.26829438  0.84885696  0.74991386  1
  O  O143  1  0.76715903  0.84884528  0.75362759  1
loop_
_geom_bond_atom_site_label_1
_geom_bond_atom_site_label_2
_geom_bond_distance
_geom_bond_site_symmetry_2
Na0 O86 2.477677 1_565
Na0 O89 2.635425 1_455
Na0 O85 2.653443 1_465
Na0 O72 2.782734 1_555
Na0 O75 2.862484 1_455
Na0 O76 2.921593 1_565
Na1 O79 2.257685 1_555
Na1 O82 2.543402 1_545
Na1 O81 2.659227 1_555
Na1 O95 2.891964 1_556
Na2 O110 2.308591 1_555
Na2 O100 2.636195 1_555
Na2 O96 2.654979 1_555
Na2 O98 2.733494 1_555
Na2 O108 2.889173 1_555
Na2 O112 2.912485 1_555
Na3 O101 2.228931 1_555
Na3 O97 2.608769 1_555
Na3 O99 2.644493 1_555
Na3 O109 2.879586 1_555
Na4 O116 2.598472 1_555
Na4 O114 2.616533 1_555
Na4 O118 2.767064 1_555
Na4 O102 2.842795 1_555
Na4 O104 2.862191 1_555
Na4 O106 2.871429 1_555
Na5 O119 2.294981 1_555
Na5 O105 2.748938 1_555
Na5 O103 2.781279 1_555
Na5 O117 2.841511 1_555
Na5 O115 2.844986 1_555
Na5 O107 2.858856 1_555
La0 O9 2.139594 1_455
La0 O83 2.380111 1_455
La0 O11 2.401577 1_465
La0 O6 2.402080 1_565
La0 O80 2.446827 1_555
La0 O78 2.543706 1_565
La1 O79 2.198757 1_555
La1 O10 2.328175 1_555
La1 O7 2.334623 1_555
La1 O8 2.399794 1_545
La1 O81 2.436903 1_555
La1 O82 2.516373 1_545
La2 O16 2.120658 1_555
La2 O13 2.362819 1_465
La2 O14 2.371050 1_565
La2 O89 2.476490 1_455
La2 O85 2.502729 1_465
La2 O86 2.585845 1_565
La3 O87 2.316897 1_555
La3 O15 2.352203 1_555
La3 O12 2.377999 1_555
La3 O88 2.389056 1_545
La3 O17 2.396681 1_545
La3 O84 2.420557 1_555
La4 O28 2.321861 1_555
La4 O26 2.343347 1_555
La4 O100 2.364368 1_555
La4 O96 2.365054 1_555
La4 O98 2.376571 1_555
La4 O24 2.382336 1_555
La5 O101 2.181084 1_555
La5 O25 2.361720 1_555
La5 O99 2.402336 1_555
La5 O97 2.442630 1_555
La5 O29 2.462940 1_555
La5 O27 2.546319 1_555
La6 O110 2.179823 1_555
La6 O112 2.351606 1_555
La6 O108 2.393022 1_555
La6 O40 2.410611 1_556
La6 O38 2.420196 1_556
La6 O36 2.516235 1_556
La7 O119 2.251023 1_555
La7 O45 2.324200 1_555
La7 O47 2.329879 1_555
La7 O43 2.409976 1_555
La7 O115 2.475878 1_555
La7 O117 2.483777 1_555
La8 O51 2.159698 1_554
La8 O49 2.371614 1_554
La8 O53 2.402270 1_554
La8 O121 2.430467 1_555
La8 O123 2.457015 1_555
La8 O125 2.492165 1_555
La9 O58 2.191176 1_555
La9 O130 2.358751 1_555
La9 O126 2.359677 1_555
La9 O128 2.425282 1_555
La9 O56 2.442935 1_555
La9 O54 2.465770 1_555
La10 O140 2.098556 1_555
La10 O138 2.355748 1_555
La10 O68 2.377894 1_555
La10 O142 2.421789 1_555
La10 O66 2.442220 1_555
La10 O70 2.493487 1_555
La11 O67 2.158069 1_555
La11 O143 2.393421 1_555
La11 O139 2.402902 1_555
La11 O141 2.429815 1_555
La11 O71 2.463184 1_555
La11 O69 2.502752 1_555
O0 S0 1.485303 1_555
O0 Sc0 2.175751 1_545
O1 S1 1.496373 1_555
O1 Sc1 2.141365 1_555
O2 S2 1.500958 1_555
O2 Sc1 2.154346 1_565
O3 S3 1.483195 1_555
O3 Sc0 2.155766 1_655
O4 S5 1.486287 1_555
O4 Sc1 2.187125 1_555
O5 S4 1.483224 1_555
O5 Sc0 2.248401 1_645
O6 S6 1.480637 1_555
O7 S7 1.479635 1_555
O8 S8 1.479318 1_555
O9 Si0 1.630084 1_555
O10 S9 1.477436 1_555
O11 S10 1.488268 1_555
O12 S9 1.487826 1_555
O13 S10 1.482582 1_555
O14 S6 1.477641 1_555
O15 S7 1.489875 1_555
O16 Si0 1.635948 1_455
O17 S8 1.484942 1_555
O18 S2 1.495270 1_555
O18 Sc3 2.105655 1_565
O19 S3 1.489770 1_555
O19 Sc2 2.182471 1_565
O20 S4 1.489303 1_455
O20 Sc2 2.156652 1_455
O21 S5 1.495351 1_555
O21 Sc3 2.113509 1_555
O22 S0 1.488613 1_565
O22 Sc2 2.178518 1_465
O23 S1 1.490934 1_565
O23 Sc3 2.136823 1_565
O24 S11 1.479053 1_555
O25 S12 1.476643 1_555
O26 S13 1.477444 1_555
O27 S14 1.472389 1_555
O28 S15 1.480550 1_555
O29 S16 1.474506 1_555
O30 S17 1.496939 1_555
O30 Sc4 2.067143 1_555
O31 S18 1.505151 1_555
O31 Sc5 2.087679 1_555
O32 S19 1.503182 1_555
O32 Sc4 2.166185 1_555
O33 S20 1.497955 1_555
O33 Sc5 2.036737 1_555
O34 S21 1.517420 1_555
O34 Sc4 2.068056 1_555
O35 S22 1.490615 1_555
O35 Sc5 2.069116 1_555
O36 S21 1.469732 1_555
O37 S22 1.487822 1_555
O37 Sc6 2.158641 1_554
O38 S17 1.472712 1_555
O39 S18 1.488435 1_555
O39 Sc6 2.127979 1_554
O40 S19 1.479091 1_555
O41 S20 1.486656 1_555
O41 Sc6 2.146485 1_554
O42 S13 1.502086 1_555
O42 Sc7 2.060209 1_555
O43 S14 1.481029 1_555
O44 S15 1.505203 1_555
O44 Sc7 2.044837 1_555
O45 S16 1.485124 1_555
O46 S11 1.495467 1_555
O46 Sc7 2.058311 1_555
O47 S12 1.492186 1_555
O48 S23 1.497193 1_555
O48 Sc8 2.088534 1_556
O49 S24 1.479182 1_555
O50 S25 1.494901 1_555
O50 Sc8 2.063374 1_556
O51 Si1 1.641349 1_555
O52 S26 1.501484 1_555
O52 Sc8 2.068551 1_556
O53 S27 1.476639 1_555
O54 S28 1.471834 1_555
O55 S29 1.486954 1_555
O55 Sc9 2.135265 1_555
O56 S30 1.475481 1_555
O57 S31 1.480793 1_555
O57 Sc9 2.205177 1_555
O58 Si2 1.625060 1_555
O59 S32 1.479798 1_555
O59 Sc9 2.154525 1_555
O60 Si2 1.657163 1_555
O60 Sc10 1.865836 1_555
O61 S32 1.493549 1_555
O61 Sc11 2.176952 1_555
O62 S28 1.480770 1_555
O62 Sc10 2.259559 1_555
O63 S29 1.492576 1_555
O63 Sc11 2.082563 1_555
O64 S30 1.482509 1_555
O64 Sc10 2.312121 1_555
O65 S31 1.494305 1_555
O65 Sc11 2.063294 1_555
O66 S25 1.474532 1_555
O67 Si1 1.624513 1_555
O68 S26 1.470966 1_555
O69 S27 1.476796 1_555
O70 S23 1.468567 1_555
O71 S24 1.477729 1_555
O72 Si2 1.646370 1_555
O72 Sc0 1.891576 1_555
O73 S32 1.488495 1_555
O73 Sc1 2.188348 1_565
O74 S28 1.494174 1_555
O74 Sc1 2.059440 1_565
O75 S29 1.485190 1_555
O75 Sc0 2.278894 1_655
O76 S30 1.491152 1_555
O76 Sc0 2.158249 1_545
O77 S31 1.488649 1_555
O77 Sc1 2.125522 1_555
O78 S25 1.464451 1_555
O79 Si1 1.635217 1_555
O80 S26 1.467645 1_555
O81 S27 1.483294 1_545
O82 S23 1.484948 1_555
O83 S24 1.466967 1_555
O84 S11 1.472210 1_555
O85 S12 1.475202 1_555
O86 S13 1.476960 1_555
O87 S14 1.484120 1_555
O88 S15 1.473703 1_555
O89 S16 1.482644 1_555
O90 S17 1.488224 1_555
O90 Sc3 2.056855 1_565
O91 S18 1.486583 1_555
O91 Sc2 2.197091 1_565
O92 S19 1.500342 1_555
O92 Sc3 2.121650 1_555
O93 S20 1.489140 1_555
O93 Sc2 2.111656 1_555
O94 S21 1.489722 1_555
O94 Sc2 2.068649 1_455
O95 S22 1.499309 1_555
O95 Sc3 2.233185 1_555
O96 S9 1.489981 1_555
O97 S10 1.481696 1_555
O98 S6 1.490782 1_555
O99 S7 1.476819 1_555
O100 S8 1.494986 1_555
O101 Si0 1.634548 1_555
O102 S2 1.509788 1_555
O102 Sc4 2.269251 1_555
O103 S3 1.509229 1_555
O103 Sc5 2.222159 1_555
O104 S5 1.495182 1_555
O104 Sc4 2.355629 1_555
O105 S4 1.517974 1_555
O105 Sc5 2.159911 1_555
O106 S0 1.520987 1_555
O106 Sc4 2.144919 1_555
O107 S1 1.490654 1_555
O107 Sc5 2.365498 1_555
O108 S23 1.483442 1_555
O109 S24 1.497507 1_555
O109 Sc6 2.081020 1_555
O110 Si1 1.642228 1_555
O111 S25 1.495199 1_655
O111 Sc6 2.048854 1_555
O112 S26 1.479818 1_545
O113 S27 1.493277 1_545
O113 Sc6 2.099040 1_555
O114 S28 1.510765 1_545
O114 Sc7 2.255882 1_555
O115 S29 1.482005 1_545
O116 S30 1.516519 1_555
O116 Sc7 2.236310 1_555
O117 S31 1.478931 1_555
O118 S32 1.504451 1_555
O118 Sc7 2.236948 1_555
O119 Si2 1.638042 1_655
O120 S21 1.479174 1_555
O120 Sc8 2.242706 1_555
O121 S22 1.468335 1_555
O122 S18 1.480363 1_455
O122 Sc8 2.193717 1_555
O123 S17 1.467574 1_555
O124 S19 1.476269 1_565
O124 Sc8 2.258637 1_555
O125 S20 1.464960 1_565
O126 S13 1.467859 1_565
O127 S14 1.488397 1_565
O127 Sc9 2.047322 1_555
O128 S15 1.458486 1_555
O129 S16 1.479739 1_555
O129 Sc9 2.055978 1_555
O130 S12 1.473002 1_455
O131 S11 1.472480 1_555
O131 Sc9 2.062729 1_555
O132 S0 1.476755 1_565
O132 Sc10 2.249224 1_555
O133 S1 1.491231 1_565
O133 Sc11 2.175673 1_555
O134 S2 1.467252 1_555
O134 Sc10 2.323850 1_555
O135 S3 1.488337 1_555
O135 Sc11 2.220118 1_555
O136 S4 1.481369 1_455
O136 Sc10 2.229763 1_555
O137 S5 1.490171 1_555
O137 Sc11 2.153182 1_555
O138 S6 1.464413 1_555
O139 S7 1.468610 1_555
O140 Si0 1.612625 1_455
O141 S8 1.467144 1_555
O142 S9 1.457648 1_565
O143 S10 1.470789 1_565
