# generated using pymatgen
data_Sr2BN2Cl
_symmetry_space_group_name_H-M   'P 1'
_cell_length_a   4.20337300
_cell_length_b   9.28096500
_cell_length_c   12.53953100
_cell_angle_alpha   90.00000000
_cell_angle_beta   90.00000000
_cell_angle_gamma   90.00000000
_symmetry_Int_Tables_number   1
_chemical_formula_structural   Sr2BN2Cl
_chemical_formula_sum   'Sr8 B4 N8 Cl4'
_cell_volume   489.18412917
_cell_formula_units_Z   4
loop_
 _symmetry_equiv_pos_site_id
 _symmetry_equiv_pos_as_xyz
  1  'x, y, z'
loop_
 _atom_site_type_symbol
 _atom_site_label
 _atom_site_symmetry_multiplicity
 _atom_site_fract_x
 _atom_site_fract_y
 _atom_site_fract_z
 _atom_site_occupancy
  Sr  Sr0  1  0.25000000  0.88353300  0.58790500  1
  Sr  Sr1  1  0.25000000  0.61646700  0.08790500  1
  Sr  Sr2  1  0.75000000  0.38353300  0.91209500  1
  Sr  Sr3  1  0.75000000  0.11646700  0.41209500  1
  Sr  Sr4  1  0.75000000  0.94014900  0.82913700  1
  Sr  Sr5  1  0.25000000  0.05985100  0.17086300  1
  Sr  Sr6  1  0.25000000  0.44014900  0.67086300  1
  Sr  Sr7  1  0.75000000  0.55985100  0.32913700  1
  B  B0  1  0.75000000  0.32814400  0.16628600  1
  B  B1  1  0.25000000  0.67185600  0.83371400  1
  B  B2  1  0.25000000  0.82814400  0.33371400  1
  B  B3  1  0.75000000  0.17185600  0.66628600  1
  N  N0  1  0.75000000  0.30125400  0.71445000  1
  N  N1  1  0.25000000  0.69874600  0.28555000  1
  N  N2  1  0.25000000  0.80125400  0.78555000  1
  N  N3  1  0.75000000  0.46186800  0.12259500  1
  N  N4  1  0.75000000  0.03813200  0.62259500  1
  N  N5  1  0.25000000  0.96186800  0.37740500  1
  N  N6  1  0.25000000  0.53813200  0.87740500  1
  N  N7  1  0.75000000  0.19874600  0.21445000  1
  Cl  Cl0  1  0.75000000  0.85504700  0.06169700  1
  Cl  Cl1  1  0.25000000  0.35504700  0.43830300  1
  Cl  Cl2  1  0.25000000  0.14495300  0.93830300  1
  Cl  Cl3  1  0.75000000  0.64495300  0.56169700  1
loop_
_geom_bond_atom_site_label_1
_geom_bond_atom_site_label_2
_geom_bond_distance
_geom_bond_site_symmetry_2
B0 N7 1.344252 1_555
B0 N3 1.356634 1_555
B0 Sr7 2.965564 1_555
B1 N2 1.344252 1_555
B1 N6 1.356634 1_555
B1 Sr6 2.965564 1_555
B2 N1 1.344252 1_555
B2 N5 1.356634 1_555
B2 Sr5 2.965564 1_565
B3 N0 1.344252 1_555
B3 N4 1.356634 1_555
B3 Sr4 2.965564 1_545
N0 Sr6 2.525379 1_655
N0 Sr6 2.525379 1_555
N0 Sr2 2.593352 1_555
N1 Sr7 2.525379 1_455
N1 Sr7 2.525379 1_555
N1 Sr1 2.593352 1_555
N2 Sr4 2.525379 1_455
N2 Sr4 2.525379 1_555
N2 Sr0 2.593352 1_555
N3 Sr1 2.581674 1_555
N3 Sr1 2.581674 1_655
N3 Sr2 2.737864 1_554
N3 Sr7 2.744951 1_555
N4 Sr0 2.581674 1_545
N4 Sr0 2.581674 1_645
N4 Sr3 2.737864 1_555
N4 Sr4 2.744951 1_545
N5 Sr3 2.581674 1_565
N5 Sr3 2.581674 1_465
N5 Sr0 2.737864 1_555
N5 Sr5 2.744951 1_565
N6 Sr2 2.581674 1_455
N6 Sr2 2.581674 1_555
N6 Sr1 2.737864 1_556
N6 Sr6 2.744951 1_555
N7 Sr5 2.525379 1_655
N7 Sr5 2.525379 1_555
N7 Sr3 2.593352 1_555
Cl0 Sr4 3.021260 1_554
Cl0 Sr1 3.070505 1_655
Cl0 Sr1 3.070505 1_555
Cl0 Sr5 3.147047 1_565
Cl0 Sr5 3.147047 1_665
Cl1 Sr6 3.021260 1_555
Cl1 Sr3 3.070505 1_555
Cl1 Sr3 3.070505 1_455
Cl1 Sr7 3.147047 1_455
Cl1 Sr7 3.147047 1_555
Cl2 Sr5 3.021260 1_556
Cl2 Sr2 3.070505 1_555
Cl2 Sr2 3.070505 1_455
Cl2 Sr4 3.147047 1_445
Cl2 Sr4 3.147047 1_545
Cl3 Sr7 3.021260 1_555
Cl3 Sr0 3.070505 1_655
Cl3 Sr0 3.070505 1_555
Cl3 Sr6 3.147047 1_655
Cl3 Sr6 3.147047 1_555
