# generated using pymatgen
data_CuH2(SeO3)2
_symmetry_space_group_name_H-M   'P 1'
_cell_length_a   7.42330600
_cell_length_b   5.84363300
_cell_length_c   8.50609982
_cell_angle_alpha   49.86079251
_cell_angle_beta   90.00000000
_cell_angle_gamma   90.00000000
_symmetry_Int_Tables_number   1
_chemical_formula_structural   CuH2(SeO3)2
_chemical_formula_sum   'Cu2 H4 Se4 O12'
_cell_volume   282.08315574
_cell_formula_units_Z   2
loop_
 _symmetry_equiv_pos_site_id
 _symmetry_equiv_pos_as_xyz
  1  'x, y, z'
loop_
 _atom_site_type_symbol
 _atom_site_label
 _atom_site_symmetry_multiplicity
 _atom_site_fract_x
 _atom_site_fract_y
 _atom_site_fract_z
 _atom_site_occupancy
  Cu  Cu0  1  0.00000000  0.00000000  0.00000000  1
  Cu  Cu1  1  0.50000000  0.00000000  0.50000000  1
  H  H0  1  0.40187100  0.93614800  0.16233800  1
  H  H1  1  0.90187100  0.06385200  0.33766200  1
  H  H2  1  0.09812900  0.93614800  0.66233800  1
  H  H3  1  0.59812900  0.06385200  0.83766200  1
  Se  Se0  1  0.33513700  0.36146000  0.71590600  1
  Se  Se1  1  0.83513700  0.63854000  0.78409400  1
  Se  Se2  1  0.16486300  0.36146000  0.21590600  1
  Se  Se3  1  0.66486300  0.63854000  0.28409400  1
  O  O0  1  0.76300400  0.91537800  0.53393900  1
  O  O1  1  0.23699600  0.08462200  0.46606100  1
  O  O2  1  0.26300400  0.08462200  0.96606100  1
  O  O3  1  0.54655700  0.41720400  0.25523000  1
  O  O4  1  0.73699600  0.91537800  0.03393900  1
  O  O5  1  0.04655700  0.58279600  0.24477000  1
  O  O6  1  0.45344300  0.58279600  0.74477000  1
  O  O7  1  0.95344300  0.41720400  0.75523000  1
  O  O8  1  0.48271300  0.84245200  0.28691700  1
  O  O9  1  0.98271300  0.15754800  0.21308300  1
  O  O10  1  0.51728700  0.15754800  0.71308300  1
  O  O11  1  0.01728700  0.84245200  0.78691700  1
loop_
_geom_bond_atom_site_label_1
_geom_bond_atom_site_label_2
_geom_bond_distance
_geom_bond_site_symmetry_2
Cu0 O7 1.963078 1_454
Cu0 O5 1.963078 1_545
Cu0 O2 1.988850 1_554
Cu0 O4 1.988850 1_445
Cu0 O9 2.510114 1_455
Cu0 O11 2.510114 1_544
Cu1 O3 1.963078 1_555
Cu1 O6 1.963078 1_545
Cu1 O0 1.988850 1_545
Cu1 O1 1.988850 1_555
Cu1 O10 2.510114 1_555
Cu1 O8 2.510114 1_545
H0 O8 1.017249 1_555
H0 O2 1.653854 1_564
H1 O9 1.017249 1_555
H1 O0 1.653854 1_545
H2 O11 1.017249 1_555
H2 O1 1.653854 1_565
H3 O10 1.017249 1_555
H3 O4 1.653854 1_546
O0 Se1 1.730142 1_555
O1 Se2 1.730142 1_555
O2 Se0 1.730142 1_555
O3 Se3 1.707008 1_555
O4 Se3 1.730142 1_555
O5 Se2 1.707008 1_555
O6 Se0 1.707008 1_555
O7 Se1 1.707008 1_555
O8 Se3 1.812642 1_555
O9 Se2 1.812642 1_655
O10 Se0 1.812642 1_555
O11 Se1 1.812642 1_455
