# generated using pymatgen
data_Na3HfTa(GeO4)3
_symmetry_space_group_name_H-M   'P 1'
_cell_length_a   16.25634881
_cell_length_b   9.41727624
_cell_length_c   9.32103456
_cell_angle_alpha   90.00000000
_cell_angle_beta   124.94016882
_cell_angle_gamma   90.00000000
_symmetry_Int_Tables_number   1
_chemical_formula_structural   Na3HfTa(GeO4)3
_chemical_formula_sum   'Na12 Hf4 Ta4 Ge12 O48'
_cell_volume   1169.75297126
_cell_formula_units_Z   4
loop_
 _symmetry_equiv_pos_site_id
 _symmetry_equiv_pos_as_xyz
  1  'x, y, z'
loop_
 _atom_site_type_symbol
 _atom_site_label
 _atom_site_symmetry_multiplicity
 _atom_site_fract_x
 _atom_site_fract_y
 _atom_site_fract_z
 _atom_site_occupancy
  Na  Na0  1  0.25383238  0.72570733  0.99779609  1
  Na  Na1  1  0.75383238  0.77429267  0.49779609  1
  Na  Na2  1  0.75383238  0.22570733  0.99779609  1
  Na  Na3  1  0.25383238  0.27429267  0.49779609  1
  Na  Na4  1  0.49887086  0.11645060  0.74450867  1
  Na  Na5  1  0.49887086  0.88354940  0.24450867  1
  Na  Na6  1  0.99887086  0.61645060  0.74450867  1
  Na  Na7  1  0.99887086  0.38354940  0.24450867  1
  Na  Na8  1  0.19031511  0.94465775  0.28942240  1
  Na  Na9  1  0.19031511  0.05534225  0.78942240  1
  Na  Na10  1  0.69031511  0.44465775  0.28942240  1
  Na  Na11  1  0.69031511  0.55534225  0.78942240  1
  Hf  Hf0  1  0.10659498  0.74978506  0.56922609  1
  Hf  Hf1  1  0.10659498  0.25021494  0.06922609  1
  Hf  Hf2  1  0.60659498  0.24978506  0.56922609  1
  Hf  Hf3  1  0.60659498  0.75021494  0.06922609  1
  Ta  Ta0  1  0.89266551  0.75207291  0.93144250  1
  Ta  Ta1  1  0.89266551  0.24792709  0.43144250  1
  Ta  Ta2  1  0.39266551  0.25207291  0.93144250  1
  Ta  Ta3  1  0.39266551  0.74792709  0.43144250  1
  Ge  Ge0  1  0.99642789  0.95996131  0.75507299  1
  Ge  Ge1  1  0.99642789  0.04003869  0.25507299  1
  Ge  Ge2  1  0.49642789  0.45996131  0.75507299  1
  Ge  Ge3  1  0.49642789  0.54003869  0.25507299  1
  Ge  Ge4  1  0.35497055  0.89445897  0.75725360  1
  Ge  Ge5  1  0.64517396  0.89243460  0.74359795  1
  Ge  Ge6  1  0.64517396  0.10756540  0.24359795  1
  Ge  Ge7  1  0.35497055  0.10554103  0.25725360  1
  Ge  Ge8  1  0.85497055  0.39445897  0.75725360  1
  Ge  Ge9  1  0.14517396  0.39243460  0.74359795  1
  Ge  Ge10  1  0.14517396  0.60756540  0.24359795  1
  Ge  Ge11  1  0.85497055  0.60554103  0.25725360  1
  O  O0  1  0.15233362  0.57692471  0.74541281  1
  O  O1  1  0.85021296  0.58464723  0.75814573  1
  O  O2  1  0.85021296  0.41535277  0.25814573  1
  O  O3  1  0.15233362  0.42307529  0.24541281  1
  O  O4  1  0.65233362  0.07692471  0.74541281  1
  O  O5  1  0.35021296  0.08464723  0.75814573  1
  O  O6  1  0.35021296  0.91535277  0.25814573  1
  O  O7  1  0.65233362  0.92307529  0.24541281  1
  O  O8  1  0.42933740  0.57983735  0.57285247  1
  O  O9  1  0.57168119  0.56022924  0.94292753  1
  O  O10  1  0.57168119  0.43977076  0.44292753  1
  O  O11  1  0.42933740  0.42016265  0.07285247  1
  O  O12  1  0.92933740  0.07983735  0.57285247  1
  O  O13  1  0.07168119  0.06022924  0.94292753  1
  O  O14  1  0.07168119  0.93977076  0.44292753  1
  O  O15  1  0.92933740  0.92016265  0.07285247  1
  O  O16  1  0.25182376  0.83284123  0.75145569  1
  O  O17  1  0.74422630  0.80032435  0.75624140  1
  O  O18  1  0.74422630  0.19967565  0.25624140  1
  O  O19  1  0.25182376  0.16715877  0.25145569  1
  O  O20  1  0.75182376  0.33284123  0.75145569  1
  O  O21  1  0.24422630  0.30032435  0.75624140  1
  O  O22  1  0.24422630  0.69967565  0.25624140  1
  O  O23  1  0.75182376  0.66715877  0.25145569  1
  O  O24  1  0.35512344  0.85872841  0.56732483  1
  O  O25  1  0.64227756  0.84278112  0.91990466  1
  O  O26  1  0.64227756  0.15721888  0.41990466  1
  O  O27  1  0.35512344  0.14127159  0.06732483  1
  O  O28  1  0.85512344  0.35872841  0.56732483  1
  O  O29  1  0.14227756  0.34278112  0.91990466  1
  O  O30  1  0.14227756  0.65721888  0.41990466  1
  O  O31  1  0.85512344  0.64127159  0.06732483  1
  O  O32  1  0.46570580  0.83554502  0.94525783  1
  O  O33  1  0.53092816  0.82444846  0.55199398  1
  O  O34  1  0.53092816  0.17555154  0.05199398  1
  O  O35  1  0.46570580  0.16445498  0.44525783  1
  O  O36  1  0.96570580  0.33554502  0.94525783  1
  O  O37  1  0.03092816  0.32444846  0.55199398  1
  O  O38  1  0.03092816  0.67555154  0.05199398  1
  O  O39  1  0.96570580  0.66445498  0.44525783  1
  O  O40  1  0.07911001  0.84786718  0.74448810  1
  O  O41  1  0.90838955  0.84972544  0.75567469  1
  O  O42  1  0.90838955  0.15027456  0.25567469  1
  O  O43  1  0.07911001  0.15213282  0.24448810  1
  O  O44  1  0.57911001  0.34786718  0.74448810  1
  O  O45  1  0.40838955  0.34972544  0.75567469  1
  O  O46  1  0.40838955  0.65027456  0.25567469  1
  O  O47  1  0.57911001  0.65213282  0.24448810  1
loop_
_geom_bond_atom_site_label_1
_geom_bond_atom_site_label_2
_geom_bond_distance
_geom_bond_site_symmetry_2
Na0 O46 2.382744 1_556
Na0 O0 2.402845 1_555
Na0 O16 2.491059 1_555
Na0 O22 2.513674 1_556
Na0 O6 2.679229 1_556
Na0 O40 2.698904 1_555
Na1 O41 2.382744 1_555
Na1 O7 2.402845 1_555
Na1 O23 2.491059 1_555
Na1 O17 2.513674 1_555
Na1 O1 2.679229 1_555
Na1 O47 2.698904 1_555
Na2 O42 2.382744 1_556
Na2 O4 2.402845 1_555
Na2 O20 2.491059 1_555
Na2 O18 2.513674 1_556
Na2 O2 2.679229 1_556
Na2 O44 2.698904 1_555
Na3 O45 2.382744 1_555
Na3 O3 2.402845 1_555
Na3 O19 2.491059 1_555
Na3 O21 2.513674 1_555
Na3 O5 2.679229 1_555
Na3 O43 2.698904 1_555
Na4 O5 2.509550 1_555
Na4 O4 2.517596 1_555
Na4 O44 2.539910 1_555
Na4 O35 2.559848 1_555
Na4 O34 2.661752 1_556
Na4 O45 2.678752 1_555
Na5 O6 2.509550 1_555
Na5 O7 2.517596 1_555
Na5 O47 2.539910 1_555
Na5 O32 2.559848 1_554
Na5 O33 2.661752 1_555
Na5 O46 2.678752 1_555
Na6 O1 2.509550 1_555
Na6 O0 2.517596 1_655
Na6 O40 2.539910 1_655
Na6 O39 2.559848 1_555
Na6 O38 2.661752 1_656
Na6 O41 2.678752 1_555
Na7 O2 2.509550 1_555
Na7 O3 2.517596 1_655
Na7 O43 2.539910 1_655
Na7 O36 2.559848 1_554
Na7 O37 2.661752 1_655
Na7 O42 2.678752 1_555
Na8 O19 2.433285 1_565
Na8 O43 2.528590 1_565
Na8 O22 2.548873 1_555
Na8 O24 2.567753 1_555
Na8 O6 2.790306 1_555
Na8 O13 2.863605 1_564
Na8 O14 2.988221 1_555
Na9 O16 2.433285 1_545
Na9 O40 2.528590 1_545
Na9 O21 2.548873 1_555
Na9 O27 2.567753 1_556
Na9 O5 2.790306 1_555
Na9 O14 2.863605 1_545
Na9 O13 2.988221 1_555
Na10 O23 2.433285 1_555
Na10 O47 2.528590 1_555
Na10 O18 2.548873 1_555
Na10 O28 2.567753 1_555
Na10 O2 2.790306 1_555
Na10 O9 2.863605 1_554
Na10 O10 2.988221 1_555
Na11 O20 2.433285 1_555
Na11 O44 2.528590 1_555
Na11 O17 2.548873 1_555
Na11 O31 2.567753 1_556
Na11 O1 2.790306 1_555
Na11 O10 2.863605 1_555
Na11 O9 2.988221 1_555
Hf0 O30 1.989560 1_555
Hf0 O14 2.035614 1_555
Hf0 O39 2.048215 1_455
Hf0 O16 2.115973 1_555
Hf0 O0 2.121583 1_555
Hf0 O40 2.134851 1_555
Hf1 O29 1.989560 1_554
Hf1 O13 2.035614 1_554
Hf1 O36 2.048215 1_454
Hf1 O19 2.115973 1_555
Hf1 O3 2.121583 1_555
Hf1 O43 2.134851 1_555
Hf2 O26 1.989560 1_555
Hf2 O10 2.035614 1_555
Hf2 O35 2.048215 1_555
Hf2 O20 2.115973 1_555
Hf2 O4 2.121583 1_555
Hf2 O44 2.134851 1_555
Hf3 O25 1.989560 1_554
Hf3 O9 2.035614 1_554
Hf3 O32 2.048215 1_554
Hf3 O23 2.115973 1_555
Hf3 O7 2.121583 1_555
Hf3 O47 2.134851 1_555
Ge0 O13 1.732211 1_665
Ge0 O40 1.755734 1_655
Ge0 O41 1.770651 1_555
Ge0 O12 1.796362 1_565
Ge1 O14 1.732211 1_645
Ge1 O43 1.755734 1_655
Ge1 O42 1.770651 1_555
Ge1 O15 1.796362 1_545
Ge2 O9 1.732211 1_555
Ge2 O44 1.755734 1_555
Ge2 O45 1.770651 1_555
Ge2 O8 1.796362 1_555
Ge3 O10 1.732211 1_555
Ge3 O47 1.755734 1_555
Ge3 O46 1.770651 1_555
Ge3 O11 1.796362 1_555
Ge4 O32 1.733742 1_555
Ge4 O16 1.745698 1_555
Ge4 O5 1.792949 1_565
Ge4 O24 1.803426 1_555
Ge5 O25 1.734974 1_555
Ge5 O4 1.740723 1_565
Ge5 O17 1.772510 1_555
Ge5 O33 1.802630 1_555
Ge6 O26 1.734974 1_555
Ge6 O7 1.740723 1_545
Ge6 O18 1.772510 1_555
Ge6 O34 1.802630 1_555
Ge7 O35 1.733742 1_555
Ge7 O19 1.745698 1_555
Ge7 O6 1.792949 1_545
Ge7 O27 1.803426 1_555
Ge8 O36 1.733742 1_555
Ge8 O20 1.745698 1_555
Ge8 O1 1.792949 1_555
Ge8 O28 1.803426 1_555
Ge9 O29 1.734974 1_555
Ge9 O0 1.740723 1_555
Ge9 O21 1.772510 1_555
Ge9 O37 1.802630 1_555
Ge10 O30 1.734974 1_555
Ge10 O3 1.740723 1_555
Ge10 O22 1.772510 1_555
Ge10 O38 1.802630 1_555
Ge11 O39 1.733742 1_555
Ge11 O23 1.745698 1_555
Ge11 O2 1.792949 1_555
Ge11 O31 1.803426 1_555
O1 Ta0 2.072330 1_555
O2 Ta1 2.072330 1_555
O5 Ta2 2.072330 1_555
O6 Ta3 2.072330 1_555
O8 Ta3 1.923125 1_555
O11 Ta2 1.923125 1_554
O12 Ta1 1.923125 1_555
O15 Ta0 1.923125 1_554
O17 Ta0 2.045108 1_555
O18 Ta1 2.045108 1_555
O21 Ta2 2.045108 1_555
O22 Ta3 2.045108 1_555
O24 Ta3 1.987670 1_555
O27 Ta2 1.987670 1_554
O28 Ta1 1.987670 1_555
O31 Ta0 1.987670 1_554
O33 Ta3 1.985171 1_555
O34 Ta2 1.985171 1_554
O37 Ta1 1.985171 1_455
O38 Ta0 1.985171 1_454
O41 Ta0 2.018635 1_555
O42 Ta1 2.018635 1_555
O45 Ta2 2.018635 1_555
O46 Ta3 2.018635 1_555
