# generated using pymatgen
data_EuNb2O6
_symmetry_space_group_name_H-M   'P 1'
_cell_length_a   5.49297716
_cell_length_b   7.67009157
_cell_length_c   11.23407665
_cell_angle_alpha   89.95571639
_cell_angle_beta   90.00000000
_cell_angle_gamma   90.00000000
_symmetry_Int_Tables_number   1
_chemical_formula_structural   EuNb2O6
_chemical_formula_sum   'Eu4 Nb8 O24'
_cell_volume   473.30990716
_cell_formula_units_Z   4
loop_
 _symmetry_equiv_pos_site_id
 _symmetry_equiv_pos_as_xyz
  1  'x, y, z'
loop_
 _atom_site_type_symbol
 _atom_site_label
 _atom_site_symmetry_multiplicity
 _atom_site_fract_x
 _atom_site_fract_y
 _atom_site_fract_z
 _atom_site_occupancy
  Eu  Eu0  1  0.54271497  0.74997924  0.04233194  1
  Eu  Eu1  1  0.04271497  0.25002076  0.45766806  1
  Eu  Eu2  1  0.45728503  0.25002076  0.95766806  1
  Eu  Eu3  1  0.95728503  0.74997924  0.54233194  1
  Nb  Nb0  1  0.03324308  0.00381571  0.14294274  1
  Nb  Nb1  1  0.53324308  0.99618429  0.35705726  1
  Nb  Nb2  1  0.96675692  0.99618429  0.85705726  1
  Nb  Nb3  1  0.46675692  0.00381571  0.64294274  1
  Nb  Nb4  1  0.46569299  0.49227715  0.64278533  1
  Nb  Nb5  1  0.96569299  0.50772285  0.85721467  1
  Nb  Nb6  1  0.53430701  0.50772285  0.35721467  1
  Nb  Nb7  1  0.03430701  0.49227715  0.14278533  1
  O  O0  1  0.22703738  0.96074156  0.97454982  1
  O  O1  1  0.72703738  0.03925844  0.52545018  1
  O  O2  1  0.77296262  0.03925844  0.02545018  1
  O  O3  1  0.27296262  0.96074156  0.47454982  1
  O  O4  1  0.27286491  0.53916631  0.47455563  1
  O  O5  1  0.77286491  0.46083369  0.02544437  1
  O  O6  1  0.72713509  0.46083369  0.52544437  1
  O  O7  1  0.22713509  0.53916631  0.97455563  1
  O  O8  1  0.37345908  0.94376914  0.20947975  1
  O  O9  1  0.87345908  0.05623086  0.29052025  1
  O  O10  1  0.62654092  0.05623086  0.79052025  1
  O  O11  1  0.12654092  0.94376914  0.70947975  1
  O  O12  1  0.12714797  0.55661965  0.70952896  1
  O  O13  1  0.62714797  0.44338035  0.79047104  1
  O  O14  1  0.87285203  0.44338035  0.29047104  1
  O  O15  1  0.37285203  0.55661965  0.20952896  1
  O  O16  1  0.95523149  0.74966350  0.14589751  1
  O  O17  1  0.45523149  0.25033650  0.35410249  1
  O  O18  1  0.04476851  0.25033650  0.85410249  1
  O  O19  1  0.54476851  0.74966350  0.64589751  1
  O  O20  1  0.15247592  0.24959738  0.12453249  1
  O  O21  1  0.65247592  0.75040262  0.37546751  1
  O  O22  1  0.84752408  0.75040262  0.87546751  1
  O  O23  1  0.34752408  0.24959738  0.62453249  1
loop_
_geom_bond_atom_site_label_1
_geom_bond_atom_site_label_2
_geom_bond_distance
_geom_bond_site_symmetry_2
Eu0 O0 2.489580 1_554
Eu0 O7 2.490203 1_554
Eu0 O22 2.513427 1_554
Eu0 O16 2.547185 1_555
Eu0 O5 2.559957 1_555
Eu0 O2 2.560852 1_565
Eu0 O15 2.567850 1_555
Eu0 O8 2.569822 1_555
Eu1 O1 2.489580 1_455
Eu1 O6 2.490203 1_455
Eu1 O23 2.513427 1_555
Eu1 O17 2.547185 1_555
Eu1 O4 2.559957 1_555
Eu1 O3 2.560852 1_545
Eu1 O14 2.567850 1_455
Eu1 O9 2.569822 1_455
Eu2 O2 2.489580 1_556
Eu2 O5 2.490203 1_556
Eu2 O20 2.513427 1_556
Eu2 O18 2.547185 1_555
Eu2 O7 2.559957 1_555
Eu2 O0 2.560852 1_545
Eu2 O13 2.567850 1_555
Eu2 O10 2.569822 1_555
Eu3 O3 2.489580 1_655
Eu3 O4 2.490203 1_655
Eu3 O21 2.513427 1_555
Eu3 O19 2.547185 1_555
Eu3 O6 2.559957 1_555
Eu3 O1 2.560852 1_565
Eu3 O12 2.567850 1_655
Eu3 O11 2.569822 1_655
Nb0 O9 1.918755 1_455
Nb0 O2 1.964592 1_455
Nb0 O16 1.996165 1_445
Nb0 O20 2.006236 1_555
Nb0 O8 2.064636 1_545
Nb0 O0 2.195899 1_544
Nb1 O8 1.918755 1_555
Nb1 O3 1.964592 1_555
Nb1 O17 1.996165 1_565
Nb1 O21 2.006236 1_555
Nb1 O9 2.064636 1_565
Nb1 O1 2.195899 1_565
Nb2 O11 1.918755 1_655
Nb2 O0 1.964592 1_655
Nb2 O18 1.996165 1_665
Nb2 O22 2.006236 1_555
Nb2 O10 2.064636 1_565
Nb2 O2 2.195899 1_566
Nb3 O10 1.918755 1_555
Nb3 O1 1.964592 1_555
Nb3 O19 1.996165 1_545
Nb3 O23 2.006236 1_555
Nb3 O11 2.064636 1_545
Nb3 O3 2.195899 1_545
Nb4 O13 1.918042 1_555
Nb4 O6 1.964363 1_555
Nb4 O23 1.982092 1_555
Nb4 O19 2.021725 1_555
Nb4 O12 2.065071 1_555
Nb4 O4 2.195892 1_555
Nb5 O12 1.918042 1_655
Nb5 O7 1.964363 1_655
Nb5 O22 1.982092 1_555
Nb5 O18 2.021725 1_655
Nb5 O13 2.065071 1_555
Nb5 O5 2.195892 1_556
Nb6 O15 1.918042 1_555
Nb6 O4 1.964363 1_555
Nb6 O21 1.982092 1_555
Nb6 O17 2.021725 1_555
Nb6 O14 2.065071 1_555
Nb6 O6 2.195892 1_555
Nb7 O14 1.918042 1_455
Nb7 O5 1.964363 1_455
Nb7 O20 1.982092 1_555
Nb7 O16 2.021725 1_455
Nb7 O15 2.065071 1_555
Nb7 O7 2.195892 1_554
