# generated using pymatgen
data_MgNb4(SnO6)2
_symmetry_space_group_name_H-M   'P 1'
_cell_length_a   5.08472636
_cell_length_b   5.66439276
_cell_length_c   9.49641984
_cell_angle_alpha   89.11471953
_cell_angle_beta   107.72361123
_cell_angle_gamma   89.88597843
_symmetry_Int_Tables_number   1
_chemical_formula_structural   MgNb4(SnO6)2
_chemical_formula_sum   'Mg1 Nb4 Sn2 O12'
_cell_volume   260.49520420
_cell_formula_units_Z   1
loop_
 _symmetry_equiv_pos_site_id
 _symmetry_equiv_pos_as_xyz
  1  'x, y, z'
loop_
 _atom_site_type_symbol
 _atom_site_label
 _atom_site_symmetry_multiplicity
 _atom_site_fract_x
 _atom_site_fract_y
 _atom_site_fract_z
 _atom_site_occupancy
  Mg  Mg0  1  0.00108700  0.99750900  0.50286600  1
  Nb  Nb0  1  0.41345400  0.13283800  0.34053600  1
  Nb  Nb1  1  0.08310600  0.38882000  0.68284100  1
  Nb  Nb2  1  0.58900300  0.86109200  0.66546700  1
  Nb  Nb3  1  0.91944600  0.60551500  0.32332100  1
  Sn  Sn0  1  0.78012600  0.23590500  0.99582000  1
  Sn  Sn1  1  0.22387500  0.75779900  0.01056200  1
  O  O0  1  0.72451900  0.16842100  0.56699700  1
  O  O1  1  0.14448100  0.31861500  0.43065000  1
  O  O2  1  0.27631400  0.82471900  0.43869200  1
  O  O3  1  0.85746600  0.67444900  0.57492600  1
  O  O4  1  0.59741300  0.40893000  0.28866200  1
  O  O5  1  0.29891600  0.08344200  0.69640000  1
  O  O6  1  0.97472700  0.58560000  0.13626700  1
  O  O7  1  0.84684300  0.91450600  0.85991800  1
  O  O8  1  0.02983200  0.40788000  0.87029000  1
  O  O9  1  0.15676300  0.07859800  0.14563600  1
  O  O10  1  0.70282300  0.91041400  0.30927800  1
  O  O11  1  0.40480600  0.58542400  0.71801500  1
loop_
_geom_bond_atom_site_label_1
_geom_bond_atom_site_label_2
_geom_bond_distance
_geom_bond_site_symmetry_2
Mg0 O0 1.954479 1_465
Mg0 O2 1.954499 1_555
Mg0 O5 2.060115 1_565
Mg0 O10 2.063151 1_455
Mg0 O1 2.140419 1_565
Mg0 O3 2.149685 1_455
Nb0 O9 1.942150 1_555
Nb0 O4 1.956001 1_555
Nb0 O10 2.027427 1_545
Nb0 O1 2.108283 1_555
Nb0 O2 2.179803 1_545
Nb0 O0 2.260737 1_555
Nb1 O8 1.884988 1_555
Nb1 O11 1.927057 1_555
Nb1 O5 2.027905 1_555
Nb1 O3 2.051759 1_455
Nb1 O0 2.218901 1_455
Nb1 O1 2.544626 1_555
Nb2 O7 1.940389 1_555
Nb2 O11 1.957239 1_555
Nb2 O5 2.028814 1_565
Nb2 O3 2.111241 1_555
Nb2 O0 2.174057 1_565
Nb2 O2 2.266811 1_555
Nb3 O6 1.886055 1_555
Nb3 O4 1.928724 1_555
Nb3 O10 2.027229 1_555
Nb3 O1 2.054379 1_655
Nb3 O2 2.208015 1_655
Nb3 O3 2.539207 1_555
O6 Sn1 2.207046 1_655
O6 Sn0 2.442846 1_554
O7 Sn1 2.189506 1_656
O7 Sn0 2.330606 1_565
O8 Sn0 2.207417 1_455
O8 Sn1 2.442483 1_556
O9 Sn0 2.186508 1_454
O9 Sn1 2.323758 1_545
