# generated using pymatgen
data_TlAs5S8
_symmetry_space_group_name_H-M   'P 1'
_cell_length_a   8.15640200
_cell_length_b   11.36088500
_cell_length_c   15.98780481
_cell_angle_alpha   88.40689313
_cell_angle_beta   90.00000000
_cell_angle_gamma   90.00000000
_symmetry_Int_Tables_number   1
_chemical_formula_structural   TlAs5S8
_chemical_formula_sum   'Tl4 As20 S32'
_cell_volume   1480.92042218
_cell_formula_units_Z   4
loop_
 _symmetry_equiv_pos_site_id
 _symmetry_equiv_pos_as_xyz
  1  'x, y, z'
loop_
 _atom_site_type_symbol
 _atom_site_label
 _atom_site_symmetry_multiplicity
 _atom_site_fract_x
 _atom_site_fract_y
 _atom_site_fract_z
 _atom_site_occupancy
  Tl  Tl0  1  0.66493800  0.66366100  0.28500500  1
  Tl  Tl1  1  0.16493800  0.83633900  0.71499500  1
  Tl  Tl2  1  0.33506200  0.33633900  0.71499500  1
  Tl  Tl3  1  0.83506200  0.16366100  0.28500500  1
  As  As0  1  0.72120900  0.63809500  0.88938400  1
  As  As1  1  0.22120900  0.86190500  0.11061600  1
  As  As2  1  0.27879100  0.36190500  0.11061600  1
  As  As3  1  0.77879100  0.13809500  0.88938400  1
  As  As4  1  0.62021600  0.60842700  0.57683600  1
  As  As5  1  0.12021600  0.89157300  0.42316400  1
  As  As6  1  0.37978400  0.39157300  0.42316400  1
  As  As7  1  0.87978400  0.10842700  0.57683600  1
  As  As8  1  0.14283300  0.55289700  0.26179000  1
  As  As9  1  0.64283300  0.94710300  0.73821000  1
  As  As10  1  0.85716700  0.44710300  0.73821000  1
  As  As11  1  0.35716700  0.05289700  0.26179000  1
  As  As12  1  0.96396200  0.62010600  0.06735000  1
  As  As13  1  0.46396200  0.87989400  0.93265000  1
  As  As14  1  0.03603800  0.37989400  0.93265000  1
  As  As15  1  0.53603800  0.12010600  0.06735000  1
  As  As16  1  0.17363500  0.58904400  0.55296900  1
  As  As17  1  0.67363500  0.91095600  0.44703100  1
  As  As18  1  0.82636500  0.41095600  0.44703100  1
  As  As19  1  0.32636500  0.08904400  0.55296900  1
  S  S0  1  0.68061500  0.13279900  0.68482900  1
  S  S1  1  0.18061500  0.36720100  0.31517100  1
  S  S2  1  0.31938500  0.86720100  0.31517100  1
  S  S3  1  0.81938500  0.63279900  0.68482900  1
  S  S4  1  0.83183700  0.94855700  0.84817100  1
  S  S5  1  0.33183700  0.55144300  0.15182900  1
  S  S6  1  0.16816300  0.05144300  0.15182900  1
  S  S7  1  0.66816300  0.44855700  0.84817100  1
  S  S8  1  0.95662800  0.79992100  0.12996800  1
  S  S9  1  0.45662800  0.70007900  0.87003200  1
  S  S10  1  0.04337200  0.20007900  0.87003200  1
  S  S11  1  0.54337200  0.29992100  0.12996800  1
  S  S12  1  0.91624800  0.49719100  0.18257200  1
  S  S13  1  0.41624800  0.00280900  0.81742800  1
  S  S14  1  0.08375200  0.50280900  0.81742800  1
  S  S15  1  0.58375200  0.99719100  0.18257200  1
  S  S16  1  0.69188000  0.61443000  0.03269100  1
  S  S17  1  0.19188000  0.88557000  0.96730900  1
  S  S18  1  0.30812000  0.38557000  0.96730900  1
  S  S19  1  0.80812000  0.11443000  0.03269100  1
  S  S20  1  0.60966700  0.40067400  0.34017000  1
  S  S21  1  0.10966700  0.09932600  0.65983000  1
  S  S22  1  0.39033300  0.59932600  0.65983000  1
  S  S23  1  0.89033300  0.90067400  0.34017000  1
  S  S24  1  0.88573200  0.59950400  0.43002500  1
  S  S25  1  0.38573200  0.90049600  0.56997500  1
  S  S26  1  0.11426800  0.40049600  0.56997500  1
  S  S27  1  0.61426800  0.09950400  0.43002500  1
  S  S28  1  0.85736000  0.90920800  0.56209600  1
  S  S29  1  0.35736000  0.59079200  0.43790400  1
  S  S30  1  0.14264000  0.09079200  0.43790400  1
  S  S31  1  0.64264000  0.40920800  0.56209600  1
loop_
_geom_bond_atom_site_label_1
_geom_bond_atom_site_label_2
_geom_bond_distance
_geom_bond_site_symmetry_2
As0 S9 2.288359 1_555
As0 S7 2.310201 1_555
As0 S16 2.311859 1_556
As1 S8 2.288359 1_455
As1 S6 2.310201 1_565
As1 S17 2.311859 1_554
As2 S11 2.288359 1_555
As2 S5 2.310201 1_555
As2 S18 2.311859 1_554
As3 S10 2.288359 1_655
As3 S4 2.310201 1_545
As3 S19 2.311859 1_556
As4 S31 2.289365 1_555
As4 S22 2.297694 1_555
As4 S3 2.392343 1_555
As5 S30 2.289365 1_565
As5 S23 2.297694 1_455
As5 S2 2.392343 1_555
As6 S29 2.289365 1_555
As6 S20 2.297694 1_555
As6 S1 2.392343 1_555
As7 S28 2.289365 1_545
As7 S21 2.297694 1_655
As7 S0 2.392343 1_555
As8 S1 2.274628 1_555
As8 S12 2.337672 1_455
As8 S5 2.338607 1_555
As9 S0 2.274628 1_565
As9 S13 2.337672 1_565
As9 S4 2.338607 1_555
As10 S3 2.274628 1_555
As10 S14 2.337672 1_655
As10 S7 2.338607 1_555
As11 S2 2.274628 1_545
As11 S15 2.337672 1_545
As11 S6 2.338607 1_555
As12 S16 2.288687 1_555
As12 S8 2.300611 1_555
As12 S12 2.313423 1_555
As13 S17 2.288687 1_555
As13 S9 2.300611 1_555
As13 S13 2.313423 1_565
As14 S18 2.288687 1_555
As14 S10 2.300611 1_555
As14 S14 2.313423 1_555
As15 S19 2.288687 1_555
As15 S11 2.300611 1_555
As15 S15 2.313423 1_545
As16 S26 2.205557 1_555
As16 S29 2.372390 1_555
As16 S22 2.463248 1_555
As17 S27 2.205557 1_565
As17 S28 2.372390 1_555
As17 S23 2.463248 1_555
As18 S24 2.205557 1_555
As18 S31 2.372390 1_555
As18 S20 2.463248 1_555
As19 S25 2.205557 1_545
As19 S30 2.372390 1_555
As19 S21 2.463248 1_555
S20 Tl0 3.124311 1_555
S21 Tl1 3.124311 1_545
S22 Tl2 3.124311 1_555
S23 Tl3 3.124311 1_565
S24 Tl0 3.009347 1_555
S25 Tl1 3.009347 1_555
S26 Tl2 3.009347 1_555
S27 Tl3 3.009347 1_555
