# generated using pymatgen
data_Na3LaMg3(SO4)6
_symmetry_space_group_name_H-M   'P 1'
_cell_length_a   8.95313221
_cell_length_b   8.95612298
_cell_length_c   23.34727698
_cell_angle_alpha   89.96890678
_cell_angle_beta   90.05136530
_cell_angle_gamma   120.00360099
_symmetry_Int_Tables_number   1
_chemical_formula_structural   Na3LaMg3(SO4)6
_chemical_formula_sum   'Na9 La3 Mg9 S18 O72'
_cell_volume   1621.23502041
_cell_formula_units_Z   3
loop_
 _symmetry_equiv_pos_site_id
 _symmetry_equiv_pos_as_xyz
  1  'x, y, z'
loop_
 _atom_site_type_symbol
 _atom_site_label
 _atom_site_symmetry_multiplicity
 _atom_site_fract_x
 _atom_site_fract_y
 _atom_site_fract_z
 _atom_site_occupancy
  Na  Na0  1  0.63449892  0.99856442  0.24861866  1
  Na  Na1  1  0.36483974  0.36442976  0.24829845  1
  Na  Na2  1  0.02675447  0.69507017  0.58769942  1
  Na  Na3  1  0.99889208  0.01098252  0.49886963  1
  Na  Na4  1  0.99990220  0.99911653  0.99782587  1
  Na  Na5  1  0.66578816  0.33228220  0.82751854  1
  Na  Na6  1  0.68034134  0.34589326  0.33200109  1
  Na  Na7  1  0.32128523  0.66563312  0.15917953  1
  Na  Na8  1  0.34583758  0.66541548  0.66424501  1
  La  La0  1  0.66694499  0.33361539  0.98623410  1
  La  La1  1  0.66225694  0.32848685  0.48122296  1
  La  La2  1  0.33322891  0.66668503  0.80957096  1
  Mg  Mg0  1  0.99968251  0.99629796  0.35146162  1
  Mg  Mg1  1  0.00017901  0.00103998  0.84852652  1
  Mg  Mg2  1  0.99956865  0.00567134  0.65223319  1
  Mg  Mg3  1  0.00029463  0.99679609  0.15035311  1
  Mg  Mg4  1  0.66294107  0.32979501  0.68648629  1
  Mg  Mg5  1  0.67524863  0.34105779  0.17756817  1
  Mg  Mg6  1  0.33266857  0.66671280  0.01671473  1
  Mg  Mg7  1  0.34104325  0.66560402  0.51497034  1
  Mg  Mg8  1  0.32552819  0.66586493  0.31750576  1
  S  S0  1  0.29150897  0.99979954  0.25046891  1
  S  S1  1  0.70932790  0.70727437  0.25067665  1
  S  S2  1  0.99908809  0.28982897  0.25052666  1
  S  S3  1  0.29269058  0.27530328  0.74671596  1
  S  S4  1  0.98268365  0.70695847  0.74546497  1
  S  S5  1  0.72457031  0.01729714  0.74661950  1
  S  S6  1  0.97184580  0.33376553  0.58700627  1
  S  S7  1  0.36046689  0.02720845  0.58768716  1
  S  S8  1  0.66696970  0.63840945  0.58739932  1
  S  S9  1  0.97620506  0.64270748  0.08815286  1
  S  S10  1  0.66649167  0.02338491  0.08985149  1
  S  S11  1  0.35689470  0.33350789  0.08978370  1
  S  S12  1  0.63960391  0.68367858  0.91840235  1
  S  S13  1  0.04400601  0.36032415  0.91836452  1
  S  S14  1  0.31635699  0.95599075  0.91829776  1
  S  S15  1  0.62620188  0.94446833  0.41202521  1
  S  S16  1  0.31864257  0.37383887  0.41209273  1
  S  S17  1  0.05413049  0.68103311  0.41482532  1
  O  O0  1  0.21233314  0.02974236  0.30164569  1
  O  O1  1  0.81281962  0.78609503  0.30247452  1
  O  O2  1  0.96784813  0.17980109  0.30182346  1
  O  O3  1  0.21097012  0.18416359  0.80053960  1
  O  O4  1  0.97358636  0.79266024  0.79804686  1
  O  O5  1  0.81598971  0.02719174  0.80046949  1
  O  O6  1  0.80901891  0.99808565  0.69596082  1
  O  O7  1  0.18942938  0.19028795  0.69601343  1
  O  O8  1  0.00129042  0.80701738  0.69288501  1
  O  O9  1  0.78872448  0.81692290  0.19991805  1
  O  O10  1  0.03013264  0.21056705  0.19971611  1
  O  O11  1  0.18790641  0.97555898  0.19905599  1
  O  O12  1  0.88091382  0.36442775  0.63457489  1
  O  O13  1  0.47586567  0.11787915  0.63554671  1
  O  O14  1  0.64125733  0.52241178  0.63575421  1
  O  O15  1  0.88341782  0.52418667  0.13657078  1
  O  O16  1  0.64202420  0.11325057  0.14022988  1
  O  O17  1  0.47133020  0.35806090  0.14019264  1
  O  O18  1  0.43034093  0.30170387  0.03730450  1
  O  O19  1  0.87492333  0.57469590  0.03451463  1
  O  O20  1  0.69868319  0.12884016  0.03734334  1
  O  O21  1  0.42836476  0.12675918  0.53340770  1
  O  O22  1  0.70467306  0.56808647  0.53410032  1
  O  O23  1  0.87032686  0.30207155  0.53288198  1
  O  O24  1  0.54764653  0.69405176  0.96928158  1
  O  O25  1  0.14638354  0.45236893  0.96924747  1
  O  O26  1  0.30614506  0.85371724  0.96921917  1
  O  O27  1  0.54012542  0.84863690  0.46475021  1
  O  O28  1  0.30831067  0.45959054  0.46478997  1
  O  O29  1  0.14431960  0.69166584  0.46970445  1
  O  O30  1  0.14154001  0.66128883  0.36496150  1
  O  O31  1  0.52511183  0.86301910  0.35959634  1
  O  O32  1  0.33891363  0.47520667  0.35963951  1
  O  O33  1  0.11872530  0.46202545  0.86547725  1
  O  O34  1  0.34305885  0.88115426  0.86543414  1
  O  O35  1  0.53787339  0.65685261  0.86548557  1
  O  O36  1  0.03566649  0.83637264  0.40982850  1
  O  O37  1  0.80046682  0.96396878  0.40873402  1
  O  O38  1  0.16366970  0.19973451  0.40858756  1
  O  O39  1  0.03122683  0.18991337  0.91313622  1
  O  O40  1  0.15870884  0.96879706  0.91297784  1
  O  O41  1  0.81022899  0.84099926  0.91307794  1
  O  O42  1  0.99581679  0.18451832  0.59492858  1
  O  O43  1  0.18307761  0.00100831  0.59448904  1
  O  O44  1  0.82416164  0.81083109  0.59447442  1
  O  O45  1  0.99518895  0.81449120  0.09724359  1
  O  O46  1  0.81979649  0.00448930  0.09786555  1
  O  O47  1  0.18479042  0.18026289  0.09769491  1
  O  O48  1  0.70451291  0.17234325  0.74255314  1
  O  O49  1  0.46792406  0.29565039  0.74288806  1
  O  O50  1  0.82788622  0.53200002  0.74205397  1
  O  O51  1  0.68140689  0.52844337  0.24344419  1
  O  O52  1  0.84109452  0.30591714  0.24286647  1
  O  O53  1  0.46959357  0.15921415  0.24431394  1
  O  O54  1  0.66201746  0.52931047  0.92124362  1
  O  O55  1  0.86693436  0.33723626  0.92116531  1
  O  O56  1  0.47058709  0.13286331  0.92118633  1
  O  O57  1  0.64543714  0.12135571  0.41403356  1
  O  O58  1  0.47649460  0.35500656  0.41421873  1
  O  O59  1  0.87678542  0.52358857  0.41572307  1
  O  O60  1  0.34623219  0.49204526  0.08213322  1
  O  O61  1  0.14602664  0.65404935  0.08109545  1
  O  O62  1  0.50779131  0.85448647  0.08216507  1
  O  O63  1  0.34191302  0.85210551  0.58007367  1
  O  O64  1  0.51132578  0.65363468  0.57832790  1
  O  O65  1  0.14148539  0.49740859  0.57913267  1
  O  O66  1  0.32003990  0.84936151  0.25736933  1
  O  O67  1  0.53112430  0.68804736  0.25646926  1
  O  O68  1  0.15643769  0.46394734  0.25773943  1
  O  O69  1  0.31357382  0.45291521  0.74693866  1
  O  O70  1  0.13980082  0.68718570  0.74623474  1
  O  O71  1  0.54700770  0.86059013  0.74690198  1
loop_
_geom_bond_atom_site_label_1
_geom_bond_atom_site_label_2
_geom_bond_distance
_geom_bond_site_symmetry_2
Na0 O52 2.434038 1_565
Na0 O66 2.447855 1_555
Na0 O67 2.459649 1_555
Na0 O53 2.526685 1_565
Na0 O16 2.718765 1_565
Na0 O31 2.821057 1_555
Na0 O9 2.845575 1_555
Na0 O2 2.869791 1_565
Na1 O68 2.447149 1_555
Na1 O53 2.447561 1_555
Na1 O51 2.457697 1_555
Na1 O67 2.517527 1_555
Na1 O17 2.709536 1_555
Na1 O32 2.833701 1_555
Na1 O10 2.833945 1_555
Na1 O0 2.882082 1_555
Na2 O43 2.378327 1_565
Na2 O63 2.450147 1_555
Na2 O65 2.459355 1_555
Na2 O44 2.504268 1_455
Na2 O8 2.705629 1_555
Na2 O12 2.793531 1_455
Na2 O22 2.808909 1_455
Na2 O29 2.955587 1_555
Na3 O38 2.642854 1_655
Na3 O37 2.647278 1_545
Na3 O36 2.719439 1_645
Na3 O42 2.737295 1_555
Na3 O44 2.800053 1_545
Na3 O43 2.802081 1_655
Na4 O41 2.529052 1_555
Na4 O40 2.532056 1_655
Na4 O39 2.535014 1_665
Na4 O45 2.837220 1_556
Na4 O47 2.849600 1_666
Na4 O46 2.853465 1_566
Na5 O49 2.561870 1_555
Na5 O48 2.570639 1_555
Na5 O50 2.586943 1_555
Na5 O56 2.812042 1_555
Na5 O55 2.817558 1_555
Na5 O54 2.822626 1_555
Na6 O59 2.577737 1_555
Na6 O51 2.632244 1_555
Na6 O52 2.655544 1_555
Na6 O58 2.679116 1_555
Na6 O57 2.679223 1_555
Na6 O53 2.718192 1_555
Na7 O61 2.372480 1_555
Na7 O60 2.460425 1_555
Na7 O62 2.461633 1_555
Na7 O66 2.825890 1_555
Na7 O68 2.841040 1_555
Na7 O67 2.888775 1_555
Na8 O64 2.528249 1_555
Na8 O63 2.591109 1_555
Na8 O65 2.608388 1_555
Na8 O71 2.621533 1_555
Na8 O69 2.623017 1_555
Na8 O70 2.733420 1_555
La0 O19 2.319004 1_556
La0 O20 2.320853 1_556
La0 O18 2.321519 1_556
La0 O54 2.334625 1_555
La0 O55 2.337030 1_555
La0 O56 2.338095 1_555
La1 O21 2.313467 1_555
La1 O23 2.327527 1_555
La1 O22 2.336698 1_555
La1 O57 2.376589 1_555
La1 O58 2.379020 1_555
La1 O59 2.393070 1_555
La2 O35 2.286024 1_555
La2 O34 2.287311 1_555
La2 O33 2.287582 1_555
La2 O71 2.344796 1_555
La2 O69 2.345292 1_555
La2 O70 2.352138 1_555
Mg0 O36 2.114443 1_655
Mg0 O1 2.121365 1_555
Mg0 O0 2.121436 1_665
Mg0 O37 2.130829 1_555
Mg0 O38 2.139608 1_665
Mg0 O2 2.142696 1_565
Mg1 O3 2.100711 1_555
Mg1 O5 2.101395 1_455
Mg1 O4 2.118059 1_445
Mg1 O39 2.178507 1_555
Mg1 O40 2.183536 1_545
Mg1 O41 2.186870 1_445
Mg2 O6 1.960745 1_545
Mg2 O7 1.963662 1_655
Mg2 O8 2.022884 1_645
Mg2 O42 2.099574 1_555
Mg2 O44 2.141928 1_545
Mg2 O43 2.142742 1_655
Mg3 O45 2.032955 1_455
Mg3 O46 2.055651 1_465
Mg3 O47 2.055942 1_565
Mg3 O11 2.113391 1_555
Mg3 O9 2.114817 1_455
Mg3 O10 2.134353 1_565
Mg4 O49 2.084659 1_555
Mg4 O48 2.088688 1_555
Mg4 O50 2.113774 1_555
Mg4 O13 2.154437 1_555
Mg4 O14 2.179199 1_555
Mg4 O12 2.184509 1_555
Mg5 O15 2.006035 1_555
Mg5 O17 2.095928 1_555
Mg5 O16 2.098957 1_555
Mg5 O52 2.256281 1_555
Mg5 O51 2.257252 1_555
Mg5 O53 2.339738 1_555
Mg6 O26 2.118108 1_554
Mg6 O25 2.119429 1_554
Mg6 O24 2.126767 1_554
Mg6 O61 2.208922 1_555
Mg6 O60 2.231986 1_555
Mg6 O62 2.232260 1_555
Mg7 O27 2.078085 1_555
Mg7 O28 2.079364 1_555
Mg7 O29 2.163581 1_555
Mg7 O64 2.164053 1_555
Mg7 O65 2.239658 1_555
Mg7 O63 2.256135 1_555
Mg8 O30 1.969382 1_555
Mg8 O32 2.024951 1_555
Mg8 O31 2.029712 1_555
Mg8 O66 2.180057 1_555
Mg8 O68 2.184077 1_555
Mg8 O67 2.257685 1_555
O0 S0 1.481229 1_545
O1 S1 1.471097 1_555
O2 S2 1.485699 1_555
O3 S3 1.477829 1_555
O4 S4 1.471941 1_555
O5 S5 1.477902 1_555
O6 S5 1.460161 1_565
O7 S3 1.459717 1_555
O8 S4 1.479083 1_455
O9 S1 1.475189 1_555
O10 S2 1.478951 1_455
O11 S0 1.464666 1_555
O12 S6 1.482292 1_555
O13 S7 1.461260 1_555
O14 S8 1.472017 1_555
O15 S9 1.487687 1_555
O16 S10 1.502341 1_555
O17 S11 1.501994 1_555
O18 S11 1.484558 1_555
O19 S9 1.485918 1_555
O20 S10 1.484963 1_555
O21 S7 1.492838 1_555
O22 S8 1.507764 1_555
O23 S6 1.497939 1_555
O24 S12 1.475100 1_555
O25 S13 1.474598 1_555
O26 S14 1.475145 1_555
O27 S15 1.478148 1_555
O28 S16 1.477969 1_555
O29 S17 1.491353 1_555
O30 S17 1.462634 1_555
O31 S15 1.479297 1_555
O32 S16 1.480305 1_555
O33 S13 1.480776 1_555
O34 S14 1.480324 1_555
O35 S12 1.480917 1_555
O36 S17 1.485358 1_555
O37 S15 1.482688 1_555
O38 S16 1.483048 1_555
O39 S13 1.477456 1_555
O40 S14 1.477272 1_555
O41 S12 1.477109 1_555
O42 S6 1.467494 1_555
O43 S7 1.493428 1_555
O44 S8 1.489607 1_555
O45 S9 1.476392 1_555
O46 S10 1.476271 1_555
O47 S11 1.475566 1_555
O48 S5 1.489537 1_555
O49 S3 1.488929 1_555
O50 S4 1.486770 1_555
O51 S1 1.502008 1_555
O52 S2 1.502338 1_555
O53 S0 1.524722 1_545
O54 S12 1.494466 1_555
O55 S13 1.494214 1_655
O56 S14 1.494306 1_545
O57 S15 1.506265 1_545
O58 S16 1.505491 1_555
O59 S17 1.506897 1_655
O60 S11 1.480653 1_555
O61 S9 1.481607 1_455
O62 S10 1.479711 1_565
O63 S7 1.502761 1_565
O64 S8 1.481476 1_555
O65 S6 1.504181 1_455
O66 S0 1.500143 1_555
O67 S1 1.522856 1_555
O68 S2 1.499183 1_455
O69 S3 1.505960 1_555
O70 S4 1.503179 1_455
O71 S5 1.505218 1_565
