# generated using pymatgen
data_MgCo6O7F5
_symmetry_space_group_name_H-M   'P 1'
_cell_length_a   5.07117112
_cell_length_b   7.66993171
_cell_length_c   5.66937429
_cell_angle_alpha   99.50146110
_cell_angle_beta   100.71960504
_cell_angle_gamma   81.74331308
_symmetry_Int_Tables_number   1
_chemical_formula_structural   MgCo6O7F5
_chemical_formula_sum   'Mg1 Co6 O7 F5'
_cell_volume   212.23758141
_cell_formula_units_Z   1
loop_
 _symmetry_equiv_pos_site_id
 _symmetry_equiv_pos_as_xyz
  1  'x, y, z'
loop_
 _atom_site_type_symbol
 _atom_site_label
 _atom_site_symmetry_multiplicity
 _atom_site_fract_x
 _atom_site_fract_y
 _atom_site_fract_z
 _atom_site_occupancy
  Mg  Mg0  1  0.99588800  0.49462100  0.00170800  1
  Co  Co0  1  0.56399900  0.01696800  0.44964400  1
  Co  Co1  1  0.49170100  0.31485400  0.83989600  1
  Co  Co2  1  0.49341100  0.67176200  0.16160300  1
  Co  Co3  1  0.01978100  0.68048600  0.63696200  1
  Co  Co4  1  0.97075600  0.30264200  0.36756700  1
  Co  Co5  1  0.98448600  0.99451700  0.01000200  1
  O  O0  1  0.80204700  0.08645600  0.27804700  1
  O  O1  1  0.69548800  0.77700800  0.44490400  1
  O  O2  1  0.70243100  0.09257900  0.78506600  1
  O  O3  1  0.68958700  0.43223500  0.13264500  1
  O  O4  1  0.30065300  0.55829600  0.86892200  1
  O  O5  1  0.32477800  0.22252700  0.53244600  1
  O  O6  1  0.30267300  0.90504600  0.20698200  1
  F  F0  1  0.82342100  0.44022900  0.65459800  1
  F  F1  1  0.82470100  0.74320500  0.96185500  1
  F  F2  1  0.17218100  0.24897300  0.02676800  1
  F  F3  1  0.16812200  0.90708100  0.73818900  1
  F  F4  1  0.17389000  0.55694800  0.34267300  1
loop_
_geom_bond_atom_site_label_1
_geom_bond_atom_site_label_2
_geom_bond_distance
_geom_bond_site_symmetry_2
Mg0 O3 1.988079 1_555
Mg0 O4 1.991196 1_654
Co0 O1 1.862944 1_545
Co0 O0 1.865645 1_555
Co0 O5 1.896301 1_555
Co0 O6 1.909037 1_545
Co0 O2 1.923948 1_555
Co1 O5 1.863334 1_555
Co1 O2 1.889561 1_555
Co1 O3 1.928416 1_556
Co1 O4 1.972408 1_555
Co1 F2 2.248060 1_556
Co1 F0 2.512702 1_555
Co2 O1 1.865130 1_555
Co2 O4 1.905369 1_554
Co2 O6 1.909659 1_555
Co2 O3 1.956540 1_555
Co2 F1 2.362674 1_554
Co2 F4 2.404554 1_555
Co3 O1 1.920547 1_455
Co3 F3 1.949719 1_555
Co3 O4 1.990774 1_555
Co3 F4 2.010646 1_555
Co3 F1 2.202610 1_455
Co3 F0 2.241029 1_455
Co4 O0 1.925368 1_555
Co4 O5 1.929501 1_655
Co4 F0 1.994701 1_555
Co4 O3 2.029393 1_555
Co4 F2 2.301466 1_655
Co4 F4 2.368044 1_655
Co5 O2 1.888641 1_564
Co5 O6 1.893762 1_655
Co5 O0 1.909031 1_565
Co5 F3 1.924830 1_654
Co5 F1 2.153865 1_554
Co5 F2 2.272146 1_665
F0 Mg0 2.001270 1_556
F1 Mg0 2.008420 1_556
F2 Mg0 1.981570 1_455
F4 Mg0 1.987411 1_455
