# generated using pymatgen
data_Zr6CCl14
_symmetry_space_group_name_H-M   'P 1'
_cell_length_a   9.53949996
_cell_length_b   9.53949996
_cell_length_c   11.55186480
_cell_angle_alpha   90.00000000
_cell_angle_beta   90.00000000
_cell_angle_gamma   95.97545750
_symmetry_Int_Tables_number   1
_chemical_formula_structural   Zr6CCl14
_chemical_formula_sum   'Zr12 C2 Cl28'
_cell_volume   1045.53163799
_cell_formula_units_Z   2
loop_
 _symmetry_equiv_pos_site_id
 _symmetry_equiv_pos_as_xyz
  1  'x, y, z'
loop_
 _atom_site_type_symbol
 _atom_site_label
 _atom_site_symmetry_multiplicity
 _atom_site_fract_x
 _atom_site_fract_y
 _atom_site_fract_z
 _atom_site_occupancy
  Zr  Zr0  1  0.64633701  0.64633701  0.10626946  1
  Zr  Zr1  1  0.85366299  0.85366299  0.60626946  1
  Zr  Zr2  1  0.14633701  0.14633701  0.39373054  1
  Zr  Zr3  1  0.35366299  0.35366299  0.89373054  1
  Zr  Zr4  1  0.45366243  0.68486991  0.88250015  1
  Zr  Zr5  1  0.04633757  0.81513009  0.38250015  1
  Zr  Zr6  1  0.18486991  0.95366243  0.61749985  1
  Zr  Zr7  1  0.31513009  0.54633757  0.11749985  1
  Zr  Zr8  1  0.54633757  0.31513009  0.11749985  1
  Zr  Zr9  1  0.95366243  0.18486991  0.61749985  1
  Zr  Zr10  1  0.81513009  0.04633757  0.38250015  1
  Zr  Zr11  1  0.68486991  0.45366243  0.88250015  1
  C  C0  1  0.50000000  0.50000000  -0.00000000  1
  C  C1  1  0.00000000  0.00000000  0.50000000  1
  Cl  Cl0  1  0.25031980  0.74968020  0.50000000  1
  Cl  Cl1  1  0.24968020  0.75031980  -0.00000000  1
  Cl  Cl2  1  0.74968020  0.25031980  0.50000000  1
  Cl  Cl3  1  0.75031980  0.24968020  -0.00000000  1
  Cl  Cl4  1  0.84227882  0.84227882  0.23710118  1
  Cl  Cl5  1  0.65772118  0.65772118  0.73710118  1
  Cl  Cl6  1  0.34227882  0.34227882  0.26289882  1
  Cl  Cl7  1  0.15772118  0.15772118  0.76289882  1
  Cl  Cl8  1  0.59930161  0.09930161  0.25000000  1
  Cl  Cl9  1  0.90069839  0.40069839  0.75000000  1
  Cl  Cl10  1  0.96483313  0.21175262  0.25047872  1
  Cl  Cl11  1  0.53516687  0.28824738  0.75047872  1
  Cl  Cl12  1  0.71175262  0.46483313  0.24952128  1
  Cl  Cl13  1  0.78824738  0.03516687  0.74952128  1
  Cl  Cl14  1  0.03516687  0.78824738  0.74952128  1
  Cl  Cl15  1  0.46483313  0.71175262  0.24952128  1
  Cl  Cl16  1  0.28824738  0.53516687  0.75047872  1
  Cl  Cl17  1  0.21175262  0.96483313  0.25047872  1
  Cl  Cl18  1  0.13448610  0.38355304  0.00885231  1
  Cl  Cl19  1  0.36551390  0.11644696  0.50885231  1
  Cl  Cl20  1  0.88355304  0.63448610  0.49114769  1
  Cl  Cl21  1  0.61644696  0.86551390  0.99114769  1
  Cl  Cl22  1  0.86551390  0.61644696  0.99114769  1
  Cl  Cl23  1  0.63448610  0.88355304  0.49114769  1
  Cl  Cl24  1  0.11644696  0.36551390  0.50885231  1
  Cl  Cl25  1  0.38355304  0.13448610  0.00885231  1
  Cl  Cl26  1  0.09930161  0.59930161  0.25000000  1
  Cl  Cl27  1  0.40069839  0.90069839  0.75000000  1
loop_
_geom_bond_atom_site_label_1
_geom_bond_atom_site_label_2
_geom_bond_distance
_geom_bond_site_symmetry_2
C0 Zr0 2.235803 1_555
C0 Zr3 2.235803 1_554
C0 Zr4 2.304398 1_554
C0 Zr11 2.304398 1_554
C0 Zr7 2.304398 1_555
C0 Zr8 2.304398 1_555
C1 Zr2 2.235803 1_555
C1 Zr1 2.235803 1_445
C1 Zr9 2.304398 1_455
C1 Zr5 2.304398 1_545
C1 Zr6 2.304398 1_545
C1 Zr10 2.304398 1_455
Cl0 Zr6 2.504324 1_555
Cl0 Zr5 2.504324 1_555
Cl1 Zr7 2.504324 1_555
Cl1 Zr4 2.504324 1_554
Cl2 Zr9 2.504324 1_555
Cl2 Zr10 2.504324 1_555
Cl3 Zr8 2.504324 1_555
Cl3 Zr11 2.504324 1_554
Cl4 Zr10 2.604327 1_565
Cl4 Zr5 2.604327 1_655
Cl4 Zr0 2.923091 1_555
Cl5 Zr11 2.604327 1_555
Cl5 Zr4 2.604327 1_555
Cl5 Zr1 2.923091 1_555
Cl6 Zr7 2.604327 1_555
Cl6 Zr8 2.604327 1_555
Cl6 Zr2 2.923091 1_555
Cl7 Zr6 2.604327 1_545
Cl7 Zr9 2.604327 1_455
Cl7 Zr3 2.923091 1_555
Cl8 Zr10 2.655885 1_555
Cl8 Zr8 2.655885 1_555
Cl9 Zr11 2.655885 1_555
Cl9 Zr9 2.655885 1_555
Cl10 Zr2 2.520073 1_655
Cl10 Zr10 2.527089 1_555
Cl11 Zr3 2.520073 1_555
Cl11 Zr11 2.527089 1_555
Cl12 Zr0 2.520073 1_555
Cl12 Zr8 2.527089 1_555
Cl13 Zr1 2.520073 1_545
Cl13 Zr9 2.527089 1_555
Cl14 Zr1 2.520073 1_455
Cl14 Zr6 2.527089 1_555
Cl15 Zr0 2.520073 1_555
Cl15 Zr7 2.527089 1_555
Cl16 Zr3 2.520073 1_555
Cl16 Zr4 2.527089 1_555
Cl17 Zr2 2.520073 1_565
Cl17 Zr5 2.527089 1_555
Cl18 Zr3 2.519045 1_554
Cl18 Zr7 2.529648 1_555
Cl19 Zr2 2.519045 1_555
Cl19 Zr6 2.529648 1_545
Cl20 Zr1 2.519045 1_555
Cl20 Zr5 2.529648 1_655
Cl21 Zr0 2.519045 1_556
Cl21 Zr4 2.529648 1_555
Cl22 Zr0 2.519045 1_556
Cl22 Zr11 2.529648 1_555
Cl23 Zr1 2.519045 1_555
Cl23 Zr10 2.529648 1_565
Cl24 Zr2 2.519045 1_555
Cl24 Zr9 2.529648 1_455
Cl25 Zr3 2.519045 1_554
Cl25 Zr8 2.529648 1_555
Cl26 Zr7 2.655885 1_555
Cl26 Zr5 2.655885 1_555
Cl27 Zr4 2.655885 1_555
Cl27 Zr6 2.655885 1_555
