# generated using pymatgen
data_MgTiMn5(PO4)6
_symmetry_space_group_name_H-M   'P 1'
_cell_length_a   8.58106558
_cell_length_b   8.75227301
_cell_length_c   8.75138197
_cell_angle_alpha   61.05635127
_cell_angle_beta   60.83925668
_cell_angle_gamma   60.71481446
_symmetry_Int_Tables_number   1
_chemical_formula_structural   MgTiMn5(PO4)6
_chemical_formula_sum   'Mg1 Ti1 Mn5 P6 O24'
_cell_volume   473.86328932
_cell_formula_units_Z   1
loop_
 _symmetry_equiv_pos_site_id
 _symmetry_equiv_pos_as_xyz
  1  'x, y, z'
loop_
 _atom_site_type_symbol
 _atom_site_label
 _atom_site_symmetry_multiplicity
 _atom_site_fract_x
 _atom_site_fract_y
 _atom_site_fract_z
 _atom_site_occupancy
  Mg  Mg0  1  0.25159900  0.86239300  0.63372800  1
  Ti  Ti0  1  0.56413000  0.14719400  0.14009900  1
  Mn  Mn0  1  0.99594600  0.00717000  0.01389300  1
  Mn  Mn1  1  0.05335600  0.63664100  0.65210400  1
  Mn  Mn2  1  0.50728100  0.47020600  0.51107900  1
  Mn  Mn3  1  0.45625900  0.83420800  0.86519700  1
  Mn  Mn4  1  0.93021500  0.37155100  0.34673700  1
  P  P0  1  0.23981500  0.25591300  0.53363900  1
  P  P1  1  0.24720100  0.97373200  0.24164300  1
  P  P2  1  0.26052500  0.54549500  0.95320700  1
  P  P3  1  0.75962800  0.44123600  0.05410600  1
  P  P4  1  0.76991000  0.03899600  0.75004600  1
  P  P5  1  0.72457600  0.75582600  0.45552300  1
  O  O0  1  0.07288300  0.12853100  0.30607900  1
  O  O1  1  0.07495400  0.52578400  0.09705500  1
  O  O2  1  0.05799000  0.35267300  0.48504400  1
  O  O3  1  0.21197500  0.08340100  0.71154100  1
  O  O4  1  0.40712700  0.18240100  0.37438500  1
  O  O5  1  0.28347400  0.39106400  0.55955500  1
  O  O6  1  0.22722500  0.93701900  0.09597900  1
  O  O7  1  0.28355400  0.79749500  0.41118300  1
  O  O8  1  0.57863900  0.59434500  0.01793000  1
  O  O9  1  0.28852200  0.57243900  0.75153200  1
  O  O10  1  0.75894600  0.24778300  0.08594100  1
  O  O11  1  0.61369000  0.96638200  0.79929500  1
  O  O12  1  0.42636800  0.03146300  0.14688900  1
  O  O13  1  0.25222100  0.74405000  0.92640700  1
  O  O14  1  0.73997200  0.42875700  0.24794200  1
  O  O15  1  0.43487900  0.38801400  0.00168600  1
  O  O16  1  0.73266200  0.22869900  0.59918700  1
  O  O17  1  0.76225600  0.06931600  0.91724700  1
  O  O18  1  0.72293600  0.58810300  0.43583900  1
  O  O19  1  0.52769000  0.81555600  0.60137200  1
  O  O20  1  0.73989100  0.91275000  0.26227100  1
  O  O21  1  0.88544700  0.71644000  0.50913100  1
  O  O22  1  0.94274200  0.46307900  0.90470700  1
  O  O23  1  0.97064900  0.90013900  0.69455400  1
loop_
_geom_bond_atom_site_label_1
_geom_bond_atom_site_label_2
_geom_bond_distance
_geom_bond_site_symmetry_2
Mg0 O23 2.084489 1_455
Mg0 O19 2.090355 1_555
Mg0 O7 2.142145 1_555
Mg0 O9 2.145423 1_555
Mg0 O3 2.174118 1_565
Mg0 O13 2.252433 1_555
Mn0 O6 2.145251 1_645
Mn0 O10 2.194089 1_555
Mn0 O17 2.274418 1_554
Mn0 O3 2.367292 1_654
Mn0 O20 2.370426 1_545
Mn0 O13 2.415960 1_644
Mn1 O21 2.013924 1_455
Mn1 O22 2.052038 1_455
Mn1 O23 2.220663 1_455
Mn1 O5 2.269174 1_555
Mn1 O9 2.296452 1_555
Mn1 O7 2.473517 1_555
Mn2 O5 2.138019 1_555
Mn2 O16 2.163152 1_555
Mn2 O18 2.223932 1_555
Mn2 O14 2.245099 1_555
Mn2 O9 2.254369 1_555
Mn2 O7 2.546979 1_555
Mn3 O11 1.902555 1_555
Mn3 O8 1.947243 1_556
Mn3 O13 2.000908 1_555
Mn3 O19 2.149614 1_555
Mn3 O6 2.216304 1_556
Mn3 O3 2.528782 1_565
Mn4 O2 1.901844 1_655
Mn4 O14 1.954501 1_555
Mn4 O0 1.977359 1_655
Mn4 O18 2.035868 1_555
Mn4 O1 2.068787 1_655
Mn4 O16 2.251239 1_555
O0 P1 1.525089 1_545
O1 P2 1.501748 1_554
O2 P0 1.528985 1_555
O3 P0 1.573489 1_555
O4 P0 1.559442 1_555
O4 Ti0 1.904551 1_555
O5 P0 1.538509 1_555
O6 P1 1.555937 1_555
O7 P1 1.563050 1_555
O8 P3 1.529864 1_555
O9 P2 1.570888 1_555
O10 P3 1.579859 1_555
O10 Ti0 2.014502 1_555
O11 P4 1.546614 1_565
O12 P1 1.555216 1_545
O12 Ti0 1.863252 1_555
O13 P2 1.606457 1_555
O14 P3 1.574100 1_555
O15 P2 1.534062 1_554
O15 Ti0 1.921194 1_555
O16 P4 1.540216 1_555
O17 P4 1.575097 1_555
O17 Ti0 2.019972 1_556
O18 P5 1.565918 1_555
O19 P5 1.561120 1_555
O20 P5 1.573404 1_555
O20 Ti0 2.012120 1_565
O21 P5 1.501202 1_555
O22 P3 1.504951 1_556
O23 P4 1.545318 1_565
