# generated using pymatgen
data_Na6Ga4Si5Ge4S7O48
_symmetry_space_group_name_H-M   'P 1'
_cell_length_a   17.20326609
_cell_length_b   8.63952477
_cell_length_c   22.05617494
_cell_angle_alpha   90.07994297
_cell_angle_beta   89.89635313
_cell_angle_gamma   120.31962206
_symmetry_Int_Tables_number   1
_chemical_formula_structural   Na6Ga4Si5Ge4S7O48
_chemical_formula_sum   'Na18 Ga12 Si15 Ge12 S21 O144'
_cell_volume   2829.78239150
_cell_formula_units_Z   3
loop_
 _symmetry_equiv_pos_site_id
 _symmetry_equiv_pos_as_xyz
  1  'x, y, z'
loop_
 _atom_site_type_symbol
 _atom_site_label
 _atom_site_symmetry_multiplicity
 _atom_site_fract_x
 _atom_site_fract_y
 _atom_site_fract_z
 _atom_site_occupancy
  Na  Na0  1  -0.00142136  0.62553548  0.25327879  1
  Na  Na1  1  0.50016491  0.63754121  0.25061291  1
  Na  Na2  1  0.00099859  0.36804983  0.74919790  1
  Na  Na3  1  0.49801940  0.36391447  0.75170737  1
  Na  Na4  1  0.66480538  0.30069569  0.91642597  1
  Na  Na5  1  0.16697705  0.02623507  0.42530104  1
  Na  Na6  1  0.99711580  0.99776664  0.50324897  1
  Na  Na7  1  0.50256071  0.99290352  0.50127845  1
  Na  Na8  1  0.00173172  0.01006617  0.99833109  1
  Na  Na9  1  0.49905516  0.00039451  0.00028174  1
  Na  Na10  1  0.32835818  0.32249643  0.83609220  1
  Na  Na11  1  0.83112062  0.33072016  0.82696514  1
  Na  Na12  1  0.33913628  0.34241974  0.33110347  1
  Na  Na13  1  0.82465214  0.32921361  0.33765787  1
  Na  Na14  1  0.18125156  0.66455099  0.16541097  1
  Na  Na15  1  0.67120214  0.65846500  0.16451071  1
  Na  Na16  1  0.17284316  0.68644662  0.66617391  1
  Na  Na17  1  0.67988549  0.68748312  0.66955832  1
  Ga  Ga0  1  0.99545700  0.98471605  0.35646263  1
  Ga  Ga1  1  0.49999078  0.01627226  0.85369589  1
  Ga  Ga2  1  0.32265699  0.33743073  0.67807264  1
  Ga  Ga3  1  0.82435644  0.30282454  0.69459124  1
  Ga  Ga4  1  0.33368180  0.35797063  0.18896611  1
  Ga  Ga5  1  0.81821802  0.30602650  0.17491220  1
  Ga  Ga6  1  0.82665583  0.31004573  0.98796433  1
  Ga  Ga7  1  0.33043028  0.34935298  0.49312819  1
  Ga  Ga8  1  0.17088312  0.66593610  0.31681678  1
  Ga  Ga9  1  0.66334591  0.64114977  0.31511974  1
  Ga  Ga10  1  0.16615310  0.68961924  0.81369122  1
  Ga  Ga11  1  0.66662648  0.65271297  0.80990747  1
  Si  Si0  1  0.35781146  0.72941215  0.25219820  1
  Si  Si1  1  0.49817569  0.29417369  0.24812425  1
  Si  Si2  1  0.64130837  0.27956992  0.74941219  1
  Si  Si3  1  0.00049834  0.70346808  0.74784875  1
  Si  Si4  1  0.85972968  0.98797237  0.75249258  1
  Si  Si5  1  0.18267990  0.04463961  0.58448448  1
  Si  Si6  1  0.69468375  0.04200232  0.58119448  1
  Si  Si7  1  0.33403851  0.63818121  0.58357848  1
  Si  Si8  1  0.83107698  0.03266724  0.08211680  1
  Si  Si9  1  0.19384659  0.34545391  0.08192831  1
  Si  Si10  1  0.68175164  0.32512424  0.08312401  1
  Si  Si11  1  0.51994285  0.38483961  0.91743342  1
  Si  Si12  1  0.16283705  0.95300710  0.91808475  1
  Si  Si13  1  0.66420169  0.37362059  0.41755584  1
  Si  Si14  1  0.02148552  0.65460173  0.41633349  1
  Ge  Ge0  1  0.50014389  0.02313486  0.35044487  1
  Ge  Ge1  1  0.00079747  0.97640119  0.84974453  1
  Ge  Ge2  1  0.00108509  0.98014694  0.65029095  1
  Ge  Ge3  1  0.50990887  0.99882982  0.64166725  1
  Ge  Ge4  1  0.00273425  0.01583603  0.13883615  1
  Ge  Ge5  1  0.49957530  0.01951455  0.14883253  1
  Ge  Ge6  1  0.32655148  0.31713307  0.97755962  1
  Ge  Ge7  1  0.82769898  0.34053333  0.47918512  1
  Ge  Ge8  1  0.16500570  0.66390657  0.01616548  1
  Ge  Ge9  1  0.66733019  0.65317906  0.02357351  1
  Ge  Ge10  1  0.16468952  0.68092133  0.52702701  1
  Ge  Ge11  1  0.66335474  0.66033857  0.51872537  1
  S  S0  1  0.14211304  0.00431863  0.24887285  1
  S  S1  1  0.64866605  0.00782751  0.25229512  1
  S  S2  1  0.85629229  0.71269893  0.24751863  1
  S  S3  1  0.99806022  0.28213141  0.24998378  1
  S  S4  1  0.14874450  0.28984520  0.75264361  1
  S  S5  1  0.49586160  0.71011524  0.75003514  1
  S  S6  1  0.35352751  0.99826235  0.74816336  1
  S  S7  1  0.48007923  0.33559861  0.58360380  1
  S  S8  1  0.97572998  0.32992494  0.58185690  1
  S  S9  1  0.83239006  0.62282534  0.58241347  1
  S  S10  1  0.47723428  0.62579600  0.08237106  1
  S  S11  1  0.98070939  0.62510897  0.08592920  1
  S  S12  1  0.33168707  0.04228634  0.08282469  1
  S  S13  1  0.31056048  0.66786910  0.91481698  1
  S  S14  1  0.81476146  0.66723897  0.91911790  1
  S  S15  1  0.01872928  0.37405519  0.91679944  1
  S  S16  1  0.66663748  0.94940701  0.91647510  1
  S  S17  1  0.31495654  0.96170194  0.41865324  1
  S  S18  1  0.80948825  0.95243703  0.41460993  1
  S  S19  1  0.16744372  0.37667809  0.41602637  1
  S  S20  1  0.51850854  0.66450841  0.41668821  1
  O  O0  1  0.10306879  0.02928943  0.30609699  1
  O  O1  1  0.60847820  0.03688869  0.30807892  1
  O  O2  1  0.42746977  0.81710882  0.31083689  1
  O  O3  1  0.91331334  0.79230966  0.30305056  1
  O  O4  1  0.48165986  0.17716170  0.30982373  1
  O  O5  1  0.98635735  0.17409346  0.30470906  1
  O  O6  1  0.10885371  0.18002936  0.80837711  1
  O  O7  1  0.60211659  0.17042766  0.81324484  1
  O  O8  1  0.47874213  0.78725172  0.80452724  1
  O  O9  1  0.98362240  0.78650028  0.80987171  1
  O  O10  1  0.40785504  0.02899540  0.80437998  1
  O  O11  1  0.92952861  0.03868799  0.81127557  1
  O  O12  1  0.39418906  0.97430112  0.69326943  1
  O  O13  1  0.90710928  0.96490214  0.68957466  1
  O  O14  1  0.09128714  0.21373936  0.69759743  1
  O  O15  1  0.57056407  0.18160552  0.69177725  1
  O  O16  1  0.02822590  0.83884058  0.68989870  1
  O  O17  1  0.50561435  0.81202219  0.69338554  1
  O  O18  1  0.40572544  0.84445637  0.18962612  1
  O  O19  1  0.90111539  0.82210280  0.19274303  1
  O  O20  1  0.01087585  0.19928928  0.19377289  1
  O  O21  1  0.52418734  0.21366915  0.18988143  1
  O  O22  1  0.08038129  0.96816655  0.19551348  1
  O  O23  1  0.59108516  0.96874600  0.19751919  1
  O  O24  1  0.44157055  0.36250243  0.64004132  1
  O  O25  1  0.94249777  0.36769410  0.63756433  1
  O  O26  1  0.24774750  0.12548506  0.64207305  1
  O  O27  1  0.75512405  0.11977941  0.64016783  1
  O  O28  1  0.31302693  0.51662501  0.64340825  1
  O  O29  1  0.82002267  0.51739848  0.63556786  1
  O  O30  1  0.44414115  0.52102675  0.13961834  1
  O  O31  1  0.94145666  0.52096375  0.14289112  1
  O  O32  1  0.31859046  0.12195383  0.13732863  1
  O  O33  1  0.81489091  0.10960156  0.14498489  1
  O  O34  1  0.25082157  0.38204064  0.14303117  1
  O  O35  1  0.74536024  0.37479779  0.14251781  1
  O  O36  1  0.23809239  0.30604653  0.02296392  1
  O  O37  1  0.72361654  0.29627268  0.02051391  1
  O  O38  1  0.41912669  0.53646364  0.02941027  1
  O  O39  1  0.92535938  0.54607107  0.03194795  1
  O  O40  1  0.34877418  0.15102571  0.02683008  1
  O  O41  1  0.86018357  0.16592641  0.02480819  1
  O  O42  1  0.22412443  0.15285149  0.52040854  1
  O  O43  1  0.73751177  0.16796392  0.52079157  1
  O  O44  1  0.36152189  0.56621155  0.52374947  1
  O  O45  1  0.85037578  0.55118075  0.52485143  1
  O  O46  1  0.42555198  0.31156038  0.52883262  1
  O  O47  1  0.92044238  0.30597624  0.52671299  1
  O  O48  1  0.27182886  0.70268810  0.97130059  1
  O  O49  1  0.77626170  0.69786895  0.97537997  1
  O  O50  1  0.07712493  0.45878585  0.97264439  1
  O  O51  1  0.59234415  0.47938452  0.97342112  1
  O  O52  1  0.14495598  0.82495386  0.97841108  1
  O  O53  1  0.65889528  0.84940125  0.97275845  1
  O  O54  1  0.27463469  0.85234289  0.47366124  1
  O  O55  1  0.77045603  0.84045270  0.46981122  1
  O  O56  1  0.15511996  0.45891440  0.47028353  1
  O  O57  1  0.64513107  0.46625639  0.47685920  1
  O  O58  1  0.09499917  0.70547778  0.47126435  1
  O  O59  1  0.57695128  0.69424252  0.47100365  1
  O  O60  1  0.06289856  0.62916376  0.35212121  1
  O  O61  1  0.56014457  0.64596335  0.35961149  1
  O  O62  1  0.25609411  0.88356842  0.36418676  1
  O  O63  1  0.75577785  0.87226883  0.35935567  1
  O  O64  1  0.18160938  0.48050372  0.35970003  1
  O  O65  1  0.68813969  0.49452282  0.35755699  1
  O  O66  1  0.06196757  0.47735747  0.86102705  1
  O  O67  1  0.55988025  0.49478575  0.85459518  1
  O  O68  1  0.18727745  0.87844559  0.85934902  1
  O  O69  1  0.67985170  0.87046750  0.86160888  1
  O  O70  1  0.25427980  0.63575803  0.86099454  1
  O  O71  1  0.75640347  0.62867236  0.86579362  1
  O  O72  1  0.01410574  0.83857935  0.41172405  1
  O  O73  1  0.50953097  0.82520253  0.41401814  1
  O  O74  1  0.40261539  0.96837234  0.41218843  1
  O  O75  1  0.90152212  0.97319523  0.41016595  1
  O  O76  1  0.08445884  0.19305063  0.41059573  1
  O  O77  1  0.57435368  0.16976978  0.40985857  1
  O  O78  1  0.00903094  0.19508034  0.91490702  1
  O  O79  1  0.50912838  0.18361130  0.91517220  1
  O  O80  1  0.07401959  0.97940818  0.91039005  1
  O  O81  1  0.58371006  0.96505896  0.91463135  1
  O  O82  1  0.40154199  0.82869133  0.90969960  1
  O  O83  1  0.90331120  0.83525886  0.91319018  1
  O  O84  1  0.49066225  0.17691457  0.58602712  1
  O  O85  1  0.98414949  0.16845391  0.58571864  1
  O  O86  1  0.08415552  0.03508933  0.59072591  1
  O  O87  1  0.59382940  0.02079068  0.58752360  1
  O  O88  1  0.42011619  0.84221617  0.59350035  1
  O  O89  1  0.91279128  0.80863260  0.58542857  1
  O  O90  1  0.48378472  0.80264796  0.08791852  1
  O  O91  1  0.99349692  0.80989537  0.09162377  1
  O  O92  1  0.41227393  0.01894090  0.08642248  1
  O  O93  1  0.91733925  -0.00083451  0.09009447  1
  O  O94  1  0.09322581  0.16132212  0.08954294  1
  O  O95  1  0.58390367  0.13543682  0.09080368  1
  O  O96  1  0.34558768  0.16281209  0.74485782  1
  O  O97  1  0.85580264  0.17035082  0.74850666  1
  O  O98  1  0.23808659  0.30446956  0.74748606  1
  O  O99  1  0.73868110  0.30356908  0.74415223  1
  O  O100  1  0.41738899  0.52114195  0.74434066  1
  O  O101  1  0.91358074  0.50954645  0.73889254  1
  O  O102  1  0.34973963  0.53346572  0.24880164  1
  O  O103  1  0.84835310  0.53326078  0.24386066  1
  O  O104  1  0.40852709  0.31013055  0.24039535  1
  O  O105  1  0.91869491  0.30634710  0.24538501  1
  O  O106  1  0.23066701  0.16242146  0.24291878  1
  O  O107  1  0.73835024  0.17369169  0.24709378  1
  O  O108  1  0.31910703  0.50696058  0.92231756  1
  O  O109  1  0.82648361  0.50835864  0.92517704  1
  O  O110  1  0.42221866  0.37112259  0.92949402  1
  O  O111  1  0.93178795  0.36907335  0.92299187  1
  O  O112  1  0.25181994  0.15332714  0.92450358  1
  O  O113  1  0.74691994  0.13904543  0.91942756  1
  O  O114  1  0.32691347  0.14342035  0.42374305  1
  O  O115  1  0.82048530  0.13222618  0.42069414  1
  O  O116  1  0.24670339  0.34969998  0.41938565  1
  O  O117  1  0.75347686  0.35343839  0.42421870  1
  O  O118  1  0.43050070  0.49610755  0.42213102  1
  O  O119  1  0.92312345  0.47639264  0.42755989  1
  O  O120  1  0.17790679  0.51805865  0.07040351  1
  O  O121  1  0.66807545  0.49900909  0.07840064  1
  O  O122  1  0.07168713  0.64287446  0.08097658  1
  O  O123  1  0.56860779  0.65008184  0.07473579  1
  O  O124  1  0.24953889  0.85957656  0.07608209  1
  O  O125  1  0.73939134  0.83844253  0.07242962  1
  O  O126  1  0.16741757  0.84126116  0.57911064  1
  O  O127  1  0.67916508  0.83737592  0.56943241  1
  O  O128  1  0.24078350  0.64440561  0.57170287  1
  O  O129  1  0.74982270  0.63888753  0.57474751  1
  O  O130  1  0.06907826  0.49096131  0.57383206  1
  O  O131  1  0.57149972  0.50280300  0.57890573  1
  O  O132  1  0.14774883  0.83846411  0.25203371  1
  O  O133  1  0.65891973  0.84840802  0.25890989  1
  O  O134  1  0.25887992  0.71083460  0.25894850  1
  O  O135  1  0.76905621  0.70353069  0.25261565  1
  O  O136  1  0.08053677  0.46315188  0.25220288  1
  O  O137  1  0.58457308  0.49988390  0.25388754  1
  O  O138  1  0.15846033  0.46925967  0.75932535  1
  O  O139  1  0.64373518  0.47139287  0.75117998  1
  O  O140  1  0.08730004  0.67366727  0.75366960  1
  O  O141  1  0.57899576  0.70037122  0.75341369  1
  O  O142  1  0.26463297  0.83228897  0.75375852  1
  O  O143  1  0.76104150  0.81472703  0.75974968  1
loop_
_geom_bond_atom_site_label_1
_geom_bond_atom_site_label_2
_geom_bond_distance
_geom_bond_site_symmetry_2
Na0 O132 2.281201 1_555
Na0 O103 2.297604 1_455
Na0 O105 2.386780 1_455
Na0 O60 2.439599 1_555
Na0 O136 2.440000 1_555
Na0 O31 2.610737 1_455
Na0 O3 2.748896 1_455
Na0 O22 2.857340 1_555
Na1 O102 2.271079 1_555
Na1 O137 2.296185 1_555
Na1 O133 2.405974 1_555
Na1 O104 2.456543 1_555
Na1 O61 2.604293 1_555
Na1 O30 2.637724 1_555
Na1 O23 2.736717 1_555
Na1 O2 2.771691 1_555
Na2 O97 2.202121 1_455
Na2 O140 2.286375 1_555
Na2 O101 2.380313 1_455
Na2 O138 2.400529 1_555
Na2 O66 2.660540 1_555
Na2 O25 2.661045 1_455
Na2 O14 2.750517 1_555
Na2 O11 2.820612 1_455
Na3 O139 2.190002 1_555
Na3 O96 2.306233 1_555
Na3 O100 2.387352 1_555
Na3 O141 2.510600 1_555
Na3 O67 2.519410 1_555
Na3 O24 2.646848 1_555
Na3 O10 2.756732 1_555
Na3 O15 2.785398 1_555
Na4 O79 2.336979 1_555
Na4 O113 2.437799 1_555
Na4 O109 2.440276 1_555
Na4 O81 2.504356 1_545
Na4 O37 2.518607 1_556
Na4 O7 2.526887 1_555
Na4 O71 2.693255 1_555
Na4 O51 2.729362 1_555
Na5 O72 2.308916 1_545
Na5 O42 2.340679 1_555
Na5 O114 2.404956 1_555
Na5 O116 2.416268 1_555
Na5 O76 2.503220 1_555
Na5 O58 2.603703 1_545
Na5 O62 2.753613 1_545
Na5 O0 2.856922 1_555
Na6 O86 2.364302 1_665
Na6 O89 2.380195 1_555
Na6 O85 2.419952 1_565
Na6 O72 2.539285 1_655
Na6 O75 2.573535 1_555
Na6 O76 2.592187 1_665
Na7 O87 2.401962 1_565
Na7 O88 2.444702 1_555
Na7 O73 2.446335 1_555
Na7 O77 2.453612 1_565
Na7 O84 2.526294 1_565
Na7 O74 2.550591 1_555
Na8 O80 2.387737 1_545
Na8 O78 2.400237 1_555
Na8 O93 2.462700 1_456
Na8 O83 2.468990 1_445
Na8 O94 2.481900 1_556
Na8 O91 2.646959 1_446
Na9 O95 2.400569 1_555
Na9 O79 2.406165 1_554
Na9 O92 2.468734 1_555
Na9 O81 2.494037 1_544
Na9 O90 2.505640 1_545
Na9 O82 2.549047 1_544
Na10 O112 2.393338 1_555
Na10 O98 2.453820 1_555
Na10 O110 2.520407 1_555
Na10 O108 2.535455 1_555
Na10 O96 2.538381 1_555
Na10 O100 2.594432 1_555
Na11 O99 2.356454 1_555
Na11 O97 2.383104 1_555
Na11 O101 2.440982 1_555
Na11 O113 2.564446 1_555
Na11 O111 2.650799 1_555
Na11 O109 2.677264 1_555
Na12 O102 2.399154 1_555
Na12 O104 2.414866 1_555
Na12 O118 2.482193 1_555
Na12 O116 2.532474 1_555
Na12 O106 2.599677 1_555
Na12 O114 2.611186 1_555
Na13 O117 2.331799 1_555
Na13 O107 2.447191 1_555
Na13 O115 2.478070 1_555
Na13 O119 2.499749 1_555
Na13 O103 2.614447 1_555
Na13 O105 2.666100 1_555
Na14 O134 2.380789 1_555
Na14 O120 2.432231 1_555
Na14 O124 2.470497 1_555
Na14 O136 2.578285 1_555
Na14 O122 2.590615 1_555
Na14 O132 2.665030 1_555
Na15 O121 2.329415 1_555
Na15 O137 2.433012 1_555
Na15 O125 2.465203 1_555
Na15 O135 2.471777 1_555
Na15 O123 2.631400 1_555
Na15 O133 2.722430 1_555
Na16 O126 2.370449 1_555
Na16 O140 2.393395 1_555
Na16 O142 2.410041 1_555
Na16 O128 2.501476 1_555
Na16 O130 2.673341 1_555
Na16 O138 2.709883 1_555
Na17 O143 2.359934 1_555
Na17 O139 2.438477 1_555
Na17 O129 2.548579 1_555
Na17 O127 2.564854 1_555
Na17 O141 2.574589 1_555
Na17 O131 2.649738 1_555
Ga0 O72 1.896639 1_655
Ga0 O3 1.943420 1_555
Ga0 O75 1.963503 1_555
Ga0 O0 2.020771 1_665
Ga0 O76 2.056144 1_665
Ga0 O5 2.066126 1_565
Ga1 O7 1.814292 1_555
Ga1 O79 1.928534 1_555
Ga1 O10 1.972318 1_555
Ga1 O82 2.060920 1_545
Ga1 O8 2.118930 1_545
Ga1 O81 2.174507 1_545
Ga2 O26 1.805904 1_555
Ga2 O28 1.808728 1_555
Ga2 O98 2.028938 1_555
Ga2 O24 2.117157 1_555
Ga2 O100 2.168399 1_555
Ga2 O96 2.282659 1_555
Ga3 O99 1.836044 1_555
Ga3 O27 1.859710 1_555
Ga3 O97 1.909956 1_555
Ga3 O101 1.932168 1_555
Ga3 O25 2.206704 1_555
Ga3 O29 2.298605 1_555
Ga4 O34 1.845745 1_555
Ga4 O104 1.912934 1_555
Ga4 O102 1.920867 1_555
Ga4 O30 2.018463 1_555
Ga4 O106 2.094290 1_555
Ga4 O32 2.232145 1_555
Ga5 O35 1.786288 1_555
Ga5 O33 1.793822 1_555
Ga5 O107 2.034880 1_555
Ga5 O31 2.113117 1_555
Ga5 O103 2.324325 1_555
Ga5 O105 2.325669 1_555
Ga6 O41 1.809145 1_556
Ga6 O37 1.858600 1_556
Ga6 O113 2.074733 1_555
Ga6 O39 2.118263 1_556
Ga6 O111 2.155505 1_555
Ga6 O109 2.205690 1_555
Ga7 O44 1.799566 1_555
Ga7 O42 1.858194 1_555
Ga7 O46 1.987316 1_555
Ga7 O116 2.175540 1_555
Ga7 O118 2.194396 1_555
Ga7 O114 2.322749 1_555
Ga8 O134 1.863529 1_555
Ga8 O60 1.886229 1_555
Ga8 O64 1.948988 1_555
Ga8 O62 1.998251 1_555
Ga8 O136 2.183544 1_555
Ga8 O132 2.242491 1_555
Ga9 O65 1.792506 1_555
Ga9 O137 1.866040 1_555
Ga9 O61 2.045700 1_555
Ga9 O63 2.064448 1_555
Ga9 O135 2.121702 1_555
Ga9 O133 2.212087 1_555
Ga10 O68 1.790453 1_555
Ga10 O140 1.851748 1_555
Ga10 O142 2.006234 1_555
Ga10 O70 2.079158 1_555
Ga10 O66 2.084580 1_555
Ga10 O138 2.195369 1_555
Ga11 O143 1.877145 1_555
Ga11 O139 1.913167 1_555
Ga11 O67 1.916472 1_555
Ga11 O71 2.068660 1_555
Ga11 O69 2.110497 1_555
Ga11 O141 2.151682 1_555
Ge0 O4 1.762452 1_555
Ge0 O2 1.802031 1_545
Ge0 O77 1.822223 1_555
Ge0 O74 2.021268 1_545
Ge0 O1 2.032508 1_555
Ge0 O73 2.280957 1_545
Ge1 O9 1.749269 1_455
Ge1 O11 1.784346 1_465
Ge1 O80 1.830184 1_555
Ge1 O6 2.019783 1_565
Ge1 O83 2.046774 1_455
Ge1 O78 2.319068 1_565
Ge2 O16 1.746866 1_555
Ge2 O13 1.778211 1_455
Ge2 O86 1.817596 1_565
Ge2 O89 2.068586 1_455
Ge2 O14 2.099432 1_565
Ge2 O85 2.290536 1_465
Ge3 O15 1.771887 1_565
Ge3 O88 1.799240 1_555
Ge3 O87 1.806721 1_565
Ge3 O17 1.948303 1_555
Ge3 O84 2.122249 1_565
Ge3 O12 2.206794 1_555
Ge4 O93 1.768140 1_455
Ge4 O94 1.790944 1_555
Ge4 O20 1.941908 1_555
Ge4 O91 1.996303 1_445
Ge4 O22 2.019791 1_545
Ge4 O19 2.077270 1_445
Ge5 O21 1.758620 1_555
Ge5 O18 1.799111 1_545
Ge5 O95 1.809885 1_555
Ge5 O92 2.037255 1_555
Ge5 O23 2.128011 1_545
Ge5 O90 2.206751 1_545
Ge6 O36 1.781989 1_556
Ge6 O112 1.785745 1_555
Ge6 O110 1.808338 1_555
Ge6 O40 1.986549 1_556
Ge6 O38 2.094884 1_556
Ge6 O108 2.099723 1_555
Ge7 O43 1.770689 1_555
Ge7 O117 1.806187 1_555
Ge7 O119 1.849503 1_555
Ge7 O45 1.938606 1_555
Ge7 O47 2.054625 1_555
Ge7 O115 2.164986 1_555
Ge8 O52 1.799200 1_554
Ge8 O120 1.831835 1_555
Ge8 O50 1.908674 1_554
Ge8 O48 1.959926 1_554
Ge8 O124 2.058558 1_555
Ge8 O122 2.086049 1_555
Ge9 O51 1.785254 1_554
Ge9 O125 1.804587 1_555
Ge9 O121 1.805107 1_555
Ge9 O49 2.013499 1_554
Ge9 O123 2.026266 1_555
Ge9 O53 2.098906 1_554
Ge10 O126 1.780709 1_555
Ge10 O128 1.790712 1_555
Ge10 O58 1.804973 1_555
Ge10 O130 1.933317 1_555
Ge10 O54 2.079628 1_555
Ge10 O56 2.224311 1_555
Ge11 O57 1.796810 1_555
Ge11 O127 1.800148 1_555
Ge11 O59 1.961949 1_555
Ge11 O131 1.984265 1_555
Ge11 O129 2.014824 1_555
Ge11 O55 2.020617 1_555
O0 S0 1.494389 1_555
O1 S1 1.492035 1_555
O2 Si0 1.664033 1_555
O3 S2 1.502101 1_555
O4 Si1 1.633116 1_555
O5 S3 1.476895 1_555
O6 S4 1.491649 1_555
O7 Si2 1.638380 1_555
O8 S5 1.473104 1_555
O9 Si3 1.635965 1_655
O10 S6 1.494701 1_545
O11 Si4 1.669629 1_545
O12 S6 1.463055 1_555
O13 Si4 1.670042 1_555
O14 S4 1.493100 1_555
O15 Si2 1.666155 1_555
O16 Si3 1.633333 1_555
O17 S5 1.489180 1_555
O18 Si0 1.656665 1_555
O19 S2 1.487125 1_555
O20 S3 1.501268 1_455
O21 Si1 1.626004 1_555
O22 S0 1.509660 1_565
O23 S1 1.490092 1_565
O24 S7 1.481247 1_555
O25 S8 1.458663 1_555
O26 Si5 1.602343 1_555
O27 Si6 1.587946 1_555
O28 Si7 1.610531 1_555
O29 S9 1.433803 1_555
O30 S10 1.489304 1_555
O31 S11 1.493538 1_555
O32 S12 1.457034 1_555
O33 Si8 1.620176 1_555
O34 Si9 1.602400 1_555
O35 Si10 1.620860 1_555
O36 Si9 1.625886 1_555
O37 Si10 1.632338 1_555
O38 S10 1.477221 1_555
O39 S11 1.461471 1_555
O40 S12 1.489088 1_555
O41 Si8 1.610482 1_555
O42 Si5 1.645223 1_555
O43 Si6 1.641036 1_555
O44 Si7 1.625968 1_555
O45 S9 1.510132 1_555
O46 S7 1.479573 1_555
O47 S8 1.493835 1_555
O48 S13 1.511567 1_555
O49 S14 1.490525 1_555
O50 S15 1.523714 1_555
O51 Si11 1.648949 1_555
O52 Si12 1.657711 1_555
O53 S16 1.480375 1_555
O54 S17 1.477939 1_555
O55 S18 1.487856 1_555
O56 S19 1.459667 1_555
O57 Si13 1.649142 1_555
O58 Si14 1.644173 1_555
O59 S20 1.501581 1_555
O60 Si14 1.647810 1_555
O61 S20 1.495186 1_555
O62 S17 1.495408 1_555
O63 S18 1.474543 1_555
O64 S19 1.479436 1_555
O65 Si13 1.606074 1_555
O66 S15 1.480715 1_555
O67 Si11 1.623745 1_555
O68 Si12 1.593483 1_555
O69 S16 1.460983 1_555
O70 S13 1.468226 1_555
O71 S14 1.472295 1_555
O72 Si14 1.660463 1_555
O73 S20 1.473602 1_555
O74 S17 1.486363 1_555
O75 S18 1.503781 1_555
O76 S19 1.510847 1_555
O77 Si13 1.664730 1_555
O78 S15 1.469648 1_555
O79 Si11 1.653110 1_555
O80 Si12 1.663846 1_555
O81 S16 1.500064 1_555
O82 S13 1.482279 1_555
O83 S14 1.487287 1_555
O84 S7 1.472334 1_555
O85 S8 1.476055 1_555
O86 Si5 1.660293 1_555
O87 Si6 1.655763 1_555
O88 Si7 1.647007 1_555
O89 S9 1.500917 1_555
O90 S10 1.479151 1_555
O91 S11 1.502606 1_555
O92 S12 1.500574 1_555
O93 Si8 1.658833 1_555
O94 Si9 1.665742 1_555
O95 Si10 1.662052 1_555
O96 S6 1.497127 1_545
O97 Si4 1.613348 1_545
O98 S4 1.481398 1_555
O99 Si2 1.584676 1_555
O100 S5 1.509466 1_555
O101 Si3 1.597686 1_655
O102 Si0 1.628831 1_555
O103 S2 1.488081 1_555
O104 Si1 1.625509 1_555
O105 S3 1.485658 1_555
O106 S0 1.450047 1_555
O107 S1 1.488162 1_555
O108 S13 1.479413 1_555
O109 S14 1.490900 1_555
O110 Si11 1.645743 1_555
O111 S15 1.480484 1_655
O112 Si12 1.638243 1_545
O113 S16 1.520340 1_545
O114 S17 1.480956 1_545
O115 S18 1.472866 1_545
O116 S19 1.496764 1_555
O117 Si13 1.637688 1_555
O118 S20 1.482985 1_555
O119 Si14 1.632265 1_655
O120 Si9 1.666652 1_555
O121 Si10 1.637206 1_555
O122 S11 1.497318 1_455
O123 S10 1.486427 1_555
O124 S12 1.502940 1_565
O125 Si8 1.636213 1_565
O126 Si5 1.644414 1_565
O127 Si6 1.669252 1_565
O128 Si7 1.653455 1_555
O129 S9 1.505128 1_555
O130 S8 1.513189 1_455
O131 S7 1.508970 1_555
O132 S0 1.485949 1_565
O133 S1 1.481665 1_565
O134 Si0 1.633370 1_555
O135 S2 1.466473 1_555
O136 S3 1.490329 1_455
O137 Si1 1.648304 1_555
O138 S4 1.479932 1_555
O139 Si2 1.636991 1_555
O140 Si3 1.643653 1_555
O141 S5 1.476487 1_555
O142 S6 1.481842 1_555
O143 Si4 1.606962 1_555
