# generated using pymatgen
data_Ta2Cl5
_symmetry_space_group_name_H-M   'P 1'
_cell_length_a   17.97949105
_cell_length_b   17.97949105
_cell_length_c   17.97949105
_cell_angle_alpha   109.47122063
_cell_angle_beta   109.47122063
_cell_angle_gamma   109.47122063
_symmetry_Int_Tables_number   1
_chemical_formula_structural   Ta2Cl5
_chemical_formula_sum   'Ta48 Cl120'
_cell_volume   4474.14743564
_cell_formula_units_Z   24
loop_
 _symmetry_equiv_pos_site_id
 _symmetry_equiv_pos_as_xyz
  1  'x, y, z'
loop_
 _atom_site_type_symbol
 _atom_site_label
 _atom_site_symmetry_multiplicity
 _atom_site_fract_x
 _atom_site_fract_y
 _atom_site_fract_z
 _atom_site_occupancy
  Ta  Ta0  1  0.04204600  0.13251400  0.02492200  1
  Ta  Ta1  1  0.13251400  0.60759200  0.09046800  1
  Ta  Ta2  1  0.01712400  0.04204600  0.40953200  1
  Ta  Ta3  1  0.40953200  0.01712400  0.04204600  1
  Ta  Ta4  1  0.02492200  0.48287600  0.89240800  1
  Ta  Ta5  1  0.89240800  0.02492200  0.48287600  1
  Ta  Ta6  1  0.60759200  0.09046800  0.13251500  1
  Ta  Ta7  1  0.01712400  0.47507800  0.60759200  1
  Ta  Ta8  1  0.40953200  0.89240800  0.36748500  1
  Ta  Ta9  1  0.48287600  0.09046800  0.45795400  1
  Ta  Ta10  1  0.47507800  0.60759200  0.01712400  1
  Ta  Ta11  1  0.36748500  0.40953200  0.89240800  1
  Ta  Ta12  1  0.09046800  0.45795400  0.48287600  1
  Ta  Ta13  1  0.02492200  0.04204600  0.13251400  1
  Ta  Ta14  1  0.13251400  0.02492200  0.04204600  1
  Ta  Ta15  1  0.60759200  0.01712400  0.47507800  1
  Ta  Ta16  1  0.36748600  0.45795400  0.47507800  1
  Ta  Ta17  1  0.89240800  0.36748500  0.40953200  1
  Ta  Ta18  1  0.47507800  0.36748600  0.45795400  1
  Ta  Ta19  1  0.45795400  0.48287600  0.09046800  1
  Ta  Ta20  1  0.45795400  0.47507800  0.36748600  1
  Ta  Ta21  1  0.48287600  0.89240800  0.02492200  1
  Ta  Ta22  1  0.09046800  0.13251400  0.60759200  1
  Ta  Ta23  1  0.04204600  0.40953200  0.01712400  1
  Ta  Ta24  1  0.95795400  0.86748500  0.97507800  1
  Ta  Ta25  1  0.86748600  0.39240800  0.90953200  1
  Ta  Ta26  1  0.98287600  0.95795400  0.59046800  1
  Ta  Ta27  1  0.59046800  0.98287600  0.95795400  1
  Ta  Ta28  1  0.97507800  0.51712400  0.10759200  1
  Ta  Ta29  1  0.10759200  0.97507800  0.51712400  1
  Ta  Ta30  1  0.39240800  0.90953200  0.86748600  1
  Ta  Ta31  1  0.98287600  0.52492200  0.39240800  1
  Ta  Ta32  1  0.59046800  0.10759200  0.63251400  1
  Ta  Ta33  1  0.51712400  0.90953200  0.54204600  1
  Ta  Ta34  1  0.52492200  0.39240800  0.98287600  1
  Ta  Ta35  1  0.63251400  0.59046800  0.10759200  1
  Ta  Ta36  1  0.90953200  0.54204600  0.51712400  1
  Ta  Ta37  1  0.97507800  0.95795400  0.86748500  1
  Ta  Ta38  1  0.86748500  0.97507800  0.95795400  1
  Ta  Ta39  1  0.39240800  0.98287600  0.52492200  1
  Ta  Ta40  1  0.63251400  0.54204600  0.52492200  1
  Ta  Ta41  1  0.10759200  0.63251400  0.59046800  1
  Ta  Ta42  1  0.52492200  0.63251400  0.54204600  1
  Ta  Ta43  1  0.54204600  0.51712400  0.90953200  1
  Ta  Ta44  1  0.54204600  0.52492200  0.63251400  1
  Ta  Ta45  1  0.51712400  0.10759200  0.97507800  1
  Ta  Ta46  1  0.90953200  0.86748600  0.39240800  1
  Ta  Ta47  1  0.95795400  0.59046800  0.98287600  1
  Cl  Cl0  1  0.07866900  0.20472000  0.18438700  1
  Cl  Cl1  1  0.20472000  0.52033400  0.12605100  1
  Cl  Cl2  1  0.89428300  0.07866900  0.37394900  1
  Cl  Cl3  1  0.37394900  0.89428300  0.07866900  1
  Cl  Cl4  1  0.18438700  0.60571700  0.97966600  1
  Cl  Cl5  1  0.97966600  0.18438700  0.60571700  1
  Cl  Cl6  1  0.52033400  0.12605100  0.20472000  1
  Cl  Cl7  1  0.89428300  0.31561300  0.52033400  1
  Cl  Cl8  1  0.37394900  0.97966600  0.29528000  1
  Cl  Cl9  1  0.60571700  0.12605100  0.42133100  1
  Cl  Cl10  1  0.31561300  0.52033400  0.89428300  1
  Cl  Cl11  1  0.29528000  0.37394900  0.97966600  1
  Cl  Cl12  1  0.12605100  0.42133100  0.60571700  1
  Cl  Cl13  1  0.18438700  0.07866900  0.20472000  1
  Cl  Cl14  1  0.20472000  0.18438700  0.07866900  1
  Cl  Cl15  1  0.52033400  0.89428300  0.31561300  1
  Cl  Cl16  1  0.29528000  0.42133100  0.31561300  1
  Cl  Cl17  1  0.97966600  0.29528000  0.37394900  1
  Cl  Cl18  1  0.31561300  0.29528000  0.42133100  1
  Cl  Cl19  1  0.42133100  0.60571700  0.12605100  1
  Cl  Cl20  1  0.42133100  0.31561300  0.29528000  1
  Cl  Cl21  1  0.60571700  0.97966600  0.18438700  1
  Cl  Cl22  1  0.12605100  0.20472000  0.52033400  1
  Cl  Cl23  1  0.07866900  0.37394900  0.89428300  1
  Cl  Cl24  1  0.92133100  0.79528000  0.81561300  1
  Cl  Cl25  1  0.79528000  0.47966600  0.87394900  1
  Cl  Cl26  1  0.10571700  0.92133100  0.62605100  1
  Cl  Cl27  1  0.62605100  0.10571700  0.92133100  1
  Cl  Cl28  1  0.81561300  0.39428300  0.02033400  1
  Cl  Cl29  1  0.02033400  0.81561300  0.39428300  1
  Cl  Cl30  1  0.47966600  0.87394900  0.79528000  1
  Cl  Cl31  1  0.10571700  0.68438700  0.47966600  1
  Cl  Cl32  1  0.62605100  0.02033400  0.70472000  1
  Cl  Cl33  1  0.39428300  0.87394900  0.57866900  1
  Cl  Cl34  1  0.68438700  0.47966600  0.10571700  1
  Cl  Cl35  1  0.70472000  0.62605100  0.02033400  1
  Cl  Cl36  1  0.87394900  0.57866900  0.39428300  1
  Cl  Cl37  1  0.81561300  0.92133100  0.79528000  1
  Cl  Cl38  1  0.79528000  0.81561300  0.92133100  1
  Cl  Cl39  1  0.47966600  0.10571700  0.68438700  1
  Cl  Cl40  1  0.70472000  0.57866900  0.68438700  1
  Cl  Cl41  1  0.02033400  0.70472000  0.62605100  1
  Cl  Cl42  1  0.68438700  0.70472000  0.57866900  1
  Cl  Cl43  1  0.57866900  0.39428300  0.87394900  1
  Cl  Cl44  1  0.57866900  0.68438700  0.70472000  1
  Cl  Cl45  1  0.39428300  0.02033400  0.81561300  1
  Cl  Cl46  1  0.87394900  0.79528000  0.47966600  1
  Cl  Cl47  1  0.92133100  0.62605100  0.10571700  1
  Cl  Cl48  1  0.89545300  0.12702700  0.98536200  1
  Cl  Cl49  1  0.12702700  0.64166600  0.23157400  1
  Cl  Cl50  1  0.91009200  0.89545300  0.26842600  1
  Cl  Cl51  1  0.26842600  0.91009200  0.89545300  1
  Cl  Cl52  1  0.98536200  0.58990800  0.85833400  1
  Cl  Cl53  1  0.85833400  0.98536200  0.58990800  1
  Cl  Cl54  1  0.64166600  0.23157400  0.12702700  1
  Cl  Cl55  1  0.91009200  0.51463800  0.64166600  1
  Cl  Cl56  1  0.26842600  0.85833400  0.37297300  1
  Cl  Cl57  1  0.58990800  0.23157400  0.60454700  1
  Cl  Cl58  1  0.51463800  0.64166600  0.91009200  1
  Cl  Cl59  1  0.37297300  0.26842600  0.85833400  1
  Cl  Cl60  1  0.23157400  0.60454700  0.58990800  1
  Cl  Cl61  1  0.98536200  0.89545300  0.12702700  1
  Cl  Cl62  1  0.12702700  0.98536200  0.89545300  1
  Cl  Cl63  1  0.64166600  0.91009200  0.51463800  1
  Cl  Cl64  1  0.37297300  0.60454700  0.51463800  1
  Cl  Cl65  1  0.85833400  0.37297300  0.26842600  1
  Cl  Cl66  1  0.51463800  0.37297300  0.60454700  1
  Cl  Cl67  1  0.60454700  0.58990800  0.23157400  1
  Cl  Cl68  1  0.60454700  0.51463800  0.37297300  1
  Cl  Cl69  1  0.58990800  0.85833400  0.98536200  1
  Cl  Cl70  1  0.23157400  0.12702700  0.64166600  1
  Cl  Cl71  1  0.89545300  0.26842600  0.91009200  1
  Cl  Cl72  1  0.10454700  0.87297300  0.01463800  1
  Cl  Cl73  1  0.87297300  0.35833400  0.76842600  1
  Cl  Cl74  1  0.08990800  0.10454700  0.73157400  1
  Cl  Cl75  1  0.73157400  0.08990800  0.10454700  1
  Cl  Cl76  1  0.01463800  0.41009200  0.14166600  1
  Cl  Cl77  1  0.14166600  0.01463800  0.41009200  1
  Cl  Cl78  1  0.35833400  0.76842600  0.87297300  1
  Cl  Cl79  1  0.08990800  0.48536200  0.35833400  1
  Cl  Cl80  1  0.73157400  0.14166600  0.62702700  1
  Cl  Cl81  1  0.41009200  0.76842600  0.39545300  1
  Cl  Cl82  1  0.48536200  0.35833400  0.08990800  1
  Cl  Cl83  1  0.62702700  0.73157400  0.14166600  1
  Cl  Cl84  1  0.76842600  0.39545300  0.41009200  1
  Cl  Cl85  1  0.01463800  0.10454700  0.87297300  1
  Cl  Cl86  1  0.87297300  0.01463800  0.10454700  1
  Cl  Cl87  1  0.35833400  0.08990800  0.48536200  1
  Cl  Cl88  1  0.62702700  0.39545300  0.48536200  1
  Cl  Cl89  1  0.14166600  0.62702700  0.73157400  1
  Cl  Cl90  1  0.48536200  0.62702700  0.39545300  1
  Cl  Cl91  1  0.39545300  0.41009200  0.76842600  1
  Cl  Cl92  1  0.39545300  0.48536200  0.62702700  1
  Cl  Cl93  1  0.41009200  0.14166600  0.01463800  1
  Cl  Cl94  1  0.76842600  0.87297300  0.35833400  1
  Cl  Cl95  1  0.10454700  0.73157400  0.08990800  1
  Cl  Cl96  1  0.25000000  0.80090000  0.69910000  1
  Cl  Cl97  1  0.80090000  0.60180000  0.55090000  1
  Cl  Cl98  1  0.55090000  0.25000000  0.94910000  1
  Cl  Cl99  1  0.94910000  0.55090000  0.25000000  1
  Cl  Cl100  1  0.69910000  0.94910000  0.89820000  1
  Cl  Cl101  1  0.89820000  0.69910000  0.94910000  1
  Cl  Cl102  1  0.60180000  0.55090000  0.80090000  1
  Cl  Cl103  1  0.55090000  0.80090000  0.60180000  1
  Cl  Cl104  1  0.94910000  0.89820000  0.69910000  1
  Cl  Cl105  1  0.69910000  0.25000000  0.80090000  1
  Cl  Cl106  1  0.80090000  0.69910000  0.25000000  1
  Cl  Cl107  1  0.25000000  0.94910000  0.55090000  1
  Cl  Cl108  1  0.75000000  0.19910000  0.30090000  1
  Cl  Cl109  1  0.19910000  0.39820000  0.44910000  1
  Cl  Cl110  1  0.44910000  0.75000000  0.05090000  1
  Cl  Cl111  1  0.05090000  0.44910000  0.75000000  1
  Cl  Cl112  1  0.30090000  0.05090000  0.10180000  1
  Cl  Cl113  1  0.10180000  0.30090000  0.05090000  1
  Cl  Cl114  1  0.39820000  0.44910000  0.19910000  1
  Cl  Cl115  1  0.44910000  0.19910000  0.39820000  1
  Cl  Cl116  1  0.05090000  0.10180000  0.30090000  1
  Cl  Cl117  1  0.30090000  0.75000000  0.19910000  1
  Cl  Cl118  1  0.19910000  0.30090000  0.75000000  1
  Cl  Cl119  1  0.75000000  0.05090000  0.44910000  1
loop_
_geom_bond_atom_site_label_1
_geom_bond_atom_site_label_2
_geom_bond_distance
_geom_bond_site_symmetry_2
Cl0 Ta0 2.455467 1_555
Cl0 Ta13 2.460583 1_555
Cl1 Ta1 2.455451 1_555
Cl1 Ta23 2.460585 1_555
Cl2 Ta2 2.455451 1_655
Cl2 Ta5 2.460585 1_555
Cl3 Ta3 2.455451 1_565
Cl3 Ta21 2.460585 1_555
Cl4 Ta4 2.455463 1_555
Cl4 Ta1 2.460597 1_556
Cl5 Ta5 2.455463 1_555
Cl5 Ta22 2.460597 1_655
Cl6 Ta6 2.455439 1_555
Cl6 Ta3 2.460585 1_555
Cl7 Ta7 2.455463 1_655
Cl7 Ta17 2.460585 1_555
Cl8 Ta8 2.455439 1_555
Cl8 Ta9 2.460585 1_565
Cl9 Ta9 2.455451 1_555
Cl9 Ta15 2.460585 1_555
Cl10 Ta10 2.455463 1_556
Cl10 Ta11 2.460585 1_555
Cl11 Ta11 2.455439 1_555
Cl11 Ta19 2.460585 1_556
Cl12 Ta12 2.455451 1_555
Cl12 Ta7 2.460585 1_555
Cl13 Ta13 2.455467 1_555
Cl13 Ta14 2.460583 1_555
Cl14 Ta14 2.455467 1_555
Cl14 Ta0 2.460583 1_555
Cl15 Ta15 2.455463 1_565
Cl15 Ta8 2.460585 1_555
Cl16 Ta16 2.455467 1_555
Cl16 Ta20 2.460583 1_555
Cl17 Ta17 2.455439 1_555
Cl17 Ta12 2.460585 1_655
Cl18 Ta18 2.455467 1_555
Cl18 Ta16 2.460583 1_555
Cl19 Ta19 2.455451 1_555
Cl19 Ta10 2.460585 1_555
Cl20 Ta20 2.455467 1_555
Cl20 Ta18 2.460583 1_555
Cl21 Ta21 2.455463 1_555
Cl21 Ta6 2.460585 1_565
Cl22 Ta22 2.455451 1_555
Cl22 Ta2 2.460585 1_555
Cl23 Ta23 2.455451 1_556
Cl23 Ta4 2.460585 1_555
Cl24 Ta24 2.455467 1_555
Cl24 Ta37 2.460585 1_555
Cl25 Ta25 2.455451 1_555
Cl25 Ta47 2.460585 1_555
Cl26 Ta26 2.455451 1_455
Cl26 Ta29 2.460585 1_555
Cl27 Ta27 2.455451 1_545
Cl27 Ta45 2.460585 1_555
Cl28 Ta28 2.455463 1_555
Cl28 Ta25 2.460597 1_554
Cl29 Ta29 2.455463 1_555
Cl29 Ta46 2.460597 1_455
Cl30 Ta30 2.455451 1_555
Cl30 Ta27 2.460585 1_555
Cl31 Ta31 2.455463 1_455
Cl31 Ta41 2.460597 1_555
Cl32 Ta32 2.455451 1_555
Cl32 Ta33 2.460585 1_545
Cl33 Ta33 2.455451 1_555
Cl33 Ta39 2.460585 1_555
Cl34 Ta34 2.455463 1_554
Cl34 Ta35 2.460597 1_555
Cl35 Ta35 2.455451 1_555
Cl35 Ta43 2.460585 1_554
Cl36 Ta36 2.455451 1_555
Cl36 Ta31 2.460585 1_555
Cl37 Ta37 2.455467 1_555
Cl37 Ta38 2.460585 1_555
Cl38 Ta38 2.455467 1_555
Cl38 Ta24 2.460585 1_555
Cl39 Ta39 2.455463 1_545
Cl39 Ta32 2.460597 1_555
Cl40 Ta40 2.455467 1_555
Cl40 Ta44 2.460583 1_555
Cl41 Ta41 2.455451 1_555
Cl41 Ta36 2.460585 1_455
Cl42 Ta42 2.455467 1_555
Cl42 Ta40 2.460583 1_555
Cl43 Ta43 2.455451 1_555
Cl43 Ta34 2.460585 1_555
Cl44 Ta44 2.455467 1_555
Cl44 Ta42 2.460583 1_555
Cl45 Ta45 2.455463 1_555
Cl45 Ta30 2.460597 1_545
Cl46 Ta46 2.455451 1_555
Cl46 Ta26 2.460585 1_555
Cl47 Ta47 2.455451 1_554
Cl47 Ta28 2.460585 1_555
Cl48 Ta38 2.445563 1_545
Cl48 Ta0 2.447953 1_656
Cl49 Ta28 2.445571 1_455
Cl49 Ta1 2.447952 1_555
Cl50 Ta46 2.445571 1_555
Cl50 Ta2 2.447952 1_665
Cl51 Ta30 2.445571 1_555
Cl51 Ta3 2.447952 1_566
Cl52 Ta47 2.445580 1_555
Cl52 Ta4 2.447944 1_655
Cl53 Ta26 2.445580 1_555
Cl53 Ta5 2.447944 1_565
Cl54 Ta45 2.445571 1_554
Cl54 Ta6 2.447960 1_555
Cl55 Ta36 2.445580 1_555
Cl55 Ta7 2.447944 1_655
Cl56 Ta39 2.445571 1_555
Cl56 Ta8 2.447960 1_555
Cl57 Ta32 2.445571 1_555
Cl57 Ta9 2.447952 1_555
Cl58 Ta43 2.445580 1_555
Cl58 Ta10 2.447944 1_556
Cl59 Ta34 2.445571 1_555
Cl59 Ta11 2.447960 1_555
Cl60 Ta41 2.445571 1_555
Cl60 Ta12 2.447952 1_555
Cl61 Ta24 2.445563 1_554
Cl61 Ta13 2.447953 1_665
Cl62 Ta37 2.445563 1_455
Cl62 Ta14 2.447953 1_566
Cl63 Ta33 2.445580 1_555
Cl63 Ta15 2.447944 1_565
Cl64 Ta42 2.445567 1_555
Cl64 Ta16 2.447953 1_555
Cl65 Ta31 2.445571 1_555
Cl65 Ta17 2.447960 1_555
Cl66 Ta44 2.445567 1_555
Cl66 Ta18 2.447953 1_555
Cl67 Ta35 2.445571 1_555
Cl67 Ta19 2.447952 1_555
Cl68 Ta40 2.445567 1_555
Cl68 Ta20 2.447953 1_555
Cl69 Ta27 2.445580 1_555
Cl69 Ta21 2.447944 1_556
Cl70 Ta29 2.445571 1_545
Cl70 Ta22 2.447952 1_555
Cl71 Ta25 2.445571 1_555
Cl71 Ta23 2.447952 1_656
Cl72 Ta14 2.445567 1_565
Cl72 Ta24 2.447946 1_454
Cl73 Ta4 2.445571 1_655
Cl73 Ta25 2.447952 1_555
Cl74 Ta22 2.445571 1_555
Cl74 Ta26 2.447952 1_445
Cl75 Ta6 2.445580 1_555
Cl75 Ta27 2.447952 1_544
Cl76 Ta23 2.445580 1_555
Cl76 Ta28 2.447944 1_455
Cl77 Ta2 2.445580 1_555
Cl77 Ta29 2.447944 1_545
Cl78 Ta21 2.445571 1_556
Cl78 Ta30 2.447952 1_555
Cl79 Ta12 2.445580 1_555
Cl79 Ta31 2.447944 1_455
Cl80 Ta15 2.445571 1_555
Cl80 Ta32 2.447952 1_555
Cl81 Ta8 2.445580 1_555
Cl81 Ta33 2.447952 1_555
Cl82 Ta19 2.445580 1_555
Cl82 Ta34 2.447944 1_554
Cl83 Ta10 2.445571 1_555
Cl83 Ta35 2.447952 1_555
Cl84 Ta17 2.445580 1_555
Cl84 Ta36 2.447952 1_555
Cl85 Ta0 2.445567 1_556
Cl85 Ta37 2.447946 1_445
Cl86 Ta13 2.445567 1_655
Cl86 Ta38 2.447946 1_544
Cl87 Ta9 2.445580 1_555
Cl87 Ta39 2.447944 1_545
Cl88 Ta18 2.445567 1_555
Cl88 Ta40 2.447953 1_555
Cl89 Ta7 2.445571 1_555
Cl89 Ta41 2.447952 1_555
Cl90 Ta20 2.445567 1_555
Cl90 Ta42 2.447953 1_555
Cl91 Ta11 2.445580 1_555
Cl91 Ta43 2.447952 1_555
Cl92 Ta16 2.445567 1_555
Cl92 Ta44 2.447953 1_555
Cl93 Ta3 2.445580 1_555
Cl93 Ta45 2.447944 1_554
Cl94 Ta5 2.445571 1_565
Cl94 Ta46 2.447952 1_555
Cl95 Ta1 2.445571 1_555
Cl95 Ta47 2.447952 1_454
Cl96 Ta30 2.663171 1_555
Cl96 Ta41 2.663171 1_555
Cl97 Ta36 2.663171 1_555
Cl97 Ta40 2.663171 1_555
Cl98 Ta45 2.663171 1_555
Cl98 Ta34 2.663171 1_555
Cl99 Ta28 2.663171 1_555
Cl99 Ta31 2.663171 1_555
Cl100 Ta38 2.663154 1_555
Cl100 Ta27 2.663171 1_555
Cl101 Ta24 2.663154 1_555
Cl101 Ta47 2.663171 1_555
Cl102 Ta43 2.663171 1_555
Cl102 Ta44 2.663171 1_555
Cl103 Ta33 2.663171 1_555
Cl103 Ta42 2.663171 1_555
Cl104 Ta37 2.663154 1_555
Cl104 Ta26 2.663171 1_555
Cl105 Ta25 2.663171 1_555
Cl105 Ta32 2.663171 1_555
Cl106 Ta46 2.663171 1_555
Cl106 Ta35 2.663171 1_555
Cl107 Ta29 2.663171 1_555
Cl107 Ta39 2.663171 1_555
Cl108 Ta17 2.663161 1_555
Cl108 Ta6 2.663161 1_555
Cl109 Ta16 2.663171 1_555
Cl109 Ta12 2.663171 1_555
Cl110 Ta10 2.663171 1_555
Cl110 Ta21 2.663171 1_555
Cl111 Ta4 2.663171 1_555
Cl111 Ta7 2.663171 1_555
Cl112 Ta14 2.663171 1_555
Cl112 Ta3 2.663171 1_555
Cl113 Ta23 2.663171 1_555
Cl113 Ta0 2.663171 1_555
Cl114 Ta20 2.663171 1_555
Cl114 Ta19 2.663171 1_555
Cl115 Ta18 2.663171 1_555
Cl115 Ta9 2.663171 1_555
Cl116 Ta2 2.663171 1_555
Cl116 Ta13 2.663171 1_555
Cl117 Ta8 2.663161 1_555
Cl117 Ta1 2.663171 1_555
Cl118 Ta11 2.663161 1_555
Cl118 Ta22 2.663171 1_555
Cl119 Ta15 2.663171 1_555
Cl119 Ta5 2.663171 1_555
