# generated using pymatgen
data_MgFe8(OF)8
_symmetry_space_group_name_H-M   'P 1'
_cell_length_a   9.78882706
_cell_length_b   9.87824014
_cell_length_c   3.07167300
_cell_angle_alpha   90.00000000
_cell_angle_beta   90.00000000
_cell_angle_gamma   84.49289457
_symmetry_Int_Tables_number   1
_chemical_formula_structural   MgFe8(OF)8
_chemical_formula_sum   'Mg1 Fe8 O8 F8'
_cell_volume   295.64872075
_cell_formula_units_Z   1
loop_
 _symmetry_equiv_pos_site_id
 _symmetry_equiv_pos_as_xyz
  1  'x, y, z'
loop_
 _atom_site_type_symbol
 _atom_site_label
 _atom_site_symmetry_multiplicity
 _atom_site_fract_x
 _atom_site_fract_y
 _atom_site_fract_z
 _atom_site_occupancy
  Mg  Mg0  1  0.76322700  0.77088900  0.00000000  1
  Fe  Fe0  1  0.03410200  0.02704100  0.00000000  1
  Fe  Fe1  1  0.02456200  0.55548000  0.00000000  1
  Fe  Fe2  1  0.20746800  0.27263900  0.50000000  1
  Fe  Fe3  1  0.23386800  0.77015000  0.50000000  1
  Fe  Fe4  1  0.47512100  0.49043300  0.00000000  1
  Fe  Fe5  1  0.49798500  0.99781000  0.00000000  1
  Fe  Fe6  1  0.73363600  0.25083100  0.50000000  1
  Fe  Fe7  1  0.73141300  0.51380600  0.50000000  1
  O  O0  1  0.09215300  0.44467800  0.50000000  1
  O  O1  1  0.12701100  0.94248000  0.50000000  1
  O  O2  1  0.13546800  0.18515300  0.00000000  1
  O  O3  1  0.14798800  0.69271100  0.00000000  1
  O  O4  1  0.58111600  0.38537400  0.50000000  1
  O  O5  1  0.64537200  0.61479200  0.00000000  1
  O  O6  1  0.80730000  0.36287500  0.00000000  1
  O  O7  1  0.88207900  0.63777100  0.50000000  1
  F  F0  1  0.32732600  0.34841400  0.00000000  1
  F  F1  1  0.36489200  0.84985000  0.00000000  1
  F  F2  1  0.39645100  0.10685200  0.50000000  1
  F  F3  1  0.37921100  0.61282400  0.50000000  1
  F  F4  1  0.63516700  0.87832100  0.50000000  1
  F  F5  1  0.65416700  0.13215100  0.00000000  1
  F  F6  1  0.88468600  0.90706800  0.00000000  1
  F  F7  1  0.90490100  0.12460300  0.50000000  1
loop_
_geom_bond_atom_site_label_1
_geom_bond_atom_site_label_2
_geom_bond_distance
_geom_bond_site_symmetry_2
Mg0 O5 2.012468 1_555
Mg0 O7 2.268888 1_555
Mg0 O7 2.268888 1_554
Fe0 O2 1.929109 1_555
Fe0 O1 1.933356 1_544
Fe0 O1 1.933356 1_545
Fe1 O3 1.900461 1_555
Fe1 O0 1.963556 1_555
Fe1 O0 1.963556 1_554
Fe1 O7 2.178824 1_455
Fe1 O7 2.178824 1_454
Fe2 O2 1.928547 1_555
Fe2 O2 1.928547 1_556
Fe2 O0 1.947843 1_555
Fe3 O1 1.910560 1_555
Fe3 O3 1.942706 1_555
Fe3 O3 1.942706 1_556
Fe4 O4 2.075015 1_554
Fe4 O4 2.075015 1_555
Fe4 O5 2.163204 1_555
Fe6 O4 1.901194 1_555
Fe6 O6 2.063236 1_556
Fe6 O6 2.063236 1_555
Fe7 O5 1.975356 1_556
Fe7 O5 1.975356 1_555
Fe7 O7 2.005330 1_555
Fe7 O4 2.032814 1_555
Fe7 O6 2.218313 1_555
Fe7 O6 2.218313 1_556
F0 Fe4 2.109678 1_555
F0 Fe2 2.112867 1_555
F0 Fe2 2.112867 1_554
F1 Fe5 2.049163 1_555
F1 Fe3 2.194864 1_555
F1 Fe3 2.194864 1_554
F2 Fe5 2.073977 1_546
F2 Fe5 2.073977 1_545
F2 Fe2 2.350048 1_555
F3 Fe3 2.003754 1_555
F3 Fe4 2.117560 1_556
F3 Fe4 2.117560 1_555
F4 Mg0 2.191138 1_555
F4 Mg0 2.191138 1_556
F4 Fe5 2.291511 1_556
F4 Fe5 2.291511 1_555
F5 Fe5 2.118450 1_545
F5 Fe6 2.124472 1_555
F5 Fe6 2.124472 1_554
F6 Mg0 1.878869 1_555
F6 Fe0 1.968866 1_665
F7 Fe6 1.991017 1_555
F7 Fe0 2.157122 1_656
F7 Fe0 2.157122 1_655
