# generated using pymatgen
data_Na7Hf3MgSi3(PO8)3
_symmetry_space_group_name_H-M   'P 1'
_cell_length_a   9.12017480
_cell_length_b   9.11446416
_cell_length_c   22.51455523
_cell_angle_alpha   90.09644328
_cell_angle_beta   90.13093218
_cell_angle_gamma   120.06135881
_symmetry_Int_Tables_number   1
_chemical_formula_structural   Na7Hf3MgSi3(PO8)3
_chemical_formula_sum   'Na21 Hf9 Mg3 Si9 P9 O72'
_cell_volume   1619.77988760
_cell_formula_units_Z   3
loop_
 _symmetry_equiv_pos_site_id
 _symmetry_equiv_pos_as_xyz
  1  'x, y, z'
loop_
 _atom_site_type_symbol
 _atom_site_label
 _atom_site_symmetry_multiplicity
 _atom_site_fract_x
 _atom_site_fract_y
 _atom_site_fract_z
 _atom_site_occupancy
  Na  Na0  1  0.63814987  0.01459950  0.24572174  1
  Na  Na1  1  0.37696416  0.36282244  0.24617312  1
  Na  Na2  1  0.98762560  0.62773708  0.24955189  1
  Na  Na3  1  0.64040264  0.62230309  0.74781353  1
  Na  Na4  1  0.98249506  0.36917958  0.74344851  1
  Na  Na5  1  0.37123704  0.00814122  0.74434823  1
  Na  Na6  1  0.02640295  0.68718767  0.58526205  1
  Na  Na7  1  0.66777479  0.97615642  0.57974846  1
  Na  Na8  1  0.31737300  0.98090679  0.08464776  1
  Na  Na9  1  0.65966804  0.68901229  0.08462684  1
  Na  Na10  1  0.02608859  0.33231227  0.08027170  1
  Na  Na11  1  0.33411514  0.30570970  0.91901414  1
  Na  Na12  1  0.96984840  0.28641539  0.41509665  1
  Na  Na13  1  0.31707275  0.03038812  0.41362594  1
  Na  Na14  1  0.71327420  0.68253211  0.41348212  1
  Na  Na15  1  0.00852005  0.01394864  0.49024268  1
  Na  Na16  1  0.98524206  0.99619975  0.99589142  1
  Na  Na17  1  0.68857810  0.34748215  0.83321033  1
  Na  Na18  1  0.66522233  0.33302709  0.33239842  1
  Na  Na19  1  0.34001741  0.66874695  0.16482113  1
  Na  Na20  1  0.32286032  0.65100630  0.66294520  1
  Hf  Hf0  1  0.99054577  0.99117231  0.85453633  1
  Hf  Hf1  1  0.00649677  0.00461758  0.64632816  1
  Hf  Hf2  1  0.00025277  0.00295224  0.14832864  1
  Hf  Hf3  1  0.67146801  0.33110140  0.98005079  1
  Hf  Hf4  1  0.66841389  0.33178281  0.48130289  1
  Hf  Hf5  1  0.33707525  0.66524727  0.01667164  1
  Hf  Hf6  1  0.32959539  0.65845339  0.51759502  1
  Hf  Hf7  1  0.33334738  0.66607107  0.31704687  1
  Hf  Hf8  1  0.32799322  0.66319164  0.81573652  1
  Mg  Mg0  1  0.99854369  0.99925496  0.35318617  1
  Mg  Mg1  1  0.67327929  0.34074236  0.68268608  1
  Mg  Mg2  1  0.66214120  0.33125828  0.18099950  1
  Si  Si0  1  0.99953074  0.70352140  0.74864729  1
  Si  Si1  1  0.96359508  0.33466794  0.58650728  1
  Si  Si2  1  0.66456431  0.03859870  0.08718637  1
  Si  Si3  1  0.37335196  0.33428914  0.08491521  1
  Si  Si4  1  0.62955875  0.66474310  0.91625370  1
  Si  Si5  1  0.03483776  0.36911345  0.91599586  1
  Si  Si6  1  0.62746747  0.96178691  0.41781158  1
  Si  Si7  1  0.33400708  0.36990077  0.41483435  1
  Si  Si8  1  0.03789472  0.66709018  0.41702267  1
  P  P0  1  0.29389700  0.99970720  0.25176882  1
  P  P1  1  0.70659418  0.70518899  0.25141241  1
  P  P2  1  0.99965264  0.29600152  0.25152698  1
  P  P3  1  0.29253432  0.29245317  0.75176868  1
  P  P4  1  0.70697440  0.99859478  0.74914688  1
  P  P5  1  0.37512778  0.04127579  0.58568815  1
  P  P6  1  0.66531705  0.62765149  0.58643796  1
  P  P7  1  0.95885526  0.62565570  0.08580259  1
  P  P8  1  0.33384897  0.96139714  0.91661718  1
  O  O0  1  0.20627426  0.01974165  0.30607915  1
  O  O1  1  0.81369246  0.79185865  0.30625129  1
  O  O2  1  0.97639547  0.18745560  0.30584394  1
  O  O3  1  0.20829074  0.18640973  0.80773246  1
  O  O4  1  0.97928034  0.80980509  0.80354996  1
  O  O5  1  0.82525001  0.02660645  0.80261725  1
  O  O6  1  0.79129667  0.97157190  0.69325895  1
  O  O7  1  0.17254517  0.20432919  0.69792238  1
  O  O8  1  0.03147709  0.82312671  0.68968407  1
  O  O9  1  0.79394563  0.81579306  0.19488250  1
  O  O10  1  0.02328285  0.20690931  0.19496862  1
  O  O11  1  0.18317249  0.97512840  0.19478264  1
  O  O12  1  0.88323740  0.36737720  0.64518714  1
  O  O13  1  0.48041509  0.12373814  0.64133128  1
  O  O14  1  0.64033652  0.52482643  0.64241146  1
  O  O15  1  0.88807289  0.51998336  0.14247442  1
  O  O16  1  0.63062093  0.11320166  0.14705971  1
  O  O17  1  0.48884684  0.37634179  0.14363525  1
  O  O18  1  0.45878289  0.29928567  0.02639995  1
  O  O19  1  0.83979961  0.53987752  0.03229518  1
  O  O20  1  0.70520241  0.16815579  0.03119723  1
  O  O21  1  0.45899342  0.14835355  0.52932883  1
  O  O22  1  0.69110603  0.54179747  0.53067613  1
  O  O23  1  0.84310123  0.30375498  0.52708653  1
  O  O24  1  0.53779425  0.68848208  0.97549683  1
  O  O25  1  0.15247520  0.46116561  0.97489804  1
  O  O26  1  0.31044039  0.85465214  0.97249551  1
  O  O27  1  0.53678622  0.84437028  0.47608183  1
  O  O28  1  0.30379698  0.46818336  0.47008685  1
  O  O29  1  0.15907750  0.69535714  0.47477417  1
  O  O30  1  0.12452342  0.62923088  0.35817791  1
  O  O31  1  0.50430284  0.87264936  0.35872422  1
  O  O32  1  0.37119629  0.49164152  0.35541137  1
  O  O33  1  0.12905447  0.48610432  0.85714959  1
  O  O34  1  0.35424884  0.87285330  0.86092790  1
  O  O35  1  0.51093125  0.64012296  0.85760536  1
  O  O36  1  0.01874101  0.83256706  0.41225132  1
  O  O37  1  0.81290704  0.98267049  0.41262272  1
  O  O38  1  0.16822380  0.18508907  0.41098849  1
  O  O39  1  0.03694369  0.19069827  0.91110320  1
  O  O40  1  0.17854475  0.98640355  0.91043137  1
  O  O41  1  0.81686302  0.83360321  0.91292855  1
  O  O42  1  0.97127641  0.15695762  0.58887877  1
  O  O43  1  0.19181721  0.01417273  0.58862733  1
  O  O44  1  0.83238440  0.80623107  0.59007055  1
  O  O45  1  0.97693269  0.80508625  0.09126999  1
  O  O46  1  0.83162295  0.01103846  0.09044523  1
  O  O47  1  0.18322392  0.16040825  0.09038433  1
  O  O48  1  0.68203529  0.15268286  0.74536058  1
  O  O49  1  0.46699632  0.30804694  0.74481073  1
  O  O50  1  0.83075763  0.51757186  0.74861106  1
  O  O51  1  0.68624093  0.52681093  0.24583905  1
  O  O52  1  0.84555858  0.32174044  0.24496559  1
  O  O53  1  0.47275298  0.15689172  0.24689528  1
  O  O54  1  0.63125704  0.48674137  0.92166178  1
  O  O55  1  0.84847911  0.34959463  0.92037040  1
  O  O56  1  0.49194399  0.13985622  0.92158260  1
  O  O57  1  0.63632821  0.14640612  0.42215120  1
  O  O58  1  0.50677839  0.35897426  0.42268732  1
  O  O59  1  0.85145877  0.49467599  0.42313484  1
  O  O60  1  0.34097419  0.49722507  0.07759056  1
  O  O61  1  0.13921377  0.65256483  0.07597913  1
  O  O62  1  0.49445047  0.84968116  0.07783004  1
  O  O63  1  0.35750231  0.86195547  0.57981131  1
  O  O64  1  0.51675955  0.66320798  0.57948209  1
  O  O65  1  0.15008398  0.50776159  0.57956132  1
  O  O66  1  0.30666836  0.83309560  0.25278396  1
  O  O67  1  0.52755695  0.69229861  0.25234296  1
  O  O68  1  0.16708970  0.47406439  0.25238194  1
  O  O69  1  0.31034690  0.47236317  0.75463842  1
  O  O70  1  0.17563201  0.69214627  0.75303632  1
  O  O71  1  0.53188001  0.83320996  0.75518229  1
loop_
_geom_bond_atom_site_label_1
_geom_bond_atom_site_label_2
_geom_bond_distance
_geom_bond_site_symmetry_2
Na0 O16 2.411338 1_555
Na0 O53 2.432722 1_555
Na0 O52 2.471906 1_555
Na0 O67 2.588971 1_545
Na0 O66 2.625667 1_545
Na0 O31 2.842534 1_545
Na1 O53 2.434994 1_555
Na1 O51 2.442657 1_555
Na1 O17 2.504345 1_555
Na1 O68 2.579993 1_555
Na1 O67 2.605624 1_555
Na1 O32 2.735500 1_555
Na2 O52 2.417854 1_555
Na2 O51 2.423624 1_555
Na2 O66 2.552925 1_655
Na2 O15 2.586415 1_555
Na2 O68 2.634647 1_655
Na2 O30 2.740293 1_655
Na3 O50 2.363399 1_555
Na3 O49 2.484029 1_555
Na3 O14 2.532432 1_555
Na3 O71 2.570635 1_555
Na3 O69 2.614154 1_555
Na3 O35 2.781216 1_555
Na4 O50 2.373457 1_555
Na4 O12 2.385349 1_555
Na4 O48 2.447065 1_555
Na4 O70 2.572133 1_655
Na4 O69 2.658371 1_655
Na4 O33 2.832606 1_655
Na5 O49 2.417213 1_555
Na5 O48 2.455424 1_555
Na5 O70 2.524247 1_545
Na5 O13 2.539451 1_555
Na5 O71 2.662344 1_545
Na5 O34 2.873168 1_545
Na5 O8 2.949694 1_545
Na6 O65 2.410674 1_555
Na6 O44 2.498802 1_455
Na6 O43 2.580324 1_565
Na6 O63 2.618065 1_555
Na6 O8 2.645150 1_555
Na6 O29 2.753521 1_555
Na6 O12 2.868807 1_455
Na6 O22 2.921494 1_455
Na7 O42 2.417855 1_565
Na7 O64 2.469211 1_555
Na7 O63 2.477902 1_555
Na7 O27 2.618730 1_555
Na7 O44 2.652469 1_555
Na7 O6 2.799373 1_555
Na7 O23 2.848755 1_565
Na7 O13 2.993146 1_565
Na8 O62 2.449070 1_555
Na8 O47 2.489099 1_565
Na8 O61 2.599844 1_555
Na8 O45 2.692326 1_455
Na8 O11 2.756650 1_555
Na8 O26 2.760566 1_554
Na8 O18 2.841654 1_565
Na8 O16 2.848677 1_565
Na9 O60 2.536833 1_555
Na9 O45 2.538631 1_555
Na9 O46 2.545118 1_565
Na9 O62 2.578524 1_555
Na9 O24 2.693416 1_554
Na9 O9 2.748783 1_555
Na9 O17 2.808528 1_555
Na9 O19 2.859271 1_555
Na10 O60 2.487313 1_555
Na10 O46 2.563911 1_455
Na10 O61 2.564808 1_555
Na10 O47 2.609559 1_555
Na10 O25 2.646138 1_554
Na10 O20 2.759868 1_455
Na10 O10 2.820732 1_555
Na10 O15 2.937456 1_455
Na11 O54 2.364158 1_555
Na11 O39 2.372108 1_555
Na11 O40 2.525918 1_545
Na11 O56 2.557402 1_555
Na11 O18 2.682587 1_556
Na11 O3 2.739361 1_555
Na11 O25 2.947888 1_555
Na11 O35 2.983687 1_555
Na12 O37 2.396960 1_545
Na12 O38 2.410227 1_655
Na12 O59 2.618158 1_555
Na12 O2 2.629594 1_555
Na12 O57 2.649542 1_555
Na12 O23 2.813128 1_555
Na12 O28 2.911073 1_655
Na12 O30 3.000175 1_655
Na13 O36 2.395707 1_545
Na13 O38 2.398365 1_555
Na13 O57 2.558312 1_555
Na13 O0 2.604485 1_555
Na13 O58 2.609503 1_555
Na13 O21 2.863266 1_555
Na13 O29 2.985178 1_545
Na13 O31 2.995648 1_545
Na14 O36 2.411598 1_655
Na14 O37 2.412355 1_555
Na14 O58 2.593506 1_555
Na14 O59 2.594032 1_555
Na14 O1 2.600811 1_555
Na14 O22 2.898675 1_555
Na15 O38 2.341723 1_555
Na15 O37 2.406779 1_445
Na15 O36 2.443449 1_545
Na15 O42 2.680176 1_455
Na15 O43 2.771433 1_555
Na15 O44 2.863626 1_445
Na16 O41 2.396033 1_555
Na16 O39 2.487408 1_665
Na16 O46 2.591454 1_566
Na16 O40 2.644002 1_655
Na16 O47 2.700132 1_666
Na16 O45 2.744519 1_556
Na17 O50 2.391649 1_555
Na17 O55 2.436523 1_555
Na17 O54 2.551712 1_555
Na17 O48 2.636192 1_555
Na17 O56 2.717530 1_555
Na17 O49 2.725030 1_555
Na18 O53 2.552509 1_555
Na18 O57 2.571190 1_555
Na18 O51 2.574573 1_555
Na18 O58 2.574991 1_555
Na18 O59 2.587654 1_555
Na18 O52 2.602743 1_555
Na19 O62 2.497155 1_555
Na19 O60 2.510899 1_555
Na19 O67 2.543578 1_555
Na19 O66 2.589929 1_555
Na19 O68 2.597040 1_555
Na19 O61 2.662378 1_555
Na20 O65 2.372581 1_555
Na20 O64 2.547469 1_555
Na20 O70 2.563617 1_555
Na20 O63 2.589620 1_555
Na20 O69 2.598516 1_555
Na20 O71 2.739179 1_555
Hf0 O4 1.970749 1_555
Hf0 O41 2.009176 1_555
Hf0 O5 2.055321 1_565
Hf0 O39 2.080153 1_665
Hf0 O40 2.142515 1_655
Hf0 O3 2.167066 1_665
Hf1 O8 2.030539 1_545
Hf1 O42 2.038405 1_455
Hf1 O7 2.044320 1_555
Hf1 O43 2.101152 1_555
Hf1 O6 2.116018 1_445
Hf1 O44 2.121764 1_445
Hf2 O47 2.040386 1_555
Hf2 O46 2.042981 1_455
Hf2 O10 2.050306 1_555
Hf2 O9 2.085237 1_445
Hf2 O11 2.087598 1_545
Hf2 O45 2.134161 1_445
Hf3 O20 2.021960 1_556
Hf3 O55 2.044049 1_555
Hf3 O18 2.093399 1_556
Hf3 O54 2.097690 1_555
Hf3 O19 2.102116 1_556
Hf3 O56 2.138961 1_555
Hf4 O23 2.016718 1_555
Hf4 O57 2.051666 1_555
Hf4 O59 2.059058 1_555
Hf4 O58 2.081916 1_555
Hf4 O21 2.104432 1_555
Hf4 O22 2.130135 1_555
Hf5 O24 1.968587 1_554
Hf5 O25 2.007092 1_554
Hf5 O60 2.071023 1_555
Hf5 O62 2.085145 1_555
Hf5 O26 2.110271 1_554
Hf5 O61 2.203458 1_555
Hf6 O28 1.946986 1_555
Hf6 O29 1.994846 1_555
Hf6 O27 2.030053 1_555
Hf6 O65 2.068164 1_555
Hf6 O64 2.184466 1_555
Hf6 O63 2.232474 1_555
Hf7 O31 1.975560 1_555
Hf7 O32 1.986422 1_555
Hf7 O30 1.991457 1_555
Hf7 O68 2.191866 1_555
Hf7 O66 2.201591 1_555
Hf7 O67 2.214805 1_555
Hf8 O33 1.960950 1_555
Hf8 O35 2.015290 1_555
Hf8 O34 2.068386 1_555
Hf8 O70 2.086387 1_555
Hf8 O69 2.157272 1_555
Hf8 O71 2.202180 1_555
Mg0 O38 2.077180 1_665
Mg0 O1 2.079541 1_555
Mg0 O36 2.096809 1_655
Mg0 O0 2.098676 1_665
Mg0 O37 2.105853 1_555
Mg0 O2 2.114627 1_565
Mg1 O12 1.995184 1_555
Mg1 O14 2.058276 1_555
Mg1 O13 2.091341 1_555
Mg1 O50 2.127568 1_555
Mg1 O49 2.244186 1_555
Mg1 O48 2.253955 1_555
Mg2 O17 2.005034 1_555
Mg2 O16 2.009494 1_555
Mg2 O15 2.102195 1_555
Mg2 O51 2.225650 1_555
Mg2 O53 2.231539 1_555
Mg2 O52 2.239343 1_555
O0 P0 1.522184 1_545
O1 P1 1.523376 1_555
O2 P2 1.521296 1_555
O3 P3 1.541634 1_555
O4 Si0 1.636076 1_555
O5 P4 1.547632 1_545
O6 P4 1.558370 1_555
O7 P3 1.556430 1_555
O8 Si0 1.650473 1_455
O9 P1 1.573265 1_555
O10 P2 1.581280 1_455
O11 P0 1.575608 1_555
O12 Si1 1.610410 1_555
O13 P5 1.524696 1_555
O14 P6 1.519791 1_555
O15 P7 1.535383 1_555
O16 Si2 1.607812 1_555
O17 Si3 1.609877 1_555
O18 Si3 1.642202 1_555
O19 P7 1.543336 1_555
O20 Si2 1.639962 1_555
O21 P5 1.551895 1_555
O22 P6 1.557639 1_555
O23 Si1 1.660911 1_555
O24 Si4 1.646781 1_555
O25 Si5 1.643659 1_555
O26 P8 1.540184 1_555
O27 Si6 1.635055 1_555
O28 Si7 1.634301 1_555
O29 Si8 1.638763 1_555
O30 Si8 1.665809 1_555
O31 Si6 1.663379 1_555
O32 Si7 1.663193 1_555
O33 Si5 1.650069 1_555
O34 P8 1.551148 1_555
O35 Si4 1.647325 1_555
O36 Si8 1.606623 1_555
O37 Si6 1.608925 1_555
O38 Si7 1.605707 1_555
O39 Si5 1.639388 1_555
O40 P8 1.549247 1_555
O41 Si4 1.630777 1_555
O42 Si1 1.656880 1_555
O43 P5 1.564354 1_555
O44 P6 1.578581 1_555
O45 P7 1.563973 1_555
O46 Si2 1.665184 1_555
O47 Si3 1.667948 1_555
O48 P4 1.533547 1_545
O49 P3 1.533319 1_555
O50 Si0 1.621145 1_555
O51 P1 1.546075 1_555
O52 P2 1.543173 1_555
O53 P0 1.544478 1_545
O54 Si4 1.634946 1_555
O55 Si5 1.621100 1_655
O56 P8 1.544725 1_545
O57 Si6 1.646435 1_545
O58 Si7 1.637078 1_555
O59 Si8 1.644503 1_655
O60 Si3 1.661259 1_555
O61 P7 1.553202 1_455
O62 Si2 1.654446 1_565
O63 P5 1.565439 1_565
O64 P6 1.550589 1_555
O65 Si1 1.649239 1_455
O66 P0 1.580339 1_555
O67 P1 1.577470 1_555
O68 P2 1.575773 1_455
O69 P3 1.565940 1_555
O70 Si0 1.663166 1_455
O71 P4 1.559114 1_555
