# generated using pymatgen
data_Na3YNb3Si3(PO8)3
_symmetry_space_group_name_H-M   'P 1'
_cell_length_a   9.00251379
_cell_length_b   9.00942827
_cell_length_c   22.88434899
_cell_angle_alpha   90.00099631
_cell_angle_beta   89.90128761
_cell_angle_gamma   119.83322906
_symmetry_Int_Tables_number   1
_chemical_formula_structural   Na3YNb3Si3(PO8)3
_chemical_formula_sum   'Na9 Y3 Nb9 Si9 P9 O72'
_cell_volume   1610.11446598
_cell_formula_units_Z   3
loop_
 _symmetry_equiv_pos_site_id
 _symmetry_equiv_pos_as_xyz
  1  'x, y, z'
loop_
 _atom_site_type_symbol
 _atom_site_label
 _atom_site_symmetry_multiplicity
 _atom_site_fract_x
 _atom_site_fract_y
 _atom_site_fract_z
 _atom_site_occupancy
  Na  Na0  1  0.64366806  0.00478260  0.24710682  1
  Na  Na1  1  0.36491819  0.35529667  0.24483934  1
  Na  Na2  1  0.70869148  0.67587315  0.41442570  1
  Na  Na3  1  0.01350300  0.01421004  0.49600115  1
  Na  Na4  1  0.00046795  0.00088904  0.00055456  1
  Na  Na5  1  0.66825378  0.33300921  0.83104117  1
  Na  Na6  1  0.68381306  0.34494684  0.33194704  1
  Na  Na7  1  0.32099201  0.66133132  0.16271601  1
  Na  Na8  1  0.33883852  0.66485069  0.66523826  1
  Y  Y0  1  0.00752868  0.00289629  0.35789917  1
  Y  Y1  1  0.66448894  0.33457015  0.68958452  1
  Y  Y2  1  0.67197058  0.34614138  0.17764775  1
  Nb  Nb0  1  0.00113735  0.00156252  0.85853432  1
  Nb  Nb1  1  0.99772646  0.99753281  0.64390685  1
  Nb  Nb2  1  0.99652826  0.99466451  0.14468701  1
  Nb  Nb3  1  0.66020463  0.33167282  0.97824117  1
  Nb  Nb4  1  0.66849998  0.33421839  0.48003885  1
  Nb  Nb5  1  0.33526613  0.66440851  0.01592312  1
  Nb  Nb6  1  0.33489640  0.66796993  0.52120908  1
  Nb  Nb7  1  0.33282314  0.66796175  0.31547082  1
  Nb  Nb8  1  0.33319027  0.66594488  0.81282188  1
  Si  Si0  1  0.70170349  0.70310521  0.25352363  1
  Si  Si1  1  0.66461900  0.62645670  0.58447773  1
  Si  Si2  1  0.36324778  0.33208828  0.08391634  1
  Si  Si3  1  0.62166402  0.66399322  0.91481411  1
  Si  Si4  1  0.04179956  0.38063145  0.91533888  1
  Si  Si5  1  0.33704212  0.95591997  0.91544669  1
  Si  Si6  1  0.61534979  0.96211501  0.41827830  1
  Si  Si7  1  0.33985241  0.38064181  0.41929424  1
  Si  Si8  1  0.04072275  0.65592494  0.42000038  1
  P  P0  1  0.28870455  0.98995772  0.24710547  1
  P  P1  1  0.00559359  0.29405008  0.24840547  1
  P  P2  1  0.27731374  0.28718243  0.75182166  1
  P  P3  1  0.01132045  0.72325531  0.75194920  1
  P  P4  1  0.71248278  0.98972601  0.75214053  1
  P  P5  1  0.95946125  0.33235166  0.58412108  1
  P  P6  1  0.37325242  0.04155443  0.58406317  1
  P  P7  1  0.96741289  0.63379699  0.07946522  1
  P  P8  1  0.66594131  0.03481751  0.08226844  1
  O  O0  1  0.21836046  0.03140547  0.30113869  1
  O  O1  1  0.79686954  0.78590291  0.31344558  1
  O  O2  1  0.98173179  0.18929512  0.30296534  1
  O  O3  1  0.17738177  0.18107551  0.80636374  1
  O  O4  1  0.00238816  0.82169846  0.80627105  1
  O  O5  1  0.81929689  0.99771308  0.80639510  1
  O  O6  1  0.80729925  0.97850364  0.69584747  1
  O  O7  1  0.17272759  0.19554370  0.69588960  1
  O  O8  1  0.02399511  0.82993324  0.69577830  1
  O  O9  1  0.81340600  0.83238402  0.19616508  1
  O  O10  1  0.02714985  0.19689262  0.19365612  1
  O  O11  1  0.17581501  0.97763716  0.19237570  1
  O  O12  1  0.88589672  0.36240465  0.63922175  1
  O  O13  1  0.47845735  0.10953695  0.63906148  1
  O  O14  1  0.62984924  0.51524912  0.64169667  1
  O  O15  1  0.90736673  0.53511738  0.13671944  1
  O  O16  1  0.63703551  0.09851847  0.14074246  1
  O  O17  1  0.45858945  0.36785165  0.14562652  1
  O  O18  1  0.47895599  0.31196210  0.03057514  1
  O  O19  1  0.84435034  0.53601355  0.02841627  1
  O  O20  1  0.69224748  0.16110476  0.03167863  1
  O  O21  1  0.46600540  0.16079799  0.53063898  1
  O  O22  1  0.69558508  0.53223517  0.52655986  1
  O  O23  1  0.83953212  0.30284708  0.53051969  1
  O  O24  1  0.53091274  0.69604962  0.97119449  1
  O  O25  1  0.16771412  0.47343199  0.97071792  1
  O  O26  1  0.30631532  0.83491397  0.97150295  1
  O  O27  1  0.50643951  0.84161260  0.47299468  1
  O  O28  1  0.33469978  0.49182704  0.47440658  1
  O  O29  1  0.15425497  0.66791772  0.47597609  1
  O  O30  1  0.13879812  0.64031450  0.35975551  1
  O  O31  1  0.50194652  0.86744658  0.35677372  1
  O  O32  1  0.36310771  0.49792938  0.35821139  1
  O  O33  1  0.13629882  0.50258624  0.85763553  1
  O  O34  1  0.36544540  0.86229391  0.85778703  1
  O  O35  1  0.49851740  0.63427299  0.85766884  1
  O  O36  1  0.00647139  0.81333515  0.41951134  1
  O  O37  1  0.79531077  0.96818963  0.41821620  1
  O  O38  1  0.17626923  0.19694216  0.42048305  1
  O  O39  1  0.02098281  0.18975132  0.90802513  1
  O  O40  1  0.16998091  0.98133924  0.90754641  1
  O  O41  1  0.81227637  0.83221943  0.90797499  1
  O  O42  1  0.97624387  0.16662092  0.59031774  1
  O  O43  1  0.19359282  0.03133980  0.59074048  1
  O  O44  1  0.84287608  0.81852476  0.59259507  1
  O  O45  1  0.97538733  0.81150087  0.08641670  1
  O  O46  1  0.83102989  0.01745565  0.08711941  1
  O  O47  1  0.17428355  0.15548573  0.08813326  1
  O  O48  1  0.69536918  0.14925324  0.75203324  1
  O  O49  1  0.45332660  0.30197926  0.75320062  1
  O  O50  1  0.85225735  0.54657959  0.75182522  1
  O  O51  1  0.66136519  0.50799097  0.24791487  1
  O  O52  1  0.84628837  0.31098001  0.24121902  1
  O  O53  1  0.47376120  0.13723785  0.23914074  1
  O  O54  1  0.63963946  0.49372629  0.92521811  1
  O  O55  1  0.85384949  0.36001188  0.92644711  1
  O  O56  1  0.50728203  0.14451872  0.92565796  1
  O  O57  1  0.62441785  0.14606661  0.42479359  1
  O  O58  1  0.52245585  0.38055756  0.42372259  1
  O  O59  1  0.85444479  0.47739238  0.42448132  1
  O  O60  1  0.33708509  0.49678640  0.07066862  1
  O  O61  1  0.15092206  0.66780732  0.06911070  1
  O  O62  1  0.51132620  0.85485166  0.07101162  1
  O  O63  1  0.33493982  0.85597596  0.57397481  1
  O  O64  1  0.50801826  0.66772802  0.57520388  1
  O  O65  1  0.14283167  0.48407545  0.57459918  1
  O  O66  1  0.29162858  0.81885460  0.25175417  1
  O  O67  1  0.51358928  0.70141601  0.25288553  1
  O  O68  1  0.17554900  0.46964195  0.25162538  1
  O  O69  1  0.28963157  0.46671345  0.75518577  1
  O  O70  1  0.17953511  0.71284806  0.75455179  1
  O  O71  1  0.53478000  0.82174646  0.75472282  1
loop_
_geom_bond_atom_site_label_1
_geom_bond_atom_site_label_2
_geom_bond_distance
_geom_bond_site_symmetry_2
Na0 O53 2.369396 1_555
Na0 O67 2.382011 1_545
Na0 O52 2.438891 1_555
Na0 O16 2.586937 1_555
Na0 O66 2.752852 1_545
Na0 O31 2.806337 1_545
Na0 O9 2.908903 1_545
Na0 O2 2.939298 1_555
Na1 O51 2.316802 1_555
Na1 O68 2.395458 1_555
Na1 O17 2.403587 1_555
Na1 O53 2.598382 1_555
Na1 O67 2.719843 1_555
Na1 O0 2.842442 1_555
Na1 O10 2.889537 1_555
Na1 O32 2.898847 1_555
Na2 O36 2.330589 1_655
Na2 O58 2.344283 1_555
Na2 O37 2.346997 1_555
Na2 O1 2.482689 1_555
Na2 O59 2.703318 1_555
Na2 O22 2.849687 1_555
Na2 O32 2.992551 1_555
Na3 O38 2.331367 1_555
Na3 O36 2.495901 1_545
Na3 O37 2.529943 1_445
Na3 O42 2.666880 1_455
Na3 O43 2.667563 1_555
Na3 O44 2.765498 1_445
Na4 O47 2.499496 1_555
Na4 O45 2.537414 1_445
Na4 O46 2.547432 1_455
Na4 O39 2.664426 1_554
Na4 O41 2.668112 1_444
Na4 O40 2.673251 1_544
Na5 O49 2.543372 1_555
Na5 O48 2.543596 1_555
Na5 O50 2.559511 1_555
Na5 O54 2.678966 1_555
Na5 O56 2.685697 1_555
Na5 O55 2.688082 1_555
Na6 O51 2.488657 1_555
Na6 O59 2.540684 1_555
Na6 O52 2.641740 1_555
Na6 O57 2.655919 1_555
Na6 O58 2.660289 1_555
Na6 O53 2.842747 1_555
Na7 O68 2.564720 1_555
Na7 O66 2.570415 1_555
Na7 O67 2.604592 1_555
Na7 O60 2.620745 1_555
Na7 O61 2.652603 1_555
Na7 O62 2.719428 1_555
Na8 O64 2.552527 1_555
Na8 O69 2.613427 1_555
Na8 O71 2.614313 1_555
Na8 O70 2.651053 1_555
Na8 O65 2.687327 1_555
Na8 O63 2.718204 1_555
Nb0 O40 1.970555 1_545
Nb0 O39 1.971928 1_555
Nb0 O41 1.977649 1_445
Nb0 O3 1.999723 1_555
Nb0 O5 2.013689 1_445
Nb0 O4 2.018549 1_545
Nb1 O44 1.921417 1_555
Nb1 O6 2.020320 1_555
Nb1 O8 2.025177 1_655
Nb1 O43 2.034829 1_665
Nb1 O42 2.038643 1_565
Nb1 O7 2.071164 1_665
Nb2 O9 1.959179 1_555
Nb2 O47 2.005263 1_665
Nb2 O11 2.017932 1_655
Nb2 O10 2.037793 1_665
Nb2 O45 2.055689 1_555
Nb2 O46 2.075732 1_565
Nb3 O18 1.957869 1_556
Nb3 O56 1.970389 1_555
Nb3 O54 1.976870 1_555
Nb3 O55 2.014737 1_555
Nb3 O20 2.093442 1_556
Nb3 O19 2.103764 1_556
Nb4 O59 1.981628 1_555
Nb4 O22 1.985843 1_555
Nb4 O57 1.990391 1_555
Nb4 O58 2.028742 1_555
Nb4 O23 2.055306 1_555
Nb4 O21 2.064975 1_555
Nb5 O24 1.930142 1_554
Nb5 O25 1.931044 1_554
Nb5 O26 1.964777 1_554
Nb5 O60 1.968552 1_555
Nb5 O61 2.068856 1_555
Nb5 O62 2.084803 1_555
Nb6 O27 1.907915 1_555
Nb6 O28 1.913816 1_555
Nb6 O29 1.929026 1_555
Nb6 O64 1.991441 1_555
Nb6 O63 2.080000 1_555
Nb6 O65 2.090442 1_555
Nb7 O30 1.923826 1_555
Nb7 O31 1.929747 1_555
Nb7 O32 1.947872 1_555
Nb7 O67 2.072280 1_555
Nb7 O66 2.148326 1_555
Nb7 O68 2.195871 1_555
Nb8 O33 1.938518 1_555
Nb8 O34 1.939684 1_555
Nb8 O35 1.943642 1_555
Nb8 O69 2.101596 1_555
Nb8 O70 2.111433 1_555
Nb8 O71 2.118675 1_555
O0 P0 1.517240 1_545
O0 Y0 2.205021 1_555
O1 Si0 1.593421 1_555
O1 Y0 2.184296 1_665
O2 P1 1.514329 1_655
O2 Y0 2.200823 1_655
O3 P2 1.556152 1_555
O4 P3 1.552099 1_555
O5 P4 1.551332 1_555
O6 P4 1.574943 1_555
O7 P2 1.561135 1_555
O8 P3 1.574647 1_555
O9 Si0 1.709077 1_555
O10 P1 1.594293 1_555
O11 P0 1.583019 1_555
O12 P5 1.509107 1_555
O12 Y1 2.204293 1_555
O13 P6 1.511008 1_555
O13 Y1 2.209138 1_555
O14 Si1 1.582085 1_555
O14 Y1 2.110518 1_555
O15 P7 1.522742 1_555
O15 Y2 2.161071 1_555
O16 P8 1.528094 1_555
O16 Y2 2.256553 1_555
O17 Si2 1.601194 1_555
O17 Y2 2.155003 1_555
O18 Si2 1.670790 1_555
O19 P7 1.549703 1_555
O20 P8 1.556256 1_555
O21 P6 1.565274 1_555
O22 Si1 1.670082 1_555
O23 P5 1.568428 1_555
O24 Si3 1.626865 1_555
O25 Si4 1.628497 1_555
O26 Si5 1.615372 1_555
O27 Si6 1.626217 1_555
O28 Si7 1.625491 1_555
O29 Si8 1.609913 1_555
O30 Si8 1.679107 1_555
O31 Si6 1.699797 1_555
O32 Si7 1.700978 1_555
O33 Si4 1.655557 1_555
O34 Si5 1.652693 1_555
O35 Si3 1.649409 1_555
O36 Si8 1.594216 1_555
O36 Y0 2.211026 1_565
O37 Si6 1.593580 1_555
O37 Y0 2.247129 1_665
O38 Si7 1.575898 1_555
O38 Y0 2.186373 1_555
O39 Si4 1.643172 1_555
O40 Si5 1.640333 1_555
O41 Si3 1.636350 1_555
O42 P5 1.580170 1_555
O43 P6 1.580765 1_555
O44 Si1 1.685895 1_555
O45 P7 1.574601 1_555
O46 P8 1.574004 1_555
O47 Si2 1.655659 1_555
O48 P4 1.519783 1_545
O48 Y1 2.317418 1_555
O49 P2 1.523020 1_555
O49 Y1 2.292268 1_555
O50 P3 1.521967 1_655
O50 Y1 2.308740 1_555
O51 Si0 1.613524 1_555
O51 Y2 2.204316 1_555
O52 P1 1.524975 1_655
O52 Y2 2.276391 1_555
O53 P0 1.539124 1_545
O53 Y2 2.314435 1_555
O54 Si3 1.638043 1_555
O55 Si4 1.627222 1_655
O56 Si5 1.643422 1_545
O57 Si6 1.625102 1_545
O58 Si7 1.647562 1_555
O59 Si8 1.650938 1_655
O60 Si2 1.642297 1_555
O61 P7 1.540872 1_455
O62 P8 1.545469 1_565
O63 P6 1.547319 1_565
O64 Si1 1.641168 1_555
O65 P5 1.547499 1_455
O66 P0 1.558444 1_555
O67 Si0 1.686070 1_555
O68 P1 1.562434 1_555
O69 P2 1.567165 1_555
O70 P3 1.564351 1_555
O71 P4 1.563311 1_555
