# generated using pymatgen
data_Na3TaAlSi2PO12
_symmetry_space_group_name_H-M   'P 1'
_cell_length_a   8.87060551
_cell_length_b   8.87060521
_cell_length_c   21.95723886
_cell_angle_alpha   88.98580826
_cell_angle_beta   91.01419179
_cell_angle_gamma   119.61209914
_symmetry_Int_Tables_number   1
_chemical_formula_structural   Na3TaAlSi2PO12
_chemical_formula_sum   'Na18 Ta6 Al6 Si12 P6 O72'
_cell_volume   1501.78617777
_cell_formula_units_Z   6
loop_
 _symmetry_equiv_pos_site_id
 _symmetry_equiv_pos_as_xyz
  1  'x, y, z'
loop_
 _atom_site_type_symbol
 _atom_site_label
 _atom_site_symmetry_multiplicity
 _atom_site_fract_x
 _atom_site_fract_y
 _atom_site_fract_z
 _atom_site_occupancy
  Na  Na0  1  0.99806192  0.99400339  0.49382235  1
  Na  Na1  1  0.00599661  0.00193808  0.99382235  1
  Na  Na2  1  0.66472892  0.32733639  0.82715535  1
  Na  Na3  1  0.67266361  0.33527108  0.32715535  1
  Na  Na4  1  0.33139492  0.66067039  0.16048935  1
  Na  Na5  1  0.33932961  0.66860508  0.66048935  1
  Na  Na6  1  0.64174790  0.00654938  0.24893282  1
  Na  Na7  1  0.99105594  0.62618246  0.24758698  1
  Na  Na8  1  0.99345062  0.35825210  0.74893282  1
  Na  Na9  1  0.37381754  0.00894406  0.74758698  1
  Na  Na10  1  0.30841490  0.33988238  0.58226582  1
  Na  Na11  1  0.65772294  0.95951546  0.58091998  1
  Na  Na12  1  0.66011762  0.69158510  0.08226582  1
  Na  Na13  1  0.04048454  0.34227706  0.08091998  1
  Na  Na14  1  0.97508090  0.67321638  0.91559982  1
  Na  Na15  1  0.32438894  0.29284946  0.91425398  1
  Na  Na16  1  0.32678362  0.02491910  0.41559982  1
  Na  Na17  1  0.70715054  0.67561106  0.41425398  1
  Ta  Ta0  1  0.99591077  0.99589333  0.64491649  1
  Ta  Ta1  1  0.00410667  0.00408923  0.14491649  1
  Ta  Ta2  1  0.66257777  0.32922633  0.97824949  1
  Ta  Ta3  1  0.67077367  0.33742223  0.47824949  1
  Ta  Ta4  1  0.32924377  0.66256033  0.31158349  1
  Ta  Ta5  1  0.33743967  0.67075623  0.81158349  1
  Al  Al0  1  0.98666904  0.99234316  0.35376333  1
  Al  Al1  1  0.00765684  0.01333096  0.85376333  1
  Al  Al2  1  0.65333604  0.32567616  0.68709633  1
  Al  Al3  1  0.67432384  0.34666396  0.18709633  1
  Al  Al4  1  0.32000204  0.65901016  0.02043033  1
  Al  Al5  1  0.34098984  0.67999796  0.52043033  1
  Si  Si0  1  0.71093094  0.70357163  0.25195374  1
  Si  Si1  1  0.99409837  0.28321205  0.25121046  1
  Si  Si2  1  0.29642837  0.28906906  0.75195374  1
  Si  Si3  1  0.71678795  0.00590163  0.75121046  1
  Si  Si4  1  0.37759794  0.03690463  0.58528674  1
  Si  Si5  1  0.66076537  0.61654505  0.58454346  1
  Si  Si6  1  0.96309537  0.62240206  0.08528674  1
  Si  Si7  1  0.38345495  0.33923463  0.08454346  1
  Si  Si8  1  0.04426394  0.37023863  0.91862074  1
  Si  Si9  1  0.32743137  0.94987905  0.91787746  1
  Si  Si10  1  0.62976137  0.95573606  0.41862074  1
  Si  Si11  1  0.05012095  0.67256863  0.41787746  1
  P  P0  1  0.29323147  0.01168305  0.25439826  1
  P  P1  1  0.98831695  0.70676853  0.75439826  1
  P  P2  1  0.95989847  0.34501605  0.58773126  1
  P  P3  1  0.65498395  0.04010153  0.08773126  1
  P  P4  1  0.62656447  0.67835005  0.92106526  1
  P  P5  1  0.32164995  0.37343553  0.42106526  1
  O  O0  1  0.20756136  0.02543557  0.31185096  1
  O  O1  1  0.83097480  0.79387572  0.31120548  1
  O  O2  1  0.97002672  0.15370351  0.30643834  1
  O  O3  1  0.20612428  0.16902520  0.81120548  1
  O  O4  1  0.97456443  0.79243864  0.81185096  1
  O  O5  1  0.84629649  0.02997328  0.80643834  1
  O  O6  1  0.79815366  0.97520980  0.68779706  1
  O  O7  1  0.16704993  0.19658221  0.69141885  1
  O  O8  1  0.02003697  0.82922587  0.69754227  1
  O  O9  1  0.80341779  0.83295007  0.19141885  1
  O  O10  1  0.02479020  0.20184634  0.18779706  1
  O  O11  1  0.17077413  0.97996303  0.19754227  1
  O  O12  1  0.87422836  0.35876857  0.64518396  1
  O  O13  1  0.49764180  0.12720872  0.64453848  1
  O  O14  1  0.63669372  0.48703651  0.63977134  1
  O  O15  1  0.87279128  0.50235820  0.14453848  1
  O  O16  1  0.64123143  0.12577164  0.14518396  1
  O  O17  1  0.51296349  0.36330628  0.13977134  1
  O  O18  1  0.46482066  0.30854280  0.02113006  1
  O  O19  1  0.83371693  0.52991521  0.02475185  1
  O  O20  1  0.68670397  0.16255887  0.03087527  1
  O  O21  1  0.47008479  0.16628307  0.52475185  1
  O  O22  1  0.69145720  0.53517934  0.52113006  1
  O  O23  1  0.83744113  0.31329603  0.53087527  1
  O  O24  1  0.54089436  0.69210257  0.97851796  1
  O  O25  1  0.16430780  0.46054272  0.97787248  1
  O  O26  1  0.30335972  0.82037051  0.97310534  1
  O  O27  1  0.53945728  0.83569220  0.47787248  1
  O  O28  1  0.30789743  0.45910564  0.47851796  1
  O  O29  1  0.17962949  0.69664028  0.47310534  1
  O  O30  1  0.13148666  0.64187680  0.35446406  1
  O  O31  1  0.50038293  0.86324921  0.35808585  1
  O  O32  1  0.35336997  0.49589287  0.36420927  1
  O  O33  1  0.13675079  0.49961707  0.85808585  1
  O  O34  1  0.35812320  0.86851334  0.85446406  1
  O  O35  1  0.50410713  0.64663003  0.86420927  1
  O  O36  1  0.02898132  0.84498796  0.41086444  1
  O  O37  1  0.81778865  0.97369724  0.40995588  1
  O  O38  1  0.17148473  0.19016103  0.41196452  1
  O  O39  1  0.02630276  0.18221135  0.90995588  1
  O  O40  1  0.15501204  0.97101868  0.91086444  1
  O  O41  1  0.80983897  0.82851527  0.91196452  1
  O  O42  1  0.96996177  0.17088649  0.58745891  1
  O  O43  1  0.18721081  0.03052331  0.58863565  1
  O  O44  1  0.83201453  0.81522446  0.58828320  1
  O  O45  1  0.96947669  0.81278919  0.08863565  1
  O  O46  1  0.82911351  0.03003823  0.08745891  1
  O  O47  1  0.18477554  0.16798547  0.08828320  1
  O  O48  1  0.69564832  0.17832096  0.74419744  1
  O  O49  1  0.48445565  0.30703024  0.74328888  1
  O  O50  1  0.83815173  0.52349403  0.74529752  1
  O  O51  1  0.69296976  0.51554435  0.24328888  1
  O  O52  1  0.82167904  0.30435168  0.24419744  1
  O  O53  1  0.47650597  0.16184827  0.24529752  1
  O  O54  1  0.63662877  0.50421949  0.92079191  1
  O  O55  1  0.85387781  0.36385631  0.92196865  1
  O  O56  1  0.49868153  0.14855746  0.92161620  1
  O  O57  1  0.63614369  0.14612219  0.42196865  1
  O  O58  1  0.49578051  0.36337123  0.42079191  1
  O  O59  1  0.85144254  0.50131847  0.42161620  1
  O  O60  1  0.36231432  0.51165496  0.07753144  1
  O  O61  1  0.15112165  0.64036424  0.07662288  1
  O  O62  1  0.50481773  0.85682803  0.07863152  1
  O  O63  1  0.35963576  0.84887835  0.57662288  1
  O  O64  1  0.48834504  0.63768568  0.57753144  1
  O  O65  1  0.14317197  0.49518227  0.57863152  1
  O  O66  1  0.30329477  0.83755349  0.25412591  1
  O  O67  1  0.52054381  0.69719031  0.25530265  1
  O  O68  1  0.16534753  0.48189146  0.25495020  1
  O  O69  1  0.30280969  0.47945619  0.75530265  1
  O  O70  1  0.16244651  0.69670523  0.75412591  1
  O  O71  1  0.51810854  0.83465247  0.75495020  1
loop_
_geom_bond_atom_site_label_1
_geom_bond_atom_site_label_2
_geom_bond_distance
_geom_bond_site_symmetry_2
Na0 O36 2.366792 1_655
Na0 O37 2.367180 1_555
Na0 O38 2.442672 1_665
Na0 O43 2.572408 1_665
Na0 O44 2.582576 1_555
Na0 O42 2.696309 1_565
Na1 O40 2.366792 1_545
Na1 O39 2.367180 1_555
Na1 O41 2.442672 1_445
Na1 O45 2.572408 1_446
Na1 O47 2.582576 1_556
Na1 O46 2.696309 1_456
Na2 O48 2.366792 1_555
Na2 O49 2.367180 1_555
Na2 O50 2.442672 1_555
Na2 O55 2.572408 1_555
Na2 O56 2.582576 1_555
Na2 O54 2.696309 1_555
Na3 O52 2.366792 1_555
Na3 O51 2.367180 1_555
Na3 O53 2.442672 1_555
Na3 O57 2.572408 1_555
Na3 O59 2.582576 1_555
Na3 O58 2.696309 1_555
Na4 O60 2.366792 1_555
Na4 O61 2.367180 1_555
Na4 O62 2.442672 1_555
Na4 O67 2.572408 1_555
Na4 O68 2.582576 1_555
Na4 O66 2.696309 1_555
Na5 O64 2.366792 1_555
Na5 O63 2.367180 1_555
Na5 O65 2.442672 1_555
Na5 O69 2.572408 1_555
Na5 O71 2.582576 1_555
Na5 O70 2.696309 1_555
Na6 O52 2.316495 1_555
Na6 O67 2.404605 1_545
Na6 O53 2.457684 1_555
Na6 O16 2.495411 1_555
Na6 O66 2.613855 1_545
Na6 O31 2.712150 1_545
Na6 O2 2.819541 1_555
Na6 O9 2.887608 1_545
Na7 O51 2.322448 1_555
Na7 O68 2.448308 1_655
Na7 O66 2.463924 1_655
Na7 O52 2.485496 1_555
Na7 O15 2.508358 1_555
Na7 O30 2.610551 1_655
Na7 O1 2.900312 1_555
Na7 O11 2.931425 1_655
Na8 O48 2.316495 1_555
Na8 O69 2.404605 1_655
Na8 O50 2.457684 1_555
Na8 O12 2.495411 1_555
Na8 O70 2.613854 1_655
Na8 O33 2.712150 1_655
Na8 O5 2.819541 1_555
Na8 O7 2.887608 1_655
Na9 O49 2.322448 1_555
Na9 O71 2.448308 1_545
Na9 O70 2.463924 1_545
Na9 O48 2.485496 1_555
Na9 O13 2.508358 1_555
Na9 O34 2.610551 1_545
Na9 O3 2.900312 1_555
Na9 O8 2.931425 1_545
Na10 O64 2.316500 1_555
Na10 O43 2.404605 1_555
Na10 O65 2.457699 1_555
Na10 O28 2.495396 1_555
Na10 O42 2.613855 1_455
Na10 O7 2.712150 1_555
Na10 O14 2.819541 1_555
Na10 O21 2.887608 1_555
Na11 O63 2.322457 1_555
Na11 O44 2.448308 1_555
Na11 O42 2.463924 1_565
Na11 O64 2.485488 1_555
Na11 O27 2.508337 1_555
Na11 O6 2.610551 1_555
Na11 O13 2.900312 1_565
Na11 O23 2.931425 1_565
Na12 O60 2.316500 1_555
Na12 O45 2.404605 1_555
Na12 O62 2.457699 1_555
Na12 O24 2.495396 1_554
Na12 O46 2.613854 1_565
Na12 O9 2.712150 1_555
Na12 O17 2.819541 1_555
Na12 O19 2.887608 1_555
Na13 O61 2.322457 1_555
Na13 O47 2.448308 1_555
Na13 O46 2.463924 1_455
Na13 O60 2.485488 1_555
Na13 O25 2.508337 1_554
Na13 O10 2.610551 1_555
Na13 O15 2.900312 1_455
Na13 O20 2.931425 1_455
Na14 O40 2.316495 1_655
Na14 O55 2.404613 1_555
Na14 O41 2.457684 1_555
Na14 O4 2.495411 1_555
Na14 O54 2.613846 1_555
Na14 O19 2.712130 1_556
Na14 O26 2.819541 1_655
Na14 O33 2.887608 1_655
Na15 O39 2.322448 1_555
Na15 O56 2.448323 1_555
Na15 O54 2.463928 1_555
Na15 O40 2.485496 1_545
Na15 O3 2.508358 1_555
Na15 O18 2.610537 1_556
Na15 O25 2.900312 1_555
Na15 O35 2.931425 1_555
Na16 O36 2.316495 1_545
Na16 O57 2.404613 1_555
Na16 O38 2.457684 1_555
Na16 O0 2.495411 1_555
Na16 O58 2.613846 1_555
Na16 O21 2.712130 1_555
Na16 O29 2.819541 1_545
Na16 O31 2.887608 1_545
Na17 O37 2.322448 1_555
Na17 O59 2.448323 1_555
Na17 O58 2.463928 1_555
Na17 O36 2.485496 1_655
Na17 O1 2.508358 1_555
Na17 O22 2.610537 1_555
Na17 O27 2.900312 1_555
Na17 O32 2.931425 1_555
Al0 O2 1.816899 1_565
Al0 O1 1.868087 1_555
Al0 O37 1.899278 1_555
Al0 O36 1.957450 1_655
Al0 O0 2.063579 1_665
Al0 O38 2.135943 1_665
Al1 O5 1.816899 1_455
Al1 O3 1.868087 1_555
Al1 O39 1.899278 1_555
Al1 O40 1.957450 1_545
Al1 O4 2.063579 1_445
Al1 O41 2.135943 1_445
Al2 O14 1.816899 1_555
Al2 O13 1.868087 1_555
Al2 O49 1.899278 1_555
Al2 O48 1.957450 1_555
Al2 O12 2.063579 1_555
Al2 O50 2.135943 1_555
Al3 O17 1.816899 1_555
Al3 O15 1.868087 1_555
Al3 O51 1.899278 1_555
Al3 O52 1.957450 1_555
Al3 O16 2.063579 1_555
Al3 O53 2.135943 1_555
Al4 O26 1.816899 1_554
Al4 O25 1.868087 1_554
Al4 O61 1.899278 1_555
Al4 O60 1.957450 1_555
Al4 O24 2.063579 1_554
Al4 O62 2.135943 1_555
Al5 O29 1.816899 1_555
Al5 O27 1.868087 1_555
Al5 O63 1.899278 1_555
Al5 O64 1.957450 1_555
Al5 O28 2.063579 1_555
Al5 O65 2.135943 1_555
O0 P0 1.521444 1_555
O1 Si0 1.616506 1_555
O2 Si1 1.597914 1_555
O3 Si2 1.616506 1_555
O4 P1 1.521444 1_555
O5 Si3 1.597914 1_555
O6 Si3 1.666429 1_565
O6 Ta0 1.931772 1_555
O7 Si2 1.676614 1_555
O7 Ta0 1.963439 1_445
O8 P1 1.574811 1_455
O8 Ta0 1.951991 1_455
O9 Si0 1.676614 1_555
O9 Ta1 1.963439 1_665
O10 Si1 1.666429 1_455
O10 Ta1 1.931772 1_555
O11 P0 1.574811 1_565
O11 Ta1 1.951991 1_565
O12 P2 1.521444 1_555
O13 Si4 1.616506 1_555
O14 Si5 1.597914 1_555
O15 Si6 1.616506 1_555
O16 P3 1.521444 1_555
O17 Si7 1.597914 1_555
O18 Si7 1.666429 1_555
O18 Ta2 1.931772 1_554
O19 Si6 1.676614 1_555
O19 Ta2 1.963439 1_554
O20 P3 1.574811 1_555
O20 Ta2 1.951991 1_554
O21 Si4 1.676614 1_555
O21 Ta3 1.963439 1_555
O22 Si5 1.666429 1_555
O22 Ta3 1.931772 1_555
O23 P2 1.574811 1_555
O23 Ta3 1.951991 1_555
O24 P4 1.521444 1_555
O25 Si8 1.616506 1_555
O26 Si9 1.597914 1_555
O27 Si10 1.616506 1_555
O28 P5 1.521444 1_555
O29 Si11 1.597914 1_555
O30 Si11 1.666429 1_555
O30 Ta4 1.931772 1_555
O31 Si10 1.676614 1_555
O31 Ta4 1.963439 1_555
O32 P5 1.574811 1_555
O32 Ta4 1.951991 1_555
O33 Si8 1.676614 1_555
O33 Ta5 1.963439 1_555
O34 Si9 1.666429 1_555
O34 Ta5 1.931772 1_555
O35 P4 1.574811 1_555
O35 Ta5 1.951991 1_555
O36 Si11 1.634691 1_555
O37 Si10 1.609679 1_555
O38 P5 1.522928 1_555
O39 Si8 1.609679 1_555
O40 Si9 1.634691 1_555
O41 P4 1.522928 1_555
O42 P2 1.590758 1_555
O42 Ta0 2.080330 1_545
O43 Si4 1.664511 1_555
O43 Ta0 2.011657 1_445
O44 Si5 1.665940 1_555
O44 Ta0 1.983027 1_555
O45 Si6 1.664511 1_555
O45 Ta1 2.011657 1_665
O46 P3 1.590758 1_555
O46 Ta1 2.080330 1_655
O47 Si7 1.665940 1_555
O47 Ta1 1.983027 1_555
O48 Si3 1.634691 1_555
O49 Si2 1.609679 1_555
O50 P1 1.522928 1_555
O51 Si0 1.609679 1_555
O52 Si1 1.634691 1_555
O53 P0 1.522928 1_555
O54 P4 1.590772 1_555
O54 Ta2 2.080330 1_555
O55 Si8 1.664496 1_655
O55 Ta2 2.011657 1_555
O56 Si9 1.665936 1_545
O56 Ta2 1.983027 1_555
O57 Si10 1.664496 1_545
O57 Ta3 2.011657 1_555
O58 P5 1.590772 1_555
O58 Ta3 2.080330 1_555
O59 Si11 1.665936 1_655
O59 Ta3 1.983027 1_555
O60 Si7 1.634703 1_555
O61 Si6 1.609663 1_455
O62 P3 1.522923 1_565
O63 Si4 1.609663 1_565
O64 Si5 1.634703 1_555
O65 P2 1.522923 1_455
O66 P0 1.590758 1_565
O66 Ta4 2.080330 1_555
O67 Si0 1.664511 1_555
O67 Ta4 2.011657 1_555
O68 Si1 1.665940 1_455
O68 Ta4 1.983027 1_555
O69 Si2 1.664511 1_555
O69 Ta5 2.011657 1_555
O70 P1 1.590758 1_455
O70 Ta5 2.080330 1_555
O71 Si3 1.665940 1_565
O71 Ta5 1.983027 1_555
