# generated using pymatgen
data_Na5InTe4
_symmetry_space_group_name_H-M   'P 1'
_cell_length_a   7.49192100
_cell_length_b   17.88939500
_cell_length_c   20.36568700
_cell_angle_alpha   90.00000000
_cell_angle_beta   90.00000000
_cell_angle_gamma   90.00000000
_symmetry_Int_Tables_number   1
_chemical_formula_structural   Na5InTe4
_chemical_formula_sum   'Na40 In8 Te32'
_cell_volume   2729.53022331
_cell_formula_units_Z   8
loop_
 _symmetry_equiv_pos_site_id
 _symmetry_equiv_pos_as_xyz
  1  'x, y, z'
loop_
 _atom_site_type_symbol
 _atom_site_label
 _atom_site_symmetry_multiplicity
 _atom_site_fract_x
 _atom_site_fract_y
 _atom_site_fract_z
 _atom_site_occupancy
  Na  Na0  1  0.00000000  0.00000000  0.00000000  1
  Na  Na1  1  0.50000000  0.00000000  0.50000000  1
  Na  Na2  1  0.50000000  0.50000000  0.50000000  1
  Na  Na3  1  0.00000000  0.50000000  0.00000000  1
  Na  Na4  1  0.00000000  0.75000000  0.87207400  1
  Na  Na5  1  0.50000000  0.25000000  0.62792600  1
  Na  Na6  1  0.00000000  0.25000000  0.12792600  1
  Na  Na7  1  0.50000000  0.75000000  0.37207400  1
  Na  Na8  1  0.83214100  0.58483900  0.61759100  1
  Na  Na9  1  0.33214100  0.41516100  0.88240900  1
  Na  Na10  1  0.66785900  0.08483900  0.88240900  1
  Na  Na11  1  0.16785900  0.91516100  0.61759100  1
  Na  Na12  1  0.16785900  0.41516100  0.38240900  1
  Na  Na13  1  0.66785900  0.58483900  0.11759100  1
  Na  Na14  1  0.33214100  0.91516100  0.11759100  1
  Na  Na15  1  0.83214100  0.08483900  0.38240900  1
  Na  Na16  1  0.02495400  0.50838900  0.76559900  1
  Na  Na17  1  0.52495400  0.49161100  0.73440100  1
  Na  Na18  1  0.47504600  0.00838900  0.73440100  1
  Na  Na19  1  0.97504600  0.99161100  0.76559900  1
  Na  Na20  1  0.97504600  0.49161100  0.23440100  1
  Na  Na21  1  0.47504600  0.50838900  0.26559900  1
  Na  Na22  1  0.52495400  0.99161100  0.26559900  1
  Na  Na23  1  0.02495400  0.00838900  0.23440100  1
  Na  Na24  1  0.68082700  0.33081300  0.99697100  1
  Na  Na25  1  0.18082700  0.66918700  0.50302900  1
  Na  Na26  1  0.81917300  0.83081300  0.50302900  1
  Na  Na27  1  0.31917300  0.16918700  0.99697100  1
  Na  Na28  1  0.31917300  0.66918700  0.00302900  1
  Na  Na29  1  0.81917300  0.33081300  0.49697100  1
  Na  Na30  1  0.18082700  0.16918700  0.49697100  1
  Na  Na31  1  0.68082700  0.83081300  0.00302900  1
  Na  Na32  1  0.67392400  0.82008500  0.73960100  1
  Na  Na33  1  0.17392400  0.17991500  0.76039900  1
  Na  Na34  1  0.82607600  0.32008500  0.76039900  1
  Na  Na35  1  0.32607600  0.67991500  0.73960100  1
  Na  Na36  1  0.32607600  0.17991500  0.26039900  1
  Na  Na37  1  0.82607600  0.82008500  0.23960100  1
  Na  Na38  1  0.17392400  0.67991500  0.23960100  1
  Na  Na39  1  0.67392400  0.32008500  0.26039900  1
  In  In0  1  0.64106300  0.58807200  0.87915300  1
  In  In1  1  0.14106300  0.41192800  0.62084700  1
  In  In2  1  0.85893700  0.08807200  0.62084700  1
  In  In3  1  0.35893700  0.91192800  0.87915300  1
  In  In4  1  0.35893700  0.41192800  0.12084700  1
  In  In5  1  0.85893700  0.58807200  0.37915300  1
  In  In6  1  0.14106300  0.91192800  0.37915300  1
  In  In7  1  0.64106300  0.08807200  0.12084700  1
  Te  Te0  1  0.77743300  0.66197100  0.98929100  1
  Te  Te1  1  0.27743300  0.33802900  0.51070900  1
  Te  Te2  1  0.72256700  0.16197100  0.51070900  1
  Te  Te3  1  0.22256700  0.83802900  0.98929100  1
  Te  Te4  1  0.22256700  0.33802900  0.01070900  1
  Te  Te5  1  0.72256700  0.66197100  0.48929100  1
  Te  Te6  1  0.27743300  0.83802900  0.48929100  1
  Te  Te7  1  0.77743300  0.16197100  0.01070900  1
  Te  Te8  1  0.76252300  0.43664400  0.87562800  1
  Te  Te9  1  0.26252300  0.56335600  0.62437200  1
  Te  Te10  1  0.73747700  0.93664400  0.62437200  1
  Te  Te11  1  0.23747700  0.06335600  0.87562800  1
  Te  Te12  1  0.23747700  0.56335600  0.12437200  1
  Te  Te13  1  0.73747700  0.43664400  0.37562800  1
  Te  Te14  1  0.26252300  0.06335600  0.37562800  1
  Te  Te15  1  0.76252300  0.93664400  0.12437200  1
  Te  Te16  1  0.76753100  0.65265400  0.75938900  1
  Te  Te17  1  0.26753100  0.34734600  0.74061100  1
  Te  Te18  1  0.73246900  0.15265400  0.74061100  1
  Te  Te19  1  0.23246900  0.84734600  0.75938900  1
  Te  Te20  1  0.23246900  0.34734600  0.24061100  1
  Te  Te21  1  0.73246900  0.65265400  0.25938900  1
  Te  Te22  1  0.26753100  0.84734600  0.25938900  1
  Te  Te23  1  0.76753100  0.15265400  0.24061100  1
  Te  Te24  1  0.73555500  0.91318700  0.87093900  1
  Te  Te25  1  0.23555500  0.08681300  0.62906100  1
  Te  Te26  1  0.76444500  0.41318700  0.62906100  1
  Te  Te27  1  0.26444500  0.58681300  0.87093900  1
  Te  Te28  1  0.26444500  0.08681300  0.12906100  1
  Te  Te29  1  0.76444500  0.91318700  0.37093900  1
  Te  Te30  1  0.23555500  0.58681300  0.37093900  1
  Te  Te31  1  0.73555500  0.41318700  0.12906100  1
loop_
_geom_bond_atom_site_label_1
_geom_bond_atom_site_label_2
_geom_bond_distance
_geom_bond_site_symmetry_2
Na0 Te11 3.296315 1_554
Na0 Te15 3.296315 1_445
Na0 Te7 3.350200 1_455
Na0 Te3 3.350200 1_544
Na0 Te28 3.639456 1_555
Na0 Te24 3.639456 1_444
Na1 Te10 3.296315 1_545
Na1 Te14 3.296315 1_555
Na1 Te2 3.350200 1_555
Na1 Te6 3.350200 1_545
Na1 Te25 3.639456 1_555
Na1 Te29 3.639456 1_545
Na2 Te9 3.296315 1_555
Na2 Te13 3.296315 1_555
Na2 Te5 3.350200 1_555
Na2 Te1 3.350200 1_555
Na2 Te26 3.639456 1_555
Na2 Te30 3.639456 1_555
Na3 Te12 3.296315 1_555
Na3 Te8 3.296315 1_454
Na3 Te0 3.350200 1_454
Na3 Te4 3.350200 1_555
Na3 Te31 3.639456 1_455
Na3 Te27 3.639456 1_554
Na4 Te3 3.310453 1_555
Na4 Te0 3.310453 1_455
Na4 Te19 3.366392 1_555
Na4 Te16 3.366392 1_455
Na4 Te24 3.528187 1_455
Na4 Te27 3.528187 1_555
Na5 Te1 3.310453 1_555
Na5 Te2 3.310453 1_555
Na5 Te17 3.366392 1_555
Na5 Te18 3.366392 1_555
Na5 Te26 3.528187 1_555
Na5 Te25 3.528187 1_555
Na6 Te4 3.310453 1_555
Na6 Te7 3.310453 1_455
Na6 Te20 3.366392 1_555
Na6 Te23 3.366392 1_455
Na6 Te31 3.528187 1_455
Na6 Te28 3.528187 1_555
Na7 Te6 3.310453 1_555
Na7 Te5 3.310453 1_555
Na7 Te22 3.366392 1_555
Na7 Te21 3.366392 1_555
Na7 Te29 3.528187 1_555
Na7 Te30 3.528187 1_555
Na8 Te5 3.066793 1_555
Na8 Te26 3.121105 1_555
Na8 Te16 3.169472 1_555
Na8 Te9 3.250146 1_655
Na9 Te4 3.066793 1_556
Na9 Te27 3.121105 1_555
Na9 Te17 3.169472 1_555
Na9 Te8 3.250146 1_555
Na10 Te7 3.066793 1_556
Na10 Te24 3.121105 1_545
Na10 Te18 3.169472 1_555
Na10 Te11 3.250146 1_555
Na11 Te6 3.066793 1_555
Na11 Te25 3.121105 1_565
Na11 Te19 3.169472 1_555
Na11 Te10 3.250146 1_455
Na12 Te1 3.066793 1_555
Na12 Te30 3.121105 1_555
Na12 Te20 3.169472 1_555
Na12 Te13 3.250146 1_455
Na13 Te0 3.066793 1_554
Na13 Te31 3.121105 1_555
Na13 Te21 3.169472 1_555
Na13 Te12 3.250146 1_555
Na14 Te3 3.066793 1_554
Na14 Te28 3.121105 1_565
Na14 Te22 3.169472 1_555
Na14 Te15 3.250146 1_555
Na15 Te2 3.066793 1_555
Na15 Te29 3.121105 1_545
Na15 Te23 3.169472 1_555
Na15 Te14 3.250146 1_655
Na16 Te27 3.128901 1_555
Na16 Te16 3.224293 1_455
Na16 Te8 3.245637 1_455
Na16 Te17 3.444088 1_555
Na16 Te9 3.522390 1_555
Na17 Te26 3.128901 1_555
Na17 Te17 3.224293 1_555
Na17 Te9 3.245637 1_555
Na17 Te16 3.444088 1_555
Na17 Te8 3.522390 1_555
Na18 Te25 3.128901 1_555
Na18 Te18 3.224293 1_555
Na18 Te10 3.245637 1_545
Na18 Te19 3.444088 1_545
Na18 Te11 3.522390 1_555
Na19 Te24 3.128901 1_555
Na19 Te19 3.224293 1_655
Na19 Te11 3.245637 1_665
Na19 Te18 3.444088 1_565
Na19 Te10 3.522390 1_555
Na20 Te31 3.128901 1_555
Na20 Te20 3.224293 1_655
Na20 Te12 3.245637 1_655
Na20 Te21 3.444088 1_555
Na20 Te13 3.522390 1_555
Na21 Te30 3.128901 1_555
Na21 Te21 3.224293 1_555
Na21 Te13 3.245637 1_555
Na21 Te20 3.444088 1_555
Na21 Te12 3.522390 1_555
Na22 Te29 3.128901 1_555
Na22 Te22 3.224293 1_555
Na22 Te14 3.245637 1_565
Na22 Te23 3.444088 1_565
Na22 Te15 3.522390 1_555
Na23 Te28 3.128901 1_555
Na23 Te23 3.224293 1_455
Na23 Te15 3.245637 1_445
Na23 Te22 3.444088 1_545
Na23 Te14 3.522390 1_555
Na24 Te31 3.094565 1_556
Na24 Te7 3.118561 1_556
Na24 Te8 3.172699 1_555
Na24 Te4 3.447047 1_556
Na25 Te30 3.094565 1_555
Na25 Te6 3.118561 1_555
Na25 Te9 3.172699 1_555
Na25 Te5 3.447047 1_455
Na26 Te29 3.094565 1_555
Na26 Te5 3.118561 1_555
Na26 Te10 3.172699 1_555
Na26 Te6 3.447047 1_655
Na27 Te28 3.094565 1_556
Na27 Te4 3.118561 1_556
Na27 Te11 3.172699 1_555
Na27 Te7 3.447047 1_556
Na28 Te27 3.094565 1_554
Na28 Te3 3.118561 1_554
Na28 Te12 3.172699 1_555
Na28 Te0 3.447047 1_554
Na29 Te26 3.094565 1_555
Na29 Te2 3.118561 1_555
Na29 Te13 3.172699 1_555
Na29 Te1 3.447047 1_655
Na30 Te25 3.094565 1_555
Na30 Te1 3.118561 1_555
Na30 Te14 3.172699 1_555
Na30 Te2 3.447047 1_455
Na31 Te24 3.094565 1_554
Na31 Te0 3.118561 1_554
Na31 Te15 3.172699 1_555
Na31 Te3 3.447047 1_554
Na32 Te16 3.102528 1_555
Na32 Te10 3.175173 1_555
Na32 Te24 3.184605 1_555
Na32 Te19 3.367310 1_555
Na33 Te17 3.102528 1_555
Na33 Te11 3.175173 1_555
Na33 Te25 3.184605 1_555
Na33 Te18 3.367310 1_455
Na34 Te18 3.102528 1_555
Na34 Te8 3.175173 1_555
Na34 Te26 3.184605 1_555
Na34 Te17 3.367310 1_655
Na35 Te19 3.102528 1_555
Na35 Te9 3.175173 1_555
Na35 Te27 3.184605 1_555
Na35 Te16 3.367310 1_555
Na36 Te20 3.102528 1_555
Na36 Te14 3.175173 1_555
Na36 Te28 3.184605 1_555
Na36 Te23 3.367310 1_555
Na37 Te21 3.102528 1_555
Na37 Te15 3.175173 1_555
Na37 Te29 3.184605 1_555
Na37 Te22 3.367310 1_655
Na38 Te22 3.102528 1_555
Na38 Te12 3.175173 1_555
Na38 Te30 3.184605 1_555
Na38 Te21 3.367310 1_455
Na39 Te23 3.102528 1_555
Na39 Te13 3.175173 1_555
Na39 Te31 3.184605 1_555
Na39 Te20 3.367310 1_555
In0 Te0 2.796915 1_555
In0 Te27 2.826637 1_555
In0 Te8 2.858607 1_555
In0 Te16 2.860353 1_555
In0 Na17 3.524916 1_555
In1 Te1 2.796915 1_555
In1 Te26 2.826637 1_455
In1 Te9 2.858607 1_555
In1 Te17 2.860353 1_555
In1 Na16 3.524916 1_555
In2 Te2 2.796915 1_555
In2 Te25 2.826637 1_655
In2 Te10 2.858607 1_545
In2 Te18 2.860353 1_555
In2 Na19 3.524916 1_545
In3 Te3 2.796915 1_555
In3 Te24 2.826637 1_555
In3 Te11 2.858607 1_565
In3 Te19 2.860353 1_555
In3 Na18 3.524916 1_565
In4 Te4 2.796915 1_555
In4 Te31 2.826637 1_555
In4 Te12 2.858607 1_555
In4 Te20 2.860353 1_555
In4 Na21 3.524916 1_555
In5 Te5 2.796915 1_555
In5 Te30 2.826637 1_655
In5 Te13 2.858607 1_555
In5 Te21 2.860353 1_555
In5 Na20 3.524916 1_555
In6 Te6 2.796915 1_555
In6 Te29 2.826637 1_455
In6 Te14 2.858607 1_565
In6 Te22 2.860353 1_555
In6 Na23 3.524916 1_565
In7 Te7 2.796915 1_555
In7 Te28 2.826637 1_555
In7 Te15 2.858607 1_545
In7 Te23 2.860353 1_555
In7 Na22 3.524916 1_545
