# generated using pymatgen
data_Mg4P6Rh7
_symmetry_space_group_name_H-M   'P 1'
_cell_length_a   6.79943136
_cell_length_b   6.79943174
_cell_length_c   6.79943098
_cell_angle_alpha   109.47122138
_cell_angle_beta   109.47122251
_cell_angle_gamma   109.47121337
_symmetry_Int_Tables_number   1
_chemical_formula_structural   Mg4P6Rh7
_chemical_formula_sum   'Mg4 P6 Rh7'
_cell_volume   241.98916221
_cell_formula_units_Z   1
loop_
 _symmetry_equiv_pos_site_id
 _symmetry_equiv_pos_as_xyz
  1  'x, y, z'
loop_
 _atom_site_type_symbol
 _atom_site_label
 _atom_site_symmetry_multiplicity
 _atom_site_fract_x
 _atom_site_fract_y
 _atom_site_fract_z
 _atom_site_occupancy
  Mg  Mg0  1  0.50000000  0.50000000  0.50000000  1
  Mg  Mg1  1  0.50000000  -0.00000000  0.00000000  1
  Mg  Mg2  1  -0.00000000  0.50000000  0.00000000  1
  Mg  Mg3  1  -0.00000000  -0.00000000  0.50000000  1
  P  P0  1  0.31980472  0.31980472  0.00000000  1
  P  P1  1  0.68019528  0.68019528  -0.00000000  1
  P  P2  1  0.68019528  -0.00000000  0.68019528  1
  P  P3  1  0.31980472  0.00000000  0.31980472  1
  P  P4  1  -0.00000000  0.68019528  0.68019528  1
  P  P5  1  0.00000000  0.31980472  0.31980472  1
  Rh  Rh0  1  -0.00000000  -0.00000000  0.00000000  1
  Rh  Rh1  1  0.50000000  0.25000000  0.75000000  1
  Rh  Rh2  1  0.75000000  0.25000000  0.50000000  1
  Rh  Rh3  1  0.25000000  0.50000000  0.75000000  1
  Rh  Rh4  1  0.75000000  0.50000000  0.25000000  1
  Rh  Rh5  1  0.50000000  0.75000000  0.25000000  1
  Rh  Rh6  1  0.25000000  0.75000000  0.50000000  1
loop_
_geom_bond_atom_site_label_1
_geom_bond_atom_site_label_2
_geom_bond_distance
_geom_bond_site_symmetry_2
Mg0 Rh6 2.775856 1_555
Mg0 Rh2 2.775856 1_555
Mg0 Rh3 2.775856 1_555
Mg0 Rh4 2.775856 1_555
Mg0 Rh1 2.775856 1_555
Mg0 Rh5 2.775856 1_555
Mg0 P1 2.829442 1_556
Mg0 P0 2.829442 1_555
Mg0 P5 2.829443 1_555
Mg0 P4 2.829443 1_655
Mg0 P2 2.829443 1_565
Mg0 P3 2.829443 1_555
Mg1 Rh2 2.775856 1_555
Mg1 Rh6 2.775856 1_544
Mg1 Rh5 2.775856 1_545
Mg1 Rh1 2.775856 1_554
Mg1 Rh3 2.775857 1_544
Mg1 Rh4 2.775857 1_555
Mg1 P3 2.829443 1_555
Mg1 P2 2.829443 1_554
Mg1 P0 2.829443 1_555
Mg1 P1 2.829443 1_545
Mg1 P5 2.829443 1_655
Mg1 P4 2.829443 1_544
Mg2 Rh2 2.775856 1_454
Mg2 Rh6 2.775856 1_555
Mg2 Rh4 2.775856 1_455
Mg2 Rh3 2.775856 1_554
Mg2 Rh1 2.775856 1_454
Mg2 Rh5 2.775856 1_555
Mg2 P1 2.829443 1_455
Mg2 P0 2.829443 1_555
Mg2 P4 2.829443 1_554
Mg2 P5 2.829443 1_555
Mg2 P2 2.829443 1_454
Mg2 P3 2.829443 1_565
Mg3 Rh6 2.775856 1_545
Mg3 Rh2 2.775856 1_455
Mg3 Rh1 2.775856 1_555
Mg3 Rh5 2.775856 1_445
Mg3 Rh3 2.775857 1_555
Mg3 Rh4 2.775857 1_445
Mg3 P0 2.829443 1_556
Mg3 P1 2.829443 1_445
Mg3 P2 2.829443 1_455
Mg3 P3 2.829443 1_555
Mg3 P5 2.829443 1_555
Mg3 P4 2.829443 1_545
P0 Rh1 2.419557 1_554
P0 Rh3 2.419557 1_554
P0 Rh4 2.419558 1_555
P0 Rh5 2.419558 1_555
P0 Rh0 2.510885 1_555
P1 Rh5 2.419557 1_555
P1 Rh4 2.419557 1_555
P1 Rh3 2.419558 1_554
P1 Rh1 2.419558 1_554
P1 Rh0 2.510885 1_665
P2 Rh5 2.419557 1_545
P2 Rh1 2.419558 1_555
P2 Rh2 2.419558 1_555
P2 Rh6 2.419558 1_545
P2 Rh0 2.510885 1_656
P3 Rh1 2.419557 1_555
P3 Rh5 2.419558 1_545
P3 Rh6 2.419558 1_545
P3 Rh2 2.419558 1_555
P3 Rh0 2.510885 1_555
P4 Rh4 2.419557 1_455
P4 Rh3 2.419557 1_555
P4 Rh6 2.419558 1_555
P4 Rh2 2.419558 1_455
P4 Rh0 2.510885 1_566
P5 Rh3 2.419557 1_555
P5 Rh4 2.419557 1_455
P5 Rh2 2.419558 1_455
P5 Rh6 2.419558 1_555
P5 Rh0 2.510885 1_555
