# generated using pymatgen
data_Er2CrS4
_symmetry_space_group_name_H-M   'P 1'
_cell_length_a   7.44630881
_cell_length_b   12.47871124
_cell_length_c   12.47951088
_cell_angle_alpha   90.00000000
_cell_angle_beta   90.00000000
_cell_angle_gamma   90.00000000
_symmetry_Int_Tables_number   1
_chemical_formula_structural   Er2CrS4
_chemical_formula_sum   'Er16 Cr8 S32'
_cell_volume   1159.60036210
_cell_formula_units_Z   8
loop_
 _symmetry_equiv_pos_site_id
 _symmetry_equiv_pos_as_xyz
  1  'x, y, z'
loop_
 _atom_site_type_symbol
 _atom_site_label
 _atom_site_symmetry_multiplicity
 _atom_site_fract_x
 _atom_site_fract_y
 _atom_site_fract_z
 _atom_site_occupancy
  Er  Er0  1  0.38641861  0.89199677  0.38466526  1
  Er  Er1  1  0.61358139  0.10800323  0.88466526  1
  Er  Er2  1  0.61358139  0.39199677  0.38466526  1
  Er  Er3  1  0.38641861  0.60800323  0.88466526  1
  Er  Er4  1  0.11459747  0.12852995  0.24575941  1
  Er  Er5  1  0.88540253  0.87147005  0.74575941  1
  Er  Er6  1  0.88540253  0.62852995  0.24575941  1
  Er  Er7  1  0.11459747  0.37147005  0.74575941  1
  Er  Er8  1  0.86607317  0.36517115  0.07775952  1
  Er  Er9  1  0.13392683  0.63482885  0.57775952  1
  Er  Er10  1  0.13392683  0.86517115  0.07775952  1
  Er  Er11  1  0.86607317  0.13482885  0.57775952  1
  Er  Er12  1  0.36598653  0.36589798  0.08087525  1
  Er  Er13  1  0.63401347  0.63410202  0.58087525  1
  Er  Er14  1  0.63401347  0.86589798  0.08087525  1
  Er  Er15  1  0.36598653  0.13410202  0.58087525  1
  Cr  Cr0  1  0.61736480  0.12715118  0.24838270  1
  Cr  Cr1  1  0.38263520  0.87284882  0.74838270  1
  Cr  Cr2  1  0.38263520  0.62715118  0.24838270  1
  Cr  Cr3  1  0.61736480  0.37284882  0.74838270  1
  Cr  Cr4  1  0.88320095  0.89027382  0.37798544  1
  Cr  Cr5  1  0.11679905  0.10972618  0.87798544  1
  Cr  Cr6  1  0.11679905  0.39027382  0.37798544  1
  Cr  Cr7  1  0.88320095  0.60972618  0.87798544  1
  S  S0  1  0.61487959  0.20979258  0.07188056  1
  S  S1  1  0.38512041  0.79020742  0.57188056  1
  S  S2  1  0.38512041  0.70979258  0.07188056  1
  S  S3  1  0.61487959  0.29020742  0.57188056  1
  S  S4  1  0.88101525  0.97406739  0.20175845  1
  S  S5  1  0.11898475  0.02593261  0.70175845  1
  S  S6  1  0.11898475  0.47406739  0.20175845  1
  S  S7  1  0.88101525  0.52593261  0.70175845  1
  S  S8  1  0.35569765  0.27400333  0.29922477  1
  S  S9  1  0.64430235  0.72599667  0.79922477  1
  S  S10  1  0.64430235  0.77400333  0.29922477  1
  S  S11  1  0.35569765  0.22599667  0.79922477  1
  S  S12  1  0.85244255  0.26168029  0.29343911  1
  S  S13  1  0.14755745  0.73831971  0.79343911  1
  S  S14  1  0.14755745  0.76168029  0.29343911  1
  S  S15  1  0.85244255  0.23831971  0.79343911  1
  S  S16  1  0.38250222  0.99106468  0.19302205  1
  S  S17  1  0.61749778  0.00893532  0.69302205  1
  S  S18  1  0.61749778  0.49106468  0.19302205  1
  S  S19  1  0.38250222  0.50893532  0.69302205  1
  S  S20  1  0.61802447  0.44967418  0.93232335  1
  S  S21  1  0.38197553  0.55032582  0.43232335  1
  S  S22  1  0.38197553  0.94967418  0.93232335  1
  S  S23  1  0.61802447  0.05032582  0.43232335  1
  S  S24  1  0.11681423  0.28813003  0.54878010  1
  S  S25  1  0.88318577  0.71186997  0.04878010  1
  S  S26  1  0.88318577  0.78813003  0.54878010  1
  S  S27  1  0.11681423  0.21186997  0.04878010  1
  S  S28  1  0.11538342  0.47129227  0.93985301  1
  S  S29  1  0.88461658  0.52870773  0.43985301  1
  S  S30  1  0.88461658  0.97129227  0.93985301  1
  S  S31  1  0.11538342  0.02870773  0.43985301  1
loop_
_geom_bond_atom_site_label_1
_geom_bond_atom_site_label_2
_geom_bond_distance
_geom_bond_site_symmetry_2
Er0 S10 2.644308 1_555
Er0 S1 2.659334 1_555
Er0 S14 2.665350 1_555
Er0 S23 2.689156 1_565
Er0 S16 2.692388 1_555
Er0 S31 2.730909 1_565
Er1 S11 2.644308 1_555
Er1 S0 2.659334 1_556
Er1 S15 2.665350 1_555
Er1 S22 2.689156 1_545
Er1 S17 2.692388 1_555
Er1 S30 2.730909 1_545
Er2 S8 2.644308 1_555
Er2 S3 2.659334 1_555
Er2 S12 2.665350 1_555
Er2 S21 2.689156 1_555
Er2 S18 2.692388 1_555
Er2 S29 2.730909 1_555
Er3 S9 2.644308 1_555
Er3 S2 2.659334 1_556
Er3 S13 2.665350 1_555
Er3 S20 2.689156 1_555
Er3 S19 2.692388 1_555
Er3 S28 2.730909 1_555
Er4 S12 2.631619 1_455
Er4 S8 2.638882 1_555
Er4 S4 2.653678 1_445
Er4 S27 2.669194 1_555
Er4 S16 2.712072 1_545
Er4 S31 2.723730 1_555
Er5 S13 2.631619 1_655
Er5 S9 2.638882 1_555
Er5 S5 2.653678 1_665
Er5 S26 2.669194 1_555
Er5 S17 2.712072 1_565
Er5 S30 2.723730 1_555
Er6 S14 2.631619 1_655
Er6 S10 2.638882 1_555
Er6 S6 2.653678 1_655
Er6 S25 2.669194 1_555
Er6 S18 2.712072 1_555
Er6 S29 2.723730 1_555
Er7 S15 2.631619 1_455
Er7 S11 2.638882 1_555
Er7 S7 2.653678 1_455
Er7 S24 2.669194 1_555
Er7 S19 2.712072 1_555
Er7 S28 2.723730 1_555
Er8 S0 2.695079 1_555
Er8 S27 2.697482 1_655
Er8 S6 2.790666 1_655
Er8 S20 2.796007 1_554
Er8 S18 2.821905 1_555
Er8 S28 2.856901 1_654
Er8 S12 2.987086 1_555
Er9 S1 2.695079 1_555
Er9 S26 2.697482 1_455
Er9 S7 2.790666 1_455
Er9 S21 2.796007 1_555
Er9 S19 2.821905 1_555
Er9 S29 2.856901 1_455
Er9 S13 2.987086 1_555
Er10 S2 2.695079 1_555
Er10 S25 2.697482 1_455
Er10 S4 2.790666 1_455
Er10 S22 2.796007 1_554
Er10 S16 2.821905 1_555
Er10 S30 2.856901 1_454
Er10 S14 2.987086 1_555
Er11 S3 2.695079 1_555
Er11 S24 2.697482 1_655
Er11 S5 2.790666 1_655
Er11 S23 2.796007 1_555
Er11 S17 2.821905 1_555
Er11 S31 2.856901 1_655
Er11 S15 2.987086 1_555
Er12 S0 2.691121 1_555
Er12 S27 2.701360 1_555
Er12 S6 2.735070 1_555
Er12 S18 2.811724 1_555
Er12 S20 2.837583 1_554
Er12 S28 2.882556 1_554
Er12 S8 2.957348 1_555
Er13 S1 2.691121 1_555
Er13 S26 2.701360 1_555
Er13 S7 2.735070 1_555
Er13 S19 2.811724 1_555
Er13 S21 2.837583 1_555
Er13 S29 2.882556 1_555
Er13 S9 2.957348 1_555
Er14 S2 2.691121 1_555
Er14 S25 2.701360 1_555
Er14 S4 2.735070 1_555
Er14 S16 2.811724 1_555
Er14 S22 2.837583 1_554
Er14 S30 2.882556 1_554
Er14 S10 2.957348 1_555
Er15 S3 2.691121 1_555
Er15 S24 2.701360 1_555
Er15 S5 2.735070 1_555
Er15 S17 2.811724 1_555
Er15 S23 2.837583 1_555
Er15 S31 2.882556 1_555
Er15 S11 2.957348 1_555
Cr0 S0 2.432190 1_555
Cr0 S23 2.487643 1_555
Cr0 S12 2.489674 1_555
Cr0 S16 2.533702 1_545
Cr0 S8 2.749035 1_555
Cr0 S4 2.800356 1_545
Cr1 S1 2.432190 1_555
Cr1 S22 2.487643 1_555
Cr1 S13 2.489674 1_555
Cr1 S17 2.533702 1_565
Cr1 S9 2.749035 1_555
Cr1 S5 2.800356 1_565
Cr2 S2 2.432190 1_555
Cr2 S21 2.487643 1_555
Cr2 S14 2.489674 1_555
Cr2 S18 2.533702 1_555
Cr2 S10 2.749035 1_555
Cr2 S6 2.800356 1_555
Cr3 S3 2.432190 1_555
Cr3 S20 2.487643 1_555
Cr3 S15 2.489674 1_555
Cr3 S19 2.533702 1_555
Cr3 S11 2.749035 1_555
Cr3 S7 2.800356 1_555
Cr4 S4 2.435204 1_555
Cr4 S26 2.483480 1_555
Cr4 S10 2.497146 1_555
Cr4 S31 2.563081 1_665
Cr4 S14 2.750117 1_655
Cr4 S23 2.889256 1_565
Cr5 S5 2.435204 1_555
Cr5 S27 2.483480 1_556
Cr5 S11 2.497146 1_555
Cr5 S30 2.563081 1_445
Cr5 S15 2.750117 1_455
Cr5 S22 2.889256 1_545
Cr6 S6 2.435204 1_555
Cr6 S24 2.483480 1_555
Cr6 S8 2.497146 1_555
Cr6 S29 2.563081 1_455
Cr6 S12 2.750117 1_455
Cr6 S21 2.889256 1_555
Cr7 S7 2.435204 1_555
Cr7 S25 2.483480 1_556
Cr7 S9 2.497146 1_555
Cr7 S28 2.563081 1_655
Cr7 S13 2.750117 1_655
Cr7 S20 2.889256 1_555
