# generated using pymatgen
data_Na2La6Ta2Si3(S3O16)3
_symmetry_space_group_name_H-M   'P 1'
_cell_length_a   18.69759056
_cell_length_b   9.36961487
_cell_length_c   24.63816146
_cell_angle_alpha   89.94288163
_cell_angle_beta   90.20319406
_cell_angle_gamma   120.20536573
_symmetry_Int_Tables_number   1
_chemical_formula_structural   Na2La6Ta2Si3(S3O16)3
_chemical_formula_sum   'Na6 La18 Ta6 Si9 S27 O144'
_cell_volume   3730.27585014
_cell_formula_units_Z   3
loop_
 _symmetry_equiv_pos_site_id
 _symmetry_equiv_pos_as_xyz
  1  'x, y, z'
loop_
 _atom_site_type_symbol
 _atom_site_label
 _atom_site_symmetry_multiplicity
 _atom_site_fract_x
 _atom_site_fract_y
 _atom_site_fract_z
 _atom_site_occupancy
  Na  Na0  1  0.99968109  0.98845888  0.49968920  1
  Na  Na1  1  0.50259108  0.01359798  0.99708254  1
  Na  Na2  1  0.34060253  0.33614025  0.83454271  1
  Na  Na3  1  0.83956477  0.35916472  0.83019370  1
  Na  Na4  1  0.34007336  0.32221137  0.33659186  1
  Na  Na5  1  0.84085831  0.34317298  0.34315145  1
  La  La0  1  0.00676655  0.98690298  0.36050777  1
  La  La1  1  0.50540631  0.02321495  0.85734977  1
  La  La2  1  0.00157940  0.99409253  0.64913263  1
  La  La3  1  0.50253325  0.00910616  0.14999609  1
  La  La4  1  0.32416941  0.34010267  0.67992546  1
  La  La5  1  0.84152640  0.33742277  0.68397167  1
  La  La6  1  0.34799971  0.34373112  0.18901903  1
  La  La7  1  0.82239445  0.30537807  0.18053826  1
  La  La8  1  0.33406077  0.33297885  0.98153764  1
  La  La9  1  0.84124054  0.33570032  0.98373874  1
  La  La10  1  0.34234314  0.34891748  0.48511216  1
  La  La11  1  0.82713496  0.32356686  0.48549164  1
  La  La12  1  0.15999386  0.65847538  0.01838414  1
  La  La13  1  0.66161081  0.67634849  0.52321815  1
  La  La14  1  0.16042431  0.67401154  0.31325481  1
  La  La15  1  0.66844127  0.66213321  0.30774687  1
  La  La16  1  0.16817140  0.67599200  0.80559341  1
  La  La17  1  0.65957482  0.64535031  0.81093250  1
  Ta  Ta0  1  0.49113301  0.00335100  0.35596121  1
  Ta  Ta1  1  0.99094079  0.97885208  0.85348416  1
  Ta  Ta2  1  0.49776350  0.98925634  0.64374626  1
  Ta  Ta3  1  0.99461926  0.00072456  0.14677742  1
  Ta  Ta4  1  0.67751593  0.67013142  0.01300441  1
  Ta  Ta5  1  0.17567773  0.68322225  0.51420458  1
  Si  Si0  1  0.49500887  0.27900054  0.25521500  1
  Si  Si1  1  0.99236004  0.70417524  0.75416075  1
  Si  Si2  1  0.68208655  0.04071969  0.58754365  1
  Si  Si3  1  0.33006963  0.63939527  0.58228800  1
  Si  Si4  1  0.83026888  0.02172106  0.08224097  1
  Si  Si5  1  0.81370355  0.66708078  0.91409500  1
  Si  Si6  1  0.52339727  0.37937740  0.92150248  1
  Si  Si7  1  0.31271271  0.96117102  0.41521472  1
  Si  Si8  1  0.02068344  0.66038651  0.42163536  1
  S  S0  1  0.14119464  0.00512224  0.24356326  1
  S  S1  1  0.64336397  0.00941504  0.25700698  1
  S  S2  1  0.35970181  0.71408334  0.25637957  1
  S  S3  1  0.86197836  0.71778514  0.24510886  1
  S  S4  1  0.99907901  0.27596533  0.24599595  1
  S  S5  1  0.14299419  0.27605688  0.75727335  1
  S  S6  1  0.64118478  0.27794360  0.74387741  1
  S  S7  1  0.49844369  0.72176648  0.74616684  1
  S  S8  1  0.36147297  0.00827219  0.74565455  1
  S  S9  1  0.86019457  0.00588099  0.75656350  1
  S  S10  1  0.48130381  0.31471293  0.58877382  1
  S  S11  1  0.99473182  0.34960401  0.57821812  1
  S  S12  1  0.18327553  0.01936921  0.57770847  1
  S  S13  1  0.83435980  0.63592699  0.58196764  1
  S  S14  1  0.49282399  0.63773800  0.07880027  1
  S  S15  1  0.98223222  0.64879638  0.08884445  1
  S  S16  1  0.33258457  0.03170968  0.08238237  1
  S  S17  1  0.17657278  0.31670826  0.08852139  1
  S  S18  1  0.68355773  0.34769542  0.07764538  1
  S  S19  1  0.31436670  0.66809042  0.91690725  1
  S  S20  1  0.01937572  0.35592955  0.91104216  1
  S  S21  1  0.15825246  0.96460302  0.91245727  1
  S  S22  1  0.66623107  0.94760515  0.92099349  1
  S  S23  1  0.81565873  0.96342068  0.41571107  1
  S  S24  1  0.16698709  0.38457066  0.42115681  1
  S  S25  1  0.65887849  0.35185073  0.41198544  1
  S  S26  1  0.51788843  0.68221479  0.41003104  1
  O  O0  1  0.10651450  0.02555369  0.29495615  1
  O  O1  1  0.59436114  0.01705727  0.30278425  1
  O  O2  1  0.41495085  0.81027563  0.30392516  1
  O  O3  1  0.90876413  0.79158749  0.29541658  1
  O  O4  1  0.48898095  0.15413545  0.30746393  1
  O  O5  1  0.98918555  0.18092900  0.29535396  1
  O  O6  1  0.09328970  0.17010553  0.80372509  1
  O  O7  1  0.60547800  0.18857826  0.79604124  1
  O  O8  1  0.48892302  0.79703638  0.79643908  1
  O  O9  1  0.98915365  0.82220165  0.80768005  1
  O  O10  1  0.40694748  0.02664096  0.79743823  1
  O  O11  1  0.91601935  0.01746673  0.80468788  1
  O  O12  1  0.40882963  0.99848914  0.69878733  1
  O  O13  1  0.89806851  0.99414022  0.70586367  1
  O  O14  1  0.10127716  0.20957832  0.70478009  1
  O  O15  1  0.58618181  0.17850660  0.69802419  1
  O  O16  1  0.00324259  0.81017321  0.70005512  1
  O  O17  1  0.50034251  0.82404872  0.69762761  1
  O  O18  1  0.39722573  0.80165601  0.20500523  1
  O  O19  1  0.91182358  0.82628558  0.19701967  1
  O  O20  1  0.00157947  0.17507305  0.19658296  1
  O  O21  1  0.50276087  0.19706406  0.19947135  1
  O  O22  1  0.08640144  0.99611907  0.19686591  1
  O  O23  1  0.60186953  0.99294623  0.20394256  1
  O  O24  1  0.43977557  0.34423068  0.63476081  1
  O  O25  1  0.96031895  0.37732009  0.62867147  1
  O  O26  1  0.23020130  0.08637826  0.62891671  1
  O  O27  1  0.74195862  0.12969875  0.63926843  1
  O  O28  1  0.30922196  0.52133584  0.63550817  1
  O  O29  1  0.82901893  0.54325735  0.63166209  1
  O  O30  1  0.45590206  0.53977530  0.12925462  1
  O  O31  1  0.94194752  0.53746414  0.13496677  1
  O  O32  1  0.32508198  0.11323377  0.13154980  1
  O  O33  1  0.81072658  0.09652383  0.13607091  1
  O  O34  1  0.23213674  0.34817980  0.13484188  1
  O  O35  1  0.73030814  0.37431908  0.12888863  1
  O  O36  1  0.20597076  0.27533020  0.03901442  1
  O  O37  1  0.72548535  0.31999453  0.03208721  1
  O  O38  1  0.43389960  0.55383665  0.03313495  1
  O  O39  1  0.93261965  0.59034079  0.03906448  1
  O  O40  1  0.34209309  0.13245350  0.03368235  1
  O  O41  1  0.85797786  0.14829901  0.03215864  1
  O  O42  1  0.22531512  0.13047456  0.53187365  1
  O  O43  1  0.71520562  0.15000822  0.53297892  1
  O  O44  1  0.35590868  0.56604266  0.53169808  1
  O  O45  1  0.84588280  0.55777344  0.53329940  1
  O  O46  1  0.43131665  0.27590169  0.53882114  1
  O  O47  1  0.93721954  0.31608636  0.53226678  1
  O  O48  1  0.27189797  0.68023997  0.96671131  1
  O  O49  1  0.76438780  0.69058874  0.96930585  1
  O  O50  1  0.06596992  0.42568843  0.96301660  1
  O  O51  1  0.58727042  0.49822309  0.97227465  1
  O  O52  1  0.14413240  0.86640338  0.96270869  1
  O  O53  1  0.66302038  0.84433107  0.96955438  1
  O  O54  1  0.26335230  0.83899195  0.46948642  1
  O  O55  1  0.77489146  0.86712112  0.46512617  1
  O  O56  1  0.16327264  0.48024865  0.46907075  1
  O  O57  1  0.64334455  0.41643154  0.46178441  1
  O  O58  1  0.08661221  0.67339200  0.47171688  1
  O  O59  1  0.56304130  0.70837059  0.46155101  1
  O  O60  1  0.05990318  0.64846717  0.36402104  1
  O  O61  1  0.56108608  0.65677427  0.36460732  1
  O  O62  1  0.25996998  0.87276538  0.36186842  1
  O  O63  1  0.76861955  0.87767313  0.36639373  1
  O  O64  1  0.17382156  0.46986517  0.36972387  1
  O  O65  1  0.67132947  0.45918399  0.36498515  1
  O  O66  1  0.06245499  0.46941914  0.86609605  1
  O  O67  1  0.55925638  0.47192061  0.86434380  1
  O  O68  1  0.17378643  0.88595289  0.86627333  1
  O  O69  1  0.67337111  0.87587448  0.87017226  1
  O  O70  1  0.26762596  0.65760547  0.86791969  1
  O  O71  1  0.75827651  0.64652518  0.86223836  1
  O  O72  1  0.01868954  0.83562777  0.42453672  1
  O  O73  1  0.51040602  0.83272829  0.39845779  1
  O  O74  1  0.40622752  0.97071547  0.40267659  1
  O  O75  1  0.89994951  0.98297417  0.41370159  1
  O  O76  1  0.08959689  0.22031823  0.42203411  1
  O  O77  1  0.58228911  0.18153853  0.40034355  1
  O  O78  1  0.01235297  0.19183677  0.90099796  1
  O  O79  1  0.51812720  0.19858914  0.92460410  1
  O  O80  1  0.08275393  0.98025259  0.90190323  1
  O  O81  1  0.58871744  0.95587224  0.92249831  1
  O  O82  1  0.39851116  0.81652696  0.91626653  1
  O  O83  1  0.90660749  0.84361454  0.90190862  1
  O  O84  1  0.49010641  0.16645274  0.60230702  1
  O  O85  1  0.00495693  0.20265629  0.58440234  1
  O  O86  1  0.09904710  0.99492834  0.58226634  1
  O  O87  1  0.58640047  0.01376119  0.60441168  1
  O  O88  1  0.41108569  0.82326162  0.60318833  1
  O  O89  1  0.90788971  0.80680714  0.58406786  1
  O  O90  1  0.50195273  0.80422528  0.08442170  1
  O  O91  1  0.99363150  0.81786067  0.10285383  1
  O  O92  1  0.40628467  0.01133017  0.08493804  1
  O  O93  1  0.91263530  0.99968337  0.10371518  1
  O  O94  1  0.09074322  0.16716482  0.10233095  1
  O  O95  1  0.59900335  0.20264388  0.08229724  1
  O  O96  1  0.35008106  0.15380679  0.74096549  1
  O  O97  1  0.85694140  0.16013448  0.75843728  1
  O  O98  1  0.22551688  0.28628943  0.75733748  1
  O  O99  1  0.72437023  0.29796561  0.74007244  1
  O  O100  1  0.42451189  0.55282612  0.74084705  1
  O  O101  1  0.90930176  0.52541947  0.75690957  1
  O  O102  1  0.35487569  0.55051853  0.25599106  1
  O  O103  1  0.85192917  0.55257119  0.23775635  1
  O  O104  1  0.41059404  0.29175575  0.25624193  1
  O  O105  1  0.92563408  0.29547796  0.23856848  1
  O  O106  1  0.22422915  0.15352625  0.23733765  1
  O  O107  1  0.72627356  0.16453987  0.25609709  1
  O  O108  1  0.32143436  0.51723373  0.91977622  1
  O  O109  1  0.83234201  0.51982730  0.92591505  1
  O  O110  1  0.42950186  0.35226544  0.92684587  1
  O  O111  1  0.93537844  0.33390965  0.91604893  1
  O  O112  1  0.22999881  0.13402588  0.91873965  1
  O  O113  1  0.73842041  0.11580062  0.92698602  1
  O  O114  1  0.33221472  0.14731804  0.42476967  1
  O  O115  1  0.82346648  0.12863876  0.41685290  1
  O  O116  1  0.23914354  0.36064463  0.42641411  1
  O  O117  1  0.73029561  0.32603174  0.41534688  1
  O  O118  1  0.43315953  0.53661736  0.41367239  1
  O  O119  1  0.92745663  0.50240757  0.42506013  1
  O  O120  1  0.16319829  0.45748917  0.07912933  1
  O  O121  1  0.67718367  0.49921835  0.06696695  1
  O  O122  1  0.06579419  0.67339236  0.08006572  1
  O  O123  1  0.57376782  0.65145839  0.06802323  1
  O  O124  1  0.25738350  0.86682031  0.07628004  1
  O  O125  1  0.75171240  0.84001752  0.06421326  1
  O  O126  1  0.17673024  0.85465380  0.56724601  1
  O  O127  1  0.66405224  0.85391991  0.57741087  1
  O  O128  1  0.25128058  0.66280169  0.56373119  1
  O  O129  1  0.75907997  0.64776270  0.57668155  1
  O  O130  1  0.07700837  0.49863303  0.56686209  1
  O  O131  1  0.56429203  0.45565261  0.58081687  1
  O  O132  1  0.14555942  0.85384558  0.24384530  1
  O  O133  1  0.65509770  0.86633328  0.26188155  1
  O  O134  1  0.27826702  0.69543984  0.26206608  1
  O  O135  1  0.78273230  0.71297833  0.24478070  1
  O  O136  1  0.07568232  0.43455443  0.24434612  1
  O  O137  1  0.57573709  0.45687137  0.26321329  1
  O  O138  1  0.15472019  0.44234248  0.76282391  1
  O  O139  1  0.64546317  0.43865146  0.74472781  1
  O  O140  1  0.07542557  0.69607457  0.76357787  1
  O  O141  1  0.57434481  0.71444428  0.74627071  1
  O  O142  1  0.28063333  0.85515181  0.74732414  1
  O  O143  1  0.77941724  0.86036404  0.76308745  1
loop_
_geom_bond_atom_site_label_1
_geom_bond_atom_site_label_2
_geom_bond_distance
_geom_bond_site_symmetry_2
Na0 O72 2.475357 1_655
Na0 O89 2.691362 1_555
Na0 O86 2.730383 1_655
Na0 O76 2.747021 1_665
Na0 O75 2.800721 1_555
Na0 O85 2.863836 1_665
Na1 O79 2.401756 1_555
Na1 O81 2.676189 1_545
Na1 O82 2.743267 1_545
Na1 O95 2.750064 1_556
Na1 O92 2.813806 1_556
Na1 O90 2.906432 1_546
Na2 O98 2.725488 1_555
Na2 O110 2.771069 1_555
Na2 O108 2.835811 1_555
Na2 O112 2.871993 1_555
Na2 O96 2.929347 1_555
Na2 O100 2.953616 1_555
Na3 O101 2.313920 1_555
Na3 O97 2.707232 1_555
Na3 O109 2.839056 1_555
Na3 O111 2.852830 1_555
Na3 O99 2.936682 1_555
Na4 O104 2.477377 1_555
Na4 O118 2.671640 1_555
Na4 O114 2.679494 1_555
Na4 O102 2.827701 1_555
Na5 O119 2.544098 1_555
Na5 O115 2.604388 1_555
Na5 O117 2.674841 1_555
Na5 O107 2.891080 1_555
La0 O72 2.204170 1_555
La0 O0 2.357668 1_565
La0 O75 2.377479 1_455
La0 O3 2.426834 1_455
La0 O76 2.461988 1_565
La0 O5 2.565470 1_465
La1 O79 2.260917 1_555
La1 O7 2.298186 1_555
La1 O10 2.368353 1_555
La1 O82 2.443888 1_545
La1 O8 2.486781 1_545
La1 O81 2.523948 1_545
La2 O16 2.143365 1_555
La2 O89 2.368646 1_455
La2 O14 2.373078 1_565
La2 O13 2.391558 1_455
La2 O86 2.458106 1_555
La2 O85 2.497311 1_565
La3 O21 2.141046 1_555
La3 O23 2.346135 1_545
La3 O18 2.377956 1_545
La3 O92 2.413625 1_555
La3 O95 2.459298 1_555
La3 O90 2.506103 1_545
La4 O28 2.151948 1_555
La4 O24 2.417631 1_555
La4 O100 2.443137 1_555
La4 O26 2.470932 1_555
La4 O98 2.526187 1_555
La4 O96 2.526628 1_555
La5 O27 2.193373 1_555
La5 O101 2.383728 1_555
La5 O29 2.425265 1_555
La5 O99 2.459931 1_555
La5 O25 2.472765 1_555
La5 O97 2.584652 1_555
La6 O104 2.215446 1_555
La6 O106 2.411294 1_555
La6 O30 2.428875 1_555
La6 O32 2.433782 1_555
La6 O102 2.499492 1_555
La6 O34 2.558680 1_555
La7 O33 2.156462 1_555
La7 O105 2.437073 1_555
La7 O107 2.463645 1_555
La7 O35 2.470449 1_555
La7 O31 2.471450 1_555
La7 O103 2.524029 1_555
La8 O110 2.173712 1_555
La8 O40 2.341141 1_556
La8 O38 2.341916 1_556
La8 O108 2.398756 1_555
La8 O112 2.447344 1_555
La8 O36 2.598833 1_556
La9 O41 2.269432 1_556
La9 O109 2.305627 1_555
La9 O37 2.412985 1_556
La9 O113 2.428450 1_555
La9 O111 2.435242 1_555
La9 O39 2.521506 1_556
La10 O44 2.236927 1_555
La10 O114 2.336208 1_555
La10 O42 2.410665 1_555
La10 O116 2.453594 1_555
La10 O118 2.466699 1_555
La10 O46 2.472734 1_555
La11 O43 2.232127 1_555
La11 O119 2.322810 1_555
La11 O45 2.356701 1_555
La11 O47 2.387028 1_555
La11 O115 2.465696 1_555
La11 O117 2.507118 1_555
La12 O124 2.360454 1_555
La12 O48 2.372626 1_554
La12 O122 2.387131 1_555
La12 O50 2.416513 1_554
La12 O120 2.428401 1_555
La12 O52 2.517594 1_554
La13 O127 2.116741 1_555
La13 O129 2.366760 1_555
La13 O131 2.413990 1_555
La13 O55 2.436549 1_555
La13 O59 2.516111 1_555
La13 O57 2.739570 1_555
La14 O60 2.172033 1_555
La14 O62 2.206327 1_555
La14 O134 2.461679 1_555
La14 O64 2.476183 1_555
La14 O132 2.510581 1_555
La14 O136 2.615027 1_555
La15 O137 2.131575 1_555
La15 O133 2.339627 1_555
La15 O65 2.388528 1_555
La15 O63 2.419762 1_555
La15 O61 2.431609 1_555
La15 O135 2.489581 1_555
La16 O140 2.104615 1_555
La16 O138 2.327015 1_555
La16 O142 2.401145 1_555
La16 O68 2.431705 1_555
La16 O66 2.457850 1_555
La16 O70 2.479372 1_555
La17 O67 2.199302 1_555
La17 O71 2.228649 1_555
La17 O143 2.437415 1_555
La17 O139 2.443388 1_555
La17 O69 2.510998 1_555
La17 O141 2.552406 1_555
O0 S0 1.480424 1_555
O1 S1 1.479934 1_555
O1 Ta0 2.286179 1_555
O2 S2 1.519346 1_555
O2 Ta0 2.084268 1_565
O3 S3 1.471429 1_555
O4 Si0 1.704110 1_555
O4 Ta0 1.865166 1_555
O5 S4 1.462771 1_555
O6 S5 1.495330 1_555
O6 Ta1 2.222177 1_445
O7 S6 1.496690 1_555
O8 S7 1.480832 1_555
O9 Si1 1.742255 1_555
O9 Ta1 1.839207 1_555
O10 S8 1.491936 1_555
O11 S9 1.544223 1_555
O11 Ta1 2.008944 1_545
O12 S8 1.488270 1_565
O12 Ta2 2.184618 1_555
O13 S9 1.469316 1_565
O14 S5 1.474686 1_555
O15 S6 1.493905 1_555
O15 Ta2 2.169132 1_545
O16 Si1 1.612691 1_455
O17 S7 1.521080 1_555
O17 Ta2 2.057019 1_555
O18 S2 1.480762 1_555
O19 S3 1.535578 1_555
O19 Ta3 2.015907 1_565
O20 S4 1.557293 1_455
O20 Ta3 1.995065 1_455
O21 Si0 1.616217 1_555
O22 S0 1.511730 1_565
O22 Ta3 2.128201 1_465
O23 S1 1.485872 1_565
O24 S10 1.478555 1_555
O25 S11 1.483624 1_555
O26 S12 1.481651 1_555
O27 Si2 1.620269 1_555
O28 Si3 1.631503 1_555
O29 S13 1.474615 1_555
O30 S14 1.493521 1_555
O31 S15 1.469674 1_555
O32 S16 1.476987 1_555
O33 Si4 1.626869 1_555
O34 S17 1.467228 1_555
O35 S18 1.481119 1_555
O36 S17 1.469826 1_555
O37 S18 1.467456 1_555
O38 S14 1.489696 1_555
O39 S15 1.465199 1_555
O40 S16 1.480783 1_555
O41 Si4 1.606530 1_555
O42 S12 1.468827 1_555
O43 Si2 1.613844 1_555
O44 Si3 1.612290 1_555
O45 S13 1.477430 1_555
O46 S10 1.473521 1_555
O47 S11 1.479538 1_555
O48 S19 1.499121 1_555
O49 Si5 1.721339 1_555
O49 Ta4 1.879621 1_556
O50 S20 1.498938 1_555
O51 Si6 1.698574 1_555
O51 Ta4 1.924873 1_556
O52 S21 1.484856 1_555
O53 S22 1.520255 1_555
O53 Ta4 2.079204 1_556
O54 Si7 1.700848 1_555
O54 Ta5 1.906191 1_555
O55 S23 1.479800 1_555
O56 S24 1.505796 1_555
O56 Ta5 2.113220 1_555
O57 S25 1.461769 1_555
O58 Si8 1.701569 1_555
O58 Ta5 1.926412 1_555
O59 S26 1.472726 1_555
O60 Si8 1.629521 1_555
O61 S26 1.470498 1_555
O62 Si7 1.599130 1_555
O63 S23 1.476089 1_555
O64 S24 1.468745 1_555
O65 S25 1.473279 1_555
O66 S20 1.465601 1_555
O67 Si6 1.613676 1_555
O68 S21 1.463414 1_555
O69 S22 1.459633 1_555
O70 S19 1.461694 1_555
O71 Si5 1.591784 1_555
O72 Si8 1.662625 1_555
O73 S26 1.512327 1_555
O73 Ta0 2.086994 1_565
O74 Si7 1.734107 1_555
O74 Ta0 1.860730 1_565
O75 S23 1.493286 1_555
O76 S24 1.490702 1_555
O77 S25 1.542107 1_555
O77 Ta0 2.003823 1_555
O78 S20 1.496576 1_555
O78 Ta1 2.170370 1_445
O79 Si6 1.648256 1_555
O80 S21 1.512429 1_555
O80 Ta1 2.081625 1_455
O81 S22 1.490384 1_555
O82 S19 1.486019 1_555
O83 Si5 1.719057 1_555
O83 Ta1 1.874928 1_555
O84 S10 1.515493 1_555
O84 Ta2 2.013489 1_545
O85 S11 1.489867 1_455
O86 S12 1.477695 1_565
O87 Si2 1.728511 1_555
O87 Ta2 1.834841 1_545
O88 Si3 1.702382 1_555
O88 Ta2 1.870676 1_555
O89 S13 1.497028 1_555
O90 S14 1.487961 1_555
O91 S15 1.527967 1_555
O91 Ta3 2.019610 1_565
O92 S16 1.484409 1_555
O93 Si4 1.734446 1_565
O93 Ta3 1.857146 1_565
O94 S17 1.547517 1_555
O94 Ta3 2.012898 1_455
O95 S18 1.482791 1_555
O96 S8 1.486571 1_555
O97 S9 1.477607 1_555
O98 S5 1.497031 1_555
O99 S6 1.473280 1_555
O100 S7 1.493682 1_555
O101 Si1 1.613967 1_555
O102 S2 1.489223 1_555
O103 S3 1.473788 1_555
O104 Si0 1.642015 1_555
O105 S4 1.484413 1_555
O106 S0 1.482047 1_555
O107 S1 1.499746 1_555
O108 S19 1.485946 1_555
O109 Si5 1.610011 1_555
O110 Si6 1.648298 1_555
O111 S20 1.483133 1_655
O112 S21 1.483160 1_545
O113 S22 1.478492 1_545
O114 Si7 1.609548 1_545
O115 S23 1.480258 1_545
O116 S24 1.479957 1_555
O117 S25 1.474007 1_555
O118 S26 1.484929 1_555
O119 Si8 1.625177 1_655
O120 S17 1.478816 1_555
O121 S18 1.506083 1_555
O121 Ta4 2.077970 1_555
O122 S15 1.476824 1_455
O123 S14 1.478036 1_555
O123 Ta4 2.303871 1_555
O124 S16 1.483140 1_565
O125 Si4 1.653455 1_565
O125 Ta4 1.954436 1_555
O126 S12 1.507908 1_565
O126 Ta5 2.064087 1_555
O127 Si2 1.626595 1_565
O128 Si3 1.657545 1_555
O128 Ta5 1.945068 1_555
O129 S13 1.471799 1_555
O130 S11 1.495161 1_455
O130 Ta5 2.209072 1_555
O131 S10 1.459404 1_555
O132 S0 1.460175 1_565
O133 S1 1.468080 1_565
O134 S2 1.449964 1_555
O135 S3 1.459564 1_555
O136 S4 1.455987 1_455
O137 Si0 1.600641 1_555
O138 S5 1.466538 1_555
O139 S6 1.467322 1_555
O140 Si1 1.608669 1_455
O141 S7 1.454886 1_555
O142 S8 1.470713 1_565
O143 S9 1.447476 1_565
