# generated using pymatgen
data_Na2Mg4Zr4SiS11O48
_symmetry_space_group_name_H-M   'P 1'
_cell_length_a   17.69437693
_cell_length_b   8.85536640
_cell_length_c   23.02300427
_cell_angle_alpha   89.92490980
_cell_angle_beta   90.00408159
_cell_angle_gamma   119.98129176
_symmetry_Int_Tables_number   1
_chemical_formula_structural   Na2Mg4Zr4SiS11O48
_chemical_formula_sum   'Na6 Mg12 Zr12 Si3 S33 O144'
_cell_volume   3124.75380050
_cell_formula_units_Z   3
loop_
 _symmetry_equiv_pos_site_id
 _symmetry_equiv_pos_as_xyz
  1  'x, y, z'
loop_
 _atom_site_type_symbol
 _atom_site_label
 _atom_site_symmetry_multiplicity
 _atom_site_fract_x
 _atom_site_fract_y
 _atom_site_fract_z
 _atom_site_occupancy
  Na  Na0  1  0.99638082  0.98587639  0.49135533  1
  Na  Na1  1  0.49856617  0.00233512  0.99983678  1
  Na  Na2  1  0.33210280  0.32686069  0.83686756  1
  Na  Na3  1  0.84075066  0.34192154  0.83206784  1
  Na  Na4  1  0.33716641  0.33275569  0.33011492  1
  Na  Na5  1  0.84008225  0.34155958  0.34079097  1
  Mg  Mg0  1  0.99788014  0.99217414  0.35555053  1
  Mg  Mg1  1  0.00400075  0.00320853  0.85416918  1
  Mg  Mg2  1  0.33152880  0.33187809  0.68387705  1
  Mg  Mg3  1  0.83548370  0.33757755  0.68143274  1
  Mg  Mg4  1  0.33514165  0.33112709  0.18623071  1
  Mg  Mg5  1  0.83483335  0.33481701  0.18516272  1
  Mg  Mg6  1  0.33321300  0.32849182  0.97929068  1
  Mg  Mg7  1  0.83805291  0.33767026  0.98166263  1
  Mg  Mg8  1  0.33593402  0.33767793  0.48297406  1
  Mg  Mg9  1  0.83583382  0.33714545  0.47997501  1
  Mg  Mg10  1  0.66917731  0.67176975  0.52248630  1
  Mg  Mg11  1  0.16193417  0.66272446  0.81101883  1
  Zr  Zr0  1  0.49997595  0.00867478  0.35600462  1
  Zr  Zr1  1  0.49670160  0.00609927  0.85428133  1
  Zr  Zr2  1  -0.00007208  0.99581213  0.64891060  1
  Zr  Zr3  1  0.50042884  0.00194197  0.63905324  1
  Zr  Zr4  1  0.00046460  0.00125024  0.14449777  1
  Zr  Zr5  1  0.50021691  0.00896738  0.14929275  1
  Zr  Zr6  1  0.16295569  0.66447818  0.01914260  1
  Zr  Zr7  1  0.66453594  0.65565422  0.02206606  1
  Zr  Zr8  1  0.16010372  0.66585660  0.52081906  1
  Zr  Zr9  1  0.15816357  0.66128010  0.31335894  1
  Zr  Zr10  1  0.66631396  0.66266780  0.31185104  1
  Zr  Zr11  1  0.66432272  0.65964883  0.81197782  1
  Si  Si0  1  0.49428392  0.29538749  0.25075032  1
  Si  Si1  1  0.51495735  0.37536513  0.91731261  1
  Si  Si2  1  0.01140432  0.66612749  0.41731257  1
  S  S0  1  0.14562991  0.00760818  0.25105874  1
  S  S1  1  0.64913552  0.00746236  0.24998840  1
  S  S2  1  0.35380440  0.70412894  0.25061941  1
  S  S3  1  0.85772925  0.70713804  0.25075616  1
  S  S4  1  0.99592495  0.28333091  0.25112908  1
  S  S5  1  0.14768020  0.29292726  0.75255041  1
  S  S6  1  0.64825908  0.28767780  0.74862603  1
  S  S7  1  0.99811242  0.70400779  0.75323075  1
  S  S8  1  0.49716589  0.70596431  0.74902064  1
  S  S9  1  0.35144242  -0.00021678  0.74843232  1
  S  S10  1  0.85668422  0.00856633  0.75231039  1
  S  S11  1  0.47778152  0.34332840  0.58278962  1
  S  S12  1  0.97488979  0.32854751  0.58384422  1
  S  S13  1  0.19173117  0.05107714  0.58329567  1
  S  S14  1  0.69403085  0.04607053  0.58272494  1
  S  S15  1  0.33158524  0.61399283  0.58320919  1
  S  S16  1  0.83072497  0.61832805  0.58298462  1
  S  S17  1  0.47486378  0.61999508  0.08246043  1
  S  S18  1  0.97450492  0.61657311  0.08371867  1
  S  S19  1  0.33248839  0.04651330  0.08220296  1
  S  S20  1  0.83281214  0.05063108  0.08354623  1
  S  S21  1  0.19319646  0.33557776  0.08318729  1
  S  S22  1  0.69244014  0.32988219  0.08291743  1
  S  S23  1  0.30839880  0.65887550  0.91527986  1
  S  S24  1  0.81524272  0.66740838  0.91651237  1
  S  S25  1  0.01920228  0.37305242  0.91390811  1
  S  S26  1  0.16642160  0.95827898  0.91371543  1
  S  S27  1  0.66993158  0.96288294  0.91701413  1
  S  S28  1  0.31063587  0.96121154  0.41747949  1
  S  S29  1  0.81188925  0.95871194  0.41858384  1
  S  S30  1  0.16859996  0.37356480  0.41670107  1
  S  S31  1  0.66938637  0.38038498  0.41967816  1
  S  S32  1  0.52036842  0.66097485  0.41864347  1
  O  O0  1  0.10327696  0.02968100  0.30181052  1
  O  O1  1  0.60566255  0.02968305  0.30178256  1
  O  O2  1  0.41040471  0.78811815  0.30220216  1
  O  O3  1  0.91159992  0.79043669  0.30144586  1
  O  O4  1  0.48577402  0.16733464  0.30575132  1
  O  O5  1  0.98523001  0.17799627  0.30224160  1
  O  O6  1  0.10524457  0.17882990  0.80266852  1
  O  O7  1  0.60509799  0.17924797  0.80164699  1
  O  O8  1  0.48606641  0.79042826  0.80206707  1
  O  O9  1  0.98353815  0.78961765  0.80298030  1
  O  O10  1  0.41042539  0.02913570  0.80145048  1
  O  O11  1  0.91079902  0.03131708  0.80300027  1
  O  O12  1  0.39705459  0.97583941  0.69788028  1
  O  O13  1  0.89605803  0.97797095  0.69874401  1
  O  O14  1  0.09148365  0.20507991  0.69866563  1
  O  O15  1  0.59175689  0.20516785  0.69795044  1
  O  O16  1  0.01067849  0.81534026  0.69900543  1
  O  O17  1  0.51053311  0.81760261  0.69788274  1
  O  O18  1  0.39709652  0.81539654  0.19815262  1
  O  O19  1  0.89790506  0.81695791  0.19698558  1
  O  O20  1  0.00944713  0.20144160  0.19754539  1
  O  O21  1  0.51305934  0.20122386  0.19436101  1
  O  O22  1  0.08977892  0.97499291  0.19748655  1
  O  O23  1  0.59320471  0.97495946  0.19746151  1
  O  O24  1  0.43724264  0.36392983  0.63560721  1
  O  O25  1  0.93821142  0.35650657  0.63647296  1
  O  O26  1  0.24167520  0.12810602  0.63593515  1
  O  O27  1  0.74436663  0.12535092  0.63586534  1
  O  O28  1  0.31938561  0.51236016  0.63569945  1
  O  O29  1  0.82031839  0.51824221  0.63639200  1
  O  O30  1  0.43797455  0.51881611  0.13518924  1
  O  O31  1  0.93708532  0.51262277  0.13585632  1
  O  O32  1  0.31961482  0.11995565  0.13505474  1
  O  O33  1  0.81917601  0.12681757  0.13582116  1
  O  O34  1  0.24452133  0.36378219  0.13563919  1
  O  O35  1  0.74155885  0.35108499  0.13580439  1
  O  O36  1  0.22963303  0.30382620  0.03108736  1
  O  O37  1  0.73104251  0.30656177  0.03015477  1
  O  O38  1  0.42304391  0.54312758  0.03031738  1
  O  O39  1  0.92277820  0.54385714  0.03141012  1
  O  O40  1  0.34823605  0.15199566  0.03029553  1
  O  O41  1  0.84869957  0.15617871  0.03140934  1
  O  O42  1  0.22909376  0.15426922  0.53075224  1
  O  O43  1  0.72959518  0.15681712  0.53147150  1
  O  O44  1  0.34827225  0.54120910  0.53132236  1
  O  O45  1  0.84991933  0.54535980  0.53180575  1
  O  O46  1  0.42186226  0.30227347  0.53143922  1
  O  O47  1  0.92337133  0.29994178  0.53171349  1
  O  O48  1  0.27101462  0.69363778  0.96884161  1
  O  O49  1  0.77206473  0.69378497  0.96880048  1
  O  O50  1  0.07470869  0.46034627  0.96836671  1
  O  O51  1  0.58077715  0.46788949  0.97300840  1
  O  O52  1  0.15489529  0.84609659  0.96822895  1
  O  O53  1  0.65568846  0.85334107  0.96895069  1
  O  O54  1  0.27103564  0.85172205  0.46945766  1
  O  O55  1  0.77040670  0.84659419  0.46917656  1
  O  O56  1  0.15771408  0.46163547  0.46897152  1
  O  O57  1  0.65308269  0.45911299  0.46959344  1
  O  O58  1  0.07932985  0.68909090  0.47238271  1
  O  O59  1  0.57450601  0.68945646  0.46942999  1
  O  O60  1  0.06684284  0.64185036  0.36106123  1
  O  O61  1  0.56217153  0.63674481  0.36480186  1
  O  O62  1  0.25813889  0.87693153  0.36453141  1
  O  O63  1  0.75771221  0.87231365  0.36446999  1
  O  O64  1  0.18336726  0.48748904  0.36410236  1
  O  O65  1  0.68093313  0.48536458  0.36523887  1
  O  O66  1  0.06168480  0.48800545  0.86427782  1
  O  O67  1  0.56871283  0.49479197  0.86035220  1
  O  O68  1  0.18191903  0.87368355  0.86408941  1
  O  O69  1  0.68185279  0.88058531  0.86414261  1
  O  O70  1  0.25792659  0.64360817  0.86375179  1
  O  O71  1  0.75683023  0.63960222  0.86469561  1
  O  O72  1  0.01290452  0.84718620  0.41293176  1
  O  O73  1  0.51161313  0.81820235  0.40740842  1
  O  O74  1  0.39742839  0.97329833  0.41061152  1
  O  O75  1  0.89950254  0.98053395  0.40980495  1
  O  O76  1  0.08880953  0.20622078  0.40942036  1
  O  O77  1  0.58958489  0.20297324  0.40949458  1
  O  O78  1  0.01224338  0.20274261  0.90855885  1
  O  O79  1  0.51220542  0.18511944  0.91040538  1
  O  O80  1  0.08692986  0.96829178  0.90868046  1
  O  O81  1  0.58865196  0.97416102  0.90980802  1
  O  O82  1  0.39921316  0.82049985  0.91063774  1
  O  O83  1  0.89956944  0.82229463  0.90757632  1
  O  O84  1  0.48706244  0.17995631  0.59266594  1
  O  O85  1  0.98786456  0.17269726  0.59137468  1
  O  O86  1  0.10046238  0.02445004  0.58994387  1
  O  O87  1  0.60239000  0.02613351  0.59327682  1
  O  O88  1  0.41076831  0.79447384  0.59184304  1
  O  O89  1  0.91253371  0.80213828  0.59199620  1
  O  O90  1  0.48849819  0.80207245  0.08878348  1
  O  O91  1  0.98734278  0.79623254  0.09230008  1
  O  O92  1  0.41088041  0.01911953  0.08855252  1
  O  O93  1  0.91086877  0.02703309  0.09265159  1
  O  O94  1  0.10259584  0.18090272  0.09265387  1
  O  O95  1  0.60125835  0.17268736  0.08753194  1
  O  O96  1  0.34623365  0.15903355  0.74252943  1
  O  O97  1  0.84534699  0.16019923  0.74330240  1
  O  O98  1  0.23439449  0.30946936  0.74273323  1
  O  O99  1  0.73448910  0.30630592  0.74296440  1
  O  O100  1  0.42127963  0.53194461  0.74264348  1
  O  O101  1  0.91985283  0.53078137  0.74335085  1
  O  O102  1  0.34384151  0.53190904  0.24267951  1
  O  O103  1  0.84584730  0.53238924  0.24154016  1
  O  O104  1  0.40958840  0.31137192  0.24558408  1
  O  O105  1  0.92057370  0.30780558  0.24231688  1
  O  O106  1  0.23148870  0.16049255  0.24144077  1
  O  O107  1  0.73474009  0.16229945  0.24231621  1
  O  O108  1  0.31874511  0.50742317  0.92411719  1
  O  O109  1  0.82001420  0.50719204  0.92353225  1
  O  O110  1  0.42124007  0.35457187  0.92103417  1
  O  O111  1  0.93257255  0.35763519  0.92380714  1
  O  O112  1  0.24326520  0.13105828  0.92413986  1
  O  O113  1  0.74581273  0.13722600  0.92369161  1
  O  O114  1  0.32137432  0.13511502  0.42375507  1
  O  O115  1  0.81659272  0.12890023  0.42335257  1
  O  O116  1  0.24675200  0.35672937  0.42348930  1
  O  O117  1  0.74462036  0.35608203  0.42400369  1
  O  O118  1  0.43263571  0.50638562  0.42326124  1
  O  O119  1  0.92152614  0.48716510  0.42098970  1
  O  O120  1  0.17929910  0.48835487  0.07373257  1
  O  O121  1  0.68116287  0.48670275  0.07733876  1
  O  O122  1  0.06438949  0.64180503  0.07531474  1
  O  O123  1  0.56552863  0.64583831  0.07463649  1
  O  O124  1  0.25561199  0.86695481  0.07362034  1
  O  O125  1  0.75673818  0.87193685  0.07470797  1
  O  O126  1  0.18135277  0.87338174  0.57670177  1
  O  O127  1  0.67858827  0.86984705  0.57474420  1
  O  O128  1  0.25622011  0.64110307  0.57482193  1
  O  O129  1  0.75643339  0.64467072  0.57490883  1
  O  O130  1  0.06529051  0.48234621  0.57654454  1
  O  O131  1  0.56528504  0.48958626  0.57421862  1
  O  O132  1  0.15495149  0.84872213  0.25658575  1
  O  O133  1  0.65684807  0.85049468  0.25777898  1
  O  O134  1  0.26924757  0.69519801  0.25819409  1
  O  O135  1  0.77067647  0.69404213  0.25670472  1
  O  O136  1  0.07763761  0.45788458  0.25526030  1
  O  O137  1  0.58463386  0.47904108  0.26075934  1
  O  O138  1  0.15452593  0.46347578  0.75850353  1
  O  O139  1  0.65581947  0.46155459  0.75646262  1
  O  O140  1  0.07708745  0.69207205  0.75829017  1
  O  O141  1  0.57829993  0.69575504  0.75650634  1
  O  O142  1  0.26819854  0.84430849  0.75850927  1
  O  O143  1  0.76881127  0.84763673  0.75897496  1
loop_
_geom_bond_atom_site_label_1
_geom_bond_atom_site_label_2
_geom_bond_distance
_geom_bond_site_symmetry_2
Na0 O72 2.284427 1_655
Na0 O75 2.526773 1_555
Na0 O76 2.615711 1_665
Na0 O89 2.791997 1_555
Na0 O86 2.834274 1_665
Na0 O85 2.884695 1_565
Na1 O79 2.553135 1_555
Na1 O92 2.613987 1_556
Na1 O95 2.630914 1_556
Na1 O90 2.654249 1_546
Na1 O82 2.660777 1_545
Na1 O81 2.701599 1_545
Na2 O110 2.432448 1_555
Na2 O112 2.604195 1_555
Na2 O108 2.652124 1_555
Na2 O96 2.714498 1_555
Na2 O98 2.728369 1_555
Na2 O100 2.760457 1_555
Na3 O101 2.565139 1_555
Na3 O111 2.625732 1_555
Na3 O97 2.629094 1_555
Na3 O99 2.692876 1_555
Na3 O109 2.693653 1_555
Na3 O113 2.739462 1_555
Na4 O104 2.389427 1_555
Na4 O102 2.637986 1_555
Na4 O106 2.673618 1_555
Na4 O118 2.688657 1_555
Na4 O114 2.700081 1_555
Na4 O116 2.750838 1_555
Na5 O119 2.301590 1_555
Na5 O115 2.557473 1_555
Na5 O117 2.599664 1_555
Na5 O105 2.772289 1_555
Na5 O103 2.811609 1_555
Na5 O107 2.861118 1_555
Mg0 O72 1.949626 1_655
Mg0 O3 2.086524 1_555
Mg0 O75 2.102774 1_555
Mg0 O0 2.121150 1_665
Mg0 O5 2.151041 1_565
Mg0 O76 2.162773 1_665
Mg1 O6 2.060288 1_555
Mg1 O80 2.067860 1_545
Mg1 O9 2.102103 1_445
Mg1 O78 2.111783 1_555
Mg1 O83 2.128263 1_445
Mg1 O11 2.139786 1_455
Mg2 O26 2.034669 1_555
Mg2 O28 2.041902 1_555
Mg2 O24 2.069628 1_555
Mg2 O98 2.118566 1_555
Mg2 O96 2.150920 1_555
Mg2 O100 2.164572 1_555
Mg3 O25 2.024571 1_555
Mg3 O29 2.032614 1_555
Mg3 O27 2.051481 1_555
Mg3 O101 2.154381 1_555
Mg3 O99 2.186734 1_555
Mg3 O97 2.189699 1_555
Mg4 O104 1.965347 1_555
Mg4 O30 2.104007 1_555
Mg4 O32 2.110179 1_555
Mg4 O34 2.115111 1_555
Mg4 O106 2.118553 1_555
Mg4 O102 2.146268 1_555
Mg5 O31 2.046887 1_555
Mg5 O33 2.062838 1_555
Mg5 O35 2.067116 1_555
Mg5 O103 2.109237 1_555
Mg5 O105 2.109962 1_555
Mg5 O107 2.119665 1_555
Mg6 O110 1.979469 1_555
Mg6 O40 2.074309 1_556
Mg6 O112 2.103933 1_555
Mg6 O36 2.104383 1_556
Mg6 O38 2.122589 1_556
Mg6 O108 2.142388 1_555
Mg7 O39 2.040238 1_556
Mg7 O41 2.056209 1_556
Mg7 O111 2.075289 1_555
Mg7 O37 2.094223 1_556
Mg7 O109 2.149444 1_555
Mg7 O113 2.169409 1_555
Mg8 O46 2.032327 1_555
Mg8 O44 2.036445 1_555
Mg8 O42 2.085350 1_555
Mg8 O118 2.118918 1_555
Mg8 O116 2.158553 1_555
Mg8 O114 2.165026 1_555
Mg9 O119 1.972441 1_555
Mg9 O45 2.105273 1_555
Mg9 O47 2.106018 1_555
Mg9 O43 2.117691 1_555
Mg9 O117 2.136164 1_555
Mg9 O115 2.143537 1_555
Mg10 O127 2.065314 1_555
Mg10 O129 2.065739 1_555
Mg10 O55 2.082155 1_555
Mg10 O131 2.105205 1_555
Mg10 O57 2.140155 1_555
Mg10 O59 2.141070 1_555
Mg11 O140 2.045497 1_555
Mg11 O66 2.072748 1_555
Mg11 O138 2.089641 1_555
Mg11 O68 2.110335 1_555
Mg11 O142 2.134494 1_555
Mg11 O70 2.161978 1_555
O0 S0 1.453354 1_555
O1 S1 1.484724 1_555
O1 Zr0 2.177646 1_555
O2 S2 1.491392 1_555
O2 Zr0 2.184776 1_565
O3 S3 1.453976 1_555
O4 Si0 1.654577 1_555
O4 Zr0 1.929850 1_555
O5 S4 1.453063 1_555
O6 S5 1.467963 1_555
O7 S6 1.503161 1_555
O7 Zr1 2.134118 1_555
O8 S8 1.496263 1_555
O8 Zr1 2.185138 1_565
O9 S7 1.466576 1_555
O10 S9 1.541520 1_555
O10 Zr1 2.040076 1_555
O11 S10 1.458448 1_555
O12 S9 1.490877 1_565
O12 Zr3 2.193284 1_565
O13 S10 1.506441 1_565
O13 Zr2 2.104479 1_655
O14 S5 1.536957 1_555
O14 Zr2 2.091810 1_545
O15 S6 1.471935 1_555
O15 Zr3 2.188235 1_555
O16 S7 1.535487 1_455
O16 Zr2 2.054118 1_555
O17 S8 1.477400 1_555
O17 Zr3 2.194770 1_565
O18 S2 1.503140 1_555
O18 Zr5 2.098173 1_565
O19 S3 1.513169 1_555
O19 Zr4 2.110001 1_665
O20 S4 1.510236 1_455
O20 Zr4 2.093710 1_555
O21 Si0 1.664603 1_555
O21 Zr5 1.909114 1_555
O22 S0 1.515521 1_565
O22 Zr4 2.099083 1_565
O23 S1 1.496929 1_565
O23 Zr5 2.126465 1_565
O24 S11 1.469018 1_555
O25 S12 1.453321 1_555
O26 S13 1.454152 1_555
O27 S14 1.469745 1_555
O28 S15 1.456035 1_555
O29 S16 1.471533 1_555
O30 S17 1.454418 1_555
O31 S18 1.454201 1_555
O32 S19 1.451085 1_555
O33 S20 1.458327 1_555
O34 S21 1.455808 1_555
O35 S22 1.452783 1_555
O36 S21 1.454540 1_555
O37 S22 1.458279 1_555
O38 S17 1.457209 1_555
O39 S18 1.454491 1_555
O40 S19 1.454417 1_555
O41 S20 1.458754 1_555
O42 S13 1.459085 1_555
O43 S14 1.459615 1_555
O44 S15 1.456678 1_555
O45 S16 1.463772 1_555
O46 S11 1.466400 1_555
O47 S12 1.451037 1_555
O48 S23 1.502537 1_555
O48 Zr6 2.137707 1_556
O49 S24 1.505553 1_555
O49 Zr7 2.143633 1_556
O50 S25 1.542001 1_555
O50 Zr6 2.063177 1_556
O51 Si1 1.649485 1_555
O51 Zr7 1.943873 1_556
O52 S26 1.548527 1_555
O52 Zr6 2.050675 1_556
O53 S27 1.478829 1_555
O53 Zr7 2.202898 1_556
O54 S28 1.476891 1_555
O54 Zr8 2.174055 1_555
O55 S29 1.466289 1_555
O56 S30 1.498733 1_555
O56 Zr8 2.150908 1_555
O57 S31 1.446747 1_555
O58 Si2 1.688083 1_555
O58 Zr8 1.903076 1_555
O59 S32 1.451742 1_555
O60 Si2 1.702169 1_555
O60 Zr9 1.889091 1_555
O61 S32 1.513014 1_555
O61 Zr10 2.123995 1_555
O62 S28 1.488366 1_555
O62 Zr9 2.189414 1_555
O63 S29 1.525062 1_555
O63 Zr10 2.129446 1_555
O64 S30 1.511917 1_555
O64 Zr9 2.147872 1_555
O65 S31 1.511296 1_555
O65 Zr10 2.108008 1_555
O66 S25 1.462605 1_555
O67 Si1 1.653520 1_555
O67 Zr11 1.939407 1_555
O68 S26 1.466074 1_555
O69 S27 1.487728 1_555
O69 Zr11 2.183109 1_555
O70 S23 1.450116 1_555
O71 S24 1.516027 1_555
O71 Zr11 2.115069 1_555
O72 Si2 1.593305 1_555
O73 S32 1.498015 1_555
O73 Zr0 2.151701 1_565
O74 S28 1.493540 1_555
O74 Zr0 2.098183 1_565
O75 S29 1.477174 1_555
O76 S30 1.458425 1_555
O77 S31 1.516840 1_555
O77 Zr0 2.066338 1_555
O78 S25 1.455936 1_555
O79 Si1 1.668704 1_555
O79 Zr1 1.956708 1_555
O80 S26 1.457496 1_555
O81 S27 1.499791 1_555
O81 Zr1 2.195466 1_565
O82 S23 1.530710 1_555
O82 Zr1 2.126400 1_565
O83 S24 1.450467 1_555
O84 S11 1.551853 1_555
O84 Zr3 2.012377 1_555
O85 S12 1.517731 1_555
O85 Zr2 2.140677 1_645
O86 S13 1.518695 1_555
O86 Zr2 2.149512 1_545
O87 S14 1.559925 1_555
O87 Zr3 2.006226 1_555
O88 S15 1.523056 1_555
O88 Zr3 2.040980 1_565
O89 S16 1.560087 1_555
O89 Zr2 2.098732 1_655
O90 S17 1.513588 1_555
O90 Zr5 2.228767 1_565
O91 S18 1.503789 1_555
O91 Zr4 2.092501 1_665
O92 S19 1.529846 1_555
O92 Zr5 2.145655 1_555
O93 S20 1.511134 1_555
O93 Zr4 2.085910 1_655
O94 S21 1.516014 1_555
O94 Zr4 2.084079 1_555
O95 S22 1.518912 1_555
O95 Zr5 2.173618 1_555
O96 S9 1.464610 1_555
O97 S10 1.467906 1_555
O98 S5 1.483953 1_555
O99 S6 1.456245 1_555
O100 S8 1.460068 1_555
O101 S7 1.483331 1_555
O102 S2 1.456832 1_555
O103 S3 1.469545 1_555
O104 Si0 1.578616 1_555
O105 S4 1.467807 1_555
O106 S0 1.460683 1_555
O107 S1 1.459207 1_555
O108 S23 1.455441 1_555
O109 S24 1.471490 1_555
O110 Si1 1.576678 1_555
O111 S25 1.486960 1_655
O112 S26 1.472779 1_545
O113 S27 1.462461 1_545
O114 S28 1.461728 1_545
O115 S29 1.471512 1_545
O116 S30 1.471354 1_555
O117 S31 1.454178 1_555
O118 S32 1.473401 1_555
O119 Si2 1.590165 1_655
O120 S21 1.506619 1_555
O120 Zr6 2.131029 1_555
O121 S22 1.503759 1_555
O121 Zr7 2.092652 1_555
O122 S18 1.503882 1_455
O122 Zr6 2.098630 1_555
O123 S17 1.513760 1_555
O123 Zr7 2.095076 1_555
O124 S19 1.502256 1_565
O124 Zr6 2.131566 1_555
O125 S20 1.493086 1_565
O125 Zr7 2.163717 1_555
O126 S13 1.498223 1_565
O126 Zr8 2.118825 1_555
O127 S14 1.455416 1_565
O128 S15 1.480896 1_555
O128 Zr8 2.204061 1_555
O129 S16 1.457167 1_555
O130 S12 1.504637 1_455
O130 Zr8 2.090800 1_555
O131 S11 1.452194 1_555
O132 S0 1.501498 1_565
O132 Zr9 2.134353 1_555
O133 S1 1.473717 1_565
O133 Zr10 2.148789 1_555
O134 S2 1.468660 1_555
O134 Zr9 2.230700 1_555
O135 S3 1.492087 1_555
O135 Zr10 2.141460 1_555
O136 S4 1.501853 1_455
O136 Zr9 2.122414 1_555
O137 Si0 1.629798 1_555
O137 Zr10 1.942312 1_555
O138 S5 1.460163 1_555
O139 S6 1.488662 1_555
O139 Zr11 2.115542 1_555
O140 S7 1.457761 1_455
O141 S8 1.492819 1_555
O141 Zr11 2.129592 1_555
O142 S9 1.446155 1_565
O143 S10 1.502301 1_565
O143 Zr11 2.144189 1_555
