# generated using pymatgen
data_K3NO4
_symmetry_space_group_name_H-M   'P 1'
_cell_length_a   5.67896763
_cell_length_b   7.92291416
_cell_length_c   10.87878269
_cell_angle_alpha   90.00000000
_cell_angle_beta   90.00000000
_cell_angle_gamma   90.00000000
_symmetry_Int_Tables_number   1
_chemical_formula_structural   K3NO4
_chemical_formula_sum   'K12 N4 O16'
_cell_volume   489.47965517
_cell_formula_units_Z   4
loop_
 _symmetry_equiv_pos_site_id
 _symmetry_equiv_pos_as_xyz
  1  'x, y, z'
loop_
 _atom_site_type_symbol
 _atom_site_label
 _atom_site_symmetry_multiplicity
 _atom_site_fract_x
 _atom_site_fract_y
 _atom_site_fract_z
 _atom_site_occupancy
  K  K0  1  0.67506971  0.49156389  0.35648122  1
  K  K1  1  0.17506971  0.50843611  0.14351878  1
  K  K2  1  0.32493029  0.99156389  0.64351878  1
  K  K3  1  0.82493029  0.00843611  0.85648122  1
  K  K4  1  0.32493029  0.50843611  0.64351878  1
  K  K5  1  0.82493029  0.49156389  0.85648122  1
  K  K6  1  0.67506971  0.00843611  0.35648122  1
  K  K7  1  0.17506971  0.99156389  0.14351878  1
  K  K8  1  0.87520361  0.75000000  0.56816975  1
  K  K9  1  0.37520361  0.25000000  0.93183025  1
  K  K10  1  0.12479639  0.25000000  0.43183025  1
  K  K11  1  0.62479639  0.75000000  0.06816975  1
  N  N0  1  0.28701036  0.75000000  0.38365661  1
  N  N1  1  0.21298964  0.75000000  0.88365661  1
  N  N2  1  0.71298964  0.25000000  0.61634339  1
  N  N3  1  0.78701036  0.25000000  0.11634339  1
  O  O0  1  0.35142961  0.60524577  0.89202344  1
  O  O1  1  0.85142961  0.39475423  0.60797656  1
  O  O2  1  0.64857039  0.10524577  0.10797656  1
  O  O3  1  0.14857039  0.89475423  0.39202344  1
  O  O4  1  0.09240000  0.75000000  0.77220437  1
  O  O5  1  0.59240000  0.25000000  0.72779563  1
  O  O6  1  0.90760000  0.25000000  0.22779563  1
  O  O7  1  0.40760000  0.75000000  0.27220437  1
  O  O8  1  0.64857039  0.39475423  0.10797656  1
  O  O9  1  0.85142961  0.10524577  0.60797656  1
  O  O10  1  0.35142961  0.89475423  0.89202344  1
  O  O11  1  0.14857039  0.60524577  0.39202344  1
  O  O12  1  0.45098881  0.75000000  0.47961464  1
  O  O13  1  0.95098881  0.25000000  0.02038536  1
  O  O14  1  0.54901119  0.25000000  0.52038536  1
  O  O15  1  0.04901119  0.75000000  0.97961464  1
loop_
_geom_bond_atom_site_label_1
_geom_bond_atom_site_label_2
_geom_bond_distance
_geom_bond_site_symmetry_2
K0 O7 2.709303 1_555
K0 O14 2.711979 1_555
K0 O6 2.714152 1_555
K0 O12 2.757949 1_555
K0 O8 2.814157 1_555
K0 O11 2.862070 1_655
K0 O1 3.012788 1_555
K0 O11 3.146535 1_555
K1 O6 2.709303 1_455
K1 O15 2.711979 1_554
K1 O7 2.714152 1_555
K1 O13 2.757949 1_455
K1 O11 2.814157 1_555
K1 O8 2.862070 1_555
K1 O0 3.012788 1_554
K1 O8 3.146535 1_455
K2 O5 2.709303 1_565
K2 O12 2.711979 1_555
K2 O4 2.714152 1_555
K2 O14 2.757949 1_565
K2 O10 2.814157 1_555
K2 O9 2.862070 1_465
K2 O3 3.012788 1_555
K2 O9 3.146535 1_565
K3 O4 2.709303 1_645
K3 O13 2.711979 1_556
K3 O5 2.714152 1_555
K3 O15 2.757949 1_645
K3 O9 2.814157 1_555
K3 O10 2.862070 1_545
K3 O2 3.012788 1_556
K3 O10 3.146535 1_645
K4 O5 2.709303 1_555
K4 O12 2.711979 1_555
K4 O4 2.714152 1_555
K4 O14 2.757949 1_555
K4 O0 2.814157 1_555
K4 O1 2.862070 1_455
K4 O11 3.012788 1_555
K4 O1 3.146535 1_555
K5 O4 2.709303 1_655
K5 O13 2.711979 1_556
K5 O5 2.714152 1_555
K5 O15 2.757949 1_655
K5 O1 2.814157 1_555
K5 O0 2.862070 1_555
K5 O8 3.012788 1_556
K5 O0 3.146535 1_655
K6 O7 2.709303 1_545
K6 O14 2.711979 1_555
K6 O6 2.714152 1_555
K6 O12 2.757949 1_545
K6 O2 2.814157 1_555
K6 O3 2.862070 1_645
K6 O9 3.012788 1_555
K6 O3 3.146535 1_545
K7 O6 2.709303 1_465
K7 O15 2.711979 1_554
K7 O7 2.714152 1_555
K7 O13 2.757949 1_465
K7 O3 2.814157 1_555
K7 O2 2.862070 1_565
K7 O10 3.012788 1_554
K7 O2 3.146535 1_465
K8 O4 2.539339 1_655
K8 O12 2.594582 1_555
K8 O11 2.719823 1_655
K8 O3 2.719823 1_655
K8 O9 2.850900 1_565
K8 O1 2.850900 1_555
K9 O5 2.539339 1_555
K9 O13 2.594582 1_456
K9 O2 2.719823 1_556
K9 O8 2.719823 1_556
K9 O10 2.850900 1_545
K9 O0 2.850900 1_555
K10 O6 2.539339 1_455
K10 O14 2.594582 1_555
K10 O9 2.719823 1_455
K10 O1 2.719823 1_455
K10 O11 2.850900 1_555
K10 O3 2.850900 1_545
K11 O7 2.539339 1_555
K11 O15 2.594582 1_654
K11 O0 2.719823 1_554
K11 O10 2.719823 1_554
K11 O2 2.850900 1_565
K11 O8 2.850900 1_555
N0 O7 1.392500 1_555
N0 O3 1.393453 1_555
N0 O11 1.393453 1_555
N0 O12 1.398902 1_555
N1 O4 1.392500 1_555
N1 O0 1.393453 1_555
N1 O10 1.393453 1_555
N1 O15 1.398902 1_555
N2 O5 1.392500 1_555
N2 O9 1.393453 1_555
N2 O1 1.393453 1_555
N2 O14 1.398902 1_555
N3 O6 1.392500 1_555
N3 O8 1.393453 1_555
N3 O2 1.393453 1_555
N3 O13 1.398902 1_555
