# generated using pymatgen
data_Na3Sc2(PO4)3
_symmetry_space_group_name_H-M   'P 1'
_cell_length_a   9.01691316
_cell_length_b   9.01691285
_cell_length_c   22.64534336
_cell_angle_alpha   89.95422557
_cell_angle_beta   90.04577444
_cell_angle_gamma   120.11800886
_symmetry_Int_Tables_number   1
_chemical_formula_structural   Na3Sc2(PO4)3
_chemical_formula_sum   'Na18 Sc12 P18 O72'
_cell_volume   1592.60271656
_cell_formula_units_Z   6
loop_
 _symmetry_equiv_pos_site_id
 _symmetry_equiv_pos_as_xyz
  1  'x, y, z'
loop_
 _atom_site_type_symbol
 _atom_site_label
 _atom_site_symmetry_multiplicity
 _atom_site_fract_x
 _atom_site_fract_y
 _atom_site_fract_z
 _atom_site_occupancy
  Na  Na0  1  0.99999761  0.00013891  0.49999821  1
  Na  Na1  1  0.99986109  0.00000239  0.99999821  1
  Na  Na2  1  0.64353998  0.32045595  0.83335690  1
  Na  Na3  1  0.67954405  0.35646002  0.33335690  1
  Na  Na4  1  0.33338806  0.66680981  0.16668668  1
  Na  Na5  1  0.33319019  0.66661194  0.66668668  1
  Na  Na6  1  0.63505476  0.99920605  0.24986506  1
  Na  Na7  1  0.36449074  0.36309504  0.24997999  1
  Na  Na8  1  0.63690496  0.63550926  0.74997999  1
  Na  Na9  1  0.00079395  0.36494524  0.74986506  1
  Na  Na10  1  0.03002348  0.69771841  0.58346893  1
  Na  Na11  1  0.66544688  0.96860276  0.58308489  1
  Na  Na12  1  0.30228159  0.96997652  0.08346893  1
  Na  Na13  1  0.03139724  0.33455312  0.08308489  1
  Na  Na14  1  0.96767023  0.66459597  0.91721025  1
  Na  Na15  1  0.69798335  0.02990400  0.91662043  1
  Na  Na16  1  0.97009600  0.30201665  0.41662043  1
  Na  Na17  1  0.33540403  0.03232977  0.41721025  1
  Sc  Sc0  1  0.99278169  0.98996452  0.35060214  1
  Sc  Sc1  1  0.01003548  0.00721831  0.85060214  1
  Sc  Sc2  1  0.00904460  0.00695079  0.64948878  1
  Sc  Sc3  1  0.99304921  0.99095540  0.14948878  1
  Sc  Sc4  1  0.65838046  0.32676124  0.68381261  1
  Sc  Sc5  1  0.67323876  0.34161954  0.18381261  1
  Sc  Sc6  1  0.66013980  0.33579780  0.98288793  1
  Sc  Sc7  1  0.66420220  0.33986020  0.48288793  1
  Sc  Sc8  1  0.34064455  0.66470226  0.01713708  1
  Sc  Sc9  1  0.33529774  0.65935545  0.51713708  1
  Sc  Sc10  1  0.32797995  0.66554166  0.31608550  1
  Sc  Sc11  1  0.33445834  0.67202005  0.81608550  1
  P  P0  1  0.29558733  0.99952482  0.24967705  1
  P  P1  1  0.70323010  0.70346612  0.25046490  1
  P  P2  1  0.99969012  0.29354455  0.24974844  1
  P  P3  1  0.29653388  0.29676990  0.75046490  1
  P  P4  1  0.00047518  0.70441267  0.74967705  1
  P  P5  1  0.70645545  0.00030988  0.74974844  1
  P  P6  1  0.95992635  0.33306557  0.58338125  1
  P  P7  1  0.37075108  0.03701272  0.58132296  1
  P  P8  1  0.66687013  0.62921501  0.58536226  1
  P  P9  1  0.96298728  0.62924892  0.08132296  1
  P  P10  1  0.66693443  0.04007365  0.08338125  1
  P  P11  1  0.37078499  0.33312987  0.08536226  1
  P  P12  1  0.62925251  0.66653146  0.91447781  1
  P  P13  1  0.03733063  0.37052677  0.91714611  1
  P  P14  1  0.33365712  0.96043483  0.91836990  1
  P  P15  1  0.62947323  0.96266937  0.41714611  1
  P  P16  1  0.33346854  0.37074749  0.41447781  1
  P  P17  1  0.03956517  0.66634288  0.41836990  1
  O  O0  1  0.21038817  0.02618902  0.30503926  1
  O  O1  1  0.81326288  0.78915788  0.30524119  1
  O  O2  1  0.97224710  0.18146955  0.30528015  1
  O  O3  1  0.21084212  0.18673712  0.80524119  1
  O  O4  1  0.97381098  0.78961183  0.80503926  1
  O  O5  1  0.81853045  0.02775290  0.80528015  1
  O  O6  1  0.79127401  0.97328279  0.69435531  1
  O  O7  1  0.18111473  0.21153536  0.69613998  1
  O  O8  1  0.02241030  0.81185477  0.69396135  1
  O  O9  1  0.78846464  0.81888527  0.19613998  1
  O  O10  1  0.02671721  0.20872599  0.19435531  1
  O  O11  1  0.18814523  0.97758970  0.19396135  1
  O  O12  1  0.87578520  0.36070186  0.63880007  1
  O  O13  1  0.48815931  0.12636961  0.63453044  1
  O  O14  1  0.64357156  0.52477673  0.64190091  1
  O  O15  1  0.87363039  0.51184069  0.13453044  1
  O  O16  1  0.63929814  0.12421480  0.13880007  1
  O  O17  1  0.47522327  0.35642844  0.14190091  1
  O  O18  1  0.45951274  0.30488168  0.03206345  1
  O  O19  1  0.85836118  0.54801366  0.02465491  1
  O  O20  1  0.69407969  0.15194674  0.02791903  1
  O  O21  1  0.45198634  0.14163882  0.52465491  1
  O  O22  1  0.69511832  0.54048726  0.53206345  1
  O  O23  1  0.84805326  0.30592031  0.52791903  1
  O  O24  1  0.54064029  0.69578050  0.96782313  1
  O  O25  1  0.14466476  0.45636703  0.97289396  1
  O  O26  1  0.30516719  0.85129049  0.97468625  1
  O  O27  1  0.54363297  0.85533524  0.47289396  1
  O  O28  1  0.30421950  0.45935971  0.46782313  1
  O  O29  1  0.14870951  0.69483281  0.47468625  1
  O  O30  1  0.12800600  0.63748198  0.36492352  1
  O  O31  1  0.51745367  0.87724905  0.36184656  1
  O  O32  1  0.35613354  0.47515218  0.35789842  1
  O  O33  1  0.12275095  0.48254633  0.86184656  1
  O  O34  1  0.36251802  0.87199400  0.86492352  1
  O  O35  1  0.52484782  0.64386646  0.85789842  1
  O  O36  1  0.02935847  0.83157037  0.41145985  1
  O  O37  1  0.81282831  0.99044922  0.41219520  1
  O  O38  1  0.16927850  0.18990459  0.41096078  1
  O  O39  1  0.00955078  0.18717169  0.91219520  1
  O  O40  1  0.16842963  0.97064153  0.91145985  1
  O  O41  1  0.81009541  0.83072150  0.91096078  1
  O  O42  1  0.97105752  0.16809888  0.58893865  1
  O  O43  1  0.18785627  0.00986525  0.58765658  1
  O  O44  1  0.83079874  0.81004001  0.58879605  1
  O  O45  1  0.99013475  0.81214373  0.08765658  1
  O  O46  1  0.83190112  0.02894248  0.08893865  1
  O  O47  1  0.18995999  0.16920126  0.08879605  1
  O  O48  1  0.69464614  0.16485806  0.74417441  1
  O  O49  1  0.47862740  0.32328666  0.74505053  1
  O  O50  1  0.83601486  0.52402942  0.74517930  1
  O  O51  1  0.67671334  0.52137260  0.24505053  1
  O  O52  1  0.83514194  0.30535386  0.24417441  1
  O  O53  1  0.47597058  0.16398514  0.24517930  1
  O  O54  1  0.65497175  0.51057443  0.92106082  1
  O  O55  1  0.85695402  0.35428884  0.92151975  1
  O  O56  1  0.49816552  0.13741978  0.92286373  1
  O  O57  1  0.64571116  0.14304598  0.42151975  1
  O  O58  1  0.48942557  0.34502825  0.42106082  1
  O  O59  1  0.86258022  0.50183448  0.42286373  1
  O  O60  1  0.34388506  0.48913508  0.07883784  1
  O  O61  1  0.14324491  0.64534619  0.07791688  1
  O  O62  1  0.50177553  0.86305718  0.07781738  1
  O  O63  1  0.35465381  0.85675509  0.57791688  1
  O  O64  1  0.51086492  0.65611494  0.57883784  1
  O  O65  1  0.13694282  0.49822447  0.57781738  1
  O  O66  1  0.32311483  0.84401396  0.25494717  1
  O  O67  1  0.52355652  0.68798467  0.25528514  1
  O  O68  1  0.16467791  0.47021559  0.25514597  1
  O  O69  1  0.31201533  0.47644348  0.75528514  1
  O  O70  1  0.15598604  0.67688517  0.75494717  1
  O  O71  1  0.52978441  0.83532209  0.75514597  1
loop_
_geom_bond_atom_site_label_1
_geom_bond_atom_site_label_2
_geom_bond_distance
_geom_bond_site_symmetry_2
Na0 O37 2.579984 1_545
Na0 O43 2.581330 1_655
Na0 O44 2.585394 1_545
Na0 O38 2.588710 1_655
Na0 O36 2.609578 1_645
Na0 O42 2.611631 1_555
Na1 O39 2.579984 1_655
Na1 O45 2.581330 1_546
Na1 O47 2.585394 1_656
Na1 O41 2.588710 1_545
Na1 O40 2.609578 1_645
Na1 O46 2.611631 1_556
Na2 O49 2.498799 1_555
Na2 O56 2.525531 1_555
Na2 O54 2.592624 1_555
Na2 O48 2.629508 1_555
Na2 O50 2.677936 1_555
Na2 O55 2.680997 1_555
Na3 O51 2.498799 1_555
Na3 O59 2.525531 1_555
Na3 O58 2.592624 1_555
Na3 O52 2.629508 1_555
Na3 O53 2.677936 1_555
Na3 O57 2.680997 1_555
Na4 O67 2.582387 1_555
Na4 O61 2.584587 1_555
Na4 O60 2.586651 1_555
Na4 O66 2.590435 1_555
Na4 O68 2.600431 1_555
Na4 O62 2.605675 1_555
Na5 O69 2.582387 1_555
Na5 O63 2.584587 1_555
Na5 O64 2.586651 1_555
Na5 O70 2.590435 1_555
Na5 O71 2.600431 1_555
Na5 O65 2.605675 1_555
Na6 O52 2.427686 1_565
Na6 O66 2.435802 1_555
Na6 O67 2.463568 1_555
Na6 O53 2.532766 1_565
Na6 O16 2.747748 1_565
Na6 O31 2.755704 1_555
Na6 O9 2.881027 1_555
Na6 O2 2.915906 1_565
Na7 O68 2.437154 1_555
Na7 O51 2.437854 1_555
Na7 O53 2.461134 1_555
Na7 O67 2.537154 1_555
Na7 O17 2.656147 1_555
Na7 O32 2.660763 1_555
Na7 O0 2.911086 1_555
Na7 O10 2.922753 1_555
Na8 O71 2.437154 1_555
Na8 O49 2.437854 1_555
Na8 O50 2.461134 1_555
Na8 O69 2.537154 1_555
Na8 O14 2.656147 1_555
Na8 O35 2.660763 1_555
Na8 O4 2.911086 1_555
Na8 O6 2.922753 1_555
Na9 O48 2.427686 1_455
Na9 O70 2.435802 1_555
Na9 O69 2.463569 1_555
Na9 O50 2.532766 1_455
Na9 O12 2.747748 1_455
Na9 O33 2.755704 1_555
Na9 O7 2.881027 1_555
Na9 O5 2.915906 1_455
Na10 O65 2.433628 1_555
Na10 O43 2.436526 1_565
Na10 O44 2.468549 1_455
Na10 O63 2.535395 1_555
Na10 O29 2.691964 1_555
Na10 O8 2.720270 1_555
Na10 O22 2.860911 1_455
Na10 O12 2.914469 1_455
Na11 O42 2.423264 1_565
Na11 O64 2.439295 1_555
Na11 O63 2.459174 1_555
Na11 O44 2.534279 1_555
Na11 O27 2.711092 1_555
Na11 O6 2.754226 1_555
Na11 O13 2.867795 1_565
Na11 O23 2.914469 1_565
Na12 O62 2.433628 1_555
Na12 O45 2.436526 1_455
Na12 O47 2.468549 1_565
Na12 O61 2.535395 1_555
Na12 O26 2.691964 1_554
Na12 O11 2.720270 1_555
Na12 O18 2.860911 1_565
Na12 O16 2.914469 1_565
Na13 O46 2.423264 1_455
Na13 O60 2.439295 1_555
Na13 O61 2.459174 1_555
Na13 O47 2.534279 1_555
Na13 O25 2.711092 1_554
Na13 O10 2.754226 1_555
Na13 O15 2.867795 1_455
Na13 O20 2.914469 1_455
Na14 O40 2.428109 1_655
Na14 O54 2.440653 1_555
Na14 O55 2.455909 1_555
Na14 O41 2.533356 1_555
Na14 O19 2.637525 1_556
Na14 O4 2.767517 1_555
Na14 O33 2.920878 1_655
Na14 O26 2.940216 1_655
Na15 O39 2.432219 1_655
Na15 O56 2.441245 1_555
Na15 O41 2.467115 1_545
Na15 O55 2.532779 1_555
Na15 O5 2.750387 1_555
Na15 O20 2.758272 1_556
Na15 O24 2.853329 1_545
Na15 O34 2.867466 1_545
Na16 O37 2.432219 1_545
Na16 O59 2.441245 1_555
Na16 O38 2.467115 1_655
Na16 O57 2.532779 1_555
Na16 O2 2.750387 1_555
Na16 O23 2.758272 1_555
Na16 O28 2.853329 1_655
Na16 O30 2.867466 1_655
Na17 O36 2.428109 1_545
Na17 O58 2.440652 1_555
Na17 O57 2.455909 1_555
Na17 O38 2.533356 1_555
Na17 O21 2.637525 1_555
Na17 O0 2.767517 1_555
Na17 O31 2.920878 1_545
Na17 O29 2.940216 1_545
O0 P0 1.551492 1_545
O0 Sc0 2.093030 1_445
O1 P1 1.533062 1_555
O1 Sc0 2.003197 1_555
O2 P2 1.552864 1_555
O2 Sc0 2.094554 1_545
O3 P3 1.533062 1_555
O3 Sc1 2.003197 1_555
O4 P4 1.551492 1_655
O4 Sc1 2.093030 1_665
O5 P5 1.552864 1_555
O5 Sc1 2.094554 1_655
O6 P5 1.551416 1_565
O6 Sc2 2.093968 1_665
O7 P3 1.544005 1_555
O7 Sc2 2.013568 1_555
O8 P4 1.541338 1_555
O8 Sc2 2.081626 1_565
O9 P1 1.544005 1_555
O9 Sc3 2.013568 1_555
O10 P2 1.551416 1_455
O10 Sc3 2.093968 1_445
O11 P0 1.541338 1_555
O11 Sc3 2.081626 1_455
O12 P6 1.550626 1_555
O12 Sc4 2.091926 1_555
O13 P7 1.537928 1_555
O13 Sc4 2.020758 1_555
O14 P8 1.539539 1_555
O14 Sc4 2.083976 1_555
O15 P9 1.537928 1_555
O15 Sc5 2.020758 1_555
O16 P10 1.550626 1_555
O16 Sc5 2.091926 1_555
O17 P11 1.539539 1_555
O17 Sc5 2.083976 1_555
O18 P11 1.538921 1_555
O18 Sc6 2.021644 1_554
O19 P9 1.542530 1_555
O19 Sc6 2.078137 1_554
O20 P10 1.551001 1_555
O20 Sc6 2.094678 1_554
O21 P7 1.542530 1_555
O21 Sc7 2.078137 1_555
O22 P8 1.538921 1_555
O22 Sc7 2.021644 1_555
O23 P6 1.551001 1_555
O23 Sc7 2.094678 1_555
O24 P12 1.542991 1_555
O24 Sc8 2.018225 1_556
O25 P13 1.541861 1_555
O25 Sc8 2.079469 1_556
O26 P14 1.551042 1_555
O26 Sc8 2.096222 1_556
O27 P15 1.541861 1_555
O27 Sc9 2.079469 1_555
O28 P16 1.542991 1_555
O28 Sc9 2.018225 1_555
O29 P17 1.551042 1_555
O29 Sc9 2.096222 1_555
O30 P17 1.542349 1_555
O30 Sc10 2.020739 1_555
O31 P15 1.549340 1_555
O31 Sc10 2.089052 1_555
O32 P16 1.541121 1_555
O32 Sc10 2.083873 1_555
O33 P13 1.549340 1_555
O33 Sc11 2.089052 1_555
O34 P14 1.542349 1_555
O34 Sc11 2.020739 1_555
O35 P12 1.541121 1_555
O35 Sc11 2.083873 1_555
O36 P17 1.545895 1_555
O36 Sc0 2.125261 1_455
O37 P15 1.547045 1_555
O37 Sc0 2.142225 1_555
O38 P16 1.560273 1_555
O38 Sc0 2.184564 1_445
O39 P13 1.547045 1_555
O39 Sc1 2.142225 1_555
O40 P14 1.545896 1_555
O40 Sc1 2.125261 1_565
O41 P12 1.560273 1_555
O41 Sc1 2.184564 1_665
O42 P6 1.545332 1_555
O42 Sc2 2.145783 1_655
O43 P7 1.547698 1_555
O43 Sc2 2.126479 1_555
O44 P8 1.559086 1_555
O44 Sc2 2.182016 1_665
O45 P9 1.547698 1_555
O45 Sc3 2.126479 1_555
O46 P10 1.545332 1_555
O46 Sc3 2.145783 1_545
O47 P11 1.559086 1_555
O47 Sc3 2.182016 1_445
O48 P5 1.544966 1_555
O48 Sc4 2.140509 1_555
O49 P3 1.540909 1_555
O49 Sc4 2.122187 1_555
O50 P4 1.560253 1_655
O50 Sc4 2.191303 1_555
O51 P1 1.540909 1_555
O51 Sc5 2.122187 1_555
O52 P2 1.544966 1_555
O52 Sc5 2.140509 1_555
O53 P0 1.560253 1_545
O53 Sc5 2.191303 1_555
O54 P12 1.542867 1_555
O54 Sc6 2.125116 1_555
O55 P13 1.561347 1_655
O55 Sc6 2.194335 1_555
O56 P14 1.543314 1_545
O56 Sc6 2.135240 1_555
O57 P15 1.561347 1_545
O57 Sc7 2.194335 1_555
O58 P16 1.542867 1_555
O58 Sc7 2.125116 1_555
O59 P17 1.543314 1_655
O59 Sc7 2.135240 1_555
O60 P11 1.549661 1_555
O60 Sc8 2.121807 1_555
O61 P9 1.559570 1_455
O61 Sc8 2.187423 1_555
O62 P10 1.547858 1_565
O62 Sc8 2.142649 1_555
O63 P7 1.559570 1_565
O63 Sc9 2.187423 1_555
O64 P8 1.549661 1_555
O64 Sc9 2.121807 1_555
O65 P6 1.547858 1_455
O65 Sc9 2.142649 1_555
O66 P0 1.546310 1_555
O66 Sc10 2.139088 1_555
O67 P1 1.558661 1_555
O67 Sc10 2.166071 1_555
O68 P2 1.545162 1_455
O68 Sc10 2.138352 1_555
O69 P3 1.558661 1_555
O69 Sc11 2.166071 1_555
O70 P4 1.546310 1_555
O70 Sc11 2.139088 1_555
O71 P5 1.545162 1_565
O71 Sc11 2.138352 1_555
