# generated using pymatgen
data_VPO5
_symmetry_space_group_name_H-M   'P 1'
_cell_length_a   10.45392700
_cell_length_b   5.05236000
_cell_length_c   7.29588743
_cell_angle_alpha   65.84758008
_cell_angle_beta   90.00000000
_cell_angle_gamma   90.00000000
_symmetry_Int_Tables_number   1
_chemical_formula_structural   VPO5
_chemical_formula_sum   'V4 P4 O20'
_cell_volume   351.61371955
_cell_formula_units_Z   4
loop_
 _symmetry_equiv_pos_site_id
 _symmetry_equiv_pos_as_xyz
  1  'x, y, z'
loop_
 _atom_site_type_symbol
 _atom_site_label
 _atom_site_symmetry_multiplicity
 _atom_site_fract_x
 _atom_site_fract_y
 _atom_site_fract_z
 _atom_site_occupancy
  V  V0  1  0.07354400  0.42626800  0.17597400  1
  V  V1  1  0.57354400  0.57373200  0.32402600  1
  V  V2  1  0.42645600  0.42626800  0.67597400  1
  V  V3  1  0.92645600  0.57373200  0.82402600  1
  P  P0  1  0.65052000  0.21675300  0.02767000  1
  P  P1  1  0.15052000  0.78324700  0.47233000  1
  P  P2  1  0.84948000  0.21675300  0.52767000  1
  P  P3  1  0.34948000  0.78324700  0.97233000  1
  O  O0  1  0.21888800  0.63257000  0.04413000  1
  O  O1  1  0.67666400  0.88670700  0.14916700  1
  O  O2  1  0.04112700  0.27606200  0.00426700  1
  O  O3  1  0.42837600  0.75252600  0.15983300  1
  O  O4  1  0.58339700  0.34490400  0.15695100  1
  O  O5  1  0.08339700  0.65509600  0.34304900  1
  O  O6  1  0.92837600  0.24747400  0.34016700  1
  O  O7  1  0.54112700  0.72393800  0.49573300  1
  O  O8  1  0.17666400  0.11329300  0.35083300  1
  O  O9  1  0.71888800  0.36743000  0.45587000  1
  O  O10  1  0.28111200  0.63257000  0.54413000  1
  O  O11  1  0.82333600  0.88670700  0.64916700  1
  O  O12  1  0.45887300  0.27606200  0.50426700  1
  O  O13  1  0.07162400  0.75252600  0.65983300  1
  O  O14  1  0.78111200  0.36743000  0.95587000  1
  O  O15  1  0.41660300  0.65509600  0.84304900  1
  O  O16  1  0.57162400  0.24747400  0.84016700  1
  O  O17  1  0.95887300  0.72393800  0.99573300  1
  O  O18  1  0.32333600  0.11329300  0.85083300  1
  O  O19  1  0.91660300  0.34490400  0.65695100  1
loop_
_geom_bond_atom_site_label_1
_geom_bond_atom_site_label_2
_geom_bond_distance
_geom_bond_site_symmetry_2
O0 P3 1.546408 1_554
O0 V0 1.870789 1_555
O1 P0 1.559310 1_565
O1 V1 1.907674 1_555
O2 V0 1.743030 1_555
O2 V3 1.951848 1_454
O3 P3 1.549842 1_554
O3 V1 1.915345 1_555
O4 P0 1.516909 1_555
O4 V1 1.996581 1_555
O5 P1 1.516909 1_555
O5 V0 1.996581 1_555
O6 P2 1.549842 1_555
O6 V0 1.915345 1_655
O7 V1 1.743030 1_555
O7 V2 1.951848 1_555
O8 P1 1.559310 1_545
O8 V0 1.907674 1_555
O9 P2 1.546408 1_555
O9 V1 1.870789 1_555
O10 P1 1.546408 1_555
O10 V2 1.870789 1_555
O11 P2 1.559310 1_565
O11 V3 1.907674 1_555
O12 V2 1.743030 1_555
O12 V1 1.951848 1_555
O13 P1 1.549842 1_555
O13 V3 1.915345 1_455
O14 P0 1.546408 1_556
O14 V3 1.870789 1_555
O15 P3 1.516909 1_555
O15 V2 1.996581 1_555
O16 P0 1.549842 1_556
O16 V2 1.915345 1_555
O17 V3 1.743030 1_555
O17 V0 1.951848 1_656
O18 P3 1.559310 1_545
O18 V2 1.907674 1_555
O19 P2 1.516909 1_555
O19 V3 1.996581 1_555
