# generated using pymatgen
data_Na9Mg5Ta7Si9(SO8)9
_symmetry_space_group_name_H-M   'P 1'
_cell_length_a   8.88857300
_cell_length_b   8.86330219
_cell_length_c   22.70765340
_cell_angle_alpha   89.83460772
_cell_angle_beta   90.13259448
_cell_angle_gamma   119.96690479
_symmetry_Int_Tables_number   1
_chemical_formula_structural   Na9Mg5Ta7Si9(SO8)9
_chemical_formula_sum   'Na9 Mg5 Ta7 Si9 S9 O72'
_cell_volume   1549.79121675
_cell_formula_units_Z   1
loop_
 _symmetry_equiv_pos_site_id
 _symmetry_equiv_pos_as_xyz
  1  'x, y, z'
loop_
 _atom_site_type_symbol
 _atom_site_label
 _atom_site_symmetry_multiplicity
 _atom_site_fract_x
 _atom_site_fract_y
 _atom_site_fract_z
 _atom_site_occupancy
  Na  Na0  1  0.97880316  0.35115753  0.74753259  1
  Na  Na1  1  0.64970856  0.97237016  0.58177279  1
  Na  Na2  1  0.32770349  0.02656165  0.40854323  1
  Na  Na3  1  0.99110070  0.00454727  0.49415283  1
  Na  Na4  1  0.98268713  0.99870560  0.99052488  1
  Na  Na5  1  0.66163961  0.32391724  0.82930309  1
  Na  Na6  1  0.66367461  0.32675758  0.32291356  1
  Na  Na7  1  0.32925804  0.68173115  0.16311518  1
  Na  Na8  1  0.31935382  0.67208841  0.65628995  1
  Mg  Mg0  1  0.99682936  0.00349012  0.35032876  1
  Mg  Mg1  1  0.98159164  0.99877469  0.85745108  1
  Mg  Mg2  1  0.66718650  0.32010732  0.68435830  1
  Mg  Mg3  1  0.66634349  0.31814595  0.18530326  1
  Mg  Mg4  1  0.33227604  0.66902006  0.52012391  1
  Ta  Ta0  1  0.99388750  0.00058434  0.64459523  1
  Ta  Ta1  1  0.00031381  0.99217266  0.14368470  1
  Ta  Ta2  1  0.69306603  0.34522024  0.97791217  1
  Ta  Ta3  1  0.66225651  0.31567227  0.48238213  1
  Ta  Ta4  1  0.33562742  0.66462120  0.02107927  1
  Ta  Ta5  1  0.33856339  0.68161687  0.31088611  1
  Ta  Ta6  1  0.34457793  0.66731857  0.81419352  1
  Si  Si0  1  0.29569145  0.01839436  0.25494307  1
  Si  Si1  1  0.70589198  0.00408288  0.75204963  1
  Si  Si2  1  0.97065151  0.34790701  0.58828467  1
  Si  Si3  1  0.36873894  0.03501047  0.58658670  1
  Si  Si4  1  0.95635009  0.61575467  0.08773207  1
  Si  Si5  1  0.66506239  0.04571903  0.08593251  1
  Si  Si6  1  0.62930633  0.66216097  0.91911155  1
  Si  Si7  1  0.05179714  0.37331218  0.91479625  1
  Si  Si8  1  0.63646656  0.95410001  0.42045371  1
  S  S0  1  0.71096473  0.70946295  0.25076080  1
  S  S1  1  0.00245256  0.29114400  0.25141387  1
  S  S2  1  0.29027972  0.28669968  0.75122573  1
  S  S3  1  0.00004829  0.71419358  0.75188553  1
  S  S4  1  0.66788856  0.61749163  0.58488010  1
  S  S5  1  0.37848244  0.33194953  0.08434360  1
  S  S6  1  0.33454228  0.95501524  0.91665605  1
  S  S7  1  0.33664717  0.38202749  0.41764098  1
  S  S8  1  0.04067870  0.66268907  0.41658831  1
  O  O0  1  0.20345838  0.01648955  0.31522566  1
  O  O1  1  0.81136931  0.79393975  0.30327622  1
  O  O2  1  0.98067469  0.18690352  0.30381918  1
  O  O3  1  0.21413603  0.18352685  0.80360176  1
  O  O4  1  0.99099824  0.80194441  0.80415126  1
  O  O5  1  0.83756250  0.03475017  0.80369440  1
  O  O6  1  0.79812960  0.96941732  0.69074806  1
  O  O7  1  0.17359451  0.20192809  0.69743778  1
  O  O8  1  0.02714230  0.82323629  0.69704250  1
  O  O9  1  0.78719881  0.82311046  0.19664146  1
  O  O10  1  0.02817493  0.21033408  0.19745851  1
  O  O11  1  0.16233335  0.98238483  0.19704312  1
  O  O12  1  0.88808845  0.36939438  0.64718257  1
  O  O13  1  0.49564148  0.13594606  0.63863536  1
  O  O14  1  0.65094503  0.51869859  0.63762600  1
  O  O15  1  0.87022855  0.50732031  0.14456332  1
  O  O16  1  0.61889955  0.11245604  0.14291502  1
  O  O17  1  0.47946772  0.36318553  0.13747714  1
  O  O18  1  0.45274986  0.30284517  0.03059470  1
  O  O19  1  0.83699324  0.53367814  0.02631084  1
  O  O20  1  0.69092278  0.16585586  0.02588024  1
  O  O21  1  0.46049077  0.16309874  0.52336094  1
  O  O22  1  0.69588422  0.53807256  0.53018346  1
  O  O23  1  0.82675933  0.30225942  0.52993700  1
  O  O24  1  0.52001435  0.68274272  0.97335274  1
  O  O25  1  0.16433187  0.49005281  0.97119338  1
  O  O26  1  0.31375743  0.84937516  0.97031687  1
  O  O27  1  0.54068609  0.85077337  0.47812846  1
  O  O28  1  0.31569577  0.46369270  0.46955487  1
  O  O29  1  0.14876332  0.68667164  0.46781296  1
  O  O30  1  0.12353316  0.63314538  0.36183882  1
  O  O31  1  0.49564020  0.85577166  0.36182399  1
  O  O32  1  0.35397896  0.48547113  0.36279335  1
  O  O33  1  0.13447275  0.49798906  0.85513088  1
  O  O34  1  0.36467262  0.86913632  0.86347174  1
  O  O35  1  0.50080726  0.64022989  0.86041347  1
  O  O36  1  0.02459661  0.81874658  0.40902794  1
  O  O37  1  0.82679230  0.98817969  0.40934957  1
  O  O38  1  0.19119586  0.20134039  0.41218486  1
  O  O39  1  0.04266148  0.19152273  0.91470079  1
  O  O40  1  0.18079096  0.96845220  0.90864451  1
  O  O41  1  0.81877333  0.82206054  0.91468951  1
  O  O42  1  0.96150986  0.15002139  0.59106803  1
  O  O43  1  0.17581942  0.01973218  0.59230538  1
  O  O44  1  0.83359703  0.79791113  0.58831631  1
  O  O45  1  0.97954633  0.81643773  0.09227837  1
  O  O46  1  0.84383551  0.02984965  0.09361962  1
  O  O47  1  0.19676645  0.17579306  0.09060743  1
  O  O48  1  0.68285342  0.17256411  0.74764053  1
  O  O49  1  0.46736586  0.32636029  0.74112918  1
  O  O50  1  0.84519488  0.54077178  0.74528076  1
  O  O51  1  0.68553502  0.53680812  0.24267925  1
  O  O52  1  0.85790123  0.32367251  0.24599203  1
  O  O53  1  0.48706314  0.17701061  0.24720546  1
  O  O54  1  0.61716905  0.47123021  0.92528696  1
  O  O55  1  0.85776170  0.36159381  0.92182294  1
  O  O56  1  0.49463907  0.12692890  0.92204168  1
  O  O57  1  0.63519951  0.14927013  0.42227481  1
  O  O58  1  0.50339958  0.37166696  0.42076255  1
  O  O59  1  0.86388185  0.50472512  0.42121740  1
  O  O60  1  0.34945738  0.48542240  0.07635006  1
  O  O61  1  0.15252583  0.65066033  0.07396665  1
  O  O62  1  0.50509175  0.84704250  0.07120095  1
  O  O63  1  0.35581729  0.85142331  0.57622509  1
  O  O64  1  0.52336730  0.64978207  0.57746630  1
  O  O65  1  0.16186869  0.49300877  0.57388330  1
  O  O66  1  0.30357005  0.82369294  0.25841634  1
  O  O67  1  0.52927781  0.69312271  0.25675143  1
  O  O68  1  0.17090277  0.46779445  0.25778100  1
  O  O69  1  0.28961410  0.46113749  0.75464308  1
  O  O70  1  0.15867058  0.69004794  0.75398722  1
  O  O71  1  0.50940001  0.82199170  0.75683298  1
loop_
_geom_bond_atom_site_label_1
_geom_bond_atom_site_label_2
_geom_bond_distance
_geom_bond_site_symmetry_2
Na0 O48 2.294720 1_555
Na0 O69 2.432515 1_655
Na0 O12 2.447119 1_555
Na0 O50 2.496100 1_555
Na0 O70 2.608399 1_655
Na0 O5 2.745320 1_555
Na0 O33 2.789580 1_655
Na0 O7 2.889089 1_655
Na1 O63 2.278319 1_555
Na1 O42 2.417555 1_565
Na1 O64 2.497827 1_555
Na1 O27 2.569124 1_555
Na1 O44 2.758099 1_555
Na1 O13 2.765325 1_565
Na1 O23 2.793425 1_565
Na1 O6 2.807780 1_555
Na2 O0 2.368462 1_555
Na2 O36 2.386201 1_545
Na2 O38 2.399541 1_555
Na2 O57 2.403923 1_555
Na2 O58 2.665103 1_555
Na2 O31 2.814093 1_545
Na2 O21 2.869207 1_555
Na2 O29 2.935364 1_545
Na3 O37 2.374700 1_545
Na3 O38 2.562719 1_655
Na3 O42 2.633001 1_555
Na3 O36 2.654790 1_645
Na3 O44 2.704824 1_545
Na3 O43 2.728654 1_655
Na4 O39 2.290531 1_665
Na4 O41 2.294468 1_555
Na4 O40 2.668200 1_655
Na4 O46 2.727149 1_566
Na4 O45 2.807684 1_556
Na4 O47 2.875104 1_666
Na5 O48 2.354250 1_555
Na5 O50 2.618577 1_555
Na5 O55 2.640034 1_555
Na5 O49 2.648086 1_555
Na5 O56 2.662832 1_555
Na5 O54 2.673495 1_555
Na6 O53 2.258462 1_555
Na6 O52 2.468517 1_555
Na6 O51 2.538492 1_555
Na6 O57 2.685867 1_555
Na6 O58 2.776897 1_555
Na6 O59 2.799214 1_555
Na7 O61 2.489556 1_555
Na7 O66 2.573621 1_555
Na7 O62 2.579823 1_555
Na7 O60 2.697215 1_555
Na7 O67 2.737970 1_555
Na7 O68 2.742596 1_555
Na8 O63 2.325592 1_555
Na8 O65 2.401215 1_555
Na8 O64 2.628010 1_555
Na8 O70 2.688993 1_555
Na8 O71 2.754788 1_555
Na8 O69 2.835232 1_555
Mg0 O0 1.953647 1_655
Mg0 O37 1.975434 1_545
Mg0 O2 2.000333 1_555
Mg0 O1 2.062352 1_545
Mg0 O36 2.215492 1_645
Mg0 O38 2.238128 1_655
Mg1 O5 1.904999 1_565
Mg1 O41 1.992357 1_555
Mg1 O39 1.996593 1_665
Mg1 O4 2.161883 1_555
Mg1 O40 2.241131 1_655
Mg1 O3 2.251203 1_665
Mg2 O13 1.892978 1_555
Mg2 O12 1.976730 1_555
Mg2 O48 1.991135 1_555
Mg2 O14 2.118376 1_555
Mg2 O49 2.220110 1_555
Mg2 O50 2.270799 1_555
Mg3 O16 1.915251 1_555
Mg3 O15 1.978548 1_555
Mg3 O53 2.022095 1_555
Mg3 O52 2.169532 1_555
Mg3 O17 2.179333 1_555
Mg3 O51 2.272876 1_555
Mg4 O65 1.963460 1_555
Mg4 O63 1.988235 1_555
Mg4 O27 1.988523 1_555
Mg4 O29 2.083528 1_555
Mg4 O28 2.096575 1_555
Mg4 O64 2.210742 1_555
O0 Si0 1.592936 1_555
O1 S0 1.453214 1_555
O2 S1 1.457136 1_655
O3 S2 1.444981 1_555
O4 S3 1.445070 1_655
O5 Si1 1.580069 1_555
O6 Si1 1.721535 1_565
O6 Ta0 1.931030 1_565
O7 S2 1.533948 1_555
O7 Ta0 2.081297 1_455
O8 S3 1.518193 1_555
O8 Ta0 2.104355 1_465
O9 S0 1.516208 1_555
O9 Ta1 2.108134 1_655
O10 S1 1.495443 1_555
O10 Ta1 2.196620 1_545
O11 Si0 1.689035 1_565
O11 Ta1 1.914598 1_555
O12 Si2 1.584045 1_555
O13 Si3 1.568889 1_555
O14 S4 1.444653 1_555
O15 Si4 1.561254 1_555
O16 Si5 1.562648 1_555
O17 S5 1.444559 1_555
O18 S5 1.472287 1_555
O18 Ta2 2.311437 1_554
O19 Si4 1.681673 1_555
O19 Ta2 1.871871 1_554
O20 Si5 1.671747 1_555
O20 Ta2 1.916767 1_554
O21 Si3 1.756788 1_555
O21 Ta3 1.867776 1_555
O22 S4 1.510473 1_555
O22 Ta3 2.139027 1_555
O23 Si2 1.741634 1_555
O23 Ta3 1.866508 1_555
O24 Si6 1.636437 1_555
O24 Ta4 1.905435 1_556
O25 Si7 1.636761 1_555
O25 Ta4 1.908959 1_556
O26 S6 1.489041 1_555
O26 Ta4 2.086641 1_556
O27 Si8 1.580524 1_555
O28 S7 1.445294 1_555
O29 S8 1.453761 1_555
O30 S8 1.534710 1_555
O30 Ta5 2.088881 1_555
O31 Si8 1.734371 1_555
O31 Ta5 1.876103 1_555
O32 S7 1.506226 1_555
O32 Ta5 2.157745 1_555
O33 Si7 1.667790 1_555
O33 Ta6 1.950446 1_555
O34 S6 1.523180 1_555
O34 Ta6 2.043332 1_555
O35 Si6 1.700473 1_555
O35 Ta6 1.847277 1_555
O36 S8 1.469404 1_555
O37 Si8 1.583602 1_555
O38 S7 1.477689 1_555
O39 Si7 1.572276 1_555
O40 S6 1.440930 1_555
O41 Si6 1.571751 1_555
O42 Si2 1.715763 1_555
O42 Ta0 1.919482 1_555
O43 Si3 1.656690 1_555
O43 Ta0 1.946095 1_455
O44 S4 1.542696 1_555
O44 Ta0 2.082792 1_565
O45 Si4 1.688664 1_555
O45 Ta1 1.882834 1_655
O46 Si5 1.672469 1_555
O46 Ta1 1.947558 1_645
O47 S5 1.520312 1_555
O47 Ta1 2.076027 1_545
O48 Si1 1.608241 1_555
O49 S2 1.449893 1_555
O50 S3 1.471900 1_655
O51 S0 1.443066 1_555
O52 S1 1.455425 1_655
O53 Si0 1.584848 1_555
O54 Si6 1.646639 1_555
O54 Ta2 1.967681 1_555
O55 Si7 1.683168 1_655
O55 Ta2 1.892516 1_555
O56 S6 1.481837 1_545
O56 Ta2 2.249110 1_555
O57 Si8 1.736117 1_545
O57 Ta3 1.936952 1_555
O58 S7 1.531599 1_555
O58 Ta3 2.210175 1_555
O59 S8 1.497575 1_655
O59 Ta3 2.224126 1_555
O60 S5 1.516181 1_555
O60 Ta4 2.072635 1_555
O61 Si4 1.642261 1_455
O61 Ta4 1.978228 1_555
O62 Si5 1.653610 1_565
O62 Ta4 1.936024 1_555
O63 Si3 1.591124 1_565
O64 S4 1.458225 1_555
O65 Si2 1.570413 1_455
O66 Si0 1.763257 1_565
O66 Ta5 1.866278 1_555
O67 S0 1.553947 1_555
O67 Ta5 2.057027 1_555
O68 S1 1.540305 1_555
O68 Ta5 2.109535 1_555
O69 S2 1.551225 1_555
O69 Ta6 2.127469 1_555
O70 S3 1.528736 1_555
O70 Ta6 2.227281 1_555
O71 Si1 1.688446 1_565
O71 Ta6 1.927276 1_555
