# generated using pymatgen
data_Rb4MgMo2(SO)4
_symmetry_space_group_name_H-M   'P 1'
_cell_length_a   7.25225270
_cell_length_b   6.85976283
_cell_length_c   10.96601199
_cell_angle_alpha   104.34576903
_cell_angle_beta   93.87233194
_cell_angle_gamma   123.95312669
_symmetry_Int_Tables_number   1
_chemical_formula_structural   Rb4MgMo2(SO)4
_chemical_formula_sum   'Rb4 Mg1 Mo2 S4 O4'
_cell_volume   423.77947290
_cell_formula_units_Z   1
loop_
 _symmetry_equiv_pos_site_id
 _symmetry_equiv_pos_as_xyz
  1  'x, y, z'
loop_
 _atom_site_type_symbol
 _atom_site_label
 _atom_site_symmetry_multiplicity
 _atom_site_fract_x
 _atom_site_fract_y
 _atom_site_fract_z
 _atom_site_occupancy
  Rb  Rb0  1  0.48213933  0.32224859  0.69526791  1
  Rb  Rb1  1  0.22326259  0.76045575  0.90914430  1
  Rb  Rb2  1  0.64308057  0.76476448  0.33965442  1
  Rb  Rb3  1  0.88016794  0.22287198  0.11233674  1
  Mg  Mg0  1  0.22842722  0.49533304  0.49343019  1
  Mo  Mo0  1  0.76109643  0.02505928  0.71915818  1
  Mo  Mo1  1  0.22929167  0.98172464  0.27229686  1
  S  S0  1  0.07287369  0.10150907  0.84585779  1
  S  S1  1  0.91837138  0.30739600  0.60516179  1
  S  S2  1  0.89398503  0.72278393  0.11022716  1
  S  S3  1  0.15299820  0.76277767  0.41837627  1
  O  O0  1  0.55204964  0.70367608  0.59778062  1
  O  O1  1  0.64157325  0.11882084  0.83771513  1
  O  O2  1  0.23681767  0.26310325  0.35112967  1
  O  O3  1  0.44497640  0.98451240  0.19940696  1
loop_
_geom_bond_atom_site_label_1
_geom_bond_atom_site_label_2
_geom_bond_distance
_geom_bond_site_symmetry_2
Rb0 S0 3.272663 1_555
Rb0 S1 3.424602 1_555
Rb0 S3 3.558064 1_545
Rb1 S0 3.270667 1_565
Rb1 S2 3.306961 1_456
Rb1 S1 3.443040 1_455
Rb1 S0 3.865203 1_555
Rb2 S2 3.250901 1_555
Rb2 S1 3.444097 1_565
Rb2 S3 3.707276 1_555
Rb2 S3 3.748592 1_655
Rb3 S2 3.380281 1_555
Rb3 S0 3.439659 1_654
Rb3 S2 3.481921 1_545
Rb3 S3 3.694968 1_655
Mg0 O2 1.966158 1_555
Mg0 O0 1.985037 1_555
Mg0 S1 2.477140 1_455
Mg0 S3 2.480101 1_555
Mo0 O1 1.793293 1_555
Mo0 O0 1.862856 1_545
Mo0 S0 2.282106 1_655
Mo0 S1 2.353614 1_555
Mo1 O3 1.796947 1_555
Mo1 O2 1.877502 1_565
Mo1 S2 2.292175 1_455
Mo1 S3 2.347708 1_555
O0 Rb0 2.867664 1_555
O0 Rb2 3.025724 1_555
O1 Rb0 2.891874 1_555
O1 Rb1 2.967280 1_545
O1 Rb3 3.069872 1_556
O2 Rb2 3.078640 1_555
O2 Rb3 3.398974 1_455
O3 Rb3 2.993740 1_565
O3 Rb1 3.033676 1_554
O3 Rb2 3.157736 1_555
