# generated using pymatgen
data_Si2Pb3O7
_symmetry_space_group_name_H-M   'P 1'
_cell_length_a   14.17450676
_cell_length_b   14.17450676
_cell_length_c   14.17450745
_cell_angle_alpha   41.90231586
_cell_angle_beta   41.90231586
_cell_angle_gamma   41.90231189
_symmetry_Int_Tables_number   1
_chemical_formula_structural   Si2Pb3O7
_chemical_formula_sum   'Si12 Pb18 O42'
_cell_volume   1148.82976983
_cell_formula_units_Z   6
loop_
 _symmetry_equiv_pos_site_id
 _symmetry_equiv_pos_as_xyz
  1  'x, y, z'
loop_
 _atom_site_type_symbol
 _atom_site_label
 _atom_site_symmetry_multiplicity
 _atom_site_fract_x
 _atom_site_fract_y
 _atom_site_fract_z
 _atom_site_occupancy
  Si  Si0  1  0.05725861  0.44437555  0.85291801  1
  Si  Si1  1  0.85291801  0.05725861  0.44437555  1
  Si  Si2  1  0.44437555  0.85291801  0.05725861  1
  Si  Si3  1  0.44274139  0.64708199  0.05562445  1
  Si  Si4  1  0.05562445  0.44274139  0.64708199  1
  Si  Si5  1  0.64708199  0.05562445  0.44274139  1
  Si  Si6  1  0.94274139  0.55562445  0.14708199  1
  Si  Si7  1  0.14708199  0.94274139  0.55562445  1
  Si  Si8  1  0.55562445  0.14708199  0.94274139  1
  Si  Si9  1  0.55725861  0.35291801  0.94437555  1
  Si  Si10  1  0.94437555  0.55725861  0.35291801  1
  Si  Si11  1  0.35291801  0.94437555  0.55725861  1
  Pb  Pb0  1  0.25000000  0.25000000  0.25000000  1
  Pb  Pb1  1  0.75000000  0.75000000  0.75000000  1
  Pb  Pb2  1  0.15973485  0.15973485  0.15973485  1
  Pb  Pb3  1  0.34026515  0.34026515  0.34026515  1
  Pb  Pb4  1  0.84026515  0.84026515  0.84026515  1
  Pb  Pb5  1  0.65973485  0.65973485  0.65973485  1
  Pb  Pb6  1  0.79533693  0.30811452  0.01093570  1
  Pb  Pb7  1  0.01093570  0.79533693  0.30811452  1
  Pb  Pb8  1  0.30811452  0.01093570  0.79533693  1
  Pb  Pb9  1  0.70466307  0.48906430  0.19188548  1
  Pb  Pb10  1  0.19188548  0.70466307  0.48906430  1
  Pb  Pb11  1  0.48906430  0.19188548  0.70466307  1
  Pb  Pb12  1  0.20466307  0.69188548  0.98906430  1
  Pb  Pb13  1  0.98906430  0.20466307  0.69188548  1
  Pb  Pb14  1  0.69188548  0.98906430  0.20466307  1
  Pb  Pb15  1  0.29533693  0.51093570  0.80811452  1
  Pb  Pb16  1  0.80811452  0.29533693  0.51093570  1
  Pb  Pb17  1  0.51093570  0.80811452  0.29533693  1
  O  O0  1  0.91561723  0.39450106  0.01640404  1
  O  O1  1  0.01640404  0.91561723  0.39450106  1
  O  O2  1  0.39450106  0.01640404  0.91561723  1
  O  O3  1  0.58438277  0.48359596  0.10549894  1
  O  O4  1  0.10549894  0.58438277  0.48359596  1
  O  O5  1  0.48359596  0.10549894  0.58438277  1
  O  O6  1  0.08438277  0.60549894  0.98359596  1
  O  O7  1  0.98359596  0.08438277  0.60549894  1
  O  O8  1  0.60549894  0.98359596  0.08438277  1
  O  O9  1  0.41561723  0.51640404  0.89450106  1
  O  O10  1  0.89450106  0.41561723  0.51640404  1
  O  O11  1  0.51640404  0.89450106  0.41561723  1
  O  O12  1  0.00658344  0.36605263  0.24958096  1
  O  O13  1  0.24958096  0.00658344  0.36605263  1
  O  O14  1  0.36605263  0.24958096  0.00658344  1
  O  O15  1  0.49341656  0.25041904  0.13394737  1
  O  O16  1  0.13394737  0.49341656  0.25041904  1
  O  O17  1  0.12294826  0.80399619  0.62286487  1
  O  O18  1  0.25041904  0.13394737  0.49341656  1
  O  O19  1  0.75041904  0.99341656  0.63394737  1
  O  O20  1  0.63394737  0.75041904  0.99341656  1
  O  O21  1  0.50658344  0.74958096  0.86605263  1
  O  O22  1  0.86605263  0.50658344  0.74958096  1
  O  O23  1  0.74958096  0.86605263  0.50658344  1
  O  O24  1  0.87705174  0.19600381  0.37713513  1
  O  O25  1  0.37713513  0.87705174  0.19600381  1
  O  O26  1  0.19600381  0.37713513  0.87705174  1
  O  O27  1  0.62294826  0.12286487  0.30399619  1
  O  O28  1  0.30399619  0.62294826  0.12286487  1
  O  O29  1  0.12286487  0.30399619  0.62294826  1
  O  O30  1  0.13196125  0.36803875  0.75000000  1
  O  O31  1  0.36803875  0.75000000  0.13196125  1
  O  O32  1  0.75000000  0.13196125  0.36803875  1
  O  O33  1  0.86803875  0.63196125  0.25000000  1
  O  O34  1  0.63196125  0.25000000  0.86803875  1
  O  O35  1  0.25000000  0.86803875  0.63196125  1
  O  O36  1  0.87713513  0.69600381  0.37705174  1
  O  O37  1  0.69600381  0.37705174  0.87713513  1
  O  O38  1  0.37705174  0.87713513  0.69600381  1
  O  O39  1  0.80399619  0.62286487  0.12294826  1
  O  O40  1  0.62286487  0.12294826  0.80399619  1
  O  O41  1  0.99341656  0.63394737  0.75041904  1
loop_
_geom_bond_atom_site_label_1
_geom_bond_atom_site_label_2
_geom_bond_distance
_geom_bond_site_symmetry_2
O0 Si0 1.627648 1_654
O0 Pb9 2.202285 1_555
O1 Si1 1.627648 1_465
O1 Pb10 2.202285 1_555
O2 Si2 1.627648 1_546
O2 Pb11 2.202285 1_555
O3 Si3 1.627648 1_555
O3 Pb6 2.202285 1_555
O4 Si4 1.627648 1_555
O4 Pb7 2.202285 1_555
O5 Si5 1.627648 1_555
O5 Pb8 2.202285 1_555
O6 Si6 1.627648 1_456
O6 Pb15 2.202285 1_555
O7 Si7 1.627648 1_645
O7 Pb16 2.202285 1_555
O8 Si8 1.627648 1_564
O8 Pb17 2.202285 1_555
O9 Si9 1.627648 1_555
O9 Pb12 2.202285 1_555
O10 Si10 1.627648 1_555
O10 Pb13 2.202285 1_555
O11 Si11 1.627648 1_555
O11 Pb14 2.202285 1_555
O12 Si6 1.635927 1_455
O12 Pb16 2.408164 1_455
O12 Pb0 2.485542 1_555
O12 Pb2 2.620164 1_555
O13 Si7 1.635927 1_545
O13 Pb17 2.408164 1_545
O13 Pb0 2.485542 1_555
O13 Pb2 2.620164 1_555
O14 Si8 1.635927 1_554
O14 Pb15 2.408164 1_554
O14 Pb0 2.485542 1_555
O14 Pb2 2.620164 1_555
O15 Si9 1.635927 1_554
O15 Pb14 2.408164 1_545
O15 Pb0 2.485542 1_555
O15 Pb3 2.620164 1_555
O16 Si10 1.635927 1_455
O16 Pb12 2.408164 1_554
O16 Pb0 2.485542 1_555
O16 Pb3 2.620164 1_555
O17 Si7 1.618344 1_555
O17 Pb10 2.388001 1_555
O17 Pb4 2.593699 1_455
O18 Si11 1.635927 1_545
O18 Pb13 2.408164 1_455
O18 Pb0 2.485542 1_555
O18 Pb3 2.620164 1_555
O19 Si1 1.635927 1_565
O19 Pb11 2.408164 1_565
O19 Pb1 2.485542 1_555
O19 Pb4 2.620164 1_555
O20 Si2 1.635927 1_556
O20 Pb9 2.408164 1_556
O20 Pb1 2.485542 1_555
O20 Pb4 2.620164 1_555
O21 Si3 1.635927 1_556
O21 Pb8 2.408164 1_565
O21 Pb1 2.485542 1_555
O21 Pb5 2.620164 1_555
O22 Si4 1.635927 1_655
O22 Pb6 2.408164 1_556
O22 Pb1 2.485542 1_555
O22 Pb5 2.620164 1_555
O23 Si5 1.635927 1_565
O23 Pb7 2.408164 1_655
O23 Pb1 2.485542 1_555
O23 Pb5 2.620164 1_555
O24 Si1 1.618344 1_555
O24 Pb16 2.388001 1_555
O24 Pb2 2.593699 1_655
O25 Si2 1.618344 1_555
O25 Pb17 2.388000 1_555
O25 Pb2 2.593699 1_565
O26 Si0 1.618344 1_555
O26 Pb15 2.388000 1_555
O26 Pb2 2.593700 1_556
O27 Si5 1.618344 1_555
O27 Pb14 2.388000 1_545
O27 Pb3 2.593699 1_555
O28 Si3 1.618344 1_555
O28 Pb12 2.388001 1_554
O28 Pb3 2.593699 1_555
O29 Si4 1.618344 1_555
O29 Pb13 2.388000 1_455
O29 Pb3 2.593700 1_555
O30 Si0 1.662810 1_555
O30 Si4 1.662810 1_555
O31 Si3 1.662810 1_555
O31 Si2 1.662810 1_555
O32 Si1 1.662810 1_555
O32 Si5 1.662810 1_555
O33 Si6 1.662810 1_555
O33 Si10 1.662810 1_555
O34 Si9 1.662810 1_555
O34 Si8 1.662810 1_555
O35 Si7 1.662810 1_555
O35 Si11 1.662810 1_555
O36 Si10 1.618344 1_555
O36 Pb7 2.388000 1_655
O36 Pb5 2.593700 1_555
O37 Si9 1.618344 1_555
O37 Pb6 2.388001 1_556
O37 Pb5 2.593699 1_555
O38 Si11 1.618344 1_555
O38 Pb8 2.388000 1_565
O38 Pb5 2.593699 1_555
O39 Si6 1.618344 1_555
O39 Pb9 2.388000 1_555
O39 Pb4 2.593700 1_554
O40 Si8 1.618344 1_555
O40 Pb11 2.388000 1_555
O40 Pb4 2.593699 1_545
O41 Si0 1.635927 1_655
O41 Pb10 2.408164 1_655
O41 Pb1 2.485542 1_555
O41 Pb4 2.620164 1_555
