# generated using pymatgen
data_DySiPt
_symmetry_space_group_name_H-M   'P 1'
_cell_length_a   4.27969379
_cell_length_b   6.99434472
_cell_length_c   7.42255227
_cell_angle_alpha   90.00000000
_cell_angle_beta   90.00000000
_cell_angle_gamma   90.00000000
_symmetry_Int_Tables_number   1
_chemical_formula_structural   DySiPt
_chemical_formula_sum   'Dy4 Si4 Pt4'
_cell_volume   222.18410895
_cell_formula_units_Z   4
loop_
 _symmetry_equiv_pos_site_id
 _symmetry_equiv_pos_as_xyz
  1  'x, y, z'
loop_
 _atom_site_type_symbol
 _atom_site_label
 _atom_site_symmetry_multiplicity
 _atom_site_fract_x
 _atom_site_fract_y
 _atom_site_fract_z
 _atom_site_occupancy
  Dy  Dy0  1  0.75000000  0.50360700  0.20181671  1
  Dy  Dy1  1  0.25000000  0.99639300  0.70181671  1
  Dy  Dy2  1  0.75000000  0.00360700  0.29818329  1
  Dy  Dy3  1  0.25000000  0.49639300  0.79818329  1
  Si  Si0  1  0.25000000  0.81329801  0.08713760  1
  Si  Si1  1  0.25000000  0.31329801  0.41286240  1
  Si  Si2  1  0.75000000  0.18670199  0.91286240  1
  Si  Si3  1  0.75000000  0.68670199  0.58713760  1
  Pt  Pt0  1  0.25000000  0.70036710  0.41533175  1
  Pt  Pt1  1  0.25000000  0.20036710  0.08466825  1
  Pt  Pt2  1  0.75000000  0.79963290  0.91533175  1
  Pt  Pt3  1  0.75000000  0.29963290  0.58466825  1
loop_
_geom_bond_atom_site_label_1
_geom_bond_atom_site_label_2
_geom_bond_distance
_geom_bond_site_symmetry_2
Dy0 Si1 2.967263 1_555
Dy0 Si1 2.967263 1_655
Dy0 Pt2 2.967960 1_554
Dy0 Pt0 2.997427 1_655
Dy0 Pt0 2.997427 1_555
Dy0 Si2 3.084337 1_554
Dy0 Si3 3.133685 1_555
Dy0 Pt1 3.135847 1_655
Dy0 Pt1 3.135847 1_555
Dy0 Si0 3.161556 1_655
Dy0 Si0 3.161556 1_555
Dy0 Pt3 3.179754 1_555
Dy1 Si2 2.967263 1_565
Dy1 Si2 2.967263 1_465
Dy1 Pt0 2.967960 1_555
Dy1 Pt2 2.997427 1_455
Dy1 Pt2 2.997427 1_555
Dy1 Si1 3.084337 1_565
Dy1 Si0 3.133685 1_556
Dy1 Pt3 3.135847 1_465
Dy1 Pt3 3.135847 1_565
Dy1 Si3 3.161556 1_455
Dy1 Si3 3.161556 1_555
Dy1 Pt1 3.179754 1_566
Dy2 Si0 2.967263 1_645
Dy2 Si0 2.967263 1_545
Dy2 Pt3 2.967960 1_555
Dy2 Pt1 2.997427 1_555
Dy2 Pt1 2.997427 1_655
Dy2 Si3 3.084337 1_545
Dy2 Si2 3.133685 1_554
Dy2 Pt0 3.135847 1_545
Dy2 Pt0 3.135847 1_645
Dy2 Si1 3.161556 1_555
Dy2 Si1 3.161556 1_655
Dy2 Pt2 3.179754 1_544
Dy3 Si3 2.967263 1_455
Dy3 Si3 2.967263 1_555
Dy3 Pt1 2.967960 1_556
Dy3 Pt3 2.997427 1_455
Dy3 Pt3 2.997427 1_555
Dy3 Si0 3.084337 1_556
Dy3 Si1 3.133685 1_555
Dy3 Pt2 3.135847 1_555
Dy3 Pt2 3.135847 1_455
Dy3 Si2 3.161556 1_455
Dy3 Si2 3.161556 1_555
Dy3 Pt0 3.179754 1_555
Pt0 Si3 2.492852 1_555
Pt0 Si3 2.492852 1_455
Pt0 Si0 2.560896 1_555
Pt0 Si1 2.707357 1_555
Pt1 Si2 2.492852 1_554
Pt1 Si2 2.492852 1_454
Pt1 Si1 2.560896 1_555
Pt1 Si0 2.707357 1_545
Pt2 Si0 2.492852 1_556
Pt2 Si0 2.492852 1_656
Pt2 Si3 2.560896 1_555
Pt2 Si2 2.707357 1_565
Pt3 Si1 2.492852 1_555
Pt3 Si1 2.492852 1_655
Pt3 Si2 2.560896 1_555
Pt3 Si3 2.707357 1_555
