# generated using pymatgen
data_MgCr3(FeO4)2
_symmetry_space_group_name_H-M   'P 1'
_cell_length_a   6.03199844
_cell_length_b   6.05674747
_cell_length_c   6.04384148
_cell_angle_alpha   59.68758611
_cell_angle_beta   60.06531102
_cell_angle_gamma   60.13545801
_symmetry_Int_Tables_number   1
_chemical_formula_structural   MgCr3(FeO4)2
_chemical_formula_sum   'Mg1 Cr3 Fe2 O8'
_cell_volume   155.99717819
_cell_formula_units_Z   1
loop_
 _symmetry_equiv_pos_site_id
 _symmetry_equiv_pos_as_xyz
  1  'x, y, z'
loop_
 _atom_site_type_symbol
 _atom_site_label
 _atom_site_symmetry_multiplicity
 _atom_site_fract_x
 _atom_site_fract_y
 _atom_site_fract_z
 _atom_site_occupancy
  Mg  Mg0  1  0.24955600  0.24958800  0.25130000  1
  Cr  Cr0  1  0.62476000  0.12528300  0.62518400  1
  Cr  Cr1  1  0.12550900  0.62464900  0.62467100  1
  Cr  Cr2  1  0.62515500  0.62464400  0.62468000  1
  Fe  Fe0  1  0.00077600  0.00192600  0.99656400  1
  Fe  Fe1  1  0.62364600  0.62448600  0.12823800  1
  O  O0  1  0.84244300  0.38543100  0.38831400  1
  O  O1  1  0.38380800  0.38543300  0.38832000  1
  O  O2  1  0.38556300  0.84249800  0.38636600  1
  O  O3  1  0.38697300  0.38493500  0.84111800  1
  O  O4  1  0.86112900  0.86512800  0.41261300  1
  O  O5  1  0.86179400  0.41292500  0.86347400  1
  O  O6  1  0.41286000  0.86153300  0.85957700  1
  O  O7  1  0.86602500  0.86153700  0.85958300  1
loop_
_geom_bond_atom_site_label_1
_geom_bond_atom_site_label_2
_geom_bond_distance
_geom_bond_site_symmetry_2
Mg0 O0 2.009774 1_455
Mg0 O1 2.009776 1_555
Mg0 O2 2.010212 1_545
Mg0 O3 2.019741 1_554
Cr0 O6 2.033342 1_545
Cr0 O7 2.033394 1_545
Cr0 O4 2.035718 1_545
Cr0 O1 2.040452 1_555
Cr0 O0 2.040515 1_555
Cr0 O3 2.047155 1_555
Cr1 O7 2.031277 1_455
Cr1 O5 2.032205 1_455
Cr1 O4 2.037036 1_455
Cr1 O2 2.040629 1_555
Cr1 O3 2.041596 1_555
Cr1 O1 2.046230 1_555
Cr2 O6 2.031220 1_555
Cr2 O5 2.032175 1_555
Cr2 O4 2.037124 1_555
Cr2 O2 2.040635 1_555
Cr2 O3 2.041513 1_555
Cr2 O0 2.046274 1_555
Fe0 O5 2.029772 1_455
Fe0 O6 2.034435 1_545
Fe0 O7 2.034597 1_445
Fe0 O4 2.048659 1_446
Fe1 O0 2.044250 1_555
Fe1 O1 2.044331 1_555
Fe1 O2 2.048101 1_555
Fe1 O7 2.050225 1_554
Fe1 O6 2.050291 1_554
Fe1 O5 2.051475 1_554
