# generated using pymatgen
data_Na5Y3ZrSi3(SO8)3
_symmetry_space_group_name_H-M   'P 1'
_cell_length_a   9.34650283
_cell_length_b   9.35283594
_cell_length_c   23.67742417
_cell_angle_alpha   90.44973842
_cell_angle_beta   89.96181700
_cell_angle_gamma   119.99006857
_symmetry_Int_Tables_number   1
_chemical_formula_structural   Na5Y3ZrSi3(SO8)3
_chemical_formula_sum   'Na15 Y9 Zr3 Si9 S9 O72'
_cell_volume   1792.60477034
_cell_formula_units_Z   3
loop_
 _symmetry_equiv_pos_site_id
 _symmetry_equiv_pos_as_xyz
  1  'x, y, z'
loop_
 _atom_site_type_symbol
 _atom_site_label
 _atom_site_symmetry_multiplicity
 _atom_site_fract_x
 _atom_site_fract_y
 _atom_site_fract_z
 _atom_site_occupancy
  Na  Na0  1  0.65215561  0.01181125  0.25784146  1
  Na  Na1  1  0.00009074  0.61926995  0.24719595  1
  Na  Na2  1  0.62812951  0.63656978  0.74475928  1
  Na  Na3  1  0.37020933  0.01447455  0.75885779  1
  Na  Na4  1  0.66676293  0.94918775  0.58468629  1
  Na  Na5  1  0.97851824  0.68811331  0.92249903  1
  Na  Na6  1  0.68608850  0.01090175  0.91138167  1
  Na  Na7  1  0.95841468  0.30185584  0.40916201  1
  Na  Na8  1  0.70746284  0.68822254  0.42573208  1
  Na  Na9  1  0.99507480  0.96788390  0.50151256  1
  Na  Na10  1  0.00781062  0.97798921  0.99814020  1
  Na  Na11  1  0.64090948  0.31486043  0.83123809  1
  Na  Na12  1  0.67121586  0.31750509  0.33502270  1
  Na  Na13  1  0.29438583  0.63029809  0.16029809  1
  Na  Na14  1  0.33636286  0.63531040  0.66862832  1
  Y  Y0  1  0.99891555  0.00321560  0.35154621  1
  Y  Y1  1  0.00959905  0.01370726  0.84986246  1
  Y  Y2  1  0.99598307  0.00149824  0.65163044  1
  Y  Y3  1  0.00277364  0.00401362  0.14335741  1
  Y  Y4  1  0.66375892  0.33843451  0.68524358  1
  Y  Y5  1  0.67866211  0.33993305  0.18050185  1
  Y  Y6  1  0.33262722  0.67489138  0.01821390  1
  Y  Y7  1  0.33651028  0.67333519  0.51658558  1
  Y  Y8  1  0.32180386  0.66270506  0.31988609  1
  Zr  Zr0  1  0.66162646  0.34539062  0.97995892  1
  Zr  Zr1  1  0.67313526  0.34296262  0.48248057  1
  Zr  Zr2  1  0.35436253  0.67150420  0.81685374  1
  Si  Si0  1  0.00093906  0.30001653  0.25066224  1
  Si  Si1  1  0.29746420  0.30232687  0.74937266  1
  Si  Si2  1  0.69772456  0.00025742  0.75164162  1
  Si  Si3  1  0.66825192  0.63621847  0.58387001  1
  Si  Si4  1  0.96649116  0.63238008  0.08313442  1
  Si  Si5  1  0.63259721  0.66825511  0.91807381  1
  Si  Si6  1  0.33646066  0.96394840  0.91620698  1
  Si  Si7  1  0.63218570  0.97029102  0.41631545  1
  Si  Si8  1  0.02995259  0.66562861  0.41735089  1
  S  S0  1  0.29676922  0.99965236  0.24960102  1
  S  S1  1  0.70331234  0.70458342  0.24968431  1
  S  S2  1  0.00647911  0.70507155  0.75176206  1
  S  S3  1  0.95831292  0.33263467  0.58174370  1
  S  S4  1  0.37507016  0.04391848  0.58186672  1
  S  S5  1  0.66731073  0.04111832  0.08174074  1
  S  S6  1  0.37493005  0.33350739  0.08233028  1
  S  S7  1  0.03602426  0.37634849  0.91742303  1
  S  S8  1  0.33932260  0.37123741  0.41795157  1
  O  O0  1  0.21883885  0.01828190  0.30112739  1
  O  O1  1  0.80445227  0.77825196  0.30192757  1
  O  O2  1  0.97698379  0.19737263  0.30966859  1
  O  O3  1  0.21952637  0.17790385  0.80231069  1
  O  O4  1  0.97646975  0.77841868  0.80298162  1
  O  O5  1  0.80102741  0.01733963  0.80873049  1
  O  O6  1  0.77612659  0.96155961  0.69490649  1
  O  O7  1  0.19055449  0.21467556  0.69240321  1
  O  O8  1  0.03372371  0.81108412  0.70190582  1
  O  O9  1  0.78971642  0.80862867  0.20066451  1
  O  O10  1  0.01012790  0.19363813  0.19750232  1
  O  O11  1  0.19257483  0.97534579  0.19949453  1
  O  O12  1  0.87694619  0.34953257  0.63204690  1
  O  O13  1  0.47143636  0.11819569  0.63433215  1
  O  O14  1  0.65883383  0.53571216  0.64065419  1
  O  O15  1  0.87896267  0.53477549  0.14217047  1
  O  O16  1  0.64862170  0.11752418  0.13480976  1
  O  O17  1  0.46888597  0.34614948  0.13394832  1
  O  O18  1  0.46238449  0.31651832  0.03167388  1
  O  O19  1  0.84211044  0.51961568  0.02842926  1
  O  O20  1  0.67851112  0.14204256  0.03209612  1
  O  O21  1  0.46749879  0.14748881  0.53253772  1
  O  O22  1  0.67483156  0.52658951  0.52738207  1
  O  O23  1  0.85470105  0.31504486  0.52998106  1
  O  O24  1  0.53885269  0.69271076  0.97058966  1
  O  O25  1  0.13415352  0.45005792  0.96875992  1
  O  O26  1  0.30038499  0.84054253  0.96857401  1
  O  O27  1  0.54841617  0.84668179  0.46981389  1
  O  O28  1  0.31069597  0.44734369  0.46796263  1
  O  O29  1  0.14266672  0.67901885  0.47058991  1
  O  O30  1  0.09848117  0.62245452  0.35926704  1
  O  O31  1  0.53063610  0.88948102  0.35710490  1
  O  O32  1  0.37028880  0.47578582  0.36741585  1
  O  O33  1  0.11672443  0.48022642  0.86716029  1
  O  O34  1  0.36422092  0.87374364  0.85879513  1
  O  O35  1  0.52070751  0.64175500  0.85967084  1
  O  O36  1  0.99530811  0.81960047  0.41234904  1
  O  O37  1  0.82174827  0.99760588  0.41308768  1
  O  O38  1  0.19186431  0.20621255  0.41059303  1
  O  O39  1  0.00555613  0.20613285  0.91167824  1
  O  O40  1  0.17173399  0.98019863  0.91099486  1
  O  O41  1  0.81788457  0.82859592  0.91241506  1
  O  O42  1  0.96341266  0.17580685  0.58331272  1
  O  O43  1  0.20966806  0.02577388  0.58396081  1
  O  O44  1  0.83371468  0.82239872  0.58109160  1
  O  O45  1  0.97731536  0.81307406  0.08282672  1
  O  O46  1  0.82028807  0.03021399  0.08459901  1
  O  O47  1  0.20984775  0.18237658  0.08352251  1
  O  O48  1  0.66068345  0.15276845  0.74536439  1
  O  O49  1  0.49002618  0.33670592  0.74615703  1
  O  O50  1  0.85779282  0.54025098  0.74434097  1
  O  O51  1  0.68320790  0.53690823  0.24450160  1
  O  O52  1  0.82669485  0.31271019  0.24799710  1
  O  O53  1  0.46566836  0.14504080  0.24450538  1
  O  O54  1  0.65539207  0.50142571  0.92328476  1
  O  O55  1  0.86829361  0.36372370  0.92252158  1
  O  O56  1  0.51540953  0.14119284  0.92541720  1
  O  O57  1  0.65523850  0.15697278  0.42680549  1
  O  O58  1  0.48954017  0.35527887  0.42470003  1
  O  O59  1  0.84024817  0.49521286  0.42519911  1
  O  O60  1  0.35952680  0.48227412  0.07815392  1
  O  O61  1  0.14524381  0.64220863  0.08085902  1
  O  O62  1  0.52134172  0.87363449  0.07906477  1
  O  O63  1  0.36444112  0.87976476  0.57694573  1
  O  O64  1  0.50419078  0.65910833  0.58072400  1
  O  O65  1  0.12460976  0.47664772  0.57651547  1
  O  O66  1  0.31375280  0.84818411  0.25360270  1
  O  O67  1  0.54090044  0.69563306  0.25492851  1
  O  O68  1  0.15994395  0.49059514  0.25156143  1
  O  O69  1  0.31541599  0.48761056  0.75828908  1
  O  O70  1  0.15671486  0.69057032  0.75828394  1
  O  O71  1  0.50905561  0.82695651  0.75664951  1
loop_
_geom_bond_atom_site_label_1
_geom_bond_atom_site_label_2
_geom_bond_distance
_geom_bond_site_symmetry_2
Na0 O52 2.460854 1_555
Na0 O67 2.598783 1_545
Na0 O31 2.619643 1_545
Na0 O53 2.620809 1_555
Na0 O66 2.741353 1_545
Na0 O2 2.905046 1_555
Na1 O68 2.343281 1_555
Na1 O52 2.490621 1_455
Na1 O66 2.630998 1_555
Na1 O51 2.662345 1_455
Na1 O15 2.677416 1_455
Na1 O30 2.804023 1_555
Na2 O49 2.432130 1_555
Na2 O71 2.541938 1_555
Na2 O69 2.553670 1_555
Na2 O14 2.698387 1_555
Na2 O50 2.711510 1_555
Na2 O6 2.897694 1_555
Na2 O35 2.907951 1_555
Na3 O48 2.375003 1_555
Na3 O71 2.652642 1_545
Na3 O49 2.658411 1_555
Na3 O70 2.667495 1_545
Na3 O34 2.703674 1_545
Na3 O3 2.739317 1_555
Na4 O64 2.356550 1_555
Na4 O44 2.386719 1_555
Na4 O42 2.511379 1_565
Na4 O63 2.569857 1_555
Na4 O6 2.783789 1_555
Na4 O27 2.905744 1_555
Na5 O40 2.424343 1_655
Na5 O41 2.452535 1_555
Na5 O54 2.626560 1_555
Na5 O55 2.672378 1_555
Na5 O26 2.822248 1_655
Na5 O19 2.906724 1_556
Na5 O4 2.962369 1_555
Na6 O56 2.465065 1_555
Na6 O41 2.554551 1_545
Na6 O39 2.607514 1_655
Na6 O5 2.645610 1_555
Na6 O55 2.868439 1_555
Na6 O34 2.892740 1_545
Na6 O24 2.946922 1_545
Na7 O37 2.471429 1_545
Na7 O57 2.491770 1_555
Na7 O59 2.572897 1_555
Na7 O2 2.582147 1_555
Na7 O38 2.741168 1_655
Na7 O30 2.868767 1_655
Na8 O36 2.355505 1_555
Na8 O37 2.554768 1_555
Na8 O59 2.653011 1_555
Na8 O58 2.739381 1_555
Na8 O27 2.769786 1_555
Na8 O22 2.786807 1_555
Na9 O44 2.379343 1_555
Na9 O36 2.517434 1_555
Na9 O43 2.651397 1_665
Na9 O37 2.747543 1_555
Na9 O42 2.852367 1_565
Na9 O38 2.992885 1_665
Na10 O45 2.467644 1_456
Na10 O40 2.563224 1_555
Na10 O41 2.589216 1_455
Na10 O47 2.764561 1_566
Na10 O46 2.887306 1_466
Na10 O39 2.976256 1_565
Na11 O49 2.527253 1_555
Na11 O48 2.588023 1_555
Na11 O56 2.671220 1_555
Na11 O54 2.741811 1_555
Na11 O55 2.901146 1_555
Na11 O50 2.928631 1_555
Na12 O52 2.533634 1_555
Na12 O57 2.612653 1_555
Na12 O59 2.672268 1_555
Na12 O53 2.781966 1_555
Na12 O58 2.846013 1_555
Na12 O51 2.942107 1_555
Na13 O61 2.378103 1_555
Na13 O68 2.520904 1_555
Na13 O60 2.620888 1_555
Na13 O62 2.935269 1_555
Na13 O66 2.937230 1_555
Na13 O67 3.046348 1_555
Na14 O69 2.495716 1_555
Na14 O64 2.548717 1_555
Na14 O71 2.686108 1_555
Na14 O65 2.809759 1_555
Na14 O70 2.904883 1_555
O0 S0 1.473659 1_545
O0 Y0 2.319468 1_455
O1 S1 1.495165 1_555
O1 Y0 2.291667 1_565
O2 Si0 1.652105 1_655
O2 Y0 2.173344 1_555
O3 Si1 1.621786 1_555
O3 Y1 2.118431 1_555
O4 S2 1.482858 1_655
O4 Y1 2.334874 1_665
O5 Si2 1.621429 1_555
O5 Y1 2.195247 1_655
O6 Si2 1.651888 1_565
O6 Y2 2.155897 1_565
O7 Si1 1.629584 1_555
O7 Y2 2.135833 1_455
O8 S2 1.485605 1_555
O8 Y2 2.318397 1_465
O9 S1 1.475509 1_555
O9 Y3 2.354445 1_665
O10 Si0 1.627022 1_555
O10 Y3 2.153191 1_555
O11 S0 1.477694 1_555
O11 Y3 2.338772 1_565
O12 S3 1.462164 1_555
O12 Y4 2.315057 1_555
O13 S4 1.483053 1_555
O13 Y4 2.278075 1_555
O14 Si3 1.623587 1_555
O14 Y4 2.153305 1_555
O15 Si4 1.651798 1_555
O15 Y5 2.064587 1_555
O16 S5 1.493475 1_555
O16 Y5 2.226548 1_555
O17 S6 1.474528 1_555
O17 Y5 2.276063 1_555
O18 S6 1.502503 1_555
O18 Zr0 2.130621 1_554
O19 Si4 1.701876 1_555
O19 Zr0 2.010781 1_554
O20 S5 1.483956 1_555
O20 Zr0 2.345880 1_554
O21 S4 1.492870 1_555
O21 Zr1 2.226974 1_555
O22 Si3 1.698641 1_555
O22 Zr1 2.006054 1_555
O23 S3 1.518597 1_555
O23 Zr1 2.159411 1_555
O24 Si5 1.600184 1_555
O24 Y6 2.166430 1_556
O25 S7 1.466353 1_555
O25 Y6 2.301900 1_556
O26 Si6 1.617437 1_555
O26 Y6 2.090074 1_556
O27 Si7 1.634285 1_555
O27 Y7 2.143084 1_555
O28 S8 1.468731 1_555
O28 Y7 2.302942 1_555
O29 Si8 1.606837 1_555
O29 Y7 2.138029 1_555
O30 Si8 1.647224 1_555
O30 Y8 2.141333 1_555
O31 Si7 1.644859 1_555
O31 Y8 2.217943 1_555
O32 S8 1.485475 1_555
O32 Y8 2.313373 1_555
O33 S7 1.487789 1_555
O33 Zr2 2.368568 1_555
O34 Si6 1.681467 1_555
O34 Zr2 2.090188 1_555
O35 Si5 1.674733 1_555
O35 Zr2 1.990332 1_555
O36 Si8 1.631434 1_655
O36 Y0 2.236917 1_565
O37 Si7 1.660670 1_555
O37 Y0 2.186124 1_565
O38 S8 1.477027 1_555
O38 Y0 2.313076 1_455
O39 S7 1.475632 1_555
O39 Y1 2.325776 1_555
O40 Si6 1.625802 1_555
O40 Y1 2.230382 1_565
O41 Si5 1.634788 1_555
O41 Y1 2.310238 1_665
O42 S3 1.491932 1_555
O42 Y2 2.430076 1_555
O43 S4 1.469326 1_555
O43 Y2 2.481067 1_455
O44 Si3 1.654597 1_555
O44 Y2 2.305500 1_565
O45 Si4 1.641847 1_555
O45 Y3 2.198945 1_665
O46 S5 1.485036 1_555
O46 Y3 2.308904 1_655
O47 S6 1.483147 1_555
O47 Y3 2.311197 1_555
O48 Si2 1.635137 1_555
O48 Y4 2.243099 1_555
O49 Si1 1.664352 1_555
O49 Y4 2.165207 1_555
O50 S2 1.480851 1_655
O50 Y4 2.312909 1_555
O51 S1 1.487332 1_555
O51 Y5 2.360102 1_555
O52 Si0 1.692298 1_655
O52 Y5 2.212378 1_555
O53 S0 1.487279 1_545
O53 Y5 2.448248 1_555
O54 Si5 1.682447 1_555
O54 Zr0 2.012388 1_555
O55 S7 1.516938 1_655
O55 Zr0 2.297630 1_555
O56 Si6 1.678113 1_545
O56 Zr0 2.130078 1_555
O57 Si7 1.665480 1_545
O57 Zr1 2.113084 1_555
O58 S8 1.493057 1_555
O58 Zr1 2.243373 1_555
O59 Si8 1.702279 1_655
O59 Zr1 2.027514 1_555
O60 S6 1.472720 1_555
O60 Y6 2.411698 1_555
O61 Si4 1.627592 1_455
O61 Y6 2.197575 1_555
O62 S5 1.476883 1_565
O62 Y6 2.307779 1_555
O63 S4 1.491754 1_565
O63 Y7 2.300349 1_555
O64 Si3 1.652656 1_555
O64 Y7 2.234942 1_555
O65 S3 1.467937 1_455
O65 Y7 2.390620 1_555
O66 S0 1.505998 1_555
O66 Y8 2.377291 1_555
O67 S1 1.483097 1_555
O67 Y8 2.454909 1_555
O68 Si0 1.654529 1_555
O68 Y8 2.241615 1_555
O69 Si1 1.667151 1_555
O69 Zr2 2.085863 1_555
O70 S2 1.484913 1_555
O70 Zr2 2.388336 1_555
O71 Si2 1.701817 1_565
O71 Zr2 2.040739 1_555
