# generated using pymatgen
data_Ca3AsBr3
_symmetry_space_group_name_H-M   'P 1'
_cell_length_a   5.93247235
_cell_length_b   5.93247235
_cell_length_c   5.93247235
_cell_angle_alpha   90.00000000
_cell_angle_beta   90.00000000
_cell_angle_gamma   90.00000000
_symmetry_Int_Tables_number   1
_chemical_formula_structural   Ca3AsBr3
_chemical_formula_sum   'Ca3 As1 Br3'
_cell_volume   208.78878558
_cell_formula_units_Z   1
loop_
 _symmetry_equiv_pos_site_id
 _symmetry_equiv_pos_as_xyz
  1  'x, y, z'
loop_
 _atom_site_type_symbol
 _atom_site_label
 _atom_site_symmetry_multiplicity
 _atom_site_fract_x
 _atom_site_fract_y
 _atom_site_fract_z
 _atom_site_occupancy
  Ca  Ca0  1  0.50000000  -0.00000000  -0.00000000  1
  Ca  Ca1  1  -0.00000000  0.50000000  -0.00000000  1
  Ca  Ca2  1  -0.00000000  0.00000000  0.50000000  1
  As  As0  1  -0.00000000  -0.00000000  -0.00000000  1
  Br  Br0  1  0.00000000  0.50000000  0.50000000  1
  Br  Br1  1  0.50000000  0.00000000  0.50000000  1
  Br  Br2  1  0.50000000  0.50000000  0.00000000  1
loop_
_geom_bond_atom_site_label_1
_geom_bond_atom_site_label_2
_geom_bond_distance
_geom_bond_site_symmetry_2
As0 Ca1 2.966236 1_545
As0 Ca1 2.966236 1_555
As0 Ca0 2.966236 1_455
As0 Ca2 2.966236 1_555
As0 Ca0 2.966236 1_555
As0 Ca2 2.966236 1_554
Br0 Ca2 2.966236 1_565
Br0 Ca2 2.966236 1_555
Br0 Ca1 2.966236 1_556
Br0 Ca1 2.966236 1_555
Br1 Ca0 2.966236 1_556
Br1 Ca2 2.966236 1_655
Br1 Ca2 2.966236 1_555
Br1 Ca0 2.966236 1_555
Br2 Ca1 2.966236 1_655
Br2 Ca0 2.966236 1_565
Br2 Ca0 2.966236 1_555
Br2 Ca1 2.966236 1_555
