# generated using pymatgen
data_Na24Ca10Nb2Si9(SO8)9
_symmetry_space_group_name_H-M   'P 1'
_cell_length_a   9.53756690
_cell_length_b   9.50376624
_cell_length_c   22.95001496
_cell_angle_alpha   89.69488266
_cell_angle_beta   89.95122786
_cell_angle_gamma   120.02898437
_symmetry_Int_Tables_number   1
_chemical_formula_structural   Na24Ca10Nb2Si9(SO8)9
_chemical_formula_sum   'Na24 Ca10 Nb2 Si9 S9 O72'
_cell_volume   1800.98580936
_cell_formula_units_Z   1
loop_
 _symmetry_equiv_pos_site_id
 _symmetry_equiv_pos_as_xyz
  1  'x, y, z'
loop_
 _atom_site_type_symbol
 _atom_site_label
 _atom_site_symmetry_multiplicity
 _atom_site_fract_x
 _atom_site_fract_y
 _atom_site_fract_z
 _atom_site_occupancy
  Na  Na0  1  0.64549601  0.00246949  0.24655849  1
  Na  Na1  1  0.37560194  0.34264963  0.25856193  1
  Na  Na2  1  0.99579855  0.65889937  0.25195501  1
  Na  Na3  1  0.64801221  0.63962073  0.75528538  1
  Na  Na4  1  0.97830024  0.33688253  0.75584412  1
  Na  Na5  1  0.36291411  0.02639655  0.75765746  1
  Na  Na6  1  0.28925501  0.32920548  0.59185947  1
  Na  Na7  1  0.03232055  0.70786556  0.60032786  1
  Na  Na8  1  0.67136624  0.96082553  0.59284220  1
  Na  Na9  1  0.29381805  0.95919013  0.07534522  1
  Na  Na10  1  0.67028639  0.70648671  0.08761271  1
  Na  Na11  1  0.03571246  0.33200834  0.06823717  1
  Na  Na12  1  0.98405631  0.67719238  0.89968588  1
  Na  Na13  1  0.71765865  0.05565129  0.89641259  1
  Na  Na14  1  0.30825073  0.27075017  0.89999340  1
  Na  Na15  1  0.97092811  0.28201855  0.41957999  1
  Na  Na16  1  0.33931521  0.05880359  0.40494531  1
  Na  Na17  1  0.69356179  0.67734783  0.41043129  1
  Na  Na18  1  0.00035947  0.01764316  0.49264133  1
  Na  Na19  1  0.01302302  0.01159417  0.98181108  1
  Na  Na20  1  0.66801094  0.32298487  0.82434733  1
  Na  Na21  1  0.63925491  0.32141706  0.33261851  1
  Na  Na22  1  0.33781955  0.68021573  0.17024075  1
  Na  Na23  1  0.34042720  0.66508301  0.68013606  1
  Ca  Ca0  1  0.00261071  0.99900617  0.34662097  1
  Ca  Ca1  1  0.00247851  0.00110480  0.84374238  1
  Ca  Ca2  1  0.99978663  0.00652312  0.66819873  1
  Ca  Ca3  1  0.00121533  0.98739413  0.15945227  1
  Ca  Ca4  1  0.66436537  0.33143685  0.68553030  1
  Ca  Ca5  1  0.66054690  0.32939352  0.18420455  1
  Ca  Ca6  1  0.66723412  0.32482631  0.97378933  1
  Ca  Ca7  1  0.65727328  0.32967708  0.47719467  1
  Ca  Ca8  1  0.32818831  0.66726035  0.00915814  1
  Ca  Ca9  1  0.34144900  0.66736988  0.51423242  1
  Nb  Nb0  1  0.35631507  0.67780987  0.31910301  1
  Nb  Nb1  1  0.31780535  0.66719201  0.81650903  1
  Si  Si0  1  0.30818056  0.98947579  0.25129737  1
  Si  Si1  1  0.68922271  0.69016293  0.25123278  1
  Si  Si2  1  0.30956466  0.32045968  0.75036037  1
  Si  Si3  1  -0.00032905  0.69074200  0.75017019  1
  Si  Si4  1  0.68056140  0.98869027  0.75097402  1
  Si  Si5  1  0.03524328  0.36719683  0.91975213  1
  Si  Si6  1  0.33276236  0.96565058  0.92015699  1
  Si  Si7  1  0.64082292  0.97459640  0.41990621  1
  Si  Si8  1  0.32877453  0.36755856  0.41890405  1
  S  S0  1  0.01013296  0.31490134  0.24962816  1
  S  S1  1  0.96757689  0.33201729  0.58013974  1
  S  S2  1  0.35668462  0.02880097  0.58114640  1
  S  S3  1  0.67254739  0.64011958  0.58079246  1
  S  S4  1  0.96773812  0.63433762  0.08496777  1
  S  S5  1  0.67268378  0.02959199  0.08494535  1
  S  S6  1  0.36255690  0.33574779  0.08516017  1
  S  S7  1  0.62895074  0.66740634  0.91835721  1
  S  S8  1  0.04196616  0.66507001  0.41578400  1
  O  O0  1  0.22911831  0.02963361  0.30658656  1
  O  O1  1  0.79961159  0.77721852  0.30726569  1
  O  O2  1  0.98526684  0.21429869  0.30201411  1
  O  O3  1  0.22412944  0.19455979  0.80391366  1
  O  O4  1  0.96650540  0.77232351  0.80573115  1
  O  O5  1  0.80268917  0.02416126  0.80471031  1
  O  O6  1  0.74424975  0.94458509  0.69086443  1
  O  O7  1  0.19935688  0.25988036  0.69073312  1
  O  O8  1  0.04599998  0.80349386  0.69156733  1
  O  O9  1  0.75203109  0.80148575  0.19218692  1
  O  O10  1  0.03385864  0.23802699  0.19736634  1
  O  O11  1  0.19796772  0.94714978  0.19235713  1
  O  O12  1  0.87806153  0.33676210  0.63186343  1
  O  O13  1  0.45458891  0.11247542  0.63282301  1
  O  O14  1  0.66497579  0.54354682  0.63239815  1
  O  O15  1  0.88678421  0.54396195  0.13935192  1
  O  O16  1  0.65935955  0.10804555  0.13896542  1
  O  O17  1  0.45303971  0.34270940  0.13885916  1
  O  O18  1  0.44671936  0.32263339  0.03317531  1
  O  O19  1  0.87096717  0.54683760  0.03365199  1
  O  O20  1  0.68056949  0.12702509  0.03355325  1
  O  O21  1  0.44138986  0.12060391  0.52730111  1
  O  O22  1  0.67920583  0.55734298  0.52671347  1
  O  O23  1  0.87790080  0.32524040  0.52591507  1
  O  O24  1  0.55922815  0.68220800  0.97448100  1
  O  O25  1  0.12781396  0.43896453  0.98110755  1
  O  O26  1  0.32691685  0.88405368  0.98326285  1
  O  O27  1  0.55287677  0.87311158  0.47740742  1
  O  O28  1  0.30568220  0.44198225  0.47836596  1
  O  O29  1  0.13166605  0.68022930  0.46953363  1
  O  O30  1  0.13474637  0.65660369  0.36347692  1
  O  O31  1  0.51423693  0.84929296  0.36234283  1
  O  O32  1  0.32760357  0.49285261  0.36349520  1
  O  O33  1  0.16265462  0.49374364  0.86715945  1
  O  O34  1  0.33281929  0.83866276  0.86784609  1
  O  O35  1  0.52522184  0.65806118  0.86850873  1
  O  O36  1  0.02114329  0.80933619  0.41096043  1
  O  O37  1  0.81742878  0.99025434  0.41315154  1
  O  O38  1  0.17512044  0.18525409  0.41143236  1
  O  O39  1  0.00478699  0.18392600  0.91299477  1
  O  O40  1  0.16851648  0.97687744  0.91397647  1
  O  O41  1  0.79434717  0.81208609  0.91351239  1
  O  O42  1  0.98502739  0.18363382  0.58125459  1
  O  O43  1  0.19436106  0.01767136  0.58291939  1
  O  O44  1  0.82073109  0.80542331  0.58171522  1
  O  O45  1  0.98295940  0.79977107  0.08551475  1
  O  O46  1  0.82446142  0.01876497  0.08580450  1
  O  O47  1  0.19474275  0.19045065  0.08749461  1
  O  O48  1  0.64251724  0.13742197  0.74601699  1
  O  O49  1  0.49517950  0.35724598  0.74451854  1
  O  O50  1  0.85988692  0.50191803  0.74472389  1
  O  O51  1  0.65637796  0.50503404  0.24717450  1
  O  O52  1  0.86828518  0.33852356  0.24362869  1
  O  O53  1  0.49748649  0.13460538  0.24633987  1
  O  O54  1  0.63943759  0.51641592  0.91816329  1
  O  O55  1  0.86855596  0.37576521  0.91181462  1
  O  O56  1  0.49926313  0.14124852  0.90959504  1
  O  O57  1  0.64293333  0.14552731  0.40958059  1
  O  O58  1  0.50365654  0.37533916  0.40967383  1
  O  O59  1  0.88140941  0.51361509  0.41519098  1
  O  O60  1  0.35214098  0.48838374  0.08432278  1
  O  O61  1  0.13341671  0.65271814  0.08418571  1
  O  O62  1  0.52781192  0.86097687  0.08388282  1
  O  O63  1  0.33340554  0.86032570  0.58074588  1
  O  O64  1  0.52343584  0.65592733  0.58214532  1
  O  O65  1  0.13108122  0.48276350  0.58108100  1
  O  O66  1  0.31129556  0.81250424  0.26326903  1
  O  O67  1  0.49822803  0.66848767  0.26162847  1
  O  O68  1  0.15954254  0.48112445  0.25528942  1
  O  O69  1  0.32573063  0.50168903  0.76506262  1
  O  O70  1  0.17199694  0.67908090  0.76219069  1
  O  O71  1  0.50102783  0.82141910  0.76584709  1
loop_
_geom_bond_atom_site_label_1
_geom_bond_atom_site_label_2
_geom_bond_distance
_geom_bond_site_symmetry_2
Na0 O53 2.311714 1_555
Na0 O16 2.638515 1_555
Na0 O67 2.773553 1_545
Na0 O66 2.792365 1_545
Na0 O52 2.815133 1_555
Na0 O9 2.864219 1_545
Na0 O31 2.979352 1_545
Na1 O51 2.340806 1_555
Na1 O67 2.709213 1_555
Na1 O53 2.764997 1_555
Na1 O0 2.796240 1_555
Na1 O17 2.844045 1_555
Na1 O68 2.949152 1_555
Na1 O32 2.955610 1_555
Na2 O66 2.619510 1_655
Na2 O52 2.662073 1_555
Na2 O11 2.786066 1_655
Na2 O15 2.801867 1_555
Na2 O51 2.809709 1_555
Na2 O68 2.817632 1_655
Na2 O30 2.888164 1_655
Na2 O1 2.914452 1_555
Na3 O49 2.340962 1_555
Na3 O69 2.679496 1_555
Na3 O71 2.727143 1_555
Na3 O4 2.888840 1_555
Na3 O35 2.891266 1_555
Na3 O50 2.916225 1_555
Na3 O6 2.952623 1_555
Na3 O14 2.998042 1_555
Na4 O50 2.360051 1_555
Na4 O48 2.798255 1_555
Na4 O5 2.806253 1_555
Na4 O70 2.828941 1_655
Na4 O69 2.878940 1_655
Na5 O48 2.340019 1_555
Na5 O3 2.750680 1_555
Na5 O49 2.754680 1_555
Na5 O71 2.851375 1_545
Na5 O70 2.863937 1_545
Na6 O7 2.394504 1_555
Na6 O42 2.525760 1_455
Na6 O65 2.582085 1_555
Na6 O43 2.636673 1_555
Na6 O64 2.780343 1_555
Na6 O28 2.785526 1_555
Na7 O8 2.264876 1_555
Na7 O63 2.524679 1_555
Na7 O43 2.578605 1_565
Na7 O44 2.642835 1_455
Na7 O65 2.772230 1_555
Na8 O6 2.382043 1_555
Na8 O64 2.522639 1_555
Na8 O44 2.526874 1_555
Na8 O42 2.675158 1_565
Na8 O27 2.841863 1_555
Na8 O63 2.881339 1_555
Na9 O26 2.305672 1_554
Na9 O61 2.529514 1_555
Na9 O45 2.576693 1_455
Na9 O47 2.808185 1_565
Na9 O11 2.819250 1_555
Na9 O62 2.823820 1_555
Na10 O62 2.450569 1_555
Na10 O9 2.550418 1_555
Na10 O46 2.569558 1_565
Na10 O45 2.652284 1_555
Na10 O60 2.686328 1_555
Na10 O24 2.771787 1_554
Na11 O25 2.210215 1_554
Na11 O47 2.518522 1_555
Na11 O60 2.640392 1_555
Na11 O46 2.658384 1_455
Na11 O61 2.731675 1_555
Na12 O4 2.371965 1_555
Na12 O40 2.512051 1_655
Na12 O55 2.515939 1_555
Na12 O41 2.709796 1_555
Na12 O54 2.877826 1_555
Na12 O34 2.971262 1_655
Na13 O5 2.328775 1_555
Na13 O39 2.407431 1_655
Na13 O56 2.605676 1_555
Na13 O55 2.661162 1_555
Na13 O41 2.780757 1_545
Na14 O3 2.338534 1_555
Na14 O40 2.437974 1_545
Na14 O39 2.598554 1_555
Na14 O56 2.669116 1_555
Na14 O54 2.869455 1_555
Na15 O37 2.407387 1_545
Na15 O38 2.543065 1_655
Na15 O23 2.698746 1_555
Na15 O59 2.731728 1_555
Na15 O57 2.732093 1_555
Na15 O2 2.796217 1_555
Na16 O38 2.409134 1_555
Na16 O0 2.448697 1_555
Na16 O57 2.586275 1_555
Na16 O58 2.608204 1_555
Na16 O36 2.764724 1_545
Na16 O21 2.937331 1_555
Na17 O58 2.513250 1_555
Na17 O1 2.557504 1_555
Na17 O37 2.593998 1_555
Na17 O36 2.722636 1_655
Na17 O22 2.872628 1_555
Na17 O59 2.903794 1_555
Na18 O37 2.448623 1_445
Na18 O38 2.468779 1_555
Na18 O42 2.628762 1_455
Na18 O44 2.770131 1_445
Na18 O43 2.778913 1_555
Na18 O36 2.811444 1_545
Na19 O40 2.285423 1_545
Na19 O39 2.298759 1_555
Na19 O41 2.545807 1_445
Na20 O48 2.450757 1_555
Na20 O50 2.535060 1_555
Na20 O56 2.564667 1_555
Na20 O49 2.591466 1_555
Na20 O55 2.645112 1_555
Na20 O54 2.938030 1_555
Na21 O58 2.394075 1_555
Na21 O57 2.437751 1_555
Na21 O53 2.557427 1_555
Na21 O51 2.568062 1_555
Na21 O59 2.843186 1_555
Na21 O52 2.933000 1_555
Na22 O66 2.559076 1_555
Na22 O67 2.631646 1_555
Na22 O62 2.646643 1_555
Na22 O68 2.648772 1_555
Na22 O61 2.696570 1_555
Na22 O60 2.741822 1_555
Na23 O69 2.445265 1_555
Na23 O71 2.486276 1_555
Na23 O70 2.521101 1_555
Na23 O64 2.873866 1_555
Na23 O63 2.954668 1_555
Na23 O65 2.957011 1_555
Ca0 O1 2.223943 1_455
Ca0 O0 2.227181 1_565
Ca0 O38 2.273754 1_565
Ca0 O37 2.303195 1_455
Ca0 O2 2.361907 1_465
Ca0 O36 2.398301 1_555
Ca1 O3 2.184840 1_555
Ca1 O4 2.209141 1_445
Ca1 O5 2.213621 1_455
Ca1 O40 2.350377 1_545
Ca1 O39 2.352988 1_555
Ca1 O41 2.475135 1_445
Ca2 O8 2.246248 1_645
Ca2 O6 2.261794 1_545
Ca2 O7 2.261851 1_655
Ca2 O42 2.652621 1_555
Ca2 O43 2.660901 1_655
Ca2 O44 2.699629 1_545
Ca3 O11 2.226129 1_555
Ca3 O9 2.261512 1_455
Ca3 O10 2.409992 1_565
Ca3 O45 2.410642 1_455
Ca3 O47 2.500803 1_565
Ca3 O46 2.508024 1_465
Ca4 O49 2.211927 1_555
Ca4 O50 2.225266 1_555
Ca4 O48 2.226654 1_555
Ca4 O14 2.347896 1_555
Ca4 O12 2.359106 1_555
Ca4 O13 2.379163 1_555
Ca5 O53 2.228391 1_555
Ca5 O51 2.229009 1_555
Ca5 O17 2.295364 1_555
Ca5 O15 2.333188 1_555
Ca5 O16 2.345806 1_555
Ca5 O52 2.372098 1_555
Ca6 O55 2.236487 1_555
Ca6 O56 2.239381 1_555
Ca6 O54 2.339743 1_555
Ca6 O20 2.375587 1_556
Ca6 O19 2.459062 1_556
Ca6 O18 2.496446 1_556
Ca7 O57 2.297659 1_555
Ca7 O58 2.317169 1_555
Ca7 O21 2.320950 1_555
Ca7 O22 2.364405 1_555
Ca7 O23 2.402535 1_555
Ca7 O59 2.424599 1_555
Ca8 O26 2.147177 1_554
Ca8 O25 2.154311 1_554
Ca8 O24 2.278533 1_554
Ca8 O61 2.483927 1_555
Ca8 O60 2.505208 1_555
Ca8 O62 2.546813 1_555
Ca9 O27 2.153360 1_555
Ca9 O28 2.161048 1_555
Ca9 O29 2.305961 1_555
Ca9 O64 2.376022 1_555
Ca9 O63 2.422665 1_555
Ca9 O65 2.429056 1_555
Nb0 O31 1.863422 1_555
Nb0 O67 1.922997 1_555
Nb0 O32 1.923916 1_555
Nb0 O66 1.999647 1_555
Nb0 O30 2.260824 1_555
Nb0 O68 2.384057 1_555
Nb1 O70 1.912967 1_555
Nb1 O33 1.947682 1_555
Nb1 O34 1.962513 1_555
Nb1 O71 1.992175 1_555
Nb1 O69 2.003098 1_555
Nb1 O35 2.349451 1_555
O0 Si0 1.617378 1_545
O1 Si1 1.608874 1_555
O2 S0 1.475170 1_655
O3 Si2 1.616477 1_555
O4 Si3 1.607000 1_655
O5 Si4 1.614055 1_545
O6 Si4 1.645390 1_555
O7 Si2 1.647454 1_555
O8 Si3 1.631592 1_555
O9 Si1 1.632025 1_555
O10 S0 1.482531 1_555
O11 Si0 1.637529 1_555
O12 S1 1.475610 1_555
O13 S2 1.476338 1_555
O14 S3 1.473842 1_555
O15 S4 1.488240 1_555
O16 S5 1.487782 1_555
O17 S6 1.487765 1_555
O18 S6 1.477611 1_555
O19 S4 1.474600 1_555
O20 S5 1.474012 1_555
O21 S2 1.490740 1_555
O22 S3 1.491155 1_555
O23 S1 1.493947 1_555
O24 S7 1.488335 1_555
O25 Si5 1.623919 1_555
O26 Si6 1.626843 1_555
O27 Si7 1.596916 1_555
O28 Si8 1.605225 1_555
O29 S8 1.467873 1_555
O30 S8 1.516930 1_555
O31 Si7 1.789268 1_555
O32 Si8 1.741352 1_555
O33 Si5 1.702719 1_555
O34 Si6 1.707012 1_555
O35 S7 1.486775 1_555
O36 S8 1.484078 1_555
O37 Si7 1.622277 1_555
O38 Si8 1.625171 1_555
O39 Si5 1.624417 1_555
O40 Si6 1.628788 1_555
O41 S7 1.489487 1_555
O42 S1 1.500520 1_555
O43 S2 1.498542 1_555
O44 S3 1.498032 1_555
O45 S4 1.504971 1_555
O46 S5 1.501866 1_555
O47 S6 1.502794 1_555
O48 Si4 1.629206 1_545
O49 Si2 1.629064 1_555
O50 Si3 1.619108 1_655
O51 Si1 1.628658 1_555
O52 S0 1.484462 1_655
O53 Si0 1.637295 1_545
O54 S7 1.487583 1_555
O55 Si5 1.642303 1_655
O56 Si6 1.645644 1_545
O57 Si7 1.630548 1_545
O58 Si8 1.645655 1_555
O59 S8 1.486984 1_655
O60 S6 1.502820 1_555
O61 S4 1.500474 1_455
O62 S5 1.504010 1_565
O63 S2 1.502469 1_565
O64 S3 1.503295 1_555
O65 S1 1.499701 1_455
O66 Si0 1.717629 1_555
O67 Si1 1.743798 1_555
O68 S0 1.514100 1_555
O69 Si2 1.686605 1_555
O70 Si3 1.724084 1_555
O71 Si4 1.686553 1_555
