# generated using pymatgen
data_Na7Sc2Zn2P5SO24
_symmetry_space_group_name_H-M   'P 1'
_cell_length_a   9.05480553
_cell_length_b   9.06562105
_cell_length_c   22.18488851
_cell_angle_alpha   90.02252974
_cell_angle_beta   89.92382978
_cell_angle_gamma   120.07396902
_symmetry_Int_Tables_number   1
_chemical_formula_structural   Na7Sc2Zn2P5SO24
_chemical_formula_sum   'Na21 Sc6 Zn6 P15 S3 O72'
_cell_volume   1575.94107997
_cell_formula_units_Z   3
loop_
 _symmetry_equiv_pos_site_id
 _symmetry_equiv_pos_as_xyz
  1  'x, y, z'
loop_
 _atom_site_type_symbol
 _atom_site_label
 _atom_site_symmetry_multiplicity
 _atom_site_fract_x
 _atom_site_fract_y
 _atom_site_fract_z
 _atom_site_occupancy
  Na  Na0  1  0.63852295  0.99415959  0.25220041  1
  Na  Na1  1  0.00161036  0.63034437  0.25499688  1
  Na  Na2  1  0.63146199  0.63939437  0.74904767  1
  Na  Na3  1  0.00922177  0.36996916  0.75244118  1
  Na  Na4  1  0.36214864  0.99204950  0.75259210  1
  Na  Na5  1  0.29552383  0.33292942  0.58626313  1
  Na  Na6  1  0.03812997  0.70517219  0.58290149  1
  Na  Na7  1  0.66915770  0.96079975  0.58395525  1
  Na  Na8  1  0.29528264  0.96178789  0.08068156  1
  Na  Na9  1  0.66646357  0.70302996  0.08663245  1
  Na  Na10  1  0.03942929  0.33379659  0.08451152  1
  Na  Na11  1  0.98289808  0.66882519  0.91671894  1
  Na  Na12  1  0.32899805  0.30075310  0.92001494  1
  Na  Na13  1  0.96734637  0.30826706  0.41427843  1
  Na  Na14  1  0.69872254  0.67154150  0.41945342  1
  Na  Na15  1  0.00775440  0.99366227  0.50424309  1
  Na  Na16  1  0.99598428  0.00674275  0.00354629  1
  Na  Na17  1  0.66850532  0.31241246  0.83441556  1
  Na  Na18  1  0.65462352  0.32649879  0.33326648  1
  Na  Na19  1  0.33435764  0.64493479  0.16852847  1
  Na  Na20  1  0.33371508  0.66733886  0.66630378  1
  Sc  Sc0  1  0.99486441  0.99536937  0.34991876  1
  Sc  Sc1  1  0.00040067  0.00569880  0.84936250  1
  Sc  Sc2  1  0.66735466  0.33370463  0.68347936  1
  Sc  Sc3  1  0.66689345  0.33777936  0.18377037  1
  Sc  Sc4  1  0.66765061  0.32296231  0.98343444  1
  Sc  Sc5  1  0.66663074  0.32689968  0.48344276  1
  Zn  Zn0  1  0.99949467  0.00070280  0.65312237  1
  Zn  Zn1  1  0.99326539  0.00557377  0.15187912  1
  Zn  Zn2  1  0.32449140  0.66810389  0.01548184  1
  Zn  Zn3  1  0.33490431  0.68311091  0.51481250  1
  Zn  Zn4  1  0.33290529  0.66193330  0.31924903  1
  Zn  Zn5  1  0.32736092  0.67248844  0.81892074  1
  P  P0  1  0.69833606  0.70111558  0.24887191  1
  P  P1  1  0.00365122  0.30153253  0.24927215  1
  P  P2  1  0.29906036  0.30063717  0.74920280  1
  P  P3  1  -0.00014638  0.70353769  0.74897085  1
  P  P4  1  0.70169716  0.99755253  0.74735092  1
  P  P5  1  0.96779271  0.33398902  0.58294320  1
  P  P6  1  0.36889866  0.03670965  0.58495619  1
  P  P7  1  0.66486877  0.63000441  0.58209904  1
  P  P8  1  0.96373853  0.63189701  0.08301066  1
  P  P9  1  0.66441255  0.03278309  0.08575314  1
  P  P10  1  0.37033424  0.33357087  0.08139909  1
  P  P11  1  0.03825552  0.37079814  0.91653957  1
  P  P12  1  0.33299257  0.96584194  0.91607310  1
  P  P13  1  0.62896990  0.96291286  0.41510468  1
  P  P14  1  0.03605935  0.66755448  0.41654518  1
  S  S0  1  0.29576903  0.00090676  0.24786511  1
  S  S1  1  0.63167036  0.66731735  0.91702924  1
  S  S2  1  0.33320357  0.36971685  0.41785112  1
  O  O0  1  0.20719192  0.01793592  0.30119979  1
  O  O1  1  0.81506660  0.79138391  0.30470695  1
  O  O2  1  0.98297557  0.18836333  0.30514962  1
  O  O3  1  0.21123109  0.18677307  0.80531467  1
  O  O4  1  0.97589863  0.79044979  0.80562501  1
  O  O5  1  0.82200572  0.02412345  0.80088296  1
  O  O6  1  0.77686642  0.97055821  0.68886341  1
  O  O7  1  0.19009047  0.22039282  0.69248914  1
  O  O8  1  0.02435832  0.81052293  0.69217740  1
  O  O9  1  0.78319542  0.80838484  0.19186085  1
  O  O10  1  0.02305891  0.22050993  0.19109712  1
  O  O11  1  0.19886886  0.98355318  0.19228670  1
  O  O12  1  0.87702404  0.35460126  0.63924427  1
  O  O13  1  0.47453394  0.12165197  0.64269815  1
  O  O14  1  0.64498270  0.52015532  0.63885464  1
  O  O15  1  0.87385151  0.51999504  0.13933883  1
  O  O16  1  0.64194865  0.11717341  0.14328901  1
  O  O17  1  0.48775257  0.35379524  0.13526139  1
  O  O18  1  0.45537351  0.31303646  0.02351764  1
  O  O19  1  0.85275257  0.54323378  0.02665423  1
  O  O20  1  0.68712415  0.15088406  0.03179409  1
  O  O21  1  0.46537710  0.15297132  0.53096298  1
  O  O22  1  0.68370097  0.53835061  0.52586495  1
  O  O23  1  0.85669971  0.31391654  0.52669271  1
  O  O24  1  0.55224274  0.68572127  0.97216297  1
  O  O25  1  0.14930334  0.45007494  0.97319231  1
  O  O26  1  0.30644095  0.85761312  0.97288779  1
  O  O27  1  0.55241415  0.85201879  0.47188628  1
  O  O28  1  0.30595176  0.44326804  0.47342848  1
  O  O29  1  0.13453863  0.68550479  0.47497581  1
  O  O30  1  0.11799633  0.63791487  0.36031601  1
  O  O31  1  0.52720027  0.88053754  0.35756213  1
  O  O32  1  0.36137446  0.47868754  0.36501923  1
  O  O33  1  0.11895407  0.47873205  0.85934003  1
  O  O34  1  0.35580654  0.88654608  0.85815848  1
  O  O35  1  0.52941598  0.64622163  0.86256596  1
  O  O36  1  0.01074231  0.82537535  0.41114903  1
  O  O37  1  0.81460103  0.98653989  0.41068700  1
  O  O38  1  0.17765395  0.19801161  0.41067233  1
  O  O39  1  0.01952367  0.19083086  0.91106992  1
  O  O40  1  0.16713246  0.98121607  0.91213462  1
  O  O41  1  0.80825769  0.81744487  0.91281090  1
  O  O42  1  0.98162818  0.17084465  0.58528960  1
  O  O43  1  0.19053957  0.02017679  0.58638819  1
  O  O44  1  0.82857388  0.80700563  0.58453691  1
  O  O45  1  0.98136777  0.81048936  0.08679835  1
  O  O46  1  0.82818096  0.01870526  0.08638302  1
  O  O47  1  0.19244708  0.17038373  0.08594230  1
  O  O48  1  0.68686658  0.16240201  0.74600772  1
  O  O49  1  0.47781013  0.31387679  0.74633043  1
  O  O50  1  0.83532086  0.52341920  0.74637138  1
  O  O51  1  0.68914758  0.52481341  0.24647795  1
  O  O52  1  0.83266139  0.30890314  0.24795501  1
  O  O53  1  0.47089588  0.15416603  0.24715912  1
  O  O54  1  0.64911326  0.51006380  0.91994226  1
  O  O55  1  0.86076811  0.35915927  0.92193316  1
  O  O56  1  0.48763375  0.15117060  0.92044021  1
  O  O57  1  0.65611983  0.14632418  0.42032651  1
  O  O58  1  0.48896563  0.35283822  0.42186199  1
  O  O59  1  0.85100929  0.50558717  0.41994376  1
  O  O60  1  0.35531653  0.49643953  0.07974219  1
  O  O61  1  0.14110090  0.64524809  0.08054291  1
  O  O62  1  0.50300993  0.85484126  0.07981533  1
  O  O63  1  0.35558767  0.85961838  0.58105357  1
  O  O64  1  0.50176529  0.64463205  0.57953247  1
  O  O65  1  0.14566336  0.49651226  0.57967234  1
  O  O66  1  0.31249486  0.84587778  0.25247330  1
  O  O67  1  0.52294926  0.68873798  0.25513976  1
  O  O68  1  0.15512560  0.48534613  0.25445755  1
  O  O69  1  0.32277828  0.48133419  0.75562093  1
  O  O70  1  0.15858373  0.68127612  0.75307212  1
  O  O71  1  0.52219051  0.83848257  0.75490508  1
loop_
_geom_bond_atom_site_label_1
_geom_bond_atom_site_label_2
_geom_bond_distance
_geom_bond_site_symmetry_2
Na0 O67 2.421109 1_555
Na0 O52 2.492653 1_565
Na0 O31 2.548668 1_555
Na0 O66 2.558273 1_555
Na0 O53 2.574420 1_565
Na0 O16 2.655153 1_565
Na0 O9 2.923884 1_555
Na0 O2 2.951615 1_565
Na1 O68 2.343403 1_555
Na1 O66 2.496452 1_555
Na1 O51 2.498863 1_455
Na1 O52 2.527616 1_455
Na1 O30 2.551166 1_555
Na1 O15 2.787235 1_455
Na1 O1 2.943801 1_455
Na2 O69 2.423213 1_555
Na2 O71 2.458175 1_555
Na2 O50 2.541860 1_555
Na2 O49 2.555977 1_555
Na2 O35 2.692753 1_555
Na2 O14 2.699894 1_555
Na2 O6 2.926828 1_555
Na2 O4 2.984335 1_555
Na3 O70 2.443091 1_555
Na3 O69 2.492571 1_555
Na3 O48 2.564595 1_455
Na3 O33 2.570251 1_555
Na3 O50 2.574676 1_455
Na3 O12 2.756680 1_455
Na3 O7 2.916917 1_555
Na3 O5 2.920570 1_455
Na4 O71 2.462329 1_555
Na4 O70 2.475971 1_555
Na4 O34 2.519786 1_555
Na4 O48 2.549425 1_565
Na4 O49 2.562393 1_565
Na4 O13 2.675282 1_565
Na5 O42 2.460172 1_455
Na5 O65 2.465660 1_555
Na5 O64 2.491085 1_555
Na5 O43 2.498257 1_555
Na5 O7 2.554530 1_555
Na5 O28 2.679982 1_555
Na6 O43 2.473033 1_565
Na6 O63 2.488158 1_555
Na6 O44 2.491884 1_455
Na6 O65 2.525308 1_555
Na6 O29 2.583935 1_555
Na6 O8 2.630884 1_555
Na7 O44 2.458624 1_555
Na7 O64 2.483642 1_555
Na7 O42 2.496515 1_565
Na7 O6 2.509000 1_555
Na7 O63 2.509470 1_555
Na7 O27 2.689164 1_555
Na8 O45 2.463914 1_455
Na8 O61 2.483675 1_555
Na8 O47 2.494210 1_565
Na8 O62 2.511149 1_555
Na8 O26 2.591156 1_554
Na8 O11 2.664189 1_555
Na9 O46 2.476725 1_565
Na9 O62 2.479866 1_555
Na9 O60 2.486194 1_555
Na9 O45 2.509091 1_555
Na9 O9 2.544064 1_555
Na9 O24 2.717965 1_554
Na10 O60 2.477706 1_555
Na10 O47 2.484502 1_555
Na10 O61 2.494445 1_555
Na10 O46 2.518706 1_455
Na10 O10 2.552727 1_555
Na10 O25 2.672896 1_554
Na11 O55 2.450673 1_555
Na11 O40 2.465442 1_655
Na11 O41 2.541502 1_555
Na11 O54 2.617450 1_555
Na11 O19 2.698724 1_556
Na11 O4 2.714153 1_555
Na11 O26 2.836799 1_655
Na11 O33 2.868767 1_655
Na12 O56 2.419615 1_555
Na12 O39 2.467293 1_555
Na12 O40 2.513016 1_545
Na12 O18 2.544293 1_556
Na12 O54 2.547537 1_555
Na12 O3 2.753307 1_555
Na12 O25 2.841282 1_555
Na12 O35 3.004509 1_555
Na13 O57 2.442876 1_555
Na13 O59 2.492676 1_555
Na13 O37 2.526513 1_545
Na13 O38 2.557147 1_655
Na13 O2 2.685905 1_555
Na13 O23 2.696406 1_555
Na13 O30 2.852655 1_655
Na13 O28 2.978065 1_655
Na14 O36 2.451719 1_655
Na14 O59 2.498854 1_555
Na14 O37 2.508070 1_555
Na14 O58 2.541255 1_555
Na14 O22 2.624172 1_555
Na14 O1 2.760142 1_555
Na14 O27 2.819912 1_555
Na14 O32 2.915722 1_555
Na15 O43 2.393137 1_565
Na15 O44 2.431441 1_455
Na15 O42 2.499266 1_465
Na15 O36 2.575343 1_555
Na15 O38 2.691842 1_565
Na15 O37 2.695783 1_455
Na16 O46 2.419754 1_555
Na16 O47 2.463400 1_655
Na16 O45 2.521912 1_545
Na16 O39 2.585452 1_654
Na16 O40 2.630301 1_644
Na16 O41 2.639922 1_544
Na17 O48 2.438746 1_555
Na17 O56 2.460830 1_555
Na17 O55 2.499788 1_555
Na17 O49 2.613886 1_555
Na17 O50 2.618240 1_555
Na17 O54 2.674583 1_555
Na18 O53 2.501762 1_555
Na18 O57 2.534416 1_555
Na18 O52 2.540810 1_555
Na18 O51 2.544594 1_555
Na18 O58 2.553606 1_555
Na18 O59 2.570759 1_555
Na19 O60 2.445612 1_555
Na19 O68 2.449854 1_555
Na19 O67 2.468664 1_555
Na19 O61 2.624184 1_555
Na19 O62 2.628512 1_555
Na19 O66 2.680233 1_555
Na20 O63 2.512015 1_555
Na20 O65 2.520903 1_555
Na20 O64 2.523755 1_555
Na20 O70 2.535465 1_555
Na20 O71 2.556584 1_555
Na20 O69 2.571826 1_555
O0 S0 1.479380 1_555
O0 Sc0 2.122926 1_445
O1 P0 1.567489 1_555
O1 Sc0 2.015388 1_555
O2 P1 1.559551 1_655
O2 Sc0 2.061453 1_545
O3 P2 1.556675 1_555
O3 Sc1 2.037037 1_555
O4 P3 1.554783 1_655
O4 Sc1 2.088956 1_665
O5 P4 1.547698 1_545
O5 Sc1 2.017201 1_655
O6 P4 1.539841 1_555
O6 Zn0 2.052038 1_565
O7 P2 1.539157 1_555
O7 Zn0 2.065313 1_455
O8 P3 1.536860 1_555
O8 Zn0 2.040741 1_465
O9 P0 1.544430 1_555
O9 Zn1 2.046795 1_565
O10 P1 1.537559 1_555
O10 Zn1 2.024594 1_455
O11 S0 1.476236 1_565
O11 Zn1 2.164818 1_465
O12 P5 1.556123 1_555
O12 Sc2 2.058648 1_555
O13 P6 1.553422 1_555
O13 Sc2 2.049730 1_555
O14 P7 1.558904 1_555
O14 Sc2 2.055051 1_555
O15 P8 1.556898 1_555
O15 Sc3 2.026323 1_555
O16 P9 1.552562 1_555
O16 Sc3 2.098492 1_555
O17 P10 1.549097 1_555
O17 Sc3 2.012756 1_555
O18 P10 1.554773 1_555
O18 Sc4 2.077401 1_554
O19 P8 1.553106 1_555
O19 Sc4 2.089137 1_554
O20 P9 1.549604 1_555
O20 Sc4 1.973120 1_554
O21 P6 1.544102 1_555
O21 Sc5 2.008690 1_555
O22 P7 1.554499 1_555
O22 Sc5 2.070330 1_555
O23 P5 1.556272 1_555
O23 Sc5 2.025822 1_555
O24 S1 1.469323 1_555
O24 Zn2 2.206054 1_556
O25 P11 1.544537 1_555
O25 Zn2 2.040446 1_556
O26 P12 1.540424 1_555
O26 Zn2 2.038219 1_556
O27 P13 1.542159 1_555
O27 Zn3 2.025884 1_555
O28 S2 1.479587 1_555
O28 Zn3 2.251022 1_555
O29 P14 1.536046 1_555
O29 Zn3 2.029002 1_555
O30 P14 1.541373 1_555
O30 Zn4 2.057909 1_555
O31 P13 1.532702 1_555
O31 Zn4 2.062369 1_555
O32 S2 1.470474 1_555
O32 Zn4 2.070852 1_555
O33 P11 1.543882 1_555
O33 Zn5 2.031046 1_555
O34 P12 1.535457 1_555
O34 Zn5 2.021930 1_555
O35 S1 1.476169 1_555
O35 Zn5 2.187029 1_555
O36 P14 1.562958 1_555
O36 Sc0 2.113080 1_455
O37 P13 1.587293 1_555
O37 Sc0 2.086003 1_555
O38 S2 1.495078 1_555
O38 Sc0 2.210765 1_445
O39 P11 1.558168 1_555
O39 Sc1 2.104387 1_555
O40 P12 1.578829 1_555
O40 Sc1 2.146977 1_565
O41 S1 1.495464 1_555
O41 Sc1 2.222703 1_665
O42 P5 1.546492 1_555
O42 Zn0 2.218664 1_555
O43 P6 1.545635 1_555
O43 Zn0 2.214227 1_455
O44 P7 1.546376 1_555
O44 Zn0 2.252619 1_565
O45 P8 1.547505 1_555
O45 Zn1 2.243090 1_565
O46 P9 1.550865 1_555
O46 Zn1 2.131703 1_555
O47 P10 1.550702 1_555
O47 Zn1 2.217864 1_455
O48 P4 1.566373 1_545
O48 Sc2 2.155116 1_555
O49 P2 1.563069 1_555
O49 Sc2 2.146344 1_555
O50 P3 1.565633 1_655
O50 Sc2 2.144761 1_555
O51 P0 1.559147 1_555
O51 Sc3 2.123059 1_555
O52 P1 1.583129 1_655
O52 Sc3 2.179193 1_555
O53 S0 1.495672 1_555
O53 Sc3 2.220919 1_555
O54 S1 1.512358 1_555
O54 Sc4 2.275336 1_555
O55 P11 1.561350 1_655
O55 Sc4 2.108536 1_555
O56 P12 1.560535 1_545
O56 Sc4 2.120281 1_555
O57 P13 1.558461 1_545
O57 Sc5 2.119424 1_555
O58 S2 1.495722 1_555
O58 Sc5 2.212446 1_555
O59 P14 1.582157 1_655
O59 Sc5 2.163541 1_555
O60 P10 1.549579 1_555
O60 Zn2 2.229418 1_555
O61 P8 1.549768 1_455
O61 Zn2 2.129027 1_555
O62 P9 1.546936 1_565
O62 Zn2 2.185732 1_555
O63 P6 1.550952 1_565
O63 Zn3 2.110371 1_555
O64 P7 1.548705 1_555
O64 Zn3 2.236161 1_555
O65 P5 1.546465 1_455
O65 Zn3 2.226768 1_555
O66 S0 1.490676 1_565
O66 Zn4 2.306746 1_555
O67 P0 1.541036 1_555
O67 Zn4 2.148890 1_555
O68 P1 1.543008 1_555
O68 Zn4 2.154478 1_555
O69 P2 1.548281 1_555
O69 Zn5 2.214273 1_555
O70 P3 1.551073 1_555
O70 Zn5 2.145692 1_555
O71 P4 1.549147 1_555
O71 Zn5 2.174394 1_555
