# generated using pymatgen
data_WI3O
_symmetry_space_group_name_H-M   'P 1'
_cell_length_a   3.86775600
_cell_length_b   13.98673500
_cell_length_c   13.98673500
_cell_angle_alpha   90.00000000
_cell_angle_beta   90.00000000
_cell_angle_gamma   90.00000000
_symmetry_Int_Tables_number   1
_chemical_formula_structural   WI3O
_chemical_formula_sum   'W4 I12 O4'
_cell_volume   756.64429464
_cell_formula_units_Z   4
loop_
 _symmetry_equiv_pos_site_id
 _symmetry_equiv_pos_as_xyz
  1  'x, y, z'
loop_
 _atom_site_type_symbol
 _atom_site_label
 _atom_site_symmetry_multiplicity
 _atom_site_fract_x
 _atom_site_fract_y
 _atom_site_fract_z
 _atom_site_occupancy
  W  W0  1  0.00000000  0.89300100  0.89300100  1
  W  W1  1  0.49999900  0.60699800  0.39300100  1
  W  W2  1  0.49999900  0.39300100  0.60699800  1
  W  W3  1  0.00000000  0.10699900  0.10699900  1
  I  I0  1  0.00000000  0.90078900  0.09921200  1
  I  I1  1  0.49999900  0.59921200  0.59921200  1
  I  I2  1  0.49999900  0.40078900  0.40078900  1
  I  I3  1  0.00000000  0.09921200  0.90078900  1
  I  I4  1  0.00000000  0.30067300  0.09868000  1
  I  I5  1  0.49999900  0.40132100  0.80067300  1
  I  I6  1  0.00000000  0.90132100  0.69932700  1
  I  I7  1  0.00000000  0.69932700  0.90132100  1
  I  I8  1  0.49999900  0.80067300  0.40132100  1
  I  I9  1  0.49999900  0.19932700  0.59868000  1
  I  I10  1  0.00000000  0.09868000  0.30067300  1
  I  I11  1  0.49999900  0.59868000  0.19932700  1
  O  O0  1  0.49999900  0.89792300  0.89792300  1
  O  O1  1  0.00000000  0.60207700  0.39792300  1
  O  O2  1  0.00000000  0.39792300  0.60207700  1
  O  O3  1  0.49999900  0.10207700  0.10207700  1
loop_
_geom_bond_atom_site_label_1
_geom_bond_atom_site_label_2
_geom_bond_distance
_geom_bond_site_symmetry_2
I0 W3 2.886260 1_565
I0 W0 2.886275 1_554
I1 W1 2.886274 1_555
I1 W2 2.886274 1_555
I2 W1 2.886247 1_555
I2 W2 2.886247 1_555
I3 W3 2.886260 1_556
I3 W0 2.886275 1_545
I4 W3 2.711365 1_555
I5 W2 2.711379 1_555
I6 W0 2.711365 1_555
I7 W0 2.711365 1_555
I8 W1 2.711379 1_555
I9 W2 2.711364 1_555
I10 W3 2.711365 1_555
I11 W1 2.711364 1_555
O0 W0 1.936323 1_555
O0 W0 1.936331 1_655
O1 W1 1.936323 1_555
O1 W1 1.936330 1_455
O2 W2 1.936323 1_555
O2 W2 1.936330 1_455
O3 W3 1.936323 1_555
O3 W3 1.936331 1_655
