# generated using pymatgen
data_Ba2Mg(NiO3)2
_symmetry_space_group_name_H-M   'P 1'
_cell_length_a   5.70988742
_cell_length_b   5.81918539
_cell_length_c   5.47487669
_cell_angle_alpha   104.67574044
_cell_angle_beta   90.00000173
_cell_angle_gamma   119.38059996
_symmetry_Int_Tables_number   1
_chemical_formula_structural   Ba2Mg(NiO3)2
_chemical_formula_sum   'Ba2 Mg1 Ni2 O6'
_cell_volume   151.66774961
_cell_formula_units_Z   1
loop_
 _symmetry_equiv_pos_site_id
 _symmetry_equiv_pos_as_xyz
  1  'x, y, z'
loop_
 _atom_site_type_symbol
 _atom_site_label
 _atom_site_symmetry_multiplicity
 _atom_site_fract_x
 _atom_site_fract_y
 _atom_site_fract_z
 _atom_site_occupancy
  Ba  Ba0  1  0.62019218  0.24038437  0.84980138  1
  Ba  Ba1  1  0.35823734  0.71647467  0.22224577  1
  Mg  Mg0  1  0.76571965  0.53143830  0.43865672  1
  Ni  Ni0  1  0.04247299  0.08494598  0.48144996  1
  Ni  Ni1  1  0.00080533  0.00161067  0.98621126  1
  O  O0  1  0.86074267  0.22507591  0.28343538  1
  O  O1  1  0.68327940  0.79686805  0.70570410  1
  O  O2  1  0.14554830  0.29109560  0.83857216  1
  O  O3  1  0.86799724  0.73599548  0.17922878  1
  O  O4  1  0.11358866  0.79686805  0.70570410  1
  O  O5  1  0.36433224  0.22507591  0.28343538  1
loop_
_geom_bond_atom_site_label_1
_geom_bond_atom_site_label_2
_geom_bond_distance
_geom_bond_site_symmetry_2
Ba0 O3 2.633049 1_556
Ba0 O1 2.700695 1_545
Ba0 O4 2.700695 1_545
Ba0 O0 2.785322 1_556
Ba0 O5 2.785325 1_556
Ba0 O2 2.868760 1_555
Ba0 O2 2.868765 1_655
Ba1 O2 2.535801 1_554
Ba1 O3 2.868712 1_555
Ba1 O3 2.868717 1_455
Ba1 O0 2.875669 1_565
Ba1 O5 2.875671 1_565
Ba1 O5 2.978834 1_555
Ba1 O0 2.978837 1_455
Ba1 O1 3.031499 1_555
Ba1 O4 3.031499 1_555
Mg0 O3 1.987441 1_555
Mg0 O4 2.077034 1_655
Mg0 O1 2.077037 1_555
Mg0 O0 2.091967 1_555
Mg0 O5 2.091975 1_555
Ni0 O2 1.930559 1_555
Ni0 O3 2.041132 1_445
Ni0 O5 2.048205 1_555
Ni0 O0 2.048209 1_455
Ni0 O4 2.488644 1_545
Ni0 O1 2.488644 1_445
Ni1 O2 1.870300 1_555
Ni1 O3 1.938653 1_446
Ni1 O4 2.004610 1_545
Ni1 O1 2.004610 1_445
Ni1 O5 2.219640 1_556
Ni1 O0 2.219643 1_456
