# generated using pymatgen
data_SICl7
_symmetry_space_group_name_H-M   'P 1'
_cell_length_a   12.76827804
_cell_length_b   8.32136282
_cell_length_c   10.44314417
_cell_angle_alpha   71.92122322
_cell_angle_beta   90.00000000
_cell_angle_gamma   90.00000000
_symmetry_Int_Tables_number   1
_chemical_formula_structural   SICl7
_chemical_formula_sum   'S4 I4 Cl28'
_cell_volume   1054.79950974
_cell_formula_units_Z   4
loop_
 _symmetry_equiv_pos_site_id
 _symmetry_equiv_pos_as_xyz
  1  'x, y, z'
loop_
 _atom_site_type_symbol
 _atom_site_label
 _atom_site_symmetry_multiplicity
 _atom_site_fract_x
 _atom_site_fract_y
 _atom_site_fract_z
 _atom_site_occupancy
  S  S0  1  0.91762579  0.76114778  0.13880081  1
  S  S1  1  0.58237421  0.26114778  0.13880081  1
  S  S2  1  0.08237421  0.23885222  0.86119919  1
  S  S3  1  0.41762579  0.73885222  0.86119919  1
  I  I0  1  0.60190313  0.34182587  0.72904167  1
  I  I1  1  0.10190313  0.15817413  0.27095833  1
  I  I2  1  0.39809687  0.65817413  0.27095833  1
  I  I3  1  0.89809687  0.84182587  0.72904167  1
  Cl  Cl0  1  0.72450358  0.41781729  0.89555761  1
  Cl  Cl1  1  0.77549642  0.91781729  0.89555761  1
  Cl  Cl2  1  0.27549642  0.58218271  0.10444239  1
  Cl  Cl3  1  0.22450358  0.08218271  0.10444239  1
  Cl  Cl4  1  0.89399102  0.54058695  0.10266536  1
  Cl  Cl5  1  0.39399102  0.95941305  0.89733464  1
  Cl  Cl6  1  0.10600898  0.45941305  0.89733464  1
  Cl  Cl7  1  0.60600898  0.04058695  0.10266536  1
  Cl  Cl8  1  0.80883930  0.74740228  0.28026594  1
  Cl  Cl9  1  0.30883930  0.75259772  0.71973406  1
  Cl  Cl10  1  0.19116070  0.25259772  0.71973406  1
  Cl  Cl11  1  0.69116070  0.24740228  0.28026594  1
  Cl  Cl12  1  0.04874907  0.71154815  0.24856374  1
  Cl  Cl13  1  0.54874907  0.78845185  0.75143626  1
  Cl  Cl14  1  0.95125093  0.28845185  0.75143626  1
  Cl  Cl15  1  0.45125093  0.21154815  0.24856374  1
  Cl  Cl16  1  0.05327084  0.85916546  0.88732571  1
  Cl  Cl17  1  0.55327084  0.64083454  0.11267429  1
  Cl  Cl18  1  0.94672916  0.14083454  0.11267429  1
  Cl  Cl19  1  0.44672916  0.35916546  0.88732571  1
  Cl  Cl20  1  0.74930204  0.83122910  0.58175023  1
  Cl  Cl21  1  0.24930204  0.66877090  0.41824977  1
  Cl  Cl22  1  0.25069796  0.16877090  0.41824977  1
  Cl  Cl23  1  0.75069796  0.33122910  0.58175023  1
  Cl  Cl24  1  0.02345617  0.76464828  0.57755055  1
  Cl  Cl25  1  0.52345617  0.73535172  0.42244945  1
  Cl  Cl26  1  0.97654383  0.23535172  0.42244945  1
  Cl  Cl27  1  0.47654383  0.26464828  0.57755055  1
loop_
_geom_bond_atom_site_label_1
_geom_bond_atom_site_label_2
_geom_bond_distance
_geom_bond_site_symmetry_2
Cl0 I0 2.560618 1_555
Cl1 I3 2.560618 1_555
Cl2 I2 2.560618 1_555
Cl3 I1 2.560618 1_555
Cl4 S0 2.007962 1_555
Cl5 S3 2.007962 1_555
Cl6 S2 2.007962 1_555
Cl7 S1 2.007962 1_555
Cl8 S0 2.005021 1_555
Cl9 S3 2.005021 1_555
Cl10 S2 2.005021 1_555
Cl11 S1 2.005021 1_555
Cl12 S0 1.998415 1_455
Cl13 S3 1.998415 1_555
Cl14 S2 1.998415 1_655
Cl15 S1 1.998415 1_555
Cl16 I3 2.612809 1_455
Cl17 I2 2.612809 1_555
Cl18 I1 2.612809 1_655
Cl19 I0 2.612809 1_555
Cl20 I3 2.463213 1_555
Cl21 I2 2.463213 1_555
Cl22 I1 2.463213 1_555
Cl23 I0 2.463213 1_555
Cl24 I3 2.471416 1_455
Cl25 I2 2.471416 1_555
Cl26 I1 2.471416 1_655
Cl27 I0 2.471416 1_555
