# generated using pymatgen
data_Ba2YMgNbO6
_symmetry_space_group_name_H-M   'P 1'
_cell_length_a   6.65077984
_cell_length_b   6.64997074
_cell_length_c   6.65077982
_cell_angle_alpha   54.01316081
_cell_angle_beta   54.04941592
_cell_angle_gamma   54.01316359
_symmetry_Int_Tables_number   1
_chemical_formula_structural   Ba2YMgNbO6
_chemical_formula_sum   'Ba2 Y1 Mg1 Nb1 O6'
_cell_volume   178.96954506
_cell_formula_units_Z   1
loop_
 _symmetry_equiv_pos_site_id
 _symmetry_equiv_pos_as_xyz
  1  'x, y, z'
loop_
 _atom_site_type_symbol
 _atom_site_label
 _atom_site_symmetry_multiplicity
 _atom_site_fract_x
 _atom_site_fract_y
 _atom_site_fract_z
 _atom_site_occupancy
  Ba  Ba0  1  0.69147439  0.69304461  0.69147439  1
  Ba  Ba1  1  0.23304769  0.23452973  0.23304769  1
  Y  Y0  1  0.02574411  0.02666141  0.02574411  1
  Mg  Mg0  1  0.86271080  0.86439159  0.86271080  1
  Nb  Nb0  1  0.50077243  0.50150391  0.50077243  1
  O  O0  1  0.24358532  0.75621988  0.75510617  1
  O  O1  1  0.27333035  0.76002220  0.27333035  1
  O  O2  1  0.75543965  0.24494391  0.75543965  1
  O  O3  1  0.27349436  0.27393994  0.76029473  1
  O  O4  1  0.76029473  0.27393994  0.27349436  1
  O  O5  1  0.75510617  0.75621988  0.24358532  1
loop_
_geom_bond_atom_site_label_1
_geom_bond_atom_site_label_2
_geom_bond_distance
_geom_bond_site_symmetry_2
Ba0 O2 2.544493 1_555
Ba0 O5 2.546951 1_555
Ba0 O0 2.546951 1_555
Ba1 O3 2.854514 1_554
Ba1 O4 2.854514 1_455
Ba1 O1 2.863177 1_545
Ba1 O0 3.034639 1_554
Ba1 O5 3.034639 1_455
Ba1 O0 3.036862 1_545
Ba1 O5 3.036862 1_545
Ba1 O2 3.038354 1_554
Ba1 O2 3.038354 1_455
Mg0 O2 1.943274 1_565
Mg0 O5 1.944548 1_556
Mg0 O0 1.944548 1_655
Nb0 O1 2.026398 1_555
Nb0 O3 2.027131 1_555
Nb0 O4 2.027131 1_555
Nb0 O5 2.284975 1_555
Nb0 O0 2.284975 1_555
Nb0 O2 2.285771 1_555
O0 Y0 2.500673 1_566
O1 Y0 2.210895 1_565
O2 Y0 2.496410 1_656
O3 Y0 2.211950 1_556
O4 Y0 2.211950 1_655
O5 Y0 2.500673 1_665
