# generated using pymatgen
data_MgCo6(O5F)2
_symmetry_space_group_name_H-M   'P 1'
_cell_length_a   4.93355979
_cell_length_b   13.97070079
_cell_length_c   2.87285300
_cell_angle_alpha   90.00000000
_cell_angle_beta   90.00000000
_cell_angle_gamma   97.61614909
_symmetry_Int_Tables_number   1
_chemical_formula_structural   MgCo6(O5F)2
_chemical_formula_sum   'Mg1 Co6 O10 F2'
_cell_volume   196.26540006
_cell_formula_units_Z   1
loop_
 _symmetry_equiv_pos_site_id
 _symmetry_equiv_pos_as_xyz
  1  'x, y, z'
loop_
 _atom_site_type_symbol
 _atom_site_label
 _atom_site_symmetry_multiplicity
 _atom_site_fract_x
 _atom_site_fract_y
 _atom_site_fract_z
 _atom_site_occupancy
  Mg  Mg0  1  0.41962100  0.31983000  0.00000000  1
  Co  Co0  1  0.02447200  0.99317800  0.00000000  1
  Co  Co1  1  0.92478100  0.36881800  0.00000000  1
  Co  Co2  1  0.04320600  0.65840600  0.00000000  1
  Co  Co3  1  0.58071000  0.13324700  0.50000000  1
  Co  Co4  1  0.47961300  0.51305200  0.50000000  1
  Co  Co5  1  0.46839700  0.85199400  0.50000000  1
  O  O0  1  0.16955700  0.92817200  0.50000000  1
  O  O1  1  0.23826500  0.60254900  0.50000000  1
  O  O2  1  0.33099700  0.77482900  0.00000000  1
  O  O3  1  0.36633300  0.07817500  0.00000000  1
  O  O4  1  0.27218600  0.44930400  0.00000000  1
  O  O5  1  0.69656400  0.56425500  0.00000000  1
  O  O6  1  0.68309900  0.22366900  0.00000000  1
  O  O7  1  0.68429100  0.90591000  0.00000000  1
  O  O8  1  0.88376600  0.05997900  0.50000000  1
  O  O9  1  0.66860600  0.39591600  0.50000000  1
  F  F0  1  0.16077400  0.28012200  0.50000000  1
  F  F1  1  0.86309800  0.72421300  0.50000000  1
loop_
_geom_bond_atom_site_label_1
_geom_bond_atom_site_label_2
_geom_bond_distance
_geom_bond_site_symmetry_2
Mg0 O6 1.989326 1_555
Mg0 O4 2.037094 1_555
Mg0 O9 2.087114 1_555
Mg0 O9 2.087114 1_554
Co0 O0 1.890178 1_555
Co0 O0 1.890178 1_554
Co0 O8 1.894176 1_464
Co0 O8 1.894176 1_465
Co0 O3 1.929713 1_565
Co0 O7 1.939267 1_455
Co1 O4 1.921230 1_655
Co1 O9 1.982624 1_555
Co1 O9 1.982624 1_554
Co1 O6 2.211990 1_555
Co1 F0 2.310149 1_654
Co1 F0 2.310149 1_655
Co2 O1 1.948701 1_554
Co2 O1 1.948701 1_555
Co2 F1 1.978552 1_455
Co2 F1 1.978552 1_454
Co2 O2 2.012291 1_555
Co2 O5 2.014596 1_455
Co3 O3 1.886318 1_556
Co3 O3 1.886318 1_555
Co3 O8 1.920651 1_555
Co3 O6 1.935242 1_555
Co3 O6 1.935242 1_556
Co4 O1 1.837322 1_555
Co4 O5 1.875556 1_555
Co4 O5 1.875556 1_556
Co4 O4 1.913678 1_555
Co4 O4 1.913678 1_556
Co4 O9 1.987936 1_555
Co5 O2 1.868505 1_555
Co5 O2 1.868505 1_556
Co5 O7 1.884814 1_556
Co5 O7 1.884814 1_555
Co5 O0 1.929317 1_555
F0 Mg0 1.952973 1_555
F0 Mg0 1.952973 1_556
