# generated using pymatgen
data_MgZn2(FeO2)4
_symmetry_space_group_name_H-M   'P 1'
_cell_length_a   6.06404100
_cell_length_b   6.29526308
_cell_length_c   6.29526196
_cell_angle_alpha   59.28317153
_cell_angle_beta   61.23406543
_cell_angle_gamma   61.23405801
_symmetry_Int_Tables_number   1
_chemical_formula_structural   MgZn2(FeO2)4
_chemical_formula_sum   'Mg1 Zn2 Fe4 O8'
_cell_volume   172.04345199
_cell_formula_units_Z   1
loop_
 _symmetry_equiv_pos_site_id
 _symmetry_equiv_pos_as_xyz
  1  'x, y, z'
loop_
 _atom_site_type_symbol
 _atom_site_label
 _atom_site_symmetry_multiplicity
 _atom_site_fract_x
 _atom_site_fract_y
 _atom_site_fract_z
 _atom_site_occupancy
  Mg  Mg0  1  0.03678500  0.47159200  0.47159200  1
  Zn  Zn0  1  0.97438700  0.03013500  0.03013500  1
  Zn  Zn1  1  0.09889500  0.68496000  0.68496000  1
  Fe  Fe0  1  0.31667600  0.17669100  0.17668900  1
  Fe  Fe1  1  0.62629500  0.13176500  0.61276200  1
  Fe  Fe2  1  0.62629500  0.61276000  0.13176400  1
  Fe  Fe3  1  0.55104200  0.66792500  0.66792700  1
  O  O0  1  0.42076500  0.34544500  0.34544500  1
  O  O1  1  0.39922700  0.37973600  0.80802700  1
  O  O2  1  0.39922700  0.80802700  0.37973600  1
  O  O3  1  0.88147800  0.35436600  0.35436600  1
  O  O4  1  0.38511800  0.89001400  0.89001400  1
  O  O5  1  0.86173200  0.42226800  0.85767900  1
  O  O6  1  0.86173200  0.85768000  0.42226700  1
  O  O7  1  0.83118100  0.89580000  0.89580000  1
loop_
_geom_bond_atom_site_label_1
_geom_bond_atom_site_label_2
_geom_bond_distance
_geom_bond_site_symmetry_2
Mg0 O0 1.941111 1_555
Mg0 O3 1.967323 1_455
Mg0 O5 2.047855 1_455
Mg0 O6 2.047859 1_455
Fe0 O1 1.933329 1_554
Fe0 O2 1.933341 1_545
Fe0 O3 2.250069 1_455
Fe0 O0 2.258178 1_555
Fe1 O1 2.026412 1_555
Fe1 O0 2.070566 1_555
Fe1 O3 2.083273 1_555
Fe1 O4 2.114994 1_545
Fe1 O6 2.132751 1_545
Fe1 O7 2.139035 1_545
Fe2 O2 2.026425 1_555
Fe2 O0 2.070557 1_555
Fe2 O3 2.083276 1_555
Fe2 O4 2.114991 1_554
Fe2 O5 2.132739 1_554
Fe2 O7 2.139045 1_554
Fe3 O1 2.026872 1_555
Fe3 O2 2.026879 1_555
Fe3 O4 2.052023 1_555
Fe3 O5 2.200618 1_555
Fe3 O6 2.200630 1_555
O1 Zn1 2.019475 1_555
O2 Zn1 2.019475 1_555
O4 Zn0 2.079781 1_466
O5 Zn0 2.022883 1_556
O5 Zn1 2.220906 1_655
O6 Zn0 2.022877 1_565
O6 Zn1 2.220909 1_655
O7 Zn1 1.952154 1_655
O7 Zn0 2.080556 1_566
