# generated using pymatgen
data_MgTe4MoW3S4
_symmetry_space_group_name_H-M   'P 1'
_cell_length_a   6.70905600
_cell_length_b   6.70944743
_cell_length_c   76.24162601
_cell_angle_alpha   90.00029236
_cell_angle_beta   90.00139522
_cell_angle_gamma   119.99726581
_symmetry_Int_Tables_number   1
_chemical_formula_structural   MgTe4MoW3S4
_chemical_formula_sum   'Mg8 Te32 Mo8 W24 S32'
_cell_volume   2972.23344967
_cell_formula_units_Z   8
loop_
 _symmetry_equiv_pos_site_id
 _symmetry_equiv_pos_as_xyz
  1  'x, y, z'
loop_
 _atom_site_type_symbol
 _atom_site_label
 _atom_site_symmetry_multiplicity
 _atom_site_fract_x
 _atom_site_fract_y
 _atom_site_fract_z
 _atom_site_occupancy
  Mg  Mg0_0  1  0.15019350  0.34156800  0.43706600  1
  Mg  Mg0_1  1  0.15019350  0.34156800  0.93706600  1
  Mg  Mg0_2  1  0.15019350  0.84156800  0.43706600  1
  Mg  Mg0_3  1  0.15019350  0.84156800  0.93706600  1
  Mg  Mg0_4  1  0.65019350  0.34156800  0.43706600  1
  Mg  Mg0_5  1  0.65019350  0.34156800  0.93706600  1
  Mg  Mg0_6  1  0.65019350  0.84156800  0.43706600  1
  Mg  Mg0_7  1  0.65019350  0.84156800  0.93706600  1
  Te  Te0_0  1  0.16665950  0.33336300  0.35375100  1
  Te  Te0_1  1  0.16665950  0.33336300  0.85375100  1
  Te  Te0_2  1  0.16665950  0.83336300  0.35375100  1
  Te  Te0_3  1  0.16665950  0.83336300  0.85375100  1
  Te  Te0_4  1  0.66665950  0.33336300  0.35375100  1
  Te  Te0_5  1  0.66665950  0.33336300  0.85375100  1
  Te  Te0_6  1  0.66665950  0.83336300  0.35375100  1
  Te  Te0_7  1  0.66665950  0.83336300  0.85375100  1
  Te  Te1_0  1  0.33328850  0.16663450  0.02197950  1
  Te  Te1_1  1  0.33328850  0.16663450  0.52197950  1
  Te  Te1_2  1  0.33328850  0.66663450  0.02197950  1
  Te  Te1_3  1  0.33328850  0.66663450  0.52197950  1
  Te  Te1_4  1  0.83328850  0.16663450  0.02197950  1
  Te  Te1_5  1  0.83328850  0.16663450  0.52197950  1
  Te  Te1_6  1  0.83328850  0.66663450  0.02197950  1
  Te  Te1_7  1  0.83328850  0.66663450  0.52197950  1
  Te  Te2_0  1  0.33329850  0.16664900  0.07186750  1
  Te  Te2_1  1  0.33329850  0.16664900  0.57186750  1
  Te  Te2_2  1  0.33329850  0.66664900  0.07186750  1
  Te  Te2_3  1  0.33329850  0.66664900  0.57186750  1
  Te  Te2_4  1  0.83329850  0.16664900  0.07186750  1
  Te  Te2_5  1  0.83329850  0.16664900  0.57186750  1
  Te  Te2_6  1  0.83329850  0.66664900  0.07186750  1
  Te  Te2_7  1  0.83329850  0.66664900  0.57186750  1
  Te  Te3_0  1  0.16664400  0.33335200  0.30384200  1
  Te  Te3_1  1  0.16664400  0.33335200  0.80384200  1
  Te  Te3_2  1  0.16664400  0.83335200  0.30384200  1
  Te  Te3_3  1  0.16664400  0.83335200  0.80384200  1
  Te  Te3_4  1  0.66664400  0.33335200  0.30384200  1
  Te  Te3_5  1  0.66664400  0.33335200  0.80384200  1
  Te  Te3_6  1  0.66664400  0.83335200  0.30384200  1
  Te  Te3_7  1  0.66664400  0.83335200  0.80384200  1
  Mo  Mo0_0  1  0.33331900  0.16670150  0.14089300  1
  Mo  Mo0_1  1  0.33331900  0.16670150  0.64089300  1
  Mo  Mo0_2  1  0.33331900  0.66670150  0.14089300  1
  Mo  Mo0_3  1  0.33331900  0.66670150  0.64089300  1
  Mo  Mo0_4  1  0.83331900  0.16670150  0.14089300  1
  Mo  Mo0_5  1  0.83331900  0.16670150  0.64089300  1
  Mo  Mo0_6  1  0.83331900  0.66670150  0.14089300  1
  Mo  Mo0_7  1  0.83331900  0.66670150  0.64089300  1
  W  W0_0  1  0.16663450  0.33332150  0.04690100  1
  W  W0_1  1  0.16663450  0.33332150  0.54690100  1
  W  W0_2  1  0.16663450  0.83332150  0.04690100  1
  W  W0_3  1  0.16663450  0.83332150  0.54690100  1
  W  W0_4  1  0.66663450  0.33332150  0.04690100  1
  W  W0_5  1  0.66663450  0.33332150  0.54690100  1
  W  W0_6  1  0.66663450  0.83332150  0.04690100  1
  W  W0_7  1  0.66663450  0.83332150  0.54690100  1
  W  W1_0  1  0.16664600  0.33331150  0.23479450  1
  W  W1_1  1  0.16664600  0.33331150  0.73479450  1
  W  W1_2  1  0.16664600  0.83331150  0.23479450  1
  W  W1_3  1  0.16664600  0.83331150  0.73479450  1
  W  W1_4  1  0.66664600  0.33331150  0.23479450  1
  W  W1_5  1  0.66664600  0.33331150  0.73479450  1
  W  W1_6  1  0.66664600  0.83331150  0.23479450  1
  W  W1_7  1  0.66664600  0.83331150  0.73479450  1
  W  W2_0  1  0.33331500  0.16667550  0.32881700  1
  W  W2_1  1  0.33331500  0.16667550  0.82881700  1
  W  W2_2  1  0.33331500  0.66667550  0.32881700  1
  W  W2_3  1  0.33331500  0.66667550  0.82881700  1
  W  W2_4  1  0.83331500  0.16667550  0.32881700  1
  W  W2_5  1  0.83331500  0.16667550  0.82881700  1
  W  W2_6  1  0.83331500  0.66667550  0.32881700  1
  W  W2_7  1  0.83331500  0.66667550  0.82881700  1
  S  S0_0  1  0.16665000  0.33337300  0.16075650  1
  S  S0_1  1  0.16665000  0.33337300  0.66075650  1
  S  S0_2  1  0.16665000  0.83337300  0.16075650  1
  S  S0_3  1  0.16665000  0.83337300  0.66075650  1
  S  S0_4  1  0.66665000  0.33337300  0.16075650  1
  S  S0_5  1  0.66665000  0.33337300  0.66075650  1
  S  S0_6  1  0.66665000  0.83337300  0.16075650  1
  S  S0_7  1  0.66665000  0.83337300  0.66075650  1
  S  S1_0  1  0.33330800  0.16665350  0.21488250  1
  S  S1_1  1  0.33330800  0.16665350  0.71488250  1
  S  S1_2  1  0.33330800  0.66665350  0.21488250  1
  S  S1_3  1  0.33330800  0.66665350  0.71488250  1
  S  S1_4  1  0.83330800  0.16665350  0.21488250  1
  S  S1_5  1  0.83330800  0.16665350  0.71488250  1
  S  S1_6  1  0.83330800  0.66665350  0.21488250  1
  S  S1_7  1  0.83330800  0.66665350  0.71488250  1
  S  S2_0  1  0.33330750  0.16665900  0.25470000  1
  S  S2_1  1  0.33330750  0.16665900  0.75470000  1
  S  S2_2  1  0.33330750  0.66665900  0.25470000  1
  S  S2_3  1  0.33330750  0.66665900  0.75470000  1
  S  S2_4  1  0.83330750  0.16665900  0.25470000  1
  S  S2_5  1  0.83330750  0.16665900  0.75470000  1
  S  S2_6  1  0.83330750  0.66665900  0.25470000  1
  S  S2_7  1  0.83330750  0.66665900  0.75470000  1
  S  S3_0  1  0.16665100  0.33336250  0.12103700  1
  S  S3_1  1  0.16665100  0.33336250  0.62103700  1
  S  S3_2  1  0.16665100  0.83336250  0.12103700  1
  S  S3_3  1  0.16665100  0.83336250  0.62103700  1
  S  S3_4  1  0.66665100  0.33336250  0.12103700  1
  S  S3_5  1  0.66665100  0.33336250  0.62103700  1
  S  S3_6  1  0.66665100  0.83336250  0.12103700  1
  S  S3_7  1  0.66665100  0.83336250  0.62103700  1
loop_
_geom_bond_atom_site_label_1
_geom_bond_atom_site_label_2
_geom_bond_distance
_geom_bond_site_symmetry_2
Mg0_0 Mg0_4 3.354528 1_455
Mg0_0 Mg0_4 3.354528 1_555
Mg0_0 Mg0_2 3.354724 1_555
Mg0_0 Mg0_2 3.354724 1_545
Mg0_0 Mg0_6 3.354764 1_555
Mg0_0 Mg0_6 3.354764 1_445
Mg0_1 Mg0_5 3.354528 1_455
Mg0_1 Mg0_5 3.354528 1_555
Mg0_1 Mg0_3 3.354724 1_555
Mg0_1 Mg0_3 3.354724 1_545
Mg0_1 Mg0_7 3.354764 1_555
Mg0_1 Mg0_7 3.354764 1_445
Mg0_2 Mg0_6 3.354528 1_555
Mg0_2 Mg0_6 3.354528 1_455
Mg0_2 Mg0_4 3.354764 1_455
Mg0_2 Mg0_4 3.354764 1_565
Mg0_3 Mg0_7 3.354528 1_455
Mg0_3 Mg0_7 3.354528 1_555
Mg0_3 Mg0_5 3.354764 1_455
Mg0_3 Mg0_5 3.354764 1_565
Mg0_4 Mg0_6 3.354724 1_555
Mg0_4 Mg0_6 3.354724 1_545
Mg0_5 Mg0_7 3.354724 1_555
Mg0_5 Mg0_7 3.354724 1_545
Te0_0 W2_4 2.713856 1_455
Te0_0 W2_2 2.713873 1_555
Te0_0 W2_0 2.713891 1_555
Te0_1 W2_5 2.713856 1_455
Te0_1 W2_3 2.713873 1_555
Te0_1 W2_1 2.713891 1_555
Te0_2 W2_6 2.713856 1_455
Te0_2 W2_0 2.713873 1_565
Te0_2 W2_2 2.713891 1_555
Te0_3 W2_7 2.713856 1_455
Te0_3 W2_1 2.713873 1_565
Te0_3 W2_3 2.713891 1_555
Te0_4 W2_0 2.713856 1_555
Te0_4 W2_6 2.713873 1_555
Te0_4 W2_4 2.713891 1_555
Te0_5 W2_1 2.713856 1_555
Te0_5 W2_7 2.713873 1_555
Te0_5 W2_5 2.713891 1_555
Te0_6 W2_2 2.713856 1_555
Te0_6 W2_4 2.713873 1_565
Te0_6 W2_6 2.713891 1_555
Te0_7 W2_3 2.713856 1_555
Te0_7 W2_5 2.713873 1_565
Te0_7 W2_7 2.713891 1_555
Te1_0 W0_4 2.713195 1_555
Te1_0 W0_2 2.713208 1_545
Te1_0 W0_0 2.713215 1_555
Te1_1 W0_5 2.713195 1_555
Te1_1 W0_3 2.713208 1_545
Te1_1 W0_1 2.713215 1_555
Te1_2 W0_6 2.713195 1_555
Te1_2 W0_0 2.713208 1_555
Te1_2 W0_2 2.713215 1_555
Te1_3 W0_7 2.713195 1_555
Te1_3 W0_1 2.713208 1_555
Te1_3 W0_3 2.713215 1_555
Te1_4 W0_0 2.713195 1_655
Te1_4 W0_6 2.713208 1_545
Te1_4 W0_4 2.713215 1_555
Te1_5 W0_1 2.713195 1_655
Te1_5 W0_7 2.713208 1_545
Te1_5 W0_5 2.713215 1_555
Te1_6 W0_2 2.713195 1_655
Te1_6 W0_4 2.713208 1_555
Te1_6 W0_6 2.713215 1_555
Te1_7 W0_3 2.713195 1_655
Te1_7 W0_5 2.713208 1_555
Te1_7 W0_7 2.713215 1_555
Te2_0 W0_0 2.715570 1_555
Te2_0 W0_2 2.715618 1_545
Te2_0 W0_4 2.715642 1_555
Te2_1 W0_1 2.715570 1_555
Te2_1 W0_3 2.715618 1_545
Te2_1 W0_5 2.715642 1_555
Te2_2 W0_2 2.715570 1_555
Te2_2 W0_0 2.715618 1_555
Te2_2 W0_6 2.715642 1_555
Te2_3 W0_3 2.715570 1_555
Te2_3 W0_1 2.715618 1_555
Te2_3 W0_7 2.715642 1_555
Te2_4 W0_4 2.715570 1_555
Te2_4 W0_6 2.715618 1_545
Te2_4 W0_0 2.715642 1_655
Te2_5 W0_5 2.715570 1_555
Te2_5 W0_7 2.715618 1_545
Te2_5 W0_1 2.715642 1_655
Te2_6 W0_6 2.715570 1_555
Te2_6 W0_4 2.715618 1_555
Te2_6 W0_2 2.715642 1_655
Te2_7 W0_7 2.715570 1_555
Te2_7 W0_5 2.715618 1_555
Te2_7 W0_3 2.715642 1_655
Te3_0 W2_2 2.716055 1_555
Te3_0 W2_4 2.716067 1_455
Te3_0 W2_0 2.716070 1_555
Te3_1 W2_3 2.716055 1_555
Te3_1 W2_5 2.716067 1_455
Te3_1 W2_1 2.716070 1_555
Te3_2 W2_0 2.716055 1_565
Te3_2 W2_6 2.716067 1_455
Te3_2 W2_2 2.716070 1_555
Te3_3 W2_1 2.716055 1_565
Te3_3 W2_7 2.716067 1_455
Te3_3 W2_3 2.716070 1_555
Te3_4 W2_6 2.716055 1_555
Te3_4 W2_0 2.716067 1_555
Te3_4 W2_4 2.716070 1_555
Te3_5 W2_7 2.716055 1_555
Te3_5 W2_1 2.716067 1_555
Te3_5 W2_5 2.716070 1_555
Te3_6 W2_4 2.716055 1_565
Te3_6 W2_2 2.716067 1_555
Te3_6 W2_6 2.716070 1_555
Te3_7 W2_5 2.716055 1_565
Te3_7 W2_3 2.716067 1_555
Te3_7 W2_7 2.716070 1_555
Mo0_0 S3_0 2.458182 1_555
Mo0_0 S3_4 2.458265 1_555
Mo0_0 S3_2 2.458325 1_545
Mo0_0 S0_4 2.458538 1_555
Mo0_0 S0_0 2.458613 1_555
Mo0_0 S0_2 2.458676 1_545
Mo0_1 S3_1 2.458182 1_555
Mo0_1 S3_5 2.458265 1_555
Mo0_1 S3_3 2.458325 1_545
Mo0_1 S0_5 2.458538 1_555
Mo0_1 S0_1 2.458613 1_555
Mo0_1 S0_3 2.458676 1_545
Mo0_2 S3_2 2.458182 1_555
Mo0_2 S3_6 2.458265 1_555
Mo0_2 S3_0 2.458325 1_555
Mo0_2 S0_6 2.458538 1_555
Mo0_2 S0_2 2.458613 1_555
Mo0_2 S0_0 2.458676 1_555
Mo0_3 S3_3 2.458182 1_555
Mo0_3 S3_7 2.458265 1_555
Mo0_3 S3_1 2.458325 1_555
Mo0_3 S0_7 2.458538 1_555
Mo0_3 S0_3 2.458613 1_555
Mo0_3 S0_1 2.458676 1_555
Mo0_4 S3_4 2.458182 1_555
Mo0_4 S3_0 2.458265 1_655
Mo0_4 S3_6 2.458325 1_545
Mo0_4 S0_0 2.458538 1_655
Mo0_4 S0_4 2.458613 1_555
Mo0_4 S0_6 2.458676 1_545
Mo0_5 S3_5 2.458182 1_555
Mo0_5 S3_1 2.458265 1_655
Mo0_5 S3_7 2.458325 1_545
Mo0_5 S0_1 2.458538 1_655
Mo0_5 S0_5 2.458613 1_555
Mo0_5 S0_7 2.458676 1_545
Mo0_6 S3_6 2.458182 1_555
Mo0_6 S3_2 2.458265 1_655
Mo0_6 S3_4 2.458325 1_555
Mo0_6 S0_2 2.458538 1_655
Mo0_6 S0_6 2.458613 1_555
Mo0_6 S0_4 2.458676 1_555
Mo0_7 S3_7 2.458182 1_555
Mo0_7 S3_3 2.458265 1_655
Mo0_7 S3_5 2.458325 1_555
Mo0_7 S0_3 2.458538 1_655
Mo0_7 S0_7 2.458613 1_555
Mo0_7 S0_5 2.458676 1_555
S1_0 W1_0 2.460799 1_555
S1_0 W1_4 2.460849 1_555
S1_0 W1_2 2.461018 1_545
S1_1 W1_1 2.460799 1_555
S1_1 W1_5 2.460849 1_555
S1_1 W1_3 2.461018 1_545
S1_2 W1_2 2.460799 1_555
S1_2 W1_6 2.460849 1_555
S1_2 W1_0 2.461018 1_555
S1_3 W1_3 2.460799 1_555
S1_3 W1_7 2.460849 1_555
S1_3 W1_1 2.461018 1_555
S1_4 W1_4 2.460799 1_555
S1_4 W1_0 2.460849 1_655
S1_4 W1_6 2.461018 1_545
S1_5 W1_5 2.460799 1_555
S1_5 W1_1 2.460849 1_655
S1_5 W1_7 2.461018 1_545
S1_6 W1_6 2.460799 1_555
S1_6 W1_2 2.460849 1_655
S1_6 W1_4 2.461018 1_555
S1_7 W1_7 2.460799 1_555
S1_7 W1_3 2.460849 1_655
S1_7 W1_5 2.461018 1_555
S2_0 W1_0 2.460439 1_555
S2_0 W1_4 2.460620 1_555
S2_0 W1_2 2.460689 1_545
S2_1 W1_1 2.460439 1_555
S2_1 W1_5 2.460620 1_555
S2_1 W1_3 2.460689 1_545
S2_2 W1_2 2.460439 1_555
S2_2 W1_6 2.460620 1_555
S2_2 W1_0 2.460689 1_555
S2_3 W1_3 2.460439 1_555
S2_3 W1_7 2.460620 1_555
S2_3 W1_1 2.460689 1_555
S2_4 W1_4 2.460439 1_555
S2_4 W1_0 2.460620 1_655
S2_4 W1_6 2.460689 1_545
S2_5 W1_5 2.460439 1_555
S2_5 W1_1 2.460620 1_655
S2_5 W1_7 2.460689 1_545
S2_6 W1_6 2.460439 1_555
S2_6 W1_2 2.460620 1_655
S2_6 W1_4 2.460689 1_555
S2_7 W1_7 2.460439 1_555
S2_7 W1_3 2.460620 1_655
S2_7 W1_5 2.460689 1_555
