# generated using pymatgen
data_Sr4MgV3O10
_symmetry_space_group_name_H-M   'P 1'
_cell_length_a   3.92957487
_cell_length_b   3.92986823
_cell_length_c   17.73765691
_cell_angle_alpha   96.22101671
_cell_angle_beta   96.23409462
_cell_angle_gamma   90.13075267
_symmetry_Int_Tables_number   1
_chemical_formula_structural   Sr4MgV3O10
_chemical_formula_sum   'Sr4 Mg1 V3 O10'
_cell_volume   270.66687080
_cell_formula_units_Z   1
loop_
 _symmetry_equiv_pos_site_id
 _symmetry_equiv_pos_as_xyz
  1  'x, y, z'
loop_
 _atom_site_type_symbol
 _atom_site_label
 _atom_site_symmetry_multiplicity
 _atom_site_fract_x
 _atom_site_fract_y
 _atom_site_fract_z
 _atom_site_occupancy
  Sr  Sr0  1  0.71144435  0.71163453  0.42118229  1
  Sr  Sr1  1  0.28569431  0.28603005  0.57262463  1
  Sr  Sr2  1  0.60603713  0.60552205  0.21325475  1
  Sr  Sr3  1  0.38320499  0.38326390  0.77174720  1
  Mg  Mg0  1  0.50492685  0.50497329  0.00325706  1
  V  V0  1  0.83593502  0.83654006  0.67579688  1
  V  V1  1  0.15871296  0.15862548  0.31801430  1
  V  V2  1  0.03306497  0.03308185  0.06108114  1
  O  O0  1  0.78169321  0.78181815  0.56441703  1
  O  O1  1  0.21625609  0.21654410  0.43358735  1
  O  O2  1  0.83658172  0.33644298  0.67604558  1
  O  O3  1  0.33681616  0.83670999  0.67604116  1
  O  O4  1  0.15154013  0.65207012  0.30567514  1
  O  O5  1  0.65221406  0.15110795  0.30561552  1
  O  O6  1  0.89040333  0.89008191  0.78560187  1
  O  O7  1  0.51514216  0.01534620  0.02449665  1
  O  O8  1  0.08499463  0.08506656  0.16708476  1
  O  O9  1  0.01533995  0.51514484  0.02447669  1
loop_
_geom_bond_atom_site_label_1
_geom_bond_atom_site_label_2
_geom_bond_distance
_geom_bond_site_symmetry_2
Mg0 O9 1.999635 1_655
Mg0 O9 1.999722 1_555
Mg0 O7 1.999738 1_565
Mg0 O7 2.000038 1_555
O0 V0 1.952178 1_555
O0 Sr0 2.510505 1_555
O0 Sr1 2.778850 1_555
O0 Sr1 2.779721 1_665
O0 Sr1 2.785009 1_655
O0 Sr1 2.786228 1_565
O1 V1 2.025681 1_555
O1 Sr1 2.436945 1_555
O1 Sr0 2.777272 1_445
O1 Sr0 2.790086 1_455
O1 Sr0 2.790701 1_545
O1 Sr0 2.790855 1_555
O2 V0 1.964075 1_545
O2 V0 1.965805 1_555
O2 Sr3 2.582233 1_655
O2 Sr3 2.584584 1_555
O2 Sr1 2.673010 1_655
O2 Sr1 2.673465 1_555
O3 V0 1.961802 1_555
O3 V0 1.967783 1_455
O3 Sr3 2.582489 1_565
O3 Sr3 2.584655 1_555
O3 Sr1 2.673240 1_555
O3 Sr1 2.673346 1_565
O4 V1 1.974837 1_555
O4 V1 1.978773 1_565
O4 Sr2 2.546159 1_555
O4 Sr2 2.546737 1_455
O4 Sr0 2.812597 1_455
O4 Sr0 2.829840 1_555
O5 V1 1.975198 1_555
O5 V1 1.978356 1_655
O5 Sr2 2.544965 1_555
O5 Sr2 2.546823 1_545
O5 Sr0 2.811489 1_545
O5 Sr0 2.832652 1_555
O6 V0 1.924576 1_555
O6 Sr3 2.785008 1_665
O6 Sr3 2.787318 1_555
O6 Sr3 2.791467 1_655
O6 Sr3 2.793494 1_565
O7 V2 2.066587 1_655
O7 V2 2.066962 1_555
O8 V2 1.857947 1_555
O8 V1 2.645374 1_555
O8 Sr2 2.880950 1_555
O8 Sr2 2.895792 1_455
O8 Sr2 2.898669 1_545
O8 Sr2 2.901299 1_445
O9 V2 2.066997 1_565
O9 V2 2.067049 1_555
