# generated using pymatgen
data_MgFe5CuO8
_symmetry_space_group_name_H-M   'P 1'
_cell_length_a   6.25533130
_cell_length_b   6.25534880
_cell_length_c   6.08912643
_cell_angle_alpha   61.80147867
_cell_angle_beta   61.80130187
_cell_angle_gamma   59.94224702
_symmetry_Int_Tables_number   1
_chemical_formula_structural   MgFe5CuO8
_chemical_formula_sum   'Mg1 Fe5 Cu1 O8'
_cell_volume   172.84052231
_cell_formula_units_Z   1
loop_
 _symmetry_equiv_pos_site_id
 _symmetry_equiv_pos_as_xyz
  1  'x, y, z'
loop_
 _atom_site_type_symbol
 _atom_site_label
 _atom_site_symmetry_multiplicity
 _atom_site_fract_x
 _atom_site_fract_y
 _atom_site_fract_z
 _atom_site_occupancy
  Mg  Mg0  1  0.78406288  0.78404261  0.20975303  1
  Fe  Fe0  1  0.08072678  0.08073378  0.90314949  1
  Fe  Fe1  1  0.11650149  0.64146089  0.61758809  1
  Fe  Fe2  1  0.64145728  0.11650598  0.61758715  1
  Fe  Fe3  1  0.56971402  0.56971851  0.15132735  1
  Fe  Fe4  1  0.57196387  0.57197299  0.69874142  1
  Cu  Cu0  1  0.22544631  0.22541343  0.27589545  1
  O  O0  1  0.35473898  0.35474195  0.43799429  1
  O  O1  1  0.36284952  0.36285764  0.87158124  1
  O  O2  1  0.39915716  0.81731434  0.40401464  1
  O  O3  1  0.81731280  0.39915272  0.40401917  1
  O  O4  1  0.44216195  0.85675507  0.84487617  1
  O  O5  1  0.85674751  0.44216836  0.84487552  1
  O  O6  1  0.89914247  0.89914531  0.36596997  1
  O  O7  1  0.89884897  0.89884842  0.83179304  1
loop_
_geom_bond_atom_site_label_1
_geom_bond_atom_site_label_2
_geom_bond_distance
_geom_bond_site_symmetry_2
Mg0 O7 1.928943 1_554
Mg0 O6 1.937792 1_555
Mg0 O3 2.068462 1_555
Mg0 O2 2.068505 1_555
Fe0 O4 1.933653 1_545
Fe0 O5 1.933656 1_455
Fe0 O7 2.238015 1_445
Fe0 O6 2.400950 1_446
Fe1 O6 2.057580 1_455
Fe1 O7 2.063408 1_455
Fe1 O0 2.066261 1_555
Fe1 O5 2.093573 1_455
Fe1 O2 2.109699 1_555
Fe1 O1 2.195144 1_555
Fe2 O6 2.057579 1_545
Fe2 O7 2.063432 1_545
Fe2 O0 2.066255 1_555
Fe2 O4 2.093572 1_545
Fe2 O3 2.109667 1_555
Fe2 O1 2.195161 1_555
Fe3 O0 2.009582 1_555
Fe3 O5 2.036674 1_554
Fe3 O4 2.036688 1_554
Fe3 O2 2.224840 1_555
Fe3 O3 2.224867 1_555
Fe4 O1 1.908345 1_555
Fe4 O5 1.997699 1_555
Fe4 O4 1.997699 1_555
Fe4 O2 2.076798 1_555
Fe4 O3 2.076823 1_555
Cu0 O1 2.068599 1_554
Cu0 O2 2.108652 1_545
Cu0 O3 2.108827 1_455
Cu0 O0 2.108869 1_555
