# generated using pymatgen
data_Na3HfNb(SiO4)3
_symmetry_space_group_name_H-M   'P 1'
_cell_length_a   9.14295036
_cell_length_b   9.15183996
_cell_length_c   22.37633987
_cell_angle_alpha   90.00000000
_cell_angle_beta   90.14989249
_cell_angle_gamma   120.03217065
_symmetry_Int_Tables_number   1
_chemical_formula_structural   Na3HfNb(SiO4)3
_chemical_formula_sum   'Na18 Hf6 Nb6 Si18 O72'
_cell_volume   1620.95739422
_cell_formula_units_Z   6
loop_
 _symmetry_equiv_pos_site_id
 _symmetry_equiv_pos_as_xyz
  1  'x, y, z'
loop_
 _atom_site_type_symbol
 _atom_site_label
 _atom_site_symmetry_multiplicity
 _atom_site_fract_x
 _atom_site_fract_y
 _atom_site_fract_z
 _atom_site_occupancy
  Na  Na0  1  0.98444587  0.96548571  0.49807086  1
  Na  Na1  1  0.98444587  0.01896016  0.99807086  1
  Na  Na2  1  0.66620396  0.33583851  0.83157190  1
  Na  Na3  1  0.66620396  0.33036445  0.33157190  1
  Na  Na4  1  0.32919077  0.66331635  0.16496289  1
  Na  Na5  1  0.32919077  0.66587542  0.66496289  1
  Na  Na6  1  0.37028152  0.36618265  0.24896688  1
  Na  Na7  1  0.99305203  0.63311628  0.24836693  1
  Na  Na8  1  0.99305203  0.35993575  0.74836693  1
  Na  Na9  1  0.37028152  0.00409887  0.74896688  1
  Na  Na10  1  0.30374597  0.33927593  0.58172683  1
  Na  Na11  1  0.66402112  0.96605469  0.58132672  1
  Na  Na12  1  0.30374597  0.96446904  0.08172683  1
  Na  Na13  1  0.66402112  0.69796543  0.08132672  1
  Na  Na14  1  0.97261691  0.67545809  0.91496716  1
  Na  Na15  1  0.32938818  0.29588444  0.91558383  1
  Na  Na16  1  0.97261691  0.29715982  0.41496716  1
  Na  Na17  1  0.32938818  0.03350474  0.41558383  1
  Hf  Hf0  1  0.99434566  0.99675247  0.35481200  1
  Hf  Hf1  1  0.99434566  0.99759319  0.85481200  1
  Hf  Hf2  1  0.66772271  0.33930035  0.68837125  1
  Hf  Hf3  1  0.66772271  0.32842136  0.18837125  1
  Hf  Hf4  1  0.33021666  0.66191314  0.02175843  1
  Hf  Hf5  1  0.33021666  0.66830452  0.52175843  1
  Nb  Nb0  1  0.99766937  0.99496870  0.64506486  1
  Nb  Nb1  1  0.99766937  0.00270067  0.14506486  1
  Nb  Nb2  1  0.66897418  0.32914141  0.97815629  1
  Nb  Nb3  1  0.66897418  0.33983177  0.47815629  1
  Nb  Nb4  1  0.33914487  0.67057214  0.31162773  1
  Nb  Nb5  1  0.33914487  0.66857373  0.81162773  1
  Si  Si0  1  0.29046222  0.99782806  0.25109511  1
  Si  Si1  1  0.70575977  0.71097993  0.24784375  1
  Si  Si2  1  0.00170622  0.29407384  0.25310364  1
  Si  Si3  1  0.29046222  0.29263416  0.75109511  1
  Si  Si4  1  0.00170622  0.70763238  0.75310364  1
  Si  Si5  1  0.70575977  0.99477984  0.74784375  1
  Si  Si6  1  0.95885823  0.33203645  0.58481674  1
  Si  Si7  1  0.37330518  0.04252169  0.58456903  1
  Si  Si8  1  0.67116494  0.62696843  0.58312529  1
  Si  Si9  1  0.95885823  0.62682078  0.08481674  1
  Si  Si10  1  0.67116494  0.04419552  0.08312529  1
  Si  Si11  1  0.37330518  0.33078250  0.08456903  1
  Si  Si12  1  0.62534987  0.66660644  0.92055346  1
  Si  Si13  1  0.04004927  0.37727685  0.91424964  1
  Si  Si14  1  0.33917139  0.96103564  0.91731704  1
  Si  Si15  1  0.62534987  0.95874442  0.42055346  1
  Si  Si16  1  0.33917139  0.37813675  0.41731704  1
  Si  Si17  1  0.04004927  0.66277342  0.41424964  1
  O  O0  1  0.20117135  0.02185416  0.31029664  1
  O  O1  1  0.83078437  0.81071266  0.30317218  1
  O  O2  1  0.98851404  0.19443540  0.31469510  1
  O  O3  1  0.20117135  0.17931719  0.81029664  1
  O  O4  1  0.98851404  0.79407865  0.81469510  1
  O  O5  1  0.83078437  0.02007171  0.80317218  1
  O  O6  1  0.79701778  0.97862205  0.68589543  1
  O  O7  1  0.16669960  0.19476495  0.69212766  1
  O  O8  1  0.01543726  0.83418592  0.69646376  1
  O  O9  1  0.79701778  0.81839573  0.18589543  1
  O  O10  1  0.01543726  0.18125135  0.19646376  1
  O  O11  1  0.16669960  0.97193465  0.19212766  1
  O  O12  1  0.86689994  0.34473347  0.64483767  1
  O  O13  1  0.48535122  0.13285647  0.64382604  1
  O  O14  1  0.64369403  0.50657073  0.63957519  1
  O  O15  1  0.86689994  0.52216547  0.14483767  1
  O  O16  1  0.64369403  0.13712231  0.13957519  1
  O  O17  1  0.48535122  0.35249375  0.14382604  1
  O  O18  1  0.47430896  0.30951343  0.02567413  1
  O  O19  1  0.83856278  0.52592129  0.02544778  1
  O  O20  1  0.68774276  0.16003541  0.02315907  1
  O  O21  1  0.47430896  0.16479453  0.52567413  1
  O  O22  1  0.68774276  0.52770635  0.52315907  1
  O  O23  1  0.83856278  0.31264048  0.52544778  1
  O  O24  1  0.54164493  0.68290576  0.98180273  1
  O  O25  1  0.16259474  0.47634410  0.97016837  1
  O  O26  1  0.31785878  0.84897294  0.97602409  1
  O  O27  1  0.54164493  0.85874017  0.48180273  1
  O  O28  1  0.31785878  0.46888685  0.47602409  1
  O  O29  1  0.16259474  0.68625163  0.47016837  1
  O  O30  1  0.13068809  0.63800669  0.35350483  1
  O  O31  1  0.49752929  0.84963752  0.36343170  1
  O  O32  1  0.35053555  0.49047284  0.35710125  1
  O  O33  1  0.13068809  0.49268240  0.85350483  1
  O  O34  1  0.35053555  0.86006371  0.85710125  1
  O  O35  1  0.49752929  0.64789277  0.86343170  1
  O  O36  1  0.02190277  0.83030775  0.41188730  1
  O  O37  1  0.81710242  0.99299198  0.41444699  1
  O  O38  1  0.17394909  0.18741008  0.41464164  1
  O  O39  1  0.02190277  0.19159502  0.91188730  1
  O  O40  1  0.17394909  0.98653901  0.91464164  1
  O  O41  1  0.81710242  0.82411044  0.91444699  1
  O  O42  1  0.96778864  0.15493189  0.58528622  1
  O  O43  1  0.18997166  0.03617943  0.58765182  1
  O  O44  1  0.84259809  0.81349613  0.58646721  1
  O  O45  1  0.96778864  0.81285675  0.08528622  1
  O  O46  1  0.84259809  0.02910196  0.08646721  1
  O  O47  1  0.18997166  0.15379223  0.08765182  1
  O  O48  1  0.67983960  0.15873003  0.74708889  1
  O  O49  1  0.47483809  0.30860861  0.74656859  1
  O  O50  1  0.84526100  0.51582334  0.74775850  1
  O  O51  1  0.67983960  0.52110857  0.24708889  1
  O  O52  1  0.84526100  0.32943667  0.24775850  1
  O  O53  1  0.47483809  0.16622848  0.24656859  1
  O  O54  1  0.63122396  0.48838162  0.91962623  1
  O  O55  1  0.85794283  0.37278032  0.91986599  1
  O  O56  1  0.50779081  0.15127744  0.91914852  1
  O  O57  1  0.63122396  0.14284134  0.41962623  1
  O  O58  1  0.50779081  0.35651237  0.41914852  1
  O  O59  1  0.85794283  0.48516151  0.41986599  1
  O  O60  1  0.35452107  0.49718684  0.08042937  1
  O  O61  1  0.15164303  0.66252201  0.08098590  1
  O  O62  1  0.50618286  0.85587911  0.07996248  1
  O  O63  1  0.35452107  0.85733523  0.58042937  1
  O  O64  1  0.50618286  0.65030475  0.57996248  1
  O  O65  1  0.15164303  0.48912202  0.58098590  1
  O  O66  1  0.29897574  0.82234486  0.25430337  1
  O  O67  1  0.51829482  0.69389160  0.25382530  1
  O  O68  1  0.18099120  0.47719954  0.25084375  1
  O  O69  1  0.29897574  0.47663188  0.75430337  1
  O  O70  1  0.18099120  0.70379266  0.75084375  1
  O  O71  1  0.51829482  0.82440422  0.75382530  1
loop_
_geom_bond_atom_site_label_1
_geom_bond_atom_site_label_2
_geom_bond_distance
_geom_bond_site_symmetry_2
Na0 O44 2.395188 1_555
Na0 O36 2.407138 1_655
Na0 O37 2.505241 1_555
Na0 O43 2.594418 1_665
Na0 O42 2.665265 1_565
Na0 O38 2.665823 1_665
Na1 O46 2.395188 1_556
Na1 O39 2.407138 1_655
Na1 O41 2.505241 1_545
Na1 O47 2.594418 1_656
Na1 O45 2.665265 1_546
Na1 O40 2.665823 1_645
Na2 O50 2.495485 1_555
Na2 O49 2.507461 1_555
Na2 O56 2.521311 1_555
Na2 O54 2.526593 1_555
Na2 O48 2.533762 1_555
Na2 O55 2.545490 1_555
Na3 O52 2.495485 1_555
Na3 O53 2.507461 1_555
Na3 O58 2.521311 1_555
Na3 O57 2.526593 1_555
Na3 O51 2.533762 1_555
Na3 O59 2.545490 1_555
Na4 O68 2.476610 1_555
Na4 O61 2.477584 1_555
Na4 O60 2.509569 1_555
Na4 O62 2.550196 1_555
Na4 O67 2.553267 1_555
Na4 O66 2.568328 1_555
Na5 O70 2.476610 1_555
Na5 O65 2.477584 1_555
Na5 O63 2.509569 1_555
Na5 O64 2.550196 1_555
Na5 O71 2.553267 1_555
Na5 O69 2.568328 1_555
Na6 O68 2.406186 1_555
Na6 O51 2.450782 1_555
Na6 O53 2.452909 1_555
Na6 O67 2.602813 1_555
Na6 O17 2.608157 1_555
Na6 O32 2.718275 1_555
Na7 O52 2.406447 1_555
Na7 O66 2.447377 1_655
Na7 O51 2.512671 1_555
Na7 O15 2.557686 1_555
Na7 O30 2.654890 1_655
Na7 O68 2.728663 1_655
Na7 O1 2.961406 1_555
Na7 O11 2.966812 1_655
Na8 O50 2.406439 1_555
Na8 O69 2.447376 1_655
Na8 O48 2.512672 1_555
Na8 O12 2.557684 1_555
Na8 O33 2.654892 1_655
Na8 O70 2.728671 1_655
Na8 O5 2.961406 1_555
Na8 O7 2.966812 1_655
Na9 O70 2.406179 1_545
Na9 O48 2.450782 1_555
Na9 O49 2.452900 1_555
Na9 O71 2.602805 1_545
Na9 O13 2.608155 1_555
Na9 O34 2.718271 1_545
Na10 O65 2.392434 1_555
Na10 O43 2.430340 1_555
Na10 O64 2.501309 1_555
Na10 O28 2.620386 1_555
Na10 O42 2.664902 1_455
Na10 O7 2.789137 1_555
Na11 O42 2.429529 1_565
Na11 O27 2.462301 1_555
Na11 O63 2.485812 1_555
Na11 O64 2.501878 1_555
Na11 O6 2.609967 1_555
Na11 O44 2.628532 1_555
Na12 O61 2.392418 1_555
Na12 O47 2.430349 1_565
Na12 O62 2.501295 1_555
Na12 O26 2.620378 1_554
Na12 O45 2.664902 1_455
Na12 O11 2.789139 1_555
Na13 O45 2.429527 1_555
Na13 O24 2.462304 1_554
Na13 O60 2.485809 1_555
Na13 O62 2.501894 1_555
Na13 O9 2.609969 1_555
Na13 O46 2.628540 1_565
Na14 O41 2.410142 1_555
Na14 O55 2.424457 1_555
Na14 O4 2.465299 1_555
Na14 O40 2.499611 1_655
Na14 O54 2.708758 1_555
Na14 O19 2.797056 1_556
Na15 O54 2.420703 1_555
Na15 O40 2.451054 1_545
Na15 O39 2.476747 1_555
Na15 O56 2.564851 1_555
Na15 O3 2.607013 1_555
Na15 O18 2.767149 1_556
Na16 O37 2.410150 1_545
Na16 O59 2.424440 1_555
Na16 O2 2.465302 1_555
Na16 O38 2.499618 1_655
Na16 O57 2.708757 1_555
Na16 O23 2.797051 1_555
Na17 O57 2.420706 1_555
Na17 O38 2.451046 1_555
Na17 O36 2.476748 1_545
Na17 O58 2.564836 1_555
Na17 O0 2.607011 1_555
Na17 O21 2.767145 1_555
Hf0 O1 1.978065 1_555
Hf0 O2 2.044022 1_565
Hf0 O0 2.048380 1_665
Hf0 O37 2.088884 1_555
Hf0 O36 2.097000 1_655
Hf0 O38 2.157274 1_665
Hf1 O5 1.978065 1_565
Hf1 O4 2.044022 1_555
Hf1 O3 2.048380 1_665
Hf1 O41 2.088884 1_555
Hf1 O39 2.097000 1_665
Hf1 O40 2.157274 1_655
Hf2 O14 1.979720 1_555
Hf2 O13 2.044831 1_555
Hf2 O12 2.046049 1_555
Hf2 O50 2.091519 1_555
Hf2 O49 2.097849 1_555
Hf2 O48 2.156846 1_555
Hf3 O16 1.979720 1_555
Hf3 O17 2.044831 1_555
Hf3 O15 2.046049 1_555
Hf3 O52 2.091519 1_555
Hf3 O53 2.097849 1_555
Hf3 O51 2.156846 1_555
Hf4 O25 1.987726 1_554
Hf4 O26 2.045434 1_554
Hf4 O24 2.051913 1_554
Hf4 O60 2.092709 1_555
Hf4 O61 2.107733 1_555
Hf4 O62 2.136840 1_555
Hf5 O29 1.987726 1_555
Hf5 O28 2.045434 1_555
Hf5 O27 2.051913 1_555
Hf5 O63 2.092709 1_555
Hf5 O65 2.107733 1_555
Hf5 O64 2.136840 1_555
Nb0 O8 1.937175 1_655
Nb0 O6 1.989154 1_555
Nb0 O7 2.000926 1_665
Nb0 O44 2.030022 1_555
Nb0 O43 2.057193 1_665
Nb0 O42 2.098924 1_565
Nb1 O10 1.937176 1_655
Nb1 O9 1.989154 1_545
Nb1 O11 2.000926 1_645
Nb1 O46 2.030022 1_555
Nb1 O47 2.057193 1_655
Nb1 O45 2.098924 1_545
Nb2 O20 1.924469 1_556
Nb2 O19 1.990867 1_556
Nb2 O18 2.005104 1_556
Nb2 O56 2.038008 1_555
Nb2 O55 2.041304 1_555
Nb2 O54 2.111724 1_555
Nb3 O22 1.924469 1_555
Nb3 O23 1.990867 1_555
Nb3 O21 2.005104 1_555
Nb3 O58 2.038008 1_555
Nb3 O59 2.041304 1_555
Nb3 O57 2.111724 1_555
Nb4 O31 1.934448 1_555
Nb4 O32 1.983476 1_555
Nb4 O30 2.010014 1_555
Nb4 O67 2.015573 1_555
Nb4 O66 2.053706 1_555
Nb4 O68 2.121543 1_555
Nb5 O35 1.934448 1_555
Nb5 O34 1.983476 1_555
Nb5 O33 2.010014 1_555
Nb5 O71 2.015573 1_555
Nb5 O69 2.053706 1_555
Nb5 O70 2.121543 1_555
O0 Si0 1.629428 1_545
O1 Si1 1.618874 1_555
O2 Si2 1.623654 1_655
O3 Si3 1.629428 1_555
O4 Si4 1.623654 1_655
O5 Si5 1.618874 1_545
O6 Si5 1.664053 1_555
O7 Si3 1.673729 1_555
O8 Si4 1.678915 1_555
O9 Si1 1.664053 1_555
O10 Si2 1.678915 1_555
O11 Si0 1.673729 1_555
O12 Si6 1.621073 1_555
O13 Si7 1.623650 1_555
O14 Si8 1.611630 1_555
O15 Si9 1.621073 1_555
O16 Si10 1.611630 1_555
O17 Si11 1.623650 1_555
O18 Si11 1.677415 1_555
O19 Si9 1.674195 1_555
O20 Si10 1.669611 1_555
O21 Si7 1.677415 1_555
O22 Si8 1.669611 1_555
O23 Si6 1.674195 1_555
O24 Si12 1.614334 1_555
O25 Si13 1.618287 1_555
O26 Si14 1.617640 1_555
O27 Si15 1.614334 1_555
O28 Si16 1.617640 1_555
O29 Si17 1.618287 1_555
O30 Si17 1.667211 1_555
O31 Si15 1.679484 1_555
O32 Si16 1.666454 1_555
O33 Si13 1.667211 1_555
O34 Si14 1.666454 1_555
O35 Si12 1.679484 1_555
O36 Si17 1.623501 1_555
O37 Si15 1.625357 1_555
O38 Si16 1.640884 1_555
O39 Si13 1.623510 1_555
O40 Si14 1.640879 1_555
O41 Si12 1.625353 1_555
O42 Si6 1.663232 1_555
O43 Si7 1.649552 1_555
O44 Si8 1.642424 1_555
O45 Si9 1.663241 1_555
O46 Si10 1.642419 1_555
O47 Si11 1.649548 1_555
O48 Si5 1.632084 1_545
O49 Si3 1.620974 1_555
O50 Si4 1.620956 1_655
O51 Si1 1.632093 1_555
O52 Si2 1.620950 1_655
O53 Si0 1.620970 1_545
O54 Si12 1.658748 1_555
O55 Si13 1.649906 1_655
O56 Si14 1.650046 1_545
O57 Si15 1.658730 1_545
O58 Si16 1.650057 1_555
O59 Si17 1.649915 1_655
O60 Si11 1.618344 1_555
O61 Si9 1.626427 1_455
O62 Si10 1.627217 1_565
O63 Si7 1.618326 1_565
O64 Si8 1.627228 1_555
O65 Si6 1.626433 1_455
O66 Si0 1.647887 1_555
O67 Si1 1.647119 1_555
O68 Si2 1.657967 1_555
O69 Si3 1.647896 1_555
O70 Si4 1.657963 1_555
O71 Si5 1.647115 1_555
