# generated using pymatgen
data_RuS2
_symmetry_space_group_name_H-M   'P 1'
_cell_length_a   5.63060972
_cell_length_b   5.63060972
_cell_length_c   5.63060972
_cell_angle_alpha   90.00000000
_cell_angle_beta   90.00000000
_cell_angle_gamma   90.00000000
_symmetry_Int_Tables_number   1
_chemical_formula_structural   RuS2
_chemical_formula_sum   'Ru4 S8'
_cell_volume   178.51153198
_cell_formula_units_Z   4
loop_
 _symmetry_equiv_pos_site_id
 _symmetry_equiv_pos_as_xyz
  1  'x, y, z'
loop_
 _atom_site_type_symbol
 _atom_site_label
 _atom_site_symmetry_multiplicity
 _atom_site_fract_x
 _atom_site_fract_y
 _atom_site_fract_z
 _atom_site_occupancy
  Ru  Ru0  1  0.00000000  0.50000000  0.50000000  1
  Ru  Ru1  1  0.50000000  0.50000000  0.00000000  1
  Ru  Ru2  1  0.50000000  -0.00000000  0.50000000  1
  Ru  Ru3  1  0.00000000  -0.00000000  0.00000000  1
  S  S0  1  0.38820417  0.11179583  0.88820417  1
  S  S1  1  0.11179583  0.88820417  0.38820417  1
  S  S2  1  0.88820417  0.38820417  0.11179583  1
  S  S3  1  0.61179583  0.61179583  0.61179583  1
  S  S4  1  0.38820417  0.38820417  0.38820417  1
  S  S5  1  0.11179583  0.61179583  0.88820417  1
  S  S6  1  0.88820417  0.11179583  0.61179583  1
  S  S7  1  0.61179583  0.88820417  0.11179583  1
loop_
_geom_bond_atom_site_label_1
_geom_bond_atom_site_label_2
_geom_bond_distance
_geom_bond_site_symmetry_2
Ru0 S5 2.360153 1_555
Ru0 S4 2.360153 1_555
Ru0 S1 2.360153 1_555
Ru0 S2 2.360153 1_455
Ru0 S3 2.360153 1_455
Ru0 S6 2.360153 1_455
Ru1 S2 2.360153 1_555
Ru1 S3 2.360153 1_554
Ru1 S0 2.360153 1_554
Ru1 S7 2.360153 1_555
Ru1 S4 2.360153 1_555
Ru1 S5 2.360153 1_554
Ru2 S7 2.360153 1_545
Ru2 S6 2.360153 1_555
Ru2 S0 2.360153 1_555
Ru2 S4 2.360153 1_555
Ru2 S3 2.360153 1_545
Ru2 S1 2.360153 1_545
Ru3 S6 2.360153 1_454
Ru3 S5 2.360153 1_544
Ru3 S0 2.360153 1_554
Ru3 S2 2.360153 1_455
Ru3 S7 2.360153 1_445
Ru3 S1 2.360153 1_545
S0 S7 2.180578 1_546
S1 S6 2.180578 1_465
S2 S5 2.180578 1_654
S3 S4 2.180578 1_555
