# generated using pymatgen
data_Na3CaLaSi(SO6)2
_symmetry_space_group_name_H-M   'P 1'
_cell_length_a   9.60881704
_cell_length_b   9.60583270
_cell_length_c   24.06418159
_cell_angle_alpha   90.58599528
_cell_angle_beta   90.00000000
_cell_angle_gamma   120.01027773
_symmetry_Int_Tables_number   1
_chemical_formula_structural   Na3CaLaSi(SO6)2
_chemical_formula_sum   'Na18 Ca6 La6 Si6 S12 O72'
_cell_volume   1923.23073391
_cell_formula_units_Z   6
loop_
 _symmetry_equiv_pos_site_id
 _symmetry_equiv_pos_as_xyz
  1  'x, y, z'
loop_
 _atom_site_type_symbol
 _atom_site_label
 _atom_site_symmetry_multiplicity
 _atom_site_fract_x
 _atom_site_fract_y
 _atom_site_fract_z
 _atom_site_occupancy
  Na  Na0  1  0.62389013  0.00825551  0.25452139  1
  Na  Na1  1  0.01269742  0.64926891  0.23652479  1
  Na  Na2  1  0.63657149  0.64926891  0.73652479  1
  Na  Na3  1  0.38436538  0.00825551  0.75452139  1
  Na  Na4  1  0.32910026  0.36079881  0.58662309  1
  Na  Na5  1  0.64527171  0.93479495  0.57703746  1
  Na  Na6  1  0.28952425  0.93479495  0.07703746  1
  Na  Na7  1  0.03169955  0.36079881  0.08662309  1
  Na  Na8  1  0.99632527  0.69296228  0.92747784  1
  Na  Na9  1  0.68386786  0.02775058  0.90175003  1
  Na  Na10  1  0.34388172  0.02775058  0.40175003  1
  Na  Na11  1  0.69663601  0.69296228  0.42747784  1
  Na  Na12  1  0.95923950  0.97930051  0.49393728  1
  Na  Na13  1  0.02006101  0.97930051  0.99393728  1
  Na  Na14  1  0.65372627  0.29210164  0.82784007  1
  Na  Na15  1  0.63837638  0.29210164  0.32784007  1
  Na  Na16  1  0.31946523  0.67113953  0.16116125  1
  Na  Na17  1  0.35167330  0.67113953  0.66116125  1
  Ca  Ca0  1  0.00800469  0.01389763  0.34791071  1
  Ca  Ca1  1  0.00589294  0.01389763  0.84791071  1
  Ca  Ca2  1  0.67906618  0.33707260  0.68155130  1
  Ca  Ca3  1  0.65800742  0.33707260  0.18155130  1
  Ca  Ca4  1  0.33324375  0.67121924  0.01369850  1
  Ca  Ca5  1  0.33797448  0.67121924  0.51369850  1
  La  La0  1  0.97593857  0.98114174  0.65171919  1
  La  La1  1  0.00520317  0.98114174  0.15171919  1
  La  La2  1  0.65719066  0.33857230  0.98602766  1
  La  La3  1  0.68138264  0.33857230  0.48602766  1
  La  La4  1  0.33663346  0.67270385  0.31978649  1
  La  La5  1  0.33606939  0.67270385  0.81978649  1
  Si  Si0  1  0.31205822  0.00012285  0.25337712  1
  Si  Si1  1  0.68806464  0.00012285  0.75337712  1
  Si  Si2  1  0.65513714  0.63389881  0.58401198  1
  Si  Si3  1  0.97876267  0.63389881  0.08401198  1
  Si  Si4  1  0.32965117  0.97342267  0.91807480  1
  Si  Si5  1  0.64377050  0.97342267  0.41807480  1
  S  S0  1  0.70235869  0.69650860  0.25376181  1
  S  S1  1  0.98983471  0.29910325  0.24759998  1
  S  S2  1  0.30926854  0.29910325  0.74759998  1
  S  S3  1  0.99414990  0.69650860  0.75376181  1
  S  S4  1  0.97935464  0.33692596  0.58548664  1
  S  S5  1  0.36757667  0.03379322  0.58439265  1
  S  S6  1  0.66621755  0.03379322  0.08439265  1
  S  S7  1  0.35757231  0.33692596  0.08548664  1
  S  S8  1  0.64406273  0.67536462  0.91621852  1
  S  S9  1  0.02874633  0.35907945  0.91995807  1
  S  S10  1  0.33033212  0.35907945  0.41995807  1
  S  S11  1  0.03130089  0.67536462  0.41621852  1
  O  O0  1  0.22142279  0.00611967  0.30991178  1
  O  O1  1  0.79714278  0.77960766  0.30398017  1
  O  O2  1  0.97819373  0.19801485  0.29477020  1
  O  O3  1  0.21982112  0.19801485  0.79477020  1
  O  O4  1  0.98246488  0.77960766  0.80398017  1
  O  O5  1  0.78469688  0.00611967  0.80991178  1
  O  O6  1  0.77723204  0.97948146  0.69701819  1
  O  O7  1  0.22152863  0.22717381  0.69431822  1
  O  O8  1  0.02214234  0.79964763  0.70409287  1
  O  O9  1  0.77750528  0.79964763  0.20409287  1
  O  O10  1  0.00564518  0.22717381  0.19431822  1
  O  O11  1  0.20224942  0.97948146  0.19701819  1
  O  O12  1  0.89604989  0.34981353  0.63432129  1
  O  O13  1  0.46967154  0.11570240  0.63380510  1
  O  O14  1  0.64930373  0.53359150  0.63946145  1
  O  O15  1  0.88428877  0.53359150  0.13946145  1
  O  O16  1  0.64603186  0.11570240  0.13380510  1
  O  O17  1  0.45376465  0.34981353  0.13432129  1
  O  O18  1  0.42821743  0.30888032  0.03451640  1
  O  O19  1  0.87935234  0.54284782  0.02631053  1
  O  O20  1  0.68228673  0.12877090  0.03349343  1
  O  O21  1  0.44648517  0.12877090  0.53349343  1
  O  O22  1  0.66349648  0.54284782  0.52631053  1
  O  O23  1  0.88066390  0.30888032  0.53451640  1
  O  O24  1  0.54976873  0.67831617  0.96391210  1
  O  O25  1  0.12203648  0.43725103  0.97114268  1
  O  O26  1  0.31514662  0.86524332  0.97270752  1
  O  O27  1  0.55009570  0.86524332  0.47270752  1
  O  O28  1  0.31521356  0.43725103  0.47114268  1
  O  O29  1  0.12854644  0.67831617  0.46391210  1
  O  O30  1  0.10032635  0.65365171  0.36345228  1
  O  O31  1  0.53537594  0.88672193  0.36025745  1
  O  O32  1  0.34285834  0.45696735  0.37071157  1
  O  O33  1  0.11410801  0.45696735  0.87071157  1
  O  O34  1  0.35134499  0.88672193  0.86025745  1
  O  O35  1  0.55332436  0.65365171  0.86345228  1
  O  O36  1  0.02757961  0.82916933  0.41552309  1
  O  O37  1  0.81608596  0.97632551  0.41453493  1
  O  O38  1  0.19268678  0.19311857  0.41549353  1
  O  O39  1  0.00043179  0.19311857  0.91549353  1
  O  O40  1  0.16023956  0.97632551  0.91453493  1
  O  O41  1  0.80158971  0.82916933  0.91552309  1
  O  O42  1  0.00297745  0.19279382  0.58879210  1
  O  O43  1  0.20925794  0.02649376  0.58866502  1
  O  O44  1  0.80986785  0.82306350  0.58184069  1
  O  O45  1  0.01319566  0.82306350  0.08184069  1
  O  O46  1  0.81723582  0.02649376  0.08866502  1
  O  O47  1  0.18981638  0.19279382  0.08879210  1
  O  O48  1  0.65518698  0.15182221  0.74962376  1
  O  O49  1  0.47140341  0.31221890  0.74672087  1
  O  O50  1  0.84225123  0.54082449  0.74739210  1
  O  O51  1  0.69857427  0.54082449  0.24739210  1
  O  O52  1  0.84081648  0.31221890  0.24672087  1
  O  O53  1  0.49663623  0.15182221  0.24962376  1
  O  O54  1  0.67829582  0.53962883  0.91892833  1
  O  O55  1  0.86722162  0.35016113  0.92078872  1
  O  O56  1  0.50390059  0.14736108  0.91931613  1
  O  O57  1  0.64346150  0.14736108  0.41931613  1
  O  O58  1  0.48294051  0.35016113  0.42078872  1
  O  O59  1  0.86133402  0.53962883  0.41892833  1
  O  O60  1  0.34038165  0.48192566  0.08049313  1
  O  O61  1  0.15829644  0.64642549  0.08406627  1
  O  O62  1  0.52178337  0.87057811  0.08002605  1
  O  O63  1  0.34879374  0.87057811  0.58002605  1
  O  O64  1  0.48812805  0.64642549  0.58406627  1
  O  O65  1  0.14154301  0.48192566  0.58049313  1
  O  O66  1  0.32051149  0.82708556  0.25036887  1
  O  O67  1  0.53651978  0.67255775  0.25627095  1
  O  O68  1  0.13160128  0.46614370  0.25252362  1
  O  O69  1  0.33454142  0.46614370  0.75252362  1
  O  O70  1  0.13603697  0.67255775  0.75627095  1
  O  O71  1  0.50657306  0.82708556  0.75036887  1
loop_
_geom_bond_atom_site_label_1
_geom_bond_atom_site_label_2
_geom_bond_distance
_geom_bond_site_symmetry_2
Na0 O53 2.258543 1_555
Na0 O66 2.541297 1_545
Na0 O52 2.613153 1_555
Na0 O31 2.761891 1_545
Na0 O67 2.898230 1_545
Na1 O68 2.563625 1_555
Na1 O66 2.590644 1_555
Na1 O15 2.605436 1_455
Na1 O51 2.669149 1_455
Na1 O52 2.817379 1_455
Na1 O11 2.926627 1_555
Na2 O69 2.563633 1_555
Na2 O71 2.590652 1_555
Na2 O14 2.605438 1_555
Na2 O50 2.669158 1_555
Na2 O49 2.817379 1_555
Na2 O6 2.926627 1_555
Na3 O48 2.258551 1_555
Na3 O71 2.541289 1_545
Na3 O49 2.613151 1_555
Na3 O34 2.761890 1_545
Na3 O70 2.898233 1_545
Na4 O64 2.382475 1_555
Na4 O65 2.593175 1_555
Na4 O42 2.714761 1_555
Na4 O43 2.818675 1_555
Na4 O7 2.858885 1_555
Na4 O28 2.901623 1_555
Na4 O14 2.947312 1_555
Na5 O44 2.316718 1_555
Na5 O64 2.409834 1_555
Na5 O63 2.597002 1_555
Na5 O27 2.634466 1_555
Na6 O45 2.316726 1_555
Na6 O61 2.409833 1_555
Na6 O62 2.596983 1_555
Na6 O26 2.634462 1_554
Na7 O61 2.382476 1_555
Na7 O60 2.593157 1_555
Na7 O47 2.714753 1_555
Na7 O46 2.818676 1_455
Na7 O10 2.858883 1_555
Na7 O25 2.901619 1_554
Na7 O15 2.947312 1_455
Na8 O40 2.390722 1_655
Na8 O54 2.653600 1_555
Na8 O19 2.729094 1_556
Na8 O41 2.784351 1_555
Na8 O26 2.863591 1_655
Na8 O55 2.882865 1_555
Na9 O5 2.461295 1_555
Na9 O56 2.542975 1_555
Na9 O39 2.653514 1_655
Na9 O41 2.683178 1_545
Na9 O55 2.723663 1_555
Na9 O34 2.946811 1_545
Na10 O0 2.461291 1_555
Na10 O57 2.542992 1_555
Na10 O38 2.653505 1_555
Na10 O36 2.683170 1_545
Na10 O58 2.723661 1_555
Na10 O31 2.946811 1_545
Na11 O37 2.390721 1_555
Na11 O59 2.653617 1_555
Na11 O22 2.729097 1_555
Na11 O36 2.784359 1_655
Na11 O27 2.863591 1_555
Na11 O58 2.882862 1_555
Na12 O37 2.345944 1_555
Na12 O44 2.587896 1_555
Na12 O36 2.638801 1_655
Na12 O38 2.878238 1_665
Na12 O42 2.938487 1_665
Na13 O40 2.345944 1_555
Na13 O45 2.587896 1_556
Na13 O41 2.638801 1_455
Na13 O39 2.878238 1_565
Na13 O47 2.938487 1_566
Na14 O48 2.307751 1_555
Na14 O56 2.629018 1_555
Na14 O49 2.695079 1_555
Na14 O55 2.890058 1_555
Na14 O50 2.915952 1_555
Na15 O53 2.307751 1_555
Na15 O57 2.629018 1_555
Na15 O52 2.695079 1_555
Na15 O58 2.890058 1_555
Na15 O51 2.915952 1_555
Na16 O61 2.349415 1_555
Na16 O66 2.602229 1_555
Na16 O60 2.721296 1_555
Na16 O62 2.759086 1_555
Na16 O68 2.915929 1_555
Na17 O64 2.349415 1_555
Na17 O71 2.602229 1_555
Na17 O65 2.721296 1_555
Na17 O63 2.759086 1_555
Na17 O69 2.915929 1_555
Ca0 O0 2.280121 1_555
Ca0 O2 2.323427 1_455
Ca0 O37 2.333990 1_445
Ca0 O38 2.375832 1_555
Ca0 O1 2.382807 1_445
Ca0 O36 2.494853 1_545
Ca1 O5 2.280121 1_455
Ca1 O3 2.323427 1_555
Ca1 O40 2.333990 1_545
Ca1 O39 2.375832 1_555
Ca1 O4 2.382807 1_445
Ca1 O41 2.494853 1_445
Ca2 O14 2.291357 1_555
Ca2 O12 2.324084 1_555
Ca2 O48 2.356651 1_555
Ca2 O13 2.358051 1_555
Ca2 O50 2.380411 1_555
Ca2 O49 2.455430 1_555
Ca3 O15 2.291357 1_555
Ca3 O17 2.324084 1_555
Ca3 O53 2.356651 1_555
Ca3 O16 2.358051 1_555
Ca3 O51 2.380411 1_555
Ca3 O52 2.455430 1_555
Ca4 O26 2.199696 1_554
Ca4 O61 2.314687 1_555
Ca4 O25 2.368304 1_554
Ca4 O24 2.372444 1_554
Ca4 O62 2.442128 1_555
Ca4 O60 2.465590 1_555
Ca5 O27 2.199696 1_555
Ca5 O64 2.314688 1_555
Ca5 O28 2.368304 1_555
Ca5 O29 2.372444 1_555
Ca5 O63 2.442128 1_555
Ca5 O65 2.465590 1_555
La0 O6 2.191801 1_555
La0 O44 2.281174 1_555
La0 O8 2.375748 1_655
La0 O42 2.455328 1_665
La0 O43 2.560251 1_665
La0 O7 2.564501 1_665
La1 O11 2.191801 1_555
La1 O45 2.281174 1_555
La1 O9 2.375748 1_455
La1 O47 2.455328 1_565
La1 O46 2.560251 1_465
La1 O10 2.564501 1_565
La2 O19 2.262307 1_556
La2 O56 2.313824 1_555
La2 O18 2.379637 1_556
La2 O20 2.440809 1_556
La2 O54 2.459743 1_555
La2 O55 2.515714 1_555
La3 O22 2.262307 1_555
La3 O57 2.313824 1_555
La3 O23 2.379637 1_555
La3 O21 2.440809 1_555
La3 O59 2.459743 1_555
La3 O58 2.515714 1_555
La4 O31 2.203095 1_555
La4 O66 2.300903 1_555
La4 O30 2.425213 1_555
La4 O32 2.444553 1_555
La4 O67 2.455156 1_555
La4 O68 2.542107 1_555
La5 O34 2.203095 1_555
La5 O71 2.300903 1_555
La5 O35 2.425213 1_555
La5 O33 2.444553 1_555
La5 O70 2.455156 1_555
La5 O69 2.542107 1_555
O0 Si0 1.631323 1_555
O1 S0 1.476514 1_555
O2 S1 1.468946 1_555
O3 S2 1.468946 1_555
O4 S3 1.476514 1_555
O5 Si1 1.631323 1_555
O6 Si1 1.666496 1_565
O7 S2 1.493771 1_555
O8 S3 1.496719 1_455
O9 S0 1.496719 1_555
O10 S1 1.493771 1_455
O11 Si0 1.666496 1_565
O12 S4 1.460557 1_555
O13 S5 1.484618 1_555
O14 Si2 1.638382 1_555
O15 Si3 1.638382 1_555
O16 S6 1.484618 1_555
O17 S7 1.460557 1_555
O18 S7 1.487946 1_555
O19 Si3 1.656769 1_555
O20 S6 1.496129 1_555
O21 S5 1.496129 1_555
O22 Si2 1.656769 1_555
O23 S4 1.487946 1_555
O24 S8 1.471054 1_555
O25 S9 1.480636 1_555
O26 Si4 1.646435 1_555
O27 Si5 1.646435 1_555
O28 S10 1.480636 1_555
O29 S11 1.471054 1_555
O30 S11 1.492883 1_555
O31 Si5 1.680123 1_555
O32 S10 1.487491 1_555
O33 S9 1.487491 1_555
O34 Si4 1.680123 1_555
O35 S8 1.492883 1_555
O36 S11 1.495890 1_555
O37 Si5 1.644202 1_555
O38 S10 1.479741 1_555
O39 S9 1.479745 1_555
O40 Si4 1.644192 1_555
O41 S8 1.495895 1_555
O42 S4 1.513715 1_455
O43 S5 1.491024 1_555
O44 Si2 1.677658 1_555
O45 Si3 1.677662 1_455
O46 S6 1.491015 1_555
O47 S7 1.513720 1_555
O48 Si1 1.641516 1_555
O49 S2 1.499054 1_555
O50 S3 1.483969 1_555
O51 S0 1.483974 1_555
O52 S1 1.499045 1_555
O53 Si0 1.641522 1_555
O54 S8 1.497750 1_555
O55 S9 1.511180 1_655
O56 Si4 1.672282 1_545
O57 Si5 1.672272 1_545
O58 S10 1.511199 1_555
O59 S11 1.497737 1_655
O60 S7 1.488389 1_555
O61 Si3 1.668181 1_455
O62 S6 1.488378 1_565
O63 S5 1.488370 1_565
O64 Si2 1.668200 1_555
O65 S4 1.488378 1_455
O66 Si0 1.705060 1_565
O67 S0 1.493125 1_555
O68 S1 1.501318 1_455
O69 S2 1.501321 1_555
O70 S3 1.493116 1_455
O71 Si1 1.705065 1_565
