# generated using pymatgen
data_MgNi2
_symmetry_space_group_name_H-M   'P 1'
_cell_length_a   4.75394307
_cell_length_b   4.75394389
_cell_length_c   15.64010057
_cell_angle_alpha   90.00000000
_cell_angle_beta   90.00000000
_cell_angle_gamma   120.00002744
_symmetry_Int_Tables_number   1
_chemical_formula_structural   MgNi2
_chemical_formula_sum   'Mg8 Ni16'
_cell_volume   306.11039709
_cell_formula_units_Z   8
loop_
 _symmetry_equiv_pos_site_id
 _symmetry_equiv_pos_as_xyz
  1  'x, y, z'
loop_
 _atom_site_type_symbol
 _atom_site_label
 _atom_site_symmetry_multiplicity
 _atom_site_fract_x
 _atom_site_fract_y
 _atom_site_fract_z
 _atom_site_occupancy
  Mg  Mg0  1  0.00000000  0.00000000  0.09291949  1
  Mg  Mg1  1  0.00000000  0.00000000  0.59291949  1
  Mg  Mg2  1  0.00000000  0.00000000  0.90708051  1
  Mg  Mg3  1  0.00000000  0.00000000  0.40707951  1
  Mg  Mg4  1  0.33333300  0.66666700  0.84438062  1
  Mg  Mg5  1  0.66666700  0.33333300  0.34438062  1
  Mg  Mg6  1  0.66666700  0.33333300  0.15561938  1
  Mg  Mg7  1  0.33333300  0.66666700  0.65561938  1
  Ni  Ni0  1  0.50000000  0.50000000  0.00000000  1
  Ni  Ni1  1  0.00000000  0.50000000  0.50000000  1
  Ni  Ni2  1  0.50000000  0.00000000  0.50000000  1
  Ni  Ni3  1  0.50000000  0.00000000  0.00000000  1
  Ni  Ni4  1  0.00000000  0.50000000  0.00000000  1
  Ni  Ni5  1  0.50000000  0.50000000  0.50000000  1
  Ni  Ni6  1  0.16427075  0.83572825  0.25000000  1
  Ni  Ni7  1  0.32854450  0.16427075  0.75000000  1
  Ni  Ni8  1  0.83572825  0.67145550  0.75000000  1
  Ni  Ni9  1  0.16427075  0.32854450  0.25000000  1
  Ni  Ni10  1  0.67145550  0.83572825  0.25000000  1
  Ni  Ni11  1  0.83572825  0.16427075  0.75000000  1
  Ni  Ni12  1  0.33333400  0.66666700  0.12540511  1
  Ni  Ni13  1  0.66666600  0.33333300  0.62540511  1
  Ni  Ni14  1  0.66666600  0.33333300  0.87459489  1
  Ni  Ni15  1  0.33333400  0.66666700  0.37459489  1
loop_
_geom_bond_atom_site_label_1
_geom_bond_atom_site_label_2
_geom_bond_distance
_geom_bond_site_symmetry_2
Mg0 Ni0 2.786034 1_445
Mg0 Ni0 2.786034 1_555
Mg0 Ni3 2.786034 1_555
Mg0 Ni3 2.786034 1_455
Mg0 Ni4 2.786035 1_545
Mg0 Ni4 2.786035 1_555
Mg0 Ni12 2.791317 1_445
Mg0 Ni12 2.791321 1_555
Mg0 Ni12 2.791322 1_545
Mg0 Ni6 2.804502 1_545
Mg0 Ni10 2.804505 1_445
Mg0 Ni9 2.804505 1_555
Mg1 Ni5 2.786034 1_445
Mg1 Ni5 2.786034 1_555
Mg1 Ni2 2.786034 1_555
Mg1 Ni2 2.786034 1_455
Mg1 Ni1 2.786035 1_555
Mg1 Ni1 2.786035 1_545
Mg1 Ni13 2.791317 1_555
Mg1 Ni13 2.791321 1_445
Mg1 Ni13 2.791322 1_455
Mg1 Ni11 2.804502 1_455
Mg1 Ni7 2.804505 1_555
Mg1 Ni8 2.804505 1_445
Mg2 Ni0 2.786034 1_446
Mg2 Ni0 2.786034 1_556
Mg2 Ni3 2.786034 1_456
Mg2 Ni3 2.786034 1_556
Mg2 Ni4 2.786035 1_556
Mg2 Ni4 2.786035 1_546
Mg2 Ni14 2.791317 1_555
Mg2 Ni14 2.791321 1_445
Mg2 Ni14 2.791322 1_455
Mg2 Ni11 2.804502 1_455
Mg2 Ni7 2.804505 1_555
Mg2 Ni8 2.804505 1_445
Mg3 Ni5 2.786042 1_445
Mg3 Ni5 2.786042 1_555
Mg3 Ni2 2.786043 1_555
Mg3 Ni2 2.786043 1_455
Mg3 Ni1 2.786043 1_545
Mg3 Ni1 2.786043 1_555
Mg3 Ni15 2.791314 1_445
Mg3 Ni15 2.791318 1_555
Mg3 Ni15 2.791319 1_545
Mg3 Ni6 2.804488 1_545
Mg3 Ni10 2.804492 1_445
Mg3 Ni9 2.804492 1_555
Mg4 Ni14 2.785070 1_565
Mg4 Ni14 2.785074 1_455
Mg4 Ni14 2.785075 1_555
Mg4 Ni4 2.794138 1_556
Mg4 Ni3 2.794138 1_566
Mg4 Ni0 2.794141 1_556
Mg4 Ni7 2.798084 1_565
Mg4 Ni8 2.798088 1_455
Mg4 Ni11 2.798090 1_565
Mg4 Ni11 2.798094 1_455
Mg4 Ni8 2.798096 1_555
Mg4 Ni7 2.798101 1_555
Mg5 Ni15 2.785070 1_545
Mg5 Ni15 2.785074 1_655
Mg5 Ni15 2.785075 1_555
Mg5 Ni1 2.794138 1_655
Mg5 Ni2 2.794138 1_555
Mg5 Ni5 2.794141 1_555
Mg5 Ni9 2.798084 1_655
Mg5 Ni10 2.798088 1_545
Mg5 Ni6 2.798090 1_655
Mg5 Ni6 2.798094 1_545
Mg5 Ni10 2.798097 1_555
Mg5 Ni9 2.798100 1_555
Mg6 Ni12 2.785070 1_545
Mg6 Ni12 2.785074 1_655
Mg6 Ni12 2.785075 1_555
Mg6 Ni4 2.794138 1_655
Mg6 Ni3 2.794138 1_555
Mg6 Ni0 2.794141 1_555
Mg6 Ni9 2.798084 1_655
Mg6 Ni10 2.798088 1_545
Mg6 Ni6 2.798090 1_655
Mg6 Ni6 2.798094 1_545
Mg6 Ni10 2.798097 1_555
Mg6 Ni9 2.798100 1_555
Mg7 Ni13 2.785070 1_565
Mg7 Ni13 2.785074 1_455
Mg7 Ni13 2.785075 1_555
Mg7 Ni1 2.794138 1_555
Mg7 Ni2 2.794138 1_565
Mg7 Ni5 2.794141 1_555
Mg7 Ni7 2.798084 1_565
Mg7 Ni8 2.798088 1_455
Mg7 Ni11 2.798090 1_565
Mg7 Ni11 2.798094 1_455
Mg7 Ni8 2.798096 1_555
Mg7 Ni7 2.798101 1_555
Ni0 Ni4 2.376972 1_655
Ni0 Ni4 2.376972 1_555
Ni0 Ni3 2.376972 1_565
Ni0 Ni3 2.376972 1_555
Ni0 Ni12 2.393787 1_555
Ni0 Ni14 2.393787 1_554
Ni1 Ni2 2.376971 1_455
Ni1 Ni2 2.376971 1_565
Ni1 Ni5 2.376972 1_555
Ni1 Ni5 2.376972 1_455
Ni1 Ni13 2.393789 1_455
Ni1 Ni15 2.393789 1_555
Ni2 Ni5 2.376972 1_555
Ni2 Ni5 2.376972 1_545
Ni3 Ni4 2.376971 1_545
Ni3 Ni4 2.376971 1_655
Ni6 Ni9 2.342821 1_565
Ni6 Ni9 2.411123 1_555
Ni7 Ni8 2.342817 1_445
Ni7 Ni8 2.411124 1_555
Ni10 Ni6 2.342816 1_655
Ni10 Ni9 2.342817 1_665
Ni10 Ni15 2.394821 1_555
Ni10 Ni12 2.394821 1_555
Ni10 Ni9 2.411124 1_555
Ni10 Ni6 2.411127 1_555
Ni11 Ni8 2.342816 1_545
Ni11 Ni7 2.342820 1_655
Ni11 Ni13 2.394828 1_555
Ni11 Ni14 2.394828 1_555
Ni11 Ni7 2.411123 1_555
Ni11 Ni8 2.411128 1_555
Ni12 Ni3 2.393787 1_565
Ni12 Ni4 2.393789 1_555
Ni12 Ni9 2.394823 1_555
Ni12 Ni6 2.394828 1_555
Ni13 Ni2 2.393787 1_555
Ni13 Ni5 2.393787 1_555
Ni13 Ni7 2.394821 1_555
Ni13 Ni8 2.394823 1_555
Ni14 Ni3 2.393787 1_556
Ni14 Ni4 2.393789 1_656
Ni14 Ni7 2.394821 1_555
Ni14 Ni8 2.394823 1_555
Ni15 Ni2 2.393787 1_565
Ni15 Ni5 2.393787 1_555
Ni15 Ni9 2.394823 1_555
Ni15 Ni6 2.394828 1_555
