# generated using pymatgen
data_Na5Mg2Ti2P5SO24
_symmetry_space_group_name_H-M   'P 1'
_cell_length_a   8.81246241
_cell_length_b   8.82894316
_cell_length_c   22.05052032
_cell_angle_alpha   90.27379444
_cell_angle_beta   89.61514389
_cell_angle_gamma   120.14777311
_symmetry_Int_Tables_number   1
_chemical_formula_structural   Na5Mg2Ti2P5SO24
_chemical_formula_sum   'Na15 Mg6 Ti6 P15 S3 O72'
_cell_volume   1483.53051065
_cell_formula_units_Z   3
loop_
 _symmetry_equiv_pos_site_id
 _symmetry_equiv_pos_as_xyz
  1  'x, y, z'
loop_
 _atom_site_type_symbol
 _atom_site_label
 _atom_site_symmetry_multiplicity
 _atom_site_fract_x
 _atom_site_fract_y
 _atom_site_fract_z
 _atom_site_occupancy
  Na  Na0  1  0.63897667  0.00158306  0.25311196  1
  Na  Na1  1  0.36951873  0.37246821  0.24755476  1
  Na  Na2  1  0.99432598  0.62417885  0.25233693  1
  Na  Na3  1  0.63818330  0.63110580  0.74734083  1
  Na  Na4  1  0.99127300  0.35818101  0.74756338  1
  Na  Na5  1  0.36877453  0.01062759  0.74749296  1
  Na  Na6  1  0.30229368  0.96508612  0.07738080  1
  Na  Na7  1  0.03771842  0.34588595  0.07841306  1
  Na  Na8  1  0.70494714  0.67367101  0.41805611  1
  Na  Na9  1  0.00553792  0.00506289  0.49991695  1
  Na  Na10  1  0.99777822  0.99609962  0.99028775  1
  Na  Na11  1  0.66597267  0.33175608  0.83362156  1
  Na  Na12  1  0.67612023  0.32706931  0.33720691  1
  Na  Na13  1  0.34351617  0.66234471  0.16168811  1
  Na  Na14  1  0.33549240  0.66513265  0.66235704  1
  Mg  Mg0  1  0.99569217  0.00107517  0.35567858  1
  Mg  Mg1  1  0.00380709  0.00425026  0.85266062  1
  Mg  Mg2  1  0.66659767  0.33470679  0.68155194  1
  Mg  Mg3  1  0.66945272  0.33732433  0.18198892  1
  Mg  Mg4  1  0.33541530  0.66559483  0.01765864  1
  Mg  Mg5  1  0.33048678  0.66566339  0.31868906  1
  Ti  Ti0  1  0.99713597  0.99807401  0.64556579  1
  Ti  Ti1  1  0.98525781  0.99788200  0.14372748  1
  Ti  Ti2  1  0.66890371  0.32984046  0.97976757  1
  Ti  Ti3  1  0.67729489  0.32882828  0.48551322  1
  Ti  Ti4  1  0.33368365  0.67903762  0.52067717  1
  Ti  Ti5  1  0.32422397  0.66939862  0.81770391  1
  P  P0  1  0.70872906  0.70661902  0.25166063  1
  P  P1  1  0.99895447  0.28991854  0.25018652  1
  P  P2  1  0.29009051  0.29088079  0.75056126  1
  P  P3  1  0.99890846  0.71127752  0.75116484  1
  P  P4  1  0.70940986  0.99874161  0.75162308  1
  P  P5  1  0.96543909  0.33425260  0.58541021  1
  P  P6  1  0.37359570  0.04388246  0.58465783  1
  P  P7  1  0.66416427  0.62617679  0.58325731  1
  P  P8  1  0.95700290  0.62668068  0.08439369  1
  P  P9  1  0.66294838  0.04009648  0.08456681  1
  P  P10  1  0.37650043  0.33433248  0.08544702  1
  P  P11  1  0.03809747  0.37099381  0.91987036  1
  P  P12  1  0.33212397  0.96169330  0.92016307  1
  P  P13  1  0.62336965  0.96295487  0.41617707  1
  P  P14  1  0.03987385  0.66492133  0.41657289  1
  S  S0  1  0.28949373  0.00066730  0.24967799  1
  S  S1  1  0.62482899  0.66500511  0.91677962  1
  S  S2  1  0.33461976  0.37305538  0.41716329  1
  O  O0  1  0.20702492  0.02731125  0.30274767  1
  O  O1  1  0.82078922  0.78617817  0.30788967  1
  O  O2  1  0.97237960  0.17318100  0.30379469  1
  O  O3  1  0.21019764  0.17639444  0.80517531  1
  O  O4  1  0.96603925  0.79145064  0.80610280  1
  O  O5  1  0.82385746  0.03106762  0.80575396  1
  O  O6  1  0.79791533  0.96498654  0.69410867  1
  O  O7  1  0.16721899  0.20293310  0.69378379  1
  O  O8  1  0.03636318  0.83230439  0.69419044  1
  O  O9  1  0.80976988  0.83199849  0.19539379  1
  O  O10  1  0.02421356  0.19819266  0.19096764  1
  O  O11  1  0.18302039  0.97460460  0.19351962  1
  O  O12  1  0.89272179  0.36798087  0.64299941  1
  O  O13  1  0.47687351  0.11086984  0.64284395  1
  O  O14  1  0.63254954  0.52212682  0.64115020  1
  O  O15  1  0.88342076  0.51943344  0.14217645  1
  O  O16  1  0.63413013  0.11637018  0.14271496  1
  O  O17  1  0.47479240  0.35546002  0.14412126  1
  O  O18  1  0.46883585  0.30006244  0.03052840  1
  O  O19  1  0.83590028  0.53303419  0.02927430  1
  O  O20  1  0.70141531  0.16719560  0.02968644  1
  O  O21  1  0.47148000  0.16343587  0.52942152  1
  O  O22  1  0.69179786  0.53463398  0.52661340  1
  O  O23  1  0.84061036  0.30674861  0.53013111  1
  O  O24  1  0.54038976  0.68694448  0.97073111  1
  O  O25  1  0.14418067  0.45604751  0.97642227  1
  O  O26  1  0.31486687  0.85668655  0.97651128  1
  O  O27  1  0.52016817  0.83577482  0.46980961  1
  O  O28  1  0.31244671  0.46368932  0.46999924  1
  O  O29  1  0.16069034  0.68079947  0.47039945  1
  O  O30  1  0.10774943  0.63059514  0.35704040  1
  O  O31  1  0.52152900  0.89074563  0.35699433  1
  O  O32  1  0.36785850  0.47836635  0.36062503  1
  O  O33  1  0.13516549  0.49532792  0.86194425  1
  O  O34  1  0.36132496  0.86735002  0.86151848  1
  O  O35  1  0.51460398  0.63918051  0.86054551  1
  O  O36  1  0.01748937  0.82627042  0.41662227  1
  O  O37  1  0.80290579  0.97439798  0.41674055  1
  O  O38  1  0.17955673  0.19866572  0.41269567  1
  O  O39  1  0.01121631  0.18993790  0.91112111  1
  O  O40  1  0.17374511  0.98168335  0.91144885  1
  O  O41  1  0.79931545  0.81807906  0.91033010  1
  O  O42  1  0.97830027  0.16575530  0.58814924  1
  O  O43  1  0.18845460  0.02333446  0.58796651  1
  O  O44  1  0.83298542  0.81113265  0.58820023  1
  O  O45  1  0.97694739  0.81393185  0.08986347  1
  O  O46  1  0.83827810  0.03216832  0.08805619  1
  O  O47  1  0.18879917  0.15915549  0.08903159  1
  O  O48  1  0.68178940  0.15635317  0.74344820  1
  O  O49  1  0.47663394  0.31957649  0.74249689  1
  O  O50  1  0.84325331  0.52419482  0.74329323  1
  O  O51  1  0.68409881  0.52217279  0.24432287  1
  O  O52  1  0.83435337  0.30850864  0.24464556  1
  O  O53  1  0.46836111  0.15738559  0.24458431  1
  O  O54  1  0.63546125  0.50067937  0.92075715  1
  O  O55  1  0.85602360  0.36543190  0.92297617  1
  O  O56  1  0.50707994  0.14544712  0.92342787  1
  O  O57  1  0.64098008  0.14576654  0.42706579  1
  O  O58  1  0.49876003  0.36181779  0.42371441  1
  O  O59  1  0.85091077  0.49931175  0.42675426  1
  O  O60  1  0.34373776  0.48717557  0.07766627  1
  O  O61  1  0.14326787  0.65448402  0.07699092  1
  O  O62  1  0.50478413  0.85876886  0.07629931  1
  O  O63  1  0.35042505  0.85696438  0.57351998  1
  O  O64  1  0.50244838  0.64941285  0.57185011  1
  O  O65  1  0.14795527  0.49580805  0.57241082  1
  O  O66  1  0.30666357  0.84089824  0.25302497  1
  O  O67  1  0.52825368  0.69626434  0.25211458  1
  O  O68  1  0.16710249  0.47309545  0.25100051  1
  O  O69  1  0.30563428  0.47721227  0.75593222  1
  O  O70  1  0.17202133  0.69643382  0.75635058  1
  O  O71  1  0.52315141  0.82681552  0.75598439  1
loop_
_geom_bond_atom_site_label_1
_geom_bond_atom_site_label_2
_geom_bond_distance
_geom_bond_site_symmetry_2
Na0 O67 2.361519 1_545
Na0 O52 2.378337 1_555
Na0 O31 2.499638 1_545
Na0 O53 2.504383 1_555
Na0 O66 2.532914 1_545
Na0 O16 2.650137 1_555
Na0 O2 2.780915 1_555
Na0 O9 2.889042 1_545
Na1 O68 2.359313 1_555
Na1 O51 2.398966 1_555
Na1 O53 2.455306 1_555
Na1 O67 2.474225 1_555
Na1 O17 2.488639 1_555
Na1 O32 2.661144 1_555
Na1 O0 2.906370 1_555
Na1 O10 2.917847 1_555
Na2 O52 2.415751 1_555
Na2 O51 2.418301 1_555
Na2 O66 2.438770 1_655
Na2 O68 2.477402 1_655
Na2 O30 2.511088 1_655
Na2 O15 2.610268 1_555
Na2 O1 2.835513 1_555
Na2 O11 2.976751 1_655
Na3 O49 2.381038 1_555
Na3 O71 2.409004 1_555
Na3 O50 2.423893 1_555
Na3 O14 2.518567 1_555
Na3 O69 2.542770 1_555
Na3 O35 2.731662 1_555
Na3 O6 2.809225 1_555
Na3 O4 2.820452 1_555
Na4 O48 2.396236 1_555
Na4 O50 2.404610 1_555
Na4 O69 2.427692 1_655
Na4 O12 2.486410 1_555
Na4 O70 2.591111 1_655
Na4 O7 2.789918 1_655
Na4 O5 2.809638 1_555
Na4 O33 2.811922 1_655
Na5 O48 2.388554 1_555
Na5 O49 2.398563 1_555
Na5 O70 2.430830 1_545
Na5 O13 2.481682 1_555
Na5 O71 2.596834 1_545
Na5 O3 2.779449 1_555
Na5 O8 2.799524 1_545
Na5 O34 2.805546 1_545
Na6 O61 2.371472 1_555
Na6 O47 2.390788 1_565
Na6 O62 2.397412 1_555
Na6 O26 2.440956 1_554
Na6 O45 2.495316 1_455
Na6 O18 2.759885 1_565
Na6 O11 2.778612 1_555
Na6 O16 2.919910 1_565
Na7 O60 2.334423 1_555
Na7 O61 2.396750 1_555
Na7 O46 2.432446 1_455
Na7 O25 2.441300 1_554
Na7 O47 2.599630 1_555
Na7 O10 2.783049 1_555
Na7 O20 2.785099 1_455
Na7 O15 2.867058 1_455
Na8 O37 2.343875 1_555
Na8 O36 2.382027 1_655
Na8 O58 2.423431 1_555
Na8 O59 2.460944 1_555
Na8 O1 2.627006 1_555
Na8 O22 2.670542 1_555
Na8 O32 2.878531 1_555
Na8 O27 2.881416 1_555
Na9 O36 2.452148 1_545
Na9 O42 2.482960 1_455
Na9 O43 2.484315 1_555
Na9 O37 2.485856 1_445
Na9 O38 2.516200 1_555
Na9 O44 2.531872 1_445
Na10 O40 2.367059 1_655
Na10 O39 2.410896 1_665
Na10 O41 2.427241 1_555
Na10 O46 2.669662 1_566
Na10 O45 2.678309 1_556
Na10 O47 2.689263 1_666
Na11 O56 2.503642 1_555
Na11 O55 2.512788 1_555
Na11 O54 2.521271 1_555
Na11 O48 2.560261 1_555
Na11 O50 2.572735 1_555
Na11 O49 2.587627 1_555
Na12 O57 2.471522 1_555
Na12 O59 2.498683 1_555
Na12 O52 2.514986 1_555
Na12 O58 2.571327 1_555
Na12 O53 2.652102 1_555
Na12 O51 2.660293 1_555
Na13 O60 2.408327 1_555
Na13 O62 2.468210 1_555
Na13 O67 2.502812 1_555
Na13 O68 2.543287 1_555
Na13 O61 2.554785 1_555
Na13 O66 2.668717 1_555
Na14 O64 2.515930 1_555
Na14 O65 2.536518 1_555
Na14 O63 2.554901 1_555
Na14 O69 2.581944 1_555
Na14 O71 2.584828 1_555
Na14 O70 2.607998 1_555
Mg0 O2 1.998337 1_555
Mg0 O1 2.037448 1_545
Mg0 O37 2.079688 1_545
Mg0 O38 2.101559 1_655
Mg0 O0 2.103417 1_655
Mg0 O36 2.132082 1_645
Mg1 O3 1.981754 1_555
Mg1 O5 2.010509 1_455
Mg1 O4 2.013121 1_445
Mg1 O39 2.055998 1_555
Mg1 O40 2.071498 1_545
Mg1 O41 2.140137 1_445
Mg2 O13 2.028195 1_555
Mg2 O14 2.034253 1_555
Mg2 O12 2.042421 1_555
Mg2 O49 2.091203 1_555
Mg2 O50 2.113413 1_555
Mg2 O48 2.143611 1_555
Mg3 O15 1.963989 1_555
Mg3 O17 1.990480 1_555
Mg3 O16 2.007482 1_555
Mg3 O51 2.082964 1_555
Mg3 O52 2.118254 1_555
Mg3 O53 2.174765 1_555
Mg4 O25 1.990579 1_554
Mg4 O24 2.000967 1_554
Mg4 O26 2.006531 1_554
Mg4 O62 2.063111 1_555
Mg4 O60 2.091634 1_555
Mg4 O61 2.095984 1_555
Mg5 O30 2.008385 1_555
Mg5 O31 2.034553 1_555
Mg5 O32 2.064897 1_555
Mg5 O68 2.176504 1_555
Mg5 O67 2.182173 1_555
Mg5 O66 2.210420 1_555
O0 S0 1.452782 1_555
O1 P0 1.522260 1_555
O2 P1 1.509944 1_555
O3 P2 1.501023 1_555
O4 P3 1.498499 1_555
O5 P4 1.499052 1_545
O6 P4 1.588115 1_555
O6 Ti0 1.943165 1_555
O7 P2 1.583418 1_555
O7 Ti0 1.982005 1_445
O8 P3 1.575450 1_455
O8 Ti0 1.984773 1_455
O9 P0 1.601815 1_555
O9 Ti1 1.884608 1_555
O10 P1 1.605486 1_455
O10 Ti1 1.925614 1_445
O11 S0 1.504259 1_565
O11 Ti1 2.161621 1_455
O12 P5 1.512954 1_555
O13 P6 1.513955 1_555
O14 P7 1.516745 1_555
O15 P8 1.524527 1_555
O16 P9 1.523539 1_555
O17 P10 1.519688 1_555
O18 P10 1.565472 1_555
O18 Ti2 1.985233 1_554
O19 P8 1.556045 1_555
O19 Ti2 1.981615 1_554
O20 P9 1.569697 1_555
O20 Ti2 1.946369 1_554
O21 P6 1.557347 1_555
O21 Ti3 1.920667 1_555
O22 P7 1.567343 1_555
O22 Ti3 1.972787 1_555
O23 P5 1.581688 1_555
O23 Ti3 1.838465 1_555
O24 S1 1.461918 1_555
O25 P11 1.514736 1_555
O26 P12 1.514369 1_555
O27 P13 1.568129 1_555
O27 Ti4 1.891974 1_555
O28 S2 1.476807 1_555
O28 Ti4 2.126922 1_555
O29 P14 1.558019 1_555
O29 Ti4 1.897400 1_555
O30 P14 1.529905 1_555
O31 P13 1.532322 1_555
O32 S2 1.495715 1_555
O33 P11 1.619805 1_555
O33 Ti5 1.873479 1_555
O34 P12 1.622586 1_555
O34 Ti5 1.873210 1_555
O35 S1 1.524503 1_555
O35 Ti5 2.061949 1_555
O36 P14 1.533127 1_555
O37 P13 1.534037 1_555
O38 S2 1.461032 1_555
O39 P11 1.505305 1_555
O40 P12 1.505798 1_555
O41 S1 1.456922 1_555
O42 P5 1.549167 1_555
O42 Ti0 2.022318 1_545
O43 P6 1.549646 1_555
O43 Ti0 2.025261 1_445
O44 P7 1.565892 1_555
O44 Ti0 2.005788 1_555
O45 P8 1.576426 1_555
O45 Ti1 1.979136 1_555
O46 P9 1.583791 1_555
O46 Ti1 1.922244 1_545
O47 P10 1.601276 1_555
O47 Ti1 2.030108 1_445
O48 P4 1.539915 1_545
O49 P2 1.541556 1_555
O50 P3 1.537725 1_555
O51 P0 1.538864 1_555
O52 P1 1.545202 1_555
O53 S0 1.489996 1_555
O54 S1 1.503073 1_555
O54 Ti2 2.127314 1_555
O55 P11 1.581454 1_655
O55 Ti2 1.960011 1_555
O56 P12 1.581838 1_545
O56 Ti2 1.974810 1_555
O57 P13 1.559498 1_545
O57 Ti3 1.960035 1_555
O58 S2 1.506690 1_555
O58 Ti3 2.215861 1_555
O59 P14 1.585470 1_655
O59 Ti3 1.990981 1_555
O60 P10 1.525785 1_555
O61 P8 1.540559 1_455
O62 P9 1.515981 1_565
O63 P6 1.576004 1_565
O63 Ti4 1.897168 1_555
O64 P7 1.560540 1_555
O64 Ti4 1.992394 1_555
O65 P5 1.548215 1_455
O65 Ti4 1.982469 1_555
O66 S0 1.494538 1_565
O67 P0 1.546506 1_555
O68 P1 1.550647 1_455
O69 P2 1.584671 1_555
O69 Ti5 2.112577 1_555
O70 P3 1.600270 1_455
O70 Ti5 2.008810 1_555
O71 P4 1.582455 1_555
O71 Ti5 2.096586 1_555
