# generated using pymatgen
data_MgCd2Te2(MoO6)2
_symmetry_space_group_name_H-M   'P 1'
_cell_length_a   5.21198309
_cell_length_b   5.21198309
_cell_length_c   9.40943689
_cell_angle_alpha   90.00000000
_cell_angle_beta   90.00000000
_cell_angle_gamma   89.71196149
_symmetry_Int_Tables_number   1
_chemical_formula_structural   MgCd2Te2(MoO6)2
_chemical_formula_sum   'Mg1 Cd2 Te2 Mo2 O12'
_cell_volume   255.60193719
_cell_formula_units_Z   1
loop_
 _symmetry_equiv_pos_site_id
 _symmetry_equiv_pos_as_xyz
  1  'x, y, z'
loop_
 _atom_site_type_symbol
 _atom_site_label
 _atom_site_symmetry_multiplicity
 _atom_site_fract_x
 _atom_site_fract_y
 _atom_site_fract_z
 _atom_site_occupancy
  Mg  Mg0  1  0.00000000  0.50000000  0.59723073  1
  Cd  Cd0  1  0.00000000  0.00000000  0.46519845  1
  Cd  Cd1  1  0.50000000  0.50000000  0.46519845  1
  Te  Te0  1  0.00000000  0.50000000  0.22727705  1
  Te  Te1  1  0.50000000  0.00000000  0.74875441  1
  Mo  Mo0  1  0.50000000  0.00000000  0.11708668  1
  Mo  Mo1  1  0.00000000  0.50000000  0.89983856  1
  O  O0  1  0.25589370  0.24410630  0.06255441  1
  O  O1  1  0.24303796  0.74303796  0.94989751  1
  O  O2  1  0.74410630  0.75589370  0.06255441  1
  O  O3  1  0.75696204  0.25696204  0.94989751  1
  O  O4  1  0.29409962  0.79409962  0.25714795  1
  O  O5  1  0.19478137  0.30521863  0.74521351  1
  O  O6  1  0.70590038  0.20590038  0.25714795  1
  O  O7  1  0.80521863  0.69478137  0.74521351  1
  O  O8  1  0.16464595  0.33535405  0.39460903  1
  O  O9  1  0.30608916  0.80608916  0.60528542  1
  O  O10  1  0.83535405  0.66464595  0.39460903  1
  O  O11  1  0.69391084  0.19391084  0.60528542  1
loop_
_geom_bond_atom_site_label_1
_geom_bond_atom_site_label_2
_geom_bond_distance
_geom_bond_site_symmetry_2
Mg0 O7 1.997439 1_455
Mg0 O5 1.997439 1_555
Mg0 O8 2.258392 1_555
Mg0 O10 2.258392 1_455
Mg0 O9 2.263073 1_555
Mg0 O11 2.263073 1_455
Cd0 O10 2.060984 1_445
Cd0 O8 2.060984 1_555
Cd0 O9 2.299521 1_545
Cd0 O11 2.299521 1_455
Cd0 O6 2.705007 1_455
Cd0 O4 2.705007 1_545
Cd1 O10 2.060984 1_555
Cd1 O8 2.060984 1_555
Cd1 O9 2.299521 1_555
Cd1 O11 2.299521 1_555
Cd1 O4 2.705007 1_555
Cd1 O6 2.705007 1_555
Mo0 O0 1.866654 1_555
Mo0 O2 1.866654 1_545
Mo0 O4 2.012892 1_545
Mo0 O6 2.012892 1_555
Mo0 O3 2.465807 1_554
Mo0 O1 2.465807 1_544
Mo1 O3 1.856638 1_455
Mo1 O1 1.856638 1_555
Mo1 O7 2.041500 1_455
Mo1 O5 2.041500 1_555
Mo1 O0 2.425667 1_556
Mo1 O2 2.425667 1_456
O0 Te0 2.437629 1_555
O1 Te1 2.680948 1_565
O2 Te0 2.437629 1_655
O3 Te1 2.680948 1_555
O4 Te0 2.191309 1_555
O5 Te1 2.244308 1_555
O6 Te0 2.191309 1_655
O7 Te1 2.244308 1_565
O8 Te0 1.986058 1_555
O9 Te1 1.968638 1_565
O10 Te0 1.986058 1_655
O11 Te1 1.968638 1_555
