# generated using pymatgen
data_Mg2Ge
_symmetry_space_group_name_H-M   'P 1'
_cell_length_a   5.69508327
_cell_length_b   5.69508327
_cell_length_c   5.69508327
_cell_angle_alpha   60.00000000
_cell_angle_beta   60.00000000
_cell_angle_gamma   60.00000000
_symmetry_Int_Tables_number   1
_chemical_formula_structural   Mg2Ge
_chemical_formula_sum   'Mg4 Ge2'
_cell_volume   130.61264900
_cell_formula_units_Z   2
loop_
 _symmetry_equiv_pos_site_id
 _symmetry_equiv_pos_as_xyz
  1  'x, y, z'
loop_
 _atom_site_type_symbol
 _atom_site_label
 _atom_site_symmetry_multiplicity
 _atom_site_fract_x
 _atom_site_fract_y
 _atom_site_fract_z
 _atom_site_occupancy
  Mg  Mg0  1  0.12500000  0.12500000  0.12500000  1
  Mg  Mg1  1  0.62500000  0.12500000  0.12500000  1
  Mg  Mg2  1  0.12500000  0.62500000  0.12500000  1
  Mg  Mg3  1  0.12500000  0.12500000  0.62500000  1
  Ge  Ge0  1  0.50000000  0.50000000  0.50000000  1
  Ge  Ge1  1  0.75000000  0.75000000  0.75000000  1
loop_
_geom_bond_atom_site_label_1
_geom_bond_atom_site_label_2
_geom_bond_distance
_geom_bond_site_symmetry_2
Mg0 Mg1 2.847542 1_555
Mg0 Mg3 2.847542 1_554
Mg0 Mg2 2.847542 1_555
Mg0 Mg2 2.847542 1_545
Mg0 Mg1 2.847542 1_455
Mg0 Mg3 2.847542 1_555
Mg1 Mg3 2.847542 1_654
Mg1 Mg2 2.847542 1_645
Mg1 Mg2 2.847542 1_555
Mg1 Mg3 2.847542 1_555
Mg2 Mg3 2.847542 1_564
Mg2 Mg3 2.847542 1_555
Ge0 Mg3 3.339039 1_565
Ge0 Mg2 3.339039 1_655
Ge0 Mg3 3.339039 1_655
Ge0 Mg0 3.339039 1_556
Ge0 Mg2 3.339039 1_556
Ge0 Mg1 3.339039 1_556
Ge0 Mg0 3.339039 1_655
Ge0 Mg2 3.339039 1_555
Ge0 Mg1 3.339039 1_565
Ge0 Mg1 3.339039 1_555
Ge0 Mg0 3.339039 1_565
Ge0 Mg3 3.339039 1_555
Ge1 Mg3 3.339039 1_565
Ge1 Mg2 3.339039 1_556
Ge1 Mg3 3.339039 1_655
Ge1 Mg1 3.339039 1_556
Ge1 Mg0 3.339039 1_566
Ge1 Mg3 3.339039 1_665
Ge1 Mg0 3.339039 1_665
Ge1 Mg1 3.339039 1_565
Ge1 Mg1 3.339039 1_566
Ge1 Mg2 3.339039 1_656
Ge1 Mg2 3.339039 1_655
Ge1 Mg0 3.339039 1_656
