# generated using pymatgen
data_B13H19
_symmetry_space_group_name_H-M   'P 1'
_cell_length_a   6.68486900
_cell_length_b   9.35826700
_cell_length_c   20.20382045
_cell_angle_alpha   81.95995222
_cell_angle_beta   90.00000000
_cell_angle_gamma   90.00000000
_symmetry_Int_Tables_number   1
_chemical_formula_structural   B13H19
_chemical_formula_sum   'B52 H76'
_cell_volume   1251.50283659
_cell_formula_units_Z   4
loop_
 _symmetry_equiv_pos_site_id
 _symmetry_equiv_pos_as_xyz
  1  'x, y, z'
loop_
 _atom_site_type_symbol
 _atom_site_label
 _atom_site_symmetry_multiplicity
 _atom_site_fract_x
 _atom_site_fract_y
 _atom_site_fract_z
 _atom_site_occupancy
  B  B0  1  0.56296000  0.70185900  0.11268900  1
  B  B1  1  0.06296000  0.29814100  0.38731100  1
  B  B2  1  0.43704000  0.29814100  0.88731100  1
  B  B3  1  0.93704000  0.70185900  0.61268900  1
  B  B4  1  0.80664200  0.74988700  0.08782400  1
  B  B5  1  0.30664200  0.25011300  0.41217600  1
  B  B6  1  0.19335800  0.25011300  0.91217600  1
  B  B7  1  0.69335800  0.74988700  0.58782400  1
  B  B8  1  0.95677400  0.59451300  0.09385500  1
  B  B9  1  0.45677400  0.40548700  0.40614500  1
  B  B10  1  0.04322600  0.40548700  0.90614500  1
  B  B11  1  0.54322600  0.59451300  0.59385500  1
  B  B12  1  0.70519100  0.58926300  0.06974000  1
  B  B13  1  0.20519100  0.41073700  0.43026000  1
  B  B14  1  0.29480900  0.41073700  0.93026000  1
  B  B15  1  0.79480900  0.58926300  0.56974000  1
  B  B16  1  0.80598900  0.44669200  0.13393800  1
  B  B17  1  0.30598900  0.55330800  0.36606200  1
  B  B18  1  0.19401100  0.55330800  0.86606200  1
  B  B19  1  0.69401100  0.44669200  0.63393800  1
  B  B20  1  0.83249000  0.26936400  0.10210700  1
  B  B21  1  0.33249000  0.73063600  0.39789300  1
  B  B22  1  0.16751000  0.73063600  0.89789300  1
  B  B23  1  0.66751000  0.26936400  0.60210700  1
  B  B24  1  0.61301700  0.16862900  0.08916900  1
  B  B25  1  0.11301700  0.83137100  0.41083100  1
  B  B26  1  0.38698300  0.83137100  0.91083100  1
  B  B27  1  0.88698300  0.16862900  0.58916900  1
  B  B28  1  0.48027100  0.13872100  0.16441700  1
  B  B29  1  0.98027100  0.86127900  0.33558300  1
  B  B30  1  0.51972900  0.86127900  0.83558300  1
  B  B31  1  0.01972900  0.13872100  0.66441700  1
  B  B32  1  0.61187300  0.22762000  0.22406500  1
  B  B33  1  0.11187300  0.77238000  0.27593500  1
  B  B34  1  0.38812700  0.77238000  0.77593500  1
  B  B35  1  0.88812700  0.22762000  0.72406500  1
  B  B36  1  0.67867400  0.41683500  0.20886500  1
  B  B37  1  0.17867400  0.58316500  0.29113500  1
  B  B38  1  0.32132600  0.58316500  0.79113500  1
  B  B39  1  0.82132600  0.41683500  0.70886500  1
  B  B40  1  0.54909500  0.51349500  0.14146500  1
  B  B41  1  0.04909500  0.48650500  0.35853500  1
  B  B42  1  0.45090500  0.48650500  0.85853500  1
  B  B43  1  0.95090500  0.51349500  0.64146500  1
  B  B44  1  0.73928400  0.12886500  0.16405500  1
  B  B45  1  0.23928400  0.87113500  0.33594500  1
  B  B46  1  0.26071600  0.87113500  0.83594500  1
  B  B47  1  0.76071600  0.12886500  0.66405500  1
  B  B48  1  0.84602600  0.28996600  0.18839500  1
  B  B49  1  0.34602600  0.71003400  0.31160500  1
  B  B50  1  0.15397400  0.71003400  0.81160500  1
  B  B51  1  0.65397400  0.28996600  0.68839500  1
  H  H0  1  0.97335600  0.71046300  0.12488200  1
  H  H1  1  0.47335600  0.28953700  0.37511800  1
  H  H2  1  0.02664400  0.28953700  0.87511800  1
  H  H3  1  0.52664400  0.71046300  0.62488200  1
  H  H4  1  0.43039300  0.21554200  0.10523200  1
  H  H5  1  0.93039300  0.78445800  0.39476800  1
  H  H6  1  0.56960700  0.78445800  0.89476800  1
  H  H7  1  0.06960700  0.21554200  0.60523200  1
  H  H8  1  0.43460100  0.25185500  0.19602900  1
  H  H9  1  0.93460100  0.74814500  0.30397100  1
  H  H10  1  0.56539900  0.74814500  0.80397100  1
  H  H11  1  0.06539900  0.25185500  0.69602900  1
  H  H12  1  0.69975000  0.78293400  0.14018500  1
  H  H13  1  0.19975000  0.21706600  0.35981500  1
  H  H14  1  0.30025000  0.21706600  0.85981500  1
  H  H15  1  0.80025000  0.78293400  0.64018500  1
  H  H16  1  0.51657100  0.62651800  0.17244100  1
  H  H17  1  0.01657100  0.37348200  0.32755900  1
  H  H18  1  0.48342900  0.37348200  0.82755900  1
  H  H19  1  0.98342900  0.62651800  0.67244100  1
  H  H20  1  0.67330300  0.30455000  0.06459100  1
  H  H21  1  0.17330300  0.69545000  0.43540900  1
  H  H22  1  0.32669700  0.69545000  0.93540900  1
  H  H23  1  0.82669700  0.30455000  0.56459100  1
  H  H24  1  0.98569800  0.51227300  0.14923900  1
  H  H25  1  0.48569800  0.48772700  0.35076100  1
  H  H26  1  0.01430200  0.48772700  0.85076100  1
  H  H27  1  0.51430200  0.51227300  0.64923900  1
  H  H28  1  0.42723400  0.77787500  0.09238500  1
  H  H29  1  0.92723400  0.22212500  0.40761500  1
  H  H30  1  0.57276600  0.22212500  0.90761500  1
  H  H31  1  0.36082200  0.04424600  0.17626200  1
  H  H32  1  0.07276600  0.77787500  0.59238500  1
  H  H33  1  0.34400800  0.14253900  0.44877800  1
  H  H34  1  0.15599200  0.14253900  0.94877800  1
  H  H35  1  0.65599200  0.85746100  0.55122200  1
  H  H36  1  0.09306700  0.58978100  0.05645900  1
  H  H37  1  0.59306700  0.41021900  0.44354100  1
  H  H38  1  0.90693300  0.41021900  0.94354100  1
  H  H39  1  0.40693300  0.58978100  0.55645900  1
  H  H40  1  0.66472200  0.57013500  0.01417200  1
  H  H41  1  0.16472200  0.42986500  0.48582800  1
  H  H42  1  0.33527800  0.42986500  0.98582800  1
  H  H43  1  0.83527800  0.57013500  0.51417200  1
  H  H44  1  0.97040100  0.25251000  0.06647400  1
  H  H45  1  0.47040100  0.74749000  0.43352600  1
  H  H46  1  0.02959900  0.74749000  0.93352600  1
  H  H47  1  0.52959900  0.25251000  0.56647400  1
  H  H48  1  0.59014000  0.10024300  0.04427300  1
  H  H49  1  0.09014000  0.89975700  0.45572700  1
  H  H50  1  0.40986000  0.89975700  0.95572700  1
  H  H51  1  0.90986000  0.10024300  0.54427300  1
  H  H52  1  0.49555900  0.26992400  0.71613400  1
  H  H53  1  0.99555900  0.73007600  0.78386600  1
  H  H54  1  0.50444100  0.73007600  0.28386600  1
  H  H55  1  0.00444100  0.26992400  0.21613400  1
  H  H56  1  0.67481300  0.01735200  0.67898500  1
  H  H57  1  0.17481300  0.98264800  0.82101500  1
  H  H58  1  0.32518700  0.98264800  0.32101500  1
  H  H59  1  0.82518700  0.01735200  0.17898500  1
  H  H60  1  0.10344900  0.46632100  0.62174700  1
  H  H61  1  0.60344900  0.53367900  0.87825300  1
  H  H62  1  0.89655100  0.53367900  0.37825300  1
  H  H63  1  0.39655100  0.46632100  0.12174700  1
  H  H64  1  0.78253500  0.47915600  0.75525500  1
  H  H65  1  0.28253500  0.52084400  0.74474500  1
  H  H66  1  0.21746500  0.52084400  0.24474500  1
  H  H67  1  0.71746500  0.47915600  0.25525500  1
  H  H68  1  0.90987600  0.17097000  0.78046300  1
  H  H69  1  0.40987600  0.82903000  0.71953700  1
  H  H70  1  0.09012400  0.82903000  0.21953700  1
  H  H71  1  0.59012400  0.17097000  0.28046300  1
  H  H72  1  0.13917800  0.04424600  0.67626200  1
  H  H73  1  0.63917800  0.95575400  0.82373800  1
  H  H74  1  0.86082200  0.95575400  0.32373800  1
  H  H75  1  0.84400800  0.85746100  0.05122200  1
loop_
_geom_bond_atom_site_label_1
_geom_bond_atom_site_label_2
_geom_bond_distance
_geom_bond_site_symmetry_2
B0 H28 1.189924 1_555
B0 H16 1.346312 1_555
B0 H12 1.355853 1_555
B1 H29 1.189924 1_455
B1 H17 1.346312 1_555
B1 H13 1.355853 1_555
B2 H30 1.189924 1_555
B2 H18 1.346312 1_555
B2 H14 1.355853 1_555
B3 H32 1.189924 1_655
B3 H19 1.346312 1_555
B3 H15 1.355853 1_555
B4 H75 1.189312 1_555
B4 H12 1.347922 1_555
B4 H0 1.364347 1_555
B5 H33 1.189312 1_555
B5 H13 1.347922 1_555
B5 H1 1.364347 1_555
B6 H34 1.189312 1_555
B6 H14 1.347922 1_555
B6 H2 1.364347 1_555
B7 H35 1.189312 1_555
B7 H15 1.347922 1_555
B7 H3 1.364347 1_555
B8 H36 1.188389 1_655
B8 H24 1.280975 1_555
B8 H0 1.331519 1_555
B9 H37 1.188389 1_555
B9 H25 1.280975 1_555
B9 H1 1.331519 1_555
B10 H38 1.188389 1_455
B10 H26 1.280975 1_555
B10 H2 1.331519 1_555
B11 H39 1.188389 1_555
B11 H27 1.280975 1_555
B11 H3 1.331519 1_555
B12 H40 1.192422 1_555
B13 H41 1.192422 1_555
B14 H42 1.192422 1_555
B15 H43 1.192422 1_555
B16 H24 1.403030 1_555
B17 H25 1.403030 1_555
B18 H26 1.403030 1_555
B19 H27 1.403030 1_555
B20 H44 1.193675 1_555
B20 H20 1.321183 1_555
B21 H45 1.193675 1_555
B21 H21 1.321183 1_555
B22 H46 1.193675 1_555
B22 H22 1.321183 1_555
B23 H47 1.193675 1_555
B23 H23 1.321183 1_555
B24 H48 1.190847 1_555
B24 H4 1.352152 1_555
B24 H20 1.360240 1_555
B25 H49 1.190847 1_555
B25 H5 1.352152 1_455
B25 H21 1.360240 1_555
B26 H50 1.190847 1_555
B26 H6 1.352152 1_555
B26 H22 1.360240 1_555
B27 H51 1.190847 1_555
B27 H7 1.352152 1_655
B27 H23 1.360240 1_555
B28 H31 1.190530 1_555
B28 H8 1.345809 1_555
B28 H4 1.348105 1_555
B29 H74 1.190530 1_555
B29 H9 1.345809 1_555
B29 H5 1.348105 1_555
B30 H73 1.190530 1_555
B30 H10 1.345809 1_555
B30 H6 1.348105 1_555
B31 H72 1.190530 1_555
B31 H11 1.345809 1_555
B31 H7 1.348105 1_555
B32 H71 1.196483 1_555
B32 H8 1.319344 1_555
B33 H70 1.196483 1_555
B33 H9 1.319344 1_455
B34 H69 1.196483 1_555
B34 H10 1.319344 1_555
B35 H68 1.196483 1_555
B35 H11 1.319344 1_655
B36 H67 1.199474 1_555
B37 H66 1.199474 1_555
B38 H65 1.199474 1_555
B39 H64 1.199474 1_555
B40 H63 1.201107 1_555
B40 H16 1.320164 1_555
B41 H62 1.201107 1_455
B41 H17 1.320164 1_555
B42 H61 1.201107 1_555
B42 H18 1.320164 1_555
B43 H60 1.201107 1_655
B43 H19 1.320164 1_555
B44 H59 1.192364 1_555
B45 H58 1.192364 1_555
B46 H57 1.192364 1_555
B47 H56 1.192364 1_555
B48 H55 1.200544 1_655
B49 H54 1.200544 1_555
B50 H53 1.200544 1_455
B51 H52 1.200544 1_555
