# generated using pymatgen
data_Sb2(SO4)3
_symmetry_space_group_name_H-M   'P 1'
_cell_length_a   8.97687475
_cell_length_b   8.97687475
_cell_length_c   8.97687440
_cell_angle_alpha   60.37708232
_cell_angle_beta   60.37708101
_cell_angle_gamma   60.37708271
_symmetry_Int_Tables_number   1
_chemical_formula_structural   Sb2(SO4)3
_chemical_formula_sum   'Sb4 S6 O24'
_cell_volume   515.88012789
_cell_formula_units_Z   2
loop_
 _symmetry_equiv_pos_site_id
 _symmetry_equiv_pos_as_xyz
  1  'x, y, z'
loop_
 _atom_site_type_symbol
 _atom_site_label
 _atom_site_symmetry_multiplicity
 _atom_site_fract_x
 _atom_site_fract_y
 _atom_site_fract_z
 _atom_site_occupancy
  Sb  Sb0  1  0.85690349  0.85690349  0.85690349  1
  Sb  Sb1  1  0.66577121  0.66577121  0.66577121  1
  Sb  Sb2  1  0.33422879  0.33422879  0.33422879  1
  Sb  Sb3  1  0.14309651  0.14309651  0.14309651  1
  S  S0  1  0.55179028  0.95598476  0.22358694  1
  S  S1  1  0.77641306  0.44820972  0.04401524  1
  S  S2  1  0.04401524  0.77641306  0.44820972  1
  S  S3  1  0.95598476  0.22358694  0.55179028  1
  S  S4  1  0.22358694  0.55179028  0.95598476  1
  S  S5  1  0.44820972  0.04401524  0.77641306  1
  O  O0  1  0.83972175  0.82345886  0.52075263  1
  O  O1  1  0.52075263  0.83972175  0.82345886  1
  O  O2  1  0.44449099  0.90269114  0.19164154  1
  O  O3  1  0.74476429  0.91514505  0.09571039  1
  O  O4  1  0.82345886  0.52075263  0.83972175  1
  O  O5  1  0.08485495  0.90428961  0.25523571  1
  O  O6  1  0.80835846  0.55550901  0.09730886  1
  O  O7  1  0.55490254  0.87136057  0.40729808  1
  O  O8  1  0.59270192  0.44509746  0.12863943  1
  O  O9  1  0.09730886  0.80835846  0.55550901  1
  O  O10  1  0.90428961  0.25523571  0.08485495  1
  O  O11  1  0.12863943  0.59270192  0.44509746  1
  O  O12  1  0.87136057  0.40729808  0.55490254  1
  O  O13  1  0.09571039  0.74476429  0.91514505  1
  O  O14  1  0.90269114  0.19164154  0.44449099  1
  O  O15  1  0.40729808  0.55490254  0.87136057  1
  O  O16  1  0.44509746  0.12863943  0.59270192  1
  O  O17  1  0.19164154  0.44449099  0.90269114  1
  O  O18  1  0.91514505  0.09571039  0.74476429  1
  O  O19  1  0.17654114  0.47924737  0.16027825  1
  O  O20  1  0.25523571  0.08485495  0.90428961  1
  O  O21  1  0.55550901  0.09730886  0.80835846  1
  O  O22  1  0.47924737  0.16027825  0.17654114  1
  O  O23  1  0.16027825  0.17654114  0.47924737  1
loop_
_geom_bond_atom_site_label_1
_geom_bond_atom_site_label_2
_geom_bond_distance
_geom_bond_site_symmetry_2
O0 S2 1.513696 1_655
O0 Sb1 2.119127 1_555
O1 S5 1.513697 1_565
O1 Sb1 2.119127 1_555
O2 S0 1.450218 1_555
O2 Sb3 2.575089 1_565
O3 S0 1.508437 1_555
O3 Sb0 2.082467 1_554
O4 S1 1.513696 1_556
O4 Sb1 2.119127 1_555
O5 S2 1.508437 1_555
O5 Sb3 2.082467 1_565
O6 S1 1.450218 1_555
O6 Sb0 2.575089 1_554
O7 S0 1.443484 1_555
O7 Sb1 2.452363 1_555
O8 S1 1.443484 1_555
O8 Sb2 2.452363 1_555
O9 S2 1.450218 1_555
O9 Sb0 2.575089 1_455
O10 S1 1.508437 1_555
O10 Sb3 2.082467 1_655
O11 S2 1.443484 1_555
O11 Sb2 2.452363 1_555
O12 S3 1.443484 1_555
O12 Sb1 2.452363 1_555
O13 S4 1.508437 1_555
O13 Sb0 2.082467 1_455
O14 S3 1.450218 1_555
O14 Sb3 2.575089 1_655
O15 S4 1.443484 1_555
O15 Sb1 2.452363 1_555
O16 S5 1.443484 1_555
O16 Sb2 2.452363 1_555
O17 S4 1.450218 1_555
O17 Sb3 2.575089 1_556
O18 S3 1.508437 1_555
O18 Sb0 2.082467 1_545
O19 S4 1.513696 1_554
O19 Sb2 2.119127 1_555
O20 S5 1.508437 1_555
O20 Sb3 2.082467 1_556
O21 S5 1.450218 1_555
O21 Sb0 2.575089 1_545
O22 S0 1.513697 1_545
O22 Sb2 2.119127 1_555
O23 S3 1.513696 1_455
O23 Sb2 2.119127 1_555
