# generated using pymatgen
data_Na3Mg5Nb(SO4)9
_symmetry_space_group_name_H-M   'P 1'
_cell_length_a   8.67257362
_cell_length_b   8.67257334
_cell_length_c   22.78837095
_cell_angle_alpha   90.00000000
_cell_angle_beta   90.00000000
_cell_angle_gamma   120.00000106
_symmetry_Int_Tables_number   1
_chemical_formula_structural   Na3Mg5Nb(SO4)9
_chemical_formula_sum   'Na6 Mg10 Nb2 S18 O72'
_cell_volume   1484.36219145
_cell_formula_units_Z   2
loop_
 _symmetry_equiv_pos_site_id
 _symmetry_equiv_pos_as_xyz
  1  'x, y, z'
loop_
 _atom_site_type_symbol
 _atom_site_label
 _atom_site_symmetry_multiplicity
 _atom_site_fract_x
 _atom_site_fract_y
 _atom_site_fract_z
 _atom_site_occupancy
  Na  Na0  1  -0.00000000  -0.00000000  0.50495539  1
  Na  Na1  1  -0.00000000  -0.00000000  0.00495539  1
  Na  Na2  1  0.66666700  0.33333300  0.83334100  1
  Na  Na3  1  0.66666700  0.33333300  0.33334100  1
  Na  Na4  1  0.33333300  0.66666700  0.15759608  1
  Na  Na5  1  0.33333300  0.66666700  0.65759608  1
  Mg  Mg0  1  -0.00000000  -0.00000000  0.35158023  1
  Mg  Mg1  1  -0.00000000  -0.00000000  0.85158023  1
  Mg  Mg2  1  -0.00000000  -0.00000000  0.64461690  1
  Mg  Mg3  1  -0.00000000  -0.00000000  0.14461690  1
  Mg  Mg4  1  0.66666700  0.33333300  0.67945239  1
  Mg  Mg5  1  0.66666700  0.33333300  0.17945239  1
  Mg  Mg6  1  0.66666700  0.33333300  0.98655693  1
  Mg  Mg7  1  0.66666700  0.33333300  0.48655693  1
  Mg  Mg8  1  0.33333300  0.66666700  0.02237624  1
  Mg  Mg9  1  0.33333300  0.66666700  0.52237624  1
  Nb  Nb0  1  0.33333300  0.66666700  0.31363234  1
  Nb  Nb1  1  0.33333300  0.66666700  0.81363234  1
  S  S0  1  0.29201958  0.00659342  0.25054048  1
  S  S1  1  0.71457384  0.70798042  0.25054048  1
  S  S2  1  0.99340658  0.28542616  0.25054048  1
  S  S3  1  0.29201958  0.28542616  0.75054048  1
  S  S4  1  0.99340658  0.70798042  0.75054048  1
  S  S5  1  0.71457384  0.00659342  0.75054048  1
  S  S6  1  0.95922061  0.33296324  0.58332973  1
  S  S7  1  0.37374363  0.04077939  0.58332973  1
  S  S8  1  0.66703676  0.62625637  0.58332973  1
  S  S9  1  0.95922061  0.62625637  0.08332973  1
  S  S10  1  0.66703676  0.04077939  0.08332973  1
  S  S11  1  0.37374363  0.33296324  0.08332973  1
  S  S12  1  0.62703010  0.66742306  0.91840142  1
  S  S13  1  0.04039196  0.37296990  0.91840142  1
  S  S14  1  0.33257694  0.95960804  0.91840142  1
  S  S15  1  0.62703010  0.95960804  0.41840142  1
  S  S16  1  0.33257694  0.37296990  0.41840142  1
  S  S17  1  0.04039196  0.66742306  0.41840142  1
  O  O0  1  0.21075342  0.02577590  0.30402044  1
  O  O1  1  0.81502248  0.78924658  0.30402044  1
  O  O2  1  0.97422410  0.18497752  0.30402044  1
  O  O3  1  0.21075342  0.18497752  0.80402044  1
  O  O4  1  0.97422410  0.78924658  0.80402044  1
  O  O5  1  0.81502248  0.02577590  0.80402044  1
  O  O6  1  0.78430750  0.96677316  0.69818860  1
  O  O7  1  0.18246566  0.21569250  0.69818860  1
  O  O8  1  0.03322684  0.81753434  0.69818860  1
  O  O9  1  0.78430750  0.81753434  0.19818860  1
  O  O10  1  0.03322684  0.21569250  0.19818860  1
  O  O11  1  0.18246566  0.96677316  0.19818860  1
  O  O12  1  0.87940442  0.35982781  0.63650534  1
  O  O13  1  0.48042439  0.12059558  0.63650534  1
  O  O14  1  0.64017219  0.51957561  0.63650534  1
  O  O15  1  0.87940442  0.51957561  0.13650534  1
  O  O16  1  0.64017219  0.12059558  0.13650534  1
  O  O17  1  0.48042439  0.35982781  0.13650534  1
  O  O18  1  0.45386788  0.30632069  0.03001371  1
  O  O19  1  0.85245381  0.54613212  0.03001371  1
  O  O20  1  0.69367931  0.14754619  0.03001371  1
  O  O21  1  0.45386788  0.14754619  0.53001371  1
  O  O22  1  0.69367931  0.54613212  0.53001371  1
  O  O23  1  0.85245381  0.30632069  0.53001371  1
  O  O24  1  0.54051518  0.69315872  0.96894935  1
  O  O25  1  0.15264254  0.45948482  0.96894935  1
  O  O26  1  0.30684128  0.84735746  0.96894935  1
  O  O27  1  0.54051518  0.84735746  0.46894935  1
  O  O28  1  0.30684128  0.45948482  0.46894935  1
  O  O29  1  0.15264254  0.69315872  0.46894935  1
  O  O30  1  0.13489449  0.64511114  0.36309152  1
  O  O31  1  0.51021565  0.86510551  0.36309152  1
  O  O32  1  0.35488886  0.48978435  0.36309152  1
  O  O33  1  0.13489449  0.48978435  0.86309152  1
  O  O34  1  0.35488886  0.86510551  0.86309152  1
  O  O35  1  0.51021565  0.64511114  0.86309152  1
  O  O36  1  0.02613033  0.82685865  0.40828984  1
  O  O37  1  0.80072832  0.97386967  0.40828984  1
  O  O38  1  0.17314135  0.19927168  0.40828984  1
  O  O39  1  0.02613033  0.19927168  0.90828984  1
  O  O40  1  0.17314135  0.97386967  0.90828984  1
  O  O41  1  0.80072832  0.82685865  0.90828984  1
  O  O42  1  0.97768318  0.17200556  0.58934113  1
  O  O43  1  0.19432237  0.02231682  0.58934113  1
  O  O44  1  0.82799444  0.80567763  0.58934113  1
  O  O45  1  0.97768318  0.80567763  0.08934113  1
  O  O46  1  0.82799444  0.02231682  0.08934113  1
  O  O47  1  0.19432237  0.17200556  0.08934113  1
  O  O48  1  0.68320705  0.15693453  0.74451915  1
  O  O49  1  0.47372848  0.31679295  0.74451915  1
  O  O50  1  0.84306547  0.52627152  0.74451915  1
  O  O51  1  0.68320705  0.52627152  0.24451915  1
  O  O52  1  0.84306547  0.31679295  0.24451915  1
  O  O53  1  0.47372848  0.15693453  0.24451915  1
  O  O54  1  0.63712797  0.50378509  0.91981825  1
  O  O55  1  0.86665813  0.36287203  0.91981825  1
  O  O56  1  0.49621491  0.13334187  0.91981825  1
  O  O57  1  0.63712797  0.13334187  0.41981825  1
  O  O58  1  0.49621491  0.36287203  0.41981825  1
  O  O59  1  0.86665813  0.50378509  0.41981825  1
  O  O60  1  0.35524697  0.49396696  0.07737900  1
  O  O61  1  0.13871899  0.64475303  0.07737900  1
  O  O62  1  0.50603304  0.86128101  0.07737900  1
  O  O63  1  0.35524697  0.86128101  0.57737900  1
  O  O64  1  0.50603304  0.64475303  0.57737900  1
  O  O65  1  0.13871899  0.49396696  0.57737900  1
  O  O66  1  0.31127075  0.83738817  0.25957621  1
  O  O67  1  0.52611642  0.68872925  0.25957621  1
  O  O68  1  0.16261183  0.47388358  0.25957621  1
  O  O69  1  0.31127075  0.47388358  0.75957621  1
  O  O70  1  0.16261183  0.68872925  0.75957621  1
  O  O71  1  0.52611642  0.83738817  0.75957621  1
loop_
_geom_bond_atom_site_label_1
_geom_bond_atom_site_label_2
_geom_bond_distance
_geom_bond_site_symmetry_2
Na0 O44 2.499883 1_445
Na0 O43 2.499883 1_555
Na0 O42 2.499883 1_455
Na0 O38 2.738418 1_555
Na0 O36 2.738418 1_545
Na0 O37 2.738418 1_445
Na1 O45 2.499883 1_445
Na1 O47 2.499883 1_555
Na1 O46 2.499883 1_455
Na1 O39 2.738418 1_554
Na1 O41 2.738418 1_444
Na1 O40 2.738418 1_544
Na2 O54 2.552085 1_555
Na2 O56 2.552085 1_555
Na2 O55 2.552085 1_555
Na2 O50 2.584067 1_555
Na2 O48 2.584067 1_555
Na2 O49 2.584067 1_555
Na3 O58 2.552085 1_555
Na3 O59 2.552085 1_555
Na3 O57 2.552085 1_555
Na3 O51 2.584067 1_555
Na3 O53 2.584067 1_555
Na3 O52 2.584067 1_555
Na4 O62 2.430160 1_555
Na4 O60 2.430160 1_555
Na4 O61 2.430160 1_555
Na4 O68 2.812978 1_555
Na4 O66 2.812979 1_555
Na4 O67 2.812979 1_555
Na5 O63 2.430160 1_555
Na5 O65 2.430160 1_555
Na5 O64 2.430160 1_555
Na5 O69 2.812978 1_555
Na5 O71 2.812979 1_555
Na5 O70 2.812979 1_555
Mg0 O1 2.038820 1_445
Mg0 O2 2.038820 1_455
Mg0 O0 2.038820 1_555
Mg0 O38 2.077613 1_555
Mg0 O36 2.077613 1_545
Mg0 O37 2.077613 1_445
Mg1 O4 2.038820 1_445
Mg1 O3 2.038820 1_555
Mg1 O5 2.038820 1_455
Mg1 O39 2.077613 1_555
Mg1 O41 2.077613 1_445
Mg1 O40 2.077613 1_545
Mg2 O44 2.034242 1_445
Mg2 O43 2.034242 1_555
Mg2 O42 2.034242 1_455
Mg2 O7 2.129215 1_555
Mg2 O8 2.129215 1_545
Mg2 O6 2.129215 1_445
Mg3 O45 2.034242 1_445
Mg3 O47 2.034242 1_555
Mg3 O46 2.034242 1_455
Mg3 O10 2.129215 1_555
Mg3 O9 2.129215 1_445
Mg3 O11 2.129215 1_545
Mg4 O13 1.997663 1_555
Mg4 O14 1.997663 1_555
Mg4 O12 1.997663 1_555
Mg4 O50 2.186090 1_555
Mg4 O48 2.186090 1_555
Mg4 O49 2.186091 1_555
Mg5 O16 1.997663 1_555
Mg5 O15 1.997663 1_555
Mg5 O17 1.997663 1_555
Mg5 O51 2.186090 1_555
Mg5 O53 2.186090 1_555
Mg5 O52 2.186091 1_555
Mg6 O19 2.002294 1_556
Mg6 O20 2.002294 1_556
Mg6 O18 2.002294 1_556
Mg6 O54 2.223198 1_555
Mg6 O56 2.223198 1_555
Mg6 O55 2.223198 1_555
Mg7 O22 2.002294 1_555
Mg7 O21 2.002294 1_555
Mg7 O23 2.002294 1_555
Mg7 O58 2.223198 1_555
Mg7 O59 2.223198 1_555
Mg7 O57 2.223198 1_555
Mg8 O62 2.033496 1_555
Mg8 O60 2.033496 1_555
Mg8 O61 2.033496 1_555
Mg8 O25 2.085858 1_554
Mg8 O26 2.085858 1_554
Mg8 O24 2.085858 1_554
Mg9 O63 2.033496 1_555
Mg9 O65 2.033496 1_555
Mg9 O64 2.033496 1_555
Mg9 O28 2.085858 1_555
Mg9 O27 2.085858 1_555
Mg9 O29 2.085858 1_555
Nb0 O31 1.986280 1_555
Nb0 O32 1.986280 1_555
Nb0 O30 1.986280 1_555
Nb0 O68 2.007364 1_555
Nb0 O66 2.007364 1_555
Nb0 O67 2.007364 1_555
Nb1 O34 1.986280 1_555
Nb1 O33 1.986280 1_555
Nb1 O35 1.986280 1_555
Nb1 O69 2.007364 1_555
Nb1 O71 2.007364 1_555
Nb1 O70 2.007364 1_555
O0 S0 1.458400 1_555
O1 S1 1.458400 1_555
O2 S2 1.458400 1_555
O3 S3 1.458400 1_555
O4 S4 1.458400 1_555
O5 S5 1.458400 1_555
O6 S5 1.455042 1_565
O7 S3 1.455042 1_555
O8 S4 1.455042 1_455
O9 S1 1.455042 1_555
O10 S2 1.455042 1_455
O11 S0 1.455042 1_565
O12 S6 1.470761 1_555
O13 S7 1.470761 1_555
O14 S8 1.470761 1_555
O15 S9 1.470761 1_555
O16 S10 1.470761 1_555
O17 S11 1.470761 1_555
O18 S11 1.474110 1_555
O19 S9 1.474110 1_555
O20 S10 1.474110 1_555
O21 S7 1.474110 1_555
O22 S8 1.474110 1_555
O23 S6 1.474110 1_555
O24 S12 1.451594 1_555
O25 S13 1.451594 1_555
O26 S14 1.451594 1_555
O27 S15 1.451594 1_555
O28 S16 1.451594 1_555
O29 S17 1.451594 1_555
O30 S17 1.567294 1_555
O31 S15 1.567294 1_555
O32 S16 1.567294 1_555
O33 S13 1.567294 1_555
O34 S14 1.567294 1_555
O35 S12 1.567294 1_555
O36 S17 1.466738 1_555
O37 S15 1.466747 1_555
O38 S16 1.466743 1_555
O39 S13 1.466747 1_555
O40 S14 1.466738 1_555
O41 S12 1.466743 1_555
O42 S6 1.488792 1_555
O43 S7 1.488800 1_555
O44 S8 1.488797 1_555
O45 S9 1.488800 1_555
O46 S10 1.488792 1_555
O47 S11 1.488797 1_555
O48 S5 1.465444 1_555
O49 S3 1.465452 1_555
O50 S4 1.465449 1_555
O51 S1 1.465452 1_555
O52 S2 1.465444 1_555
O53 S0 1.465449 1_555
O54 S12 1.465270 1_555
O55 S13 1.465253 1_655
O56 S14 1.465260 1_545
O57 S15 1.465252 1_545
O58 S16 1.465270 1_555
O59 S17 1.465260 1_655
O60 S11 1.489231 1_555
O61 S9 1.489214 1_455
O62 S10 1.489221 1_565
O63 S7 1.489214 1_565
O64 S8 1.489231 1_555
O65 S6 1.489221 1_455
O66 S0 1.571200 1_565
O67 S1 1.571208 1_555
O68 S2 1.571205 1_455
O69 S3 1.571208 1_555
O70 S4 1.571200 1_455
O71 S5 1.571205 1_565
