# generated using pymatgen
data_HoMnGe
_symmetry_space_group_name_H-M   'P 1'
_cell_length_a   4.09481200
_cell_length_b   7.04269200
_cell_length_c   7.89817500
_cell_angle_alpha   90.00000000
_cell_angle_beta   90.00000000
_cell_angle_gamma   90.00000000
_symmetry_Int_Tables_number   1
_chemical_formula_structural   HoMnGe
_chemical_formula_sum   'Ho4 Mn4 Ge4'
_cell_volume   227.77151748
_cell_formula_units_Z   4
loop_
 _symmetry_equiv_pos_site_id
 _symmetry_equiv_pos_as_xyz
  1  'x, y, z'
loop_
 _atom_site_type_symbol
 _atom_site_label
 _atom_site_symmetry_multiplicity
 _atom_site_fract_x
 _atom_site_fract_y
 _atom_site_fract_z
 _atom_site_occupancy
  Ho  Ho0  1  0.25000000  0.52283100  0.18321000  1
  Ho  Ho1  1  0.75000000  0.47716900  0.81679000  1
  Ho  Ho2  1  0.25000000  0.02283100  0.31679000  1
  Ho  Ho3  1  0.75000000  0.97716900  0.68321000  1
  Mn  Mn0  1  0.75000000  0.36678100  0.44396400  1
  Mn  Mn1  1  0.25000000  0.13321900  0.94396400  1
  Mn  Mn2  1  0.75000000  0.86678100  0.05603600  1
  Mn  Mn3  1  0.25000000  0.63321900  0.55603600  1
  Ge  Ge0  1  0.25000000  0.27479400  0.61704100  1
  Ge  Ge1  1  0.75000000  0.22520600  0.11704100  1
  Ge  Ge2  1  0.25000000  0.77479400  0.88295900  1
  Ge  Ge3  1  0.75000000  0.72520600  0.38295900  1
loop_
_geom_bond_atom_site_label_1
_geom_bond_atom_site_label_2
_geom_bond_distance
_geom_bond_site_symmetry_2
Ge0 Mn0 2.545630 1_555
Ge0 Mn0 2.545630 1_455
Ge0 Mn3 2.569851 1_555
Ge0 Mn1 2.767917 1_555
Ge0 Ho1 2.951650 1_555
Ge0 Ho1 2.951650 1_455
Ge0 Ho2 2.961848 1_555
Ge0 Ho3 2.976332 1_445
Ge0 Ho3 2.976332 1_545
Ge1 Mn1 2.545630 1_554
Ge1 Mn1 2.545630 1_654
Ge1 Mn2 2.569851 1_545
Ge1 Mn0 2.767917 1_555
Ge1 Ho2 2.951650 1_555
Ge1 Ho2 2.951650 1_655
Ge1 Ho1 2.961848 1_554
Ge1 Ho0 2.976332 1_655
Ge1 Ho0 2.976332 1_555
Ge2 Mn2 2.545630 1_456
Ge2 Mn2 2.545630 1_556
Ge2 Mn1 2.569851 1_565
Ge2 Mn3 2.767917 1_555
Ge2 Ho3 2.951650 1_555
Ge2 Ho3 2.951650 1_455
Ge2 Ho0 2.961848 1_556
Ge2 Ho1 2.976332 1_555
Ge2 Ho1 2.976332 1_455
Ge3 Mn3 2.545630 1_555
Ge3 Mn3 2.545630 1_655
Ge3 Mn0 2.569851 1_555
Ge3 Mn2 2.767917 1_555
Ge3 Ho0 2.951650 1_655
Ge3 Ho0 2.951650 1_555
Ge3 Ho3 2.961848 1_555
Ge3 Ho2 2.976332 1_565
Ge3 Ho2 2.976332 1_665
