# generated using pymatgen
data_Na2Ca4SiGe4S11O48
_symmetry_space_group_name_H-M   'P 1'
_cell_length_a   17.57052434
_cell_length_b   8.76474172
_cell_length_c   22.82903912
_cell_angle_alpha   90.09264758
_cell_angle_beta   90.14507449
_cell_angle_gamma   120.07754571
_symmetry_Int_Tables_number   1
_chemical_formula_structural   Na2Ca4SiGe4S11O48
_chemical_formula_sum   'Na6 Ca12 Si3 Ge12 S33 O144'
_cell_volume   3042.27460284
_cell_formula_units_Z   3
loop_
 _symmetry_equiv_pos_site_id
 _symmetry_equiv_pos_as_xyz
  1  'x, y, z'
loop_
 _atom_site_type_symbol
 _atom_site_label
 _atom_site_symmetry_multiplicity
 _atom_site_fract_x
 _atom_site_fract_y
 _atom_site_fract_z
 _atom_site_occupancy
  Na  Na0  1  0.99860465  0.98099369  0.49877600  1
  Na  Na1  1  0.49771237  0.00361593  0.99975865  1
  Na  Na2  1  0.33841942  0.33046066  0.83938757  1
  Na  Na3  1  0.83760083  0.33961547  0.83244463  1
  Na  Na4  1  0.34012000  0.32962093  0.32893757  1
  Na  Na5  1  0.84284189  0.34689240  0.33736765  1
  Ca  Ca0  1  0.00460684  0.99438076  0.35888395  1
  Ca  Ca1  1  0.00197344  0.00237440  0.86381144  1
  Ca  Ca2  1  0.33311543  0.34182749  0.68218705  1
  Ca  Ca3  1  0.83647339  0.32996233  0.68193995  1
  Ca  Ca4  1  0.34032696  0.33773608  0.18337032  1
  Ca  Ca5  1  0.83268254  0.32667356  0.18106016  1
  Ca  Ca6  1  0.34194173  0.33788903  0.98513088  1
  Ca  Ca7  1  0.83183766  0.33245068  0.98752482  1
  Ca  Ca8  1  0.33675419  0.33479192  0.48204778  1
  Ca  Ca9  1  0.83481430  0.33647012  0.48122096  1
  Ca  Ca10  1  0.65956507  0.65780945  0.52043021  1
  Ca  Ca11  1  0.16507690  0.66447468  0.80410758  1
  Si  Si0  1  0.50354233  0.29188529  0.25528743  1
  Si  Si1  1  0.52631286  0.38007328  0.91092757  1
  Si  Si2  1  0.02672770  0.66439285  0.41809192  1
  Ge  Ge0  1  0.49624091  0.00351006  0.35160767  1
  Ge  Ge1  1  0.50139345  0.01191876  0.85530949  1
  Ge  Ge2  1  0.00060829  0.99344700  0.64967961  1
  Ge  Ge3  1  0.50025682  0.00450936  0.64705874  1
  Ge  Ge4  1  0.00021975  0.99972547  0.15111686  1
  Ge  Ge5  1  0.50160787  0.01347544  0.15619455  1
  Ge  Ge6  1  0.16580119  0.66808565  0.01926528  1
  Ge  Ge7  1  0.65892354  0.64352496  0.01708196  1
  Ge  Ge8  1  0.16503380  0.66706155  0.51963032  1
  Ge  Ge9  1  0.15981919  0.66314234  0.31407972  1
  Ge  Ge10  1  0.66393552  0.65559287  0.31087305  1
  Ge  Ge11  1  0.66415095  0.66306453  0.81324072  1
  S  S0  1  0.14514818  0.98412138  0.24882256  1
  S  S1  1  0.63857497  0.98764907  0.25344540  1
  S  S2  1  0.35255958  0.72102050  0.25441544  1
  S  S3  1  0.84883939  0.71411276  0.24950337  1
  S  S4  1  0.01049769  0.30427160  0.25063067  1
  S  S5  1  0.13971574  0.27864954  0.74617200  1
  S  S6  1  0.64050940  0.29140230  0.75368416  1
  S  S7  1  0.99875046  0.71561482  0.74788452  1
  S  S8  1  0.50714469  0.73179433  0.75549467  1
  S  S9  1  0.36666677  0.00393055  0.75022508  1
  S  S10  1  0.84501035  0.97768743  0.75361485  1
  S  S11  1  0.48375589  0.31710836  0.58840781  1
  S  S12  1  0.99509992  0.33072208  0.58375452  1
  S  S13  1  0.17664118  0.01598828  0.58334873  1
  S  S14  1  0.67179798  0.02905689  0.58825746  1
  S  S15  1  0.33152737  0.65114429  0.58262490  1
  S  S16  1  0.84062930  0.65497752  0.58786631  1
  S  S17  1  0.49686841  0.66300541  0.08414348  1
  S  S18  1  0.99390590  0.65605344  0.08420625  1
  S  S19  1  0.33387091  0.00814677  0.08392237  1
  S  S20  1  0.83079698  0.00480055  0.08255220  1
  S  S21  1  0.17395517  0.33455112  0.08382963  1
  S  S22  1  0.67154393  0.33037930  0.08357096  1
  S  S23  1  0.31763378  0.68123352  0.91492060  1
  S  S24  1  0.80008335  0.66179259  0.91695235  1
  S  S25  1  0.02471759  0.38774522  0.92109447  1
  S  S26  1  0.16776999  0.94826282  0.92141341  1
  S  S27  1  0.66320570  0.94512971  0.91219977  1
  S  S28  1  0.31279939  0.94442535  0.41186518  1
  S  S29  1  0.80262593  0.94682696  0.40978678  1
  S  S30  1  0.17147218  0.39995881  0.41657271  1
  S  S31  1  0.65983740  0.36193794  0.40922672  1
  S  S32  1  0.52093345  0.68161404  0.40625576  1
  O  O0  1  0.10655321  0.00990989  0.30118516  1
  O  O1  1  0.59534385  0.01530405  0.30497142  1
  O  O2  1  0.41096566  0.79778876  0.30719970  1
  O  O3  1  0.90299791  0.79070767  0.30099149  1
  O  O4  1  0.48458805  0.15607168  0.30964386  1
  O  O5  1  0.99755533  0.19898817  0.30204894  1
  O  O6  1  0.09640769  0.17934926  0.79851748  1
  O  O7  1  0.59855886  0.17683465  0.80676738  1
  O  O8  1  0.49170058  0.81522184  0.80912327  1
  O  O9  1  0.99157199  0.80328186  0.79989234  1
  O  O10  1  0.41961161  0.02801432  0.80598138  1
  O  O11  1  0.89700467  0.00164325  0.80570375  1
  O  O12  1  0.41216919  0.98244863  0.69737189  1
  O  O13  1  0.88459827  0.95414646  0.69869569  1
  O  O14  1  0.08558419  0.18493007  0.69012193  1
  O  O15  1  0.58664747  0.21125715  0.69978216  1
  O  O16  1  0.00190245  0.81581334  0.69175478  1
  O  O17  1  0.51903608  0.83656756  0.70108654  1
  O  O18  1  0.39441119  0.83161671  0.20032799  1
  O  O19  1  0.89250187  0.82694998  0.19431783  1
  O  O20  1  0.02031953  0.21688683  0.19469874  1
  O  O21  1  0.52057650  0.20278483  0.19464474  1
  O  O22  1  0.08601860  0.95222939  0.19464009  1
  O  O23  1  0.58300467  0.95532781  0.19806722  1
  O  O24  1  0.44283203  0.34184472  0.64048161  1
  O  O25  1  0.95915598  0.36678759  0.63588546  1
  O  O26  1  0.22949541  0.09384188  0.63596439  1
  O  O27  1  0.72234532  0.10916839  0.64139798  1
  O  O28  1  0.30939619  0.53976660  0.63448012  1
  O  O29  1  0.83194990  0.55423919  0.64039088  1
  O  O30  1  0.46118349  0.55052840  0.13472190  1
  O  O31  1  0.95629343  0.54233902  0.13507337  1
  O  O32  1  0.31602437  0.08340693  0.13462790  1
  O  O33  1  0.81049577  0.07589328  0.13447805  1
  O  O34  1  0.22917271  0.37465664  0.13565735  1
  O  O35  1  0.72546888  0.35919145  0.13514356  1
  O  O36  1  0.20967427  0.29541089  0.03185743  1
  O  O37  1  0.70618314  0.29551367  0.03007982  1
  O  O38  1  0.44211839  0.59701317  0.03118844  1
  O  O39  1  0.93909251  0.58548995  0.03174544  1
  O  O40  1  0.35578557  0.11696663  0.03101307  1
  O  O41  1  0.85086748  0.11921459  0.03137172  1
  O  O42  1  0.21207168  0.12393341  0.53074548  1
  O  O43  1  0.70893286  0.13917789  0.53637550  1
  O  O44  1  0.34958881  0.57667241  0.53096463  1
  O  O45  1  0.86054210  0.58471125  0.53524713  1
  O  O46  1  0.43085833  0.28749643  0.53521739  1
  O  O47  1  0.94018840  0.29250159  0.53145870  1
  O  O48  1  0.27897805  0.71095657  0.96960289  1
  O  O49  1  0.75804343  0.68615847  0.97151813  1
  O  O50  1  0.07895566  0.47996447  0.97687055  1
  O  O51  1  0.58293330  0.46328242  0.97305919  1
  O  O52  1  0.16407802  0.84637099  0.97787759  1
  O  O53  1  0.65044709  0.83831101  0.96573139  1
  O  O54  1  0.27512334  0.84359311  0.46631384  1
  O  O55  1  0.76033343  0.84700435  0.46215312  1
  O  O56  1  0.17009085  0.49063858  0.47206379  1
  O  O57  1  0.64595436  0.43474123  0.46253740  1
  O  O58  1  0.08933299  0.68293384  0.47621157  1
  O  O59  1  0.56856143  0.70933555  0.46074868  1
  O  O60  1  0.07236915  0.64182352  0.35525855  1
  O  O61  1  0.56648760  0.65484859  0.35471962  1
  O  O62  1  0.25718686  0.86214446  0.35824071  1
  O  O63  1  0.74941983  0.85124385  0.35316336  1
  O  O64  1  0.18409146  0.50476078  0.36082358  1
  O  O65  1  0.67460224  0.48038316  0.35718049  1
  O  O66  1  0.06721210  0.48638439  0.86865741  1
  O  O67  1  0.57336237  0.50794520  0.85379949  1
  O  O68  1  0.17719477  0.86493895  0.86924177  1
  O  O69  1  0.68048869  0.86969821  0.85804327  1
  O  O70  1  0.26900946  0.66351949  0.86218880  1
  O  O71  1  0.74839980  0.64308177  0.86168021  1
  O  O72  1  0.02480373  0.84390416  0.42364525  1
  O  O73  1  0.51483061  0.84760383  0.39847740  1
  O  O74  1  0.40000317  0.95080043  0.40593585  1
  O  O75  1  0.88982174  0.96678809  0.40656113  1
  O  O76  1  0.08817015  0.23439760  0.41586852  1
  O  O77  1  0.57753546  0.18309820  0.40256300  1
  O  O78  1  0.01780860  0.21550192  0.92348125  1
  O  O79  1  0.52410445  0.18492221  0.90640837  1
  O  O80  1  0.08572356  0.95068179  0.92371575  1
  O  O81  1  0.57858516  0.94992779  0.90658119  1
  O  O82  1  0.40999292  0.85064823  0.91155424  1
  O  O83  1  0.88487968  0.81878914  0.91528940  1
  O  O84  1  0.48646812  0.14727875  0.59513929  1
  O  O85  1  0.00379104  0.16725325  0.59339887  1
  O  O86  1  0.08482264  0.98760610  0.59182688  1
  O  O87  1  0.58071540  0.01613986  0.59571396  1
  O  O88  1  0.41179341  0.82657137  0.59538586  1
  O  O89  1  0.92394767  0.84329704  0.59345567  1
  O  O90  1  0.50914648  0.84495874  0.09583085  1
  O  O91  1  0.00477565  0.83739535  0.09523148  1
  O  O92  1  0.41241186  0.98010826  0.09459104  1
  O  O93  1  0.91049359  0.98387568  0.09419829  1
  O  O94  1  0.08179331  0.17782433  0.09472280  1
  O  O95  1  0.58009436  0.17131650  0.09134563  1
  O  O96  1  0.36139130  0.16521126  0.74689690  1
  O  O97  1  0.82906154  0.12664349  0.74820928  1
  O  O98  1  0.22607977  0.29057751  0.74265211  1
  O  O99  1  0.72785841  0.31253385  0.75083353  1
  O  O100  1  0.43033980  0.55539017  0.75200282  1
  O  O101  1  0.92045108  0.53802817  0.74616562  1
  O  O102  1  0.33976831  0.54509602  0.24777571  1
  O  O103  1  0.83347581  0.53522017  0.24049332  1
  O  O104  1  0.42009718  0.31586336  0.25153490  1
  O  O105  1  0.93691451  0.33674731  0.24286450  1
  O  O106  1  0.23138533  0.13722812  0.23986414  1
  O  O107  1  0.72514732  0.14453634  0.24766038  1
  O  O108  1  0.32994327  0.52857708  0.92179986  1
  O  O109  1  0.80389614  0.49882289  0.91999010  1
  O  O110  1  0.43023119  0.35217170  0.91396016  1
  O  O111  1  0.93784932  0.37406022  0.92528188  1
  O  O112  1  0.24472647  0.12594242  0.92603180  1
  O  O113  1  0.73817022  0.12314069  0.91728362  1
  O  O114  1  0.32549347  0.12283891  0.41511341  1
  O  O115  1  0.80602865  0.11695246  0.40822201  1
  O  O116  1  0.24815015  0.37618657  0.41765566  1
  O  O117  1  0.73648867  0.33879069  0.41059166  1
  O  O118  1  0.43217084  0.52651441  0.40750564  1
  O  O119  1  0.93298161  0.48842019  0.41621768  1
  O  O120  1  0.16201060  0.49352171  0.07248817  1
  O  O121  1  0.66226517  0.49185081  0.07629862  1
  O  O122  1  0.08508221  0.68367501  0.07451973  1
  O  O123  1  0.58784931  0.68838364  0.07182405  1
  O  O124  1  0.25571522  0.82597754  0.07349675  1
  O  O125  1  0.75302261  0.82449818  0.06992955  1
  O  O126  1  0.16863145  0.83741834  0.57580524  1
  O  O127  1  0.65399271  0.84984880  0.58151603  1
  O  O128  1  0.25618029  0.68541593  0.57127642  1
  O  O129  1  0.76752881  0.68561676  0.58073435  1
  O  O130  1  0.08725621  0.48214590  0.57451955  1
  O  O131  1  0.57308610  0.46049204  0.58356811  1
  O  O132  1  0.15256848  0.81995591  0.25265410  1
  O  O133  1  0.64561803  0.82671096  0.25873750  1
  O  O134  1  0.26710802  0.71667494  0.26136927  1
  O  O135  1  0.76274124  0.71085011  0.25362876  1
  O  O136  1  0.09717716  0.47873752  0.25376472  1
  O  O137  1  0.59514127  0.48411085  0.26269386  1
  O  O138  1  0.14626781  0.44931198  0.74306941  1
  O  O139  1  0.64541355  0.46656708  0.75925142  1
  O  O140  1  0.07931705  0.70888817  0.74448428  1
  O  O141  1  0.59072584  0.72684724  0.76115833  1
  O  O142  1  0.28368279  0.84520790  0.75157313  1
  O  O143  1  0.75440355  0.80397473  0.75815635  1
loop_
_geom_bond_atom_site_label_1
_geom_bond_atom_site_label_2
_geom_bond_distance
_geom_bond_site_symmetry_2
Na0 O72 2.269177 1_655
Na0 O89 2.507004 1_555
Na0 O86 2.589606 1_655
Na0 O85 2.679206 1_665
Na0 O76 2.741724 1_665
Na0 O75 2.800152 1_555
Na1 O82 2.476294 1_545
Na1 O95 2.543516 1_556
Na1 O79 2.561091 1_555
Na1 O92 2.585354 1_546
Na1 O90 2.659332 1_546
Na1 O81 2.729043 1_545
Na2 O110 2.283451 1_555
Na2 O108 2.612874 1_555
Na2 O112 2.627909 1_555
Na2 O96 2.701741 1_555
Na2 O100 2.704126 1_555
Na2 O98 2.859911 1_555
Na3 O101 2.551681 1_555
Na3 O99 2.601381 1_555
Na3 O97 2.628888 1_555
Na3 O113 2.666413 1_555
Na3 O109 2.667863 1_555
Na3 O111 2.670495 1_555
Na4 O104 2.300730 1_555
Na4 O118 2.447195 1_555
Na4 O114 2.601605 1_555
Na4 O102 2.650054 1_555
Na4 O106 2.714518 1_555
Na4 O116 2.748620 1_555
Na5 O119 2.301416 1_555
Na5 O115 2.409501 1_555
Na5 O117 2.484869 1_555
Na5 O105 2.749401 1_555
Na5 O107 2.811868 1_555
Na5 O103 2.815119 1_555
Ca0 O72 2.126960 1_555
Ca0 O0 2.174924 1_565
Ca0 O75 2.198601 1_455
Ca0 O3 2.215110 1_455
Ca0 O5 2.268102 1_465
Ca0 O76 2.271366 1_565
Ca1 O6 2.195743 1_555
Ca1 O9 2.208724 1_445
Ca1 O78 2.211642 1_555
Ca1 O80 2.213817 1_545
Ca1 O83 2.214314 1_445
Ca1 O11 2.266527 1_455
Ca2 O24 2.152166 1_555
Ca2 O98 2.193737 1_555
Ca2 O28 2.257919 1_555
Ca2 O26 2.273508 1_555
Ca2 O96 2.366430 1_555
Ca2 O100 2.394515 1_555
Ca3 O27 2.172069 1_555
Ca3 O29 2.220891 1_555
Ca3 O101 2.221686 1_555
Ca3 O25 2.274065 1_555
Ca3 O97 2.293136 1_555
Ca3 O99 2.421322 1_555
Ca4 O104 2.163803 1_555
Ca4 O106 2.250288 1_555
Ca4 O30 2.295665 1_555
Ca4 O32 2.329170 1_555
Ca4 O102 2.339739 1_555
Ca4 O34 2.393611 1_555
Ca5 O103 2.269034 1_555
Ca5 O105 2.275307 1_555
Ca5 O33 2.290333 1_555
Ca5 O35 2.293001 1_555
Ca5 O31 2.301148 1_555
Ca5 O107 2.330060 1_555
Ca6 O110 2.209251 1_555
Ca6 O112 2.233502 1_555
Ca6 O108 2.299465 1_555
Ca6 O38 2.310367 1_556
Ca6 O40 2.320140 1_556
Ca6 O36 2.413314 1_556
Ca7 O111 2.226173 1_555
Ca7 O37 2.284402 1_556
Ca7 O41 2.288560 1_556
Ca7 O39 2.298495 1_556
Ca7 O109 2.337825 1_555
Ca7 O113 2.365648 1_555
Ca8 O46 2.248907 1_555
Ca8 O116 2.296202 1_555
Ca8 O44 2.303101 1_555
Ca8 O42 2.326273 1_555
Ca8 O114 2.333675 1_555
Ca8 O118 2.393784 1_555
Ca9 O119 2.160501 1_555
Ca9 O45 2.337124 1_555
Ca9 O47 2.365940 1_555
Ca9 O117 2.367737 1_555
Ca9 O43 2.378056 1_555
Ca9 O115 2.396834 1_555
Ca10 O55 2.175040 1_555
Ca10 O131 2.182313 1_555
Ca10 O127 2.223885 1_555
Ca10 O129 2.252879 1_555
Ca10 O57 2.268888 1_555
Ca10 O59 2.309068 1_555
Ca11 O140 2.203203 1_555
Ca11 O66 2.212401 1_555
Ca11 O68 2.226755 1_555
Ca11 O138 2.229749 1_555
Ca11 O142 2.236173 1_555
Ca11 O70 2.257455 1_555
Ge0 O4 1.739324 1_555
Ge0 O73 1.889224 1_545
Ge0 O77 1.898192 1_555
Ge0 O2 1.949962 1_545
Ge0 O74 1.959701 1_545
Ge0 O1 2.001401 1_555
Ge1 O79 1.790175 1_555
Ge1 O10 1.883711 1_555
Ge1 O7 1.942496 1_555
Ge1 O8 1.952388 1_545
Ge1 O82 1.991666 1_545
Ge1 O81 2.058509 1_545
Ge2 O14 1.837029 1_565
Ge2 O16 1.840472 1_555
Ge2 O89 1.844641 1_455
Ge2 O85 1.973798 1_565
Ge2 O86 2.005497 1_555
Ge2 O13 2.198798 1_455
Ge3 O87 1.802001 1_555
Ge3 O84 1.826644 1_555
Ge3 O12 1.860629 1_545
Ge3 O88 1.948024 1_545
Ge3 O15 2.064732 1_555
Ge3 O17 2.070624 1_545
Ge4 O91 1.940931 1_555
Ge4 O94 1.980332 1_565
Ge4 O93 1.990656 1_455
Ge4 O19 1.997367 1_455
Ge4 O20 2.013884 1_565
Ge4 O22 2.013944 1_555
Ge5 O21 1.753336 1_555
Ge5 O23 1.985999 1_545
Ge5 O92 2.011870 1_545
Ge5 O18 2.027046 1_545
Ge5 O95 2.027815 1_555
Ge5 O90 2.070879 1_545
Ge6 O52 1.840514 1_554
Ge6 O50 1.857218 1_554
Ge6 O120 1.930267 1_555
Ge6 O124 1.933109 1_555
Ge6 O122 1.955521 1_555
Ge6 O48 2.155188 1_554
Ge7 O51 1.778279 1_554
Ge7 O49 1.900751 1_554
Ge7 O121 1.918823 1_555
Ge7 O123 1.942770 1_555
Ge7 O125 2.014987 1_555
Ge7 O53 2.138127 1_554
Ge8 O58 1.717633 1_555
Ge8 O56 1.926369 1_555
Ge8 O128 1.926747 1_555
Ge8 O126 1.943408 1_555
Ge8 O130 1.964614 1_555
Ge8 O54 2.152956 1_555
Ge9 O60 1.731969 1_555
Ge9 O64 1.960496 1_555
Ge9 O136 1.980328 1_555
Ge9 O62 1.995008 1_555
Ge9 O132 2.013092 1_555
Ge9 O134 2.085323 1_555
Ge10 O137 1.759755 1_555
Ge10 O63 1.879982 1_555
Ge10 O65 1.950311 1_555
Ge10 O61 1.982717 1_555
Ge10 O135 2.031518 1_555
Ge10 O133 2.063314 1_555
Ge11 O67 1.757304 1_555
Ge11 O143 1.916619 1_555
Ge11 O71 1.922762 1_555
Ge11 O69 1.969767 1_555
Ge11 O139 2.004093 1_555
Ge11 O141 2.026802 1_555
O0 S0 1.448025 1_545
O1 S1 1.485780 1_545
O2 S2 1.502307 1_555
O3 S3 1.445438 1_555
O4 Si0 1.636229 1_555
O5 S4 1.440706 1_655
O6 S5 1.452131 1_555
O7 S6 1.512203 1_555
O8 S8 1.518184 1_555
O9 S7 1.452900 1_555
O10 S9 1.525268 1_555
O11 S10 1.447124 1_545
O12 S9 1.511801 1_565
O13 S10 1.498577 1_555
O14 S5 1.556920 1_555
O15 S6 1.492731 1_555
O16 S7 1.539977 1_455
O17 S8 1.497467 1_555
O18 S2 1.516248 1_555
O19 S3 1.549920 1_555
O20 S4 1.541828 1_555
O21 Si0 1.687880 1_555
O22 S0 1.545579 1_555
O23 S1 1.532066 1_555
O24 S11 1.461860 1_555
O25 S12 1.455271 1_555
O26 S13 1.458554 1_555
O27 S14 1.456111 1_555
O28 S15 1.459843 1_555
O29 S16 1.452597 1_555
O30 S17 1.444302 1_555
O31 S18 1.458089 1_555
O32 S19 1.442251 1_555
O33 S20 1.463986 1_555
O34 S21 1.454566 1_555
O35 S22 1.449561 1_555
O36 S21 1.462039 1_555
O37 S22 1.464243 1_555
O38 S17 1.468185 1_555
O39 S18 1.462567 1_555
O40 S19 1.467948 1_555
O41 S20 1.465113 1_555
O42 S13 1.463518 1_555
O43 S14 1.461684 1_555
O44 S15 1.457626 1_555
O45 S16 1.469835 1_555
O46 S11 1.468734 1_555
O47 S12 1.461958 1_555
O48 S23 1.506036 1_555
O49 S24 1.518183 1_555
O50 S25 1.549605 1_555
O51 Si1 1.672049 1_555
O52 S26 1.552229 1_555
O53 S27 1.488281 1_555
O54 S28 1.478396 1_555
O55 S29 1.450188 1_555
O56 S30 1.501103 1_555
O57 S31 1.450122 1_555
O58 Si2 1.676186 1_555
O59 S32 1.448062 1_555
O60 Si2 1.704035 1_555
O61 S32 1.507308 1_555
O62 S28 1.502763 1_555
O63 S29 1.565926 1_555
O64 S30 1.521100 1_555
O65 S31 1.514059 1_555
O66 S25 1.448721 1_555
O67 Si1 1.649818 1_555
O68 S26 1.448701 1_555
O69 S27 1.502782 1_555
O70 S23 1.436813 1_555
O71 S24 1.512604 1_555
O72 Si2 1.595431 1_555
O73 S32 1.522087 1_555
O74 S28 1.511420 1_555
O75 S29 1.454383 1_555
O76 S30 1.455735 1_555
O77 S31 1.515719 1_555
O78 S25 1.453756 1_555
O79 Si1 1.694304 1_555
O80 S26 1.453422 1_555
O81 S27 1.513473 1_555
O82 S23 1.558826 1_555
O83 S24 1.435353 1_555
O84 S11 1.520974 1_555
O85 S12 1.531260 1_455
O86 S13 1.517085 1_565
O87 S14 1.556537 1_555
O88 S15 1.503634 1_555
O89 S16 1.568493 1_555
O90 S17 1.521353 1_555
O91 S18 1.523240 1_455
O92 S19 1.537059 1_565
O93 S20 1.523446 1_565
O94 S21 1.531193 1_555
O95 S22 1.521138 1_555
O96 S9 1.464319 1_555
O97 S10 1.471498 1_545
O98 S5 1.470274 1_555
O99 S6 1.452471 1_555
O100 S8 1.457979 1_555
O101 S7 1.473123 1_555
O102 S2 1.450088 1_555
O103 S3 1.465627 1_555
O104 Si0 1.584126 1_555
O105 S4 1.466938 1_655
O106 S0 1.450138 1_545
O107 S1 1.458469 1_545
O108 S23 1.467053 1_555
O109 S24 1.464855 1_555
O110 Si1 1.581601 1_555
O111 S25 1.473246 1_655
O112 S26 1.467230 1_545
O113 S27 1.456516 1_545
O114 S28 1.466458 1_545
O115 S29 1.462557 1_545
O116 S30 1.463006 1_555
O117 S31 1.459348 1_555
O118 S32 1.468474 1_555
O119 Si2 1.595873 1_655
O120 S21 1.531819 1_555
O121 S22 1.512940 1_555
O122 S18 1.512343 1_455
O123 S17 1.526468 1_555
O124 S19 1.513653 1_565
O125 S20 1.509884 1_565
O126 S13 1.509067 1_565
O127 S14 1.447455 1_565
O128 S15 1.518929 1_555
O129 S16 1.446775 1_555
O130 S12 1.508764 1_455
O131 S11 1.441983 1_555
O132 S0 1.511085 1_555
O133 S1 1.481585 1_555
O134 S2 1.491592 1_555
O135 S3 1.501862 1_555
O136 S4 1.525678 1_555
O137 Si0 1.654453 1_555
O138 S5 1.443434 1_555
O139 S6 1.499118 1_555
O140 S7 1.448314 1_455
O141 S8 1.496049 1_555
O142 S9 1.424588 1_565
O143 S10 1.560496 1_555
