# generated using pymatgen
data_Na2Ta5In3(PO4)12
_symmetry_space_group_name_H-M   'P 1'
_cell_length_a   17.60056945
_cell_length_b   8.80287317
_cell_length_c   22.82056553
_cell_angle_alpha   89.97555336
_cell_angle_beta   90.02895237
_cell_angle_gamma   119.98226518
_symmetry_Int_Tables_number   1
_chemical_formula_structural   Na2Ta5In3(PO4)12
_chemical_formula_sum   'Na6 Ta15 In9 P36 O144'
_cell_volume   3062.56784301
_cell_formula_units_Z   3
loop_
 _symmetry_equiv_pos_site_id
 _symmetry_equiv_pos_as_xyz
  1  'x, y, z'
loop_
 _atom_site_type_symbol
 _atom_site_label
 _atom_site_symmetry_multiplicity
 _atom_site_fract_x
 _atom_site_fract_y
 _atom_site_fract_z
 _atom_site_occupancy
  Na  Na0  1  0.33067887  0.32928709  0.82728333  1
  Na  Na1  1  0.83610785  0.33764320  0.82821810  1
  Na  Na2  1  0.33065275  0.32825377  0.32727421  1
  Na  Na3  1  0.83545948  0.33853956  0.32578161  1
  Na  Na4  1  0.66817300  0.66697861  0.16748564  1
  Na  Na5  1  0.16582477  0.66548652  0.66450678  1
  Ta  Ta0  1  0.50261384  0.00369340  0.35699043  1
  Ta  Ta1  1  0.00277406  0.00160037  0.85642091  1
  Ta  Ta2  1  0.49718237  0.99783597  0.85624070  1
  Ta  Ta3  1  0.99978953  0.99956211  0.64124319  1
  Ta  Ta4  1  0.50068029  0.00096806  0.64106515  1
  Ta  Ta5  1  0.00080272  0.00102117  0.14571092  1
  Ta  Ta6  1  0.49946416  0.99916882  0.14346236  1
  Ta  Ta7  1  0.33602808  0.33705339  0.98219669  1
  Ta  Ta8  1  0.83072348  0.32903394  0.98182376  1
  Ta  Ta9  1  0.32957243  0.33287380  0.47951034  1
  Ta  Ta10  1  0.83786685  0.33654464  0.48042159  1
  Ta  Ta11  1  0.16610770  0.66554994  0.02005202  1
  Ta  Ta12  1  0.66578371  0.66720792  0.51981749  1
  Ta  Ta13  1  0.16485935  0.66453338  0.30958496  1
  Ta  Ta14  1  0.66744869  0.66690320  0.80928825  1
  In  In0  1  0.99573417  0.99604708  0.35670993  1
  In  In1  1  0.33567941  0.33348286  0.68876880  1
  In  In2  1  0.83110224  0.33314438  0.68817276  1
  In  In3  1  0.33255501  0.33216488  0.18818037  1
  In  In4  1  0.83421807  0.33482759  0.18714918  1
  In  In5  1  0.66704134  0.66803023  0.01721259  1
  In  In6  1  0.16921145  0.66960910  0.51744772  1
  In  In7  1  0.66923015  0.66902896  0.31065385  1
  In  In8  1  0.16597121  0.66660622  0.81045858  1
  P  P0  1  0.14367719  -0.00001355  0.25150904  1
  P  P1  1  0.64203280  0.99812451  0.25005817  1
  P  P2  1  0.35822781  0.71697593  0.25224541  1
  P  P3  1  0.85432067  0.71065513  0.24933344  1
  P  P4  1  0.99986293  0.28722286  0.25169748  1
  P  P5  1  0.50069912  0.28503284  0.24978914  1
  P  P6  1  0.14218916  0.28461513  0.74929879  1
  P  P7  1  0.64082730  0.28252288  0.75092464  1
  P  P8  1  0.99992279  0.71633469  0.74911252  1
  P  P9  1  0.50066976  0.71800050  0.75108005  1
  P  P10  1  0.35775641  0.99790838  0.74864883  1
  P  P11  1  0.85890812  0.00139715  0.75155102  1
  P  P12  1  0.47730042  0.33389529  0.58249635  1
  P  P13  1  0.97949095  0.33750352  0.58665263  1
  P  P14  1  0.18898574  0.04219444  0.58529693  1
  P  P15  1  0.69032299  0.04476623  0.58375053  1
  P  P16  1  0.33217941  0.62106582  0.58612139  1
  P  P17  1  0.83207209  0.62116439  0.58320791  1
  P  P18  1  0.47972373  0.62315705  0.08642001  1
  P  P19  1  0.97816405  0.62573004  0.08239303  1
  P  P20  1  0.33291606  0.04234792  0.08317400  1
  P  P21  1  0.83313262  0.04045314  0.08579232  1
  P  P22  1  0.18885714  0.33388560  0.08380534  1
  P  P23  1  0.68670422  0.33369539  0.08484697  1
  P  P24  1  0.31009049  0.66311741  0.91600959  1
  P  P25  1  0.81086599  0.66216567  0.91511207  1
  P  P26  1  0.02059318  0.37763580  0.91609836  1
  P  P27  1  0.52113490  0.38057165  0.91510551  1
  P  P28  1  0.16968940  0.95907761  0.91633201  1
  P  P29  1  0.66788083  0.95748391  0.91482210  1
  P  P30  1  0.31081196  0.96023342  0.41454454  1
  P  P31  1  0.80973302  0.95690097  0.41713339  1
  P  P32  1  0.16764590  0.37883703  0.41594595  1
  P  P33  1  0.66938676  0.38027787  0.41671311  1
  P  P34  1  0.02149652  0.66303742  0.41644655  1
  P  P35  1  0.52109100  0.66304625  0.41595064  1
  O  O0  1  0.10406421  0.02900597  0.30544803  1
  O  O1  1  0.59287512  0.00898226  0.30575054  1
  O  O2  1  0.41597554  0.81394440  0.30604222  1
  O  O3  1  0.90365377  0.78980150  0.30530001  1
  O  O4  1  0.49740629  0.17608500  0.30483081  1
  O  O5  1  0.98483980  0.18227623  0.30655047  1
  O  O6  1  0.09323752  0.17661070  0.80571989  1
  O  O7  1  0.59201370  0.16941950  0.80489609  1
  O  O8  1  0.49129945  0.81181635  0.80581692  1
  O  O9  1  0.99703784  0.81802408  0.80489796  1
  O  O10  1  0.41114588  0.00546690  0.80454435  1
  O  O11  1  0.91559214  0.01874334  0.80617950  1
  O  O12  1  0.40876606  0.98885732  0.69392887  1
  O  O13  1  0.90020604  0.97547838  0.69589764  1
  O  O14  1  0.08583348  0.18292060  0.69483897  1
  O  O15  1  0.58751921  0.19907876  0.69476949  1
  O  O16  1  0.00354083  0.82326762  0.69375012  1
  O  O17  1  0.51394996  0.83046087  0.69594089  1
  O  O18  1  0.40088312  0.82570277  0.19583488  1
  O  O19  1  0.90835176  0.82794149  0.19390305  1
  O  O20  1  0.01302962  0.19635275  0.19596493  1
  O  O21  1  0.50401200  0.18428643  0.19360375  1
  O  O22  1  0.08819975  0.97783698  0.19448293  1
  O  O23  1  0.58550609  0.98808281  0.19483406  1
  O  O24  1  0.44651575  0.37891238  0.63825080  1
  O  O25  1  0.93912745  0.36637928  0.64105184  1
  O  O26  1  0.24372834  0.12119408  0.63969086  1
  O  O27  1  0.74324715  0.10668651  0.63974391  1
  O  O28  1  0.31884618  0.51592958  0.64128100  1
  O  O29  1  0.80808068  0.50972832  0.63801981  1
  O  O30  1  0.43928262  0.51096390  0.13978830  1
  O  O31  1  0.94639490  0.51336837  0.13618964  1
  O  O32  1  0.30901842  0.10892956  0.13647773  1
  O  O33  1  0.81757529  0.11985595  0.13962846  1
  O  O34  1  0.24471808  0.38269715  0.13790636  1
  O  O35  1  0.74277685  0.36371800  0.13806471  1
  O  O36  1  0.23589328  0.30511507  0.02989380  1
  O  O37  1  0.73376010  0.30732566  0.02886792  1
  O  O38  1  0.42023462  0.52878996  0.03056333  1
  O  O39  1  0.91623765  0.53207643  0.02823792  1
  O  O40  1  0.34947085  0.16540243  0.02886751  1
  O  O41  1  0.84420657  0.16102930  0.03010013  1
  O  O42  1  0.23446105  0.16088696  0.52967638  1
  O  O43  1  0.73497775  0.16783167  0.53118128  1
  O  O44  1  0.34478471  0.52828756  0.53106943  1
  O  O45  1  0.84976790  0.53271521  0.53011145  1
  O  O46  1  0.41574092  0.30036878  0.52942221  1
  O  O47  1  0.92025318  0.31039076  0.53148398  1
  O  O48  1  0.26550004  0.69279425  0.96935511  1
  O  O49  1  0.77879940  0.70530680  0.97021823  1
  O  O50  1  0.08104597  0.46894833  0.96924661  1
  O  O51  1  0.57394657  0.44320909  0.97045003  1
  O  O52  1  0.15442434  0.83848783  0.96934491  1
  O  O53  1  0.64612182  0.85116068  0.97013174  1
  O  O54  1  0.28117311  0.85728138  0.47130250  1
  O  O55  1  0.75729748  0.83627794  0.47001941  1
  O  O56  1  0.15730662  0.45602317  0.47249217  1
  O  O57  1  0.65317265  0.46895283  0.46994446  1
  O  O58  1  0.07270762  0.68801967  0.47220122  1
  O  O59  1  0.57934958  0.69142420  0.47015630  1
  O  O60  1  0.06763573  0.63195766  0.36210485  1
  O  O61  1  0.55423748  0.61756460  0.36127816  1
  O  O62  1  0.24939244  0.86980441  0.36188982  1
  O  O63  1  0.75391519  0.89423130  0.36196017  1
  O  O64  1  0.18472859  0.50382840  0.36211432  1
  O  O65  1  0.69097371  0.48881687  0.36135034  1
  O  O66  1  0.05306514  0.48899726  0.86125467  1
  O  O67  1  0.56644820  0.50174723  0.86161194  1
  O  O68  1  0.19252843  0.89451598  0.86130093  1
  O  O69  1  0.68373141  0.86609042  0.86160905  1
  O  O70  1  0.25530402  0.61780045  0.86091009  1
  O  O71  1  0.74906874  0.63141476  0.86181066  1
  O  O72  1  0.00417984  0.81080115  0.40792777  1
  O  O73  1  0.51107244  0.82793092  0.40844977  1
  O  O74  1  0.40340045  0.98831591  0.40039878  1
  O  O75  1  0.89927090  0.97579000  0.41786890  1
  O  O76  1  0.09352761  0.19666510  0.40741241  1
  O  O77  1  0.58661952  0.19546310  0.40916886  1
  O  O78  1  0.01108648  0.19321638  0.90858305  1
  O  O79  1  0.50625949  0.19507712  0.90097193  1
  O  O80  1  0.08678474  0.97754778  0.90875415  1
  O  O81  1  0.59019783  0.98781692  0.90054979  1
  O  O82  1  0.40282877  0.82779793  0.90881864  1
  O  O83  1  0.90301163  0.81858700  0.90040005  1
  O  O84  1  0.48783058  0.16902805  0.59122932  1
  O  O85  1  0.98104901  0.16111214  0.59359102  1
  O  O86  1  0.09787050  0.03407068  0.59203638  1
  O  O87  1  0.59847515  0.02807440  0.59265822  1
  O  O88  1  0.42003761  0.80395352  0.59310279  1
  O  O89  1  0.91498369  0.80347986  0.59182943  1
  O  O90  1  0.48057216  0.80065608  0.09278261  1
  O  O91  1  0.98836044  0.80897545  0.09003085  1
  O  O92  1  0.41532167  0.02541770  0.09052231  1
  O  O93  1  0.92057926  0.03647349  0.09250868  1
  O  O94  1  0.09836270  0.16908277  0.09121397  1
  O  O95  1  0.59664640  0.15910603  0.09133123  1
  O  O96  1  0.35604270  0.16993380  0.75004439  1
  O  O97  1  0.84658969  0.16014162  0.75117305  1
  O  O98  1  0.23096722  0.29271388  0.75059379  1
  O  O99  1  0.73165742  0.30347658  0.75049121  1
  O  O100  1  0.42027275  0.53688501  0.75054201  1
  O  O101  1  0.91482104  0.53915389  0.75050585  1
  O  O102  1  0.34817115  0.53480607  0.25079550  1
  O  O103  1  0.84536382  0.52895396  0.24439376  1
  O  O104  1  0.41572592  0.29187947  0.25020831  1
  O  O105  1  0.92332061  0.32018500  0.24502057  1
  O  O106  1  0.23704080  0.15425297  0.24503420  1
  O  O107  1  0.73069440  0.16620879  0.25037409  1
  O  O108  1  0.32568042  0.50716299  0.93020205  1
  O  O109  1  0.82078146  0.49596803  0.92196676  1
  O  O110  1  0.42749961  0.35872537  0.92204312  1
  O  O111  1  0.92762331  0.34849091  0.93070342  1
  O  O112  1  0.24749736  0.14635254  0.93053791  1
  O  O113  1  0.75114872  0.14304734  0.92208846  1
  O  O114  1  0.32167028  0.14748328  0.42243594  1
  O  O115  1  0.81827272  0.13982904  0.43211633  1
  O  O116  1  0.25601289  0.36891962  0.42316618  1
  O  O117  1  0.74756514  0.35106346  0.43113850  1
  O  O118  1  0.42848496  0.50580238  0.43084593  1
  O  O119  1  0.92866673  0.48647057  0.42306836  1
  O  O120  1  0.17438696  0.48915576  0.06633300  1
  O  O121  1  0.67178912  0.48662914  0.07620487  1
  O  O122  1  0.07019697  0.65216019  0.06546385  1
  O  O123  1  0.57148107  0.65493060  0.07736651  1
  O  O124  1  0.25534186  0.85868539  0.06623629  1
  O  O125  1  0.75649438  0.85752118  0.07661454  1
  O  O126  1  0.17263459  0.85765481  0.57735551  1
  O  O127  1  0.67283926  0.85781071  0.56869900  1
  O  O128  1  0.25744586  0.65783181  0.57888812  1
  O  O129  1  0.75508805  0.65161277  0.56697578  1
  O  O130  1  0.07244991  0.48710828  0.57881112  1
  O  O131  1  0.56949810  0.48791850  0.56712348  1
  O  O132  1  0.14848916  0.82646008  0.25872126  1
  O  O133  1  0.64293360  0.82617651  0.24965625  1
  O  O134  1  0.26851853  0.70818801  0.26175340  1
  O  O135  1  0.76575337  0.70609941  0.24537233  1
  O  O136  1  0.08765656  0.46959959  0.25831826  1
  O  O137  1  0.58552825  0.46096406  0.24979356  1
  O  O138  1  0.14511785  0.46086535  0.74983152  1
  O  O139  1  0.64620635  0.46416373  0.76140699  1
  O  O140  1  0.08488207  0.70922741  0.74964096  1
  O  O141  1  0.58619912  0.70764447  0.76140627  1
  O  O142  1  0.26913727  0.82965449  0.74911647  1
  O  O143  1  0.76808357  0.82887582  0.76204118  1
loop_
_geom_bond_atom_site_label_1
_geom_bond_atom_site_label_2
_geom_bond_distance
_geom_bond_site_symmetry_2
Na0 O98 2.383091 1_555
Na0 O96 2.429551 1_555
Na0 O100 2.452160 1_555
Na0 O110 2.683800 1_555
Na0 O112 2.816526 1_555
Na0 O108 2.848996 1_555
Na1 O101 2.398881 1_555
Na1 O97 2.420249 1_555
Na1 O99 2.461895 1_555
Na1 O109 2.640286 1_555
Na1 O113 2.683147 1_555
Na1 O111 2.813550 1_555
Na2 O102 2.425830 1_555
Na2 O104 2.433075 1_555
Na2 O106 2.461714 1_555
Na2 O114 2.649382 1_555
Na2 O116 2.667632 1_555
Na2 O118 2.881565 1_555
Na3 O107 2.421970 1_555
Na3 O103 2.448524 1_555
Na3 O105 2.463134 1_555
Na3 O119 2.679491 1_555
Na3 O117 2.891445 1_555
Na3 O115 2.916853 1_555
Na4 O135 2.373566 1_555
Na4 O137 2.509202 1_555
Na4 O133 2.510547 1_555
Na4 O125 2.631451 1_555
Na4 O123 2.636895 1_555
Na4 O121 2.639634 1_555
Na5 O130 2.532033 1_555
Na5 O142 2.548622 1_555
Na5 O140 2.550305 1_555
Na5 O138 2.551543 1_555
Na5 O128 2.556259 1_555
Na5 O126 2.574141 1_555
In0 O72 2.070719 1_655
In0 O5 2.084911 1_565
In0 O3 2.087647 1_555
In0 O76 2.093288 1_665
In0 O0 2.130055 1_665
In0 O75 2.135854 1_555
In1 O28 2.077345 1_555
In1 O26 2.083986 1_555
In1 O24 2.125254 1_555
In1 O96 2.161031 1_555
In1 O100 2.178438 1_555
In1 O98 2.203892 1_555
In2 O25 2.074301 1_555
In2 O27 2.122664 1_555
In2 O29 2.125543 1_555
In2 O99 2.167840 1_555
In2 O101 2.193785 1_555
In2 O97 2.207538 1_555
In3 O30 2.066662 1_555
In3 O106 2.081173 1_555
In3 O34 2.142261 1_555
In3 O32 2.147850 1_555
In3 O104 2.188294 1_555
In3 O102 2.193426 1_555
In4 O33 2.071304 1_555
In4 O35 2.077649 1_555
In4 O103 2.081315 1_555
In4 O105 2.102373 1_555
In4 O31 2.149433 1_555
In4 O107 2.214196 1_555
In5 O125 2.115137 1_555
In5 O53 2.116618 1_554
In5 O49 2.117459 1_554
In5 O51 2.121156 1_554
In5 O121 2.121483 1_555
In5 O123 2.129536 1_555
In6 O56 2.058912 1_555
In6 O58 2.061702 1_555
In6 O54 2.113830 1_555
In6 O126 2.124853 1_555
In6 O128 2.132363 1_555
In6 O130 2.169854 1_555
In7 O63 2.137632 1_555
In7 O65 2.146232 1_555
In7 O135 2.158720 1_555
In7 O133 2.168677 1_555
In7 O61 2.172951 1_555
In7 O137 2.181100 1_555
In8 O66 2.152367 1_555
In8 O140 2.153299 1_555
In8 O68 2.157294 1_555
In8 O70 2.157591 1_555
In8 O138 2.160156 1_555
In8 O142 2.170902 1_555
O0 P0 1.498555 1_555
O1 P1 1.567433 1_545
O1 Ta0 1.954789 1_555
O2 P2 1.549637 1_555
O2 Ta0 1.980215 1_565
O3 P3 1.505179 1_555
O4 P5 1.563451 1_555
O4 Ta0 1.966098 1_555
O5 P4 1.498509 1_555
O6 P6 1.576523 1_555
O6 Ta1 1.948326 1_555
O7 P7 1.546445 1_555
O7 Ta2 1.980135 1_545
O8 P9 1.551373 1_555
O8 Ta2 1.961705 1_555
O9 P8 1.571949 1_555
O9 Ta1 1.960242 1_665
O10 P10 1.565528 1_545
O10 Ta2 1.946579 1_545
O11 P11 1.555459 1_555
O11 Ta1 1.980246 1_655
O12 P10 1.563476 1_555
O12 Ta4 1.978206 1_565
O13 P11 1.536337 1_565
O13 Ta3 2.074418 1_555
O14 P6 1.562701 1_555
O14 Ta3 1.987812 1_445
O15 P7 1.540411 1_555
O15 Ta4 2.053116 1_555
O16 P8 1.557393 1_455
O16 Ta3 1.987275 1_455
O17 P9 1.544662 1_555
O17 Ta4 2.055266 1_565
O18 P2 1.555198 1_555
O18 Ta6 2.030557 1_555
O19 P3 1.609104 1_555
O19 Ta5 1.923830 1_665
O20 P4 1.580383 1_455
O20 Ta5 1.987392 1_555
O21 P5 1.576908 1_555
O21 Ta6 1.960190 1_545
O22 P0 1.579130 1_565
O22 Ta5 1.989585 1_565
O23 P1 1.580124 1_555
O23 Ta6 1.955267 1_555
O24 P12 1.511692 1_555
O25 P13 1.513962 1_555
O26 P14 1.510834 1_555
O27 P15 1.513107 1_555
O28 P16 1.509425 1_555
O29 P17 1.513495 1_555
O30 P18 1.504179 1_555
O31 P19 1.498348 1_555
O32 P20 1.499212 1_555
O33 P21 1.505087 1_555
O34 P22 1.500850 1_555
O35 P23 1.502373 1_555
O36 P22 1.572885 1_555
O36 Ta7 1.968862 1_554
O37 P23 1.601632 1_555
O37 Ta8 1.943534 1_554
O38 P18 1.594182 1_555
O38 Ta7 1.939946 1_554
O39 P19 1.579995 1_555
O39 Ta8 1.973110 1_554
O40 P20 1.574145 1_555
O40 Ta7 1.956833 1_554
O41 P21 1.603802 1_555
O41 Ta8 1.950995 1_554
O42 P14 1.583501 1_555
O42 Ta9 1.967856 1_555
O43 P15 1.542518 1_555
O43 Ta10 2.034576 1_555
O44 P16 1.573796 1_555
O44 Ta9 1.989037 1_555
O45 P17 1.554023 1_555
O45 Ta10 1.987885 1_555
O46 P12 1.551573 1_555
O46 Ta9 2.027574 1_555
O47 P13 1.574569 1_555
O47 Ta10 1.960925 1_555
O48 P24 1.540241 1_555
O48 Ta11 2.009668 1_556
O49 P25 1.503179 1_555
O50 P26 1.547258 1_555
O50 Ta11 1.997783 1_556
O51 P27 1.500113 1_555
O52 P28 1.541688 1_555
O52 Ta11 2.002499 1_556
O53 P29 1.502345 1_555
O54 P30 1.516014 1_555
O55 P31 1.567290 1_555
O55 Ta12 1.924921 1_555
O56 P32 1.511464 1_555
O57 P33 1.546039 1_555
O57 Ta12 2.001164 1_555
O58 P34 1.510177 1_555
O59 P35 1.544981 1_555
O59 Ta12 1.991558 1_555
O60 P34 1.579732 1_555
O60 Ta13 1.989530 1_555
O61 P35 1.513904 1_555
O62 P30 1.544531 1_555
O62 Ta13 2.053426 1_555
O63 P31 1.520675 1_555
O64 P32 1.574401 1_555
O64 Ta13 2.013247 1_555
O65 P33 1.513303 1_555
O66 P26 1.514514 1_555
O67 P27 1.553622 1_555
O67 Ta14 2.029072 1_555
O68 P28 1.513662 1_555
O69 P29 1.557319 1_555
O69 Ta14 2.020255 1_555
O70 P24 1.511542 1_555
O71 P25 1.562217 1_555
O71 Ta14 2.011069 1_555
O72 P34 1.489490 1_555
O73 P35 1.556498 1_555
O73 Ta0 2.005887 1_565
O74 P30 1.555242 1_555
O74 Ta0 1.953013 1_565
O75 P31 1.499841 1_555
O76 P32 1.490136 1_555
O77 P33 1.558793 1_555
O77 Ta0 1.989732 1_555
O78 P26 1.556157 1_555
O78 Ta1 2.009595 1_555
O79 P27 1.553051 1_555
O79 Ta2 1.950985 1_545
O80 P28 1.556392 1_555
O80 Ta1 1.992082 1_565
O81 P29 1.552790 1_555
O81 Ta2 1.962896 1_555
O82 P24 1.558143 1_555
O82 Ta2 1.988482 1_555
O83 P25 1.551515 1_555
O83 Ta1 1.964423 1_665
O84 P12 1.564898 1_555
O84 Ta4 1.966196 1_555
O85 P13 1.574548 1_555
O85 Ta3 1.944444 1_545
O86 P14 1.576761 1_555
O86 Ta3 1.952137 1_445
O87 P15 1.561770 1_555
O87 Ta4 1.957327 1_555
O88 P16 1.587534 1_555
O88 Ta4 1.939105 1_565
O89 P17 1.550214 1_555
O89 Ta3 1.975816 1_555
O90 P18 1.561918 1_555
O90 Ta6 1.980514 1_555
O91 P19 1.541269 1_555
O91 Ta5 2.037650 1_665
O92 P20 1.539391 1_555
O92 Ta6 2.011504 1_545
O93 P21 1.564362 1_555
O93 Ta5 2.000873 1_655
O94 P22 1.536465 1_555
O94 Ta5 2.036038 1_555
O95 P23 1.568962 1_555
O95 Ta6 1.979123 1_545
O96 P10 1.529959 1_545
O97 P11 1.517441 1_555
O98 P6 1.528437 1_555
O99 P7 1.514970 1_555
O100 P9 1.513125 1_555
O101 P8 1.530450 1_555
O102 P2 1.523274 1_555
O103 P3 1.531030 1_555
O104 P5 1.526623 1_555
O105 P4 1.520781 1_555
O106 P0 1.528397 1_555
O107 P1 1.522095 1_545
O108 P24 1.562346 1_555
O108 Ta7 1.988535 1_555
O109 P25 1.565346 1_555
O109 Ta8 2.076288 1_555
O110 P27 1.568930 1_555
O110 Ta7 2.051288 1_555
O111 P26 1.560561 1_655
O111 Ta8 2.002216 1_555
O112 P28 1.562642 1_545
O112 Ta7 2.005314 1_555
O113 P29 1.565551 1_545
O113 Ta8 2.051470 1_555
O114 P30 1.572049 1_545
O114 Ta9 2.038105 1_555
O115 P31 1.578308 1_545
O115 Ta10 1.933169 1_555
O116 P32 1.609098 1_555
O116 Ta9 1.959276 1_555
O117 P33 1.555950 1_555
O117 Ta10 2.002093 1_555
O118 P35 1.559943 1_555
O118 Ta9 1.983230 1_555
O119 P34 1.603145 1_655
O119 Ta10 1.975214 1_555
O120 P22 1.561860 1_555
O120 Ta11 1.942269 1_555
O121 P23 1.507700 1_555
O122 P19 1.565607 1_455
O122 Ta11 1.933981 1_555
O123 P18 1.509273 1_555
O124 P20 1.556031 1_565
O124 Ta11 1.949126 1_555
O125 P21 1.511794 1_565
O126 P14 1.512461 1_565
O127 P15 1.554145 1_565
O127 Ta12 1.966766 1_555
O128 P16 1.512403 1_555
O129 P17 1.551570 1_555
O129 Ta12 1.965048 1_555
O130 P13 1.513226 1_455
O131 P12 1.547845 1_555
O131 Ta12 1.963533 1_555
O132 P0 1.580090 1_565
O132 Ta13 1.967455 1_555
O133 P1 1.521653 1_555
O134 P2 1.557033 1_555
O134 Ta13 1.992163 1_555
O135 P3 1.541793 1_555
O136 P4 1.583827 1_455
O136 Ta13 1.956876 1_555
O137 P5 1.522042 1_555
O138 P6 1.526455 1_555
O139 P7 1.572217 1_555
O139 Ta14 1.962957 1_555
O140 P8 1.527600 1_455
O141 P9 1.570589 1_555
O141 Ta14 1.969339 1_555
O142 P10 1.522402 1_555
O143 P11 1.578854 1_565
O143 Ta14 1.951735 1_555
