# generated using pymatgen
data_MgTe2Mo2W2(Se2S)2
_symmetry_space_group_name_H-M   'P 1'
_cell_length_a   3.33692600
_cell_length_b   3.33693530
_cell_length_c   46.73860000
_cell_angle_alpha   90.00079988
_cell_angle_beta   89.99996322
_cell_angle_gamma   119.99983649
_symmetry_Int_Tables_number   1
_chemical_formula_structural   MgTe2Mo2W2(Se2S)2
_chemical_formula_sum   'Mg1 Te2 Mo2 W2 Se4 S2'
_cell_volume   450.71437373
_cell_formula_units_Z   1
loop_
 _symmetry_equiv_pos_site_id
 _symmetry_equiv_pos_as_xyz
  1  'x, y, z'
loop_
 _atom_site_type_symbol
 _atom_site_label
 _atom_site_symmetry_multiplicity
 _atom_site_fract_x
 _atom_site_fract_y
 _atom_site_fract_z
 _atom_site_occupancy
  Mg  Mg0  1  0.99999700  0.99999400  0.55775600  1
  Te  Te0  1  0.33333200  0.66666600  0.70561700  1
  Te  Te1  1  0.33332400  0.66664900  0.62351000  1
  Mo  Mo0  1  0.33333400  0.66666500  0.09396100  1
  Mo  Mo1  1  0.66665400  0.33331200  0.28186000  1
  W  W0  1  0.33335200  0.66670400  0.46048600  1
  W  W1  1  0.66665900  0.33332000  0.66476300  1
  Se  Se0  1  0.33332800  0.66665700  0.31755500  1
  Se  Se1  1  0.66666200  0.33332300  0.05824000  1
  Se  Se2  1  0.66667000  0.33333800  0.12967500  1
  Se  Se3  1  0.33332000  0.66664200  0.24611600  1
  S  S0  1  0.66667800  0.33335400  0.42799800  1
  S  S1  1  0.66668900  0.33337700  0.49329700  1
loop_
_geom_bond_atom_site_label_1
_geom_bond_atom_site_label_2
_geom_bond_distance
_geom_bond_site_symmetry_2
Te0 W1 2.712514 1_565
Te0 W1 2.712515 1_555
Te0 W1 2.712518 1_455
Te1 W1 2.725666 1_565
Te1 W1 2.725679 1_555
Te1 W1 2.725681 1_455
Mo0 Se2 2.549117 1_565
Mo0 Se2 2.549120 1_555
Mo0 Se2 2.549122 1_455
Mo0 Se1 2.549328 1_555
Mo0 Se1 2.549336 1_455
Mo0 Se1 2.549338 1_565
Mo1 Se0 2.548535 1_555
Mo1 Se0 2.548536 1_545
Mo1 Se0 2.548544 1_655
Mo1 Se3 2.550029 1_545
Mo1 Se3 2.550041 1_555
Mo1 Se3 2.550045 1_655
S0 W0 2.453019 1_545
S0 W0 2.453042 1_655
S0 W0 2.453043 1_555
S1 W0 2.462407 1_545
S1 W0 2.462408 1_655
S1 W0 2.462410 1_555
