# generated using pymatgen
data_Na2LaZnP(SO6)2
_symmetry_space_group_name_H-M   'P 1'
_cell_length_a   9.38390819
_cell_length_b   9.30872565
_cell_length_c   23.49711720
_cell_angle_alpha   89.23440457
_cell_angle_beta   90.00000000
_cell_angle_gamma   120.26753228
_symmetry_Int_Tables_number   1
_chemical_formula_structural   Na2LaZnP(SO6)2
_chemical_formula_sum   'Na12 La6 Zn6 P6 S12 O72'
_cell_volume   1772.51576976
_cell_formula_units_Z   6
loop_
 _symmetry_equiv_pos_site_id
 _symmetry_equiv_pos_as_xyz
  1  'x, y, z'
loop_
 _atom_site_type_symbol
 _atom_site_label
 _atom_site_symmetry_multiplicity
 _atom_site_fract_x
 _atom_site_fract_y
 _atom_site_fract_z
 _atom_site_occupancy
  Na  Na0  1  0.00444872  0.64097032  0.23954981  1
  Na  Na1  1  0.63652160  0.64097032  0.73954981  1
  Na  Na2  1  0.65721276  0.95882067  0.57777592  1
  Na  Na3  1  0.30160890  0.95882067  0.07777592  1
  Na  Na4  1  0.69100501  0.02690788  0.90727029  1
  Na  Na5  1  0.33590187  0.02690788  0.40727029  1
  Na  Na6  1  0.97495005  0.98299604  0.48701314  1
  Na  Na7  1  0.00804599  0.98299604  0.98701314  1
  Na  Na8  1  0.65451877  0.30807840  0.82018245  1
  Na  Na9  1  0.65356064  0.30807840  0.32018245  1
  Na  Na10  1  0.33724783  0.65294696  0.15362711  1
  Na  Na11  1  0.31569812  0.65294696  0.65362711  1
  La  La0  1  0.00834451  0.00334780  0.64873876  1
  La  La1  1  0.99500329  0.00334780  0.14873876  1
  La  La2  1  0.67459503  0.35265023  0.98219452  1
  La  La3  1  0.67805620  0.35265023  0.48219452  1
  La  La4  1  0.34837213  0.67671838  0.31482506  1
  La  La5  1  0.32834525  0.67671838  0.81482506  1
  Zn  Zn0  1  0.98992747  0.00516688  0.34802888  1
  Zn  Zn1  1  0.01523941  0.00516688  0.84802888  1
  Zn  Zn2  1  0.66880695  0.32373849  0.68095470  1
  Zn  Zn3  1  0.65493254  0.32373849  0.18095470  1
  Zn  Zn4  1  0.27403279  0.65599533  0.01231055  1
  Zn  Zn5  1  0.38196153  0.65599533  0.51231055  1
  P  P0  1  0.30526982  0.01912663  0.25143664  1
  P  P1  1  0.71385680  0.01912663  0.75143664  1
  P  P2  1  0.64959701  0.62609047  0.59004399  1
  P  P3  1  0.97649446  0.62609047  0.09004399  1
  P  P4  1  0.31846165  0.96567056  0.92070067  1
  P  P5  1  0.64720791  0.96567056  0.42070067  1
  S  S0  1  0.71066339  0.68813110  0.25302870  1
  S  S1  1  0.98192176  0.29578125  0.25277461  1
  S  S2  1  0.31385949  0.29578125  0.75277461  1
  S  S3  1  0.97746770  0.68813110  0.75302870  1
  S  S4  1  0.97395282  0.35185328  0.58555094  1
  S  S5  1  0.37928792  0.02697484  0.58305871  1
  S  S6  1  0.64768792  0.02697484  0.08305871  1
  S  S7  1  0.37790147  0.35185328  0.08555094  1
  S  S8  1  0.63942906  0.68754512  0.91522346  1
  S  S9  1  0.03870518  0.35105681  0.91901221  1
  S  S10  1  0.31235063  0.35105681  0.41901221  1
  S  S11  1  0.04811506  0.68754512  0.41522346  1
  O  O0  1  0.22016621  0.03473177  0.30645187  1
  O  O1  1  0.80892413  0.78350468  0.30258388  1
  O  O2  1  0.97371305  0.19692672  0.30369580  1
  O  O3  1  0.22321367  0.19692672  0.80369580  1
  O  O4  1  0.97458054  0.78350468  0.80258388  1
  O  O5  1  0.81456556  0.03473177  0.80645187  1
  O  O6  1  0.79690413  0.99441002  0.69823295  1
  O  O7  1  0.22206620  0.22203886  0.69990333  1
  O  O8  1  0.00085464  0.78353398  0.69942421  1
  O  O9  1  0.78267934  0.78353398  0.19942421  1
  O  O10  1  -0.00002734  0.22203886  0.19990333  1
  O  O11  1  0.19750590  0.99441002  0.19823295  1
  O  O12  1  0.88649192  0.36277634  0.63653317  1
  O  O13  1  0.48694580  0.12486977  0.63108677  1
  O  O14  1  0.64150233  0.53057552  0.64544147  1
  O  O15  1  0.88907418  0.53057552  0.14544147  1
  O  O16  1  0.63792498  0.12486977  0.13108677  1
  O  O17  1  0.47628542  0.36277634  0.13653317  1
  O  O18  1  0.45242892  0.32530703  0.03373808  1
  O  O19  1  0.87590717  0.54210910  0.03642113  1
  O  O20  1  0.66549531  0.11538498  0.02790419  1
  O  O21  1  0.44989066  0.11538498  0.52790419  1
  O  O22  1  0.66620293  0.54210910  0.53642113  1
  O  O23  1  0.87287912  0.32530703  0.53373808  1
  O  O24  1  0.54194483  0.69170689  0.96363204  1
  O  O25  1  0.13334355  0.43989579  0.97026404  1
  O  O26  1  0.29520532  0.86598687  0.97794362  1
  O  O27  1  0.57078055  0.86598687  0.47794362  1
  O  O28  1  0.30655124  0.43989579  0.47026404  1
  O  O29  1  0.14976107  0.69170689  0.46363204  1
  O  O30  1  0.11785643  0.67037983  0.36032087  1
  O  O31  1  0.52669388  0.87649755  0.37129021  1
  O  O32  1  0.33106097  0.44719716  0.36651300  1
  O  O33  1  0.11613519  0.44719716  0.86651300  1
  O  O34  1  0.34980267  0.87649755  0.87129021  1
  O  O35  1  0.55252240  0.67037983  0.86032087  1
  O  O36  1  0.04432303  0.84728275  0.41387033  1
  O  O37  1  0.81784449  0.98249748  0.41089120  1
  O  O38  1  0.16196073  0.18417469  0.41779551  1
  O  O39  1  0.02221395  0.18417469  0.91779551  1
  O  O40  1  0.16465300  0.98249748  0.91089120  1
  O  O41  1  0.80295972  0.84728275  0.91387033  1
  O  O42  1  0.98748009  0.19721924  0.58834866  1
  O  O43  1  0.21079743  0.00324525  0.58732521  1
  O  O44  1  0.79955405  0.80939273  0.58876449  1
  O  O45  1  0.00983868  0.80939273  0.08876449  1
  O  O46  1  0.79244782  0.00324525  0.08732521  1
  O  O47  1  0.20973915  0.19721924  0.08834866  1
  O  O48  1  0.68942035  0.17140966  0.74385857  1
  O  O49  1  0.48010769  0.31261971  0.75039698  1
  O  O50  1  0.81698387  0.52813981  0.75121892  1
  O  O51  1  0.71115693  0.52813981  0.25121892  1
  O  O52  1  0.83251302  0.31261971  0.25039698  1
  O  O53  1  0.48199031  0.17140966  0.24385857  1
  O  O54  1  0.67006773  0.54548579  0.91769279  1
  O  O55  1  0.86617432  0.32477221  0.92071792  1
  O  O56  1  0.48180657  0.13794764  0.92277717  1
  O  O57  1  0.65614207  0.13794764  0.42277717  1
  O  O58  1  0.45859889  0.32477221  0.42071792  1
  O  O59  1  0.87541906  0.54548579  0.41769279  1
  O  O60  1  0.36163806  0.50037129  0.08018491  1
  O  O61  1  0.15170369  0.64230972  0.08473044  1
  O  O62  1  0.49278373  0.86292875  0.08327358  1
  O  O63  1  0.37014402  0.86292875  0.58327358  1
  O  O64  1  0.49060503  0.64230972  0.58473044  1
  O  O65  1  0.13873223  0.50037129  0.58018491  1
  O  O66  1  0.31269305  0.85369190  0.25399662  1
  O  O67  1  0.53764771  0.65330321  0.25490596  1
  O  O68  1  0.12972662  0.46950787  0.25456900  1
  O  O69  1  0.33978025  0.46950787  0.75456900  1
  O  O70  1  0.11565450  0.65330321  0.75490596  1
  O  O71  1  0.54099785  0.85369190  0.75399662  1
loop_
_geom_bond_atom_site_label_1
_geom_bond_atom_site_label_2
_geom_bond_distance
_geom_bond_site_symmetry_2
Na0 O51 2.414816 1_455
Na0 O68 2.435275 1_555
Na0 O15 2.461115 1_455
Na0 O66 2.578189 1_555
Na0 O52 2.649213 1_455
Na0 O11 2.992524 1_555
Na0 O30 2.997916 1_555
Na1 O50 2.414824 1_555
Na1 O69 2.435282 1_555
Na1 O14 2.461117 1_555
Na1 O71 2.578196 1_555
Na1 O49 2.649213 1_555
Na1 O6 2.992524 1_555
Na1 O35 2.997919 1_555
Na2 O63 2.375518 1_555
Na2 O44 2.376765 1_555
Na2 O27 2.500974 1_555
Na2 O64 2.548599 1_555
Na2 O42 2.770022 1_565
Na3 O62 2.375500 1_555
Na3 O45 2.376773 1_555
Na3 O26 2.500971 1_554
Na3 O61 2.548598 1_555
Na3 O47 2.770029 1_565
Na4 O41 2.384850 1_545
Na4 O55 2.432850 1_555
Na4 O5 2.621421 1_555
Na4 O56 2.666555 1_555
Na4 O39 2.699465 1_655
Na4 O34 2.905027 1_545
Na4 O24 2.989383 1_545
Na4 O20 3.005235 1_556
Na5 O36 2.384842 1_545
Na5 O58 2.432848 1_555
Na5 O0 2.621417 1_555
Na5 O57 2.666573 1_555
Na5 O38 2.699457 1_555
Na5 O31 2.905027 1_545
Na5 O29 2.989383 1_545
Na5 O21 3.005239 1_555
Na6 O37 2.316475 1_555
Na6 O38 2.416109 1_665
Na6 O36 2.420862 1_655
Na6 O44 2.872665 1_555
Na7 O40 2.316475 1_555
Na7 O39 2.416109 1_565
Na7 O41 2.420862 1_455
Na7 O45 2.872665 1_556
Na8 O48 2.328743 1_555
Na8 O49 2.331766 1_555
Na8 O50 2.430938 1_555
Na8 O56 2.873451 1_555
Na9 O53 2.328743 1_555
Na9 O52 2.331766 1_555
Na9 O51 2.430938 1_555
Na9 O57 2.873451 1_555
Na10 O60 2.332543 1_555
Na10 O61 2.343624 1_555
Na10 O62 2.391948 1_555
Na11 O65 2.332543 1_555
Na11 O64 2.343624 1_555
Na11 O63 2.391948 1_555
La0 O6 2.264338 1_445
La0 O8 2.323814 1_545
La0 O7 2.358269 1_555
La0 O44 2.363556 1_445
La0 O42 2.365706 1_455
La0 O43 2.386100 1_555
La1 O11 2.264338 1_645
La1 O9 2.323814 1_545
La1 O10 2.358269 1_655
La1 O45 2.363556 1_645
La1 O47 2.365706 1_655
La1 O46 2.386100 1_555
La2 O19 2.236971 1_556
La2 O18 2.309714 1_556
La2 O54 2.350585 1_555
La2 O56 2.376167 1_555
La2 O20 2.405292 1_556
La2 O55 2.422037 1_555
La3 O22 2.236971 1_555
La3 O23 2.309714 1_555
La3 O59 2.350585 1_555
La3 O57 2.376167 1_555
La3 O21 2.405292 1_555
La3 O58 2.422037 1_555
La4 O31 2.224356 1_555
La4 O66 2.315597 1_555
La4 O67 2.362820 1_555
La4 O32 2.376356 1_555
La4 O30 2.386441 1_555
La4 O68 2.453218 1_555
La5 O34 2.224356 1_555
La5 O71 2.315597 1_555
La5 O70 2.362820 1_555
La5 O33 2.376356 1_555
La5 O35 2.386441 1_555
La5 O69 2.453218 1_555
O0 P0 1.565856 1_555
O0 Zn0 2.256433 1_455
O1 S0 1.482108 1_555
O1 Zn0 2.192869 1_565
O2 S1 1.477652 1_555
O2 Zn0 2.125737 1_555
O3 S2 1.477652 1_555
O3 Zn1 2.125737 1_555
O4 S3 1.482108 1_555
O4 Zn1 2.192869 1_665
O5 P1 1.565856 1_555
O5 Zn1 2.256433 1_655
O6 P1 1.552910 1_565
O7 S2 1.477590 1_555
O8 S3 1.482212 1_455
O9 S0 1.482212 1_555
O10 S1 1.477590 1_455
O11 P0 1.552910 1_565
O12 S4 1.485381 1_555
O12 Zn2 2.153102 1_555
O13 S5 1.491315 1_555
O13 Zn2 2.141402 1_555
O14 P2 1.546503 1_555
O14 Zn2 2.218891 1_555
O15 P3 1.546503 1_555
O15 Zn3 2.218890 1_555
O16 S6 1.491315 1_555
O16 Zn3 2.141402 1_555
O17 S7 1.485381 1_555
O17 Zn3 2.153102 1_555
O18 S7 1.488158 1_555
O19 P3 1.540167 1_555
O20 S6 1.489173 1_555
O21 S5 1.489173 1_555
O22 P2 1.540167 1_555
O23 S4 1.488158 1_555
O24 S8 1.472770 1_555
O25 S9 1.486305 1_555
O25 Zn4 2.035077 1_556
O26 P4 1.574905 1_555
O26 Zn4 2.019638 1_556
O27 P5 1.574905 1_555
O27 Zn5 2.019638 1_555
O28 S10 1.486305 1_555
O28 Zn5 2.035077 1_555
O29 S11 1.472770 1_555
O30 S11 1.492981 1_555
O31 P5 1.547684 1_555
O32 S10 1.471587 1_555
O33 S9 1.471587 1_555
O34 P4 1.547684 1_555
O35 S8 1.492981 1_555
O36 S11 1.505119 1_555
O36 Zn0 2.347240 1_465
O37 P5 1.545258 1_555
O37 Zn0 2.117091 1_565
O38 S10 1.482173 1_555
O38 Zn0 2.330529 1_455
O39 S9 1.482176 1_555
O39 Zn1 2.330529 1_555
O40 P4 1.545249 1_555
O40 Zn1 2.117091 1_565
O41 S8 1.505124 1_555
O41 Zn1 2.347240 1_665
O42 S4 1.508014 1_555
O43 S5 1.485279 1_555
O44 P2 1.571849 1_555
O45 P3 1.571852 1_455
O46 S6 1.485270 1_555
O47 S7 1.508020 1_555
O48 P1 1.553933 1_555
O48 Zn2 2.110275 1_555
O49 S2 1.488197 1_555
O49 Zn2 2.370522 1_555
O50 S3 1.492823 1_555
O50 Zn2 2.386729 1_555
O51 S0 1.492828 1_555
O51 Zn3 2.386729 1_555
O52 S1 1.488188 1_555
O52 Zn3 2.370522 1_555
O53 P0 1.553939 1_555
O53 Zn3 2.110275 1_555
O54 S8 1.488613 1_555
O55 S9 1.510987 1_655
O56 P4 1.564539 1_545
O57 P5 1.564531 1_545
O58 S10 1.511006 1_555
O59 S11 1.488601 1_655
O60 S7 1.469207 1_555
O60 Zn4 2.541019 1_555
O61 P3 1.578246 1_455
O61 Zn4 2.019007 1_555
O62 S6 1.485608 1_565
O63 S5 1.485600 1_565
O64 P2 1.578265 1_555
O64 Zn5 2.019007 1_555
O65 S4 1.469196 1_455
O65 Zn5 2.541019 1_555
O66 P0 1.576608 1_565
O67 S0 1.487284 1_555
O68 S1 1.510453 1_455
O69 S2 1.510457 1_555
O70 S3 1.487275 1_455
O71 P1 1.576613 1_565
