# generated using pymatgen
data_NdSO
_symmetry_space_group_name_H-M   'P 1'
_cell_length_a   5.84702495
_cell_length_b   5.85317456
_cell_length_c   12.94443374
_cell_angle_alpha   90.00000000
_cell_angle_beta   90.00000000
_cell_angle_gamma   90.00000000
_symmetry_Int_Tables_number   1
_chemical_formula_structural   NdSO
_chemical_formula_sum   'Nd8 S8 O8'
_cell_volume   443.00586930
_cell_formula_units_Z   8
loop_
 _symmetry_equiv_pos_site_id
 _symmetry_equiv_pos_as_xyz
  1  'x, y, z'
loop_
 _atom_site_type_symbol
 _atom_site_label
 _atom_site_symmetry_multiplicity
 _atom_site_fract_x
 _atom_site_fract_y
 _atom_site_fract_z
 _atom_site_occupancy
  Nd  Nd0  1  0.99958380  0.25001167  0.08813379  1
  Nd  Nd1  1  0.00041620  0.74998833  0.91186621  1
  Nd  Nd2  1  0.00041620  0.74998833  0.58813379  1
  Nd  Nd3  1  0.49958380  0.74998833  0.41186621  1
  Nd  Nd4  1  0.99958380  0.25001167  0.41186621  1
  Nd  Nd5  1  0.50041620  0.25001167  0.58813379  1
  Nd  Nd6  1  0.50041620  0.25001167  0.91186621  1
  Nd  Nd7  1  0.49958380  0.74998833  0.08813379  1
  S  S0  1  0.37119040  0.12348106  0.25000000  1
  S  S1  1  0.62880960  0.87651894  0.75000000  1
  S  S2  1  0.87119040  0.87651894  0.25000000  1
  S  S3  1  0.12880960  0.12348106  0.75000000  1
  S  S4  1  0.12405508  0.62422447  0.25000000  1
  S  S5  1  0.87594492  0.37577553  0.75000000  1
  S  S6  1  0.62405508  0.37577553  0.25000000  1
  S  S7  1  0.37594492  0.62422447  0.75000000  1
  O  O0  1  0.25000000  0.99470547  0.00000000  1
  O  O1  1  0.75000000  0.00529453  0.00000000  1
  O  O2  1  0.75000000  0.00529453  0.50000000  1
  O  O3  1  0.25000000  0.99470547  0.50000000  1
  O  O4  1  0.25000000  0.49434650  0.00000000  1
  O  O5  1  0.75000000  0.50565350  0.00000000  1
  O  O6  1  0.75000000  0.50565350  0.50000000  1
  O  O7  1  0.25000000  0.49434650  0.50000000  1
loop_
_geom_bond_atom_site_label_1
_geom_bond_atom_site_label_2
_geom_bond_distance
_geom_bond_site_symmetry_2
Nd0 O1 2.341545 1_555
Nd0 O4 2.343215 1_655
Nd0 O5 2.381198 1_555
Nd0 O0 2.382952 1_645
Nd0 S0 3.108001 1_655
Nd0 S4 3.117270 1_655
Nd0 S2 3.119749 1_545
Nd0 S6 3.123015 1_555
Nd1 O0 2.341545 1_556
Nd1 O5 2.343215 1_456
Nd1 O4 2.381198 1_556
Nd1 O1 2.382952 1_466
Nd1 S1 3.108001 1_455
Nd1 S5 3.117270 1_455
Nd1 S3 3.119749 1_565
Nd1 S7 3.123015 1_555
Nd2 O3 2.341545 1_555
Nd2 O6 2.343215 1_455
Nd2 O7 2.381198 1_555
Nd2 O2 2.382952 1_465
Nd2 S1 3.108001 1_455
Nd2 S5 3.117270 1_455
Nd2 S3 3.119749 1_565
Nd2 S7 3.123015 1_555
Nd3 O3 2.341545 1_555
Nd3 O6 2.343215 1_555
Nd3 O7 2.381198 1_555
Nd3 O2 2.382952 1_565
Nd3 S2 3.108001 1_555
Nd3 S6 3.117270 1_555
Nd3 S0 3.119749 1_565
Nd3 S4 3.123015 1_555
Nd4 O2 2.341545 1_555
Nd4 O7 2.343215 1_655
Nd4 O6 2.381198 1_555
Nd4 O3 2.382952 1_645
Nd4 S0 3.108001 1_655
Nd4 S4 3.117270 1_655
Nd4 S2 3.119749 1_545
Nd4 S6 3.123015 1_555
Nd5 O2 2.341545 1_555
Nd5 O7 2.343215 1_555
Nd5 O6 2.381198 1_555
Nd5 O3 2.382952 1_545
Nd5 S3 3.108001 1_555
Nd5 S7 3.117270 1_555
Nd5 S1 3.119749 1_545
Nd5 S5 3.123015 1_555
Nd6 O1 2.341545 1_556
Nd6 O4 2.343215 1_556
Nd6 O5 2.381198 1_556
Nd6 O0 2.382952 1_546
Nd6 S3 3.108001 1_555
Nd6 S7 3.117270 1_555
Nd6 S1 3.119749 1_545
Nd6 S5 3.123015 1_555
Nd7 O0 2.341545 1_555
Nd7 O5 2.343215 1_555
Nd7 O4 2.381198 1_555
Nd7 O1 2.382952 1_565
Nd7 S2 3.108001 1_555
Nd7 S6 3.117270 1_555
Nd7 S0 3.119749 1_565
Nd7 S4 3.123015 1_555
S0 S6 2.089663 1_555
S1 S7 2.089663 1_555
S2 S4 2.089663 1_655
S3 S5 2.089663 1_455
