# generated using pymatgen
data_LiNb2(PO4)3
_symmetry_space_group_name_H-M   'P 1'
_cell_length_a   8.93057626
_cell_length_b   8.93057626
_cell_length_c   8.94566111
_cell_angle_alpha   60.06571375
_cell_angle_beta   60.06571375
_cell_angle_gamma   59.69779556
_symmetry_Int_Tables_number   1
_chemical_formula_structural   LiNb2(PO4)3
_chemical_formula_sum   'Li2 Nb4 P6 O24'
_cell_volume   503.82927387
_cell_formula_units_Z   2
loop_
 _symmetry_equiv_pos_site_id
 _symmetry_equiv_pos_as_xyz
  1  'x, y, z'
loop_
 _atom_site_type_symbol
 _atom_site_label
 _atom_site_symmetry_multiplicity
 _atom_site_fract_x
 _atom_site_fract_y
 _atom_site_fract_z
 _atom_site_occupancy
  Li  Li0  1  0.93364200  0.46761800  0.99568800  1
  Li  Li1  1  0.46761800  0.93364200  0.49568800  1
  Nb  Nb0  1  0.14247400  0.64289200  0.57158600  1
  Nb  Nb1  1  0.85897200  0.35610400  0.42886500  1
  Nb  Nb2  1  0.64289200  0.14247400  0.07158600  1
  Nb  Nb3  1  0.35610400  0.85897200  0.92886500  1
  P  P0  1  0.04016000  0.24896600  0.75190100  1
  P  P1  1  0.74962000  0.95828500  0.75135800  1
  P  P2  1  0.24896600  0.04016000  0.25190100  1
  P  P3  1  0.95828500  0.74962000  0.25135800  1
  P  P4  1  0.54128400  0.45922300  0.24752800  1
  P  P5  1  0.45922300  0.54128400  0.74752800  1
  O  O0  1  0.70595600  0.99688500  0.92242800  1
  O  O1  1  0.05592300  0.41181400  0.75683600  1
  O  O2  1  0.72764000  0.43767500  0.24254700  1
  O  O3  1  0.79520600  0.12023000  0.57918100  1
  O  O4  1  0.99688500  0.70595600  0.42242800  1
  O  O5  1  0.08438000  0.22166200  0.25309400  1
  O  O6  1  0.56124800  0.28175900  0.23909900  1
  O  O7  1  0.91098100  0.77358300  0.75171400  1
  O  O8  1  0.28175900  0.56124800  0.73909900  1
  O  O9  1  0.12023000  0.79520600  0.07918100  1
  O  O10  1  0.58417200  0.93789400  0.75959600  1
  O  O11  1  0.62313900  0.50572800  0.57451700  1
  O  O12  1  0.49344800  0.38207300  0.92082400  1
  O  O13  1  0.20454900  0.87820500  0.42487700  1
  O  O14  1  0.38207300  0.49344800  0.42082400  1
  O  O15  1  0.77358300  0.91098100  0.25171400  1
  O  O16  1  0.43767500  0.72764000  0.74254700  1
  O  O17  1  0.00615300  0.29645500  0.57836300  1
  O  O18  1  0.50572800  0.62313900  0.07451700  1
  O  O19  1  0.22166200  0.08438000  0.75309400  1
  O  O20  1  0.41181400  0.05592300  0.25683600  1
  O  O21  1  0.93789400  0.58417200  0.25959600  1
  O  O22  1  0.87820500  0.20454900  0.92487700  1
  O  O23  1  0.29645500  0.00615300  0.07836300  1
loop_
_geom_bond_atom_site_label_1
_geom_bond_atom_site_label_2
_geom_bond_distance
_geom_bond_site_symmetry_2
Li0 O2 2.045781 1_556
Li0 O1 2.047236 1_655
Li0 O7 2.490302 1_555
Li0 O5 2.645965 1_656
Li1 O16 2.045781 1_555
Li1 O20 2.047236 1_565
Li1 O15 2.490302 1_555
Li1 O19 2.645965 1_565
Nb0 O4 2.007631 1_455
Nb0 O13 2.035422 1_555
Nb0 O8 2.044278 1_555
Nb0 O14 2.052598 1_555
Nb0 O7 2.085689 1_455
Nb0 O1 2.126174 1_555
Nb1 O11 2.019375 1_555
Nb1 O17 2.033900 1_655
Nb1 O3 2.046735 1_555
Nb1 O21 2.060006 1_555
Nb1 O5 2.062136 1_655
Nb1 O2 2.135728 1_555
Nb2 O0 2.007631 1_544
Nb2 O22 2.035422 1_554
Nb2 O6 2.044278 1_555
Nb2 O12 2.052598 1_554
Nb2 O15 2.085689 1_545
Nb2 O20 2.126174 1_555
Nb3 O18 2.019375 1_556
Nb3 O23 2.033900 1_566
Nb3 O9 2.046735 1_556
Nb3 O10 2.060006 1_555
Nb3 O19 2.062136 1_565
Nb3 O16 2.135728 1_555
O0 P1 1.551803 1_555
O1 P0 1.553611 1_555
O2 P4 1.555687 1_555
O3 P1 1.541084 1_545
O4 P3 1.551803 1_555
O5 P2 1.544446 1_555
O6 P4 1.539463 1_555
O7 P1 1.548585 1_555
O8 P5 1.539463 1_555
O9 P3 1.541084 1_455
O10 P1 1.539867 1_555
O11 P5 1.548994 1_555
O12 P5 1.533897 1_555
O13 P2 1.541571 1_565
O14 P4 1.533897 1_555
O15 P3 1.548585 1_555
O16 P5 1.555687 1_555
O17 P0 1.538039 1_555
O18 P4 1.548994 1_555
O19 P0 1.544446 1_555
O20 P2 1.553611 1_555
O21 P3 1.539867 1_555
O22 P0 1.541571 1_655
O23 P2 1.538039 1_555
