# generated using pymatgen
data_Sm(Mo4O7)2
_symmetry_space_group_name_H-M   'P 1'
_cell_length_a   8.22477893
_cell_length_b   8.22477893
_cell_length_c   9.38740200
_cell_angle_alpha   90.00000000
_cell_angle_beta   90.00000000
_cell_angle_gamma   97.94784694
_symmetry_Int_Tables_number   1
_chemical_formula_structural   Sm(Mo4O7)2
_chemical_formula_sum   'Sm2 Mo16 O28'
_cell_volume   628.92959660
_cell_formula_units_Z   2
loop_
 _symmetry_equiv_pos_site_id
 _symmetry_equiv_pos_as_xyz
  1  'x, y, z'
loop_
 _atom_site_type_symbol
 _atom_site_label
 _atom_site_symmetry_multiplicity
 _atom_site_fract_x
 _atom_site_fract_y
 _atom_site_fract_z
 _atom_site_occupancy
  Sm  Sm0  1  0.95638300  0.04361700  0.50000000  1
  Sm  Sm1  1  0.45638300  0.54361700  0.00000000  1
  Mo  Mo0  1  0.46308800  0.88146300  0.37041400  1
  Mo  Mo1  1  0.11853700  0.53691200  0.62958600  1
  Mo  Mo2  1  0.96308800  0.38146300  0.12958600  1
  Mo  Mo3  1  0.61853700  0.03691200  0.87041400  1
  Mo  Mo4  1  0.33814300  0.49146600  0.35667500  1
  Mo  Mo5  1  0.50853400  0.66185700  0.64332500  1
  Mo  Mo6  1  0.83814300  0.99146600  0.14332500  1
  Mo  Mo7  1  0.00853400  0.16185700  0.85667500  1
  Mo  Mo8  1  0.74229100  0.63215600  0.37284500  1
  Mo  Mo9  1  0.24065800  0.89689200  0.85427400  1
  Mo  Mo10  1  0.24229100  0.13215600  0.12715500  1
  Mo  Mo11  1  0.86784400  0.75770900  0.87284500  1
  Mo  Mo12  1  0.60310800  0.25934200  0.35427400  1
  Mo  Mo13  1  0.74065800  0.39689200  0.64572600  1
  Mo  Mo14  1  0.10310800  0.75934200  0.14572600  1
  Mo  Mo15  1  0.36784400  0.25770900  0.62715500  1
  O  O0  1  0.31161400  0.68838600  0.50000000  1
  O  O1  1  0.81161400  0.18838600  0.00000000  1
  O  O2  1  0.78361000  0.21639000  0.50000000  1
  O  O3  1  0.28361000  0.71639000  0.00000000  1
  O  O4  1  0.66699400  0.81428400  0.49663900  1
  O  O5  1  0.18571600  0.33300600  0.50336100  1
  O  O6  1  0.16699400  0.31428400  0.00336100  1
  O  O7  1  0.68571600  0.83300600  0.99663900  1
  O  O8  1  0.52029300  0.66312400  0.25217900  1
  O  O9  1  0.33687600  0.47970700  0.74782100  1
  O  O10  1  0.02029300  0.16312400  0.24782100  1
  O  O11  1  0.83687600  0.97970700  0.75217900  1
  O  O12  1  0.91564600  0.82168800  0.29369800  1
  O  O13  1  0.17831200  0.08435400  0.70630200  1
  O  O14  1  0.41564600  0.32168800  0.20630200  1
  O  O15  1  0.67831200  0.58435400  0.79369800  1
  O  O16  1  0.42940900  0.10580800  0.47992200  1
  O  O17  1  0.89419200  0.57059100  0.52007800  1
  O  O18  1  0.45334600  0.86247900  0.75766000  1
  O  O19  1  0.13752100  0.54665400  0.24234000  1
  O  O20  1  0.95334600  0.36247900  0.74234000  1
  O  O21  1  0.63752100  0.04665400  0.25766000  1
  O  O22  1  0.56110900  0.23827800  0.75244800  1
  O  O23  1  0.92940900  0.60580800  0.02007800  1
  O  O24  1  0.06110900  0.73827800  0.74755200  1
  O  O25  1  0.26172200  0.93889100  0.25244800  1
  O  O26  1  0.39419200  0.07059100  0.97992200  1
  O  O27  1  0.76172200  0.43889100  0.24755200  1
loop_
_geom_bond_atom_site_label_1
_geom_bond_atom_site_label_2
_geom_bond_distance
_geom_bond_site_symmetry_2
Mo0 O25 2.099695 1_555
Mo0 O21 2.117911 1_565
Mo0 O16 2.163232 1_565
Mo0 O4 2.185909 1_555
Mo0 O8 2.216260 1_555
Mo0 O0 2.237545 1_555
Mo1 O24 2.099695 1_555
Mo1 O20 2.117911 1_455
Mo1 O17 2.163232 1_455
Mo1 O5 2.185909 1_555
Mo1 O9 2.216260 1_555
Mo1 O0 2.237545 1_555
Mo2 O27 2.099695 1_555
Mo2 O19 2.117911 1_655
Mo2 O23 2.163232 1_555
Mo2 O6 2.185909 1_655
Mo2 O10 2.216260 1_655
Mo2 O1 2.237545 1_555
Mo3 O22 2.099695 1_555
Mo3 O18 2.117911 1_545
Mo3 O26 2.163232 1_555
Mo3 O7 2.185909 1_545
Mo3 O11 2.216260 1_545
Mo3 O1 2.237545 1_556
Mo4 O19 2.070721 1_555
Mo4 O0 2.139802 1_555
Mo4 O14 2.143604 1_555
Mo4 O8 2.148273 1_555
Mo4 O5 2.171308 1_555
Mo5 O18 2.070721 1_555
Mo5 O0 2.139802 1_555
Mo5 O15 2.143604 1_555
Mo5 O9 2.148273 1_555
Mo5 O4 2.171308 1_555
Mo6 O21 2.070721 1_565
Mo6 O1 2.139802 1_565
Mo6 O12 2.143604 1_555
Mo6 O10 2.148273 1_665
Mo6 O7 2.171308 1_554
Mo7 O20 2.070721 1_455
Mo7 O1 2.139802 1_456
Mo7 O13 2.143604 1_555
Mo7 O11 2.148273 1_445
Mo7 O6 2.171308 1_556
Mo8 O17 1.975481 1_555
Mo8 O27 2.001472 1_555
Mo8 O4 2.057780 1_555
Mo8 O12 2.097698 1_555
Mo8 O8 2.193271 1_555
Mo9 O18 2.024770 1_555
Mo9 O3 2.084522 1_556
Mo9 O24 2.086530 1_555
Mo9 O26 2.127901 1_565
Mo9 O13 2.188232 1_565
Mo10 O26 1.975481 1_554
Mo10 O25 2.001472 1_545
Mo10 O6 2.057780 1_555
Mo10 O14 2.097698 1_555
Mo10 O10 2.193271 1_555
Mo11 O23 1.975481 1_556
Mo11 O24 2.001472 1_655
Mo11 O7 2.057780 1_555
Mo11 O15 2.097698 1_555
Mo11 O11 2.193271 1_555
Mo12 O21 2.024770 1_555
Mo12 O2 2.084522 1_555
Mo12 O27 2.086530 1_555
Mo12 O16 2.127901 1_555
Mo12 O14 2.188232 1_555
Mo13 O20 2.024770 1_555
Mo13 O2 2.084522 1_555
Mo13 O22 2.086530 1_555
Mo13 O17 2.127901 1_555
Mo13 O15 2.188232 1_555
Mo14 O19 2.024770 1_555
Mo14 O3 2.084522 1_555
Mo14 O25 2.086530 1_555
Mo14 O23 2.127901 1_455
Mo14 O12 2.188232 1_455
Mo15 O16 1.975481 1_555
Mo15 O22 2.001472 1_555
Mo15 O5 2.057780 1_555
Mo15 O13 2.097698 1_555
Mo15 O9 2.193271 1_555
O2 Sm0 2.144066 1_555
O3 Sm1 2.144066 1_555
O4 Sm0 2.825318 1_565
O5 Sm0 2.825318 1_455
O6 Sm1 2.825318 1_555
O7 Sm1 2.825318 1_556
O8 Sm1 2.589148 1_555
O9 Sm1 2.589148 1_556
O10 Sm0 2.589148 1_455
O11 Sm0 2.589148 1_565
O12 Sm0 2.650564 1_565
O13 Sm0 2.650564 1_455
O14 Sm1 2.650564 1_555
O15 Sm1 2.650564 1_556
