# generated using pymatgen
data_Zr2Ga2SiS5O24
_symmetry_space_group_name_H-M   'P 1'
_cell_length_a   8.74737128
_cell_length_b   8.79762135
_cell_length_c   22.75218431
_cell_angle_alpha   90.16506724
_cell_angle_beta   89.71995134
_cell_angle_gamma   119.92079979
_symmetry_Int_Tables_number   1
_chemical_formula_structural   Zr2Ga2SiS5O24
_chemical_formula_sum   'Zr6 Ga6 Si3 S15 O72'
_cell_volume   1517.53025080
_cell_formula_units_Z   3
loop_
 _symmetry_equiv_pos_site_id
 _symmetry_equiv_pos_as_xyz
  1  'x, y, z'
loop_
 _atom_site_type_symbol
 _atom_site_label
 _atom_site_symmetry_multiplicity
 _atom_site_fract_x
 _atom_site_fract_y
 _atom_site_fract_z
 _atom_site_occupancy
  Zr  Zr0  1  0.99722281  0.00544856  0.64569642  1
  Zr  Zr1  1  0.00632928  0.00678021  0.14062871  1
  Zr  Zr2  1  0.67346224  0.32319004  0.47572331  1
  Zr  Zr3  1  0.33494996  0.66011656  0.02234767  1
  Zr  Zr4  1  0.33685579  0.66742946  0.52254997  1
  Zr  Zr5  1  0.34007584  0.67341944  0.31076411  1
  Ga  Ga0  1  0.99357522  0.00050381  0.35362134  1
  Ga  Ga1  1  0.00199189  0.99944080  0.85126810  1
  Ga  Ga2  1  0.67759792  0.33914570  0.68792111  1
  Ga  Ga3  1  0.66138380  0.33790330  0.18612247  1
  Ga  Ga4  1  0.65597297  0.32807092  0.97821369  1
  Ga  Ga5  1  0.33172334  0.66741116  0.81494586  1
  Si  Si0  1  0.95189344  0.33890341  0.58766044  1
  Si  Si1  1  0.39808045  0.33549805  0.08287643  1
  Si  Si2  1  0.63748393  0.95584146  0.41514330  1
  S  S0  1  0.29144491  0.00948467  0.25113726  1
  S  S1  1  0.71897781  0.70454211  0.24997611  1
  S  S2  1  0.98714697  0.28563861  0.24944714  1
  S  S3  1  0.29750592  0.29628957  0.75283666  1
  S  S4  1  0.00053765  0.70603389  0.75347802  1
  S  S5  1  0.70266215  0.99813799  0.75426788  1
  S  S6  1  0.38351121  0.05000505  0.58650694  1
  S  S7  1  0.66547652  0.61463705  0.58653357  1
  S  S8  1  0.94483017  0.61010739  0.08290687  1
  S  S9  1  0.66523591  0.05534967  0.08268543  1
  S  S10  1  0.63000660  0.66858871  0.91301424  1
  S  S11  1  0.03624291  0.37083826  0.91431164  1
  S  S12  1  0.33275989  0.95987798  0.91374000  1
  S  S13  1  0.32431759  0.36797158  0.41457263  1
  S  S14  1  0.04512090  0.67867000  0.41440549  1
  O  O0  1  0.20750214  0.03610368  0.30367697  1
  O  O1  1  0.82747224  0.78835981  0.30223257  1
  O  O2  1  0.95915333  0.17591401  0.30160826  1
  O  O3  1  0.21496305  0.17920322  0.80462253  1
  O  O4  1  0.96945728  0.79147568  0.80554599  1
  O  O5  1  0.82186264  0.03233535  0.80534094  1
  O  O6  1  0.78320190  0.96347621  0.70127656  1
  O  O7  1  0.18222286  0.21518514  0.70038355  1
  O  O8  1  0.03524767  0.81830334  0.70085228  1
  O  O9  1  0.79444927  0.81604340  0.19731905  1
  O  O10  1  0.02168898  0.20556632  0.19675717  1
  O  O11  1  0.17895050  0.97766111  0.19846959  1
  O  O12  1  0.86265216  0.36752077  0.64514847  1
  O  O13  1  0.48988051  0.13060661  0.63914855  1
  O  O14  1  0.63232792  0.50594065  0.63927552  1
  O  O15  1  0.87575060  0.50436934  0.13648583  1
  O  O16  1  0.63739480  0.13009663  0.13656804  1
  O  O17  1  0.50712490  0.36991549  0.14285736  1
  O  O18  1  0.47351918  0.29882653  0.02314060  1
  O  O19  1  0.84055571  0.53430169  0.02968543  1
  O  O20  1  0.70365417  0.16293644  0.02961467  1
  O  O21  1  0.45501252  0.15713738  0.53308874  1
  O  O22  1  0.69308795  0.53965783  0.53290041  1
  O  O23  1  0.83483225  0.30151663  0.52822867  1
  O  O24  1  0.54859193  0.70227985  0.96611182  1
  O  O25  1  0.15153380  0.45232074  0.96689171  1
  O  O26  1  0.29893776  0.84759433  0.96642833  1
  O  O27  1  0.53874483  0.83441253  0.47239453  1
  O  O28  1  0.29036825  0.44672925  0.46744230  1
  O  O29  1  0.15275168  0.70247147  0.46738363  1
  O  O30  1  0.12235357  0.63722022  0.36268860  1
  O  O31  1  0.50469902  0.86146762  0.35856177  1
  O  O32  1  0.35386674  0.48181156  0.36267361  1
  O  O33  1  0.11852536  0.48779762  0.86255683  1
  O  O34  1  0.36407783  0.87494555  0.86161586  1
  O  O35  1  0.51102965  0.63408765  0.86184400  1
  O  O36  1  0.03682122  0.83760997  0.40515339  1
  O  O37  1  0.82642134  0.97556887  0.40465753  1
  O  O38  1  0.17309221  0.19410252  0.40530803  1
  O  O39  1  0.02061203  0.19643629  0.90549416  1
  O  O40  1  0.17425428  0.97835465  0.90513523  1
  O  O41  1  0.80417257  0.82956768  0.90492747  1
  O  O42  1  0.97326239  0.16511196  0.59536975  1
  O  O43  1  0.20398287  0.02512564  0.59398269  1
  O  O44  1  0.82412059  0.78992393  0.59455506  1
  O  O45  1  0.96221771  0.78568944  0.09136051  1
  O  O46  1  0.81823713  0.02726173  0.09067075  1
  O  O47  1  0.19767823  0.16617329  0.09158735  1
  O  O48  1  0.68181057  0.15216486  0.74518809  1
  O  O49  1  0.47243035  0.31337972  0.74212652  1
  O  O50  1  0.84026037  0.53311035  0.74627351  1
  O  O51  1  0.70364444  0.53120798  0.24331522  1
  O  O52  1  0.83029556  0.30361331  0.23959920  1
  O  O53  1  0.46859426  0.16129213  0.24369505  1
  O  O54  1  0.65091257  0.51452416  0.92216027  1
  O  O55  1  0.86123265  0.35380666  0.92527087  1
  O  O56  1  0.49296821  0.13293205  0.92114046  1
  O  O57  1  0.64148619  0.14230603  0.42061681  1
  O  O58  1  0.48582114  0.35948643  0.42308196  1
  O  O59  1  0.86689685  0.52512381  0.42186370  1
  O  O60  1  0.36592499  0.50399056  0.07317623  1
  O  O61  1  0.12635669  0.63859342  0.07464876  1
  O  O62  1  0.50703154  0.87940616  0.07430795  1
  O  O63  1  0.36584419  0.87598435  0.57828265  1
  O  O64  1  0.51058422  0.63779298  0.57977171  1
  O  O65  1  0.14449429  0.50559260  0.57553072  1
  O  O66  1  0.30214397  0.84611057  0.25656812  1
  O  O67  1  0.53874961  0.68163999  0.25656244  1
  O  O68  1  0.14501883  0.46078647  0.25649262  1
  O  O69  1  0.31300462  0.47077712  0.76165674  1
  O  O70  1  0.15925631  0.68773548  0.76206924  1
  O  O71  1  0.52854406  0.83684976  0.76227571  1
loop_
_geom_bond_atom_site_label_1
_geom_bond_atom_site_label_2
_geom_bond_distance
_geom_bond_site_symmetry_2
Ga0 O37 1.788649 1_545
Ga0 O38 2.021898 1_655
Ga0 O36 2.031337 1_645
Ga0 O1 2.064032 1_545
Ga0 O0 2.070679 1_655
Ga0 O2 2.085693 1_555
Ga1 O4 1.995767 1_455
Ga1 O40 2.026153 1_555
Ga1 O41 2.031816 1_455
Ga1 O5 2.032506 1_465
Ga1 O3 2.036947 1_565
Ga1 O39 2.064060 1_565
Ga2 O12 1.792364 1_555
Ga2 O14 2.031845 1_555
Ga2 O50 2.069371 1_555
Ga2 O13 2.072280 1_555
Ga2 O49 2.089830 1_555
Ga2 O48 2.116201 1_555
Ga3 O17 1.806316 1_555
Ga3 O51 2.021592 1_555
Ga3 O15 2.045875 1_555
Ga3 O52 2.053984 1_555
Ga3 O16 2.065255 1_555
Ga3 O53 2.085691 1_555
Ga4 O18 1.798382 1_556
Ga4 O56 2.056650 1_555
Ga4 O20 2.066712 1_556
Ga4 O55 2.073856 1_555
Ga4 O19 2.086641 1_556
Ga4 O54 2.098623 1_555
Ga5 O34 2.004360 1_555
Ga5 O70 2.010817 1_555
Ga5 O71 2.012986 1_555
Ga5 O35 2.039965 1_555
Ga5 O69 2.048586 1_555
Ga5 O33 2.049046 1_555
O0 S0 1.477946 1_555
O1 S1 1.471688 1_555
O2 S2 1.472477 1_555
O3 S3 1.492434 1_555
O4 S4 1.495980 1_655
O5 S5 1.491610 1_545
O6 S5 1.498953 1_555
O6 Zr0 2.128434 1_565
O7 S3 1.496443 1_555
O7 Zr0 2.144587 1_455
O8 S4 1.485087 1_555
O8 Zr0 2.226768 1_465
O9 S1 1.478661 1_555
O9 Zr1 2.191121 1_665
O10 S2 1.492857 1_455
O10 Zr1 2.112287 1_555
O11 S0 1.489089 1_565
O11 Zr1 2.117738 1_565
O12 Si0 1.602422 1_555
O13 S6 1.466586 1_555
O14 S7 1.471431 1_555
O15 S8 1.468029 1_555
O16 S9 1.465227 1_555
O17 Si1 1.608146 1_555
O18 Si1 1.608677 1_555
O19 S8 1.463669 1_555
O20 S9 1.467006 1_555
O21 S6 1.472328 1_555
O21 Zr2 2.165830 1_555
O22 S7 1.460802 1_555
O22 Zr2 2.238375 1_555
O23 Si0 1.630995 1_555
O23 Zr2 1.934494 1_555
O24 S10 1.501536 1_555
O24 Zr3 2.134228 1_556
O25 S11 1.499246 1_555
O25 Zr3 2.142101 1_556
O26 S12 1.487346 1_555
O26 Zr3 2.229947 1_556
O27 Si2 1.631107 1_555
O27 Zr4 1.995222 1_555
O28 S13 1.487353 1_555
O28 Zr4 2.170408 1_555
O29 S14 1.481933 1_555
O29 Zr4 2.186596 1_555
O30 S14 1.486429 1_555
O30 Zr5 2.121163 1_555
O31 Si2 1.655942 1_555
O31 Zr5 1.903048 1_555
O32 S13 1.486527 1_555
O32 Zr5 2.113465 1_555
O33 S11 1.491064 1_555
O34 S12 1.495237 1_555
O35 S10 1.491769 1_555
O36 S14 1.451870 1_555
O37 Si2 1.590192 1_555
O38 S13 1.454770 1_555
O39 S11 1.484014 1_555
O40 S12 1.488230 1_555
O41 S10 1.485567 1_555
O42 Si0 1.640236 1_555
O42 Zr0 1.906154 1_555
O43 S6 1.482463 1_555
O43 Zr0 2.086491 1_455
O44 S7 1.484296 1_555
O44 Zr0 2.093375 1_565
O45 S8 1.486753 1_555
O45 Zr1 2.105156 1_665
O46 S9 1.489240 1_555
O46 Zr1 2.084878 1_655
O47 Si1 1.650618 1_555
O47 Zr1 1.913699 1_555
O48 S5 1.469935 1_545
O49 S3 1.479979 1_555
O50 S4 1.476453 1_655
O51 S1 1.470097 1_555
O52 S2 1.475586 1_555
O53 S0 1.465514 1_555
O54 S10 1.470757 1_555
O55 S11 1.481846 1_655
O56 S12 1.477339 1_545
O57 Si2 1.627687 1_545
O57 Zr2 1.931453 1_555
O58 S13 1.465206 1_555
O58 Zr2 2.185140 1_555
O59 S14 1.477109 1_655
O59 Zr2 2.124678 1_555
O60 Si1 1.656374 1_555
O60 Zr3 1.918568 1_555
O61 S8 1.489913 1_455
O61 Zr3 2.101568 1_555
O62 S9 1.487049 1_565
O62 Zr3 2.119568 1_555
O63 S6 1.471517 1_565
O63 Zr4 2.136415 1_555
O64 S7 1.475974 1_555
O64 Zr4 2.118710 1_555
O65 Si0 1.611878 1_455
O65 Zr4 1.977778 1_555
O66 S0 1.491710 1_565
O66 Zr5 2.111029 1_555
O67 S1 1.493137 1_555
O67 Zr5 2.097716 1_555
O68 S2 1.478179 1_455
O68 Zr5 2.181394 1_555
O69 S3 1.485255 1_555
O70 S4 1.489127 1_555
O71 S5 1.486325 1_555
