# generated using pymatgen
data_Na3YZrSi(PO6)2
_symmetry_space_group_name_H-M   'P 1'
_cell_length_a   9.26590948
_cell_length_b   9.26590914
_cell_length_c   23.22148157
_cell_angle_alpha   90.02144470
_cell_angle_beta   89.97855532
_cell_angle_gamma   119.94936252
_symmetry_Int_Tables_number   1
_chemical_formula_structural   Na3YZrSi(PO6)2
_chemical_formula_sum   'Na18 Y6 Zr6 Si6 P12 O72'
_cell_volume   1727.49970578
_cell_formula_units_Z   6
loop_
 _symmetry_equiv_pos_site_id
 _symmetry_equiv_pos_as_xyz
  1  'x, y, z'
loop_
 _atom_site_type_symbol
 _atom_site_label
 _atom_site_symmetry_multiplicity
 _atom_site_fract_x
 _atom_site_fract_y
 _atom_site_fract_z
 _atom_site_occupancy
  Na  Na0  1  0.00314125  0.99292503  0.49838993  1
  Na  Na1  1  0.00707497  0.99685875  0.99838993  1
  Na  Na2  1  0.66610306  0.32259042  0.83198478  1
  Na  Na3  1  0.67740958  0.33389694  0.33198478  1
  Na  Na4  1  0.34387085  0.67265300  0.16513711  1
  Na  Na5  1  0.32734700  0.65612915  0.66513711  1
  Na  Na6  1  0.36161129  0.36127672  0.24797723  1
  Na  Na7  1  0.99485049  0.63013558  0.24755875  1
  Na  Na8  1  0.63872328  0.63838871  0.74797723  1
  Na  Na9  1  0.36986442  0.00514951  0.74755875  1
  Na  Na10  1  0.04013240  0.70164174  0.57988157  1
  Na  Na11  1  0.65474945  0.96697711  0.58492979  1
  Na  Na12  1  0.29835826  0.95986760  0.07988157  1
  Na  Na13  1  0.03302289  0.34525055  0.08492979  1
  Na  Na14  1  0.97709724  0.67598976  0.91882326  1
  Na  Na15  1  0.69628380  0.02810830  0.91214856  1
  Na  Na16  1  0.97189170  0.30371620  0.41214856  1
  Na  Na17  1  0.32401024  0.02290276  0.41882326  1
  Y  Y0  1  0.98773208  0.99143381  0.35052456  1
  Y  Y1  1  0.00856619  0.01226792  0.85052456  1
  Y  Y2  1  0.66961796  0.32755138  0.68419630  1
  Y  Y3  1  0.67244862  0.33038204  0.18419630  1
  Y  Y4  1  0.33718577  0.66527746  0.01697828  1
  Y  Y5  1  0.33472254  0.66281423  0.51697828  1
  Zr  Zr0  1  0.00553226  0.00868625  0.64894881  1
  Zr  Zr1  1  0.99131375  0.99446774  0.14894881  1
  Zr  Zr2  1  0.66211185  0.33770130  0.98228829  1
  Zr  Zr3  1  0.66229870  0.33788815  0.48228829  1
  Zr  Zr4  1  0.33067475  0.66612737  0.31566528  1
  Zr  Zr5  1  0.33387263  0.66932525  0.81566528  1
  Si  Si0  1  0.00446012  0.30093929  0.25155654  1
  Si  Si1  1  0.69906071  0.99553988  0.75155654  1
  Si  Si2  1  0.36528145  0.03597380  0.58352758  1
  Si  Si3  1  0.96402620  0.63471855  0.08352758  1
  Si  Si4  1  0.33701757  0.96698683  0.91823271  1
  Si  Si5  1  0.03301317  0.66298243  0.41823271  1
  P  P0  1  0.29096335  0.99602753  0.25062110  1
  P  P1  1  0.69860227  0.70379481  0.24917407  1
  P  P2  1  0.29620519  0.30139773  0.74917407  1
  P  P3  1  0.00397247  0.70903665  0.75062110  1
  P  P4  1  0.95881394  0.32855662  0.58162552  1
  P  P5  1  0.67329713  0.63297702  0.58608000  1
  P  P6  1  0.67144338  0.04118606  0.08162552  1
  P  P7  1  0.36702298  0.32670287  0.08608000  1
  P  P8  1  0.62800740  0.66182612  0.91457747  1
  P  P9  1  0.03344297  0.37338851  0.91860524  1
  P  P10  1  0.62661149  0.96655703  0.41860524  1
  P  P11  1  0.33817388  0.37199260  0.41457747  1
  O  O0  1  0.21093440  0.01897869  0.30493499  1
  O  O1  1  0.80911041  0.77730245  0.30202801  1
  O  O2  1  0.98710900  0.19948749  0.30966267  1
  O  O3  1  0.22269755  0.19088959  0.80202801  1
  O  O4  1  0.98102131  0.78906560  0.80493499  1
  O  O5  1  0.80051251  0.01289100  0.80966267  1
  O  O6  1  0.79667328  0.97234117  0.69442174  1
  O  O7  1  0.18436674  0.20865300  0.69581540  1
  O  O8  1  0.03193681  0.82468817  0.69708766  1
  O  O9  1  0.79134700  0.81563326  0.19581540  1
  O  O10  1  0.02765883  0.20332672  0.19442174  1
  O  O11  1  0.17531183  0.96806319  0.19708766  1
  O  O12  1  0.88015557  0.36027638  0.63405068  1
  O  O13  1  0.47678748  0.11766136  0.64037201  1
  O  O14  1  0.65242579  0.53726675  0.64146099  1
  O  O15  1  0.88233864  0.52321252  0.14037201  1
  O  O16  1  0.63972362  0.11984443  0.13405068  1
  O  O17  1  0.46273325  0.34757421  0.14146099  1
  O  O18  1  0.46165774  0.30430798  0.03350704  1
  O  O19  1  0.84632771  0.53656427  0.02617444  1
  O  O20  1  0.69636700  0.15290270  0.02740065  1
  O  O21  1  0.46343573  0.15367229  0.52617444  1
  O  O22  1  0.69569202  0.53834226  0.53350704  1
  O  O23  1  0.84709730  0.30363300  0.52740065  1
  O  O24  1  0.54712475  0.68983746  0.96703690  1
  O  O25  1  0.13013719  0.44567538  0.97431120  1
  O  O26  1  0.31173727  0.85698712  0.97528077  1
  O  O27  1  0.55432462  0.86986281  0.47431120  1
  O  O28  1  0.31016254  0.45287525  0.46703690  1
  O  O29  1  0.14301288  0.68826273  0.47528077  1
  O  O30  1  0.13176528  0.63742857  0.36117532  1
  O  O31  1  0.51165895  0.87053091  0.36651266  1
  O  O32  1  0.36073990  0.47999242  0.35980916  1
  O  O33  1  0.12946909  0.48834105  0.86651266  1
  O  O34  1  0.36257143  0.86823472  0.86117532  1
  O  O35  1  0.52000758  0.63926010  0.85980916  1
  O  O36  1  0.02401076  0.83256718  0.41287177  1
  O  O37  1  0.80695584  0.00240237  0.41293196  1
  O  O38  1  0.18429825  0.19563296  0.40997756  1
  O  O39  1  0.99759763  0.19304416  0.91293196  1
  O  O40  1  0.16743282  0.97598924  0.91287177  1
  O  O41  1  0.80436704  0.81570175  0.90997756  1
  O  O42  1  0.96253269  0.16213607  0.58811694  1
  O  O43  1  0.17573116  0.01203676  0.58835858  1
  O  O44  1  0.83825888  0.80714888  0.58822326  1
  O  O45  1  0.98796324  0.82426884  0.08835858  1
  O  O46  1  0.83786393  0.03746731  0.08811694  1
  O  O47  1  0.19285112  0.16174112  0.08822326  1
  O  O48  1  0.66060634  0.14828081  0.74820871  1
  O  O49  1  0.47386071  0.32858039  0.74299062  1
  O  O50  1  0.84629960  0.53915196  0.74415617  1
  O  O51  1  0.67141961  0.52613929  0.24299062  1
  O  O52  1  0.85171919  0.33939366  0.24820871  1
  O  O53  1  0.46084804  0.15370040  0.24415617  1
  O  O54  1  0.64741496  0.50426479  0.92063285  1
  O  O55  1  0.86055269  0.36761293  0.92107616  1
  O  O56  1  0.51352575  0.14764502  0.92231920  1
  O  O57  1  0.63238707  0.13944731  0.42107616  1
  O  O58  1  0.49573521  0.35258504  0.42063285  1
  O  O59  1  0.85235498  0.48647425  0.42231920  1
  O  O60  1  0.33532498  0.47311246  0.07900727  1
  O  O61  1  0.15025222  0.65494889  0.07981174  1
  O  O62  1  0.51976791  0.86642268  0.07633850  1
  O  O63  1  0.34505111  0.84974778  0.57981174  1
  O  O64  1  0.52688754  0.66467502  0.57900727  1
  O  O65  1  0.13357732  0.48023209  0.57633850  1
  O  O66  1  0.30346554  0.83411862  0.25536891  1
  O  O67  1  0.52562443  0.69034404  0.25479404  1
  O  O68  1  0.18270397  0.48664783  0.25434069  1
  O  O69  1  0.30965596  0.47437557  0.75479404  1
  O  O70  1  0.16588138  0.69653446  0.75536891  1
  O  O71  1  0.51335217  0.81729603  0.75434069  1
loop_
_geom_bond_atom_site_label_1
_geom_bond_atom_site_label_2
_geom_bond_distance
_geom_bond_site_symmetry_2
Na0 O36 2.544249 1_555
Na0 O43 2.583224 1_565
Na0 O44 2.650165 1_455
Na0 O37 2.722599 1_465
Na0 O38 2.722670 1_565
Na0 O42 2.743586 1_465
Na1 O40 2.544249 1_555
Na1 O45 2.583224 1_456
Na1 O47 2.650165 1_566
Na1 O39 2.722599 1_465
Na1 O41 2.722670 1_455
Na1 O46 2.743586 1_466
Na2 O48 2.512259 1_555
Na2 O56 2.595937 1_555
Na2 O55 2.636678 1_555
Na2 O54 2.718368 1_555
Na2 O49 2.747436 1_555
Na2 O50 2.762108 1_555
Na3 O52 2.512259 1_555
Na3 O59 2.595937 1_555
Na3 O57 2.636678 1_555
Na3 O58 2.718368 1_555
Na3 O51 2.747436 1_555
Na3 O53 2.762108 1_555
Na4 O61 2.622970 1_555
Na4 O68 2.630958 1_555
Na4 O67 2.631429 1_555
Na4 O62 2.685230 1_555
Na4 O60 2.697445 1_555
Na4 O66 2.706521 1_555
Na5 O63 2.622970 1_555
Na5 O71 2.630958 1_555
Na5 O69 2.631429 1_555
Na5 O65 2.685230 1_555
Na5 O64 2.697445 1_555
Na5 O70 2.706521 1_555
Na6 O68 2.458033 1_555
Na6 O51 2.491791 1_555
Na6 O53 2.513659 1_555
Na6 O67 2.646656 1_555
Na6 O17 2.670001 1_555
Na6 O32 2.821472 1_555
Na7 O52 2.334379 1_555
Na7 O66 2.527083 1_655
Na7 O51 2.652893 1_555
Na7 O68 2.670836 1_655
Na7 O15 2.689335 1_555
Na7 O30 2.914044 1_655
Na7 O11 2.957635 1_655
Na7 O1 2.960025 1_555
Na8 O71 2.458033 1_555
Na8 O49 2.491790 1_555
Na8 O50 2.513659 1_555
Na8 O69 2.646656 1_555
Na8 O14 2.670001 1_555
Na8 O35 2.821472 1_555
Na9 O48 2.334379 1_555
Na9 O70 2.527082 1_545
Na9 O49 2.652893 1_555
Na9 O71 2.670836 1_545
Na9 O13 2.689335 1_555
Na9 O34 2.914044 1_545
Na9 O8 2.957635 1_545
Na9 O3 2.960025 1_555
Na10 O63 2.448370 1_555
Na10 O43 2.506183 1_565
Na10 O44 2.513494 1_455
Na10 O65 2.595925 1_555
Na10 O29 2.634411 1_555
Na11 O64 2.440294 1_555
Na11 O42 2.501921 1_565
Na11 O63 2.513300 1_555
Na11 O27 2.727266 1_555
Na11 O44 2.757696 1_555
Na11 O6 2.851950 1_555
Na11 O13 2.936324 1_565
Na11 O23 3.023598 1_565
Na12 O61 2.448369 1_555
Na12 O45 2.506183 1_455
Na12 O47 2.513494 1_565
Na12 O62 2.595925 1_555
Na12 O26 2.634411 1_554
Na13 O60 2.440294 1_555
Na13 O46 2.501921 1_455
Na13 O61 2.513300 1_555
Na13 O25 2.727266 1_554
Na13 O47 2.757696 1_555
Na13 O10 2.851950 1_555
Na13 O15 2.936324 1_455
Na13 O20 3.023598 1_455
Na14 O40 2.441666 1_655
Na14 O55 2.500542 1_555
Na14 O41 2.519702 1_555
Na14 O54 2.648039 1_555
Na14 O19 2.790824 1_556
Na14 O4 2.838532 1_555
Na14 O33 2.990044 1_655
Na14 O26 2.992520 1_655
Na15 O39 2.422934 1_555
Na15 O56 2.454090 1_555
Na15 O5 2.598153 1_555
Na15 O41 2.616685 1_545
Na15 O55 2.734003 1_555
Na15 O20 2.914895 1_556
Na15 O34 2.929974 1_545
Na15 O24 3.005899 1_545
Na16 O37 2.422934 1_555
Na16 O59 2.454090 1_555
Na16 O2 2.598153 1_555
Na16 O38 2.616685 1_655
Na16 O57 2.734003 1_555
Na16 O23 2.914895 1_555
Na16 O30 2.929974 1_655
Na16 O28 3.005899 1_655
Na17 O36 2.441666 1_545
Na17 O57 2.500542 1_555
Na17 O38 2.519702 1_555
Na17 O58 2.648039 1_555
Na17 O21 2.790824 1_555
Na17 O0 2.838532 1_555
Na17 O31 2.990044 1_545
Na17 O29 2.992520 1_545
O0 P0 1.530495 1_545
O0 Y0 2.221430 1_445
O1 P1 1.524053 1_555
O1 Y0 2.159897 1_555
O2 Si0 1.606254 1_655
O2 Y0 2.151585 1_545
O3 P2 1.524053 1_555
O3 Y1 2.159897 1_555
O4 P3 1.530495 1_655
O4 Y1 2.221430 1_665
O5 Si1 1.606254 1_545
O5 Y1 2.151585 1_655
O6 Si1 1.678559 1_555
O6 Zr0 2.078870 1_665
O7 P2 1.568012 1_555
O7 Zr0 2.073074 1_555
O8 P3 1.576190 1_555
O8 Zr0 2.152742 1_565
O9 P1 1.568012 1_555
O9 Zr1 2.073074 1_555
O10 Si0 1.678559 1_555
O10 Zr1 2.078870 1_445
O11 P0 1.576190 1_555
O11 Zr1 2.152742 1_455
O12 P4 1.520720 1_555
O12 Y2 2.159060 1_555
O13 Si2 1.613159 1_555
O13 Y2 2.130901 1_555
O14 P5 1.518941 1_555
O14 Y2 2.257625 1_555
O15 Si3 1.613159 1_555
O15 Y3 2.130901 1_555
O16 P6 1.520719 1_555
O16 Y3 2.159060 1_555
O17 P7 1.518941 1_555
O17 Y3 2.257625 1_555
O18 P7 1.575776 1_555
O18 Zr2 2.094049 1_554
O19 Si3 1.673358 1_555
O19 Zr2 2.051088 1_554
O20 P6 1.572414 1_555
O20 Zr2 2.162056 1_554
O21 Si2 1.673358 1_555
O21 Zr3 2.051088 1_555
O22 P5 1.575776 1_555
O22 Zr3 2.094049 1_555
O23 P4 1.572414 1_555
O23 Zr3 2.162056 1_555
O24 P8 1.518658 1_555
O24 Y4 2.176538 1_556
O25 P9 1.525037 1_555
O25 Y4 2.214693 1_556
O26 Si4 1.615879 1_555
O26 Y4 2.137364 1_556
O27 P10 1.525037 1_555
O27 Y5 2.214693 1_555
O28 P11 1.518658 1_555
O28 Y5 2.176538 1_555
O29 Si5 1.615879 1_555
O29 Y5 2.137364 1_555
O30 Si5 1.692347 1_555
O30 Zr4 2.023335 1_555
O31 P10 1.563134 1_555
O31 Zr4 2.149911 1_555
O32 P11 1.566672 1_555
O32 Zr4 2.141099 1_555
O33 P9 1.563134 1_555
O33 Zr5 2.149911 1_555
O34 Si4 1.692347 1_555
O34 Zr5 2.023335 1_555
O35 P8 1.566672 1_555
O35 Zr5 2.141099 1_555
O36 Si5 1.619459 1_555
O36 Y0 2.207274 1_455
O37 P10 1.538112 1_545
O37 Y0 2.254852 1_545
O38 P11 1.545415 1_555
O38 Y0 2.315688 1_445
O39 P9 1.538112 1_655
O39 Y1 2.254851 1_655
O40 Si4 1.619459 1_555
O40 Y1 2.207274 1_565
O41 P8 1.545415 1_555
O41 Y1 2.315688 1_665
O42 P4 1.566851 1_555
O42 Zr0 2.177942 1_655
O43 Si2 1.660565 1_555
O43 Zr0 2.101705 1_555
O44 P5 1.574914 1_555
O44 Zr0 2.233334 1_665
O45 Si3 1.660565 1_555
O45 Zr1 2.101705 1_555
O46 P6 1.566851 1_555
O46 Zr1 2.177942 1_545
O47 P7 1.574914 1_555
O47 Zr1 2.233334 1_445
O48 Si1 1.624700 1_545
O48 Y2 2.199790 1_555
O49 P2 1.542628 1_555
O49 Y2 2.273683 1_555
O50 P3 1.529260 1_655
O50 Y2 2.292983 1_555
O51 P1 1.542628 1_555
O51 Y3 2.273683 1_555
O52 Si0 1.624700 1_655
O52 Y3 2.199790 1_555
O53 P0 1.529260 1_545
O53 Y3 2.292983 1_555
O54 P8 1.563929 1_555
O54 Zr2 2.159171 1_555
O55 P9 1.576974 1_655
O55 Zr2 2.228843 1_555
O56 Si4 1.659052 1_545
O56 Zr2 2.124806 1_555
O57 P10 1.576974 1_545
O57 Zr3 2.228843 1_555
O58 P11 1.563929 1_555
O58 Zr3 2.159171 1_555
O59 Si5 1.659052 1_655
O59 Zr3 2.124806 1_555
O60 P7 1.533525 1_555
O60 Y4 2.284029 1_555
O61 Si3 1.642271 1_455
O61 Y4 2.229572 1_555
O62 P6 1.529753 1_565
O62 Y4 2.255539 1_555
O63 Si2 1.642271 1_565
O63 Y5 2.229572 1_555
O64 P5 1.533525 1_555
O64 Y5 2.284029 1_555
O65 P4 1.529753 1_455
O65 Y5 2.255539 1_555
O66 P0 1.565227 1_555
O66 Zr4 2.200173 1_555
O67 P1 1.549814 1_555
O67 Zr4 2.214731 1_555
O68 Si0 1.689764 1_555
O68 Zr4 2.096783 1_555
O69 P2 1.549814 1_555
O69 Zr5 2.214731 1_555
O70 P3 1.565227 1_555
O70 Zr5 2.200173 1_555
O71 Si1 1.689764 1_555
O71 Zr5 2.096783 1_555
