# generated using pymatgen
data_Cs2SnTe4
_symmetry_space_group_name_H-M   'P 1'
_cell_length_a   7.80984500
_cell_length_b   12.13165100
_cell_length_c   12.92001300
_cell_angle_alpha   90.00000000
_cell_angle_beta   90.00000000
_cell_angle_gamma   90.00000000
_symmetry_Int_Tables_number   1
_chemical_formula_structural   Cs2SnTe4
_chemical_formula_sum   'Cs8 Sn4 Te16'
_cell_volume   1224.12360734
_cell_formula_units_Z   4
loop_
 _symmetry_equiv_pos_site_id
 _symmetry_equiv_pos_as_xyz
  1  'x, y, z'
loop_
 _atom_site_type_symbol
 _atom_site_label
 _atom_site_symmetry_multiplicity
 _atom_site_fract_x
 _atom_site_fract_y
 _atom_site_fract_z
 _atom_site_occupancy
  Cs  Cs0  1  0.89491500  0.05526700  0.85367800  1
  Cs  Cs1  1  0.39491500  0.94473300  0.64632200  1
  Cs  Cs2  1  0.10508500  0.55526700  0.14632200  1
  Cs  Cs3  1  0.60508500  0.44473300  0.35367800  1
  Cs  Cs4  1  0.10508500  0.94473300  0.14632200  1
  Cs  Cs5  1  0.60508500  0.05526700  0.35367800  1
  Cs  Cs6  1  0.89491500  0.44473300  0.85367800  1
  Cs  Cs7  1  0.39491500  0.55526700  0.64632200  1
  Sn  Sn0  1  0.49770500  0.25000000  0.06556900  1
  Sn  Sn1  1  0.50229500  0.75000000  0.93443100  1
  Sn  Sn2  1  0.00229500  0.25000000  0.56556900  1
  Sn  Sn3  1  0.99770500  0.75000000  0.43443100  1
  Te  Te0  1  0.15906700  0.75000000  0.87524300  1
  Te  Te1  1  0.65906700  0.25000000  0.62475700  1
  Te  Te2  1  0.84093300  0.25000000  0.12475700  1
  Te  Te3  1  0.34093300  0.75000000  0.37524300  1
  Te  Te4  1  0.74810700  0.75000000  0.27540700  1
  Te  Te5  1  0.75189300  0.75000000  0.77540700  1
  Te  Te6  1  0.24810700  0.25000000  0.22459300  1
  Te  Te7  1  0.25189300  0.25000000  0.72459300  1
  Te  Te8  1  0.90876400  0.57066000  0.57025600  1
  Te  Te9  1  0.40876400  0.42934000  0.92974400  1
  Te  Te10  1  0.09123600  0.07066000  0.42974400  1
  Te  Te11  1  0.59123600  0.92934000  0.07025600  1
  Te  Te12  1  0.09123600  0.42934000  0.42974400  1
  Te  Te13  1  0.59123600  0.57066000  0.07025600  1
  Te  Te14  1  0.90876400  0.92934000  0.57025600  1
  Te  Te15  1  0.40876400  0.07066000  0.92974400  1
loop_
_geom_bond_atom_site_label_1
_geom_bond_atom_site_label_2
_geom_bond_distance
_geom_bond_site_symmetry_2
Cs0 Te15 3.926338 1_555
Cs0 Te14 3.969190 1_545
Cs0 Te11 3.973492 1_546
Cs0 Te5 3.998176 1_545
Cs0 Te7 4.016865 1_655
Cs0 Te15 4.135884 1_655
Cs0 Te1 4.209701 1_555
Cs0 Te2 4.245615 1_556
Cs0 Te0 4.248371 1_645
Cs1 Te14 3.926338 1_455
Cs1 Te15 3.969190 1_565
Cs1 Te10 3.973492 1_565
Cs1 Te7 3.998176 1_565
Cs1 Te5 4.016865 1_555
Cs1 Te14 4.135884 1_555
Cs1 Te0 4.209701 1_555
Cs1 Te3 4.245615 1_555
Cs1 Te1 4.248371 1_565
Cs2 Te13 3.926338 1_555
Cs2 Te12 3.969190 1_555
Cs2 Te9 3.973492 1_554
Cs2 Te6 3.998176 1_555
Cs2 Te4 4.016865 1_455
Cs2 Te13 4.135884 1_455
Cs2 Te3 4.209701 1_555
Cs2 Te0 4.245615 1_554
Cs2 Te2 4.248371 1_455
Cs3 Te12 3.926338 1_655
Cs3 Te13 3.969190 1_555
Cs3 Te8 3.973492 1_555
Cs3 Te4 3.998176 1_555
Cs3 Te6 4.016865 1_555
Cs3 Te12 4.135884 1_555
Cs3 Te2 4.209701 1_555
Cs3 Te1 4.245615 1_555
Cs3 Te3 4.248371 1_555
Cs4 Te11 3.926338 1_555
Cs4 Te10 3.969190 1_565
Cs4 Te15 3.973492 1_564
Cs4 Te6 3.998176 1_565
Cs4 Te4 4.016865 1_455
Cs4 Te11 4.135884 1_455
Cs4 Te3 4.209701 1_555
Cs4 Te0 4.245615 1_554
Cs4 Te2 4.248371 1_465
Cs5 Te10 3.926338 1_655
Cs5 Te11 3.969190 1_545
Cs5 Te14 3.973492 1_545
Cs5 Te4 3.998176 1_545
Cs5 Te6 4.016865 1_555
Cs5 Te10 4.135884 1_555
Cs5 Te2 4.209701 1_555
Cs5 Te1 4.245615 1_555
Cs5 Te3 4.248371 1_545
Cs6 Te9 3.926338 1_555
Cs6 Te8 3.969190 1_555
Cs6 Te13 3.973492 1_556
Cs6 Te5 3.998176 1_555
Cs6 Te7 4.016865 1_655
Cs6 Te9 4.135884 1_655
Cs6 Te1 4.209701 1_555
Cs6 Te2 4.245615 1_556
Cs6 Te0 4.248371 1_655
Cs7 Te8 3.926338 1_455
Cs7 Te9 3.969190 1_555
Cs7 Te12 3.973492 1_555
Cs7 Te7 3.998176 1_555
Cs7 Te5 4.016865 1_555
Cs7 Te8 4.135884 1_555
Cs7 Te0 4.209701 1_555
Cs7 Te3 4.245615 1_555
Cs7 Te1 4.248371 1_555
Sn0 Te2 2.787502 1_555
Sn0 Te6 2.832173 1_555
Sn0 Te15 2.880218 1_554
Sn0 Te9 2.880218 1_554
Sn1 Te0 2.787502 1_555
Sn1 Te5 2.832173 1_555
Sn1 Te13 2.880218 1_556
Sn1 Te11 2.880218 1_556
Sn2 Te1 2.787502 1_455
Sn2 Te7 2.832173 1_555
Sn2 Te10 2.880218 1_555
Sn2 Te12 2.880218 1_555
Sn3 Te3 2.787502 1_655
Sn3 Te4 2.832173 1_555
Sn3 Te8 2.880218 1_555
Sn3 Te14 2.880218 1_555
Te0 Te5 3.431615 1_455
Te1 Te7 3.431615 1_555
Te2 Te6 3.431615 1_655
Te3 Te4 3.431615 1_555
Te10 Te14 2.875049 1_445
Te11 Te15 2.875049 1_564
Te12 Te8 2.875049 1_455
Te13 Te9 2.875049 1_554
