# generated using pymatgen
data_Mg(FeO2)8
_symmetry_space_group_name_H-M   'P 1'
_cell_length_a   2.95200303
_cell_length_b   10.69065356
_cell_length_c   10.57848130
_cell_angle_alpha   89.37052319
_cell_angle_beta   89.99289041
_cell_angle_gamma   90.01585855
_symmetry_Int_Tables_number   1
_chemical_formula_structural   Mg(FeO2)8
_chemical_formula_sum   'Mg1 Fe8 O16'
_cell_volume   333.82445413
_cell_formula_units_Z   1
loop_
 _symmetry_equiv_pos_site_id
 _symmetry_equiv_pos_as_xyz
  1  'x, y, z'
loop_
 _atom_site_type_symbol
 _atom_site_label
 _atom_site_symmetry_multiplicity
 _atom_site_fract_x
 _atom_site_fract_y
 _atom_site_fract_z
 _atom_site_occupancy
  Mg  Mg0  1  0.00995800  0.97453800  0.50334500  1
  Fe  Fe0  1  0.00896100  0.13660600  0.31570100  1
  Fe  Fe1  1  0.00894700  0.63467300  0.14528300  1
  Fe  Fe2  1  0.50907100  0.61668900  0.83944100  1
  Fe  Fe3  1  0.50938200  0.14583000  0.68211500  1
  Fe  Fe4  1  0.00889500  0.81228200  0.69096900  1
  Fe  Fe5  1  0.00918600  0.31432300  0.86156100  1
  Fe  Fe6  1  0.50891900  0.33234600  0.16733700  1
  Fe  Fe7  1  0.50929500  0.80295800  0.32492500  1
  O  O0  1  0.00886900  0.32565200  0.28748100  1
  O  O1  1  0.00878600  0.32730500  0.04878400  1
  O  O2  1  0.00914100  0.68756500  0.33658500  1
  O  O3  1  0.00939700  0.92569900  0.32092300  1
  O  O4  1  0.50883600  0.80377700  0.80821100  1
  O  O5  1  0.50981600  0.84180400  0.55204600  1
  O  O6  1  0.50942100  0.19623600  0.86664500  1
  O  O7  1  0.50908800  0.43094200  0.84277100  1
  O  O8  1  0.00916300  0.62324800  0.71933000  1
  O  O9  1  0.00890400  0.62173600  0.95799700  1
  O  O10  1  0.00919600  0.26122600  0.67036400  1
  O  O11  1  0.00951100  0.02304400  0.68583000  1
  O  O12  1  0.50869100  0.14518500  0.19841700  1
  O  O13  1  0.50975200  0.10711300  0.45453100  1
  O  O14  1  0.50899000  0.75273500  0.14031700  1
  O  O15  1  0.50899100  0.51798800  0.16409300  1
loop_
_geom_bond_atom_site_label_1
_geom_bond_atom_site_label_2
_geom_bond_distance
_geom_bond_site_symmetry_2
Mg0 O11 2.004346 1_565
Mg0 O3 2.004664 1_555
Mg0 O13 2.105892 1_565
Mg0 O13 2.107384 1_465
Mg0 O5 2.107467 1_455
Mg0 O5 2.107520 1_555
Fe0 O12 1.928967 1_555
Fe0 O12 1.930461 1_455
Fe0 O0 2.039707 1_555
Fe0 O13 2.101655 1_455
Fe0 O13 2.105310 1_555
Fe0 O3 2.254804 1_545
Fe1 O15 1.940966 1_455
Fe1 O15 1.941726 1_555
Fe1 O14 1.942229 1_555
Fe1 O14 1.942577 1_455
Fe1 O9 1.987538 1_554
Fe1 O2 2.107173 1_555
Fe2 O9 1.937734 1_655
Fe2 O9 1.938270 1_555
Fe2 O8 1.948247 1_555
Fe2 O8 1.948390 1_655
Fe2 O7 1.985682 1_555
Fe2 O4 2.023610 1_555
Fe3 O10 1.926111 1_655
Fe3 O10 1.927499 1_555
Fe3 O11 1.974807 1_555
Fe3 O11 1.975927 1_655
Fe3 O6 2.030760 1_555
Fe3 O13 2.447292 1_555
Fe4 O4 1.929393 1_455
Fe4 O4 1.929400 1_555
Fe4 O8 2.039783 1_555
Fe4 O5 2.102494 1_455
Fe4 O5 2.105930 1_555
Fe4 O11 2.253242 1_565
Fe5 O7 1.940372 1_555
Fe5 O7 1.941374 1_455
Fe5 O6 1.941805 1_455
Fe5 O6 1.943400 1_555
Fe5 O1 1.986912 1_556
Fe5 O10 2.106715 1_555
Fe6 O1 1.937573 1_655
Fe6 O1 1.938385 1_555
Fe6 O0 1.948565 1_555
Fe6 O0 1.948610 1_655
Fe6 O15 1.984554 1_555
Fe6 O12 2.024138 1_555
Fe7 O2 1.926654 1_655
Fe7 O2 1.926804 1_555
Fe7 O3 1.975038 1_655
Fe7 O3 1.975138 1_555
Fe7 O14 2.031017 1_555
Fe7 O5 2.442715 1_555
