# generated using pymatgen
data_Na4MgSc(PO4)3
_symmetry_space_group_name_H-M   'P 1'
_cell_length_a   9.07110603
_cell_length_b   9.07110571
_cell_length_c   22.17479653
_cell_angle_alpha   90.00000000
_cell_angle_beta   90.00000000
_cell_angle_gamma   120.00000112
_symmetry_Int_Tables_number   1
_chemical_formula_structural   Na4MgSc(PO4)3
_chemical_formula_sum   'Na24 Mg6 Sc6 P18 O72'
_cell_volume   1580.19521324
_cell_formula_units_Z   6
loop_
 _symmetry_equiv_pos_site_id
 _symmetry_equiv_pos_as_xyz
  1  'x, y, z'
loop_
 _atom_site_type_symbol
 _atom_site_label
 _atom_site_symmetry_multiplicity
 _atom_site_fract_x
 _atom_site_fract_y
 _atom_site_fract_z
 _atom_site_occupancy
  Na  Na0  1  0.63711520  0.00529623  0.24843212  1
  Na  Na1  1  0.36818103  0.36288480  0.24843212  1
  Na  Na2  1  0.99470377  0.63181897  0.24843212  1
  Na  Na3  1  0.63711520  0.63181897  0.74843212  1
  Na  Na4  1  0.99470377  0.36288480  0.74843212  1
  Na  Na5  1  0.36818103  0.00529623  0.74843212  1
  Na  Na6  1  0.30378220  0.33862923  0.58176512  1
  Na  Na7  1  0.03484803  0.69621780  0.58176512  1
  Na  Na8  1  0.66137077  0.96515197  0.58176512  1
  Na  Na9  1  0.30378220  0.96515197  0.08176512  1
  Na  Na10  1  0.66137077  0.69621780  0.08176512  1
  Na  Na11  1  0.03484803  0.33862923  0.08176512  1
  Na  Na12  1  0.97044820  0.67196323  0.91509912  1
  Na  Na13  1  0.70151403  0.02955180  0.91509912  1
  Na  Na14  1  0.32803677  0.29848597  0.91509912  1
  Na  Na15  1  0.97044820  0.29848597  0.41509912  1
  Na  Na16  1  0.32803677  0.02955180  0.41509912  1
  Na  Na17  1  0.70151403  0.67196323  0.41509912  1
  Na  Na18  1  0.00000000  0.00000000  0.49742807  1
  Na  Na19  1  0.00000000  0.00000000  0.99742807  1
  Na  Na20  1  0.66666700  0.33333300  0.83076107  1
  Na  Na21  1  0.66666700  0.33333300  0.33076107  1
  Na  Na22  1  0.33333300  0.66666700  0.16409507  1
  Na  Na23  1  0.33333300  0.66666700  0.66409507  1
  Mg  Mg0  1  0.00000000  0.00000000  0.34962633  1
  Mg  Mg1  1  0.00000000  0.00000000  0.84962633  1
  Mg  Mg2  1  0.66666700  0.33333300  0.68295933  1
  Mg  Mg3  1  0.66666700  0.33333300  0.18295933  1
  Mg  Mg4  1  0.33333300  0.66666700  0.01629333  1
  Mg  Mg5  1  0.33333300  0.66666700  0.51629333  1
  Sc  Sc0  1  0.00000000  0.00000000  0.65026052  1
  Sc  Sc1  1  0.00000000  0.00000000  0.15026052  1
  Sc  Sc2  1  0.66666700  0.33333300  0.98359352  1
  Sc  Sc3  1  0.66666700  0.33333300  0.48359352  1
  Sc  Sc4  1  0.33333300  0.66666700  0.31692752  1
  Sc  Sc5  1  0.33333300  0.66666700  0.81692752  1
  P  P0  1  0.29682558  0.00165335  0.25128227  1
  P  P1  1  0.70482777  0.70317442  0.25128227  1
  P  P2  1  0.99834665  0.29517223  0.25128227  1
  P  P3  1  0.29682558  0.29517223  0.75128227  1
  P  P4  1  0.99834665  0.70317442  0.75128227  1
  P  P5  1  0.70482777  0.00165335  0.75128227  1
  P  P6  1  0.96349258  0.33498635  0.58461527  1
  P  P7  1  0.37149477  0.03650742  0.58461527  1
  P  P8  1  0.66501365  0.62850523  0.58461527  1
  P  P9  1  0.96349258  0.62850523  0.08461527  1
  P  P10  1  0.66501365  0.03650742  0.08461527  1
  P  P11  1  0.37149477  0.33498635  0.08461527  1
  P  P12  1  0.63015858  0.66832035  0.91794927  1
  P  P13  1  0.03816077  0.36984142  0.91794927  1
  P  P14  1  0.33167965  0.96183923  0.91794927  1
  P  P15  1  0.63015858  0.96183923  0.41794927  1
  P  P16  1  0.33167965  0.36984142  0.41794927  1
  P  P17  1  0.03816077  0.66832035  0.41794927  1
  O  O0  1  0.21240667  0.02689326  0.30708292  1
  O  O1  1  0.81448658  0.78759333  0.30708292  1
  O  O2  1  0.97310674  0.18551342  0.30708292  1
  O  O3  1  0.21240667  0.18551342  0.80708292  1
  O  O4  1  0.97310674  0.78759333  0.80708292  1
  O  O5  1  0.81448658  0.02689326  0.80708292  1
  O  O6  1  0.78734265  0.97216623  0.69428239  1
  O  O7  1  0.18482359  0.21265735  0.69428239  1
  O  O8  1  0.02783377  0.81517641  0.69428239  1
  O  O9  1  0.78734265  0.81517641  0.19428239  1
  O  O10  1  0.02783377  0.21265735  0.19428239  1
  O  O11  1  0.18482359  0.97216623  0.19428239  1
  O  O12  1  0.87907367  0.36022626  0.64041592  1
  O  O13  1  0.48115358  0.12092633  0.64041592  1
  O  O14  1  0.63977374  0.51884642  0.64041592  1
  O  O15  1  0.87907367  0.51884642  0.14041592  1
  O  O16  1  0.63977374  0.12092633  0.14041592  1
  O  O17  1  0.48115358  0.36022626  0.14041592  1
  O  O18  1  0.45400965  0.30549923  0.02761539  1
  O  O19  1  0.85149059  0.54599035  0.02761539  1
  O  O20  1  0.69450077  0.14850941  0.02761539  1
  O  O21  1  0.45400965  0.14850941  0.52761539  1
  O  O22  1  0.69450077  0.54599035  0.52761539  1
  O  O23  1  0.85149059  0.30549923  0.52761539  1
  O  O24  1  0.54573967  0.69356026  0.97374992  1
  O  O25  1  0.14781958  0.45426033  0.97374992  1
  O  O26  1  0.30643974  0.85218042  0.97374992  1
  O  O27  1  0.54573967  0.85218042  0.47374992  1
  O  O28  1  0.30643974  0.45426033  0.47374992  1
  O  O29  1  0.14781958  0.69356026  0.47374992  1
  O  O30  1  0.12067565  0.63883323  0.36094939  1
  O  O31  1  0.51815659  0.87932435  0.36094939  1
  O  O32  1  0.36116677  0.48184341  0.36094939  1
  O  O33  1  0.12067565  0.48184341  0.86094939  1
  O  O34  1  0.36116677  0.87932435  0.86094939  1
  O  O35  1  0.51815659  0.63883323  0.86094939  1
  O  O36  1  0.01705245  0.82772468  0.41186245  1
  O  O37  1  0.81067223  0.98294755  0.41186245  1
  O  O38  1  0.17227532  0.18932777  0.41186245  1
  O  O39  1  0.01705245  0.18932777  0.91186245  1
  O  O40  1  0.17227532  0.98294755  0.91186245  1
  O  O41  1  0.81067223  0.82772468  0.91186245  1
  O  O42  1  0.98025482  0.17122726  0.58795287  1
  O  O43  1  0.19097244  0.01974518  0.58795287  1
  O  O44  1  0.82877274  0.80902756  0.58795287  1
  O  O45  1  0.98025482  0.80902756  0.08795287  1
  O  O46  1  0.82877274  0.01974518  0.08795287  1
  O  O47  1  0.19097244  0.17122726  0.08795287  1
  O  O48  1  0.68371945  0.16105768  0.74519545  1
  O  O49  1  0.47733923  0.31628055  0.74519545  1
  O  O50  1  0.83894232  0.52266077  0.74519545  1
  O  O51  1  0.68371945  0.52266077  0.24519545  1
  O  O52  1  0.83894232  0.31628055  0.24519545  1
  O  O53  1  0.47733923  0.16105768  0.24519545  1
  O  O54  1  0.64692182  0.50456026  0.92128587  1
  O  O55  1  0.85763944  0.35307818  0.92128587  1
  O  O56  1  0.49543974  0.14236056  0.92128587  1
  O  O57  1  0.64692182  0.14236056  0.42128587  1
  O  O58  1  0.49543974  0.35307818  0.42128587  1
  O  O59  1  0.85763944  0.50456026  0.42128587  1
  O  O60  1  0.35038545  0.49439168  0.07852945  1
  O  O61  1  0.14400523  0.64961455  0.07852945  1
  O  O62  1  0.50560832  0.85599477  0.07852945  1
  O  O63  1  0.35038545  0.85599477  0.57852945  1
  O  O64  1  0.50560832  0.64961455  0.57852945  1
  O  O65  1  0.14400523  0.49439168  0.57852945  1
  O  O66  1  0.31358782  0.83789426  0.25461987  1
  O  O67  1  0.52430544  0.68641218  0.25461987  1
  O  O68  1  0.16210574  0.47569456  0.25461987  1
  O  O69  1  0.31358782  0.47569456  0.75461987  1
  O  O70  1  0.16210574  0.68641218  0.75461987  1
  O  O71  1  0.52430544  0.83789426  0.75461987  1
loop_
_geom_bond_atom_site_label_1
_geom_bond_atom_site_label_2
_geom_bond_distance
_geom_bond_site_symmetry_2
Na0 O53 2.479907 1_555
Na0 O52 2.479964 1_555
Na0 O67 2.544258 1_545
Na0 O66 2.545784 1_545
Na0 O16 2.610100 1_555
Na0 O31 2.731737 1_545
Na0 O9 2.936537 1_545
Na0 O2 2.944597 1_555
Na1 O51 2.479915 1_555
Na1 O53 2.479971 1_555
Na1 O68 2.544266 1_555
Na1 O67 2.545784 1_555
Na1 O17 2.610104 1_555
Na1 O32 2.731739 1_555
Na1 O10 2.936536 1_555
Na1 O0 2.944597 1_555
Na2 O52 2.479915 1_555
Na2 O51 2.479963 1_555
Na2 O66 2.544259 1_655
Na2 O68 2.545776 1_655
Na2 O15 2.610102 1_555
Na2 O30 2.731735 1_655
Na2 O11 2.936536 1_655
Na2 O1 2.944597 1_555
Na3 O49 2.479915 1_555
Na3 O50 2.479971 1_555
Na3 O71 2.544266 1_555
Na3 O69 2.545784 1_555
Na3 O14 2.610104 1_555
Na3 O35 2.731739 1_555
Na3 O6 2.936536 1_555
Na3 O4 2.944597 1_555
Na4 O50 2.479907 1_555
Na4 O48 2.479964 1_555
Na4 O69 2.544258 1_655
Na4 O70 2.545784 1_655
Na4 O12 2.610100 1_555
Na4 O33 2.731737 1_655
Na4 O7 2.936537 1_655
Na4 O5 2.944597 1_555
Na5 O48 2.479915 1_555
Na5 O49 2.479963 1_555
Na5 O70 2.544259 1_545
Na5 O71 2.545776 1_545
Na5 O13 2.610102 1_555
Na5 O34 2.731735 1_545
Na5 O8 2.936536 1_545
Na5 O3 2.944597 1_555
Na6 O65 2.479922 1_555
Na6 O64 2.479969 1_555
Na6 O43 2.544258 1_555
Na6 O42 2.545784 1_455
Na6 O28 2.610085 1_555
Na6 O7 2.731737 1_555
Na6 O21 2.936537 1_555
Na6 O14 2.944597 1_555
Na7 O63 2.479907 1_555
Na7 O65 2.479955 1_555
Na7 O44 2.544266 1_455
Na7 O43 2.545784 1_565
Na7 O29 2.610078 1_555
Na7 O8 2.731739 1_555
Na7 O22 2.936536 1_455
Na7 O12 2.944597 1_455
Na8 O64 2.479906 1_555
Na8 O63 2.479972 1_555
Na8 O42 2.544259 1_565
Na8 O44 2.545776 1_555
Na8 O27 2.610082 1_555
Na8 O6 2.731735 1_555
Na8 O23 2.936536 1_565
Na8 O13 2.944597 1_565
Na9 O61 2.479906 1_555
Na9 O62 2.479955 1_555
Na9 O47 2.544266 1_565
Na9 O45 2.545784 1_455
Na9 O26 2.610078 1_554
Na9 O11 2.731739 1_555
Na9 O18 2.936536 1_565
Na9 O16 2.944597 1_565
Na10 O62 2.479922 1_555
Na10 O60 2.479969 1_555
Na10 O45 2.544258 1_555
Na10 O46 2.545784 1_565
Na10 O24 2.610085 1_554
Na10 O9 2.731737 1_555
Na10 O19 2.936537 1_555
Na10 O17 2.944597 1_555
Na11 O60 2.479906 1_555
Na11 O61 2.479972 1_555
Na11 O46 2.544259 1_455
Na11 O47 2.545776 1_555
Na11 O25 2.610082 1_554
Na11 O10 2.731735 1_555
Na11 O20 2.936536 1_455
Na11 O15 2.944597 1_455
Na12 O41 2.479907 1_555
Na12 O40 2.479964 1_655
Na12 O55 2.544266 1_555
Na12 O54 2.545775 1_555
Na12 O4 2.610100 1_555
Na12 O19 2.731717 1_556
Na12 O33 2.936537 1_655
Na12 O26 2.944597 1_655
Na13 O39 2.479915 1_655
Na13 O41 2.479971 1_545
Na13 O56 2.544249 1_555
Na13 O55 2.545775 1_555
Na13 O5 2.610104 1_555
Na13 O20 2.731713 1_556
Na13 O34 2.936536 1_545
Na13 O24 2.944597 1_545
Na14 O40 2.479915 1_545
Na14 O39 2.479963 1_555
Na14 O54 2.544263 1_555
Na14 O56 2.545791 1_555
Na14 O3 2.610102 1_555
Na14 O18 2.731720 1_556
Na14 O35 2.936536 1_555
Na14 O25 2.944597 1_555
Na15 O37 2.479915 1_545
Na15 O38 2.479971 1_655
Na15 O59 2.544249 1_555
Na15 O57 2.545775 1_555
Na15 O2 2.610104 1_555
Na15 O23 2.731713 1_555
Na15 O30 2.936536 1_655
Na15 O28 2.944597 1_655
Na16 O38 2.479907 1_555
Na16 O36 2.479964 1_545
Na16 O57 2.544266 1_555
Na16 O58 2.545775 1_555
Na16 O0 2.610100 1_555
Na16 O21 2.731717 1_555
Na16 O31 2.936537 1_545
Na16 O29 2.944597 1_545
Na17 O36 2.479915 1_655
Na17 O37 2.479963 1_555
Na17 O58 2.544263 1_555
Na17 O59 2.545791 1_555
Na17 O1 2.610102 1_555
Na17 O22 2.731720 1_555
Na17 O32 2.936536 1_555
Na17 O27 2.944597 1_555
Na18 O38 2.511554 1_555
Na18 O36 2.511554 1_545
Na18 O37 2.511554 1_445
Na18 O44 2.598519 1_445
Na18 O42 2.598519 1_455
Na18 O43 2.598520 1_555
Na19 O39 2.511554 1_555
Na19 O41 2.511554 1_445
Na19 O40 2.511554 1_545
Na19 O45 2.598519 1_446
Na19 O47 2.598519 1_556
Na19 O46 2.598520 1_456
Na20 O50 2.511554 1_555
Na20 O48 2.511554 1_555
Na20 O49 2.511554 1_555
Na20 O56 2.598519 1_555
Na20 O54 2.598519 1_555
Na20 O55 2.598520 1_555
Na21 O51 2.511554 1_555
Na21 O53 2.511554 1_555
Na21 O52 2.511554 1_555
Na21 O57 2.598519 1_555
Na21 O59 2.598519 1_555
Na21 O58 2.598520 1_555
Na22 O62 2.511554 1_555
Na22 O60 2.511554 1_555
Na22 O61 2.511554 1_555
Na22 O68 2.598519 1_555
Na22 O66 2.598519 1_555
Na22 O67 2.598520 1_555
Na23 O63 2.511554 1_555
Na23 O65 2.511554 1_555
Na23 O64 2.511554 1_555
Na23 O69 2.598519 1_555
Na23 O71 2.598519 1_555
Na23 O70 2.598520 1_555
Mg0 O1 2.047408 1_445
Mg0 O0 2.047408 1_555
Mg0 O2 2.047408 1_455
Mg0 O38 2.147645 1_555
Mg0 O36 2.147645 1_545
Mg0 O37 2.147645 1_445
Mg1 O4 2.047408 1_445
Mg1 O3 2.047408 1_555
Mg1 O5 2.047408 1_455
Mg1 O39 2.147645 1_555
Mg1 O41 2.147645 1_445
Mg1 O40 2.147645 1_545
Mg2 O13 2.047408 1_555
Mg2 O12 2.047408 1_555
Mg2 O14 2.047408 1_555
Mg2 O50 2.147645 1_555
Mg2 O48 2.147645 1_555
Mg2 O49 2.147645 1_555
Mg3 O16 2.047408 1_555
Mg3 O15 2.047408 1_555
Mg3 O17 2.047408 1_555
Mg3 O51 2.147645 1_555
Mg3 O53 2.147645 1_555
Mg3 O52 2.147645 1_555
Mg4 O25 2.047408 1_554
Mg4 O24 2.047408 1_554
Mg4 O26 2.047408 1_554
Mg4 O62 2.147645 1_555
Mg4 O60 2.147645 1_555
Mg4 O61 2.147645 1_555
Mg5 O28 2.047408 1_555
Mg5 O27 2.047408 1_555
Mg5 O29 2.047408 1_555
Mg5 O63 2.147645 1_555
Mg5 O65 2.147645 1_555
Mg5 O64 2.147645 1_555
O0 P0 1.531416 1_555
O1 P1 1.531416 1_555
O2 P2 1.531416 1_555
O3 P3 1.531416 1_555
O4 P4 1.531416 1_555
O5 P5 1.531416 1_555
O6 P5 1.558720 1_565
O6 Sc0 2.061748 1_665
O7 P3 1.558719 1_555
O7 Sc0 2.061748 1_555
O8 P4 1.558719 1_455
O8 Sc0 2.061748 1_565
O9 P1 1.558719 1_555
O9 Sc1 2.061748 1_665
O10 P2 1.558719 1_455
O10 Sc1 2.061748 1_555
O11 P0 1.558719 1_565
O11 Sc1 2.061748 1_565
O12 P6 1.531416 1_555
O13 P7 1.531416 1_555
O14 P8 1.531416 1_555
O15 P9 1.531416 1_555
O16 P10 1.531416 1_555
O17 P11 1.531416 1_555
O18 P11 1.558720 1_555
O18 Sc2 2.061748 1_554
O19 P9 1.558719 1_555
O19 Sc2 2.061748 1_554
O20 P10 1.558719 1_555
O20 Sc2 2.061748 1_554
O21 P7 1.558719 1_555
O21 Sc3 2.061748 1_555
O22 P8 1.558719 1_555
O22 Sc3 2.061748 1_555
O23 P6 1.558719 1_555
O23 Sc3 2.061748 1_555
O24 P12 1.531416 1_555
O25 P13 1.531416 1_555
O26 P14 1.531416 1_555
O27 P15 1.531416 1_555
O28 P16 1.531416 1_555
O29 P17 1.531416 1_555
O30 P17 1.558720 1_555
O30 Sc4 2.061748 1_555
O31 P15 1.558719 1_555
O31 Sc4 2.061748 1_555
O32 P16 1.558719 1_555
O32 Sc4 2.061748 1_555
O33 P13 1.558719 1_555
O33 Sc5 2.061748 1_555
O34 P14 1.558719 1_555
O34 Sc5 2.061748 1_555
O35 P12 1.558719 1_555
O35 Sc5 2.061748 1_555
O36 P17 1.556467 1_555
O37 P15 1.556476 1_555
O38 P16 1.556472 1_555
O39 P13 1.556476 1_555
O40 P14 1.556467 1_555
O41 P12 1.556472 1_555
O42 P6 1.568791 1_555
O42 Sc0 2.152151 1_655
O43 P7 1.568800 1_555
O43 Sc0 2.152152 1_555
O44 P8 1.568796 1_555
O44 Sc0 2.152151 1_665
O45 P9 1.568800 1_555
O45 Sc1 2.152151 1_665
O46 P10 1.568791 1_555
O46 Sc1 2.152152 1_655
O47 P11 1.568796 1_555
O47 Sc1 2.152151 1_555
O48 P5 1.556467 1_555
O49 P3 1.556476 1_555
O50 P4 1.556472 1_555
O51 P1 1.556476 1_555
O52 P2 1.556467 1_555
O53 P0 1.556472 1_555
O54 P12 1.568804 1_555
O54 Sc2 2.152151 1_555
O55 P13 1.568786 1_655
O55 Sc2 2.152152 1_555
O56 P14 1.568794 1_545
O56 Sc2 2.152151 1_555
O57 P15 1.568786 1_545
O57 Sc3 2.152151 1_555
O58 P16 1.568804 1_555
O58 Sc3 2.152152 1_555
O59 P17 1.568794 1_655
O59 Sc3 2.152151 1_555
O60 P11 1.556479 1_555
O61 P9 1.556461 1_455
O62 P10 1.556469 1_565
O63 P7 1.556461 1_565
O64 P8 1.556479 1_555
O65 P6 1.556469 1_455
O66 P0 1.568791 1_565
O66 Sc4 2.152151 1_555
O67 P1 1.568800 1_555
O67 Sc4 2.152152 1_555
O68 P2 1.568796 1_455
O68 Sc4 2.152151 1_555
O69 P3 1.568800 1_555
O69 Sc5 2.152151 1_555
O70 P4 1.568791 1_455
O70 Sc5 2.152152 1_555
O71 P5 1.568796 1_565
O71 Sc5 2.152151 1_555
