# generated using pymatgen
data_NaTa2Ga2P5SO24
_symmetry_space_group_name_H-M   'P 1'
_cell_length_a   8.64190314
_cell_length_b   8.61949979
_cell_length_c   22.35885853
_cell_angle_alpha   89.95607043
_cell_angle_beta   90.22078652
_cell_angle_gamma   119.96310079
_symmetry_Int_Tables_number   1
_chemical_formula_structural   NaTa2Ga2P5SO24
_chemical_formula_sum   'Na3 Ta6 Ga6 P15 S3 O72'
_cell_volume   1442.87751300
_cell_formula_units_Z   3
loop_
 _symmetry_equiv_pos_site_id
 _symmetry_equiv_pos_as_xyz
  1  'x, y, z'
loop_
 _atom_site_type_symbol
 _atom_site_label
 _atom_site_symmetry_multiplicity
 _atom_site_fract_x
 _atom_site_fract_y
 _atom_site_fract_z
 _atom_site_occupancy
  Na  Na0  1  0.00003036  0.99955445  0.00549366  1
  Na  Na1  1  0.66642927  0.33316334  0.83275971  1
  Na  Na2  1  0.66711027  0.33097185  0.33971831  1
  Ta  Ta0  1  0.00488897  0.00731227  0.36019988  1
  Ta  Ta1  1  0.99947700  0.00030639  0.85356172  1
  Ta  Ta2  1  0.66624996  0.32784358  0.18883783  1
  Ta  Ta3  1  0.33181538  0.66635343  0.02705608  1
  Ta  Ta4  1  0.33916885  0.66768099  0.52398379  1
  Ta  Ta5  1  0.33408582  0.66611032  0.80778662  1
  Ga  Ga0  1  0.99165385  0.99117523  0.64583694  1
  Ga  Ga1  1  0.01135557  0.00856908  0.14730958  1
  Ga  Ga2  1  0.66366027  0.33955838  0.68727930  1
  Ga  Ga3  1  0.66712393  0.33430141  0.98107019  1
  Ga  Ga4  1  0.67019585  0.34353042  0.47998508  1
  Ga  Ga5  1  0.32274188  0.66673027  0.31412161  1
  P  P0  1  0.28130568  0.99053203  0.24985115  1
  P  P1  1  0.01062239  0.29174156  0.24960972  1
  P  P2  1  0.28784678  0.28050424  0.74573466  1
  P  P3  1  0.99323572  0.70912226  0.74673931  1
  P  P4  1  0.71574098  0.00948256  0.74624531  1
  P  P5  1  0.67726333  0.62098897  0.58459314  1
  P  P6  1  0.94673630  0.62569664  0.08256874  1
  P  P7  1  0.67895000  0.05108834  0.08180215  1
  P  P8  1  0.37721142  0.32372890  0.08173490  1
  P  P9  1  0.61907916  0.66042136  0.91796785  1
  P  P10  1  0.04080345  0.38133219  0.91744501  1
  P  P11  1  0.34025242  0.95933257  0.91752285  1
  P  P12  1  0.61365542  0.95784337  0.41554875  1
  P  P13  1  0.34584542  0.39043142  0.41537912  1
  P  P14  1  0.04226919  0.65719907  0.41656947  1
  S  S0  1  0.70888199  0.71600982  0.24963943  1
  S  S1  1  0.94957017  0.32699902  0.58406604  1
  S  S2  1  0.37804354  0.05188669  0.58400472  1
  O  O0  1  0.19645389  0.02997622  0.30527439  1
  O  O1  1  0.82539522  0.79321145  0.30346535  1
  O  O2  1  0.96727444  0.16671380  0.30526521  1
  O  O3  1  0.19777267  0.16734906  0.80411270  1
  O  O4  1  0.96795261  0.79954284  0.80455873  1
  O  O5  1  0.83062209  0.03347706  0.80445840  1
  O  O6  1  0.79278189  0.96681536  0.69285781  1
  O  O7  1  0.16910756  0.20137459  0.69184493  1
  O  O8  1  0.03662128  0.82860773  0.69305246  1
  O  O9  1  0.78909999  0.81865761  0.19538027  1
  O  O10  1  0.02876659  0.20431924  0.19338873  1
  O  O11  1  0.17261118  0.96510264  0.19359346  1
  O  O12  1  0.87734920  0.36683846  0.63755758  1
  O  O13  1  0.49182739  0.12129582  0.63763534  1
  O  O14  1  0.62950353  0.50171329  0.63997831  1
  O  O15  1  0.86384742  0.50419369  0.13863191  1
  O  O16  1  0.63956074  0.13382199  0.13827499  1
  O  O17  1  0.49605898  0.36062365  0.13838118  1
  O  O18  1  0.45944549  0.29576037  0.02602584  1
  O  O19  1  0.83764337  0.54277680  0.02632573  1
  O  O20  1  0.70627918  0.16280051  0.02637490  1
  O  O21  1  0.45830638  0.15641230  0.52962242  1
  O  O22  1  0.70250257  0.53773174  0.52799655  1
  O  O23  1  0.84188655  0.29753021  0.52976909  1
  O  O24  1  0.53384581  0.69581571  0.97293322  1
  O  O25  1  0.16150837  0.46601370  0.97282209  1
  O  O26  1  0.30469543  0.83865716  0.97278803  1
  O  O27  1  0.53101304  0.83789803  0.47207542  1
  O  O28  1  0.30663334  0.46991513  0.47191092  1
  O  O29  1  0.16197572  0.69473532  0.47257818  1
  O  O30  1  0.12080817  0.62681542  0.36047668  1
  O  O31  1  0.50364706  0.87411398  0.35977428  1
  O  O32  1  0.37279878  0.49959013  0.35955816  1
  O  O33  1  0.13357264  0.49428009  0.86128951  1
  O  O34  1  0.36048184  0.86630819  0.86135756  1
  O  O35  1  0.50584046  0.63930345  0.86142119  1
  O  O36  1  0.02531709  0.82875763  0.40691633  1
  O  O37  1  0.80008631  0.97050321  0.40686479  1
  O  O38  1  0.17118624  0.20159837  0.40856758  1
  O  O39  1  0.02755570  0.19454622  0.90979010  1
  O  O40  1  0.16730729  0.97300269  0.90964016  1
  O  O41  1  0.80557657  0.83314619  0.90981960  1
  O  O42  1  0.97774480  0.17420224  0.59116385  1
  O  O43  1  0.19958890  0.02785677  0.59115422  1
  O  O44  1  0.83473310  0.80972471  0.59195455  1
  O  O45  1  0.97415555  0.81217253  0.09130622  1
  O  O46  1  0.83531529  0.02103022  0.09155089  1
  O  O47  1  0.18962718  0.16558188  0.08889989  1
  O  O48  1  0.69255710  0.17282419  0.74194059  1
  O  O49  1  0.47391439  0.30264279  0.74392347  1
  O  O50  1  0.83061609  0.52221140  0.74378318  1
  O  O51  1  0.69460712  0.53216308  0.24374572  1
  O  O52  1  0.83573271  0.30826831  0.24280150  1
  O  O53  1  0.47082513  0.16757960  0.24273325  1
  O  O54  1  0.64013900  0.49681515  0.92263414  1
  O  O55  1  0.85666410  0.35992256  0.92246938  1
  O  O56  1  0.50351211  0.14364408  0.92266304  1
  O  O57  1  0.64315178  0.14520135  0.42617444  1
  O  O58  1  0.50039258  0.35543548  0.42397718  1
  O  O59  1  0.85530228  0.49672451  0.42415716  1
  O  O60  1  0.36296247  0.49718902  0.07451975  1
  O  O61  1  0.13376777  0.63883753  0.07466237  1
  O  O62  1  0.50401433  0.86548630  0.07457006  1
  O  O63  1  0.35811368  0.86702735  0.57508059  1
  O  O64  1  0.50543691  0.64069245  0.57331126  1
  O  O65  1  0.13206933  0.49312854  0.57470328  1
  O  O66  1  0.31299310  0.83583322  0.25948788  1
  O  O67  1  0.53191167  0.69084910  0.25791696  1
  O  O68  1  0.16908838  0.47505482  0.25945454  1
  O  O69  1  0.30610183  0.46735788  0.75933261  1
  O  O70  1  0.16177500  0.69211422  0.76013427  1
  O  O71  1  0.53069970  0.83994524  0.76002700  1
loop_
_geom_bond_atom_site_label_1
_geom_bond_atom_site_label_2
_geom_bond_distance
_geom_bond_site_symmetry_2
Na0 O47 2.418407 1_565
Na0 O45 2.444948 1_455
Na0 O46 2.459198 1_465
Na0 O41 2.650780 1_454
Na0 O39 2.656941 1_564
Na0 O40 2.662783 1_554
Na1 O49 2.514067 1_555
Na1 O50 2.516657 1_555
Na1 O55 2.525014 1_555
Na1 O48 2.530604 1_555
Na1 O54 2.531293 1_555
Na1 O56 2.531959 1_555
Na2 O59 2.431061 1_555
Na2 O58 2.448355 1_555
Na2 O57 2.451686 1_555
Na2 O53 2.674537 1_555
Na2 O52 2.677179 1_555
Na2 O51 2.693515 1_555
Ga0 O44 1.899543 1_555
Ga0 O6 1.938095 1_555
Ga0 O8 1.941000 1_655
Ga0 O7 1.976845 1_665
Ga0 O42 2.045222 1_565
Ga0 O43 2.067048 1_665
Ga1 O11 1.913924 1_545
Ga1 O10 1.918037 1_555
Ga1 O47 1.959786 1_555
Ga1 O45 1.998382 1_445
Ga1 O46 2.007143 1_455
Ga1 O9 2.096794 1_445
Ga2 O14 1.888552 1_555
Ga2 O50 1.968874 1_555
Ga2 O49 1.971878 1_555
Ga2 O48 1.993725 1_555
Ga2 O13 2.043637 1_555
Ga2 O12 2.069569 1_555
Ga3 O18 1.938973 1_556
Ga3 O19 1.941824 1_556
Ga3 O20 1.954617 1_556
Ga3 O54 2.011179 1_555
Ga3 O56 2.018245 1_555
Ga3 O55 2.025657 1_555
Ga4 O22 1.888369 1_555
Ga4 O59 1.940000 1_555
Ga4 O58 1.966749 1_555
Ga4 O57 2.006604 1_555
Ga4 O23 2.042532 1_555
Ga4 O21 2.061297 1_555
Ga5 O30 1.910917 1_555
Ga5 O66 1.934674 1_555
Ga5 O68 1.945769 1_555
Ga5 O31 1.969866 1_555
Ga5 O32 1.977777 1_555
Ga5 O67 2.128776 1_555
O0 P0 1.563838 1_545
O0 Ta0 1.994796 1_555
O1 S0 1.492527 1_555
O1 Ta0 2.133061 1_665
O2 P1 1.564772 1_655
O2 Ta0 1.985587 1_655
O3 P2 1.583807 1_555
O3 Ta1 1.944134 1_455
O4 P3 1.581223 1_555
O4 Ta1 1.949085 1_565
O5 P4 1.583625 1_555
O5 Ta1 1.954581 1_555
O6 P4 1.501592 1_565
O7 P2 1.504193 1_555
O8 P3 1.502678 1_455
O9 S0 1.458544 1_555
O10 P1 1.514444 1_555
O11 P0 1.515995 1_555
O12 S1 1.469136 1_555
O13 S2 1.472106 1_555
O14 P5 1.529369 1_555
O15 P6 1.561015 1_555
O15 Ta2 1.976363 1_555
O16 P7 1.570323 1_555
O16 Ta2 1.934865 1_555
O17 P8 1.557073 1_555
O17 Ta2 1.979283 1_555
O18 P8 1.514286 1_555
O19 P6 1.516641 1_555
O20 P7 1.513957 1_555
O21 S2 1.466938 1_555
O22 P5 1.524393 1_555
O23 S1 1.469698 1_555
O24 P9 1.542073 1_555
O24 Ta3 2.037176 1_556
O25 P10 1.544289 1_555
O25 Ta3 2.017244 1_556
O26 P11 1.544319 1_555
O26 Ta3 2.018828 1_556
O27 P12 1.563241 1_555
O27 Ta4 1.957235 1_555
O28 P13 1.555120 1_555
O28 Ta4 1.965247 1_555
O29 P14 1.548998 1_555
O29 Ta4 2.015684 1_555
O30 P14 1.512223 1_555
O31 P12 1.512182 1_555
O32 P13 1.509568 1_555
O33 P10 1.547014 1_555
O33 Ta5 2.019156 1_555
O34 P11 1.547175 1_555
O34 Ta5 2.017997 1_555
O35 P9 1.549895 1_555
O35 Ta5 2.005750 1_555
O36 P14 1.571752 1_555
O36 Ta0 1.938657 1_565
O37 P12 1.572283 1_555
O37 Ta0 1.942832 1_665
O38 P13 1.579645 1_555
O38 Ta0 1.904234 1_555
O39 P10 1.565459 1_555
O39 Ta1 2.009383 1_455
O40 P11 1.566061 1_555
O40 Ta1 2.014348 1_465
O41 P9 1.565985 1_555
O41 Ta1 2.016900 1_565
O42 S1 1.462443 1_555
O43 S2 1.459307 1_555
O44 P5 1.520792 1_555
O45 P6 1.515752 1_555
O46 P7 1.512609 1_555
O47 P8 1.518587 1_555
O48 P4 1.520876 1_555
O49 P2 1.522380 1_555
O50 P3 1.520785 1_555
O51 S0 1.532540 1_555
O51 Ta2 2.058817 1_555
O52 P1 1.594047 1_655
O52 Ta2 1.965300 1_555
O53 P0 1.594251 1_545
O53 Ta2 1.973661 1_555
O54 P9 1.512838 1_555
O55 P10 1.512273 1_655
O56 P11 1.512538 1_545
O57 P12 1.522614 1_545
O58 P13 1.520554 1_555
O59 P14 1.523819 1_655
O60 P8 1.568442 1_555
O60 Ta3 1.926715 1_555
O61 P6 1.573477 1_455
O61 Ta3 1.930463 1_555
O62 P7 1.566410 1_565
O62 Ta3 1.930919 1_555
O63 S2 1.527901 1_565
O63 Ta4 2.001260 1_555
O64 P5 1.595737 1_555
O64 Ta4 1.912171 1_555
O65 S1 1.525745 1_455
O65 Ta4 2.018944 1_555
O66 P0 1.504421 1_555
O67 S0 1.446044 1_555
O68 P1 1.502418 1_555
O69 P2 1.567766 1_555
O69 Ta5 1.937537 1_555
O70 P3 1.562830 1_455
O70 Ta5 1.929670 1_555
O71 P4 1.567313 1_565
O71 Ta5 1.934136 1_555
