# generated using pymatgen
data_Na7Sc2Si3Ge2(PO8)3
_symmetry_space_group_name_H-M   'P 1'
_cell_length_a   8.90928131
_cell_length_b   8.90829129
_cell_length_c   22.02667671
_cell_angle_alpha   89.88766195
_cell_angle_beta   89.53953302
_cell_angle_gamma   119.93043730
_symmetry_Int_Tables_number   1
_chemical_formula_structural   Na7Sc2Si3Ge2(PO8)3
_chemical_formula_sum   'Na21 Sc6 Si9 Ge6 P9 O72'
_cell_volume   1514.94321513
_cell_formula_units_Z   3
loop_
 _symmetry_equiv_pos_site_id
 _symmetry_equiv_pos_as_xyz
  1  'x, y, z'
loop_
 _atom_site_type_symbol
 _atom_site_label
 _atom_site_symmetry_multiplicity
 _atom_site_fract_x
 _atom_site_fract_y
 _atom_site_fract_z
 _atom_site_occupancy
  Na  Na0  1  0.62861379  0.00218847  0.25232665  1
  Na  Na1  1  0.37108685  0.37327916  0.24845694  1
  Na  Na2  1  0.00032906  0.62113125  0.25021363  1
  Na  Na3  1  0.63199329  0.63351285  0.74853644  1
  Na  Na4  1  0.99509128  0.36600767  0.74849377  1
  Na  Na5  1  0.37391135  0.00143639  0.74727492  1
  Na  Na6  1  0.03043646  0.69578375  0.58317154  1
  Na  Na7  1  0.66343654  0.96796227  0.58239626  1
  Na  Na8  1  0.66575403  0.69031464  0.08272054  1
  Na  Na9  1  0.02747023  0.33476836  0.08559302  1
  Na  Na10  1  0.96061481  0.66517677  0.91921266  1
  Na  Na11  1  0.70155731  0.03289306  0.91723962  1
  Na  Na12  1  0.33857605  0.30084205  0.91842094  1
  Na  Na13  1  0.96840123  0.30312838  0.41610386  1
  Na  Na14  1  0.33592301  0.03159220  0.41799162  1
  Na  Na15  1  0.99955442  0.99990331  0.49995610  1
  Na  Na16  1  0.00760568  0.99665663  0.00290129  1
  Na  Na17  1  0.66646155  0.33303551  0.83327962  1
  Na  Na18  1  0.67197807  0.34131495  0.33676674  1
  Na  Na19  1  0.32760334  0.66847215  0.16488665  1
  Na  Na20  1  0.33390672  0.66033804  0.66235783  1
  Sc  Sc0  1  0.99340603  0.99821829  0.85369968  1
  Sc  Sc1  1  0.66989292  0.32976127  0.67957099  1
  Sc  Sc2  1  0.67275486  0.33730478  0.18245649  1
  Sc  Sc3  1  0.66471361  0.34056546  0.98683507  1
  Sc  Sc4  1  0.32713590  0.66330889  0.31790492  1
  Sc  Sc5  1  0.34058548  0.66915354  0.81269889  1
  Si  Si0  1  0.99967826  0.27944535  0.25074298  1
  Si  Si1  1  0.71386645  0.00284604  0.74720926  1
  Si  Si2  1  0.97037770  0.33666294  0.58083518  1
  Si  Si3  1  0.37000443  0.03997530  0.58187038  1
  Si  Si4  1  0.97578130  0.64310061  0.08354961  1
  Si  Si5  1  0.36375577  0.33104859  0.08393186  1
  Si  Si6  1  0.62139760  0.66410864  0.91848072  1
  Si  Si7  1  0.62560667  0.95791024  0.41786844  1
  Si  Si8  1  0.03004107  0.66523822  0.41796355  1
  Ge  Ge0  1  0.98517033  0.98964238  0.35539475  1
  Ge  Ge1  1  0.00653414  0.01148493  0.64454977  1
  Ge  Ge2  1  0.01100300  0.00423978  0.14677251  1
  Ge  Ge3  1  0.66819771  0.32906797  0.48308871  1
  Ge  Ge4  1  0.33460141  0.66776191  0.02068294  1
  Ge  Ge5  1  0.33001369  0.67155055  0.51654443  1
  P  P0  1  0.27924782  -0.00001147  0.25116597  1
  P  P1  1  0.72040231  0.72012862  0.24983822  1
  P  P2  1  0.28727111  0.28671871  0.74830274  1
  P  P3  1  0.99853146  0.71269591  0.74758998  1
  P  P4  1  0.66095849  0.62278930  0.58140903  1
  P  P5  1  0.66332781  0.03055676  0.08378014  1
  P  P6  1  0.04575118  0.37935939  0.91837933  1
  P  P7  1  0.33558702  0.95413611  0.91848769  1
  P  P8  1  0.33948960  0.37740931  0.41847690  1
  O  O0  1  0.19643025  0.02985552  0.30907969  1
  O  O1  1  0.83715415  0.80059730  0.30626286  1
  O  O2  1  0.96919955  0.15740385  0.31167901  1
  O  O3  1  0.21322027  0.18016090  0.80684878  1
  O  O4  1  0.97384148  0.79271952  0.80593479  1
  O  O5  1  0.82631067  0.03530941  0.80840971  1
  O  O6  1  0.80963036  0.96607752  0.68830917  1
  O  O7  1  0.16696765  0.19649626  0.69325115  1
  O  O8  1  0.03173447  0.83116013  0.69077601  1
  O  O9  1  0.80340562  0.83281403  0.19216908  1
  O  O10  1  0.02869388  0.18813567  0.19026431  1
  O  O11  1  0.16280073  0.96451470  0.19487150  1
  O  O12  1  0.89783689  0.38394362  0.64119895  1
  O  O13  1  0.48750746  0.11202189  0.64165448  1
  O  O14  1  0.63282998  0.52270060  0.64084247  1
  O  O15  1  0.89576173  0.51436037  0.14242158  1
  O  O16  1  0.63386047  0.11185370  0.14073474  1
  O  O17  1  0.48820676  0.37639546  0.14270450  1
  O  O18  1  0.44298797  0.29680399  0.02303342  1
  O  O19  1  0.85092794  0.56288271  0.02498983  1
  O  O20  1  0.70245867  0.14597708  0.02734120  1
  O  O21  1  0.46259068  0.16566394  0.52257491  1
  O  O22  1  0.70086083  0.53304792  0.52807490  1
  O  O23  1  0.83411163  0.29218237  0.52409698  1
  O  O24  1  0.52646214  0.70071736  0.97712396  1
  O  O25  1  0.16147255  0.46730348  0.97457890  1
  O  O26  1  0.30059771  0.83054160  0.97327477  1
  O  O27  1  0.53297966  0.83323029  0.47734374  1
  O  O28  1  0.29806660  0.46575982  0.47173702  1
  O  O29  1  0.16429370  0.71009999  0.47531531  1
  O  O30  1  0.10508430  0.61826062  0.35792825  1
  O  O31  1  0.50911445  0.88452507  0.35764069  1
  O  O32  1  0.36875827  0.47938968  0.35905239  1
  O  O33  1  0.12137672  0.48745156  0.86024647  1
  O  O34  1  0.36081191  0.87647035  0.85944525  1
  O  O35  1  0.50737501  0.63136426  0.85775413  1
  O  O36  1  0.02766149  0.84973986  0.40891413  1
  O  O37  1  0.82429746  0.98593439  0.41247658  1
  O  O38  1  0.17301559  0.19296922  0.41404640  1
  O  O39  1  0.03486191  0.20071460  0.91609106  1
  O  O40  1  0.17387652  0.97503636  0.91602066  1
  O  O41  1  0.81275353  0.83807984  0.91788606  1
  O  O42  1  0.97462921  0.15358851  0.58860593  1
  O  O43  1  0.17043244  0.00878002  0.59017030  1
  O  O44  1  0.82979322  0.80627361  0.58505766  1
  O  O45  1  0.97811247  0.82742687  0.09397729  1
  O  O46  1  0.82746762  0.01078913  0.09038727  1
  O  O47  1  0.16682903  0.16230921  0.09056610  1
  O  O48  1  0.69207328  0.17416253  0.74499652  1
  O  O49  1  0.47060147  0.31254262  0.74252815  1
  O  O50  1  0.83378341  0.53355011  0.74405928  1
  O  O51  1  0.70012983  0.53766188  0.24657909  1
  O  O52  1  0.82571163  0.29747412  0.24884516  1
  O  O53  1  0.45965751  0.16328981  0.24617159  1
  O  O54  1  0.64393774  0.49329343  0.92052000  1
  O  O55  1  0.86174112  0.35272681  0.92390205  1
  O  O56  1  0.50046568  0.13259862  0.92315493  1
  O  O57  1  0.64504040  0.15355620  0.42578002  1
  O  O58  1  0.49910512  0.35308184  0.42603472  1
  O  O59  1  0.84048128  0.48938291  0.42856559  1
  O  O60  1  0.34716781  0.50879645  0.07578991  1
  O  O61  1  0.16368245  0.65262936  0.07368153  1
  O  O62  1  0.50173300  0.84724386  0.07754265  1
  O  O63  1  0.35218271  0.84543827  0.57388903  1
  O  O64  1  0.50229005  0.64842440  0.57371607  1
  O  O65  1  0.16018856  0.51243899  0.57054144  1
  O  O66  1  0.30042484  0.83809161  0.25391598  1
  O  O67  1  0.54019626  0.70348175  0.25416988  1
  O  O68  1  0.17337594  0.47130388  0.25168638  1
  O  O69  1  0.29756499  0.46501332  0.75045030  1
  O  O70  1  0.15993323  0.69125934  0.75042143  1
  O  O71  1  0.52232086  0.82877452  0.74817915  1
loop_
_geom_bond_atom_site_label_1
_geom_bond_atom_site_label_2
_geom_bond_distance
_geom_bond_site_symmetry_2
Na0 O52 2.323041 1_555
Na0 O67 2.368597 1_545
Na0 O66 2.533848 1_545
Na0 O31 2.539770 1_545
Na0 O53 2.549926 1_555
Na0 O16 2.634673 1_555
Na1 O68 2.324544 1_555
Na1 O53 2.365858 1_555
Na1 O17 2.539159 1_555
Na1 O51 2.540470 1_555
Na1 O67 2.553515 1_555
Na1 O32 2.618412 1_555
Na2 O51 2.394099 1_455
Na2 O66 2.395418 1_555
Na2 O68 2.492680 1_555
Na2 O52 2.501845 1_455
Na2 O30 2.561263 1_555
Na2 O15 2.563214 1_455
Na2 O11 2.911520 1_555
Na2 O1 2.914067 1_455
Na3 O50 2.372737 1_555
Na3 O71 2.382558 1_555
Na3 O49 2.482429 1_555
Na3 O14 2.572510 1_555
Na3 O69 2.582089 1_555
Na3 O35 2.637448 1_555
Na3 O6 2.883319 1_555
Na3 O4 2.940109 1_555
Na4 O48 2.369532 1_555
Na4 O69 2.381609 1_655
Na4 O70 2.511770 1_655
Na4 O50 2.538628 1_555
Na4 O12 2.555640 1_555
Na4 O33 2.708465 1_655
Na4 O5 2.865982 1_555
Na4 O7 2.896636 1_655
Na5 O70 2.452485 1_545
Na5 O49 2.459437 1_555
Na5 O48 2.459682 1_555
Na5 O71 2.478760 1_545
Na5 O13 2.522984 1_555
Na5 O34 2.685590 1_545
Na5 O3 2.925568 1_555
Na5 O8 2.932089 1_545
Na6 O43 2.426568 1_565
Na6 O44 2.433256 1_455
Na6 O65 2.441736 1_555
Na6 O63 2.492411 1_555
Na6 O29 2.623740 1_555
Na6 O8 2.658935 1_555
Na6 O12 2.726406 1_455
Na6 O22 2.830653 1_455
Na7 O42 2.423200 1_565
Na7 O63 2.430027 1_555
Na7 O64 2.475668 1_555
Na7 O44 2.531037 1_555
Na7 O27 2.609195 1_555
Na7 O6 2.685091 1_555
Na7 O13 2.790756 1_565
Na7 O23 2.806181 1_565
Na8 O45 2.432728 1_555
Na8 O60 2.474329 1_555
Na8 O62 2.478585 1_555
Na8 O46 2.481109 1_565
Na8 O24 2.668138 1_554
Na8 O9 2.726415 1_555
Na8 O19 2.732807 1_555
Na8 O17 2.757872 1_555
Na9 O47 2.412216 1_555
Na9 O61 2.474349 1_555
Na9 O60 2.478939 1_555
Na9 O46 2.525815 1_455
Na9 O10 2.650437 1_555
Na9 O25 2.708099 1_554
Na9 O15 2.713108 1_455
Na9 O20 2.840417 1_455
Na10 O54 2.448068 1_555
Na10 O40 2.449047 1_655
Na10 O55 2.466703 1_555
Na10 O41 2.476671 1_555
Na10 O19 2.506062 1_556
Na10 O4 2.716810 1_555
Na10 O26 2.893981 1_655
Na10 O33 2.913071 1_655
Na11 O56 2.366496 1_555
Na11 O41 2.389400 1_545
Na11 O55 2.474558 1_555
Na11 O39 2.573363 1_655
Na11 O20 2.626437 1_556
Na11 O5 2.629695 1_555
Na11 O24 2.876627 1_545
Na11 O34 2.937018 1_545
Na12 O54 2.385530 1_555
Na12 O39 2.390384 1_555
Na12 O18 2.498758 1_556
Na12 O40 2.516284 1_545
Na12 O56 2.548803 1_555
Na12 O3 2.701671 1_555
Na12 O35 2.872337 1_555
Na12 O25 2.920515 1_555
Na13 O59 2.451718 1_555
Na13 O37 2.453861 1_545
Na13 O38 2.464201 1_655
Na13 O57 2.505779 1_555
Na13 O23 2.633671 1_555
Na13 O2 2.645095 1_555
Na13 O30 2.748680 1_655
Na13 O28 2.836482 1_655
Na14 O36 2.403608 1_545
Na14 O57 2.411824 1_555
Na14 O58 2.489638 1_555
Na14 O38 2.502880 1_555
Na14 O21 2.591190 1_555
Na14 O0 2.707151 1_555
Na14 O29 2.778373 1_545
Na14 O31 2.802774 1_545
Na15 O37 2.453932 1_555
Na15 O42 2.458344 1_565
Na15 O44 2.472850 1_555
Na15 O43 2.490322 1_665
Na15 O36 2.492049 1_655
Na15 O38 2.492995 1_665
Na16 O47 2.425869 1_565
Na16 O45 2.439377 1_455
Na16 O41 2.476151 1_454
Na16 O40 2.476753 1_554
Na16 O46 2.541230 1_465
Na16 O39 2.560876 1_564
Na17 O54 2.461996 1_555
Na17 O48 2.482425 1_555
Na17 O50 2.560661 1_555
Na17 O56 2.568727 1_555
Na17 O55 2.606680 1_555
Na17 O49 2.610303 1_555
Na18 O59 2.483019 1_555
Na18 O52 2.504616 1_555
Na18 O57 2.505681 1_555
Na18 O58 2.522421 1_555
Na18 O51 2.570840 1_555
Na18 O53 2.674854 1_555
Na19 O61 2.455848 1_555
Na19 O62 2.473646 1_555
Na19 O60 2.481532 1_555
Na19 O68 2.482887 1_555
Na19 O66 2.560568 1_555
Na19 O67 2.650485 1_555
Na20 O64 2.487286 1_555
Na20 O71 2.488248 1_555
Na20 O65 2.499463 1_555
Na20 O63 2.501435 1_555
Na20 O69 2.512375 1_555
Na20 O70 2.573083 1_555
Ge0 O2 1.841097 1_565
Ge0 O36 1.886392 1_655
Ge0 O37 1.886748 1_555
Ge0 O1 1.886858 1_555
Ge0 O0 2.001629 1_665
Ge0 O38 2.183942 1_665
Ge1 O6 1.852922 1_445
Ge1 O42 1.886888 1_455
Ge1 O43 1.890673 1_555
Ge1 O7 1.894969 1_555
Ge1 O8 2.006190 1_545
Ge1 O44 2.169930 1_445
Ge2 O10 1.837711 1_555
Ge2 O47 1.859486 1_555
Ge2 O45 1.863124 1_445
Ge2 O11 1.890991 1_545
Ge2 O9 1.974467 1_445
Ge2 O46 2.085006 1_455
Ge3 O21 1.881349 1_555
Ge3 O23 1.901015 1_555
Ge3 O59 1.901064 1_555
Ge3 O57 1.941806 1_555
Ge3 O22 1.962773 1_555
Ge3 O58 2.060479 1_555
Ge4 O24 1.844008 1_554
Ge4 O61 1.861648 1_555
Ge4 O60 1.909169 1_555
Ge4 O26 1.929380 1_554
Ge4 O25 1.970526 1_554
Ge4 O62 2.001062 1_555
Ge5 O27 1.860359 1_555
Ge5 O65 1.880772 1_555
Ge5 O29 1.910191 1_555
Ge5 O63 1.934003 1_555
Ge5 O28 1.976563 1_555
Ge5 O64 2.080783 1_555
O0 P0 1.557107 1_555
O1 P1 1.555858 1_555
O2 Si0 1.658636 1_555
O3 P2 1.534900 1_555
O3 Sc0 2.078632 1_445
O4 P3 1.537432 1_555
O4 Sc0 2.044660 1_555
O5 Si1 1.624371 1_555
O5 Sc0 1.958066 1_545
O6 Si1 1.667674 1_565
O7 P2 1.558927 1_555
O8 P3 1.563523 1_455
O9 P1 1.551525 1_555
O10 Si0 1.646700 1_455
O11 P0 1.552028 1_565
O12 Si2 1.619562 1_555
O12 Sc1 2.015992 1_555
O13 Si3 1.611499 1_555
O13 Sc1 1.995803 1_555
O14 P4 1.529301 1_555
O14 Sc1 2.087105 1_555
O15 Si4 1.633559 1_555
O15 Sc2 2.012986 1_555
O16 P5 1.534677 1_555
O16 Sc2 2.077523 1_555
O17 Si5 1.626843 1_555
O17 Sc2 2.045632 1_555
O18 Si5 1.609957 1_555
O18 Sc3 1.973567 1_554
O19 Si4 1.626416 1_555
O19 Sc3 2.032521 1_554
O20 P5 1.534439 1_555
O20 Sc3 2.120010 1_554
O21 Si3 1.641718 1_555
O22 P4 1.557613 1_555
O23 Si2 1.655010 1_555
O24 Si6 1.658198 1_555
O25 P6 1.558007 1_555
O26 P7 1.553051 1_555
O27 Si7 1.641073 1_555
O28 P8 1.555129 1_555
O29 Si8 1.653924 1_555
O30 Si8 1.624187 1_555
O30 Sc4 2.007567 1_555
O31 Si7 1.616450 1_555
O31 Sc4 2.029637 1_555
O32 P8 1.536247 1_555
O32 Sc4 2.061360 1_555
O33 P6 1.534492 1_555
O33 Sc5 2.082546 1_555
O34 P7 1.540942 1_555
O34 Sc5 2.044953 1_555
O35 Si6 1.622934 1_555
O35 Sc5 1.956506 1_555
O36 Si8 1.665875 1_555
O37 Si7 1.662985 1_555
O38 P8 1.574825 1_555
O39 P6 1.546252 1_555
O39 Sc0 2.152234 1_445
O40 P7 1.543438 1_555
O40 Sc0 2.208608 1_455
O41 Si6 1.634465 1_555
O41 Sc0 2.070917 1_555
O42 Si2 1.658661 1_555
O43 Si3 1.665410 1_555
O44 P4 1.577889 1_555
O45 Si4 1.648327 1_555
O46 P5 1.565568 1_555
O47 Si5 1.649958 1_555
O48 Si1 1.632398 1_555
O48 Sc1 2.075390 1_555
O49 P2 1.535740 1_555
O49 Sc1 2.187907 1_555
O50 P3 1.540169 1_555
O50 Sc1 2.200845 1_555
O51 P1 1.545193 1_555
O51 Sc2 2.195692 1_555
O52 Si0 1.636827 1_555
O52 Sc2 2.152635 1_555
O53 P0 1.541123 1_555
O53 Sc2 2.233583 1_555
O54 Si6 1.631760 1_555
O54 Sc3 2.065635 1_555
O55 P6 1.538591 1_655
O55 Sc3 2.187502 1_555
O56 P7 1.538988 1_545
O56 Sc3 2.208825 1_555
O57 Si7 1.672870 1_545
O58 P8 1.551816 1_555
O59 Si8 1.647108 1_655
O60 Si5 1.671551 1_555
O61 Si4 1.645970 1_455
O62 P5 1.554438 1_565
O63 Si3 1.669263 1_565
O64 P4 1.550816 1_555
O65 Si2 1.647150 1_455
O66 P0 1.546174 1_565
O66 Sc4 2.198649 1_555
O67 P1 1.539039 1_555
O67 Sc4 2.231469 1_555
O68 Si0 1.636364 1_455
O68 Sc4 2.152522 1_555
O69 P2 1.545430 1_555
O69 Sc5 2.157932 1_555
O70 P3 1.543873 1_455
O70 Sc5 2.204917 1_555
O71 Si1 1.635813 1_565
O71 Sc5 2.078659 1_555
