# generated using pymatgen
data_Ca2MnAs2(H2O5)2
_symmetry_space_group_name_H-M   'P 1'
_cell_length_a   13.16734400
_cell_length_b   5.79170600
_cell_length_c   5.95453537
_cell_angle_alpha   71.86912968
_cell_angle_beta   90.00000000
_cell_angle_gamma   90.00000000
_symmetry_Int_Tables_number   1
_chemical_formula_structural   Ca2MnAs2(H2O5)2
_chemical_formula_sum   'Ca4 Mn2 As4 H8 O20'
_cell_volume   431.55418028
_cell_formula_units_Z   2
loop_
 _symmetry_equiv_pos_site_id
 _symmetry_equiv_pos_as_xyz
  1  'x, y, z'
loop_
 _atom_site_type_symbol
 _atom_site_label
 _atom_site_symmetry_multiplicity
 _atom_site_fract_x
 _atom_site_fract_y
 _atom_site_fract_z
 _atom_site_occupancy
  Ca  Ca0  1  0.88000300  0.75839500  0.56874400  1
  Ca  Ca1  1  0.38000300  0.74160500  0.43125600  1
  Ca  Ca2  1  0.11999700  0.24160500  0.43125600  1
  Ca  Ca3  1  0.61999700  0.25839500  0.56874400  1
  Mn  Mn0  1  0.50000000  0.50000000  0.00000000  1
  Mn  Mn1  1  0.00000000  0.00000000  0.00000000  1
  As  As0  1  0.87785200  0.42874600  0.22393600  1
  As  As1  1  0.37785200  0.07125400  0.77606400  1
  As  As2  1  0.12214800  0.57125400  0.77606400  1
  As  As3  1  0.62214800  0.92874600  0.22393600  1
  H  H0  1  0.71042200  0.49858500  0.89392800  1
  H  H1  1  0.21042200  0.00141500  0.10607200  1
  H  H2  1  0.28957800  0.50141500  0.10607200  1
  H  H3  1  0.78957800  0.99858500  0.89392800  1
  H  H4  1  0.65592100  0.69492200  0.68381900  1
  H  H5  1  0.15592100  0.80507800  0.31618100  1
  H  H6  1  0.34407900  0.30507800  0.31618100  1
  H  H7  1  0.84407900  0.19492200  0.68381900  1
  O  O0  1  0.64310000  0.53165900  0.80372100  1
  O  O1  1  0.14310000  0.96834100  0.19627900  1
  O  O2  1  0.96188100  0.65126000  0.24729000  1
  O  O3  1  0.46188100  0.84874000  0.75271000  1
  O  O4  1  0.03811900  0.34874000  0.75271000  1
  O  O5  1  0.53811900  0.15126000  0.24729000  1
  O  O6  1  0.94573900  0.15824800  0.28826900  1
  O  O7  1  0.44573900  0.34175200  0.71173100  1
  O  O8  1  0.05426100  0.84175200  0.71173100  1
  O  O9  1  0.55426100  0.65824800  0.28826900  1
  O  O10  1  0.82524200  0.50209800  0.94980400  1
  O  O11  1  0.32524200  0.99790200  0.05019600  1
  O  O12  1  0.17475800  0.49790200  0.05019600  1
  O  O13  1  0.67475800  0.00209800  0.94980400  1
  O  O14  1  0.79342600  0.41737600  0.45018600  1
  O  O15  1  0.29342600  0.08262400  0.54981400  1
  O  O16  1  0.20657400  0.58262400  0.54981400  1
  O  O17  1  0.70657400  0.91737600  0.45018600  1
  O  O18  1  0.85690000  0.03165900  0.80372100  1
  O  O19  1  0.35690000  0.46834100  0.19627900  1
loop_
_geom_bond_atom_site_label_1
_geom_bond_atom_site_label_2
_geom_bond_distance
_geom_bond_site_symmetry_2
Ca0 O10 2.403252 1_555
Ca0 O18 2.435833 1_565
Ca0 O2 2.439335 1_555
Ca0 O17 2.481222 1_555
Ca0 O8 2.545313 1_655
Ca0 O6 2.548404 1_565
Ca0 O14 2.562556 1_555
Ca1 O11 2.403252 1_555
Ca1 O19 2.435833 1_555
Ca1 O3 2.439335 1_555
Ca1 O16 2.481222 1_555
Ca1 O9 2.545313 1_555
Ca1 O7 2.548404 1_555
Ca1 O15 2.562556 1_565
Ca2 O12 2.403252 1_555
Ca2 O1 2.435833 1_545
Ca2 O4 2.439335 1_555
Ca2 O15 2.481222 1_555
Ca2 O6 2.545313 1_455
Ca2 O8 2.548404 1_545
Ca2 O16 2.562556 1_555
Ca3 O13 2.403252 1_555
Ca3 O0 2.435833 1_555
Ca3 O5 2.439335 1_555
Ca3 O14 2.481222 1_555
Ca3 O7 2.545313 1_555
Ca3 O9 2.548404 1_555
Ca3 O17 2.562556 1_545
Mn0 O5 2.156090 1_555
Mn0 O3 2.156090 1_554
Mn0 O19 2.194677 1_555
Mn0 O0 2.194677 1_554
Mn0 O7 2.296961 1_554
Mn0 O9 2.296961 1_555
Mn1 O4 2.156090 1_554
Mn1 O2 2.156090 1_445
Mn1 O18 2.194677 1_454
Mn1 O1 2.194677 1_545
Mn1 O8 2.296961 1_544
Mn1 O6 2.296961 1_455
As0 O10 1.700959 1_554
As0 O14 1.732024 1_555
As0 O2 1.736641 1_555
As0 O6 1.739727 1_555
As1 O11 1.700959 1_546
As1 O15 1.732024 1_555
As1 O3 1.736641 1_545
As1 O7 1.739727 1_555
As2 O12 1.700959 1_556
As2 O16 1.732024 1_555
As2 O4 1.736641 1_555
As2 O8 1.739727 1_555
As3 O13 1.700959 1_564
As3 O17 1.732024 1_555
As3 O5 1.736641 1_565
As3 O9 1.739727 1_555
H0 O0 1.023217 1_555
H0 O10 1.549545 1_555
H1 O1 1.023217 1_545
H1 O11 1.549545 1_545
H2 O19 1.023217 1_555
H2 O12 1.549545 1_555
H3 O18 1.023217 1_565
H3 O13 1.549545 1_565
H4 O0 1.006070 1_555
H4 O17 1.710153 1_555
H5 O1 1.006070 1_555
H5 O16 1.710153 1_555
H6 O19 1.006070 1_555
H6 O15 1.710153 1_555
H7 O18 1.006070 1_555
H7 O14 1.710153 1_555
