# generated using pymatgen
data_Na4ScTiSi2PO12
_symmetry_space_group_name_H-M   'P 1'
_cell_length_a   9.09516615
_cell_length_b   9.09516584
_cell_length_c   22.07851800
_cell_angle_alpha   90.48814413
_cell_angle_beta   89.51185587
_cell_angle_gamma   119.96476398
_symmetry_Int_Tables_number   1
_chemical_formula_structural   Na4ScTiSi2PO12
_chemical_formula_sum   'Na24 Sc6 Ti6 Si12 P6 O72'
_cell_volume   1582.17631144
_cell_formula_units_Z   6
loop_
 _symmetry_equiv_pos_site_id
 _symmetry_equiv_pos_as_xyz
  1  'x, y, z'
loop_
 _atom_site_type_symbol
 _atom_site_label
 _atom_site_symmetry_multiplicity
 _atom_site_fract_x
 _atom_site_fract_y
 _atom_site_fract_z
 _atom_site_occupancy
  Na  Na0  1  0.63870316  0.00541514  0.25083808  1
  Na  Na1  1  0.37164424  0.37016349  0.24664978  1
  Na  Na2  1  0.99075311  0.62553879  0.24940824  1
  Na  Na3  1  0.62983651  0.62835576  0.74664978  1
  Na  Na4  1  0.99458486  0.36129684  0.75083808  1
  Na  Na5  1  0.37446121  0.00924689  0.74940824  1
  Na  Na6  1  0.30537016  0.33874814  0.58417108  1
  Na  Na7  1  0.03831124  0.70349649  0.57998278  1
  Na  Na8  1  0.65742011  0.95887179  0.58274124  1
  Na  Na9  1  0.29650351  0.96168876  0.07998278  1
  Na  Na10  1  0.66125186  0.69462984  0.08417108  1
  Na  Na11  1  0.04112821  0.34257989  0.08274124  1
  Na  Na12  1  0.97203616  0.67208214  0.91750508  1
  Na  Na13  1  0.70497724  0.03683049  0.91331678  1
  Na  Na14  1  0.32408611  0.29220579  0.91607524  1
  Na  Na15  1  0.96316951  0.29502276  0.41331678  1
  Na  Na16  1  0.32791786  0.02796384  0.41750508  1
  Na  Na17  1  0.70779421  0.67591389  0.41607524  1
  Na  Na18  1  0.99574574  0.99267020  0.49907786  1
  Na  Na19  1  0.00732980  0.00425426  0.99907786  1
  Na  Na20  1  0.66241274  0.32600320  0.83241086  1
  Na  Na21  1  0.67399680  0.33758726  0.33241086  1
  Na  Na22  1  0.32907874  0.65933720  0.16574486  1
  Na  Na23  1  0.34066280  0.67092126  0.66574486  1
  Sc  Sc0  1  0.99397658  0.99614220  0.35135387  1
  Sc  Sc1  1  0.00385780  0.00602342  0.85135387  1
  Sc  Sc2  1  0.66064358  0.32947520  0.68468687  1
  Sc  Sc3  1  0.67052480  0.33935642  0.18468687  1
  Sc  Sc4  1  0.32730958  0.66280920  0.01802087  1
  Sc  Sc5  1  0.33719080  0.67269042  0.51802087  1
  Ti  Ti0  1  0.99831165  0.00004767  0.64886656  1
  Ti  Ti1  1  -0.00004767  0.00168835  0.14886656  1
  Ti  Ti2  1  0.66497865  0.33338067  0.98219956  1
  Ti  Ti3  1  0.66661933  0.33502135  0.48219956  1
  Ti  Ti4  1  0.33164465  0.66671467  0.31553356  1
  Ti  Ti5  1  0.33328533  0.66835535  0.81553356  1
  Si  Si0  1  0.70230339  0.70727636  0.25060449  1
  Si  Si1  1  0.00367798  0.29623788  0.25123513  1
  Si  Si2  1  0.29272364  0.29769661  0.75060449  1
  Si  Si3  1  0.70376212  0.99632202  0.75123513  1
  Si  Si4  1  0.36897039  0.04060936  0.58393749  1
  Si  Si5  1  0.67034498  0.62957088  0.58456813  1
  Si  Si6  1  0.95939064  0.63102961  0.08393749  1
  Si  Si7  1  0.37042912  0.32965502  0.08456813  1
  Si  Si8  1  0.03563639  0.37394336  0.91727149  1
  Si  Si9  1  0.33701098  0.96290488  0.91790213  1
  Si  Si10  1  0.62605664  0.96436361  0.41727149  1
  Si  Si11  1  0.03709512  0.66298902  0.41790213  1
  P  P0  1  0.28867838  0.99454012  0.24983277  1
  P  P1  1  0.00545988  0.71132162  0.74983277  1
  P  P2  1  0.95534538  0.32787312  0.58316577  1
  P  P3  1  0.67212688  0.04465462  0.08316577  1
  P  P4  1  0.62201138  0.66120712  0.91649977  1
  P  P5  1  0.33879288  0.37798862  0.41649977  1
  O  O0  1  0.21306250  0.02592777  0.30710067  1
  O  O1  1  0.82005261  0.78764549  0.30982993  1
  O  O2  1  0.97647139  0.18327068  0.31064941  1
  O  O3  1  0.21235451  0.17994739  0.80982993  1
  O  O4  1  0.97407223  0.78693750  0.80710067  1
  O  O5  1  0.81672932  0.02352861  0.81064941  1
  O  O6  1  0.80485932  0.96884337  0.69168012  1
  O  O7  1  0.16409512  0.19403553  0.69198252  1
  O  O8  1  0.02849235  0.82679062  0.69381915  1
  O  O9  1  0.80596447  0.83590488  0.19198252  1
  O  O10  1  0.03115663  0.19514068  0.19168012  1
  O  O11  1  0.17320938  0.97150765  0.19381915  1
  O  O12  1  0.87972950  0.35926077  0.64043367  1
  O  O13  1  0.48671961  0.12097849  0.64316293  1
  O  O14  1  0.64313839  0.51660368  0.64398241  1
  O  O15  1  0.87902151  0.51328039  0.14316293  1
  O  O16  1  0.64073923  0.12027050  0.14043367  1
  O  O17  1  0.48339632  0.35686161  0.14398241  1
  O  O18  1  0.47152632  0.30217637  0.02501312  1
  O  O19  1  0.83076212  0.52736853  0.02531552  1
  O  O20  1  0.69515935  0.16012362  0.02715215  1
  O  O21  1  0.47263147  0.16923788  0.52531552  1
  O  O22  1  0.69782363  0.52847368  0.52501312  1
  O  O23  1  0.83987638  0.30484065  0.52715215  1
  O  O24  1  0.54639550  0.69259477  0.97376767  1
  O  O25  1  0.15338561  0.45431249  0.97649693  1
  O  O26  1  0.30980439  0.84993768  0.97731641  1
  O  O27  1  0.54568751  0.84661439  0.47649693  1
  O  O28  1  0.30740523  0.45360450  0.47376767  1
  O  O29  1  0.15006232  0.69019561  0.47731641  1
  O  O30  1  0.13819232  0.63551037  0.35834712  1
  O  O31  1  0.49742812  0.86070253  0.35864952  1
  O  O32  1  0.36182535  0.49345762  0.36048615  1
  O  O33  1  0.13929747  0.50257188  0.85864952  1
  O  O34  1  0.36448963  0.86180768  0.85834712  1
  O  O35  1  0.50654238  0.63817465  0.86048615  1
  O  O36  1  0.01973179  0.83218360  0.41310565  1
  O  O37  1  0.81739573  0.99240129  0.41295334  1
  O  O38  1  0.18513611  0.19690155  0.41012437  1
  O  O39  1  0.00759871  0.18260427  0.91295334  1
  O  O40  1  0.16781640  0.98026821  0.91310565  1
  O  O41  1  0.80309845  0.81486389  0.91012437  1
  O  O42  1  0.96471165  0.16143839  0.58608489  1
  O  O43  1  0.18353583  0.03228257  0.58757932  1
  O  O44  1  0.84554960  0.81713549  0.58722384  1
  O  O45  1  0.96771743  0.81646417  0.08757932  1
  O  O46  1  0.83856161  0.03528835  0.08608489  1
  O  O47  1  0.18286451  0.15445040  0.08722384  1
  O  O48  1  0.68639879  0.16551660  0.74643865  1
  O  O49  1  0.48406273  0.32573429  0.74628634  1
  O  O50  1  0.85180311  0.53023455  0.74345737  1
  O  O51  1  0.67426571  0.51593727  0.24628634  1
  O  O52  1  0.83448340  0.31360121  0.24643865  1
  O  O53  1  0.46976545  0.14819689  0.24345737  1
  O  O54  1  0.63137865  0.49477139  0.91941789  1
  O  O55  1  0.85020283  0.36561557  0.92091232  1
  O  O56  1  0.51221660  0.15046849  0.92055684  1
  O  O57  1  0.63438443  0.14979717  0.42091232  1
  O  O58  1  0.50522861  0.36862135  0.41941789  1
  O  O59  1  0.84953151  0.48778340  0.42055684  1
  O  O60  1  0.35306479  0.49885060  0.07977265  1
  O  O61  1  0.15072873  0.65906829  0.07962034  1
  O  O62  1  0.51846911  0.86356855  0.07679137  1
  O  O63  1  0.34093171  0.84927127  0.57962034  1
  O  O64  1  0.50114940  0.64693521  0.57977265  1
  O  O65  1  0.13643145  0.48153089  0.57679137  1
  O  O66  1  0.29804465  0.82810539  0.25275189  1
  O  O67  1  0.51686883  0.69894957  0.25424632  1
  O  O68  1  0.17888260  0.48380249  0.25389084  1
  O  O69  1  0.30105043  0.48313117  0.75424632  1
  O  O70  1  0.17189461  0.70195535  0.75275189  1
  O  O71  1  0.51619751  0.82111740  0.75389084  1
loop_
_geom_bond_atom_site_label_1
_geom_bond_atom_site_label_2
_geom_bond_distance
_geom_bond_site_symmetry_2
Na0 O67 2.433037 1_545
Na0 O52 2.460248 1_555
Na0 O53 2.464744 1_555
Na0 O16 2.656429 1_555
Na0 O66 2.685122 1_545
Na0 O31 2.713144 1_545
Na0 O9 2.941902 1_545
Na0 O2 2.977696 1_555
Na1 O51 2.384962 1_555
Na1 O68 2.443368 1_555
Na1 O17 2.502947 1_555
Na1 O53 2.583270 1_555
Na1 O67 2.600898 1_555
Na1 O32 2.762341 1_555
Na2 O52 2.458450 1_555
Na2 O66 2.463447 1_655
Na2 O51 2.533789 1_555
Na2 O15 2.557537 1_555
Na2 O68 2.609185 1_655
Na2 O30 2.742489 1_655
Na2 O1 2.929446 1_555
Na2 O11 2.996071 1_655
Na3 O49 2.384962 1_555
Na3 O71 2.443368 1_555
Na3 O14 2.502947 1_555
Na3 O50 2.583270 1_555
Na3 O69 2.600898 1_555
Na3 O35 2.762341 1_555
Na4 O69 2.433037 1_655
Na4 O48 2.460248 1_555
Na4 O50 2.464744 1_555
Na4 O12 2.656429 1_555
Na4 O70 2.685122 1_655
Na4 O33 2.713144 1_655
Na4 O7 2.941902 1_655
Na4 O5 2.977696 1_555
Na5 O48 2.458450 1_555
Na5 O70 2.463447 1_545
Na5 O49 2.533789 1_555
Na5 O13 2.557537 1_555
Na5 O71 2.609185 1_545
Na5 O34 2.742489 1_545
Na5 O3 2.929446 1_555
Na5 O8 2.996071 1_545
Na6 O43 2.433037 1_555
Na6 O64 2.460253 1_555
Na6 O65 2.464758 1_555
Na6 O28 2.656414 1_555
Na6 O42 2.685122 1_455
Na6 O7 2.713144 1_555
Na6 O21 2.941902 1_555
Na6 O14 2.977696 1_555
Na7 O63 2.384953 1_555
Na7 O44 2.443368 1_455
Na7 O29 2.502921 1_555
Na7 O65 2.583254 1_555
Na7 O43 2.600898 1_565
Na7 O8 2.762341 1_555
Na8 O64 2.458441 1_555
Na8 O42 2.463447 1_565
Na8 O63 2.533799 1_555
Na8 O27 2.557517 1_555
Na8 O44 2.609185 1_555
Na8 O6 2.742489 1_555
Na8 O13 2.929446 1_565
Na8 O23 2.996071 1_565
Na9 O61 2.384953 1_555
Na9 O47 2.443368 1_565
Na9 O26 2.502921 1_554
Na9 O62 2.583254 1_555
Na9 O45 2.600898 1_455
Na9 O11 2.762341 1_555
Na10 O45 2.433037 1_555
Na10 O60 2.460253 1_555
Na10 O62 2.464758 1_555
Na10 O24 2.656414 1_554
Na10 O46 2.685122 1_565
Na10 O9 2.713144 1_555
Na10 O19 2.941902 1_555
Na10 O17 2.977696 1_555
Na11 O60 2.458441 1_555
Na11 O46 2.463447 1_455
Na11 O61 2.533799 1_555
Na11 O25 2.557517 1_554
Na11 O47 2.609185 1_555
Na11 O10 2.742489 1_555
Na11 O15 2.929446 1_455
Na11 O20 2.996071 1_455
Na12 O55 2.433046 1_555
Na12 O40 2.460248 1_655
Na12 O41 2.464744 1_555
Na12 O4 2.656429 1_555
Na12 O54 2.685114 1_555
Na12 O19 2.713125 1_556
Na12 O33 2.941902 1_655
Na12 O26 2.977696 1_655
Na13 O39 2.384962 1_655
Na13 O56 2.443351 1_555
Na13 O5 2.502947 1_555
Na13 O41 2.583270 1_545
Na13 O55 2.600888 1_555
Na13 O20 2.762315 1_556
Na14 O40 2.458450 1_545
Na14 O54 2.463452 1_555
Na14 O39 2.533789 1_555
Na14 O3 2.557537 1_555
Na14 O56 2.609199 1_555
Na14 O18 2.742476 1_556
Na14 O25 2.929446 1_555
Na14 O35 2.996071 1_555
Na15 O37 2.384962 1_545
Na15 O59 2.443351 1_555
Na15 O2 2.502947 1_555
Na15 O38 2.583270 1_655
Na15 O57 2.600888 1_555
Na15 O23 2.762315 1_555
Na16 O57 2.433046 1_555
Na16 O36 2.460248 1_545
Na16 O38 2.464744 1_555
Na16 O0 2.656429 1_555
Na16 O58 2.685114 1_555
Na16 O21 2.713125 1_555
Na16 O31 2.941902 1_545
Na16 O29 2.977696 1_545
Na17 O36 2.458450 1_655
Na17 O58 2.463452 1_555
Na17 O37 2.533789 1_555
Na17 O1 2.557537 1_555
Na17 O59 2.609199 1_555
Na17 O22 2.742476 1_555
Na17 O27 2.929446 1_555
Na17 O32 2.996071 1_555
Na18 O44 2.455900 1_555
Na18 O36 2.458646 1_655
Na18 O43 2.509028 1_665
Na18 O37 2.509086 1_555
Na18 O42 2.549377 1_565
Na18 O38 2.661378 1_665
Na19 O47 2.455900 1_556
Na19 O40 2.458646 1_545
Na19 O45 2.509028 1_446
Na19 O39 2.509086 1_555
Na19 O46 2.549377 1_456
Na19 O41 2.661378 1_445
Na20 O56 2.455900 1_555
Na20 O48 2.458646 1_555
Na20 O55 2.509028 1_555
Na20 O49 2.509086 1_555
Na20 O54 2.549377 1_555
Na20 O50 2.661378 1_555
Na21 O59 2.455900 1_555
Na21 O52 2.458646 1_555
Na21 O57 2.509028 1_555
Na21 O51 2.509086 1_555
Na21 O58 2.549377 1_555
Na21 O53 2.661378 1_555
Na22 O68 2.455900 1_555
Na22 O60 2.458646 1_555
Na22 O67 2.509028 1_555
Na22 O61 2.509086 1_555
Na22 O66 2.549377 1_555
Na22 O62 2.661378 1_555
Na23 O71 2.455900 1_555
Na23 O64 2.458646 1_555
Na23 O69 2.509028 1_555
Na23 O63 2.509086 1_555
Na23 O70 2.549377 1_555
Na23 O65 2.661378 1_555
O0 P0 1.525884 1_545
O0 Sc0 2.104912 1_445
O1 Si0 1.617612 1_555
O1 Sc0 1.984281 1_555
O2 Si1 1.612800 1_655
O2 Sc0 2.007204 1_545
O3 Si2 1.617612 1_555
O3 Sc1 1.984281 1_555
O4 P1 1.525884 1_655
O4 Sc1 2.104912 1_665
O5 Si3 1.612800 1_545
O5 Sc1 2.007204 1_655
O6 Si3 1.685295 1_555
O6 Ti0 1.883413 1_565
O7 Si2 1.684020 1_555
O7 Ti0 1.905518 1_455
O8 P1 1.572957 1_555
O8 Ti0 2.001728 1_465
O9 Si0 1.684020 1_555
O9 Ti1 1.905518 1_665
O10 Si1 1.685295 1_555
O10 Ti1 1.883413 1_555
O11 P0 1.572957 1_555
O11 Ti1 2.001728 1_565
O12 P2 1.525884 1_555
O12 Sc2 2.104912 1_555
O13 Si4 1.617612 1_555
O13 Sc2 1.984281 1_555
O14 Si5 1.612800 1_555
O14 Sc2 2.007204 1_555
O15 Si6 1.617612 1_555
O15 Sc3 1.984281 1_555
O16 P3 1.525884 1_555
O16 Sc3 2.104912 1_555
O17 Si7 1.612800 1_555
O17 Sc3 2.007204 1_555
O18 Si7 1.685295 1_555
O18 Ti2 1.883413 1_554
O19 Si6 1.684020 1_555
O19 Ti2 1.905518 1_554
O20 P3 1.572957 1_555
O20 Ti2 2.001728 1_554
O21 Si4 1.684020 1_555
O21 Ti3 1.905518 1_555
O22 Si5 1.685295 1_555
O22 Ti3 1.883413 1_555
O23 P2 1.572957 1_555
O23 Ti3 2.001728 1_555
O24 P4 1.525884 1_555
O24 Sc4 2.104912 1_556
O25 Si8 1.617612 1_555
O25 Sc4 1.984281 1_556
O26 Si9 1.612800 1_555
O26 Sc4 2.007204 1_556
O27 Si10 1.617612 1_555
O27 Sc5 1.984281 1_555
O28 P5 1.525884 1_555
O28 Sc5 2.104912 1_555
O29 Si11 1.612800 1_555
O29 Sc5 2.007204 1_555
O30 Si11 1.685295 1_555
O30 Ti4 1.883413 1_555
O31 Si10 1.684020 1_555
O31 Ti4 1.905518 1_555
O32 P5 1.572957 1_555
O32 Ti4 2.001728 1_555
O33 Si8 1.684020 1_555
O33 Ti5 1.905518 1_555
O34 Si9 1.685295 1_555
O34 Ti5 1.883413 1_555
O35 P4 1.572957 1_555
O35 Ti5 2.001728 1_555
O36 Si11 1.627896 1_555
O36 Sc0 2.127557 1_455
O37 Si10 1.630002 1_555
O37 Sc0 2.083063 1_555
O38 P5 1.544562 1_555
O38 Sc0 2.206214 1_445
O39 Si8 1.630002 1_555
O39 Sc1 2.083063 1_555
O40 Si9 1.627896 1_555
O40 Sc1 2.127557 1_565
O41 P4 1.544562 1_555
O41 Sc1 2.206214 1_665
O42 P2 1.559944 1_555
O42 Ti0 2.158560 1_555
O43 Si4 1.651326 1_555
O43 Ti0 2.056571 1_455
O44 Si5 1.654475 1_555
O44 Ti0 2.057909 1_565
O45 Si6 1.651326 1_555
O45 Ti1 2.056571 1_665
O46 P3 1.559944 1_555
O46 Ti1 2.158560 1_655
O47 Si7 1.654475 1_555
O47 Ti1 2.057909 1_555
O48 Si3 1.627896 1_545
O48 Sc2 2.127557 1_555
O49 Si2 1.630002 1_555
O49 Sc2 2.083063 1_555
O50 P1 1.544562 1_655
O50 Sc2 2.206214 1_555
O51 Si0 1.630002 1_555
O51 Sc3 2.083063 1_555
O52 Si1 1.627896 1_655
O52 Sc3 2.127557 1_555
O53 P0 1.544562 1_545
O53 Sc3 2.206214 1_555
O54 P4 1.559957 1_555
O54 Ti2 2.158560 1_555
O55 Si8 1.651312 1_655
O55 Ti2 2.056571 1_555
O56 Si9 1.654473 1_545
O56 Ti2 2.057909 1_555
O57 Si10 1.651312 1_545
O57 Ti3 2.056571 1_555
O58 P5 1.559957 1_555
O58 Ti3 2.158560 1_555
O59 Si11 1.654473 1_655
O59 Ti3 2.057909 1_555
O60 Si7 1.627908 1_555
O60 Sc4 2.127557 1_555
O61 Si6 1.629988 1_455
O61 Sc4 2.083063 1_555
O62 P3 1.544558 1_565
O62 Sc4 2.206214 1_555
O63 Si4 1.629988 1_565
O63 Sc5 2.083063 1_555
O64 Si5 1.627908 1_555
O64 Sc5 2.127557 1_555
O65 P2 1.544558 1_455
O65 Sc5 2.206214 1_555
O66 P0 1.559944 1_555
O66 Ti4 2.158560 1_555
O67 Si0 1.651326 1_555
O67 Ti4 2.056571 1_555
O68 Si1 1.654475 1_555
O68 Ti4 2.057909 1_555
O69 Si2 1.651326 1_555
O69 Ti5 2.056571 1_555
O70 P1 1.559944 1_555
O70 Ti5 2.158560 1_555
O71 Si3 1.654475 1_555
O71 Ti5 2.057909 1_555
