# generated using pymatgen
data_MgMn5Cr(PO4)6
_symmetry_space_group_name_H-M   'P 1'
_cell_length_a   9.07106586
_cell_length_b   8.74353274
_cell_length_c   8.66916269
_cell_angle_alpha   60.14810528
_cell_angle_beta   59.46381119
_cell_angle_gamma   58.90160583
_symmetry_Int_Tables_number   1
_chemical_formula_structural   MgMn5Cr(PO4)6
_chemical_formula_sum   'Mg1 Mn5 Cr1 P6 O24'
_cell_volume   480.59689190
_cell_formula_units_Z   1
loop_
 _symmetry_equiv_pos_site_id
 _symmetry_equiv_pos_as_xyz
  1  'x, y, z'
loop_
 _atom_site_type_symbol
 _atom_site_label
 _atom_site_symmetry_multiplicity
 _atom_site_fract_x
 _atom_site_fract_y
 _atom_site_fract_z
 _atom_site_occupancy
  Mg  Mg0  1  0.13645800  0.62710700  0.60778100  1
  Mn  Mn0  1  0.99502900  0.99237100  0.00510000  1
  Mn  Mn1  1  0.76707300  0.74975700  0.76713200  1
  Mn  Mn2  1  0.52667300  0.49800200  0.49375700  1
  Mn  Mn3  1  0.39732200  0.85913500  0.86005700  1
  Mn  Mn4  1  0.96486800  0.34730300  0.34860300  1
  Cr  Cr0  1  0.57351200  0.13886400  0.14195600  1
  P  P0  1  0.26780800  0.24312100  0.53830800  1
  P  P1  1  0.27968100  0.95424100  0.23773800  1
  P  P2  1  0.25847100  0.52984300  0.96033000  1
  P  P3  1  0.74972300  0.44512000  0.05080900  1
  P  P4  1  0.77370500  0.05404600  0.73400500  1
  P  P5  1  0.76726200  0.74582500  0.44741300  1
  O  O0  1  0.10215500  0.09765100  0.32766100  1
  O  O1  1  0.08551500  0.47633900  0.09599100  1
  O  O2  1  0.08806000  0.32337600  0.50608400  1
  O  O3  1  0.23088600  0.08208400  0.74050000  1
  O  O4  1  0.43544800  0.15025600  0.39562300  1
  O  O5  1  0.30639900  0.38696900  0.55287000  1
  O  O6  1  0.23913700  0.95145900  0.08156500  1
  O  O7  1  0.31085800  0.75568000  0.38815700  1
  O  O8  1  0.58852300  0.62836300  0.98321000  1
  O  O9  1  0.29880100  0.54525800  0.75716400  1
  O  O10  1  0.76126700  0.25923800  0.06195200  1
  O  O11  1  0.61015700  0.00443100  0.77632500  1
  O  O12  1  0.45010000  0.00325300  0.15185900  1
  O  O13  1  0.21116100  0.72959500  0.96104700  1
  O  O14  1  0.73337200  0.43990000  0.23587500  1
  O  O15  1  0.42777400  0.39095400  0.01854200  1
  O  O16  1  0.76846600  0.23871300  0.56978700  1
  O  O17  1  0.77516500  0.06733100  0.90280500  1
  O  O18  1  0.76635900  0.57828600  0.42873500  1
  O  O19  1  0.59436700  0.79450100  0.62060700  1
  O  O20  1  0.77068900  0.90824800  0.25609900  1
  O  O21  1  0.92909500  0.70407700  0.49689000  1
  O  O22  1  0.91733000  0.49834500  0.87701900  1
  O  O23  1  0.93820800  0.87127400  0.69095900  1
loop_
_geom_bond_atom_site_label_1
_geom_bond_atom_site_label_2
_geom_bond_distance
_geom_bond_site_symmetry_2
Mg0 O5 1.979210 1_555
Mg0 O7 2.009271 1_555
Mg0 O9 2.069896 1_555
Mg0 O23 2.135536 1_455
Mg0 O21 2.191115 1_455
Mg0 O22 2.376486 1_455
Mn0 O13 2.174381 1_654
Mn0 O20 2.206872 1_555
Mn0 O17 2.249876 1_564
Mn0 O10 2.270586 1_565
Mn0 O3 2.325904 1_664
Mn0 O6 2.430607 1_655
Mn1 O22 1.933148 1_555
Mn1 O11 1.943712 1_565
Mn1 O23 1.984565 1_555
Mn1 O8 1.993065 1_555
Mn1 O21 2.152772 1_555
Mn1 O19 2.261687 1_555
Mn2 O14 2.158425 1_555
Mn2 O9 2.217753 1_555
Mn2 O7 2.226695 1_555
Mn2 O16 2.286833 1_555
Mn2 O18 2.339870 1_555
Mn2 O5 2.380267 1_555
Mn3 O3 1.921482 1_565
Mn3 O6 1.986140 1_556
Mn3 O19 2.043851 1_555
Mn3 O8 2.083564 1_555
Mn3 O13 2.094588 1_555
Mn3 O11 2.461657 1_565
Mn4 O1 1.909671 1_655
Mn4 O0 1.924905 1_655
Mn4 O18 2.042714 1_555
Mn4 O2 2.044707 1_655
Mn4 O16 2.053249 1_555
Mn4 O14 2.358295 1_555
Cr0 O4 1.924819 1_555
Cr0 O15 1.957083 1_555
Cr0 O12 1.959272 1_555
Cr0 O17 2.071440 1_554
Cr0 O20 2.081021 1_545
Cr0 O10 2.100987 1_555
O0 P1 1.544274 1_545
O1 P2 1.548849 1_554
O2 P0 1.521437 1_555
O3 P0 1.612690 1_555
O4 P0 1.521432 1_555
O5 P0 1.542137 1_555
O6 P1 1.586466 1_555
O7 P1 1.551873 1_555
O8 P3 1.601412 1_556
O9 P2 1.553693 1_555
O10 P3 1.529691 1_555
O11 P4 1.573859 1_555
O12 P1 1.524759 1_545
O13 P2 1.571122 1_555
O14 P3 1.513395 1_555
O15 P2 1.529323 1_554
O16 P4 1.528784 1_555
O17 P4 1.531527 1_555
O18 P5 1.556292 1_555
O19 P5 1.564914 1_555
O20 P5 1.554646 1_555
O21 P5 1.550051 1_555
O22 P3 1.582169 1_556
O23 P4 1.576143 1_565
