# generated using pymatgen
data_Na9TaZn5P6(SO12)3
_symmetry_space_group_name_H-M   'P 1'
_cell_length_a   9.03222621
_cell_length_b   9.03222590
_cell_length_c   22.09960201
_cell_angle_alpha   90.22258093
_cell_angle_beta   89.77741908
_cell_angle_gamma   120.14819756
_symmetry_Int_Tables_number   1
_chemical_formula_structural   Na9TaZn5P6(SO12)3
_chemical_formula_sum   'Na18 Ta2 Zn10 P12 S6 O72'
_cell_volume   1559.01333910
_cell_formula_units_Z   2
loop_
 _symmetry_equiv_pos_site_id
 _symmetry_equiv_pos_as_xyz
  1  'x, y, z'
loop_
 _atom_site_type_symbol
 _atom_site_label
 _atom_site_symmetry_multiplicity
 _atom_site_fract_x
 _atom_site_fract_y
 _atom_site_fract_z
 _atom_site_occupancy
  Na  Na0  1  0.36174600  0.34973118  0.24708202  1
  Na  Na1  1  0.65026882  0.63825400  0.74708202  1
  Na  Na2  1  0.03246951  0.70190641  0.58601864  1
  Na  Na3  1  0.66636030  0.96594455  0.58540938  1
  Na  Na4  1  0.29809359  0.96753049  0.08601864  1
  Na  Na5  1  0.03405545  0.33363970  0.08540938  1
  Na  Na6  1  0.96045593  0.67097091  0.91351980  1
  Na  Na7  1  0.70833410  0.03583252  0.91337619  1
  Na  Na8  1  0.32877989  0.29019875  0.91238697  1
  Na  Na9  1  0.96416748  0.29166590  0.41337619  1
  Na  Na10  1  0.32902909  0.03954407  0.41351980  1
  Na  Na11  1  0.70980125  0.67122011  0.41238697  1
  Na  Na12  1  0.01370237  0.01516101  0.49858473  1
  Na  Na13  1  0.98483899  0.98629763  0.99858473  1
  Na  Na14  1  0.66630795  0.32140861  0.82697007  1
  Na  Na15  1  0.67859139  0.33369205  0.32697007  1
  Na  Na16  1  0.35041112  0.68068091  0.16299662  1
  Na  Na17  1  0.31931909  0.64958888  0.66299662  1
  Ta  Ta0  1  0.33322788  0.67037030  0.31315205  1
  Ta  Ta1  1  0.32962970  0.66677212  0.81315205  1
  Zn  Zn0  1  0.99616818  0.99685053  0.34243269  1
  Zn  Zn1  1  0.00314947  0.00383182  0.84243269  1
  Zn  Zn2  1  0.00882481  0.00844409  0.66499259  1
  Zn  Zn3  1  0.99155591  0.99117519  0.16499259  1
  Zn  Zn4  1  0.66296693  0.32318077  0.68844929  1
  Zn  Zn5  1  0.67681923  0.33703307  0.18844929  1
  Zn  Zn6  1  0.66738771  0.33669090  0.98112212  1
  Zn  Zn7  1  0.66330910  0.33261229  0.48112212  1
  Zn  Zn8  1  0.33811617  0.66817934  0.00944303  1
  Zn  Zn9  1  0.33182066  0.66188383  0.50944303  1
  P  P0  1  0.29810411  0.00071164  0.24948819  1
  P  P1  1  0.70229522  0.70101061  0.25215861  1
  P  P2  1  0.99875906  0.29724726  0.25087641  1
  P  P3  1  0.29898939  0.29770478  0.75215861  1
  P  P4  1  0.99928836  0.70189589  0.74948819  1
  P  P5  1  0.70275274  0.00124094  0.75087641  1
  P  P6  1  0.62814003  0.66866962  0.91700506  1
  P  P7  1  0.03909907  0.37123313  0.92008364  1
  P  P8  1  0.33139114  0.96023881  0.92008787  1
  P  P9  1  0.62876687  0.96090093  0.42008364  1
  P  P10  1  0.33133038  0.37185997  0.41700506  1
  P  P11  1  0.03976119  0.66860886  0.42008787  1
  S  S0  1  0.96126829  0.33248116  0.58236313  1
  S  S1  1  0.36937931  0.03856074  0.58223076  1
  S  S2  1  0.66600085  0.63037337  0.58321146  1
  S  S3  1  0.96143926  0.63062069  0.08223076  1
  S  S4  1  0.66751884  0.03873171  0.08236313  1
  S  S5  1  0.36962663  0.33399915  0.08321146  1
  O  O0  1  0.21577678  0.02800118  0.30632649  1
  O  O1  1  0.80116229  0.77606388  0.31115007  1
  O  O2  1  0.98033802  0.19574337  0.30863503  1
  O  O3  1  0.22393612  0.19883771  0.81115007  1
  O  O4  1  0.97199882  0.78422322  0.80632649  1
  O  O5  1  0.80425663  0.01966198  0.80863503  1
  O  O6  1  0.77262136  0.95534521  0.69391783  1
  O  O7  1  0.18826443  0.22497989  0.69638743  1
  O  O8  1  0.03506392  0.80818658  0.69149729  1
  O  O9  1  0.77502011  0.81173557  0.19638743  1
  O  O10  1  0.04465479  0.22737864  0.19391783  1
  O  O11  1  0.19181342  0.96493608  0.19149729  1
  O  O12  1  0.87316052  0.35667847  0.63448021  1
  O  O13  1  0.47988016  0.12819735  0.63398987  1
  O  O14  1  0.65151393  0.53191892  0.63795111  1
  O  O15  1  0.87180265  0.52011984  0.13398987  1
  O  O16  1  0.64332153  0.12683948  0.13448021  1
  O  O17  1  0.46808108  0.34848607  0.13795111  1
  O  O18  1  0.45199838  0.31396313  0.02732537  1
  O  O19  1  0.86932570  0.55412503  0.02422388  1
  O  O20  1  0.69096060  0.13788931  0.02495857  1
  O  O21  1  0.44587497  0.13067430  0.52422388  1
  O  O22  1  0.68603687  0.54800162  0.52732537  1
  O  O23  1  0.86211069  0.30903940  0.52495857  1
  O  O24  1  0.54840702  0.70102139  0.97246812  1
  O  O25  1  0.14187890  0.44761561  0.97823242  1
  O  O26  1  0.30244969  0.85662129  0.97811550  1
  O  O27  1  0.55238439  0.85812110  0.47823242  1
  O  O28  1  0.29897861  0.45159298  0.47246812  1
  O  O29  1  0.14337871  0.69755031  0.47811550  1
  O  O30  1  0.14535957  0.64921026  0.36566816  1
  O  O31  1  0.50437535  0.85391733  0.36587406  1
  O  O32  1  0.35142394  0.48869895  0.36010110  1
  O  O33  1  0.14608267  0.49562465  0.86587406  1
  O  O34  1  0.35078974  0.85464043  0.86566816  1
  O  O35  1  0.51130105  0.64857606  0.86010110  1
  O  O36  1  0.02024777  0.82691135  0.41161154  1
  O  O37  1  0.80769588  0.98185720  0.41183965  1
  O  O38  1  0.17410797  0.19028390  0.41005387  1
  O  O39  1  0.01814280  0.19230412  0.91183965  1
  O  O40  1  0.17308865  0.97975223  0.91161154  1
  O  O41  1  0.80971610  0.82589203  0.91005387  1
  O  O42  1  0.97449666  0.17514510  0.58790922  1
  O  O43  1  0.19367903  0.01364856  0.58676776  1
  O  O44  1  0.82518150  0.80534037  0.58526271  1
  O  O45  1  0.98635144  0.80632097  0.08676776  1
  O  O46  1  0.82485490  0.02550334  0.08790922  1
  O  O47  1  0.19465963  0.17481850  0.08526271  1
  O  O48  1  0.67264410  0.15157342  0.74491296  1
  O  O49  1  0.48651128  0.33940168  0.74604795  1
  O  O50  1  0.84042727  0.52178895  0.74425744  1
  O  O51  1  0.66059832  0.51348872  0.24604795  1
  O  O52  1  0.84842658  0.32735590  0.24491296  1
  O  O53  1  0.47821105  0.15957273  0.24425744  1
  O  O54  1  0.63504595  0.49981642  0.91749524  1
  O  O55  1  0.86392472  0.36403711  0.91817206  1
  O  O56  1  0.50043593  0.13578913  0.91866548  1
  O  O57  1  0.63596289  0.13607528  0.41817206  1
  O  O58  1  0.50018358  0.36495405  0.41749524  1
  O  O59  1  0.86421087  0.49956407  0.41866548  1
  O  O60  1  0.34580461  0.48605322  0.08038061  1
  O  O61  1  0.13669184  0.64633106  0.08104123  1
  O  O62  1  0.50859808  0.86615504  0.07912587  1
  O  O63  1  0.35366894  0.86330816  0.58104123  1
  O  O64  1  0.51394678  0.65419539  0.58038061  1
  O  O65  1  0.13384496  0.49140192  0.57912587  1
  O  O66  1  0.31771057  0.83596257  0.25942251  1
  O  O67  1  0.51363137  0.68188046  0.25978683  1
  O  O68  1  0.17081206  0.48310723  0.25917025  1
  O  O69  1  0.31811954  0.48636863  0.75978683  1
  O  O70  1  0.16403743  0.68228943  0.75942251  1
  O  O71  1  0.51689277  0.82918794  0.75917025  1
loop_
_geom_bond_atom_site_label_1
_geom_bond_atom_site_label_2
_geom_bond_distance
_geom_bond_site_symmetry_2
Na0 O51 2.337490 1_555
Na0 O53 2.423627 1_555
Na0 O68 2.564663 1_555
Na0 O17 2.594563 1_555
Na0 O67 2.612182 1_555
Na0 O10 2.764273 1_555
Na0 O32 2.813176 1_555
Na0 O0 2.839836 1_555
Na1 O49 2.337490 1_555
Na1 O50 2.423628 1_555
Na1 O71 2.564663 1_555
Na1 O14 2.594563 1_555
Na1 O69 2.612182 1_555
Na1 O6 2.764272 1_555
Na1 O35 2.813176 1_555
Na1 O4 2.839836 1_555
Na2 O43 2.435221 1_565
Na2 O44 2.477060 1_455
Na2 O65 2.494403 1_555
Na2 O63 2.510871 1_555
Na2 O8 2.513209 1_555
Na2 O29 2.590707 1_555
Na3 O64 2.437464 1_555
Na3 O42 2.457100 1_565
Na3 O63 2.493362 1_555
Na3 O44 2.500453 1_555
Na3 O27 2.571441 1_555
Na3 O6 2.606274 1_555
Na4 O45 2.435221 1_455
Na4 O47 2.477060 1_565
Na4 O62 2.494403 1_555
Na4 O61 2.510870 1_555
Na4 O11 2.513209 1_555
Na4 O26 2.590707 1_554
Na5 O60 2.437464 1_555
Na5 O46 2.457100 1_455
Na5 O61 2.493362 1_555
Na5 O47 2.500453 1_555
Na5 O25 2.571441 1_554
Na5 O10 2.606274 1_555
Na6 O41 2.394348 1_555
Na6 O55 2.455594 1_555
Na6 O40 2.467516 1_655
Na6 O54 2.543879 1_555
Na6 O4 2.564926 1_555
Na6 O19 2.628423 1_556
Na7 O39 2.419915 1_655
Na7 O56 2.460736 1_555
Na7 O41 2.486393 1_545
Na7 O5 2.497776 1_555
Na7 O55 2.566718 1_555
Na7 O20 2.660782 1_556
Na8 O3 2.408397 1_555
Na8 O40 2.424744 1_545
Na8 O54 2.447348 1_555
Na8 O39 2.482415 1_555
Na8 O56 2.558003 1_555
Na8 O18 2.741267 1_556
Na9 O37 2.419915 1_545
Na9 O59 2.460736 1_555
Na9 O38 2.486393 1_655
Na9 O2 2.497776 1_555
Na9 O57 2.566718 1_555
Na9 O23 2.660782 1_555
Na10 O38 2.394348 1_555
Na10 O57 2.455594 1_555
Na10 O36 2.467516 1_545
Na10 O58 2.543879 1_555
Na10 O0 2.564926 1_555
Na10 O21 2.628423 1_555
Na11 O1 2.408397 1_555
Na11 O36 2.424744 1_655
Na11 O58 2.447348 1_555
Na11 O37 2.482415 1_555
Na11 O59 2.558003 1_555
Na11 O22 2.741267 1_555
Na12 O38 2.475678 1_555
Na12 O43 2.547099 1_555
Na12 O42 2.568399 1_455
Na12 O36 2.581399 1_545
Na12 O37 2.586253 1_445
Na12 O44 2.630921 1_445
Na13 O41 2.475678 1_555
Na13 O45 2.547099 1_556
Na13 O46 2.568399 1_566
Na13 O40 2.581399 1_655
Na13 O39 2.586253 1_665
Na13 O47 2.630921 1_666
Na14 O48 2.389705 1_555
Na14 O49 2.480279 1_555
Na14 O50 2.496906 1_555
Na14 O56 2.577132 1_555
Na14 O55 2.593865 1_555
Na14 O54 2.665763 1_555
Na15 O52 2.389705 1_555
Na15 O51 2.480279 1_555
Na15 O53 2.496906 1_555
Na15 O59 2.577132 1_555
Na15 O57 2.593865 1_555
Na15 O58 2.665764 1_555
Na16 O62 2.425414 1_555
Na16 O60 2.515488 1_555
Na16 O61 2.554240 1_555
Na16 O67 2.599464 1_555
Na16 O66 2.642612 1_555
Na16 O68 2.725478 1_555
Na17 O65 2.425414 1_555
Na17 O64 2.515488 1_555
Na17 O63 2.554240 1_555
Na17 O69 2.599464 1_555
Na17 O70 2.642612 1_555
Na17 O71 2.725478 1_555
O0 P0 1.538160 1_555
O0 Zn0 2.019704 1_445
O1 P1 1.533196 1_555
O1 Zn0 2.006898 1_555
O2 P2 1.533539 1_555
O2 Zn0 2.018614 1_545
O3 P3 1.533196 1_555
O3 Zn1 2.006898 1_555
O4 P4 1.538160 1_555
O4 Zn1 2.019704 1_665
O5 P5 1.533539 1_555
O5 Zn1 2.018614 1_655
O6 P5 1.551490 1_565
O6 Zn2 2.038191 1_665
O7 P3 1.514657 1_555
O7 Zn2 1.935843 1_555
O8 P4 1.537291 1_455
O8 Zn2 2.027516 1_565
O9 P1 1.514657 1_555
O9 Zn3 1.935843 1_555
O10 P2 1.551490 1_455
O10 Zn3 2.038191 1_445
O11 P0 1.537291 1_565
O11 Zn3 2.027516 1_455
O12 S0 1.474203 1_555
O12 Zn4 2.127593 1_555
O13 S1 1.466299 1_555
O13 Zn4 2.087665 1_555
O14 S2 1.470235 1_555
O14 Zn4 2.241407 1_555
O15 S3 1.466299 1_555
O15 Zn5 2.087665 1_555
O16 S4 1.474203 1_555
O16 Zn5 2.127593 1_555
O17 S5 1.470235 1_555
O17 Zn5 2.241407 1_555
O18 S5 1.496004 1_555
O18 Zn6 2.110576 1_554
O19 S3 1.495633 1_555
O19 Zn6 2.119414 1_554
O20 S4 1.507517 1_555
O20 Zn6 2.146449 1_554
O21 S1 1.495633 1_555
O21 Zn7 2.119414 1_555
O22 S2 1.496004 1_555
O22 Zn7 2.110576 1_555
O23 S0 1.507517 1_555
O23 Zn7 2.146449 1_555
O24 P6 1.519255 1_555
O24 Zn8 1.946090 1_556
O25 P7 1.532387 1_555
O25 Zn8 2.009502 1_556
O26 P8 1.532883 1_555
O26 Zn8 2.010404 1_556
O27 P9 1.532387 1_555
O27 Zn9 2.009502 1_555
O28 P10 1.519255 1_555
O28 Zn9 1.946090 1_555
O29 P11 1.532883 1_555
O29 Zn9 2.010404 1_555
O30 P11 1.595024 1_555
O30 Ta0 1.980786 1_555
O31 P9 1.594435 1_555
O31 Ta0 1.979988 1_555
O32 P10 1.595063 1_555
O32 Ta0 2.020276 1_555
O33 P7 1.594435 1_555
O33 Ta1 1.979988 1_555
O34 P8 1.595024 1_555
O34 Ta1 1.980785 1_555
O35 P6 1.595063 1_555
O35 Ta1 2.020277 1_555
O36 P11 1.538188 1_555
O36 Zn0 2.257601 1_455
O37 P9 1.539998 1_555
O37 Zn0 2.240258 1_555
O38 P10 1.546046 1_555
O38 Zn0 2.246465 1_445
O39 P7 1.539998 1_555
O39 Zn1 2.240258 1_555
O40 P8 1.538188 1_555
O40 Zn1 2.257601 1_565
O41 P6 1.546046 1_555
O41 Zn1 2.246465 1_665
O42 S0 1.490245 1_555
O42 Zn2 2.399612 1_655
O43 S1 1.489763 1_555
O43 Zn2 2.382819 1_555
O44 S2 1.511393 1_555
O44 Zn2 2.482412 1_665
O45 S3 1.489763 1_555
O45 Zn3 2.382819 1_555
O46 S4 1.490245 1_555
O46 Zn3 2.399612 1_545
O47 S5 1.511393 1_555
O47 Zn3 2.482412 1_445
O48 P5 1.519088 1_555
O48 Zn4 2.029570 1_555
O49 P3 1.544896 1_555
O49 Zn4 2.097441 1_555
O50 P4 1.540702 1_555
O50 Zn4 2.101961 1_555
O51 P1 1.544896 1_555
O51 Zn5 2.097441 1_555
O52 P2 1.519088 1_555
O52 Zn5 2.029570 1_555
O53 P0 1.540702 1_555
O53 Zn5 2.101961 1_555
O54 P6 1.557463 1_555
O54 Zn6 2.164490 1_555
O55 P7 1.551326 1_655
O55 Zn6 2.165789 1_555
O56 P8 1.553901 1_545
O56 Zn6 2.172541 1_555
O57 P9 1.551326 1_545
O57 Zn7 2.165789 1_555
O58 P10 1.557463 1_555
O58 Zn7 2.164490 1_555
O59 P11 1.553901 1_655
O59 Zn7 2.172541 1_555
O60 S5 1.494658 1_555
O60 Zn8 2.303074 1_555
O61 S3 1.516756 1_455
O61 Zn8 2.339212 1_555
O62 S4 1.499230 1_565
O62 Zn8 2.274054 1_555
O63 S1 1.516756 1_565
O63 Zn9 2.339212 1_555
O64 S2 1.494658 1_555
O64 Zn9 2.303074 1_555
O65 S0 1.499230 1_455
O65 Zn9 2.274054 1_555
O66 P0 1.600436 1_565
O66 Ta0 1.972876 1_555
O67 P1 1.632272 1_555
O67 Ta0 1.967900 1_555
O68 P2 1.626675 1_455
O68 Ta0 1.985351 1_555
O69 P3 1.632272 1_555
O69 Ta1 1.967900 1_555
O70 P4 1.600436 1_455
O70 Ta1 1.972876 1_555
O71 P5 1.626675 1_565
O71 Ta1 1.985351 1_555
