# generated using pymatgen
data_Y3InS6
_symmetry_space_group_name_H-M   'P 1'
_cell_length_a   3.84704303
_cell_length_b   13.50498656
_cell_length_c   16.47838451
_cell_angle_alpha   90.00000000
_cell_angle_beta   90.00000000
_cell_angle_gamma   90.00000000
_symmetry_Int_Tables_number   1
_chemical_formula_structural   Y3InS6
_chemical_formula_sum   'Y12 In4 S24'
_cell_volume   856.12234598
_cell_formula_units_Z   4
loop_
 _symmetry_equiv_pos_site_id
 _symmetry_equiv_pos_as_xyz
  1  'x, y, z'
loop_
 _atom_site_type_symbol
 _atom_site_label
 _atom_site_symmetry_multiplicity
 _atom_site_fract_x
 _atom_site_fract_y
 _atom_site_fract_z
 _atom_site_occupancy
  Y  Y0  1  0.24827115  0.03873938  0.77576755  1
  Y  Y1  1  0.24827115  0.96126062  0.22423245  1
  Y  Y2  1  0.75172885  0.46126062  0.27576755  1
  Y  Y3  1  0.75172885  0.53873938  0.72423245  1
  Y  Y4  1  0.25061132  0.25088523  0.60709188  1
  Y  Y5  1  0.25061132  0.74911477  0.39290812  1
  Y  Y6  1  0.74938868  0.24911477  0.10709188  1
  Y  Y7  1  0.74938868  0.75088523  0.89290812  1
  Y  Y8  1  0.75053668  0.31047314  0.85415333  1
  Y  Y9  1  0.75053668  0.68952686  0.14584667  1
  Y  Y10  1  0.24946332  0.18952686  0.35415333  1
  Y  Y11  1  0.24946332  0.81047314  0.64584667  1
  In  In0  1  0.75115344  -0.00000000  0.50000000  1
  In  In1  1  0.24884656  0.50000000  -0.00000000  1
  In  In2  1  0.24422059  0.50000000  0.50000000  1
  In  In3  1  0.75577941  -0.00000000  -0.00000000  1
  S  S0  1  0.75041534  0.40377441  0.58614965  1
  S  S1  1  0.75041534  0.59622559  0.41385035  1
  S  S2  1  0.24958466  0.09622559  0.08614965  1
  S  S3  1  0.24958466  0.90377441  0.91385035  1
  S  S4  1  0.24978944  0.30802839  0.97919710  1
  S  S5  1  0.24978944  0.69197161  0.02080290  1
  S  S6  1  0.75021056  0.19197161  0.47919710  1
  S  S7  1  0.75021056  0.80802839  0.52080290  1
  S  S8  1  0.74776836  0.11161876  0.88240484  1
  S  S9  1  0.74776836  0.88838124  0.11759516  1
  S  S10  1  0.25223164  0.38838124  0.38240484  1
  S  S11  1  0.25223164  0.61161876  0.61759516  1
  S  S12  1  0.75047635  0.18173892  0.71288621  1
  S  S13  1  0.75047635  0.81826108  0.28711379  1
  S  S14  1  0.24952365  0.31826108  0.21288621  1
  S  S15  1  0.24952365  0.68173892  0.78711379  1
  S  S16  1  0.25085030  0.38727825  0.75384886  1
  S  S17  1  0.25085030  0.61272175  0.24615114  1
  S  S18  1  0.74914970  0.11272175  0.25384886  1
  S  S19  1  0.74914970  0.88727825  0.74615114  1
  S  S20  1  0.25064517  0.01982246  0.60471109  1
  S  S21  1  0.25064517  0.98017754  0.39528891  1
  S  S22  1  0.74935483  0.48017754  0.10471109  1
  S  S23  1  0.74935483  0.51982246  0.89528891  1
loop_
_geom_bond_atom_site_label_1
_geom_bond_atom_site_label_2
_geom_bond_distance
_geom_bond_site_symmetry_2
In0 S20 2.596406 1_655
In0 S21 2.596406 1_645
In0 S21 2.599302 1_545
In0 S20 2.599302 1_555
In0 S7 2.615141 1_545
In0 S6 2.615141 1_555
In1 S23 2.596406 1_454
In1 S22 2.596406 1_455
In1 S22 2.599302 1_555
In1 S23 2.599302 1_554
In1 S5 2.615141 1_555
In1 S4 2.615141 1_554
In2 S10 2.455243 1_555
In2 S11 2.455243 1_555
In2 S1 2.704232 1_455
In2 S0 2.704232 1_455
In2 S1 2.737925 1_555
In2 S0 2.737925 1_555
In3 S9 2.455243 1_545
In3 S8 2.455243 1_554
In3 S3 2.704232 1_644
In3 S2 2.704232 1_655
In3 S3 2.737925 1_544
In3 S2 2.737925 1_555
S0 Y4 2.842426 1_555
S0 Y4 2.843446 1_655
S0 Y3 2.915411 1_555
S1 Y5 2.842426 1_555
S1 Y5 2.843446 1_655
S1 Y2 2.915411 1_555
S2 Y6 2.842426 1_555
S2 Y6 2.843446 1_455
S2 Y1 2.915411 1_545
S3 Y7 2.842426 1_555
S3 Y7 2.843446 1_455
S3 Y0 2.915411 1_565
S4 Y8 2.817040 1_455
S4 Y8 2.820963 1_555
S4 Y6 2.961179 1_556
S4 Y6 2.963182 1_456
S5 Y9 2.817040 1_455
S5 Y9 2.820963 1_555
S5 Y7 2.961179 1_554
S5 Y7 2.963182 1_454
S6 Y10 2.817040 1_655
S6 Y10 2.820963 1_555
S6 Y4 2.961179 1_555
S6 Y4 2.963182 1_655
S7 Y11 2.817040 1_655
S7 Y11 2.820963 1_555
S7 Y5 2.961179 1_555
S7 Y5 2.963182 1_655
S8 Y8 2.725599 1_555
S8 Y0 2.783703 1_555
S8 Y0 2.786375 1_655
S9 Y9 2.725599 1_555
S9 Y1 2.783703 1_555
S9 Y1 2.786375 1_655
S10 Y10 2.725599 1_555
S10 Y2 2.783703 1_555
S10 Y2 2.786375 1_455
S11 Y11 2.725599 1_555
S11 Y3 2.783703 1_555
S11 Y3 2.786375 1_455
S12 Y4 2.758464 1_555
S12 Y4 2.759188 1_655
S12 Y8 2.905421 1_555
S12 Y0 2.910430 1_655
S12 Y0 2.921623 1_555
S13 Y5 2.758464 1_555
S13 Y5 2.759188 1_655
S13 Y9 2.905421 1_555
S13 Y1 2.910430 1_655
S13 Y1 2.921623 1_555
S14 Y6 2.758464 1_555
S14 Y6 2.759188 1_455
S14 Y10 2.905421 1_555
S14 Y2 2.910430 1_455
S14 Y2 2.921623 1_555
S15 Y7 2.758464 1_555
S15 Y7 2.759188 1_455
S15 Y11 2.905421 1_555
S15 Y3 2.910430 1_455
S15 Y3 2.921623 1_555
S16 Y8 2.739182 1_555
S16 Y8 2.740876 1_455
S16 Y3 2.847650 1_455
S16 Y3 2.852212 1_555
S16 Y4 3.039930 1_555
S17 Y9 2.739182 1_555
S17 Y9 2.740876 1_455
S17 Y2 2.847650 1_455
S17 Y2 2.852212 1_555
S17 Y5 3.039930 1_555
S18 Y10 2.739182 1_555
S18 Y10 2.740876 1_655
S18 Y1 2.847650 1_645
S18 Y1 2.852212 1_545
S18 Y6 3.039930 1_555
S19 Y11 2.739182 1_555
S19 Y11 2.740876 1_655
S19 Y0 2.847650 1_665
S19 Y0 2.852212 1_565
S19 Y7 3.039930 1_555
S20 Y0 2.830302 1_555
S20 Y11 2.907386 1_545
S20 Y4 3.120746 1_555
S21 Y1 2.830302 1_555
S21 Y10 2.907386 1_565
S21 Y5 3.120746 1_555
S22 Y2 2.830302 1_555
S22 Y9 2.907386 1_555
S22 Y6 3.120746 1_555
S23 Y3 2.830302 1_555
S23 Y8 2.907386 1_555
S23 Y7 3.120746 1_555
