# generated using pymatgen
data_Na4YGaSi(PO6)2
_symmetry_space_group_name_H-M   'P 1'
_cell_length_a   9.18827445
_cell_length_b   9.18053350
_cell_length_c   22.46315768
_cell_angle_alpha   89.98970283
_cell_angle_beta   89.71689873
_cell_angle_gamma   120.02318112
_symmetry_Int_Tables_number   1
_chemical_formula_structural   Na4YGaSi(PO6)2
_chemical_formula_sum   'Na24 Y6 Ga6 Si6 P12 O72'
_cell_volume   1640.56893552
_cell_formula_units_Z   6
loop_
 _symmetry_equiv_pos_site_id
 _symmetry_equiv_pos_as_xyz
  1  'x, y, z'
loop_
 _atom_site_type_symbol
 _atom_site_label
 _atom_site_symmetry_multiplicity
 _atom_site_fract_x
 _atom_site_fract_y
 _atom_site_fract_z
 _atom_site_occupancy
  Na  Na0  1  0.63318762  0.99807269  0.25443543  1
  Na  Na1  1  0.36422389  0.36897071  0.25136169  1
  Na  Na2  1  0.00466121  0.62736309  0.25133055  1
  Na  Na3  1  0.63742351  0.63532373  0.74441604  1
  Na  Na4  1  0.99066176  0.35917285  0.74827662  1
  Na  Na5  1  0.37826762  0.00785337  0.74692026  1
  Na  Na6  1  0.29668959  0.32750781  0.58328557  1
  Na  Na7  1  0.03899121  0.71043702  0.58271266  1
  Na  Na8  1  0.66744116  0.96629232  0.58776691  1
  Na  Na9  1  0.29447060  0.96718464  0.08376083  1
  Na  Na10  1  0.67798198  0.70037390  0.08486508  1
  Na  Na11  1  0.02905489  0.33324004  0.09005221  1
  Na  Na12  1  0.97649727  0.67460245  0.92114997  1
  Na  Na13  1  0.69068548  0.03136430  0.91223994  1
  Na  Na14  1  0.33331902  0.29609550  0.91679960  1
  Na  Na15  1  0.96447806  0.29972285  0.41272908  1
  Na  Na16  1  0.32976307  0.03076925  0.41854824  1
  Na  Na17  1  0.70223575  0.66728840  0.41572083  1
  Na  Na18  1  0.00372660  0.99676167  0.49918174  1
  Na  Na19  1  0.00478808  0.99458548  0.00276620  1
  Na  Na20  1  0.66220185  0.32227075  0.83099802  1
  Na  Na21  1  0.67338192  0.33383802  0.33820819  1
  Na  Na22  1  0.32461070  0.66250323  0.16999453  1
  Na  Na23  1  0.33920738  0.67618834  0.66527975  1
  Y  Y0  1  0.99877044  -0.00005600  0.84386837  1
  Y  Y1  1  0.67235281  0.33377432  0.18826811  1
  Y  Y2  1  0.67019938  0.33757189  0.98925730  1
  Y  Y3  1  0.32921579  0.66999129  0.01667630  1
  Y  Y4  1  0.32947243  0.67220508  0.51539376  1
  Y  Y5  1  0.33918137  0.67570221  0.81260524  1
  Ga  Ga0  1  0.99768578  0.99429203  0.34846617  1
  Ga  Ga1  1  0.00574451  0.00013472  0.64913964  1
  Ga  Ga2  1  0.00210473  0.00048672  0.15501312  1
  Ga  Ga3  1  0.66538899  0.32488981  0.68017931  1
  Ga  Ga4  1  0.66887226  0.33738610  0.48620942  1
  Ga  Ga5  1  0.31477309  0.65074489  0.31898736  1
  Si  Si0  1  0.00937481  0.28696188  0.25382227  1
  Si  Si1  1  0.70991446  0.01093964  0.74210259  1
  Si  Si2  1  0.37493427  0.05097245  0.58457767  1
  Si  Si3  1  0.97380905  0.65309899  0.08800300  1
  Si  Si4  1  0.33431093  0.97849140  0.91598224  1
  Si  Si5  1  0.02637146  0.66694814  0.41468053  1
  P  P0  1  0.28190599  0.99025133  0.25313588  1
  P  P1  1  0.70619924  0.71729461  0.25303823  1
  P  P2  1  0.30315655  0.29497954  0.74334985  1
  P  P3  1  0.98948701  0.69538385  0.74312510  1
  P  P4  1  0.95004371  0.32658036  0.58403950  1
  P  P5  1  0.67359043  0.62087231  0.58510510  1
  P  P6  1  0.67728973  0.02859628  0.08656651  1
  P  P7  1  0.35401143  0.32383850  0.08721372  1
  P  P8  1  0.63644122  0.66418690  0.91614059  1
  P  P9  1  0.02976504  0.36239577  0.91578640  1
  P  P10  1  0.63203307  0.96353696  0.41295592  1
  P  P11  1  0.33278015  0.36643411  0.41422327  1
  O  O0  1  0.19831967  0.01816322  0.30808767  1
  O  O1  1  0.81981479  0.79663407  0.30757160  1
  O  O2  1  0.97968393  0.16724774  0.31129707  1
  O  O3  1  0.23389583  0.19437471  0.80177638  1
  O  O4  1  0.96060279  0.76543398  0.80169233  1
  O  O5  1  0.81019227  0.04523357  0.80508078  1
  O  O6  1  0.81209864  0.97822213  0.68793322  1
  O  O7  1  0.18321542  0.20204147  0.69084701  1
  O  O8  1  0.02442194  0.81899959  0.69066665  1
  O  O9  1  0.78818283  0.82340153  0.19586362  1
  O  O10  1  0.03755572  0.20307215  0.19303573  1
  O  O11  1  0.17700224  0.96382638  0.19598151  1
  O  O12  1  0.87088696  0.36059736  0.63960737  1
  O  O13  1  0.49252707  0.13633508  0.64265542  1
  O  O14  1  0.64847220  0.51000876  0.64061513  1
  O  O15  1  0.88316666  0.52540992  0.14390028  1
  O  O16  1  0.63973581  0.11056764  0.14045345  1
  O  O17  1  0.46825178  0.35115701  0.14136609  1
  O  O18  1  0.43246389  0.29675613  0.03021430  1
  O  O19  1  0.86247216  0.57884253  0.02706998  1
  O  O20  1  0.70347076  0.13438629  0.02991858  1
  O  O21  1  0.46249711  0.16890236  0.52422576  1
  O  O22  1  0.70061955  0.54088718  0.52775989  1
  O  O23  1  0.84149367  0.30144400  0.52749702  1
  O  O24  1  0.55376700  0.68582061  0.97279362  1
  O  O25  1  0.13656225  0.44352468  0.97175722  1
  O  O26  1  0.30652203  0.86508808  0.97546146  1
  O  O27  1  0.56080281  0.85682126  0.47019634  1
  O  O28  1  0.29965535  0.44079790  0.47083289  1
  O  O29  1  0.14305479  0.71372359  0.47403996  1
  O  O30  1  0.11673474  0.62545324  0.35796827  1
  O  O31  1  0.51115788  0.87300743  0.35931294  1
  O  O32  1  0.36608802  0.48779309  0.35993574  1
  O  O33  1  0.11641757  0.46866346  0.85941774  1
  O  O34  1  0.36028513  0.88917834  0.85669829  1
  O  O35  1  0.52769896  0.64077696  0.86050835  1
  O  O36  1  0.00598581  0.83526520  0.40523593  1
  O  O37  1  0.81054473  0.98471542  0.40669757  1
  O  O38  1  0.17521257  0.18848121  0.40731020  1
  O  O39  1  0.00937339  0.18493419  0.91301507  1
  O  O40  1  0.16428650  0.99301692  0.91402421  1
  O  O41  1  0.81063287  0.82584679  0.91191842  1
  O  O42  1  0.96608949  0.16562610  0.58838596  1
  O  O43  1  0.18261617  0.03035694  0.59015708  1
  O  O44  1  0.83356559  0.79954420  0.58889206  1
  O  O45  1  0.98674774  0.83732730  0.09618599  1
  O  O46  1  0.84004214  0.02032358  0.09355867  1
  O  O47  1  0.17888359  0.16384915  0.09247285  1
  O  O48  1  0.69080483  0.18092793  0.73796405  1
  O  O49  1  0.48286140  0.31935916  0.73786527  1
  O  O50  1  0.82821173  0.52026176  0.73653014  1
  O  O51  1  0.68118547  0.53627609  0.24964537  1
  O  O52  1  0.84102274  0.30808920  0.25270464  1
  O  O53  1  0.45928284  0.15097981  0.24972065  1
  O  O54  1  0.65604158  0.50814005  0.91857492  1
  O  O55  1  0.85700955  0.35009205  0.91988014  1
  O  O56  1  0.50433323  0.16278521  0.91826285  1
  O  O57  1  0.64633590  0.14041034  0.41915472  1
  O  O58  1  0.49526461  0.35250739  0.41878194  1
  O  O59  1  0.83890217  0.49229536  0.42390748  1
  O  O60  1  0.33726687  0.48288818  0.08303675  1
  O  O61  1  0.15945018  0.66918982  0.08588176  1
  O  O62  1  0.52373112  0.84895549  0.08231572  1
  O  O63  1  0.35451060  0.86191581  0.58252247  1
  O  O64  1  0.51332533  0.63733627  0.58156642  1
  O  O65  1  0.12965104  0.48325807  0.58027218  1
  O  O66  1  0.30379272  0.83175473  0.25785484  1
  O  O67  1  0.52949854  0.70296560  0.25862159  1
  O  O68  1  0.18173071  0.47881648  0.25759772  1
  O  O69  1  0.31501462  0.46960227  0.74611399  1
  O  O70  1  0.14643746  0.67358283  0.74615557  1
  O  O71  1  0.52343365  0.83906114  0.74246274  1
loop_
_geom_bond_atom_site_label_1
_geom_bond_atom_site_label_2
_geom_bond_distance
_geom_bond_site_symmetry_2
Na0 O67 2.381715 1_555
Na0 O52 2.511769 1_565
Na0 O53 2.604087 1_565
Na0 O31 2.609653 1_555
Na0 O66 2.621184 1_555
Na0 O16 2.749762 1_565
Na1 O68 2.353316 1_555
Na1 O51 2.522863 1_555
Na1 O53 2.553082 1_555
Na1 O67 2.660375 1_555
Na1 O32 2.668564 1_555
Na1 O17 2.679309 1_555
Na1 O10 2.917239 1_555
Na2 O66 2.437175 1_555
Na2 O52 2.538178 1_455
Na2 O68 2.597904 1_555
Na2 O30 2.615566 1_555
Na2 O15 2.632059 1_455
Na2 O51 2.654910 1_455
Na3 O50 2.463804 1_555
Na3 O49 2.516455 1_555
Na3 O71 2.560896 1_555
Na3 O69 2.565259 1_555
Na3 O14 2.624151 1_555
Na3 O35 2.800737 1_555
Na3 O4 2.896324 1_555
Na3 O6 3.003007 1_555
Na4 O48 2.411874 1_555
Na4 O70 2.499499 1_655
Na4 O50 2.587935 1_555
Na4 O69 2.624321 1_655
Na4 O12 2.685332 1_555
Na4 O33 2.728656 1_655
Na4 O5 2.807090 1_555
Na5 O48 2.497956 1_555
Na5 O71 2.501493 1_545
Na5 O49 2.528029 1_555
Na5 O13 2.591235 1_555
Na5 O34 2.666485 1_545
Na5 O70 2.722876 1_545
Na5 O3 2.909981 1_555
Na6 O43 2.387749 1_555
Na6 O64 2.527375 1_555
Na6 O65 2.569397 1_555
Na6 O42 2.632108 1_455
Na6 O7 2.650287 1_555
Na6 O28 2.726422 1_555
Na6 O21 2.898591 1_555
Na7 O44 2.407025 1_455
Na7 O63 2.510783 1_555
Na7 O43 2.553311 1_565
Na7 O65 2.604780 1_555
Na7 O29 2.611958 1_555
Na7 O8 2.650093 1_555
Na8 O42 2.419545 1_565
Na8 O63 2.538829 1_555
Na8 O6 2.593327 1_555
Na8 O64 2.620609 1_555
Na8 O44 2.648142 1_555
Na8 O27 2.825970 1_555
Na9 O61 2.372490 1_555
Na9 O45 2.472354 1_455
Na9 O47 2.518519 1_565
Na9 O26 2.628891 1_554
Na9 O11 2.731351 1_555
Na9 O62 2.811387 1_555
Na9 O18 2.890256 1_565
Na10 O62 2.409996 1_555
Na10 O45 2.476274 1_555
Na10 O46 2.551354 1_565
Na10 O9 2.720184 1_555
Na10 O24 2.744829 1_554
Na10 O60 2.745010 1_555
Na10 O19 2.770424 1_555
Na11 O60 2.456479 1_555
Na11 O46 2.506182 1_455
Na11 O47 2.541567 1_555
Na11 O10 2.622950 1_555
Na11 O61 2.693977 1_555
Na11 O25 2.834477 1_554
Na11 O20 2.946601 1_455
Na11 O15 2.953593 1_455
Na12 O41 2.532615 1_555
Na12 O40 2.549058 1_655
Na12 O54 2.550944 1_555
Na12 O19 2.566028 1_556
Na12 O55 2.609391 1_555
Na12 O4 2.835884 1_555
Na12 O26 2.910759 1_655
Na13 O39 2.536059 1_655
Na13 O55 2.540639 1_555
Na13 O56 2.543792 1_555
Na13 O5 2.617269 1_555
Na13 O41 2.618275 1_545
Na13 O20 2.790852 1_556
Na13 O34 2.923890 1_545
Na14 O40 2.415471 1_545
Na14 O56 2.427530 1_555
Na14 O54 2.609344 1_555
Na14 O39 2.621273 1_555
Na14 O18 2.708846 1_556
Na14 O3 2.748281 1_555
Na15 O37 2.508185 1_545
Na15 O57 2.534229 1_555
Na15 O59 2.560956 1_555
Na15 O38 2.604523 1_655
Na15 O2 2.618782 1_555
Na15 O23 2.812938 1_555
Na15 O30 2.864947 1_655
Na15 O28 2.985694 1_655
Na16 O38 2.497509 1_555
Na16 O58 2.557785 1_555
Na16 O57 2.558266 1_555
Na16 O36 2.612833 1_545
Na16 O21 2.685656 1_555
Na16 O0 2.742023 1_555
Na16 O29 2.819483 1_545
Na17 O36 2.430913 1_655
Na17 O59 2.492502 1_555
Na17 O58 2.543938 1_555
Na17 O37 2.572819 1_555
Na17 O1 2.677373 1_555
Na17 O22 2.768066 1_555
Na17 O27 2.908892 1_555
Na17 O32 2.961604 1_555
Na18 O43 2.549357 1_565
Na18 O36 2.585255 1_555
Na18 O44 2.630274 1_455
Na18 O38 2.651583 1_565
Na18 O42 2.658744 1_465
Na18 O37 2.705350 1_455
Na19 O40 2.472640 1_554
Na19 O45 2.504296 1_455
Na19 O47 2.565085 1_565
Na19 O46 2.614251 1_465
Na19 O41 2.649233 1_454
Na19 O39 2.654128 1_564
Na20 O56 2.436380 1_555
Na20 O48 2.541077 1_555
Na20 O55 2.614087 1_555
Na20 O54 2.623315 1_555
Na20 O49 2.661346 1_555
Na20 O50 2.706618 1_555
Na21 O59 2.439486 1_555
Na21 O57 2.464580 1_555
Na21 O58 2.497044 1_555
Na21 O52 2.540237 1_555
Na21 O51 2.698287 1_555
Na21 O53 2.715537 1_555
Na22 O61 2.449120 1_555
Na22 O68 2.489482 1_555
Na22 O66 2.576997 1_555
Na22 O60 2.595951 1_555
Na22 O67 2.642537 1_555
Na22 O62 2.643049 1_555
Na23 O71 2.367315 1_555
Na23 O63 2.477753 1_555
Na23 O70 2.522714 1_555
Na23 O69 2.552721 1_555
Na23 O64 2.600850 1_555
Na23 O65 2.667522 1_555
Ga0 O2 1.873332 1_565
Ga0 O0 1.961700 1_665
Ga0 O1 1.963513 1_555
Ga0 O36 1.968550 1_655
Ga0 O37 2.121767 1_555
Ga0 O38 2.167554 1_665
Ga1 O6 1.895281 1_445
Ga1 O8 1.987842 1_545
Ga1 O7 1.990892 1_555
Ga1 O43 2.000225 1_555
Ga1 O44 2.198240 1_445
Ga1 O42 2.204908 1_455
Ga2 O10 1.921379 1_555
Ga2 O45 1.949576 1_445
Ga2 O11 2.024449 1_545
Ga2 O9 2.032841 1_445
Ga2 O47 2.097652 1_555
Ga2 O46 2.108975 1_455
Ga3 O13 1.868714 1_555
Ga3 O48 1.948691 1_555
Ga3 O12 1.966403 1_555
Ga3 O14 1.991846 1_555
Ga3 O49 2.094683 1_555
Ga3 O50 2.095673 1_555
Ga4 O21 1.940589 1_555
Ga4 O22 1.975995 1_555
Ga4 O23 2.005713 1_555
Ga4 O59 2.043564 1_555
Ga4 O58 2.259049 1_555
Ga4 O57 2.282793 1_555
Ga5 O30 1.921741 1_555
Ga5 O68 1.993472 1_555
Ga5 O32 2.003996 1_555
Ga5 O31 2.138326 1_555
Ga5 O66 2.196755 1_555
Ga5 O67 2.233372 1_555
O0 P0 1.538477 1_545
O1 P1 1.540448 1_555
O2 Si0 1.626387 1_655
O3 P2 1.543915 1_555
O3 Y0 2.206289 1_455
O4 P3 1.543527 1_555
O4 Y0 2.214527 1_565
O5 Si1 1.634675 1_555
O5 Y0 2.161024 1_555
O6 Si1 1.650283 1_565
O7 P2 1.551030 1_555
O8 P3 1.552666 1_455
O9 P1 1.556122 1_555
O10 Si0 1.649575 1_555
O11 P0 1.553894 1_555
O12 P4 1.550179 1_555
O13 Si2 1.628048 1_555
O14 P5 1.551009 1_555
O15 Si3 1.629897 1_555
O15 Y1 2.100143 1_555
O16 P6 1.551345 1_555
O16 Y1 2.198159 1_555
O17 P7 1.547161 1_555
O17 Y1 2.229642 1_555
O18 P7 1.546339 1_555
O18 Y2 2.217949 1_554
O19 Si3 1.643477 1_555
O19 Y2 2.201901 1_554
O20 P6 1.543724 1_555
O20 Y2 2.231604 1_554
O21 Si2 1.665650 1_555
O22 P5 1.562017 1_555
O23 P4 1.563185 1_555
O24 P8 1.541923 1_555
O24 Y3 2.220263 1_556
O25 P9 1.542582 1_555
O25 Y3 2.193101 1_556
O26 Si4 1.632282 1_555
O26 Y3 2.117468 1_556
O27 P10 1.546298 1_555
O27 Y4 2.189585 1_555
O28 P11 1.542782 1_555
O28 Y4 2.238594 1_555
O29 Si5 1.632610 1_555
O29 Y4 2.147327 1_555
O30 Si5 1.662419 1_555
O31 P10 1.570393 1_555
O32 P11 1.573749 1_555
O33 P9 1.549613 1_555
O33 Y5 2.234465 1_555
O34 Si4 1.641881 1_555
O34 Y5 2.117037 1_555
O35 P8 1.550399 1_555
O35 Y5 2.198890 1_555
O36 Si5 1.660656 1_555
O37 P10 1.557707 1_555
O38 P11 1.557104 1_555
O39 P9 1.545294 1_555
O39 Y0 2.267865 1_455
O40 Si4 1.633840 1_555
O40 Y0 2.218301 1_465
O41 P8 1.547482 1_555
O41 Y0 2.255586 1_565
O42 P4 1.559745 1_555
O43 Si2 1.684399 1_555
O44 P5 1.564272 1_555
O45 Si3 1.645473 1_555
O46 P6 1.543590 1_555
O47 P7 1.547098 1_555
O48 Si1 1.658073 1_555
O49 P2 1.555576 1_555
O50 P3 1.555877 1_555
O51 P1 1.561528 1_555
O51 Y1 2.283567 1_555
O52 Si0 1.652775 1_655
O52 Y1 2.222676 1_555
O53 P0 1.559351 1_545
O53 Y1 2.288947 1_555
O54 P8 1.531665 1_555
O54 Y2 2.279238 1_555
O55 P9 1.536212 1_655
O55 Y2 2.272495 1_555
O56 Si4 1.631425 1_545
O56 Y2 2.240197 1_555
O57 P10 1.568463 1_545
O58 P11 1.564691 1_555
O59 Si5 1.677338 1_655
O60 P7 1.545783 1_555
O60 Y3 2.303345 1_555
O61 Si3 1.637261 1_455
O61 Y3 2.194183 1_555
O62 P6 1.546790 1_565
O62 Y3 2.270721 1_555
O63 Si2 1.650447 1_565
O63 Y4 2.227891 1_555
O64 P5 1.556110 1_555
O64 Y4 2.394053 1_555
O65 P4 1.556507 1_455
O65 Y4 2.299880 1_555
O66 P0 1.569052 1_555
O67 P1 1.566296 1_555
O68 Si0 1.681523 1_555
O69 P2 1.552760 1_555
O69 Y5 2.333256 1_555
O70 P3 1.553754 1_455
O70 Y5 2.314406 1_555
O71 Si1 1.649268 1_565
O71 Y5 2.242746 1_555
