# generated using pymatgen
data_ThNCl
_symmetry_space_group_name_H-M   'P 1'
_cell_length_a   4.09593728
_cell_length_b   4.09593728
_cell_length_c   6.98258057
_cell_angle_alpha   90.00000000
_cell_angle_beta   90.00000000
_cell_angle_gamma   90.00000000
_symmetry_Int_Tables_number   1
_chemical_formula_structural   ThNCl
_chemical_formula_sum   'Th2 N2 Cl2'
_cell_volume   117.14467482
_cell_formula_units_Z   2
loop_
 _symmetry_equiv_pos_site_id
 _symmetry_equiv_pos_as_xyz
  1  'x, y, z'
loop_
 _atom_site_type_symbol
 _atom_site_label
 _atom_site_symmetry_multiplicity
 _atom_site_fract_x
 _atom_site_fract_y
 _atom_site_fract_z
 _atom_site_occupancy
  Th  Th0  1  0.75000000  0.75000000  0.83504037  1
  Th  Th1  1  0.25000000  0.25000000  0.16495963  1
  N  N0  1  0.75000000  0.25000000  -0.00000000  1
  N  N1  1  0.25000000  0.75000000  -0.00000000  1
  Cl  Cl0  1  0.25000000  0.25000000  0.62219273  1
  Cl  Cl1  1  0.75000000  0.75000000  0.37780727  1
loop_
_geom_bond_atom_site_label_1
_geom_bond_atom_site_label_2
_geom_bond_distance
_geom_bond_site_symmetry_2
N0 Th1 2.349664 1_555
N0 Th1 2.349664 1_655
N0 Th0 2.349664 1_554
N0 Th0 2.349664 1_544
N1 Th1 2.349664 1_555
N1 Th1 2.349664 1_565
N1 Th0 2.349664 1_454
N1 Th0 2.349664 1_554
Cl0 Th1 3.192667 1_555
Cl0 Th0 3.255337 1_455
Cl0 Th0 3.255337 1_555
Cl0 Th0 3.255337 1_445
Cl0 Th0 3.255337 1_545
Cl1 Th0 3.192667 1_555
Cl1 Th1 3.255337 1_665
Cl1 Th1 3.255337 1_565
Cl1 Th1 3.255337 1_555
Cl1 Th1 3.255337 1_655
