# generated using pymatgen
data_Sn7Ir5
_symmetry_space_group_name_H-M   'P 1'
_cell_length_a   6.51473241
_cell_length_b   6.89222127
_cell_length_c   6.89222144
_cell_angle_alpha   77.09325860
_cell_angle_beta   61.79584336
_cell_angle_gamma   61.79582633
_symmetry_Int_Tables_number   1
_chemical_formula_structural   Sn7Ir5
_chemical_formula_sum   'Sn7 Ir5'
_cell_volume   240.34334357
_cell_formula_units_Z   1
loop_
 _symmetry_equiv_pos_site_id
 _symmetry_equiv_pos_as_xyz
  1  'x, y, z'
loop_
 _atom_site_type_symbol
 _atom_site_label
 _atom_site_symmetry_multiplicity
 _atom_site_fract_x
 _atom_site_fract_y
 _atom_site_fract_z
 _atom_site_occupancy
  Sn  Sn0  1  0.72380992  -0.00000000  0.57041159  1
  Sn  Sn1  1  0.29422151  0.42958841  0.00000000  1
  Sn  Sn2  1  0.72380992  0.57041159  0.00000000  1
  Sn  Sn3  1  0.29422151  -0.00000000  0.42958841  1
  Sn  Sn4  1  0.41697711  0.50000000  0.50000000  1
  Sn  Sn5  1  0.90260851  0.00000000  -0.00000000  1
  Sn  Sn6  1  0.91697711  0.50000000  0.50000000  1
  Ir  Ir0  1  0.93279004  0.24482700  0.24482700  1
  Ir  Ir1  1  0.17761704  0.75517300  0.24482700  1
  Ir  Ir2  1  0.17761704  0.24482700  0.75517300  1
  Ir  Ir3  1  0.42244304  0.75517300  0.75517300  1
  Ir  Ir4  1  0.50290426  0.00000000  -0.00000000  1
loop_
_geom_bond_atom_site_label_1
_geom_bond_atom_site_label_2
_geom_bond_distance
_geom_bond_site_symmetry_2
Ir0 Sn6 2.689977 1_555
Ir0 Sn2 2.707134 1_555
Ir0 Sn0 2.707135 1_555
Ir0 Sn5 2.762702 1_555
Ir0 Sn4 2.772644 1_555
Ir0 Sn3 2.851646 1_655
Ir0 Sn1 2.851646 1_655
Ir1 Sn4 2.689977 1_555
Ir1 Sn1 2.707135 1_555
Ir1 Sn0 2.707135 1_465
Ir1 Sn5 2.762702 1_465
Ir1 Sn6 2.772644 1_455
Ir1 Sn3 2.851646 1_565
Ir1 Sn2 2.851646 1_555
Ir2 Sn4 2.689978 1_555
Ir2 Sn2 2.707135 1_456
Ir2 Sn3 2.707135 1_555
Ir2 Sn5 2.762702 1_456
Ir2 Sn6 2.772644 1_455
Ir2 Sn1 2.851646 1_556
Ir2 Sn0 2.851646 1_555
Ir3 Sn6 2.689981 1_555
Ir3 Sn3 2.707132 1_565
Ir3 Sn1 2.707132 1_556
Ir3 Sn5 2.762698 1_466
Ir3 Sn4 2.772640 1_555
Ir3 Sn2 2.851650 1_556
Ir3 Sn0 2.851651 1_565
Ir4 Sn5 2.603966 1_555
Ir4 Sn2 2.609581 1_545
Ir4 Sn1 2.609581 1_555
Ir4 Sn3 2.609582 1_555
Ir4 Sn0 2.609582 1_554
