# generated using pymatgen
data_Na2Ca4SiSn4S11O48
_symmetry_space_group_name_H-M   'P 1'
_cell_length_a   17.96238679
_cell_length_b   8.98127425
_cell_length_c   23.60249986
_cell_angle_alpha   90.14513252
_cell_angle_beta   89.96803800
_cell_angle_gamma   120.07579028
_symmetry_Int_Tables_number   1
_chemical_formula_structural   Na2Ca4SiSn4S11O48
_chemical_formula_sum   'Na6 Ca12 Si3 Sn12 S33 O144'
_cell_volume   3295.01134696
_cell_formula_units_Z   3
loop_
 _symmetry_equiv_pos_site_id
 _symmetry_equiv_pos_as_xyz
  1  'x, y, z'
loop_
 _atom_site_type_symbol
 _atom_site_label
 _atom_site_symmetry_multiplicity
 _atom_site_fract_x
 _atom_site_fract_y
 _atom_site_fract_z
 _atom_site_occupancy
  Na  Na0  1  0.99805823  0.97906104  0.49461041  1
  Na  Na1  1  0.49862236  0.00967143  0.99948098  1
  Na  Na2  1  0.33651079  0.32671330  0.83929173  1
  Na  Na3  1  0.84071703  0.34385636  0.83221888  1
  Na  Na4  1  0.34088286  0.33055381  0.32883512  1
  Na  Na5  1  0.84308732  0.34683141  0.34115246  1
  Ca  Ca0  1  0.00233694  0.99242032  0.35704474  1
  Ca  Ca1  1  0.00301261  0.00242395  0.85848413  1
  Ca  Ca2  1  0.33211455  0.33608278  0.68219101  1
  Ca  Ca3  1  0.83582452  0.33373030  0.68155513  1
  Ca  Ca4  1  0.33968277  0.33335154  0.18503632  1
  Ca  Ca5  1  0.83313858  0.33032301  0.18213938  1
  Ca  Ca6  1  0.33962309  0.33478141  0.98259224  1
  Ca  Ca7  1  0.83475825  0.33576990  0.98555583  1
  Ca  Ca8  1  0.33572921  0.33485395  0.48295121  1
  Ca  Ca9  1  0.83686361  0.33892770  0.48119143  1
  Ca  Ca10  1  0.66378309  0.66388447  0.52080629  1
  Ca  Ca11  1  0.16444105  0.66485597  0.80784370  1
  Si  Si0  1  0.50086050  0.29398214  0.25440337  1
  Si  Si1  1  0.52236996  0.37740513  0.91296724  1
  Si  Si2  1  0.02130699  0.66514628  0.41749126  1
  Sn  Sn0  1  0.49870202  0.00448964  0.35262886  1
  Sn  Sn1  1  0.49928071  0.00726585  0.85423611  1
  Sn  Sn2  1  0.99839790  0.99629190  0.65134123  1
  Sn  Sn3  1  0.50073499  0.00252043  0.64676004  1
  Sn  Sn4  1  0.00063539  0.00068405  0.15110166  1
  Sn  Sn5  1  0.50058589  0.00928368  0.15394933  1
  Sn  Sn6  1  0.16615636  0.66537184  0.01694718  1
  Sn  Sn7  1  0.66222741  0.65406868  0.01758234  1
  Sn  Sn8  1  0.16504679  0.66859943  0.51850320  1
  Sn  Sn9  1  0.16079547  0.66312900  0.31417409  1
  Sn  Sn10  1  0.66599970  0.65943585  0.31301144  1
  Sn  Sn11  1  0.66570325  0.66356391  0.81328190  1
  S  S0  1  0.14560626  0.99300393  0.24981776  1
  S  S1  1  0.64309619  0.99308324  0.25281525  1
  S  S2  1  0.35124980  0.71298724  0.25385274  1
  S  S3  1  0.85195886  0.71097035  0.25008293  1
  S  S4  1  0.00470404  0.29711198  0.25053235  1
  S  S5  1  0.14425294  0.28569512  0.74868133  1
  S  S6  1  0.64345003  0.29032300  0.75227585  1
  S  S7  1  0.99774932  0.70972095  0.74964397  1
  S  S8  1  0.50409800  0.72192617  0.75342095  1
  S  S9  1  0.36022682  0.00252919  0.74939632  1
  S  S10  1  0.84901109  0.99044383  0.75301654  1
  S  S11  1  0.48136667  0.32418448  0.58616900  1
  S  S12  1  0.98843761  0.32916194  0.58402621  1
  S  S13  1  0.17977814  0.02696956  0.58354077  1
  S  S14  1  0.67973371  0.03569389  0.58604283  1
  S  S15  1  0.33177151  0.64083150  0.58268126  1
  S  S16  1  0.83860781  0.64356990  0.58606648  1
  S  S17  1  0.48888193  0.65014198  0.08403321  1
  S  S18  1  0.98818683  0.64426708  0.08392319  1
  S  S19  1  0.33320379  0.02032953  0.08249971  1
  S  S20  1  0.83206464  0.02015219  0.08279731  1
  S  S21  1  0.17938927  0.33391907  0.08353483  1
  S  S22  1  0.67862056  0.33021017  0.08299650  1
  S  S23  1  0.31465382  0.67266822  0.91544598  1
  S  S24  1  0.80760391  0.66531658  0.91643517  1
  S  S25  1  0.02170563  0.37978452  0.91794202  1
  S  S26  1  0.16746466  0.95356820  0.91827285  1
  S  S27  1  0.66465078  0.95263603  0.91393296  1
  S  S28  1  0.31305973  0.95010272  0.41430095  1
  S  S29  1  0.80732365  0.95251987  0.41332730  1
  S  S30  1  0.17002837  0.38702251  0.41622398  1
  S  S31  1  0.66389035  0.36793348  0.41324732  1
  S  S32  1  0.52046056  0.67580780  0.41084737  1
  O  O0  1  0.10487628  0.01492711  0.29916575  1
  O  O1  1  0.60038418  0.01703299  0.30297928  1
  O  O2  1  0.40728189  0.79251281  0.30414232  1
  O  O3  1  0.90537631  0.79080011  0.29893150  1
  O  O4  1  0.48432543  0.16620661  0.30815091  1
  O  O5  1  0.99350367  0.19330262  0.29966277  1
  O  O6  1  0.10209411  0.18007765  0.79794224  1
  O  O7  1  0.60163453  0.18132768  0.80357832  1
  O  O8  1  0.49163221  0.80561026  0.80533130  1
  O  O9  1  0.98679541  0.79449851  0.79881436  1
  O  O10  1  0.41469345  0.02866297  0.80177229  1
  O  O11  1  0.90052207  0.01161743  0.80272483  1
  O  O12  1  0.40401261  0.97972645  0.69836827  1
  O  O13  1  0.88627865  0.96160482  0.69968152  1
  O  O14  1  0.09103728  0.20171259  0.69455464  1
  O  O15  1  0.58965102  0.21107016  0.70102136  1
  O  O16  1  0.00763288  0.81220680  0.69548956  1
  O  O17  1  0.51591819  0.82676072  0.70176375  1
  O  O18  1  0.39051805  0.81845782  0.20142518  1
  O  O19  1  0.89158119  0.81775046  0.19621377  1
  O  O20  1  0.01635016  0.21601768  0.19630903  1
  O  O21  1  0.51978900  0.21146046  0.19579111  1
  O  O22  1  0.09042226  0.96070864  0.19656460  1
  O  O23  1  0.58908118  0.95959000  0.20001695  1
  O  O24  1  0.44095044  0.34642272  0.63684816  1
  O  O25  1  0.95153561  0.35716751  0.63495348  1
  O  O26  1  0.23006743  0.10387920  0.63459092  1
  O  O27  1  0.72910005  0.11588587  0.63751260  1
  O  O28  1  0.31495688  0.53661516  0.63336996  1
  O  O29  1  0.83038991  0.54637221  0.63741165  1
  O  O30  1  0.45222814  0.54592267  0.13421911  1
  O  O31  1  0.95082386  0.53697263  0.13395447  1
  O  O32  1  0.31914822  0.09331920  0.13352461  1
  O  O33  1  0.81445824  0.09158317  0.13337330  1
  O  O34  1  0.23172297  0.36858893  0.13424261  1
  O  O35  1  0.72871714  0.35198101  0.13394152  1
  O  O36  1  0.21527132  0.30067252  0.03294626  1
  O  O37  1  0.71571080  0.30243535  0.03176149  1
  O  O38  1  0.43722457  0.58094423  0.03281679  1
  O  O39  1  0.93530000  0.57272080  0.03331727  1
  O  O40  1  0.35042389  0.12534751  0.03196018  1
  O  O41  1  0.84859261  0.12695657  0.03266213  1
  O  O42  1  0.21611675  0.13078934  0.53248870  1
  O  O43  1  0.71661654  0.14328447  0.53595621  1
  O  O44  1  0.34773156  0.56691856  0.53226898  1
  O  O45  1  0.85636866  0.57175982  0.53547341  1
  O  O46  1  0.42787012  0.29227933  0.53541422  1
  O  O47  1  0.93640813  0.29561513  0.53322494  1
  O  O48  1  0.27787684  0.70470826  0.96883999  1
  O  O49  1  0.76632536  0.69067632  0.96858756  1
  O  O50  1  0.07406076  0.46229636  0.97232013  1
  O  O51  1  0.58112615  0.45760393  0.97127138  1
  O  O52  1  0.15801501  0.85022066  0.97275641  1
  O  O53  1  0.65205864  0.84921253  0.96598292  1
  O  O54  1  0.27479183  0.84766403  0.46625568  1
  O  O55  1  0.76540838  0.84905456  0.46292201  1
  O  O56  1  0.16324625  0.47350186  0.46878050  1
  O  O57  1  0.65040483  0.44451369  0.46315596  1
  O  O58  1  0.08379013  0.69477678  0.47379781  1
  O  O59  1  0.56976408  0.70481503  0.46213087  1
  O  O60  1  0.06492826  0.63354645  0.35844626  1
  O  O61  1  0.56357625  0.65337540  0.35949750  1
  O  O62  1  0.26076976  0.86818902  0.36236661  1
  O  O63  1  0.75481334  0.86476923  0.35882289  1
  O  O64  1  0.18366019  0.49351359  0.36365400  1
  O  O65  1  0.67622938  0.47539823  0.36099407  1
  O  O66  1  0.06408870  0.48601582  0.86883467  1
  O  O67  1  0.56897063  0.49490493  0.85659713  1
  O  O68  1  0.17936391  0.86983945  0.86903683  1
  O  O69  1  0.67822993  0.87435688  0.86222735  1
  O  O70  1  0.26618652  0.65834562  0.86525618  1
  O  O71  1  0.75394384  0.64112331  0.86421086  1
  O  O72  1  0.01868396  0.84079425  0.41980581  1
  O  O73  1  0.51286588  0.83538104  0.40253686  1
  O  O74  1  0.39846970  0.95960001  0.40899496  1
  O  O75  1  0.89262534  0.97163788  0.40802992  1
  O  O76  1  0.09046586  0.22299546  0.41302062  1
  O  O77  1  0.58383058  0.19333329  0.40654219  1
  O  O78  1  0.01444372  0.21157190  0.91600697  1
  O  O79  1  0.51956223  0.18660252  0.90990323  1
  O  O80  1  0.08867757  0.96144971  0.91662189  1
  O  O81  1  0.58243770  0.95830244  0.90819936  1
  O  O82  1  0.40505907  0.83474521  0.91252381  1
  O  O83  1  0.89035410  0.81788881  0.91192174  1
  O  O84  1  0.48769031  0.16105250  0.59242928  1
  O  O85  1  0.99774546  0.16939977  0.59186080  1
  O  O86  1  0.08987433  0.00114522  0.59038499  1
  O  O87  1  0.58957896  0.01940532  0.59261107  1
  O  O88  1  0.40950295  0.81704840  0.59199382  1
  O  O89  1  0.92084534  0.82561280  0.59130560  1
  O  O90  1  0.49959678  0.82942947  0.09290316  1
  O  O91  1  0.99887602  0.82148952  0.09332295  1
  O  O92  1  0.41099118  0.99428944  0.08964601  1
  O  O93  1  0.90917632  0.99788458  0.09249474  1
  O  O94  1  0.08926445  0.17980349  0.09271743  1
  O  O95  1  0.58906192  0.17175782  0.08831222  1
  O  O96  1  0.35504699  0.15911512  0.74510019  1
  O  O97  1  0.83524086  0.13704621  0.74700309  1
  O  O98  1  0.22950416  0.30079137  0.74291686  1
  O  O99  1  0.72848638  0.30834643  0.74842840  1
  O  O100  1  0.42853412  0.55039047  0.74918301  1
  O  O101  1  0.92033565  0.53694516  0.74510138  1
  O  O102  1  0.33926803  0.54036394  0.24775199  1
  O  O103  1  0.83877640  0.53733401  0.24170120  1
  O  O104  1  0.41775152  0.31450441  0.25107716  1
  O  O105  1  0.93086077  0.32296878  0.24283993  1
  O  O106  1  0.23015021  0.14526487  0.24191443  1
  O  O107  1  0.72771828  0.14789652  0.24681014  1
  O  O108  1  0.32513474  0.52269724  0.92224958  1
  O  O109  1  0.81166858  0.50595723  0.92077317  1
  O  O110  1  0.42874720  0.35421431  0.91524675  1
  O  O111  1  0.93599918  0.36486013  0.92367433  1
  O  O112  1  0.24386506  0.12600032  0.92423299  1
  O  O113  1  0.73872191  0.12659441  0.91894313  1
  O  O114  1  0.32363497  0.12296200  0.41845666  1
  O  O115  1  0.81142860  0.12005321  0.41413915  1
  O  O116  1  0.24675865  0.36860375  0.41971511  1
  O  O117  1  0.73892375  0.34547360  0.41544127  1
  O  O118  1  0.43354526  0.52402118  0.41304589  1
  O  O119  1  0.92964423  0.49123441  0.41674833  1
  O  O120  1  0.16758137  0.48943472  0.07402164  1
  O  O121  1  0.66960411  0.48764306  0.07728759  1
  O  O122  1  0.07685245  0.66838172  0.07508975  1
  O  O123  1  0.57823039  0.67652337  0.07518535  1
  O  O124  1  0.25594953  0.84346924  0.07393804  1
  O  O125  1  0.75406858  0.84234581  0.07271065  1
  O  O126  1  0.17203594  0.85257518  0.57706462  1
  O  O127  1  0.66517370  0.86219277  0.57994354  1
  O  O128  1  0.25545995  0.66686447  0.57373289  1
  O  O129  1  0.76604889  0.67135538  0.57957377  1
  O  O130  1  0.07802458  0.47926247  0.57668967  1
  O  O131  1  0.56755321  0.46980008  0.57994219  1
  O  O132  1  0.15443001  0.83489578  0.25363315  1
  O  O133  1  0.65140540  0.83817901  0.25948812  1
  O  O134  1  0.26686674  0.70614803  0.26126059  1
  O  O135  1  0.76677243  0.70339747  0.25482165  1
  O  O136  1  0.08737762  0.46915128  0.25301670  1
  O  O137  1  0.59091351  0.47853907  0.26114703  1
  O  O138  1  0.15113223  0.45391963  0.75042471  1
  O  O139  1  0.64970962  0.46191071  0.75795646  1
  O  O140  1  0.07572057  0.69817215  0.75088901  1
  O  O141  1  0.58527547  0.71648885  0.75917164  1
  O  O142  1  0.27837945  0.84684817  0.75359123  1
  O  O143  1  0.76030868  0.82515781  0.75761089  1
loop_
_geom_bond_atom_site_label_1
_geom_bond_atom_site_label_2
_geom_bond_distance
_geom_bond_site_symmetry_2
Na0 O72 2.290394 1_655
Na0 O89 2.669863 1_555
Na0 O86 2.746505 1_665
Na0 O76 2.763390 1_665
Na0 O75 2.764789 1_555
Na0 O85 2.860200 1_565
Na1 O79 2.560032 1_555
Na1 O95 2.602339 1_556
Na1 O92 2.608727 1_546
Na1 O82 2.616524 1_545
Na1 O90 2.743969 1_546
Na1 O81 2.794412 1_545
Na2 O110 2.368700 1_555
Na2 O112 2.654450 1_555
Na2 O108 2.704888 1_555
Na2 O96 2.793491 1_555
Na2 O100 2.825012 1_555
Na2 O98 2.911449 1_555
Na3 O101 2.609520 1_555
Na3 O111 2.702354 1_555
Na3 O97 2.702444 1_555
Na3 O99 2.726481 1_555
Na3 O109 2.739544 1_555
Na3 O113 2.790488 1_555
Na4 O104 2.343247 1_555
Na4 O118 2.612951 1_555
Na4 O102 2.699495 1_555
Na4 O114 2.736216 1_555
Na4 O106 2.757547 1_555
Na4 O116 2.854396 1_555
Na5 O119 2.291988 1_555
Na5 O115 2.509012 1_555
Na5 O117 2.559079 1_555
Na5 O105 2.871949 1_555
Na5 O103 2.931981 1_555
Na5 O107 2.952780 1_555
Ca0 O72 2.132251 1_555
Ca0 O0 2.219212 1_565
Ca0 O75 2.235254 1_455
Ca0 O3 2.241151 1_455
Ca0 O76 2.289681 1_565
Ca0 O5 2.326813 1_465
Ca1 O6 2.217584 1_555
Ca1 O80 2.226783 1_545
Ca1 O9 2.235518 1_445
Ca1 O78 2.239357 1_555
Ca1 O83 2.253629 1_445
Ca1 O11 2.298614 1_455
Ca2 O24 2.189065 1_555
Ca2 O98 2.228384 1_555
Ca2 O26 2.265025 1_555
Ca2 O28 2.287740 1_555
Ca2 O96 2.359952 1_555
Ca2 O100 2.418852 1_555
Ca3 O27 2.194580 1_555
Ca3 O29 2.222487 1_555
Ca3 O101 2.257604 1_555
Ca3 O25 2.265873 1_555
Ca3 O97 2.345632 1_555
Ca3 O99 2.412154 1_555
Ca4 O104 2.160191 1_555
Ca4 O106 2.281250 1_555
Ca4 O30 2.304520 1_555
Ca4 O32 2.334936 1_555
Ca4 O102 2.376524 1_555
Ca4 O34 2.432615 1_555
Ca5 O35 2.284562 1_555
Ca5 O103 2.289425 1_555
Ca5 O105 2.292946 1_555
Ca5 O31 2.298333 1_555
Ca5 O33 2.302552 1_555
Ca5 O107 2.345174 1_555
Ca6 O110 2.199633 1_555
Ca6 O112 2.264687 1_555
Ca6 O40 2.304466 1_556
Ca6 O108 2.323233 1_555
Ca6 O38 2.338987 1_556
Ca6 O36 2.410104 1_556
Ca7 O111 2.243055 1_555
Ca7 O39 2.280176 1_556
Ca7 O37 2.282326 1_556
Ca7 O41 2.300662 1_556
Ca7 O109 2.343971 1_555
Ca7 O113 2.391005 1_555
Ca8 O46 2.248943 1_555
Ca8 O44 2.298496 1_555
Ca8 O116 2.316032 1_555
Ca8 O42 2.324548 1_555
Ca8 O114 2.357402 1_555
Ca8 O118 2.390585 1_555
Ca9 O119 2.164459 1_555
Ca9 O45 2.321557 1_555
Ca9 O47 2.357705 1_555
Ca9 O117 2.369351 1_555
Ca9 O43 2.372337 1_555
Ca9 O115 2.379601 1_555
Ca10 O55 2.220471 1_555
Ca10 O131 2.228027 1_555
Ca10 O127 2.250306 1_555
Ca10 O129 2.276315 1_555
Ca10 O57 2.302884 1_555
Ca10 O59 2.352136 1_555
Ca11 O140 2.217799 1_555
Ca11 O66 2.237928 1_555
Ca11 O138 2.239704 1_555
Ca11 O68 2.244896 1_555
Ca11 O142 2.270400 1_555
Ca11 O70 2.300004 1_555
O0 S0 1.439756 1_545
O1 S1 1.483181 1_545
O1 Sn0 2.124598 1_555
O2 S2 1.486111 1_555
O2 Sn0 2.118574 1_565
O3 S3 1.439278 1_555
O4 Si0 1.637005 1_555
O4 Sn0 1.913698 1_555
O5 S4 1.439313 1_655
O6 S5 1.452487 1_555
O7 S6 1.502222 1_555
O7 Sn1 2.092824 1_555
O8 S8 1.509928 1_555
O8 Sn1 2.090835 1_565
O9 S7 1.452841 1_555
O10 S9 1.519928 1_555
O10 Sn1 2.043224 1_555
O11 S10 1.446543 1_545
O12 S9 1.506721 1_565
O12 Sn3 2.046091 1_565
O13 S10 1.507007 1_555
O13 Sn2 2.196617 1_555
O14 S5 1.545490 1_555
O14 Sn2 2.031839 1_445
O15 S6 1.487102 1_555
O15 Sn3 2.165898 1_555
O16 S7 1.534411 1_455
O16 Sn2 2.032381 1_455
O17 S8 1.491072 1_555
O17 Sn3 2.166530 1_565
O18 S2 1.503768 1_555
O18 Sn5 2.170910 1_565
O19 S3 1.537495 1_555
O19 Sn4 2.109751 1_665
O20 S4 1.536170 1_555
O20 Sn4 2.097891 1_555
O21 Si0 1.680934 1_555
O21 Sn5 1.937770 1_555
O22 S0 1.535536 1_555
O22 Sn4 2.113207 1_565
O23 S1 1.513842 1_555
O23 Sn5 2.150277 1_565
O24 S11 1.463169 1_555
O25 S12 1.453323 1_555
O26 S13 1.454829 1_555
O27 S14 1.462005 1_555
O28 S15 1.456214 1_555
O29 S16 1.458935 1_555
O30 S17 1.449052 1_555
O31 S18 1.459496 1_555
O32 S19 1.450998 1_555
O33 S20 1.461373 1_555
O34 S21 1.455685 1_555
O35 S22 1.455153 1_555
O36 S21 1.456187 1_555
O37 S22 1.460335 1_555
O38 S17 1.458753 1_555
O39 S18 1.458615 1_555
O40 S19 1.456394 1_555
O41 S20 1.458918 1_555
O42 S13 1.463626 1_555
O43 S14 1.460631 1_555
O44 S15 1.457730 1_555
O45 S16 1.464774 1_555
O46 S11 1.471092 1_555
O47 S12 1.455709 1_555
O48 S23 1.514976 1_555
O48 Sn6 2.174872 1_556
O49 S24 1.511174 1_555
O49 Sn7 2.079668 1_556
O50 S25 1.542354 1_555
O50 Sn6 2.034870 1_556
O51 Si1 1.661646 1_555
O51 Sn7 1.961139 1_556
O52 S26 1.546579 1_555
O52 Sn6 2.029219 1_556
O53 S27 1.489327 1_555
O53 Sn7 2.218165 1_556
O54 S28 1.481074 1_555
O54 Sn8 2.196103 1_555
O55 S29 1.450471 1_555
O56 S30 1.498878 1_555
O56 Sn8 2.093192 1_555
O57 S31 1.442880 1_555
O58 Si2 1.672473 1_555
O58 Sn8 1.909417 1_555
O59 S32 1.444174 1_555
O60 Si2 1.690057 1_555
O60 Sn9 1.915361 1_555
O61 S32 1.504458 1_555
O61 Sn10 2.118777 1_555
O62 S28 1.493354 1_555
O62 Sn9 2.141800 1_555
O63 S29 1.554624 1_555
O63 Sn10 2.039151 1_555
O64 S30 1.511686 1_555
O64 Sn9 2.118919 1_555
O65 S31 1.514279 1_555
O65 Sn10 2.088666 1_555
O66 S25 1.452545 1_555
O67 Si1 1.644685 1_555
O67 Sn11 1.930454 1_555
O68 S26 1.455345 1_555
O69 S27 1.486707 1_555
O69 Sn11 2.128759 1_555
O70 S23 1.437322 1_555
O71 S24 1.511841 1_555
O71 Sn11 2.078784 1_555
O72 Si2 1.602468 1_555
O73 S32 1.519367 1_555
O73 Sn0 2.038574 1_565
O74 S28 1.498435 1_555
O74 Sn0 2.108662 1_565
O75 S29 1.459117 1_555
O76 S30 1.451809 1_555
O77 S31 1.513562 1_555
O77 Sn0 2.055689 1_555
O78 S25 1.450396 1_555
O79 Si1 1.690303 1_555
O79 Sn1 1.963406 1_555
O80 S26 1.452520 1_555
O81 S27 1.509058 1_555
O81 Sn1 2.170270 1_565
O82 S23 1.546565 1_555
O82 Sn1 2.130178 1_565
O83 S24 1.434404 1_555
O84 S11 1.532732 1_555
O84 Sn3 2.017557 1_555
O85 S12 1.537146 1_555
O85 Sn2 2.101798 1_545
O86 S13 1.520605 1_555
O86 Sn2 2.167395 1_445
O87 S14 1.558929 1_555
O87 Sn3 1.989797 1_555
O88 S15 1.512067 1_555
O88 Sn3 2.094416 1_565
O89 S16 1.564927 1_555
O89 Sn2 2.036943 1_555
O90 S17 1.536694 1_555
O90 Sn5 2.155243 1_565
O91 S18 1.520359 1_555
O91 Sn4 2.094956 1_665
O92 S19 1.537347 1_565
O92 Sn5 2.167033 1_565
O93 S20 1.512992 1_565
O93 Sn4 2.138667 1_665
O94 S21 1.529314 1_555
O94 Sn4 2.112625 1_555
O95 S22 1.528053 1_555
O95 Sn5 2.177011 1_555
O96 S9 1.458978 1_555
O97 S10 1.463683 1_545
O98 S5 1.474308 1_555
O99 S6 1.455909 1_555
O100 S8 1.459201 1_555
O101 S7 1.479738 1_555
O102 S2 1.461229 1_555
O103 S3 1.468178 1_555
O104 Si0 1.595206 1_555
O105 S4 1.468144 1_655
O106 S0 1.459640 1_545
O107 S1 1.465012 1_545
O108 S23 1.459705 1_555
O109 S24 1.473017 1_555
O110 Si1 1.588470 1_555
O111 S25 1.483018 1_655
O112 S26 1.473229 1_545
O113 S27 1.463198 1_545
O114 S28 1.469564 1_545
O115 S29 1.469173 1_545
O116 S30 1.470533 1_555
O117 S31 1.460310 1_555
O118 S32 1.471588 1_555
O119 Si2 1.604113 1_655
O120 S21 1.531279 1_555
O120 Sn6 2.088908 1_555
O121 S22 1.508028 1_555
O121 Sn7 2.108777 1_555
O122 S18 1.510308 1_455
O122 Sn6 2.120839 1_555
O123 S17 1.514672 1_555
O123 Sn7 2.113493 1_555
O124 S19 1.509635 1_565
O124 Sn6 2.091664 1_555
O125 S20 1.525017 1_565
O125 Sn7 2.114040 1_555
O126 S13 1.508788 1_565
O126 Sn8 2.106455 1_555
O127 S14 1.451805 1_565
O128 S15 1.516573 1_555
O128 Sn8 2.089218 1_555
O129 S16 1.452872 1_555
O130 S12 1.504463 1_455
O130 Sn8 2.136907 1_555
O131 S11 1.449164 1_555
O132 S0 1.508612 1_555
O132 Sn9 2.150092 1_555
O133 S1 1.480500 1_555
O133 Sn10 2.161984 1_555
O134 S2 1.496060 1_555
O134 Sn9 2.145020 1_555
O135 S3 1.501345 1_555
O135 Sn10 2.145312 1_555
O136 S4 1.515249 1_555
O136 Sn9 2.131782 1_555
O137 Si0 1.643457 1_555
O137 Sn10 1.937175 1_555
O138 S5 1.453361 1_555
O139 S6 1.493598 1_555
O139 Sn11 2.129491 1_555
O140 S7 1.455618 1_455
O141 S8 1.489499 1_555
O141 Sn11 2.153489 1_555
O142 S9 1.437508 1_565
O143 S10 1.544033 1_555
O143 Sn11 2.062971 1_555
