# generated using pymatgen
data_Na10Ca4Y4Si3(S3O16)3
_symmetry_space_group_name_H-M   'P 1'
_cell_length_a   18.74881625
_cell_length_b   9.34978313
_cell_length_c   23.78716124
_cell_angle_alpha   89.91285002
_cell_angle_beta   89.75071507
_cell_angle_gamma   120.09030200
_symmetry_Int_Tables_number   1
_chemical_formula_structural   Na10Ca4Y4Si3(S3O16)3
_chemical_formula_sum   'Na30 Ca12 Y12 Si9 S27 O144'
_cell_volume   3607.81823071
_cell_formula_units_Z   3
loop_
 _symmetry_equiv_pos_site_id
 _symmetry_equiv_pos_as_xyz
  1  'x, y, z'
loop_
 _atom_site_type_symbol
 _atom_site_label
 _atom_site_symmetry_multiplicity
 _atom_site_fract_x
 _atom_site_fract_y
 _atom_site_fract_z
 _atom_site_occupancy
  Na  Na0  1  0.19572710  0.37336977  0.23981478  1
  Na  Na1  1  0.69575468  0.37799172  0.23957107  1
  Na  Na2  1  0.98499028  0.64454457  0.25643829  1
  Na  Na3  1  0.48764858  0.63736808  0.26490112  1
  Na  Na4  1  0.32722928  0.66656988  0.74371607  1
  Na  Na5  1  0.82290965  0.65955405  0.74299221  1
  Na  Na6  1  0.98599688  0.33040190  0.75343476  1
  Na  Na7  1  0.19222211  0.00629755  0.73544640  1
  Na  Na8  1  0.69479639  0.01013533  0.73700045  1
  Na  Na9  1  0.52723436  0.71021712  0.56774606  1
  Na  Na10  1  0.32174086  0.97478327  0.59200474  1
  Na  Na11  1  0.82090139  0.96662436  0.59116480  1
  Na  Na12  1  0.15566032  0.99155842  0.07830040  1
  Na  Na13  1  0.65568366  0.99104255  0.07798156  1
  Na  Na14  1  0.32363865  0.67149763  0.09497887  1
  Na  Na15  1  0.82330651  0.67224341  0.09597429  1
  Na  Na16  1  0.65335457  0.99856183  0.42753291  1
  Na  Na17  1  0.36197930  0.67719813  0.40530390  1
  Na  Na18  1  0.02365205  0.00223261  0.50013031  1
  Na  Na19  1  0.51570968  0.00623908  0.49563164  1
  Na  Na20  1  0.01295432  0.04082880  0.99904595  1
  Na  Na21  1  0.51333684  0.04193848  0.99795577  1
  Na  Na22  1  0.34804436  0.30575943  0.82887699  1
  Na  Na23  1  0.83400692  0.30367496  0.83257863  1
  Na  Na24  1  0.34577835  0.35176075  0.33457374  1
  Na  Na25  1  0.84106581  0.36262257  0.32955651  1
  Na  Na26  1  0.17641416  0.64434412  0.16350019  1
  Na  Na27  1  0.67793823  0.64577694  0.16633596  1
  Na  Na28  1  0.17033056  0.69514010  0.65622188  1
  Na  Na29  1  0.66934462  0.67834205  0.65793573  1
  Ca  Ca0  1  0.99337952  0.98887597  0.35054313  1
  Ca  Ca1  1  0.49633017  0.99660914  0.34857520  1
  Ca  Ca2  1  0.99694776  0.00272459  0.85164705  1
  Ca  Ca3  1  0.49610331  0.00604916  0.85089271  1
  Ca  Ca4  1  0.33242157  0.31967737  0.68174417  1
  Ca  Ca5  1  0.83039907  0.32544476  0.67797036  1
  Ca  Ca6  1  0.33337060  0.33451134  0.18171805  1
  Ca  Ca7  1  0.83293820  0.33423873  0.18112282  1
  Ca  Ca8  1  0.16326748  0.65073635  0.01561329  1
  Ca  Ca9  1  0.66325196  0.65084677  0.01591525  1
  Ca  Ca10  1  0.16118650  0.66752941  0.51714172  1
  Ca  Ca11  1  0.66468284  0.66312153  0.51220947  1
  Y  Y0  1  0.00330739  0.00037135  0.64790718  1
  Y  Y1  1  0.50195886  0.01005596  0.65075724  1
  Y  Y2  1  0.99489966  0.00422767  0.15250237  1
  Y  Y3  1  0.49559852  0.00401509  0.15169261  1
  Y  Y4  1  0.32884306  0.33210418  0.98334148  1
  Y  Y5  1  0.82852301  0.33235408  0.98325893  1
  Y  Y6  1  0.32835252  0.32473323  0.48274911  1
  Y  Y7  1  0.82953892  0.33144288  0.48687024  1
  Y  Y8  1  0.17352232  0.67497512  0.31611402  1
  Y  Y9  1  0.67000809  0.67217411  0.31982612  1
  Y  Y10  1  0.17295955  0.67648439  0.82064660  1
  Y  Y11  1  0.66695819  0.66857934  0.81909208  1
  Si  Si0  1  0.34692422  0.69108402  0.24992321  1
  Si  Si1  1  0.84730143  0.69340650  0.24757754  1
  Si  Si2  1  0.34719640  0.99657519  0.74935939  1
  Si  Si3  1  0.84941584  0.99932101  0.74823036  1
  Si  Si4  1  0.18025909  0.02546019  0.58657622  1
  Si  Si5  1  0.67816206  0.02164680  0.58497681  1
  Si  Si6  1  0.18021450  0.32867715  0.08737326  1
  Si  Si7  1  0.68025167  0.32901253  0.08712340  1
  Si  Si8  1  0.51302731  0.66673156  0.41669773  1
  S  S0  1  0.14595156  0.99556691  0.24953756  1
  S  S1  1  0.64807433  0.99667409  0.24962572  1
  S  S2  1  0.00253802  0.30618958  0.25307988  1
  S  S3  1  0.50308019  0.30729685  0.25155167  1
  S  S4  1  0.14867560  0.30220342  0.75184679  1
  S  S5  1  0.65195483  0.30407066  0.75189726  1
  S  S6  1  0.00118009  0.70187749  0.75268504  1
  S  S7  1  0.50134486  0.70690400  0.75103364  1
  S  S8  1  0.48215505  0.33284393  0.58258531  1
  S  S9  1  0.98229007  0.32976856  0.58522843  1
  S  S10  1  0.33544277  0.63682823  0.58498624  1
  S  S11  1  0.83424981  0.63987054  0.58553520  1
  S  S12  1  0.48393166  0.63817395  0.08387847  1
  S  S13  1  0.98432033  0.63861994  0.08385145  1
  S  S14  1  0.33249748  0.03247511  0.08182146  1
  S  S15  1  0.83291786  0.03337379  0.08160139  1
  S  S16  1  0.31873174  0.66444663  0.91796062  1
  S  S17  1  0.81725225  0.66378892  0.91690872  1
  S  S18  1  0.01371679  0.36576312  0.91467645  1
  S  S19  1  0.51394914  0.36545882  0.91736768  1
  S  S20  1  0.16696667  0.97049031  0.91844966  1
  S  S21  1  0.66707176  0.96939029  0.91776744  1
  S  S22  1  0.31569547  0.96442227  0.41909891  1
  S  S23  1  0.81868044  0.97582424  0.41975256  1
  S  S24  1  0.16623079  0.36966285  0.41628791  1
  S  S25  1  0.67028619  0.36370158  0.41557452  1
  S  S26  1  0.01463222  0.66232933  0.41456952  1
  O  O0  1  0.10650260  0.02469759  0.29790400  1
  O  O1  1  0.60948734  0.02155102  0.30003241  1
  O  O2  1  0.39999138  0.78255325  0.30553891  1
  O  O3  1  0.91151347  0.79503441  0.29699922  1
  O  O4  1  0.49531785  0.21210051  0.30206812  1
  O  O5  1  0.99520156  0.20986810  0.30278365  1
  O  O6  1  0.11318348  0.19466558  0.80110148  1
  O  O7  1  0.61333904  0.19964546  0.80111177  1
  O  O8  1  0.49399617  0.79200392  0.80024125  1
  O  O9  1  0.99208924  0.78237954  0.80256954  1
  O  O10  1  0.40074128  0.99596631  0.80151762  1
  O  O11  1  0.91198143  0.02716486  0.79883792  1
  O  O12  1  0.38707933  0.97073704  0.68974203  1
  O  O13  1  0.88721842  0.96586496  0.68956330  1
  O  O14  1  0.09720025  0.22122488  0.70127607  1
  O  O15  1  0.60322756  0.22563558  0.70039467  1
  O  O16  1  0.01627810  0.80783420  0.70196285  1
  O  O17  1  0.51513070  0.80937407  0.69902390  1
  O  O18  1  0.39079106  0.79513954  0.19119072  1
  O  O19  1  0.88707404  0.78859544  0.18625197  1
  O  O20  1  0.01521474  0.22821392  0.20166715  1
  O  O21  1  0.51274962  0.22390764  0.20080203  1
  O  O22  1  0.09687807  0.97506781  0.19713959  1
  O  O23  1  0.59686414  0.97954331  0.19889369  1
  O  O24  1  0.44519707  0.35952383  0.63340766  1
  O  O25  1  0.94821832  0.35175610  0.63885229  1
  O  O26  1  0.22771410  0.10297928  0.64606952  1
  O  O27  1  0.72946910  0.10711597  0.64214158  1
  O  O28  1  0.32875423  0.54659522  0.63753062  1
  O  O29  1  0.82998927  0.55572723  0.63951330  1
  O  O30  1  0.44998588  0.54360038  0.13617899  1
  O  O31  1  0.95058043  0.54472716  0.13646788  1
  O  O32  1  0.32662893  0.11377477  0.13286923  1
  O  O33  1  0.82707879  0.11436142  0.13275749  1
  O  O34  1  0.22940768  0.34768572  0.14579156  1
  O  O35  1  0.72950955  0.34745310  0.14535168  1
  O  O36  1  0.23283860  0.30399399  0.03507837  1
  O  O37  1  0.73254448  0.30357150  0.03464187  1
  O  O38  1  0.43138285  0.54509791  0.03522821  1
  O  O39  1  0.93140200  0.54415447  0.03541516  1
  O  O40  1  0.34404788  0.13585790  0.03132354  1
  O  O41  1  0.84423669  0.13711852  0.03115629  1
  O  O42  1  0.23488195  0.14558781  0.53372271  1
  O  O43  1  0.72790571  0.13357135  0.52835884  1
  O  O44  1  0.34499129  0.55065511  0.53535502  1
  O  O45  1  0.84131979  0.54612946  0.53758755  1
  O  O46  1  0.43112173  0.31477150  0.53272300  1
  O  O47  1  0.92810563  0.31890650  0.53767270  1
  O  O48  1  0.27568719  0.67690786  0.96790046  1
  O  O49  1  0.77507558  0.67549064  0.96739070  1
  O  O50  1  0.06340941  0.45932267  0.96299186  1
  O  O51  1  0.56039137  0.45156232  0.96769178  1
  O  O52  1  0.16173668  0.87656925  0.96967282  1
  O  O53  1  0.66254792  0.87741651  0.96927256  1
  O  O54  1  0.27618432  0.86784385  0.47009914  1
  O  O55  1  0.78115054  0.88200313  0.47194778  1
  O  O56  1  0.15958074  0.45595874  0.46573040  1
  O  O57  1  0.66562786  0.44925232  0.46554019  1
  O  O58  1  0.06444520  0.66937647  0.46308006  1
  O  O59  1  0.56699676  0.68603688  0.47277478  1
  O  O60  1  0.05418099  0.65054566  0.36087910  1
  O  O61  1  0.56141814  0.65741976  0.35892504  1
  O  O62  1  0.26432562  0.87728852  0.36891149  1
  O  O63  1  0.76466453  0.88522827  0.37080811  1
  O  O64  1  0.17397257  0.46819016  0.36403678  1
  O  O65  1  0.67716193  0.45875430  0.36346247  1
  O  O66  1  0.05360802  0.45571009  0.86096612  1
  O  O67  1  0.55729848  0.46297907  0.86586241  1
  O  O68  1  0.17176241  0.88095240  0.86737380  1
  O  O69  1  0.67202050  0.87921779  0.86689823  1
  O  O70  1  0.26926322  0.64825380  0.86616676  1
  O  O71  1  0.76772908  0.64933935  0.86532705  1
  O  O72  1  0.00746809  0.81307215  0.41424106  1
  O  O73  1  0.50738558  0.83862529  0.41596174  1
  O  O74  1  0.39763446  0.97856064  0.41350344  1
  O  O75  1  0.90200846  0.00345232  0.41308521  1
  O  O76  1  0.09545687  0.20137297  0.41255702  1
  O  O77  1  0.59757834  0.19440839  0.41324213  1
  O  O78  1  0.00637675  0.20036597  0.91526463  1
  O  O79  1  0.50638044  0.20016920  0.91580855  1
  O  O80  1  0.09431908  0.99169762  0.91488649  1
  O  O81  1  0.59470823  0.99093601  0.91405008  1
  O  O82  1  0.40188473  0.81046734  0.91448208  1
  O  O83  1  0.90032102  0.80952574  0.91322286  1
  O  O84  1  0.48385024  0.17453049  0.58724974  1
  O  O85  1  0.98022057  0.16729263  0.58634019  1
  O  O86  1  0.08728749  0.00442335  0.58599444  1
  O  O87  1  0.58346130  0.99361945  0.58567521  1
  O  O88  1  0.41248857  0.80476968  0.58645142  1
  O  O89  1  0.90823377  0.80921366  0.58457779  1
  O  O90  1  0.48389951  0.79959838  0.08631743  1
  O  O91  1  0.98473868  0.80025525  0.08587941  1
  O  O92  1  0.40339494  0.00131215  0.08446264  1
  O  O93  1  0.90418480  0.00344011  0.08406623  1
  O  O94  1  0.08954804  0.15369346  0.08688564  1
  O  O95  1  0.58983587  0.15368050  0.08656093  1
  O  O96  1  0.33041536  0.15202319  0.75072973  1
  O  O97  1  0.83820703  0.16402916  0.74733743  1
  O  O98  1  0.23517159  0.34146793  0.74405684  1
  O  O99  1  0.73751653  0.33196340  0.74602783  1
  O  O100  1  0.42479411  0.54485472  0.74531890  1
  O  O101  1  0.92512137  0.53755480  0.74575171  1
  O  O102  1  0.34019555  0.50755487  0.25006757  1
  O  O103  1  0.83943618  0.50789116  0.24886907  1
  O  O104  1  0.43149994  0.33232770  0.24611149  1
  O  O105  1  0.93020085  0.32912732  0.24688984  1
  O  O106  1  0.23094677  0.13511566  0.24390144  1
  O  O107  1  0.73192778  0.13976981  0.24406638  1
  O  O108  1  0.32507061  0.51126763  0.92044764  1
  O  O109  1  0.82370395  0.51003106  0.91890710  1
  O  O110  1  0.43031833  0.34883151  0.91850382  1
  O  O111  1  0.93012898  0.34931343  0.91747600  1
  O  O112  1  0.24463902  0.13555433  0.91851017  1
  O  O113  1  0.74517044  0.13520458  0.91734991  1
  O  O114  1  0.32413307  0.13134736  0.42033821  1
  O  O115  1  0.81997116  0.13854491  0.42145918  1
  O  O116  1  0.24578939  0.36667838  0.41879241  1
  O  O117  1  0.74574303  0.34468453  0.41780745  1
  O  O118  1  0.41768864  0.50714193  0.41817540  1
  O  O119  1  0.93070176  0.51075998  0.41823572  1
  O  O120  1  0.17851753  0.50141307  0.08073382  1
  O  O121  1  0.67869742  0.50172827  0.08073904  1
  O  O122  1  0.07067397  0.67793809  0.07650876  1
  O  O123  1  0.57057014  0.67907543  0.07651590  1
  O  O124  1  0.25481629  0.86963297  0.07715426  1
  O  O125  1  0.75533380  0.87068025  0.07687563  1
  O  O126  1  0.17839244  0.84815033  0.58145495  1
  O  O127  1  0.67194062  0.83896510  0.58230351  1
  O  O128  1  0.26357653  0.66092050  0.57935243  1
  O  O129  1  0.75995806  0.65632751  0.58044859  1
  O  O130  1  0.06680787  0.46658553  0.57815762  1
  O  O131  1  0.56667107  0.47469883  0.57679401  1
  O  O132  1  0.14583295  0.83543054  0.25580802  1
  O  O133  1  0.65002863  0.83896573  0.25362403  1
  O  O134  1  0.25086834  0.66055289  0.25180651  1
  O  O135  1  0.75232104  0.66363551  0.25344686  1
  O  O136  1  0.07792993  0.47628279  0.25600182  1
  O  O137  1  0.58010105  0.47457239  0.25353813  1
  O  O138  1  0.14872072  0.46230395  0.75874159  1
  O  O139  1  0.66045628  0.47206765  0.75713784  1
  O  O140  1  0.07374810  0.67583439  0.75760819  1
  O  O141  1  0.57588372  0.68718651  0.75583416  1
  O  O142  1  0.25235805  0.82097131  0.75298963  1
  O  O143  1  0.75533132  0.83038604  0.75617867  1
loop_
_geom_bond_atom_site_label_1
_geom_bond_atom_site_label_2
_geom_bond_distance
_geom_bond_site_symmetry_2
Na0 O102 2.359929 1_555
Na0 O134 2.362481 1_555
Na0 O34 2.366423 1_555
Na0 O106 2.623484 1_555
Na0 O136 2.841914 1_555
Na1 O103 2.346524 1_555
Na1 O135 2.352013 1_555
Na1 O35 2.382409 1_555
Na1 O107 2.635710 1_555
Na1 O137 2.754209 1_555
Na2 O103 2.370835 1_555
Na2 O3 2.597051 1_555
Na2 O105 2.601978 1_555
Na2 O132 2.623392 1_655
Na2 O60 2.795258 1_655
Na2 O136 2.874046 1_655
Na2 O31 2.975149 1_555
Na3 O102 2.426043 1_555
Na3 O104 2.537636 1_555
Na3 O61 2.592004 1_555
Na3 O133 2.670323 1_555
Na3 O2 2.775836 1_555
Na3 O137 2.834995 1_555
Na4 O142 2.476587 1_555
Na4 O100 2.594305 1_555
Na4 O98 2.637722 1_555
Na4 O28 2.771134 1_555
Na4 O12 2.787783 1_555
Na5 O143 2.506434 1_555
Na5 O99 2.651607 1_555
Na5 O139 2.664315 1_555
Na5 O29 2.674407 1_555
Na5 O101 2.677792 1_555
Na5 O13 2.790022 1_555
Na6 O97 2.408474 1_555
Na6 O138 2.660031 1_655
Na6 O11 2.676378 1_555
Na6 O101 2.702732 1_555
Na6 O140 2.796782 1_655
Na6 O66 2.840834 1_655
Na6 O25 2.850851 1_555
Na7 O26 2.271252 1_555
Na7 O96 2.274101 1_555
Na7 O142 2.531537 1_545
Na7 O140 2.803830 1_545
Na7 O98 2.825584 1_555
Na7 O16 2.974699 1_545
Na8 O97 2.342608 1_555
Na8 O27 2.392945 1_555
Na8 O143 2.497103 1_545
Na8 O99 2.707149 1_555
Na8 O141 2.743277 1_545
Na9 O87 2.349632 1_555
Na9 O127 2.379989 1_555
Na9 O59 2.422045 1_555
Na9 O131 2.659809 1_555
Na9 O88 2.740029 1_555
Na10 O126 2.346072 1_555
Na10 O128 2.586121 1_555
Na10 O12 2.641631 1_555
Na10 O84 2.653864 1_565
Na10 O88 2.854761 1_555
Na10 O26 2.881335 1_565
Na11 O127 2.435636 1_555
Na11 O129 2.543291 1_555
Na11 O85 2.613909 1_565
Na11 O13 2.656810 1_555
Na11 O89 2.699350 1_555
Na11 O27 2.894678 1_565
Na11 O55 2.942334 1_555
Na12 O94 2.399806 1_565
Na12 O122 2.540657 1_555
Na12 O124 2.623185 1_555
Na12 O36 2.724646 1_565
Na12 O91 2.783446 1_455
Na12 O52 2.823886 1_554
Na12 O22 3.005101 1_555
Na13 O95 2.399857 1_565
Na13 O123 2.527663 1_555
Na13 O125 2.620247 1_555
Na13 O37 2.726451 1_565
Na13 O90 2.798057 1_555
Na13 O53 2.823923 1_554
Na14 O120 2.391184 1_555
Na14 O18 2.594793 1_555
Na14 O90 2.624970 1_555
Na14 O92 2.679260 1_565
Na14 O124 2.770534 1_555
Na14 O34 2.890543 1_555
Na15 O121 2.387459 1_555
Na15 O19 2.439191 1_555
Na15 O91 2.647873 1_555
Na15 O93 2.693291 1_565
Na15 O125 2.765174 1_555
Na15 O35 2.882728 1_555
Na16 O73 2.388695 1_555
Na16 O77 2.546259 1_565
Na16 O115 2.718120 1_565
Na16 O59 2.747590 1_555
Na16 O43 2.751080 1_565
Na16 O117 2.810709 1_565
Na17 O118 2.319333 1_555
Na17 O73 2.378173 1_555
Na17 O2 2.526696 1_555
Na17 O74 2.557007 1_555
Na17 O116 2.631883 1_555
Na18 O86 2.364819 1_555
Na18 O72 2.621530 1_545
Na18 O76 2.658736 1_555
Na18 O89 2.830188 1_445
Na18 O85 2.916382 1_455
Na19 O73 2.416230 1_545
Na19 O87 2.527516 1_545
Na19 O77 2.558842 1_555
Na19 O74 2.872108 1_545
Na19 O88 2.873414 1_545
Na19 O84 2.919541 1_555
Na20 O94 2.460672 1_556
Na20 O78 2.527740 1_555
Na20 O80 2.687881 1_545
Na20 O93 2.760098 1_456
Na20 O91 2.896348 1_446
Na20 O83 2.962375 1_445
Na21 O95 2.474136 1_556
Na21 O79 2.492170 1_555
Na21 O81 2.691529 1_545
Na21 O92 2.793405 1_556
Na21 O82 2.916733 1_545
Na21 O90 2.928808 1_546
Na22 O96 2.273316 1_555
Na22 O110 2.548573 1_555
Na22 O112 2.774369 1_555
Na22 O100 2.784718 1_555
Na23 O97 2.435581 1_555
Na23 O113 2.579114 1_555
Na23 O111 2.602182 1_555
Na23 O99 2.844630 1_555
Na23 O101 2.859294 1_555
Na23 O109 2.891203 1_555
Na24 O118 2.439489 1_555
Na24 O102 2.513825 1_555
Na24 O104 2.703427 1_555
Na24 O114 2.777596 1_555
Na24 O116 2.788820 1_555
Na24 O106 3.011804 1_555
Na25 O103 2.358754 1_555
Na25 O119 2.626418 1_555
Na25 O105 2.693647 1_555
Na25 O117 2.700871 1_555
Na25 O107 2.904788 1_555
Na25 O115 2.910756 1_555
Na26 O120 2.392427 1_555
Na26 O134 2.489634 1_555
Na26 O124 2.769855 1_555
Na26 O136 2.786551 1_555
Na27 O121 2.446872 1_555
Na27 O135 2.461534 1_555
Na27 O137 2.691152 1_555
Na27 O125 2.820579 1_555
Na27 O133 2.966026 1_555
Na27 O123 3.062342 1_555
Na28 O126 2.237326 1_555
Na28 O128 2.652738 1_555
Na28 O142 2.696759 1_555
Na28 O130 2.768818 1_555
Na28 O140 2.959863 1_555
Na29 O127 2.326401 1_555
Na29 O129 2.578864 1_555
Na29 O131 2.724814 1_555
Na29 O143 2.797489 1_555
Na29 O141 2.934394 1_555
Na29 O139 2.996025 1_555
Ca0 O3 2.120718 1_555
Ca0 O75 2.319284 1_565
Ca0 O0 2.332737 1_665
Ca0 O5 2.341548 1_565
Ca0 O72 2.344929 1_655
Ca0 O76 2.450888 1_665
Ca1 O2 2.171056 1_555
Ca1 O73 2.257637 1_555
Ca1 O4 2.305505 1_565
Ca1 O1 2.317433 1_565
Ca1 O74 2.345024 1_555
Ca1 O77 2.429756 1_565
Ca2 O11 2.132948 1_555
Ca2 O83 2.319014 1_545
Ca2 O78 2.327937 1_655
Ca2 O9 2.331428 1_545
Ca2 O6 2.337628 1_655
Ca2 O80 2.412150 1_645
Ca3 O10 2.105848 1_545
Ca3 O79 2.318656 1_555
Ca3 O8 2.320951 1_545
Ca3 O82 2.341294 1_545
Ca3 O7 2.343353 1_555
Ca3 O81 2.445451 1_545
Ca4 O26 2.170354 1_555
Ca4 O96 2.254743 1_555
Ca4 O24 2.262562 1_555
Ca4 O28 2.398390 1_555
Ca4 O98 2.431655 1_555
Ca4 O100 2.468841 1_555
Ca5 O27 2.149461 1_555
Ca5 O97 2.288630 1_555
Ca5 O25 2.289636 1_555
Ca5 O29 2.341655 1_555
Ca5 O99 2.395690 1_555
Ca5 O101 2.487886 1_555
Ca6 O34 2.190829 1_555
Ca6 O102 2.253800 1_555
Ca6 O32 2.317885 1_555
Ca6 O30 2.337210 1_555
Ca6 O106 2.393381 1_555
Ca6 O104 2.406995 1_555
Ca7 O35 2.180349 1_555
Ca7 O103 2.249264 1_555
Ca7 O33 2.311672 1_555
Ca7 O31 2.342424 1_555
Ca7 O107 2.376668 1_555
Ca7 O105 2.426318 1_555
Ca8 O120 2.197273 1_555
Ca8 O50 2.223137 1_554
Ca8 O48 2.291663 1_554
Ca8 O122 2.366147 1_555
Ca8 O52 2.389022 1_554
Ca8 O124 2.405473 1_555
Ca9 O121 2.192624 1_555
Ca9 O51 2.220220 1_554
Ca9 O49 2.296674 1_554
Ca9 O123 2.367781 1_555
Ca9 O53 2.395767 1_554
Ca9 O125 2.404286 1_555
Ca10 O126 2.182260 1_555
Ca10 O58 2.235057 1_555
Ca10 O54 2.309131 1_555
Ca10 O56 2.314619 1_555
Ca10 O130 2.324491 1_555
Ca10 O128 2.454033 1_555
Ca11 O59 2.165184 1_555
Ca11 O57 2.296374 1_555
Ca11 O127 2.299473 1_555
Ca11 O55 2.316993 1_555
Ca11 O131 2.358309 1_555
Ca11 O129 2.443035 1_555
O0 S0 1.463017 1_545
O1 S1 1.475535 1_545
O2 Si0 1.622702 1_555
O3 Si1 1.613363 1_555
O4 S3 1.456941 1_555
O5 S2 1.448781 1_655
O6 S4 1.464650 1_555
O7 S5 1.458855 1_555
O8 S7 1.460656 1_555
O9 S6 1.460552 1_655
O10 Si2 1.601165 1_555
O11 Si3 1.612440 1_545
O12 Si2 1.673781 1_555
O12 Y1 2.195862 1_565
O13 Si3 1.662135 1_555
O13 Y0 2.258175 1_665
O14 S4 1.493951 1_555
O14 Y0 2.314506 1_555
O15 S5 1.487942 1_555
O15 Y1 2.291531 1_555
O16 S6 1.493147 1_555
O16 Y0 2.321164 1_565
O17 S7 1.503526 1_555
O17 Y1 2.315244 1_565
O18 Si0 1.660815 1_555
O18 Y3 2.165257 1_565
O19 Si1 1.672496 1_555
O19 Y2 2.165674 1_565
O20 S2 1.502525 1_555
O20 Y2 2.260541 1_455
O21 S3 1.496914 1_555
O21 Y3 2.245575 1_555
O22 S0 1.506869 1_555
O22 Y2 2.323116 1_465
O23 S1 1.503419 1_555
O23 Y3 2.317558 1_565
O24 S8 1.473363 1_555
O25 S9 1.484175 1_555
O26 Si4 1.639240 1_555
O27 Si5 1.629980 1_555
O28 S10 1.476155 1_555
O29 S11 1.485581 1_555
O30 S12 1.469741 1_555
O31 S13 1.473175 1_555
O32 S14 1.466254 1_555
O33 S15 1.466586 1_555
O34 Si6 1.631193 1_555
O35 Si7 1.628890 1_555
O36 Si6 1.671118 1_555
O36 Y4 2.080601 1_554
O37 Si7 1.673437 1_555
O37 Y5 2.073342 1_554
O38 S12 1.490129 1_555
O38 Y4 2.318260 1_554
O39 S13 1.492078 1_555
O39 Y5 2.319359 1_554
O40 S14 1.486075 1_555
O40 Y4 2.296003 1_554
O41 S15 1.487825 1_555
O41 Y5 2.291914 1_554
O42 Si4 1.649868 1_555
O42 Y6 2.092570 1_555
O43 Si5 1.668793 1_555
O43 Y7 2.114424 1_555
O44 S10 1.490192 1_555
O44 Y6 2.340036 1_555
O45 S11 1.484857 1_555
O45 Y7 2.257985 1_555
O46 S8 1.482972 1_555
O46 Y6 2.309519 1_555
O47 S9 1.492950 1_555
O47 Y7 2.263939 1_555
O48 S16 1.470514 1_555
O49 S17 1.469061 1_555
O50 S18 1.466031 1_555
O51 S19 1.465729 1_555
O52 S20 1.474700 1_555
O53 S21 1.473247 1_555
O54 S22 1.467647 1_555
O55 S23 1.475221 1_555
O56 S24 1.467050 1_555
O57 S25 1.460174 1_555
O58 S26 1.468342 1_555
O59 Si8 1.632517 1_555
O60 S26 1.505705 1_555
O60 Y8 2.378771 1_555
O61 Si8 1.669730 1_555
O61 Y9 2.174985 1_555
O62 S22 1.497563 1_555
O62 Y8 2.202373 1_555
O63 S23 1.500562 1_555
O63 Y9 2.251566 1_555
O64 S24 1.508436 1_555
O64 Y8 2.246621 1_555
O65 S25 1.491116 1_555
O65 Y9 2.310935 1_555
O66 S18 1.502215 1_555
O66 Y10 2.351955 1_555
O67 S19 1.495931 1_555
O67 Y11 2.273911 1_555
O68 S20 1.504209 1_555
O68 Y10 2.222598 1_555
O69 S21 1.504713 1_555
O69 Y11 2.236318 1_555
O70 S16 1.506897 1_555
O70 Y10 2.235231 1_555
O71 S17 1.506813 1_555
O71 Y11 2.273716 1_555
O72 S26 1.481334 1_555
O73 Si8 1.662793 1_555
O74 S22 1.479803 1_555
O75 S23 1.457984 1_545
O76 S24 1.467072 1_555
O77 S25 1.484620 1_555
O78 S18 1.482260 1_555
O79 S19 1.479919 1_555
O80 S20 1.474266 1_555
O81 S21 1.471110 1_555
O82 S16 1.471593 1_555
O83 S17 1.469859 1_555
O84 S8 1.500335 1_555
O84 Y1 2.298507 1_555
O85 S9 1.500227 1_555
O85 Y0 2.333194 1_655
O86 Si4 1.653400 1_555
O86 Y0 2.137601 1_555
O87 Si5 1.659707 1_565
O87 Y1 2.229552 1_565
O88 S10 1.509846 1_555
O88 Y1 2.374980 1_565
O89 S11 1.492945 1_555
O89 Y0 2.340528 1_665
O90 S12 1.510788 1_555
O90 Y3 2.389759 1_565
O91 S13 1.508184 1_555
O91 Y2 2.415022 1_565
O92 S14 1.498251 1_555
O92 Y3 2.350939 1_555
O93 S15 1.497575 1_555
O93 Y2 2.356777 1_555
O94 Si6 1.666724 1_555
O94 Y2 2.240707 1_455
O95 Si7 1.665813 1_555
O95 Y3 2.229490 1_555
O96 Si2 1.634325 1_545
O97 Si3 1.655483 1_545
O98 S4 1.482976 1_555
O99 S5 1.496443 1_555
O100 S7 1.481828 1_555
O101 S6 1.492353 1_655
O102 Si0 1.656306 1_555
O103 Si1 1.665712 1_555
O104 S3 1.479514 1_555
O105 S2 1.483358 1_655
O106 S0 1.473946 1_545
O107 S1 1.472302 1_545
O108 S16 1.496420 1_555
O108 Y4 2.271873 1_555
O109 S17 1.502599 1_555
O109 Y5 2.292389 1_555
O110 S19 1.496211 1_555
O110 Y4 2.387089 1_555
O111 S18 1.497160 1_655
O111 Y5 2.402731 1_555
O112 S20 1.499648 1_545
O112 Y4 2.316984 1_555
O113 S21 1.507056 1_545
O113 Y5 2.332287 1_555
O114 S22 1.488063 1_545
O114 Y6 2.311984 1_555
O115 S23 1.510026 1_545
O115 Y7 2.322176 1_555
O116 S24 1.507246 1_555
O116 Y6 2.343480 1_555
O117 S25 1.512860 1_555
O117 Y7 2.323639 1_555
O118 Si8 1.657603 1_555
O118 Y6 2.275686 1_555
O119 S26 1.501478 1_655
O119 Y7 2.418653 1_555
O120 Si6 1.638631 1_555
O121 Si7 1.636504 1_555
O122 S13 1.479000 1_455
O123 S12 1.479840 1_555
O124 S14 1.493331 1_565
O125 S15 1.491860 1_565
O126 Si4 1.645256 1_565
O127 Si5 1.653980 1_565
O128 S10 1.479874 1_555
O129 S11 1.481470 1_555
O130 S9 1.462908 1_455
O131 S8 1.476187 1_555
O132 S0 1.503316 1_555
O132 Y8 2.314926 1_555
O133 S1 1.496139 1_555
O133 Y9 2.373929 1_555
O134 Si0 1.676490 1_555
O134 Y8 2.153711 1_555
O135 Si1 1.663971 1_555
O135 Y9 2.232473 1_555
O136 S2 1.509671 1_555
O136 Y8 2.323726 1_555
O137 S3 1.506570 1_555
O137 Y9 2.377037 1_555
O138 S4 1.505690 1_555
O138 Y10 2.342507 1_555
O139 S5 1.502624 1_555
O139 Y11 2.312517 1_555
O140 S6 1.502544 1_555
O140 Y10 2.391961 1_555
O141 S7 1.503243 1_555
O141 Y11 2.351509 1_555
O142 Si2 1.713385 1_555
O142 Y10 2.141751 1_555
O143 Si3 1.686585 1_555
O143 Y11 2.175245 1_555
