# generated using pymatgen
data_Ge3(BiO3)4
_symmetry_space_group_name_H-M   'P 1'
_cell_length_a   9.09880995
_cell_length_b   9.09878110
_cell_length_c   9.09880977
_cell_angle_alpha   109.47101996
_cell_angle_beta   109.47117102
_cell_angle_gamma   109.47107392
_symmetry_Int_Tables_number   1
_chemical_formula_structural   Ge3(BiO3)4
_chemical_formula_sum   'Ge6 Bi8 O24'
_cell_volume   579.87266067
_cell_formula_units_Z   2
loop_
 _symmetry_equiv_pos_site_id
 _symmetry_equiv_pos_as_xyz
  1  'x, y, z'
loop_
 _atom_site_type_symbol
 _atom_site_label
 _atom_site_symmetry_multiplicity
 _atom_site_fract_x
 _atom_site_fract_y
 _atom_site_fract_z
 _atom_site_occupancy
  Ge  Ge0  1  0.87499670  0.25000007  0.12500132  1
  Ge  Ge1  1  0.12499687  0.87499980  0.24999876  1
  Ge  Ge2  1  0.37499632  0.62499672  0.74999480  1
  Ge  Ge3  1  0.24999610  0.12499763  0.87499675  1
  Ge  Ge4  1  0.75000008  0.37500019  0.62499813  1
  Ge  Ge5  1  0.62500120  0.75000018  0.37499881  1
  Bi  Bi0  1  0.50000072  -0.00000006  0.66970937  1
  Bi  Bi1  1  0.16970917  0.49999991  -0.00000052  1
  Bi  Bi2  1  0.33029063  0.33028984  0.33029066  1
  Bi  Bi3  1  0.00000091  0.16970908  0.50000121  1
  Bi  Bi4  1  0.83029072  0.83029070  0.83029067  1
  Bi  Bi5  1  0.00000043  0.66970837  0.50000005  1
  Bi  Bi6  1  0.66970903  0.50000054  0.00000052  1
  Bi  Bi7  1  0.50000111  0.00000142  0.16970955  1
  O  O0  1  0.69622895  0.33609253  0.78185771  1
  O  O1  1  0.78185618  0.69622898  0.33609224  1
  O  O2  1  0.58562830  0.63986344  0.80377196  1
  O  O3  1  0.44576517  0.16390801  0.86013649  1
  O  O4  1  0.71814343  0.05423476  0.91437084  1
  O  O5  1  0.33609356  0.78185654  0.69622931  1
  O  O6  1  0.36013640  0.66390835  0.94576621  1
  O  O7  1  0.21814617  0.41437388  0.55423743  1
  O  O8  1  0.13986293  0.08562606  0.30377133  1
  O  O9  1  0.55423534  0.21814436  0.41437150  1
  O  O10  1  0.66390764  0.94576266  0.36013630  1
  O  O11  1  0.83609207  0.19622982  0.28185589  1
  O  O12  1  0.19622954  0.28185726  0.83609271  1
  O  O13  1  0.41437106  0.55423516  0.21814363  1
  O  O14  1  0.28185801  0.83609212  0.19622846  1
  O  O15  1  0.91437223  0.71814508  0.05423610  1
  O  O16  1  0.16390840  0.86013667  0.44576421  1
  O  O17  1  0.63986368  0.80377280  0.58562953  1
  O  O18  1  0.86013630  0.44576305  0.16390793  1
  O  O19  1  0.05423686  0.91437377  0.71814562  1
  O  O20  1  0.80377171  0.58562660  0.63986426  1
  O  O21  1  0.94576479  0.36013777  0.66390945  1
  O  O22  1  0.08563050  0.30377379  0.13986469  1
  O  O23  1  0.30377280  0.13986414  0.08562912  1
loop_
_geom_bond_atom_site_label_1
_geom_bond_atom_site_label_2
_geom_bond_distance
_geom_bond_site_symmetry_2
Ge0 O11 1.757377 1_555
Ge0 O18 1.757383 1_555
Ge0 O4 1.757433 1_554
Ge0 O22 1.757465 1_655
Ge1 O8 1.757384 1_565
Ge1 O15 1.757400 1_455
Ge1 O16 1.757416 1_555
Ge1 O14 1.757447 1_555
Ge2 O7 1.757368 1_555
Ge2 O5 1.757392 1_555
Ge2 O2 1.757433 1_555
Ge2 O6 1.757456 1_555
Ge3 O19 1.757380 1_545
Ge3 O12 1.757399 1_555
Ge3 O23 1.757437 1_556
Ge3 O3 1.757438 1_555
Ge4 O20 1.757386 1_555
Ge4 O21 1.757407 1_555
Ge4 O9 1.757417 1_555
Ge4 O0 1.757436 1_555
Ge5 O10 1.757388 1_555
Ge5 O1 1.757392 1_555
Ge5 O13 1.757432 1_555
Ge5 O17 1.757442 1_555
Bi0 O4 2.192662 1_555
Bi0 O5 2.192664 1_545
Bi0 O3 2.192666 1_555
Bi0 O17 2.577920 1_545
Bi0 O0 2.577945 1_555
Bi0 O16 2.577955 1_545
Bi1 O6 2.192652 1_554
Bi1 O12 2.192661 1_554
Bi1 O13 2.192670 1_555
Bi1 O22 2.577926 1_555
Bi1 O21 2.577939 1_454
Bi1 O14 2.577943 1_555
Bi2 O22 2.192661 1_555
Bi2 O23 2.192663 1_555
Bi2 O8 2.192674 1_555
Bi2 O9 2.577924 1_555
Bi2 O13 2.577936 1_555
Bi2 O7 2.577942 1_555
Bi3 O21 2.192678 1_455
Bi3 O7 2.192685 1_555
Bi3 O11 2.192689 1_455
Bi3 O8 2.577943 1_555
Bi3 O12 2.577944 1_555
Bi3 O10 2.577961 1_445
Bi4 O17 2.192664 1_555
Bi4 O2 2.192669 1_555
Bi4 O20 2.192674 1_555
Bi4 O4 2.577930 1_565
Bi4 O15 2.577931 1_556
Bi4 O19 2.577939 1_655
Bi5 O16 2.192672 1_555
Bi5 O1 2.192677 1_455
Bi5 O19 2.192691 1_555
Bi5 O20 2.577948 1_455
Bi5 O18 2.577953 1_455
Bi5 O5 2.577957 1_555
Bi6 O0 2.192667 1_554
Bi6 O18 2.192674 1_555
Bi6 O15 2.192676 1_555
Bi6 O2 2.577930 1_554
Bi6 O3 2.577947 1_554
Bi6 O1 2.577948 1_555
Bi7 O14 2.192667 1_545
Bi7 O9 2.192668 1_555
Bi7 O10 2.192675 1_545
Bi7 O23 2.577927 1_555
Bi7 O11 2.577943 1_555
Bi7 O6 2.577949 1_544
