# generated using pymatgen
data_Na2YTa3Si2(PO6)4
_symmetry_space_group_name_H-M   'P 1'
_cell_length_a   8.88925202
_cell_length_b   8.89747333
_cell_length_c   23.13006431
_cell_angle_alpha   90.08303090
_cell_angle_beta   90.02901706
_cell_angle_gamma   119.95952455
_symmetry_Int_Tables_number   1
_chemical_formula_structural   Na2YTa3Si2(PO6)4
_chemical_formula_sum   'Na6 Y3 Ta9 Si6 P12 O72'
_cell_volume   1584.94967873
_cell_formula_units_Z   3
loop_
 _symmetry_equiv_pos_site_id
 _symmetry_equiv_pos_as_xyz
  1  'x, y, z'
loop_
 _atom_site_type_symbol
 _atom_site_label
 _atom_site_symmetry_multiplicity
 _atom_site_fract_x
 _atom_site_fract_y
 _atom_site_fract_z
 _atom_site_occupancy
  Na  Na0  1  0.99571708  0.99944998  0.49608437  1
  Na  Na1  1  0.00001943  0.99972839  0.00125848  1
  Na  Na2  1  0.66782414  0.33364238  0.83323267  1
  Na  Na3  1  0.66632187  0.33352156  0.32821811  1
  Na  Na4  1  0.33370987  0.66266818  0.16477868  1
  Na  Na5  1  0.32863392  0.66325367  0.66738919  1
  Y  Y0  1  0.99796788  0.00024543  0.35724101  1
  Y  Y1  1  0.67065098  0.33507138  0.68732366  1
  Y  Y2  1  0.66461631  0.33462224  0.18219280  1
  Ta  Ta0  1  0.00031704  0.00008753  0.85803743  1
  Ta  Ta1  1  0.99938178  0.00208245  0.64540236  1
  Ta  Ta2  1  0.00282711  0.00309329  0.14646008  1
  Ta  Ta3  1  0.66185124  0.33188562  0.97851604  1
  Ta  Ta4  1  0.66972019  0.32963866  0.47899330  1
  Ta  Ta5  1  0.33313679  0.66450208  0.01758066  1
  Ta  Ta6  1  0.33561811  0.66740934  0.52004818  1
  Ta  Ta7  1  0.33701493  0.67082682  0.31133302  1
  Ta  Ta8  1  0.33247400  0.66607903  0.81433276  1
  Si  Si0  1  0.96090359  0.33438930  0.58313434  1
  Si  Si1  1  0.37104102  0.33452662  0.08231817  1
  Si  Si2  1  0.61906311  0.66439320  0.91613906  1
  Si  Si3  1  0.04386393  0.38109967  0.91610296  1
  Si  Si4  1  0.33607922  0.95403189  0.91648882  1
  Si  Si5  1  0.61792894  0.95602803  0.41791340  1
  P  P0  1  0.28815043  0.99452352  0.25086315  1
  P  P1  1  0.70744674  0.71127147  0.25049136  1
  P  P2  1  0.00533031  0.29434352  0.25079276  1
  P  P3  1  0.27912908  0.28640624  0.75201969  1
  P  P4  1  0.00739320  0.72116734  0.75180367  1
  P  P5  1  0.71259210  0.99170364  0.75197864  1
  P  P6  1  0.37319309  0.04092557  0.58198074  1
  P  P7  1  0.66765816  0.62588380  0.58214565  1
  P  P8  1  0.96170387  0.62859455  0.08156447  1
  P  P9  1  0.66644732  0.03792737  0.08143937  1
  P  P10  1  0.34261140  0.38819171  0.41800395  1
  P  P11  1  0.04692510  0.65921842  0.41803878  1
  O  O0  1  0.20874572  0.01738867  0.30482140  1
  O  O1  1  0.80910264  0.79274990  0.30463595  1
  O  O2  1  0.98311988  0.19054348  0.30436156  1
  O  O3  1  0.18205126  0.17439975  0.80487517  1
  O  O4  1  0.99285478  0.81862051  0.80498765  1
  O  O5  1  0.82566144  0.00843292  0.80488726  1
  O  O6  1  0.80511584  0.97247097  0.69619952  1
  O  O7  1  0.16754416  0.19378148  0.69613028  1
  O  O8  1  0.02713143  0.83099206  0.69618200  1
  O  O9  1  0.79813994  0.82800291  0.19564198  1
  O  O10  1  0.02792515  0.19786916  0.19558774  1
  O  O11  1  0.16945757  0.97061153  0.19579223  1
  O  O12  1  0.89201388  0.37594892  0.64046161  1
  O  O13  1  0.47887183  0.10759149  0.63663172  1
  O  O14  1  0.62599498  0.52037263  0.63688264  1
  O  O15  1  0.89884528  0.52474788  0.13615427  1
  O  O16  1  0.63016519  0.10396376  0.13622357  1
  O  O17  1  0.47836856  0.37639300  0.13999854  1
  O  O18  1  0.47024933  0.30399463  0.02631978  1
  O  O19  1  0.84127112  0.53600867  0.02852200  1
  O  O20  1  0.69792410  0.15902648  0.02837613  1
  O  O21  1  0.46284013  0.16147368  0.52882198  1
  O  O22  1  0.69523785  0.53595884  0.52885316  1
  O  O23  1  0.83121882  0.30373643  0.52673455  1
  O  O24  1  0.53033588  0.69823535  0.97190760  1
  O  O25  1  0.16782443  0.47062453  0.97160531  1
  O  O26  1  0.30187969  0.83353832  0.97232176  1
  O  O27  1  0.51184897  0.83796430  0.47305323  1
  O  O28  1  0.32345004  0.48225006  0.47147961  1
  O  O29  1  0.15703264  0.67228914  0.47147223  1
  O  O30  1  0.13146433  0.63195362  0.36272937  1
  O  O31  1  0.49486705  0.85846963  0.36011220  1
  O  O32  1  0.36294365  0.49882148  0.36289880  1
  O  O33  1  0.13813845  0.50232877  0.85887225  1
  O  O34  1  0.36406064  0.86124849  0.85891379  1
  O  O35  1  0.49750926  0.63507701  0.85884359  1
  O  O36  1  0.03015905  0.81898128  0.41742841  1
  O  O37  1  0.80615186  0.97912935  0.42010145  1
  O  O38  1  0.18559275  0.20957980  0.41711704  1
  O  O39  1  0.02439934  0.18974235  0.90602666  1
  O  O40  1  0.16661203  0.97771309  0.90611316  1
  O  O41  1  0.81103569  0.83492777  0.90622691  1
  O  O42  1  0.97864250  0.15776773  0.59198892  1
  O  O43  1  0.18838469  0.01985571  0.59031288  1
  O  O44  1  0.83348364  0.80918793  0.59086608  1
  O  O45  1  0.97564819  0.81081254  0.09000038  1
  O  O46  1  0.83146572  0.01779241  0.08972641  1
  O  O47  1  0.17649842  0.15694189  0.09125984  1
  O  O48  1  0.69333976  0.15137620  0.74953161  1
  O  O49  1  0.45735399  0.30435185  0.74934427  1
  O  O50  1  0.84578901  0.54312448  0.75038344  1
  O  O51  1  0.67724872  0.52896501  0.24524597  1
  O  O52  1  0.85359686  0.32435436  0.24383533  1
  O  O53  1  0.47154209  0.14310802  0.24392736  1
  O  O54  1  0.64254400  0.49588101  0.92613764  1
  O  O55  1  0.85364262  0.35902251  0.92644255  1
  O  O56  1  0.50733288  0.14510636  0.92558560  1
  O  O57  1  0.62503574  0.14570748  0.42590767  1
  O  O58  1  0.51210829  0.37938158  0.42631560  1
  O  O59  1  0.86363510  0.49304088  0.42614146  1
  O  O60  1  0.34060837  0.49873734  0.07009863  1
  O  O61  1  0.14711366  0.65982967  0.06983678  1
  O  O62  1  0.50847613  0.85512384  0.06987679  1
  O  O63  1  0.34379178  0.85621622  0.57016858  1
  O  O64  1  0.51334611  0.65796820  0.57066027  1
  O  O65  1  0.15523400  0.49542791  0.56999649  1
  O  O66  1  0.29436087  0.81903457  0.25626481  1
  O  O67  1  0.52266238  0.69940124  0.25690269  1
  O  O68  1  0.17832691  0.47496879  0.25641717  1
  O  O69  1  0.29003425  0.46635460  0.75648672  1
  O  O70  1  0.17562668  0.70797128  0.75692122  1
  O  O71  1  0.53270670  0.82280043  0.75646904  1
loop_
_geom_bond_atom_site_label_1
_geom_bond_atom_site_label_2
_geom_bond_distance
_geom_bond_site_symmetry_2
Na0 O37 2.377558 1_555
Na0 O36 2.542652 1_655
Na0 O38 2.557684 1_665
Na0 O42 2.670740 1_565
Na0 O44 2.706905 1_555
Na0 O43 2.720474 1_665
Na1 O47 2.558877 1_565
Na1 O46 2.588566 1_465
Na1 O45 2.594650 1_455
Na1 O41 2.707478 1_454
Na1 O40 2.714096 1_554
Na1 O39 2.720761 1_564
Na2 O50 2.591777 1_555
Na2 O48 2.605426 1_555
Na2 O49 2.615545 1_555
Na2 O56 2.652464 1_555
Na2 O55 2.655174 1_555
Na2 O54 2.658474 1_555
Na3 O51 2.560799 1_555
Na3 O52 2.593431 1_555
Na3 O53 2.593557 1_555
Na3 O57 2.726179 1_555
Na3 O59 2.778712 1_555
Na3 O58 2.784459 1_555
Na4 O68 2.626579 1_555
Na4 O67 2.629554 1_555
Na4 O60 2.647132 1_555
Na4 O66 2.648401 1_555
Na4 O62 2.742530 1_555
Na4 O61 2.743849 1_555
Na5 O70 2.614907 1_555
Na5 O69 2.616243 1_555
Na5 O71 2.639511 1_555
Na5 O65 2.714438 1_555
Na5 O64 2.790068 1_555
Na5 O63 2.793387 1_555
O0 P0 1.496943 1_545
O0 Y0 2.172863 1_455
O1 P1 1.500826 1_555
O1 Y0 2.145511 1_565
O2 P2 1.499543 1_655
O2 Y0 2.146923 1_555
O3 P3 1.542119 1_555
O3 Ta0 2.008062 1_555
O4 P4 1.546221 1_655
O4 Ta0 2.001042 1_665
O5 P5 1.542344 1_545
O5 Ta0 2.010165 1_655
O6 P5 1.584705 1_555
O6 Ta1 1.995131 1_565
O7 P3 1.585358 1_555
O7 Ta1 1.991572 1_455
O8 P4 1.572714 1_555
O8 Ta1 2.034116 1_465
O9 P1 1.583271 1_555
O9 Ta2 2.051294 1_665
O10 P2 1.605271 1_555
O10 Ta2 1.988018 1_555
O11 P0 1.598338 1_555
O11 Ta2 2.001586 1_565
O12 Si0 1.579728 1_555
O12 Y1 2.113695 1_555
O13 P6 1.507418 1_555
O13 Y1 2.218660 1_555
O14 P7 1.509328 1_555
O14 Y1 2.212646 1_555
O15 P8 1.499571 1_555
O15 Y2 2.195542 1_555
O16 P9 1.497487 1_555
O16 Y2 2.191299 1_555
O17 Si1 1.572025 1_555
O17 Y2 2.108462 1_555
O18 Si1 1.663912 1_555
O18 Ta3 1.940516 1_554
O19 P8 1.563600 1_555
O19 Ta3 2.068576 1_554
O20 P9 1.564837 1_555
O20 Ta3 2.072598 1_554
O21 P6 1.564743 1_555
O21 Ta4 2.051330 1_555
O22 P7 1.553410 1_555
O22 Ta4 2.080642 1_555
O23 Si0 1.669897 1_555
O23 Ta4 1.913906 1_555
O24 Si2 1.616715 1_555
O24 Ta5 1.938107 1_556
O25 Si3 1.617321 1_555
O25 Ta5 1.930612 1_556
O26 Si4 1.608864 1_555
O26 Ta5 1.963855 1_556
O27 Si5 1.623282 1_555
O27 Ta6 1.889616 1_555
O28 P10 1.548831 1_555
O28 Ta6 1.950472 1_555
O29 P11 1.543920 1_555
O29 Ta6 1.962546 1_555
O30 P11 1.562810 1_555
O30 Ta7 2.060022 1_555
O31 Si5 1.668631 1_555
O31 Ta7 1.918964 1_555
O32 P10 1.565986 1_555
O32 Ta7 2.043328 1_555
O33 Si3 1.649393 1_555
O33 Ta8 1.913279 1_555
O34 Si4 1.648964 1_555
O34 Ta8 1.914458 1_555
O35 Si2 1.645569 1_555
O35 Ta8 1.921382 1_555
O36 P11 1.501561 1_555
O36 Y0 2.255678 1_465
O37 Si5 1.581352 1_555
O37 Y0 2.177160 1_565
O38 P10 1.502859 1_555
O38 Y0 2.248640 1_455
O39 Si3 1.639411 1_555
O39 Ta0 1.938796 1_555
O40 Si4 1.639556 1_555
O40 Ta0 1.937589 1_565
O41 Si2 1.637751 1_555
O41 Ta0 1.941650 1_665
O42 Si0 1.668765 1_555
O42 Ta1 1.933630 1_555
O43 P6 1.569692 1_555
O43 Ta1 2.051527 1_455
O44 P7 1.571973 1_555
O44 Ta1 2.043404 1_565
O45 P8 1.574905 1_555
O45 Ta2 2.066651 1_665
O46 P9 1.575719 1_555
O46 Ta2 2.063233 1_655
O47 Si1 1.673967 1_555
O47 Ta2 1.945173 1_555
O48 P5 1.514559 1_545
O48 Y1 2.262329 1_555
O49 P3 1.512204 1_555
O49 Y1 2.283398 1_555
O50 P4 1.516944 1_655
O50 Y1 2.255972 1_555
O51 P1 1.510757 1_555
O51 Y2 2.219953 1_555
O52 P2 1.508665 1_655
O52 Y2 2.239314 1_555
O53 P0 1.509775 1_545
O53 Y2 2.230868 1_555
O54 Si2 1.630514 1_555
O54 Ta3 1.970118 1_555
O55 Si3 1.619818 1_655
O55 Ta3 2.001858 1_555
O56 Si4 1.632709 1_545
O56 Ta3 1.964649 1_555
O57 Si5 1.667034 1_545
O57 Ta4 1.920440 1_555
O58 P10 1.559155 1_555
O58 Ta4 2.064602 1_555
O59 P11 1.571924 1_655
O59 Ta4 2.020825 1_555
O60 Si1 1.638186 1_555
O60 Ta5 1.938622 1_555
O61 P8 1.552553 1_455
O61 Ta5 2.032382 1_555
O62 P9 1.551149 1_565
O62 Ta5 2.030013 1_555
O63 P6 1.553544 1_565
O63 Ta6 2.010887 1_555
O64 P7 1.557124 1_555
O64 Ta6 2.001112 1_555
O65 Si0 1.630681 1_455
O65 Ta6 1.950321 1_555
O66 P0 1.594775 1_555
O66 Ta7 2.002203 1_555
O67 P1 1.599464 1_555
O67 Ta7 1.989227 1_555
O68 P2 1.579674 1_555
O68 Ta7 2.043684 1_555
O69 P3 1.558217 1_555
O69 Ta8 2.100813 1_555
O70 P4 1.561877 1_555
O70 Ta8 2.089233 1_555
O71 P5 1.557779 1_555
O71 Ta8 2.105403 1_555
