# generated using pymatgen
data_VSbO4
_symmetry_space_group_name_H-M   'P 1'
_cell_length_a   5.56302352
_cell_length_b   5.56302562
_cell_length_c   9.01144120
_cell_angle_alpha   87.79029374
_cell_angle_beta   87.79040947
_cell_angle_gamma   71.76370870
_symmetry_Int_Tables_number   1
_chemical_formula_structural   VSbO4
_chemical_formula_sum   'V4 Sb4 O16'
_cell_volume   264.57220186
_cell_formula_units_Z   4
loop_
 _symmetry_equiv_pos_site_id
 _symmetry_equiv_pos_as_xyz
  1  'x, y, z'
loop_
 _atom_site_type_symbol
 _atom_site_label
 _atom_site_symmetry_multiplicity
 _atom_site_fract_x
 _atom_site_fract_y
 _atom_site_fract_z
 _atom_site_occupancy
  V  V0  1  0.49673007  0.49672995  0.50430554  1
  V  V1  1  0.87109358  0.87109243  0.62833250  1
  V  V2  1  0.99673240  0.99673189  0.00430981  1
  V  V3  1  0.37108920  0.37108896  0.12833456  1
  Sb  Sb0  1  0.75275059  0.75275171  0.24703282  1
  Sb  Sb1  1  0.25277543  0.25277462  0.74702987  1
  Sb  Sb2  1  0.62805250  0.62805176  0.87228493  1
  Sb  Sb3  1  0.12805621  0.12805716  0.37228993  1
  O  O0  1  0.64887434  0.64887281  0.65286671  1
  O  O1  1  0.14887373  0.14887348  0.15285931  1
  O  O2  1  0.17481430  0.57125022  0.62694253  1
  O  O3  1  0.67479210  0.07126850  0.12693614  1
  O  O4  1  0.07126734  0.67479255  0.12693643  1
  O  O5  1  0.57124993  0.17481389  0.62694248  1
  O  O6  1  0.84671579  0.84671513  0.85127760  1
  O  O7  1  0.34670668  0.34670668  0.35126249  1
  O  O8  1  0.59860781  0.59860842  0.09372089  1
  O  O9  1  0.09861210  0.09861227  0.59371508  1
  O  O10  1  0.81953752  0.43513433  0.37251614  1
  O  O11  1  0.31953511  0.93511674  0.87251356  1
  O  O12  1  0.93511760  0.31953423  0.87251423  1
  O  O13  1  0.43513393  0.81953767  0.37251650  1
  O  O14  1  0.40644185  0.40644175  0.90128954  1
  O  O15  1  0.90643490  0.90643484  0.40127743  1
loop_
_geom_bond_atom_site_label_1
_geom_bond_atom_site_label_2
_geom_bond_distance
_geom_bond_site_symmetry_2
O0 V0 1.961648 1_555
O0 Sb2 1.977251 1_555
O0 V1 2.004904 1_555
O1 V2 1.961559 1_445
O1 Sb3 1.977361 1_555
O1 V3 2.004864 1_555
O2 V1 1.968075 1_455
O2 Sb1 1.976228 1_555
O2 V0 2.004572 1_555
O3 V3 1.967947 1_555
O3 Sb0 1.976458 1_545
O3 V2 2.004627 1_545
O4 V3 1.967954 1_555
O4 Sb0 1.976458 1_455
O4 V2 2.004623 1_455
O5 V1 1.968082 1_545
O5 Sb1 1.976226 1_555
O5 V0 2.004571 1_555
O6 Sb2 1.971251 1_555
O6 V2 1.976887 1_556
O6 V1 2.010617 1_555
O7 Sb3 1.971140 1_555
O7 V0 1.977001 1_555
O7 V3 2.010466 1_555
O8 Sb2 2.000473 1_554
O8 Sb0 2.005554 1_555
O8 V3 2.059856 1_555
O9 Sb3 2.000377 1_555
O9 Sb1 2.005702 1_555
O9 V1 2.059861 1_445
O10 Sb0 2.001537 1_555
O10 Sb3 2.007209 1_655
O10 V0 2.057787 1_555
O11 Sb1 2.001731 1_565
O11 Sb2 2.007165 1_555
O11 V2 2.057791 1_456
O12 Sb1 2.001736 1_655
O12 Sb2 2.007166 1_555
O12 V2 2.057784 1_546
O13 Sb0 2.001538 1_555
O13 Sb3 2.007213 1_565
O13 V0 2.057784 1_555
O14 Sb2 2.002390 1_555
O14 Sb1 2.008623 1_555
O14 V3 2.055635 1_556
O15 Sb3 2.002480 1_665
O15 Sb0 2.008635 1_555
O15 V1 2.055714 1_555
