# generated using pymatgen
data_K3YbMgV2O8
_symmetry_space_group_name_H-M   'P 1'
_cell_length_a   6.30648289
_cell_length_b   6.30725085
_cell_length_c   7.80889193
_cell_angle_alpha   86.37073076
_cell_angle_beta   93.61914957
_cell_angle_gamma   120.85911959
_symmetry_Int_Tables_number   1
_chemical_formula_structural   K3YbMgV2O8
_chemical_formula_sum   'K3 Yb1 Mg1 V2 O8'
_cell_volume   265.93293219
_cell_formula_units_Z   1
loop_
 _symmetry_equiv_pos_site_id
 _symmetry_equiv_pos_as_xyz
  1  'x, y, z'
loop_
 _atom_site_type_symbol
 _atom_site_label
 _atom_site_symmetry_multiplicity
 _atom_site_fract_x
 _atom_site_fract_y
 _atom_site_fract_z
 _atom_site_occupancy
  K  K0  1  0.71719300  0.28275000  0.28963400  1
  K  K1  1  0.28280700  0.71725000  0.71036600  1
  K  K2  1  0.00000000  0.00000000  0.00000000  1
  Yb  Yb0  1  0.00000000  0.00000000  0.50000000  1
  Mg  Mg0  1  0.50000000  0.50000000  0.50000000  1
  V  V0  1  0.68833400  0.31148900  0.75542800  1
  V  V1  1  0.31166600  0.68851100  0.24457200  1
  O  O0  1  0.67298300  0.32686300  0.97000900  1
  O  O1  1  0.32701700  0.67313700  0.02999100  1
  O  O2  1  0.81271700  0.61775000  0.64117400  1
  O  O3  1  0.38223800  0.18724300  0.64118900  1
  O  O4  1  0.84017500  0.15978800  0.69613400  1
  O  O5  1  0.18728300  0.38225000  0.35882600  1
  O  O6  1  0.61776200  0.81275700  0.35881100  1
  O  O7  1  0.15982500  0.84021200  0.30386600  1
loop_
_geom_bond_atom_site_label_1
_geom_bond_atom_site_label_2
_geom_bond_distance
_geom_bond_site_symmetry_2
K0 O0 2.507700 1_554
K0 O6 2.721324 1_545
K0 O5 2.721545 1_655
K1 O1 2.507700 1_556
K1 O3 2.721324 1_565
K1 O2 2.721545 1_455
K2 O4 2.845957 1_454
K2 O7 2.845957 1_545
Mg0 O5 1.995713 1_555
Mg0 O2 1.995713 1_555
Mg0 O6 1.995886 1_555
Mg0 O3 1.995886 1_555
O0 V0 1.696238 1_555
O1 V1 1.696238 1_555
O2 V0 1.859681 1_555
O2 Yb0 2.308608 1_665
O3 V0 1.858910 1_555
O3 Yb0 2.308684 1_555
O4 V0 1.760351 1_555
O4 Yb0 2.410353 1_655
O5 V1 1.859681 1_555
O5 Yb0 2.308608 1_555
O6 V1 1.858910 1_555
O6 Yb0 2.308684 1_665
O7 V1 1.760351 1_555
O7 Yb0 2.410353 1_565
