# generated using pymatgen
data_Na3BiO3
_symmetry_space_group_name_H-M   'P 1'
_cell_length_a   8.30756557
_cell_length_b   8.30756452
_cell_length_c   8.30756622
_cell_angle_alpha   109.47180799
_cell_angle_beta   109.47182807
_cell_angle_gamma   109.47177367
_symmetry_Int_Tables_number   1
_chemical_formula_structural   Na3BiO3
_chemical_formula_sum   'Na12 Bi4 O12'
_cell_volume   441.35703525
_cell_formula_units_Z   4
loop_
 _symmetry_equiv_pos_site_id
 _symmetry_equiv_pos_as_xyz
  1  'x, y, z'
loop_
 _atom_site_type_symbol
 _atom_site_label
 _atom_site_symmetry_multiplicity
 _atom_site_fract_x
 _atom_site_fract_y
 _atom_site_fract_z
 _atom_site_occupancy
  Na  Na0  1  0.24648382  0.72120836  0.72120900  1
  Na  Na1  1  0.72120846  0.72120841  0.24648344  1
  Na  Na2  1  0.72120826  0.24648402  0.72120904  1
  Na  Na3  1  -0.00000471  0.52527699  0.27879238  1
  Na  Na4  1  -0.00000482  0.27879301  0.52527772  1
  Na  Na5  1  0.75351719  0.47472612  0.47472598  1
  Na  Na6  1  0.47472673  0.47472599  0.75351785  1
  Na  Na7  1  0.52527769  0.27879292  -0.00000472  1
  Na  Na8  1  0.27879281  -0.00000481  0.52527774  1
  Na  Na9  1  0.52527694  -0.00000469  0.27879290  1
  Na  Na10  1  0.47472607  0.75351793  0.47472612  1
  Na  Na11  1  0.27879292  0.52527763  -0.00000481  1
  Bi  Bi0  1  0.00000042  0.71643582  0.00000054  1
  Bi  Bi1  1  0.00000034  0.00000095  0.71643685  1
  Bi  Bi2  1  0.28356340  0.28356334  0.28356293  1
  Bi  Bi3  1  0.71643564  0.00000075  -0.00000007  1
  O  O0  1  0.48559060  0.25645189  0.48559058  1
  O  O1  1  0.25645179  0.48559070  0.48559005  1
  O  O2  1  0.48559052  0.48559047  0.25645119  1
  O  O3  1  0.51440823  0.77086128  -0.00000041  1
  O  O4  1  0.77086123  0.00000037  0.51440884  1
  O  O5  1  0.51440827  0.00000006  0.77086143  1
  O  O6  1  0.22913929  0.74354832  0.22913923  1
  O  O7  1  0.77086197  0.51440725  -0.00000036  1
  O  O8  1  -0.00000035  0.51440860  0.77086145  1
  O  O9  1  0.22913946  0.22913950  0.74354880  1
  O  O10  1  0.74354824  0.22913922  0.22913873  1
  O  O11  1  -0.00000040  0.77086157  0.51440858  1
loop_
_geom_bond_atom_site_label_1
_geom_bond_atom_site_label_2
_geom_bond_distance
_geom_bond_site_symmetry_2
Na0 O1 2.309013 1_555
Na0 O3 2.408868 1_556
Na0 O5 2.408877 1_565
Na0 O8 2.450492 1_555
Na0 O11 2.450498 1_555
Na1 O2 2.309009 1_555
Na1 O11 2.408873 1_655
Na1 O4 2.408880 1_565
Na1 O3 2.450493 1_555
Na1 O7 2.450501 1_555
Na2 O0 2.309010 1_555
Na2 O7 2.408860 1_556
Na2 O8 2.408876 1_655
Na2 O5 2.450492 1_555
Na2 O4 2.450493 1_555
Na3 O11 2.308972 1_555
Na3 O7 2.408856 1_455
Na3 O6 2.408922 1_555
Na3 O10 2.450453 1_455
Na3 O1 2.450516 1_555
Na4 O8 2.308965 1_555
Na4 O4 2.408863 1_455
Na4 O9 2.408922 1_555
Na4 O10 2.450458 1_455
Na4 O1 2.450525 1_555
Na5 O10 2.309012 1_555
Na5 O2 2.408898 1_555
Na5 O0 2.408898 1_555
Na5 O8 2.450468 1_655
Na5 O11 2.450468 1_655
Na6 O9 2.309011 1_555
Na6 O0 2.408897 1_555
Na6 O1 2.408906 1_555
Na6 O3 2.450468 1_556
Na6 O7 2.450469 1_556
Na7 O7 2.308963 1_555
Na7 O5 2.408861 1_554
Na7 O10 2.408917 1_555
Na7 O9 2.450453 1_554
Na7 O2 2.450517 1_555
Na8 O5 2.308961 1_555
Na8 O11 2.408864 1_545
Na8 O9 2.408922 1_555
Na8 O6 2.450456 1_545
Na8 O0 2.450523 1_555
Na9 O4 2.308966 1_555
Na9 O3 2.408867 1_545
Na9 O10 2.408927 1_555
Na9 O6 2.450452 1_545
Na9 O0 2.450517 1_555
Na10 O6 2.309006 1_555
Na10 O1 2.408898 1_555
Na10 O2 2.408903 1_555
Na10 O4 2.450466 1_565
Na10 O5 2.450467 1_565
Na11 O3 2.308964 1_555
Na11 O8 2.408864 1_554
Na11 O6 2.408921 1_555
Na11 O9 2.450452 1_554
Na11 O2 2.450518 1_555
Bi0 O6 2.076169 1_555
Bi0 O8 2.076178 1_554
Bi0 O7 2.076180 1_455
Bi1 O9 2.076173 1_555
Bi1 O4 2.076181 1_455
Bi1 O11 2.076184 1_545
Bi2 O1 2.076185 1_555
Bi2 O2 2.076186 1_555
Bi2 O0 2.076186 1_555
Bi3 O10 2.076168 1_555
Bi3 O5 2.076175 1_554
Bi3 O3 2.076183 1_545
