# generated using pymatgen
data_Re2P5
_symmetry_space_group_name_H-M   'P 1'
_cell_length_a   7.34845154
_cell_length_b   8.24614248
_cell_length_c   8.36406247
_cell_angle_alpha   69.76738796
_cell_angle_beta   67.92563003
_cell_angle_gamma   87.06885658
_symmetry_Int_Tables_number   1
_chemical_formula_structural   Re2P5
_chemical_formula_sum   'Re8 P20'
_cell_volume   438.88367631
_cell_formula_units_Z   4
loop_
 _symmetry_equiv_pos_site_id
 _symmetry_equiv_pos_as_xyz
  1  'x, y, z'
loop_
 _atom_site_type_symbol
 _atom_site_label
 _atom_site_symmetry_multiplicity
 _atom_site_fract_x
 _atom_site_fract_y
 _atom_site_fract_z
 _atom_site_occupancy
  Re  Re0  1  0.57436088  0.42139585  0.14262356  1
  Re  Re1  1  0.42564012  0.57860515  0.85737544  1
  Re  Re2  1  0.05701791  0.08803675  0.09792840  1
  Re  Re3  1  0.94298109  0.91196325  0.90207260  1
  Re  Re4  1  0.17826221  0.52062589  0.25036867  1
  Re  Re5  1  0.82173779  0.47937411  0.74963133  1
  Re  Re6  1  0.69575073  0.85785086  0.29001873  1
  Re  Re7  1  0.30424927  0.14214914  0.70998127  1
  P  P0  1  0.02237893  0.78237221  0.16809194  1
  P  P1  1  0.97762107  0.21762679  0.83190806  1
  P  P2  1  0.72998669  0.15587572  0.26034233  1
  P  P3  1  0.27001331  0.84412228  0.73965867  1
  P  P4  1  0.53498819  0.30828671  0.94391671  1
  P  P5  1  0.46501181  0.69171329  0.05608229  1
  P  P6  1  0.71902917  0.74717669  0.59660401  1
  P  P7  1  0.28096983  0.25282231  0.40339599  1
  P  P8  1  0.86363382  0.95982422  0.63158021  1
  P  P9  1  0.13636518  0.04017478  0.36842079  1
  P  P10  1  0.68200440  0.16476004  0.53467131  1
  P  P11  1  0.31799460  0.83523996  0.46532969  1
  P  P12  1  0.60085120  0.91394699  0.04668077  1
  P  P13  1  0.39915080  0.08605401  0.95331623  1
  P  P14  1  0.16105647  0.58394107  0.52098066  1
  P  P15  1  0.83894253  0.41605893  0.47902034  1
  P  P16  1  0.37572679  0.45197685  0.63538927  1
  P  P17  1  0.62427321  0.54802215  0.36461173  1
  P  P18  1  0.89212611  0.58380198  0.95227342  1
  P  P19  1  0.10787489  0.41619802  0.04772558  1
loop_
_geom_bond_atom_site_label_1
_geom_bond_atom_site_label_2
_geom_bond_distance
_geom_bond_site_symmetry_2
P0 Re6 2.373788 1_455
P0 Re2 2.385919 1_565
P0 Re3 2.387555 1_454
P0 Re4 2.399314 1_555
P1 Re7 2.373785 1_655
P1 Re3 2.385911 1_545
P1 Re2 2.387557 1_656
P1 Re5 2.399320 1_555
P2 Re6 2.399763 1_545
P2 Re2 2.422385 1_655
P2 Re0 2.484033 1_555
P3 Re7 2.399777 1_565
P3 Re3 2.422397 1_455
P3 Re1 2.484015 1_555
P4 Re0 2.275328 1_556
P4 Re5 2.283826 1_555
P4 Re1 2.297045 1_555
P5 Re1 2.275320 1_554
P5 Re4 2.283828 1_555
P5 Re0 2.297041 1_555
P6 P8 2.251357 1_555
P6 Re5 2.384375 1_555
P6 Re1 2.452084 1_555
P6 Re6 2.476457 1_555
P7 P9 2.251352 1_555
P7 Re4 2.384378 1_555
P7 Re0 2.452101 1_555
P7 Re7 2.476461 1_555
P8 P9 2.260944 1_665
P8 Re3 2.442264 1_555
P9 Re2 2.442263 1_555
P10 P2 2.213591 1_555
P10 P8 2.220202 1_545
P10 P15 2.239339 1_555
P10 Re7 2.587471 1_555
P11 P3 2.213586 1_555
P11 P9 2.220197 1_565
P11 P14 2.239339 1_555
P11 Re6 2.587479 1_555
P12 P5 2.095074 1_555
P12 P13 2.170056 1_564
P12 Re6 2.285901 1_555
P12 Re3 2.346895 1_554
P13 P4 2.095067 1_555
P13 Re7 2.285887 1_555
P13 Re2 2.346917 1_556
P14 P16 2.197078 1_555
P14 Re4 2.450950 1_555
P14 Re5 2.472540 1_455
P15 P17 2.197069 1_555
P15 Re5 2.450944 1_555
P15 Re4 2.472548 1_655
P16 P17 2.211480 1_555
P16 Re7 2.445609 1_555
P16 Re1 2.562077 1_555
P17 Re6 2.445615 1_555
P17 Re0 2.562078 1_555
P18 P19 2.241692 1_656
P18 Re5 2.365544 1_555
P18 Re0 2.414891 1_556
P18 Re3 2.615022 1_555
P19 Re4 2.365548 1_555
P19 Re1 2.414894 1_554
P19 Re2 2.615020 1_555
