# generated using pymatgen
data_Zn(Bi3O5)4
_symmetry_space_group_name_H-M   'P 1'
_cell_length_a   8.83167857
_cell_length_b   8.83167857
_cell_length_c   8.83167857
_cell_angle_alpha   109.47122063
_cell_angle_beta   109.47122063
_cell_angle_gamma   109.47122063
_symmetry_Int_Tables_number   1
_chemical_formula_structural   Zn(Bi3O5)4
_chemical_formula_sum   'Zn1 Bi12 O20'
_cell_volume   530.28320531
_cell_formula_units_Z   1
loop_
 _symmetry_equiv_pos_site_id
 _symmetry_equiv_pos_as_xyz
  1  'x, y, z'
loop_
 _atom_site_type_symbol
 _atom_site_label
 _atom_site_symmetry_multiplicity
 _atom_site_fract_x
 _atom_site_fract_y
 _atom_site_fract_z
 _atom_site_occupancy
  Zn  Zn0  1  0.00000000  0.00000000  0.00000000  1
  Bi  Bi0  1  0.83271200  0.69179600  0.51095200  1
  Bi  Bi1  1  0.14091600  0.81915600  0.30820400  1
  Bi  Bi2  1  0.32176000  0.48904800  0.18084400  1
  Bi  Bi3  1  0.48904800  0.18084400  0.32176000  1
  Bi  Bi4  1  0.67824000  0.85908400  0.16728800  1
  Bi  Bi5  1  0.51095200  0.83271200  0.69179600  1
  Bi  Bi6  1  0.69179600  0.51095200  0.83271200  1
  Bi  Bi7  1  0.30820400  0.14091600  0.81915600  1
  Bi  Bi8  1  0.85908400  0.16728800  0.67824000  1
  Bi  Bi9  1  0.18084400  0.32176000  0.48904800  1
  Bi  Bi10  1  0.16728800  0.67824000  0.85908400  1
  Bi  Bi11  1  0.81915600  0.30820400  0.14091600  1
  O  O0  1  0.00000000  0.00000000  0.62138300  1
  O  O1  1  0.00000000  0.62138300  0.00000000  1
  O  O2  1  0.37861700  0.37861700  0.37861700  1
  O  O3  1  0.62138300  0.00000000  0.00000000  1
  O  O4  1  0.35843100  0.23938900  0.61989700  1
  O  O5  1  0.11904200  0.38050900  0.76061100  1
  O  O6  1  0.73853400  0.38010300  0.61949100  1
  O  O7  1  0.38010300  0.61949100  0.73853400  1
  O  O8  1  0.26146600  0.88095800  0.64156900  1
  O  O9  1  0.61989700  0.35843100  0.23938900  1
  O  O10  1  0.23938900  0.61989700  0.35843100  1
  O  O11  1  0.76061100  0.11904200  0.38050900  1
  O  O12  1  0.88095800  0.64156900  0.26146600  1
  O  O13  1  0.61949100  0.73853400  0.38010300  1
  O  O14  1  0.64156900  0.26146600  0.88095800  1
  O  O15  1  0.38050900  0.76061100  0.11904200  1
  O  O16  1  0.00000000  0.00000000  0.22980000  1
  O  O17  1  0.00000000  0.22980000  0.00000000  1
  O  O18  1  0.77020000  0.77020000  0.77020000  1
  O  O19  1  0.22980000  0.00000000  0.00000000  1
loop_
_geom_bond_atom_site_label_1
_geom_bond_atom_site_label_2
_geom_bond_distance
_geom_bond_site_symmetry_2
Bi0 O13 2.106499 1_555
Bi0 O0 2.265311 1_665
Bi0 O12 2.309441 1_555
Bi0 O18 2.463156 1_555
Bi0 O9 2.559522 1_555
Bi1 O12 2.106492 1_455
Bi1 O1 2.265311 1_555
Bi1 O10 2.309441 1_555
Bi1 O16 2.463156 1_565
Bi1 O8 2.559522 1_555
Bi2 O10 2.106492 1_555
Bi2 O2 2.265311 1_555
Bi2 O13 2.309436 1_555
Bi2 O17 2.463156 1_555
Bi2 O15 2.559521 1_555
Bi3 O9 2.106492 1_555
Bi3 O2 2.265311 1_555
Bi3 O6 2.309436 1_555
Bi3 O19 2.463156 1_555
Bi3 O11 2.559521 1_555
Bi4 O11 2.106496 1_565
Bi4 O3 2.265311 1_565
Bi4 O15 2.309433 1_555
Bi4 O16 2.463156 1_665
Bi4 O13 2.559524 1_555
Bi5 O7 2.106499 1_555
Bi5 O3 2.265311 1_566
Bi5 O8 2.309441 1_555
Bi5 O18 2.463156 1_555
Bi5 O10 2.559522 1_555
Bi6 O6 2.106499 1_555
Bi6 O1 2.265311 1_656
Bi6 O14 2.309441 1_555
Bi6 O18 2.463156 1_555
Bi6 O4 2.559522 1_555
Bi7 O8 2.106492 1_545
Bi7 O0 2.265311 1_555
Bi7 O4 2.309441 1_555
Bi7 O19 2.463156 1_556
Bi7 O14 2.559522 1_555
Bi8 O5 2.106496 1_655
Bi8 O0 2.265311 1_655
Bi8 O11 2.309433 1_555
Bi8 O17 2.463156 1_656
Bi8 O6 2.559524 1_555
Bi9 O4 2.106492 1_555
Bi9 O2 2.265311 1_555
Bi9 O7 2.309436 1_555
Bi9 O16 2.463156 1_555
Bi9 O5 2.559521 1_555
Bi10 O15 2.106496 1_556
Bi10 O1 2.265311 1_556
Bi10 O5 2.309433 1_555
Bi10 O19 2.463156 1_566
Bi10 O7 2.559524 1_555
Bi11 O14 2.106492 1_554
Bi11 O3 2.265311 1_555
Bi11 O9 2.309441 1_555
Bi11 O17 2.463156 1_655
Bi11 O12 2.559522 1_555
O16 Zn0 2.029520 1_555
O17 Zn0 2.029520 1_555
O18 Zn0 2.029520 1_666
O19 Zn0 2.029520 1_555
