# generated using pymatgen
data_Na3TiGaSi2SO12
_symmetry_space_group_name_H-M   'P 1'
_cell_length_a   8.91549589
_cell_length_b   8.91549560
_cell_length_c   22.07221893
_cell_angle_alpha   90.22256480
_cell_angle_beta   89.77743515
_cell_angle_gamma   120.29640607
_symmetry_Int_Tables_number   1
_chemical_formula_structural   Na3TiGaSi2SO12
_chemical_formula_sum   'Na18 Ti6 Ga6 Si12 S6 O72'
_cell_volume   1514.81067552
_cell_formula_units_Z   6
loop_
 _symmetry_equiv_pos_site_id
 _symmetry_equiv_pos_as_xyz
  1  'x, y, z'
loop_
 _atom_site_type_symbol
 _atom_site_label
 _atom_site_symmetry_multiplicity
 _atom_site_fract_x
 _atom_site_fract_y
 _atom_site_fract_z
 _atom_site_occupancy
  Na  Na0  1  0.63007988  0.00298136  0.24593276  1
  Na  Na1  1  0.99930184  0.63773437  0.24848886  1
  Na  Na2  1  0.99701864  0.36992012  0.74593276  1
  Na  Na3  1  0.36226563  0.00069816  0.74848886  1
  Na  Na4  1  0.29674688  0.33631436  0.57926576  1
  Na  Na5  1  0.66596884  0.97106737  0.58182186  1
  Na  Na6  1  0.66368564  0.70325312  0.07926576  1
  Na  Na7  1  0.02893263  0.33403116  0.08182186  1
  Na  Na8  1  0.96341288  0.66964836  0.91259976  1
  Na  Na9  1  0.33263484  0.30440137  0.91515586  1
  Na  Na10  1  0.33035164  0.03658712  0.41259976  1
  Na  Na11  1  0.69559863  0.66736516  0.41515586  1
  Na  Na12  1  0.00158775  0.01215909  0.49749007  1
  Na  Na13  1  0.98784091  0.99841225  0.99749007  1
  Na  Na14  1  0.66825475  0.34549209  0.83082307  1
  Na  Na15  1  0.65450791  0.33174525  0.33082307  1
  Na  Na16  1  0.33492075  0.67882609  0.16415707  1
  Na  Na17  1  0.32117391  0.66507925  0.66415707  1
  Ti  Ti0  1  0.02399311  0.00944940  0.64660674  1
  Ti  Ti1  1  0.99055060  0.97600689  0.14660674  1
  Ti  Ti2  1  0.69066011  0.34278240  0.97993974  1
  Ti  Ti3  1  0.65721760  0.30933989  0.47993974  1
  Ti  Ti4  1  0.35732611  0.67611640  0.31327374  1
  Ti  Ti5  1  0.32388360  0.64267389  0.81327374  1
  Ga  Ga0  1  0.00458483  0.00924189  0.35086448  1
  Ga  Ga1  1  0.99075811  0.99541517  0.85086448  1
  Ga  Ga2  1  0.67125183  0.34257489  0.68419748  1
  Ga  Ga3  1  0.65742511  0.32874817  0.18419748  1
  Ga  Ga4  1  0.33791783  0.67590889  0.01753148  1
  Ga  Ga5  1  0.32409111  0.66208217  0.51753148  1
  Si  Si0  1  0.29219544  0.00485585  0.25172887  1
  Si  Si1  1  0.71081351  0.70222168  0.25164249  1
  Si  Si2  1  0.29777832  0.28918649  0.75164249  1
  Si  Si3  1  0.99514415  0.70780456  0.75172887  1
  Si  Si4  1  0.95886244  0.33818885  0.58506187  1
  Si  Si5  1  0.37748051  0.03555468  0.58497549  1
  Si  Si6  1  0.96444532  0.62251949  0.08497549  1
  Si  Si7  1  0.66181115  0.04113756  0.08506187  1
  Si  Si8  1  0.62552844  0.67152285  0.91839587  1
  Si  Si9  1  0.04414651  0.36888868  0.91830949  1
  Si  Si10  1  0.63111132  0.95585349  0.41830949  1
  Si  Si11  1  0.32847715  0.37447156  0.41839587  1
  S  S0  1  0.00400081  0.29241654  0.24971506  1
  S  S1  1  0.70758346  0.99599919  0.74971506  1
  S  S2  1  0.67066781  0.62574954  0.58304806  1
  S  S3  1  0.37425046  0.32933219  0.08304806  1
  S  S4  1  0.33733381  0.95908354  0.91638206  1
  S  S5  1  0.04091646  0.66266619  0.41638206  1
  O  O0  1  0.20480749  0.03019131  0.31249482  1
  O  O1  1  0.83221454  0.79384164  0.31040822  1
  O  O2  1  0.96958839  0.17970166  0.30357999  1
  O  O3  1  0.20615836  0.16778546  0.81040822  1
  O  O4  1  0.96980869  0.79519251  0.81249482  1
  O  O5  1  0.82029834  0.03041161  0.80357999  1
  O  O6  1  0.78558594  0.96949880  0.69426784  1
  O  O7  1  0.16815852  0.20421369  0.69138697  1
  O  O8  1  0.02919571  0.84191733  0.69379865  1
  O  O9  1  0.79578631  0.83184148  0.19138697  1
  O  O10  1  0.03050120  0.21441406  0.19426784  1
  O  O11  1  0.15808267  0.97080429  0.19379865  1
  O  O12  1  0.87147449  0.36352431  0.64582782  1
  O  O13  1  0.49888154  0.12717464  0.64374122  1
  O  O14  1  0.63625539  0.51303466  0.63691299  1
  O  O15  1  0.87282536  0.50111846  0.14374122  1
  O  O16  1  0.63647569  0.12852551  0.14582782  1
  O  O17  1  0.48696534  0.36374461  0.13691299  1
  O  O18  1  0.45225294  0.30283180  0.02760084  1
  O  O19  1  0.83482552  0.53754669  0.02471997  1
  O  O20  1  0.69586271  0.17525033  0.02713165  1
  O  O21  1  0.46245331  0.16517448  0.52471997  1
  O  O22  1  0.69716820  0.54774706  0.52760084  1
  O  O23  1  0.82474967  0.30413729  0.52713165  1
  O  O24  1  0.53814049  0.69685831  0.97916182  1
  O  O25  1  0.16554754  0.46050864  0.97707522  1
  O  O26  1  0.30292139  0.84636866  0.97024699  1
  O  O27  1  0.53949136  0.83445246  0.47707522  1
  O  O28  1  0.30314169  0.46185951  0.47916182  1
  O  O29  1  0.15363134  0.69707861  0.47024699  1
  O  O30  1  0.11891894  0.63616580  0.36093484  1
  O  O31  1  0.50149152  0.87088069  0.35805397  1
  O  O32  1  0.36252871  0.50858433  0.36046565  1
  O  O33  1  0.12911931  0.49850848  0.85805397  1
  O  O34  1  0.36383420  0.88108106  0.86093484  1
  O  O35  1  0.49141567  0.63747129  0.86046565  1
  O  O36  1  0.02315975  0.81968230  0.41301173  1
  O  O37  1  0.81776014  0.96957045  0.40898784  1
  O  O38  1  0.16584554  0.17700987  0.41136935  1
  O  O39  1  0.03042955  0.18223986  0.90898784  1
  O  O40  1  0.18031770  0.97684025  0.91301173  1
  O  O41  1  0.82299013  0.83415446  0.91136935  1
  O  O42  1  0.96701974  0.15454605  0.58956720  1
  O  O43  1  0.18781354  0.02820488  0.58898217  1
  O  O44  1  0.82405226  0.80232059  0.58967593  1
  O  O45  1  0.97179512  0.81218646  0.08898217  1
  O  O46  1  0.84545395  0.03298026  0.08956720  1
  O  O47  1  0.19767941  0.17594774  0.08967593  1
  O  O48  1  0.68982675  0.15301530  0.74634473  1
  O  O49  1  0.48442714  0.30290345  0.74232084  1
  O  O50  1  0.83251254  0.51034287  0.74470235  1
  O  O51  1  0.69709655  0.51557286  0.24232084  1
  O  O52  1  0.84698470  0.31017325  0.24634473  1
  O  O53  1  0.48965713  0.16748746  0.24470235  1
  O  O54  1  0.63368674  0.48787905  0.92290020  1
  O  O55  1  0.85448054  0.36153788  0.92231517  1
  O  O56  1  0.49071926  0.13565359  0.92300893  1
  O  O57  1  0.63846212  0.14551946  0.42231517  1
  O  O58  1  0.51212095  0.36631326  0.42290020  1
  O  O59  1  0.86434641  0.50928074  0.42300893  1
  O  O60  1  0.35649275  0.48634930  0.07967873  1
  O  O61  1  0.15109314  0.63623745  0.07565484  1
  O  O62  1  0.49917854  0.84367687  0.07803635  1
  O  O63  1  0.36376255  0.84890686  0.57565484  1
  O  O64  1  0.51365070  0.64350725  0.57967873  1
  O  O65  1  0.15632313  0.50082146  0.57803635  1
  O  O66  1  0.30035274  0.82121305  0.25623420  1
  O  O67  1  0.52114654  0.69487188  0.25564917  1
  O  O68  1  0.15738526  0.46898759  0.25634293  1
  O  O69  1  0.30512812  0.47885346  0.75564917  1
  O  O70  1  0.17878695  0.69964726  0.75623420  1
  O  O71  1  0.53101241  0.84261474  0.75634293  1
loop_
_geom_bond_atom_site_label_1
_geom_bond_atom_site_label_2
_geom_bond_distance
_geom_bond_site_symmetry_2
Na0 O53 2.360576 1_555
Na0 O67 2.417893 1_545
Na0 O52 2.428345 1_555
Na0 O16 2.468189 1_555
Na0 O66 2.551618 1_545
Na0 O31 2.732061 1_545
Na0 O9 2.864672 1_545
Na0 O2 2.909652 1_555
Na1 O66 2.341072 1_655
Na1 O51 2.346281 1_555
Na1 O52 2.524490 1_555
Na1 O68 2.534386 1_655
Na1 O15 2.590961 1_555
Na1 O30 2.708020 1_655
Na1 O11 2.837656 1_655
Na1 O1 2.843455 1_555
Na2 O50 2.360576 1_555
Na2 O69 2.417893 1_655
Na2 O48 2.428345 1_555
Na2 O12 2.468189 1_555
Na2 O70 2.551618 1_655
Na2 O33 2.732061 1_655
Na2 O7 2.864672 1_655
Na2 O5 2.909652 1_555
Na3 O70 2.341072 1_545
Na3 O49 2.346281 1_555
Na3 O48 2.524490 1_555
Na3 O71 2.534386 1_545
Na3 O13 2.590961 1_555
Na3 O34 2.708020 1_545
Na3 O8 2.837656 1_545
Na3 O3 2.843455 1_555
Na4 O65 2.360592 1_555
Na4 O43 2.417893 1_555
Na4 O64 2.428349 1_555
Na4 O28 2.468175 1_555
Na4 O42 2.551618 1_455
Na4 O7 2.732061 1_555
Na4 O21 2.864672 1_555
Na4 O14 2.909652 1_555
Na5 O42 2.341072 1_565
Na5 O63 2.346289 1_555
Na5 O64 2.524481 1_555
Na5 O44 2.534386 1_555
Na5 O27 2.590941 1_555
Na5 O6 2.708020 1_555
Na5 O23 2.837656 1_565
Na5 O13 2.843455 1_565
Na6 O62 2.360592 1_555
Na6 O45 2.417893 1_555
Na6 O60 2.428349 1_555
Na6 O24 2.468175 1_554
Na6 O46 2.551618 1_565
Na6 O9 2.732061 1_555
Na6 O19 2.864672 1_555
Na6 O17 2.909652 1_555
Na7 O46 2.341072 1_455
Na7 O61 2.346289 1_555
Na7 O60 2.524481 1_555
Na7 O47 2.534386 1_555
Na7 O25 2.590941 1_554
Na7 O10 2.708020 1_555
Na7 O20 2.837656 1_455
Na7 O15 2.843455 1_455
Na8 O41 2.360576 1_555
Na8 O55 2.417901 1_555
Na8 O40 2.428345 1_655
Na8 O4 2.468189 1_555
Na8 O54 2.551609 1_555
Na8 O19 2.732041 1_556
Na8 O33 2.864672 1_655
Na8 O26 2.909652 1_655
Na9 O54 2.341076 1_555
Na9 O39 2.346281 1_555
Na9 O40 2.524490 1_545
Na9 O56 2.534400 1_555
Na9 O3 2.590961 1_555
Na9 O18 2.708005 1_556
Na9 O35 2.837656 1_555
Na9 O25 2.843455 1_555
Na10 O38 2.360576 1_555
Na10 O57 2.417901 1_555
Na10 O36 2.428345 1_545
Na10 O0 2.468189 1_555
Na10 O58 2.551609 1_555
Na10 O21 2.732041 1_555
Na10 O31 2.864672 1_545
Na10 O29 2.909652 1_545
Na11 O58 2.341076 1_555
Na11 O37 2.346281 1_555
Na11 O36 2.524490 1_655
Na11 O59 2.534400 1_555
Na11 O1 2.590961 1_555
Na11 O22 2.708005 1_555
Na11 O32 2.837656 1_555
Na11 O27 2.843455 1_555
Na12 O38 2.397186 1_555
Na12 O37 2.457110 1_445
Na12 O42 2.491333 1_455
Na12 O43 2.576688 1_555
Na12 O36 2.600750 1_545
Na12 O44 2.676257 1_445
Na13 O41 2.397186 1_555
Na13 O39 2.457110 1_665
Na13 O46 2.491333 1_566
Na13 O45 2.576688 1_556
Na13 O40 2.600750 1_655
Na13 O47 2.676257 1_666
Na14 O50 2.397186 1_555
Na14 O49 2.457110 1_555
Na14 O54 2.491333 1_555
Na14 O55 2.576688 1_555
Na14 O48 2.600750 1_555
Na14 O56 2.676257 1_555
Na15 O53 2.397186 1_555
Na15 O51 2.457110 1_555
Na15 O58 2.491333 1_555
Na15 O57 2.576688 1_555
Na15 O52 2.600750 1_555
Na15 O59 2.676257 1_555
Na16 O62 2.397186 1_555
Na16 O61 2.457110 1_555
Na16 O66 2.491333 1_555
Na16 O67 2.576688 1_555
Na16 O60 2.600750 1_555
Na16 O68 2.676257 1_555
Na17 O65 2.397186 1_555
Na17 O63 2.457110 1_555
Na17 O70 2.491333 1_555
Na17 O69 2.576688 1_555
Na17 O64 2.600750 1_555
Na17 O71 2.676257 1_555
Ga0 O0 1.895191 1_555
Ga0 O1 1.966391 1_445
Ga0 O38 1.979260 1_555
Ga0 O37 1.984397 1_445
Ga0 O2 1.997364 1_455
Ga0 O36 2.251083 1_545
Ga1 O4 1.895191 1_555
Ga1 O3 1.966391 1_665
Ga1 O41 1.979260 1_555
Ga1 O39 1.984397 1_665
Ga1 O5 1.997364 1_565
Ga1 O40 2.251083 1_655
Ga2 O12 1.895191 1_555
Ga2 O13 1.966391 1_555
Ga2 O50 1.979260 1_555
Ga2 O49 1.984397 1_555
Ga2 O14 1.997364 1_555
Ga2 O48 2.251083 1_555
Ga3 O16 1.895191 1_555
Ga3 O15 1.966391 1_555
Ga3 O53 1.979260 1_555
Ga3 O51 1.984397 1_555
Ga3 O17 1.997364 1_555
Ga3 O52 2.251083 1_555
Ga4 O24 1.895191 1_554
Ga4 O25 1.966391 1_554
Ga4 O62 1.979260 1_555
Ga4 O61 1.984397 1_555
Ga4 O26 1.997364 1_554
Ga4 O60 2.251083 1_555
Ga5 O28 1.895191 1_555
Ga5 O27 1.966391 1_555
Ga5 O65 1.979260 1_555
Ga5 O63 1.984397 1_555
Ga5 O29 1.997364 1_555
Ga5 O64 2.251083 1_555
O0 Si0 1.619888 1_555
O1 Si1 1.622285 1_555
O2 S0 1.487574 1_655
O3 Si2 1.622285 1_555
O4 Si3 1.619888 1_555
O5 S1 1.487574 1_545
O6 S1 1.481268 1_555
O6 Ti0 2.230037 1_665
O7 Si2 1.673028 1_555
O7 Ti0 1.840879 1_555
O8 Si3 1.673136 1_455
O8 Ti0 1.844029 1_565
O9 Si1 1.673028 1_555
O9 Ti1 1.840879 1_555
O10 S0 1.481268 1_555
O10 Ti1 2.230037 1_445
O11 Si0 1.673136 1_565
O11 Ti1 1.844029 1_455
O12 Si4 1.619888 1_555
O13 Si5 1.622285 1_555
O14 S2 1.487574 1_555
O15 Si6 1.622285 1_555
O16 Si7 1.619888 1_555
O17 S3 1.487574 1_555
O18 S3 1.481268 1_555
O18 Ti2 2.230037 1_554
O19 Si6 1.673028 1_555
O19 Ti2 1.840879 1_554
O20 Si7 1.673136 1_555
O20 Ti2 1.844029 1_554
O21 Si5 1.673028 1_555
O21 Ti3 1.840879 1_555
O22 S2 1.481268 1_555
O22 Ti3 2.230037 1_555
O23 Si4 1.673136 1_555
O23 Ti3 1.844029 1_555
O24 Si8 1.619888 1_555
O25 Si9 1.622285 1_555
O26 S4 1.487574 1_555
O27 Si10 1.622285 1_555
O28 Si11 1.619888 1_555
O29 S5 1.487574 1_555
O30 S5 1.481268 1_555
O30 Ti4 2.230037 1_555
O31 Si10 1.673028 1_555
O31 Ti4 1.840879 1_555
O32 Si11 1.673136 1_555
O32 Ti4 1.844029 1_555
O33 Si9 1.673028 1_555
O33 Ti5 1.840879 1_555
O34 S4 1.481268 1_555
O34 Ti5 2.230037 1_555
O35 Si8 1.673136 1_555
O35 Ti5 1.844029 1_555
O36 S5 1.488203 1_555
O37 Si10 1.618214 1_555
O38 Si11 1.627835 1_555
O39 Si9 1.618214 1_555
O40 S4 1.488203 1_555
O41 Si8 1.627835 1_555
O42 Si4 1.678475 1_555
O42 Ti0 2.048675 1_655
O43 Si5 1.660903 1_555
O43 Ti0 1.876083 1_555
O44 S2 1.482356 1_555
O44 Ti0 2.201100 1_665
O45 Si6 1.660903 1_555
O45 Ti1 1.876082 1_555
O46 Si7 1.678475 1_555
O46 Ti1 2.048675 1_545
O47 S3 1.482356 1_555
O47 Ti1 2.201100 1_445
O48 S1 1.488203 1_545
O49 Si2 1.618214 1_555
O50 Si3 1.627835 1_555
O51 Si1 1.618214 1_555
O52 S0 1.488203 1_655
O53 Si0 1.627835 1_555
O54 Si8 1.678487 1_555
O54 Ti2 2.048675 1_555
O55 Si9 1.660889 1_655
O55 Ti2 1.876083 1_555
O56 S4 1.482352 1_545
O56 Ti2 2.201100 1_555
O57 Si10 1.660889 1_545
O57 Ti3 1.876082 1_555
O58 Si11 1.678487 1_555
O58 Ti3 2.048675 1_555
O59 S5 1.482352 1_655
O59 Ti3 2.201100 1_555
O60 S3 1.488216 1_555
O61 Si6 1.618199 1_455
O62 Si7 1.627830 1_565
O63 Si5 1.618199 1_565
O64 S2 1.488216 1_555
O65 Si4 1.627830 1_455
O66 Si0 1.678475 1_565
O66 Ti4 2.048675 1_555
O67 Si1 1.660903 1_555
O67 Ti4 1.876083 1_555
O68 S0 1.482356 1_555
O68 Ti4 2.201100 1_555
O69 Si2 1.660903 1_555
O69 Ti5 1.876082 1_555
O70 Si3 1.678475 1_455
O70 Ti5 2.048675 1_555
O71 S1 1.482356 1_555
O71 Ti5 2.201100 1_555
