# generated using pymatgen
data_BaPt2S3
_symmetry_space_group_name_H-M   'P 1'
_cell_length_a   6.82385936
_cell_length_b   6.82385936
_cell_length_c   12.40814172
_cell_angle_alpha   90.00000000
_cell_angle_beta   90.00000000
_cell_angle_gamma   90.00000000
_symmetry_Int_Tables_number   1
_chemical_formula_structural   BaPt2S3
_chemical_formula_sum   'Ba4 Pt8 S12'
_cell_volume   577.78582106
_cell_formula_units_Z   4
loop_
 _symmetry_equiv_pos_site_id
 _symmetry_equiv_pos_as_xyz
  1  'x, y, z'
loop_
 _atom_site_type_symbol
 _atom_site_label
 _atom_site_symmetry_multiplicity
 _atom_site_fract_x
 _atom_site_fract_y
 _atom_site_fract_z
 _atom_site_occupancy
  Ba  Ba0  1  0.67718491  0.67718491  0.00000000  1
  Ba  Ba1  1  0.17718491  0.82281509  0.75000000  1
  Ba  Ba2  1  0.82281509  0.17718491  0.25000000  1
  Ba  Ba3  1  0.32281509  0.32281509  0.50000000  1
  Pt  Pt0  1  0.74991776  0.00681468  0.62489554  1
  Pt  Pt1  1  0.99318532  0.25008224  0.87510446  1
  Pt  Pt2  1  0.00681468  0.74991776  0.37510446  1
  Pt  Pt3  1  0.24991776  0.49318532  0.12510446  1
  Pt  Pt4  1  0.75008224  0.50681468  0.62510446  1
  Pt  Pt5  1  0.49318532  0.24991776  0.87489554  1
  Pt  Pt6  1  0.50681468  0.75008224  0.37489554  1
  Pt  Pt7  1  0.25008224  0.99318532  0.12489554  1
  S  S0  1  0.25641629  0.83632499  0.49532763  1
  S  S1  1  0.74358371  0.16367501  0.99532763  1
  S  S2  1  0.83632499  0.25641629  0.50467237  1
  S  S3  1  0.33632499  0.24358371  0.24532763  1
  S  S4  1  0.66367501  0.75641629  0.74532763  1
  S  S5  1  0.24358371  0.33632499  0.75467237  1
  S  S6  1  0.75641629  0.66367501  0.25467237  1
  S  S7  1  0.24383088  0.24383088  0.00000000  1
  S  S8  1  0.75616912  0.75616912  0.50000000  1
  S  S9  1  0.74383088  0.25616912  0.75000000  1
  S  S10  1  0.25616912  0.74383088  0.25000000  1
  S  S11  1  0.16367501  0.74358371  0.00467237  1
loop_
_geom_bond_atom_site_label_1
_geom_bond_atom_site_label_2
_geom_bond_distance
_geom_bond_site_symmetry_2
Ba0 S6 3.207255 1_555
Ba0 S4 3.207255 1_554
Ba0 S11 3.351019 1_655
Ba0 S1 3.351019 1_564
Ba0 Pt5 3.533690 1_554
Ba0 Pt3 3.533690 1_555
Ba0 S1 3.533767 1_554
Ba0 S11 3.533767 1_555
Ba1 S11 3.207255 1_556
Ba1 S0 3.207255 1_555
Ba1 S5 3.351019 1_555
Ba1 S4 3.351019 1_555
Ba1 Pt0 3.533690 1_465
Ba1 Pt1 3.533690 1_465
Ba1 S5 3.533767 1_565
Ba1 S4 3.533767 1_455
Ba2 S1 3.207255 1_554
Ba2 S2 3.207255 1_555
Ba2 S6 3.351019 1_555
Ba2 S3 3.351019 1_555
Ba2 Pt2 3.533690 1_645
Ba2 Pt7 3.533690 1_645
Ba2 S6 3.533767 1_545
Ba2 S3 3.533767 1_655
Ba3 S5 3.207255 1_555
Ba3 S3 3.207255 1_555
Ba3 S0 3.351019 1_545
Ba3 S2 3.351019 1_455
Ba3 Pt6 3.533690 1_555
Ba3 Pt4 3.533690 1_555
Ba3 S2 3.533767 1_555
Ba3 S0 3.533767 1_555
Pt0 S9 2.303629 1_555
Pt0 S8 2.308424 1_545
Pt0 S2 2.339662 1_555
Pt0 S4 2.344992 1_545
Pt1 S9 2.303629 1_555
Pt1 S7 2.308424 1_656
Pt1 S1 2.339662 1_555
Pt1 S5 2.344992 1_655
Pt2 S10 2.303629 1_555
Pt2 S8 2.308424 1_455
Pt2 S0 2.339662 1_555
Pt2 S6 2.344992 1_455
Pt3 S7 2.303629 1_555
Pt3 S10 2.308424 1_555
Pt3 S3 2.339662 1_555
Pt3 S11 2.344992 1_555
Pt4 S8 2.303629 1_555
Pt4 S9 2.308424 1_555
Pt4 S4 2.339662 1_555
Pt4 S2 2.344992 1_555
Pt5 S7 2.303629 1_556
Pt5 S9 2.308424 1_555
Pt5 S5 2.339662 1_555
Pt5 S1 2.344992 1_555
Pt6 S8 2.303629 1_555
Pt6 S10 2.308424 1_555
Pt6 S6 2.339662 1_555
Pt6 S0 2.344992 1_555
Pt7 S10 2.303629 1_555
Pt7 S7 2.308424 1_565
Pt7 S11 2.339662 1_555
Pt7 S3 2.344992 1_565
