# generated using pymatgen
data_K2TeI6
_symmetry_space_group_name_H-M   'P 1'
_cell_length_a   8.09448239
_cell_length_b   8.41395656
_cell_length_c   11.49170108
_cell_angle_alpha   90.00000000
_cell_angle_beta   90.20735215
_cell_angle_gamma   90.00000000
_symmetry_Int_Tables_number   1
_chemical_formula_structural   K2TeI6
_chemical_formula_sum   'K4 Te2 I12'
_cell_volume   782.65583032
_cell_formula_units_Z   2
loop_
 _symmetry_equiv_pos_site_id
 _symmetry_equiv_pos_as_xyz
  1  'x, y, z'
loop_
 _atom_site_type_symbol
 _atom_site_label
 _atom_site_symmetry_multiplicity
 _atom_site_fract_x
 _atom_site_fract_y
 _atom_site_fract_z
 _atom_site_occupancy
  K  K0  1  0.02216438  0.57944454  0.74681849  1
  K  K1  1  0.47783562  0.07944454  0.75318151  1
  K  K2  1  0.97783562  0.42055546  0.25318151  1
  K  K3  1  0.52216438  0.92055546  0.24681849  1
  Te  Te0  1  -0.00000000  0.00000000  0.00000000  1
  Te  Te1  1  0.50000000  0.50000000  0.50000000  1
  I  I0  1  0.91706282  0.99334748  0.74887352  1
  I  I1  1  0.58293718  0.49334748  0.75112648  1
  I  I2  1  0.08293718  0.00665252  0.25112648  1
  I  I3  1  0.41706282  0.50665252  0.24887352  1
  I  I4  1  0.79706961  0.69669901  0.45436161  1
  I  I5  1  0.70293039  0.19669901  0.04563839  1
  I  I6  1  0.20293039  0.30330099  0.54563839  1
  I  I7  1  0.29706961  0.80330099  0.95436161  1
  I  I8  1  0.80723724  0.70341164  0.03706705  1
  I  I9  1  0.69276276  0.20341164  0.46293295  1
  I  I10  1  0.19276276  0.29658836  0.96293295  1
  I  I11  1  0.30723724  0.79658836  0.53706705  1
loop_
_geom_bond_atom_site_label_1
_geom_bond_atom_site_label_2
_geom_bond_distance
_geom_bond_site_symmetry_2
I0 Te0 2.961089 1_666
I0 K0 3.585066 1_655
I0 K1 3.628882 1_565
I1 Te1 2.961089 1_555
I1 K1 3.585066 1_555
I1 K0 3.628882 1_655
I2 Te0 2.961089 1_555
I2 K2 3.585066 1_455
I2 K3 3.628882 1_545
I3 Te1 2.961089 1_555
I3 K3 3.585066 1_555
I3 K2 3.628882 1_455
I4 Te1 2.967405 1_555
I4 K2 3.592884 1_555
I4 K3 3.761536 1_555
I4 K0 3.942581 1_655
I5 Te0 2.967405 1_655
I5 K3 3.592884 1_545
I5 K2 3.761536 1_555
I5 K1 3.942581 1_554
I6 Te1 2.967405 1_555
I6 K0 3.592884 1_555
I6 K1 3.761536 1_555
I6 K2 3.942581 1_455
I7 Te0 2.967405 1_566
I7 K1 3.592884 1_565
I7 K0 3.761536 1_555
I7 K3 3.942581 1_556
I8 Te0 2.974603 1_665
I8 K2 3.703252 1_555
I8 K3 3.809593 1_555
I8 K0 3.909198 1_654
I9 Te1 2.974603 1_555
I9 K3 3.703252 1_545
I9 K2 3.809593 1_555
I9 K1 3.909198 1_555
I10 Te0 2.974603 1_556
I10 K0 3.703252 1_555
I10 K1 3.809593 1_555
I10 K2 3.909198 1_456
I11 Te1 2.974603 1_555
I11 K1 3.703252 1_565
I11 K0 3.809593 1_555
I11 K3 3.909198 1_555
