# generated using pymatgen
data_Sn(PbO2)2
_symmetry_space_group_name_H-M   'P 1'
_cell_length_a   8.80197414
_cell_length_b   8.80197414
_cell_length_c   6.35837329
_cell_angle_alpha   90.00000000
_cell_angle_beta   90.00000000
_cell_angle_gamma   90.00000000
_symmetry_Int_Tables_number   1
_chemical_formula_structural   Sn(PbO2)2
_chemical_formula_sum   'Sn4 Pb8 O16'
_cell_volume   492.61337317
_cell_formula_units_Z   4
loop_
 _symmetry_equiv_pos_site_id
 _symmetry_equiv_pos_as_xyz
  1  'x, y, z'
loop_
 _atom_site_type_symbol
 _atom_site_label
 _atom_site_symmetry_multiplicity
 _atom_site_fract_x
 _atom_site_fract_y
 _atom_site_fract_z
 _atom_site_occupancy
  Sn  Sn0  1  -0.00000000  0.50000000  0.75000000  1
  Sn  Sn1  1  0.50000000  -0.00000000  0.25000000  1
  Sn  Sn2  1  -0.00000000  0.50000000  0.25000000  1
  Sn  Sn3  1  0.50000000  -0.00000000  0.75000000  1
  Pb  Pb0  1  0.35752428  0.66105450  -0.00000000  1
  Pb  Pb1  1  0.64247572  0.33894550  0.00000000  1
  Pb  Pb2  1  0.14247572  0.16105450  -0.00000000  1
  Pb  Pb3  1  0.85752428  0.83894550  0.00000000  1
  Pb  Pb4  1  0.83894550  0.14247572  0.50000000  1
  Pb  Pb5  1  0.16105450  0.85752428  0.50000000  1
  Pb  Pb6  1  0.66105450  0.64247572  0.50000000  1
  Pb  Pb7  1  0.33894550  0.35752428  0.50000000  1
  O  O0  1  0.37607820  0.09605964  0.50000000  1
  O  O1  1  0.62392180  0.90394036  0.50000000  1
  O  O2  1  0.12392180  0.59605964  0.50000000  1
  O  O3  1  0.87607820  0.40394036  0.50000000  1
  O  O4  1  0.40394036  0.12392180  -0.00000000  1
  O  O5  1  0.59605964  0.87607820  0.00000000  1
  O  O6  1  0.09605964  0.62392180  -0.00000000  1
  O  O7  1  0.90394036  0.37607820  0.00000000  1
  O  O8  1  0.16528440  0.33471560  0.75000000  1
  O  O9  1  0.83471560  0.66528440  0.75000000  1
  O  O10  1  0.33471560  0.83471560  0.25000000  1
  O  O11  1  0.66528440  0.16528440  0.25000000  1
  O  O12  1  0.33471560  0.83471560  0.75000000  1
  O  O13  1  0.66528440  0.16528440  0.75000000  1
  O  O14  1  0.16528440  0.33471560  0.25000000  1
  O  O15  1  0.83471560  0.66528440  0.25000000  1
loop_
_geom_bond_atom_site_label_1
_geom_bond_atom_site_label_2
_geom_bond_distance
_geom_bond_site_symmetry_2
O0 Sn3 2.105101 1_555
O0 Sn1 2.105101 1_555
O0 Pb7 2.324498 1_555
O1 Sn1 2.105101 1_565
O1 Sn3 2.105101 1_565
O1 Pb6 2.324498 1_555
O2 Sn0 2.105101 1_555
O2 Sn2 2.105101 1_555
O2 Pb5 2.324498 1_555
O3 Sn0 2.105101 1_655
O3 Sn2 2.105101 1_655
O3 Pb4 2.324498 1_555
O4 Sn1 2.105101 1_555
O4 Sn3 2.105101 1_554
O4 Pb2 2.324498 1_555
O5 Sn3 2.105101 1_564
O5 Sn1 2.105101 1_565
O5 Pb3 2.324498 1_555
O6 Sn0 2.105101 1_554
O6 Sn2 2.105101 1_555
O6 Pb0 2.324498 1_555
O7 Sn2 2.105101 1_655
O7 Sn0 2.105101 1_654
O7 Pb1 2.324498 1_555
O8 Sn0 2.057439 1_555
O8 Pb7 2.214409 1_555
O8 Pb2 2.214409 1_556
O9 Sn0 2.057439 1_655
O9 Pb3 2.214409 1_556
O9 Pb6 2.214409 1_555
O10 Sn1 2.057439 1_565
O10 Pb5 2.214409 1_555
O10 Pb0 2.214409 1_555
O11 Sn1 2.057439 1_555
O11 Pb4 2.214409 1_555
O11 Pb1 2.214409 1_555
O12 Sn3 2.057439 1_565
O12 Pb5 2.214409 1_555
O12 Pb0 2.214409 1_556
O13 Sn3 2.057439 1_555
O13 Pb4 2.214409 1_555
O13 Pb1 2.214409 1_556
O14 Sn2 2.057439 1_555
O14 Pb2 2.214409 1_555
O14 Pb7 2.214409 1_555
O15 Sn2 2.057439 1_655
O15 Pb3 2.214409 1_555
O15 Pb6 2.214409 1_555
