# generated using pymatgen
data_HoCo5
_symmetry_space_group_name_H-M   'P 1'
_cell_length_a   4.90549110
_cell_length_b   4.90547264
_cell_length_c   3.91175478
_cell_angle_alpha   90.00000000
_cell_angle_beta   90.00000000
_cell_angle_gamma   119.99979446
_symmetry_Int_Tables_number   1
_chemical_formula_structural   HoCo5
_chemical_formula_sum   'Ho1 Co5'
_cell_volume   81.52043778
_cell_formula_units_Z   1
loop_
 _symmetry_equiv_pos_site_id
 _symmetry_equiv_pos_as_xyz
  1  'x, y, z'
loop_
 _atom_site_type_symbol
 _atom_site_label
 _atom_site_symmetry_multiplicity
 _atom_site_fract_x
 _atom_site_fract_y
 _atom_site_fract_z
 _atom_site_occupancy
  Ho  Ho0  1  0.00000000  0.00000000  0.00000000  1
  Co  Co0  1  0.33333500  0.66666700  -0.00000000  1
  Co  Co1  1  0.66666500  0.33333300  0.00000000  1
  Co  Co2  1  0.50000000  0.00000000  0.50000000  1
  Co  Co3  1  0.50000000  0.50000000  0.50000000  1
  Co  Co4  1  0.00000000  0.50000000  0.50000000  1
loop_
_geom_bond_atom_site_label_1
_geom_bond_atom_site_label_2
_geom_bond_distance
_geom_bond_site_symmetry_2
Co0 Co3 2.414694 1_555
Co0 Co3 2.414694 1_554
Co0 Co2 2.414698 1_565
Co0 Co2 2.414698 1_564
Co0 Co4 2.414706 1_555
Co0 Co4 2.414706 1_554
Co0 Ho0 2.832183 1_555
Co0 Ho0 2.832184 1_565
Co0 Ho0 2.832185 1_665
Co1 Co3 2.414694 1_554
Co1 Co3 2.414694 1_555
Co1 Co2 2.414698 1_554
Co1 Co2 2.414698 1_555
Co1 Co4 2.414706 1_655
Co1 Co4 2.414706 1_654
Co1 Ho0 2.832183 1_665
Co1 Ho0 2.832184 1_655
Co1 Ho0 2.832185 1_555
Co2 Co3 2.452736 1_555
Co2 Co3 2.452736 1_545
Co2 Co4 2.452749 1_655
Co2 Co4 2.452749 1_545
Co2 Ho0 3.137103 1_655
Co2 Ho0 3.137103 1_656
Co2 Ho0 3.137103 1_555
Co2 Ho0 3.137103 1_556
Co3 Co4 2.452746 1_655
Co3 Co4 2.452746 1_555
Co3 Ho0 3.137106 1_665
Co3 Ho0 3.137106 1_666
Co3 Ho0 3.137106 1_555
Co3 Ho0 3.137106 1_556
Co4 Ho0 3.137096 1_565
Co4 Ho0 3.137096 1_566
Co4 Ho0 3.137096 1_555
Co4 Ho0 3.137096 1_556
