# generated using pymatgen
data_Na7Sc2Nb2Si5PO24
_symmetry_space_group_name_H-M   'P 1'
_cell_length_a   9.14329469
_cell_length_b   9.14352239
_cell_length_c   22.68559788
_cell_angle_alpha   90.00951725
_cell_angle_beta   89.93174037
_cell_angle_gamma   119.98100162
_symmetry_Int_Tables_number   1
_chemical_formula_structural   Na7Sc2Nb2Si5PO24
_chemical_formula_sum   'Na21 Sc6 Nb6 Si15 P3 O72'
_cell_volume   1642.78171260
_cell_formula_units_Z   3
loop_
 _symmetry_equiv_pos_site_id
 _symmetry_equiv_pos_as_xyz
  1  'x, y, z'
loop_
 _atom_site_type_symbol
 _atom_site_label
 _atom_site_symmetry_multiplicity
 _atom_site_fract_x
 _atom_site_fract_y
 _atom_site_fract_z
 _atom_site_occupancy
  Na  Na0  1  0.64068587  0.00945621  0.24994243  1
  Na  Na1  1  0.37031622  0.36212175  0.24826258  1
  Na  Na2  1  0.99004906  0.62815121  0.24871221  1
  Na  Na3  1  0.63735618  0.62853491  0.74880335  1
  Na  Na4  1  0.99000309  0.36026046  0.74891935  1
  Na  Na5  1  0.37175606  0.01070181  0.74866029  1
  Na  Na6  1  0.30539440  0.34104416  0.58268310  1
  Na  Na7  1  0.03737155  0.69618421  0.58188815  1
  Na  Na8  1  0.65809264  0.96183866  0.58215774  1
  Na  Na9  1  0.30082418  0.96350948  0.08092389  1
  Na  Na10  1  0.03943786  0.34338584  0.08257924  1
  Na  Na11  1  0.97342583  0.67620372  0.91567667  1
  Na  Na12  1  0.32354516  0.29448467  0.91564588  1
  Na  Na13  1  0.32443722  0.02778295  0.41567572  1
  Na  Na14  1  0.70493211  0.67516454  0.41569902  1
  Na  Na15  1  0.99709016  0.00288354  0.49583576  1
  Na  Na16  1  0.99157519  0.99778130  0.99662406  1
  Na  Na17  1  0.66722256  0.32698043  0.83036489  1
  Na  Na18  1  0.67277639  0.33266722  0.33074596  1
  Na  Na19  1  0.33735650  0.66248413  0.16232677  1
  Na  Na20  1  0.33443285  0.66675062  0.66296240  1
  Sc  Sc0  1  0.99617029  0.00196565  0.35151123  1
  Sc  Sc1  1  0.99841460  0.00356945  0.85183194  1
  Sc  Sc2  1  0.66587219  0.33308786  0.68438980  1
  Sc  Sc3  1  0.66758913  0.33871997  0.18449093  1
  Sc  Sc4  1  0.33206331  0.66292486  0.01819041  1
  Sc  Sc5  1  0.33446704  0.67005163  0.51769325  1
  Nb  Nb0  1  0.99954520  0.99915982  0.64767934  1
  Nb  Nb1  1  0.00068525  0.99626918  0.14756990  1
  Nb  Nb2  1  0.66631065  0.33024448  0.98085048  1
  Nb  Nb3  1  0.67454981  0.33219508  0.48100543  1
  Nb  Nb4  1  0.32993090  0.66913394  0.31389165  1
  Nb  Nb5  1  0.33005610  0.66947259  0.81412649  1
  Si  Si0  1  0.29304903  0.00191614  0.25192538  1
  Si  Si1  1  0.70817262  0.70758721  0.25165181  1
  Si  Si2  1  0.99887374  0.29069927  0.25031880  1
  Si  Si3  1  0.29310654  0.29233994  0.75166494  1
  Si  Si4  1  0.99801888  0.70733444  0.75197884  1
  Si  Si5  1  0.70778933  0.00062613  0.75123229  1
  Si  Si6  1  0.96190366  0.33412001  0.58542855  1
  Si  Si7  1  0.37487719  0.04120100  0.58399213  1
  Si  Si8  1  0.66550440  0.62465011  0.58415139  1
  Si  Si9  1  0.95804784  0.62665727  0.08412873  1
  Si  Si10  1  0.37551315  0.33777944  0.08476645  1
  Si  Si11  1  0.03857652  0.37071382  0.91838043  1
  Si  Si12  1  0.33466843  0.95991298  0.91892449  1
  Si  Si13  1  0.62907135  0.96119444  0.41808780  1
  Si  Si14  1  0.03912472  0.66593613  0.41831398  1
  P  P0  1  0.66679214  0.04136145  0.08443474  1
  P  P1  1  0.62402168  0.66792241  0.91749739  1
  P  P2  1  0.33233926  0.37478108  0.41753417  1
  O  O0  1  0.20984415  0.03383045  0.30896839  1
  O  O1  1  0.82499706  0.78980130  0.30866902  1
  O  O2  1  0.96578031  0.16921880  0.30532570  1
  O  O3  1  0.20872882  0.17449541  0.80830401  1
  O  O4  1  0.96772578  0.79162859  0.80907589  1
  O  O5  1  0.83104268  0.03392686  0.80550042  1
  O  O6  1  0.79805822  0.96433014  0.69161235  1
  O  O7  1  0.16545167  0.20121182  0.69265710  1
  O  O8  1  0.03556968  0.83409245  0.69286455  1
  O  O9  1  0.80338310  0.83905997  0.19427733  1
  O  O10  1  0.03509960  0.20128067  0.19091859  1
  O  O11  1  0.16543127  0.96409822  0.19304474  1
  O  O12  1  0.87819424  0.36812576  0.64212011  1
  O  O13  1  0.49034416  0.12349636  0.64144917  1
  O  O14  1  0.63355944  0.51002577  0.64178314  1
  O  O15  1  0.87702812  0.50832525  0.14121360  1
  O  O16  1  0.63747328  0.12067714  0.13942843  1
  O  O17  1  0.48383546  0.35545631  0.14260877  1
  O  O18  1  0.46829704  0.30033941  0.02635224  1
  O  O19  1  0.83393626  0.52861600  0.02558892  1
  O  O20  1  0.69788870  0.16418731  0.02973379  1
  O  O21  1  0.46634138  0.16847518  0.52551128  1
  O  O22  1  0.70084757  0.53257762  0.52570008  1
  O  O23  1  0.82969927  0.29849990  0.52781506  1
  O  O24  1  0.53871361  0.69093446  0.97073533  1
  O  O25  1  0.15687782  0.45995987  0.97474787  1
  O  O26  1  0.30389305  0.84265226  0.97540172  1
  O  O27  1  0.54148190  0.84397828  0.47501420  1
  O  O28  1  0.30938150  0.45680565  0.47266963  1
  O  O29  1  0.15630202  0.69698254  0.47498182  1
  O  O30  1  0.13443222  0.63618331  0.35912243  1
  O  O31  1  0.49874732  0.86426851  0.35957977  1
  O  O32  1  0.36312594  0.49290068  0.36189921  1
  O  O33  1  0.13474347  0.50104194  0.85968168  1
  O  O34  1  0.36425851  0.86521450  0.85930729  1
  O  O35  1  0.50819900  0.63444395  0.86096585  1
  O  O36  1  0.02057657  0.83236337  0.41133907  1
  O  O37  1  0.81029307  0.97437656  0.41142057  1
  O  O38  1  0.18264932  0.19563728  0.41103907  1
  O  O39  1  0.02579496  0.18972516  0.91153134  1
  O  O40  1  0.16881044  0.97958124  0.91146769  1
  O  O41  1  0.80442453  0.81566967  0.91092726  1
  O  O42  1  0.97108750  0.15733451  0.58883346  1
  O  O43  1  0.18661188  0.02867995  0.58905445  1
  O  O44  1  0.84174301  0.81273220  0.58903513  1
  O  O45  1  0.97668900  0.81739367  0.08934906  1
  O  O46  1  0.83450690  0.03552371  0.08814061  1
  O  O47  1  0.18535026  0.15850342  0.08905441  1
  O  O48  1  0.68250530  0.16256259  0.74449341  1
  O  O49  1  0.47990344  0.31623723  0.74470213  1
  O  O50  1  0.83736975  0.51986754  0.74483799  1
  O  O51  1  0.68401826  0.52036739  0.24444307  1
  O  O52  1  0.83617840  0.31534008  0.24359788  1
  O  O53  1  0.48136396  0.16041323  0.24366144  1
  O  O54  1  0.63513213  0.49921876  0.92240246  1
  O  O55  1  0.85471264  0.36729067  0.92337510  1
  O  O56  1  0.50548880  0.15198266  0.92363615  1
  O  O57  1  0.62995291  0.14402494  0.42248277  1
  O  O58  1  0.50004129  0.36479097  0.42122483  1
  O  O59  1  0.84721969  0.49517142  0.42261488  1
  O  O60  1  0.34333428  0.49487133  0.07833611  1
  O  O61  1  0.14730220  0.65306567  0.07751010  1
  O  O62  1  0.50942736  0.86915357  0.07582209  1
  O  O63  1  0.35027364  0.85338372  0.57773490  1
  O  O64  1  0.50201777  0.64797411  0.57736475  1
  O  O65  1  0.14810865  0.49571356  0.57698189  1
  O  O66  1  0.30407074  0.82409166  0.25610922  1
  O  O67  1  0.51918427  0.69298338  0.25701676  1
  O  O68  1  0.17563796  0.47879227  0.25662003  1
  O  O69  1  0.30661016  0.48090266  0.75701129  1
  O  O70  1  0.17578273  0.69578364  0.75623597  1
  O  O71  1  0.52059361  0.82348696  0.75656360  1
loop_
_geom_bond_atom_site_label_1
_geom_bond_atom_site_label_2
_geom_bond_distance
_geom_bond_site_symmetry_2
Na0 O52 2.457895 1_555
Na0 O53 2.461224 1_555
Na0 O67 2.533810 1_545
Na0 O66 2.674035 1_545
Na0 O16 2.711339 1_555
Na0 O31 2.811447 1_545
Na0 O2 2.866444 1_555
Na0 O9 2.923395 1_545
Na1 O51 2.485907 1_555
Na1 O68 2.497854 1_555
Na1 O53 2.512884 1_555
Na1 O17 2.623552 1_555
Na1 O67 2.632348 1_555
Na1 O32 2.856046 1_555
Na1 O0 2.941867 1_555
Na1 O10 2.958576 1_555
Na2 O51 2.460638 1_555
Na2 O52 2.480349 1_555
Na2 O66 2.518273 1_655
Na2 O15 2.662511 1_555
Na2 O68 2.663371 1_655
Na2 O30 2.816507 1_655
Na2 O1 2.921612 1_555
Na2 O11 2.945395 1_655
Na3 O49 2.475238 1_555
Na3 O50 2.481009 1_555
Na3 O71 2.499925 1_555
Na3 O69 2.630776 1_555
Na3 O14 2.651679 1_555
Na3 O35 2.815742 1_555
Na3 O4 2.953810 1_555
Na3 O6 2.959270 1_555
Na4 O48 2.470567 1_555
Na4 O50 2.474226 1_555
Na4 O69 2.537780 1_655
Na4 O12 2.645693 1_555
Na4 O70 2.667773 1_655
Na4 O33 2.833087 1_655
Na4 O5 2.885452 1_555
Na4 O7 2.939964 1_655
Na5 O49 2.455492 1_555
Na5 O48 2.462977 1_555
Na5 O70 2.524754 1_545
Na5 O13 2.651718 1_555
Na5 O71 2.672686 1_545
Na5 O34 2.825674 1_545
Na5 O3 2.919120 1_555
Na5 O8 2.950607 1_545
Na6 O64 2.465712 1_555
Na6 O65 2.473471 1_555
Na6 O43 2.501482 1_555
Na6 O42 2.655525 1_455
Na6 O28 2.704146 1_555
Na6 O7 2.802591 1_555
Na6 O14 2.926328 1_555
Na6 O21 2.941578 1_555
Na7 O63 2.479817 1_555
Na7 O65 2.500398 1_555
Na7 O44 2.503121 1_455
Na7 O43 2.642991 1_565
Na7 O29 2.655198 1_555
Na7 O8 2.819230 1_555
Na7 O12 2.935369 1_455
Na7 O22 2.956109 1_455
Na8 O63 2.475074 1_555
Na8 O64 2.488260 1_555
Na8 O42 2.509270 1_565
Na8 O44 2.644123 1_555
Na8 O27 2.657629 1_555
Na8 O6 2.789658 1_555
Na8 O13 2.933721 1_565
Na8 O23 2.937161 1_565
Na9 O62 2.457564 1_555
Na9 O61 2.460028 1_555
Na9 O47 2.491664 1_565
Na9 O45 2.578038 1_455
Na9 O26 2.642411 1_554
Na9 O11 2.828641 1_555
Na9 O18 2.940423 1_565
Na9 O16 2.981521 1_565
Na10 O60 2.408615 1_555
Na10 O46 2.485728 1_455
Na10 O61 2.492488 1_555
Na10 O47 2.629395 1_555
Na10 O25 2.669057 1_554
Na10 O10 2.771224 1_555
Na10 O15 2.912339 1_455
Na10 O20 2.961190 1_455
Na11 O40 2.437681 1_655
Na11 O41 2.448531 1_555
Na11 O55 2.474344 1_555
Na11 O4 2.649693 1_555
Na11 O54 2.684361 1_555
Na11 O19 2.817498 1_556
Na11 O26 2.948720 1_655
Na11 O33 2.951285 1_655
Na12 O39 2.394188 1_555
Na12 O40 2.496009 1_545
Na12 O54 2.512984 1_555
Na12 O56 2.581697 1_555
Na12 O3 2.662639 1_555
Na12 O18 2.828239 1_556
Na12 O25 2.950924 1_555
Na12 O35 2.966941 1_555
Na13 O36 2.441400 1_545
Na13 O57 2.447525 1_555
Na13 O38 2.456873 1_555
Na13 O0 2.650421 1_555
Na13 O58 2.672958 1_555
Na13 O21 2.808080 1_555
Na13 O29 2.944711 1_545
Na13 O31 2.961563 1_545
Na14 O37 2.405857 1_555
Na14 O36 2.501688 1_655
Na14 O58 2.503022 1_555
Na14 O59 2.562454 1_555
Na14 O1 2.653993 1_555
Na14 O22 2.807235 1_555
Na14 O27 2.954088 1_555
Na14 O32 2.972725 1_555
Na15 O37 2.492983 1_545
Na15 O36 2.546385 1_645
Na15 O38 2.586521 1_655
Na15 O42 2.614413 1_555
Na15 O44 2.652646 1_545
Na15 O43 2.670306 1_655
Na16 O39 2.520975 1_665
Na16 O41 2.576706 1_555
Na16 O40 2.578304 1_655
Na16 O45 2.634366 1_556
Na16 O46 2.641919 1_566
Na16 O47 2.664781 1_666
Na17 O48 2.506556 1_555
Na17 O50 2.558712 1_555
Na17 O49 2.561097 1_555
Na17 O56 2.617829 1_555
Na17 O55 2.627459 1_555
Na17 O54 2.717535 1_555
Na18 O52 2.528876 1_555
Na18 O51 2.571670 1_555
Na18 O53 2.588204 1_555
Na18 O59 2.594912 1_555
Na18 O57 2.604555 1_555
Na18 O58 2.692474 1_555
Na19 O60 2.462667 1_555
Na19 O61 2.566646 1_555
Na19 O62 2.630547 1_555
Na19 O67 2.645935 1_555
Na19 O68 2.663591 1_555
Na19 O66 2.692449 1_555
Na20 O64 2.530570 1_555
Na20 O63 2.534690 1_555
Na20 O65 2.548870 1_555
Na20 O70 2.651290 1_555
Na20 O71 2.651327 1_555
Na20 O69 2.659376 1_555
Nb0 O6 1.974335 1_555
Nb0 O8 1.983778 1_655
Nb0 O7 1.989350 1_665
Nb0 O43 2.073736 1_665
Nb0 O44 2.074398 1_555
Nb0 O42 2.078240 1_565
Nb1 O9 1.961545 1_455
Nb1 O11 1.966322 1_555
Nb1 O10 1.997635 1_565
Nb1 O45 2.027054 1_455
Nb1 O47 2.074988 1_565
Nb1 O46 2.192066 1_465
Nb2 O19 1.973258 1_556
Nb2 O18 1.979657 1_556
Nb2 O20 2.014439 1_556
Nb2 O56 2.027818 1_555
Nb2 O55 2.047883 1_555
Nb2 O54 2.160605 1_555
Nb3 O23 1.917139 1_555
Nb3 O22 2.000623 1_555
Nb3 O21 2.008029 1_555
Nb3 O59 2.027845 1_555
Nb3 O57 2.046573 1_555
Nb3 O58 2.225858 1_555
Nb4 O30 1.948406 1_555
Nb4 O31 1.972554 1_555
Nb4 O66 2.029248 1_555
Nb4 O68 2.063243 1_555
Nb4 O67 2.079472 1_555
Nb4 O32 2.089251 1_555
Nb5 O34 1.947403 1_555
Nb5 O33 1.968842 1_555
Nb5 O70 2.028782 1_555
Nb5 O71 2.065593 1_555
Nb5 O69 2.080416 1_555
Nb5 O35 2.100074 1_555
O0 Si0 1.599343 1_555
O0 Sc0 2.063956 1_455
O1 Si1 1.606110 1_555
O1 Sc0 2.031256 1_565
O2 Si2 1.595671 1_555
O2 Sc0 1.984843 1_555
O3 Si3 1.604513 1_555
O3 Sc1 2.026769 1_455
O4 Si4 1.600215 1_555
O4 Sc1 2.057062 1_565
O5 Si5 1.593289 1_555
O5 Sc1 1.988001 1_555
O6 Si5 1.700468 1_565
O7 Si3 1.697026 1_555
O8 Si4 1.691540 1_455
O9 Si1 1.687886 1_555
O10 Si2 1.692111 1_455
O11 Si0 1.692814 1_565
O12 Si6 1.603701 1_555
O12 Sc2 2.040826 1_555
O13 Si7 1.608969 1_555
O13 Sc2 2.031376 1_555
O14 Si8 1.608317 1_555
O14 Sc2 2.029241 1_555
O15 Si9 1.610464 1_555
O15 Sc3 2.015920 1_555
O16 P0 1.532134 1_555
O16 Sc3 2.132358 1_555
O17 Si10 1.603725 1_555
O17 Sc3 2.002434 1_555
O18 Si10 1.697164 1_555
O19 Si9 1.685667 1_555
O20 P0 1.600778 1_555
O21 Si7 1.684911 1_555
O22 Si8 1.685810 1_555
O23 Si6 1.698714 1_555
O24 P1 1.507643 1_555
O24 Sc4 2.075148 1_556
O25 Si11 1.609917 1_555
O25 Sc4 2.003308 1_556
O26 Si12 1.602603 1_555
O26 Sc4 2.033053 1_556
O27 Si13 1.611817 1_555
O27 Sc5 2.009206 1_555
O28 P2 1.525585 1_555
O28 Sc5 2.109638 1_555
O29 Si14 1.606323 1_555
O29 Sc5 2.014424 1_555
O30 Si14 1.694258 1_555
O31 Si13 1.707325 1_555
O32 P2 1.591977 1_555
O33 Si11 1.707900 1_555
O34 Si12 1.698510 1_555
O35 P1 1.593421 1_555
O36 Si14 1.620966 1_555
O36 Sc0 2.154998 1_465
O37 Si13 1.607091 1_555
O37 Sc0 2.089322 1_565
O38 P2 1.528992 1_555
O38 Sc0 2.203122 1_455
O39 Si11 1.607196 1_555
O39 Sc1 2.090029 1_455
O40 Si12 1.622923 1_555
O40 Sc1 2.156924 1_465
O41 P1 1.529848 1_555
O41 Sc1 2.201031 1_565
O42 Si6 1.661811 1_555
O43 Si7 1.670918 1_555
O44 Si8 1.672466 1_555
O45 Si9 1.669587 1_555
O46 P0 1.563185 1_555
O47 Si10 1.694337 1_555
O48 Si5 1.616001 1_555
O48 Sc2 2.133430 1_555
O49 Si3 1.617448 1_555
O49 Sc2 2.125961 1_555
O50 Si4 1.614341 1_555
O50 Sc2 2.140993 1_555
O51 Si1 1.621139 1_555
O51 Sc3 2.093148 1_555
O52 Si2 1.619380 1_555
O52 Sc3 2.134036 1_555
O53 Si0 1.614158 1_555
O53 Sc3 2.140082 1_555
O54 P1 1.599639 1_555
O55 Si11 1.669415 1_655
O56 Si12 1.671535 1_545
O57 Si13 1.670663 1_545
O58 P2 1.583289 1_555
O59 Si14 1.669661 1_655
O60 Si10 1.610451 1_555
O60 Sc4 2.095890 1_555
O61 Si9 1.630019 1_455
O61 Sc4 2.124920 1_555
O62 P0 1.524480 1_565
O62 Sc4 2.200668 1_555
O63 Si7 1.622901 1_565
O63 Sc5 2.108013 1_555
O64 Si8 1.619504 1_555
O64 Sc5 2.129374 1_555
O65 Si6 1.613581 1_455
O65 Sc5 2.129337 1_555
O66 Si0 1.681275 1_565
O67 Si1 1.669564 1_555
O68 Si2 1.677153 1_455
O69 Si3 1.670265 1_555
O70 Si4 1.683501 1_455
O71 Si5 1.672260 1_565
