# generated using pymatgen
data_Na9CaNb5(SiO4)9
_symmetry_space_group_name_H-M   'P 1'
_cell_length_a   15.89352996
_cell_length_b   27.45066771
_cell_length_c   9.12011674
_cell_angle_alpha   89.87943227
_cell_angle_beta   125.07653198
_cell_angle_gamma   90.00605301
_symmetry_Int_Tables_number   1
_chemical_formula_structural   Na9CaNb5(SiO4)9
_chemical_formula_sum   'Na36 Ca4 Nb20 Si36 O144'
_cell_volume   3256.34243046
_cell_formula_units_Z   4
loop_
 _symmetry_equiv_pos_site_id
 _symmetry_equiv_pos_as_xyz
  1  'x, y, z'
loop_
 _atom_site_type_symbol
 _atom_site_label
 _atom_site_symmetry_multiplicity
 _atom_site_fract_x
 _atom_site_fract_y
 _atom_site_fract_z
 _atom_site_occupancy
  Na  Na0  1  0.25394749  0.25328264  0.01140835  1
  Na  Na1  1  0.25650462  0.58772636  0.01444473  1
  Na  Na2  1  0.24886420  0.91572685  0.99837463  1
  Na  Na3  1  0.74807622  0.25430345  0.50382241  1
  Na  Na4  1  0.74388665  0.57918593  0.49655253  1
  Na  Na5  1  0.75166492  0.91561754  0.50581945  1
  Na  Na6  1  0.75650462  0.08772636  0.01444473  1
  Na  Na7  1  0.74886420  0.41572685  0.99837463  1
  Na  Na8  1  0.75394749  0.75328264  0.01140835  1
  Na  Na9  1  0.24388665  0.07918593  0.49655253  1
  Na  Na10  1  0.25166492  0.41561754  0.50581945  1
  Na  Na11  1  0.24807622  0.75430345  0.50382241  1
  Na  Na12  1  0.50182528  0.03101711  0.75336400  1
  Na  Na13  1  0.49326047  0.35919157  0.73189690  1
  Na  Na14  1  0.49276760  0.69334001  0.73602742  1
  Na  Na15  1  0.50123101  0.29821365  0.26765397  1
  Na  Na16  1  0.49927293  0.63242453  0.26868000  1
  Na  Na17  1  0.49851404  0.96960694  0.25274465  1
  Na  Na18  1  0.99276760  0.19334001  0.73602742  1
  Na  Na19  1  0.00182528  0.53101711  0.75336400  1
  Na  Na20  1  0.99326047  0.85919157  0.73189690  1
  Na  Na21  1  0.99927293  0.13242453  0.26868000  1
  Na  Na22  1  0.99851404  0.46960694  0.25274465  1
  Na  Na23  1  0.00123101  0.79821365  0.26765397  1
  Na  Na24  1  0.81271106  0.64741246  0.22298036  1
  Na  Na25  1  0.81918303  0.98029239  0.22685314  1
  Na  Na26  1  0.19303659  0.30435551  0.29669561  1
  Na  Na27  1  0.19764530  0.64093965  0.29104710  1
  Na  Na28  1  0.81935844  0.02758173  0.69047429  1
  Na  Na29  1  0.81738602  0.69415741  0.68905135  1
  Na  Na30  1  0.31271106  0.14741246  0.22298036  1
  Na  Na31  1  0.31918303  0.48029239  0.22685314  1
  Na  Na32  1  0.69764530  0.14093965  0.29104710  1
  Na  Na33  1  0.69303659  0.80435551  0.29669561  1
  Na  Na34  1  0.31738602  0.19415741  0.68905135  1
  Na  Na35  1  0.31935844  0.52758173  0.69047429  1
  Ca  Ca0  1  0.90008179  0.08259802  0.43800552  1
  Ca  Ca1  1  0.89989074  0.74856605  0.43882246  1
  Ca  Ca2  1  0.39989074  0.24856605  0.43882246  1
  Ca  Ca3  1  0.40008179  0.58259802  0.43800552  1
  Nb  Nb0  1  0.10552883  0.25044106  0.57232905  1
  Nb  Nb1  1  0.10673174  0.58460402  0.57170871  1
  Nb  Nb2  1  0.10735748  0.91728470  0.56943287  1
  Nb  Nb3  1  0.89239356  0.25295226  0.93569335  1
  Nb  Nb4  1  0.89459688  0.58074723  0.93545289  1
  Nb  Nb5  1  0.89759131  0.91696769  0.93803061  1
  Nb  Nb6  1  0.89188941  0.41528912  0.43265204  1
  Nb  Nb7  1  0.10164939  0.08115611  0.05855341  1
  Nb  Nb8  1  0.10448820  0.41544230  0.06584417  1
  Nb  Nb9  1  0.10707580  0.75066783  0.05981255  1
  Nb  Nb10  1  0.60673174  0.08460402  0.57170871  1
  Nb  Nb11  1  0.60735748  0.41728470  0.56943287  1
  Nb  Nb12  1  0.60552883  0.75044106  0.57232905  1
  Nb  Nb13  1  0.39459688  0.08074723  0.93545289  1
  Nb  Nb14  1  0.39759131  0.41696769  0.93803061  1
  Nb  Nb15  1  0.39239356  0.75295226  0.93569335  1
  Nb  Nb16  1  0.39188941  0.91528912  0.43265204  1
  Nb  Nb17  1  0.60707580  0.25066783  0.05981255  1
  Nb  Nb18  1  0.60164939  0.58115611  0.05855341  1
  Nb  Nb19  1  0.60448820  0.91544230  0.06584417  1
  Si  Si0  1  0.99971172  0.31981030  0.74999934  1
  Si  Si1  1  0.00204799  0.65038459  0.75179070  1
  Si  Si2  1  -0.00001945  0.98324187  0.74312765  1
  Si  Si3  1  0.00463928  0.01334740  0.24612678  1
  Si  Si4  1  0.00105101  0.34711050  0.25332618  1
  Si  Si5  1  0.00295123  0.67949017  0.24367009  1
  Si  Si6  1  0.50204799  0.15038459  0.75179070  1
  Si  Si7  1  0.49998055  0.48324187  0.74312765  1
  Si  Si8  1  0.49971172  0.81981030  0.74999934  1
  Si  Si9  1  0.50295123  0.17949017  0.24367009  1
  Si  Si10  1  0.50463928  0.51334740  0.24612678  1
  Si  Si11  1  0.50105101  0.84711050  0.25332618  1
  Si  Si12  1  0.35089828  0.29886733  0.75547799  1
  Si  Si13  1  0.34921448  0.63349858  0.75261139  1
  Si  Si14  1  0.35338253  0.96348445  0.75019984  1
  Si  Si15  1  0.64811488  0.30017443  0.73975097  1
  Si  Si16  1  0.65012797  0.63258520  0.74793614  1
  Si  Si17  1  0.64589523  0.96332818  0.74497072  1
  Si  Si18  1  0.64356899  0.03260345  0.24624071  1
  Si  Si19  1  0.64504145  0.36800109  0.25046684  1
  Si  Si20  1  0.64046887  0.69990777  0.24180829  1
  Si  Si21  1  0.35335837  0.03535312  0.25487000  1
  Si  Si22  1  0.35363189  0.37030500  0.25227232  1
  Si  Si23  1  0.35198372  0.70547160  0.24953166  1
  Si  Si24  1  0.84921448  0.13349858  0.75261139  1
  Si  Si25  1  0.85338253  0.46348445  0.75019984  1
  Si  Si26  1  0.85089828  0.79886733  0.75547799  1
  Si  Si27  1  0.15012797  0.13258520  0.74793614  1
  Si  Si28  1  0.14589523  0.46332818  0.74497072  1
  Si  Si29  1  0.14811488  0.80017443  0.73975097  1
  Si  Si30  1  0.14046887  0.19990777  0.24180829  1
  Si  Si31  1  0.14356899  0.53260345  0.24624071  1
  Si  Si32  1  0.14504145  0.86800109  0.25046684  1
  Si  Si33  1  0.85198372  0.20547160  0.24953166  1
  Si  Si34  1  0.85335837  0.53535312  0.25487000  1
  Si  Si35  1  0.85363189  0.87030500  0.25227232  1
  O  O0  1  0.15434558  0.19345320  0.74910926  1
  O  O1  1  0.14594518  0.52326483  0.73197304  1
  O  O2  1  0.15229979  0.86044006  0.74965906  1
  O  O3  1  0.84759124  0.19228615  0.77908793  1
  O  O4  1  0.84903794  0.52307937  0.75627377  1
  O  O5  1  0.84935500  0.85765722  0.78342181  1
  O  O6  1  0.84038089  0.14753696  0.23427072  1
  O  O7  1  0.85194875  0.47569342  0.26585713  1
  O  O8  1  0.84006329  0.81281349  0.23179090  1
  O  O9  1  0.14321728  0.13978734  0.23668469  1
  O  O10  1  0.14825638  0.47224171  0.24553859  1
  O  O11  1  0.14531853  0.80824723  0.23635386  1
  O  O12  1  0.64594518  0.02326483  0.73197304  1
  O  O13  1  0.65229979  0.36044006  0.74965906  1
  O  O14  1  0.65434558  0.69345320  0.74910926  1
  O  O15  1  0.34903794  0.02307937  0.75627377  1
  O  O16  1  0.34935500  0.35765722  0.78342181  1
  O  O17  1  0.34759124  0.69228615  0.77908793  1
  O  O18  1  0.34006329  0.31281349  0.23179090  1
  O  O19  1  0.34038089  0.64753696  0.23427072  1
  O  O20  1  0.35194875  0.97569342  0.26585713  1
  O  O21  1  0.64531853  0.30824723  0.23635386  1
  O  O22  1  0.64321728  0.63978734  0.23668469  1
  O  O23  1  0.64825638  0.97224171  0.24553859  1
  O  O24  1  0.41643450  0.17727944  0.57067724  1
  O  O25  1  0.41563521  0.51079681  0.56253705  1
  O  O26  1  0.43489792  0.85720963  0.57829035  1
  O  O27  1  0.56768173  0.18889548  0.92306741  1
  O  O28  1  0.56277331  0.52335417  0.91331438  1
  O  O29  1  0.56795243  0.85567250  0.92799425  1
  O  O30  1  0.56870756  0.14218763  0.42360856  1
  O  O31  1  0.56591951  0.47634846  0.42305226  1
  O  O32  1  0.57051245  0.80987613  0.42487329  1
  O  O33  1  0.44811402  0.13873668  0.08147109  1
  O  O34  1  0.44653061  0.47683548  0.07181670  1
  O  O35  1  0.43878812  0.81358773  0.07519308  1
  O  O36  1  0.91563521  0.01079681  0.56253705  1
  O  O37  1  0.93489792  0.35720963  0.57829035  1
  O  O38  1  0.91643450  0.67727944  0.57067724  1
  O  O39  1  0.06277331  0.02335417  0.91331438  1
  O  O40  1  0.06795243  0.35567250  0.92799425  1
  O  O41  1  0.06768173  0.68889548  0.92306741  1
  O  O42  1  0.07051245  0.30987613  0.42487329  1
  O  O43  1  0.06870756  0.64218763  0.42360856  1
  O  O44  1  0.06591951  0.97634846  0.42305226  1
  O  O45  1  0.93878812  0.31358773  0.07519308  1
  O  O46  1  0.94811402  0.63873668  0.08147109  1
  O  O47  1  0.94653061  0.97683548  0.07181670  1
  O  O48  1  0.25666379  0.27067610  0.74654059  1
  O  O49  1  0.25696835  0.60352091  0.74731093  1
  O  O50  1  0.25625937  0.93874036  0.73484670  1
  O  O51  1  0.75275661  0.27863092  0.77067267  1
  O  O52  1  0.75698920  0.61264870  0.77759011  1
  O  O53  1  0.74696176  0.94367496  0.75787043  1
  O  O54  1  0.72693497  0.05828283  0.22799051  1
  O  O55  1  0.74552582  0.39271111  0.27036655  1
  O  O56  1  0.72834815  0.72454263  0.23247195  1
  O  O57  1  0.25764444  0.06341486  0.23786629  1
  O  O58  1  0.25622732  0.39710346  0.24150107  1
  O  O59  1  0.25502744  0.73064266  0.24088493  1
  O  O60  1  0.75696835  0.10352091  0.74731093  1
  O  O61  1  0.75625937  0.43874036  0.73484670  1
  O  O62  1  0.75666379  0.77067610  0.74654059  1
  O  O63  1  0.25698920  0.11264870  0.77759011  1
  O  O64  1  0.24696176  0.44367496  0.75787043  1
  O  O65  1  0.25275661  0.77863092  0.77067267  1
  O  O66  1  0.22834815  0.22454263  0.23247195  1
  O  O67  1  0.22693497  0.55828283  0.22799051  1
  O  O68  1  0.24552582  0.89271111  0.27036655  1
  O  O69  1  0.75502744  0.23064266  0.24088493  1
  O  O70  1  0.75764444  0.56341486  0.23786629  1
  O  O71  1  0.75622732  0.89710346  0.24150107  1
  O  O72  1  0.34341603  0.29271449  0.57409524  1
  O  O73  1  0.34182262  0.62556552  0.57231240  1
  O  O74  1  0.36243671  0.95145238  0.58274448  1
  O  O75  1  0.63675218  0.28441751  0.90799521  1
  O  O76  1  0.64487770  0.61928939  0.92247379  1
  O  O77  1  0.64385316  0.95186837  0.92310905  1
  O  O78  1  0.64693585  0.04681268  0.42771209  1
  O  O79  1  0.63906448  0.38077513  0.42105146  1
  O  O80  1  0.64505920  0.71421518  0.42586276  1
  O  O81  1  0.35550259  0.04803110  0.08091414  1
  O  O82  1  0.35785235  0.39261398  0.08876193  1
  O  O83  1  0.35634558  0.72548102  0.08488500  1
  O  O84  1  0.84182262  0.12556552  0.57231240  1
  O  O85  1  0.86243671  0.45145238  0.58274448  1
  O  O86  1  0.84341603  0.79271449  0.57409524  1
  O  O87  1  0.14487770  0.11928939  0.92247379  1
  O  O88  1  0.14385316  0.45186837  0.92310905  1
  O  O89  1  0.13675218  0.78441751  0.90799521  1
  O  O90  1  0.14505920  0.21421518  0.42586276  1
  O  O91  1  0.14693585  0.54681268  0.42771209  1
  O  O92  1  0.13906448  0.88077513  0.42105146  1
  O  O93  1  0.85634558  0.22548102  0.08488500  1
  O  O94  1  0.85550259  0.54803110  0.08091414  1
  O  O95  1  0.85785235  0.89261398  0.08876193  1
  O  O96  1  0.46133622  0.27491471  0.92796441  1
  O  O97  1  0.46041929  0.60851364  0.92328185  1
  O  O98  1  0.46313287  0.94273509  0.93110098  1
  O  O99  1  0.55188112  0.28195797  0.55270707  1
  O  O100  1  0.55446009  0.61427846  0.56058442  1
  O  O101  1  0.53772418  0.94228498  0.56937695  1
  O  O102  1  0.52791667  0.04704078  0.07486948  1
  O  O103  1  0.53805148  0.38781419  0.07032763  1
  O  O104  1  0.52936134  0.72100278  0.07360124  1
  O  O105  1  0.46227133  0.05704316  0.43200775  1
  O  O106  1  0.46152504  0.39092800  0.43640048  1
  O  O107  1  0.46362109  0.72397610  0.43463457  1
  O  O108  1  0.96041929  0.10851364  0.92328185  1
  O  O109  1  0.96313287  0.44273509  0.93110098  1
  O  O110  1  0.96133622  0.77491471  0.92796441  1
  O  O111  1  0.05446009  0.11427846  0.56058442  1
  O  O112  1  0.03772418  0.44228498  0.56937695  1
  O  O113  1  0.05188112  0.78195797  0.55270707  1
  O  O114  1  0.02936134  0.22100278  0.07360124  1
  O  O115  1  0.02791667  0.54704078  0.07486948  1
  O  O116  1  0.03805148  0.88781419  0.07032763  1
  O  O117  1  0.96362109  0.22397610  0.43463457  1
  O  O118  1  0.96227133  0.55704316  0.43200775  1
  O  O119  1  0.96152504  0.89092800  0.43640048  1
  O  O120  1  0.07857269  0.28548180  0.73414484  1
  O  O121  1  0.08423038  0.61533841  0.74443892  1
  O  O122  1  0.08620933  0.94950478  0.74723707  1
  O  O123  1  0.92300502  0.28322541  0.76047967  1
  O  O124  1  0.93559764  0.61100483  0.78590437  1
  O  O125  1  0.92840745  0.94583790  0.77193911  1
  O  O126  1  0.91561020  0.04589432  0.22816988  1
  O  O127  1  0.92409845  0.38404592  0.26498552  1
  O  O128  1  0.91357018  0.71097676  0.22652649  1
  O  O129  1  0.08835135  0.04736642  0.24097960  1
  O  O130  1  0.08496534  0.38047717  0.24402118  1
  O  O131  1  0.08926889  0.71185786  0.24216365  1
  O  O132  1  0.58423038  0.11533841  0.74443892  1
  O  O133  1  0.58620933  0.44950478  0.74723707  1
  O  O134  1  0.57857269  0.78548180  0.73414484  1
  O  O135  1  0.43559764  0.11100483  0.78590437  1
  O  O136  1  0.42840745  0.44583790  0.77193911  1
  O  O137  1  0.42300502  0.78322541  0.76047967  1
  O  O138  1  0.41357018  0.21097676  0.22652649  1
  O  O139  1  0.41561020  0.54589432  0.22816988  1
  O  O140  1  0.42409845  0.88404592  0.26498552  1
  O  O141  1  0.58926889  0.21185786  0.24216365  1
  O  O142  1  0.58835135  0.54736642  0.24097960  1
  O  O143  1  0.58496534  0.88047717  0.24402118  1
loop_
_geom_bond_atom_site_label_1
_geom_bond_atom_site_label_2
_geom_bond_distance
_geom_bond_site_symmetry_2
Na0 O18 2.331335 1_555
Na0 O66 2.405981 1_555
Na0 O138 2.429894 1_555
Na0 O48 2.485977 1_554
Na0 O0 2.566994 1_554
Na0 O120 2.614369 1_554
Na1 O19 2.331047 1_555
Na1 O67 2.390063 1_555
Na1 O139 2.416327 1_555
Na1 O49 2.477851 1_554
Na1 O121 2.525573 1_554
Na1 O1 2.769697 1_554
Na2 O2 2.411805 1_555
Na2 O122 2.444383 1_555
Na2 O50 2.550986 1_555
Na2 O140 2.575580 1_556
Na2 O68 2.588440 1_556
Na2 O20 2.601480 1_556
Na3 O51 2.484587 1_555
Na3 O21 2.493370 1_555
Na3 O123 2.523246 1_555
Na3 O69 2.548653 1_555
Na3 O141 2.551727 1_555
Na3 O3 2.668550 1_555
Na4 O142 2.385872 1_555
Na4 O4 2.492223 1_555
Na4 O70 2.529530 1_555
Na4 O22 2.563208 1_555
Na4 O52 2.617825 1_555
Na4 O124 2.788988 1_555
Na5 O53 2.467371 1_555
Na5 O23 2.500625 1_555
Na5 O71 2.506129 1_555
Na5 O143 2.527724 1_555
Na5 O125 2.577142 1_555
Na5 O5 2.611048 1_555
Na6 O6 2.331047 1_555
Na6 O54 2.390063 1_555
Na6 O126 2.416327 1_555
Na6 O60 2.477851 1_554
Na6 O132 2.525573 1_554
Na6 O12 2.769697 1_554
Na7 O13 2.411805 1_555
Na7 O133 2.444383 1_555
Na7 O61 2.550986 1_555
Na7 O127 2.575580 1_556
Na7 O55 2.588440 1_556
Na7 O7 2.601480 1_556
Na8 O8 2.331335 1_555
Na8 O56 2.405981 1_555
Na8 O128 2.429894 1_555
Na8 O62 2.485977 1_554
Na8 O14 2.566994 1_554
Na8 O134 2.614369 1_554
Na9 O129 2.385872 1_555
Na9 O15 2.492223 1_555
Na9 O57 2.529530 1_555
Na9 O9 2.563208 1_555
Na9 O63 2.617825 1_555
Na9 O135 2.788988 1_555
Na10 O64 2.467371 1_555
Na10 O10 2.500625 1_555
Na10 O58 2.506129 1_555
Na10 O130 2.527724 1_555
Na10 O136 2.577142 1_555
Na10 O16 2.611048 1_555
Na11 O65 2.484587 1_555
Na11 O11 2.493370 1_555
Na11 O137 2.523246 1_555
Na11 O59 2.548653 1_555
Na11 O131 2.551727 1_555
Na11 O17 2.668550 1_555
Na12 O12 2.417426 1_555
Na12 O15 2.453345 1_555
Na12 O135 2.525758 1_555
Na12 O132 2.683427 1_555
Na12 O105 2.714575 1_555
Na12 O102 2.751532 1_556
Na12 O74 2.854951 1_545
Na12 O77 2.860616 1_545
Na13 O13 2.438452 1_555
Na13 O16 2.586289 1_555
Na13 O106 2.589227 1_555
Na13 O72 2.672803 1_555
Na13 O136 2.699974 1_555
Na13 O75 2.787654 1_555
Na13 O133 2.848036 1_555
Na13 O103 2.852274 1_556
Na14 O14 2.501390 1_555
Na14 O17 2.553507 1_555
Na14 O107 2.646558 1_555
Na14 O73 2.709218 1_555
Na14 O137 2.766646 1_555
Na14 O76 2.851276 1_555
Na14 O134 2.878146 1_555
Na14 O104 2.888791 1_556
Na15 O99 2.279375 1_555
Na15 O18 2.421929 1_555
Na15 O21 2.480444 1_555
Na15 O138 2.686800 1_555
Na15 O141 2.829870 1_555
Na15 O96 2.856448 1_554
Na15 O79 2.895253 1_555
Na16 O100 2.327124 1_555
Na16 O19 2.395166 1_555
Na16 O22 2.475254 1_555
Na16 O139 2.642933 1_555
Na16 O142 2.816781 1_555
Na16 O97 2.916844 1_554
Na16 O80 2.942712 1_555
Na17 O20 2.406002 1_555
Na17 O23 2.419370 1_555
Na17 O140 2.660413 1_555
Na17 O101 2.685602 1_555
Na17 O98 2.752900 1_554
Na17 O143 2.829774 1_555
Na17 O81 2.854753 1_565
Na17 O102 2.867901 1_565
Na17 O78 2.879132 1_565
Na18 O0 2.501390 1_655
Na18 O3 2.553507 1_555
Na18 O117 2.646558 1_555
Na18 O84 2.709218 1_555
Na18 O123 2.766646 1_555
Na18 O87 2.851276 1_655
Na18 O120 2.878146 1_655
Na18 O114 2.888791 1_656
Na19 O1 2.417426 1_555
Na19 O4 2.453345 1_455
Na19 O124 2.525758 1_455
Na19 O121 2.683427 1_555
Na19 O118 2.714575 1_455
Na19 O115 2.751532 1_556
Na19 O85 2.854951 1_455
Na19 O88 2.860616 1_555
Na20 O2 2.438452 1_655
Na20 O5 2.586289 1_555
Na20 O119 2.589227 1_555
Na20 O86 2.672803 1_555
Na20 O125 2.699974 1_555
Na20 O89 2.787654 1_655
Na20 O122 2.848036 1_655
Na20 O116 2.852274 1_656
Na21 O111 2.327124 1_655
Na21 O6 2.395166 1_555
Na21 O9 2.475254 1_655
Na21 O126 2.642933 1_555
Na21 O129 2.816781 1_655
Na21 O108 2.916844 1_554
Na21 O90 2.942712 1_655
Na22 O7 2.406002 1_555
Na22 O10 2.419370 1_655
Na22 O127 2.660413 1_555
Na22 O112 2.685602 1_655
Na22 O109 2.752900 1_554
Na22 O130 2.829774 1_655
Na22 O94 2.854753 1_555
Na22 O115 2.867901 1_655
Na22 O91 2.879132 1_655
Na23 O113 2.279375 1_555
Na23 O8 2.421929 1_455
Na23 O11 2.480444 1_555
Na23 O128 2.686800 1_455
Na23 O131 2.829870 1_555
Na23 O110 2.856448 1_454
Na23 O92 2.895253 1_555
Na24 O128 2.356980 1_555
Na24 O70 2.497178 1_555
Na24 O56 2.534350 1_555
Na24 O76 2.613167 1_554
Na24 O38 2.729053 1_555
Na24 O22 2.775433 1_555
Na25 O126 2.360128 1_565
Na25 O71 2.526990 1_555
Na25 O54 2.598334 1_565
Na25 O36 2.653358 1_565
Na25 O77 2.680356 1_554
Na25 O23 2.826614 1_555
Na25 O95 2.942678 1_555
Na26 O72 2.293922 1_555
Na26 O66 2.416949 1_555
Na26 O130 2.568189 1_555
Na26 O18 2.730185 1_555
Na26 O42 2.792643 1_555
Na26 O58 2.884313 1_555
Na27 O73 2.291045 1_555
Na27 O67 2.451352 1_555
Na27 O131 2.463738 1_555
Na27 O19 2.607100 1_555
Na27 O59 2.752965 1_555
Na27 O43 2.917197 1_555
Na28 O36 2.443283 1_555
Na28 O78 2.445078 1_555
Na28 O60 2.488612 1_555
Na28 O125 2.665500 1_545
Na28 O53 2.795230 1_545
Na29 O38 2.411212 1_555
Na29 O80 2.450495 1_555
Na29 O62 2.490982 1_555
Na29 O52 2.731768 1_555
Na29 O124 2.757785 1_555
Na30 O138 2.356980 1_555
Na30 O57 2.497178 1_555
Na30 O66 2.534350 1_555
Na30 O87 2.613167 1_554
Na30 O24 2.729053 1_555
Na30 O9 2.775433 1_555
Na31 O139 2.360128 1_555
Na31 O58 2.526990 1_555
Na31 O67 2.598334 1_555
Na31 O25 2.653358 1_555
Na31 O88 2.680356 1_554
Na31 O10 2.826614 1_555
Na31 O82 2.942678 1_555
Na32 O84 2.291045 1_555
Na32 O54 2.451352 1_555
Na32 O141 2.463738 1_555
Na32 O6 2.607100 1_555
Na32 O69 2.752965 1_555
Na32 O30 2.917197 1_555
Na33 O86 2.293922 1_555
Na33 O56 2.416949 1_555
Na33 O143 2.568189 1_555
Na33 O8 2.730185 1_555
Na33 O32 2.792643 1_555
Na33 O71 2.884313 1_555
Na34 O24 2.411212 1_555
Na34 O90 2.450495 1_555
Na34 O48 2.490982 1_555
Na34 O63 2.731768 1_555
Na34 O135 2.757785 1_555
Na35 O25 2.443283 1_555
Na35 O91 2.445078 1_555
Na35 O49 2.488612 1_555
Na35 O136 2.665500 1_555
Na35 O64 2.795230 1_555
Ca0 O111 2.208466 1_655
Ca0 O36 2.214458 1_555
Ca0 O84 2.249178 1_555
Ca0 O126 2.299871 1_555
Ca0 O6 2.343203 1_555
Ca0 O54 2.373621 1_555
Ca1 O113 2.207771 1_655
Ca1 O38 2.229648 1_555
Ca1 O86 2.252917 1_555
Ca1 O128 2.313652 1_555
Ca1 O8 2.345743 1_555
Ca1 O56 2.348950 1_555
Ca2 O99 2.207771 1_555
Ca2 O24 2.229648 1_555
Ca2 O72 2.252917 1_555
Ca2 O138 2.313652 1_555
Ca2 O18 2.345743 1_555
Ca2 O66 2.348950 1_555
Ca3 O100 2.208466 1_555
Ca3 O25 2.214458 1_555
Ca3 O73 2.249178 1_555
Ca3 O139 2.299871 1_555
Ca3 O19 2.343203 1_555
Ca3 O67 2.373621 1_555
Nb0 O42 1.977601 1_555
Nb0 O117 1.984909 1_455
Nb0 O120 2.004859 1_555
Nb0 O90 2.034268 1_555
Nb0 O0 2.049507 1_555
Nb0 O48 2.054228 1_555
Nb1 O43 1.934236 1_555
Nb1 O121 1.993612 1_555
Nb1 O118 2.027012 1_455
Nb1 O49 2.035709 1_555
Nb1 O91 2.044386 1_555
Nb1 O1 2.074332 1_555
Nb2 O44 1.955842 1_555
Nb2 O92 1.969592 1_555
Nb2 O50 2.030639 1_555
Nb2 O119 2.034434 1_455
Nb2 O122 2.038962 1_555
Nb2 O2 2.070475 1_555
Nb3 O93 1.907836 1_556
Nb3 O51 1.960684 1_555
Nb3 O45 1.965524 1_556
Nb3 O114 1.984665 1_656
Nb3 O3 2.039886 1_555
Nb3 O123 2.090140 1_555
Nb4 O46 1.933302 1_556
Nb4 O115 1.965084 1_656
Nb4 O94 1.973527 1_556
Nb4 O124 1.997843 1_555
Nb4 O52 1.999762 1_555
Nb4 O4 2.085985 1_555
Nb5 O47 1.926640 1_556
Nb5 O95 1.931204 1_556
Nb5 O116 1.995097 1_656
Nb5 O5 1.998421 1_555
Nb5 O125 2.002511 1_555
Nb5 O53 2.107811 1_555
Nb6 O37 1.929022 1_555
Nb6 O85 1.954649 1_555
Nb6 O55 2.008106 1_555
Nb6 O112 2.039133 1_655
Nb6 O127 2.059413 1_555
Nb6 O7 2.084744 1_555
Nb7 O39 1.929229 1_554
Nb7 O108 1.984466 1_454
Nb7 O129 2.017595 1_555
Nb7 O87 2.020500 1_554
Nb7 O57 2.096519 1_555
Nb7 O9 2.107915 1_555
Nb8 O40 1.944002 1_554
Nb8 O109 1.985486 1_454
Nb8 O88 2.004076 1_554
Nb8 O58 2.047530 1_555
Nb8 O130 2.056945 1_555
Nb8 O10 2.073880 1_555
Nb9 O89 1.934675 1_554
Nb9 O41 1.983418 1_554
Nb9 O110 2.012453 1_454
Nb9 O59 2.022878 1_555
Nb9 O11 2.084657 1_555
Nb9 O131 2.124690 1_555
Nb10 O30 1.934236 1_555
Nb10 O132 1.993612 1_555
Nb10 O105 2.027012 1_555
Nb10 O60 2.035709 1_555
Nb10 O78 2.044386 1_555
Nb10 O12 2.074332 1_555
Nb11 O31 1.955842 1_555
Nb11 O79 1.969592 1_555
Nb11 O61 2.030639 1_555
Nb11 O106 2.034434 1_555
Nb11 O133 2.038962 1_555
Nb11 O13 2.070475 1_555
Nb12 O32 1.977601 1_555
Nb12 O107 1.984909 1_555
Nb12 O134 2.004859 1_555
Nb12 O80 2.034268 1_555
Nb12 O14 2.049507 1_555
Nb12 O62 2.054228 1_555
Nb13 O33 1.933302 1_556
Nb13 O102 1.965084 1_556
Nb13 O81 1.973527 1_556
Nb13 O135 1.997843 1_555
Nb13 O63 1.999762 1_555
Nb13 O15 2.085985 1_555
Nb14 O34 1.926640 1_556
Nb14 O82 1.931204 1_556
Nb14 O103 1.995097 1_556
Nb14 O16 1.998421 1_555
Nb14 O136 2.002511 1_555
Nb14 O64 2.107811 1_555
Nb15 O83 1.907836 1_556
Nb15 O65 1.960684 1_555
Nb15 O35 1.965524 1_556
Nb15 O104 1.984665 1_556
Nb15 O17 2.039886 1_555
Nb15 O137 2.090140 1_555
Nb16 O26 1.929022 1_555
Nb16 O74 1.954649 1_555
Nb16 O68 2.008106 1_555
Nb16 O101 2.039133 1_555
Nb16 O140 2.059413 1_555
Nb16 O20 2.084744 1_555
Nb17 O75 1.934675 1_554
Nb17 O27 1.983418 1_554
Nb17 O96 2.012453 1_554
Nb17 O69 2.022878 1_555
Nb17 O21 2.084657 1_555
Nb17 O141 2.124690 1_555
Nb18 O28 1.929229 1_554
Nb18 O97 1.984466 1_554
Nb18 O142 2.017595 1_555
Nb18 O76 2.020500 1_554
Nb18 O70 2.096519 1_555
Nb18 O22 2.107915 1_555
Nb19 O29 1.944002 1_554
Nb19 O98 1.985486 1_554
Nb19 O77 2.004076 1_554
Nb19 O71 2.047530 1_555
Nb19 O143 2.056945 1_555
Nb19 O23 2.073880 1_555
O0 Si27 1.672014 1_555
O1 Si28 1.649350 1_555
O2 Si29 1.656231 1_555
O3 Si24 1.634624 1_555
O4 Si25 1.639779 1_555
O5 Si26 1.636733 1_555
O6 Si33 1.598107 1_555
O7 Si34 1.641488 1_555
O8 Si35 1.589629 1_555
O9 Si30 1.652398 1_555
O10 Si31 1.658843 1_555
O11 Si32 1.645800 1_555
O12 Si17 1.649350 1_545
O13 Si15 1.656231 1_555
O14 Si16 1.672014 1_555
O15 Si14 1.639779 1_545
O16 Si12 1.636733 1_555
O17 Si13 1.634624 1_555
O18 Si22 1.589629 1_555
O19 Si23 1.598107 1_555
O20 Si21 1.641488 1_565
O21 Si19 1.645800 1_555
O22 Si20 1.652398 1_555
O23 Si18 1.658843 1_565
O24 Si6 1.592728 1_555
O25 Si7 1.593485 1_555
O26 Si8 1.645259 1_555
O27 Si6 1.667236 1_555
O28 Si7 1.686458 1_555
O29 Si8 1.662403 1_555
O30 Si9 1.689911 1_555
O31 Si10 1.664581 1_555
O32 Si11 1.649118 1_555
O33 Si9 1.650552 1_555
O34 Si10 1.644322 1_555
O35 Si11 1.619793 1_555
O36 Si2 1.593485 1_645
O37 Si0 1.645259 1_555
O38 Si1 1.592728 1_655
O39 Si2 1.686458 1_545
O40 Si0 1.662403 1_455
O41 Si1 1.667236 1_555
O42 Si4 1.649118 1_555
O43 Si5 1.689911 1_555
O44 Si3 1.664581 1_565
O45 Si4 1.619793 1_655
O46 Si5 1.650552 1_655
O47 Si3 1.644322 1_665
O48 Si12 1.645718 1_555
O49 Si13 1.657548 1_555
O50 Si14 1.617259 1_555
O51 Si15 1.629632 1_555
O52 Si16 1.651928 1_555
O53 Si17 1.633348 1_555
O54 Si18 1.591528 1_555
O55 Si19 1.646441 1_555
O56 Si20 1.597375 1_555
O57 Si21 1.631008 1_555
O58 Si22 1.665106 1_555
O59 Si23 1.648814 1_555
O60 Si24 1.657548 1_555
O61 Si25 1.617259 1_555
O62 Si26 1.645718 1_555
O63 Si27 1.651928 1_555
O64 Si28 1.633348 1_555
O65 Si29 1.629632 1_555
O66 Si30 1.597375 1_555
O67 Si31 1.591528 1_555
O68 Si32 1.646441 1_555
O69 Si33 1.648814 1_555
O70 Si34 1.631008 1_555
O71 Si35 1.665106 1_555
O72 Si12 1.598194 1_555
O73 Si13 1.595172 1_555
O74 Si14 1.648302 1_555
O75 Si15 1.699937 1_555
O76 Si16 1.680543 1_555
O77 Si17 1.672700 1_555
O78 Si18 1.671851 1_555
O79 Si19 1.650609 1_555
O80 Si20 1.685016 1_555
O81 Si21 1.642884 1_555
O82 Si22 1.647550 1_555
O83 Si23 1.636296 1_555
O84 Si24 1.595172 1_555
O85 Si25 1.648302 1_555
O86 Si26 1.598194 1_555
O87 Si27 1.680543 1_555
O88 Si28 1.672700 1_555
O89 Si29 1.699937 1_555
O90 Si30 1.685016 1_555
O91 Si31 1.671851 1_555
O92 Si32 1.650609 1_555
O93 Si33 1.636296 1_555
O94 Si34 1.642884 1_555
O95 Si35 1.647550 1_555
O96 Si12 1.676370 1_555
O97 Si13 1.688451 1_555
O98 Si14 1.666637 1_555
O99 Si15 1.582419 1_555
O100 Si16 1.581594 1_555
O101 Si17 1.641124 1_555
O102 Si18 1.635287 1_555
O103 Si19 1.634626 1_555
O104 Si20 1.640115 1_555
O105 Si21 1.658472 1_555
O106 Si22 1.665869 1_555
O107 Si23 1.678352 1_555
O108 Si24 1.688451 1_555
O109 Si25 1.666637 1_555
O110 Si26 1.676370 1_555
O111 Si27 1.581594 1_555
O112 Si28 1.641124 1_555
O113 Si29 1.582419 1_555
O114 Si30 1.640115 1_555
O115 Si31 1.635287 1_555
O116 Si32 1.634626 1_555
O117 Si33 1.678352 1_555
O118 Si34 1.658472 1_555
O119 Si35 1.665869 1_555
O120 Si0 1.639815 1_455
O121 Si1 1.654475 1_555
O122 Si2 1.636575 1_555
O123 Si0 1.623972 1_555
O124 Si1 1.660352 1_655
O125 Si2 1.661165 1_655
O126 Si3 1.600171 1_655
O127 Si4 1.638701 1_655
O128 Si5 1.591844 1_655
O129 Si3 1.647964 1_555
O130 Si4 1.659633 1_555
O131 Si5 1.641064 1_555
O132 Si6 1.654475 1_555
O133 Si7 1.636575 1_555
O134 Si8 1.639815 1_555
O135 Si6 1.660352 1_555
O136 Si7 1.661165 1_555
O137 Si8 1.623972 1_555
O138 Si9 1.591844 1_555
O139 Si10 1.600171 1_555
O140 Si11 1.638701 1_555
O141 Si9 1.641064 1_555
O142 Si10 1.647964 1_555
O143 Si11 1.659633 1_555
