# generated using pymatgen
data_Sr4MgNi2(ClO3)2
_symmetry_space_group_name_H-M   'P 1'
_cell_length_a   3.93180000
_cell_length_b   3.92391800
_cell_length_c   15.81346400
_cell_angle_alpha   90.00000000
_cell_angle_beta   90.00000000
_cell_angle_gamma   90.00000000
_symmetry_Int_Tables_number   1
_chemical_formula_structural   Sr4MgNi2(ClO3)2
_chemical_formula_sum   'Sr4 Mg1 Ni2 Cl2 O6'
_cell_volume   243.97108393
_cell_formula_units_Z   1
loop_
 _symmetry_equiv_pos_site_id
 _symmetry_equiv_pos_as_xyz
  1  'x, y, z'
loop_
 _atom_site_type_symbol
 _atom_site_label
 _atom_site_symmetry_multiplicity
 _atom_site_fract_x
 _atom_site_fract_y
 _atom_site_fract_z
 _atom_site_occupancy
  Sr  Sr0  1  0.25000000  0.25000000  0.86039400  1
  Sr  Sr1  1  0.75000000  0.75000000  0.14174800  1
  Sr  Sr2  1  0.25000000  0.25000000  0.64380200  1
  Sr  Sr3  1  0.75000000  0.75000000  0.34652200  1
  Mg  Mg0  1  0.25000000  0.75000000  0.00841400  1
  Ni  Ni0  1  0.75000000  0.75000000  0.75822900  1
  Ni  Ni1  1  0.25000000  0.25000000  0.21906800  1
  Cl  Cl0  1  0.75000000  0.75000000  0.57075900  1
  Cl  Cl1  1  0.25000000  0.25000000  0.42689800  1
  O  O0  1  0.25000000  0.75000000  0.76030600  1
  O  O1  1  0.75000000  0.25000000  0.75546400  1
  O  O2  1  0.75000000  0.25000000  0.24175800  1
  O  O3  1  0.25000000  0.75000000  0.23757900  1
  O  O4  1  0.75000000  0.75000000  0.95610300  1
  O  O5  1  0.25000000  0.25000000  0.07295600  1
loop_
_geom_bond_atom_site_label_1
_geom_bond_atom_site_label_2
_geom_bond_distance
_geom_bond_site_symmetry_2
Mg0 O4 2.132851 1_454
Mg0 O4 2.132851 1_554
Mg0 O5 2.211555 1_565
Mg0 O5 2.211555 1_555
Ni0 O1 1.962446 1_555
Ni0 O1 1.962446 1_565
Ni0 O0 1.966174 1_655
Ni0 O0 1.966174 1_555
Ni1 O3 1.983676 1_545
Ni1 O3 1.983676 1_555
Ni1 O2 1.998376 1_455
Ni1 O2 1.998376 1_555
Ni1 O5 2.310537 1_555
Cl0 Ni0 2.964550 1_555
Cl0 Sr2 3.008025 1_555
Cl0 Sr2 3.008025 1_655
Cl0 Sr2 3.008025 1_565
Cl0 Sr2 3.008025 1_665
Cl0 Sr3 3.545964 1_555
Cl1 Sr3 3.054430 1_545
Cl1 Sr3 3.054430 1_445
Cl1 Sr3 3.054430 1_455
Cl1 Sr3 3.054430 1_555
Cl1 Sr2 3.430004 1_555
O0 Sr0 2.520782 1_565
O0 Sr0 2.520782 1_555
O0 Sr2 2.691369 1_555
O0 Sr2 2.691369 1_565
O1 Sr0 2.572559 1_655
O1 Sr0 2.572559 1_555
O1 Sr2 2.642476 1_555
O1 Sr2 2.642476 1_655
O2 Sr1 2.520008 1_545
O2 Sr1 2.520008 1_555
O2 Sr3 2.567855 1_555
O2 Sr3 2.567855 1_545
O3 Sr1 2.482189 1_455
O3 Sr1 2.482189 1_555
O3 Sr3 2.613941 1_555
O3 Sr3 2.613941 1_455
