# generated using pymatgen
data_NaZr2FeF11
_symmetry_space_group_name_H-M   'P 1'
_cell_length_a   5.77706242
_cell_length_b   5.77706242
_cell_length_c   7.93713489
_cell_angle_alpha   69.12445909
_cell_angle_beta   69.12445909
_cell_angle_gamma   73.05544680
_symmetry_Int_Tables_number   1
_chemical_formula_structural   NaZr2FeF11
_chemical_formula_sum   'Na1 Zr2 Fe1 F11'
_cell_volume   227.12057223
_cell_formula_units_Z   1
loop_
 _symmetry_equiv_pos_site_id
 _symmetry_equiv_pos_as_xyz
  1  'x, y, z'
loop_
 _atom_site_type_symbol
 _atom_site_label
 _atom_site_symmetry_multiplicity
 _atom_site_fract_x
 _atom_site_fract_y
 _atom_site_fract_z
 _atom_site_occupancy
  Na  Na0  1  0.00000000  0.00000000  0.00000000  1
  Zr  Zr0  1  0.50456700  0.50456700  0.76503000  1
  Zr  Zr1  1  0.49543300  0.49543300  0.23497000  1
  Fe  Fe0  1  0.00000000  0.00000000  0.50000000  1
  F  F0  1  0.22304400  0.80650800  0.69163000  1
  F  F1  1  0.19349200  0.77695600  0.30837000  1
  F  F2  1  0.77695600  0.19349200  0.30837000  1
  F  F3  1  0.80650800  0.22304400  0.69163000  1
  F  F4  1  0.50000000  0.50000000  0.50000000  1
  F  F5  1  0.66977500  0.33022500  0.00000000  1
  F  F6  1  0.33022500  0.66977500  0.00000000  1
  F  F7  1  0.24688200  0.24688200  0.35228500  1
  F  F8  1  0.75311800  0.75311800  0.64771500  1
  F  F9  1  0.26647800  0.26647800  0.89105400  1
  F  F10  1  0.73352200  0.73352200  0.10894600  1
loop_
_geom_bond_atom_site_label_1
_geom_bond_atom_site_label_2
_geom_bond_distance
_geom_bond_site_symmetry_2
F0 Zr0 2.079566 1_555
F0 Fe0 2.137465 1_565
F0 Na0 2.786233 1_566
F1 Zr1 2.079566 1_555
F1 Fe0 2.137465 1_565
F1 Na0 2.786233 1_565
F2 Zr1 2.079566 1_555
F2 Fe0 2.137465 1_655
F2 Na0 2.786233 1_655
F3 Zr0 2.079566 1_555
F3 Fe0 2.137465 1_655
F3 Na0 2.786233 1_656
F4 Zr0 2.122722 1_555
F4 Zr1 2.122722 1_555
F5 Zr1 2.184733 1_555
F5 Zr0 2.184733 1_554
F5 Na0 2.271007 1_655
F6 Zr1 2.184733 1_555
F6 Zr0 2.184733 1_554
F6 Na0 2.271007 1_565
F7 Fe0 2.060400 1_555
F7 Zr1 2.070430 1_555
F8 Fe0 2.060400 1_665
F8 Zr0 2.070430 1_555
F9 Zr0 1.981416 1_555
F9 Na0 2.229708 1_556
F10 Zr1 1.981416 1_555
F10 Na0 2.229708 1_665
