# generated using pymatgen
data_TaMnP
_symmetry_space_group_name_H-M   'P 1'
_cell_length_a   3.48990087
_cell_length_b   6.19234620
_cell_length_c   7.37208380
_cell_angle_alpha   89.99832921
_cell_angle_beta   90.00000000
_cell_angle_gamma   90.00000000
_symmetry_Int_Tables_number   1
_chemical_formula_structural   TaMnP
_chemical_formula_sum   'Ta4 Mn4 P4'
_cell_volume   159.31570259
_cell_formula_units_Z   4
loop_
 _symmetry_equiv_pos_site_id
 _symmetry_equiv_pos_as_xyz
  1  'x, y, z'
loop_
 _atom_site_type_symbol
 _atom_site_label
 _atom_site_symmetry_multiplicity
 _atom_site_fract_x
 _atom_site_fract_y
 _atom_site_fract_z
 _atom_site_occupancy
  Ta  Ta0  1  0.25000000  0.53287892  0.33379388  1
  Ta  Ta1  1  0.75000000  0.46708392  0.66621520  1
  Ta  Ta2  1  0.25000000  0.03282231  0.16633460  1
  Ta  Ta3  1  0.75000000  0.96720122  0.83366553  1
  Mn  Mn0  1  0.75000000  0.85988857  0.43853887  1
  Mn  Mn1  1  0.25000000  0.14011069  0.56143529  1
  Mn  Mn2  1  0.75000000  0.35988139  0.06148339  1
  Mn  Mn3  1  0.25000000  0.64011461  0.93854116  1
  P  P0  1  0.25000000  0.26770290  0.86736632  1
  P  P1  1  0.75000000  0.73230032  0.13263511  1
  P  P2  1  0.25000000  0.76769187  0.63274506  1
  P  P3  1  0.75000000  0.23232328  0.36724659  1
loop_
_geom_bond_atom_site_label_1
_geom_bond_atom_site_label_2
_geom_bond_distance
_geom_bond_site_symmetry_2
Mn0 P2 2.328202 1_555
Mn0 P2 2.328202 1_655
Mn0 P3 2.365358 1_565
Mn0 P1 2.389562 1_555
Mn1 P3 2.328147 1_455
Mn1 P3 2.328147 1_555
Mn1 P2 2.365291 1_545
Mn1 P0 2.389760 1_555
Mn2 P0 2.327791 1_554
Mn2 P0 2.327791 1_654
Mn2 P1 2.365063 1_555
Mn2 P3 2.388479 1_555
Mn3 P1 2.327697 1_556
Mn3 P1 2.327697 1_456
Mn3 P0 2.365057 1_555
Mn3 P2 2.388747 1_555
P0 Ta3 2.563049 1_445
P0 Ta3 2.563049 1_545
P0 Ta1 2.601552 1_455
P0 Ta1 2.601552 1_555
P0 Ta2 2.640639 1_556
P1 Ta2 2.563139 1_565
P1 Ta2 2.563139 1_665
P1 Ta0 2.601703 1_655
P1 Ta0 2.601703 1_555
P1 Ta3 2.640716 1_554
P2 Ta1 2.563352 1_555
P2 Ta1 2.563352 1_455
P2 Ta3 2.601002 1_455
P2 Ta3 2.601002 1_555
P2 Ta0 2.640374 1_555
P3 Ta0 2.563104 1_555
P3 Ta0 2.563104 1_655
P3 Ta2 2.600941 1_555
P3 Ta2 2.600941 1_655
P3 Ta1 2.640303 1_555
