# generated using pymatgen
data_Na3AlGa(PO4)3
_symmetry_space_group_name_H-M   'P 1'
_cell_length_a   15.07420275
_cell_length_b   8.65868876
_cell_length_c   8.69827222
_cell_angle_alpha   89.96497116
_cell_angle_beta   124.68463086
_cell_angle_gamma   90.03413823
_symmetry_Int_Tables_number   1
_chemical_formula_structural   Na3AlGa(PO4)3
_chemical_formula_sum   'Na12 Al4 Ga4 P12 O48'
_cell_volume   933.57224544
_cell_formula_units_Z   4
loop_
 _symmetry_equiv_pos_site_id
 _symmetry_equiv_pos_as_xyz
  1  'x, y, z'
loop_
 _atom_site_type_symbol
 _atom_site_label
 _atom_site_symmetry_multiplicity
 _atom_site_fract_x
 _atom_site_fract_y
 _atom_site_fract_z
 _atom_site_occupancy
  Na  Na0  1  0.24804183  0.76519973  0.99989318  1
  Na  Na1  1  0.74681473  0.73604213  0.49782537  1
  Na  Na2  1  0.74665505  0.26452744  0.99783876  1
  Na  Na3  1  0.24850421  0.23630585  0.50030375  1
  Na  Na4  1  0.50086460  0.09531479  0.74939359  1
  Na  Na5  1  0.50078398  0.90454005  0.24885542  1
  Na  Na6  1  0.00059035  0.59320381  0.74909661  1
  Na  Na7  1  0.00105712  0.40711897  0.24902644  1
  Na  Na8  1  0.81480431  0.92693724  0.20800294  1
  Na  Na9  1  0.81576364  0.07244134  0.71007294  1
  Na  Na10  1  0.31729073  0.42605921  0.21251611  1
  Na  Na11  1  0.31631295  0.57338386  0.70903855  1
  Al  Al0  1  0.10418569  0.75576224  0.56089714  1
  Al  Al1  1  0.60327320  0.25662122  0.56035572  1
  Al  Al2  1  0.39778294  0.74992805  0.44060559  1
  Al  Al3  1  0.60317816  0.74339012  0.06012174  1
  Ga  Ga0  1  0.89758397  0.75026423  0.94068899  1
  Ga  Ga1  1  0.89718645  0.24974305  0.44016405  1
  Ga  Ga2  1  0.10361534  0.24241093  0.06010717  1
  Ga  Ga3  1  0.39785390  0.25059955  0.94109213  1
  P  P0  1  0.00345375  0.95479196  0.74776244  1
  P  P1  1  0.00355201  0.04057564  0.25169526  1
  P  P2  1  0.50402754  0.46175847  0.74829861  1
  P  P3  1  0.50344842  0.54289844  0.25163435  1
  P  P4  1  0.35465277  0.89350380  0.75128579  1
  P  P5  1  0.64497629  0.89262260  0.74606334  1
  P  P6  1  0.64697148  0.10602604  0.24754138  1
  P  P7  1  0.35623363  0.10207094  0.25688656  1
  P  P8  1  0.85125075  0.39567558  0.75168254  1
  P  P9  1  0.14807787  0.39550582  0.74567082  1
  P  P10  1  0.14958308  0.60991792  0.25078830  1
  P  P11  1  0.85343457  0.60517223  0.25338964  1
  O  O0  1  0.15245694  0.57524214  0.73234090  1
  O  O1  1  0.84803239  0.57347955  0.75995426  1
  O  O2  1  0.84918610  0.42707814  0.26094084  1
  O  O3  1  0.15570860  0.42940437  0.24473559  1
  O  O4  1  0.65040892  0.07314366  0.73453631  1
  O  O5  1  0.35041047  0.07183788  0.75832802  1
  O  O6  1  0.35295705  0.92450771  0.27087521  1
  O  O7  1  0.65152758  0.92580429  0.23575140  1
  O  O8  1  0.43093015  0.56153837  0.57119069  1
  O  O9  1  0.56883640  0.56410733  0.92217652  1
  O  O10  1  0.56823864  0.43528768  0.41988744  1
  O  O11  1  0.42565409  0.44864402  0.07026899  1
  O  O12  1  0.92835173  0.05301965  0.57035126  1
  O  O13  1  0.07071044  0.05480768  0.92288427  1
  O  O14  1  0.06587076  0.93398485  0.42107643  1
  O  O15  1  0.92854918  0.94778909  0.06845702  1
  O  O16  1  0.25641010  0.81777396  0.73470942  1
  O  O17  1  0.74321833  0.82672831  0.75537613  1
  O  O18  1  0.74537958  0.17217301  0.25792366  1
  O  O19  1  0.26069090  0.18150632  0.24525079  1
  O  O20  1  0.75324369  0.31771332  0.73273851  1
  O  O21  1  0.24618052  0.32757838  0.75683245  1
  O  O22  1  0.24990302  0.67604481  0.26741229  1
  O  O23  1  0.75561822  0.68272332  0.23602655  1
  O  O24  1  0.35843830  0.85419051  0.58222798  1
  O  O25  1  0.64610142  0.86195856  0.92354240  1
  O  O26  1  0.64607809  0.13788172  0.42230705  1
  O  O27  1  0.35501414  0.13403541  0.08084911  1
  O  O28  1  0.85531598  0.36063463  0.58213470  1
  O  O29  1  0.14919420  0.36874195  0.92371028  1
  O  O30  1  0.14562285  0.64231275  0.42232816  1
  O  O31  1  0.85498824  0.63925163  0.08068150  1
  O  O32  1  0.45806849  0.82764586  0.93155001  1
  O  O33  1  0.54045462  0.82991407  0.57083561  1
  O  O34  1  0.54432730  0.16867482  0.06789239  1
  O  O35  1  0.46041567  0.17129725  0.43151116  1
  O  O36  1  0.95331500  0.32859857  0.93309228  1
  O  O37  1  0.04481421  0.33181006  0.56906644  1
  O  O38  1  0.04692788  0.66943222  0.06853911  1
  O  O39  1  0.95746733  0.67142484  0.43107350  1
  O  O40  1  0.08049071  0.84701007  0.73455876  1
  O  O41  1  0.92113269  0.85043308  0.75576211  1
  O  O42  1  0.92139710  0.14605003  0.25854516  1
  O  O43  1  0.08334562  0.14862164  0.24632751  1
  O  O44  1  0.58045702  0.35259776  0.73472196  1
  O  O45  1  0.42182703  0.35624381  0.75625755  1
  O  O46  1  0.42441152  0.64872160  0.26742936  1
  O  O47  1  0.58011551  0.65028604  0.23643572  1
loop_
_geom_bond_atom_site_label_1
_geom_bond_atom_site_label_2
_geom_bond_distance
_geom_bond_site_symmetry_2
Na0 O40 2.360807 1_555
Na0 O6 2.391336 1_556
Na0 O16 2.423539 1_555
Na0 O22 2.436177 1_556
Na0 O0 2.526447 1_555
Na0 O46 2.541612 1_556
Na1 O47 2.352157 1_555
Na1 O1 2.355260 1_555
Na1 O23 2.400349 1_555
Na1 O17 2.403881 1_555
Na1 O41 2.491875 1_555
Na1 O7 2.496216 1_555
Na2 O44 2.360179 1_555
Na2 O2 2.362813 1_556
Na2 O20 2.408004 1_555
Na2 O18 2.409370 1_556
Na2 O4 2.513245 1_555
Na2 O42 2.517006 1_556
Na3 O43 2.322765 1_555
Na3 O5 2.345157 1_555
Na3 O19 2.376122 1_555
Na3 O21 2.386608 1_555
Na3 O3 2.480549 1_555
Na3 O45 2.498150 1_555
Na4 O5 2.321876 1_555
Na4 O4 2.338238 1_555
Na4 O34 2.538440 1_556
Na4 O35 2.555281 1_555
Na4 O44 2.566966 1_555
Na4 O45 2.571351 1_555
Na4 O25 2.719838 1_545
Na4 O24 2.743740 1_545
Na5 O7 2.346204 1_555
Na5 O6 2.349145 1_555
Na5 O47 2.537487 1_555
Na5 O32 2.540601 1_554
Na5 O46 2.542864 1_555
Na5 O33 2.590562 1_555
Na5 O27 2.694376 1_565
Na5 O26 2.719008 1_565
Na6 O1 2.360796 1_455
Na6 O0 2.380412 1_555
Na6 O38 2.537111 1_556
Na6 O40 2.542848 1_555
Na6 O41 2.545798 1_455
Na6 O39 2.546589 1_455
Na6 O29 2.689154 1_555
Na6 O28 2.708993 1_455
Na7 O2 2.356306 1_455
Na7 O3 2.360471 1_555
Na7 O36 2.506580 1_454
Na7 O37 2.553091 1_555
Na7 O43 2.566222 1_555
Na7 O42 2.582329 1_455
Na7 O31 2.713767 1_455
Na7 O30 2.725483 1_555
Na8 O42 2.359658 1_565
Na8 O23 2.360394 1_555
Na8 O25 2.396774 1_554
Na8 O18 2.512695 1_565
Na8 O7 2.606197 1_555
Na8 O15 2.610336 1_555
Na8 O12 2.813809 1_565
Na8 O39 2.921598 1_555
Na8 O31 2.926957 1_555
Na9 O20 2.377323 1_555
Na9 O41 2.379145 1_545
Na9 O26 2.417083 1_555
Na9 O17 2.522755 1_545
Na9 O12 2.594966 1_555
Na9 O4 2.619541 1_555
Na9 O15 2.781959 1_546
Na9 O36 2.898938 1_555
Na9 O28 2.927587 1_555
Na10 O19 2.359334 1_555
Na10 O46 2.381647 1_555
Na10 O29 2.394392 1_554
Na10 O22 2.549723 1_555
Na10 O11 2.556767 1_555
Na10 O3 2.605594 1_555
Na10 O8 2.821978 1_555
Na11 O45 2.343627 1_555
Na11 O16 2.361239 1_555
Na11 O30 2.427553 1_555
Na11 O21 2.513325 1_555
Na11 O0 2.590768 1_555
Na11 O8 2.606055 1_555
Na11 O11 2.803519 1_556
Na11 O24 2.885093 1_555
Na11 O32 2.907175 1_555
Al0 O14 1.842124 1_555
Al0 O40 1.910355 1_555
Al0 O30 1.914926 1_555
Al0 O39 1.963807 1_455
Al0 O16 1.972475 1_555
Al0 O0 1.989984 1_555
Al1 O10 1.851840 1_555
Al1 O35 1.921349 1_555
Al1 O44 1.924788 1_555
Al1 O20 1.944333 1_555
Al1 O26 1.949205 1_555
Al1 O4 2.024202 1_555
Al2 O24 1.875575 1_555
Al2 O8 1.885061 1_555
Al2 O33 1.901228 1_555
Al2 O6 1.945344 1_555
Al2 O22 1.955862 1_555
Al2 O46 1.971875 1_555
Al3 O9 1.847131 1_554
Al3 O47 1.930732 1_555
Al3 O25 1.938189 1_554
Al3 O32 1.945366 1_554
Al3 O23 1.973910 1_555
Al3 O7 2.023384 1_555
Ga0 O31 1.925283 1_556
Ga0 O15 1.946566 1_556
Ga0 O38 1.986516 1_656
Ga0 O1 2.009381 1_555
Ga0 O41 2.028171 1_555
Ga0 O17 2.045214 1_555
Ga1 O28 1.932493 1_555
Ga1 O12 1.948749 1_555
Ga1 O37 1.968168 1_655
Ga1 O2 2.006528 1_555
Ga1 O18 2.017800 1_555
Ga1 O42 2.023190 1_555
Ga2 O13 1.907087 1_554
Ga2 O43 1.984433 1_555
Ga2 O29 2.000356 1_554
Ga2 O36 2.015662 1_454
Ga2 O19 2.034364 1_555
Ga2 O3 2.093715 1_555
Ga3 O27 1.950557 1_556
Ga3 O34 1.955530 1_556
Ga3 O11 1.960684 1_556
Ga3 O21 2.017528 1_555
Ga3 O5 2.035254 1_555
Ga3 O45 2.052128 1_555
O0 P9 1.564666 1_555
O1 P8 1.543353 1_555
O2 P11 1.546258 1_555
O3 P10 1.568472 1_555
O4 P5 1.571294 1_545
O5 P4 1.548192 1_545
O6 P7 1.545174 1_565
O7 P6 1.568019 1_565
O8 P2 1.549641 1_555
O9 P2 1.531735 1_555
O10 P3 1.528583 1_555
O11 P3 1.557204 1_555
O12 P0 1.548432 1_645
O13 P0 1.530058 1_545
O14 P1 1.526151 1_565
O15 P1 1.553603 1_665
O16 P4 1.549145 1_555
O17 P5 1.545847 1_555
O18 P6 1.543801 1_555
O19 P7 1.546861 1_555
O20 P8 1.545113 1_555
O21 P9 1.542670 1_555
O22 P10 1.544611 1_555
O23 P11 1.547732 1_555
O24 P4 1.541969 1_555
O25 P5 1.556820 1_555
O26 P6 1.552728 1_555
O27 P7 1.545649 1_555
O28 P8 1.540842 1_555
O29 P9 1.556331 1_555
O30 P10 1.552583 1_555
O31 P11 1.543991 1_555
O32 P4 1.559477 1_555
O33 P5 1.538582 1_555
O34 P6 1.542189 1_555
O35 P7 1.554957 1_555
O36 P8 1.559246 1_555
O37 P9 1.538032 1_555
O38 P10 1.543116 1_555
O39 P11 1.555181 1_555
O40 P0 1.544639 1_555
O41 P0 1.567836 1_655
O42 P1 1.567383 1_655
O43 P1 1.544901 1_555
O44 P2 1.546278 1_555
O45 P2 1.571968 1_555
O46 P3 1.570252 1_555
O47 P3 1.546014 1_555
