# generated using pymatgen
data_La4MgMnO8
_symmetry_space_group_name_H-M   'P 1'
_cell_length_a   5.49711527
_cell_length_b   7.99849451
_cell_length_c   5.14958127
_cell_angle_alpha   90.00997731
_cell_angle_beta   89.96348507
_cell_angle_gamma   110.16024609
_symmetry_Int_Tables_number   1
_chemical_formula_structural   La4MgMnO8
_chemical_formula_sum   'La4 Mg1 Mn1 O8'
_cell_volume   212.54785181
_cell_formula_units_Z   1
loop_
 _symmetry_equiv_pos_site_id
 _symmetry_equiv_pos_as_xyz
  1  'x, y, z'
loop_
 _atom_site_type_symbol
 _atom_site_label
 _atom_site_symmetry_multiplicity
 _atom_site_fract_x
 _atom_site_fract_y
 _atom_site_fract_z
 _atom_site_occupancy
  La  La0  1  0.12577200  0.25096100  0.50011200  1
  La  La1  1  0.68291200  0.36575300  0.00110700  1
  La  La2  1  0.31711900  0.63422100  0.99911800  1
  La  La3  1  0.87441200  0.74905300  0.49993300  1
  Mg  Mg0  1  0.49999500  0.99999500  0.99996500  1
  Mn  Mn0  1  0.99993100  0.00012500  0.99995200  1
  O  O0  1  0.24072200  0.99996100  0.25547900  1
  O  O1  1  0.24095500  0.99997100  0.74458800  1
  O  O2  1  0.75900400  0.00003800  0.25536400  1
  O  O3  1  0.75934900  0.00003200  0.74462600  1
  O  O4  1  0.17213000  0.34330600  0.00014600  1
  O  O5  1  0.70069900  0.40208000  0.49905400  1
  O  O6  1  0.29903700  0.59787500  0.50067800  1
  O  O7  1  0.82796100  0.65662900  0.99987800  1
loop_
_geom_bond_atom_site_label_1
_geom_bond_atom_site_label_2
_geom_bond_distance
_geom_bond_site_symmetry_2
La0 O6 2.604790 1_555
La0 O3 2.623357 1_455
La0 O0 2.624761 1_545
La0 O1 2.625674 1_545
La0 O2 2.625765 1_455
La0 O4 2.666314 1_555
La0 O4 2.666717 1_556
La0 O5 2.969214 1_555
La0 O5 2.977911 1_455
La1 O7 2.184040 1_554
La1 O5 2.578697 1_555
La1 O5 2.599701 1_554
La1 O4 2.751124 1_555
La1 O4 2.756326 1_655
La2 O4 2.184331 1_556
La2 O6 2.581237 1_555
La2 O6 2.597189 1_556
La2 O7 2.751540 1_555
La2 O7 2.755870 1_455
La3 O5 2.605233 1_555
La3 O0 2.622811 1_655
La3 O1 2.624891 1_655
La3 O3 2.625080 1_565
La3 O2 2.626494 1_565
La3 O7 2.666364 1_555
La3 O7 2.666976 1_554
La3 O6 2.971508 1_555
La3 O6 2.975950 1_655
Mg0 O3 1.938781 1_565
Mg0 O2 1.938816 1_566
Mg0 O1 1.938903 1_555
Mg0 O0 1.939070 1_556
Mn0 O3 1.865294 1_555
Mn0 O2 1.865774 1_556
Mn0 O1 1.866450 1_645
Mn0 O0 1.867341 1_646
Mn0 O4 2.576756 1_656
Mn0 O7 2.579122 1_545
