# generated using pymatgen
data_MgFe6O11F
_symmetry_space_group_name_H-M   'P 1'
_cell_length_a   11.92209694
_cell_length_b   6.81547515
_cell_length_c   2.92779324
_cell_angle_alpha   89.99102588
_cell_angle_beta   89.99542784
_cell_angle_gamma   70.25163688
_symmetry_Int_Tables_number   1
_chemical_formula_structural   MgFe6O11F
_chemical_formula_sum   'Mg1 Fe6 O11 F1'
_cell_volume   223.90536046
_cell_formula_units_Z   1
loop_
 _symmetry_equiv_pos_site_id
 _symmetry_equiv_pos_as_xyz
  1  'x, y, z'
loop_
 _atom_site_type_symbol
 _atom_site_label
 _atom_site_symmetry_multiplicity
 _atom_site_fract_x
 _atom_site_fract_y
 _atom_site_fract_z
 _atom_site_occupancy
  Mg  Mg0  1  0.83764579  0.34148063  0.01221077  1
  Fe  Fe0  1  0.04018415  0.00102621  0.01200759  1
  Fe  Fe1  1  0.04455128  0.52402843  0.51173221  1
  Fe  Fe2  1  0.32963762  0.33837742  0.01195584  1
  Fe  Fe3  1  0.61198641  0.12700682  0.51235056  1
  Fe  Fe4  1  0.33243312  0.83569573  0.51213558  1
  Fe  Fe5  1  0.62527569  0.67230461  0.01228092  1
  O  O0  1  0.00445514  0.36833044  0.01163624  1
  O  O1  1  0.33414159  0.02186240  0.01233848  1
  O  O2  1  0.02216675  0.72083939  0.01181848  1
  O  O3  1  0.21638942  0.40238867  0.51179874  1
  O  O4  1  0.44834189  0.27154285  0.51212377  1
  O  O5  1  0.15194067  0.94826946  0.51190026  1
  O  O6  1  0.33044504  0.65026557  0.01188668  1
  O  O7  1  0.91908835  0.11452067  0.51166426  1
  O  O8  1  0.51336537  0.71946161  0.51230289  1
  O  O9  1  0.74459642  0.54739755  0.51233629  1
  O  O10  1  0.65176849  0.93973952  0.01237201  1
  F  F0  1  0.66658681  0.29546102  0.01231545  1
loop_
_geom_bond_atom_site_label_1
_geom_bond_atom_site_label_2
_geom_bond_distance
_geom_bond_site_symmetry_2
Mg0 O0 2.057770 1_655
Mg0 O9 2.071150 1_554
Mg0 O9 2.071855 1_555
Mg0 O7 2.111479 1_555
Mg0 O7 2.113925 1_554
Fe0 O5 1.929501 1_545
Fe0 O5 1.929902 1_544
Fe0 O2 1.992470 1_545
Fe0 O7 2.016939 1_455
Fe0 O7 2.018389 1_454
Fe0 O0 2.393243 1_555
Fe1 O3 1.933027 1_555
Fe1 O2 1.941716 1_555
Fe1 O2 1.942381 1_556
Fe1 O0 1.959320 1_556
Fe1 O0 1.960045 1_555
Fe2 O3 1.938228 1_555
Fe2 O3 1.938982 1_554
Fe2 O4 1.978911 1_554
Fe2 O4 1.979700 1_555
Fe2 O6 2.128938 1_555
Fe2 O1 2.139654 1_555
Fe3 O4 1.864930 1_555
Fe3 O10 1.894084 1_546
Fe3 O10 1.894238 1_545
Fe4 O6 1.938622 1_556
Fe4 O6 1.940024 1_555
Fe4 O1 1.941246 1_565
Fe4 O1 1.942444 1_566
Fe4 O5 2.025687 1_555
Fe4 O8 2.031212 1_555
Fe5 O8 1.933026 1_554
Fe5 O8 1.933038 1_555
Fe5 O10 1.952185 1_555
Fe5 O9 2.018060 1_554
Fe5 O9 2.018266 1_555
F0 Fe3 2.095119 1_555
F0 Fe3 2.095299 1_554
F0 Mg0 2.165574 1_555
F0 Fe5 2.446273 1_555
