# generated using pymatgen
data_HoBH4
_symmetry_space_group_name_H-M   'P 1'
_cell_length_a   4.10279534
_cell_length_b   5.67562009
_cell_length_c   6.79971906
_cell_angle_alpha   114.66817775
_cell_angle_beta   107.52613845
_cell_angle_gamma   90.01387033
_symmetry_Int_Tables_number   1
_chemical_formula_structural   HoBH4
_chemical_formula_sum   'Ho3 B3 H12'
_cell_volume   135.75195461
_cell_formula_units_Z   3
loop_
 _symmetry_equiv_pos_site_id
 _symmetry_equiv_pos_as_xyz
  1  'x, y, z'
loop_
 _atom_site_type_symbol
 _atom_site_label
 _atom_site_symmetry_multiplicity
 _atom_site_fract_x
 _atom_site_fract_y
 _atom_site_fract_z
 _atom_site_occupancy
  Ho  Ho0  1  0.99998500  0.53331200  0.99995500  1
  Ho  Ho1  1  0.34930100  0.89474200  0.67323400  1
  Ho  Ho2  1  0.65056900  0.22157000  0.32676300  1
  B  B0  1  0.00003100  0.05150000  0.00005900  1
  B  B1  1  0.32852400  0.38664600  0.66758300  1
  B  B2  1  0.67168200  0.71907700  0.33235300  1
  H  H0  1  0.90660200  0.08901100  0.81540800  1
  H  H1  1  0.09341500  0.27366100  0.18458500  1
  H  H2  1  0.74946900  0.91264700  0.99646200  1
  H  H3  1  0.25026000  0.91631000  0.00352200  1
  H  H4  1  0.08491500  0.52274500  0.67606000  1
  H  H5  1  0.91525300  0.84664000  0.32396400  1
  H  H6  1  0.41376900  0.33633900  0.84083600  1
  H  H7  1  0.58604500  0.49551600  0.15911400  1
  H  H8  1  0.58161100  0.52044300  0.67267500  1
  H  H9  1  0.41860300  0.84780400  0.32744900  1
  H  H10  1  0.23646300  0.17735700  0.48218200  1
  H  H11  1  0.76350300  0.69508000  0.51779600  1
loop_
_geom_bond_atom_site_label_1
_geom_bond_atom_site_label_2
_geom_bond_distance
_geom_bond_site_symmetry_2
B0 H3 1.282253 1_545
B0 H2 1.283289 1_444
B0 H1 1.304081 1_555
B0 H0 1.304618 1_454
B1 H4 1.263668 1_555
B1 H10 1.267260 1_555
B1 H8 1.269675 1_555
B1 H6 1.274506 1_555
B2 H5 1.262746 1_555
B2 H11 1.267978 1_555
B2 H9 1.269991 1_555
B2 H7 1.274331 1_555
H0 Ho0 2.269130 1_555
H0 Ho1 2.270697 1_545
H0 Ho1 2.370238 1_645
H1 Ho0 2.269261 1_454
H1 Ho2 2.270518 1_555
H1 Ho2 2.370539 1_455
H2 Ho1 2.275218 1_555
H2 Ho2 2.354842 1_566
H2 Ho0 2.391917 1_555
H3 Ho2 2.275060 1_565
H3 Ho1 2.354611 1_554
H3 Ho0 2.391666 1_454
H4 Ho0 2.308142 1_455
H4 Ho1 2.383264 1_555
H4 Ho2 2.408144 1_455
H5 Ho0 2.308341 1_554
H5 Ho2 2.384872 1_565
H5 Ho1 2.407791 1_655
H6 Ho1 2.254851 1_545
H6 Ho0 2.323805 1_455
H6 Ho0 2.372090 1_555
H7 Ho2 2.254991 1_555
H7 Ho0 2.324242 1_554
H7 Ho0 2.371827 1_454
H8 Ho1 2.327630 1_555
H8 Ho0 2.338325 1_555
H8 Ho2 2.358058 1_555
H9 Ho2 2.327202 1_565
H9 Ho0 2.339204 1_454
H9 Ho1 2.357961 1_555
H10 Ho2 2.317096 1_555
H10 Ho2 2.376914 1_455
H10 Ho1 2.419166 1_545
H11 Ho1 2.317784 1_555
H11 Ho1 2.376260 1_655
H11 Ho2 2.418140 1_555
