# generated using pymatgen
data_Y2MgCr2O8
_symmetry_space_group_name_H-M   'P 1'
_cell_length_a   6.00764571
_cell_length_b   6.21183035
_cell_length_c   6.00764568
_cell_angle_alpha   104.76148669
_cell_angle_beta   105.87040146
_cell_angle_gamma   116.60648072
_symmetry_Int_Tables_number   1
_chemical_formula_structural   Y2MgCr2O8
_chemical_formula_sum   'Y2 Mg1 Cr2 O8'
_cell_volume   173.27152089
_cell_formula_units_Z   1
loop_
 _symmetry_equiv_pos_site_id
 _symmetry_equiv_pos_as_xyz
  1  'x, y, z'
loop_
 _atom_site_type_symbol
 _atom_site_label
 _atom_site_symmetry_multiplicity
 _atom_site_fract_x
 _atom_site_fract_y
 _atom_site_fract_z
 _atom_site_occupancy
  Y  Y0  1  0.15516700  0.91095600  0.29174700  1
  Y  Y1  1  0.88079200  0.08904400  0.74421100  1
  Mg  Mg0  1  0.73463000  0.50000000  0.73463000  1
  Cr  Cr0  1  0.35271300  0.63660000  0.75514700  1
  Cr  Cr1  1  0.61854700  0.36340000  0.21611300  1
  O  O0  1  0.82124200  0.70928000  0.46549700  1
  O  O1  1  0.38970100  0.80844900  0.56101000  1
  O  O2  1  0.73436200  0.80163000  0.94572600  1
  O  O3  1  0.77646600  0.35464600  0.00898600  1
  O  O4  1  0.64409500  0.19837000  0.43273300  1
  O  O5  1  0.25621600  0.29072000  0.61196200  1
  O  O6  1  0.15434000  0.64535400  0.92182100  1
  O  O7  1  0.25256100  0.19155100  0.08125100  1
loop_
_geom_bond_atom_site_label_1
_geom_bond_atom_site_label_2
_geom_bond_distance
_geom_bond_site_symmetry_2
Mg0 O4 1.977847 1_555
Mg0 O2 1.977853 1_555
Mg0 O3 2.080909 1_556
Mg0 O6 2.080909 1_655
Mg0 O0 2.345284 1_555
Mg0 O5 2.345289 1_555
Cr0 O6 1.763189 1_555
Cr0 O1 1.764348 1_555
Cr0 O5 1.833590 1_555
Cr0 O2 1.865359 1_555
Cr1 O3 1.763184 1_555
Cr1 O7 1.764348 1_555
Cr1 O0 1.833592 1_555
Cr1 O4 1.865363 1_555
O0 Y1 2.323837 1_565
O0 Y0 2.498802 1_655
O1 Y0 2.255977 1_555
O1 Y1 2.365168 1_565
O2 Y1 2.388334 1_565
O2 Y0 2.458066 1_656
O3 Y1 2.404011 1_554
O3 Y0 2.802896 1_655
O4 Y0 2.388327 1_545
O4 Y1 2.458068 1_555
O5 Y0 2.323842 1_545
O5 Y1 2.498793 1_455
O6 Y0 2.404002 1_556
O6 Y1 2.802896 1_455
O7 Y1 2.255970 1_454
O7 Y0 2.365168 1_545
