# generated using pymatgen
data_MgVBr2O
_symmetry_space_group_name_H-M   'P 1'
_cell_length_a   4.17039044
_cell_length_b   3.74401042
_cell_length_c   9.50801793
_cell_angle_alpha   101.34330124
_cell_angle_beta   102.50481637
_cell_angle_gamma   90.02070435
_symmetry_Int_Tables_number   1
_chemical_formula_structural   MgVBr2O
_chemical_formula_sum   'Mg1 V1 Br2 O1'
_cell_volume   141.96204450
_cell_formula_units_Z   1
loop_
 _symmetry_equiv_pos_site_id
 _symmetry_equiv_pos_as_xyz
  1  'x, y, z'
loop_
 _atom_site_type_symbol
 _atom_site_label
 _atom_site_symmetry_multiplicity
 _atom_site_fract_x
 _atom_site_fract_y
 _atom_site_fract_z
 _atom_site_occupancy
  Mg  Mg0  1  0.75549200  0.76267900  0.51380100  1
  V  V0  1  0.00681600  0.00358100  0.00570900  1
  Br  Br0  1  0.33335100  0.83677500  0.67151700  1
  Br  Br1  1  0.66457800  0.17102600  0.33087600  1
  O  O0  1  0.98976400  0.49379500  0.98643100  1
loop_
_geom_bond_atom_site_label_1
_geom_bond_atom_site_label_2
_geom_bond_distance
_geom_bond_site_symmetry_2
Br0 Mg0 2.530653 1_455
Br0 Mg0 2.530796 1_555
Br1 Mg0 2.503402 1_545
Br1 Mg0 2.504783 1_555
O0 V0 1.879896 1_656
O0 V0 1.881014 1_666
