# generated using pymatgen
data_Ba(H2O3)2
_symmetry_space_group_name_H-M   'P 1'
_cell_length_a   5.70832874
_cell_length_b   5.70754993
_cell_length_c   10.09497262
_cell_angle_alpha   68.87445873
_cell_angle_beta   68.85699200
_cell_angle_gamma   51.64892129
_symmetry_Int_Tables_number   1
_chemical_formula_structural   Ba(H2O3)2
_chemical_formula_sum   'Ba2 H8 O12'
_cell_volume   236.33495027
_cell_formula_units_Z   2
loop_
 _symmetry_equiv_pos_site_id
 _symmetry_equiv_pos_as_xyz
  1  'x, y, z'
loop_
 _atom_site_type_symbol
 _atom_site_label
 _atom_site_symmetry_multiplicity
 _atom_site_fract_x
 _atom_site_fract_y
 _atom_site_fract_z
 _atom_site_occupancy
  Ba  Ba0  1  0.03626317  0.96398366  0.75000292  1
  Ba  Ba1  1  0.96373683  0.03601634  0.24999708  1
  H  H0  1  0.71501430  0.66693340  0.57375471  1
  H  H1  1  0.33370264  0.28508534  0.92583914  1
  H  H2  1  0.28498570  0.33306660  0.42624529  1
  H  H3  1  0.66629736  0.71491466  0.07416086  1
  H  H4  1  0.35059493  0.45018752  0.51457244  1
  H  H5  1  0.55191551  0.64732634  0.98545922  1
  H  H6  1  0.64940507  0.54981248  0.48542756  1
  H  H7  1  0.44808449  0.35267366  0.01454078  1
  O  O0  1  0.81099685  0.87631883  0.57947492  1
  O  O1  1  0.12390688  0.18920637  0.92062616  1
  O  O2  1  0.18900315  0.12368117  0.42052508  1
  O  O3  1  0.87609312  0.81079363  0.07937384  1
  O  O4  1  0.56593589  0.02070453  0.67916410  1
  O  O5  1  0.97919031  0.43436559  0.82116236  1
  O  O6  1  0.43406411  0.97929547  0.32083590  1
  O  O7  1  0.02080969  0.56563441  0.17883764  1
  O  O8  1  0.64062497  0.54107188  0.58463708  1
  O  O9  1  0.45895671  0.35994936  0.91522694  1
  O  O10  1  0.35937503  0.45892812  0.41536292  1
  O  O11  1  0.54104329  0.64005064  0.08477306  1
loop_
_geom_bond_atom_site_label_1
_geom_bond_atom_site_label_2
_geom_bond_distance
_geom_bond_site_symmetry_2
Ba0 O0 2.807769 1_455
Ba0 O1 2.808071 1_565
Ba0 O4 2.822022 1_465
Ba0 O5 2.822386 1_465
Ba0 O9 2.873893 1_465
Ba0 O8 2.874250 1_465
Ba0 O9 2.987471 1_555
Ba0 O8 2.988486 1_555
Ba0 O4 3.040732 1_565
Ba0 O5 3.040996 1_455
Ba0 O3 3.059311 1_456
Ba0 O2 3.059841 1_565
Ba1 O2 2.807769 1_655
Ba1 O3 2.808071 1_545
Ba1 O6 2.822022 1_645
Ba1 O7 2.822386 1_645
Ba1 O11 2.873893 1_645
Ba1 O10 2.874250 1_645
Ba1 O11 2.987471 1_555
Ba1 O10 2.988486 1_555
Ba1 O6 3.040732 1_545
Ba1 O7 3.040996 1_655
Ba1 O1 3.059311 1_654
Ba1 O0 3.059841 1_545
H0 O8 0.998217 1_555
H0 O0 1.617673 1_555
H1 O9 0.998067 1_555
H1 O1 1.617385 1_555
H2 O10 0.998217 1_555
H2 O2 1.617673 1_555
H3 O11 0.998067 1_555
H3 O3 1.617385 1_555
H4 O10 0.968976 1_555
H5 O11 0.969033 1_556
H6 O8 0.968976 1_555
H7 O9 0.969033 1_554
O0 O4 1.341797 1_565
O1 O5 1.341538 1_455
O2 O6 1.341797 1_545
O3 O7 1.341538 1_655
