# generated using pymatgen
data_Sr2LuIrO6
_symmetry_space_group_name_H-M   'P 1'
_cell_length_a   5.79459200
_cell_length_b   5.77861200
_cell_length_c   10.00675191
_cell_angle_alpha   54.93294100
_cell_angle_beta   90.00000000
_cell_angle_gamma   90.00000000
_symmetry_Int_Tables_number   1
_chemical_formula_structural   Sr2LuIrO6
_chemical_formula_sum   'Sr4 Lu2 Ir2 O12'
_cell_volume   274.25066670
_cell_formula_units_Z   2
loop_
 _symmetry_equiv_pos_site_id
 _symmetry_equiv_pos_as_xyz
  1  'x, y, z'
loop_
 _atom_site_type_symbol
 _atom_site_label
 _atom_site_symmetry_multiplicity
 _atom_site_fract_x
 _atom_site_fract_y
 _atom_site_fract_z
 _atom_site_occupancy
  Sr  Sr0  1  0.52637200  0.74503700  0.75026100  1
  Sr  Sr1  1  0.97362800  0.74503700  0.25026100  1
  Sr  Sr2  1  0.02637200  0.25496300  0.74973900  1
  Sr  Sr3  1  0.47362800  0.25496300  0.24973900  1
  Lu  Lu0  1  0.00000000  0.00000000  0.50000000  1
  Lu  Lu1  1  0.50000000  0.00000000  0.00000000  1
  Ir  Ir0  1  0.50000000  0.50000000  0.50000000  1
  Ir  Ir1  1  0.00000000  0.50000000  0.00000000  1
  O  O0  1  0.70782200  0.26051600  0.46913000  1
  O  O1  1  0.48740800  0.20059900  0.73895500  1
  O  O2  1  0.77097200  0.67301300  0.53328400  1
  O  O3  1  0.79217800  0.26051600  0.96913000  1
  O  O4  1  0.72902800  0.67301300  0.03328400  1
  O  O5  1  0.51259200  0.79940100  0.26104500  1
  O  O6  1  0.22902800  0.32698700  0.46671600  1
  O  O7  1  0.27097200  0.32698700  0.96671600  1
  O  O8  1  0.29217800  0.73948400  0.53087000  1
  O  O9  1  0.98740800  0.79940100  0.76104500  1
  O  O10  1  0.01259200  0.20059900  0.23895500  1
  O  O11  1  0.20782200  0.73948400  0.03087000  1
loop_
_geom_bond_atom_site_label_1
_geom_bond_atom_site_label_2
_geom_bond_distance
_geom_bond_site_symmetry_2
Lu0 O9 2.166394 1_445
Lu0 O10 2.166394 1_555
Lu0 O0 2.166514 1_455
Lu0 O8 2.166514 1_545
Lu0 O6 2.172410 1_555
Lu0 O2 2.172410 1_445
Lu1 O5 2.166394 1_545
Lu1 O1 2.166394 1_554
Lu1 O3 2.166514 1_554
Lu1 O11 2.166514 1_545
Lu1 O7 2.172410 1_554
Lu1 O4 2.172410 1_545
Ir0 O8 1.987960 1_555
Ir0 O0 1.987960 1_555
Ir0 O2 1.989611 1_555
Ir0 O6 1.989611 1_555
Ir0 O1 1.990629 1_555
Ir0 O5 1.990629 1_555
Ir1 O11 1.987960 1_555
Ir1 O3 1.987960 1_454
Ir1 O4 1.989611 1_455
Ir1 O7 1.989611 1_554
Ir1 O9 1.990629 1_454
Ir1 O10 1.990629 1_555
O0 Sr3 2.596792 1_555
O0 Sr1 2.821719 1_555
O0 Sr0 2.874644 1_545
O1 Sr0 2.579086 1_545
O1 Sr2 2.699312 1_555
O2 Sr2 2.589424 1_655
O2 Sr0 2.816870 1_555
O2 Sr1 2.866845 1_555
O3 Sr2 2.596792 1_655
O3 Sr0 2.821719 1_555
O3 Sr1 2.874644 1_546
O4 Sr3 2.589424 1_555
O4 Sr1 2.816870 1_555
O4 Sr0 2.866845 1_554
O5 Sr3 2.579086 1_565
O5 Sr1 2.699312 1_555
O6 Sr1 2.589424 1_455
O6 Sr3 2.816870 1_555
O6 Sr2 2.866845 1_555
O7 Sr0 2.589424 1_555
O7 Sr2 2.816870 1_555
O7 Sr3 2.866845 1_556
O8 Sr0 2.596792 1_555
O8 Sr2 2.821719 1_555
O8 Sr3 2.874644 1_565
O9 Sr2 2.579086 1_665
O9 Sr0 2.699312 1_555
O10 Sr1 2.579086 1_445
O10 Sr3 2.699312 1_555
O11 Sr1 2.596792 1_455
O11 Sr3 2.821719 1_555
O11 Sr2 2.874644 1_564
