# generated using pymatgen
data_Na10In4Si7Ge4S5O48
_symmetry_space_group_name_H-M   'P 1'
_cell_length_a   17.84258179
_cell_length_b   9.00913550
_cell_length_c   22.32291030
_cell_angle_alpha   89.87469581
_cell_angle_beta   85.66287465
_cell_angle_gamma   119.95136049
_symmetry_Int_Tables_number   1
_chemical_formula_structural   Na10In4Si7Ge4S5O48
_chemical_formula_sum   'Na30 In12 Si21 Ge12 S15 O144'
_cell_volume   3096.88308469
_cell_formula_units_Z   3
loop_
 _symmetry_equiv_pos_site_id
 _symmetry_equiv_pos_as_xyz
  1  'x, y, z'
loop_
 _atom_site_type_symbol
 _atom_site_label
 _atom_site_symmetry_multiplicity
 _atom_site_fract_x
 _atom_site_fract_y
 _atom_site_fract_z
 _atom_site_occupancy
  Na  Na0  1  0.17392969  0.34071141  0.23976669  1
  Na  Na1  1  0.67592119  0.34528227  0.24228846  1
  Na  Na2  1  0.98421321  0.64199566  0.25432601  1
  Na  Na3  1  0.48529301  0.64163509  0.25576252  1
  Na  Na4  1  0.48471997  0.32633645  0.76658957  1
  Na  Na5  1  0.17303565  0.00715907  0.74262770  1
  Na  Na6  1  0.67321820  0.00646550  0.74319823  1
  Na  Na7  1  0.65737292  0.34094304  0.58404583  1
  Na  Na8  1  0.00876792  0.67033248  0.58497858  1
  Na  Na9  1  0.82709091  0.97032693  0.59224666  1
  Na  Na10  1  0.48650061  0.67597853  0.92539569  1
  Na  Na11  1  0.99330630  0.67658976  0.91825947  1
  Na  Na12  1  0.83537094  -0.01126884  0.90761824  1
  Na  Na13  1  0.15612876  0.29607801  0.92102919  1
  Na  Na14  1  0.48699854  0.30057358  0.42045560  1
  Na  Na15  1  0.98105447  0.29366709  0.42036944  1
  Na  Na16  1  0.34075132  0.67110333  0.39909255  1
  Na  Na17  1  0.84335924  0.67708610  0.40093650  1
  Na  Na18  1  0.02643825  -0.00758402  0.49723612  1
  Na  Na19  1  0.52807493  0.96887668  0.49390071  1
  Na  Na20  1  0.00369753  0.01146281  -0.00156464  1
  Na  Na21  1  0.52735517  0.08859266  0.99491173  1
  Na  Na22  1  0.32659816  0.32488887  0.83085652  1
  Na  Na23  1  0.83761340  0.32758136  0.82750693  1
  Na  Na24  1  0.31589529  0.28015767  0.32623793  1
  Na  Na25  1  0.81801143  0.28064384  0.32896349  1
  Na  Na26  1  0.18125844  0.68398143  0.16417171  1
  Na  Na27  1  0.68379762  0.68479342  0.16625242  1
  Na  Na28  1  0.18290201  0.67489049  0.66663552  1
  Na  Na29  1  0.66544865  0.66129633  0.66720656  1
  In  In0  1  0.00339410  0.00746527  0.35113799  1
  In  In1  1  0.50280579  0.00630026  0.35078630  1
  In  In2  1  -0.00044886  0.99533672  0.84930721  1
  In  In3  1  0.49078655  -0.01066941  0.85584820  1
  In  In4  1  0.33429882  0.32507671  0.68700548  1
  In  In5  1  0.83710839  0.33125564  0.68706731  1
  In  In6  1  0.34022844  0.35462561  0.18342080  1
  In  In7  1  0.83877641  0.35106144  0.18368479  1
  In  In8  1  0.14998291  0.62952060  0.02061839  1
  In  In9  1  0.65317017  0.63574378  0.02383753  1
  In  In10  1  0.16388114  0.67745974  0.51931176  1
  In  In11  1  0.65702791  0.67040606  0.52208628  1
  Si  Si0  1  0.34933131  0.72881714  0.24831073  1
  Si  Si1  1  0.85011617  0.72843729  0.24886905  1
  Si  Si2  1  0.99684009  0.29635702  0.25047538  1
  Si  Si3  1  0.49724008  0.29461967  0.24994976  1
  Si  Si4  1  -0.00269015  0.69302796  0.75064905  1
  Si  Si5  1  0.49380031  0.69423940  0.75343640  1
  Si  Si6  1  0.34924514  0.97243687  0.74763559  1
  Si  Si7  1  0.84722459  0.97316675  0.75099451  1
  Si  Si8  1  0.18492684  0.04864367  0.58849138  1
  Si  Si9  1  0.68630576  0.04919822  0.58713950  1
  Si  Si10  1  0.83302204  0.62981724  0.57886244  1
  Si  Si11  1  0.18587337  0.32485632  0.08700112  1
  Si  Si12  1  0.68675080  0.32974581  0.08902811  1
  Si  Si13  1  0.01568167  0.37118443  0.91746562  1
  Si  Si14  1  0.51613739  0.37501882  0.92000331  1
  Si  Si15  1  0.16520860  0.94731585  0.91330779  1
  Si  Si16  1  0.66546681  0.95491113  0.91722379  1
  Si  Si17  1  0.16759382  0.37802682  0.41414098  1
  Si  Si18  1  0.66434594  0.37242066  0.41624190  1
  Si  Si19  1  0.01875908  0.65974401  0.41951623  1
  Si  Si20  1  0.51745976  0.66061098  0.41803261  1
  Ge  Ge0  1  0.98734558  0.94619063  0.64370408  1
  Ge  Ge1  1  0.48868490  0.94361338  0.64443146  1
  Ge  Ge2  1  0.99191882  0.03242564  0.14235008  1
  Ge  Ge3  1  0.49290627  0.02738723  0.14156849  1
  Ge  Ge4  1  0.31749662  0.27813692  0.97380840  1
  Ge  Ge5  1  0.81629450  0.30255281  0.97042764  1
  Ge  Ge6  1  0.31811170  0.33261288  0.47062306  1
  Ge  Ge7  1  0.81974785  0.36932865  0.47415329  1
  Ge  Ge8  1  0.15451313  0.61648737  0.30875458  1
  Ge  Ge9  1  0.65367993  0.62025622  0.30916237  1
  Ge  Ge10  1  0.15372186  0.68873505  0.80745750  1
  Ge  Ge11  1  0.65354937  0.69536373  0.81061003  1
  S  S0  1  0.15041224  0.99131891  0.24979217  1
  S  S1  1  0.65026328  0.98763991  0.24950882  1
  S  S2  1  0.14786341  0.31205837  0.75600699  1
  S  S3  1  0.64372236  0.29834073  0.74774335  1
  S  S4  1  0.47951215  0.30681678  0.58111083  1
  S  S5  1  0.98984447  0.31694590  0.58030798  1
  S  S6  1  0.34131171  0.63206860  0.57738350  1
  S  S7  1  0.49494081  0.68261861  0.08879158  1
  S  S8  1  0.99366773  0.67134307  0.08709061  1
  S  S9  1  0.34081801  0.05132011  0.07947884  1
  S  S10  1  0.84056885  0.05006450  0.07800838  1
  S  S11  1  0.30650417  0.64736544  0.92255708  1
  S  S12  1  0.81008789  0.64411336  0.92482484  1
  S  S13  1  0.31108856  0.97599991  0.42362092  1
  S  S14  1  0.80904914  0.96719949  0.42144166  1
  O  O0  1  0.12505573  0.04332680  0.30844485  1
  O  O1  1  0.62333823  0.03363829  0.30867869  1
  O  O2  1  0.41253731  0.80022169  0.30293956  1
  O  O3  1  0.91398295  0.80023905  0.30285183  1
  O  O4  1  0.48584479  0.19826089  0.31377457  1
  O  O5  1  0.98639760  0.19905299  0.31369682  1
  O  O6  1  0.11770052  0.23546681  0.81932850  1
  O  O7  1  0.60332203  0.19670742  0.80495536  1
  O  O8  1  0.48457179  0.77311974  0.81574767  1
  O  O9  1  0.99265268  0.77988481  0.81268559  1
  O  O10  1  0.41766154  0.02624732  0.79663252  1
  O  O11  1  0.89914150  -0.00771534  0.80855156  1
  O  O12  1  0.39826163  0.95218731  0.68058477  1
  O  O13  1  0.90014728  0.96397490  0.68454721  1
  O  O14  1  0.09656321  0.18585407  0.71348863  1
  O  O15  1  0.60241315  0.19840419  0.69523794  1
  O  O16  1  0.01050842  0.81188430  0.68835077  1
  O  O17  1  0.51129858  0.81719828  0.69190905  1
  O  O18  1  0.39949529  0.85107506  0.18520210  1
  O  O19  1  0.90140094  0.85315656  0.18525713  1
  O  O20  1  0.01447822  0.20627239  0.19094027  1
  O  O21  1  0.51377659  0.20078266  0.19111525  1
  O  O22  1  0.10039210  0.00044147  0.20231310  1
  O  O23  1  0.59947063  0.99473240  0.20225502  1
  O  O24  1  0.42950640  0.28356384  0.63972201  1
  O  O25  1  0.93819133  0.30949894  0.63609138  1
  O  O26  1  0.23395134  0.12895465  0.64724957  1
  O  O27  1  0.73972364  0.12159190  0.64511529  1
  O  O28  1  0.32855181  0.51760324  0.62837321  1
  O  O29  1  0.82406627  0.49396490  0.62854215  1
  O  O30  1  0.45242438  0.58839406  0.14798555  1
  O  O31  1  0.94925142  0.58062668  0.14635949  1
  O  O32  1  0.33304767  0.14452404  0.13059392  1
  O  O33  1  0.83361386  0.14776844  0.12809560  1
  O  O34  1  0.23688090  0.33731094  0.14493280  1
  O  O35  1  0.73389796  0.33725039  0.14842894  1
  O  O36  1  0.23953937  0.29958982  0.02299140  1
  O  O37  1  0.74384594  0.30591778  0.02751800  1
  O  O38  1  0.45369539  0.58206605  0.03788232  1
  O  O39  1  0.95421701  0.56748287  0.03612941  1
  O  O40  1  0.35084447  0.14511475  0.02017214  1
  O  O41  1  0.84600186  0.13123205  0.01794488  1
  O  O42  1  0.23939651  0.18233511  0.52562643  1
  O  O43  1  0.74045260  0.19395455  0.52613056  1
  O  O44  1  0.34853646  0.56239765  0.51765771  1
  O  O45  1  0.84601514  0.56560868  0.51047519  1
  O  O46  1  0.43942455  0.33306945  0.53023555  1
  O  O47  1  0.95360150  0.34370703  0.52698042  1
  O  O48  1  0.26790013  0.64079421  0.98389512  1
  O  O49  1  0.76887096  0.62990153  0.98540677  1
  O  O50  1  0.07561035  0.41785167  0.97293885  1
  O  O51  1  0.56597150  0.43260528  0.97968437  1
  O  O52  1  0.14361908  0.80617720  0.96520319  1
  O  O53  1  0.67302569  0.83623771  0.96706935  1
  O  O54  1  0.26984643  0.91660141  0.48501320  1
  O  O55  1  0.77181448  0.90413693  0.48398840  1
  O  O56  1  0.17523592  0.50597309  0.46596466  1
  O  O57  1  0.66023345  0.47137000  0.47520117  1
  O  O58  1  0.06571526  0.69556846  0.48104508  1
  O  O59  1  0.57102901  0.70376867  0.47549570  1
  O  O60  1  0.07092441  0.61969185  0.36015239  1
  O  O61  1  0.56538254  0.62088305  0.35633459  1
  O  O62  1  0.26025116  0.87258455  0.37641741  1
  O  O63  1  0.75631271  0.85207595  0.37669876  1
  O  O64  1  0.18522530  0.47940937  0.34708626  1
  O  O65  1  0.67927055  0.48323192  0.35215510  1
  O  O66  1  0.06722386  0.51902062  0.85950022  1
  O  O67  1  0.56803565  0.51617274  0.85888860  1
  O  O68  1  0.17745774  0.88453848  0.84547698  1
  O  O69  1  0.68024502  0.88842969  0.84948755  1
  O  O70  1  0.25804858  0.66351690  0.87572942  1
  O  O71  1  0.76255424  0.65352998  0.87646734  1
  O  O72  1  0.99593844  0.80922432  0.40792985  1
  O  O73  1  0.48935279  0.80326577  0.40776742  1
  O  O74  1  0.39725057  0.98543559  0.42230576  1
  O  O75  1  0.89675414  0.97802617  0.41954263  1
  O  O76  1  0.07921478  0.19422911  0.41785018  1
  O  O77  1  0.57925823  0.18373033  0.41625192  1
  O  O78  1  -0.01429281  0.17136003  0.90772101  1
  O  O79  1  0.49063376  0.18045083  0.90885876  1
  O  O80  1  0.08655968  0.99282585  0.91507300  1
  O  O81  1  0.57928790  0.97107573  0.92104825  1
  O  O82  1  0.39756815  0.79187671  0.92245577  1
  O  O83  1  0.89973126  0.80055424  0.92382602  1
  O  O84  1  0.49165747  0.15688522  0.57228546  1
  O  O85  1  0.98911428  0.15247483  0.57559676  1
  O  O86  1  0.08805795  0.03931652  0.59328241  1
  O  O87  1  0.58861810  0.03986161  0.59234825  1
  O  O88  1  0.43086377  0.79528720  0.57900361  1
  O  O89  1  0.92648901  0.81303156  0.58299904  1
  O  O90  1  0.48932835  0.84255829  0.08634495  1
  O  O91  1  0.98879147  0.83142624  0.08314297  1
  O  O92  1  0.42735381  0.05638610  0.07859899  1
  O  O93  1  0.92912590  0.05904944  0.07853200  1
  O  O94  1  0.08943946  0.14184381  0.09066051  1
  O  O95  1  0.58978130  0.14933261  0.09010844  1
  O  O96  1  0.32607069  0.12834879  0.74659219  1
  O  O97  1  0.82287247  0.12432303  0.74715901  1
  O  O98  1  0.24148504  0.35511398  0.75002092  1
  O  O99  1  0.73627235  0.34356449  0.74751324  1
  O  O100  1  0.42062664  0.49551762  0.74675242  1
  O  O101  1  0.91926202  0.50120986  0.74706137  1
  O  O102  1  0.32586797  0.52787026  0.24489077  1
  O  O103  1  0.82666943  0.52844997  0.24492167  1
  O  O104  1  0.42158241  0.34320162  0.24493994  1
  O  O105  1  0.92081496  0.34350609  0.24554325  1
  O  O106  1  0.24545062  0.11486496  0.24066036  1
  O  O107  1  0.74510423  0.11382476  0.24074989  1
  O  O108  1  0.30834875  0.48141718  0.91374071  1
  O  O109  1  0.82256197  0.48867754  0.91680037  1
  O  O110  1  0.42179405  0.38639315  0.93028756  1
  O  O111  1  0.92455987  0.38476028  0.93139586  1
  O  O112  1  0.25734488  0.13635965  0.91847400  1
  O  O113  1  0.75883388  0.14676202  0.91632072  1
  O  O114  1  0.32651543  0.15802989  0.41565553  1
  O  O115  1  0.82237228  0.14283950  0.41263535  1
  O  O116  1  0.25819234  0.36353026  0.41446069  1
  O  O117  1  0.75796374  0.36888001  0.41303617  1
  O  O118  1  0.42248562  0.46909960  0.42722942  1
  O  O119  1  0.92301799  0.46820539  0.42478276  1
  O  O120  1  0.17023159  0.48752557  0.08675779  1
  O  O121  1  0.67251550  0.49432211  0.08884070  1
  O  O122  1  0.08586281  0.71095023  0.09017737  1
  O  O123  1  0.58796270  0.72626996  0.08954067  1
  O  O124  1  0.26828656  0.87619091  0.08088773  1
  O  O125  1  0.77125912  0.87051845  0.08379190  1
  O  O126  1  0.16260181  0.84793065  0.58548601  1
  O  O127  1  0.67092414  0.85682186  0.58403747  1
  O  O128  1  0.27292252  0.67889622  0.58062910  1
  O  O129  1  0.75062107  0.66098818  0.58262379  1
  O  O130  1  0.07933096  0.46779108  0.58681616  1
  O  O131  1  0.56708104  0.46356844  0.58901816  1
  O  O132  1  0.13418795  0.81217345  0.25412012  1
  O  O133  1  0.63631120  0.80962936  0.25257919  1
  O  O134  1  0.25608107  0.73314246  0.25940760  1
  O  O135  1  0.75628046  0.73025071  0.26029909  1
  O  O136  1  0.09277518  0.48348621  0.24938595  1
  O  O137  1  0.59305038  0.48178870  0.24966077  1
  O  O138  1  0.14174154  0.46924311  0.75013831  1
  O  O139  1  0.63480775  0.45398598  0.74648021  1
  O  O140  1  0.09487974  0.70510155  0.74684900  1
  O  O141  1  0.59006243  0.70004591  0.75146100  1
  O  O142  1  0.25751477  0.78428872  0.75822389  1
  O  O143  1  0.75175052  0.78179435  0.75803396  1
loop_
_geom_bond_atom_site_label_1
_geom_bond_atom_site_label_2
_geom_bond_distance
_geom_bond_site_symmetry_2
Na0 O34 2.327896 1_555
Na0 O136 2.368822 1_555
Na0 O102 2.385143 1_555
Na0 O64 2.678797 1_555
Na0 O0 2.781321 1_555
Na0 O20 2.789827 1_555
Na0 O22 2.824695 1_555
Na0 O106 2.892257 1_555
Na1 O35 2.283168 1_555
Na1 O137 2.346418 1_555
Na1 O103 2.356598 1_555
Na2 O132 2.326529 1_655
Na2 O105 2.355392 1_555
Na2 O103 2.492203 1_555
Na2 O3 2.522171 1_555
Na2 O31 2.528313 1_555
Na3 O133 2.335532 1_555
Na3 O104 2.360478 1_555
Na3 O30 2.509962 1_555
Na3 O102 2.528872 1_555
Na3 O2 2.547021 1_555
Na3 O61 2.804903 1_555
Na4 O139 2.331575 1_555
Na4 O100 2.375103 1_555
Na4 O10 2.414787 1_555
Na4 O96 2.558648 1_555
Na4 O67 2.705559 1_555
Na5 O26 2.316763 1_555
Na5 O140 2.355551 1_545
Na5 O96 2.390785 1_555
Na5 O68 2.569256 1_545
Na5 O14 2.683222 1_555
Na5 O98 2.748724 1_555
Na5 O16 2.901557 1_545
Na6 O97 2.338880 1_555
Na6 O27 2.376110 1_555
Na6 O141 2.392218 1_545
Na6 O69 2.635009 1_545
Na6 O99 2.665363 1_555
Na6 O15 2.847847 1_555
Na6 O17 2.855672 1_545
Na6 O7 2.877150 1_555
Na7 O87 2.353209 1_555
Na7 O131 2.361971 1_555
Na7 O129 2.506832 1_555
Na7 O84 2.604752 1_555
Na7 O15 2.670606 1_555
Na7 O57 2.682493 1_555
Na7 O43 2.701879 1_555
Na7 O29 2.844614 1_555
Na8 O89 2.388318 1_455
Na8 O126 2.390313 1_555
Na8 O58 2.424343 1_555
Na8 O16 2.633683 1_555
Na8 O130 2.686620 1_555
Na9 O129 2.434036 1_555
Na9 O127 2.465012 1_555
Na9 O85 2.507232 1_565
Na9 O13 2.535337 1_555
Na9 O55 2.635908 1_555
Na9 O27 2.744086 1_565
Na9 O89 2.766152 1_555
Na9 O25 2.912503 1_565
Na10 O110 2.263480 1_555
Na10 O82 2.298319 1_555
Na10 O81 2.323342 1_555
Na10 O38 2.576357 1_556
Na10 O8 2.606067 1_555
Na10 O108 2.794233 1_555
Na10 O67 2.857869 1_555
Na11 O111 2.285813 1_555
Na11 O83 2.425177 1_555
Na11 O80 2.477540 1_655
Na11 O9 2.534889 1_555
Na11 O52 2.637802 1_655
Na11 O109 2.648329 1_555
Na11 O66 2.662906 1_655
Na11 O39 2.720740 1_556
Na12 O78 2.344428 1_655
Na12 O11 2.401866 1_555
Na12 O113 2.414979 1_555
Na12 O83 2.515515 1_545
Na12 O53 2.734267 1_545
Na12 O71 2.742129 1_545
Na12 O41 2.755162 1_556
Na12 O69 2.865720 1_545
Na13 O108 2.365330 1_555
Na13 O80 2.379665 1_545
Na13 O6 2.406110 1_555
Na13 O50 2.436777 1_555
Na13 O78 2.706192 1_555
Na13 O112 2.813331 1_555
Na14 O118 2.317921 1_555
Na14 O77 2.352458 1_555
Na14 O74 2.465030 1_545
Na14 O114 2.497018 1_555
Na14 O4 2.553297 1_555
Na14 O46 2.597763 1_555
Na14 O61 2.825130 1_555
Na15 O119 2.272822 1_555
Na15 O76 2.329220 1_655
Na15 O75 2.466293 1_545
Na15 O115 2.475045 1_555
Na15 O47 2.481091 1_555
Na15 O5 2.541980 1_555
Na15 O60 2.821194 1_655
Na16 O73 2.326290 1_555
Na16 O2 2.384600 1_555
Na16 O116 2.410284 1_555
Na16 O74 2.557158 1_555
Na16 O64 2.782358 1_555
Na16 O56 2.845983 1_555
Na16 O44 2.857209 1_555
Na16 O62 2.885031 1_555
Na16 O118 2.935458 1_555
Na17 O72 2.383697 1_555
Na17 O3 2.406027 1_555
Na17 O117 2.411305 1_555
Na17 O75 2.432367 1_555
Na17 O45 2.654113 1_555
Na17 O63 2.785434 1_555
Na17 O65 2.862264 1_555
Na17 O119 2.936939 1_555
Na18 O76 2.314476 1_555
Na18 O86 2.425044 1_555
Na18 O89 2.459590 1_445
Na18 O72 2.505189 1_445
Na18 O85 2.525154 1_455
Na19 O77 2.359240 1_565
Na19 O73 2.363165 1_555
Na19 O88 2.417295 1_555
Na19 O87 2.465950 1_565
Na19 O84 2.700527 1_565
Na19 O59 2.871425 1_555
Na19 O74 2.989338 1_555
Na20 O93 2.316071 1_455
Na20 O80 2.347361 1_544
Na20 O91 2.399351 1_445
Na20 O94 2.578986 1_555
Na20 O83 2.605182 1_444
Na20 O78 2.612684 1_554
Na21 O81 2.335455 1_545
Na21 O79 2.351393 1_555
Na21 O92 2.394645 1_556
Na21 O95 2.410494 1_556
Na21 O90 2.794357 1_546
Na21 O51 2.832552 1_555
Na22 O100 2.374514 1_555
Na22 O112 2.400297 1_555
Na22 O108 2.428321 1_555
Na22 O98 2.542013 1_555
Na22 O96 2.583442 1_555
Na22 O110 2.784685 1_555
Na23 O101 2.260655 1_555
Na23 O113 2.416214 1_555
Na23 O97 2.498839 1_555
Na23 O109 2.544128 1_555
Na23 O99 2.688158 1_555
Na23 O111 2.793151 1_555
Na24 O114 2.342336 1_555
Na24 O104 2.362311 1_555
Na24 O106 2.439964 1_555
Na24 O116 2.444312 1_555
Na24 O102 2.801150 1_555
Na25 O115 2.268114 1_555
Na25 O105 2.365271 1_555
Na25 O117 2.419679 1_555
Na25 O107 2.505358 1_555
Na25 O103 2.849749 1_555
Na25 O119 2.898533 1_555
Na26 O124 2.393851 1_555
Na26 O120 2.423774 1_555
Na26 O136 2.461075 1_555
Na26 O134 2.518149 1_555
Na26 O122 2.553617 1_555
Na26 O132 2.606620 1_555
Na27 O125 2.359684 1_555
Na27 O121 2.385781 1_555
Na27 O137 2.450610 1_555
Na27 O135 2.476553 1_555
Na27 O133 2.531869 1_555
Na27 O123 2.659707 1_555
Na28 O128 2.396381 1_555
Na28 O140 2.398031 1_555
Na28 O138 2.421913 1_555
Na28 O142 2.456436 1_555
Na28 O126 2.548278 1_555
Na28 O130 2.672207 1_555
Na29 O129 2.333404 1_555
Na29 O141 2.357469 1_555
Na29 O139 2.395480 1_555
Na29 O127 2.519083 1_555
Na29 O143 2.544244 1_555
Na29 O131 2.579755 1_555
In0 O5 2.079527 1_455
In0 O3 2.118310 1_445
In0 O72 2.131194 1_445
In0 O0 2.170321 1_555
In0 O76 2.218504 1_555
In0 O75 2.253289 1_445
In1 O4 2.078266 1_555
In1 O2 2.113012 1_545
In1 O73 2.127588 1_545
In1 O77 2.164724 1_555
In1 O1 2.175696 1_555
In1 O74 2.306887 1_545
In2 O9 2.057832 1_455
In2 O11 2.058064 1_465
In2 O78 2.151192 1_565
In2 O6 2.190540 1_565
In2 O80 2.223858 1_555
In2 O83 2.331732 1_455
In3 O10 2.062166 1_555
In3 O79 2.092398 1_555
In3 O8 2.101138 1_545
In3 O7 2.170888 1_555
In3 O82 2.191267 1_545
In3 O81 2.290156 1_545
In4 O26 2.050254 1_555
In4 O100 2.113573 1_555
In4 O24 2.122411 1_555
In4 O96 2.152302 1_555
In4 O98 2.211621 1_555
In4 O28 2.218115 1_555
In5 O29 2.070740 1_555
In5 O101 2.086006 1_555
In5 O27 2.107300 1_555
In5 O25 2.151689 1_555
In5 O97 2.191842 1_555
In5 O99 2.214206 1_555
In6 O34 2.028737 1_555
In6 O104 2.110358 1_555
In6 O30 2.147558 1_555
In6 O102 2.177182 1_555
In6 O32 2.186394 1_555
In6 O106 2.274171 1_555
In7 O35 2.031583 1_555
In7 O105 2.111600 1_555
In7 O31 2.128478 1_555
In7 O33 2.182084 1_555
In7 O103 2.186070 1_555
In7 O107 2.254623 1_555
In8 O50 2.055706 1_554
In8 O52 2.066194 1_554
In8 O120 2.116781 1_555
In8 O48 2.152749 1_554
In8 O122 2.198294 1_555
In8 O124 2.638729 1_555
In9 O51 2.034221 1_554
In9 O53 2.068122 1_554
In9 O121 2.086819 1_555
In9 O49 2.200300 1_554
In9 O123 2.205581 1_555
In9 O125 2.587139 1_555
In10 O56 2.032279 1_555
In10 O58 2.082115 1_555
In10 O54 2.123449 1_555
In10 O126 2.140360 1_555
In10 O130 2.216513 1_555
In10 O128 2.456977 1_555
In11 O59 2.055983 1_555
In11 O57 2.101331 1_555
In11 O127 2.107305 1_555
In11 O55 2.185027 1_555
In11 O131 2.217961 1_555
In11 O129 2.259298 1_555
Ge0 O16 1.784523 1_655
Ge0 O13 1.820050 1_555
Ge0 O89 1.839426 1_555
Ge0 O86 1.839678 1_665
Ge0 O85 2.384974 1_565
Ge1 O17 1.761074 1_555
Ge1 O12 1.785518 1_555
Ge1 O87 1.849636 1_565
Ge1 O88 1.960371 1_555
Ge2 O20 1.798754 1_655
Ge2 O19 1.813542 1_545
Ge2 O94 1.819182 1_655
Ge2 O93 1.962283 1_555
Ge2 O91 2.224809 1_545
Ge3 O21 1.814180 1_555
Ge3 O95 1.819964 1_555
Ge3 O18 1.831353 1_545
Ge3 O92 1.991067 1_555
Ge3 O90 2.052122 1_545
Ge4 O112 1.774178 1_555
Ge4 O36 1.793295 1_556
Ge4 O110 1.807825 1_555
Ge4 O40 1.913412 1_556
Ge4 O108 2.345082 1_555
Ge5 O37 1.756757 1_556
Ge5 O113 1.799374 1_555
Ge5 O111 1.831205 1_555
Ge5 O109 2.010239 1_555
Ge5 O41 2.164054 1_556
Ge6 O42 1.773790 1_555
Ge6 O116 1.814092 1_555
Ge6 O118 1.831351 1_555
Ge6 O114 2.053786 1_555
Ge6 O44 2.157829 1_555
Ge7 O45 1.800056 1_555
Ge7 O117 1.816501 1_555
Ge7 O43 1.831911 1_555
Ge7 O119 1.858201 1_555
Ge7 O115 2.479818 1_555
Ge8 O64 1.816485 1_555
Ge8 O136 1.820804 1_555
Ge8 O60 1.823719 1_555
Ge8 O134 1.842112 1_555
Ge8 O132 2.328707 1_555
Ge9 O65 1.810360 1_555
Ge9 O61 1.830008 1_555
Ge9 O137 1.835145 1_555
Ge9 O135 1.845238 1_555
Ge9 O133 2.275945 1_555
Ge10 O140 1.822928 1_555
Ge10 O68 1.823831 1_555
Ge10 O66 1.853138 1_555
Ge10 O142 1.864062 1_555
Ge10 O138 2.285497 1_555
Ge11 O69 1.802021 1_555
Ge11 O141 1.817152 1_555
Ge11 O143 1.837519 1_555
Ge11 O67 1.838419 1_555
O0 S0 1.504409 1_545
O1 S1 1.500789 1_545
O2 Si0 1.630893 1_555
O3 Si1 1.626105 1_555
O4 Si3 1.612269 1_555
O5 Si2 1.608304 1_555
O6 S2 1.507871 1_555
O7 S3 1.478399 1_555
O8 Si5 1.597951 1_555
O9 Si4 1.609115 1_655
O10 Si6 1.592115 1_545
O11 Si7 1.600076 1_545
O12 Si6 1.732342 1_555
O13 Si7 1.722051 1_555
O14 S2 1.458890 1_555
O15 S3 1.483334 1_555
O16 Si4 1.681725 1_555
O17 Si5 1.671572 1_555
O18 Si0 1.678398 1_555
O19 Si1 1.698845 1_555
O20 Si2 1.649376 1_455
O21 Si3 1.649838 1_555
O22 S0 1.463745 1_545
O23 S1 1.462950 1_555
O24 S4 1.478986 1_555
O25 S5 1.472701 1_555
O26 Si8 1.598375 1_555
O27 Si9 1.605699 1_555
O28 S6 1.460171 1_555
O29 Si10 1.589132 1_555
O30 S7 1.497528 1_555
O31 S8 1.495464 1_555
O32 S9 1.456973 1_555
O33 S10 1.460384 1_555
O34 Si11 1.609329 1_555
O35 Si12 1.607116 1_555
O36 Si11 1.738542 1_555
O37 Si12 1.725495 1_555
O38 S7 1.455692 1_555
O39 S8 1.460561 1_555
O40 S9 1.518910 1_555
O41 S10 1.499039 1_555
O42 Si8 1.726857 1_555
O43 Si9 1.738976 1_555
O44 S6 1.498872 1_555
O45 Si10 1.674253 1_555
O46 S4 1.465583 1_555
O47 S5 1.471149 1_555
O48 S11 1.472770 1_555
O49 S12 1.463187 1_555
O50 Si13 1.614690 1_555
O51 Si14 1.598828 1_555
O52 Si15 1.595051 1_555
O53 Si16 1.600261 1_555
O54 S13 1.468695 1_555
O55 S14 1.480858 1_555
O56 Si17 1.599481 1_555
O57 Si18 1.608768 1_555
O58 Si19 1.612018 1_555
O59 Si20 1.589567 1_555
O60 Si19 1.703967 1_555
O61 Si20 1.698754 1_555
O62 S13 1.451253 1_555
O63 S14 1.459753 1_555
O64 Si17 1.676208 1_555
O65 Si18 1.668787 1_555
O66 Si13 1.698055 1_555
O67 Si14 1.720852 1_555
O68 Si15 1.654539 1_555
O69 Si16 1.678084 1_555
O70 S11 1.457059 1_555
O71 S12 1.449726 1_555
O72 Si19 1.614993 1_655
O73 Si20 1.617224 1_555
O74 S13 1.494727 1_555
O75 S14 1.515819 1_555
O76 Si17 1.614844 1_555
O77 Si18 1.617898 1_555
O78 Si13 1.622390 1_555
O79 Si14 1.601291 1_555
O80 Si15 1.644728 1_555
O81 Si16 1.611420 1_555
O82 S11 1.490702 1_555
O83 S12 1.512844 1_555
O84 S4 1.482329 1_555
O85 S5 1.479325 1_555
O86 Si8 1.683097 1_555
O87 Si9 1.697513 1_555
O88 S6 1.542569 1_555
O89 Si10 1.670186 1_555
O90 S7 1.494598 1_555
O91 S8 1.490371 1_555
O92 S9 1.520367 1_555
O93 S10 1.542221 1_555
O94 Si11 1.682589 1_555
O95 Si12 1.679705 1_555
O96 Si6 1.650991 1_545
O97 Si7 1.626819 1_545
O98 S2 1.509216 1_555
O99 S3 1.489905 1_555
O100 Si5 1.621331 1_555
O101 Si4 1.595790 1_655
O102 Si0 1.645339 1_555
O103 Si1 1.637859 1_555
O104 Si3 1.624490 1_555
O105 Si2 1.621832 1_555
O106 S0 1.489295 1_545
O107 S1 1.490715 1_545
O108 S11 1.524609 1_555
O109 S12 1.532601 1_555
O110 Si14 1.735136 1_555
O111 Si13 1.696260 1_655
O112 Si15 1.688283 1_545
O113 Si16 1.697849 1_545
O114 S13 1.528839 1_545
O115 S14 1.488287 1_545
O116 Si17 1.686050 1_555
O117 Si18 1.682692 1_555
O118 Si20 1.707917 1_555
O119 Si19 1.713178 1_655
O120 Si11 1.623034 1_555
O121 Si12 1.624523 1_555
O122 S8 1.506396 1_455
O123 S7 1.504054 1_555
O124 S9 1.455993 1_565
O125 S10 1.462873 1_565
O126 Si8 1.648722 1_565
O127 Si9 1.616276 1_565
O128 S6 1.474113 1_555
O129 Si10 1.625189 1_555
O130 S5 1.512148 1_455
O131 S4 1.518644 1_555
O132 S0 1.492153 1_555
O133 S1 1.495622 1_555
O134 Si0 1.683341 1_555
O135 Si1 1.682638 1_555
O136 Si2 1.698466 1_455
O137 Si3 1.698742 1_555
O138 S2 1.479944 1_555
O139 S3 1.488475 1_555
O140 Si4 1.684724 1_555
O141 Si5 1.689239 1_555
O142 Si6 1.666550 1_555
O143 Si7 1.710197 1_555
