# generated using pymatgen
data_Na7CaTa3(SiO4)6
_symmetry_space_group_name_H-M   'P 1'
_cell_length_a   9.18612687
_cell_length_b   9.18612655
_cell_length_c   22.55119543
_cell_angle_alpha   90.00000000
_cell_angle_beta   90.00000000
_cell_angle_gamma   120.00000119
_symmetry_Int_Tables_number   1
_chemical_formula_structural   Na7CaTa3(SiO4)6
_chemical_formula_sum   'Na21 Ca3 Ta9 Si18 O72'
_cell_volume   1648.02979218
_cell_formula_units_Z   3
loop_
 _symmetry_equiv_pos_site_id
 _symmetry_equiv_pos_as_xyz
  1  'x, y, z'
loop_
 _atom_site_type_symbol
 _atom_site_label
 _atom_site_symmetry_multiplicity
 _atom_site_fract_x
 _atom_site_fract_y
 _atom_site_fract_z
 _atom_site_occupancy
  Na  Na0  1  0.64877568  0.02371283  0.24165763  1
  Na  Na1  1  0.37493716  0.35122432  0.24165763  1
  Na  Na2  1  0.97628717  0.62506284  0.24165763  1
  Na  Na3  1  0.62769940  0.60988663  0.74649805  1
  Na  Na4  1  0.98218724  0.37230060  0.74649805  1
  Na  Na5  1  0.39011337  0.01781276  0.74649805  1
  Na  Na6  1  0.31745801  0.33738408  0.58648927  1
  Na  Na7  1  0.01992708  0.68254199  0.58648927  1
  Na  Na8  1  0.66261592  0.98007292  0.58648927  1
  Na  Na9  1  0.32017281  0.98075070  0.08674709  1
  Na  Na10  1  0.66057890  0.67982719  0.08674709  1
  Na  Na11  1  0.01924930  0.33942110  0.08674709  1
  Na  Na12  1  0.96526295  0.28402969  0.40710354  1
  Na  Na13  1  0.31876574  0.03473705  0.40710354  1
  Na  Na14  1  0.71597031  0.68123426  0.40710354  1
  Na  Na15  1  0.00000000  0.00000000  0.49480276  1
  Na  Na16  1  0.00000000  0.00000000  0.99944375  1
  Na  Na17  1  0.66666700  0.33333300  0.83310532  1
  Na  Na18  1  0.66666700  0.33333300  0.31738434  1
  Na  Na19  1  0.33333300  0.66666700  0.16565873  1
  Na  Na20  1  0.33333300  0.66666700  0.66910663  1
  Ca  Ca0  1  0.00000000  0.00000000  0.35309061  1
  Ca  Ca1  1  0.66666700  0.33333300  0.68516171  1
  Ca  Ca2  1  0.66666700  0.33333300  0.17563619  1
  Ta  Ta0  1  0.00000000  0.00000000  0.85892915  1
  Ta  Ta1  1  0.00000000  0.00000000  0.64792099  1
  Ta  Ta2  1  0.00000000  0.00000000  0.14973366  1
  Ta  Ta3  1  0.66666700  0.33333300  0.97874036  1
  Ta  Ta4  1  0.66666700  0.33333300  0.48085139  1
  Ta  Ta5  1  0.33333300  0.66666700  0.01372295  1
  Ta  Ta6  1  0.33333300  0.66666700  0.51927159  1
  Ta  Ta7  1  0.33333300  0.66666700  0.30998324  1
  Ta  Ta8  1  0.33333300  0.66666700  0.81383680  1
  Si  Si0  1  0.29571398  0.99545766  0.25311543  1
  Si  Si1  1  0.69974368  0.70428602  0.25311543  1
  Si  Si2  1  0.00454234  0.30025632  0.25311543  1
  Si  Si3  1  0.28008208  0.29139417  0.75350227  1
  Si  Si4  1  0.01131209  0.71991792  0.75350227  1
  Si  Si5  1  0.70860583  0.98868791  0.75350227  1
  Si  Si6  1  0.96757638  0.33439433  0.58516057  1
  Si  Si7  1  0.36681896  0.03242362  0.58516057  1
  Si  Si8  1  0.66560567  0.63318104  0.58516057  1
  Si  Si9  1  0.97012225  0.63504802  0.08232526  1
  Si  Si10  1  0.66492677  0.02987775  0.08232526  1
  Si  Si11  1  0.36495198  0.33507323  0.08232526  1
  Si  Si12  1  0.62512557  0.66022668  0.91474422  1
  Si  Si13  1  0.03510011  0.37487443  0.91474422  1
  Si  Si14  1  0.33977332  0.96489989  0.91474422  1
  Si  Si15  1  0.61433576  0.96164446  0.41769940  1
  Si  Si16  1  0.34730770  0.38566424  0.41769940  1
  Si  Si17  1  0.03835554  0.65269230  0.41769940  1
  O  O0  1  0.22371728  0.02186355  0.31359382  1
  O  O1  1  0.79814627  0.77628272  0.31359382  1
  O  O2  1  0.97813645  0.20185373  0.31359382  1
  O  O3  1  0.16931587  0.17597630  0.80848920  1
  O  O4  1  0.00666043  0.83068413  0.80848920  1
  O  O5  1  0.82402370  0.99333957  0.80848920  1
  O  O6  1  0.80658913  0.97420727  0.69205065  1
  O  O7  1  0.16761814  0.19341087  0.69205065  1
  O  O8  1  0.02579273  0.83238186  0.69205065  1
  O  O9  1  0.80882913  0.83210913  0.19471086  1
  O  O10  1  0.02327999  0.19117087  0.19471086  1
  O  O11  1  0.16789087  0.97672001  0.19471086  1
  O  O12  1  0.91412077  0.39238863  0.64371215  1
  O  O13  1  0.47826886  0.08587923  0.64371215  1
  O  O14  1  0.60761137  0.52173114  0.64371215  1
  O  O15  1  0.92406455  0.52923516  0.14189028  1
  O  O16  1  0.60517161  0.07593545  0.14189028  1
  O  O17  1  0.47076484  0.39482839  0.14189028  1
  O  O18  1  0.47434169  0.30524611  0.02927377  1
  O  O19  1  0.83090542  0.52565831  0.02927377  1
  O  O20  1  0.69475389  0.16909458  0.02927377  1
  O  O21  1  0.47308155  0.16588573  0.52953777  1
  O  O22  1  0.69280518  0.52691845  0.52953777  1
  O  O23  1  0.83411427  0.30719482  0.52953777  1
  O  O24  1  0.52174352  0.67723014  0.97046785  1
  O  O25  1  0.15548563  0.47825648  0.97046785  1
  O  O26  1  0.32276986  0.84451437  0.97046785  1
  O  O27  1  0.50137009  0.85358084  0.47512098  1
  O  O28  1  0.35220975  0.49862991  0.47512098  1
  O  O29  1  0.14641916  0.64779025  0.47512098  1
  O  O30  1  0.13688844  0.63410346  0.35888668  1
  O  O31  1  0.49721402  0.86311156  0.35888668  1
  O  O32  1  0.36589654  0.50278598  0.35888668  1
  O  O33  1  0.13555529  0.49509405  0.85584253  1
  O  O34  1  0.35953776  0.86444471  0.85584253  1
  O  O35  1  0.50490595  0.64046224  0.85584253  1
  O  O36  1  0.01949070  0.81515558  0.42349731  1
  O  O37  1  0.79566487  0.98050930  0.42349731  1
  O  O38  1  0.18484442  0.20433513  0.42349731  1
  O  O39  1  0.01420216  0.18719949  0.91072090  1
  O  O40  1  0.17299732  0.98579784  0.91072090  1
  O  O41  1  0.81280051  0.82700268  0.91072090  1
  O  O42  1  0.96771869  0.15418427  0.58901356  1
  O  O43  1  0.18646558  0.03228131  0.58901356  1
  O  O44  1  0.84581573  0.81353442  0.58901356  1
  O  O45  1  0.97547403  0.81787212  0.08881923  1
  O  O46  1  0.84239809  0.02452597  0.08881923  1
  O  O47  1  0.18212788  0.15760191  0.08881923  1
  O  O48  1  0.69183348  0.15393758  0.75367656  1
  O  O49  1  0.46210510  0.30816652  0.75367656  1
  O  O50  1  0.84606242  0.53789490  0.75367656  1
  O  O51  1  0.66832711  0.51824383  0.24439968  1
  O  O52  1  0.84991772  0.33167289  0.24439968  1
  O  O53  1  0.48175617  0.15008228  0.24439968  1
  O  O54  1  0.64100154  0.49185703  0.92362140  1
  O  O55  1  0.85085648  0.35899846  0.92362140  1
  O  O56  1  0.50814297  0.14914352  0.92362140  1
  O  O57  1  0.62360569  0.14665956  0.42353602  1
  O  O58  1  0.52305487  0.37639431  0.42353602  1
  O  O59  1  0.85334044  0.47694513  0.42353602  1
  O  O60  1  0.32358235  0.48797009  0.06807740  1
  O  O61  1  0.16438673  0.67641765  0.06807740  1
  O  O62  1  0.51202991  0.83561327  0.06807740  1
  O  O63  1  0.31898071  0.83555958  0.57366641  1
  O  O64  1  0.51657787  0.68101929  0.57366641  1
  O  O65  1  0.16444042  0.48342213  0.57366641  1
  O  O66  1  0.28769698  0.80851385  0.25331263  1
  O  O67  1  0.52081586  0.71230302  0.25331263  1
  O  O68  1  0.19148615  0.47918414  0.25331263  1
  O  O69  1  0.29097893  0.47786698  0.75357925  1
  O  O70  1  0.18688705  0.70902107  0.75357925  1
  O  O71  1  0.52213302  0.81311295  0.75357925  1
loop_
_geom_bond_atom_site_label_1
_geom_bond_atom_site_label_2
_geom_bond_distance
_geom_bond_site_symmetry_2
Na0 O53 2.342304 1_555
Na0 O16 2.375849 1_555
Na0 O52 2.488730 1_555
Na0 O67 2.504302 1_545
Na1 O51 2.342312 1_555
Na1 O17 2.375852 1_555
Na1 O53 2.488737 1_555
Na1 O68 2.504311 1_555
Na2 O52 2.342313 1_555
Na2 O15 2.375852 1_555
Na2 O51 2.488729 1_555
Na2 O66 2.504303 1_655
Na3 O49 2.409567 1_555
Na3 O50 2.411181 1_555
Na3 O14 2.431722 1_555
Na3 O71 2.502292 1_555
Na3 O69 2.704193 1_555
Na3 O35 2.783612 1_555
Na4 O50 2.409560 1_555
Na4 O48 2.411174 1_555
Na4 O12 2.431720 1_555
Na4 O69 2.502284 1_655
Na4 O70 2.704191 1_655
Na4 O33 2.783609 1_655
Na5 O48 2.409568 1_555
Na5 O49 2.411172 1_555
Na5 O13 2.431722 1_555
Na5 O70 2.502285 1_545
Na5 O71 2.704184 1_545
Na5 O34 2.783608 1_545
Na6 O65 2.396837 1_555
Na6 O43 2.435952 1_555
Na6 O14 2.669006 1_555
Na6 O7 2.736838 1_555
Na6 O64 2.760430 1_555
Na6 O42 2.783957 1_455
Na6 O28 2.851430 1_555
Na6 O21 2.902972 1_555
Na7 O63 2.396821 1_555
Na7 O44 2.435960 1_455
Na7 O12 2.669006 1_455
Na7 O8 2.736840 1_555
Na7 O65 2.760416 1_555
Na7 O43 2.783957 1_565
Na7 O29 2.851421 1_555
Na7 O22 2.902972 1_455
Na8 O64 2.396821 1_555
Na8 O42 2.435952 1_565
Na8 O13 2.669006 1_565
Na8 O6 2.736836 1_555
Na8 O63 2.760432 1_555
Na8 O44 2.783949 1_555
Na8 O27 2.851427 1_555
Na8 O23 2.902972 1_565
Na9 O61 2.457657 1_555
Na9 O47 2.511898 1_565
Na9 O16 2.622193 1_565
Na9 O62 2.722262 1_555
Na9 O45 2.744001 1_455
Na9 O11 2.798976 1_555
Na9 O18 2.889548 1_565
Na9 O26 2.910800 1_554
Na10 O62 2.457673 1_555
Na10 O45 2.511890 1_555
Na10 O17 2.622193 1_555
Na10 O60 2.722277 1_555
Na10 O46 2.744001 1_565
Na10 O9 2.798974 1_555
Na10 O19 2.889548 1_555
Na10 O24 2.910808 1_554
Na11 O60 2.457657 1_555
Na11 O46 2.511891 1_455
Na11 O15 2.622193 1_455
Na11 O61 2.722278 1_555
Na11 O47 2.743993 1_555
Na11 O10 2.798971 1_555
Na11 O20 2.889548 1_455
Na11 O25 2.910805 1_554
Na12 O2 2.262730 1_555
Na12 O37 2.448260 1_545
Na12 O59 2.481308 1_555
Na12 O38 2.493596 1_655
Na12 O57 2.760337 1_555
Na13 O0 2.262727 1_555
Na13 O38 2.448252 1_555
Na13 O57 2.481325 1_555
Na13 O36 2.493589 1_545
Na13 O58 2.760339 1_555
Na14 O1 2.262728 1_555
Na14 O36 2.448260 1_655
Na14 O58 2.481322 1_555
Na14 O37 2.493587 1_555
Na14 O59 2.760353 1_555
Na15 O36 2.409363 1_545
Na15 O38 2.409363 1_555
Na15 O37 2.409363 1_445
Na15 O44 2.650998 1_445
Na15 O42 2.650998 1_455
Na15 O43 2.650998 1_555
Na16 O45 2.556415 1_446
Na16 O47 2.556415 1_556
Na16 O46 2.556415 1_456
Na16 O41 2.598664 1_445
Na16 O40 2.598664 1_545
Na16 O39 2.598664 1_555
Na17 O50 2.521627 1_555
Na17 O48 2.521627 1_555
Na17 O49 2.521627 1_555
Na17 O56 2.585765 1_555
Na17 O55 2.585765 1_555
Na17 O54 2.585765 1_555
Na18 O51 2.359783 1_555
Na18 O53 2.359783 1_555
Na18 O52 2.359783 1_555
Na18 O57 2.854683 1_555
Na18 O59 2.854683 1_555
Na18 O58 2.854683 1_555
Na19 O68 2.515394 1_555
Na19 O67 2.515394 1_555
Na19 O66 2.515394 1_555
Na19 O60 2.719954 1_555
Na19 O62 2.719954 1_555
Na19 O61 2.719954 1_555
Na20 O69 2.472529 1_555
Na20 O71 2.472529 1_555
Na20 O70 2.472529 1_555
Na20 O65 2.694688 1_555
Na20 O63 2.694688 1_555
Na20 O64 2.694688 1_555
Ca0 O1 2.155076 1_445
Ca0 O2 2.155076 1_455
Ca0 O0 2.155076 1_555
Ca0 O36 2.395884 1_545
Ca0 O38 2.395884 1_555
Ca0 O37 2.395884 1_445
Ca1 O13 2.258770 1_555
Ca1 O14 2.258770 1_555
Ca1 O12 2.258770 1_555
Ca1 O50 2.353182 1_555
Ca1 O48 2.353182 1_555
Ca1 O49 2.353182 1_555
Ca2 O16 2.270097 1_555
Ca2 O15 2.270097 1_555
Ca2 O17 2.270097 1_555
Ca2 O51 2.294403 1_555
Ca2 O53 2.294403 1_555
Ca2 O52 2.294403 1_555
O0 Si0 1.586440 1_545
O1 Si1 1.586440 1_555
O2 Si2 1.586440 1_655
O3 Si3 1.618113 1_555
O3 Ta0 1.952410 1_555
O4 Si4 1.618113 1_555
O4 Ta0 1.952410 1_565
O5 Si5 1.618113 1_555
O5 Ta0 1.952410 1_665
O6 Si5 1.693530 1_555
O6 Ta1 1.944789 1_665
O7 Si3 1.693530 1_555
O7 Ta1 1.944789 1_555
O8 Si4 1.693530 1_555
O8 Ta1 1.944789 1_565
O9 Si1 1.714933 1_555
O9 Ta2 1.944973 1_665
O10 Si2 1.714933 1_555
O10 Ta2 1.944973 1_555
O11 Si0 1.714933 1_555
O11 Ta2 1.944973 1_565
O12 Si6 1.590606 1_555
O13 Si7 1.590606 1_555
O14 Si8 1.590606 1_555
O15 Si9 1.586479 1_555
O16 Si10 1.586479 1_555
O17 Si11 1.586479 1_555
O18 Si11 1.670771 1_555
O18 Ta3 2.007664 1_554
O19 Si9 1.670771 1_555
O19 Ta3 2.007664 1_554
O20 Si10 1.670771 1_555
O20 Ta3 2.007664 1_554
O21 Si7 1.683033 1_555
O21 Ta4 1.999621 1_555
O22 Si8 1.683033 1_555
O22 Ta4 1.999621 1_555
O23 Si6 1.683033 1_555
O23 Ta4 1.999621 1_555
O24 Si12 1.629036 1_555
O24 Ta5 1.946413 1_556
O25 Si13 1.629036 1_555
O25 Ta5 1.946413 1_556
O26 Si14 1.629036 1_555
O26 Ta5 1.946413 1_556
O27 Si15 1.645900 1_555
O27 Ta6 1.916191 1_555
O28 Si16 1.645900 1_555
O28 Ta6 1.916191 1_555
O29 Si17 1.645900 1_555
O29 Ta6 1.916191 1_555
O30 Si17 1.661943 1_555
O30 Ta7 2.005584 1_555
O31 Si15 1.661943 1_555
O31 Ta7 2.005584 1_555
O32 Si16 1.661943 1_555
O32 Ta7 2.005584 1_555
O33 Si13 1.678226 1_555
O33 Ta8 1.954161 1_555
O34 Si14 1.678226 1_555
O34 Ta8 1.954161 1_555
O35 Si12 1.678226 1_555
O35 Ta8 1.954161 1_555
O36 Si17 1.591551 1_555
O37 Si15 1.591560 1_555
O38 Si16 1.591557 1_555
O39 Si13 1.639000 1_555
O39 Ta0 2.028293 1_555
O40 Si14 1.638991 1_555
O40 Ta0 2.028293 1_565
O41 Si12 1.638996 1_555
O41 Ta0 2.028293 1_665
O42 Si6 1.658364 1_555
O42 Ta1 2.068512 1_655
O43 Si7 1.658374 1_555
O43 Ta1 2.068512 1_555
O44 Si8 1.658369 1_555
O44 Ta1 2.068512 1_665
O45 Si9 1.661877 1_555
O45 Ta2 2.088050 1_665
O46 Si10 1.661868 1_555
O46 Ta2 2.088050 1_655
O47 Si11 1.661873 1_555
O47 Ta2 2.088050 1_555
O48 Si5 1.600617 1_545
O49 Si3 1.600626 1_555
O50 Si4 1.600622 1_655
O51 Si1 1.596688 1_555
O52 Si2 1.596679 1_655
O53 Si0 1.596685 1_545
O54 Si12 1.636790 1_555
O54 Ta3 2.016071 1_555
O55 Si13 1.636772 1_655
O55 Ta3 2.016071 1_555
O56 Si14 1.636780 1_545
O56 Ta3 2.016071 1_555
O57 Si15 1.663849 1_545
O57 Ta4 2.022213 1_555
O58 Si16 1.663868 1_555
O58 Ta4 2.022213 1_555
O59 Si17 1.663858 1_655
O59 Ta4 2.022213 1_555
O60 Si11 1.659554 1_555
O60 Ta5 2.014473 1_555
O61 Si9 1.659537 1_455
O61 Ta5 2.014473 1_555
O62 Si10 1.659542 1_565
O62 Ta5 2.014473 1_555
O63 Si7 1.654078 1_565
O63 Ta6 2.033150 1_555
O64 Si8 1.654095 1_555
O64 Ta6 2.033150 1_555
O65 Si6 1.654083 1_455
O65 Ta6 2.033150 1_555
O66 Si0 1.681683 1_555
O66 Ta7 2.013237 1_555
O67 Si1 1.681692 1_555
O67 Ta7 2.013237 1_555
O68 Si2 1.681687 1_555
O68 Ta7 2.013237 1_555
O69 Si3 1.665172 1_555
O69 Ta8 2.081127 1_555
O70 Si4 1.665163 1_555
O70 Ta8 2.081127 1_555
O71 Si5 1.665168 1_555
O71 Ta8 2.081127 1_555
