# generated using pymatgen
data_CaAgSn
_symmetry_space_group_name_H-M   'P 1'
_cell_length_a   4.80430104
_cell_length_b   4.80430104
_cell_length_c   11.12023578
_cell_angle_alpha   90.00000000
_cell_angle_beta   90.00000000
_cell_angle_gamma   119.99998272
_symmetry_Int_Tables_number   1
_chemical_formula_structural   CaAgSn
_chemical_formula_sum   'Ca3 Ag3 Sn3'
_cell_volume   222.28242660
_cell_formula_units_Z   3
loop_
 _symmetry_equiv_pos_site_id
 _symmetry_equiv_pos_as_xyz
  1  'x, y, z'
loop_
 _atom_site_type_symbol
 _atom_site_label
 _atom_site_symmetry_multiplicity
 _atom_site_fract_x
 _atom_site_fract_y
 _atom_site_fract_z
 _atom_site_occupancy
  Ca  Ca0  1  -0.00000000  -0.00000000  0.82622738  1
  Ca  Ca1  1  -0.00000000  0.00000000  0.49527417  1
  Ca  Ca2  1  0.00000000  -0.00000000  0.16453924  1
  Ag  Ag0  1  0.66666700  0.33333300  0.99359421  1
  Ag  Ag1  1  0.33333300  0.66666700  0.68210521  1
  Ag  Ag2  1  0.33333300  0.66666700  0.30632868  1
  Sn  Sn0  1  0.66666700  0.33333300  0.63840924  1
  Sn  Sn1  1  0.66666700  0.33333300  0.35269952  1
  Sn  Sn2  1  0.33333300  0.66666700  0.99682135  1
loop_
_geom_bond_atom_site_label_1
_geom_bond_atom_site_label_2
_geom_bond_distance
_geom_bond_site_symmetry_2
Ca0 Sn2 3.360436 1_545
Ca0 Sn2 3.360440 1_445
Ca0 Sn2 3.360440 1_555
Ca0 Sn0 3.472165 1_455
Ca0 Sn0 3.472169 1_555
Ca0 Sn0 3.472169 1_445
Ca1 Sn1 3.194910 1_455
Ca1 Sn1 3.194914 1_445
Ca1 Sn1 3.194914 1_555
Ca1 Sn0 3.198007 1_455
Ca1 Sn0 3.198011 1_445
Ca1 Sn0 3.198011 1_555
Ca2 Sn2 3.342486 1_544
Ca2 Sn2 3.342490 1_554
Ca2 Sn2 3.342490 1_444
Ca2 Sn1 3.474455 1_455
Ca2 Sn1 3.474459 1_445
Ca2 Sn1 3.474459 1_555
Ag0 Sn2 2.773994 1_545
Ag0 Sn2 2.773994 1_655
Ag0 Sn2 2.774002 1_555
Ag0 Ca0 3.340309 1_655
Ag0 Ca0 3.340313 1_555
Ag0 Ca0 3.340313 1_665
Ag0 Ca2 3.362642 1_656
Ag0 Ca2 3.362646 1_556
Ag0 Ca2 3.362646 1_666
Ag1 Sn0 2.816002 1_455
Ag1 Sn0 2.816002 1_565
Ag1 Sn0 2.816009 1_555
Ag1 Ca0 3.203484 1_565
Ag1 Ca0 3.203489 1_665
Ag1 Ca0 3.203489 1_555
Ag1 Ca1 3.465573 1_565
Ag1 Ca1 3.465577 1_665
Ag1 Ca1 3.465577 1_555
Ag2 Sn1 2.821286 1_455
Ag2 Sn1 2.821286 1_565
Ag2 Sn1 2.821294 1_555
Ag2 Ca2 3.190586 1_565
Ag2 Ca2 3.190590 1_555
Ag2 Ca2 3.190590 1_665
Ag2 Sn2 3.441794 1_554
Ag2 Ca1 3.479720 1_565
Ag2 Ca1 3.479724 1_665
Ag2 Ca1 3.479724 1_555
Sn0 Sn1 3.177159 1_555
