# generated using pymatgen
data_Sr2YMgCu3O7
_symmetry_space_group_name_H-M   'P 1'
_cell_length_a   3.43631061
_cell_length_b   3.97469226
_cell_length_c   14.42898204
_cell_angle_alpha   89.99948452
_cell_angle_beta   89.99090934
_cell_angle_gamma   89.99778940
_symmetry_Int_Tables_number   1
_chemical_formula_structural   Sr2YMgCu3O7
_chemical_formula_sum   'Sr2 Y1 Mg1 Cu3 O7'
_cell_volume   197.07503392
_cell_formula_units_Z   1
loop_
 _symmetry_equiv_pos_site_id
 _symmetry_equiv_pos_as_xyz
  1  'x, y, z'
loop_
 _atom_site_type_symbol
 _atom_site_label
 _atom_site_symmetry_multiplicity
 _atom_site_fract_x
 _atom_site_fract_y
 _atom_site_fract_z
 _atom_site_occupancy
  Sr  Sr0  1  0.49983410  0.49998601  0.83618777  1
  Sr  Sr1  1  0.49981555  0.49997166  0.10430932  1
  Y  Y0  1  0.49991075  0.50000063  0.57222724  1
  Mg  Mg0  1  0.50041212  0.50004744  0.37010922  1
  Cu  Cu0  1  0.99981595  0.99997043  0.97642126  1
  Cu  Cu1  1  0.99982272  0.99999197  0.69915469  1
  Cu  Cu2  1  0.00058232  0.00002513  0.25791130  1
  O  O0  1  0.49991033  1.00000000  0.62739634  1
  O  O1  1  0.50046967  0.00005944  0.31297385  1
  O  O2  1  0.99983937  0.99998073  0.84191843  1
  O  O3  1  0.99969449  0.99997020  0.11518629  1
  O  O4  1  0.99984952  0.49997314  0.97729059  1
  O  O5  1  0.99985838  0.49999311  0.68488360  1
  O  O6  1  0.00018371  0.50003012  0.45736109  1
loop_
_geom_bond_atom_site_label_1
_geom_bond_atom_site_label_2
_geom_bond_distance
_geom_bond_site_symmetry_2
Mg0 O6 2.129558 1_655
Mg0 O6 2.130502 1_555
Mg0 O1 2.151518 1_555
Mg0 O1 2.151592 1_565
Cu0 O2 1.940739 1_555
Cu0 O4 1.987375 1_555
Cu0 O4 1.987397 1_565
Cu0 O3 2.002238 1_556
Cu1 O5 1.997983 1_555
Cu1 O5 1.997988 1_565
Cu1 O0 2.005901 1_555
Cu1 O0 2.006136 1_655
Cu1 O2 2.059935 1_555
Cu2 O1 1.892719 1_555
Cu2 O1 1.893193 1_455
Cu2 O3 2.059379 1_445
O0 Y0 2.140840 1_565
O0 Y0 2.140849 1_555
O2 Sr0 2.628305 1_655
O2 Sr0 2.628377 1_565
O2 Sr0 2.628436 1_665
O2 Sr0 2.628446 1_555
O3 Sr1 2.631472 1_565
O3 Sr1 2.631565 1_555
O3 Sr1 2.631976 1_655
O3 Sr1 2.632083 1_665
O4 Sr1 2.512058 1_556
O4 Sr1 2.512296 1_656
O4 Sr0 2.663821 1_655
O4 Sr0 2.664306 1_555
O5 Y0 2.365184 1_655
O5 Y0 2.365297 1_555
O5 Sr0 2.778014 1_555
O5 Sr0 2.778340 1_655
O6 Y0 2.386780 1_555
O6 Y0 2.387752 1_455
