# generated using pymatgen
data_Na10Ti4Si9Sn4(SO16)3
_symmetry_space_group_name_H-M   'P 1'
_cell_length_a   17.90914228
_cell_length_b   8.95586035
_cell_length_c   22.40563459
_cell_angle_alpha   90.04064671
_cell_angle_beta   89.91668501
_cell_angle_gamma   119.93206977
_symmetry_Int_Tables_number   1
_chemical_formula_structural   Na10Ti4Si9Sn4(SO16)3
_chemical_formula_sum   'Na30 Ti12 Si27 Sn12 S9 O144'
_cell_volume   3114.34264911
_cell_formula_units_Z   3
loop_
 _symmetry_equiv_pos_site_id
 _symmetry_equiv_pos_as_xyz
  1  'x, y, z'
loop_
 _atom_site_type_symbol
 _atom_site_label
 _atom_site_symmetry_multiplicity
 _atom_site_fract_x
 _atom_site_fract_y
 _atom_site_fract_z
 _atom_site_occupancy
  Na  Na0  1  0.32035201  0.00019968  0.24977513  1
  Na  Na1  1  0.81700622  0.99630558  0.25111919  1
  Na  Na2  1  0.18445884  0.99226126  0.74494853  1
  Na  Na3  1  0.68459442  0.99907514  0.74568072  1
  Na  Na4  1  0.01776170  0.70288995  0.58096070  1
  Na  Na5  1  0.52041741  0.70416739  0.57900001  1
  Na  Na6  1  0.01763995  0.32829308  0.07974599  1
  Na  Na7  1  0.51483450  0.32826236  0.08062894  1
  Na  Na8  1  0.48274997  0.66344386  0.91646500  1
  Na  Na9  1  0.34940132  0.03082461  0.91681022  1
  Na  Na10  1  0.85084556  0.04220803  0.91261828  1
  Na  Na11  1  0.16659078  0.30880925  0.92076874  1
  Na  Na12  1  0.48382119  0.30340160  0.41609470  1
  Na  Na13  1  0.98110530  0.30035221  0.41649924  1
  Na  Na14  1  0.16704731  0.02840441  0.41941776  1
  Na  Na15  1  0.66427197  0.02973308  0.41583383  1
  Na  Na16  1  0.35297551  0.67155559  0.41692372  1
  Na  Na17  1  0.84971461  0.66522631  0.41593848  1
  Na  Na18  1  0.99984632  0.00311338  0.50130079  1
  Na  Na19  1  0.50262991  0.00927520  0.50169397  1
  Na  Na20  1  0.00518019  0.99715568  0.00185842  1
  Na  Na21  1  0.50769374  0.00649443  0.00028095  1
  Na  Na22  1  0.34498475  0.34601748  0.83081893  1
  Na  Na23  1  0.84580758  0.34757251  0.83054128  1
  Na  Na24  1  0.34150105  0.35291923  0.33006287  1
  Na  Na25  1  0.83899729  0.35150811  0.33192009  1
  Na  Na26  1  0.17304645  0.65876333  0.16859922  1
  Na  Na27  1  0.67254173  0.66045671  0.16979891  1
  Na  Na28  1  0.17533687  0.67276921  0.66696588  1
  Na  Na29  1  0.67643727  0.67067294  0.66267428  1
  Ti  Ti0  1  0.49284439  0.99431572  0.35248188  1
  Ti  Ti1  1  0.49194441  0.97517840  0.64488351  1
  Ti  Ti2  1  0.49408854  0.01580854  0.14649120  1
  Ti  Ti3  1  0.33539473  0.33249363  0.68508209  1
  Ti  Ti4  1  0.83253589  0.33492517  0.68624046  1
  Ti  Ti5  1  0.33239801  0.34057268  0.18602198  1
  Ti  Ti6  1  0.32621720  0.31656133  0.97784827  1
  Ti  Ti7  1  0.32794541  0.33538890  0.47842914  1
  Ti  Ti8  1  0.82418681  0.33159330  0.47855214  1
  Ti  Ti9  1  0.67437574  0.67871900  0.51849972  1
  Ti  Ti10  1  0.16671091  0.65145202  0.31537191  1
  Ti  Ti11  1  0.66475498  0.64888900  0.31495112  1
  Si  Si0  1  0.35572570  0.70874973  0.24924842  1
  Si  Si1  1  0.85112558  0.70197168  0.25106140  1
  Si  Si2  1  0.00204571  0.30405275  0.25024142  1
  Si  Si3  1  0.50043154  0.29682235  0.25085034  1
  Si  Si4  1  0.99868904  0.69911147  0.74934351  1
  Si  Si5  1  0.49533087  0.70039190  0.74863159  1
  Si  Si6  1  0.35561478  0.00183214  0.74878691  1
  Si  Si7  1  0.85269745  0.00093299  0.75006442  1
  Si  Si8  1  0.18833566  0.04771480  0.58411163  1
  Si  Si9  1  0.68737502  0.04443812  0.58470401  1
  Si  Si10  1  0.32896398  0.61432988  0.58362592  1
  Si  Si11  1  0.82808942  0.61560577  0.58196291  1
  Si  Si12  1  0.32829941  0.04228661  0.08521720  1
  Si  Si13  1  0.83137972  0.03474626  0.08479321  1
  Si  Si14  1  0.18892833  0.33111576  0.08374188  1
  Si  Si15  1  0.68484369  0.33019793  0.08418936  1
  Si  Si16  1  0.31264578  0.66231073  0.91610123  1
  Si  Si17  1  0.01982697  0.37949334  0.91797466  1
  Si  Si18  1  0.52171702  0.37467600  0.91835790  1
  Si  Si19  1  0.16218941  0.95237025  0.91720352  1
  Si  Si20  1  0.66673872  0.96122119  0.91564462  1
  Si  Si21  1  0.31175116  0.95930583  0.41345111  1
  Si  Si22  1  0.80955216  0.95731554  0.41462939  1
  Si  Si23  1  0.16547954  0.37694665  0.41791128  1
  Si  Si24  1  0.66366852  0.37760833  0.41831372  1
  Si  Si25  1  0.02311168  0.66437006  0.41760795  1
  Si  Si26  1  0.52419208  0.66706382  0.41801317  1
  Sn  Sn0  1  0.99537280  0.99564158  0.35212515  1
  Sn  Sn1  1  0.99775763  0.99703762  0.85046726  1
  Sn  Sn2  1  0.49723265  0.99816915  0.85273668  1
  Sn  Sn3  1  0.99496492  0.98394181  0.64586495  1
  Sn  Sn4  1  0.99827360  0.00953793  0.14858218  1
  Sn  Sn5  1  0.82866739  0.33220709  0.18745634  1
  Sn  Sn6  1  0.82826710  0.32115332  0.98189829  1
  Sn  Sn7  1  0.17289855  0.67191550  0.01988104  1
  Sn  Sn8  1  0.66562466  0.66727788  0.02199336  1
  Sn  Sn9  1  0.17393169  0.67638592  0.51971521  1
  Sn  Sn10  1  0.16843968  0.67160907  0.81534117  1
  Sn  Sn11  1  0.66194241  0.67093775  0.81096814  1
  S  S0  1  0.14692984  0.00022192  0.24930615  1
  S  S1  1  0.64078200  0.99512196  0.25047049  1
  S  S2  1  0.14760077  0.29533150  0.74771941  1
  S  S3  1  0.64502730  0.29116631  0.74804249  1
  S  S4  1  0.47720568  0.32883130  0.58266425  1
  S  S5  1  0.97634303  0.32983363  0.58324799  1
  S  S6  1  0.47550523  0.62549674  0.08394497  1
  S  S7  1  0.97919649  0.62713123  0.08344416  1
  S  S8  1  0.81189388  0.66277326  0.91622372  1
  O  O0  1  0.10883857  0.02712937  0.30518170  1
  O  O1  1  0.60171012  0.01711356  0.30632589  1
  O  O2  1  0.41372792  0.79898583  0.31040233  1
  O  O3  1  0.90797936  0.77929322  0.31265039  1
  O  O4  1  0.48630530  0.16571366  0.30743130  1
  O  O5  1  0.98204577  0.17874875  0.30928873  1
  O  O6  1  0.11016930  0.19202225  0.80433704  1
  O  O7  1  0.60889311  0.18650719  0.80377957  1
  O  O8  1  0.48523906  0.78659204  0.80982266  1
  O  O9  1  0.98134720  0.78877813  0.80748592  1
  O  O10  1  0.40951478  0.03995139  0.81109767  1
  O  O11  1  0.90693004  0.03477956  0.81268074  1
  O  O12  1  0.41071834  0.98307259  0.69300408  1
  O  O13  1  0.90033317  0.97511163  0.69258495  1
  O  O14  1  0.09208260  0.20821173  0.69582564  1
  O  O15  1  0.59181795  0.20859794  0.69556971  1
  O  O16  1  0.02471805  0.82647827  0.69007038  1
  O  O17  1  0.51280848  0.83069926  0.69101398  1
  O  O18  1  0.40813416  0.84273922  0.19434600  1
  O  O19  1  0.89830679  0.83334183  0.19465611  1
  O  O20  1  0.02197478  0.22766341  0.18954774  1
  O  O21  1  0.51305098  0.20416983  0.19055004  1
  O  O22  1  0.09202606  0.97532719  0.19675490  1
  O  O23  1  0.59153213  0.98499578  0.19690082  1
  O  O24  1  0.43322581  0.35258139  0.63580806  1
  O  O25  1  0.93286961  0.35035168  0.63650080  1
  O  O26  1  0.24610446  0.13931429  0.64329782  1
  O  O27  1  0.74691772  0.13798388  0.64357791  1
  O  O28  1  0.32462066  0.49457240  0.63961747  1
  O  O29  1  0.82344098  0.49654339  0.63916466  1
  O  O30  1  0.43266326  0.51094715  0.13663526  1
  O  O31  1  0.93925153  0.51744304  0.13672271  1
  O  O32  1  0.32443921  0.14800092  0.14394632  1
  O  O33  1  0.82041626  0.12409714  0.14538334  1
  O  O34  1  0.25131850  0.35603136  0.14099803  1
  O  O35  1  0.74772837  0.37366483  0.14131034  1
  O  O36  1  0.23729544  0.31543277  0.02371680  1
  O  O37  1  0.72775669  0.30610191  0.02318889  1
  O  O38  1  0.42775726  0.54776988  0.02807617  1
  O  O39  1  0.92682390  0.55233767  0.02865204  1
  O  O40  1  0.34736017  0.16496683  0.02556990  1
  O  O41  1  0.85505446  0.15928111  0.02556306  1
  O  O42  1  0.23866174  0.16305094  0.52415555  1
  O  O43  1  0.73666965  0.16411260  0.52505097  1
  O  O44  1  0.34747086  0.53109395  0.52319639  1
  O  O45  1  0.84571714  0.52625574  0.52281948  1
  O  O46  1  0.42629349  0.30609436  0.52731570  1
  O  O47  1  0.92768562  0.30897999  0.52747194  1
  O  O48  1  0.27558557  0.71760635  0.97333784  1
  O  O49  1  0.77287665  0.69298534  0.97013096  1
  O  O50  1  0.07895158  0.45067494  0.97870991  1
  O  O51  1  0.57698965  0.45536705  0.97946096  1
  O  O52  1  0.14403083  0.83129844  0.97476882  1
  O  O53  1  0.64761483  0.83276642  0.97260732  1
  O  O54  1  0.27796662  0.83146112  0.47141665  1
  O  O55  1  0.76405531  0.82855220  0.47240308  1
  O  O56  1  0.13949851  0.45307744  0.47492096  1
  O  O57  1  0.64563481  0.47122081  0.47428254  1
  O  O58  1  0.08052192  0.70908776  0.47920947  1
  O  O59  1  0.58329150  0.70323136  0.47813194  1
  O  O60  1  0.07407673  0.63269727  0.36269486  1
  O  O61  1  0.57136707  0.62908190  0.36191385  1
  O  O62  1  0.24962907  0.87506284  0.35549742  1
  O  O63  1  0.75026451  0.87376542  0.35565964  1
  O  O64  1  0.18783727  0.50482872  0.36003526  1
  O  O65  1  0.68715144  0.50468512  0.35990339  1
  O  O66  1  0.06464344  0.49106676  0.85866794  1
  O  O67  1  0.56429709  0.50237420  0.86046330  1
  O  O68  1  0.19007160  0.89151448  0.85645623  1
  O  O69  1  0.69125405  0.88653205  0.85581296  1
  O  O70  1  0.24826183  0.61017130  0.85866650  1
  O  O71  1  0.76061216  0.63677497  0.86173681  1
  O  O72  1  0.01467081  0.83850643  0.41038934  1
  O  O73  1  0.51348215  0.83825916  0.40914151  1
  O  O74  1  0.40908863  0.98275155  0.40707873  1
  O  O75  1  0.90599051  0.97651737  0.41494045  1
  O  O76  1  0.08408551  0.18192646  0.40911091  1
  O  O77  1  0.58149695  0.18472792  0.40944304  1
  O  O78  1  0.00657322  0.18040315  0.91241336  1
  O  O79  1  0.50737995  0.18103628  0.91282825  1
  O  O80  1  0.08273172  0.99362391  0.91060102  1
  O  O81  1  0.57904608  0.97140008  0.90994195  1
  O  O82  1  0.40792300  0.83267049  0.91159302  1
  O  O83  1  0.89797801  0.82512021  0.91309599  1
  O  O84  1  0.48767956  0.17638680  0.58918355  1
  O  O85  1  0.98845989  0.17772593  0.58824504  1
  O  O86  1  0.09194442  0.03217367  0.58571132  1
  O  O87  1  0.59067875  0.02441303  0.59026920  1
  O  O88  1  0.41821456  0.80590314  0.58942108  1
  O  O89  1  0.91833098  0.80503986  0.58376197  1
  O  O90  1  0.48694329  0.79834716  0.09134483  1
  O  O91  1  0.99109068  0.80201229  0.08978734  1
  O  O92  1  0.41768624  0.02900690  0.09103433  1
  O  O93  1  0.92040886  0.02138176  0.08571245  1
  O  O94  1  0.09391904  0.15317970  0.08767642  1
  O  O95  1  0.58919972  0.15572468  0.09180039  1
  O  O96  1  0.33980899  0.16685630  0.73965906  1
  O  O97  1  0.83611194  0.16498266  0.74263118  1
  O  O98  1  0.23259331  0.30532016  0.74331690  1
  O  O99  1  0.73224931  0.30756986  0.74363819  1
  O  O100  1  0.41193605  0.50990070  0.74034145  1
  O  O101  1  0.91289327  0.51071527  0.73956826  1
  O  O102  1  0.34572890  0.51817328  0.24157628  1
  O  O103  1  0.84046813  0.51117197  0.24702169  1
  O  O104  1  0.41062644  0.30217686  0.24497279  1
  O  O105  1  0.90999927  0.30349965  0.24553029  1
  O  O106  1  0.23381947  0.15724324  0.24447435  1
  O  O107  1  0.73100044  0.15165267  0.24958729  1
  O  O108  1  0.32472472  0.49367578  0.92495933  1
  O  O109  1  0.82523477  0.51408928  0.92209274  1
  O  O110  1  0.42598774  0.35864365  0.92491921  1
  O  O111  1  0.92360510  0.35972982  0.92260950  1
  O  O112  1  0.24993721  0.14583836  0.92572840  1
  O  O113  1  0.75405205  0.14992470  0.91926221  1
  O  O114  1  0.32406685  0.15214985  0.42303236  1
  O  O115  1  0.82113397  0.14910501  0.42463979  1
  O  O116  1  0.25302173  0.36116748  0.42389108  1
  O  O117  1  0.75091703  0.35913033  0.42406033  1
  O  O118  1  0.42767658  0.49456986  0.42473717  1
  O  O119  1  0.92708224  0.49280611  0.42312213  1
  O  O120  1  0.17183818  0.49559170  0.08203531  1
  O  O121  1  0.66621617  0.49372979  0.08112893  1
  O  O122  1  0.06401006  0.63561391  0.07918320  1
  O  O123  1  0.56177620  0.63376201  0.08291019  1
  O  O124  1  0.24204344  0.85360889  0.08358785  1
  O  O125  1  0.74483238  0.84705279  0.07984991  1
  O  O126  1  0.17279772  0.84961988  0.58113718  1
  O  O127  1  0.67363504  0.84858814  0.57766999  1
  O  O128  1  0.24258881  0.62980915  0.58210072  1
  O  O129  1  0.74241136  0.63320354  0.57682805  1
  O  O130  1  0.06219848  0.49193644  0.58165750  1
  O  O131  1  0.56193773  0.49059902  0.58002858  1
  O  O132  1  0.15757837  0.84793348  0.25326849  1
  O  O133  1  0.65159956  0.84154429  0.25340524  1
  O  O134  1  0.26290877  0.70358133  0.25590954  1
  O  O135  1  0.75926515  0.70070142  0.25699863  1
  O  O136  1  0.08688797  0.49491011  0.25842007  1
  O  O137  1  0.58634671  0.48472165  0.25774982  1
  O  O138  1  0.15679464  0.46741457  0.75148746  1
  O  O139  1  0.65588289  0.46652466  0.75437756  1
  O  O140  1  0.08719008  0.68706665  0.75420504  1
  O  O141  1  0.58618481  0.69442941  0.74806550  1
  O  O142  1  0.25953794  0.82760821  0.75103256  1
  O  O143  1  0.75728571  0.82236938  0.75265646  1
loop_
_geom_bond_atom_site_label_1
_geom_bond_atom_site_label_2
_geom_bond_distance
_geom_bond_site_symmetry_2
Na0 O134 2.325281 1_545
Na0 O104 2.361362 1_555
Na0 O132 2.529053 1_545
Na0 O106 2.563162 1_555
Na0 O62 2.655147 1_545
Na0 O32 2.699476 1_555
Na0 O18 2.864749 1_545
Na0 O4 2.882927 1_555
Na1 O135 2.315912 1_555
Na1 O105 2.405359 1_565
Na1 O107 2.539305 1_565
Na1 O133 2.569269 1_555
Na1 O63 2.608810 1_555
Na1 O33 2.619118 1_565
Na1 O19 2.821921 1_555
Na1 O5 2.879812 1_565
Na2 O140 2.407605 1_555
Na2 O96 2.420225 1_565
Na2 O142 2.445510 1_555
Na2 O98 2.488644 1_565
Na2 O26 2.585825 1_565
Na2 O68 2.675939 1_555
Na2 O16 2.769369 1_555
Na3 O97 2.356210 1_565
Na3 O141 2.398801 1_555
Na3 O99 2.451671 1_565
Na3 O143 2.506117 1_555
Na3 O27 2.576401 1_565
Na3 O69 2.691365 1_555
Na3 O7 2.934824 1_565
Na3 O17 2.935617 1_555
Na4 O89 2.374269 1_455
Na4 O130 2.388187 1_555
Na4 O126 2.407283 1_555
Na4 O58 2.528710 1_555
Na4 O86 2.561871 1_565
Na4 O16 2.660164 1_555
Na5 O131 2.373034 1_555
Na5 O127 2.379350 1_555
Na5 O88 2.428507 1_555
Na5 O87 2.504263 1_565
Na5 O59 2.525400 1_555
Na5 O17 2.783991 1_555
Na5 O44 2.962555 1_555
Na5 O24 3.011019 1_555
Na6 O120 2.396852 1_555
Na6 O93 2.414242 1_455
Na6 O122 2.446249 1_555
Na6 O50 2.515342 1_554
Na6 O94 2.548814 1_555
Na6 O20 2.635191 1_555
Na6 O41 2.802259 1_455
Na6 O31 2.972404 1_455
Na7 O121 2.353087 1_555
Na7 O92 2.368679 1_555
Na7 O123 2.428920 1_555
Na7 O95 2.505863 1_555
Na7 O51 2.530764 1_554
Na7 O21 2.696294 1_555
Na7 O40 2.878783 1_555
Na7 O30 2.968438 1_555
Na8 O110 2.398274 1_555
Na8 O81 2.419787 1_555
Na8 O108 2.462132 1_555
Na8 O82 2.476325 1_555
Na8 O8 2.623341 1_555
Na8 O38 2.697240 1_556
Na8 O67 2.807602 1_555
Na8 O53 2.852991 1_555
Na9 O79 2.454296 1_555
Na9 O112 2.470578 1_555
Na9 O82 2.473247 1_545
Na9 O110 2.552484 1_555
Na9 O10 2.584726 1_555
Na9 O40 2.724363 1_556
Na9 O48 2.742263 1_545
Na9 O68 2.825512 1_545
Na10 O113 2.371851 1_555
Na10 O78 2.421849 1_655
Na10 O11 2.467202 1_555
Na10 O83 2.475957 1_545
Na10 O111 2.477230 1_555
Na10 O41 2.725228 1_556
Na10 O69 2.786419 1_545
Na11 O80 2.458625 1_545
Na11 O108 2.468151 1_555
Na11 O78 2.506514 1_555
Na11 O112 2.558419 1_555
Na11 O36 2.619304 1_556
Na11 O70 2.723914 1_555
Na11 O50 2.782956 1_555
Na11 O6 2.805271 1_555
Na12 O118 2.386767 1_555
Na12 O77 2.462967 1_555
Na12 O114 2.485188 1_555
Na12 O74 2.498629 1_545
Na12 O46 2.699858 1_555
Na12 O4 2.738677 1_555
Na12 O61 2.806265 1_555
Na12 O57 2.831670 1_555
Na13 O119 2.364790 1_555
Na13 O115 2.490400 1_555
Na13 O75 2.515687 1_545
Na13 O76 2.550409 1_655
Na13 O5 2.640265 1_555
Na13 O47 2.677701 1_555
Na13 O56 2.786987 1_655
Na13 O60 2.852781 1_655
Na14 O72 2.397901 1_545
Na14 O114 2.456226 1_555
Na14 O76 2.488241 1_555
Na14 O116 2.585162 1_555
Na14 O42 2.658472 1_555
Na14 O0 2.762953 1_555
Na14 O58 2.819788 1_545
Na14 O62 2.853489 1_545
Na15 O73 2.373879 1_545
Na15 O115 2.465356 1_555
Na15 O77 2.489861 1_555
Na15 O117 2.564441 1_555
Na15 O1 2.677591 1_555
Na15 O43 2.750551 1_555
Na15 O63 2.877271 1_545
Na15 O59 2.893074 1_545
Na16 O116 2.447444 1_555
Na16 O74 2.455865 1_555
Na16 O73 2.497690 1_555
Na16 O118 2.539708 1_555
Na16 O2 2.634319 1_555
Na16 O44 2.672386 1_555
Na16 O54 2.694210 1_555
Na16 O64 2.863955 1_555
Na17 O117 2.416211 1_555
Na17 O75 2.446336 1_555
Na17 O3 2.533903 1_555
Na17 O119 2.542915 1_555
Na17 O72 2.564225 1_655
Na17 O45 2.683977 1_555
Na17 O65 2.819630 1_555
Na17 O55 2.885235 1_555
Na18 O86 2.438266 1_655
Na18 O89 2.470638 1_545
Na18 O75 2.497079 1_545
Na18 O85 2.568014 1_555
Na18 O76 2.586848 1_655
Na18 O72 2.603378 1_645
Na19 O87 2.497775 1_555
Na19 O77 2.552955 1_555
Na19 O84 2.558986 1_555
Na19 O88 2.591331 1_545
Na19 O74 2.639961 1_545
Na19 O73 2.641053 1_545
Na20 O94 2.442199 1_565
Na20 O80 2.479153 1_554
Na20 O93 2.490320 1_465
Na20 O91 2.561778 1_455
Na20 O78 2.583395 1_564
Na20 O83 2.658925 1_454
Na21 O95 2.485888 1_555
Na21 O81 2.494210 1_544
Na21 O79 2.509196 1_554
Na21 O82 2.606681 1_544
Na21 O92 2.662318 1_555
Na21 O90 2.662325 1_545
Na22 O100 2.437697 1_555
Na22 O110 2.531285 1_555
Na22 O96 2.569515 1_555
Na22 O108 2.608085 1_555
Na22 O98 2.703034 1_555
Na22 O112 2.753740 1_555
Na23 O101 2.445043 1_555
Na23 O111 2.462741 1_555
Na23 O97 2.509362 1_555
Na23 O113 2.622565 1_555
Na23 O109 2.666312 1_555
Na23 O99 2.709078 1_555
Na24 O104 2.434579 1_555
Na24 O102 2.453304 1_555
Na24 O118 2.557875 1_555
Na24 O116 2.653840 1_555
Na24 O106 2.664756 1_555
Na24 O114 2.666972 1_555
Na25 O103 2.372738 1_555
Na25 O105 2.466916 1_555
Na25 O119 2.505817 1_555
Na25 O117 2.617780 1_555
Na25 O107 2.626491 1_555
Na25 O115 2.669957 1_555
Na26 O120 2.421212 1_555
Na26 O134 2.437504 1_555
Na26 O124 2.458861 1_555
Na26 O136 2.513952 1_555
Na26 O132 2.647287 1_555
Na26 O122 2.734352 1_555
Na27 O135 2.410091 1_555
Na27 O121 2.452972 1_555
Na27 O137 2.512814 1_555
Na27 O125 2.523609 1_555
Na27 O133 2.623094 1_555
Na27 O123 2.705475 1_555
Na28 O142 2.379602 1_555
Na28 O128 2.380956 1_555
Na28 O126 2.507032 1_555
Na28 O138 2.544136 1_555
Na28 O140 2.553727 1_555
Na28 O130 2.667189 1_555
Na29 O129 2.365674 1_555
Na29 O143 2.459356 1_555
Na29 O127 2.500636 1_555
Na29 O141 2.579138 1_555
Na29 O131 2.634625 1_555
Na29 O139 2.651684 1_555
O0 S0 1.500636 1_555
O0 Sn0 2.176572 1_445
O1 S1 1.493071 1_545
O1 Ti0 2.123591 1_545
O2 Si0 1.665648 1_555
O2 Ti0 1.866742 1_555
O3 Si1 1.649119 1_555
O3 Sn0 1.990326 1_555
O4 Si3 1.659700 1_555
O4 Ti0 1.889653 1_545
O5 Si2 1.654554 1_655
O5 Sn0 2.015154 1_545
O6 S2 1.514888 1_555
O6 Sn1 2.158431 1_445
O7 S3 1.500296 1_555
O7 Sn2 2.162730 1_545
O8 Si5 1.626460 1_555
O8 Sn2 2.037884 1_555
O9 Si4 1.638488 1_555
O9 Sn1 1.985898 1_555
O10 Si6 1.634583 1_555
O10 Sn2 2.017349 1_545
O11 Si7 1.647141 1_555
O11 Sn1 2.007514 1_545
O12 Si6 1.651004 1_565
O12 Ti1 1.838896 1_555
O13 Si7 1.622695 1_565
O13 Sn3 1.958441 1_555
O14 S2 1.475520 1_555
O14 Sn3 2.197412 1_445
O15 S3 1.461487 1_555
O15 Ti1 2.264985 1_545
O16 Si4 1.658879 1_455
O16 Sn3 2.001765 1_455
O17 Si5 1.662197 1_555
O17 Ti1 1.835129 1_555
O18 Si0 1.645869 1_555
O18 Ti2 1.881016 1_565
O19 Si1 1.643867 1_555
O19 Sn4 1.984591 1_565
O20 Si2 1.638792 1_555
O20 Sn4 2.002474 1_455
O21 Si3 1.658212 1_555
O21 Ti2 1.833709 1_555
O22 S0 1.478899 1_565
O22 Sn4 2.144083 1_465
O23 S1 1.466260 1_555
O23 Ti2 2.209994 1_565
O24 S4 1.499180 1_555
O24 Ti3 2.000267 1_555
O25 S5 1.484365 1_555
O25 Ti4 2.058288 1_555
O26 Si8 1.630143 1_555
O26 Ti3 1.915195 1_555
O27 Si9 1.640130 1_555
O27 Ti4 1.917999 1_555
O28 Si10 1.627446 1_555
O28 Ti3 1.861208 1_555
O29 Si11 1.643042 1_555
O29 Ti4 1.863344 1_555
O30 S6 1.499479 1_555
O30 Ti5 2.009824 1_555
O31 S7 1.483128 1_555
O31 Sn5 2.164226 1_555
O32 Si12 1.641926 1_555
O32 Ti5 1.906890 1_555
O33 Si13 1.635954 1_555
O33 Sn5 2.026646 1_555
O34 Si14 1.642848 1_555
O34 Ti5 1.830408 1_555
O35 Si15 1.619825 1_555
O35 Sn5 1.962157 1_555
O36 Si14 1.642123 1_555
O36 Ti6 1.889864 1_554
O37 Si15 1.633178 1_555
O37 Sn6 1.966582 1_554
O38 S6 1.480064 1_555
O38 Ti6 2.259641 1_554
O39 S7 1.486862 1_555
O39 Sn6 2.203388 1_554
O40 Si12 1.654151 1_555
O40 Ti6 1.909486 1_554
O41 Si13 1.647245 1_555
O41 Sn6 1.996588 1_554
O42 Si8 1.659298 1_555
O42 Ti7 1.877029 1_555
O43 Si9 1.663988 1_555
O43 Ti8 1.855585 1_555
O44 Si10 1.656077 1_555
O44 Ti7 1.894001 1_555
O45 Si11 1.656922 1_555
O45 Ti8 1.870715 1_555
O46 S4 1.492773 1_555
O46 Ti7 2.199554 1_555
O47 S5 1.482028 1_555
O47 Ti8 2.249219 1_555
O48 Si16 1.629418 1_555
O48 Sn7 1.970034 1_556
O49 S8 1.485291 1_555
O49 Sn8 2.155291 1_556
O50 Si17 1.645824 1_555
O50 Sn7 2.069485 1_556
O51 Si18 1.632505 1_555
O51 Sn8 2.006277 1_556
O52 Si19 1.610555 1_555
O52 Sn7 2.016546 1_556
O53 Si20 1.636242 1_555
O53 Sn8 2.001361 1_556
O54 Si21 1.634708 1_555
O54 Sn9 1.996321 1_555
O55 Si22 1.652490 1_555
O55 Ti9 1.814739 1_555
O56 Si23 1.620679 1_555
O56 Sn9 2.038494 1_555
O57 Si24 1.627050 1_555
O57 Ti9 1.934977 1_555
O58 Si25 1.647711 1_555
O58 Sn9 2.049810 1_555
O59 Si26 1.643464 1_555
O59 Ti9 1.972090 1_555
O60 Si25 1.637669 1_555
O60 Ti10 1.903098 1_555
O61 Si26 1.640886 1_555
O61 Ti11 1.906561 1_555
O62 Si21 1.630405 1_555
O62 Ti10 2.014333 1_555
O63 Si22 1.625676 1_555
O63 Ti11 2.038815 1_555
O64 Si23 1.642114 1_555
O64 Ti10 1.835125 1_555
O65 Si24 1.645514 1_555
O65 Ti11 1.833893 1_555
O66 Si17 1.614565 1_555
O66 Sn10 2.002442 1_555
O67 Si18 1.643469 1_555
O67 Sn11 1.982198 1_555
O68 Si19 1.633247 1_555
O68 Sn10 2.028415 1_555
O69 Si20 1.651487 1_555
O69 Sn11 2.000135 1_555
O70 Si16 1.633937 1_555
O70 Sn10 2.019512 1_555
O71 S8 1.475648 1_555
O71 Sn11 2.248559 1_555
O72 Si25 1.648295 1_555
O72 Sn0 2.072044 1_455
O73 Si26 1.649553 1_555
O73 Ti0 2.054497 1_555
O74 Si21 1.654497 1_555
O74 Ti0 1.896557 1_555
O75 Si22 1.648097 1_555
O75 Sn0 2.071901 1_555
O76 Si23 1.635201 1_555
O76 Sn0 2.072555 1_445
O77 Si24 1.628684 1_555
O77 Ti0 2.087706 1_545
O78 Si17 1.681802 1_555
O78 Sn1 2.094465 1_445
O79 Si18 1.626094 1_555
O79 Sn2 2.056339 1_545
O80 Si19 1.645822 1_555
O80 Sn1 2.045633 1_455
O81 Si20 1.623139 1_555
O81 Sn2 2.050259 1_555
O82 Si16 1.628273 1_555
O82 Sn2 2.031000 1_555
O83 S8 1.502863 1_555
O83 Sn1 2.187005 1_555
O84 S4 1.475270 1_555
O84 Ti1 2.225157 1_545
O85 S5 1.486828 1_555
O85 Sn3 2.213061 1_545
O86 Si8 1.661555 1_555
O86 Sn3 2.065180 1_445
O87 Si9 1.654124 1_555
O87 Ti1 2.008700 1_545
O88 Si10 1.667010 1_555
O88 Ti1 1.894856 1_555
O89 Si11 1.660025 1_555
O89 Sn3 2.048126 1_555
O90 S6 1.465984 1_555
O90 Ti2 2.254853 1_565
O91 S7 1.478317 1_555
O91 Sn4 2.228145 1_565
O92 Si12 1.668668 1_555
O92 Ti2 1.896495 1_555
O93 Si13 1.657565 1_555
O93 Sn4 2.023277 1_555
O94 Si14 1.654170 1_555
O94 Sn4 2.061045 1_455
O95 Si15 1.653245 1_555
O95 Ti2 1.959399 1_555
O96 Si6 1.650556 1_555
O96 Ti3 1.954994 1_555
O97 Si7 1.646368 1_555
O97 Ti4 2.004276 1_555
O98 S2 1.482681 1_555
O98 Ti3 2.167401 1_555
O99 S3 1.497314 1_555
O99 Ti4 2.119977 1_555
O100 Si5 1.622721 1_555
O100 Ti3 1.940376 1_555
O101 Si4 1.633700 1_555
O101 Ti4 1.928372 1_555
O102 Si0 1.633835 1_555
O102 Ti5 1.937872 1_555
O103 Si1 1.624466 1_555
O103 Sn5 2.013575 1_555
O104 Si3 1.638282 1_555
O104 Ti5 2.076643 1_555
O105 Si2 1.649541 1_655
O105 Sn5 2.064103 1_555
O106 S0 1.492216 1_555
O106 Ti5 2.152075 1_555
O107 S1 1.521767 1_545
O107 Sn5 2.187613 1_555
O108 Si16 1.641247 1_555
O108 Ti6 1.991508 1_555
O109 S8 1.471514 1_555
O109 Sn6 2.209367 1_555
O110 Si18 1.653824 1_555
O110 Ti6 2.015820 1_555
O111 Si17 1.645243 1_655
O111 Sn6 2.050532 1_555
O112 Si19 1.670729 1_545
O112 Ti6 1.866914 1_555
O113 Si20 1.634256 1_545
O113 Sn6 2.013971 1_555
O114 Si21 1.642259 1_545
O114 Ti7 2.030294 1_555
O115 Si22 1.639409 1_545
O115 Ti8 2.010322 1_555
O116 Si23 1.648537 1_555
O116 Ti7 1.913448 1_555
O117 Si24 1.656556 1_555
O117 Ti8 1.897729 1_555
O118 Si26 1.652801 1_555
O118 Ti7 2.030974 1_555
O119 Si25 1.642081 1_655
O119 Ti8 2.088910 1_555
O120 Si14 1.647718 1_555
O120 Sn7 2.099163 1_555
O121 Si15 1.657933 1_555
O121 Sn8 2.047148 1_555
O122 S7 1.485426 1_455
O122 Sn7 2.243750 1_555
O123 S6 1.509612 1_555
O123 Sn8 2.201836 1_555
O124 Si12 1.624225 1_565
O124 Sn7 2.051755 1_555
O125 Si13 1.624953 1_565
O125 Sn8 2.002020 1_555
O126 Si8 1.654255 1_565
O126 Sn9 2.080791 1_555
O127 Si9 1.652550 1_565
O127 Ti9 2.022236 1_555
O128 Si10 1.620947 1_555
O128 Sn9 2.038965 1_555
O129 Si11 1.623082 1_555
O129 Ti9 1.964637 1_555
O130 S5 1.498457 1_455
O130 Sn9 2.314206 1_555
O131 S4 1.486964 1_555
O131 Ti9 2.324535 1_555
O132 S0 1.471118 1_565
O132 Ti10 2.313154 1_555
O133 S1 1.483145 1_555
O133 Ti11 2.311721 1_555
O134 Si0 1.646228 1_555
O134 Ti10 2.037796 1_555
O135 Si1 1.644690 1_555
O135 Ti11 1.994210 1_555
O136 Si2 1.634780 1_555
O136 Ti10 1.907911 1_555
O137 Si3 1.624679 1_555
O137 Ti11 1.928294 1_555
O138 S2 1.468335 1_555
O138 Sn10 2.247483 1_555
O139 S3 1.489776 1_555
O139 Sn11 2.183978 1_555
O140 Si4 1.645235 1_455
O140 Sn10 2.054249 1_555
O141 Si5 1.654438 1_555
O141 Sn11 2.040151 1_555
O142 Si6 1.648754 1_565
O142 Sn10 2.100268 1_555
O143 Si7 1.659348 1_565
O143 Sn11 2.036396 1_555
