# generated using pymatgen
data_MgMn6(O2F)4
_symmetry_space_group_name_H-M   'P 1'
_cell_length_a   8.14609938
_cell_length_b   5.71118143
_cell_length_c   5.83593485
_cell_angle_alpha   68.77767528
_cell_angle_beta   67.36297909
_cell_angle_gamma   67.22558808
_symmetry_Int_Tables_number   1
_chemical_formula_structural   MgMn6(O2F)4
_chemical_formula_sum   'Mg1 Mn6 O8 F4'
_cell_volume   223.70215504
_cell_formula_units_Z   1
loop_
 _symmetry_equiv_pos_site_id
 _symmetry_equiv_pos_as_xyz
  1  'x, y, z'
loop_
 _atom_site_type_symbol
 _atom_site_label
 _atom_site_symmetry_multiplicity
 _atom_site_fract_x
 _atom_site_fract_y
 _atom_site_fract_z
 _atom_site_occupancy
  Mg  Mg0  1  0.84351502  0.64577241  0.17368333  1
  Mn  Mn0  1  0.84052721  0.70808281  0.67970486  1
  Mn  Mn1  1  0.63989830  0.31084042  0.35084230  1
  Mn  Mn2  1  0.29983517  0.65568267  0.67892401  1
  Mn  Mn3  1  0.21124830  0.32550434  0.34803879  1
  Mn  Mn4  1  0.47219463  0.98315270  0.00895650  1
  Mn  Mn5  1  0.98936314  0.07115260  0.96042617  1
  O  O0  1  0.65575912  0.04055629  0.67037352  1
  O  O1  1  0.33132439  0.35375929  0.98626164  1
  O  O2  1  0.91411079  0.25587560  0.21244845  1
  O  O3  1  0.00112084  0.78833761  0.81055477  1
  O  O4  1  0.37426722  0.42382092  0.47032099  1
  O  O5  1  0.31888968  0.95322670  0.36905294  1
  O  O6  1  0.64347733  0.63100017  0.06054878  1
  O  O7  1  0.01216092  0.35045854  0.66638839  1
  F  F0  1  0.28851542  0.89100881  0.87238213  1
  F  F1  1  0.69243732  0.60309995  0.53728923  1
  F  F2  1  0.70502058  0.03897965  0.13603448  1
  F  F3  1  0.02526163  0.71968753  0.26967569  1
loop_
_geom_bond_atom_site_label_1
_geom_bond_atom_site_label_2
_geom_bond_distance
_geom_bond_site_symmetry_2
Mg0 O6 2.018258 1_555
Mg0 O2 2.020994 1_555
Mg0 O3 2.065905 1_654
Mn0 O0 1.910360 1_565
Mn0 O7 1.988187 1_655
Mn0 O3 1.997817 1_655
Mn0 O6 2.191505 1_556
Mn1 O4 1.915234 1_555
Mn1 O0 1.955489 1_555
Mn1 O6 1.993716 1_555
Mn1 O2 1.998109 1_555
Mn2 O4 1.892216 1_555
Mn2 O5 1.986303 1_555
Mn2 O1 2.007182 1_555
Mn2 O3 2.154168 1_555
Mn3 O1 1.930349 1_554
Mn3 O5 1.937793 1_545
Mn3 O7 1.948208 1_555
Mn3 O4 2.045718 1_555
Mn4 O6 1.948032 1_555
Mn4 O1 1.961625 1_564
Mn4 O0 1.970773 1_564
Mn4 O5 1.972328 1_555
Mn5 O7 1.877755 1_655
Mn5 O2 1.892251 1_556
Mn5 O3 2.054649 1_645
F0 Mn2 2.002980 1_555
F0 Mn5 2.176894 1_465
F0 Mn4 2.232118 1_556
F1 Mg0 1.980988 1_555
F1 Mn0 2.048934 1_555
F1 Mn1 2.525787 1_555
F2 Mg0 2.058217 1_545
F2 Mn1 2.126779 1_555
F2 Mn5 2.194328 1_554
F2 Mn4 2.443554 1_545
F3 Mg0 1.994375 1_455
F3 Mn5 2.168167 1_464
F3 Mn3 2.172564 1_555
F3 Mn0 2.277150 1_455
