# generated using pymatgen
data_Ba4Mg(Co2O5)2
_symmetry_space_group_name_H-M   'P 1'
_cell_length_a   5.49768915
_cell_length_b   5.75142935
_cell_length_c   10.13849108
_cell_angle_alpha   106.52068155
_cell_angle_beta   105.68132828
_cell_angle_gamma   89.88308567
_symmetry_Int_Tables_number   1
_chemical_formula_structural   Ba4Mg(Co2O5)2
_chemical_formula_sum   'Ba4 Mg1 Co4 O10'
_cell_volume   294.92756932
_cell_formula_units_Z   1
loop_
 _symmetry_equiv_pos_site_id
 _symmetry_equiv_pos_as_xyz
  1  'x, y, z'
loop_
 _atom_site_type_symbol
 _atom_site_label
 _atom_site_symmetry_multiplicity
 _atom_site_fract_x
 _atom_site_fract_y
 _atom_site_fract_z
 _atom_site_occupancy
  Ba  Ba0  1  0.62220900  0.12859600  0.22342200  1
  Ba  Ba1  1  0.42054100  0.90697800  0.80257100  1
  Ba  Ba2  1  0.11771100  0.60486800  0.19784900  1
  Ba  Ba3  1  0.89885900  0.40483700  0.77650400  1
  Mg  Mg0  1  0.06939300  0.55786700  0.50121800  1
  Co  Co0  1  0.01596200  0.01055200  0.00033700  1
  Co  Co1  1  0.51574900  0.51030400  0.99985300  1
  Co  Co2  1  0.19824900  0.12912900  0.49907500  1
  Co  Co3  1  0.68680800  0.83836200  0.50019300  1
  O  O0  1  0.26831300  0.26509800  0.99574700  1
  O  O1  1  0.26179800  0.76778500  0.00239300  1
  O  O2  1  0.77038000  0.25392600  0.99795800  1
  O  O3  1  0.76160700  0.75702300  0.00401000  1
  O  O4  1  0.15720500  0.22184000  0.33645900  1
  O  O5  1  0.91079300  0.77159400  0.65974500  1
  O  O6  1  0.75411700  0.61032500  0.34194400  1
  O  O7  1  0.31670200  0.38853300  0.66075700  1
  O  O8  1  0.83589300  0.13943900  0.49959600  1
  O  O9  1  0.32904400  0.81627700  0.50037200  1
loop_
_geom_bond_atom_site_label_1
_geom_bond_atom_site_label_2
_geom_bond_distance
_geom_bond_site_symmetry_2
Ba0 O6 2.699984 1_555
Ba0 O8 2.710491 1_555
Ba0 O4 2.843704 1_655
Ba0 O1 2.868080 1_545
Ba0 O3 2.883409 1_545
Ba0 O0 2.885583 1_554
Ba0 O2 2.890399 1_554
Ba0 O4 3.060231 1_555
Ba1 O2 2.704263 1_565
Ba1 O3 2.712143 1_556
Ba1 O0 2.713551 1_565
Ba1 O1 2.718044 1_556
Ba1 O5 2.780424 1_455
Ba1 O9 2.858541 1_555
Ba1 O7 2.899875 1_555
Ba2 O0 2.708501 1_554
Ba2 O1 2.709228 1_555
Ba2 O3 2.711460 1_455
Ba2 O2 2.724847 1_454
Ba2 O6 2.771861 1_455
Ba2 O9 2.862522 1_555
Ba2 O4 2.910118 1_555
Ba2 O4 3.408200 1_565
Ba3 O5 2.705127 1_555
Ba3 O8 2.714976 1_555
Ba3 O7 2.838427 1_655
Ba3 O2 2.874247 1_555
Ba3 O3 2.875768 1_556
Ba3 O0 2.877679 1_655
Ba3 O1 2.900284 1_656
Ba3 O7 3.088295 1_555
Mg0 O9 2.066197 1_555
Mg0 O6 2.113013 1_455
Mg0 O5 2.117555 1_455
Mg0 O7 2.261644 1_555
Mg0 O4 2.313983 1_555
Mg0 O8 2.723674 1_455
Co0 O1 1.941706 1_545
Co0 O2 1.943353 1_454
Co0 O3 2.037247 1_445
Co0 O0 2.037680 1_554
Co1 O0 1.945496 1_555
Co1 O3 1.945580 1_556
Co1 O2 2.030840 1_555
Co1 O1 2.032783 1_556
Co2 O4 1.830783 1_555
Co2 O7 1.836582 1_555
Co2 O9 1.938542 1_545
Co2 O8 1.994271 1_455
Co3 O6 1.885050 1_555
Co3 O5 1.885486 1_555
Co3 O8 1.919576 1_565
Co3 O9 1.971755 1_555
