# generated using pymatgen
data_Na21Ca10Ta2P15(SO24)3
_symmetry_space_group_name_H-M   'P 1'
_cell_length_a   9.42471336
_cell_length_b   9.37301388
_cell_length_c   22.60462462
_cell_angle_alpha   89.99473131
_cell_angle_beta   89.96300159
_cell_angle_gamma   119.98193058
_symmetry_Int_Tables_number   1
_chemical_formula_structural   Na21Ca10Ta2P15(SO24)3
_chemical_formula_sum   'Na21 Ca10 Ta2 P15 S3 O72'
_cell_volume   1729.63414000
_cell_formula_units_Z   1
loop_
 _symmetry_equiv_pos_site_id
 _symmetry_equiv_pos_as_xyz
  1  'x, y, z'
loop_
 _atom_site_type_symbol
 _atom_site_label
 _atom_site_symmetry_multiplicity
 _atom_site_fract_x
 _atom_site_fract_y
 _atom_site_fract_z
 _atom_site_occupancy
  Na  Na0  1  0.34957522  0.33661234  0.24837711  1
  Na  Na1  1  0.98876186  0.33704438  0.73701130  1
  Na  Na2  1  0.35895911  0.01507716  0.73751941  1
  Na  Na3  1  0.28917450  0.31995139  0.57900515  1
  Na  Na4  1  0.04423832  0.69846725  0.58230701  1
  Na  Na5  1  0.66696971  0.98492411  0.58150209  1
  Na  Na6  1  0.30148456  0.98277993  0.09180292  1
  Na  Na7  1  0.65192906  0.68327957  0.09540898  1
  Na  Na8  1  0.04547371  0.33185992  0.09260407  1
  Na  Na9  1  0.96356999  0.67215585  0.90796505  1
  Na  Na10  1  0.71220535  0.04025890  0.90748804  1
  Na  Na11  1  0.32537431  0.28860548  0.91349923  1
  Na  Na12  1  0.96396949  0.29042436  0.41128110  1
  Na  Na13  1  0.32720698  0.03989394  0.41196971  1
  Na  Na14  1  0.71014383  0.67030804  0.40556244  1
  Na  Na15  1  0.01026866  0.01057171  0.50035279  1
  Na  Na16  1  0.01413066  0.01308173  0.00036753  1
  Na  Na17  1  0.66595486  0.34864131  0.82561717  1
  Na  Na18  1  0.68244428  0.33242686  0.32606736  1
  Na  Na19  1  0.33284865  0.67112150  0.17452818  1
  Na  Na20  1  0.33637205  0.66613874  0.65815322  1
  Ca  Ca0  1  0.99457838  0.99715276  0.34356385  1
  Ca  Ca1  1  0.99727950  0.99549048  0.84402915  1
  Ca  Ca2  1  0.99593470  0.99661739  0.65770621  1
  Ca  Ca3  1  0.99753888  0.99490998  0.16333036  1
  Ca  Ca4  1  0.66871534  0.33788997  0.68256969  1
  Ca  Ca5  1  0.67014790  0.33573205  0.18695407  1
  Ca  Ca6  1  0.65980961  0.33256287  0.97922428  1
  Ca  Ca7  1  0.66643166  0.32802991  0.48097619  1
  Ca  Ca8  1  0.33460858  0.66319317  0.01543259  1
  Ca  Ca9  1  0.33056409  0.66793409  0.51374173  1
  Ta  Ta0  1  0.33464850  0.67195773  0.31739851  1
  Ta  Ta1  1  0.33770758  0.66731617  0.81750121  1
  P  P0  1  0.31128369  0.99430726  0.25158654  1
  P  P1  1  0.67456644  0.68522208  0.25251903  1
  P  P2  1  0.01252503  0.32462517  0.25326407  1
  P  P3  1  0.30945686  0.31668878  0.75482988  1
  P  P4  1  0.01142368  0.68641492  0.75536394  1
  P  P5  1  0.68103080  0.99519759  0.75349971  1
  P  P6  1  0.97347529  0.32889858  0.58399346  1
  P  P7  1  0.35562298  0.02734959  0.58473242  1
  P  P8  1  0.35587091  0.32615100  0.08268822  1
  P  P9  1  0.63032605  0.66748981  0.91795898  1
  P  P10  1  0.03584928  0.37114650  0.91651732  1
  P  P11  1  0.33380227  0.96256003  0.91749996  1
  P  P12  1  0.63063654  0.96321822  0.41773040  1
  P  P13  1  0.33507706  0.37087046  0.41613210  1
  P  P14  1  0.03577587  0.66582759  0.41670500  1
  S  S0  1  0.67036310  0.64098463  0.58054530  1
  S  S1  1  0.96834614  0.64093199  0.07968094  1
  S  S2  1  0.67336096  0.03241933  0.08060166  1
  O  O0  1  0.21999399  0.01726560  0.30343195  1
  O  O1  1  0.77857478  0.77292887  0.30633996  1
  O  O2  1  0.99879504  0.22312771  0.30811341  1
  O  O3  1  0.22751613  0.21305493  0.81031007  1
  O  O4  1  0.99403552  0.76629322  0.81188334  1
  O  O5  1  0.78850406  0.02019103  0.80786818  1
  O  O6  1  0.75233563  0.96656823  0.69681755  1
  O  O7  1  0.19369792  0.24744376  0.70084794  1
  O  O8  1  0.04718879  0.79883369  0.70107736  1
  O  O9  1  0.74528272  0.77926375  0.19397260  1
  O  O10  1  0.05054190  0.25291245  0.19718857  1
  O  O11  1  0.21429550  0.95902218  0.19309837  1
  O  O12  1  0.88677093  0.33994616  0.64042779  1
  O  O13  1  0.45027041  0.11772828  0.64113567  1
  O  O14  1  0.65859710  0.53782167  0.63144233  1
  O  O15  1  0.87463631  0.53219536  0.12892752  1
  O  O16  1  0.66575265  0.13055269  0.12979861  1
  O  O17  1  0.46186961  0.33520857  0.13587489  1
  O  O18  1  0.43526643  0.31454267  0.02379297  1
  O  O19  1  0.88634666  0.56699898  0.02239660  1
  O  O20  1  0.68649118  0.11682302  0.02320543  1
  O  O21  1  0.44303584  0.12889239  0.52865021  1
  O  O22  1  0.68140625  0.56462339  0.52447492  1
  O  O23  1  0.87520179  0.32186163  0.52805582  1
  O  O24  1  0.56074161  0.68127049  0.97726638  1
  O  O25  1  0.12191129  0.44462960  0.97521039  1
  O  O26  1  0.32217739  0.87674735  0.97624395  1
  O  O27  1  0.56088500  0.87997936  0.47728159  1
  O  O28  1  0.32228288  0.44428200  0.47502585  1
  O  O29  1  0.11940230  0.68073485  0.47619743  1
  O  O30  1  0.15892876  0.66781206  0.36675974  1
  O  O31  1  0.51065614  0.83992884  0.36757536  1
  O  O32  1  0.33297535  0.48702412  0.36402954  1
  O  O33  1  0.15485140  0.48819132  0.86468783  1
  O  O34  1  0.33122798  0.84353199  0.86550611  1
  O  O35  1  0.51008071  0.66970952  0.86770868  1
  O  O36  1  0.01216624  0.81588334  0.40940006  1
  O  O37  1  0.80382061  0.98771232  0.41068486  1
  O  O38  1  0.18505749  0.19579586  0.41082067  1
  O  O39  1  0.01152258  0.19616643  0.91079621  1
  O  O40  1  0.18451471  0.98766999  0.91177225  1
  O  O41  1  0.80331470  0.81677602  0.91035203  1
  O  O42  1  0.98573455  0.16858427  0.58434810  1
  O  O43  1  0.17889988  0.00276417  0.58520858  1
  O  O44  1  0.82048657  0.80688232  0.58476870  1
  O  O45  1  0.97877531  0.80526923  0.08478594  1
  O  O46  1  0.82015789  0.01122105  0.08562879  1
  O  O47  1  0.18104828  0.16875959  0.08583224  1
  O  O48  1  0.64873916  0.14065342  0.75016872  1
  O  O49  1  0.47797035  0.33424774  0.74744267  1
  O  O50  1  0.87112600  0.50866377  0.74981241  1
  O  O51  1  0.63404115  0.50480544  0.25077983  1
  O  O52  1  0.86982988  0.35559501  0.24765597  1
  O  O53  1  0.48301445  0.14539352  0.24864295  1
  O  O54  1  0.62992724  0.50363140  0.90941637  1
  O  O55  1  0.87183865  0.36957363  0.90922224  1
  O  O56  1  0.49675085  0.12671390  0.90951470  1
  O  O57  1  0.62963431  0.12626474  0.40945045  1
  O  O58  1  0.49736168  0.36913070  0.40909406  1
  O  O59  1  0.87309473  0.50217296  0.40910413  1
  O  O60  1  0.33845616  0.48419595  0.08559306  1
  O  O61  1  0.13819610  0.66573563  0.08208393  1
  O  O62  1  0.52160532  0.86593705  0.08317126  1
  O  O63  1  0.34431175  0.85493726  0.58524730  1
  O  O64  1  0.52275031  0.66113492  0.58175448  1
  O  O65  1  0.14998069  0.48264632  0.58441970  1
  O  O66  1  0.33148256  0.83734922  0.26379494  1
  O  O67  1  0.49833516  0.67227217  0.26024174  1
  O  O68  1  0.17626533  0.50160808  0.26107548  1
  O  O69  1  0.33208076  0.49657825  0.76429836  1
  O  O70  1  0.17480356  0.67134106  0.76119294  1
  O  O71  1  0.50316428  0.83587696  0.76313234  1
loop_
_geom_bond_atom_site_label_1
_geom_bond_atom_site_label_2
_geom_bond_distance
_geom_bond_site_symmetry_2
Na0 O51 2.334953 1_555
Na0 O53 2.654582 1_555
Na0 O67 2.743703 1_555
Na0 O17 2.756432 1_555
Na0 O68 2.768793 1_555
Na0 O10 2.773401 1_555
Na0 O0 2.888521 1_555
Na0 O32 3.011162 1_555
Na1 O50 2.383819 1_555
Na1 O12 2.391663 1_555
Na1 O7 2.592952 1_655
Na1 O70 2.775193 1_655
Na1 O48 2.801676 1_555
Na1 O69 2.872820 1_655
Na2 O13 2.362792 1_555
Na2 O48 2.390456 1_555
Na2 O49 2.627697 1_555
Na2 O71 2.699247 1_545
Na2 O8 2.733437 1_545
Na2 O70 2.844056 1_545
Na3 O65 2.461840 1_555
Na3 O42 2.480008 1_455
Na3 O28 2.571958 1_555
Na3 O43 2.617273 1_555
Na3 O64 2.835639 1_555
Na3 O7 2.870977 1_555
Na4 O63 2.451192 1_555
Na4 O43 2.476337 1_565
Na4 O29 2.529453 1_555
Na4 O65 2.665053 1_555
Na4 O44 2.761218 1_455
Na4 O8 2.840441 1_555
Na5 O27 2.556920 1_555
Na5 O42 2.612384 1_565
Na5 O64 2.633473 1_555
Na5 O63 2.652486 1_555
Na5 O44 2.701291 1_555
Na5 O6 2.759088 1_555
Na6 O11 2.404653 1_555
Na6 O47 2.514569 1_565
Na6 O61 2.584031 1_555
Na6 O45 2.643265 1_455
Na6 O62 2.794927 1_555
Na6 O26 2.835968 1_554
Na7 O9 2.399840 1_555
Na7 O62 2.572611 1_555
Na7 O60 2.598205 1_555
Na7 O46 2.671986 1_565
Na7 O45 2.707920 1_555
Na7 O24 2.803157 1_554
Na7 O17 2.974163 1_555
Na8 O60 2.397368 1_555
Na8 O47 2.438280 1_555
Na8 O10 2.484740 1_555
Na8 O46 2.681127 1_455
Na8 O61 2.807106 1_555
Na8 O25 2.813181 1_554
Na9 O4 2.307321 1_555
Na9 O41 2.483481 1_555
Na9 O55 2.518155 1_555
Na9 O40 2.633397 1_655
Na9 O54 2.723885 1_555
Na9 O19 2.733541 1_556
Na10 O5 2.399284 1_555
Na10 O39 2.445233 1_655
Na10 O56 2.535064 1_555
Na10 O41 2.631933 1_545
Na10 O55 2.674198 1_555
Na10 O20 2.754855 1_556
Na11 O40 2.444924 1_545
Na11 O3 2.478548 1_555
Na11 O54 2.554818 1_555
Na11 O39 2.634910 1_555
Na11 O18 2.664463 1_556
Na11 O56 2.714558 1_555
Na12 O37 2.459387 1_545
Na12 O2 2.479988 1_555
Na12 O59 2.524687 1_555
Na12 O38 2.641149 1_655
Na12 O57 2.729938 1_555
Na12 O23 2.828102 1_555
Na13 O38 2.426415 1_555
Na13 O57 2.544869 1_555
Na13 O0 2.621935 1_555
Na13 O36 2.645243 1_545
Na13 O58 2.674456 1_555
Na13 O21 2.817456 1_555
Na14 O1 2.397792 1_555
Na14 O36 2.467844 1_655
Na14 O58 2.517682 1_555
Na14 O37 2.649293 1_555
Na14 O59 2.695853 1_555
Na14 O22 2.830235 1_555
Na15 O42 2.488816 1_455
Na15 O43 2.516073 1_555
Na15 O38 2.638252 1_555
Na15 O44 2.658449 1_445
Na15 O37 2.743826 1_445
Na15 O36 2.755082 1_545
Na16 O47 2.458946 1_555
Na16 O45 2.626077 1_445
Na16 O46 2.649613 1_455
Na16 O40 2.650332 1_544
Na16 O39 2.662057 1_554
Na16 O41 2.797423 1_444
Na17 O50 2.453880 1_555
Na17 O49 2.458654 1_555
Na17 O54 2.511287 1_555
Na17 O48 2.533827 1_555
Na17 O55 2.645659 1_555
Na17 O56 2.673314 1_555
Na18 O52 2.433169 1_555
Na18 O53 2.525995 1_555
Na18 O59 2.535904 1_555
Na18 O51 2.540089 1_555
Na18 O57 2.563444 1_555
Na18 O58 2.697982 1_555
Na19 O67 2.484704 1_555
Na19 O68 2.486344 1_555
Na19 O66 2.553425 1_555
Na19 O60 2.684592 1_555
Na19 O62 2.740724 1_555
Na19 O61 2.765361 1_555
Na20 O63 2.391657 1_555
Na20 O65 2.409678 1_555
Na20 O64 2.479628 1_555
Na20 O70 2.795677 1_555
Na20 O71 2.852958 1_555
Na20 O69 2.866950 1_555
Ca0 O0 2.229146 1_665
Ca0 O1 2.235109 1_555
Ca0 O2 2.246209 1_565
Ca0 O37 2.319383 1_555
Ca0 O36 2.326005 1_655
Ca0 O38 2.379948 1_665
Ca1 O3 2.241204 1_665
Ca1 O5 2.247384 1_565
Ca1 O4 2.253592 1_555
Ca1 O41 2.308865 1_555
Ca1 O39 2.362668 1_665
Ca1 O40 2.365792 1_655
Ca2 O6 2.341569 1_555
Ca2 O42 2.347682 1_565
Ca2 O8 2.350846 1_655
Ca2 O43 2.357859 1_665
Ca2 O7 2.361233 1_665
Ca2 O44 2.383317 1_555
Ca3 O9 2.326435 1_555
Ca3 O11 2.329760 1_655
Ca3 O10 2.340249 1_665
Ca3 O47 2.427801 1_665
Ca3 O45 2.455586 1_555
Ca3 O46 2.482409 1_565
Ca4 O14 2.243849 1_555
Ca4 O12 2.255923 1_555
Ca4 O13 2.265142 1_555
Ca4 O49 2.306212 1_555
Ca4 O48 2.332236 1_555
Ca4 O50 2.337526 1_555
Ca5 O53 2.255989 1_555
Ca5 O52 2.261053 1_555
Ca5 O17 2.275898 1_555
Ca5 O51 2.290737 1_555
Ca5 O15 2.296736 1_555
Ca5 O16 2.300072 1_555
Ca6 O18 2.272004 1_556
Ca6 O54 2.364691 1_555
Ca6 O56 2.368037 1_555
Ca6 O20 2.376724 1_556
Ca6 O19 2.377687 1_556
Ca6 O55 2.433200 1_555
Ca7 O23 2.263567 1_555
Ca7 O21 2.268725 1_555
Ca7 O22 2.364793 1_555
Ca7 O57 2.378357 1_555
Ca7 O59 2.432149 1_555
Ca7 O58 2.438112 1_555
Ca8 O25 2.222651 1_554
Ca8 O24 2.225282 1_554
Ca8 O26 2.244823 1_554
Ca8 O60 2.322018 1_555
Ca8 O62 2.391355 1_555
Ca8 O61 2.395345 1_555
Ca9 O29 2.221736 1_555
Ca9 O28 2.236816 1_555
Ca9 O27 2.242064 1_555
Ca9 O63 2.339969 1_555
Ca9 O65 2.346713 1_555
Ca9 O64 2.401546 1_555
O0 P0 1.530948 1_545
O1 P1 1.520902 1_555
O2 P2 1.528251 1_655
O3 P3 1.536722 1_555
O4 P4 1.530426 1_655
O5 P5 1.534845 1_545
O6 P5 1.531173 1_555
O7 P3 1.547470 1_555
O8 P4 1.540778 1_555
O9 P1 1.544051 1_555
O10 P2 1.557941 1_555
O11 P0 1.546733 1_555
O12 P6 1.545665 1_555
O13 P7 1.544445 1_555
O14 S0 1.470856 1_555
O15 S1 1.468626 1_555
O16 S2 1.467620 1_555
O17 P8 1.538658 1_555
O18 P8 1.556999 1_555
O19 S1 1.490105 1_555
O20 S2 1.492058 1_555
O21 P7 1.551267 1_555
O22 S0 1.484583 1_555
O23 P6 1.549677 1_555
O24 P9 1.525648 1_555
O25 P10 1.528305 1_555
O26 P11 1.527665 1_555
O27 P12 1.529376 1_555
O28 P13 1.530743 1_555
O29 P14 1.529885 1_555
O30 P14 1.612104 1_555
O30 Ta0 1.980526 1_555
O31 P12 1.610995 1_555
O31 Ta0 1.977228 1_555
O32 P13 1.610635 1_555
O32 Ta0 2.021948 1_555
O33 P10 1.613188 1_555
O33 Ta1 2.007982 1_555
O34 P11 1.612397 1_555
O34 Ta1 2.002579 1_555
O35 P9 1.612520 1_555
O35 Ta1 1.973254 1_555
O36 P14 1.538747 1_555
O37 P12 1.538609 1_555
O38 P13 1.545208 1_555
O39 P10 1.543840 1_555
O40 P11 1.543689 1_555
O41 P9 1.537898 1_555
O42 P6 1.563593 1_555
O43 P7 1.563233 1_555
O44 S0 1.493390 1_555
O45 S1 1.498111 1_555
O46 S2 1.497150 1_555
O47 P8 1.570544 1_555
O48 P5 1.540048 1_545
O49 P3 1.521753 1_555
O50 P4 1.529176 1_655
O51 P1 1.536741 1_555
O52 P2 1.516368 1_655
O53 P0 1.529219 1_545
O54 P9 1.546097 1_555
O55 P10 1.547358 1_655
O56 P11 1.548028 1_545
O57 P12 1.544347 1_545
O58 P13 1.545806 1_555
O59 P14 1.543717 1_655
O60 P8 1.571202 1_555
O61 S1 1.499226 1_455
O62 S2 1.501081 1_565
O63 P7 1.565517 1_565
O64 S0 1.494805 1_555
O65 P6 1.564659 1_455
O66 P0 1.598951 1_555
O66 Ta0 1.979440 1_555
O67 P1 1.613078 1_555
O67 Ta0 2.010496 1_555
O68 P2 1.614412 1_555
O68 Ta0 2.004815 1_555
O69 P3 1.604691 1_555
O69 Ta1 1.981363 1_555
O70 P4 1.620503 1_555
O70 Ta1 2.009760 1_555
O71 P5 1.607809 1_555
O71 Ta1 1.993251 1_555
