# generated using pymatgen
data_Li2V(PO4)2
_symmetry_space_group_name_H-M   'P 1'
_cell_length_a   5.09780784
_cell_length_b   10.88825392
_cell_length_c   10.88864712
_cell_angle_alpha   89.00696260
_cell_angle_beta   87.21236198
_cell_angle_gamma   92.78796287
_symmetry_Int_Tables_number   1
_chemical_formula_structural   Li2V(PO4)2
_chemical_formula_sum   'Li8 V4 P8 O32'
_cell_volume   602.84046391
_cell_formula_units_Z   4
loop_
 _symmetry_equiv_pos_site_id
 _symmetry_equiv_pos_as_xyz
  1  'x, y, z'
loop_
 _atom_site_type_symbol
 _atom_site_label
 _atom_site_symmetry_multiplicity
 _atom_site_fract_x
 _atom_site_fract_y
 _atom_site_fract_z
 _atom_site_occupancy
  Li  Li0  1  0.89062100  0.63861900  0.22993800  1
  Li  Li1  1  0.89053700  0.13862600  0.72997800  1
  Li  Li2  1  0.60930000  0.22997500  0.13859200  1
  Li  Li3  1  0.60926700  0.72995400  0.63862300  1
  Li  Li4  1  0.39071900  0.77005600  0.86139800  1
  Li  Li5  1  0.39064900  0.27004500  0.36137100  1
  Li  Li6  1  0.10938200  0.36134100  0.77002700  1
  Li  Li7  1  0.10930800  0.86140500  0.27003900  1
  V  V0  1  0.50010700  0.50008800  0.49993700  1
  V  V1  1  0.00017500  0.99991300  0.50004600  1
  V  V2  1  0.50020700  0.99999100  0.00005000  1
  V  V3  1  0.99988100  0.50007200  0.99995400  1
  P  P0  1  0.04059100  0.19457000  0.99357300  1
  P  P1  1  0.04052900  0.69454200  0.49354800  1
  P  P2  1  0.54036500  0.50643100  0.80540000  1
  P  P3  1  0.54059900  0.00639200  0.30545100  1
  P  P4  1  0.95961200  0.80545000  0.00645300  1
  P  P5  1  0.95956900  0.30548100  0.50641600  1
  P  P6  1  0.45941500  0.49360400  0.19452500  1
  P  P7  1  0.45959300  0.99356300  0.69458000  1
  O  O0  1  0.42901000  0.35652600  0.20721600  1
  O  O1  1  0.42892800  0.85651000  0.70725700  1
  O  O2  1  0.92893300  0.79275900  0.14347200  1
  O  O3  1  0.92906500  0.29274600  0.64344300  1
  O  O4  1  0.57099200  0.64347800  0.79274000  1
  O  O5  1  0.57101300  0.14346700  0.29274000  1
  O  O6  1  0.07099100  0.20719200  0.85655500  1
  O  O7  1  0.07092400  0.70727200  0.35651500  1
  O  O8  1  0.97249900  0.31846100  0.05632000  1
  O  O9  1  0.97251000  0.81845800  0.55640800  1
  O  O10  1  0.47253900  0.44364200  0.68152400  1
  O  O11  1  0.47259900  0.94358300  0.18159100  1
  O  O12  1  0.02737900  0.68154200  0.94363000  1
  O  O13  1  0.02745900  0.18149400  0.44363900  1
  O  O14  1  0.52746700  0.55641500  0.31840700  1
  O  O15  1  0.52740000  0.05635700  0.81849500  1
  O  O16  1  0.70245900  0.85934400  0.95577700  1
  O  O17  1  0.70232900  0.35938100  0.45581700  1
  O  O18  1  0.29757800  0.14058800  0.04424500  1
  O  O19  1  0.29762500  0.64070300  0.54417900  1
  O  O20  1  0.79765600  0.45580000  0.85932900  1
  O  O21  1  0.79766100  0.95578900  0.35942800  1
  O  O22  1  0.20218300  0.54419500  0.14061500  1
  O  O23  1  0.20233700  0.04416100  0.64070000  1
  O  O24  1  0.30978300  0.45999700  0.89807200  1
  O  O25  1  0.30986300  0.95997300  0.39809000  1
  O  O26  1  0.80980100  0.10193300  0.04000700  1
  O  O27  1  0.80994500  0.60194500  0.53999300  1
  O  O28  1  0.69008200  0.54005500  0.10186900  1
  O  O29  1  0.69015300  0.03997300  0.60198000  1
  O  O30  1  0.19023800  0.89803900  0.96006100  1
  O  O31  1  0.19017600  0.39810400  0.45999200  1
loop_
_geom_bond_atom_site_label_1
_geom_bond_atom_site_label_2
_geom_bond_distance
_geom_bond_site_symmetry_2
Li0 O7 1.842629 1_655
Li0 O2 1.907030 1_555
Li0 O28 2.055551 1_555
Li0 O22 2.137493 1_655
Li0 O14 2.189022 1_555
Li1 O6 1.842653 1_655
Li1 O3 1.907236 1_555
Li1 O29 2.055096 1_555
Li1 O23 2.138421 1_655
Li1 O15 2.189412 1_555
Li2 O0 1.842228 1_555
Li2 O5 1.907354 1_555
Li2 O26 2.055351 1_555
Li2 O18 2.137954 1_555
Li2 O8 2.189544 1_555
Li3 O1 1.842442 1_555
Li3 O4 1.906894 1_555
Li3 O27 2.055801 1_555
Li3 O19 2.137572 1_555
Li3 O9 2.189577 1_555
Li4 O4 1.842558 1_555
Li4 O1 1.906996 1_555
Li4 O30 2.055276 1_555
Li4 O16 2.137745 1_555
Li4 O12 2.190084 1_555
Li5 O5 1.842682 1_555
Li5 O0 1.907294 1_555
Li5 O31 2.055611 1_555
Li5 O17 2.138123 1_555
Li5 O13 2.189768 1_555
Li6 O3 1.842477 1_455
Li6 O6 1.907449 1_555
Li6 O24 2.055521 1_555
Li6 O20 2.138218 1_455
Li6 O10 2.189560 1_555
Li7 O2 1.842704 1_455
Li7 O7 1.907028 1_555
Li7 O25 2.055475 1_555
Li7 O21 2.137894 1_455
Li7 O11 2.189393 1_555
O0 P6 1.496349 1_555
O1 P7 1.496136 1_555
O2 P4 1.495837 1_555
O3 P5 1.495911 1_555
O4 P2 1.496048 1_555
O5 P3 1.496334 1_555
O6 P0 1.495701 1_555
O7 P1 1.495944 1_555
O8 P0 1.568888 1_654
O8 V3 2.056487 1_554
O9 P1 1.569578 1_655
O9 V1 2.054866 1_655
O10 P2 1.568647 1_555
O10 V0 2.056549 1_555
O11 P3 1.568804 1_565
O11 V2 2.055958 1_555
O12 P4 1.569014 1_456
O12 V3 2.054900 1_455
O13 P5 1.569700 1_455
O13 V1 2.056297 1_545
O14 P6 1.569088 1_555
O14 V0 2.055590 1_555
O15 P7 1.569021 1_545
O15 V2 2.055962 1_546
O16 P4 1.581548 1_556
O16 V2 1.942027 1_556
O17 P5 1.581637 1_555
O17 V0 1.942084 1_555
O18 P0 1.581190 1_554
O18 V2 1.942453 1_545
O19 P1 1.580867 1_555
O19 V0 1.942316 1_555
O20 P2 1.582124 1_555
O20 V3 1.941787 1_555
O21 P3 1.581211 1_565
O21 V1 1.942166 1_655
O22 P6 1.581614 1_555
O22 V3 1.941944 1_454
O23 P7 1.581616 1_545
O23 V1 1.941805 1_545
O24 P2 1.569932 1_555
O24 V3 1.957108 1_455
O25 P3 1.570223 1_565
O25 V1 1.956275 1_555
O26 P0 1.570429 1_654
O26 V2 1.955841 1_545
O27 P1 1.569463 1_655
O27 V0 1.956625 1_555
O28 P6 1.570183 1_555
O28 V3 1.956612 1_554
O29 P7 1.569311 1_545
O29 V1 1.957848 1_645
O30 P4 1.569402 1_456
O30 V2 1.957505 1_556
O31 P5 1.569652 1_455
O31 V0 1.957407 1_555
