# generated using pymatgen
data_KGe
_symmetry_space_group_name_H-M   'P 1'
_cell_length_a   12.72430110
_cell_length_b   12.72430110
_cell_length_c   12.72430110
_cell_angle_alpha   90.00000000
_cell_angle_beta   90.00000000
_cell_angle_gamma   90.00000000
_symmetry_Int_Tables_number   1
_chemical_formula_structural   KGe
_chemical_formula_sum   'K32 Ge32'
_cell_volume   2060.16408731
_cell_formula_units_Z   32
loop_
 _symmetry_equiv_pos_site_id
 _symmetry_equiv_pos_as_xyz
  1  'x, y, z'
loop_
 _atom_site_type_symbol
 _atom_site_label
 _atom_site_symmetry_multiplicity
 _atom_site_fract_x
 _atom_site_fract_y
 _atom_site_fract_z
 _atom_site_occupancy
  K  K0  1  0.83690113  0.56619497  0.63975426  1
  K  K1  1  0.83690113  0.43380503  0.36024474  1
  K  K2  1  0.56619497  0.63975426  0.83690113  1
  K  K3  1  0.43380503  0.63975426  0.16309887  1
  K  K4  1  0.63975426  0.83690113  0.56619497  1
  K  K5  1  0.36024474  0.16309887  0.56619497  1
  K  K6  1  0.66309887  0.86024574  0.06619497  1
  K  K7  1  0.66309887  0.13975526  0.93380503  1
  K  K8  1  0.33690113  0.86024574  0.93380503  1
  K  K9  1  0.13975526  0.93380503  0.66309887  1
  K  K10  1  0.93380503  0.33690113  0.86024574  1
  K  K11  1  0.93380503  0.66309887  0.13975526  1
  K  K12  1  0.86024574  0.06619497  0.66309887  1
  K  K13  1  0.06619497  0.66309887  0.86024574  1
  K  K14  1  0.86024574  0.93380503  0.33690113  1
  K  K15  1  0.33406490  0.33406490  0.33406490  1
  K  K16  1  0.06619497  0.33690113  0.13975526  1
  K  K17  1  0.36024474  0.83690113  0.43380503  1
  K  K18  1  0.63975426  0.16309887  0.43380503  1
  K  K19  1  0.56619497  0.36024474  0.16309887  1
  K  K20  1  0.43380503  0.36024474  0.83690113  1
  K  K21  1  0.16309887  0.43380503  0.63975426  1
  K  K22  1  0.16309887  0.56619497  0.36024474  1
  K  K23  1  0.33690113  0.13975526  0.06619497  1
  K  K24  1  0.83406490  0.83406490  0.83406490  1
  K  K25  1  0.66593510  0.33406490  0.66593510  1
  K  K26  1  0.33406490  0.66593510  0.66593510  1
  K  K27  1  0.66593510  0.66593510  0.33406490  1
  K  K28  1  0.83406490  0.16593510  0.16593510  1
  K  K29  1  0.16593510  0.16593510  0.83406490  1
  K  K30  1  0.16593510  0.83406490  0.16593510  1
  K  K31  1  0.13975526  0.06619497  0.33690113  1
  Ge  Ge0  1  0.42225964  0.06502620  0.31993584  1
  Ge  Ge1  1  0.56502620  0.07774036  0.18006416  1
  Ge  Ge2  1  0.92225964  0.81993584  0.56502620  1
  Ge  Ge3  1  0.07774036  0.81993584  0.43497380  1
  Ge  Ge4  1  0.81993584  0.56502620  0.92225964  1
  Ge  Ge5  1  0.18006416  0.43497380  0.92225964  1
  Ge  Ge6  1  0.93497380  0.68006416  0.42225964  1
  Ge  Ge7  1  0.93497380  0.31993584  0.57774036  1
  Ge  Ge8  1  0.06502620  0.68006416  0.57774036  1
  Ge  Ge9  1  0.31993584  0.57774036  0.93497380  1
  Ge  Ge10  1  0.57774036  0.06502620  0.68006416  1
  Ge  Ge11  1  0.57774036  0.93497380  0.31993584  1
  Ge  Ge12  1  0.68006416  0.42225964  0.93497380  1
  Ge  Ge13  1  0.42225964  0.93497380  0.68006416  1
  Ge  Ge14  1  0.68006416  0.57774036  0.06502620  1
  Ge  Ge15  1  0.31993584  0.42225964  0.06502620  1
  Ge  Ge16  1  0.56502620  0.92225964  0.81993584  1
  Ge  Ge17  1  0.18006416  0.56502620  0.07774036  1
  Ge  Ge18  1  0.81993584  0.43497380  0.07774036  1
  Ge  Ge19  1  0.92225964  0.18006416  0.43497380  1
  Ge  Ge20  1  0.07774036  0.18006416  0.56502620  1
  Ge  Ge21  1  0.43497380  0.07774036  0.81993584  1
  Ge  Ge22  1  0.43497380  0.92225964  0.18006416  1
  Ge  Ge23  1  0.06502620  0.31993584  0.42225964  1
  Ge  Ge24  1  0.57095351  0.57095351  0.57095351  1
  Ge  Ge25  1  0.92904649  0.07095351  0.92904649  1
  Ge  Ge26  1  0.07095351  0.92904649  0.92904649  1
  Ge  Ge27  1  0.92904649  0.92904649  0.07095351  1
  Ge  Ge28  1  0.57095351  0.42904649  0.42904649  1
  Ge  Ge29  1  0.42904649  0.42904649  0.57095351  1
  Ge  Ge30  1  0.42904649  0.57095351  0.42904649  1
  Ge  Ge31  1  0.07095351  0.07095351  0.07095351  1
loop_
_geom_bond_atom_site_label_1
_geom_bond_atom_site_label_2
_geom_bond_distance
_geom_bond_site_symmetry_2
Ge0 Ge22 2.548294 1_545
Ge0 Ge1 2.548294 1_555
Ge0 Ge11 2.579234 1_545
Ge0 K17 3.338840 1_545
Ge0 K18 3.363848 1_555
Ge0 K5 3.463901 1_555
Ge0 K23 3.536691 1_555
Ge0 K31 3.601178 1_555
Ge0 K15 3.607059 1_555
Ge1 Ge11 2.548294 1_545
Ge1 Ge22 2.579234 1_545
Ge1 K23 3.338840 1_555
Ge1 K6 3.363848 1_545
Ge1 K7 3.463901 1_554
Ge1 K18 3.536687 1_555
Ge1 K19 3.601178 1_555
Ge1 K28 3.607059 1_555
Ge2 Ge8 2.548294 1_655
Ge2 Ge6 2.548294 1_555
Ge2 Ge3 2.579234 1_655
Ge2 K14 3.338837 1_555
Ge2 K9 3.363858 1_655
Ge2 K12 3.463898 1_565
Ge2 K0 3.536687 1_555
Ge2 K4 3.601190 1_555
Ge2 K24 3.607059 1_555
Ge3 Ge8 2.548294 1_555
Ge3 Ge6 2.548294 1_455
Ge3 K9 3.338840 1_555
Ge3 K14 3.363848 1_455
Ge3 K31 3.463901 1_565
Ge3 K22 3.536691 1_555
Ge3 K17 3.601178 1_555
Ge3 K30 3.607059 1_555
Ge4 K10 3.338837 1_555
Ge4 K11 3.363858 1_556
Ge4 K13 3.463898 1_655
Ge4 K2 3.536687 1_555
Ge4 K0 3.601190 1_555
Ge4 K24 3.607059 1_555
Ge5 Ge9 2.548294 1_555
Ge5 K13 3.338837 1_555
Ge5 K16 3.363858 1_556
Ge5 K10 3.463898 1_455
Ge5 K20 3.536691 1_555
Ge5 K21 3.601190 1_555
Ge5 K29 3.607059 1_555
Ge6 Ge8 2.579234 1_655
Ge6 K22 3.338840 1_655
Ge6 K0 3.363848 1_555
Ge6 K1 3.463901 1_555
Ge6 K14 3.536687 1_555
Ge6 K11 3.601178 1_555
Ge6 K27 3.607059 1_555
Ge7 K21 3.338837 1_655
Ge7 K1 3.363858 1_555
Ge7 K0 3.463898 1_555
Ge7 K12 3.536687 1_555
Ge7 K10 3.601190 1_555
Ge7 K25 3.607059 1_555
Ge8 K0 3.338837 1_455
Ge8 K22 3.363858 1_555
Ge8 K21 3.463898 1_555
Ge8 K9 3.536691 1_555
Ge8 K13 3.601190 1_555
Ge8 K26 3.607059 1_555
Ge9 K3 3.338837 1_556
Ge9 K20 3.363858 1_555
Ge9 K2 3.463898 1_555
Ge9 K13 3.536687 1_555
Ge9 K8 3.601190 1_555
Ge9 K26 3.607059 1_555
Ge10 Ge21 2.548294 1_555
Ge10 Ge16 2.548294 1_545
Ge10 Ge13 2.579234 1_545
Ge10 K4 3.338837 1_545
Ge10 K5 3.363858 1_555
Ge10 K18 3.463898 1_555
Ge10 K7 3.536691 1_555
Ge10 K12 3.601190 1_555
Ge10 K25 3.607059 1_555
Ge11 Ge22 2.548294 1_555
Ge11 K18 3.338837 1_565
Ge11 K17 3.363858 1_555
Ge11 K4 3.463898 1_555
Ge11 K6 3.536687 1_555
Ge11 K14 3.601190 1_555
Ge11 K27 3.607059 1_555
Ge12 Ge18 2.548294 1_556
Ge12 Ge4 2.548294 1_555
Ge12 Ge14 2.579234 1_556
Ge12 K19 3.338840 1_556
Ge12 K2 3.363848 1_555
Ge12 K20 3.463901 1_555
Ge12 K10 3.536687 1_555
Ge12 K7 3.601178 1_555
Ge12 K25 3.607059 1_555
Ge13 Ge21 2.548294 1_565
Ge13 Ge16 2.548294 1_555
Ge13 K5 3.338840 1_565
Ge13 K4 3.363848 1_555
Ge13 K17 3.463901 1_555
Ge13 K8 3.536687 1_555
Ge13 K9 3.601178 1_555
Ge13 K26 3.607059 1_555
Ge14 Ge18 2.548294 1_555
Ge14 Ge4 2.548294 1_554
Ge14 K2 3.338837 1_554
Ge14 K19 3.363858 1_555
Ge14 K3 3.463898 1_555
Ge14 K11 3.536691 1_555
Ge14 K6 3.601190 1_555
Ge14 K27 3.607059 1_555
Ge15 Ge5 2.548294 1_554
Ge15 Ge17 2.548294 1_555
Ge15 Ge9 2.579234 1_554
Ge15 K20 3.338840 1_554
Ge15 K3 3.363848 1_555
Ge15 K19 3.463901 1_555
Ge15 K16 3.536691 1_555
Ge15 K23 3.601178 1_555
Ge15 K15 3.607059 1_555
Ge16 Ge21 2.579234 1_565
Ge16 K8 3.338837 1_555
Ge16 K7 3.363858 1_565
Ge16 K6 3.463898 1_556
Ge16 K4 3.536687 1_555
Ge16 K2 3.601190 1_555
Ge16 K24 3.607059 1_555
Ge17 Ge9 2.548294 1_554
Ge17 Ge5 2.579234 1_554
Ge17 K16 3.338840 1_555
Ge17 K13 3.363848 1_554
Ge17 K11 3.463901 1_455
Ge17 K3 3.536687 1_555
Ge17 K22 3.601178 1_555
Ge17 K30 3.607059 1_555
Ge18 Ge4 2.579234 1_554
Ge18 K11 3.338840 1_555
Ge18 K10 3.363848 1_554
Ge18 K16 3.463901 1_655
Ge18 K19 3.536691 1_555
Ge18 K1 3.601178 1_555
Ge18 K28 3.607059 1_555
Ge19 Ge23 2.548294 1_655
Ge19 Ge7 2.548294 1_555
Ge19 Ge20 2.579234 1_655
Ge19 K12 3.338837 1_555
Ge19 K31 3.363858 1_655
Ge19 K14 3.463898 1_545
Ge19 K1 3.536691 1_555
Ge19 K18 3.601190 1_555
Ge19 K28 3.607059 1_555
Ge20 Ge7 2.548294 1_455
Ge20 Ge23 2.548294 1_555
Ge20 K31 3.338840 1_555
Ge20 K12 3.363848 1_455
Ge20 K9 3.463901 1_545
Ge20 K21 3.536687 1_555
Ge20 K5 3.601178 1_555
Ge20 K29 3.607059 1_555
Ge21 K7 3.338840 1_555
Ge21 K8 3.363848 1_545
Ge21 K23 3.463901 1_556
Ge21 K5 3.536691 1_555
Ge21 K20 3.601178 1_555
Ge21 K29 3.607059 1_555
Ge22 K6 3.338837 1_555
Ge22 K23 3.363858 1_565
Ge22 K8 3.463898 1_554
Ge22 K17 3.536691 1_555
Ge22 K3 3.601190 1_555
Ge22 K30 3.607059 1_555
Ge23 Ge7 2.579234 1_455
Ge23 K1 3.338840 1_455
Ge23 K21 3.363848 1_555
Ge23 K22 3.463901 1_555
Ge23 K31 3.536691 1_555
Ge23 K16 3.601178 1_555
Ge23 K15 3.607059 1_555
Ge24 Ge30 2.553600 1_555
Ge24 Ge28 2.553600 1_555
Ge24 Ge29 2.553600 1_555
Ge24 K27 3.465106 1_555
Ge24 K25 3.465106 1_555
Ge24 K26 3.465106 1_555
Ge24 K0 3.495927 1_555
Ge24 K4 3.495927 1_555
Ge24 K2 3.495927 1_555
Ge25 Ge27 2.553600 1_546
Ge25 Ge26 2.553600 1_645
Ge25 Ge31 2.553600 1_656
Ge25 K24 3.465106 1_545
Ge25 K29 3.465106 1_655
Ge25 K28 3.465106 1_556
Ge25 K12 3.495927 1_555
Ge25 K10 3.495927 1_555
Ge25 K7 3.495930 1_555
Ge26 Ge27 2.553600 1_456
Ge26 Ge31 2.553600 1_566
Ge26 K24 3.465106 1_455
Ge26 K30 3.465106 1_556
Ge26 K29 3.465106 1_565
Ge26 K13 3.495927 1_555
Ge26 K8 3.495927 1_555
Ge26 K9 3.495930 1_555
Ge27 Ge31 2.553600 1_665
Ge27 K24 3.465106 1_554
Ge27 K30 3.465106 1_655
Ge27 K28 3.465106 1_565
Ge27 K6 3.495927 1_555
Ge27 K14 3.495927 1_555
Ge27 K11 3.495930 1_555
Ge28 Ge30 2.553600 1_555
Ge28 Ge29 2.553600 1_555
Ge28 K27 3.465106 1_555
Ge28 K25 3.465106 1_555
Ge28 K15 3.465106 1_555
Ge28 K18 3.495927 1_555
Ge28 K1 3.495930 1_555
Ge28 K19 3.495930 1_555
Ge29 Ge30 2.553600 1_555
Ge29 K25 3.465106 1_555
Ge29 K26 3.465106 1_555
Ge29 K15 3.465106 1_555
Ge29 K21 3.495927 1_555
Ge29 K20 3.495930 1_555
Ge29 K5 3.495930 1_555
Ge30 K27 3.465106 1_555
Ge30 K26 3.465106 1_555
Ge30 K15 3.465106 1_555
Ge30 K3 3.495927 1_555
Ge30 K17 3.495930 1_555
Ge30 K22 3.495930 1_555
Ge31 K29 3.465106 1_554
Ge31 K28 3.465106 1_455
Ge31 K30 3.465106 1_545
Ge31 K31 3.495930 1_555
Ge31 K16 3.495930 1_555
Ge31 K23 3.495930 1_555
