# generated using pymatgen
data_Na4SnO3
_symmetry_space_group_name_H-M   'P 1'
_cell_length_a   5.78080872
_cell_length_b   5.84671795
_cell_length_c   8.77001450
_cell_angle_alpha   83.51603032
_cell_angle_beta   70.75682821
_cell_angle_gamma   69.96249469
_symmetry_Int_Tables_number   1
_chemical_formula_structural   Na4SnO3
_chemical_formula_sum   'Na8 Sn2 O6'
_cell_volume   262.91436281
_cell_formula_units_Z   2
loop_
 _symmetry_equiv_pos_site_id
 _symmetry_equiv_pos_as_xyz
  1  'x, y, z'
loop_
 _atom_site_type_symbol
 _atom_site_label
 _atom_site_symmetry_multiplicity
 _atom_site_fract_x
 _atom_site_fract_y
 _atom_site_fract_z
 _atom_site_occupancy
  Na  Na0  1  0.52320967  0.25224348  0.93312455  1
  Na  Na1  1  0.96338180  0.21872194  0.08705979  1
  Na  Na2  1  0.59950620  0.69351785  0.71698255  1
  Na  Na3  1  0.31648875  0.19351785  0.28301745  1
  Na  Na4  1  0.75435705  0.24950650  0.50752320  1
  Na  Na5  1  0.26187926  0.74950650  0.49247680  1
  Na  Na6  1  0.05044259  0.71872194  0.91294021  1
  Na  Na7  1  0.45633422  0.75224348  0.06687545  1
  Sn  Sn0  1  0.86715528  0.74872959  0.28631086  1
  Sn  Sn1  1  0.15346614  0.24872959  0.71368914  1
  O  O0  1  0.05014998  0.97172261  0.32138740  1
  O  O1  1  0.37153738  0.47172261  0.67861260  1
  O  O2  1  0.17861396  0.51151463  0.13154917  1
  O  O3  1  0.31016314  0.01151463  0.86845083  1
  O  O4  1  0.70340635  0.96154439  0.12449788  1
  O  O5  1  0.82790623  0.46154439  0.87550212  1
loop_
_geom_bond_atom_site_label_1
_geom_bond_atom_site_label_2
_geom_bond_distance
_geom_bond_site_symmetry_2
Na0 O2 2.352843 1_556
Na0 O5 2.367711 1_555
Na0 O3 2.376570 1_555
Na0 O4 2.466902 1_546
Na0 O1 2.696237 1_555
Na1 O3 2.342864 1_654
Na1 O5 2.381648 1_554
Na1 O4 2.395656 1_545
Na1 O0 2.464381 1_645
Na1 O2 2.561496 1_655
Na2 O3 2.231864 1_565
Na2 O5 2.252205 1_555
Na2 O1 2.256884 1_555
Na3 O2 2.231864 1_555
Na3 O4 2.252198 1_545
Na3 O0 2.256884 1_545
Na4 O0 2.254371 1_645
Na4 O1 2.262305 1_555
Na5 O1 2.254372 1_555
Na5 O0 2.262301 1_555
Na6 O2 2.342861 1_556
Na6 O4 2.381655 1_456
Na6 O5 2.395651 1_455
Na6 O1 2.464380 1_555
Na6 O3 2.561491 1_565
Na7 O3 2.352842 1_564
Na7 O4 2.367702 1_555
Na7 O2 2.376569 1_555
Na7 O5 2.466907 1_554
Na7 O0 2.696237 1_555
O0 Sn0 2.040526 1_455
O1 Sn1 2.040526 1_555
O2 Sn0 2.027462 1_455
O3 Sn1 2.027462 1_555
O4 Sn0 2.034120 1_555
O5 Sn1 2.034115 1_655
