# generated using pymatgen
data_MgCu2W2(O3F2)2
_symmetry_space_group_name_H-M   'P 1'
_cell_length_a   3.86595923
_cell_length_b   5.68556304
_cell_length_c   10.16596700
_cell_angle_alpha   90.00000000
_cell_angle_beta   90.00000000
_cell_angle_gamma   109.54889315
_symmetry_Int_Tables_number   1
_chemical_formula_structural   MgCu2W2(O3F2)2
_chemical_formula_sum   'Mg1 Cu2 W2 O6 F4'
_cell_volume   210.56907079
_cell_formula_units_Z   1
loop_
 _symmetry_equiv_pos_site_id
 _symmetry_equiv_pos_as_xyz
  1  'x, y, z'
loop_
 _atom_site_type_symbol
 _atom_site_label
 _atom_site_symmetry_multiplicity
 _atom_site_fract_x
 _atom_site_fract_y
 _atom_site_fract_z
 _atom_site_occupancy
  Mg  Mg0  1  0.59380800  0.58728900  0.25000000  1
  Cu  Cu0  1  0.03338700  0.55337400  0.53918100  1
  Cu  Cu1  1  0.03338700  0.55337400  0.96081900  1
  W  W0  1  0.24985200  0.99000300  0.25000000  1
  W  W1  1  0.75482400  0.01795800  0.75000000  1
  O  O0  1  0.86437300  0.23815400  0.61597100  1
  O  O1  1  0.10488700  0.73330300  0.37654600  1
  O  O2  1  0.10488700  0.73330300  0.12345400  1
  O  O3  1  0.75451600  0.00614000  0.25000000  1
  O  O4  1  0.22173800  0.95226300  0.75000000  1
  O  O5  1  0.86437300  0.23815400  0.88402900  1
  F  F0  1  0.60268100  0.71502600  0.88556100  1
  F  F1  1  0.40194600  0.30206800  0.12961600  1
  F  F2  1  0.40194600  0.30206800  0.37038400  1
  F  F3  1  0.60268100  0.71502600  0.61443900  1
loop_
_geom_bond_atom_site_label_1
_geom_bond_atom_site_label_2
_geom_bond_distance
_geom_bond_site_symmetry_2
Mg0 O3 2.250987 1_565
Mg0 O2 2.269427 1_655
Mg0 O1 2.269427 1_655
Mg0 O2 2.639496 1_555
Mg0 O1 2.639496 1_555
Cu0 O0 1.861358 1_455
Cu0 O1 1.915002 1_555
Cu0 F3 2.218147 1_555
Cu0 F3 2.286203 1_455
Cu1 O5 1.861358 1_455
Cu1 O2 1.915002 1_556
Cu1 F0 2.218147 1_555
Cu1 F0 2.286203 1_455
O0 W1 1.802327 1_555
O1 W0 1.884616 1_555
O2 W0 1.884616 1_555
O3 W0 1.922256 1_545
O3 W0 1.947569 1_645
O4 W1 1.961885 1_465
O4 W1 1.967645 1_565
O5 W1 1.802327 1_555
F0 W1 2.129234 1_565
F1 Mg0 1.967909 1_555
F1 W0 2.072032 1_545
F2 Mg0 1.967909 1_555
F2 W0 2.072032 1_545
F3 W1 2.129234 1_565
