# generated using pymatgen
data_Sr2Co(ClO)2
_symmetry_space_group_name_H-M   'P 1'
_cell_length_a   5.71341066
_cell_length_b   8.14270888
_cell_length_c   5.71365895
_cell_angle_alpha   110.53128553
_cell_angle_beta   89.99970934
_cell_angle_gamma   90.00464324
_symmetry_Int_Tables_number   1
_chemical_formula_structural   Sr2Co(ClO)2
_chemical_formula_sum   'Sr4 Co2 Cl4 O4'
_cell_volume   248.93017817
_cell_formula_units_Z   2
loop_
 _symmetry_equiv_pos_site_id
 _symmetry_equiv_pos_as_xyz
  1  'x, y, z'
loop_
 _atom_site_type_symbol
 _atom_site_label
 _atom_site_symmetry_multiplicity
 _atom_site_fract_x
 _atom_site_fract_y
 _atom_site_fract_z
 _atom_site_occupancy
  Sr  Sr0  1  0.49993806  0.78500723  0.89251286  1
  Sr  Sr1  1  0.99993075  0.78500625  0.39251718  1
  Sr  Sr2  1  0.00007025  0.21499275  0.60748282  1
  Sr  Sr3  1  0.50006194  0.21499277  0.10748714  1
  Co  Co0  1  -0.00000000  0.99999900  0.00000000  1
  Co  Co1  1  0.50000000  0.99999900  0.50000000  1
  Cl  Cl0  1  0.99999780  0.64041223  0.82029944  1
  Cl  Cl1  1  0.50001576  0.64040508  0.32025514  1
  Cl  Cl2  1  0.49998524  0.35959492  0.67974486  1
  Cl  Cl3  1  0.00000220  0.35958777  0.17969956  1
  O  O0  1  0.74999638  0.99998549  0.74998127  1
  O  O1  1  0.25000362  0.00001351  0.25001873  1
  O  O2  1  0.25000052  0.99994750  0.74995458  1
  O  O3  1  0.74999948  0.00005250  0.25004642  1
loop_
_geom_bond_atom_site_label_1
_geom_bond_atom_site_label_2
_geom_bond_distance
_geom_bond_site_symmetry_2
Co0 O1 2.020106 1_565
Co0 O0 2.020108 1_454
Co0 O2 2.020116 1_554
Co0 O3 2.020116 1_465
Co1 O2 2.019953 1_555
Co1 O3 2.019953 1_565
Co1 O0 2.019982 1_555
Co1 O1 2.019984 1_565
Cl0 Co0 2.742026 1_656
Cl0 Sr0 3.061703 1_655
Cl0 Sr1 3.061938 1_556
Cl0 Sr1 3.062506 1_555
Cl0 Sr0 3.062514 1_555
Cl0 Sr2 3.244033 1_655
Cl1 Co1 2.742080 1_555
Cl1 Sr1 3.061585 1_555
Cl1 Sr0 3.062152 1_555
Cl1 Sr0 3.062336 1_554
Cl1 Sr1 3.062666 1_455
Cl1 Sr3 3.243978 1_555
Cl2 Co1 2.742095 1_545
Cl2 Sr2 3.061588 1_555
Cl2 Sr3 3.062152 1_555
Cl2 Sr3 3.062336 1_556
Cl2 Sr2 3.062669 1_655
Cl2 Sr0 3.243978 1_555
Cl3 Co0 2.742041 1_545
Cl3 Sr3 3.061703 1_455
Cl3 Sr2 3.061933 1_554
Cl3 Sr3 3.062514 1_555
Cl3 Sr2 3.062516 1_555
Cl3 Sr1 3.244025 1_455
O0 Sr1 2.601434 1_555
O0 Sr0 2.601568 1_555
O0 Sr3 2.601656 1_566
O0 Sr2 2.601697 1_665
O1 Sr2 2.601430 1_555
O1 Sr3 2.601574 1_555
O1 Sr0 2.601652 1_544
O1 Sr1 2.601694 1_445
O2 Sr0 2.601191 1_555
O2 Sr1 2.601507 1_455
O2 Sr2 2.601566 1_565
O2 Sr3 2.602116 1_566
O3 Sr3 2.601194 1_555
O3 Sr2 2.601504 1_655
O3 Sr1 2.601572 1_545
O3 Sr0 2.602119 1_544
