# generated using pymatgen
data_Ce3(CuGe)4
_symmetry_space_group_name_H-M   'P 1'
_cell_length_a   8.12160271
_cell_length_b   8.12160271
_cell_length_c   8.12160271
_cell_angle_alpha   148.87628465
_cell_angle_beta   131.53328978
_cell_angle_gamma   58.72754270
_symmetry_Int_Tables_number   1
_chemical_formula_structural   Ce3(CuGe)4
_chemical_formula_sum   'Ce3 Cu4 Ge4'
_cell_volume   205.64351876
_cell_formula_units_Z   1
loop_
 _symmetry_equiv_pos_site_id
 _symmetry_equiv_pos_as_xyz
  1  'x, y, z'
loop_
 _atom_site_type_symbol
 _atom_site_label
 _atom_site_symmetry_multiplicity
 _atom_site_fract_x
 _atom_site_fract_y
 _atom_site_fract_z
 _atom_site_occupancy
  Ce  Ce0  1  0.50000000  0.00000000  0.50000000  1
  Ce  Ce1  1  0.86792400  0.86792400  0.00000000  1
  Ce  Ce2  1  0.13207600  0.13207600  0.00000000  1
  Cu  Cu0  1  0.85401700  0.66659600  0.18742100  1
  Cu  Cu1  1  0.14598300  0.33340400  0.81257900  1
  Cu  Cu2  1  0.47917500  0.66659600  0.81257900  1
  Cu  Cu3  1  0.52082500  0.33340400  0.18742100  1
  Ge  Ge0  1  0.28355300  0.78355300  0.50000000  1
  Ge  Ge1  1  0.80941000  0.50000000  0.30941000  1
  Ge  Ge2  1  0.19059000  0.50000000  0.69059000  1
  Ge  Ge3  1  0.71644700  0.21644700  0.50000000  1
loop_
_geom_bond_atom_site_label_1
_geom_bond_atom_site_label_2
_geom_bond_distance
_geom_bond_site_symmetry_2
Ce0 Ge2 3.000467 1_555
Ce0 Ge1 3.000467 1_545
Ce0 Ge2 3.000467 1_544
Ce0 Ge1 3.000467 1_556
Ce0 Ge0 3.064098 1_545
Ce0 Ge3 3.064098 1_555
Ce1 Cu1 3.054378 1_665
Ce1 Cu3 3.054378 1_554
Ce1 Cu3 3.054378 1_565
Ce1 Cu1 3.054378 1_654
Ce1 Ge3 3.057070 1_565
Ce1 Ge3 3.057070 1_554
Ce1 Cu0 3.111956 1_555
Ce1 Cu2 3.111956 1_554
Ce1 Ge1 3.139722 1_565
Ce1 Ge2 3.139722 1_665
Ce1 Ge2 3.139722 1_654
Ce1 Ge1 3.139722 1_554
Ce2 Cu0 3.054378 1_444
Ce2 Cu0 3.054378 1_455
Ce2 Cu2 3.054378 1_555
Ce2 Cu2 3.054378 1_544
Ce2 Ge0 3.057070 1_555
Ce2 Ge0 3.057070 1_544
Ce2 Cu1 3.111956 1_554
Ce2 Cu3 3.111956 1_555
Ce2 Ge1 3.139722 1_455
Ce2 Ge2 3.139722 1_555
Ce2 Ge1 3.139722 1_444
Ce2 Ge2 3.139722 1_544
Cu0 Ge1 2.494690 1_555
Cu0 Cu2 2.499105 1_554
Cu0 Ge3 2.608985 1_554
Cu0 Ge3 2.608985 1_565
Cu0 Ge0 2.661637 1_655
Cu1 Ge2 2.494690 1_555
Cu1 Cu3 2.499105 1_556
Cu1 Ge0 2.608985 1_545
Cu1 Ge0 2.608985 1_556
Cu1 Ge3 2.661637 1_455
Cu2 Ge2 2.494690 1_555
Cu2 Ge3 2.608985 1_555
Cu2 Ge3 2.608985 1_566
Cu2 Ge0 2.661637 1_555
Cu3 Ge1 2.494690 1_555
Cu3 Ge0 2.608985 1_555
Cu3 Ge0 2.608985 1_544
Cu3 Ge3 2.661637 1_555
Ge1 Ge2 2.541361 1_655
