# generated using pymatgen
data_Mg4Zn7
_symmetry_space_group_name_H-M   'P 1'
_cell_length_a   5.12554855
_cell_length_b   13.02707350
_cell_length_c   13.98595186
_cell_angle_alpha   102.19509997
_cell_angle_beta   89.96117096
_cell_angle_gamma   101.37970287
_symmetry_Int_Tables_number   1
_chemical_formula_structural   Mg4Zn7
_chemical_formula_sum   'Mg20 Zn35'
_cell_volume   894.01732462
_cell_formula_units_Z   5
loop_
 _symmetry_equiv_pos_site_id
 _symmetry_equiv_pos_as_xyz
  1  'x, y, z'
loop_
 _atom_site_type_symbol
 _atom_site_label
 _atom_site_symmetry_multiplicity
 _atom_site_fract_x
 _atom_site_fract_y
 _atom_site_fract_z
 _atom_site_occupancy
  Mg  Mg0  1  0.87331303  0.75139916  0.90196122  1
  Mg  Mg1  1  0.03579016  0.07008165  0.71323337  1
  Mg  Mg2  1  0.30473719  0.60894349  0.35195342  1
  Mg  Mg3  1  0.44169586  0.88537399  0.95387277  1
  Mg  Mg4  1  0.48418145  0.97043868  0.60296861  1
  Mg  Mg5  1  0.78591340  0.57339754  0.02722681  1
  Mg  Mg6  1  0.35775288  0.71686567  0.57745917  1
  Mg  Mg7  1  0.55732588  0.11667084  0.04573354  1
  Mg  Mg8  1  0.81964328  0.64477289  0.67657799  1
  Mg  Mg9  1  0.51457288  0.03086100  0.39641694  1
  Mg  Mg10  1  0.69317743  0.39108670  0.64794438  1
  Mg  Mg11  1  0.17728582  0.35556801  0.32336700  1
  Mg  Mg12  1  0.00637923  0.01605399  0.90487073  1
  Mg  Mg13  1  0.83934301  0.68028466  0.25244874  1
  Mg  Mg14  1  0.16019615  0.32274737  0.74910023  1
  Mg  Mg15  1  0.64080093  0.28342054  0.42253661  1
  Mg  Mg16  1  0.12160603  0.24836090  0.09754326  1
  Mg  Mg17  1  0.21258407  0.42998617  0.97430919  1
  Mg  Mg18  1  0.96377780  0.93064080  0.28630980  1
  Mg  Mg19  1  0.99340453  0.98457247  0.09472513  1
  Zn  Zn0  1  0.91989168  0.84344853  0.59256224  1
  Zn  Zn1  1  0.51814181  0.03731168  0.82228103  1
  Zn  Zn2  1  0.25752619  0.51775875  0.66307665  1
  Zn  Zn3  1  0.82042655  0.13854266  0.24532267  1
  Zn  Zn4  1  0.34151565  0.17566576  0.57180562  1
  Zn  Zn5  1  0.68069924  0.86195516  0.75376052  1
  Zn  Zn6  1  0.49902271  0.50032071  0.50029727  1
  Zn  Zn7  1  0.07674107  0.15687466  0.40707427  1
  Zn  Zn8  1  0.68657283  0.37635519  0.86009192  1
  Zn  Zn9  1  0.16653694  0.82513922  0.42829057  1
  Zn  Zn10  1  0.52041330  0.53616423  0.82643182  1
  Zn  Zn11  1  0.33070738  0.66248115  0.96485456  1
  Zn  Zn12  1  0.83099872  0.66239827  0.46452859  1
  Zn  Zn13  1  0.40258929  0.80598158  0.26844609  1
  Zn  Zn14  1  0.48145474  0.96375001  0.17736016  1
  Zn  Zn15  1  0.31200635  0.62509607  0.14080308  1
  Zn  Zn16  1  0.13456751  0.78807614  0.10280172  1
  Zn  Zn17  1  0.83254067  0.17568896  0.57187462  1
  Zn  Zn18  1  0.31620116  0.13843579  0.24584471  1
  Zn  Zn19  1  0.16771839  0.33801625  0.53545067  1
  Zn  Zn20  1  0.86510519  0.21340819  0.89764225  1
  Zn  Zn21  1  0.65722184  0.82507011  0.42809046  1
  Zn  Zn22  1  0.99855503  0.50020879  0.50051649  1
  Zn  Zn23  1  0.34635281  0.70011750  0.78707392  1
  Zn  Zn24  1  0.01168714  0.53616303  0.82668230  1
  Zn  Zn25  1  0.65383506  0.78812414  0.10258328  1
  Zn  Zn26  1  0.64869385  0.30071598  0.21305628  1
  Zn  Zn27  1  0.34531716  0.21347773  0.89770380  1
  Zn  Zn28  1  0.59615157  0.19545510  0.73181250  1
  Zn  Zn29  1  0.98580956  0.46483472  0.17392729  1
  Zn  Zn30  1  0.17719773  0.86217879  0.75407331  1
  Zn  Zn31  1  0.99939017  0.00042405  0.49990235  1
  Zn  Zn32  1  0.47727634  0.46487805  0.17414648  1
  Zn  Zn33  1  0.66784667  0.33911033  0.03552665  1
  Zn  Zn34  1  0.74049471  0.48264118  0.33746192  1
loop_
_geom_bond_atom_site_label_1
_geom_bond_atom_site_label_2
_geom_bond_distance
_geom_bond_site_symmetry_2
Mg0 Zn10 2.999877 1_555
Mg0 Zn11 3.001028 1_555
Mg0 Zn25 3.001396 1_556
Mg0 Zn24 3.001649 1_655
Mg0 Zn23 3.014490 1_655
Mg0 Zn16 3.016154 1_656
Mg0 Zn11 3.019369 1_655
Mg0 Zn30 3.025962 1_655
Mg0 Zn23 3.027151 1_555
Mg0 Zn5 3.028227 1_555
Mg0 Mg3 3.074653 1_555
Mg0 Mg3 3.085680 1_655
Mg0 Mg8 3.153091 1_555
Mg0 Mg5 3.154744 1_556
Mg1 Mg12 2.907969 1_555
Mg1 Zn31 2.924112 1_455
Mg1 Zn4 2.924818 1_555
Mg1 Zn17 2.933280 1_455
Mg1 Zn28 2.992473 1_555
Mg1 Zn28 3.014138 1_455
Mg1 Zn0 3.020239 1_445
Mg1 Zn1 3.052425 1_555
Mg1 Zn1 3.061132 1_455
Mg1 Zn27 3.076161 1_555
Mg1 Zn20 3.083911 1_455
Mg1 Zn30 3.100902 1_545
Mg1 Mg4 3.109965 1_545
Mg1 Zn5 3.112138 1_445
Mg1 Mg4 3.125498 1_445
Mg1 Mg14 3.157024 1_555
Mg2 Zn13 2.993652 1_555
Mg2 Zn15 3.004327 1_555
Mg2 Zn12 3.006833 1_555
Mg2 Zn34 3.007564 1_555
Mg2 Zn21 3.008932 1_555
Mg2 Zn12 3.009775 1_455
Mg2 Zn9 3.014897 1_555
Mg2 Zn34 3.015684 1_455
Mg2 Zn6 3.016238 1_555
Mg2 Zn22 3.024624 1_455
Mg2 Zn32 3.027980 1_555
Mg2 Zn29 3.035725 1_455
Mg2 Mg6 3.158268 1_555
Mg3 Zn11 2.883540 1_555
Mg3 Zn23 2.943263 1_555
Mg3 Zn1 2.947942 1_565
Mg3 Mg7 2.956620 1_566
Mg3 Zn16 2.957494 1_556
Mg3 Zn25 2.961918 1_556
Mg3 Zn5 3.034619 1_555
Mg3 Zn30 3.037196 1_555
Mg3 Zn14 3.069911 1_556
Mg4 Zn1 3.001578 1_565
Mg4 Zn31 3.004922 1_565
Mg4 Zn31 3.005089 1_465
Mg4 Zn9 3.006255 1_555
Mg4 Zn21 3.009650 1_555
Mg4 Zn0 3.016804 1_555
Mg4 Zn17 3.022040 1_565
Mg4 Zn0 3.022248 1_455
Mg4 Zn4 3.022667 1_565
Mg4 Zn28 3.045493 1_565
Mg4 Zn5 3.046854 1_555
Mg4 Zn30 3.051224 1_555
Mg4 Mg9 3.146553 1_565
Mg4 Mg6 3.180688 1_555
Mg5 Zn25 2.982367 1_555
Mg5 Zn16 2.985534 1_655
Mg5 Zn11 3.008390 1_554
Mg5 Zn11 3.008431 1_654
Mg5 Zn29 3.010002 1_555
Mg5 Zn32 3.010585 1_555
Mg5 Zn15 3.010877 1_555
Mg5 Zn24 3.013915 1_654
Mg5 Zn15 3.014166 1_655
Mg5 Zn33 3.019204 1_555
Mg5 Zn10 3.023732 1_554
Mg5 Zn8 3.043538 1_554
Mg6 Zn23 2.985067 1_555
Mg6 Zn0 3.007372 1_555
Mg6 Zn12 3.010632 1_455
Mg6 Zn12 3.013697 1_555
Mg6 Zn21 3.015477 1_555
Mg6 Zn9 3.015636 1_555
Mg6 Zn0 3.018814 1_455
Mg6 Zn6 3.027458 1_555
Mg6 Zn22 3.030271 1_455
Mg6 Zn5 3.032197 1_555
Mg6 Zn2 3.034964 1_555
Mg6 Zn30 3.042057 1_555
Mg6 Mg8 3.136947 1_555
Mg6 Mg8 3.151760 1_455
Mg7 Zn33 2.874897 1_555
Mg7 Zn26 2.938029 1_555
Mg7 Zn20 2.946251 1_554
Mg7 Zn27 2.950327 1_554
Mg7 Zn14 2.958282 1_545
Mg7 Zn3 3.034690 1_555
Mg7 Zn18 3.039596 1_555
Mg7 Zn1 3.070813 1_554
Mg8 Zn23 2.993848 1_655
Mg8 Zn23 3.001214 1_555
Mg8 Zn2 3.010315 1_555
Mg8 Zn0 3.017045 1_555
Mg8 Zn12 3.022208 1_555
Mg8 Zn10 3.023044 1_555
Mg8 Zn2 3.023841 1_655
Mg8 Zn6 3.024115 1_555
Mg8 Zn22 3.028229 1_555
Mg8 Zn5 3.029994 1_555
Mg8 Zn24 3.030730 1_655
Mg8 Zn30 3.035146 1_655
Mg9 Zn14 2.998339 1_545
Mg9 Zn31 3.008131 1_455
Mg9 Zn7 3.008359 1_655
Mg9 Zn31 3.010508 1_555
Mg9 Zn4 3.010771 1_555
Mg9 Zn17 3.012232 1_555
Mg9 Zn7 3.017130 1_555
Mg9 Zn9 3.029880 1_545
Mg9 Zn21 3.032073 1_545
Mg9 Zn13 3.039338 1_545
Mg9 Zn18 3.040475 1_555
Mg9 Zn3 3.044841 1_555
Mg10 Zn28 2.979948 1_555
Mg10 Zn4 3.000357 1_555
Mg10 Zn19 3.003071 1_555
Mg10 Zn17 3.007403 1_555
Mg10 Zn2 3.009950 1_555
Mg10 Zn19 3.011343 1_655
Mg10 Zn22 3.012997 1_555
Mg10 Zn8 3.013210 1_555
Mg10 Zn6 3.013714 1_555
Mg10 Zn2 3.017385 1_655
Mg10 Zn10 3.041675 1_555
Mg10 Zn24 3.045990 1_655
Mg10 Mg14 3.134344 1_555
Mg10 Mg14 3.146698 1_655
Mg10 Mg15 3.156309 1_555
Mg10 Mg8 3.177741 1_555
Mg11 Zn26 2.989898 1_555
Mg11 Zn26 3.001200 1_455
Mg11 Zn7 3.014796 1_555
Mg11 Zn34 3.014907 1_555
Mg11 Zn34 3.019173 1_455
Mg11 Zn32 3.022368 1_555
Mg11 Zn19 3.022398 1_555
Mg11 Zn29 3.027973 1_455
Mg11 Zn18 3.030101 1_555
Mg11 Zn3 3.031235 1_455
Mg11 Zn6 3.034083 1_555
Mg11 Zn22 3.038734 1_455
Mg11 Mg15 3.144473 1_555
Mg11 Mg15 3.145483 1_455
Mg11 Mg16 3.160309 1_555
Mg11 Mg2 3.173863 1_555
Mg12 Mg19 2.769887 1_446
Mg12 Zn27 2.826310 1_555
Mg12 Zn20 2.826460 1_455
Mg12 Zn1 2.843571 1_455
Mg12 Zn1 2.852330 1_555
Mg12 Zn30 2.852507 1_545
Mg12 Zn5 2.858833 1_445
Mg12 Mg3 3.207908 1_445
Mg12 Mg3 3.215605 1_545
Mg12 Mg7 3.315163 1_456
Mg12 Mg7 3.321098 1_556
Mg13 Zn15 3.004211 1_555
Mg13 Zn15 3.005374 1_655
Mg13 Zn13 3.005621 1_555
Mg13 Zn16 3.006802 1_655
Mg13 Zn25 3.007446 1_555
Mg13 Zn13 3.007727 1_655
Mg13 Zn34 3.012858 1_555
Mg13 Zn12 3.023572 1_555
Mg13 Zn32 3.027705 1_555
Mg13 Zn29 3.029065 1_555
Mg13 Zn21 3.032741 1_555
Mg13 Zn9 3.036068 1_655
Mg13 Mg18 3.129674 1_555
Mg13 Mg2 3.137705 1_555
Mg13 Mg2 3.149025 1_655
Mg13 Mg5 3.151769 1_555
Mg14 Zn2 2.990068 1_555
Mg14 Zn8 2.996766 1_555
Mg14 Zn8 2.999407 1_455
Mg14 Zn10 3.002469 1_555
Mg14 Zn20 3.004708 1_455
Mg14 Zn27 3.005282 1_555
Mg14 Zn24 3.007604 1_555
Mg14 Zn28 3.015521 1_555
Mg14 Zn28 3.017626 1_455
Mg14 Zn19 3.036062 1_555
Mg14 Zn17 3.060092 1_455
Mg14 Zn4 3.062000 1_555
Mg14 Mg17 3.152590 1_555
Mg15 Zn26 2.985155 1_555
Mg15 Zn7 3.009883 1_655
Mg15 Zn4 3.010978 1_555
Mg15 Zn19 3.011148 1_655
Mg15 Zn19 3.013350 1_555
Mg15 Zn17 3.013852 1_555
Mg15 Zn7 3.015359 1_555
Mg15 Zn22 3.030740 1_555
Mg15 Zn34 3.031947 1_555
Mg15 Zn6 3.034084 1_555
Mg15 Zn18 3.039051 1_555
Mg15 Zn3 3.042862 1_555
Mg15 Mg9 3.166923 1_555
Mg16 Zn20 2.997205 1_454
Mg16 Zn27 2.999616 1_554
Mg16 Zn3 3.012455 1_455
Mg16 Zn29 3.013142 1_455
Mg16 Zn33 3.013313 1_455
Mg16 Zn33 3.018685 1_555
Mg16 Zn32 3.020549 1_555
Mg16 Zn26 3.021957 1_455
Mg16 Zn18 3.027999 1_555
Mg16 Zn26 3.031039 1_555
Mg16 Mg7 3.058244 1_455
Mg16 Mg7 3.072507 1_555
Mg16 Mg17 3.173740 1_554
Mg17 Zn11 3.000453 1_555
Mg17 Zn24 3.001321 1_555
Mg17 Zn29 3.003319 1_456
Mg17 Zn10 3.003846 1_555
Mg17 Zn20 3.003911 1_455
Mg17 Zn27 3.007550 1_555
Mg17 Zn33 3.008464 1_456
Mg17 Zn32 3.013941 1_556
Mg17 Zn8 3.016597 1_455
Mg17 Zn33 3.016735 1_556
Mg17 Zn15 3.021959 1_556
Mg17 Zn8 3.022449 1_555
Mg17 Mg5 3.137929 1_456
Mg17 Mg5 3.150536 1_556
Mg18 Mg19 2.906723 1_555
Mg18 Zn31 2.927729 1_565
Mg18 Zn21 2.930442 1_555
Mg18 Zn9 2.937952 1_655
Mg18 Zn13 2.993248 1_555
Mg18 Zn13 3.004574 1_655
Mg18 Zn7 3.016402 1_665
Mg18 Zn14 3.053370 1_555
Mg18 Zn14 3.060861 1_655
Mg18 Zn25 3.065865 1_555
Mg18 Zn16 3.070396 1_655
Mg18 Zn18 3.102762 1_665
Mg18 Zn3 3.105708 1_565
Mg18 Mg9 3.115948 1_565
Mg18 Mg9 3.122181 1_665
Mg19 Zn16 2.818128 1_655
Mg19 Zn25 2.819832 1_555
Mg19 Zn14 2.840960 1_655
Mg19 Zn18 2.851026 1_665
Mg19 Zn14 2.853462 1_555
Mg19 Zn3 2.856555 1_565
Mg19 Mg7 3.212153 1_665
Mg19 Mg7 3.231838 1_565
Mg19 Mg3 3.304598 1_654
Mg19 Mg3 3.322222 1_554
Zn0 Zn5 2.554850 1_555
Zn0 Zn30 2.558441 1_655
Zn0 Zn12 2.601848 1_555
Zn0 Zn21 2.608754 1_555
Zn0 Zn9 2.610957 1_655
Zn0 Zn31 2.611000 1_565
Zn1 Zn5 2.579947 1_545
Zn1 Zn30 2.584262 1_545
Zn1 Zn28 2.603951 1_555
Zn1 Zn20 2.628154 1_555
Zn1 Zn27 2.634825 1_555
Zn2 Zn22 2.578368 1_455
Zn2 Zn6 2.579811 1_555
Zn2 Zn23 2.586888 1_555
Zn2 Zn24 2.600873 1_555
Zn3 Zn7 2.559829 1_655
Zn4 Zn7 2.616223 1_555
Zn10 Zn24 2.518056 1_655
Zn10 Zn8 2.528892 1_555
Zn10 Zn11 2.585382 1_555
Zn10 Zn2 2.595782 1_555
Zn10 Zn24 2.607498 1_555
Zn10 Zn23 2.628695 1_555
Zn11 Zn24 2.591331 1_555
Zn11 Zn16 2.592825 1_556
Zn11 Zn25 2.595202 1_556
Zn11 Zn15 2.605673 1_556
Zn11 Zn23 2.632187 1_555
Zn12 Zn22 2.573129 1_555
Zn12 Zn6 2.575055 1_555
Zn12 Zn34 2.582887 1_555
Zn12 Zn9 2.592905 1_655
Zn12 Zn21 2.597218 1_555
Zn13 Zn21 2.528203 1_555
Zn13 Zn9 2.530557 1_555
Zn13 Zn15 2.597564 1_555
Zn13 Zn14 2.605378 1_555
Zn13 Zn16 2.637850 1_555
Zn13 Zn25 2.641948 1_555
Zn14 Zn3 2.575587 1_565
Zn14 Zn18 2.579162 1_565
Zn14 Zn16 2.621932 1_555
Zn14 Zn25 2.625721 1_555
Zn15 Zn29 2.529578 1_455
Zn15 Zn32 2.529979 1_555
Zn15 Zn16 2.618545 1_555
Zn15 Zn25 2.622186 1_555
Zn16 Zn25 2.464145 1_455
Zn16 Zn25 2.661408 1_555
Zn17 Zn4 2.516714 1_555
Zn17 Zn28 2.532604 1_555
Zn17 Zn19 2.589014 1_655
Zn17 Zn31 2.599219 1_555
Zn17 Zn4 2.608835 1_655
Zn17 Zn7 2.611078 1_655
Zn18 Zn3 2.541408 1_455
Zn18 Zn7 2.555909 1_555
Zn18 Zn26 2.563310 1_555
Zn18 Zn3 2.584164 1_555
Zn19 Zn22 2.571864 1_455
Zn19 Zn6 2.572355 1_555
Zn19 Zn2 2.586642 1_555
Zn19 Zn4 2.592970 1_555
Zn19 Zn7 2.605082 1_555
Zn20 Zn27 2.461172 1_655
Zn20 Zn33 2.595997 1_556
Zn20 Zn8 2.618644 1_555
Zn20 Zn28 2.642364 1_555
Zn20 Zn27 2.664377 1_555
Zn21 Zn9 2.515207 1_555
Zn21 Zn31 2.599023 1_565
Zn21 Zn9 2.610345 1_655
Zn22 Zn6 2.560670 1_555
Zn22 Zn6 2.564884 1_655
Zn22 Zn34 2.581978 1_555
Zn23 Zn30 2.560541 1_555
Zn23 Zn5 2.566487 1_555
Zn23 Zn24 2.619911 1_555
Zn24 Zn8 2.523912 1_455
Zn26 Zn3 2.564931 1_555
Zn26 Zn34 2.585413 1_555
Zn26 Zn32 2.622078 1_555
Zn26 Zn29 2.625136 1_555
Zn26 Zn33 2.632425 1_555
Zn27 Zn33 2.594383 1_556
Zn27 Zn8 2.616104 1_555
Zn27 Zn28 2.641226 1_555
Zn28 Zn4 2.530867 1_555
Zn28 Zn8 2.602125 1_555
Zn29 Zn32 2.518929 1_655
Zn29 Zn33 2.587828 1_555
Zn29 Zn34 2.598668 1_555
Zn29 Zn32 2.606623 1_555
Zn30 Zn5 2.544260 1_455
Zn30 Zn5 2.581298 1_555
Zn31 Zn4 2.598200 1_655
Zn31 Zn9 2.599197 1_645
Zn31 Zn7 2.606704 1_655
Zn32 Zn33 2.585356 1_555
Zn32 Zn34 2.597809 1_555
Zn33 Zn8 2.597911 1_554
Zn34 Zn6 2.580415 1_555
