# generated using pymatgen
data_TiNCl
_symmetry_space_group_name_H-M   'P 1'
_cell_length_a   3.26575402
_cell_length_b   3.94206289
_cell_length_c   8.09629069
_cell_angle_alpha   90.00000000
_cell_angle_beta   90.00000000
_cell_angle_gamma   90.00000000
_symmetry_Int_Tables_number   1
_chemical_formula_structural   TiNCl
_chemical_formula_sum   'Ti2 N2 Cl2'
_cell_volume   104.23008967
_cell_formula_units_Z   2
loop_
 _symmetry_equiv_pos_site_id
 _symmetry_equiv_pos_as_xyz
  1  'x, y, z'
loop_
 _atom_site_type_symbol
 _atom_site_label
 _atom_site_symmetry_multiplicity
 _atom_site_fract_x
 _atom_site_fract_y
 _atom_site_fract_z
 _atom_site_occupancy
  Ti  Ti0  1  0.75000000  0.25000000  0.09576351  1
  Ti  Ti1  1  0.25000000  0.75000000  0.90423649  1
  N  N0  1  0.25000000  0.25000000  0.95384219  1
  N  N1  1  0.75000000  0.75000000  0.04615781  1
  Cl  Cl0  1  0.75000000  0.75000000  0.67807742  1
  Cl  Cl1  1  0.25000000  0.25000000  0.32192258  1
loop_
_geom_bond_atom_site_label_1
_geom_bond_atom_site_label_2
_geom_bond_distance
_geom_bond_site_symmetry_2
N0 Ti0 1.996640 1_556
N0 Ti0 1.996640 1_456
N0 Ti1 2.011533 1_545
N0 Ti1 2.011533 1_555
N1 Ti1 1.996640 1_654
N1 Ti1 1.996640 1_554
N1 Ti0 2.011533 1_555
N1 Ti0 2.011533 1_565
Cl0 Ti1 2.453371 1_555
Cl0 Ti1 2.453371 1_655
Cl1 Ti0 2.453371 1_555
Cl1 Ti0 2.453371 1_455
