# generated using pymatgen
data_Na5Co2S5
_symmetry_space_group_name_H-M   'P 1'
_cell_length_a   7.18833246
_cell_length_b   7.18833246
_cell_length_c   7.18833246
_cell_angle_alpha   98.49379472
_cell_angle_beta   98.49379472
_cell_angle_gamma   134.79686672
_symmetry_Int_Tables_number   1
_chemical_formula_structural   Na5Co2S5
_chemical_formula_sum   'Na5 Co2 S5'
_cell_volume   243.33210003
_cell_formula_units_Z   1
loop_
 _symmetry_equiv_pos_site_id
 _symmetry_equiv_pos_as_xyz
  1  'x, y, z'
loop_
 _atom_site_type_symbol
 _atom_site_label
 _atom_site_symmetry_multiplicity
 _atom_site_fract_x
 _atom_site_fract_y
 _atom_site_fract_z
 _atom_site_occupancy
  Na  Na0  1  0.15368100  0.54551200  0.00000000  1
  Na  Na1  1  0.54551200  0.15368100  0.00000000  1
  Na  Na2  1  0.15368100  0.15368100  0.60816900  1
  Na  Na3  1  0.54551200  0.54551200  0.39183100  1
  Na  Na4  1  0.93131800  0.93131800  0.00000000  1
  Co  Co0  1  0.23637600  0.73637600  0.50000000  1
  Co  Co1  1  0.73637600  0.23637600  0.50000000  1
  S  S0  1  0.98561800  0.66622100  0.68060200  1
  S  S1  1  0.98561800  0.30501600  0.31939800  1
  S  S2  1  0.66622100  0.98561800  0.68060200  1
  S  S3  1  0.44606900  0.44606900  0.00000000  1
  S  S4  1  0.30501600  0.98561800  0.31939800  1
loop_
_geom_bond_atom_site_label_1
_geom_bond_atom_site_label_2
_geom_bond_distance
_geom_bond_site_symmetry_2
Na0 S3 2.654366 1_555
Na0 S4 2.954661 1_555
Na0 S0 2.954666 1_454
Na0 S2 2.961116 1_444
Na0 S1 2.961117 1_455
Na1 S3 2.654366 1_555
Na1 S1 2.954661 1_555
Na1 S2 2.954666 1_544
Na1 S0 2.961116 1_444
Na1 S4 2.961117 1_545
Na2 S3 2.654366 1_556
Na2 S4 2.954661 1_545
Na2 S1 2.954661 1_455
Na2 S0 2.961110 1_445
Na2 S2 2.961110 1_445
Na3 S3 2.654366 1_555
Na3 S2 2.954657 1_555
Na3 S0 2.954657 1_555
Na3 S4 2.961117 1_545
Na3 S1 2.961117 1_455
Na4 S3 2.681121 1_555
Na4 S3 2.844127 1_665
Na4 S0 3.012554 1_554
Na4 S2 3.012554 1_554
Na4 S1 3.012558 1_565
Na4 S4 3.012558 1_655
Co0 S4 2.183892 1_555
Co0 S2 2.183898 1_555
Co0 S1 2.189184 1_455
Co0 S0 2.189186 1_455
Co1 S1 2.183892 1_555
Co1 S0 2.183898 1_555
Co1 S4 2.189184 1_545
Co1 S2 2.189186 1_545
