# generated using pymatgen
data_Ba2MgNb4O12
_symmetry_space_group_name_H-M   'P 1'
_cell_length_a   3.98768627
_cell_length_b   6.57698284
_cell_length_c   10.45584167
_cell_angle_alpha   89.95945155
_cell_angle_beta   90.00485977
_cell_angle_gamma   90.04153903
_symmetry_Int_Tables_number   1
_chemical_formula_structural   Ba2MgNb4O12
_chemical_formula_sum   'Ba2 Mg1 Nb4 O12'
_cell_volume   274.22463370
_cell_formula_units_Z   1
loop_
 _symmetry_equiv_pos_site_id
 _symmetry_equiv_pos_as_xyz
  1  'x, y, z'
loop_
 _atom_site_type_symbol
 _atom_site_label
 _atom_site_symmetry_multiplicity
 _atom_site_fract_x
 _atom_site_fract_y
 _atom_site_fract_z
 _atom_site_occupancy
  Ba  Ba0  1  0.00016700  0.34431700  0.75055300  1
  Ba  Ba1  1  0.00100100  0.57478700  0.24986500  1
  Mg  Mg0  1  0.99818100  0.05674300  0.25036800  1
  Nb  Nb0  1  0.49981000  0.21596000  0.05481700  1
  Nb  Nb1  1  0.49985200  0.21683200  0.44479200  1
  Nb  Nb2  1  0.50015100  0.78328900  0.56861900  1
  Nb  Nb3  1  0.50016400  0.78402400  0.93259500  1
  O  O0  1  0.00001800  0.22730000  0.41242200  1
  O  O1  1  0.50006800  0.91296100  0.37944500  1
  O  O2  1  0.50024100  0.91153800  0.12109400  1
  O  O3  1  0.00000500  0.22630900  0.08776800  1
  O  O4  1  0.50017900  0.11030700  0.61640700  1
  O  O5  1  0.00004100  0.78861800  0.56674200  1
  O  O6  1  0.00006100  0.78916200  0.93374200  1
  O  O7  1  0.50044500  0.29803500  0.24998700  1
  O  O8  1  0.49974100  0.50671300  0.00442200  1
  O  O9  1  0.50013800  0.11119500  0.88237100  1
  O  O10  1  0.49998100  0.67564000  0.74975200  1
  O  O11  1  0.49975600  0.50793700  0.49423500  1
loop_
_geom_bond_atom_site_label_1
_geom_bond_atom_site_label_2
_geom_bond_distance
_geom_bond_site_symmetry_2
Ba0 O9 2.866943 1_455
Ba0 O9 2.868165 1_555
Ba0 O4 2.882608 1_455
Ba0 O4 2.884382 1_555
Ba0 O10 2.952068 1_555
Ba0 O10 2.955201 1_455
Ba1 O7 2.699061 1_555
Ba1 O7 2.700387 1_455
Ba1 O0 2.847194 1_555
Ba1 O3 2.851493 1_555
Ba1 O2 3.266704 1_555
Ba1 O2 3.272220 1_455
Ba1 O1 3.277278 1_555
Ba1 O1 3.283900 1_455
Mg0 O3 2.032612 1_655
Mg0 O0 2.032752 1_655
Mg0 O7 2.542154 1_555
Mg0 O7 2.554482 1_655
Mg0 O1 2.580133 1_545
Mg0 O2 2.584646 1_545
Mg0 O1 2.592615 1_645
Mg0 O2 2.598528 1_645
Nb0 O9 1.930697 1_554
Nb0 O8 1.983186 1_555
Nb0 O3 2.023855 1_555
Nb0 O3 2.025232 1_655
Nb0 O7 2.111226 1_555
Nb0 O2 2.118251 1_545
Nb1 O4 1.925845 1_555
Nb1 O11 1.983513 1_555
Nb1 O0 2.022898 1_555
Nb1 O0 2.024160 1_655
Nb1 O7 2.105340 1_555
Nb1 O1 2.112581 1_545
Nb2 O11 1.971434 1_555
Nb2 O5 1.993785 1_655
Nb2 O5 1.994710 1_555
Nb2 O10 2.021441 1_555
Nb2 O1 2.153450 1_555
Nb2 O4 2.208413 1_565
Nb3 O8 1.971948 1_556
Nb3 O6 1.993730 1_655
Nb3 O6 1.994602 1_555
Nb3 O10 2.040824 1_555
Nb3 O2 2.142474 1_556
Nb3 O9 2.214588 1_565
