# generated using pymatgen
data_MgMn4(O3F)2
_symmetry_space_group_name_H-M   'P 1'
_cell_length_a   5.44210734
_cell_length_b   5.23043992
_cell_length_c   5.93397148
_cell_angle_alpha   94.16445129
_cell_angle_beta   87.24335048
_cell_angle_gamma   104.95224634
_symmetry_Int_Tables_number   1
_chemical_formula_structural   MgMn4(O3F)2
_chemical_formula_sum   'Mg1 Mn4 O6 F2'
_cell_volume   162.68276944
_cell_formula_units_Z   1
loop_
 _symmetry_equiv_pos_site_id
 _symmetry_equiv_pos_as_xyz
  1  'x, y, z'
loop_
 _atom_site_type_symbol
 _atom_site_label
 _atom_site_symmetry_multiplicity
 _atom_site_fract_x
 _atom_site_fract_y
 _atom_site_fract_z
 _atom_site_occupancy
  Mg  Mg0  1  0.99897449  0.49756523  0.51022174  1
  Mn  Mn0  1  -0.00046645  0.00009781  0.00884595  1
  Mn  Mn1  1  0.00131625  0.99821583  0.50912393  1
  Mn  Mn2  1  0.48774485  0.51520257  0.25343573  1
  Mn  Mn3  1  0.51104622  0.48553368  0.76563847  1
  O  O0  1  0.11733669  0.83378509  0.74018564  1
  O  O1  1  0.31639964  0.29236121  0.00597886  1
  O  O2  1  0.29368171  0.32844409  0.51511359  1
  O  O3  1  0.68330800  0.70741451  0.01273398  1
  O  O4  1  0.70674042  0.66950635  0.50400244  1
  O  O5  1  0.88319309  0.16305254  0.27949041  1
  F  F0  1  0.18006055  0.74981602  0.27686603  1
  F  F1  1  0.82066455  0.24511607  0.74336323  1
loop_
_geom_bond_atom_site_label_1
_geom_bond_atom_site_label_2
_geom_bond_distance
_geom_bond_site_symmetry_2
Mg0 O4 2.021867 1_555
Mg0 O2 2.023830 1_655
Mg0 O5 2.121093 1_555
Mg0 O0 2.126291 1_655
Mn0 O5 1.920521 1_455
Mn0 O0 1.922840 1_544
Mn0 O3 1.986835 1_445
Mn0 O1 1.987814 1_555
Mn1 O0 1.884953 1_555
Mn1 O5 1.885271 1_465
Mn1 O2 2.023500 1_565
Mn1 O4 2.025261 1_455
Mn2 O3 1.921903 1_555
Mn2 O1 1.925234 1_555
Mn2 O4 1.944814 1_555
Mn2 O2 2.002729 1_555
Mn3 O1 1.920572 1_556
Mn3 O3 1.923343 1_556
Mn3 O2 1.942834 1_555
Mn3 O4 1.999910 1_555
F0 Mg0 2.023007 1_455
F0 Mn1 2.190177 1_555
F0 Mn2 2.311302 1_555
F0 Mn0 2.514895 1_565
F1 Mg0 2.018437 1_555
F1 Mn1 2.197558 1_645
F1 Mn3 2.342160 1_555
F1 Mn0 2.481166 1_656
