# generated using pymatgen
data_Na10Y4Sc4Si5S7O48
_symmetry_space_group_name_H-M   'P 1'
_cell_length_a   18.44919805
_cell_length_b   9.21449360
_cell_length_c   23.40494943
_cell_angle_alpha   89.95949825
_cell_angle_beta   89.75331031
_cell_angle_gamma   119.96648820
_symmetry_Int_Tables_number   1
_chemical_formula_structural   Na10Y4Sc4Si5S7O48
_chemical_formula_sum   'Na30 Y12 Sc12 Si15 S21 O144'
_cell_volume   3446.89039190
_cell_formula_units_Z   3
loop_
 _symmetry_equiv_pos_site_id
 _symmetry_equiv_pos_as_xyz
  1  'x, y, z'
loop_
 _atom_site_type_symbol
 _atom_site_label
 _atom_site_symmetry_multiplicity
 _atom_site_fract_x
 _atom_site_fract_y
 _atom_site_fract_z
 _atom_site_occupancy
  Na  Na0  1  0.32831204  0.00133735  0.24949816  1
  Na  Na1  1  0.82684860  0.99723994  0.25242382  1
  Na  Na2  1  0.18355945  0.37991742  0.24236441  1
  Na  Na3  1  0.68036599  0.37508349  0.24489660  1
  Na  Na4  1  0.99241187  0.62640991  0.26043225  1
  Na  Na5  1  0.49557824  0.62386931  0.25794089  1
  Na  Na6  1  0.83060284  0.65368800  0.74481627  1
  Na  Na7  1  0.99146876  0.36146641  0.75584747  1
  Na  Na8  1  0.49429503  0.35013776  0.75744926  1
  Na  Na9  1  0.17910999  0.98858124  0.74218250  1
  Na  Na10  1  0.01943063  0.71223582  0.58534615  1
  Na  Na11  1  0.32951096  0.97393499  0.59224446  1
  Na  Na12  1  0.02382879  0.33023193  0.08328159  1
  Na  Na13  1  0.51987698  0.33056349  0.08553374  1
  Na  Na14  1  0.15974915  0.30268501  0.92671157  1
  Na  Na15  1  0.66254261  0.30349207  0.92796908  1
  Na  Na16  1  0.16150170  0.01679324  0.42601104  1
  Na  Na17  1  0.66152892  0.02326025  0.42501285  1
  Na  Na18  1  0.99893004  0.99494724  0.50313219  1
  Na  Na19  1  0.51221974  0.99183825  0.49712076  1
  Na  Na20  1  0.00537453  0.01324010  0.99984082  1
  Na  Na21  1  0.50557665  0.00726388  0.00437533  1
  Na  Na22  1  0.34711108  0.33220571  0.83602743  1
  Na  Na23  1  0.85096137  0.32806280  0.83047959  1
  Na  Na24  1  0.35293973  0.36599186  0.33581497  1
  Na  Na25  1  0.85052161  0.36620684  0.33769903  1
  Na  Na26  1  0.17585306  0.65371743  0.16781902  1
  Na  Na27  1  0.67609355  0.65577293  0.16643977  1
  Na  Na28  1  0.17180699  0.68032860  0.67133078  1
  Na  Na29  1  0.68152592  0.71580692  0.65983768  1
  Y  Y0  1  0.98956930  0.98773059  0.35262545  1
  Y  Y1  1  0.99060162  0.99389549  0.84866934  1
  Y  Y2  1  0.49372414  0.00745598  0.85073541  1
  Y  Y3  1  0.50658176  0.99964097  0.64533624  1
  Y  Y4  1  0.99967031  0.00368927  0.15262722  1
  Y  Y5  1  0.82804854  0.33820003  0.18170110  1
  Y  Y6  1  0.33650632  0.33417477  0.98470165  1
  Y  Y7  1  0.83403684  0.33229508  0.98303777  1
  Y  Y8  1  0.16844815  0.65691845  0.01900434  1
  Y  Y9  1  0.16361471  0.66503451  0.51804554  1
  Y  Y10  1  0.16281279  0.66650267  0.81407292  1
  Y  Y11  1  0.66795348  0.68062958  0.81587210  1
  Sc  Sc0  1  0.49001882  0.98363288  0.34959366  1
  Sc  Sc1  1  0.99815385  0.98973164  0.64865808  1
  Sc  Sc2  1  0.50034551  0.01024398  0.15268937  1
  Sc  Sc3  1  0.32931171  0.32034070  0.68091498  1
  Sc  Sc4  1  0.82749259  0.31005463  0.68302143  1
  Sc  Sc5  1  0.33342816  0.34920515  0.18469207  1
  Sc  Sc6  1  0.33691352  0.34278736  0.48136912  1
  Sc  Sc7  1  0.83410686  0.33924333  0.48240225  1
  Sc  Sc8  1  0.66159446  0.64733302  0.01837219  1
  Sc  Sc9  1  0.66036054  0.68265766  0.51822335  1
  Sc  Sc10  1  0.15947488  0.65206114  0.31719118  1
  Sc  Sc11  1  0.65626662  0.64402725  0.31779169  1
  Si  Si0  1  0.35332672  0.70967214  0.24965379  1
  Si  Si1  1  0.84521483  0.69786965  0.25119153  1
  Si  Si2  1  0.00094935  0.30492218  0.24974535  1
  Si  Si3  1  0.49775002  0.29017905  0.25018785  1
  Si  Si4  1  0.99591376  0.69647065  0.74511428  1
  Si  Si5  1  0.35099925  0.00744243  0.74323851  1
  Si  Si6  1  0.85172854  0.99964249  0.74494235  1
  Si  Si7  1  0.18532957  0.04508420  0.58070799  1
  Si  Si8  1  0.68919530  0.04222352  0.57840612  1
  Si  Si9  1  0.18335576  0.32971817  0.08401022  1
  Si  Si10  1  0.67598612  0.32649178  0.08156587  1
  Si  Si11  1  0.01466858  0.35954011  0.91658701  1
  Si  Si12  1  0.51836476  0.37047470  0.91547237  1
  Si  Si13  1  0.01529502  0.66242693  0.41738215  1
  Si  Si14  1  0.51762175  0.66864426  0.41553948  1
  S  S0  1  0.15207646  0.00113391  0.25213592  1
  S  S1  1  0.64331701  0.99404879  0.25189370  1
  S  S2  1  0.14935148  0.29162420  0.74724945  1
  S  S3  1  0.65110065  0.29881593  0.75072004  1
  S  S4  1  0.49670076  0.69517200  0.74935066  1
  S  S5  1  0.47954301  0.33879234  0.58250698  1
  S  S6  1  0.97655376  0.32782452  0.58414416  1
  S  S7  1  0.33384714  0.62153913  0.58337092  1
  S  S8  1  0.83140165  0.62313361  0.58358060  1
  S  S9  1  0.48399855  0.63567528  0.08560215  1
  S  S10  1  0.98416115  0.63484623  0.08360347  1
  S  S11  1  0.33527346  0.03981503  0.08840797  1
  S  S12  1  0.82937115  0.02497188  0.08353219  1
  S  S13  1  0.31631563  0.66511373  0.91573818  1
  S  S14  1  0.81138380  0.66585368  0.91867466  1
  S  S15  1  0.16767607  0.96884798  0.91641992  1
  S  S16  1  0.66529971  0.96155703  0.91989876  1
  S  S17  1  0.31537847  0.96541841  0.41590375  1
  S  S18  1  0.80822669  0.95823007  0.41767519  1
  S  S19  1  0.17073766  0.37032109  0.41548104  1
  S  S20  1  0.66677131  0.37261061  0.41746103  1
  O  O0  1  0.11543956  0.03299066  0.30336309  1
  O  O1  1  0.60624826  0.02402120  0.30379455  1
  O  O2  1  0.41483498  0.78844380  0.30504115  1
  O  O3  1  0.91125022  0.77808557  0.30355069  1
  O  O4  1  0.48347021  0.16305381  0.30317782  1
  O  O5  1  0.98747433  0.18147400  0.30285750  1
  O  O6  1  0.11533670  0.19390624  0.80126348  1
  O  O7  1  0.61497783  0.19877707  0.80357416  1
  O  O8  1  0.48978738  0.77684234  0.80141663  1
  O  O9  1  0.98260362  0.78477375  0.80138550  1
  O  O10  1  0.41361386  0.04476730  0.79783383  1
  O  O11  1  0.90667963  0.03891287  0.80336420  1
  O  O12  1  0.39465303  0.98834340  0.68512853  1
  O  O13  1  0.90459625  0.97695026  0.69269672  1
  O  O14  1  0.09365407  0.20403033  0.69868932  1
  O  O15  1  0.59544838  0.21346285  0.70164944  1
  O  O16  1  0.01408116  0.81991682  0.68910694  1
  O  O17  1  0.50907459  0.80036596  0.69831473  1
  O  O18  1  0.39956302  0.83222450  0.19502880  1
  O  O19  1  0.88723635  0.81625646  0.19502824  1
  O  O20  1  0.02108218  0.23335684  0.19112096  1
  O  O21  1  0.51704975  0.21409094  0.19201140  1
  O  O22  1  0.09694270  0.96674647  0.20201643  1
  O  O23  1  0.59125235  0.97059878  0.20103999  1
  O  O24  1  0.44206469  0.36089931  0.63621775  1
  O  O25  1  0.93865596  0.35550777  0.63627544  1
  O  O26  1  0.24417714  0.13666406  0.63766272  1
  O  O27  1  0.74386637  0.13736376  0.63504535  1
  O  O28  1  0.32844129  0.52577497  0.63531451  1
  O  O29  1  0.82201508  0.52856186  0.63713005  1
  O  O30  1  0.44353775  0.52491159  0.13685172  1
  O  O31  1  0.94584310  0.53301244  0.13628984  1
  O  O32  1  0.32704182  0.12520098  0.13980813  1
  O  O33  1  0.81998559  0.09979670  0.13766385  1
  O  O34  1  0.24017130  0.33950963  0.14031465  1
  O  O35  1  0.72938848  0.35103439  0.13988829  1
  O  O36  1  0.22802505  0.32315619  0.02427801  1
  O  O37  1  0.72162194  0.31026785  0.02383287  1
  O  O38  1  0.43238376  0.55490760  0.03438413  1
  O  O39  1  0.93250929  0.54642471  0.03362542  1
  O  O40  1  0.34856374  0.14479602  0.03669047  1
  O  O41  1  0.84325827  0.14165033  0.03530610  1
  O  O42  1  0.23620995  0.15491917  0.52380424  1
  O  O43  1  0.73672212  0.15275139  0.52089167  1
  O  O44  1  0.34175150  0.53849535  0.53155037  1
  O  O45  1  0.84607596  0.53814257  0.53413301  1
  O  O46  1  0.42440486  0.31828565  0.53347857  1
  O  O47  1  0.92659230  0.31396431  0.53291201  1
  O  O48  1  0.27783901  0.68969034  0.96777287  1
  O  O49  1  0.76617397  0.68207454  0.96785669  1
  O  O50  1  0.07246784  0.45850764  0.97321927  1
  O  O51  1  0.57751699  0.47305142  0.97096864  1
  O  O52  1  0.16270289  0.86993376  0.96725690  1
  O  O53  1  0.66046339  0.86139310  0.96969107  1
  O  O54  1  0.27739090  0.86494549  0.46869374  1
  O  O55  1  0.76531920  0.85122348  0.46765507  1
  O  O56  1  0.16234371  0.45452026  0.46646239  1
  O  O57  1  0.65817407  0.45984327  0.46718285  1
  O  O58  1  0.07295835  0.68748994  0.47401360  1
  O  O59  1  0.58178286  0.69860044  0.46882490  1
  O  O60  1  0.06530991  0.64799191  0.35988489  1
  O  O61  1  0.56031890  0.64330675  0.35681274  1
  O  O62  1  0.26170560  0.87993640  0.36552034  1
  O  O63  1  0.76117125  0.87948510  0.36408705  1
  O  O64  1  0.17971305  0.47055174  0.36299843  1
  O  O65  1  0.67748689  0.47023919  0.36354879  1
  O  O66  1  0.06123897  0.46269725  0.85776292  1
  O  O67  1  0.56258035  0.46876605  0.85567133  1
  O  O68  1  0.17724721  0.89181949  0.86348456  1
  O  O69  1  0.67681758  0.88844507  0.86632988  1
  O  O70  1  0.26586909  0.64972797  0.86488827  1
  O  O71  1  0.76581938  0.65055531  0.86451856  1
  O  O72  1  0.01677440  0.84263695  0.41511536  1
  O  O73  1  0.51616720  0.84694134  0.41052929  1
  O  O74  1  0.40000550  0.98781120  0.41000463  1
  O  O75  1  0.89390565  0.98247105  0.41616581  1
  O  O76  1  0.09653783  0.20029150  0.41198273  1
  O  O77  1  0.59247218  0.20082165  0.41220705  1
  O  O78  1  0.01618167  0.18170906  0.91731067  1
  O  O79  1  0.51920747  0.19065359  0.91695588  1
  O  O80  1  0.09183498  0.98606333  0.91369893  1
  O  O81  1  0.58893550  0.97669498  0.91561849  1
  O  O82  1  0.40197710  0.80866389  0.91168178  1
  O  O83  1  0.89664568  0.81194856  0.91721680  1
  O  O84  1  0.48256360  0.17972504  0.58567076  1
  O  O85  1  0.98688474  0.17978141  0.58858000  1
  O  O86  1  0.08968266  0.01330986  0.58515327  1
  O  O87  1  0.59518919  0.02170948  0.58129862  1
  O  O88  1  0.40802235  0.79435737  0.58517735  1
  O  O89  1  0.91014828  0.79223121  0.58667273  1
  O  O90  1  0.49305066  0.80236057  0.09264465  1
  O  O91  1  0.99208456  0.80128420  0.08720136  1
  O  O92  1  0.41106291  0.02348408  0.09191509  1
  O  O93  1  0.90758915  0.01448127  0.08576587  1
  O  O94  1  0.08754244  0.16733002  0.08454649  1
  O  O95  1  0.58069118  0.16210003  0.08665524  1
  O  O96  1  0.34401836  0.18244485  0.74104202  1
  O  O97  1  0.84298114  0.16765212  0.73917462  1
  O  O98  1  0.23345593  0.31013848  0.73921467  1
  O  O99  1  0.73626763  0.32588421  0.74276227  1
  O  O100  1  0.42134188  0.52674950  0.74362478  1
  O  O101  1  0.91138127  0.51262539  0.73801518  1
  O  O102  1  0.34067886  0.51843994  0.24242725  1
  O  O103  1  0.83009859  0.50619658  0.24670871  1
  O  O104  1  0.41403259  0.31056490  0.24273823  1
  O  O105  1  0.91631669  0.32056576  0.24474334  1
  O  O106  1  0.23628445  0.15106680  0.24273944  1
  O  O107  1  0.72887400  0.14282282  0.24514965  1
  O  O108  1  0.31838630  0.50592636  0.91987495  1
  O  O109  1  0.81469910  0.50766272  0.92254287  1
  O  O110  1  0.42478079  0.34558292  0.91980210  1
  O  O111  1  0.92165272  0.33984069  0.91933958  1
  O  O112  1  0.24181477  0.14196085  0.91928724  1
  O  O113  1  0.73862964  0.13579060  0.92233388  1
  O  O114  1  0.31906791  0.13102140  0.42102485  1
  O  O115  1  0.81310212  0.12487018  0.42203034  1
  O  O116  1  0.24637506  0.35123543  0.41937715  1
  O  O117  1  0.74259215  0.35206711  0.42170047  1
  O  O118  1  0.42482986  0.50187731  0.42564544  1
  O  O119  1  0.92262073  0.49480733  0.42308866  1
  O  O120  1  0.17210659  0.49835751  0.08670440  1
  O  O121  1  0.66460631  0.49601472  0.07747984  1
  O  O122  1  0.06781414  0.64964826  0.07889558  1
  O  O123  1  0.56670726  0.64631605  0.07908208  1
  O  O124  1  0.25903792  0.87417131  0.08266326  1
  O  O125  1  0.75518097  0.86114999  0.07510072  1
  O  O126  1  0.18107529  0.85872482  0.58081922  1
  O  O127  1  0.67985101  0.85326947  0.57596078  1
  O  O128  1  0.25824658  0.64013073  0.58042243  1
  O  O129  1  0.75735564  0.64166520  0.57520521  1
  O  O130  1  0.06138924  0.48354612  0.57970843  1
  O  O131  1  0.56441086  0.48326267  0.57586250  1
  O  O132  1  0.16323446  0.85256213  0.25909628  1
  O  O133  1  0.65263465  0.84328975  0.25744829  1
  O  O134  1  0.26043622  0.69229858  0.25889289  1
  O  O135  1  0.75411992  0.68852043  0.26089685  1
  O  O136  1  0.08493247  0.49443014  0.25707584  1
  O  O137  1  0.58113242  0.47901471  0.25749707  1
  O  O138  1  0.15666361  0.45931007  0.75167859  1
  O  O139  1  0.65668450  0.46538743  0.75521793  1
  O  O140  1  0.07896148  0.67309671  0.74894899  1
  O  O141  1  0.57091435  0.66964806  0.75193124  1
  O  O142  1  0.25609991  0.85016122  0.75110187  1
  O  O143  1  0.76218851  0.82153720  0.74892063  1
loop_
_geom_bond_atom_site_label_1
_geom_bond_atom_site_label_2
_geom_bond_distance
_geom_bond_site_symmetry_2
Na0 O104 2.478022 1_555
Na0 O134 2.481917 1_545
Na0 O132 2.651031 1_545
Na0 O106 2.674563 1_555
Na0 O4 2.786662 1_555
Na0 O18 2.795746 1_545
Na0 O32 2.813766 1_555
Na0 O62 2.954495 1_545
Na1 O135 2.473016 1_555
Na1 O105 2.591717 1_565
Na1 O107 2.742341 1_565
Na1 O19 2.770069 1_555
Na1 O133 2.792552 1_555
Na1 O5 2.839786 1_565
Na1 O63 2.851505 1_555
Na1 O33 2.870937 1_565
Na2 O102 2.517075 1_555
Na2 O134 2.524789 1_555
Na2 O136 2.540870 1_555
Na2 O34 2.702323 1_555
Na2 O106 2.728058 1_555
Na2 O20 2.869996 1_555
Na2 O64 2.955520 1_555
Na3 O103 2.399907 1_555
Na3 O137 2.470451 1_555
Na3 O135 2.532430 1_555
Na3 O35 2.662574 1_555
Na3 O107 2.700859 1_555
Na3 O21 2.894949 1_555
Na3 O65 2.921013 1_555
Na4 O105 2.470113 1_555
Na4 O136 2.543908 1_655
Na4 O103 2.644348 1_555
Na4 O60 2.650824 1_655
Na4 O3 2.700647 1_555
Na4 O132 2.777412 1_655
Na5 O137 2.525392 1_555
Na5 O104 2.528164 1_555
Na5 O102 2.545278 1_555
Na5 O61 2.573790 1_555
Na5 O133 2.575085 1_555
Na5 O2 2.824698 1_555
Na5 O30 2.989617 1_555
Na6 O101 2.422656 1_555
Na6 O143 2.437993 1_555
Na6 O99 2.627603 1_555
Na6 O29 2.744427 1_555
Na6 O9 2.779644 1_555
Na6 O139 2.792182 1_555
Na6 O13 2.853525 1_555
Na7 O97 2.443188 1_555
Na7 O140 2.498779 1_655
Na7 O101 2.521468 1_555
Na7 O66 2.654597 1_655
Na7 O138 2.713533 1_655
Na7 O11 2.802380 1_555
Na7 O25 2.958829 1_555
Na8 O96 2.439689 1_555
Na8 O141 2.554039 1_555
Na8 O67 2.592226 1_555
Na8 O100 2.599180 1_555
Na8 O10 2.612790 1_555
Na8 O139 2.631814 1_555
Na9 O142 2.345201 1_555
Na9 O140 2.553590 1_555
Na9 O98 2.611650 1_565
Na9 O96 2.649156 1_565
Na9 O26 2.760591 1_565
Na9 O16 2.921757 1_555
Na9 O68 2.970089 1_555
Na9 O6 3.014863 1_565
Na10 O86 2.405038 1_565
Na10 O89 2.468480 1_455
Na10 O130 2.585785 1_555
Na10 O126 2.588927 1_555
Na10 O16 2.644071 1_555
Na10 O58 2.832086 1_555
Na11 O126 2.408408 1_555
Na11 O12 2.459989 1_555
Na11 O84 2.497908 1_565
Na11 O128 2.688935 1_555
Na11 O88 2.693738 1_555
Na11 O26 2.864099 1_565
Na12 O94 2.323503 1_555
Na12 O120 2.378725 1_555
Na12 O93 2.614003 1_455
Na12 O122 2.635275 1_555
Na12 O20 2.668403 1_555
Na12 O50 2.784662 1_554
Na13 O95 2.325778 1_555
Na13 O121 2.327672 1_555
Na13 O92 2.526089 1_555
Na13 O123 2.592586 1_555
Na13 O21 2.702650 1_555
Na13 O51 2.936021 1_554
Na13 O40 2.975818 1_555
Na13 O30 3.023467 1_555
Na14 O78 2.315694 1_555
Na14 O80 2.554847 1_545
Na14 O108 2.572667 1_555
Na14 O36 2.573872 1_556
Na14 O112 2.598842 1_555
Na14 O50 2.852414 1_555
Na15 O79 2.323784 1_555
Na15 O109 2.481219 1_555
Na15 O37 2.485826 1_556
Na15 O113 2.557631 1_555
Na15 O81 2.629624 1_545
Na15 O51 2.889921 1_555
Na16 O72 2.344279 1_545
Na16 O76 2.535806 1_555
Na16 O114 2.551906 1_555
Na16 O42 2.652785 1_555
Na16 O116 2.673870 1_555
Na16 O58 2.857570 1_545
Na17 O73 2.366968 1_545
Na17 O115 2.466582 1_555
Na17 O77 2.544593 1_555
Na17 O43 2.600174 1_555
Na17 O117 2.625711 1_555
Na17 O59 2.784127 1_545
Na18 O86 2.502464 1_665
Na18 O72 2.604156 1_655
Na18 O89 2.627902 1_555
Na18 O85 2.707178 1_565
Na18 O75 2.778915 1_555
Na18 O76 2.816297 1_665
Na19 O87 2.430289 1_565
Na19 O73 2.448472 1_555
Na19 O77 2.640293 1_565
Na19 O88 2.778545 1_555
Na19 O74 2.899032 1_555
Na19 O84 2.921227 1_565
Na20 O78 2.421557 1_555
Na20 O94 2.474695 1_556
Na20 O80 2.654063 1_545
Na20 O93 2.699737 1_456
Na20 O83 2.743241 1_445
Na20 O91 2.750801 1_446
Na21 O95 2.390870 1_555
Na21 O79 2.582882 1_554
Na21 O81 2.676927 1_544
Na21 O90 2.727792 1_545
Na21 O92 2.736914 1_555
Na21 O82 2.873305 1_544
Na22 O110 2.400232 1_555
Na22 O96 2.603199 1_555
Na22 O112 2.684182 1_555
Na22 O100 2.698650 1_555
Na22 O108 2.745429 1_555
Na23 O111 2.433189 1_555
Na23 O97 2.561827 1_555
Na23 O101 2.626487 1_555
Na23 O113 2.888590 1_555
Na23 O99 2.947509 1_555
Na23 O109 2.987959 1_555
Na24 O118 2.473062 1_555
Na24 O104 2.613887 1_555
Na24 O102 2.668188 1_555
Na24 O116 2.721812 1_555
Na24 O114 2.772581 1_555
Na25 O119 2.370509 1_555
Na25 O103 2.613382 1_555
Na25 O105 2.621491 1_555
Na25 O117 2.748455 1_555
Na25 O115 2.786759 1_555
Na26 O120 2.358922 1_555
Na26 O134 2.565280 1_555
Na26 O136 2.614976 1_555
Na26 O124 2.703263 1_555
Na26 O122 2.875264 1_555
Na26 O132 2.898736 1_555
Na27 O121 2.498717 1_555
Na27 O135 2.577822 1_555
Na27 O137 2.715966 1_555
Na27 O125 2.736677 1_555
Na27 O123 2.849698 1_555
Na27 O133 2.907627 1_555
Na28 O142 2.439507 1_555
Na28 O140 2.469367 1_555
Na28 O126 2.632541 1_555
Na28 O138 2.680253 1_555
Na28 O128 2.787386 1_555
Na28 O130 2.896429 1_555
Na29 O127 2.344218 1_555
Na29 O143 2.468229 1_555
Na29 O129 2.698225 1_555
Na29 O141 2.843417 1_555
Na29 O131 2.922383 1_555
O0 S0 1.473871 1_555
O0 Y0 2.429961 1_445
O1 S1 1.483769 1_545
O1 Sc0 2.251253 1_545
O2 Si0 1.638970 1_555
O2 Sc0 1.941402 1_555
O3 Si1 1.626930 1_555
O3 Y0 2.089930 1_555
O4 Si3 1.632966 1_555
O4 Sc0 2.031310 1_545
O5 Si2 1.616738 1_655
O5 Y0 2.147505 1_545
O6 S2 1.493265 1_555
O6 Y1 2.379434 1_445
O7 S3 1.483826 1_555
O7 Y2 2.316652 1_555
O8 S4 1.470862 1_555
O8 Y2 2.388153 1_565
O9 Si4 1.629492 1_555
O9 Y1 2.163335 1_555
O10 Si5 1.643763 1_555
O10 Y2 2.087681 1_555
O11 Si6 1.635411 1_545
O11 Y1 2.085371 1_545
O12 Si5 1.631524 1_565
O12 Y3 2.216073 1_555
O13 Si6 1.638337 1_555
O13 Sc1 1.958821 1_555
O14 S2 1.477131 1_555
O14 Sc1 2.218144 1_445
O15 S3 1.482069 1_555
O15 Y3 2.258841 1_545
O16 Si4 1.654629 1_455
O16 Sc1 1.972484 1_455
O17 S4 1.481029 1_555
O17 Y3 2.234490 1_555
O18 Si0 1.632079 1_555
O18 Sc2 2.016156 1_565
O19 Si1 1.631958 1_555
O19 Y4 2.161350 1_565
O20 Si2 1.642274 1_555
O20 Y4 2.148712 1_455
O21 Si3 1.648911 1_555
O21 Sc2 1.974024 1_555
O22 S0 1.483206 1_565
O22 Y4 2.302231 1_465
O23 S1 1.479478 1_555
O23 Sc2 2.203350 1_565
O24 S5 1.494480 1_555
O24 Sc3 2.182975 1_555
O25 S6 1.487922 1_555
O25 Sc4 2.168057 1_555
O26 Si7 1.663305 1_555
O26 Sc3 1.927891 1_555
O27 Si8 1.634939 1_555
O27 Sc4 1.933438 1_555
O28 S7 1.475177 1_555
O28 Sc3 2.179528 1_555
O29 S8 1.485270 1_555
O29 Sc4 2.327859 1_555
O30 S9 1.505706 1_555
O30 Sc5 2.166555 1_555
O31 S10 1.492991 1_555
O31 Y5 2.270489 1_555
O32 S11 1.486097 1_555
O32 Sc5 2.266953 1_555
O33 S12 1.493026 1_555
O33 Y5 2.363959 1_555
O34 Si9 1.661642 1_555
O34 Sc5 1.977097 1_555
O35 Si10 1.635412 1_555
O35 Y5 2.124862 1_555
O36 Si9 1.636240 1_555
O36 Y6 2.157495 1_554
O37 Si10 1.635020 1_555
O37 Y7 2.194614 1_554
O38 S9 1.483507 1_555
O38 Y6 2.246079 1_554
O39 S10 1.474963 1_555
O39 Y7 2.244184 1_554
O40 S11 1.489933 1_555
O40 Y6 2.227626 1_554
O41 S12 1.488690 1_555
O41 Y7 2.215579 1_554
O42 Si7 1.648478 1_555
O42 Sc6 2.050286 1_555
O43 Si8 1.647399 1_555
O43 Sc7 1.972839 1_555
O44 S7 1.479559 1_555
O44 Sc6 2.117206 1_555
O45 S8 1.495457 1_555
O45 Sc7 2.115378 1_555
O46 S5 1.485133 1_555
O46 Sc6 2.127094 1_555
O47 S6 1.481847 1_555
O47 Sc7 2.185688 1_555
O48 S13 1.480518 1_555
O48 Y8 2.229756 1_556
O49 S14 1.469556 1_555
O49 Sc8 2.141437 1_556
O50 Si11 1.663742 1_555
O50 Y8 2.100337 1_556
O51 Si12 1.659803 1_555
O51 Sc8 1.935158 1_556
O52 S15 1.472700 1_555
O52 Y8 2.352953 1_556
O53 S16 1.460567 1_555
O53 Sc8 2.286339 1_556
O54 S17 1.489165 1_555
O54 Y9 2.290622 1_555
O55 S18 1.475768 1_555
O55 Sc9 2.129794 1_555
O56 S19 1.472902 1_555
O56 Y9 2.275741 1_555
O57 S20 1.467188 1_555
O57 Sc9 2.359058 1_555
O58 Si13 1.645924 1_555
O58 Y9 2.064588 1_555
O59 Si14 1.649103 1_555
O59 Sc9 1.920121 1_555
O60 Si13 1.671007 1_555
O60 Sc10 1.984419 1_555
O61 Si14 1.655029 1_555
O61 Sc11 1.985428 1_555
O62 S17 1.491214 1_555
O62 Sc10 2.304599 1_555
O63 S18 1.494865 1_555
O63 Sc11 2.335307 1_555
O64 S19 1.494365 1_555
O64 Sc10 2.170465 1_555
O65 S20 1.503035 1_555
O65 Sc11 2.119446 1_555
O66 Si11 1.646007 1_555
O66 Y10 2.132890 1_555
O67 Si12 1.641656 1_555
O67 Y11 2.156071 1_555
O68 S15 1.481393 1_555
O68 Y10 2.274334 1_555
O69 S16 1.487575 1_555
O69 Y11 2.186397 1_555
O70 S13 1.476717 1_555
O70 Y10 2.316498 1_555
O71 S14 1.491369 1_555
O71 Y11 2.269413 1_555
O72 Si13 1.647894 1_555
O72 Y0 2.202822 1_455
O73 Si14 1.660556 1_555
O73 Sc0 2.112724 1_555
O74 S17 1.474982 1_555
O74 Sc0 2.191394 1_555
O75 S18 1.482081 1_555
O75 Y0 2.284901 1_555
O76 S19 1.481182 1_555
O76 Y0 2.413911 1_445
O77 S20 1.494628 1_555
O77 Sc0 2.444289 1_545
O78 Si11 1.652820 1_555
O78 Y1 2.234563 1_445
O79 Si12 1.665120 1_555
O79 Y2 2.165621 1_555
O80 S15 1.486434 1_555
O80 Y1 2.443137 1_455
O81 S16 1.487243 1_555
O81 Y2 2.447804 1_565
O82 S13 1.471898 1_555
O82 Y2 2.265683 1_565
O83 S14 1.473705 1_555
O83 Y1 2.336347 1_555
O84 S5 1.496134 1_555
O84 Y3 2.374159 1_545
O85 S6 1.472311 1_555
O85 Sc1 2.334504 1_545
O86 Si7 1.640927 1_555
O86 Sc1 2.172390 1_445
O87 Si8 1.649154 1_555
O87 Y3 2.146274 1_545
O88 S7 1.494640 1_555
O88 Y3 2.335962 1_555
O89 S8 1.511089 1_555
O89 Sc1 2.263852 1_555
O90 S9 1.469170 1_555
O90 Sc2 2.326004 1_565
O91 S10 1.468620 1_555
O91 Y4 2.363898 1_565
O92 S11 1.481778 1_555
O92 Sc2 2.229818 1_555
O93 S12 1.494822 1_555
O93 Y4 2.352912 1_555
O94 Si9 1.649629 1_555
O94 Y4 2.230065 1_455
O95 Si10 1.654451 1_555
O95 Sc2 2.109272 1_555
O96 Si5 1.681365 1_555
O96 Sc3 2.003428 1_555
O97 Si6 1.640254 1_545
O97 Sc4 1.976383 1_555
O98 S2 1.484962 1_555
O98 Sc3 2.193426 1_555
O99 S3 1.473659 1_555
O99 Sc4 2.243696 1_555
O100 S4 1.485203 1_555
O100 Sc3 2.335341 1_555
O101 Si4 1.641022 1_555
O101 Sc4 2.161192 1_555
O102 Si0 1.666758 1_555
O102 Sc5 2.017868 1_555
O103 Si1 1.648211 1_555
O103 Y5 2.158250 1_555
O104 Si3 1.656302 1_555
O104 Sc5 2.174755 1_555
O105 Si2 1.642822 1_655
O105 Y5 2.267187 1_555
O106 S0 1.491007 1_555
O106 Sc5 2.257851 1_555
O107 S1 1.493860 1_545
O107 Y5 2.340144 1_555
O108 S13 1.489375 1_555
O108 Y6 2.334092 1_555
O109 S14 1.491847 1_555
O109 Y7 2.306566 1_555
O110 Si12 1.626869 1_555
O110 Y6 2.185883 1_555
O111 Si11 1.633963 1_655
O111 Y7 2.169606 1_555
O112 S15 1.497059 1_545
O112 Y6 2.338544 1_555
O113 S16 1.497350 1_545
O113 Y7 2.288382 1_555
O114 S17 1.498026 1_545
O114 Sc6 2.297147 1_555
O115 S18 1.496188 1_545
O115 Sc7 2.300579 1_555
O116 S19 1.494241 1_555
O116 Sc6 2.247652 1_555
O117 S20 1.506025 1_555
O117 Sc7 2.258924 1_555
O118 Si14 1.648033 1_555
O118 Sc6 2.021022 1_555
O119 Si13 1.639007 1_655
O119 Sc7 2.070719 1_555
O120 Si9 1.668512 1_555
O120 Y8 2.178555 1_555
O121 Si10 1.679543 1_555
O121 Sc8 1.984032 1_555
O122 S10 1.483523 1_455
O122 Y8 2.295567 1_555
O123 S9 1.486543 1_555
O123 Sc8 2.246292 1_555
O124 S11 1.477594 1_565
O124 Y8 2.388300 1_555
O125 S12 1.459377 1_565
O125 Sc8 2.291476 1_555
O126 Si7 1.679380 1_565
O126 Y9 2.209334 1_555
O127 Si8 1.662784 1_565
O127 Sc9 1.967076 1_555
O128 S7 1.489632 1_555
O128 Y9 2.377785 1_555
O129 S8 1.472780 1_555
O129 Sc9 2.412188 1_555
O130 S6 1.508055 1_455
O130 Y9 2.293215 1_555
O131 S5 1.470802 1_555
O131 Sc9 2.248570 1_555
O132 S0 1.491517 1_565
O132 Sc10 2.265954 1_555
O133 S1 1.488199 1_555
O133 Sc11 2.343183 1_555
O134 Si0 1.652886 1_555
O134 Sc10 2.180875 1_555
O135 Si1 1.653959 1_555
O135 Sc11 2.107034 1_555
O136 Si2 1.667108 1_555
O136 Sc10 2.001178 1_555
O137 Si3 1.658942 1_555
O137 Sc11 2.034502 1_555
O138 S2 1.486108 1_555
O138 Y10 2.362075 1_555
O139 S3 1.489930 1_555
O139 Y11 2.363635 1_555
O140 Si4 1.653115 1_455
O140 Y10 2.198681 1_555
O141 S4 1.502000 1_555
O141 Y11 2.301589 1_555
O142 Si5 1.631448 1_565
O142 Y10 2.250156 1_555
O143 Si6 1.649569 1_555
O143 Y11 2.209640 1_555
