# generated using pymatgen
data_Na3ZnGaP2SO12
_symmetry_space_group_name_H-M   'P 1'
_cell_length_a   8.88279654
_cell_length_b   8.83497647
_cell_length_c   22.18048494
_cell_angle_alpha   90.30271032
_cell_angle_beta   90.00000000
_cell_angle_gamma   120.17920902
_symmetry_Int_Tables_number   1
_chemical_formula_structural   Na3ZnGaP2SO12
_chemical_formula_sum   'Na18 Zn6 Ga6 P12 S6 O72'
_cell_volume   1504.74036772
_cell_formula_units_Z   6
loop_
 _symmetry_equiv_pos_site_id
 _symmetry_equiv_pos_as_xyz
  1  'x, y, z'
loop_
 _atom_site_type_symbol
 _atom_site_label
 _atom_site_symmetry_multiplicity
 _atom_site_fract_x
 _atom_site_fract_y
 _atom_site_fract_z
 _atom_site_occupancy
  Na  Na0  1  0.36222889  0.36023293  0.24848902  1
  Na  Na1  1  0.99861006  0.63058677  0.24827046  1
  Na  Na2  1  0.63197671  0.63058677  0.74827046  1
  Na  Na3  1  0.99800404  0.36023293  0.74848902  1
  Na  Na4  1  0.02889589  0.69356593  0.58182202  1
  Na  Na5  1  0.66527706  0.96391977  0.58160346  1
  Na  Na6  1  0.29864371  0.96391977  0.08160346  1
  Na  Na7  1  0.66467104  0.69356593  0.08182202  1
  Na  Na8  1  0.69556189  0.02689993  0.91515602  1
  Na  Na9  1  0.33194306  0.29725377  0.91493746  1
  Na  Na10  1  0.96530971  0.29725377  0.41493746  1
  Na  Na11  1  0.33133704  0.02689993  0.41515602  1
  Na  Na12  1  0.99237848  0.99439804  0.49857370  1
  Na  Na13  1  0.00201956  0.99439804  0.99857370  1
  Na  Na14  1  0.65904548  0.32773104  0.83190670  1
  Na  Na15  1  0.66868656  0.32773104  0.33190670  1
  Na  Na16  1  0.32571148  0.66106504  0.16524070  1
  Na  Na17  1  0.33535256  0.66106504  0.66524070  1
  Zn  Zn0  1  0.99236341  0.99514850  0.34966222  1
  Zn  Zn1  1  0.00278509  0.99514850  0.84966222  1
  Zn  Zn2  1  0.65903041  0.32848150  0.68299522  1
  Zn  Zn3  1  0.66945209  0.32848150  0.18299522  1
  Zn  Zn4  1  0.32569641  0.66181550  0.01632922  1
  Zn  Zn5  1  0.33611809  0.66181550  0.51632922  1
  Ga  Ga0  1  0.99447802  0.01326148  0.65075243  1
  Ga  Ga1  1  0.01878346  0.01326148  0.15075243  1
  Ga  Ga2  1  0.66114502  0.34659448  0.98408543  1
  Ga  Ga3  1  0.68545046  0.34659448  0.48408543  1
  Ga  Ga4  1  0.32781102  0.67992848  0.31741943  1
  Ga  Ga5  1  0.35211646  0.67992848  0.81741943  1
  P  P0  1  0.29497037  0.00080829  0.25117437  1
  P  P1  1  -0.00111945  0.29043995  0.25145686  1
  P  P2  1  0.29155940  0.29043995  0.75145686  1
  P  P3  1  0.70583792  0.00080829  0.75117437  1
  P  P4  1  0.96163737  0.33414129  0.58450737  1
  P  P5  1  0.66554755  0.62377295  0.58478986  1
  P  P6  1  0.95822640  0.62377295  0.08478986  1
  P  P7  1  0.37250492  0.33414129  0.08450737  1
  P  P8  1  0.62830337  0.66747529  0.91784137  1
  P  P9  1  0.33221355  0.95710695  0.91812386  1
  P  P10  1  0.62489240  0.95710695  0.41812386  1
  P  P11  1  0.03917092  0.66747529  0.41784137  1
  S  S0  1  0.70584982  0.71124106  0.24972993  1
  S  S1  1  0.00539124  0.71124106  0.74972993  1
  S  S2  1  0.37251682  0.04457406  0.58306293  1
  S  S3  1  0.67205824  0.04457406  0.08306293  1
  S  S4  1  0.03918282  0.37790806  0.91639693  1
  S  S5  1  0.33872424  0.37790806  0.41639693  1
  O  O0  1  0.21365406  0.03338846  0.30698471  1
  O  O1  1  0.81763680  0.78739390  0.30286383  1
  O  O2  1  0.97202260  0.18418828  0.30825957  1
  O  O3  1  0.21216569  0.18418828  0.80825957  1
  O  O4  1  0.96975710  0.78739390  0.80286383  1
  O  O5  1  0.81973440  0.03338846  0.80698471  1
  O  O6  1  0.78441543  0.95906549  0.69383427  1
  O  O7  1  0.17052171  0.20735396  0.69501693  1
  O  O8  1  0.03390117  0.81769489  0.69422341  1
  O  O9  1  0.78379372  0.81769489  0.19422341  1
  O  O10  1  0.03683225  0.20735396  0.19501693  1
  O  O11  1  0.17465006  0.95906549  0.19383427  1
  O  O12  1  0.88032106  0.36672146  0.64031771  1
  O  O13  1  0.48430380  0.12072690  0.63619683  1
  O  O14  1  0.63868960  0.51752128  0.64159257  1
  O  O15  1  0.87883269  0.51752128  0.14159257  1
  O  O16  1  0.63642410  0.12072690  0.13619683  1
  O  O17  1  0.48640140  0.36672146  0.14031771  1
  O  O18  1  0.45108243  0.29239849  0.02716727  1
  O  O19  1  0.83718871  0.54068696  0.02834993  1
  O  O20  1  0.70056817  0.15102789  0.02755641  1
  O  O21  1  0.45046072  0.15102789  0.52755641  1
  O  O22  1  0.70349925  0.54068696  0.52834993  1
  O  O23  1  0.84131706  0.29239849  0.52716727  1
  O  O24  1  0.54698706  0.70005546  0.97365171  1
  O  O25  1  0.15096980  0.45406090  0.96953083  1
  O  O26  1  0.30535560  0.85085528  0.97492657  1
  O  O27  1  0.54549869  0.85085528  0.47492657  1
  O  O28  1  0.30309010  0.45406090  0.46953083  1
  O  O29  1  0.15306740  0.70005546  0.47365171  1
  O  O30  1  0.11774843  0.62573249  0.36050127  1
  O  O31  1  0.50385471  0.87402096  0.36168393  1
  O  O32  1  0.36723417  0.48436189  0.36089041  1
  O  O33  1  0.11712672  0.48436189  0.86089041  1
  O  O34  1  0.37016525  0.87402096  0.86168393  1
  O  O35  1  0.50798306  0.62573249  0.86050127  1
  O  O36  1  0.02635269  0.83284188  0.40993307  1
  O  O37  1  0.81008740  0.98782256  0.41100610  1
  O  O38  1  0.18087669  0.20036203  0.41083937  1
  O  O39  1  0.01948534  0.20036203  0.91083937  1
  O  O40  1  0.17773515  0.98782256  0.91100610  1
  O  O41  1  0.80648919  0.83284188  0.90993307  1
  O  O42  1  0.97102006  0.16135001  0.58936147  1
  O  O43  1  0.19437695  0.02113630  0.58956198  1
  O  O44  1  0.84009228  0.81128521  0.59000629  1
  O  O45  1  0.97119293  0.81128521  0.09000629  1
  O  O46  1  0.82675935  0.02113630  0.08956198  1
  O  O47  1  0.19032996  0.16135001  0.08936147  1
  O  O48  1  0.69301969  0.16617488  0.74326607  1
  O  O49  1  0.47675440  0.32115556  0.74433910  1
  O  O50  1  0.84754369  0.53369503  0.74417237  1
  O  O51  1  0.68615234  0.53369503  0.24417237  1
  O  O52  1  0.84440215  0.32115556  0.24433910  1
  O  O53  1  0.47315619  0.16617488  0.24326607  1
  O  O54  1  0.63768706  0.49468301  0.92269447  1
  O  O55  1  0.86104395  0.35446930  0.92289498  1
  O  O56  1  0.50675928  0.14461821  0.92333929  1
  O  O57  1  0.63785993  0.14461821  0.42333929  1
  O  O58  1  0.49342635  0.35446930  0.42289498  1
  O  O59  1  0.85699696  0.49468301  0.42269447  1
  O  O60  1  0.35968569  0.49950888  0.07660007  1
  O  O61  1  0.14342040  0.65448956  0.07767310  1
  O  O62  1  0.51420969  0.86702903  0.07750637  1
  O  O63  1  0.35281834  0.86702903  0.57750637  1
  O  O64  1  0.51106815  0.65448956  0.57767310  1
  O  O65  1  0.13982219  0.49950888  0.57660007  1
  O  O66  1  0.30435306  0.82801701  0.25602847  1
  O  O67  1  0.52770995  0.68780330  0.25622898  1
  O  O68  1  0.17342528  0.47795221  0.25667329  1
  O  O69  1  0.30452593  0.47795221  0.75667329  1
  O  O70  1  0.16009235  0.68780330  0.75622898  1
  O  O71  1  0.52366296  0.82801701  0.75602847  1
loop_
_geom_bond_atom_site_label_1
_geom_bond_atom_site_label_2
_geom_bond_distance
_geom_bond_site_symmetry_2
Na0 O53 2.370706 1_555
Na0 O68 2.383074 1_555
Na0 O51 2.490984 1_555
Na0 O67 2.506687 1_555
Na0 O17 2.629520 1_555
Na0 O32 2.709686 1_555
Na0 O10 2.764690 1_555
Na0 O0 2.823422 1_555
Na1 O52 2.364348 1_555
Na1 O66 2.383688 1_655
Na1 O51 2.460659 1_555
Na1 O68 2.524407 1_655
Na1 O15 2.575863 1_555
Na1 O30 2.713917 1_655
Na1 O11 2.792789 1_655
Na1 O1 2.862030 1_555
Na2 O49 2.364348 1_555
Na2 O71 2.383695 1_555
Na2 O50 2.460667 1_555
Na2 O69 2.524414 1_555
Na2 O14 2.575865 1_555
Na2 O35 2.713920 1_555
Na2 O6 2.792789 1_555
Na2 O4 2.862030 1_555
Na3 O48 2.370699 1_555
Na3 O69 2.383066 1_655
Na3 O50 2.490976 1_555
Na3 O70 2.506687 1_655
Na3 O12 2.629517 1_555
Na3 O33 2.709684 1_655
Na3 O7 2.764690 1_655
Na3 O5 2.823422 1_555
Na4 O65 2.370690 1_555
Na4 O44 2.383074 1_455
Na4 O63 2.490976 1_555
Na4 O43 2.506687 1_565
Na4 O29 2.629495 1_555
Na4 O8 2.709686 1_555
Na4 O22 2.764690 1_455
Na4 O12 2.823422 1_455
Na5 O64 2.364340 1_555
Na5 O42 2.383688 1_565
Na5 O63 2.460669 1_555
Na5 O44 2.524407 1_555
Na5 O27 2.575843 1_555
Na5 O6 2.713917 1_555
Na5 O23 2.792789 1_565
Na5 O13 2.862030 1_565
Na6 O61 2.364340 1_555
Na6 O47 2.383695 1_565
Na6 O62 2.460652 1_555
Na6 O45 2.524414 1_455
Na6 O26 2.575839 1_554
Na6 O11 2.713920 1_555
Na6 O18 2.792789 1_565
Na6 O16 2.862030 1_565
Na7 O60 2.370703 1_555
Na7 O45 2.383066 1_555
Na7 O62 2.490991 1_555
Na7 O46 2.506687 1_565
Na7 O24 2.629502 1_554
Na7 O9 2.709684 1_555
Na7 O19 2.764690 1_555
Na7 O17 2.823422 1_555
Na8 O41 2.370706 1_545
Na8 O56 2.383057 1_555
Na8 O39 2.490984 1_655
Na8 O55 2.506678 1_555
Na8 O5 2.629520 1_555
Na8 O20 2.709660 1_556
Na8 O34 2.764690 1_545
Na8 O24 2.823422 1_545
Na9 O40 2.364348 1_545
Na9 O54 2.383692 1_555
Na9 O39 2.460659 1_555
Na9 O56 2.524420 1_555
Na9 O3 2.575863 1_555
Na9 O18 2.713902 1_556
Na9 O35 2.792789 1_555
Na9 O25 2.862030 1_555
Na10 O37 2.364348 1_545
Na10 O59 2.383678 1_555
Na10 O38 2.460667 1_655
Na10 O57 2.524404 1_555
Na10 O2 2.575865 1_555
Na10 O23 2.713895 1_555
Na10 O30 2.792789 1_655
Na10 O28 2.862030 1_655
Na11 O36 2.370699 1_545
Na11 O57 2.383074 1_555
Na11 O38 2.490976 1_555
Na11 O58 2.506678 1_555
Na11 O0 2.629517 1_555
Na11 O21 2.709664 1_555
Na11 O31 2.764690 1_545
Na11 O29 2.823422 1_545
Na12 O37 2.510396 1_555
Na12 O44 2.528712 1_555
Na12 O36 2.529296 1_655
Na12 O42 2.552782 1_565
Na12 O38 2.622171 1_665
Na12 O43 2.630046 1_665
Na13 O40 2.510396 1_555
Na13 O45 2.528712 1_456
Na13 O41 2.529296 1_455
Na13 O47 2.552782 1_566
Na13 O39 2.622171 1_565
Na13 O46 2.630046 1_466
Na14 O49 2.510396 1_555
Na14 O56 2.528712 1_555
Na14 O48 2.529296 1_555
Na14 O54 2.552782 1_555
Na14 O50 2.622171 1_555
Na14 O55 2.630046 1_555
Na15 O52 2.510396 1_555
Na15 O57 2.528712 1_555
Na15 O53 2.529296 1_555
Na15 O59 2.552782 1_555
Na15 O51 2.622171 1_555
Na15 O58 2.630046 1_555
Na16 O61 2.510396 1_555
Na16 O68 2.528712 1_555
Na16 O60 2.529296 1_555
Na16 O66 2.552782 1_555
Na16 O62 2.622171 1_555
Na16 O67 2.630046 1_555
Na17 O64 2.510396 1_555
Na17 O69 2.528712 1_555
Na17 O65 2.529296 1_555
Na17 O71 2.552782 1_555
Na17 O63 2.622171 1_555
Na17 O70 2.630046 1_555
Ga0 O7 1.906829 1_655
Ga0 O6 1.931498 1_545
Ga0 O42 1.975430 1_555
Ga0 O44 2.096324 1_545
Ga0 O8 2.159549 1_645
Ga0 O43 2.208322 1_655
Ga1 O10 1.906829 1_555
Ga1 O11 1.931498 1_545
Ga1 O47 1.975430 1_555
Ga1 O45 2.096324 1_445
Ga1 O9 2.159549 1_445
Ga1 O46 2.208322 1_455
Ga2 O19 1.906829 1_556
Ga2 O18 1.931498 1_556
Ga2 O54 1.975430 1_555
Ga2 O56 2.096324 1_555
Ga2 O20 2.159549 1_556
Ga2 O55 2.208322 1_555
Ga3 O22 1.906829 1_555
Ga3 O23 1.931498 1_555
Ga3 O59 1.975430 1_555
Ga3 O57 2.096324 1_555
Ga3 O21 2.159549 1_555
Ga3 O58 2.208322 1_555
Ga4 O31 1.906829 1_555
Ga4 O30 1.931498 1_555
Ga4 O66 1.975430 1_555
Ga4 O68 2.096324 1_555
Ga4 O32 2.159549 1_555
Ga4 O67 2.208322 1_555
Ga5 O34 1.906829 1_555
Ga5 O35 1.931498 1_555
Ga5 O71 1.975430 1_555
Ga5 O69 2.096324 1_555
Ga5 O33 2.159549 1_555
Ga5 O70 2.208322 1_555
O0 P0 1.530447 1_555
O0 Zn0 2.051777 1_445
O1 S0 1.465452 1_555
O1 Zn0 1.992756 1_555
O2 P1 1.520802 1_655
O2 Zn0 1.996254 1_545
O3 P2 1.520802 1_555
O3 Zn1 1.996254 1_545
O4 S1 1.465452 1_655
O4 Zn1 1.992756 1_655
O5 P3 1.530447 1_555
O5 Zn1 2.051777 1_645
O6 P3 1.579432 1_565
O7 P2 1.568042 1_555
O8 S1 1.495737 1_555
O9 S0 1.495737 1_555
O10 P1 1.568042 1_555
O11 P0 1.579432 1_565
O12 P4 1.530447 1_555
O12 Zn2 2.051777 1_555
O13 S2 1.465452 1_555
O13 Zn2 1.992756 1_555
O14 P5 1.520802 1_555
O14 Zn2 1.996254 1_555
O15 P6 1.520802 1_555
O15 Zn3 1.996254 1_555
O16 S3 1.465452 1_555
O16 Zn3 1.992756 1_555
O17 P7 1.530447 1_555
O17 Zn3 2.051777 1_555
O18 P7 1.579432 1_555
O19 P6 1.568042 1_555
O20 S3 1.495737 1_555
O21 S2 1.495737 1_555
O22 P5 1.568042 1_555
O23 P4 1.579432 1_555
O24 P8 1.530447 1_555
O24 Zn4 2.051777 1_556
O25 S4 1.465452 1_555
O25 Zn4 1.992756 1_556
O26 P9 1.520802 1_555
O26 Zn4 1.996254 1_556
O27 P10 1.520802 1_555
O27 Zn5 1.996254 1_555
O28 S5 1.465452 1_555
O28 Zn5 1.992756 1_555
O29 P11 1.530447 1_555
O29 Zn5 2.051777 1_555
O30 P11 1.579432 1_555
O31 P10 1.568042 1_555
O32 S5 1.495737 1_555
O33 S4 1.495737 1_555
O34 P9 1.568042 1_555
O35 P8 1.579432 1_555
O36 P11 1.532398 1_555
O36 Zn0 2.095261 1_455
O37 P10 1.535048 1_555
O37 Zn0 2.091086 1_555
O38 S5 1.492771 1_555
O38 Zn0 2.203192 1_445
O39 S4 1.492774 1_555
O39 Zn1 2.203192 1_545
O40 P9 1.535039 1_555
O40 Zn1 2.091086 1_555
O41 P8 1.532403 1_555
O41 Zn1 2.095261 1_655
O42 P4 1.574397 1_555
O43 S2 1.496149 1_555
O44 P5 1.605401 1_555
O45 P6 1.605405 1_555
O46 S3 1.496140 1_555
O47 P7 1.574402 1_555
O48 P3 1.532398 1_555
O48 Zn2 2.095261 1_555
O49 P2 1.535048 1_555
O49 Zn2 2.091086 1_555
O50 S1 1.492771 1_655
O50 Zn2 2.203192 1_555
O51 S0 1.492774 1_555
O51 Zn3 2.203192 1_555
O52 P1 1.535039 1_655
O52 Zn3 2.091086 1_555
O53 P0 1.532403 1_555
O53 Zn3 2.095261 1_555
O54 P8 1.574409 1_555
O55 S4 1.496134 1_655
O56 P9 1.605399 1_545
O57 P10 1.605391 1_545
O58 S5 1.496152 1_555
O59 P11 1.574400 1_655
O60 P7 1.532409 1_555
O60 Zn4 2.095261 1_555
O61 P6 1.535034 1_455
O61 Zn4 2.091086 1_555
O62 S3 1.492767 1_565
O62 Zn4 2.203192 1_555
O63 S2 1.492760 1_565
O63 Zn5 2.203192 1_555
O64 P5 1.535051 1_555
O64 Zn5 2.091086 1_555
O65 P4 1.532400 1_455
O65 Zn5 2.095261 1_555
O66 P0 1.574397 1_565
O67 S0 1.496149 1_555
O68 P1 1.605401 1_555
O69 P2 1.605405 1_555
O70 S1 1.496140 1_555
O71 P3 1.574402 1_565
