# generated using pymatgen
data_Na8Ca2Y2Si3(SO8)3
_symmetry_space_group_name_H-M   'P 1'
_cell_length_a   9.53759611
_cell_length_b   9.54065044
_cell_length_c   23.26741518
_cell_angle_alpha   90.17562884
_cell_angle_beta   90.07668180
_cell_angle_gamma   119.86740437
_symmetry_Int_Tables_number   1
_chemical_formula_structural   Na8Ca2Y2Si3(SO8)3
_chemical_formula_sum   'Na24 Ca6 Y6 Si9 S9 O72'
_cell_volume   1835.98865445
_cell_formula_units_Z   3
loop_
 _symmetry_equiv_pos_site_id
 _symmetry_equiv_pos_as_xyz
  1  'x, y, z'
loop_
 _atom_site_type_symbol
 _atom_site_label
 _atom_site_symmetry_multiplicity
 _atom_site_fract_x
 _atom_site_fract_y
 _atom_site_fract_z
 _atom_site_occupancy
  Na  Na0  1  0.64302616  0.02558125  0.26362332  1
  Na  Na1  1  0.33963974  0.33158513  0.25562712  1
  Na  Na2  1  0.00204439  0.62297028  0.24016433  1
  Na  Na3  1  0.62013824  0.62318931  0.72945802  1
  Na  Na4  1  0.98839421  0.33784088  0.73268842  1
  Na  Na5  1  0.38714982  0.03003107  0.75125289  1
  Na  Na6  1  0.30586958  0.35578324  0.59518820  1
  Na  Na7  1  0.00756431  0.66643208  0.58659388  1
  Na  Na8  1  0.67023110  0.95675122  0.57855623  1
  Na  Na9  1  0.28229662  0.94166574  0.08020522  1
  Na  Na10  1  0.68419543  0.69377013  0.08053822  1
  Na  Na11  1  0.02944007  0.35704123  0.09895379  1
  Na  Na12  1  0.99576769  0.69498976  0.91912155  1
  Na  Na13  1  0.67730565  0.02571070  0.89577163  1
  Na  Na14  1  0.32523516  0.27391350  0.89962093  1
  Na  Na15  1  0.94951477  0.27453337  0.41669078  1
  Na  Na16  1  0.34499756  0.03051863  0.40467434  1
  Na  Na17  1  0.69547226  0.69210321  0.43498121  1
  Na  Na18  1  0.96522956  0.99842758  0.50660569  1
  Na  Na19  1  0.01830694  0.98210620  0.99639092  1
  Na  Na20  1  0.64245154  0.31120013  0.81908517  1
  Na  Na21  1  0.66651647  0.30202020  0.32895846  1
  Na  Na22  1  0.29736621  0.66438537  0.17271041  1
  Na  Na23  1  0.34394426  0.64938611  0.66047411  1
  Ca  Ca0  1  -0.00047446  0.00385884  0.34755598  1
  Ca  Ca1  1  0.00398739  0.00708935  0.84339591  1
  Ca  Ca2  1  0.66884015  0.33325552  0.68005834  1
  Ca  Ca3  1  0.67226625  0.33183235  0.18420011  1
  Ca  Ca4  1  0.32462347  0.67316409  0.01447009  1
  Ca  Ca5  1  0.34152426  0.66864697  0.51726717  1
  Y  Y0  1  0.99274721  0.00784908  0.65170189  1
  Y  Y1  1  0.00943614  0.00142911  0.15541726  1
  Y  Y2  1  0.66851838  0.33405538  0.98408697  1
  Y  Y3  1  0.67379630  0.33170568  0.48840014  1
  Y  Y4  1  0.33458861  0.67675637  0.31678910  1
  Y  Y5  1  0.34112003  0.67695273  0.81358056  1
  Si  Si0  1  0.30697520  -0.00062678  0.25197081  1
  Si  Si1  1  0.00389331  0.30678294  0.24948012  1
  Si  Si2  1  0.30649897  0.30677404  0.75262401  1
  Si  Si3  1  0.69379950  -0.00037964  0.75403559  1
  Si  Si4  1  0.97674325  0.33577334  0.58440162  1
  Si  Si5  1  0.67141914  0.63945123  0.58291882  1
  Si  Si6  1  0.96891576  0.64018480  0.08349693  1
  Si  Si7  1  0.33159553  0.97345432  0.92077899  1
  Si  Si8  1  0.63865910  0.97433771  0.41677432  1
  S  S0  1  0.69607881  0.69917572  0.24955396  1
  S  S1  1  -0.00035209  0.69884352  0.75241256  1
  S  S2  1  0.36113284  0.03154444  0.58312779  1
  S  S3  1  0.67019405  0.03075495  0.08268746  1
  S  S4  1  0.36632383  0.33390306  0.08368937  1
  S  S5  1  0.63219863  0.66379569  0.92032792  1
  S  S6  1  0.03172994  0.36431455  0.91927560  1
  S  S7  1  0.33654661  0.36638692  0.41534832  1
  S  S8  1  0.02913792  0.66362790  0.41694150  1
  O  O0  1  0.22013041  0.01500867  0.30938657  1
  O  O1  1  0.79611575  0.77621662  0.29996642  1
  O  O2  1  0.97922599  0.19358065  0.30432084  1
  O  O3  1  0.22812819  0.20370074  0.81105081  1
  O  O4  1  0.98403263  0.77431465  0.80538184  1
  O  O5  1  0.78612462  0.00980465  0.81400743  1
  O  O6  1  0.78925433  0.97469917  0.69965997  1
  O  O7  1  0.19240758  0.21061156  0.69647607  1
  O  O8  1  0.02262146  0.80085611  0.70147092  1
  O  O9  1  0.77396916  0.79905212  0.19670331  1
  O  O10  1  0.02155597  0.22027328  0.18910907  1
  O  O11  1  0.19502247  0.97689835  0.19377946  1
  O  O12  1  0.89112269  0.35488576  0.64157072  1
  O  O13  1  0.46024878  0.10774671  0.63451941  1
  O  O14  1  0.64811179  0.52968412  0.63891556  1
  O  O15  1  0.87726251  0.53492445  0.13958535  1
  O  O16  1  0.64543972  0.10535107  0.13367638  1
  O  O17  1  0.45836573  0.34870594  0.13558353  1
  O  O18  1  0.44953312  0.31482353  0.03229802  1
  O  O19  1  0.85900133  0.55068426  0.02493477  1
  O  O20  1  0.68579328  0.13053241  0.03108970  1
  O  O21  1  0.44179870  0.13246361  0.53108645  1
  O  O22  1  0.68477780  0.54861263  0.52319400  1
  O  O23  1  0.86325364  0.31225780  0.52661141  1
  O  O24  1  0.55695474  0.67709096  0.97373723  1
  O  O25  1  0.12560110  0.44016543  0.97166428  1
  O  O26  1  0.31592274  0.87783249  0.98048489  1
  O  O27  1  0.54686791  0.86755671  0.47248955  1
  O  O28  1  0.31963584  0.44870276  0.46581717  1
  O  O29  1  0.12489487  0.67947205  0.46826733  1
  O  O30  1  0.11106792  0.64555055  0.36476376  1
  O  O31  1  0.53217202  0.88543583  0.35758151  1
  O  O32  1  0.35152167  0.46164600  0.36225646  1
  O  O33  1  0.11231152  0.46603601  0.86858852  1
  O  O34  1  0.35518008  0.87663899  0.86607999  1
  O  O35  1  0.52959959  0.64631131  0.87019855  1
  O  O36  1  0.00931223  0.80772129  0.41213900  1
  O  O37  1  0.81999485  0.99133159  0.41649103  1
  O  O38  1  0.19402803  0.20160174  0.41226322  1
  O  O39  1  0.00751918  0.19956372  0.91476046  1
  O  O40  1  0.16644647  0.98806474  0.91687242  1
  O  O41  1  0.79690911  0.80652093  0.91570314  1
  O  O42  1  0.99503988  0.17154479  0.58434852  1
  O  O43  1  0.19949438  0.01811431  0.58723123  1
  O  O44  1  0.84499077  0.81524503  0.58459247  1
  O  O45  1  0.98402717  0.82403062  0.08374890  1
  O  O46  1  0.82293573  0.02222164  0.08602538  1
  O  O47  1  0.20075086  0.18604452  0.08487820  1
  O  O48  1  0.67721464  0.16174069  0.74942056  1
  O  O49  1  0.49020567  0.33491567  0.74843030  1
  O  O50  1  0.85530359  0.53663496  0.74716737  1
  O  O51  1  0.67336828  0.53468489  0.24324661  1
  O  O52  1  0.84820626  0.33621908  0.24811216  1
  O  O53  1  0.48535640  0.16248275  0.24796895  1
  O  O54  1  0.64694096  0.51295376  0.92146869  1
  O  O55  1  0.86623495  0.35095254  0.92279888  1
  O  O56  1  0.49835185  0.15871369  0.92072846  1
  O  O57  1  0.65095881  0.15680628  0.41635455  1
  O  O58  1  0.48707417  0.35290576  0.41843933  1
  O  O59  1  0.86485614  0.51446060  0.41862905  1
  O  O60  1  0.35014374  0.48002148  0.07775196  1
  O  O61  1  0.14967722  0.65510686  0.08343857  1
  O  O62  1  0.53274988  0.86331615  0.07708947  1
  O  O63  1  0.33989063  0.86764409  0.57714797  1
  O  O64  1  0.51634095  0.66998170  0.58186966  1
  O  O65  1  0.15515976  0.49882621  0.58051892  1
  O  O66  1  0.32371793  0.83379865  0.25105852  1
  O  O67  1  0.53333095  0.68509921  0.25374267  1
  O  O68  1  0.17550135  0.48446004  0.25217003  1
  O  O69  1  0.31210791  0.48442955  0.75439989  1
  O  O70  1  0.14718252  0.68020585  0.75591498  1
  O  O71  1  0.50908735  0.83687615  0.75206721  1
loop_
_geom_bond_atom_site_label_1
_geom_bond_atom_site_label_2
_geom_bond_distance
_geom_bond_site_symmetry_2
Na0 O53 2.461249 1_555
Na0 O31 2.510189 1_545
Na0 O52 2.641069 1_555
Na0 O66 2.674399 1_545
Na0 O67 2.882620 1_545
Na0 O2 2.934496 1_555
Na1 O53 2.607347 1_555
Na1 O68 2.618977 1_555
Na1 O32 2.747401 1_555
Na1 O51 2.798558 1_555
Na1 O0 2.929917 1_555
Na1 O67 2.930111 1_555
Na1 O17 2.989547 1_555
Na2 O52 2.382733 1_455
Na2 O15 2.565812 1_455
Na2 O68 2.596095 1_555
Na2 O66 2.714992 1_555
Na2 O51 2.812934 1_455
Na3 O14 2.352064 1_555
Na3 O49 2.430865 1_555
Na3 O69 2.618399 1_555
Na3 O71 2.774972 1_555
Na3 O50 2.779696 1_555
Na3 O6 2.993135 1_555
Na4 O12 2.351375 1_555
Na4 O48 2.612181 1_555
Na4 O69 2.726600 1_655
Na4 O50 2.777957 1_555
Na4 O70 2.883563 1_655
Na4 O7 2.884446 1_655
Na5 O48 2.402640 1_555
Na5 O49 2.566176 1_555
Na5 O71 2.623671 1_545
Na5 O13 2.813451 1_555
Na6 O65 2.449582 1_555
Na6 O42 2.597532 1_455
Na6 O64 2.669387 1_555
Na6 O7 2.679080 1_555
Na6 O43 2.860534 1_555
Na7 O44 2.571962 1_455
Na7 O65 2.607638 1_555
Na7 O63 2.779220 1_555
Na7 O12 2.905834 1_455
Na7 O43 2.913979 1_565
Na7 O8 2.933305 1_555
Na7 O29 2.952844 1_555
Na8 O64 2.376497 1_555
Na8 O44 2.619608 1_555
Na8 O27 2.679768 1_555
Na8 O42 2.736577 1_565
Na8 O63 2.825284 1_555
Na8 O6 3.008770 1_555
Na9 O61 2.374314 1_555
Na9 O26 2.458679 1_554
Na9 O45 2.486040 1_455
Na9 O47 2.803125 1_565
Na9 O62 2.837000 1_555
Na9 O11 2.840458 1_555
Na10 O45 2.487366 1_555
Na10 O62 2.652727 1_555
Na10 O46 2.730226 1_565
Na10 O24 2.733199 1_554
Na10 O60 2.800223 1_555
Na10 O9 2.857987 1_555
Na10 O19 2.928963 1_555
Na11 O10 2.455207 1_555
Na11 O61 2.508311 1_555
Na11 O60 2.721956 1_555
Na11 O46 2.810698 1_455
Na11 O47 2.844543 1_555
Na11 O15 2.885783 1_455
Na12 O40 2.436939 1_655
Na12 O41 2.597306 1_555
Na12 O4 2.772134 1_555
Na12 O19 2.810542 1_556
Na12 O55 2.875852 1_555
Na12 O54 2.886890 1_555
Na13 O5 2.209044 1_555
Na13 O56 2.648730 1_555
Na13 O34 2.752336 1_545
Na13 O39 2.766629 1_655
Na13 O55 2.772570 1_555
Na13 O41 2.875756 1_545
Na14 O3 2.218537 1_555
Na14 O40 2.405604 1_545
Na14 O56 2.446208 1_555
Na14 O39 2.770049 1_555
Na14 O54 2.809489 1_555
Na15 O37 2.345636 1_545
Na15 O57 2.486832 1_555
Na15 O38 2.747672 1_655
Na15 O23 2.764504 1_555
Na15 O2 2.778545 1_555
Na15 O59 2.781030 1_555
Na16 O0 2.484180 1_555
Na16 O57 2.556381 1_555
Na16 O38 2.666159 1_555
Na16 O58 2.690882 1_555
Na16 O36 2.832751 1_545
Na16 O31 2.959826 1_545
Na17 O22 2.444575 1_555
Na17 O37 2.525397 1_555
Na17 O36 2.679226 1_655
Na17 O27 2.816008 1_555
Na17 O58 2.855763 1_555
Na17 O59 2.889950 1_555
Na18 O42 2.365039 1_565
Na18 O44 2.385568 1_555
Na18 O37 2.493509 1_555
Na18 O43 2.848737 1_665
Na18 O36 3.009695 1_655
Na18 O38 3.027172 1_665
Na19 O40 2.313082 1_555
Na19 O45 2.458109 1_456
Na19 O41 2.690114 1_455
Na19 O47 2.765201 1_566
Na19 O39 2.856327 1_565
Na19 O46 2.946865 1_466
Na20 O49 2.277143 1_555
Na20 O48 2.286647 1_555
Na20 O50 2.688797 1_555
Na20 O56 2.763486 1_555
Na21 O57 2.426896 1_555
Na21 O53 2.448190 1_555
Na21 O52 2.469246 1_555
Na21 O59 2.860827 1_555
Na21 O58 2.886227 1_555
Na21 O51 2.965109 1_555
Na22 O66 2.361127 1_555
Na22 O68 2.398710 1_555
Na22 O61 2.484609 1_555
Na23 O64 2.403245 1_555
Na23 O65 2.482919 1_555
Na23 O69 2.625252 1_555
Na23 O71 2.717314 1_555
Na23 O63 2.863770 1_555
Na23 O70 3.016007 1_555
Ca0 O2 2.164600 1_455
Ca0 O0 2.238233 1_555
Ca0 O37 2.307282 1_445
Ca0 O1 2.343014 1_445
Ca0 O38 2.399308 1_555
Ca0 O36 2.441163 1_545
Ca1 O3 2.161961 1_555
Ca1 O5 2.199040 1_455
Ca1 O4 2.305890 1_445
Ca1 O40 2.373075 1_545
Ca1 O39 2.459665 1_555
Ca1 O41 2.580188 1_445
Ca2 O14 2.201607 1_555
Ca2 O12 2.215752 1_555
Ca2 O13 2.329555 1_555
Ca2 O48 2.331243 1_555
Ca2 O49 2.338320 1_555
Ca2 O50 2.429606 1_555
Ca3 O15 2.213427 1_555
Ca3 O52 2.225297 1_555
Ca3 O53 2.267807 1_555
Ca3 O16 2.355705 1_555
Ca3 O51 2.365705 1_555
Ca3 O17 2.406144 1_555
Ca4 O26 2.148434 1_554
Ca4 O61 2.260857 1_555
Ca4 O25 2.305504 1_554
Ca4 O24 2.394351 1_554
Ca4 O62 2.396601 1_555
Ca4 O60 2.466816 1_555
Ca5 O27 2.199619 1_555
Ca5 O64 2.238658 1_555
Ca5 O65 2.259132 1_555
Ca5 O28 2.329720 1_555
Ca5 O63 2.357815 1_555
Ca5 O29 2.405474 1_555
O0 Si0 1.617959 1_555
O1 S0 1.455911 1_555
O2 Si1 1.614360 1_655
O3 Si2 1.628696 1_555
O4 S1 1.470189 1_655
O5 Si3 1.625608 1_555
O6 Si3 1.644047 1_565
O6 Y0 2.123346 1_565
O7 Si2 1.651378 1_555
O7 Y0 2.183376 1_455
O8 S1 1.481727 1_555
O8 Y0 2.428113 1_465
O9 S0 1.508844 1_555
O9 Y1 2.322225 1_665
O10 Si1 1.677714 1_555
O10 Y1 2.176379 1_555
O11 Si0 1.669017 1_565
O11 Y1 2.096237 1_565
O12 Si4 1.618397 1_555
O13 S2 1.469405 1_555
O14 Si5 1.618941 1_555
O15 Si6 1.616327 1_555
O16 S3 1.460369 1_555
O17 S4 1.456412 1_555
O18 S4 1.495946 1_555
O18 Y2 2.297836 1_554
O19 Si6 1.668005 1_555
O19 Y2 2.172335 1_554
O20 S3 1.495347 1_555
O20 Y2 2.307534 1_554
O21 S2 1.502335 1_555
O21 Y3 2.307404 1_555
O22 Si5 1.673770 1_555
O22 Y3 2.173141 1_555
O23 Si4 1.668045 1_555
O23 Y3 2.102536 1_555
O24 S5 1.472238 1_555
O25 S6 1.468833 1_555
O26 Si7 1.630034 1_555
O27 Si8 1.614824 1_555
O28 S7 1.463806 1_555
O29 S8 1.463415 1_555
O30 S8 1.499912 1_555
O30 Y4 2.292527 1_555
O31 Si8 1.666998 1_555
O31 Y4 2.159336 1_555
O32 S7 1.500147 1_555
O32 Y4 2.387494 1_555
O33 S6 1.479855 1_555
O33 Y5 2.469671 1_555
O34 Si7 1.650473 1_555
O34 Y5 2.206920 1_555
O35 S5 1.476144 1_555
O35 Y5 2.360474 1_555
O36 S8 1.482551 1_555
O37 Si8 1.654774 1_555
O38 S7 1.481586 1_555
O39 S6 1.473917 1_555
O40 Si7 1.651389 1_555
O41 S5 1.484734 1_555
O42 Si4 1.660656 1_555
O42 Y0 2.208300 1_555
O43 S2 1.485235 1_555
O43 Y0 2.442240 1_455
O44 Si5 1.670049 1_555
O44 Y0 2.279937 1_565
O45 Si6 1.686862 1_555
O45 Y1 2.297185 1_665
O46 S3 1.500918 1_555
O46 Y1 2.481112 1_655
O47 S4 1.505367 1_555
O47 Y1 2.439321 1_555
O48 Si3 1.635111 1_555
O49 Si2 1.638174 1_555
O50 S1 1.477015 1_655
O51 S0 1.480288 1_555
O52 Si1 1.643175 1_655
O53 Si0 1.639887 1_555
O54 S5 1.514376 1_555
O54 Y2 2.332934 1_555
O55 S6 1.521313 1_655
O55 Y2 2.306806 1_555
O56 Si7 1.689307 1_545
O56 Y2 2.209101 1_555
O57 Si8 1.685582 1_545
O57 Y3 2.293852 1_555
O58 S7 1.505510 1_555
O58 Y3 2.493034 1_555
O59 S8 1.503833 1_655
O59 Y3 2.420100 1_555
O60 S4 1.483815 1_555
O61 Si6 1.657739 1_455
O62 S3 1.483197 1_565
O63 S2 1.479414 1_565
O64 Si5 1.643819 1_555
O65 Si4 1.639677 1_455
O66 Si0 1.665056 1_565
O66 Y4 2.182420 1_555
O67 S0 1.493249 1_555
O67 Y4 2.368356 1_555
O68 Si1 1.670941 1_555
O68 Y4 2.265638 1_555
O69 Si2 1.669334 1_555
O69 Y5 2.196298 1_555
O70 S1 1.505739 1_555
O70 Y5 2.296382 1_555
O71 Si3 1.670775 1_565
O71 Y5 2.127894 1_555
