# generated using pymatgen
data_Na5Zn3SnP3(SO8)3
_symmetry_space_group_name_H-M   'P 1'
_cell_length_a   8.93290862
_cell_length_b   8.92655472
_cell_length_c   22.32169427
_cell_angle_alpha   90.43263005
_cell_angle_beta   89.41462962
_cell_angle_gamma   119.97263707
_symmetry_Int_Tables_number   1
_chemical_formula_structural   Na5Zn3SnP3(SO8)3
_chemical_formula_sum   'Na15 Zn9 Sn3 P9 S9 O72'
_cell_volume   1541.80635650
_cell_formula_units_Z   3
loop_
 _symmetry_equiv_pos_site_id
 _symmetry_equiv_pos_as_xyz
  1  'x, y, z'
loop_
 _atom_site_type_symbol
 _atom_site_label
 _atom_site_symmetry_multiplicity
 _atom_site_fract_x
 _atom_site_fract_y
 _atom_site_fract_z
 _atom_site_occupancy
  Na  Na0  1  0.00197663  0.63446027  0.25491139  1
  Na  Na1  1  0.29824886  0.33951722  0.58830718  1
  Na  Na2  1  0.03009548  0.69540192  0.58249166  1
  Na  Na3  1  0.67168053  0.96248200  0.58088508  1
  Na  Na4  1  0.66939840  0.70180702  0.08228335  1
  Na  Na5  1  0.03596101  0.33870746  0.08556115  1
  Na  Na6  1  0.97525880  0.67808074  0.91202730  1
  Na  Na7  1  0.32523064  0.29571573  0.90784483  1
  Na  Na8  1  0.70195375  0.67791256  0.41614803  1
  Na  Na9  1  0.99847901  0.00404384  0.49549746  1
  Na  Na10  1  0.99965730  0.99464840  0.99555617  1
  Na  Na11  1  0.65937975  0.32260953  0.82354067  1
  Na  Na12  1  0.65786296  0.30814071  0.33241426  1
  Na  Na13  1  0.33616241  0.67769031  0.17128203  1
  Na  Na14  1  0.33135781  0.65403629  0.66646070  1
  Zn  Zn0  1  0.00028255  0.00345366  0.35263128  1
  Zn  Zn1  1  0.00105697  0.00906517  0.84643051  1
  Zn  Zn2  1  0.99842893  0.01071274  0.65574264  1
  Zn  Zn3  1  0.00490474  0.99145989  0.15617533  1
  Zn  Zn4  1  0.66612776  0.34515166  0.68516053  1
  Zn  Zn5  1  0.66757956  0.33170811  0.18577279  1
  Zn  Zn6  1  0.32587455  0.67175584  0.01119732  1
  Zn  Zn7  1  0.33062407  0.66713456  0.50958358  1
  Zn  Zn8  1  0.33576546  0.67719294  0.32415442  1
  Sn  Sn0  1  0.66784443  0.33136645  0.98128090  1
  Sn  Sn1  1  0.67935743  0.33356979  0.48169072  1
  Sn  Sn2  1  0.33613758  0.66415325  0.81552390  1
  P  P0  1  0.30021168  0.29656999  0.75058344  1
  P  P1  1  0.96140930  0.33346748  0.58629166  1
  P  P2  1  0.66531433  0.62791792  0.58366855  1
  P  P3  1  0.96390200  0.63040522  0.08539563  1
  P  P4  1  0.62907268  0.67039354  0.92049463  1
  P  P5  1  0.03882100  0.36986474  0.91918539  1
  P  P6  1  0.33448456  0.96059238  0.91736362  1
  P  P7  1  0.62946909  0.96354024  0.41751528  1
  P  P8  1  0.03827618  0.66985245  0.41612378  1
  S  S0  1  0.29759135  0.00263710  0.24995608  1
  S  S1  1  0.69832903  0.70203329  0.24926262  1
  S  S2  1  0.00178956  0.29416039  0.24855130  1
  S  S3  1  0.00243052  0.70520290  0.75106034  1
  S  S4  1  0.70170576  0.99955877  0.75036287  1
  S  S5  1  0.37521748  0.04147215  0.58425238  1
  S  S6  1  0.66445645  0.03827286  0.08497569  1
  S  S7  1  0.37113384  0.33049240  0.08441663  1
  S  S8  1  0.33317053  0.36874164  0.41746874  1
  O  O0  1  0.21283475  0.02543111  0.30340311  1
  O  O1  1  0.81104167  0.78612176  0.30189588  1
  O  O2  1  0.98105273  0.18608113  0.30049772  1
  O  O3  1  0.21564695  0.19697882  0.80872967  1
  O  O4  1  0.98362943  0.78712054  0.80646980  1
  O  O5  1  0.80277537  0.01503981  0.80375333  1
  O  O6  1  0.77206939  0.96803808  0.69408060  1
  O  O7  1  0.19358347  0.21842293  0.69320248  1
  O  O8  1  0.02567115  0.80675073  0.69612700  1
  O  O9  1  0.77653231  0.80377149  0.19288069  1
  O  O10  1  0.02060537  0.21621130  0.19080553  1
  O  O11  1  0.19173681  0.97217454  0.19474695  1
  O  O12  1  0.87248784  0.36514304  0.63949630  1
  O  O13  1  0.48460665  0.12165711  0.63642828  1
  O  O14  1  0.62809049  0.50510082  0.63558855  1
  O  O15  1  0.87459372  0.51148682  0.13941471  1
  O  O16  1  0.63933304  0.12255384  0.13726649  1
  O  O17  1  0.48466255  0.35479220  0.13484610  1
  O  O18  1  0.44544417  0.30160772  0.02627885  1
  O  O19  1  0.84489934  0.54672628  0.02692975  1
  O  O20  1  0.69685732  0.14770319  0.02890486  1
  O  O21  1  0.45187580  0.15253720  0.52894687  1
  O  O22  1  0.69848662  0.54839426  0.52379370  1
  O  O23  1  0.84442139  0.28985381  0.52867309  1
  O  O24  1  0.54971563  0.69067914  0.97894042  1
  O  O25  1  0.14377007  0.44460399  0.97675241  1
  O  O26  1  0.30269258  0.85238293  0.97313354  1
  O  O27  1  0.55342166  0.85732680  0.47581412  1
  O  O28  1  0.31095032  0.44336174  0.47427352  1
  O  O29  1  0.13645193  0.68670693  0.47431575  1
  O  O30  1  0.11318116  0.63588271  0.35853689  1
  O  O31  1  0.52038800  0.88062190  0.36189558  1
  O  O32  1  0.36748724  0.48192757  0.36521053  1
  O  O33  1  0.12170341  0.49659704  0.86517878  1
  O  O34  1  0.36932144  0.88028632  0.86055414  1
  O  O35  1  0.50625918  0.62738016  0.86596283  1
  O  O36  1  0.00964840  0.82637141  0.41156415  1
  O  O37  1  0.81187360  0.98379406  0.41164024  1
  O  O38  1  0.18305316  0.19474101  0.41090756  1
  O  O39  1  0.01932077  0.19127620  0.91023132  1
  O  O40  1  0.17574271  0.98414435  0.91054606  1
  O  O41  1  0.81307582  0.82088711  0.91122148  1
  O  O42  1  0.98174378  0.17017419  0.58946226  1
  O  O43  1  0.19932916  0.02190629  0.58859207  1
  O  O44  1  0.83355673  0.80693999  0.58856712  1
  O  O45  1  0.97162987  0.80736418  0.08903310  1
  O  O46  1  0.82584313  0.02676033  0.08773749  1
  O  O47  1  0.19411555  0.17878713  0.08836573  1
  O  O48  1  0.68092265  0.15213199  0.74584973  1
  O  O49  1  0.48207675  0.31907792  0.74630914  1
  O  O50  1  0.85172661  0.52930494  0.74772714  1
  O  O51  1  0.68974425  0.52959473  0.24432441  1
  O  O52  1  0.84538924  0.31658930  0.24613788  1
  O  O53  1  0.47193092  0.15833618  0.24381620  1
  O  O54  1  0.64096224  0.49636119  0.92236519  1
  O  O55  1  0.85805957  0.36150051  0.92246247  1
  O  O56  1  0.49844380  0.14866543  0.92191205  1
  O  O57  1  0.64192019  0.14612828  0.42196278  1
  O  O58  1  0.49847603  0.35729838  0.42184505  1
  O  O59  1  0.84660283  0.50438160  0.41928931  1
  O  O60  1  0.35986741  0.49083314  0.07965933  1
  O  O61  1  0.13996878  0.63965140  0.07779719  1
  O  O62  1  0.51395678  0.86244438  0.07871317  1
  O  O63  1  0.35627197  0.86689102  0.57689404  1
  O  O64  1  0.50489678  0.65020305  0.57702854  1
  O  O65  1  0.14197155  0.49736143  0.57789969  1
  O  O66  1  0.31041998  0.84167773  0.25408455  1
  O  O67  1  0.52400602  0.68055832  0.25533632  1
  O  O68  1  0.15692664  0.47168831  0.25240855  1
  O  O69  1  0.31406893  0.48366698  0.75452438  1
  O  O70  1  0.16717908  0.69255535  0.75459807  1
  O  O71  1  0.52215860  0.83670891  0.75463960  1
loop_
_geom_bond_atom_site_label_1
_geom_bond_atom_site_label_2
_geom_bond_distance
_geom_bond_site_symmetry_2
Na0 O66 2.433238 1_555
Na0 O68 2.457008 1_555
Na0 O52 2.465312 1_455
Na0 O51 2.472414 1_455
Na0 O30 2.524140 1_555
Na0 O15 2.813443 1_455
Na0 O1 2.844468 1_455
Na0 O11 2.945109 1_555
Na1 O65 2.442343 1_555
Na1 O42 2.451156 1_455
Na1 O64 2.459315 1_555
Na1 O43 2.513168 1_555
Na1 O7 2.551204 1_555
Na1 O28 2.697403 1_555
Na1 O14 2.769230 1_555
Na1 O21 2.939888 1_555
Na2 O44 2.414900 1_455
Na2 O65 2.427937 1_555
Na2 O63 2.527346 1_555
Na2 O43 2.528707 1_565
Na2 O29 2.600628 1_555
Na2 O8 2.724454 1_555
Na2 O12 2.857501 1_455
Na2 O22 2.895324 1_455
Na3 O64 2.418058 1_555
Na3 O42 2.453596 1_565
Na3 O44 2.462304 1_555
Na3 O63 2.505242 1_555
Na3 O27 2.554289 1_555
Na3 O6 2.681586 1_555
Na3 O23 2.790755 1_565
Na3 O13 2.941470 1_565
Na4 O45 2.379886 1_555
Na4 O62 2.446225 1_555
Na4 O60 2.448288 1_555
Na4 O46 2.515893 1_565
Na4 O24 2.532779 1_554
Na4 O9 2.642518 1_555
Na4 O19 2.829119 1_555
Na4 O17 2.933088 1_555
Na5 O61 2.370623 1_555
Na5 O47 2.460897 1_555
Na5 O46 2.461160 1_455
Na5 O60 2.510445 1_555
Na5 O10 2.572105 1_555
Na5 O25 2.607174 1_554
Na5 O15 2.838954 1_455
Na5 O20 2.927043 1_455
Na6 O41 2.360185 1_555
Na6 O40 2.405005 1_655
Na6 O55 2.487015 1_555
Na6 O4 2.542262 1_555
Na6 O54 2.598788 1_555
Na6 O33 2.737400 1_655
Na6 O19 2.815899 1_556
Na6 O26 2.887713 1_655
Na7 O3 2.404705 1_555
Na7 O39 2.406597 1_555
Na7 O40 2.410851 1_545
Na7 O54 2.496038 1_555
Na7 O56 2.502263 1_555
Na7 O35 2.735239 1_555
Na7 O18 2.853819 1_556
Na7 O25 2.971627 1_555
Na8 O36 2.382924 1_655
Na8 O37 2.398543 1_555
Na8 O59 2.465246 1_555
Na8 O58 2.512757 1_555
Na8 O22 2.667566 1_555
Na8 O1 2.726277 1_555
Na8 O32 2.845496 1_555
Na8 O27 2.855546 1_555
Na9 O37 2.464280 1_545
Na9 O36 2.478893 1_645
Na9 O38 2.522309 1_655
Na9 O42 2.605571 1_555
Na9 O44 2.642862 1_545
Na9 O43 2.710725 1_655
Na10 O41 2.482847 1_555
Na10 O40 2.483433 1_655
Na10 O39 2.544542 1_665
Na10 O45 2.614411 1_556
Na10 O46 2.664085 1_566
Na10 O47 2.679601 1_666
Na11 O49 2.342341 1_555
Na11 O48 2.367742 1_555
Na11 O50 2.457750 1_555
Na11 O56 2.656298 1_555
Na11 O54 2.737643 1_555
Na11 O55 2.756625 1_555
Na12 O57 2.437080 1_555
Na12 O53 2.503189 1_555
Na12 O52 2.516092 1_555
Na12 O59 2.595422 1_555
Na12 O58 2.599554 1_555
Na12 O51 2.709255 1_555
Na13 O66 2.428723 1_555
Na13 O68 2.504706 1_555
Na13 O67 2.521357 1_555
Na13 O62 2.622820 1_555
Na13 O61 2.647780 1_555
Na13 O60 2.702280 1_555
Na14 O69 2.450526 1_555
Na14 O64 2.525505 1_555
Na14 O65 2.527534 1_555
Na14 O70 2.564055 1_555
Na14 O71 2.584821 1_555
Na14 O63 2.698635 1_555
O0 S0 1.473009 1_555
O0 Zn0 2.107014 1_555
O1 S1 1.487683 1_555
O1 Zn0 2.152450 1_665
O2 S2 1.464089 1_655
O2 Zn0 2.086608 1_655
O3 P0 1.540117 1_555
O3 Zn1 1.992999 1_555
O4 S3 1.482392 1_655
O4 Zn1 2.100718 1_665
O5 S4 1.466072 1_545
O5 Zn1 2.043828 1_655
O6 S4 1.485871 1_555
O6 Zn2 2.041094 1_565
O7 P0 1.543362 1_555
O7 Zn2 1.988170 1_455
O8 S3 1.480514 1_555
O8 Zn2 2.158394 1_465
O9 S1 1.504030 1_555
O9 Zn3 2.052203 1_655
O10 S2 1.507573 1_555
O10 Zn3 2.083246 1_545
O11 S0 1.499543 1_565
O11 Zn3 1.968505 1_555
O12 P1 1.523617 1_555
O12 Zn4 2.025980 1_555
O13 S5 1.461307 1_555
O13 Zn4 2.136286 1_555
O14 P2 1.517474 1_555
O14 Zn4 1.973510 1_555
O15 P3 1.539726 1_555
O15 Zn5 2.021544 1_555
O16 S6 1.459065 1_555
O16 Zn5 2.055757 1_555
O17 S7 1.463732 1_555
O17 Zn5 2.093445 1_555
O18 S7 1.529573 1_555
O18 Sn0 2.112414 1_554
O19 P3 1.615987 1_555
O19 Sn0 2.049591 1_554
O20 S6 1.527429 1_555
O20 Sn0 2.083659 1_554
O21 S5 1.516159 1_555
O21 Sn1 2.134077 1_555
O22 P2 1.601793 1_555
O22 Sn1 2.058749 1_555
O23 P1 1.584687 1_555
O23 Sn1 2.009717 1_555
O24 P4 1.530723 1_555
O24 Zn6 2.044533 1_556
O25 P5 1.536861 1_555
O25 Zn6 2.013740 1_556
O26 P6 1.516659 1_555
O26 Zn6 1.929365 1_556
O27 P7 1.552705 1_555
O27 Zn7 2.006027 1_555
O28 S8 1.484947 1_555
O28 Zn7 2.066518 1_555
O29 P8 1.538668 1_555
O29 Zn7 1.997901 1_555
O30 P8 1.539899 1_555
O30 Zn8 1.979628 1_555
O31 P7 1.526082 1_555
O31 Zn8 1.933938 1_555
O32 S8 1.475306 1_555
O32 Zn8 2.116913 1_555
O33 P5 1.564197 1_555
O33 Sn2 2.062481 1_555
O34 P6 1.555593 1_555
O34 Sn2 2.055689 1_555
O35 P4 1.559498 1_555
O35 Sn2 2.055181 1_555
O36 P8 1.545166 1_555
O36 Zn0 2.098096 1_565
O37 P7 1.551285 1_555
O37 Zn0 2.064331 1_665
O38 S8 1.466850 1_555
O38 Zn0 2.120792 1_555
O39 P5 1.526478 1_555
O39 Zn1 2.098804 1_555
O40 P6 1.543025 1_555
O40 Zn1 2.220366 1_565
O41 P4 1.529772 1_555
O41 Zn1 2.213988 1_665
O42 P1 1.558562 1_555
O42 Zn2 2.117920 1_555
O43 S5 1.493819 1_555
O43 Zn2 2.290312 1_455
O44 P2 1.557375 1_555
O44 Zn2 2.247978 1_565
O45 P3 1.547845 1_555
O45 Zn3 2.125782 1_655
O46 S6 1.497554 1_555
O46 Zn3 2.356343 1_645
O47 S7 1.483729 1_555
O47 Zn3 2.259648 1_545
O48 S4 1.467865 1_545
O48 Zn4 2.255616 1_555
O49 P0 1.536141 1_555
O49 Zn4 2.048641 1_555
O50 S3 1.473603 1_655
O50 Zn4 2.165866 1_555
O51 S1 1.505685 1_555
O51 Zn5 2.118648 1_555
O52 S2 1.508672 1_655
O52 Zn5 2.148809 1_555
O53 S0 1.487163 1_555
O53 Zn5 2.099934 1_555
O54 P4 1.610076 1_555
O54 Sn0 2.084582 1_555
O55 P5 1.579706 1_655
O55 Sn0 2.046067 1_555
O56 P6 1.586690 1_545
O56 Sn0 2.061150 1_555
O57 P7 1.579681 1_545
O57 Sn1 2.026150 1_555
O58 S8 1.534376 1_555
O58 Sn1 2.197845 1_555
O59 P8 1.609514 1_655
O59 Sn1 2.051961 1_555
O60 S7 1.488771 1_555
O60 Zn6 2.360635 1_555
O61 P3 1.540876 1_455
O61 Zn6 2.128495 1_555
O62 S6 1.477361 1_565
O62 Zn6 2.268699 1_555
O63 S5 1.489105 1_565
O63 Zn7 2.246754 1_555
O64 P2 1.550687 1_555
O64 Zn7 2.235902 1_555
O65 P1 1.554748 1_455
O65 Zn7 2.211934 1_555
O66 S0 1.500929 1_565
O66 Zn8 2.242215 1_555
O67 S1 1.475754 1_555
O67 Zn8 2.255133 1_555
O68 S2 1.498432 1_555
O68 Zn8 2.358357 1_555
O69 P0 1.613641 1_555
O69 Sn2 2.035576 1_555
O70 S3 1.534066 1_555
O70 Sn2 2.149706 1_555
O71 S4 1.537565 1_555
O71 Sn2 2.099735 1_555
