# generated using pymatgen
data_MgCo2Te2(MoO6)2
_symmetry_space_group_name_H-M   'P 1'
_cell_length_a   5.10551531
_cell_length_b   5.31780507
_cell_length_c   10.19392311
_cell_angle_alpha   92.05797691
_cell_angle_beta   91.60748973
_cell_angle_gamma   88.82779164
_symmetry_Int_Tables_number   1
_chemical_formula_structural   MgCo2Te2(MoO6)2
_chemical_formula_sum   'Mg1 Co2 Te2 Mo2 O12'
_cell_volume   276.42661669
_cell_formula_units_Z   1
loop_
 _symmetry_equiv_pos_site_id
 _symmetry_equiv_pos_as_xyz
  1  'x, y, z'
loop_
 _atom_site_type_symbol
 _atom_site_label
 _atom_site_symmetry_multiplicity
 _atom_site_fract_x
 _atom_site_fract_y
 _atom_site_fract_z
 _atom_site_occupancy
  Mg  Mg0  1  0.48616400  0.51677500  0.00536400  1
  Co  Co0  1  0.00098700  0.00427200  0.47946400  1
  Co  Co1  1  0.50807300  0.49691400  0.52461100  1
  Te  Te0  1  0.98129900  0.49889800  0.28560300  1
  Te  Te1  1  0.49814200  0.00062200  0.71829300  1
  Mo  Mo0  1  0.97894500  0.47262600  0.77533300  1
  Mo  Mo1  1  0.46937900  0.02250700  0.24058900  1
  O  O0  1  0.20876900  0.81641200  0.31257100  1
  O  O1  1  0.29612100  0.82337400  0.58523000  1
  O  O2  1  0.75431500  0.18916000  0.33397300  1
  O  O3  1  0.73482800  0.19223300  0.61440000  1
  O  O4  1  0.61696200  0.77449000  0.13119300  1
  O  O5  1  0.77748000  0.68224700  0.41381300  1
  O  O6  1  0.21115300  0.64931800  0.88515400  1
  O  O7  1  0.75452200  0.34623000  0.89291000  1
  O  O8  1  0.23158900  0.31363000  0.39776100  1
  O  O9  1  0.75232100  0.69456600  0.68017700  1
  O  O10  1  0.36345000  0.26584400  0.12608100  1
  O  O11  1  0.25049500  0.30238000  0.67605500  1
loop_
_geom_bond_atom_site_label_1
_geom_bond_atom_site_label_2
_geom_bond_distance
_geom_bond_site_symmetry_2
Mg0 O4 1.957699 1_555
Mg0 O10 1.970502 1_555
Mg0 O6 1.973540 1_554
Mg0 O7 1.994098 1_554
Co0 O1 2.069390 1_545
Co0 O5 2.153456 1_445
Co0 O3 2.165238 1_455
Co0 O2 2.168333 1_455
Co0 O0 2.225670 1_545
Co0 O8 2.240280 1_555
Co1 O5 2.088421 1_555
Co1 O1 2.109579 1_555
Co1 O8 2.116139 1_555
Co1 O3 2.184839 1_555
Co1 O9 2.235534 1_555
Co1 O11 2.338204 1_555
Mo0 O7 1.835109 1_555
Mo0 O6 1.853980 1_655
Mo0 O9 1.906826 1_555
Mo0 O11 1.930677 1_655
Mo0 O3 2.500735 1_555
Mo1 O10 1.836835 1_555
Mo1 O4 1.857880 1_545
Mo1 O0 1.918892 1_545
Mo1 O2 1.929340 1_555
Mo1 O8 2.508335 1_555
O0 Te0 2.074669 1_455
O1 Te1 1.913541 1_565
O2 Te0 2.113675 1_555
O3 Te1 1.954439 1_555
O5 Te0 1.919616 1_555
O8 Te0 1.964232 1_455
O9 Te1 2.092940 1_565
O11 Te1 2.072465 1_555
