# generated using pymatgen
data_Co2As
_symmetry_space_group_name_H-M   'P 1'
_cell_length_a   7.83120161
_cell_length_b   7.83120161
_cell_length_c   5.52099200
_cell_angle_alpha   90.00000000
_cell_angle_beta   90.00000000
_cell_angle_gamma   120.00001359
_symmetry_Int_Tables_number   1
_chemical_formula_structural   Co2As
_chemical_formula_sum   'Co16 As8'
_cell_volume   293.22736620
_cell_formula_units_Z   8
loop_
 _symmetry_equiv_pos_site_id
 _symmetry_equiv_pos_as_xyz
  1  'x, y, z'
loop_
 _atom_site_type_symbol
 _atom_site_label
 _atom_site_symmetry_multiplicity
 _atom_site_fract_x
 _atom_site_fract_y
 _atom_site_fract_z
 _atom_site_occupancy
  Co  Co0_0  1  0.33333350  0.16666650  0.00000000  1
  Co  Co0_1  1  0.33333350  0.16666650  0.50000000  1
  Co  Co0_2  1  0.33333350  0.66666650  0.00000000  1
  Co  Co0_3  1  0.33333350  0.66666650  0.50000000  1
  Co  Co0_4  1  0.83333350  0.16666650  0.00000000  1
  Co  Co0_5  1  0.83333350  0.16666650  0.50000000  1
  Co  Co0_6  1  0.83333350  0.66666650  0.00000000  1
  Co  Co0_7  1  0.83333350  0.66666650  0.50000000  1
  Co  Co1_0  1  0.16666650  0.33333350  0.25000000  1
  Co  Co1_1  1  0.16666650  0.33333350  0.75000000  1
  Co  Co1_2  1  0.16666650  0.83333350  0.25000000  1
  Co  Co1_3  1  0.16666650  0.83333350  0.75000000  1
  Co  Co1_4  1  0.66666650  0.33333350  0.25000000  1
  Co  Co1_5  1  0.66666650  0.33333350  0.75000000  1
  Co  Co1_6  1  0.66666650  0.83333350  0.25000000  1
  Co  Co1_7  1  0.66666650  0.83333350  0.75000000  1
  As  As0_0  1  0.00000000  0.00000000  0.25000000  1
  As  As0_1  1  0.00000000  0.00000000  0.75000000  1
  As  As0_2  1  0.00000000  0.50000000  0.25000000  1
  As  As0_3  1  0.00000000  0.50000000  0.75000000  1
  As  As0_4  1  0.50000000  1.00000000  0.25000000  1
  As  As0_5  1  0.50000000  1.00000000  0.75000000  1
  As  As0_6  1  0.50000000  0.50000000  0.25000000  1
  As  As0_7  1  0.50000000  0.50000000  0.75000000  1
loop_
_geom_bond_atom_site_label_1
_geom_bond_atom_site_label_2
_geom_bond_distance
_geom_bond_site_symmetry_2
Co0_0 Co1_2 2.648720 1_545
Co0_0 Co1_5 2.648720 1_554
Co0_0 Co1_3 2.648720 1_544
Co0_0 Co1_4 2.648720 1_555
Co0_0 Co1_1 2.648726 1_554
Co0_0 Co1_0 2.648726 1_555
Co0_0 Co0_1 2.760496 1_554
Co0_0 Co0_1 2.760496 1_555
Co0_1 Co1_5 2.648720 1_555
Co0_1 Co1_2 2.648720 1_545
Co0_1 Co1_3 2.648720 1_545
Co0_1 Co1_4 2.648720 1_555
Co0_1 Co1_1 2.648726 1_555
Co0_1 Co1_0 2.648726 1_555
Co0_2 Co1_1 2.648720 1_554
Co0_2 Co1_0 2.648720 1_555
Co0_2 Co1_6 2.648720 1_555
Co0_2 Co1_7 2.648720 1_554
Co0_2 Co1_2 2.648726 1_555
Co0_2 Co1_3 2.648726 1_554
Co0_2 Co0_3 2.760496 1_554
Co0_2 Co0_3 2.760496 1_555
Co0_3 Co1_1 2.648720 1_555
Co0_3 Co1_0 2.648720 1_555
Co0_3 Co1_7 2.648720 1_555
Co0_3 Co1_6 2.648720 1_555
Co0_3 Co1_2 2.648726 1_555
Co0_3 Co1_3 2.648726 1_555
Co0_4 Co1_0 2.648720 1_655
Co0_4 Co1_1 2.648720 1_654
Co0_4 Co1_7 2.648720 1_544
Co0_4 Co1_6 2.648720 1_545
Co0_4 Co1_4 2.648726 1_555
Co0_4 Co1_5 2.648726 1_554
Co0_4 Co0_5 2.760496 1_555
Co0_4 Co0_5 2.760496 1_554
Co0_5 Co1_0 2.648720 1_655
Co0_5 Co1_1 2.648720 1_655
Co0_5 Co1_6 2.648720 1_545
Co0_5 Co1_7 2.648720 1_545
Co0_5 Co1_5 2.648726 1_555
Co0_5 Co1_4 2.648726 1_555
Co0_6 Co1_5 2.648720 1_554
Co0_6 Co1_4 2.648720 1_555
Co0_6 Co1_2 2.648720 1_655
Co0_6 Co1_3 2.648720 1_654
Co0_6 Co1_6 2.648726 1_555
Co0_6 Co1_7 2.648726 1_554
Co0_6 Co0_7 2.760496 1_555
Co0_6 Co0_7 2.760496 1_554
Co0_7 Co1_5 2.648720 1_555
Co0_7 Co1_4 2.648720 1_555
Co0_7 Co1_3 2.648720 1_655
Co0_7 Co1_2 2.648720 1_655
Co0_7 Co1_6 2.648726 1_555
Co0_7 Co1_7 2.648726 1_555
As0_0 Co1_2 2.260671 1_545
As0_0 Co1_0 2.260674 1_555
As0_0 Co1_6 2.260674 1_445
As0_0 Co0_4 2.648720 1_455
As0_0 Co0_5 2.648720 1_455
As0_0 Co0_0 2.648723 1_555
As0_0 Co0_1 2.648723 1_555
As0_0 Co0_6 2.648723 1_445
As0_0 Co0_7 2.648723 1_445
As0_1 Co1_3 2.260671 1_545
As0_1 Co1_1 2.260674 1_555
As0_1 Co1_7 2.260674 1_445
As0_1 Co0_4 2.648720 1_456
As0_1 Co0_5 2.648720 1_455
As0_1 Co0_0 2.648723 1_556
As0_1 Co0_1 2.648723 1_555
As0_1 Co0_6 2.648723 1_446
As0_1 Co0_7 2.648723 1_445
As0_2 Co1_0 2.260671 1_555
As0_2 Co1_2 2.260674 1_555
As0_2 Co1_4 2.260674 1_455
As0_2 Co0_6 2.648720 1_455
As0_2 Co0_7 2.648720 1_455
As0_2 Co0_5 2.648723 1_455
As0_2 Co0_2 2.648723 1_555
As0_2 Co0_4 2.648723 1_455
As0_2 Co0_3 2.648723 1_555
As0_3 Co1_1 2.260671 1_555
As0_3 Co1_3 2.260674 1_555
As0_3 Co1_5 2.260674 1_455
As0_3 Co0_6 2.648720 1_456
As0_3 Co0_7 2.648720 1_455
As0_3 Co0_5 2.648723 1_455
As0_3 Co0_2 2.648723 1_556
As0_3 Co0_4 2.648723 1_456
As0_3 Co0_3 2.648723 1_555
As0_4 Co1_6 2.260671 1_555
As0_4 Co1_2 2.260674 1_555
As0_4 Co1_4 2.260674 1_565
As0_4 Co0_1 2.648720 1_565
As0_4 Co0_0 2.648720 1_565
As0_4 Co0_4 2.648723 1_565
As0_4 Co0_2 2.648723 1_555
As0_4 Co0_5 2.648723 1_565
As0_4 Co0_3 2.648723 1_555
As0_5 Co1_7 2.260671 1_555
As0_5 Co1_3 2.260674 1_555
As0_5 Co1_5 2.260674 1_565
As0_5 Co0_1 2.648720 1_565
As0_5 Co0_0 2.648720 1_566
As0_5 Co0_4 2.648723 1_566
As0_5 Co0_2 2.648723 1_556
As0_5 Co0_5 2.648723 1_565
As0_5 Co0_3 2.648723 1_555
As0_6 Co1_4 2.260671 1_555
As0_6 Co1_6 2.260674 1_555
As0_6 Co1_0 2.260674 1_555
As0_6 Co0_2 2.648720 1_555
As0_6 Co0_3 2.648720 1_555
As0_6 Co0_7 2.648723 1_555
As0_6 Co0_6 2.648723 1_555
As0_6 Co0_1 2.648723 1_555
As0_6 Co0_0 2.648723 1_555
As0_7 Co1_5 2.260671 1_555
As0_7 Co1_7 2.260674 1_555
As0_7 Co1_1 2.260674 1_555
As0_7 Co0_3 2.648720 1_555
As0_7 Co0_2 2.648720 1_556
As0_7 Co0_7 2.648723 1_555
As0_7 Co0_1 2.648723 1_555
As0_7 Co0_6 2.648723 1_556
As0_7 Co0_0 2.648723 1_556
