# generated using pymatgen
data_MgMn4(FeO4)2
_symmetry_space_group_name_H-M   'P 1'
_cell_length_a   6.12265367
_cell_length_b   6.16048348
_cell_length_c   6.38900479
_cell_angle_alpha   61.56622157
_cell_angle_beta   64.33336295
_cell_angle_gamma   58.99085741
_symmetry_Int_Tables_number   1
_chemical_formula_structural   MgMn4(FeO4)2
_chemical_formula_sum   'Mg1 Mn4 Fe2 O8'
_cell_volume   175.89674550
_cell_formula_units_Z   1
loop_
 _symmetry_equiv_pos_site_id
 _symmetry_equiv_pos_as_xyz
  1  'x, y, z'
loop_
 _atom_site_type_symbol
 _atom_site_label
 _atom_site_symmetry_multiplicity
 _atom_site_fract_x
 _atom_site_fract_y
 _atom_site_fract_z
 _atom_site_occupancy
  Mg  Mg0  1  0.12500000  0.12500000  0.62500000  1
  Mn  Mn0  1  0.98223600  0.94480300  0.09016600  1
  Mn  Mn1  1  0.26776400  0.30519700  0.15983400  1
  Mn  Mn2  1  0.12500000  0.62500000  0.62500000  1
  Mn  Mn3  1  0.62500000  0.12500000  0.62500000  1
  Fe  Fe0  1  0.62500000  0.62500000  0.12500000  1
  Fe  Fe1  1  0.62500000  0.62500000  0.62500000  1
  O  O0  1  0.33272800  0.39562700  0.40479100  1
  O  O1  1  0.39971900  0.41365900  0.79830500  1
  O  O2  1  0.37284900  0.89034800  0.39254000  1
  O  O3  1  0.39258000  0.85619100  0.86631800  1
  O  O4  1  0.85742000  0.39380900  0.38368200  1
  O  O5  1  0.87715100  0.35965200  0.85746000  1
  O  O6  1  0.85028100  0.83634100  0.45169500  1
  O  O7  1  0.91727200  0.85437300  0.84520900  1
loop_
_geom_bond_atom_site_label_1
_geom_bond_atom_site_label_2
_geom_bond_distance
_geom_bond_site_symmetry_2
Mg0 O2 2.104795 1_545
Mg0 O5 2.104795 1_455
Mg0 O3 2.182849 1_545
Mg0 O4 2.182849 1_455
Mg0 O7 2.185759 1_445
Mg0 O0 2.185759 1_555
Mn0 O6 1.975939 1_555
Mn0 O7 2.125019 1_554
Mn0 O5 2.161466 1_564
Mn0 O3 2.207536 1_654
Mn1 O1 1.975939 1_554
Mn1 O0 2.125019 1_555
Mn1 O2 2.161466 1_545
Mn1 O4 2.207536 1_455
Mn2 O1 1.932462 1_555
Mn2 O6 1.932462 1_455
Mn2 O0 2.021160 1_555
Mn2 O7 2.021160 1_455
Mn2 O5 2.339293 1_455
Mn2 O2 2.339293 1_555
Mn3 O6 2.077396 1_545
Mn3 O1 2.077396 1_555
Mn3 O7 2.198752 1_545
Mn3 O0 2.198752 1_555
Mn3 O3 2.289215 1_545
Mn3 O4 2.289215 1_555
Fe0 O4 2.119551 1_555
Fe0 O3 2.119551 1_554
Fe0 O5 2.398318 1_554
Fe0 O2 2.398318 1_555
Fe0 O0 2.413149 1_555
Fe0 O7 2.413149 1_554
Fe1 O6 1.994525 1_555
Fe1 O1 1.994525 1_555
Fe1 O2 2.082163 1_555
Fe1 O5 2.082163 1_555
Fe1 O4 2.129047 1_555
Fe1 O3 2.129047 1_555
