# generated using pymatgen
data_MgTl2(CoO3)2
_symmetry_space_group_name_H-M   'P 1'
_cell_length_a   5.32497224
_cell_length_b   6.60159330
_cell_length_c   5.32497227
_cell_angle_alpha   113.78523989
_cell_angle_beta   60.00001076
_cell_angle_gamma   113.78523501
_symmetry_Int_Tables_number   1
_chemical_formula_structural   MgTl2(CoO3)2
_chemical_formula_sum   'Mg1 Tl2 Co2 O6'
_cell_volume   143.45933626
_cell_formula_units_Z   1
loop_
 _symmetry_equiv_pos_site_id
 _symmetry_equiv_pos_as_xyz
  1  'x, y, z'
loop_
 _atom_site_type_symbol
 _atom_site_label
 _atom_site_symmetry_multiplicity
 _atom_site_fract_x
 _atom_site_fract_y
 _atom_site_fract_z
 _atom_site_occupancy
  Mg  Mg0  1  -0.00000000  -0.00000000  0.00000000  1
  Tl  Tl0  1  0.17973888  0.53921664  0.17973888  1
  Tl  Tl1  1  0.82026112  0.46078336  0.82026112  1
  Co  Co0  1  0.35019921  0.05059864  0.35019921  1
  Co  Co1  1  0.64980079  0.94940136  0.64980079  1
  O  O0  1  0.05877481  0.18536843  0.40404537  1
  O  O1  1  0.40404537  0.18536843  0.72254825  1
  O  O2  1  0.72254825  0.18536843  0.05877481  1
  O  O3  1  0.27745175  0.81463157  0.94122519  1
  O  O4  1  0.59595463  0.81463157  0.27745175  1
  O  O5  1  0.94122519  0.81463157  0.59595463  1
loop_
_geom_bond_atom_site_label_1
_geom_bond_atom_site_label_2
_geom_bond_distance
_geom_bond_site_symmetry_2
Mg0 O2 2.113114 1_455
Mg0 O3 2.113114 1_544
Mg0 O5 2.113114 1_444
Mg0 O0 2.113114 1_555
Mg0 O1 2.113114 1_554
Mg0 O4 2.113114 1_445
Co0 O0 1.935168 1_555
Co0 O2 1.935171 1_555
Co0 O1 1.935173 1_555
Co0 O3 2.222575 1_544
Co0 O5 2.222577 1_445
Co0 O4 2.222579 1_545
Co1 O5 1.935168 1_555
Co1 O3 1.935171 1_555
Co1 O4 1.935173 1_555
Co1 O2 2.222575 1_566
Co1 O0 2.222577 1_665
Co1 O1 2.222579 1_565
O0 Tl1 2.372412 1_455
O0 Tl0 2.750599 1_555
O1 Tl1 2.372412 1_555
O1 Tl0 2.750599 1_556
O2 Tl1 2.372412 1_554
O2 Tl0 2.750599 1_655
O3 Tl0 2.372412 1_556
O3 Tl1 2.750599 1_455
O4 Tl0 2.372412 1_555
O4 Tl1 2.750599 1_554
O5 Tl0 2.372412 1_655
O5 Tl1 2.750599 1_555
