# generated using pymatgen
data_Na6Al8Si3(S3O16)3
_symmetry_space_group_name_H-M   'P 1'
_cell_length_a   16.93060176
_cell_length_b   8.42019438
_cell_length_c   21.73423598
_cell_angle_alpha   90.08826583
_cell_angle_beta   89.76921692
_cell_angle_gamma   119.79646683
_symmetry_Int_Tables_number   1
_chemical_formula_structural   Na6Al8Si3(S3O16)3
_chemical_formula_sum   'Na18 Al24 Si9 S27 O144'
_cell_volume   2688.76594286
_cell_formula_units_Z   3
loop_
 _symmetry_equiv_pos_site_id
 _symmetry_equiv_pos_as_xyz
  1  'x, y, z'
loop_
 _atom_site_type_symbol
 _atom_site_label
 _atom_site_symmetry_multiplicity
 _atom_site_fract_x
 _atom_site_fract_y
 _atom_site_fract_z
 _atom_site_occupancy
  Na  Na0  1  0.00483631  0.64600760  0.25382780  1
  Na  Na1  1  0.50312992  0.36368701  0.74532180  1
  Na  Na2  1  0.16222914  0.30367345  0.91174825  1
  Na  Na3  1  0.66214009  0.30313865  0.91224000  1
  Na  Na4  1  0.16282095  0.02288124  0.41628433  1
  Na  Na5  1  0.66149543  0.01822133  0.41572940  1
  Na  Na6  1  0.99593437  0.99083220  0.50022828  1
  Na  Na7  1  0.49494575  0.99964328  0.50202839  1
  Na  Na8  1  0.99664539  0.00228658  0.99790011  1
  Na  Na9  1  0.49562019  0.00054352  0.99871826  1
  Na  Na10  1  0.33223955  0.33261923  0.83061012  1
  Na  Na11  1  0.83898214  0.33501752  0.83048696  1
  Na  Na12  1  0.33978584  0.34398835  0.33361969  1
  Na  Na13  1  0.83086382  0.32985072  0.33451319  1
  Na  Na14  1  0.17237359  0.67706042  0.16836351  1
  Na  Na15  1  0.66405642  0.67392555  0.16999533  1
  Na  Na16  1  0.16707375  0.65696336  0.66860238  1
  Na  Na17  1  0.66536484  0.65763116  0.66436757  1
  Al  Al0  1  0.00393608  0.99500954  0.35395060  1
  Al  Al1  1  0.50403406  0.99338168  0.35229429  1
  Al  Al2  1  0.00413736  0.01837412  0.84903346  1
  Al  Al3  1  0.50338591  0.01501844  0.85030244  1
  Al  Al4  1  0.00394880  0.00890151  0.64988639  1
  Al  Al5  1  0.50326858  0.02007920  0.64662989  1
  Al  Al6  1  0.00356411  0.99601026  0.15015009  1
  Al  Al7  1  0.50226533  0.99467019  0.15200330  1
  Al  Al8  1  0.33040156  0.33598745  0.68350347  1
  Al  Al9  1  0.83098242  0.33479369  0.68755758  1
  Al  Al10  1  0.33216141  0.32841155  0.18927015  1
  Al  Al11  1  0.82516800  0.31908682  0.18750533  1
  Al  Al12  1  0.33933262  0.33357057  0.97953556  1
  Al  Al13  1  0.83896880  0.33354250  0.97960831  1
  Al  Al14  1  0.34714356  0.34793740  0.48261836  1
  Al  Al15  1  0.83882658  0.34471094  0.48095979  1
  Al  Al16  1  0.16404585  0.65631312  0.01580629  1
  Al  Al17  1  0.66268658  0.65512537  0.01660065  1
  Al  Al18  1  0.16479794  0.67196107  0.51799883  1
  Al  Al19  1  0.65202977  0.65616607  0.52144119  1
  Al  Al20  1  0.16468010  0.67461780  0.31519838  1
  Al  Al21  1  0.65755607  0.67008205  0.31351510  1
  Al  Al22  1  0.15680731  0.64467962  0.81013358  1
  Al  Al23  1  0.66206974  0.65475175  0.81192970  1
  Si  Si0  1  0.14875873  0.00715470  0.24991907  1
  Si  Si1  1  0.64586045  -0.00006714  0.24978785  1
  Si  Si2  1  0.14822697  0.29109296  0.74855546  1
  Si  Si3  1  0.64972766  0.29065671  0.75059043  1
  Si  Si4  1  0.47698907  0.32998945  0.58561948  1
  Si  Si5  1  0.01862165  0.37659595  0.91710477  1
  Si  Si6  1  0.51850679  0.37616215  0.91634279  1
  Si  Si7  1  0.01868323  0.65898687  0.41698590  1
  Si  Si8  1  0.51765046  0.66168554  0.41674585  1
  S  S0  1  0.35535997  0.71203745  0.24947424  1
  S  S1  1  0.85419932  0.71327465  0.24889805  1
  S  S2  1  0.00040674  0.28303095  0.24924126  1
  S  S3  1  0.50041732  0.28533465  0.24948441  1
  S  S4  1  0.00025700  0.71563466  0.74971450  1
  S  S5  1  0.50061046  0.72188109  0.75033075  1
  S  S6  1  0.35227429  0.99154545  0.75081805  1
  S  S7  1  0.85537557  0.99840007  0.74924982  1
  S  S8  1  0.97651327  0.33142537  0.58404759  1
  S  S9  1  0.18787085  0.04238165  0.58219010  1
  S  S10  1  0.69249088  0.04749360  0.58286063  1
  S  S11  1  0.33127850  0.62309376  0.58286969  1
  S  S12  1  0.83525057  0.62630558  0.58395716  1
  S  S13  1  0.47649943  0.62173272  0.08393270  1
  S  S14  1  0.97687584  0.62217532  0.08419123  1
  S  S15  1  0.33323547  0.04203778  0.08359273  1
  S  S16  1  0.83329592  0.04122515  0.08338458  1
  S  S17  1  0.19013480  0.33539358  0.08314185  1
  S  S18  1  0.68966419  0.33553159  0.08245165  1
  S  S19  1  0.31261374  0.67182893  0.91736867  1
  S  S20  1  0.81256500  0.67216265  0.91758420  1
  S  S21  1  0.16633110  0.94879513  0.91719474  1
  S  S22  1  0.66636694  0.94879239  0.91749787  1
  S  S23  1  0.31273771  0.95382375  0.41668818  1
  S  S24  1  0.81242092  0.95136386  0.41752258  1
  S  S25  1  0.16600507  0.38375475  0.41680797  1
  S  S26  1  0.66642479  0.38469125  0.41648879  1
  O  O0  1  0.10196210  0.03783250  0.31079582  1
  O  O1  1  0.60316829  0.04007714  0.31082691  1
  O  O2  1  0.41128639  0.79529881  0.30443622  1
  O  O3  1  0.91254766  0.79358940  0.30347774  1
  O  O4  1  0.48100877  0.16966514  0.30449854  1
  O  O5  1  0.98113406  0.16936575  0.30448876  1
  O  O6  1  0.10667709  0.16930560  0.81154618  1
  O  O7  1  0.60650130  0.17196963  0.81339239  1
  O  O8  1  0.48503448  0.80273870  0.80664037  1
  O  O9  1  0.98127158  0.79373444  0.80547656  1
  O  O10  1  0.41149501  0.02718020  0.80592415  1
  O  O11  1  0.91108899  0.02774751  0.80519892  1
  O  O12  1  0.39131869  0.95499207  0.69550208  1
  O  O13  1  0.89365419  0.95842064  0.69385062  1
  O  O14  1  0.08134870  0.19766812  0.69051514  1
  O  O15  1  0.57920101  0.19807637  0.69448772  1
  O  O16  1  0.01230357  0.82433437  0.69365468  1
  O  O17  1  0.51182815  0.82799363  0.69416259  1
  O  O18  1  0.39307173  0.82719115  0.19322232  1
  O  O19  1  0.89331114  0.82788263  0.19295918  1
  O  O20  1  0.01180317  0.19789635  0.19269965  1
  O  O21  1  0.51215334  0.20008473  0.19266885  1
  O  O22  1  0.07889299  0.95376836  0.19178086  1
  O  O23  1  0.58275291  0.96349091  0.18954918  1
  O  O24  1  0.43136244  0.36486774  0.64749349  1
  O  O25  1  0.93522193  0.36371333  0.63920173  1
  O  O26  1  0.24390556  0.12711507  0.63667228  1
  O  O27  1  0.75004388  0.13626475  0.63698971  1
  O  O28  1  0.31200035  0.50797821  0.63813354  1
  O  O29  1  0.82012754  0.51127189  0.63890356  1
  O  O30  1  0.43513357  0.50651038  0.13895371  1
  O  O31  1  0.93600882  0.50946853  0.14039262  1
  O  O32  1  0.31809664  0.12633497  0.13864036  1
  O  O33  1  0.81860401  0.12609281  0.13860926  1
  O  O34  1  0.24769162  0.36332527  0.13714163  1
  O  O35  1  0.74787410  0.36472349  0.13652302  1
  O  O36  1  0.23034617  0.30381696  0.02648990  1
  O  O37  1  0.73096423  0.30444698  0.02617118  1
  O  O38  1  0.41964456  0.53710749  0.02886322  1
  O  O39  1  0.91896514  0.53545097  0.02995796  1
  O  O40  1  0.34825603  0.15579427  0.02812322  1
  O  O41  1  0.84846312  0.15561589  0.02817559  1
  O  O42  1  0.22577494  0.15282358  0.52520394  1
  O  O43  1  0.73273607  0.16266911  0.52617071  1
  O  O44  1  0.34429745  0.53887797  0.52673865  1
  O  O45  1  0.85118262  0.54265975  0.52830506  1
  O  O46  1  0.41339824  0.29386817  0.52645186  1
  O  O47  1  0.91989467  0.30196956  0.52871049  1
  O  O48  1  0.27404138  0.70863870  0.97398391  1
  O  O49  1  0.77368358  0.70861172  0.97388589  1
  O  O50  1  0.08654478  0.45938411  0.97660540  1
  O  O51  1  0.58753330  0.46187007  0.97501397  1
  O  O52  1  0.15493620  0.84098225  0.97407160  1
  O  O53  1  0.65514408  0.84092344  0.97406912  1
  O  O54  1  0.27395289  0.83973450  0.47224379  1
  O  O55  1  0.77445098  0.83891205  0.47281965  1
  O  O56  1  0.15349035  0.46828357  0.47274598  1
  O  O57  1  0.65602229  0.47074258  0.47225342  1
  O  O58  1  0.08882732  0.70992411  0.47420872  1
  O  O59  1  0.58888985  0.71922871  0.47389733  1
  O  O60  1  0.06292530  0.62705434  0.35459478  1
  O  O61  1  0.56343941  0.62415698  0.35728678  1
  O  O62  1  0.25444063  0.86961871  0.36167829  1
  O  O63  1  0.75529525  0.87232220  0.36176337  1
  O  O64  1  0.18385156  0.49674580  0.36095478  1
  O  O65  1  0.68609191  0.49699497  0.36031798  1
  O  O66  1  0.06654519  0.50667590  0.85897733  1
  O  O67  1  0.56515067  0.50141398  0.85607127  1
  O  O68  1  0.18592824  0.87526826  0.86223176  1
  O  O69  1  0.68584216  0.87438243  0.86230245  1
  O  O70  1  0.25502653  0.63635681  0.86322015  1
  O  O71  1  0.75442601  0.63608233  0.86321415  1
  O  O72  1  0.00967594  0.84452354  0.41020207  1
  O  O73  1  0.50862576  0.84738457  0.40994573  1
  O  O74  1  0.40440171  0.98150992  0.40702647  1
  O  O75  1  0.90534200  0.98203047  0.40746403  1
  O  O76  1  0.08095283  0.20268073  0.41087631  1
  O  O77  1  0.58248093  0.20359567  0.41045384  1
  O  O78  1  0.00890201  0.17269176  0.90970748  1
  O  O79  1  0.50885313  0.17240787  0.90992311  1
  O  O80  1  0.08223153  0.96185788  0.91236698  1
  O  O81  1  0.58241335  0.96134682  0.91256575  1
  O  O82  1  0.40492068  0.82681560  0.90930049  1
  O  O83  1  0.90454580  0.82687467  0.90894617  1
  O  O84  1  0.48542201  0.14613291  0.59006535  1
  O  O85  1  0.98351004  0.16249594  0.58959524  1
  O  O86  1  0.09428981  0.01666374  0.58892483  1
  O  O87  1  0.60025231  0.02165610  0.58968624  1
  O  O88  1  0.41427049  0.80107998  0.59112777  1
  O  O89  1  0.91857225  0.80903654  0.59169138  1
  O  O90  1  0.48366682  0.80483033  0.08958773  1
  O  O91  1  0.98369560  0.80522675  0.08945074  1
  O  O92  1  0.41547967  0.02270864  0.09088798  1
  O  O93  1  0.91571732  0.02279696  0.09077506  1
  O  O94  1  0.09745275  0.17246582  0.08971789  1
  O  O95  1  0.59759198  0.17382365  0.08866025  1
  O  O96  1  0.34703678  0.16122598  0.74459793  1
  O  O97  1  0.85057537  0.16729109  0.74066286  1
  O  O98  1  0.24827191  0.30992044  0.73992992  1
  O  O99  1  0.74914977  0.31161555  0.74214973  1
  O  O100  1  0.42133749  0.53431789  0.74650565  1
  O  O101  1  0.92172452  0.52871436  0.74220466  1
  O  O102  1  0.35042248  0.53307373  0.24019839  1
  O  O103  1  0.85123112  0.53364953  0.23989392  1
  O  O104  1  0.42129530  0.31433817  0.24127938  1
  O  O105  1  0.92210817  0.31695077  0.24135495  1
  O  O106  1  0.24755281  0.18507196  0.24105713  1
  O  O107  1  0.74635380  0.18241297  0.24216709  1
  O  O108  1  0.31625679  0.49882301  0.92689453  1
  O  O109  1  0.81603393  0.49905012  0.92677338  1
  O  O110  1  0.41937379  0.35596940  0.92511009  1
  O  O111  1  0.91898603  0.35523615  0.92564496  1
  O  O112  1  0.24463476  0.14019899  0.92589685  1
  O  O113  1  0.74477133  0.13950829  0.92561028  1
  O  O114  1  0.31494506  0.13183170  0.42317995  1
  O  O115  1  0.81704949  0.13339676  0.42559137  1
  O  O116  1  0.24317655  0.34912547  0.42375340  1
  O  O117  1  0.74471271  0.34904887  0.42395871  1
  O  O118  1  0.41698204  0.48669462  0.42322284  1
  O  O119  1  0.91920858  0.48136144  0.42515390  1
  O  O120  1  0.18285076  0.50427623  0.07762023  1
  O  O121  1  0.68336281  0.50538996  0.07709078  1
  O  O122  1  0.06909300  0.64442315  0.07733785  1
  O  O123  1  0.56915009  0.64386882  0.07682399  1
  O  O124  1  0.25082726  0.85842502  0.07594966  1
  O  O125  1  0.75102578  0.85826231  0.07593512  1
  O  O126  1  0.18098580  0.85866667  0.57673074  1
  O  O127  1  0.68901806  0.86933021  0.57640187  1
  O  O128  1  0.24935556  0.64578337  0.57469298  1
  O  O129  1  0.75524435  0.64833631  0.57585608  1
  O  O130  1  0.06884057  0.49406132  0.57698696  1
  O  O131  1  0.57825121  0.51070328  0.57881246  1
  O  O132  1  0.15772140  0.82174803  0.25664801  1
  O  O133  1  0.65973848  0.82292966  0.25633284  1
  O  O134  1  0.26277425  0.68438406  0.25784252  1
  O  O135  1  0.76227725  0.68349816  0.25768006  1
  O  O136  1  0.08436961  0.46332581  0.25458835  1
  O  O137  1  0.58523908  0.46289839  0.25537442  1
  O  O138  1  0.15938622  0.49341380  0.75598136  1
  O  O139  1  0.65786475  0.49352898  0.75680588  1
  O  O140  1  0.08512095  0.70789143  0.75629209  1
  O  O141  1  0.58514084  0.70807635  0.75604426  1
  O  O142  1  0.26092373  0.83509708  0.76050662  1
  O  O143  1  0.76312335  0.84094682  0.75875443  1
loop_
_geom_bond_atom_site_label_1
_geom_bond_atom_site_label_2
_geom_bond_distance
_geom_bond_site_symmetry_2
Na0 O132 2.255610 1_555
Na0 O103 2.304401 1_455
Na0 O105 2.419927 1_455
Na0 O60 2.442054 1_555
Na0 O136 2.497669 1_555
Na0 O22 2.621834 1_555
Na0 O3 2.657461 1_455
Na0 O31 2.727811 1_455
Na1 O139 2.297522 1_555
Na1 O96 2.326657 1_555
Na1 O100 2.441208 1_555
Na1 O24 2.455646 1_555
Na1 O141 2.527874 1_555
Na1 O15 2.567626 1_555
Na1 O67 2.653851 1_555
Na1 O10 2.792216 1_555
Na2 O78 2.261091 1_555
Na2 O108 2.314202 1_555
Na2 O112 2.418506 1_555
Na2 O6 2.420515 1_555
Na2 O80 2.498831 1_545
Na2 O50 2.645266 1_555
Na2 O70 2.655118 1_555
Na2 O36 2.751534 1_556
Na3 O79 2.260800 1_555
Na3 O109 2.311517 1_555
Na3 O7 2.386992 1_555
Na3 O113 2.420773 1_555
Na3 O81 2.498774 1_545
Na3 O51 2.627102 1_555
Na3 O71 2.660541 1_555
Na3 O37 2.738594 1_556
Na4 O72 2.264486 1_545
Na4 O114 2.269800 1_555
Na4 O116 2.389481 1_555
Na4 O76 2.512855 1_555
Na4 O0 2.546152 1_555
Na4 O42 2.605869 1_555
Na4 O58 2.610563 1_545
Na4 O62 2.729468 1_545
Na5 O73 2.255135 1_545
Na5 O115 2.321202 1_555
Na5 O117 2.424196 1_555
Na5 O77 2.513196 1_555
Na5 O59 2.523718 1_545
Na5 O1 2.531281 1_555
Na5 O43 2.692990 1_555
Na5 O63 2.706742 1_545
Na6 O72 2.382029 1_655
Na6 O89 2.450757 1_555
Na6 O85 2.489258 1_565
Na6 O86 2.490198 1_665
Na6 O75 2.516816 1_555
Na6 O76 2.541960 1_665
Na7 O84 2.323041 1_565
Na7 O73 2.446660 1_555
Na7 O88 2.475912 1_555
Na7 O74 2.535464 1_555
Na7 O87 2.557468 1_565
Na7 O77 2.562073 1_565
Na8 O78 2.342075 1_655
Na8 O83 2.465231 1_545
Na8 O80 2.477501 1_645
Na8 O93 2.488693 1_556
Na8 O91 2.530934 1_546
Na8 O94 2.556691 1_656
Na9 O79 2.356221 1_555
Na9 O82 2.461225 1_545
Na9 O92 2.473338 1_556
Na9 O81 2.496452 1_545
Na9 O90 2.516459 1_546
Na9 O95 2.538840 1_556
Na10 O98 2.386047 1_555
Na10 O100 2.437721 1_555
Na10 O96 2.446920 1_555
Na10 O110 2.483610 1_555
Na10 O112 2.590608 1_555
Na10 O108 2.602647 1_555
Na11 O99 2.400563 1_555
Na11 O111 2.435855 1_555
Na11 O101 2.453850 1_555
Na11 O97 2.471500 1_555
Na11 O113 2.627317 1_555
Na11 O109 2.637411 1_555
Na12 O118 2.323174 1_555
Na12 O106 2.493310 1_555
Na12 O104 2.512594 1_555
Na12 O102 2.532208 1_555
Na12 O114 2.532686 1_555
Na12 O116 2.561075 1_555
Na13 O119 2.421826 1_555
Na13 O107 2.422162 1_555
Na13 O117 2.478586 1_555
Na13 O115 2.516217 1_555
Na13 O105 2.576561 1_555
Na13 O103 2.590332 1_555
Na14 O132 2.348807 1_555
Na14 O134 2.461349 1_555
Na14 O124 2.470360 1_555
Na14 O120 2.506525 1_555
Na14 O136 2.508744 1_555
Na14 O122 2.568211 1_555
Na15 O133 2.276719 1_555
Na15 O137 2.452580 1_555
Na15 O135 2.509109 1_555
Na15 O123 2.523304 1_555
Na15 O125 2.543754 1_555
Na15 O121 2.577743 1_555
Na16 O138 2.312568 1_555
Na16 O128 2.494444 1_555
Na16 O140 2.511757 1_555
Na16 O130 2.522578 1_555
Na16 O142 2.532212 1_555
Na16 O126 2.556583 1_555
Na17 O131 2.316263 1_555
Na17 O139 2.407057 1_555
Na17 O129 2.473215 1_555
Na17 O127 2.507582 1_555
Na17 O141 2.558192 1_555
Na17 O143 2.609383 1_555
Al0 O0 1.777049 1_565
Al0 O72 1.799405 1_555
Al0 O3 1.968187 1_455
Al0 O75 1.988605 1_455
Al0 O76 2.007235 1_565
Al0 O5 2.007868 1_465
Al1 O1 1.765488 1_565
Al1 O73 1.785448 1_555
Al1 O2 1.932474 1_555
Al1 O4 2.004356 1_565
Al1 O74 2.021654 1_555
Al1 O77 2.040856 1_565
Al2 O6 1.758386 1_555
Al2 O78 1.823538 1_555
Al2 O11 1.879243 1_455
Al2 O9 1.973210 1_445
Al2 O83 2.103667 1_445
Al2 O80 2.124004 1_545
Al3 O7 1.771132 1_555
Al3 O79 1.821466 1_555
Al3 O10 1.879347 1_555
Al3 O8 1.907146 1_545
Al3 O82 2.073199 1_545
Al3 O81 2.107871 1_545
Al4 O14 1.719968 1_555
Al4 O16 1.887919 1_545
Al4 O13 1.943901 1_445
Al4 O85 1.990756 1_455
Al4 O86 1.995950 1_555
Al4 O89 2.027782 1_445
Al5 O84 1.747854 1_555
Al5 O15 1.752711 1_555
Al5 O17 1.985837 1_545
Al5 O12 1.993565 1_545
Al5 O87 2.046961 1_555
Al5 O88 2.091009 1_545
Al6 O22 1.741514 1_555
Al6 O20 1.877482 1_565
Al6 O19 1.928203 1_455
Al6 O91 1.973375 1_455
Al6 O94 2.025206 1_565
Al6 O93 2.068332 1_465
Al7 O23 1.719583 1_555
Al7 O21 1.873371 1_565
Al7 O18 1.899614 1_555
Al7 O90 1.997769 1_555
Al7 O92 2.083385 1_565
Al7 O95 2.084367 1_565
Al8 O98 1.780301 1_555
Al8 O24 1.780499 1_555
Al8 O28 1.903144 1_555
Al8 O26 1.928869 1_555
Al8 O96 2.104472 1_555
Al8 O100 2.118695 1_555
Al9 O99 1.756189 1_555
Al9 O27 1.900005 1_555
Al9 O29 1.907341 1_555
Al9 O25 1.958888 1_555
Al9 O97 1.975991 1_555
Al9 O101 1.988148 1_555
Al10 O106 1.745993 1_555
Al10 O32 1.938151 1_555
Al10 O102 1.938530 1_555
Al10 O104 1.939340 1_555
Al10 O34 1.961435 1_555
Al10 O30 1.968647 1_555
Al11 O107 1.726740 1_555
Al11 O33 1.897010 1_555
Al11 O35 1.897563 1_555
Al11 O103 1.990128 1_555
Al11 O105 2.026995 1_555
Al11 O31 2.034629 1_555
Al12 O110 1.733493 1_555
Al12 O40 1.899908 1_556
Al12 O38 1.904086 1_556
Al12 O108 1.986597 1_555
Al12 O112 1.998878 1_555
Al12 O36 2.008778 1_556
Al13 O111 1.728060 1_555
Al13 O41 1.905305 1_556
Al13 O39 1.907887 1_556
Al13 O109 1.989447 1_555
Al13 O37 1.992116 1_556
Al13 O113 2.002427 1_555
Al14 O46 1.700195 1_555
Al14 O118 1.746139 1_555
Al14 O44 1.891720 1_555
Al14 O114 2.071173 1_555
Al14 O42 2.100577 1_555
Al14 O116 2.184261 1_555
Al15 O119 1.755532 1_555
Al15 O45 1.879006 1_555
Al15 O47 1.895782 1_555
Al15 O43 1.948207 1_555
Al15 O115 2.023613 1_555
Al15 O117 2.036901 1_555
Al16 O50 1.743407 1_554
Al16 O52 1.873033 1_554
Al16 O48 1.913277 1_554
Al16 O120 1.989718 1_555
Al16 O122 2.050865 1_555
Al16 O124 2.070560 1_555
Al17 O51 1.740935 1_554
Al17 O53 1.876774 1_554
Al17 O49 1.934520 1_554
Al17 O121 1.971819 1_555
Al17 O123 2.016089 1_555
Al17 O125 2.071690 1_555
Al18 O58 1.755505 1_555
Al18 O56 1.901380 1_555
Al18 O126 1.935062 1_555
Al18 O54 1.948028 1_555
Al18 O128 1.986224 1_555
Al18 O130 2.024215 1_555
Al19 O59 1.751347 1_555
Al19 O131 1.756966 1_555
Al19 O57 1.919448 1_555
Al19 O127 1.980656 1_555
Al19 O129 2.141994 1_555
Al19 O55 2.144322 1_555
Al20 O60 1.779034 1_555
Al20 O132 1.821858 1_555
Al20 O62 1.885033 1_555
Al20 O64 1.956485 1_555
Al20 O134 2.041293 1_555
Al20 O136 2.086242 1_555
Al21 O61 1.723430 1_555
Al21 O133 1.777535 1_555
Al21 O63 1.986385 1_555
Al21 O137 2.005525 1_555
Al21 O65 2.024986 1_555
Al21 O135 2.100704 1_555
Al22 O66 1.743128 1_555
Al22 O138 1.749186 1_555
Al22 O140 1.944505 1_555
Al22 O142 2.005624 1_555
Al22 O70 2.057414 1_555
Al22 O68 2.083597 1_555
Al23 O67 1.779200 1_555
Al23 O139 1.784084 1_555
Al23 O141 1.992219 1_555
Al23 O71 1.992730 1_555
Al23 O69 2.009531 1_555
Al23 O143 2.011142 1_555
O0 Si0 1.624493 1_555
O1 Si1 1.621846 1_555
O2 S0 1.470315 1_555
O3 S1 1.477644 1_555
O4 S3 1.472617 1_555
O5 S2 1.467761 1_655
O6 Si2 1.643288 1_555
O7 Si3 1.633006 1_555
O8 S5 1.484639 1_555
O9 S4 1.486296 1_655
O10 S6 1.496448 1_545
O11 S7 1.485311 1_545
O12 S6 1.473698 1_555
O13 S7 1.480668 1_555
O14 Si2 1.617222 1_555
O15 Si3 1.613688 1_555
O16 S4 1.476405 1_555
O17 S5 1.468850 1_555
O18 S0 1.491524 1_555
O19 S1 1.486587 1_555
O20 S2 1.481253 1_555
O21 S3 1.488834 1_555
O22 Si0 1.636993 1_565
O23 Si1 1.622976 1_565
O24 Si4 1.645391 1_555
O25 S8 1.476731 1_555
O26 S9 1.464575 1_555
O27 S10 1.474753 1_555
O28 S11 1.474705 1_555
O29 S12 1.478018 1_555
O30 S13 1.477612 1_555
O31 S14 1.488485 1_555
O32 S15 1.475346 1_555
O33 S16 1.478099 1_555
O34 S17 1.470693 1_555
O35 S18 1.476641 1_555
O36 S17 1.490768 1_555
O37 S18 1.492548 1_555
O38 S13 1.480488 1_555
O39 S14 1.476153 1_555
O40 S15 1.481416 1_555
O41 S16 1.479448 1_555
O42 S9 1.488177 1_555
O43 S10 1.504352 1_555
O44 S11 1.479949 1_555
O45 S12 1.488422 1_555
O46 Si4 1.609301 1_555
O47 S8 1.482901 1_555
O48 S19 1.493373 1_555
O49 S20 1.489313 1_555
O50 Si5 1.641115 1_555
O51 Si6 1.638176 1_555
O52 S21 1.488938 1_555
O53 S22 1.484205 1_555
O54 S23 1.477247 1_555
O55 S24 1.465118 1_555
O56 S25 1.474691 1_555
O57 S26 1.465390 1_555
O58 Si7 1.626382 1_555
O59 Si8 1.631515 1_555
O60 Si7 1.631876 1_555
O61 Si8 1.614005 1_555
O62 S23 1.489208 1_555
O63 S24 1.488039 1_555
O64 S25 1.478172 1_555
O65 S26 1.477446 1_555
O66 Si5 1.602141 1_555
O67 Si6 1.618669 1_555
O68 S21 1.455706 1_555
O69 S22 1.462945 1_555
O70 S19 1.464101 1_555
O71 S20 1.472636 1_555
O72 Si7 1.650243 1_555
O73 Si8 1.651798 1_555
O74 S23 1.464542 1_555
O75 S24 1.477542 1_555
O76 S25 1.494564 1_555
O77 S26 1.486385 1_555
O78 Si5 1.649026 1_555
O79 Si6 1.646330 1_555
O80 S21 1.485719 1_555
O81 S22 1.481078 1_555
O82 S19 1.465525 1_555
O83 S20 1.462752 1_555
O84 Si4 1.626838 1_555
O85 S8 1.489950 1_555
O86 S9 1.495271 1_555
O87 S10 1.472644 1_555
O88 S11 1.470015 1_555
O89 S12 1.493195 1_555
O90 S13 1.490077 1_555
O91 S14 1.491572 1_555
O92 S15 1.489167 1_555
O93 S16 1.488026 1_555
O94 S17 1.491346 1_555
O95 S18 1.480400 1_555
O96 S6 1.481233 1_545
O97 S7 1.476344 1_545
O98 Si2 1.630942 1_555
O99 Si3 1.612637 1_555
O100 S5 1.482019 1_555
O101 S4 1.480824 1_655
O102 S0 1.480680 1_555
O103 S1 1.500681 1_555
O104 S3 1.487655 1_555
O105 S2 1.498849 1_655
O106 Si0 1.608438 1_555
O107 Si1 1.638136 1_555
O108 S19 1.503030 1_555
O109 S20 1.501375 1_555
O110 Si6 1.611240 1_555
O111 Si5 1.615072 1_655
O112 S21 1.506117 1_545
O113 S22 1.501477 1_545
O114 S23 1.487149 1_545
O115 S24 1.505368 1_545
O116 S25 1.481640 1_555
O117 S26 1.506818 1_555
O118 Si8 1.612030 1_555
O119 Si7 1.612417 1_655
O120 S17 1.492213 1_555
O121 S18 1.490908 1_555
O122 S14 1.484065 1_455
O123 S13 1.492239 1_555
O124 S15 1.490569 1_565
O125 S16 1.485983 1_565
O126 S9 1.496981 1_565
O127 S10 1.478320 1_565
O128 S11 1.502435 1_555
O129 S12 1.466961 1_555
O130 S8 1.487820 1_455
O131 Si4 1.637841 1_555
O132 Si0 1.648622 1_565
O133 Si1 1.626559 1_565
O134 S0 1.476327 1_555
O135 S1 1.459900 1_555
O136 S2 1.481546 1_555
O137 S3 1.476857 1_555
O138 Si2 1.625869 1_555
O139 Si3 1.649488 1_555
O140 S4 1.477789 1_555
O141 S5 1.497975 1_555
O142 S6 1.464616 1_555
O143 S7 1.476530 1_555
