# generated using pymatgen
data_Rb3IO5
_symmetry_space_group_name_H-M   'P 1'
_cell_length_a   8.48621123
_cell_length_b   8.83217448
_cell_length_c   9.30671526
_cell_angle_alpha   90.00000000
_cell_angle_beta   90.00000000
_cell_angle_gamma   90.00000000
_symmetry_Int_Tables_number   1
_chemical_formula_structural   Rb3IO5
_chemical_formula_sum   'Rb12 I4 O20'
_cell_volume   697.55411394
_cell_formula_units_Z   4
loop_
 _symmetry_equiv_pos_site_id
 _symmetry_equiv_pos_as_xyz
  1  'x, y, z'
loop_
 _atom_site_type_symbol
 _atom_site_label
 _atom_site_symmetry_multiplicity
 _atom_site_fract_x
 _atom_site_fract_y
 _atom_site_fract_z
 _atom_site_occupancy
  Rb  Rb0  1  0.94637728  0.25000000  0.75000000  1
  Rb  Rb1  1  0.55362272  0.75000000  0.75000000  1
  Rb  Rb2  1  0.05362272  0.75000000  0.25000000  1
  Rb  Rb3  1  0.44637728  0.25000000  0.25000000  1
  Rb  Rb4  1  0.75000000  0.50000000  0.01902186  1
  Rb  Rb5  1  0.75000000  -0.00000000  0.48097814  1
  Rb  Rb6  1  0.25000000  0.50000000  0.98097814  1
  Rb  Rb7  1  0.25000000  -0.00000000  0.51902186  1
  Rb  Rb8  1  0.75000000  0.50000000  0.48217474  1
  Rb  Rb9  1  0.75000000  -0.00000000  0.01782526  1
  Rb  Rb10  1  0.25000000  0.50000000  0.51782526  1
  Rb  Rb11  1  0.25000000  -0.00000000  0.98217474  1
  I  I0  1  0.48743511  0.25000000  0.75000000  1
  I  I1  1  0.01256489  0.75000000  0.75000000  1
  I  I2  1  0.51256489  0.75000000  0.25000000  1
  I  I3  1  0.98743511  0.25000000  0.25000000  1
  O  O0  1  0.27193098  0.25000000  0.75000000  1
  O  O1  1  0.22806902  0.75000000  0.75000000  1
  O  O2  1  0.72806902  0.75000000  0.25000000  1
  O  O3  1  0.77193098  0.25000000  0.25000000  1
  O  O4  1  0.58579024  0.06574430  0.74962400  1
  O  O5  1  0.91420976  0.93425570  0.74962400  1
  O  O6  1  0.58579024  0.43425570  0.75037600  1
  O  O7  1  0.91420976  0.56574430  0.75037600  1
  O  O8  1  0.41420976  0.93425570  0.25037600  1
  O  O9  1  0.08579024  0.06574430  0.25037600  1
  O  O10  1  0.41420976  0.56574430  0.24962400  1
  O  O11  1  0.08579024  0.43425570  0.24962400  1
  O  O12  1  0.49227690  0.24959309  0.94976203  1
  O  O13  1  0.00772310  0.75040691  0.94976203  1
  O  O14  1  0.49227690  0.25040691  0.55023797  1
  O  O15  1  0.00772310  0.74959309  0.55023797  1
  O  O16  1  0.50772310  0.75040691  0.05023797  1
  O  O17  1  0.99227690  0.24959309  0.05023797  1
  O  O18  1  0.50772310  0.74959309  0.44976203  1
  O  O19  1  0.99227690  0.25040691  0.44976203  1
loop_
_geom_bond_atom_site_label_1
_geom_bond_atom_site_label_2
_geom_bond_distance
_geom_bond_site_symmetry_2
I0 O0 1.828814 1_555
I0 O6 1.828944 1_555
I0 O4 1.828944 1_555
I0 O14 1.859586 1_555
I0 O12 1.859586 1_555
I1 O1 1.828814 1_555
I1 O5 1.828944 1_455
I1 O7 1.828944 1_455
I1 O13 1.859586 1_555
I1 O15 1.859586 1_555
I2 O2 1.828814 1_555
I2 O8 1.828944 1_555
I2 O10 1.828944 1_555
I2 O16 1.859586 1_555
I2 O18 1.859586 1_555
I3 O3 1.828814 1_555
I3 O11 1.828944 1_655
I3 O9 1.828944 1_655
I3 O17 1.859586 1_555
I3 O19 1.859586 1_555
O0 Rb0 2.762717 1_455
O0 Rb7 3.087245 1_555
O0 Rb6 3.087245 1_555
O0 Rb10 3.095009 1_555
O0 Rb11 3.095009 1_555
O1 Rb1 2.762717 1_555
O1 Rb7 3.087245 1_565
O1 Rb6 3.087245 1_555
O1 Rb10 3.095009 1_555
O1 Rb11 3.095009 1_565
O2 Rb2 2.762717 1_655
O2 Rb5 3.087245 1_565
O2 Rb4 3.087245 1_555
O2 Rb8 3.095009 1_555
O2 Rb9 3.095009 1_565
O3 Rb3 2.762717 1_555
O3 Rb5 3.087245 1_555
O3 Rb4 3.087245 1_555
O3 Rb8 3.095009 1_555
O3 Rb9 3.095009 1_555
O4 Rb1 2.802040 1_545
O4 Rb9 2.917095 1_556
O4 Rb5 2.920637 1_555
O5 Rb0 2.802040 1_565
O5 Rb9 2.917095 1_566
O5 Rb5 2.920637 1_565
O6 Rb1 2.802040 1_555
O6 Rb8 2.917095 1_555
O6 Rb4 2.920637 1_556
O7 Rb0 2.802040 1_555
O7 Rb8 2.917095 1_555
O7 Rb4 2.920637 1_556
O8 Rb3 2.802040 1_565
O8 Rb11 2.917095 1_564
O8 Rb7 2.920637 1_565
O9 Rb2 2.802040 1_545
O9 Rb11 2.917095 1_554
O9 Rb7 2.920637 1_555
O10 Rb3 2.802040 1_555
O10 Rb10 2.917095 1_555
O10 Rb6 2.920637 1_554
O11 Rb2 2.802040 1_555
O11 Rb10 2.917095 1_555
O11 Rb6 2.920637 1_554
O12 Rb3 2.821250 1_556
O12 Rb11 3.029486 1_555
O12 Rb6 3.033633 1_555
O12 Rb9 3.169263 1_556
O12 Rb4 3.176508 1_556
O13 Rb2 2.821250 1_556
O13 Rb11 3.029486 1_565
O13 Rb6 3.033633 1_555
O13 Rb9 3.169263 1_466
O13 Rb4 3.176508 1_456
O14 Rb3 2.821250 1_555
O14 Rb10 3.029486 1_555
O14 Rb7 3.033633 1_555
O14 Rb8 3.169263 1_555
O14 Rb5 3.176508 1_555
O15 Rb2 2.821250 1_555
O15 Rb10 3.029486 1_555
O15 Rb7 3.033633 1_565
O15 Rb8 3.169263 1_455
O15 Rb5 3.176508 1_465
O16 Rb1 2.821250 1_554
O16 Rb9 3.029486 1_565
O16 Rb4 3.033633 1_555
O16 Rb11 3.169263 1_564
O16 Rb6 3.176508 1_554
O17 Rb0 2.821250 1_554
O17 Rb9 3.029486 1_555
O17 Rb4 3.033633 1_555
O17 Rb11 3.169263 1_654
O17 Rb6 3.176508 1_654
O18 Rb1 2.821250 1_555
O18 Rb8 3.029486 1_555
O18 Rb5 3.033633 1_565
O18 Rb10 3.169263 1_555
O18 Rb7 3.176508 1_565
O19 Rb0 2.821250 1_555
O19 Rb8 3.029486 1_555
O19 Rb5 3.033633 1_555
O19 Rb10 3.169263 1_655
O19 Rb7 3.176508 1_655
