# generated using pymatgen
data_BaLiH3
_symmetry_space_group_name_H-M   'P 1'
_cell_length_a   4.01142218
_cell_length_b   4.01142218
_cell_length_c   4.01142218
_cell_angle_alpha   90.00000000
_cell_angle_beta   90.00000000
_cell_angle_gamma   90.00000000
_symmetry_Int_Tables_number   1
_chemical_formula_structural   BaLiH3
_chemical_formula_sum   'Ba1 Li1 H3'
_cell_volume   64.54983172
_cell_formula_units_Z   1
loop_
 _symmetry_equiv_pos_site_id
 _symmetry_equiv_pos_as_xyz
  1  'x, y, z'
loop_
 _atom_site_type_symbol
 _atom_site_label
 _atom_site_symmetry_multiplicity
 _atom_site_fract_x
 _atom_site_fract_y
 _atom_site_fract_z
 _atom_site_occupancy
  Ba  Ba0  1  -0.00000000  -0.00000000  -0.00000000  1
  Li  Li0  1  0.50000000  0.50000000  0.50000000  1
  H  H0  1  0.50000000  -0.00000000  0.50000000  1
  H  H1  1  0.50000000  0.50000000  -0.00000000  1
  H  H2  1  -0.00000000  0.50000000  0.50000000  1
loop_
_geom_bond_atom_site_label_1
_geom_bond_atom_site_label_2
_geom_bond_distance
_geom_bond_site_symmetry_2
Ba0 H1 2.836504 1_555
Ba0 H2 2.836504 1_544
Ba0 H0 2.836504 1_554
Ba0 H2 2.836504 1_555
Ba0 H2 2.836504 1_545
Ba0 H1 2.836504 1_455
Ba0 H0 2.836504 1_455
Ba0 H0 2.836504 1_454
Ba0 H2 2.836504 1_554
Ba0 H0 2.836504 1_555
Ba0 H1 2.836504 1_445
Ba0 H1 2.836504 1_545
H0 Li0 2.005711 1_555
H0 Li0 2.005711 1_545
H1 Li0 2.005711 1_554
H1 Li0 2.005711 1_555
H2 Li0 2.005711 1_555
H2 Li0 2.005711 1_455
