# generated using pymatgen
data_Na8Hf3ZnSi5SO24
_symmetry_space_group_name_H-M   'P 1'
_cell_length_a   9.24232883
_cell_length_b   9.24083961
_cell_length_c   22.44322873
_cell_angle_alpha   89.69863004
_cell_angle_beta   90.40389404
_cell_angle_gamma   119.95009157
_symmetry_Int_Tables_number   1
_chemical_formula_structural   Na8Hf3ZnSi5SO24
_chemical_formula_sum   'Na24 Hf9 Zn3 Si15 S3 O72'
_cell_volume   1660.79236789
_cell_formula_units_Z   3
loop_
 _symmetry_equiv_pos_site_id
 _symmetry_equiv_pos_as_xyz
  1  'x, y, z'
loop_
 _atom_site_type_symbol
 _atom_site_label
 _atom_site_symmetry_multiplicity
 _atom_site_fract_x
 _atom_site_fract_y
 _atom_site_fract_z
 _atom_site_occupancy
  Na  Na0  1  0.64892766  0.03009354  0.24550253  1
  Na  Na1  1  0.36876202  0.36117198  0.23806247  1
  Na  Na2  1  0.97893307  0.60597713  0.24091788  1
  Na  Na3  1  0.63215321  0.61362790  0.74522842  1
  Na  Na4  1  0.98232016  0.36571046  0.75160605  1
  Na  Na5  1  0.38630122  0.01524872  0.74551368  1
  Na  Na6  1  0.32554761  0.33697776  0.59172395  1
  Na  Na7  1  0.03162801  0.70656736  0.58272611  1
  Na  Na8  1  0.65554418  0.96501213  0.59529865  1
  Na  Na9  1  0.31125339  0.97156602  0.07724949  1
  Na  Na10  1  0.66501027  0.68991218  0.07707312  1
  Na  Na11  1  0.02810134  0.34388699  0.07954742  1
  Na  Na12  1  0.96588424  0.66493405  0.91342847  1
  Na  Na13  1  0.69946434  0.03457200  0.91258008  1
  Na  Na14  1  0.33446202  0.30036174  0.91279125  1
  Na  Na15  1  0.96400480  0.28515887  0.40901299  1
  Na  Na16  1  0.31471018  0.02810178  0.41813694  1
  Na  Na17  1  0.71658092  0.68403215  0.41782154  1
  Na  Na18  1  0.00148448  0.99215459  0.49343048  1
  Na  Na19  1  0.00108072  0.99928988  0.99432146  1
  Na  Na20  1  0.66757930  0.33281585  0.82432667  1
  Na  Na21  1  0.68339779  0.33128319  0.33110397  1
  Na  Na22  1  0.32550698  0.65836621  0.15959000  1
  Na  Na23  1  0.34491843  0.67688195  0.67191216  1
  Hf  Hf0  1  0.99733560  0.99657116  0.85174786  1
  Hf  Hf1  1  0.00175604  0.99362619  0.64948551  1
  Hf  Hf2  1  0.00405622  0.01281705  0.14492623  1
  Hf  Hf3  1  0.66895753  0.33472252  0.98193686  1
  Hf  Hf4  1  0.65846967  0.33634190  0.47888368  1
  Hf  Hf5  1  0.33398928  0.66520067  0.01749736  1
  Hf  Hf6  1  0.33886614  0.67381496  0.51710220  1
  Hf  Hf7  1  0.32667714  0.66003519  0.31747946  1
  Hf  Hf8  1  0.33427081  0.66750099  0.81314309  1
  Zn  Zn0  1  0.99658629  0.01295060  0.35879480  1
  Zn  Zn1  1  0.64283154  0.32728021  0.68826809  1
  Zn  Zn2  1  0.68196926  0.33115336  0.16630427  1
  Si  Si0  1  0.99971812  0.29843951  0.25349880  1
  Si  Si1  1  0.29025260  0.29540040  0.75038295  1
  Si  Si2  1  0.99966701  0.70105179  0.75046472  1
  Si  Si3  1  0.70469728  0.00010885  0.74905565  1
  Si  Si4  1  0.37147076  0.03714500  0.58484283  1
  Si  Si5  1  0.66616181  0.62958166  0.58515585  1
  Si  Si6  1  0.96700574  0.63252575  0.08610092  1
  Si  Si7  1  0.66211042  0.03415268  0.08663385  1
  Si  Si8  1  0.37932827  0.33661887  0.08737361  1
  Si  Si9  1  0.62835346  0.66553443  0.91718019  1
  Si  Si10  1  0.03781308  0.37083605  0.91656318  1
  Si  Si11  1  0.33487821  0.96242769  0.91686839  1
  Si  Si12  1  0.62724177  0.96438626  0.41481869  1
  Si  Si13  1  0.33331041  0.37235675  0.41778512  1
  Si  Si14  1  0.03486853  0.66481917  0.41624057  1
  S  S0  1  0.28998464  0.99378745  0.25313119  1
  S  S1  1  0.70424566  0.71041108  0.25258008  1
  S  S2  1  0.96217614  0.33420372  0.58283843  1
  O  O0  1  0.20476314  0.00010044  0.30670865  1
  O  O1  1  0.80098050  0.78971221  0.30643668  1
  O  O2  1  0.97777333  0.18843852  0.31257070  1
  O  O3  1  0.19005589  0.18020656  0.80827504  1
  O  O4  1  0.97943720  0.79687585  0.80876676  1
  O  O5  1  0.81723300  0.01525238  0.80831514  1
  O  O6  1  0.79827833  0.97715355  0.68971477  1
  O  O7  1  0.17785983  0.20431737  0.68979070  1
  O  O8  1  0.02564573  0.82059010  0.69106436  1
  O  O9  1  0.79400493  0.81092660  0.19798835  1
  O  O10  1  0.02435872  0.20089001  0.19488432  1
  O  O11  1  0.18707015  0.97781563  0.19829871  1
  O  O12  1  0.89085393  0.35830299  0.63637059  1
  O  O13  1  0.48852260  0.11227007  0.64284135  1
  O  O14  1  0.63203280  0.51513302  0.64342688  1
  O  O15  1  0.89624639  0.52210407  0.14604446  1
  O  O16  1  0.62260527  0.10352679  0.14664332  1
  O  O17  1  0.48974188  0.36568851  0.14707443  1
  O  O18  1  0.46798309  0.30596826  0.02972238  1
  O  O19  1  0.84146600  0.54043033  0.02942614  1
  O  O20  1  0.69836902  0.16100102  0.03029657  1
  O  O21  1  0.46647778  0.15493755  0.52549569  1
  O  O22  1  0.69534001  0.53874011  0.52602953  1
  O  O23  1  0.85950153  0.31694956  0.52854982  1
  O  O24  1  0.53932246  0.69094436  0.97611780  1
  O  O25  1  0.15272096  0.45952654  0.97604778  1
  O  O26  1  0.30877892  0.84584423  0.97579313  1
  O  O27  1  0.52595823  0.84676550  0.47233413  1
  O  O28  1  0.31196483  0.46871061  0.47484610  1
  O  O29  1  0.15024344  0.68865539  0.47516182  1
  O  O30  1  0.12834922  0.63554892  0.35811845  1
  O  O31  1  0.50968209  0.87476801  0.35521627  1
  O  O32  1  0.36131327  0.49187271  0.35862696  1
  O  O33  1  0.12908979  0.49066630  0.85894859  1
  O  O34  1  0.36299122  0.87162469  0.85933427  1
  O  O35  1  0.50981818  0.63804532  0.85917125  1
  O  O36  1  0.01358747  0.82782084  0.41053295  1
  O  O37  1  0.80803300  0.97690635  0.41613443  1
  O  O38  1  0.17501354  0.18569084  0.41584968  1
  O  O39  1  0.01750106  0.18434506  0.91319955  1
  O  O40  1  0.16755697  0.98120570  0.91355109  1
  O  O41  1  0.81437598  0.83231373  0.91437394  1
  O  O42  1  0.97707810  0.17969396  0.58365337  1
  O  O43  1  0.18670751  0.02686948  0.58626604  1
  O  O44  1  0.83356077  0.81951354  0.58611077  1
  O  O45  1  0.98542582  0.81969436  0.09217334  1
  O  O46  1  0.83235596  0.01522998  0.09125220  1
  O  O47  1  0.19008910  0.16553862  0.09115579  1
  O  O48  1  0.68870864  0.16606241  0.74705871  1
  O  O49  1  0.47242227  0.31133620  0.75131324  1
  O  O50  1  0.83723558  0.51780453  0.74651251  1
  O  O51  1  0.67542506  0.53916288  0.24915810  1
  O  O52  1  0.83541758  0.32086859  0.24812935  1
  O  O53  1  0.45653297  0.14364861  0.24998834  1
  O  O54  1  0.64638137  0.49836471  0.92297856  1
  O  O55  1  0.85304339  0.35435543  0.92238066  1
  O  O56  1  0.50170381  0.14781534  0.92333407  1
  O  O57  1  0.64572534  0.15030518  0.42069171  1
  O  O58  1  0.50763255  0.36426641  0.42057286  1
  O  O59  1  0.85339567  0.49194583  0.42060428  1
  O  O60  1  0.34853754  0.49605282  0.07994606  1
  O  O61  1  0.15460442  0.65776148  0.07767437  1
  O  O62  1  0.50410966  0.84546071  0.07789104  1
  O  O63  1  0.33619776  0.84295054  0.57823921  1
  O  O64  1  0.49902163  0.65281205  0.57844283  1
  O  O65  1  0.13427148  0.48193387  0.57648466  1
  O  O66  1  0.30582752  0.83874130  0.25139669  1
  O  O67  1  0.53790141  0.70550447  0.25152009  1
  O  O68  1  0.17749045  0.48688924  0.25216459  1
  O  O69  1  0.30269921  0.47913540  0.75295099  1
  O  O70  1  0.17372718  0.69430419  0.75324563  1
  O  O71  1  0.52126274  0.82788500  0.75262618  1
loop_
_geom_bond_atom_site_label_1
_geom_bond_atom_site_label_2
_geom_bond_distance
_geom_bond_site_symmetry_2
Na0 O52 2.360121 1_555
Na0 O16 2.363000 1_555
Na0 O53 2.477883 1_555
Na0 O67 2.644336 1_545
Na0 O66 2.757616 1_545
Na0 O31 2.818260 1_545
Na1 O17 2.325231 1_555
Na1 O51 2.477920 1_555
Na1 O53 2.527770 1_555
Na1 O68 2.576287 1_555
Na1 O67 2.774242 1_555
Na1 O10 2.920450 1_555
Na1 O32 2.984153 1_555
Na2 O15 2.263077 1_555
Na2 O52 2.288252 1_555
Na2 O51 2.561426 1_555
Na2 O68 2.578657 1_655
Na2 O66 2.704893 1_655
Na2 O30 2.912052 1_655
Na3 O49 2.425380 1_555
Na3 O50 2.460168 1_555
Na3 O14 2.463606 1_555
Na3 O71 2.651416 1_555
Na3 O69 2.659471 1_555
Na3 O35 2.858387 1_555
Na4 O50 2.380007 1_555
Na4 O48 2.403584 1_555
Na4 O69 2.601438 1_655
Na4 O70 2.643443 1_655
Na4 O12 2.705790 1_555
Na4 O33 2.719640 1_655
Na5 O48 2.421785 1_555
Na5 O49 2.442226 1_555
Na5 O13 2.483826 1_555
Na5 O71 2.594191 1_545
Na5 O70 2.620568 1_545
Na5 O34 2.831954 1_545
Na6 O43 2.490668 1_555
Na6 O64 2.550057 1_555
Na6 O7 2.559936 1_555
Na6 O65 2.718024 1_555
Na6 O14 2.719935 1_555
Na6 O42 2.799745 1_455
Na6 O28 2.914228 1_555
Na6 O21 2.996180 1_555
Na7 O63 2.445957 1_555
Na7 O44 2.521263 1_455
Na7 O43 2.566386 1_565
Na7 O8 2.666886 1_555
Na7 O65 2.683233 1_555
Na7 O29 2.698104 1_555
Na8 O6 2.461370 1_555
Na8 O64 2.528947 1_555
Na8 O44 2.602643 1_555
Na8 O63 2.606669 1_555
Na8 O42 2.637050 1_565
Na8 O13 2.740273 1_565
Na8 O27 2.987118 1_555
Na9 O61 2.512577 1_555
Na9 O26 2.556477 1_554
Na9 O47 2.565046 1_565
Na9 O62 2.570741 1_555
Na9 O45 2.634335 1_455
Na9 O18 2.881450 1_565
Na9 O16 2.940457 1_565
Na9 O11 2.968686 1_555
Na10 O62 2.532370 1_555
Na10 O24 2.541049 1_554
Na10 O60 2.556989 1_555
Na10 O45 2.601322 1_555
Na10 O46 2.625124 1_565
Na10 O19 2.828571 1_555
Na10 O9 2.948106 1_555
Na11 O61 2.528794 1_555
Na11 O60 2.567080 1_555
Na11 O25 2.578155 1_554
Na11 O46 2.660431 1_455
Na11 O47 2.734812 1_555
Na11 O20 2.862655 1_455
Na11 O10 2.892657 1_555
Na11 O15 2.912045 1_455
Na12 O55 2.524523 1_555
Na12 O41 2.552840 1_555
Na12 O40 2.564489 1_655
Na12 O54 2.569461 1_555
Na12 O4 2.615596 1_555
Na12 O19 2.848366 1_556
Na13 O56 2.532342 1_555
Na13 O39 2.548206 1_655
Na13 O41 2.569726 1_545
Na13 O55 2.570961 1_555
Na13 O5 2.631870 1_555
Na13 O20 2.896471 1_556
Na13 O34 2.942309 1_545
Na14 O54 2.537572 1_555
Na14 O40 2.556416 1_545
Na14 O39 2.568181 1_555
Na14 O56 2.568906 1_555
Na14 O3 2.649517 1_555
Na14 O18 2.881753 1_556
Na14 O35 2.958126 1_555
Na15 O2 2.374403 1_555
Na15 O37 2.473058 1_545
Na15 O38 2.540847 1_655
Na15 O57 2.573342 1_555
Na15 O59 2.593015 1_555
Na16 O38 2.380327 1_555
Na16 O36 2.460395 1_545
Na16 O0 2.657450 1_555
Na16 O57 2.680814 1_555
Na16 O58 2.702235 1_555
Na16 O21 2.736302 1_555
Na17 O36 2.385294 1_655
Na17 O37 2.399116 1_555
Na17 O58 2.601276 1_555
Na17 O59 2.644322 1_555
Na17 O1 2.655661 1_555
Na17 O22 2.729139 1_555
Na18 O37 2.435841 1_455
Na18 O38 2.438236 1_565
Na18 O36 2.445871 1_555
Na18 O43 2.604417 1_565
Na18 O44 2.611283 1_455
Na18 O42 2.754655 1_465
Na19 O41 2.429990 1_455
Na19 O39 2.444195 1_565
Na19 O40 2.445527 1_555
Na19 O45 2.706388 1_456
Na19 O47 2.727052 1_566
Na19 O46 2.732497 1_466
Na20 O49 2.362673 1_555
Na20 O48 2.398591 1_555
Na20 O50 2.400337 1_555
Na20 O55 2.726066 1_555
Na20 O56 2.757089 1_555
Na20 O54 2.760762 1_555
Na21 O52 2.371704 1_555
Na21 O57 2.520687 1_555
Na21 O59 2.522959 1_555
Na21 O53 2.658256 1_555
Na21 O51 2.679602 1_555
Na21 O58 2.703810 1_555
Na22 O61 2.413551 1_555
Na22 O60 2.417113 1_555
Na22 O62 2.497141 1_555
Na22 O68 2.557359 1_555
Na22 O67 2.720032 1_555
Na22 O66 2.720458 1_555
Na23 O71 2.366240 1_555
Na23 O69 2.462207 1_555
Na23 O70 2.481830 1_555
Na23 O64 2.615711 1_555
Na23 O63 2.620777 1_555
Na23 O65 2.846466 1_555
Hf0 O3 1.998311 1_665
Hf0 O5 2.003257 1_565
Hf0 O4 2.018634 1_555
Hf0 O41 2.141753 1_555
Hf0 O40 2.146953 1_655
Hf0 O39 2.155546 1_665
Hf1 O8 1.951989 1_555
Hf1 O7 2.022794 1_565
Hf1 O6 2.027732 1_455
Hf1 O44 2.126924 1_455
Hf1 O43 2.129501 1_565
Hf1 O42 2.356162 1_465
Hf2 O46 1.994489 1_455
Hf2 O47 1.998190 1_555
Hf2 O10 2.001183 1_555
Hf2 O45 2.080566 1_445
Hf2 O11 2.216794 1_545
Hf2 O9 2.249558 1_445
Hf3 O18 2.050184 1_556
Hf3 O20 2.059659 1_556
Hf3 O19 2.064613 1_556
Hf3 O54 2.090757 1_555
Hf3 O56 2.105208 1_555
Hf3 O55 2.106065 1_555
Hf4 O58 2.013116 1_555
Hf4 O21 2.022568 1_555
Hf4 O22 2.028100 1_555
Hf4 O59 2.109715 1_555
Hf4 O57 2.119963 1_555
Hf4 O23 2.242304 1_555
Hf5 O26 2.021325 1_554
Hf5 O24 2.022939 1_554
Hf5 O25 2.025270 1_554
Hf5 O62 2.112500 1_555
Hf5 O61 2.119974 1_555
Hf5 O60 2.147034 1_555
Hf6 O27 1.949870 1_555
Hf6 O28 2.024492 1_555
Hf6 O29 2.039160 1_555
Hf6 O64 2.092667 1_555
Hf6 O63 2.094672 1_555
Hf6 O65 2.271272 1_555
Hf7 O32 1.961513 1_555
Hf7 O30 1.962210 1_555
Hf7 O31 2.040073 1_555
Hf7 O68 2.098422 1_555
Hf7 O66 2.291681 1_555
Hf7 O67 2.322548 1_555
Hf8 O35 2.046459 1_555
Hf8 O34 2.054250 1_555
Hf8 O33 2.058865 1_555
Hf8 O70 2.098918 1_555
Hf8 O69 2.109977 1_555
Hf8 O71 2.117184 1_555
O0 S0 1.459331 1_545
O0 Zn0 2.311675 1_455
O1 S1 1.461929 1_555
O1 Zn0 2.275192 1_565
O2 Si0 1.617350 1_555
O2 Zn0 1.999384 1_555
O3 Si1 1.642248 1_555
O4 Si2 1.646859 1_555
O5 Si3 1.645397 1_555
O6 Si3 1.664079 1_565
O7 Si1 1.660088 1_555
O8 Si2 1.667127 1_455
O9 S1 1.511649 1_555
O10 Si0 1.678294 1_455
O11 S0 1.512006 1_555
O12 S2 1.445032 1_555
O12 Zn1 2.464032 1_555
O13 Si4 1.608233 1_555
O13 Zn1 2.047566 1_555
O14 Si5 1.608260 1_555
O14 Zn1 2.046796 1_555
O15 Si6 1.615687 1_555
O15 Zn2 1.938406 1_555
O16 Si7 1.614902 1_555
O16 Zn2 1.942752 1_555
O17 Si8 1.618520 1_555
O17 Zn2 1.999596 1_555
O18 Si8 1.635927 1_555
O19 Si6 1.641048 1_555
O20 Si7 1.638036 1_555
O21 Si4 1.666380 1_555
O22 Si5 1.667662 1_555
O23 S2 1.498375 1_555
O24 Si9 1.641166 1_555
O25 Si10 1.644479 1_555
O26 Si11 1.642486 1_555
O27 Si12 1.646287 1_555
O28 Si13 1.631774 1_555
O29 Si14 1.637969 1_555
O30 Si14 1.665576 1_555
O31 Si12 1.657844 1_555
O32 Si13 1.659380 1_555
O33 Si10 1.636285 1_555
O34 Si11 1.634853 1_555
O35 Si9 1.632545 1_555
O36 Si14 1.617833 1_555
O36 Zn0 2.131813 1_465
O37 Si12 1.616349 1_555
O37 Zn0 2.061907 1_565
O38 Si13 1.611783 1_555
O38 Zn0 2.066528 1_455
O39 Si10 1.639803 1_555
O40 Si11 1.641129 1_555
O41 Si9 1.640096 1_555
O42 S2 1.501319 1_555
O43 Si4 1.662803 1_555
O44 Si5 1.662287 1_555
O45 Si6 1.657468 1_555
O46 Si7 1.670134 1_555
O47 Si8 1.674923 1_555
O48 Si3 1.612786 1_555
O48 Zn1 2.177699 1_555
O49 Si1 1.615192 1_555
O49 Zn1 2.074087 1_555
O50 Si2 1.609491 1_555
O50 Zn1 2.206647 1_555
O51 S1 1.470098 1_555
O52 Si0 1.635481 1_555
O52 Zn2 2.342828 1_555
O53 S0 1.471133 1_545
O54 Si9 1.638796 1_555
O55 Si10 1.643089 1_655
O56 Si11 1.641723 1_545
O57 Si12 1.645373 1_545
O58 Si13 1.650480 1_555
O59 Si14 1.643177 1_655
O60 Si8 1.641579 1_555
O61 Si6 1.642199 1_455
O62 Si7 1.633549 1_565
O63 Si4 1.663287 1_565
O64 Si5 1.668103 1_555
O65 S2 1.498976 1_455
O66 S0 1.511916 1_555
O67 S1 1.515302 1_555
O68 Si0 1.695957 1_455
O69 Si1 1.644755 1_555
O70 Si2 1.641484 1_455
O71 Si3 1.649246 1_565
