# generated using pymatgen
data_MgTe2Mo3W(Se2S)2
_symmetry_space_group_name_H-M   'P 1'
_cell_length_a   6.67179200
_cell_length_b   6.67268665
_cell_length_c   76.10516201
_cell_angle_alpha   89.99863281
_cell_angle_beta   90.00003976
_cell_angle_gamma   119.99589793
_symmetry_Int_Tables_number   1
_chemical_formula_structural   MgTe2Mo3W(Se2S)2
_chemical_formula_sum   'Mg8 Te16 Mo24 W8 Se32 S16'
_cell_volume   2934.30954005
_cell_formula_units_Z   8
loop_
 _symmetry_equiv_pos_site_id
 _symmetry_equiv_pos_as_xyz
  1  'x, y, z'
loop_
 _atom_site_type_symbol
 _atom_site_label
 _atom_site_symmetry_multiplicity
 _atom_site_fract_x
 _atom_site_fract_y
 _atom_site_fract_z
 _atom_site_occupancy
  Mg  Mg0_0  1  0.16716450  0.29558950  0.43442800  1
  Mg  Mg0_1  1  0.16716450  0.29558950  0.93442800  1
  Mg  Mg0_2  1  0.16716450  0.79558950  0.43442800  1
  Mg  Mg0_3  1  0.16716450  0.79558950  0.93442800  1
  Mg  Mg0_4  1  0.66716450  0.29558950  0.43442800  1
  Mg  Mg0_5  1  0.66716450  0.29558950  0.93442800  1
  Mg  Mg0_6  1  0.66716450  0.79558950  0.43442800  1
  Mg  Mg0_7  1  0.66716450  0.79558950  0.93442800  1
  Te  Te0_0  1  0.33331700  0.16663100  0.02199650  1
  Te  Te0_1  1  0.33331700  0.16663100  0.52199650  1
  Te  Te0_2  1  0.33331700  0.66663100  0.02199650  1
  Te  Te0_3  1  0.33331700  0.66663100  0.52199650  1
  Te  Te0_4  1  0.83331700  0.16663100  0.02199650  1
  Te  Te0_5  1  0.83331700  0.16663100  0.52199650  1
  Te  Te0_6  1  0.83331700  0.66663100  0.02199650  1
  Te  Te0_7  1  0.83331700  0.66663100  0.52199650  1
  Te  Te1_0  1  0.33331400  0.16662650  0.07191100  1
  Te  Te1_1  1  0.33331400  0.16662650  0.57191100  1
  Te  Te1_2  1  0.33331400  0.66662650  0.07191100  1
  Te  Te1_3  1  0.33331400  0.66662650  0.57191100  1
  Te  Te1_4  1  0.83331400  0.16662650  0.07191100  1
  Te  Te1_5  1  0.83331400  0.16662650  0.57191100  1
  Te  Te1_6  1  0.83331400  0.66662650  0.07191100  1
  Te  Te1_7  1  0.83331400  0.66662650  0.57191100  1
  Mo  Mo0_0  1  0.16665400  0.33330700  0.04693150  1
  Mo  Mo0_1  1  0.16665400  0.33330700  0.54693150  1
  Mo  Mo0_2  1  0.16665400  0.83330700  0.04693150  1
  Mo  Mo0_3  1  0.16665400  0.83330700  0.54693150  1
  Mo  Mo0_4  1  0.66665400  0.33330700  0.04693150  1
  Mo  Mo0_5  1  0.66665400  0.33330700  0.54693150  1
  Mo  Mo0_6  1  0.66665400  0.83330700  0.04693150  1
  Mo  Mo0_7  1  0.66665400  0.83330700  0.54693150  1
  Mo  Mo1_0  1  0.16665400  0.33330400  0.23482900  1
  Mo  Mo1_1  1  0.16665400  0.33330400  0.73482900  1
  Mo  Mo1_2  1  0.16665400  0.83330400  0.23482900  1
  Mo  Mo1_3  1  0.16665400  0.83330400  0.73482900  1
  Mo  Mo1_4  1  0.66665400  0.33330400  0.23482900  1
  Mo  Mo1_5  1  0.66665400  0.33330400  0.73482900  1
  Mo  Mo1_6  1  0.66665400  0.83330400  0.23482900  1
  Mo  Mo1_7  1  0.66665400  0.83330400  0.73482900  1
  Mo  Mo2_0  1  0.33332400  0.16664100  0.14090800  1
  Mo  Mo2_1  1  0.33332400  0.16664100  0.64090800  1
  Mo  Mo2_2  1  0.33332400  0.66664100  0.14090800  1
  Mo  Mo2_3  1  0.33332400  0.66664100  0.64090800  1
  Mo  Mo2_4  1  0.83332400  0.16664100  0.14090800  1
  Mo  Mo2_5  1  0.83332400  0.16664100  0.64090800  1
  Mo  Mo2_6  1  0.83332400  0.66664100  0.14090800  1
  Mo  Mo2_7  1  0.83332400  0.66664100  0.64090800  1
  W  W0_0  1  0.33334600  0.16669100  0.32878100  1
  W  W0_1  1  0.33334600  0.16669100  0.82878100  1
  W  W0_2  1  0.33334600  0.66669100  0.32878100  1
  W  W0_3  1  0.33334600  0.66669100  0.82878100  1
  W  W0_4  1  0.83334600  0.16669100  0.32878100  1
  W  W0_5  1  0.83334600  0.16669100  0.82878100  1
  W  W0_6  1  0.83334600  0.66669100  0.32878100  1
  W  W0_7  1  0.83334600  0.66669100  0.82878100  1
  Se  Se0_0  1  0.16668050  0.33336050  0.35080400  1
  Se  Se0_1  1  0.16668050  0.33336050  0.85080400  1
  Se  Se0_2  1  0.16668050  0.83336050  0.35080400  1
  Se  Se0_3  1  0.16668050  0.83336050  0.85080400  1
  Se  Se0_4  1  0.66668050  0.33336050  0.35080400  1
  Se  Se0_5  1  0.66668050  0.33336050  0.85080400  1
  Se  Se0_6  1  0.66668050  0.83336050  0.35080400  1
  Se  Se0_7  1  0.66668050  0.83336050  0.85080400  1
  Se  Se1_0  1  0.33332200  0.16664150  0.21289650  1
  Se  Se1_1  1  0.33332200  0.16664150  0.71289650  1
  Se  Se1_2  1  0.33332200  0.66664150  0.21289650  1
  Se  Se1_3  1  0.33332200  0.66664150  0.71289650  1
  Se  Se1_4  1  0.83332200  0.16664150  0.21289650  1
  Se  Se1_5  1  0.83332200  0.16664150  0.71289650  1
  Se  Se1_6  1  0.83332200  0.66664150  0.21289650  1
  Se  Se1_7  1  0.83332200  0.66664150  0.71289650  1
  Se  Se2_0  1  0.33333350  0.16666400  0.25675850  1
  Se  Se2_1  1  0.33333350  0.16666400  0.75675850  1
  Se  Se2_2  1  0.33333350  0.66666400  0.25675850  1
  Se  Se2_3  1  0.33333350  0.66666400  0.75675850  1
  Se  Se2_4  1  0.83333350  0.16666400  0.25675850  1
  Se  Se2_5  1  0.83333350  0.16666400  0.75675850  1
  Se  Se2_6  1  0.83333350  0.66666400  0.25675850  1
  Se  Se2_7  1  0.83333350  0.66666400  0.75675850  1
  Se  Se3_0  1  0.16669000  0.33337900  0.30673850  1
  Se  Se3_1  1  0.16669000  0.33337900  0.80673850  1
  Se  Se3_2  1  0.16669000  0.83337900  0.30673850  1
  Se  Se3_3  1  0.16669000  0.83337900  0.80673850  1
  Se  Se3_4  1  0.66669000  0.33337900  0.30673850  1
  Se  Se3_5  1  0.66669000  0.33337900  0.80673850  1
  Se  Se3_6  1  0.66669000  0.83337900  0.30673850  1
  Se  Se3_7  1  0.66669000  0.83337900  0.80673850  1
  S  S0_0  1  0.16668650  0.33337500  0.16086100  1
  S  S0_1  1  0.16668650  0.33337500  0.66086100  1
  S  S0_2  1  0.16668650  0.83337500  0.16086100  1
  S  S0_3  1  0.16668650  0.83337500  0.66086100  1
  S  S0_4  1  0.66668650  0.33337500  0.16086100  1
  S  S0_5  1  0.66668650  0.33337500  0.66086100  1
  S  S0_6  1  0.66668650  0.83337500  0.16086100  1
  S  S0_7  1  0.66668650  0.83337500  0.66086100  1
  S  S1_0  1  0.16668850  0.33337600  0.12095600  1
  S  S1_1  1  0.16668850  0.33337600  0.62095600  1
  S  S1_2  1  0.16668850  0.83337600  0.12095600  1
  S  S1_3  1  0.16668850  0.83337600  0.62095600  1
  S  S1_4  1  0.66668850  0.33337600  0.12095600  1
  S  S1_5  1  0.66668850  0.33337600  0.62095600  1
  S  S1_6  1  0.66668850  0.83337600  0.12095600  1
  S  S1_7  1  0.66668850  0.83337600  0.62095600  1
loop_
_geom_bond_atom_site_label_1
_geom_bond_atom_site_label_2
_geom_bond_distance
_geom_bond_site_symmetry_2
Mg0_0 Mg0_4 3.335896 1_455
Mg0_0 Mg0_4 3.335896 1_555
Mg0_0 Mg0_6 3.336327 1_555
Mg0_0 Mg0_6 3.336327 1_445
Mg0_0 Mg0_2 3.336343 1_555
Mg0_0 Mg0_2 3.336343 1_545
Mg0_1 Mg0_5 3.335896 1_555
Mg0_1 Mg0_5 3.335896 1_455
Mg0_1 Mg0_7 3.336327 1_555
Mg0_1 Mg0_7 3.336327 1_445
Mg0_1 Mg0_3 3.336343 1_545
Mg0_1 Mg0_3 3.336343 1_555
Mg0_2 Mg0_6 3.335896 1_455
Mg0_2 Mg0_6 3.335896 1_555
Mg0_2 Mg0_4 3.336327 1_455
Mg0_2 Mg0_4 3.336327 1_565
Mg0_3 Mg0_7 3.335896 1_455
Mg0_3 Mg0_7 3.335896 1_555
Mg0_3 Mg0_5 3.336327 1_565
Mg0_3 Mg0_5 3.336327 1_455
Mg0_4 Mg0_6 3.336343 1_545
Mg0_4 Mg0_6 3.336343 1_555
Mg0_5 Mg0_7 3.336343 1_555
Mg0_5 Mg0_7 3.336343 1_545
Mo0_0 Te0_4 2.703901 1_455
Mo0_0 Te0_0 2.703918 1_555
Mo0_0 Te0_2 2.703977 1_555
Mo0_0 Te1_4 2.706256 1_455
Mo0_0 Te1_0 2.706264 1_555
Mo0_0 Te1_2 2.706410 1_555
Mo0_1 Te0_5 2.703901 1_455
Mo0_1 Te0_1 2.703918 1_555
Mo0_1 Te0_3 2.703977 1_555
Mo0_1 Te1_5 2.706256 1_455
Mo0_1 Te1_1 2.706264 1_555
Mo0_1 Te1_3 2.706410 1_555
Mo0_2 Te0_6 2.703901 1_455
Mo0_2 Te0_2 2.703918 1_555
Mo0_2 Te0_0 2.703977 1_565
Mo0_2 Te1_6 2.706256 1_455
Mo0_2 Te1_2 2.706264 1_555
Mo0_2 Te1_0 2.706410 1_565
Mo0_3 Te0_7 2.703901 1_455
Mo0_3 Te0_3 2.703918 1_555
Mo0_3 Te0_1 2.703977 1_565
Mo0_3 Te1_7 2.706256 1_455
Mo0_3 Te1_3 2.706264 1_555
Mo0_3 Te1_1 2.706410 1_565
Mo0_4 Te0_0 2.703901 1_555
Mo0_4 Te0_4 2.703918 1_555
Mo0_4 Te0_6 2.703977 1_555
Mo0_4 Te1_0 2.706256 1_555
Mo0_4 Te1_4 2.706264 1_555
Mo0_4 Te1_6 2.706410 1_555
Mo0_5 Te0_1 2.703901 1_555
Mo0_5 Te0_5 2.703918 1_555
Mo0_5 Te0_7 2.703977 1_555
Mo0_5 Te1_1 2.706256 1_555
Mo0_5 Te1_5 2.706264 1_555
Mo0_5 Te1_7 2.706410 1_555
Mo0_6 Te0_2 2.703901 1_555
Mo0_6 Te0_6 2.703918 1_555
Mo0_6 Te0_4 2.703977 1_565
Mo0_6 Te1_2 2.706256 1_555
Mo0_6 Te1_6 2.706264 1_555
Mo0_6 Te1_4 2.706410 1_565
Mo0_7 Te0_3 2.703901 1_555
Mo0_7 Te0_7 2.703918 1_555
Mo0_7 Te0_5 2.703977 1_565
Mo0_7 Te1_3 2.706256 1_555
Mo0_7 Te1_7 2.706264 1_555
Mo0_7 Te1_5 2.706410 1_565
Mo1_0 Se2_4 2.548475 1_455
Mo1_0 Se2_0 2.548477 1_555
Mo1_0 Se1_4 2.548708 1_455
Mo1_0 Se1_0 2.548710 1_555
Mo1_0 Se1_2 2.548876 1_555
Mo1_0 Se2_2 2.548894 1_555
Mo1_1 Se2_5 2.548475 1_455
Mo1_1 Se2_1 2.548477 1_555
Mo1_1 Se1_5 2.548708 1_455
Mo1_1 Se1_1 2.548710 1_555
Mo1_1 Se1_3 2.548876 1_555
Mo1_1 Se2_3 2.548894 1_555
Mo1_2 Se2_6 2.548475 1_455
Mo1_2 Se2_2 2.548477 1_555
Mo1_2 Se1_6 2.548708 1_455
Mo1_2 Se1_2 2.548710 1_555
Mo1_2 Se1_0 2.548876 1_565
Mo1_2 Se2_0 2.548894 1_565
Mo1_3 Se2_7 2.548475 1_455
Mo1_3 Se2_3 2.548477 1_555
Mo1_3 Se1_7 2.548708 1_455
Mo1_3 Se1_3 2.548710 1_555
Mo1_3 Se1_1 2.548876 1_565
Mo1_3 Se2_1 2.548894 1_565
Mo1_4 Se2_0 2.548475 1_555
Mo1_4 Se2_4 2.548477 1_555
Mo1_4 Se1_0 2.548708 1_555
Mo1_4 Se1_4 2.548710 1_555
Mo1_4 Se1_6 2.548876 1_555
Mo1_4 Se2_6 2.548894 1_555
Mo1_5 Se2_1 2.548475 1_555
Mo1_5 Se2_5 2.548477 1_555
Mo1_5 Se1_1 2.548708 1_555
Mo1_5 Se1_5 2.548710 1_555
Mo1_5 Se1_7 2.548876 1_555
Mo1_5 Se2_7 2.548894 1_555
Mo1_6 Se2_2 2.548475 1_555
Mo1_6 Se2_6 2.548477 1_555
Mo1_6 Se1_2 2.548708 1_555
Mo1_6 Se1_6 2.548710 1_555
Mo1_6 Se1_4 2.548876 1_565
Mo1_6 Se2_4 2.548894 1_565
Mo1_7 Se2_3 2.548475 1_555
Mo1_7 Se2_7 2.548477 1_555
Mo1_7 Se1_3 2.548708 1_555
Mo1_7 Se1_7 2.548710 1_555
Mo1_7 Se1_5 2.548876 1_565
Mo1_7 Se2_5 2.548894 1_565
Mo2_0 S0_2 2.452543 1_545
Mo2_0 S1_2 2.452556 1_545
Mo2_0 S1_4 2.452757 1_555
Mo2_0 S1_0 2.452790 1_555
Mo2_0 S0_4 2.452826 1_555
Mo2_0 S0_0 2.452876 1_555
Mo2_1 S0_3 2.452543 1_545
Mo2_1 S1_3 2.452556 1_545
Mo2_1 S1_5 2.452757 1_555
Mo2_1 S1_1 2.452790 1_555
Mo2_1 S0_5 2.452826 1_555
Mo2_1 S0_1 2.452876 1_555
Mo2_2 S0_0 2.452543 1_555
Mo2_2 S1_0 2.452556 1_555
Mo2_2 S1_6 2.452757 1_555
Mo2_2 S1_2 2.452790 1_555
Mo2_2 S0_6 2.452826 1_555
Mo2_2 S0_2 2.452876 1_555
Mo2_3 S0_1 2.452543 1_555
Mo2_3 S1_1 2.452556 1_555
Mo2_3 S1_7 2.452757 1_555
Mo2_3 S1_3 2.452790 1_555
Mo2_3 S0_7 2.452826 1_555
Mo2_3 S0_3 2.452876 1_555
Mo2_4 S0_6 2.452543 1_545
Mo2_4 S1_6 2.452556 1_545
Mo2_4 S1_0 2.452757 1_655
Mo2_4 S1_4 2.452790 1_555
Mo2_4 S0_0 2.452826 1_655
Mo2_4 S0_4 2.452876 1_555
Mo2_5 S0_7 2.452543 1_545
Mo2_5 S1_7 2.452556 1_545
Mo2_5 S1_1 2.452757 1_655
Mo2_5 S1_5 2.452790 1_555
Mo2_5 S0_1 2.452826 1_655
Mo2_5 S0_5 2.452876 1_555
Mo2_6 S0_4 2.452543 1_555
Mo2_6 S1_4 2.452556 1_555
Mo2_6 S1_2 2.452757 1_655
Mo2_6 S1_6 2.452790 1_555
Mo2_6 S0_2 2.452826 1_655
Mo2_6 S0_6 2.452876 1_555
Mo2_7 S0_5 2.452543 1_555
Mo2_7 S1_5 2.452556 1_555
Mo2_7 S1_3 2.452757 1_655
Mo2_7 S1_7 2.452790 1_555
Mo2_7 S0_3 2.452826 1_655
Mo2_7 S0_7 2.452876 1_555
Se0_0 W0_4 2.553235 1_455
Se0_0 W0_0 2.553246 1_555
Se0_0 W0_2 2.553361 1_555
Se0_1 W0_5 2.553235 1_455
Se0_1 W0_1 2.553246 1_555
Se0_1 W0_3 2.553361 1_555
Se0_2 W0_6 2.553235 1_455
Se0_2 W0_2 2.553246 1_555
Se0_2 W0_0 2.553361 1_565
Se0_3 W0_7 2.553235 1_455
Se0_3 W0_3 2.553246 1_555
Se0_3 W0_1 2.553361 1_565
Se0_4 W0_0 2.553235 1_555
Se0_4 W0_4 2.553246 1_555
Se0_4 W0_6 2.553361 1_555
Se0_5 W0_1 2.553235 1_555
Se0_5 W0_5 2.553246 1_555
Se0_5 W0_7 2.553361 1_555
Se0_6 W0_2 2.553235 1_555
Se0_6 W0_6 2.553246 1_555
Se0_6 W0_4 2.553361 1_565
Se0_7 W0_3 2.553235 1_555
Se0_7 W0_7 2.553246 1_555
Se0_7 W0_5 2.553361 1_565
Se3_0 W0_4 2.554218 1_455
Se3_0 W0_0 2.554224 1_555
Se3_0 W0_2 2.554324 1_555
Se3_1 W0_5 2.554218 1_455
Se3_1 W0_1 2.554224 1_555
Se3_1 W0_3 2.554324 1_555
Se3_2 W0_6 2.554218 1_455
Se3_2 W0_2 2.554224 1_555
Se3_2 W0_0 2.554324 1_565
Se3_3 W0_7 2.554218 1_455
Se3_3 W0_3 2.554224 1_555
Se3_3 W0_1 2.554324 1_565
Se3_4 W0_0 2.554218 1_555
Se3_4 W0_4 2.554224 1_555
Se3_4 W0_6 2.554324 1_555
Se3_5 W0_1 2.554218 1_555
Se3_5 W0_5 2.554224 1_555
Se3_5 W0_7 2.554324 1_555
Se3_6 W0_2 2.554218 1_555
Se3_6 W0_6 2.554224 1_555
Se3_6 W0_4 2.554324 1_565
Se3_7 W0_3 2.554218 1_555
Se3_7 W0_7 2.554224 1_555
Se3_7 W0_5 2.554324 1_565
