# generated using pymatgen
data_TaAl3SiS5O24
_symmetry_space_group_name_H-M   'P 1'
_cell_length_a   8.43010384
_cell_length_b   8.45310287
_cell_length_c   21.89404305
_cell_angle_alpha   90.17368145
_cell_angle_beta   90.06430133
_cell_angle_gamma   119.97912038
_symmetry_Int_Tables_number   1
_chemical_formula_structural   TaAl3SiS5O24
_chemical_formula_sum   'Ta3 Al9 Si3 S15 O72'
_cell_volume   1351.42828792
_cell_formula_units_Z   3
loop_
 _symmetry_equiv_pos_site_id
 _symmetry_equiv_pos_as_xyz
  1  'x, y, z'
loop_
 _atom_site_type_symbol
 _atom_site_label
 _atom_site_symmetry_multiplicity
 _atom_site_fract_x
 _atom_site_fract_y
 _atom_site_fract_z
 _atom_site_occupancy
  Ta  Ta0  1  0.67181110  0.33807314  0.97505262  1
  Ta  Ta1  1  0.33266439  0.67249879  0.30697518  1
  Ta  Ta2  1  0.32908516  0.65587131  0.81096988  1
  Al  Al0  1  0.01066425  0.00449060  0.35274707  1
  Al  Al1  1  0.99455946  0.99911917  0.85848515  1
  Al  Al2  1  0.99844125  0.99892674  0.64400833  1
  Al  Al3  1  0.00592257  0.99616588  0.14362090  1
  Al  Al4  1  0.66855463  0.33435975  0.68625996  1
  Al  Al5  1  0.65792270  0.32471513  0.18728104  1
  Al  Al6  1  0.66514350  0.33247579  0.48126263  1
  Al  Al7  1  0.33886497  0.65880601  0.02190461  1
  Al  Al8  1  0.33336738  0.66543873  0.52238461  1
  Si  Si0  1  0.28638885  0.02250867  0.24771534  1
  Si  Si1  1  0.62708365  0.68273315  0.92057282  1
  Si  Si2  1  0.05797601  0.37344678  0.92025848  1
  S  S0  1  0.72645531  0.71509878  0.24866145  1
  S  S1  1  0.98795575  0.27475735  0.24881612  1
  S  S2  1  0.28733883  0.27466591  0.74656061  1
  S  S3  1  0.99174772  0.71494438  0.74653892  1
  S  S4  1  0.72101816  0.01078414  0.74644458  1
  S  S5  1  0.95469652  0.33342017  0.58317555  1
  S  S6  1  0.37879079  0.04505761  0.58321371  1
  S  S7  1  0.66651384  0.62094346  0.58332264  1
  S  S8  1  0.95996460  0.62533971  0.08696666  1
  S  S9  1  0.66604115  0.03727525  0.08628768  1
  S  S10  1  0.37307960  0.33436217  0.08633344  1
  S  S11  1  0.32368228  0.94599987  0.91806582  1
  S  S12  1  0.62837230  0.95929797  0.41954321  1
  S  S13  1  0.33274852  0.37428988  0.42010884  1
  S  S14  1  0.03931535  0.66554524  0.42018465  1
  O  O0  1  0.19772052  0.03735320  0.31090572  1
  O  O1  1  0.82801425  0.79680038  0.30574860  1
  O  O2  1  0.95724415  0.16821215  0.30527384  1
  O  O3  1  0.20877496  0.16752647  0.80156883  1
  O  O4  1  0.96634874  0.79664431  0.80184786  1
  O  O5  1  0.83150967  0.03969102  0.80118264  1
  O  O6  1  0.80094947  0.97384731  0.69173410  1
  O  O7  1  0.17060385  0.19527366  0.69204471  1
  O  O8  1  0.02375728  0.82935571  0.69189096  1
  O  O9  1  0.79303840  0.83239337  0.19517324  1
  O  O10  1  0.02770654  0.19989100  0.19498335  1
  O  O11  1  0.15379146  0.96284268  0.19009747  1
  O  O12  1  0.87263519  0.36970289  0.63743326  1
  O  O13  1  0.49706703  0.12785881  0.63759427  1
  O  O14  1  0.63088376  0.50331054  0.63749986  1
  O  O15  1  0.87032405  0.50497048  0.13979127  1
  O  O16  1  0.63931361  0.12987789  0.13935410  1
  O  O17  1  0.49546715  0.36715978  0.13912536  1
  O  O18  1  0.45362401  0.29621673  0.03132354  1
  O  O19  1  0.84061245  0.53767188  0.03116260  1
  O  O20  1  0.70110613  0.15327869  0.03081631  1
  O  O21  1  0.46123253  0.16272510  0.52885895  1
  O  O22  1  0.70225164  0.53854758  0.52880294  1
  O  O23  1  0.83616558  0.29765236  0.52868346  1
  O  O24  1  0.53519848  0.71453560  0.97827430  1
  O  O25  1  0.16992831  0.47531486  0.97913020  1
  O  O26  1  0.29377624  0.83861974  0.97243868  1
  O  O27  1  0.54069130  0.83846443  0.47244259  1
  O  O28  1  0.30275838  0.46503716  0.47349211  1
  O  O29  1  0.16283390  0.70017766  0.47292252  1
  O  O30  1  0.12250630  0.62894099  0.36462463  1
  O  O31  1  0.50808369  0.87561422  0.36399900  1
  O  O32  1  0.36965796  0.49033020  0.36485211  1
  O  O33  1  0.12916337  0.50552157  0.85734564  1
  O  O34  1  0.36823864  0.87385786  0.86134175  1
  O  O35  1  0.49700125  0.63416838  0.85760777  1
  O  O36  1  0.01847920  0.82514566  0.41027598  1
  O  O37  1  0.80701910  0.97576555  0.40749790  1
  O  O38  1  0.16587248  0.19661760  0.41159268  1
  O  O39  1  0.04327724  0.18764774  0.90258719  1
  O  O40  1  0.16846838  0.96908765  0.90498935  1
  O  O41  1  0.82375300  0.83655264  0.90325265  1
  O  O42  1  0.97454774  0.17117983  0.59262869  1
  O  O43  1  0.19639806  0.02553572  0.59264501  1
  O  O44  1  0.82916187  0.80319689  0.59257737  1
  O  O45  1  0.96440661  0.80075193  0.09164576  1
  O  O46  1  0.82989540  0.01984477  0.09528803  1
  O  O47  1  0.19056814  0.17286222  0.09328744  1
  O  O48  1  0.70017852  0.17259335  0.73713956  1
  O  O49  1  0.47263381  0.30249345  0.73748634  1
  O  O50  1  0.83138474  0.53079268  0.73778344  1
  O  O51  1  0.70545423  0.53567121  0.23984004  1
  O  O52  1  0.83885608  0.31158567  0.24025770  1
  O  O53  1  0.49094717  0.18245759  0.23896295  1
  O  O54  1  0.62865098  0.48980378  0.92697182  1
  O  O55  1  0.85332884  0.35100895  0.92587639  1
  O  O56  1  0.49026865  0.12822031  0.92505304  1
  O  O57  1  0.64302570  0.13862398  0.42860646  1
  O  O58  1  0.49595332  0.35539249  0.42969637  1
  O  O59  1  0.86032541  0.49941499  0.42900656  1
  O  O60  1  0.35973470  0.49938013  0.07951299  1
  O  O61  1  0.14069916  0.64740080  0.07773986  1
  O  O62  1  0.49907820  0.86094035  0.07814759  1
  O  O63  1  0.36038226  0.86316470  0.57303595  1
  O  O64  1  0.50312682  0.64013804  0.57343275  1
  O  O65  1  0.13660640  0.49694205  0.57333156  1
  O  O66  1  0.30694307  0.83245321  0.26017742  1
  O  O67  1  0.53500469  0.68945772  0.25886666  1
  O  O68  1  0.16092372  0.45969742  0.25911589  1
  O  O69  1  0.30466060  0.46072219  0.75182994  1
  O  O70  1  0.15943793  0.69852569  0.75186285  1
  O  O71  1  0.53439693  0.84813290  0.75290677  1
loop_
_geom_bond_atom_site_label_1
_geom_bond_atom_site_label_2
_geom_bond_distance
_geom_bond_site_symmetry_2
Al0 O0 1.723369 1_555
Al0 O1 1.948295 1_445
Al0 O2 1.956776 1_455
Al0 O38 1.967070 1_555
Al0 O36 2.000077 1_545
Al0 O37 2.008209 1_445
Al1 O41 1.719390 1_555
Al1 O39 1.725228 1_665
Al1 O40 1.902794 1_655
Al1 O5 2.012652 1_565
Al1 O4 2.025653 1_555
Al1 O3 2.070548 1_665
Al2 O8 1.874444 1_655
Al2 O7 1.883055 1_665
Al2 O6 1.887091 1_555
Al2 O44 1.915036 1_555
Al2 O42 1.930975 1_565
Al2 O43 1.931505 1_665
Al3 O11 1.737373 1_555
Al3 O45 1.885732 1_455
Al3 O47 1.886433 1_565
Al3 O46 1.912195 1_465
Al3 O10 1.983860 1_565
Al3 O9 1.985523 1_455
Al4 O48 1.885397 1_555
Al4 O49 1.902552 1_555
Al4 O50 1.902952 1_555
Al4 O12 1.919451 1_555
Al4 O13 1.932764 1_555
Al4 O14 1.934398 1_555
Al5 O53 1.740115 1_555
Al5 O16 1.889221 1_555
Al5 O17 1.898950 1_555
Al5 O52 1.962170 1_555
Al5 O15 1.973853 1_555
Al5 O51 1.984212 1_555
Al6 O58 1.902707 1_555
Al6 O21 1.909941 1_555
Al6 O22 1.912930 1_555
Al6 O23 1.914628 1_555
Al6 O59 1.923857 1_555
Al6 O57 1.931771 1_555
Al7 O25 1.758324 1_554
Al7 O24 1.760930 1_554
Al7 O60 1.919551 1_555
Al7 O62 1.984243 1_555
Al7 O61 2.034406 1_555
Al7 O26 2.052847 1_554
Al8 O28 1.906223 1_555
Al8 O64 1.909616 1_555
Al8 O65 1.917538 1_555
Al8 O63 1.919122 1_555
Al8 O29 1.935464 1_555
Al8 O27 1.961834 1_555
O0 Si0 1.607338 1_555
O1 S0 1.474311 1_555
O2 S1 1.476661 1_555
O3 S2 1.455435 1_555
O4 S3 1.460293 1_555
O5 S4 1.460078 1_555
O6 S4 1.481938 1_565
O7 S2 1.475103 1_555
O8 S3 1.478721 1_455
O9 S0 1.456669 1_555
O10 S1 1.452665 1_455
O11 Si0 1.588957 1_565
O12 S5 1.481709 1_555
O13 S6 1.482046 1_555
O14 S7 1.481694 1_555
O15 S8 1.478046 1_555
O16 S9 1.478078 1_555
O17 S10 1.478787 1_555
O18 S10 1.494606 1_555
O18 Ta0 2.093687 1_554
O19 S8 1.516857 1_555
O19 Ta0 1.991214 1_554
O20 S9 1.497422 1_555
O20 Ta0 2.094779 1_554
O21 S6 1.485514 1_555
O22 S7 1.485317 1_555
O23 S5 1.485415 1_555
O24 Si1 1.573688 1_555
O25 Si2 1.572239 1_555
O26 S11 1.443313 1_555
O27 S12 1.478383 1_555
O28 S13 1.485743 1_555
O29 S14 1.481138 1_555
O30 S14 1.511218 1_555
O30 Ta1 2.055080 1_555
O31 S12 1.510861 1_555
O31 Ta1 2.034435 1_555
O32 S13 1.491846 1_555
O32 Ta1 2.136605 1_555
O33 Si2 1.686850 1_555
O33 Ta2 1.832398 1_555
O34 S11 1.510200 1_555
O34 Ta2 2.024761 1_555
O35 Si1 1.677731 1_555
O35 Ta2 1.826879 1_555
O36 S14 1.461695 1_555
O37 S12 1.465811 1_555
O38 S13 1.468222 1_555
O39 Si2 1.559961 1_555
O40 S11 1.444593 1_555
O41 Si1 1.559887 1_555
O42 S5 1.477389 1_555
O43 S6 1.476955 1_555
O44 S7 1.476814 1_555
O45 S8 1.467688 1_555
O46 S9 1.473606 1_555
O47 S10 1.468609 1_555
O48 S4 1.478164 1_555
O49 S2 1.472614 1_555
O50 S3 1.477166 1_555
O51 S0 1.448751 1_555
O52 S1 1.450091 1_555
O53 Si0 1.584531 1_555
O54 Si1 1.643896 1_555
O54 Ta0 1.832831 1_555
O55 Si2 1.643476 1_655
O55 Ta0 1.830277 1_555
O56 S11 1.484754 1_545
O56 Ta0 1.989634 1_555
O57 S12 1.470869 1_545
O58 S13 1.477055 1_555
O59 S14 1.473383 1_655
O60 S10 1.462461 1_555
O61 S8 1.453941 1_455
O62 S9 1.461445 1_565
O63 S6 1.482300 1_565
O64 S7 1.480961 1_555
O65 S5 1.480860 1_455
O66 Si0 1.722280 1_565
O66 Ta1 1.796081 1_555
O67 S0 1.534027 1_555
O67 Ta1 1.949391 1_555
O68 S1 1.529709 1_455
O68 Ta1 1.952519 1_555
O69 S2 1.509149 1_555
O69 Ta2 2.021676 1_555
O70 S3 1.492329 1_455
O70 Ta2 2.089018 1_555
O71 S4 1.491795 1_565
O71 Ta2 2.111715 1_555
