# generated using pymatgen
data_Na10Hf2Zn6Si3(S3O16)3
_symmetry_space_group_name_H-M   'P 1'
_cell_length_a   17.99097250
_cell_length_b   9.02543517
_cell_length_c   22.53430721
_cell_angle_alpha   90.25657725
_cell_angle_beta   89.82291317
_cell_angle_gamma   119.95953862
_symmetry_Int_Tables_number   1
_chemical_formula_structural   Na10Hf2Zn6Si3(S3O16)3
_chemical_formula_sum   'Na30 Hf6 Zn18 Si9 S27 O144'
_cell_volume   3170.07831885
_cell_formula_units_Z   3
loop_
 _symmetry_equiv_pos_site_id
 _symmetry_equiv_pos_as_xyz
  1  'x, y, z'
loop_
 _atom_site_type_symbol
 _atom_site_label
 _atom_site_symmetry_multiplicity
 _atom_site_fract_x
 _atom_site_fract_y
 _atom_site_fract_z
 _atom_site_occupancy
  Na  Na0  1  0.31772836  0.00479738  0.24501951  1
  Na  Na1  1  0.18913045  0.35916902  0.24950946  1
  Na  Na2  1  0.49748373  0.63203632  0.25382979  1
  Na  Na3  1  0.31007128  0.62037024  0.74267914  1
  Na  Na4  1  0.81721108  0.63130382  0.74431141  1
  Na  Na5  1  0.00048815  0.35857354  0.75253635  1
  Na  Na6  1  0.18428423  0.01417547  0.75551024  1
  Na  Na7  1  0.68953048  0.02022782  0.74946059  1
  Na  Na8  1  0.16065297  0.34951425  0.58644507  1
  Na  Na9  1  0.82770976  0.69754641  0.07968390  1
  Na  Na10  1  0.48180114  0.65829272  0.91802780  1
  Na  Na11  1  0.35201232  0.03989675  0.91711492  1
  Na  Na12  1  0.85428735  0.03966474  0.92040605  1
  Na  Na13  1  0.66193939  0.30179113  0.91812375  1
  Na  Na14  1  0.98005425  0.30214140  0.41644153  1
  Na  Na15  1  0.16054164  0.02117429  0.41651518  1
  Na  Na16  1  0.35459719  0.66760861  0.42116741  1
  Na  Na17  1  0.85136329  0.66301276  0.41597643  1
  Na  Na18  1  0.99383863  0.97571154  0.49684796  1
  Na  Na19  1  0.50372732  0.00198791  0.49696047  1
  Na  Na20  1  0.00911748  0.01815518  0.99577813  1
  Na  Na21  1  0.50028552  0.01276897  0.99705563  1
  Na  Na22  1  0.32779215  0.32847234  0.83452633  1
  Na  Na23  1  0.83555337  0.33486673  0.83055775  1
  Na  Na24  1  0.33549238  0.33500992  0.33044948  1
  Na  Na25  1  0.82815109  0.32949568  0.33233891  1
  Na  Na26  1  0.16393832  0.67191605  0.16025566  1
  Na  Na27  1  0.67522048  0.68992952  0.16246069  1
  Na  Na28  1  0.17330731  0.66823566  0.66118598  1
  Na  Na29  1  0.66466293  0.65559229  0.65977922  1
  Hf  Hf0  1  0.99640451  0.00290407  0.65049753  1
  Hf  Hf1  1  0.50149060  0.00585324  0.64420558  1
  Hf  Hf2  1  0.00028048  0.00171937  0.14707122  1
  Hf  Hf3  1  0.49752080  0.99560151  0.14876824  1
  Hf  Hf4  1  0.16144953  0.66994141  0.31312364  1
  Hf  Hf5  1  0.66207290  0.65313000  0.81408789  1
  Zn  Zn0  1  0.00318527  0.97146332  0.34633739  1
  Zn  Zn1  1  0.50296045  0.99805292  0.34757660  1
  Zn  Zn2  1  0.00562553  0.02297812  0.84433848  1
  Zn  Zn3  1  0.50643042  0.03644538  0.84779819  1
  Zn  Zn4  1  0.32848913  0.34671072  0.67723930  1
  Zn  Zn5  1  0.82701299  0.31859041  0.68365539  1
  Zn  Zn6  1  0.32756234  0.33581271  0.18409231  1
  Zn  Zn7  1  0.83072335  0.31352502  0.17672098  1
  Zn  Zn8  1  0.33275584  0.32954545  0.98337275  1
  Zn  Zn9  1  0.84257224  0.32641815  0.99446991  1
  Zn  Zn10  1  0.34604627  0.35671056  0.49279119  1
  Zn  Zn11  1  0.83186808  0.33539945  0.48258468  1
  Zn  Zn12  1  0.16473661  0.66416756  0.01376831  1
  Zn  Zn13  1  0.66279082  0.66550144  0.01980610  1
  Zn  Zn14  1  0.16915952  0.67990959  0.51845024  1
  Zn  Zn15  1  0.66414857  0.66313946  0.51392778  1
  Zn  Zn16  1  0.67114526  0.66742100  0.31997486  1
  Zn  Zn17  1  0.16463511  0.64786500  0.81978521  1
  Si  Si0  1  0.14896474  0.00536305  0.25108902  1
  Si  Si1  1  0.35417721  0.70374170  0.25472075  1
  Si  Si2  1  0.15181965  0.29863896  0.75102942  1
  Si  Si3  1  0.64912991  0.29298658  0.75118640  1
  Si  Si4  1  0.85177729  0.00335978  0.75527214  1
  Si  Si5  1  0.33061140  0.63623977  0.58020039  1
  Si  Si6  1  0.82853812  0.02811755  0.08058445  1
  Si  Si7  1  0.51766846  0.37260685  0.92191342  1
  Si  Si8  1  0.01743518  0.66294668  0.42180647  1
  S  S0  1  0.64897749  0.00345116  0.25149409  1
  S  S1  1  0.84892458  0.69699367  0.24954834  1
  S  S2  1  0.99606914  0.28868745  0.25348245  1
  S  S3  1  0.50497026  0.29717135  0.25098038  1
  S  S4  1  0.00175117  0.71093915  0.75077556  1
  S  S5  1  0.49889574  0.70993666  0.75240538  1
  S  S6  1  0.35314814  0.00289334  0.75044399  1
  S  S7  1  0.48190075  0.33868966  0.58394858  1
  S  S8  1  0.97748189  0.32887290  0.58370509  1
  S  S9  1  0.18499689  0.03675740  0.58406053  1
  S  S10  1  0.68707317  0.03442762  0.58179102  1
  S  S11  1  0.83215237  0.62899588  0.58303782  1
  S  S12  1  0.47824067  0.62564304  0.08481425  1
  S  S13  1  0.98254731  0.62755602  0.08402623  1
  S  S14  1  0.33238603  0.03516457  0.08335287  1
  S  S15  1  0.18672875  0.33924163  0.08218026  1
  S  S16  1  0.68597288  0.32983309  0.08345322  1
  S  S17  1  0.31360955  0.66616583  0.91676750  1
  S  S18  1  0.81745227  0.66571584  0.91736148  1
  S  S19  1  0.01779398  0.37323216  0.91731616  1
  S  S20  1  0.16387974  0.95401234  0.91620561  1
  S  S21  1  0.66591190  0.96153759  0.91643678  1
  S  S22  1  0.31643573  0.96708272  0.41693263  1
  S  S23  1  0.81156350  0.95811392  0.41682189  1
  S  S24  1  0.16566982  0.36947950  0.41670270  1
  S  S25  1  0.66347724  0.36942728  0.41666355  1
  S  S26  1  0.52066314  0.66597725  0.41525643  1
  O  O0  1  0.11355360  0.04986692  0.31111296  1
  O  O1  1  0.60954279  0.02560516  0.30545773  1
  O  O2  1  0.41060267  0.78784731  0.31381476  1
  O  O3  1  0.89812443  0.77610998  0.30494851  1
  O  O4  1  0.49145188  0.19119874  0.30343619  1
  O  O5  1  0.98620343  0.19115250  0.30787280  1
  O  O6  1  0.11031942  0.16725426  0.80554665  1
  O  O7  1  0.61496726  0.17868649  0.81117470  1
  O  O8  1  0.48537443  0.78562877  0.80694767  1
  O  O9  1  0.98409270  0.78405139  0.80337896  1
  O  O10  1  0.39945729  0.01854679  0.80674037  1
  O  O11  1  0.90555628  0.02983048  0.81546201  1
  O  O12  1  0.39856662  0.97426082  0.69934992  1
  O  O13  1  0.89816461  0.96008688  0.69871056  1
  O  O14  1  0.08885736  0.20499948  0.69096922  1
  O  O15  1  0.58682819  0.19177354  0.69530995  1
  O  O16  1  0.01421180  0.82143015  0.69695488  1
  O  O17  1  0.51102227  0.82105596  0.69975140  1
  O  O18  1  0.40187550  0.83912021  0.19831823  1
  O  O19  1  0.89519772  0.81088328  0.19670368  1
  O  O20  1  0.00853201  0.20135251  0.20046906  1
  O  O21  1  0.51594110  0.21148499  0.19655071  1
  O  O22  1  0.08710446  0.98266448  0.19491852  1
  O  O23  1  0.59121964  0.98196121  0.19839717  1
  O  O24  1  0.43869823  0.35548545  0.63695222  1
  O  O25  1  0.93538087  0.34421283  0.63799693  1
  O  O26  1  0.23471577  0.11987991  0.63844678  1
  O  O27  1  0.73429519  0.10626317  0.63847249  1
  O  O28  1  0.31317308  0.52025710  0.63977635  1
  O  O29  1  0.82444724  0.53066080  0.63777694  1
  O  O30  1  0.43524852  0.52408061  0.13853244  1
  O  O31  1  0.94182259  0.52732738  0.13773866  1
  O  O32  1  0.32436387  0.11821884  0.13808900  1
  O  O33  1  0.81698347  0.11824240  0.13860383  1
  O  O34  1  0.23450545  0.36278990  0.13868367  1
  O  O35  1  0.74156659  0.35654389  0.13517005  1
  O  O36  1  0.22793312  0.30948718  0.03072163  1
  O  O37  1  0.72296614  0.30617248  0.02715564  1
  O  O38  1  0.42800997  0.55573863  0.03014740  1
  O  O39  1  0.92737187  0.55636894  0.03038370  1
  O  O40  1  0.34512778  0.13630058  0.02926799  1
  O  O41  1  0.84784547  0.13220768  0.01795810  1
  O  O42  1  0.22475677  0.14144105  0.52980089  1
  O  O43  1  0.72835545  0.14527140  0.53057867  1
  O  O44  1  0.34630979  0.55579112  0.51922350  1
  O  O45  1  0.84373153  0.55034263  0.52869999  1
  O  O46  1  0.43103636  0.30416155  0.52880057  1
  O  O47  1  0.92807040  0.30427629  0.52919530  1
  O  O48  1  0.27140713  0.69608132  0.96817117  1
  O  O49  1  0.77809626  0.69335349  0.97075434  1
  O  O50  1  0.07042771  0.46278581  0.96927168  1
  O  O51  1  0.58444876  0.46545930  0.97549350  1
  O  O52  1  0.15677952  0.85103033  0.96920377  1
  O  O53  1  0.65839792  0.85889406  0.96852663  1
  O  O54  1  0.27704855  0.85619048  0.46836199  1
  O  O55  1  0.77187567  0.84689036  0.46934206  1
  O  O56  1  0.15816634  0.45378121  0.47040765  1
  O  O57  1  0.65239689  0.45062167  0.47073879  1
  O  O58  1  0.08400083  0.70457254  0.47549052  1
  O  O59  1  0.57202013  0.68033792  0.46774678  1
  O  O60  1  0.06435608  0.63419319  0.36201442  1
  O  O61  1  0.56075901  0.65194551  0.35852908  1
  O  O62  1  0.26116988  0.87864331  0.36176224  1
  O  O63  1  0.76133343  0.88032877  0.36183016  1
  O  O64  1  0.17809235  0.47909521  0.36276529  1
  O  O65  1  0.67921033  0.47931896  0.36305046  1
  O  O66  1  0.05604741  0.46464834  0.86024469  1
  O  O67  1  0.56346872  0.49471487  0.86216567  1
  O  O68  1  0.17793775  0.87541809  0.86065287  1
  O  O69  1  0.67792154  0.87932070  0.86118312  1
  O  O70  1  0.26657584  0.64752556  0.86024483  1
  O  O71  1  0.76000626  0.64450813  0.86343681  1
  O  O72  1  0.00460541  0.83122186  0.41420032  1
  O  O73  1  0.50991947  0.82055177  0.41473586  1
  O  O74  1  0.40289406  0.98813209  0.40929102  1
  O  O75  1  0.89995732  0.97980724  0.41181508  1
  O  O76  1  0.08487637  0.20148226  0.41180780  1
  O  O77  1  0.58636574  0.19703254  0.41012797  1
  O  O78  1  0.00784345  0.19813342  0.91630783  1
  O  O79  1  0.50512795  0.17869307  0.91489898  1
  O  O80  1  0.08631545  0.97027243  0.91267827  1
  O  O81  1  0.58473974  0.96803278  0.91230015  1
  O  O82  1  0.40196065  0.82022325  0.91320759  1
  O  O83  1  0.90278019  0.81731075  0.90943244  1
  O  O84  1  0.49283521  0.18242820  0.59000496  1
  O  O85  1  0.98722327  0.16837764  0.58806805  1
  O  O86  1  0.09738882  0.02664359  0.58827167  1
  O  O87  1  0.59860473  0.01727912  0.58762628  1
  O  O88  1  0.41770652  0.82682383  0.58981791  1
  O  O89  1  0.91263836  0.80419131  0.58767750  1
  O  O90  1  0.48838450  0.80513673  0.09181413  1
  O  O91  1  0.98994218  0.80338401  0.09002036  1
  O  O92  1  0.41401186  0.02116819  0.08875380  1
  O  O93  1  0.91578233  0.00254954  0.08994005  1
  O  O94  1  0.09814917  0.18097129  0.08824386  1
  O  O95  1  0.59854587  0.17136010  0.09055259  1
  O  O96  1  0.34486868  0.15561771  0.74256135  1
  O  O97  1  0.84619735  0.17547195  0.74472611  1
  O  O98  1  0.24809036  0.32148283  0.74472409  1
  O  O99  1  0.74733668  0.32984104  0.74316363  1
  O  O100  1  0.42648889  0.53672176  0.74436972  1
  O  O101  1  0.92722873  0.53690898  0.74130255  1
  O  O102  1  0.34670050  0.51807151  0.24510185  1
  O  O103  1  0.84162542  0.52788698  0.24156074  1
  O  O104  1  0.42608955  0.31081876  0.24346663  1
  O  O105  1  0.92510749  0.32198707  0.24576887  1
  O  O106  1  0.24695299  0.16552679  0.24327106  1
  O  O107  1  0.73438231  0.15427946  0.24437263  1
  O  O108  1  0.32255873  0.51157889  0.92284282  1
  O  O109  1  0.81884587  0.50260186  0.91956654  1
  O  O110  1  0.42181815  0.35535430  0.92427328  1
  O  O111  1  0.93030743  0.35593785  0.92018644  1
  O  O112  1  0.24393523  0.12678248  0.92082270  1
  O  O113  1  0.74153573  0.13758907  0.91781069  1
  O  O114  1  0.31785696  0.13308650  0.42081512  1
  O  O115  1  0.82147113  0.13140115  0.42313953  1
  O  O116  1  0.24172886  0.34452227  0.41734679  1
  O  O117  1  0.74324442  0.35614047  0.42151455  1
  O  O118  1  0.43273784  0.50902562  0.41751264  1
  O  O119  1  0.92196580  0.48876626  0.42376878  1
  O  O120  1  0.17503035  0.49011969  0.07560478  1
  O  O121  1  0.67495872  0.48133988  0.08111308  1
  O  O122  1  0.06944256  0.65139228  0.07708056  1
  O  O123  1  0.56518820  0.64963143  0.08178236  1
  O  O124  1  0.25752840  0.86011814  0.07909619  1
  O  O125  1  0.74741672  0.82943242  0.07638047  1
  O  O126  1  0.17189554  0.86341302  0.58165279  1
  O  O127  1  0.67484364  0.85993541  0.57526156  1
  O  O128  1  0.24211797  0.64775289  0.57547475  1
  O  O129  1  0.75600866  0.65207258  0.57903642  1
  O  O130  1  0.06583435  0.47533994  0.58118921  1
  O  O131  1  0.56886794  0.49167596  0.57883976  1
  O  O132  1  0.15732696  0.83023309  0.25543181  1
  O  O133  1  0.65031983  0.83877922  0.25250413  1
  O  O134  1  0.25708272  0.67985068  0.25752246  1
  O  O135  1  0.76337919  0.68566966  0.25213253  1
  O  O136  1  0.08150604  0.45749680  0.25533460  1
  O  O137  1  0.58068924  0.47250696  0.25418236  1
  O  O138  1  0.15615998  0.48623742  0.75466419  1
  O  O139  1  0.65700285  0.48432492  0.75569866  1
  O  O140  1  0.08194527  0.70127148  0.75426882  1
  O  O141  1  0.58246857  0.70822295  0.75566705  1
  O  O142  1  0.26598454  0.84592545  0.75189735  1
  O  O143  1  0.75471599  0.83367367  0.75757893  1
loop_
_geom_bond_atom_site_label_1
_geom_bond_atom_site_label_2
_geom_bond_distance
_geom_bond_site_symmetry_2
Na0 O106 2.360718 1_555
Na0 O104 2.460259 1_555
Na0 O132 2.514580 1_545
Na0 O134 2.584682 1_545
Na0 O32 2.601273 1_555
Na0 O18 2.805768 1_545
Na0 O62 2.847032 1_545
Na1 O106 2.443196 1_555
Na1 O102 2.458025 1_555
Na1 O136 2.503509 1_555
Na1 O134 2.523245 1_555
Na1 O34 2.620283 1_555
Na1 O0 2.792987 1_555
Na1 O64 2.812692 1_555
Na2 O102 2.381225 1_555
Na2 O133 2.432871 1_555
Na2 O104 2.527024 1_555
Na2 O137 2.543006 1_555
Na2 O61 2.589039 1_555
Na2 O30 2.803404 1_555
Na2 O2 2.900559 1_555
Na3 O98 2.349245 1_555
Na3 O138 2.419952 1_555
Na3 O28 2.495470 1_555
Na3 O142 2.534632 1_555
Na3 O100 2.557005 1_555
Na3 O70 2.804269 1_555
Na3 O12 2.937553 1_555
Na4 O99 2.359512 1_555
Na4 O139 2.512545 1_555
Na4 O101 2.516155 1_555
Na4 O29 2.588814 1_555
Na4 O143 2.594932 1_555
Na4 O13 2.772032 1_555
Na4 O71 2.895168 1_555
Na4 O9 2.925863 1_555
Na5 O97 2.426111 1_455
Na5 O138 2.439474 1_555
Na5 O101 2.552728 1_455
Na5 O66 2.616308 1_555
Na5 O140 2.681022 1_555
Na5 O25 2.813327 1_455
Na5 O14 2.922962 1_555
Na5 O11 2.948302 1_455
Na6 O98 2.427737 1_555
Na6 O140 2.484460 1_545
Na6 O96 2.525082 1_555
Na6 O142 2.588539 1_545
Na6 O6 2.600758 1_555
Na6 O68 2.660292 1_545
Na6 O26 2.799167 1_555
Na7 O97 2.444196 1_555
Na7 O99 2.451613 1_555
Na7 O143 2.494000 1_545
Na7 O141 2.498770 1_545
Na7 O27 2.624330 1_555
Na7 O7 2.768700 1_555
Na7 O69 2.785563 1_545
Na8 O128 2.349058 1_555
Na8 O130 2.480130 1_555
Na8 O86 2.544986 1_555
Na8 O28 2.670003 1_555
Na8 O14 2.691372 1_555
Na8 O85 2.704549 1_455
Na8 O56 2.791002 1_555
Na8 O42 2.935758 1_555
Na9 O125 2.286480 1_555
Na9 O93 2.404579 1_565
Na9 O121 2.450526 1_555
Na9 O91 2.589056 1_555
Na9 O49 2.608151 1_554
Na9 O19 2.868673 1_555
Na9 O39 2.886092 1_555
Na9 O35 2.948891 1_555
Na10 O110 2.390713 1_555
Na10 O81 2.468262 1_555
Na10 O108 2.486636 1_555
Na10 O82 2.512001 1_555
Na10 O38 2.699601 1_556
Na10 O8 2.746178 1_555
Na10 O67 2.839277 1_555
Na10 O53 2.987614 1_555
Na11 O79 2.390238 1_555
Na11 O112 2.433922 1_555
Na11 O110 2.476957 1_555
Na11 O82 2.554130 1_545
Na11 O10 2.664362 1_555
Na11 O40 2.691766 1_556
Na12 O41 2.371097 1_556
Na12 O78 2.395711 1_655
Na12 O111 2.473777 1_555
Na12 O11 2.552947 1_555
Na12 O83 2.567609 1_545
Na12 O113 2.586739 1_555
Na13 O79 2.463482 1_555
Na13 O109 2.478849 1_555
Na13 O113 2.523195 1_555
Na13 O7 2.609149 1_555
Na13 O81 2.615187 1_545
Na13 O37 2.686280 1_556
Na13 O51 2.797422 1_555
Na13 O71 2.961284 1_555
Na14 O119 2.389792 1_555
Na14 O76 2.470186 1_655
Na14 O115 2.479046 1_555
Na14 O75 2.522301 1_545
Na14 O5 2.662370 1_555
Na14 O47 2.708085 1_555
Na14 O60 2.875356 1_655
Na15 O72 2.451274 1_545
Na15 O114 2.487076 1_555
Na15 O116 2.528409 1_555
Na15 O0 2.580636 1_555
Na15 O76 2.593781 1_555
Na15 O42 2.787600 1_555
Na15 O58 2.814283 1_545
Na15 O62 2.958501 1_545
Na16 O44 2.406411 1_555
Na16 O73 2.425241 1_555
Na16 O118 2.457558 1_555
Na16 O74 2.586547 1_555
Na16 O116 2.592035 1_555
Na16 O2 2.638443 1_555
Na16 O54 2.884581 1_555
Na17 O72 2.393068 1_655
Na17 O117 2.467992 1_555
Na17 O119 2.473154 1_555
Na17 O75 2.540367 1_555
Na17 O3 2.676107 1_555
Na17 O45 2.717868 1_555
Na17 O55 2.930408 1_555
Na17 O65 2.939431 1_555
Na18 O72 2.331315 1_655
Na18 O89 2.543829 1_555
Na18 O75 2.570758 1_555
Na18 O86 2.661987 1_665
Na18 O76 2.681273 1_665
Na18 O85 2.726998 1_565
Na19 O73 2.506162 1_545
Na19 O77 2.556729 1_555
Na19 O88 2.615115 1_545
Na19 O87 2.625004 1_555
Na19 O74 2.646279 1_545
Na19 O84 2.715202 1_555
Na20 O78 2.430973 1_555
Na20 O80 2.489678 1_545
Na20 O94 2.590166 1_556
Na20 O93 2.662010 1_456
Na20 O83 2.694358 1_445
Na20 O91 2.784043 1_446
Na21 O79 2.360340 1_555
Na21 O82 2.576849 1_545
Na21 O81 2.589840 1_545
Na21 O92 2.604039 1_556
Na21 O95 2.661134 1_556
Na21 O90 2.783785 1_546
Na22 O98 2.466093 1_555
Na22 O110 2.572414 1_555
Na22 O112 2.577195 1_555
Na22 O108 2.612566 1_555
Na22 O96 2.696068 1_555
Na22 O100 2.737088 1_555
Na23 O97 2.468838 1_555
Na23 O99 2.519123 1_555
Na23 O111 2.591437 1_555
Na23 O109 2.613197 1_555
Na23 O113 2.626781 1_555
Na23 O101 2.664450 1_555
Na24 O102 2.482470 1_555
Na24 O106 2.509044 1_555
Na24 O118 2.574076 1_555
Na24 O116 2.609626 1_555
Na24 O104 2.622630 1_555
Na24 O114 2.649591 1_555
Na25 O107 2.569859 1_555
Na25 O119 2.594550 1_555
Na25 O117 2.602495 1_555
Na25 O105 2.636051 1_555
Na25 O103 2.654370 1_555
Na25 O115 2.685940 1_555
Na26 O122 2.477819 1_555
Na26 O124 2.493462 1_555
Na26 O120 2.582132 1_555
Na26 O132 2.606997 1_555
Na26 O134 2.742060 1_555
Na26 O136 2.772357 1_555
Na27 O125 2.325496 1_555
Na27 O123 2.579438 1_555
Na27 O135 2.584894 1_555
Na27 O133 2.587216 1_555
Na27 O121 2.620084 1_555
Na27 O137 2.774256 1_555
Na28 O128 2.346875 1_555
Na28 O126 2.527658 1_555
Na28 O130 2.578857 1_555
Na28 O138 2.598346 1_555
Na28 O142 2.617523 1_555
Na28 O140 2.766396 1_555
Na29 O131 2.436040 1_555
Na29 O129 2.458745 1_555
Na29 O127 2.598875 1_555
Na29 O139 2.625963 1_555
Na29 O143 2.730319 1_555
Na29 O141 2.784582 1_555
Hf0 O13 1.939905 1_545
Hf0 O14 1.972218 1_655
Hf0 O16 2.103040 1_645
Hf0 O85 2.122141 1_555
Hf0 O89 2.186907 1_545
Hf0 O86 2.216090 1_655
Hf1 O15 1.979795 1_555
Hf1 O88 1.986482 1_545
Hf1 O84 2.079000 1_555
Hf1 O87 2.120443 1_555
Hf1 O12 2.125057 1_545
Hf1 O17 2.164168 1_545
Hf2 O22 1.977999 1_545
Hf2 O93 1.998015 1_455
Hf2 O20 2.104961 1_555
Hf2 O91 2.130733 1_445
Hf2 O19 2.131564 1_445
Hf2 O94 2.152810 1_555
Hf3 O18 1.943536 1_555
Hf3 O23 2.080320 1_555
Hf3 O90 2.080523 1_555
Hf3 O21 2.098601 1_565
Hf3 O92 2.121562 1_565
Hf3 O95 2.159862 1_565
Hf4 O60 1.948742 1_555
Hf4 O132 1.978175 1_555
Hf4 O134 2.090949 1_555
Hf4 O62 2.141604 1_555
Hf4 O136 2.162340 1_555
Hf4 O64 2.200534 1_555
Hf5 O67 1.957989 1_555
Hf5 O139 1.976033 1_555
Hf5 O143 2.085096 1_555
Hf5 O71 2.120583 1_555
Hf5 O141 2.181788 1_555
Hf5 O69 2.185465 1_555
O0 Si0 1.625459 1_555
O0 Zn0 1.914536 1_545
O1 S0 1.468413 1_555
O1 Zn1 2.038177 1_545
O2 Si1 1.615448 1_555
O2 Zn1 1.945625 1_555
O3 S1 1.489785 1_555
O3 Zn0 2.053986 1_655
O4 S3 1.465338 1_555
O4 Zn1 2.109117 1_545
O5 S2 1.470001 1_555
O5 Zn0 2.323395 1_645
O6 Si2 1.611187 1_555
O6 Zn2 1.886222 1_555
O7 Si3 1.625855 1_555
O7 Zn3 1.907339 1_555
O8 S5 1.480915 1_555
O8 Zn3 2.289621 1_565
O9 S4 1.463397 1_655
O9 Zn2 2.191381 1_665
O10 S6 1.486878 1_555
O10 Zn3 2.070062 1_555
O11 Si4 1.614681 1_555
O11 Zn2 1.946097 1_655
O12 S6 1.504176 1_565
O13 Si4 1.669750 1_565
O14 Si2 1.694754 1_555
O15 Si3 1.628500 1_555
O16 S4 1.517070 1_555
O17 S5 1.500587 1_555
O18 Si1 1.674715 1_555
O19 S1 1.522445 1_555
O20 S2 1.505038 1_455
O21 S3 1.511254 1_555
O22 Si0 1.631379 1_565
O23 S0 1.534052 1_565
O24 S7 1.471060 1_555
O24 Zn4 2.143479 1_555
O25 S8 1.478903 1_555
O25 Zn5 2.110120 1_555
O26 S9 1.480955 1_555
O26 Zn4 2.084480 1_555
O27 S10 1.490876 1_555
O27 Zn5 2.071679 1_555
O28 Si5 1.636610 1_555
O28 Zn4 1.919988 1_555
O29 S11 1.488057 1_555
O29 Zn5 2.200163 1_555
O30 S12 1.483182 1_555
O30 Zn6 2.100026 1_555
O31 S13 1.470538 1_555
O31 Zn7 2.154635 1_555
O32 S14 1.484177 1_555
O32 Zn6 2.191814 1_555
O33 Si6 1.603716 1_555
O33 Zn7 1.859553 1_555
O34 S15 1.492341 1_555
O34 Zn6 2.080667 1_555
O35 S16 1.476657 1_555
O35 Zn7 2.057882 1_555
O36 S15 1.468679 1_555
O36 Zn8 2.091886 1_554
O37 S16 1.494079 1_555
O37 Zn9 2.192022 1_554
O38 S12 1.470617 1_555
O38 Zn8 2.170975 1_554
O39 S13 1.490915 1_555
O39 Zn9 2.029771 1_554
O40 S14 1.473222 1_555
O40 Zn8 2.136917 1_554
O41 Si6 1.636385 1_555
O41 Zn9 1.880501 1_554
O42 S9 1.493079 1_555
O42 Zn10 2.236257 1_555
O43 S10 1.465324 1_555
O43 Zn11 2.096384 1_555
O44 Si5 1.639671 1_555
O44 Zn10 1.888167 1_555
O45 S11 1.478168 1_555
O45 Zn11 2.111549 1_555
O46 S7 1.482436 1_555
O46 Zn10 1.989175 1_555
O47 S8 1.468182 1_555
O47 Zn11 2.162672 1_555
O48 S17 1.479073 1_555
O48 Zn12 2.063991 1_556
O49 S18 1.476357 1_555
O49 Zn13 2.248519 1_556
O50 S19 1.467870 1_555
O50 Zn12 2.025302 1_556
O51 Si7 1.611782 1_555
O51 Zn13 1.922062 1_556
O52 S20 1.482201 1_555
O52 Zn12 2.032366 1_556
O53 S21 1.462190 1_555
O53 Zn13 2.131795 1_556
O54 S22 1.464208 1_555
O54 Zn14 2.119199 1_555
O55 S23 1.485846 1_555
O55 Zn15 2.075744 1_555
O56 S24 1.468010 1_555
O56 Zn14 2.225946 1_555
O57 S25 1.482573 1_555
O57 Zn15 2.061646 1_555
O58 Si8 1.610687 1_555
O58 Zn14 1.919820 1_555
O59 S26 1.468119 1_555
O59 Zn15 2.030610 1_555
O60 Si8 1.674512 1_555
O61 S26 1.501525 1_555
O61 Zn16 2.105162 1_555
O62 S22 1.541891 1_555
O63 S23 1.486813 1_555
O63 Zn16 2.023352 1_555
O64 S24 1.514686 1_555
O65 S25 1.500546 1_555
O65 Zn16 2.026605 1_555
O66 S19 1.498416 1_555
O66 Zn17 2.039160 1_555
O67 Si7 1.675023 1_555
O68 S20 1.517737 1_555
O68 Zn17 2.148682 1_555
O69 S21 1.515846 1_555
O70 S17 1.493049 1_555
O70 Zn17 2.052032 1_555
O71 S18 1.545794 1_555
O72 Si8 1.655894 1_555
O72 Zn0 1.997803 1_555
O73 S26 1.501099 1_555
O73 Zn1 2.257369 1_555
O74 S22 1.479433 1_555
O74 Zn1 2.237796 1_555
O75 S23 1.506052 1_555
O75 Zn0 2.398665 1_655
O76 S24 1.490716 1_555
O76 Zn0 2.363273 1_545
O77 S25 1.486790 1_555
O77 Zn1 2.182327 1_545
O78 S19 1.499061 1_555
O78 Zn2 2.246173 1_555
O79 Si7 1.655988 1_555
O79 Zn3 1.986859 1_555
O80 S20 1.476646 1_555
O80 Zn2 2.327090 1_565
O81 S21 1.493717 1_555
O81 Zn3 2.316972 1_565
O82 S17 1.503035 1_555
O82 Zn3 2.420479 1_565
O83 S18 1.470794 1_555
O83 Zn2 2.366022 1_665
O84 S7 1.524907 1_555
O85 S8 1.547122 1_555
O86 S9 1.535270 1_555
O87 S10 1.525579 1_555
O88 Si5 1.663661 1_555
O89 S11 1.523339 1_555
O90 S12 1.544415 1_555
O91 S13 1.530228 1_555
O92 S14 1.540737 1_555
O93 Si6 1.710442 1_555
O94 S15 1.524985 1_555
O95 S16 1.516203 1_555
O96 S6 1.470090 1_555
O96 Zn4 2.400251 1_555
O97 Si4 1.624430 1_555
O97 Zn5 2.036089 1_555
O98 Si2 1.644571 1_555
O98 Zn4 2.029095 1_555
O99 Si3 1.636037 1_555
O99 Zn5 1.998899 1_555
O100 S5 1.462418 1_555
O100 Zn4 2.304618 1_555
O101 S4 1.485153 1_655
O101 Zn5 2.294355 1_555
O102 Si1 1.626352 1_555
O102 Zn6 2.032619 1_555
O103 S1 1.475337 1_555
O103 Zn7 2.348167 1_555
O104 S3 1.494677 1_555
O104 Zn6 2.323763 1_555
O105 S2 1.461331 1_555
O105 Zn7 2.279464 1_555
O106 Si0 1.638167 1_555
O106 Zn6 2.005961 1_555
O107 S0 1.466661 1_555
O107 Zn7 2.215664 1_555
O108 S17 1.489126 1_555
O108 Zn8 2.217212 1_555
O109 S18 1.485909 1_555
O109 Zn9 2.503229 1_555
O110 Si7 1.652903 1_555
O110 Zn8 2.003019 1_555
O111 S19 1.503332 1_655
O111 Zn9 2.220839 1_555
O112 S20 1.507673 1_545
O112 Zn8 2.226954 1_555
O113 S21 1.489099 1_545
O113 Zn9 2.468148 1_555
O114 S22 1.487837 1_545
O114 Zn10 2.432046 1_555
O115 S23 1.489241 1_545
O115 Zn11 2.203362 1_555
O116 S24 1.493788 1_555
O116 Zn10 2.497302 1_555
O117 S25 1.502925 1_555
O117 Zn11 2.187479 1_555
O118 S26 1.507845 1_555
O118 Zn10 2.250123 1_555
O119 Si8 1.651282 1_655
O119 Zn11 2.015510 1_555
O120 S15 1.486215 1_555
O120 Zn12 2.180672 1_555
O121 S16 1.477569 1_555
O121 Zn13 2.259436 1_555
O122 S13 1.475689 1_455
O122 Zn12 2.185625 1_555
O123 S12 1.469591 1_555
O123 Zn13 2.188568 1_555
O124 S14 1.480977 1_565
O124 Zn12 2.263818 1_555
O125 Si6 1.655303 1_565
O125 Zn13 1.969162 1_555
O126 S9 1.461914 1_565
O126 Zn14 2.161416 1_555
O127 S10 1.484019 1_565
O127 Zn15 2.177236 1_555
O128 Si5 1.650226 1_555
O128 Zn14 1.962812 1_555
O129 S11 1.487964 1_555
O129 Zn15 2.252780 1_555
O130 S8 1.476071 1_455
O130 Zn14 2.332904 1_555
O131 S7 1.486739 1_555
O131 Zn15 2.197314 1_555
O132 Si0 1.664201 1_565
O133 S0 1.498717 1_565
O133 Zn16 2.333937 1_555
O134 Si1 1.650792 1_555
O135 S1 1.491607 1_555
O135 Zn16 2.198053 1_555
O136 S2 1.531828 1_455
O137 S3 1.487169 1_555
O137 Zn16 2.252416 1_555
O138 Si2 1.657207 1_555
O138 Zn17 2.016114 1_555
O139 Si3 1.663382 1_555
O140 S4 1.490602 1_555
O140 Zn17 2.315452 1_555
O141 S5 1.513355 1_555
O142 S6 1.499481 1_565
O142 Zn17 2.369020 1_555
O143 Si4 1.651232 1_565
