# generated using pymatgen
data_ZrPRu
_symmetry_space_group_name_H-M   'P 1'
_cell_length_a   3.88284096
_cell_length_b   6.45151209
_cell_length_c   7.31373868
_cell_angle_alpha   90.00000000
_cell_angle_beta   90.00000000
_cell_angle_gamma   90.00000000
_symmetry_Int_Tables_number   1
_chemical_formula_structural   ZrPRu
_chemical_formula_sum   'Zr4 P4 Ru4'
_cell_volume   183.21058302
_cell_formula_units_Z   4
loop_
 _symmetry_equiv_pos_site_id
 _symmetry_equiv_pos_as_xyz
  1  'x, y, z'
loop_
 _atom_site_type_symbol
 _atom_site_label
 _atom_site_symmetry_multiplicity
 _atom_site_fract_x
 _atom_site_fract_y
 _atom_site_fract_z
 _atom_site_occupancy
  Zr  Zr0  1  0.75000000  0.52104925  0.68170857  1
  Zr  Zr1  1  0.25000000  0.97895075  0.18170857  1
  Zr  Zr2  1  0.75000000  0.02104925  0.81829143  1
  Zr  Zr3  1  0.25000000  0.47895075  0.31829143  1
  P  P0  1  0.25000000  0.72402085  0.87938942  1
  P  P1  1  0.25000000  0.22402085  0.62061058  1
  P  P2  1  0.75000000  0.27597915  0.12061058  1
  P  P3  1  0.75000000  0.77597915  0.37938942  1
  Ru  Ru0  1  0.25000000  0.34910665  0.93900740  1
  Ru  Ru1  1  0.25000000  0.84910665  0.56099260  1
  Ru  Ru2  1  0.75000000  0.15089335  0.43900740  1
  Ru  Ru3  1  0.75000000  0.65089335  0.06099260  1
loop_
_geom_bond_atom_site_label_1
_geom_bond_atom_site_label_2
_geom_bond_distance
_geom_bond_site_symmetry_2
P0 Ru3 2.399125 1_456
P0 Ru3 2.399125 1_556
P0 Ru0 2.457751 1_555
P0 Ru1 2.464538 1_555
P0 Zr0 2.752114 1_455
P0 Zr0 2.752114 1_555
P0 Zr1 2.755698 1_556
P0 Zr2 2.764223 1_565
P0 Zr2 2.764223 1_465
P1 Ru2 2.399125 1_555
P1 Ru2 2.399125 1_455
P1 Ru1 2.457751 1_545
P1 Ru0 2.464538 1_555
P1 Zr2 2.752114 1_555
P1 Zr2 2.752114 1_455
P1 Zr3 2.755698 1_555
P1 Zr0 2.764223 1_455
P1 Zr0 2.764223 1_555
P2 Ru0 2.399125 1_554
P2 Ru0 2.399125 1_654
P2 Ru3 2.457751 1_555
P2 Ru2 2.464538 1_555
P2 Zr3 2.752114 1_555
P2 Zr3 2.752114 1_655
P2 Zr2 2.755698 1_554
P2 Zr1 2.764223 1_545
P2 Zr1 2.764223 1_645
P3 Ru1 2.399125 1_655
P3 Ru1 2.399125 1_555
P3 Ru2 2.457751 1_565
P3 Ru3 2.464538 1_555
P3 Zr1 2.752114 1_655
P3 Zr1 2.752114 1_555
P3 Zr0 2.755698 1_555
P3 Zr3 2.764223 1_655
P3 Zr3 2.764223 1_555
Ru0 Zr3 2.897709 1_556
Ru0 Zr0 2.922477 1_455
Ru0 Zr0 2.922477 1_555
Ru0 Zr1 2.975511 1_546
Ru0 Zr2 3.004668 1_555
Ru0 Zr2 3.004668 1_455
Ru1 Zr1 2.897709 1_555
Ru1 Zr2 2.922477 1_565
Ru1 Zr2 2.922477 1_465
Ru1 Zr3 2.975511 1_555
Ru1 Zr0 3.004668 1_455
Ru1 Zr0 3.004668 1_555
Ru2 Zr2 2.897709 1_555
Ru2 Zr1 2.922477 1_545
Ru2 Zr1 2.922477 1_645
Ru2 Zr0 2.975511 1_555
Ru2 Zr3 3.004668 1_555
Ru2 Zr3 3.004668 1_655
Ru3 Zr0 2.897709 1_554
Ru3 Zr3 2.922477 1_555
Ru3 Zr3 2.922477 1_655
Ru3 Zr2 2.975511 1_564
Ru3 Zr1 3.004668 1_655
Ru3 Zr1 3.004668 1_555
