# generated using pymatgen
data_CuSe2Br
_symmetry_space_group_name_H-M   'P 1'
_cell_length_a   4.87744460
_cell_length_b   7.88309948
_cell_length_c   11.36610324
_cell_angle_alpha   103.98896440
_cell_angle_beta   90.00000000
_cell_angle_gamma   90.00000000
_symmetry_Int_Tables_number   1
_chemical_formula_structural   CuSe2Br
_chemical_formula_sum   'Cu4 Se8 Br4'
_cell_volume   424.05863848
_cell_formula_units_Z   4
loop_
 _symmetry_equiv_pos_site_id
 _symmetry_equiv_pos_as_xyz
  1  'x, y, z'
loop_
 _atom_site_type_symbol
 _atom_site_label
 _atom_site_symmetry_multiplicity
 _atom_site_fract_x
 _atom_site_fract_y
 _atom_site_fract_z
 _atom_site_occupancy
  Cu  Cu0  1  0.63812676  0.06449019  0.24956105  1
  Cu  Cu1  1  0.13812676  0.43550981  0.25043895  1
  Cu  Cu2  1  0.36187324  0.93550981  0.75043895  1
  Cu  Cu3  1  0.86187324  0.56449019  0.74956105  1
  Se  Se0  1  0.02834735  0.14542357  0.83990165  1
  Se  Se1  1  0.52834735  0.35457643  0.66009835  1
  Se  Se2  1  0.97165265  0.85457643  0.16009835  1
  Se  Se3  1  0.47165265  0.64542357  0.33990165  1
  Se  Se4  1  0.80501386  0.58297219  0.16175530  1
  Se  Se5  1  0.30501386  0.91702781  0.33824470  1
  Se  Se6  1  0.19498614  0.41702781  0.83824470  1
  Se  Se7  1  0.69498614  0.08297219  0.66175530  1
  Br  Br0  1  0.61168099  0.79614458  0.88727117  1
  Br  Br1  1  0.11168099  0.70385542  0.61272883  1
  Br  Br2  1  0.38831901  0.20385542  0.11272883  1
  Br  Br3  1  0.88831901  0.29614458  0.38727117  1
loop_
_geom_bond_atom_site_label_1
_geom_bond_atom_site_label_2
_geom_bond_distance
_geom_bond_site_symmetry_2
Cu0 Se5 2.360855 1_545
Cu0 Se2 2.367500 1_545
Cu1 Se4 2.360855 1_455
Cu1 Se3 2.367500 1_555
Cu2 Se7 2.360855 1_565
Cu2 Se0 2.367500 1_565
Cu3 Se6 2.360855 1_655
Cu3 Se1 2.367500 1_555
Se0 Se6 2.294490 1_555
Se0 Se7 2.550309 1_455
Se1 Se7 2.294490 1_555
Se1 Se6 2.550309 1_555
Se2 Se4 2.294490 1_555
Se2 Se5 2.550309 1_655
Se3 Se5 2.294490 1_555
Se3 Se4 2.550309 1_555
Br0 Cu3 2.427340 1_555
Br0 Cu2 2.436477 1_555
Br1 Cu2 2.427340 1_555
Br1 Cu3 2.436477 1_455
Br2 Cu1 2.427340 1_555
Br2 Cu0 2.436477 1_555
Br3 Cu0 2.427340 1_555
Br3 Cu1 2.436477 1_655
