# generated using pymatgen
data_SbCl2F3
_symmetry_space_group_name_H-M   'P 1'
_cell_length_a   10.82246400
_cell_length_b   11.93148000
_cell_length_c   17.59915189
_cell_angle_alpha   51.34062544
_cell_angle_beta   90.00000000
_cell_angle_gamma   90.00000000
_symmetry_Int_Tables_number   1
_chemical_formula_structural   SbCl2F3
_chemical_formula_sum   'Sb12 Cl24 F36'
_cell_volume   1774.56909059
_cell_formula_units_Z   12
loop_
 _symmetry_equiv_pos_site_id
 _symmetry_equiv_pos_as_xyz
  1  'x, y, z'
loop_
 _atom_site_type_symbol
 _atom_site_label
 _atom_site_symmetry_multiplicity
 _atom_site_fract_x
 _atom_site_fract_y
 _atom_site_fract_z
 _atom_site_occupancy
  Sb  Sb0  1  0.45042900  0.24628900  0.52918700  1
  Sb  Sb1  1  0.95042900  0.75371100  0.97081300  1
  Sb  Sb2  1  0.54957100  0.75371100  0.47081300  1
  Sb  Sb3  1  0.04957100  0.24628900  0.02918700  1
  Sb  Sb4  1  0.11703200  0.29818300  0.39643800  1
  Sb  Sb5  1  0.61703200  0.70181700  0.10356200  1
  Sb  Sb6  1  0.88296800  0.70181700  0.60356200  1
  Sb  Sb7  1  0.38296800  0.29818300  0.89643800  1
  Sb  Sb8  1  0.34980500  0.78122800  0.83155800  1
  Sb  Sb9  1  0.84980500  0.21877200  0.66844200  1
  Sb  Sb10  1  0.65019500  0.21877200  0.16844200  1
  Sb  Sb11  1  0.15019500  0.78122800  0.33155800  1
  Cl  Cl0  1  0.06668300  0.80746000  0.05487600  1
  Cl  Cl1  1  0.56668300  0.19254000  0.44512400  1
  Cl  Cl2  1  0.93331700  0.19254000  0.94512400  1
  Cl  Cl3  1  0.43331700  0.80746000  0.55487600  1
  Cl  Cl4  1  0.20037000  0.37398700  0.24948800  1
  Cl  Cl5  1  0.70037000  0.62601300  0.25051200  1
  Cl  Cl6  1  0.79963000  0.62601300  0.75051200  1
  Cl  Cl7  1  0.29963000  0.37398700  0.74948800  1
  Cl  Cl8  1  0.04461500  0.23309400  0.71086900  1
  Cl  Cl9  1  0.54461500  0.76690600  0.78913100  1
  Cl  Cl10  1  0.95538500  0.76690600  0.28913100  1
  Cl  Cl11  1  0.45538500  0.23309400  0.21086900  1
  Cl  Cl12  1  0.33863600  0.97283400  0.83003100  1
  Cl  Cl13  1  0.83863600  0.02716600  0.66996900  1
  Cl  Cl14  1  0.66136400  0.02716600  0.16996900  1
  Cl  Cl15  1  0.16136400  0.97283400  0.33003100  1
  Cl  Cl16  1  0.32023200  0.58177600  0.98800600  1
  Cl  Cl17  1  0.82023200  0.41822400  0.51199400  1
  Cl  Cl18  1  0.28625800  0.78771400  0.23089300  1
  Cl  Cl19  1  0.17976800  0.58177600  0.48800600  1
  Cl  Cl20  1  0.21374200  0.78771400  0.73089300  1
  Cl  Cl21  1  0.71374200  0.21228600  0.76910700  1
  Cl  Cl22  1  0.78625800  0.21228600  0.26910700  1
  Cl  Cl23  1  0.67976800  0.41822400  0.01199400  1
  F  F0  1  0.29914700  0.27342200  0.44570400  1
  F  F1  1  0.79914700  0.72657800  0.05429600  1
  F  F2  1  0.70085300  0.72657800  0.55429600  1
  F  F3  1  0.20085300  0.27342200  0.94570400  1
  F  F4  1  0.33931800  0.28708900  0.59271900  1
  F  F5  1  0.83931800  0.71291100  0.90728100  1
  F  F6  1  0.66068200  0.71291100  0.40728100  1
  F  F7  1  0.16068200  0.28708900  0.09271900  1
  F  F8  1  0.47860900  0.44693200  0.43311600  1
  F  F9  1  0.97860900  0.55306800  0.06688400  1
  F  F10  1  0.52139100  0.55306800  0.56688400  1
  F  F11  1  0.02139100  0.44693200  0.93311600  1
  F  F12  1  0.08501500  0.78548700  0.88788100  1
  F  F13  1  0.58501500  0.21451300  0.61211900  1
  F  F14  1  0.91498500  0.21451300  0.11211900  1
  F  F15  1  0.41498500  0.78548700  0.38788100  1
  F  F16  1  0.39797300  0.04860100  0.62139500  1
  F  F17  1  0.37169800  0.10160200  0.94971200  1
  F  F18  1  0.60202700  0.95139900  0.37860500  1
  F  F19  1  0.10202700  0.04860100  0.12139500  1
  F  F20  1  0.07158000  0.23598100  0.52235400  1
  F  F21  1  0.57158000  0.76401900  0.97764600  1
  F  F22  1  0.92842000  0.76401900  0.47764600  1
  F  F23  1  0.42842000  0.23598100  0.02235400  1
  F  F24  1  0.12726700  0.48972000  0.35564600  1
  F  F25  1  0.62726700  0.51028000  0.14435400  1
  F  F26  1  0.87273300  0.51028000  0.64435400  1
  F  F27  1  0.37273300  0.48972000  0.85564600  1
  F  F28  1  0.44857700  0.68065200  0.14206200  1
  F  F29  1  0.94857700  0.31934800  0.35793800  1
  F  F30  1  0.55142300  0.31934800  0.85793800  1
  F  F31  1  0.05142300  0.68065200  0.64206200  1
  F  F32  1  0.12830200  0.10160200  0.44971200  1
  F  F33  1  0.62830200  0.89839800  0.05028800  1
  F  F34  1  0.87169800  0.89839800  0.55028800  1
  F  F35  1  0.89797300  0.95139900  0.87860500  1
loop_
_geom_bond_atom_site_label_1
_geom_bond_atom_site_label_2
_geom_bond_distance
_geom_bond_site_symmetry_2
Cl0 Sb1 2.316967 1_454
Cl1 Sb0 2.316967 1_555
Cl2 Sb3 2.316967 1_656
Cl3 Sb2 2.316967 1_555
Cl4 Sb4 2.323251 1_555
Cl5 Sb5 2.323251 1_555
Cl6 Sb6 2.323251 1_555
Cl7 Sb7 2.323251 1_555
Cl8 Sb9 2.278415 1_455
Cl9 Sb8 2.278415 1_555
Cl10 Sb11 2.278415 1_655
Cl11 Sb10 2.278415 1_555
Cl12 Sb8 2.272669 1_555
Cl13 Sb9 2.272669 1_555
Cl14 Sb10 2.272669 1_555
Cl15 Sb11 2.272669 1_555
Cl16 Sb8 2.271632 1_555
Cl17 Sb9 2.271632 1_555
Cl18 Sb11 2.267531 1_555
Cl19 Sb11 2.271632 1_555
Cl20 Sb8 2.267531 1_555
Cl21 Sb9 2.267531 1_555
Cl22 Sb10 2.267531 1_555
Cl23 Sb10 2.271632 1_555
F0 Sb0 2.085606 1_555
F0 Sb4 2.098472 1_555
F1 Sb1 2.085606 1_554
F1 Sb5 2.098472 1_555
F2 Sb2 2.085606 1_555
F2 Sb6 2.098472 1_555
F3 Sb3 2.085606 1_556
F3 Sb7 2.098472 1_555
F4 Sb0 1.900836 1_555
F5 Sb1 1.900836 1_555
F6 Sb2 1.900836 1_555
F7 Sb3 1.900836 1_555
F8 Sb0 1.904140 1_555
F9 Sb1 1.904140 1_554
F10 Sb2 1.904140 1_555
F11 Sb3 1.904140 1_556
F12 Sb1 1.924622 1_455
F13 Sb0 1.924622 1_555
F14 Sb3 1.924622 1_655
F15 Sb2 1.924622 1_555
F16 Sb0 1.933135 1_555
F17 Sb7 1.909925 1_555
F18 Sb2 1.933135 1_555
F19 Sb3 1.933135 1_555
F20 Sb4 1.910161 1_555
F21 Sb5 1.910161 1_556
F22 Sb6 1.910161 1_555
F23 Sb7 1.910161 1_554
F24 Sb4 1.923684 1_555
F25 Sb5 1.923684 1_555
F26 Sb6 1.923684 1_555
F27 Sb7 1.923684 1_555
F28 Sb5 1.905985 1_555
F29 Sb4 1.905985 1_655
F30 Sb7 1.905985 1_555
F31 Sb6 1.905985 1_455
F32 Sb4 1.909925 1_555
F33 Sb5 1.909925 1_555
F34 Sb6 1.909925 1_555
F35 Sb1 1.933135 1_555
