# generated using pymatgen
data_Sr5Nb4O15
_symmetry_space_group_name_H-M   'P 1'
_cell_length_a   5.70620053
_cell_length_b   5.70620053
_cell_length_c   11.56647296
_cell_angle_alpha   89.77786783
_cell_angle_beta   89.77786783
_cell_angle_gamma   59.93027973
_symmetry_Int_Tables_number   1
_chemical_formula_structural   Sr5Nb4O15
_chemical_formula_sum   'Sr5 Nb4 O15'
_cell_volume   325.92355472
_cell_formula_units_Z   1
loop_
 _symmetry_equiv_pos_site_id
 _symmetry_equiv_pos_as_xyz
  1  'x, y, z'
loop_
 _atom_site_type_symbol
 _atom_site_label
 _atom_site_symmetry_multiplicity
 _atom_site_fract_x
 _atom_site_fract_y
 _atom_site_fract_z
 _atom_site_occupancy
  Sr  Sr0  1  0.33360468  0.33360468  0.21946675  1
  Sr  Sr1  1  0.66639532  0.66639532  0.78053325  1
  Sr  Sr2  1  0.33242789  0.33242789  0.56222017  1
  Sr  Sr3  1  0.66757211  0.66757211  0.43777983  1
  Sr  Sr4  1  0.00000000  -0.00000000  0.00000000  1
  Nb  Nb0  1  0.00031543  0.00031543  0.67854995  1
  Nb  Nb1  1  0.99968457  0.99968457  0.32145005  1
  Nb  Nb2  1  0.33414760  0.33414760  0.89387948  1
  Nb  Nb3  1  0.66585240  0.66585240  0.10612052  1
  O  O0  1  0.65936718  0.16947607  0.39297349  1
  O  O1  1  0.67351135  0.16686557  0.80673261  1
  O  O2  1  0.83052393  0.34063282  0.60702651  1
  O  O3  1  0.16970187  0.16970187  0.39184028  1
  O  O4  1  0.16686557  0.67351135  0.80673261  1
  O  O5  1  0.34063282  0.83052393  0.60702651  1
  O  O6  1  0.00000000  0.50000000  0.00000000  1
  O  O7  1  0.83029813  0.83029813  0.60815972  1
  O  O8  1  0.83213523  0.83213523  0.19596119  1
  O  O9  1  0.50000000  -0.00000000  0.00000000  1
  O  O10  1  0.83313443  0.32648865  0.19326739  1
  O  O11  1  0.16786477  0.16786477  0.80403881  1
  O  O12  1  0.32648865  0.83313443  0.19326739  1
  O  O13  1  0.16947607  0.65936718  0.39297349  1
  O  O14  1  0.50000000  0.50000000  0.00000000  1
loop_
_geom_bond_atom_site_label_1
_geom_bond_atom_site_label_2
_geom_bond_distance
_geom_bond_site_symmetry_2
Nb0 O7 1.871013 1_445
Nb0 O2 1.871488 1_455
Nb0 O5 1.871488 1_545
Nb0 O4 2.189150 1_545
Nb0 O1 2.189150 1_455
Nb0 O11 2.207352 1_555
Nb1 O3 1.871013 1_665
Nb1 O13 1.871488 1_655
Nb1 O0 1.871488 1_565
Nb1 O12 2.189150 1_655
Nb1 O10 2.189150 1_565
Nb1 O8 2.207352 1_555
Nb2 O11 1.948822 1_555
Nb2 O1 1.953741 1_555
Nb2 O4 1.953741 1_555
Nb2 O14 2.052670 1_556
Nb2 O6 2.054357 1_556
Nb2 O9 2.054357 1_556
Nb3 O8 1.948822 1_555
Nb3 O12 1.953741 1_555
Nb3 O10 1.953741 1_555
Nb3 O14 2.052670 1_555
Nb3 O6 2.054357 1_655
Nb3 O9 2.054357 1_565
O0 Sr2 2.534678 1_555
O0 Sr0 2.574833 1_555
O0 Sr3 2.885720 1_545
O0 Sr3 2.914454 1_555
O1 Sr4 2.759111 1_656
O1 Sr1 2.845306 1_555
O1 Sr1 2.893439 1_545
O2 Sr3 2.534678 1_555
O2 Sr1 2.574833 1_555
O2 Sr2 2.885720 1_655
O2 Sr2 2.914454 1_555
O3 Sr2 2.549594 1_555
O3 Sr0 2.563616 1_555
O3 Sr3 2.899261 1_455
O3 Sr3 2.899261 1_545
O4 Sr4 2.759111 1_566
O4 Sr1 2.845306 1_555
O4 Sr1 2.893439 1_455
O5 Sr3 2.534678 1_555
O5 Sr1 2.574833 1_555
O5 Sr2 2.885720 1_565
O5 Sr2 2.914454 1_555
O6 Sr4 2.853100 1_555
O6 Sr4 2.853100 1_565
O6 Sr1 3.029282 1_454
O6 Sr0 3.029282 1_555
O7 Sr3 2.549594 1_555
O7 Sr1 2.563616 1_555
O7 Sr2 2.899261 1_565
O7 Sr2 2.899261 1_655
O8 Sr4 2.803247 1_665
O8 Sr0 2.863074 1_655
O8 Sr0 2.863074 1_565
O9 Sr4 2.853100 1_655
O9 Sr4 2.853100 1_555
O9 Sr1 3.029282 1_544
O9 Sr0 3.029282 1_555
O10 Sr4 2.759111 1_655
O10 Sr0 2.845306 1_555
O10 Sr0 2.893439 1_655
O11 Sr4 2.803247 1_556
O11 Sr1 2.863074 1_545
O11 Sr1 2.863074 1_455
O12 Sr4 2.759111 1_565
O12 Sr0 2.845306 1_555
O12 Sr0 2.893439 1_565
O13 Sr2 2.534678 1_555
O13 Sr0 2.574833 1_555
O13 Sr3 2.885720 1_455
O13 Sr3 2.914454 1_555
O14 Sr4 2.850093 1_565
O14 Sr4 2.850093 1_655
O14 Sr1 3.018749 1_554
O14 Sr0 3.018749 1_555
