# generated using pymatgen
data_Cs4SiSe4
_symmetry_space_group_name_H-M   'P 1'
_cell_length_a   14.32036780
_cell_length_b   14.32036780
_cell_length_c   14.32036780
_cell_angle_alpha   90.00000000
_cell_angle_beta   90.00000000
_cell_angle_gamma   90.00000000
_symmetry_Int_Tables_number   1
_chemical_formula_structural   Cs4SiSe4
_chemical_formula_sum   'Cs32 Si8 Se32'
_cell_volume   2936.71983966
_cell_formula_units_Z   8
loop_
 _symmetry_equiv_pos_site_id
 _symmetry_equiv_pos_as_xyz
  1  'x, y, z'
loop_
 _atom_site_type_symbol
 _atom_site_label
 _atom_site_symmetry_multiplicity
 _atom_site_fract_x
 _atom_site_fract_y
 _atom_site_fract_z
 _atom_site_occupancy
  Cs  Cs0  1  0.34730715  0.34730715  0.34730715  1
  Cs  Cs1  1  0.15269285  0.84730715  0.15269285  1
  Cs  Cs2  1  0.84730715  0.15269285  0.15269285  1
  Cs  Cs3  1  0.15269285  0.15269285  0.84730715  1
  Cs  Cs4  1  0.34730715  0.65269285  0.65269285  1
  Cs  Cs5  1  0.65269285  0.65269285  0.34730715  1
  Cs  Cs6  1  0.65269285  0.34730715  0.65269285  1
  Cs  Cs7  1  0.84730715  0.84730715  0.84730715  1
  Cs  Cs8  1  0.34783220  0.13565573  0.08408246  1
  Cs  Cs9  1  0.34783220  0.86434427  0.91591754  1
  Cs  Cs10  1  0.13565573  0.08408246  0.34783220  1
  Cs  Cs11  1  0.86434427  0.08408246  0.65216780  1
  Cs  Cs12  1  0.08408246  0.34783220  0.13565573  1
  Cs  Cs13  1  0.91591754  0.65216780  0.13565573  1
  Cs  Cs14  1  0.15216780  0.41591754  0.63565573  1
  Cs  Cs15  1  0.15216780  0.58408246  0.36434427  1
  Cs  Cs16  1  0.84783220  0.41591754  0.36434427  1
  Cs  Cs17  1  0.58408246  0.36434427  0.15216780  1
  Cs  Cs18  1  0.36434427  0.84783220  0.41591754  1
  Cs  Cs19  1  0.36434427  0.15216780  0.58408246  1
  Cs  Cs20  1  0.41591754  0.63565573  0.15216780  1
  Cs  Cs21  1  0.63565573  0.15216780  0.41591754  1
  Cs  Cs22  1  0.41591754  0.36434427  0.84783220  1
  Cs  Cs23  1  0.58408246  0.63565573  0.84783220  1
  Cs  Cs24  1  0.63565573  0.84783220  0.58408246  1
  Cs  Cs25  1  0.91591754  0.34783220  0.86434427  1
  Cs  Cs26  1  0.08408246  0.65216780  0.86434427  1
  Cs  Cs27  1  0.13565573  0.91591754  0.65216780  1
  Cs  Cs28  1  0.86434427  0.91591754  0.34783220  1
  Cs  Cs29  1  0.65216780  0.86434427  0.08408246  1
  Cs  Cs30  1  0.65216780  0.13565573  0.91591754  1
  Cs  Cs31  1  0.84783220  0.58408246  0.63565573  1
  Si  Si0  1  -0.00000000  0.25000000  0.50000000  1
  Si  Si1  1  -0.00000000  0.75000000  0.50000000  1
  Si  Si2  1  0.50000000  -0.00000000  0.75000000  1
  Si  Si3  1  0.50000000  -0.00000000  0.25000000  1
  Si  Si4  1  0.75000000  0.50000000  -0.00000000  1
  Si  Si5  1  -0.00000000  -0.00000000  -0.00000000  1
  Si  Si6  1  0.50000000  0.50000000  0.50000000  1
  Si  Si7  1  0.25000000  0.50000000  -0.00000000  1
  Se  Se0  1  0.09999614  0.16201541  0.58936882  1
  Se  Se1  1  0.33798459  0.59999614  0.91063118  1
  Se  Se2  1  0.40000386  0.08936882  0.33798459  1
  Se  Se3  1  0.59999614  0.08936882  0.66201541  1
  Se  Se4  1  0.08936882  0.33798459  0.40000386  1
  Se  Se5  1  0.91063118  0.66201541  0.40000386  1
  Se  Se6  1  0.16201541  0.41063118  0.90000386  1
  Se  Se7  1  0.16201541  0.58936882  0.09999614  1
  Se  Se8  1  0.83798459  0.41063118  0.09999614  1
  Se  Se9  1  0.59245739  0.59245739  0.59245739  1
  Se  Se10  1  0.09999614  0.83798459  0.41063118  1
  Se  Se11  1  0.33798459  0.40000386  0.08936882  1
  Se  Se12  1  0.41063118  0.90000386  0.16201541  1
  Se  Se13  1  0.90000386  0.16201541  0.41063118  1
  Se  Se14  1  0.41063118  0.09999614  0.83798459  1
  Se  Se15  1  0.58936882  0.90000386  0.83798459  1
  Se  Se16  1  0.90000386  0.83798459  0.58936882  1
  Se  Se17  1  0.91063118  0.33798459  0.59999614  1
  Se  Se18  1  0.08936882  0.66201541  0.59999614  1
  Se  Se19  1  0.40000386  0.91063118  0.66201541  1
  Se  Se20  1  0.59999614  0.91063118  0.33798459  1
  Se  Se21  1  0.66201541  0.59999614  0.08936882  1
  Se  Se22  1  0.66201541  0.40000386  0.91063118  1
  Se  Se23  1  0.83798459  0.58936882  0.90000386  1
  Se  Se24  1  0.90754261  0.09245739  0.90754261  1
  Se  Se25  1  0.90754261  0.90754261  0.09245739  1
  Se  Se26  1  0.09245739  0.90754261  0.90754261  1
  Se  Se27  1  0.40754261  0.40754261  0.59245739  1
  Se  Se28  1  0.59245739  0.40754261  0.40754261  1
  Se  Se29  1  0.40754261  0.59245739  0.40754261  1
  Se  Se30  1  0.09245739  0.09245739  0.09245739  1
  Se  Se31  1  0.58936882  0.09999614  0.16201541  1
loop_
_geom_bond_atom_site_label_1
_geom_bond_atom_site_label_2
_geom_bond_distance
_geom_bond_site_symmetry_2
Cs0 Se29 3.716550 1_555
Cs0 Se27 3.716550 1_555
Cs0 Se28 3.716550 1_555
Cs0 Se11 3.772433 1_555
Cs0 Se4 3.772433 1_555
Cs0 Se2 3.772433 1_555
Cs1 Se25 3.716550 1_455
Cs1 Se26 3.716550 1_554
Cs1 Se30 3.716550 1_565
Cs1 Se7 3.772433 1_555
Cs1 Se10 3.772433 1_555
Cs1 Se12 3.772433 1_555
Cs2 Se24 3.716550 1_554
Cs2 Se25 3.716550 1_545
Cs2 Se30 3.716550 1_655
Cs2 Se8 3.772433 1_555
Cs2 Se13 3.772433 1_555
Cs2 Se31 3.772433 1_555
Cs3 Se26 3.716550 1_545
Cs3 Se24 3.716550 1_455
Cs3 Se30 3.716550 1_556
Cs3 Se14 3.772433 1_555
Cs3 Se0 3.772433 1_555
Cs3 Se6 3.772433 1_555
Cs4 Se29 3.716550 1_555
Cs4 Se27 3.716550 1_555
Cs4 Se9 3.716550 1_555
Cs4 Se1 3.772433 1_555
Cs4 Se19 3.772433 1_555
Cs4 Se18 3.772433 1_555
Cs5 Se29 3.716550 1_555
Cs5 Se28 3.716550 1_555
Cs5 Se9 3.716550 1_555
Cs5 Se21 3.772433 1_555
Cs5 Se20 3.772433 1_555
Cs5 Se5 3.772433 1_555
Cs6 Se27 3.716550 1_555
Cs6 Se28 3.716550 1_555
Cs6 Se9 3.716550 1_555
Cs6 Se22 3.772433 1_555
Cs6 Se3 3.772433 1_555
Cs6 Se17 3.772433 1_555
Cs7 Se24 3.716550 1_565
Cs7 Se26 3.716550 1_655
Cs7 Se25 3.716550 1_556
Cs7 Se23 3.772433 1_555
Cs7 Se16 3.772433 1_555
Cs7 Se15 3.772433 1_555
Cs8 Se12 3.666379 1_545
Cs8 Se31 3.670182 1_555
Cs8 Se14 3.672818 1_554
Cs8 Se30 3.710952 1_555
Cs8 Se2 3.770655 1_555
Cs8 Se11 3.788945 1_555
Cs9 Se14 3.666379 1_565
Cs9 Se15 3.670182 1_555
Cs9 Se12 3.672818 1_556
Cs9 Se26 3.710952 1_555
Cs9 Se19 3.770655 1_555
Cs9 Se1 3.788945 1_555
Cs10 Se13 3.666379 1_455
Cs10 Se0 3.670182 1_555
Cs10 Se10 3.672818 1_545
Cs10 Se30 3.710952 1_555
Cs10 Se4 3.770655 1_555
Cs10 Se2 3.788945 1_555
Cs11 Se0 3.666379 1_655
Cs11 Se13 3.670182 1_555
Cs11 Se16 3.672818 1_545
Cs11 Se24 3.710952 1_555
Cs11 Se17 3.770655 1_555
Cs11 Se3 3.788945 1_555
Cs12 Se6 3.666379 1_554
Cs12 Se7 3.670182 1_555
Cs12 Se8 3.672818 1_455
Cs12 Se30 3.710952 1_555
Cs12 Se11 3.770655 1_555
Cs12 Se4 3.788945 1_555
Cs13 Se23 3.666379 1_554
Cs13 Se8 3.670182 1_555
Cs13 Se7 3.672818 1_655
Cs13 Se25 3.710952 1_555
Cs13 Se21 3.770655 1_555
Cs13 Se5 3.788945 1_555
Cs14 Se4 3.666379 1_555
Cs14 Se17 3.670182 1_455
Cs14 Se18 3.672818 1_555
Cs14 Se27 3.710952 1_555
Cs14 Se0 3.770655 1_555
Cs14 Se6 3.788945 1_555
Cs15 Se18 3.666379 1_555
Cs15 Se5 3.670182 1_455
Cs15 Se4 3.672818 1_555
Cs15 Se29 3.710952 1_555
Cs15 Se10 3.770655 1_555
Cs15 Se7 3.788945 1_555
Cs16 Se17 3.666379 1_555
Cs16 Se4 3.670182 1_655
Cs16 Se5 3.672818 1_555
Cs16 Se28 3.710952 1_555
Cs16 Se13 3.770655 1_555
Cs16 Se8 3.788945 1_555
Cs17 Se21 3.666379 1_555
Cs17 Se22 3.670182 1_554
Cs17 Se11 3.672818 1_555
Cs17 Se28 3.710952 1_555
Cs17 Se8 3.770655 1_555
Cs17 Se31 3.788945 1_555
Cs18 Se20 3.666379 1_555
Cs18 Se2 3.670182 1_565
Cs18 Se19 3.672818 1_555
Cs18 Se29 3.710952 1_555
Cs18 Se12 3.770655 1_555
Cs18 Se10 3.788945 1_555
Cs19 Se3 3.666379 1_555
Cs19 Se19 3.670182 1_545
Cs19 Se2 3.672818 1_555
Cs19 Se27 3.710952 1_555
Cs19 Se14 3.770655 1_555
Cs19 Se0 3.788945 1_555
Cs20 Se11 3.666379 1_555
Cs20 Se1 3.670182 1_554
Cs20 Se21 3.672818 1_555
Cs20 Se29 3.710952 1_555
Cs20 Se7 3.770655 1_555
Cs20 Se12 3.788945 1_555
Cs21 Se2 3.666379 1_555
Cs21 Se20 3.670182 1_545
Cs21 Se3 3.672818 1_555
Cs21 Se28 3.710952 1_555
Cs21 Se31 3.770655 1_555
Cs21 Se13 3.788945 1_555
Cs22 Se1 3.666379 1_555
Cs22 Se11 3.670182 1_556
Cs22 Se22 3.672818 1_555
Cs22 Se27 3.710952 1_555
Cs22 Se6 3.770655 1_555
Cs22 Se14 3.788945 1_555
Cs23 Se22 3.666379 1_555
Cs23 Se21 3.670182 1_556
Cs23 Se1 3.672818 1_555
Cs23 Se9 3.710952 1_555
Cs23 Se23 3.770655 1_555
Cs23 Se15 3.788945 1_555
Cs24 Se19 3.666379 1_555
Cs24 Se3 3.670182 1_565
Cs24 Se20 3.672818 1_555
Cs24 Se9 3.710952 1_555
Cs24 Se15 3.770655 1_555
Cs24 Se16 3.788945 1_555
Cs25 Se8 3.666379 1_556
Cs25 Se23 3.670182 1_555
Cs25 Se6 3.672818 1_655
Cs25 Se24 3.710952 1_555
Cs25 Se22 3.770655 1_555
Cs25 Se17 3.788945 1_555
Cs26 Se7 3.666379 1_556
Cs26 Se6 3.670182 1_555
Cs26 Se23 3.672818 1_455
Cs26 Se26 3.710952 1_555
Cs26 Se1 3.770655 1_555
Cs26 Se18 3.788945 1_555
Cs27 Se16 3.666379 1_455
Cs27 Se10 3.670182 1_555
Cs27 Se0 3.672818 1_565
Cs27 Se26 3.710952 1_555
Cs27 Se18 3.770655 1_555
Cs27 Se19 3.788945 1_555
Cs28 Se10 3.666379 1_655
Cs28 Se16 3.670182 1_555
Cs28 Se13 3.672818 1_565
Cs28 Se25 3.710952 1_555
Cs28 Se5 3.770655 1_555
Cs28 Se20 3.788945 1_555
Cs29 Se31 3.666379 1_565
Cs29 Se12 3.670182 1_555
Cs29 Se15 3.672818 1_554
Cs29 Se25 3.710952 1_555
Cs29 Se20 3.770655 1_555
Cs29 Se21 3.788945 1_555
Cs30 Se15 3.666379 1_545
Cs30 Se14 3.670182 1_555
Cs30 Se31 3.672818 1_556
Cs30 Se24 3.710952 1_555
Cs30 Se3 3.770655 1_555
Cs30 Se22 3.788945 1_555
Cs31 Se5 3.666379 1_555
Cs31 Se18 3.670182 1_655
Cs31 Se17 3.672818 1_555
Cs31 Se9 3.710952 1_555
Cs31 Se16 3.770655 1_555
Cs31 Se23 3.788945 1_555
Se0 Si0 2.296949 1_555
Se1 Si7 2.296949 1_556
Se2 Si3 2.296949 1_555
Se3 Si2 2.296949 1_555
Se4 Si0 2.296949 1_555
Se5 Si1 2.296949 1_655
Se6 Si7 2.296949 1_556
Se7 Si7 2.296949 1_555
Se8 Si4 2.296949 1_555
Se9 Si6 2.293277 1_555
Se10 Si1 2.296949 1_555
Se11 Si7 2.296949 1_555
Se12 Si3 2.296949 1_565
Se13 Si0 2.296949 1_655
Se14 Si2 2.296949 1_555
Se15 Si2 2.296949 1_565
Se16 Si1 2.296949 1_655
Se17 Si0 2.296949 1_655
Se18 Si1 2.296949 1_555
Se19 Si2 2.296949 1_565
Se20 Si3 2.296949 1_565
Se21 Si4 2.296949 1_555
Se22 Si4 2.296949 1_556
Se23 Si4 2.296949 1_556
Se24 Si5 2.293277 1_656
Se25 Si5 2.293277 1_665
Se26 Si5 2.293277 1_566
Se27 Si6 2.293277 1_555
Se28 Si6 2.293277 1_555
Se29 Si6 2.293277 1_555
Se30 Si5 2.293277 1_555
Se31 Si3 2.296949 1_555
