# generated using pymatgen
data_UGa5Ni
_symmetry_space_group_name_H-M   'P 1'
_cell_length_a   4.24033803
_cell_length_b   4.24033282
_cell_length_c   6.75721214
_cell_angle_alpha   90.00000000
_cell_angle_beta   90.00000000
_cell_angle_gamma   90.00000000
_symmetry_Int_Tables_number   1
_chemical_formula_structural   UGa5Ni
_chemical_formula_sum   'U1 Ga5 Ni1'
_cell_volume   121.49767797
_cell_formula_units_Z   1
loop_
 _symmetry_equiv_pos_site_id
 _symmetry_equiv_pos_as_xyz
  1  'x, y, z'
loop_
 _atom_site_type_symbol
 _atom_site_label
 _atom_site_symmetry_multiplicity
 _atom_site_fract_x
 _atom_site_fract_y
 _atom_site_fract_z
 _atom_site_occupancy
  U  U0  1  -0.00000000  0.00000000  -0.00000000  1
  Ga  Ga0  1  0.50000000  -0.00000000  0.30733273  1
  Ga  Ga1  1  -0.00000000  0.50000000  0.30733573  1
  Ga  Ga2  1  0.00000000  0.50000000  0.69266427  1
  Ga  Ga3  1  0.50000000  -0.00000000  0.69266727  1
  Ga  Ga4  1  0.50000000  0.50000000  -0.00000000  1
  Ni  Ni0  1  -0.00000000  0.00000000  0.50000000  1
loop_
_geom_bond_atom_site_label_1
_geom_bond_atom_site_label_2
_geom_bond_distance
_geom_bond_site_symmetry_2
Ga0 Ni0 2.487980 1_655
Ga0 Ni0 2.487980 1_555
Ga0 Ga3 2.603787 1_555
Ga0 Ga4 2.967801 1_545
Ga0 Ga4 2.967801 1_555
Ga0 U0 2.967802 1_655
Ga0 U0 2.967802 1_555
Ga0 Ga1 2.998370 1_545
Ga0 Ga1 2.998370 1_555
Ga0 Ga1 2.998370 1_645
Ga0 Ga1 2.998370 1_655
Ga1 Ni0 2.487967 1_555
Ga1 Ni0 2.487967 1_565
Ga1 Ga2 2.603747 1_555
Ga1 U0 2.967815 1_555
Ga1 U0 2.967815 1_565
Ga1 Ga4 2.967817 1_555
Ga1 Ga4 2.967817 1_455
Ga2 Ni0 2.487967 1_555
Ga2 Ni0 2.487967 1_565
Ga2 U0 2.967815 1_566
Ga2 U0 2.967815 1_556
Ga2 Ga4 2.967817 1_556
Ga2 Ga4 2.967817 1_456
Ga2 Ga3 2.998370 1_465
Ga2 Ga3 2.998370 1_455
Ga2 Ga3 2.998370 1_555
Ga2 Ga3 2.998370 1_565
Ga3 Ni0 2.487980 1_655
Ga3 Ni0 2.487980 1_555
Ga3 Ga4 2.967801 1_556
Ga3 Ga4 2.967801 1_546
Ga3 U0 2.967802 1_556
Ga3 U0 2.967802 1_656
Ga4 U0 2.998370 1_655
Ga4 U0 2.998370 1_565
Ga4 U0 2.998370 1_555
Ga4 U0 2.998370 1_665
