# generated using pymatgen
data_HfMnSi
_symmetry_space_group_name_H-M   'P 1'
_cell_length_a   3.75141812
_cell_length_b   6.58595163
_cell_length_c   7.62525154
_cell_angle_alpha   89.99942001
_cell_angle_beta   89.99999386
_cell_angle_gamma   89.99999610
_symmetry_Int_Tables_number   1
_chemical_formula_structural   HfMnSi
_chemical_formula_sum   'Hf4 Mn4 Si4'
_cell_volume   188.39448411
_cell_formula_units_Z   4
loop_
 _symmetry_equiv_pos_site_id
 _symmetry_equiv_pos_as_xyz
  1  'x, y, z'
loop_
 _atom_site_type_symbol
 _atom_site_label
 _atom_site_symmetry_multiplicity
 _atom_site_fract_x
 _atom_site_fract_y
 _atom_site_fract_z
 _atom_site_occupancy
  Hf  Hf0  1  0.24999997  0.53263478  0.32455231  1
  Hf  Hf1  1  0.74999999  0.46736669  0.67545141  1
  Hf  Hf2  1  0.25000000  0.03263444  0.17543957  1
  Hf  Hf3  1  0.75000000  0.96737346  0.82455808  1
  Mn  Mn0  1  0.75000000  0.86564212  0.44111513  1
  Mn  Mn1  1  0.25000001  0.13433916  0.55884206  1
  Mn  Mn2  1  0.75000002  0.36563877  0.05888797  1
  Mn  Mn3  1  0.24999998  0.63434483  0.94114806  1
  Si  Si0  1  0.25000001  0.26088522  0.87234496  1
  Si  Si1  1  0.75000000  0.73913037  0.12765091  1
  Si  Si2  1  0.25000001  0.76086622  0.62765924  1
  Si  Si3  1  0.75000001  0.23914394  0.37235030  1
loop_
_geom_bond_atom_site_label_1
_geom_bond_atom_site_label_2
_geom_bond_distance
_geom_bond_site_symmetry_2
Hf0 Si3 2.717954 1_455
Hf0 Si3 2.717954 1_555
Hf0 Si2 2.757063 1_555
Hf0 Si1 2.760803 1_455
Hf0 Si1 2.760803 1_555
Hf1 Si2 2.717989 1_555
Hf1 Si2 2.717989 1_655
Hf1 Si3 2.756995 1_555
Hf1 Si0 2.760724 1_555
Hf1 Si0 2.760724 1_655
Hf2 Si1 2.718012 1_545
Hf2 Si1 2.718012 1_445
Hf2 Si0 2.757028 1_554
Hf2 Si3 2.760901 1_455
Hf2 Si3 2.760902 1_555
Hf3 Si0 2.718046 1_565
Hf3 Si0 2.718046 1_665
Hf3 Si1 2.756989 1_556
Hf3 Si2 2.760845 1_655
Hf3 Si2 2.760845 1_555
Mn0 Si2 2.453117 1_555
Mn0 Si2 2.453117 1_655
Mn0 Si3 2.515125 1_565
Mn0 Si1 2.531309 1_555
Mn1 Si3 2.452939 1_555
Mn1 Si3 2.452939 1_455
Mn1 Si2 2.515022 1_545
Mn1 Si0 2.531662 1_555
Mn2 Si0 2.453079 1_654
Mn2 Si0 2.453079 1_554
Mn2 Si1 2.515066 1_555
Mn2 Si3 2.531243 1_555
Mn3 Si1 2.452961 1_456
Mn3 Si1 2.452961 1_556
Mn3 Si0 2.514924 1_555
Mn3 Si2 2.531491 1_555
