# generated using pymatgen
data_Na3LaGe3(PO4)6
_symmetry_space_group_name_H-M   'P 1'
_cell_length_a   8.65701709
_cell_length_b   8.68025177
_cell_length_c   21.99533194
_cell_angle_alpha   89.72961238
_cell_angle_beta   90.24780530
_cell_angle_gamma   120.17873459
_symmetry_Int_Tables_number   1
_chemical_formula_structural   Na3LaGe3(PO4)6
_chemical_formula_sum   'Na9 La3 Ge9 P18 O72'
_cell_volume   1428.79788632
_cell_formula_units_Z   3
loop_
 _symmetry_equiv_pos_site_id
 _symmetry_equiv_pos_as_xyz
  1  'x, y, z'
loop_
 _atom_site_type_symbol
 _atom_site_label
 _atom_site_symmetry_multiplicity
 _atom_site_fract_x
 _atom_site_fract_y
 _atom_site_fract_z
 _atom_site_occupancy
  Na  Na0  1  0.34519683  0.33225616  0.24361563  1
  Na  Na1  1  0.63079369  0.62601225  0.75080639  1
  Na  Na2  1  0.97181756  0.29637874  0.41882554  1
  Na  Na3  1  0.99838198  0.98973696  0.50752439  1
  Na  Na4  1  0.00000692  0.00218562  0.99864529  1
  Na  Na5  1  0.66737150  0.32054247  0.83759389  1
  Na  Na6  1  0.67148365  0.33803727  0.32442104  1
  Na  Na7  1  0.32551075  0.68654907  0.15961506  1
  Na  Na8  1  0.30742956  0.66885477  0.66438337  1
  La  La0  1  0.99950190  0.97781771  0.36043523  1
  La  La1  1  0.66626209  0.31894306  0.68188536  1
  La  La2  1  0.67981893  0.33380225  0.16032143  1
  Ge  Ge0  1  0.00240767  0.00171226  0.85865669  1
  Ge  Ge1  1  0.00262815  0.00346929  0.64884474  1
  Ge  Ge2  1  0.99660291  0.99545462  0.14371559  1
  Ge  Ge3  1  0.66713051  0.33269155  0.98335589  1
  Ge  Ge4  1  0.65954153  0.33317266  0.48244546  1
  Ge  Ge5  1  0.33415595  0.66399748  0.00947047  1
  Ge  Ge6  1  0.33732906  0.66534592  0.52131681  1
  Ge  Ge7  1  0.33492638  0.67537723  0.31050794  1
  Ge  Ge8  1  0.32854224  0.66958029  0.81267263  1
  P  P0  1  0.29151836  0.99002703  0.24394849  1
  P  P1  1  0.69048462  0.70664974  0.24411021  1
  P  P2  1  0.00513445  0.30176638  0.25344221  1
  P  P3  1  0.26703401  0.29163783  0.75506406  1
  P  P4  1  0.02226902  0.73619966  0.75517240  1
  P  P5  1  0.71309562  0.98603538  0.75755601  1
  P  P6  1  0.98005879  0.33263476  0.58101662  1
  P  P7  1  0.35390735  0.01777085  0.58241886  1
  P  P8  1  0.66638983  0.64125966  0.58636389  1
  P  P9  1  0.98781180  0.64870266  0.07962963  1
  P  P10  1  0.66179189  0.01509199  0.07887438  1
  P  P11  1  0.35388844  0.33468234  0.07983584  1
  P  P12  1  0.62433841  0.65691657  0.91282062  1
  P  P13  1  0.03764705  0.37781900  0.91435868  1
  P  P14  1  0.34138578  0.96208160  0.91363287  1
  P  P15  1  0.59123279  0.96112044  0.42071023  1
  P  P16  1  0.37076485  0.41357019  0.41931166  1
  P  P17  1  0.04535085  0.64115409  0.42446090  1
  O  O0  1  0.23114917  0.05895980  0.29766595  1
  O  O1  1  0.79508200  0.76749595  0.30355967  1
  O  O2  1  0.97759576  0.21226522  0.31592884  1
  O  O3  1  0.16936078  0.19010580  0.81266889  1
  O  O4  1  0.01505413  0.83024442  0.81310493  1
  O  O5  1  0.80618496  -0.02566543  0.81560061  1
  O  O6  1  0.80081430  0.96599752  0.69878710  1
  O  O7  1  0.16620841  0.20447769  0.69538512  1
  O  O8  1  0.03899339  0.84093912  0.69604670  1
  O  O9  1  0.79477335  0.82064029  0.18719572  1
  O  O10  1  0.03019244  0.19420324  0.20047421  1
  O  O11  1  0.17463238  0.96888456  0.18556012  1
  O  O12  1  0.93728508  0.40376538  0.63770954  1
  O  O13  1  0.45767361  0.05090478  0.64164186  1
  O  O14  1  0.61038415  0.54448746  0.64762481  1
  O  O15  1  0.96347748  0.57079394  0.14335405  1
  O  O16  1  0.60113017  0.04043995  0.14066376  1
  O  O17  1  0.43670886  0.37690322  0.14297496  1
  O  O18  1  0.47045989  0.29901405  0.03373357  1
  O  O19  1  0.83107900  0.52378105  0.03555666  1
  O  O20  1  0.70008374  0.17049205  0.03364769  1
  O  O21  1  0.46655281  0.15602937  0.53209953  1
  O  O22  1  0.68931334  0.52537120  0.53702016  1
  O  O23  1  0.84977032  0.30262734  0.52664711  1
  O  O24  1  0.52536733  0.68750253  0.96381868  1
  O  O25  1  0.16077444  0.46389392  0.96875874  1
  O  O26  1  0.30482153  0.83337052  0.96604460  1
  O  O27  1  0.47801633  0.86689845  0.47633033  1
  O  O28  1  0.40015205  0.53365088  0.47360643  1
  O  O29  1  0.13330075  0.59102387  0.47525494  1
  O  O30  1  0.12712408  0.63679373  0.36197075  1
  O  O31  1  0.49719474  0.87395934  0.35952388  1
  O  O32  1  0.37698785  0.50377108  0.35701350  1
  O  O33  1  0.12034519  0.49501518  0.85649556  1
  O  O34  1  0.37525634  0.88415409  0.85483029  1
  O  O35  1  0.51727230  0.62753377  0.85221986  1
  O  O36  1  0.04386661  0.81145190  0.43755393  1
  O  O37  1  0.77739987  0.98300240  0.42589797  1
  O  O38  1  0.19687364  0.23507834  0.42576936  1
  O  O39  1  0.00533376  0.18394292  0.91076684  1
  O  O40  1  0.18054390  0.99622631  0.91075990  1
  O  O41  1  0.81980906  0.81873869  0.91208016  1
  O  O42  1  0.95490877  0.14315498  0.59185249  1
  O  O43  1  0.18882356  0.04199969  0.59104512  1
  O  O44  1  0.85367430  0.81251035  0.59249931  1
  O  O45  1  0.98468134  0.82629103  0.08142412  1
  O  O46  1  0.84437230  0.02094405  0.08459246  1
  O  O47  1  0.16918517  0.16106848  0.08342992  1
  O  O48  1  0.70073611  0.15348072  0.76046524  1
  O  O49  1  0.45513077  0.31657583  0.75629153  1
  O  O50  1  0.85192934  0.55361009  0.75500089  1
  O  O51  1  0.63959135  0.51189481  0.23694271  1
  O  O52  1  0.85741377  0.34303732  0.24316748  1
  O  O53  1  0.48559453  0.13230854  0.23496956  1
  O  O54  1  0.63565826  0.48506657  0.92437320  1
  O  O55  1  0.85317062  0.36429874  0.92474254  1
  O  O56  1  0.51318397  0.14585296  0.92519444  1
  O  O57  1  0.61565061  0.15251081  0.42136167  1
  O  O58  1  0.53460779  0.38593717  0.42129905  1
  O  O59  1  0.85075058  0.47739767  0.42298115  1
  O  O60  1  0.33191849  0.49458136  0.06261419  1
  O  O61  1  0.17237313  0.67938049  0.06079110  1
  O  O62  1  0.51690281  0.83100815  0.05770234  1
  O  O63  1  0.28173626  0.81676285  0.56778758  1
  O  O64  1  0.53022527  0.70455886  0.57246986  1
  O  O65  1  0.18353596  0.46009374  0.56941315  1
  O  O66  1  0.26514900  0.80093552  0.25623604  1
  O  O67  1  0.51792600  0.72540861  0.25003750  1
  O  O68  1  0.19390146  0.48031730  0.25526931  1
  O  O69  1  0.28579426  0.48184103  0.75545127  1
  O  O70  1  0.19209444  0.71810565  0.75604519  1
  O  O71  1  0.52206977  0.81423001  0.75608287  1
loop_
_geom_bond_atom_site_label_1
_geom_bond_atom_site_label_2
_geom_bond_distance
_geom_bond_site_symmetry_2
Na0 O51 2.225722 1_555
Na0 O68 2.265254 1_555
Na0 O17 2.318692 1_555
Na0 O0 2.375834 1_555
Na0 O10 2.544761 1_555
Na0 O53 2.579090 1_555
Na0 O32 2.851414 1_555
Na1 O71 2.262165 1_555
Na1 O50 2.296925 1_555
Na1 O49 2.330989 1_555
Na1 O14 2.359802 1_555
Na1 O35 2.444167 1_555
Na1 O69 2.596215 1_555
Na1 O6 2.792922 1_555
Na2 O38 2.267454 1_655
Na2 O59 2.287725 1_555
Na2 O37 2.377316 1_545
Na2 O2 2.389805 1_555
Na2 O29 2.540935 1_655
Na2 O23 2.612303 1_555
Na2 O57 2.683129 1_555
Na2 O30 2.843988 1_655
Na3 O44 2.341971 1_555
Na3 O43 2.351253 1_665
Na3 O36 2.357745 1_655
Na3 O42 2.426664 1_565
Na3 O37 2.597204 1_555
Na3 O38 2.651988 1_665
Na4 O45 2.331536 1_446
Na4 O47 2.344064 1_556
Na4 O46 2.379300 1_456
Na4 O41 2.469806 1_445
Na4 O39 2.475129 1_555
Na4 O40 2.508083 1_545
Na5 O48 2.347959 1_555
Na5 O56 2.398604 1_555
Na5 O55 2.402451 1_555
Na5 O54 2.486486 1_555
Na5 O49 2.546290 1_555
Na5 O50 2.585824 1_555
Na6 O52 2.395974 1_555
Na6 O51 2.538270 1_555
Na6 O57 2.562700 1_555
Na6 O58 2.577416 1_555
Na6 O59 2.584491 1_555
Na6 O53 2.601210 1_555
Na7 O67 2.501371 1_555
Na7 O66 2.515274 1_555
Na7 O61 2.525792 1_555
Na7 O68 2.619904 1_555
Na7 O62 2.694285 1_555
Na7 O60 2.731180 1_555
Na7 O15 2.790672 1_455
Na7 O16 2.816140 1_565
Na8 O70 2.387295 1_555
Na8 O69 2.519806 1_555
Na8 O63 2.543475 1_555
Na8 O71 2.597570 1_555
Na8 O65 2.619134 1_555
Na8 O64 2.707413 1_555
Na8 O12 2.913793 1_455
Na8 O13 2.931386 1_565
La0 O1 2.187207 1_555
La0 O0 2.240189 1_665
La0 O2 2.345925 1_565
La0 O36 2.374670 1_655
La0 O37 2.425645 1_555
La0 O38 2.478740 1_665
La1 O13 2.288912 1_555
La1 O12 2.295054 1_555
La1 O48 2.354207 1_555
La1 O14 2.360057 1_555
La1 O49 2.450995 1_555
La1 O50 2.456798 1_555
La2 O15 2.307183 1_555
La2 O16 2.323630 1_555
La2 O17 2.344839 1_555
La2 O52 2.354548 1_555
La2 O53 2.371106 1_555
La2 O51 2.433567 1_555
Ge0 O3 1.845824 1_555
Ge0 O4 1.846613 1_545
Ge0 O5 1.849670 1_455
Ge0 O40 1.936966 1_545
Ge0 O39 1.947579 1_555
Ge0 O41 1.968855 1_445
Ge1 O8 1.896646 1_545
Ge1 O7 1.902042 1_555
Ge1 O42 1.922765 1_455
Ge1 O43 1.948853 1_555
Ge1 O44 1.950101 1_445
Ge1 O6 1.951093 1_445
Ge2 O9 1.898737 1_555
Ge2 O11 1.902291 1_655
Ge2 O46 1.937127 1_565
Ge2 O47 1.974037 1_665
Ge2 O45 1.977229 1_555
Ge2 O10 2.032785 1_665
Ge3 O20 1.916687 1_556
Ge3 O19 1.928987 1_556
Ge3 O18 1.930007 1_556
Ge3 O54 1.962091 1_555
Ge3 O56 1.968427 1_555
Ge3 O55 1.975249 1_555
Ge4 O58 1.915208 1_555
Ge4 O21 1.940499 1_555
Ge4 O57 1.955796 1_555
Ge4 O22 1.968402 1_555
Ge4 O59 1.984388 1_555
Ge4 O23 2.037214 1_555
Ge5 O62 1.850424 1_555
Ge5 O25 1.858396 1_554
Ge5 O61 1.859229 1_555
Ge5 O24 1.860879 1_554
Ge5 O60 1.866724 1_555
Ge5 O26 1.870385 1_554
Ge6 O28 1.828974 1_555
Ge6 O27 1.837138 1_555
Ge6 O29 1.845928 1_555
Ge6 O64 1.893740 1_555
Ge6 O63 1.912268 1_555
Ge6 O65 1.917163 1_555
Ge7 O66 1.902921 1_555
Ge7 O31 1.917527 1_555
Ge7 O68 1.939543 1_555
Ge7 O67 1.946413 1_555
Ge7 O32 1.981290 1_555
Ge7 O30 2.009468 1_555
Ge8 O70 1.899119 1_555
Ge8 O33 1.931087 1_555
Ge8 O34 1.936040 1_555
Ge8 O69 1.945689 1_555
Ge8 O71 1.954747 1_555
Ge8 O35 2.035564 1_555
O0 P0 1.534141 1_545
O1 P1 1.524525 1_555
O2 P2 1.534912 1_655
O3 P3 1.531855 1_555
O4 P4 1.534852 1_555
O5 P5 1.536850 1_545
O6 P5 1.556035 1_555
O7 P3 1.546888 1_555
O8 P4 1.548206 1_555
O9 P1 1.568829 1_555
O10 P2 1.578680 1_555
O11 P0 1.584683 1_555
O12 P6 1.521323 1_555
O13 P7 1.523212 1_555
O14 P8 1.530299 1_555
O15 P9 1.522066 1_555
O16 P10 1.515405 1_555
O17 P11 1.519556 1_555
O18 P11 1.571139 1_555
O19 P9 1.573492 1_555
O20 P10 1.568327 1_555
O21 P7 1.560894 1_555
O22 P8 1.562728 1_555
O23 P6 1.570363 1_555
O24 P12 1.517453 1_555
O25 P13 1.524088 1_555
O26 P14 1.520806 1_555
O27 P15 1.523548 1_555
O28 P16 1.523115 1_555
O29 P17 1.529187 1_555
O30 P17 1.558090 1_555
O31 P15 1.557965 1_555
O32 P16 1.562587 1_555
O33 P13 1.559060 1_555
O34 P14 1.557987 1_555
O35 P12 1.567068 1_555
O36 P17 1.513739 1_555
O37 P15 1.528843 1_555
O38 P16 1.530247 1_555
O39 P13 1.563451 1_555
O40 P14 1.563529 1_555
O41 P12 1.564316 1_555
O42 P6 1.563992 1_555
O43 P7 1.558064 1_555
O44 P8 1.559961 1_555
O45 P9 1.556000 1_555
O46 P10 1.560230 1_555
O47 P11 1.552852 1_555
O48 P5 1.511755 1_545
O49 P3 1.531149 1_555
O50 P4 1.528643 1_655
O51 P1 1.526404 1_555
O52 P2 1.507359 1_655
O53 P0 1.517064 1_545
O54 P12 1.562857 1_555
O55 P13 1.559122 1_655
O56 P14 1.560934 1_545
O57 P15 1.565882 1_545
O58 P16 1.553286 1_555
O59 P17 1.565895 1_655
O60 P11 1.538157 1_555
O61 P9 1.540238 1_455
O62 P10 1.526537 1_565
O63 P7 1.563906 1_565
O64 P8 1.559260 1_555
O65 P6 1.560104 1_455
O66 P0 1.561685 1_555
O67 P1 1.587930 1_555
O68 P2 1.589905 1_555
O69 P3 1.575698 1_555
O70 P4 1.555105 1_555
O71 P5 1.574900 1_555
