# generated using pymatgen
data_Ce5Sn4
_symmetry_space_group_name_H-M   'P 1'
_cell_length_a   8.34729300
_cell_length_b   8.45925200
_cell_length_c   15.96394700
_cell_angle_alpha   90.00000000
_cell_angle_beta   90.00000000
_cell_angle_gamma   90.00000000
_symmetry_Int_Tables_number   1
_chemical_formula_structural   Ce5Sn4
_chemical_formula_sum   'Ce20 Sn16'
_cell_volume   1127.24391087
_cell_formula_units_Z   4
loop_
 _symmetry_equiv_pos_site_id
 _symmetry_equiv_pos_as_xyz
  1  'x, y, z'
loop_
 _atom_site_type_symbol
 _atom_site_label
 _atom_site_symmetry_multiplicity
 _atom_site_fract_x
 _atom_site_fract_y
 _atom_site_fract_z
 _atom_site_occupancy
  Ce  Ce0  1  0.12353400  0.33708600  0.87769100  1
  Ce  Ce1  1  0.62353400  0.16291400  0.62230900  1
  Ce  Ce2  1  0.37646600  0.83708600  0.12230900  1
  Ce  Ce3  1  0.87646600  0.66291400  0.37769100  1
  Ce  Ce4  1  0.12353400  0.33708600  0.62230900  1
  Ce  Ce5  1  0.62353400  0.16291400  0.87769100  1
  Ce  Ce6  1  0.37646600  0.83708600  0.37769100  1
  Ce  Ce7  1  0.87646600  0.66291400  0.12230900  1
  Ce  Ce8  1  0.01505700  0.20013100  0.40543700  1
  Ce  Ce9  1  0.51505700  0.29986900  0.09456300  1
  Ce  Ce10  1  0.48494300  0.70013100  0.59456300  1
  Ce  Ce11  1  0.98494300  0.79986900  0.90543700  1
  Ce  Ce12  1  0.98494300  0.79986900  0.59456300  1
  Ce  Ce13  1  0.48494300  0.70013100  0.90543700  1
  Ce  Ce14  1  0.51505700  0.29986900  0.40543700  1
  Ce  Ce15  1  0.01505700  0.20013100  0.09456300  1
  Ce  Ce16  1  0.30661200  0.01163400  0.75000000  1
  Ce  Ce17  1  0.80661200  0.48836600  0.75000000  1
  Ce  Ce18  1  0.19338800  0.51163400  0.25000000  1
  Ce  Ce19  1  0.69338800  0.98836600  0.25000000  1
  Sn  Sn0  1  0.78195600  0.46782800  0.54130900  1
  Sn  Sn1  1  0.28195600  0.03217200  0.95869100  1
  Sn  Sn2  1  0.71804400  0.96782800  0.45869100  1
  Sn  Sn3  1  0.21804400  0.53217200  0.04130900  1
  Sn  Sn4  1  0.21804400  0.53217200  0.45869100  1
  Sn  Sn5  1  0.71804400  0.96782800  0.04130900  1
  Sn  Sn6  1  0.28195600  0.03217200  0.54130900  1
  Sn  Sn7  1  0.78195600  0.46782800  0.95869100  1
  Sn  Sn8  1  0.93163700  0.09501700  0.75000000  1
  Sn  Sn9  1  0.43163700  0.40498300  0.75000000  1
  Sn  Sn10  1  0.56836300  0.59501700  0.25000000  1
  Sn  Sn11  1  0.06836300  0.90498300  0.25000000  1
  Sn  Sn12  1  0.17703300  0.64864300  0.75000000  1
  Sn  Sn13  1  0.67703300  0.85135700  0.75000000  1
  Sn  Sn14  1  0.32296700  0.14864300  0.25000000  1
  Sn  Sn15  1  0.82296700  0.35135700  0.25000000  1
loop_
_geom_bond_atom_site_label_1
_geom_bond_atom_site_label_2
_geom_bond_distance
_geom_bond_site_symmetry_2
Ce0 Sn1 3.173925 1_555
Ce0 Sn3 3.188775 1_556
Ce0 Sn8 3.303677 1_455
Ce0 Sn7 3.320374 1_455
Ce0 Sn9 3.331586 1_555
Ce0 Sn12 3.361663 1_555
Ce0 Ce17 3.576495 1_455
Ce0 Ce16 3.751020 1_555
Ce0 Ce15 3.761447 1_556
Ce1 Sn0 3.173925 1_555
Ce1 Sn2 3.188775 1_545
Ce1 Sn9 3.303677 1_555
Ce1 Sn6 3.320374 1_555
Ce1 Sn8 3.331586 1_555
Ce1 Sn13 3.361663 1_545
Ce1 Ce16 3.576495 1_555
Ce1 Ce17 3.751020 1_555
Ce1 Ce14 3.761447 1_555
Ce2 Sn3 3.173925 1_555
Ce2 Sn1 3.188775 1_564
Ce2 Sn10 3.303677 1_555
Ce2 Sn5 3.320374 1_555
Ce2 Sn11 3.331586 1_555
Ce2 Sn14 3.361663 1_565
Ce3 Sn2 3.173925 1_555
Ce3 Sn0 3.188775 1_555
Ce3 Sn11 3.303677 1_655
Ce3 Sn4 3.320374 1_655
Ce3 Sn10 3.331586 1_555
Ce3 Sn15 3.361663 1_555
Ce4 Sn6 3.173925 1_555
Ce4 Sn4 3.188775 1_555
Ce4 Sn8 3.303677 1_455
Ce4 Sn0 3.320374 1_455
Ce4 Sn9 3.331586 1_555
Ce4 Sn12 3.361663 1_555
Ce4 Ce8 3.761447 1_555
Ce5 Sn7 3.173925 1_555
Ce5 Sn5 3.188775 1_546
Ce5 Sn9 3.303677 1_555
Ce5 Sn1 3.320374 1_555
Ce5 Sn8 3.331586 1_555
Ce5 Sn13 3.361663 1_545
Ce5 Ce9 3.761447 1_556
Ce6 Sn4 3.173925 1_555
Ce6 Sn6 3.188775 1_565
Ce6 Sn10 3.303677 1_555
Ce6 Sn2 3.320374 1_555
Ce6 Sn11 3.331586 1_555
Ce6 Sn14 3.361663 1_565
Ce7 Sn5 3.173925 1_555
Ce7 Sn7 3.188775 1_554
Ce7 Sn11 3.303677 1_655
Ce7 Sn3 3.320374 1_655
Ce7 Sn10 3.331586 1_555
Ce7 Sn15 3.361663 1_555
Ce8 Sn15 3.219438 1_455
Ce8 Sn2 3.275836 1_445
Ce8 Sn4 3.388683 1_555
Ce8 Sn6 3.418619 1_555
Ce8 Sn11 3.548090 1_545
Ce8 Sn14 3.599027 1_555
Ce8 Sn0 3.690368 1_455
Ce9 Sn14 3.219438 1_555
Ce9 Sn3 3.275836 1_555
Ce9 Sn5 3.388683 1_545
Ce9 Sn7 3.418619 1_554
Ce9 Sn10 3.548090 1_555
Ce9 Sn15 3.599027 1_555
Ce9 Sn1 3.690368 1_554
Ce10 Sn13 3.219438 1_555
Ce10 Sn0 3.275836 1_555
Ce10 Sn6 3.388683 1_565
Ce10 Sn4 3.418619 1_555
Ce10 Sn9 3.548090 1_555
Ce10 Sn12 3.599027 1_555
Ce10 Sn2 3.690368 1_555
Ce10 Ce6 3.761447 1_555
Ce10 Ce16 3.913671 1_565
Ce10 Ce17 4.071349 1_555
Ce11 Sn12 3.219438 1_655
Ce11 Sn1 3.275836 1_665
Ce11 Sn7 3.388683 1_555
Ce11 Sn5 3.418619 1_556
Ce11 Sn8 3.548090 1_565
Ce11 Sn13 3.599027 1_555
Ce11 Sn3 3.690368 1_656
Ce11 Ce7 3.761447 1_556
Ce11 Ce17 3.913671 1_555
Ce11 Ce16 4.071349 1_665
Ce12 Sn12 3.219438 1_655
Ce12 Sn6 3.275836 1_665
Ce12 Sn0 3.388683 1_555
Ce12 Sn2 3.418619 1_555
Ce12 Sn8 3.548090 1_565
Ce12 Sn13 3.599027 1_555
Ce12 Sn4 3.690368 1_655
Ce12 Ce3 3.761447 1_555
Ce12 Ce17 3.913671 1_555
Ce12 Ce16 4.071349 1_665
Ce13 Sn13 3.219438 1_555
Ce13 Sn7 3.275836 1_555
Ce13 Sn1 3.388683 1_565
Ce13 Sn3 3.418619 1_556
Ce13 Sn9 3.548090 1_555
Ce13 Sn12 3.599027 1_555
Ce13 Sn5 3.690368 1_556
Ce13 Ce2 3.761447 1_556
Ce13 Ce16 3.913671 1_565
Ce13 Ce17 4.071349 1_555
Ce14 Sn14 3.219438 1_555
Ce14 Sn4 3.275836 1_555
Ce14 Sn2 3.388683 1_545
Ce14 Sn0 3.418619 1_555
Ce14 Sn10 3.548090 1_555
Ce14 Sn15 3.599027 1_555
Ce14 Sn6 3.690368 1_555
Ce14 Ce19 3.913671 1_545
Ce14 Ce18 4.071349 1_555
Ce15 Sn15 3.219438 1_455
Ce15 Sn5 3.275836 1_445
Ce15 Sn3 3.388683 1_555
Ce15 Sn1 3.418619 1_554
Ce15 Sn11 3.548090 1_545
Ce15 Sn14 3.599027 1_555
Ce15 Sn7 3.690368 1_454
Ce15 Ce18 3.913671 1_555
Ce15 Ce19 4.071349 1_445
Ce16 Sn8 3.208519 1_455
Ce16 Sn12 3.255567 1_545
Ce16 Sn1 3.342402 1_555
Ce16 Sn6 3.342402 1_555
Ce16 Sn13 3.376211 1_545
Ce16 Sn9 3.487261 1_555
Ce16 Ce5 3.576495 1_555
Ce16 Ce4 3.751020 1_555
Ce17 Sn9 3.208519 1_555
Ce17 Sn13 3.255567 1_555
Ce17 Sn7 3.342402 1_555
Ce17 Sn0 3.342402 1_555
Ce17 Sn12 3.376211 1_655
Ce17 Sn8 3.487261 1_555
Ce17 Ce4 3.576495 1_655
Ce17 Ce5 3.751020 1_555
Ce18 Sn10 3.208519 1_555
Ce18 Sn14 3.255567 1_555
Ce18 Sn4 3.342402 1_555
Ce18 Sn3 3.342402 1_555
Ce18 Sn15 3.376211 1_455
Ce18 Sn11 3.487261 1_555
Ce18 Ce7 3.576495 1_455
Ce18 Ce3 3.576495 1_455
Ce18 Ce2 3.751020 1_555
Ce18 Ce6 3.751020 1_555
Ce18 Ce8 3.913671 1_555
Ce18 Ce9 4.071349 1_555
Ce19 Sn11 3.208519 1_655
Ce19 Sn15 3.255567 1_565
Ce19 Sn2 3.342402 1_555
Ce19 Sn5 3.342402 1_555
Ce19 Sn14 3.376211 1_565
Ce19 Sn10 3.487261 1_555
Ce19 Ce2 3.576495 1_555
Ce19 Ce6 3.576495 1_555
Ce19 Ce3 3.751020 1_555
Ce19 Ce7 3.751020 1_555
Ce19 Ce9 3.913671 1_565
Ce19 Ce8 4.071349 1_665
Sn10 Sn15 2.960604 1_555
Sn11 Sn14 2.960604 1_565
Sn12 Sn9 2.960604 1_555
Sn13 Sn8 2.960604 1_565
