# generated using pymatgen
data_Na2Zr4Si3(SO8)3
_symmetry_space_group_name_H-M   'P 1'
_cell_length_a   9.03664413
_cell_length_b   9.00697063
_cell_length_c   23.65110835
_cell_angle_alpha   90.43149476
_cell_angle_beta   90.29851155
_cell_angle_gamma   119.92929938
_symmetry_Int_Tables_number   1
_chemical_formula_structural   Na2Zr4Si3(SO8)3
_chemical_formula_sum   'Na6 Zr12 Si9 S9 O72'
_cell_volume   1668.17439287
_cell_formula_units_Z   3
loop_
 _symmetry_equiv_pos_site_id
 _symmetry_equiv_pos_as_xyz
  1  'x, y, z'
loop_
 _atom_site_type_symbol
 _atom_site_label
 _atom_site_symmetry_multiplicity
 _atom_site_fract_x
 _atom_site_fract_y
 _atom_site_fract_z
 _atom_site_occupancy
  Na  Na0  1  0.98577752  0.98261622  0.49562906  1
  Na  Na1  1  0.00492109  0.98869469  0.00123557  1
  Na  Na2  1  0.65404510  0.31690649  0.82914261  1
  Na  Na3  1  0.67047847  0.32233990  0.33513593  1
  Na  Na4  1  0.31769215  0.66136917  0.17421340  1
  Na  Na5  1  0.34578156  0.66205647  0.66422803  1
  Zr  Zr0  1  0.00188831  0.00398877  0.35409008  1
  Zr  Zr1  1  0.01336339  0.01172177  0.84966696  1
  Zr  Zr2  1  0.98620682  0.00079832  0.64710309  1
  Zr  Zr3  1  0.00997639  0.99732298  0.15138415  1
  Zr  Zr4  1  0.65186218  0.33182724  0.68708519  1
  Zr  Zr5  1  0.68227839  0.33524424  0.19164133  1
  Zr  Zr6  1  0.66480344  0.33577691  0.98104969  1
  Zr  Zr7  1  0.68034594  0.34684991  0.47664837  1
  Zr  Zr8  1  0.31967836  0.67540506  0.02080697  1
  Zr  Zr9  1  0.34868185  0.67973989  0.51615270  1
  Zr  Zr10  1  0.31903751  0.67646853  0.31386717  1
  Zr  Zr11  1  0.34870104  0.68197469  0.80962228  1
  Si  Si0  1  0.29540168  0.00463399  0.25140578  1
  Si  Si1  1  0.00938948  0.29133085  0.25048047  1
  Si  Si2  1  0.28949600  0.29254204  0.74877747  1
  Si  Si3  1  0.71411939  0.00797615  0.75079391  1
  Si  Si4  1  0.66422193  0.62460811  0.58334433  1
  Si  Si5  1  0.95275764  0.62690982  0.08397426  1
  Si  Si6  1  0.33080048  0.96057912  0.91599417  1
  Si  Si7  1  0.62786871  0.96030393  0.41536188  1
  Si  Si8  1  0.04531643  0.67255247  0.41804492  1
  S  S0  1  0.70823573  0.71088509  0.24981222  1
  S  S1  1  -0.00027292  0.70982891  0.74961662  1
  S  S2  1  0.95756796  0.33619374  0.58382134  1
  S  S3  1  0.37442582  0.04268391  0.58281177  1
  S  S4  1  0.66830598  0.04363064  0.08276062  1
  S  S5  1  0.37645586  0.33466912  0.08303808  1
  S  S6  1  0.62305501  0.66758686  0.91756027  1
  S  S7  1  0.04273483  0.37713225  0.91672761  1
  S  S8  1  0.33423274  0.37826604  0.41636181  1
  O  O0  1  0.20098046  0.02789333  0.30560375  1
  O  O1  1  0.81496429  0.78648071  0.30050849  1
  O  O2  1  0.97164320  0.17074380  0.30498859  1
  O  O3  1  0.20513327  0.17386827  0.80550202  1
  O  O4  1  0.97356014  0.78832551  0.80143788  1
  O  O5  1  0.82659994  0.02393344  0.80736394  1
  O  O6  1  0.79741995  0.96970166  0.69525989  1
  O  O7  1  0.17324736  0.19698274  0.69356687  1
  O  O8  1  0.02760550  0.81477756  0.69936067  1
  O  O9  1  0.78918181  0.81435317  0.19819166  1
  O  O10  1  0.02100425  0.19529429  0.19234752  1
  O  O11  1  0.17548965  0.96937363  0.19384624  1
  O  O12  1  0.87486724  0.35561403  0.63491263  1
  O  O13  1  0.48140663  0.12167979  0.63500125  1
  O  O14  1  0.64454477  0.50705333  0.63919665  1
  O  O15  1  0.86075254  0.50514583  0.13749473  1
  O  O16  1  0.63655332  0.11884751  0.13337964  1
  O  O17  1  0.48028616  0.35912243  0.13341981  1
  O  O18  1  0.45729147  0.30731857  0.03124238  1
  O  O19  1  0.83870842  0.52826896  0.02680700  1
  O  O20  1  0.68672606  0.14793659  0.03163209  1
  O  O21  1  0.45522690  0.14556642  0.53300176  1
  O  O22  1  0.68807596  0.52787555  0.52864188  1
  O  O23  1  0.85085463  0.30589326  0.53255784  1
  O  O24  1  0.54041487  0.68779608  0.96838750  1
  O  O25  1  0.14945859  0.45711670  0.96843337  1
  O  O26  1  0.30892919  0.84133059  0.97196038  1
  O  O27  1  0.53940907  0.84168110  0.47202632  1
  O  O28  1  0.30979910  0.45788577  0.46826755  1
  O  O29  1  0.15977047  0.68978082  0.47420952  1
  O  O30  1  0.12609515  0.63421881  0.36183332  1
  O  O31  1  0.50784118  0.86396515  0.36057954  1
  O  O32  1  0.36081816  0.48050914  0.36577967  1
  O  O33  1  0.12040988  0.47957211  0.86641732  1
  O  O34  1  0.35719024  0.86381387  0.86191971  1
  O  O35  1  0.51714316  0.63767372  0.86606032  1
  O  O36  1  0.02503593  0.84010508  0.41079342  1
  O  O37  1  0.81696037  0.98200839  0.41037945  1
  O  O38  1  0.18059889  0.20641203  0.41205011  1
  O  O39  1  0.02235166  0.20316556  0.91217584  1
  O  O40  1  0.15854894  0.97591364  0.91117188  1
  O  O41  1  0.79462055  0.81862092  0.91141229  1
  O  O42  1  0.97554036  0.17958017  0.58898876  1
  O  O43  1  0.20349259  0.02439427  0.59068788  1
  O  O44  1  0.83846563  0.81345970  0.59049268  1
  O  O45  1  0.97453426  0.81736429  0.08737995  1
  O  O46  1  0.82014472  0.02588407  0.08756179  1
  O  O47  1  0.20403248  0.18142397  0.08678035  1
  O  O48  1  0.69585694  0.17653254  0.74251188  1
  O  O49  1  0.48043217  0.31419352  0.74423525  1
  O  O50  1  0.84795679  0.53736649  0.74360898  1
  O  O51  1  0.69118587  0.53763672  0.24210493  1
  O  O52  1  0.83796086  0.31334678  0.24328999  1
  O  O53  1  0.48076389  0.17527424  0.23957729  1
  O  O54  1  0.64035747  0.51046695  0.92343535  1
  O  O55  1  0.86980024  0.35762800  0.92454741  1
  O  O56  1  0.50250483  0.14922990  0.92562080  1
  O  O57  1  0.63834086  0.14502107  0.42613302  1
  O  O58  1  0.48566220  0.35569921  0.42395965  1
  O  O59  1  0.85418606  0.50043681  0.42328638  1
  O  O60  1  0.36070568  0.48975179  0.07377666  1
  O  O61  1  0.14369660  0.64235751  0.07568987  1
  O  O62  1  0.51471817  0.86875132  0.07479726  1
  O  O63  1  0.35640650  0.86927008  0.57872782  1
  O  O64  1  0.49264991  0.64218838  0.57842221  1
  O  O65  1  0.12844925  0.48733922  0.57813291  1
  O  O66  1  0.31684108  0.83517696  0.25386175  1
  O  O67  1  0.53828408  0.69022065  0.25490796  1
  O  O68  1  0.17932830  0.47831099  0.25509436  1
  O  O69  1  0.30527344  0.47895923  0.75983771  1
  O  O70  1  0.15233120  0.68975208  0.75734568  1
  O  O71  1  0.52294606  0.83594894  0.75669059  1
loop_
_geom_bond_atom_site_label_1
_geom_bond_atom_site_label_2
_geom_bond_distance
_geom_bond_site_symmetry_2
Na0 O36 2.494467 1_655
Na0 O37 2.520319 1_555
Na0 O44 2.680679 1_555
Na0 O38 2.761378 1_665
Na0 O42 2.852758 1_565
Na0 O43 2.875648 1_665
Na1 O45 2.497630 1_455
Na1 O40 2.581573 1_554
Na1 O47 2.671467 1_565
Na1 O41 2.734096 1_454
Na1 O46 2.766263 1_465
Na1 O39 2.820333 1_564
Na2 O48 2.526879 1_555
Na2 O49 2.534331 1_555
Na2 O56 2.717274 1_555
Na2 O50 2.780513 1_555
Na2 O54 2.861413 1_555
Na2 O55 2.873231 1_555
Na3 O57 2.619623 1_555
Na3 O59 2.632870 1_555
Na3 O52 2.677653 1_555
Na3 O53 2.729490 1_555
Na3 O58 2.796542 1_555
Na3 O51 2.888447 1_555
Na4 O68 2.440584 1_555
Na4 O66 2.442772 1_555
Na4 O67 2.668263 1_555
Na4 O61 2.760162 1_555
Na4 O60 2.955844 1_555
Na4 O62 2.996470 1_555
Na5 O64 2.484259 1_555
Na5 O71 2.684826 1_555
Na5 O65 2.702945 1_555
Na5 O69 2.725704 1_555
Na5 O63 2.731628 1_555
Na5 O70 2.904393 1_555
O0 Si0 1.612690 1_555
O0 Zr0 2.058382 1_555
O1 S0 1.466910 1_555
O1 Zr0 2.221580 1_665
O2 Si1 1.616781 1_655
O2 Zr0 2.027757 1_655
O3 Si2 1.656117 1_555
O3 Zr1 1.934810 1_555
O4 S1 1.488203 1_655
O4 Zr1 2.172122 1_665
O5 Si3 1.637397 1_555
O5 Zr1 2.007686 1_655
O6 Si3 1.634945 1_565
O6 Zr2 1.958153 1_565
O7 Si2 1.617402 1_555
O7 Zr2 2.039110 1_455
O8 S1 1.467040 1_555
O8 Zr2 2.264202 1_465
O9 S0 1.496773 1_555
O9 Zr3 2.166062 1_655
O10 Si1 1.650393 1_555
O10 Zr3 1.980844 1_545
O11 Si0 1.662238 1_565
O11 Zr3 1.916478 1_555
O12 S2 1.478488 1_555
O12 Zr4 2.286628 1_555
O13 S3 1.500800 1_555
O13 Zr4 2.123335 1_555
O14 Si4 1.653271 1_555
O14 Zr4 1.976960 1_555
O15 Si5 1.618130 1_555
O15 Zr5 2.042353 1_555
O16 S4 1.469669 1_555
O16 Zr5 2.240173 1_555
O17 S5 1.458400 1_555
O17 Zr5 2.375760 1_555
O18 S5 1.509743 1_555
O18 Zr6 2.130611 1_554
O19 Si5 1.653272 1_555
O19 Zr6 1.970279 1_554
O20 S4 1.495249 1_555
O20 Zr6 2.166877 1_554
O21 S3 1.459421 1_555
O21 Zr7 2.363488 1_555
O22 Si4 1.628730 1_555
O22 Zr7 2.007688 1_555
O23 S2 1.481431 1_555
O23 Zr7 2.193643 1_555
O24 S6 1.475677 1_555
O24 Zr8 2.309569 1_556
O25 S7 1.491890 1_555
O25 Zr8 2.166034 1_556
O26 Si6 1.660446 1_555
O26 Zr8 1.935790 1_556
O27 Si7 1.660452 1_555
O27 Zr9 1.928824 1_555
O28 S8 1.489184 1_555
O28 Zr9 2.158747 1_555
O29 Si8 1.637306 1_555
O29 Zr9 2.011042 1_555
O30 Si8 1.635311 1_555
O30 Zr10 1.958776 1_555
O31 Si7 1.624009 1_555
O31 Zr10 2.015095 1_555
O32 S8 1.461433 1_555
O32 Zr10 2.336239 1_555
O33 S7 1.462480 1_555
O33 Zr11 2.386762 1_555
O34 Si6 1.626628 1_555
O34 Zr11 2.015283 1_555
O35 S6 1.482499 1_555
O35 Zr11 2.202460 1_555
O36 Si8 1.618662 1_555
O36 Zr0 2.087140 1_565
O37 Si7 1.625133 1_555
O37 Zr0 2.073947 1_665
O38 S8 1.478370 1_555
O38 Zr0 2.193742 1_555
O39 S7 1.486602 1_555
O39 Zr1 2.232976 1_555
O40 Si6 1.633380 1_555
O40 Zr1 2.085856 1_565
O41 S6 1.475180 1_555
O41 Zr1 2.388024 1_665
O42 S2 1.504042 1_555
O42 Zr2 2.162938 1_555
O43 S3 1.482351 1_555
O43 Zr2 2.301326 1_455
O44 Si4 1.649700 1_555
O44 Zr2 2.030189 1_565
O45 Si5 1.627506 1_555
O45 Zr3 2.112181 1_655
O46 S4 1.462409 1_555
O46 Zr3 2.388856 1_645
O47 S5 1.482561 1_555
O47 Zr3 2.307352 1_545
O48 Si3 1.620073 1_555
O48 Zr4 2.100016 1_555
O49 Si2 1.641078 1_555
O49 Zr4 2.007890 1_555
O50 S1 1.477462 1_655
O50 Zr4 2.240324 1_555
O51 S0 1.499154 1_555
O51 Zr5 2.138667 1_555
O52 Si1 1.665044 1_655
O52 Zr5 1.942395 1_555
O53 Si0 1.639718 1_555
O53 Zr5 2.026183 1_555
O54 S6 1.506654 1_555
O54 Zr6 2.181117 1_555
O55 S7 1.495594 1_655
O55 Zr6 2.218599 1_555
O56 Si6 1.645060 1_545
O56 Zr6 2.044640 1_555
O57 Si7 1.636504 1_545
O57 Zr7 2.037189 1_555
O58 S8 1.490536 1_555
O58 Zr7 2.184698 1_555
O59 Si8 1.653803 1_655
O59 Zr7 1.962845 1_555
O60 S5 1.490646 1_555
O60 Zr8 2.269020 1_555
O61 Si5 1.673108 1_455
O61 Zr8 1.964051 1_555
O62 S4 1.501386 1_565
O62 Zr8 2.156374 1_555
O63 S3 1.489715 1_565
O63 Zr9 2.225155 1_555
O64 Si4 1.638856 1_555
O64 Zr9 2.098228 1_555
O65 S2 1.470766 1_455
O65 Zr9 2.395811 1_555
O66 Si0 1.633026 1_565
O66 Zr10 2.028916 1_555
O67 S0 1.457689 1_555
O67 Zr10 2.381534 1_555
O68 Si1 1.619022 1_555
O68 Zr10 2.099402 1_555
O69 Si2 1.631593 1_555
O69 Zr11 2.032419 1_555
O70 S1 1.488135 1_555
O70 Zr11 2.187467 1_555
O71 Si3 1.655123 1_565
O71 Zr11 1.958967 1_555
