# generated using pymatgen
data_Mg(CuS)6
_symmetry_space_group_name_H-M   'P 1'
_cell_length_a   3.74398927
_cell_length_b   3.76381295
_cell_length_c   18.00002539
_cell_angle_alpha   91.12138784
_cell_angle_beta   89.47797024
_cell_angle_gamma   119.83967465
_symmetry_Int_Tables_number   1
_chemical_formula_structural   Mg(CuS)6
_chemical_formula_sum   'Mg1 Cu6 S6'
_cell_volume   219.97961386
_cell_formula_units_Z   1
loop_
 _symmetry_equiv_pos_site_id
 _symmetry_equiv_pos_as_xyz
  1  'x, y, z'
loop_
 _atom_site_type_symbol
 _atom_site_label
 _atom_site_symmetry_multiplicity
 _atom_site_fract_x
 _atom_site_fract_y
 _atom_site_fract_z
 _atom_site_occupancy
  Mg  Mg0  1  0.66475500  0.34573100  0.99172800  1
  Cu  Cu0  1  0.33613900  0.67676500  0.59696300  1
  Cu  Cu1  1  0.66476700  0.31722400  0.14213700  1
  Cu  Cu2  1  0.33442100  0.67877900  0.85441400  1
  Cu  Cu3  1  0.35868300  0.71637600  0.25285800  1
  Cu  Cu4  1  0.66417500  0.32421100  0.40048800  1
  Cu  Cu5  1  0.63988000  0.28136000  0.74113400  1
  S  S0  1  0.00263300  0.00727500  0.55735700  1
  S  S1  1  0.30823500  0.61690200  0.72540200  1
  S  S2  1  0.99781500  0.97905600  0.09116800  1
  S  S3  1  0.69035500  0.38126400  0.27239200  1
  S  S4  1  0.00114600  0.02063900  0.90599900  1
  S  S5  1  0.99770900  0.99370300  0.44018300  1
loop_
_geom_bond_atom_site_label_1
_geom_bond_atom_site_label_2
_geom_bond_distance
_geom_bond_site_symmetry_2
Mg0 S4 2.624660 1_655
Mg0 S4 2.649907 1_555
Mg0 S4 2.711908 1_665
Mg0 S2 2.712292 1_556
Mg0 S2 2.815922 1_446
Mg0 S2 2.917771 1_546
Cu0 S0 2.279401 1_665
Cu0 S0 2.282874 1_565
Cu0 S0 2.287293 1_555
Cu0 S1 2.323607 1_555
Cu1 S3 2.350189 1_555
Cu1 S2 2.351467 1_545
Cu1 S2 2.351645 1_445
Cu1 S2 2.362040 1_555
Cu1 Mg0 2.711590 1_554
Cu2 S1 2.327404 1_555
Cu2 S4 2.355422 1_665
Cu2 S4 2.355470 1_555
Cu2 S4 2.367395 1_565
Cu3 S3 2.192998 1_565
Cu3 S3 2.199130 1_455
Cu3 S3 2.200110 1_555
Cu4 S5 2.279818 1_445
Cu4 S5 2.283479 1_545
Cu4 S5 2.287773 1_555
Cu4 S3 2.316556 1_555
Cu5 S1 2.182859 1_545
Cu5 S1 2.189275 1_655
Cu5 S1 2.190397 1_555
S0 S5 2.108780 1_445
