# generated using pymatgen
data_Ca3PCl3
_symmetry_space_group_name_H-M   'P 1'
_cell_length_a   5.68947377
_cell_length_b   5.68947377
_cell_length_c   5.68947377
_cell_angle_alpha   90.00000000
_cell_angle_beta   90.00000000
_cell_angle_gamma   90.00000000
_symmetry_Int_Tables_number   1
_chemical_formula_structural   Ca3PCl3
_chemical_formula_sum   'Ca3 P1 Cl3'
_cell_volume   184.16890190
_cell_formula_units_Z   1
loop_
 _symmetry_equiv_pos_site_id
 _symmetry_equiv_pos_as_xyz
  1  'x, y, z'
loop_
 _atom_site_type_symbol
 _atom_site_label
 _atom_site_symmetry_multiplicity
 _atom_site_fract_x
 _atom_site_fract_y
 _atom_site_fract_z
 _atom_site_occupancy
  Ca  Ca0  1  -0.00000000  0.50000000  -0.00000000  1
  Ca  Ca1  1  -0.00000000  0.00000000  0.50000000  1
  Ca  Ca2  1  0.50000000  -0.00000000  -0.00000000  1
  P  P0  1  0.00000000  -0.00000000  0.00000000  1
  Cl  Cl0  1  0.50000000  0.50000000  0.00000000  1
  Cl  Cl1  1  0.00000000  0.50000000  0.50000000  1
  Cl  Cl2  1  0.50000000  0.00000000  0.50000000  1
loop_
_geom_bond_atom_site_label_1
_geom_bond_atom_site_label_2
_geom_bond_distance
_geom_bond_site_symmetry_2
Ca0 Cl1 2.844737 1_555
Ca0 Cl1 2.844737 1_554
Ca0 Cl0 2.844737 1_455
Ca0 P0 2.844737 1_565
Ca0 Cl0 2.844737 1_555
Ca0 P0 2.844737 1_555
Ca1 Cl1 2.844737 1_555
Ca1 Cl1 2.844737 1_545
Ca1 Cl2 2.844737 1_455
Ca1 Cl2 2.844737 1_555
Ca1 P0 2.844737 1_556
Ca1 P0 2.844737 1_555
Ca2 Cl2 2.844737 1_554
Ca2 P0 2.844737 1_655
Ca2 Cl0 2.844737 1_545
Ca2 Cl2 2.844737 1_555
Ca2 Cl0 2.844737 1_555
Ca2 P0 2.844737 1_555
