# generated using pymatgen
data_K4Na2Mg(FeO3)2
_symmetry_space_group_name_H-M   'P 1'
_cell_length_a   6.48008312
_cell_length_b   6.50511135
_cell_length_c   7.33783373
_cell_angle_alpha   94.34902658
_cell_angle_beta   81.24267832
_cell_angle_gamma   119.87281328
_symmetry_Int_Tables_number   1
_chemical_formula_structural   K4Na2Mg(FeO3)2
_chemical_formula_sum   'K4 Na2 Mg1 Fe2 O6'
_cell_volume   265.09178139
_cell_formula_units_Z   1
loop_
 _symmetry_equiv_pos_site_id
 _symmetry_equiv_pos_as_xyz
  1  'x, y, z'
loop_
 _atom_site_type_symbol
 _atom_site_label
 _atom_site_symmetry_multiplicity
 _atom_site_fract_x
 _atom_site_fract_y
 _atom_site_fract_z
 _atom_site_occupancy
  K  K0  1  0.35789581  1.00000000  0.69716822  1
  K  K1  1  0.64210419  0.00000000  0.30283178  1
  K  K2  1  0.75116253  0.50232506  0.00000000  1
  K  K3  1  0.24883747  0.49767494  1.00000000  1
  Na  Na0  1  0.26274989  0.52549979  0.50000000  1
  Na  Na1  1  0.73725011  0.47450021  0.50000000  1
  Mg  Mg0  1  -0.00000000  0.00000000  0.50000000  1
  Fe  Fe0  1  0.22458835  0.00000000  0.15328532  1
  Fe  Fe1  1  0.77541165  1.00000000  0.84671468  1
  O  O0  1  0.90503137  0.24550459  0.63214522  1
  O  O1  1  0.50000000  0.00000000  -0.00000000  1
  O  O2  1  0.65952578  0.75449541  0.63214622  1
  O  O3  1  0.09496863  0.75449541  0.36785478  1
  O  O4  1  -0.00000000  0.00000000  -0.00000000  1
  O  O5  1  0.34047422  0.24550459  0.36785378  1
loop_
_geom_bond_atom_site_label_1
_geom_bond_atom_site_label_2
_geom_bond_distance
_geom_bond_site_symmetry_2
K0 O1 2.531580 1_566
K0 O4 2.957578 1_566
K1 O1 2.531580 1_555
K1 O4 2.957578 1_655
K2 O4 2.807284 1_665
K2 O1 2.833514 1_555
K3 O4 2.807284 1_556
K3 O1 2.833514 1_566
Na0 O0 2.238004 1_455
Na0 O5 2.238010 1_555
Na0 O2 2.548490 1_555
Na0 O3 2.548491 1_555
Na1 O3 2.238004 1_655
Na1 O2 2.238010 1_555
Na1 O5 2.548490 1_555
Na1 O0 2.548491 1_555
Mg0 O0 2.105221 1_455
Mg0 O3 2.105221 1_545
Mg0 O2 2.105227 1_445
Mg0 O5 2.105227 1_555
Fe0 O1 1.959338 1_555
Fe0 O4 1.970186 1_555
Fe0 O5 2.092220 1_555
Fe0 O3 2.092225 1_545
Fe1 O1 1.959338 1_566
Fe1 O4 1.970186 1_666
Fe1 O2 2.092220 1_555
Fe1 O0 2.092225 1_565
