# generated using pymatgen
data_Hg3Cl4O
_symmetry_space_group_name_H-M   'P 1'
_cell_length_a   9.53725500
_cell_length_b   9.53725500
_cell_length_c   9.53725500
_cell_angle_alpha   90.00000000
_cell_angle_beta   90.00000000
_cell_angle_gamma   90.00000000
_symmetry_Int_Tables_number   1
_chemical_formula_structural   Hg3Cl4O
_chemical_formula_sum   'Hg12 Cl16 O4'
_cell_volume   867.50139911
_cell_formula_units_Z   4
loop_
 _symmetry_equiv_pos_site_id
 _symmetry_equiv_pos_as_xyz
  1  'x, y, z'
loop_
 _atom_site_type_symbol
 _atom_site_label
 _atom_site_symmetry_multiplicity
 _atom_site_fract_x
 _atom_site_fract_y
 _atom_site_fract_z
 _atom_site_occupancy
  Hg  Hg0  1  0.26941300  0.81910700  0.01758900  1
  Hg  Hg1  1  0.76941300  0.68089300  0.98241100  1
  Hg  Hg2  1  0.73058700  0.31910700  0.48241100  1
  Hg  Hg3  1  0.68089300  0.98241100  0.76941300  1
  Hg  Hg4  1  0.48241100  0.73058700  0.31910700  1
  Hg  Hg5  1  0.98241100  0.76941300  0.68089300  1
  Hg  Hg6  1  0.81910700  0.01758900  0.26941300  1
  Hg  Hg7  1  0.01758900  0.26941300  0.81910700  1
  Hg  Hg8  1  0.31910700  0.48241100  0.73058700  1
  Hg  Hg9  1  0.18089300  0.51758900  0.23058700  1
  Hg  Hg10  1  0.51758900  0.23058700  0.18089300  1
  Hg  Hg11  1  0.23058700  0.18089300  0.51758900  1
  Cl  Cl0  1  0.19474400  0.97033300  0.83995400  1
  Cl  Cl1  1  0.69474400  0.52966700  0.16004600  1
  Cl  Cl2  1  0.80525600  0.47033300  0.66004600  1
  Cl  Cl3  1  0.52966700  0.16004600  0.69474400  1
  Cl  Cl4  1  0.66004600  0.80525600  0.47033300  1
  Cl  Cl5  1  0.16004600  0.69474400  0.52966700  1
  Cl  Cl6  1  0.97033300  0.83995400  0.19474400  1
  Cl  Cl7  1  0.83995400  0.19474400  0.97033300  1
  Cl  Cl8  1  0.57046300  0.92953700  0.07046300  1
  Cl  Cl9  1  0.42953700  0.42953700  0.42953700  1
  Cl  Cl10  1  0.07046300  0.57046300  0.92953700  1
  Cl  Cl11  1  0.92953700  0.07046300  0.57046300  1
  Cl  Cl12  1  0.30525600  0.02966700  0.33995400  1
  Cl  Cl13  1  0.33995400  0.30525600  0.02966700  1
  Cl  Cl14  1  0.02966700  0.33995400  0.30525600  1
  Cl  Cl15  1  0.47033300  0.66004600  0.80525600  1
  O  O0  1  0.82146400  0.82146400  0.82146400  1
  O  O1  1  0.17853600  0.32146400  0.67853600  1
  O  O2  1  0.32146400  0.67853600  0.17853600  1
  O  O3  1  0.67853600  0.17853600  0.32146400  1
loop_
_geom_bond_atom_site_label_1
_geom_bond_atom_site_label_2
_geom_bond_distance
_geom_bond_site_symmetry_2
Hg0 O2 2.097621 1_555
Hg1 O0 2.097621 1_555
Hg2 O3 2.097621 1_555
Hg3 O0 2.097621 1_555
Hg4 O2 2.097621 1_555
Hg5 O0 2.097621 1_555
Hg6 O3 2.097621 1_555
Hg7 O1 2.097621 1_555
Hg8 O1 2.097621 1_555
Hg9 O2 2.097621 1_555
Hg10 O3 2.097621 1_555
Hg11 O1 2.097621 1_555
Cl0 Hg0 2.336121 1_556
Cl1 Hg1 2.336121 1_554
Cl2 Hg2 2.336121 1_555
Cl3 Hg3 2.336121 1_545
Cl4 Hg4 2.336121 1_555
Cl5 Hg5 2.336121 1_455
Cl6 Hg6 2.336121 1_565
Cl7 Hg7 2.336121 1_655
Cl12 Hg11 2.336121 1_555
Cl13 Hg10 2.336121 1_555
Cl14 Hg9 2.336121 1_555
Cl15 Hg8 2.336121 1_555
