# generated using pymatgen
data_Li2MoF6
_symmetry_space_group_name_H-M   'P 1'
_cell_length_a   4.64614531
_cell_length_b   4.64614531
_cell_length_c   9.06649929
_cell_angle_alpha   90.00000000
_cell_angle_beta   90.00000000
_cell_angle_gamma   90.00000000
_symmetry_Int_Tables_number   1
_chemical_formula_structural   Li2MoF6
_chemical_formula_sum   'Li4 Mo2 F12'
_cell_volume   195.71549415
_cell_formula_units_Z   2
loop_
 _symmetry_equiv_pos_site_id
 _symmetry_equiv_pos_as_xyz
  1  'x, y, z'
loop_
 _atom_site_type_symbol
 _atom_site_label
 _atom_site_symmetry_multiplicity
 _atom_site_fract_x
 _atom_site_fract_y
 _atom_site_fract_z
 _atom_site_occupancy
  Li  Li0  1  -0.00000000  -0.00000000  0.33396589  1
  Li  Li1  1  -0.00000000  -0.00000000  0.66603411  1
  Li  Li2  1  0.50000000  0.50000000  0.16603411  1
  Li  Li3  1  0.50000000  0.50000000  0.83396589  1
  Mo  Mo0  1  0.50000000  0.50000000  0.50000000  1
  Mo  Mo1  1  -0.00000000  -0.00000000  0.00000000  1
  F  F0  1  0.70409387  0.70409387  0.00000000  1
  F  F1  1  0.79590613  0.20409387  0.50000000  1
  F  F2  1  0.29876760  0.29876760  0.33816503  1
  F  F3  1  0.20123240  0.79876760  0.83816503  1
  F  F4  1  0.79876760  0.20123240  0.83816503  1
  F  F5  1  0.79876760  0.20123240  0.16183497  1
  F  F6  1  0.20123240  0.79876760  0.16183497  1
  F  F7  1  0.70123240  0.70123240  0.33816503  1
  F  F8  1  0.29876760  0.29876760  0.66183497  1
  F  F9  1  0.70123240  0.70123240  0.66183497  1
  F  F10  1  0.29590613  0.29590613  0.00000000  1
  F  F11  1  0.20409387  0.79590613  0.50000000  1
loop_
_geom_bond_atom_site_label_1
_geom_bond_atom_site_label_2
_geom_bond_distance
_geom_bond_site_symmetry_2
F0 Mo1 1.944293 1_665
F0 Li2 2.016043 1_555
F0 Li3 2.016043 1_554
F1 Mo0 1.944293 1_555
F1 Li1 2.016043 1_655
F1 Li0 2.016043 1_655
F2 Li0 1.963464 1_555
F2 Mo0 1.975141 1_555
F2 Li2 2.045442 1_555
F3 Li3 1.963464 1_555
F3 Mo1 1.975141 1_566
F3 Li1 2.045442 1_565
F4 Li3 1.963464 1_555
F4 Mo1 1.975141 1_656
F4 Li1 2.045442 1_655
F5 Li2 1.963464 1_555
F5 Mo1 1.975141 1_655
F5 Li0 2.045442 1_655
F6 Li2 1.963464 1_555
F6 Mo1 1.975141 1_565
F6 Li0 2.045442 1_565
F7 Li0 1.963464 1_665
F7 Mo0 1.975141 1_555
F7 Li2 2.045442 1_555
F8 Li1 1.963464 1_555
F8 Mo0 1.975141 1_555
F8 Li3 2.045442 1_555
F9 Li1 1.963464 1_665
F9 Mo0 1.975141 1_555
F9 Li3 2.045442 1_555
F10 Mo1 1.944293 1_555
F10 Li2 2.016043 1_555
F10 Li3 2.016043 1_554
F11 Mo0 1.944293 1_555
F11 Li1 2.016043 1_565
F11 Li0 2.016043 1_565
