# generated using pymatgen
data_MgCu4H6(ClO3)2
_symmetry_space_group_name_H-M   'P 1'
_cell_length_a   6.52220526
_cell_length_b   6.79338236
_cell_length_c   6.52462137
_cell_angle_alpha   65.67701949
_cell_angle_beta   58.30047183
_cell_angle_gamma   65.73011323
_symmetry_Int_Tables_number   1
_chemical_formula_structural   MgCu4H6(ClO3)2
_chemical_formula_sum   'Mg1 Cu4 H6 Cl2 O6'
_cell_volume   216.95590862
_cell_formula_units_Z   1
loop_
 _symmetry_equiv_pos_site_id
 _symmetry_equiv_pos_as_xyz
  1  'x, y, z'
loop_
 _atom_site_type_symbol
 _atom_site_label
 _atom_site_symmetry_multiplicity
 _atom_site_fract_x
 _atom_site_fract_y
 _atom_site_fract_z
 _atom_site_occupancy
  Mg  Mg0  1  -0.00000000  0.00000000  0.00000000  1
  Cu  Cu0  1  0.50000000  0.50000000  0.50000000  1
  Cu  Cu1  1  0.50000000  0.50000000  0.00000000  1
  Cu  Cu2  1  0.50000000  0.00000000  0.50000000  1
  Cu  Cu3  1  -0.00000000  0.50000000  0.50000000  1
  H  H0  1  0.77391075  0.72648437  0.23947552  1
  H  H1  1  0.72470661  0.21933090  0.72644897  1
  H  H2  1  0.23854765  0.72625337  0.77487983  1
  H  H3  1  0.22608925  0.27351563  0.76052448  1
  H  H4  1  0.27529339  0.78066910  0.27355103  1
  H  H5  1  0.76145235  0.27374663  0.22512017  1
  Cl  Cl0  1  0.82386935  0.85838786  0.82453392  1
  Cl  Cl1  1  0.17613065  0.14161214  0.17546608  1
  O  O0  1  0.32690911  0.77606202  0.82268643  1
  O  O1  1  0.82233465  0.77621127  0.32739916  1
  O  O2  1  0.68330892  0.38542082  0.68408051  1
  O  O3  1  0.67309089  0.22393798  0.17731357  1
  O  O4  1  0.17766535  0.22378873  0.67260084  1
  O  O5  1  0.31669108  0.61457918  0.31591949  1
loop_
_geom_bond_atom_site_label_1
_geom_bond_atom_site_label_2
_geom_bond_distance
_geom_bond_site_symmetry_2
Mg0 O4 2.094943 1_554
Mg0 O1 2.094943 1_445
Mg0 O3 2.095200 1_455
Mg0 O0 2.095200 1_544
Cu0 O5 1.857892 1_555
Cu0 O2 1.857892 1_555
Cu1 O3 1.993703 1_555
Cu1 O0 1.993703 1_554
Cu1 O2 2.061746 1_554
Cu1 O5 2.061746 1_555
Cu2 O1 2.072207 1_545
Cu2 O4 2.072207 1_555
Cu2 O0 2.072934 1_545
Cu2 O3 2.072934 1_555
Cu3 O4 1.993775 1_555
Cu3 O1 1.993775 1_455
Cu3 O5 2.063789 1_555
Cu3 O2 2.063789 1_455
H0 O1 0.990313 1_555
H1 O2 0.996729 1_555
H2 O0 0.989996 1_555
H3 O4 0.990313 1_555
H4 O5 0.996729 1_555
H5 O3 0.989996 1_555
