# generated using pymatgen
data_Na3YSc(PO4)3
_symmetry_space_group_name_H-M   'P 1'
_cell_length_a   9.21530552
_cell_length_b   9.19715641
_cell_length_c   22.91884364
_cell_angle_alpha   89.99511706
_cell_angle_beta   89.99793960
_cell_angle_gamma   119.97177109
_symmetry_Int_Tables_number   1
_chemical_formula_structural   Na3YSc(PO4)3
_chemical_formula_sum   'Na18 Y6 Sc6 P18 O72'
_cell_volume   1682.71322023
_cell_formula_units_Z   6
loop_
 _symmetry_equiv_pos_site_id
 _symmetry_equiv_pos_as_xyz
  1  'x, y, z'
loop_
 _atom_site_type_symbol
 _atom_site_label
 _atom_site_symmetry_multiplicity
 _atom_site_fract_x
 _atom_site_fract_y
 _atom_site_fract_z
 _atom_site_occupancy
  Na  Na0  1  0.00099491  0.00098047  0.50154449  1
  Na  Na1  1  0.99867747  0.99852901  0.00176700  1
  Na  Na2  1  0.63422407  0.31726883  0.83237869  1
  Na  Na3  1  0.68340516  0.36650975  0.33426734  1
  Na  Na4  1  0.33106555  0.66628462  0.17012787  1
  Na  Na5  1  0.33355927  0.66690736  0.66652460  1
  Na  Na6  1  0.63773681  0.00288106  0.24902725  1
  Na  Na7  1  0.36066685  0.35883700  0.24893387  1
  Na  Na8  1  0.64085328  0.63607228  0.74649728  1
  Na  Na9  1  0.99376248  0.36049402  0.74587171  1
  Na  Na10  1  0.03290282  0.69989090  0.58433431  1
  Na  Na11  1  0.66734220  0.97060374  0.58427861  1
  Na  Na12  1  0.30199145  0.97085932  0.08701228  1
  Na  Na13  1  0.02578112  0.32979747  0.08738886  1
  Na  Na14  1  0.97078076  0.66488052  0.91794556  1
  Na  Na15  1  0.69574454  0.02871770  0.91710655  1
  Na  Na16  1  0.97132251  0.30385190  0.41656761  1
  Na  Na17  1  0.33636299  0.03329149  0.41761873  1
  Y  Y0  1  0.99020526  0.98615068  0.34841237  1
  Y  Y1  1  0.01443559  0.01025004  0.84786099  1
  Y  Y2  1  0.66026966  0.33965901  0.98624029  1
  Y  Y3  1  0.34259931  0.66207094  0.01954511  1
  Y  Y4  1  0.33782013  0.65765511  0.51835430  1
  Y  Y5  1  0.33353232  0.67042263  0.81395761  1
  Sc  Sc0  1  0.01039211  0.00674386  0.64743017  1
  Sc  Sc1  1  0.99306038  0.98962912  0.15248592  1
  Sc  Sc2  1  0.65828486  0.32758466  0.68221679  1
  Sc  Sc3  1  0.67212944  0.34150004  0.18418523  1
  Sc  Sc4  1  0.66233681  0.33925714  0.48267745  1
  Sc  Sc5  1  0.32965174  0.66534203  0.31654414  1
  P  P0  1  0.30373334  0.00012600  0.24917137  1
  P  P1  1  0.69299366  0.69655804  0.24914364  1
  P  P2  1  0.00053264  0.30082489  0.24903276  1
  P  P3  1  0.30247014  0.29955654  0.74578830  1
  P  P4  1  0.99359645  0.69646542  0.74584159  1
  P  P5  1  0.70745360  0.00450364  0.74554952  1
  P  P6  1  0.95242980  0.32756931  0.58374528  1
  P  P7  1  0.37048162  0.04253314  0.58089168  1
  P  P8  1  0.67567860  0.63216553  0.58640874  1
  P  P9  1  0.96585953  0.63725138  0.08374447  1
  P  P10  1  0.67313947  0.03975042  0.08683699  1
  P  P11  1  0.35766368  0.32240528  0.09074403  1
  P  P12  1  0.64000442  0.67003766  0.91162799  1
  P  P13  1  0.02811530  0.36408613  0.91765542  1
  P  P14  1  0.33392174  0.96555612  0.92107721  1
  P  P15  1  0.62965258  0.97021330  0.41718787  1
  P  P16  1  0.33708955  0.36811960  0.41232666  1
  P  P17  1  0.03728279  0.66081087  0.41990513  1
  O  O0  1  0.22533420  0.02937848  0.30448725  1
  O  O1  1  0.79281111  0.76847070  0.30539891  1
  O  O2  1  0.96807766  0.19265397  0.30468221  1
  O  O3  1  0.22978063  0.20779204  0.80318733  1
  O  O4  1  0.97683261  0.77797178  0.80271784  1
  O  O5  1  0.80841172  0.02895674  0.80242526  1
  O  O6  1  0.80304002  0.98757531  0.69279448  1
  O  O7  1  0.18598923  0.20075194  0.69467282  1
  O  O8  1  0.01022308  0.80713909  0.69235777  1
  O  O9  1  0.78754044  0.81623603  0.19778508  1
  O  O10  1  0.02605278  0.20969536  0.19621528  1
  O  O11  1  0.19272945  0.97885572  0.19526160  1
  O  O12  1  0.86508531  0.34665273  0.63877799  1
  O  O13  1  0.48496119  0.13944509  0.63298761  1
  O  O14  1  0.66032358  0.53348004  0.64288832  1
  O  O15  1  0.85937419  0.51338770  0.13264573  1
  O  O16  1  0.65293088  0.13493939  0.13922213  1
  O  O17  1  0.46428138  0.33943240  0.14509934  1
  O  O18  1  0.44255229  0.30209522  0.03575301  1
  O  O19  1  0.87884363  0.57005557  0.02435460  1
  O  O20  1  0.69745935  0.14078522  0.02979596  1
  O  O21  1  0.45104240  0.13895287  0.52354088  1
  O  O22  1  0.68755647  0.53438623  0.53298535  1
  O  O23  1  0.84544148  0.30809156  0.52844714  1
  O  O24  1  0.54381656  0.68677942  0.96404905  1
  O  O25  1  0.12908196  0.45205697  0.97307429  1
  O  O26  1  0.31826836  0.86877523  0.97800981  1
  O  O27  1  0.54987784  0.87075019  0.47370331  1
  O  O28  1  0.30749922  0.45261733  0.46522050  1
  O  O29  1  0.13397573  0.68461563  0.47713028  1
  O  O30  1  0.13510015  0.63842872  0.36826721  1
  O  O31  1  0.51953734  0.87462220  0.36311736  1
  O  O32  1  0.35363997  0.46985343  0.35602254  1
  O  O33  1  0.11747687  0.46714595  0.86208003  1
  O  O34  1  0.35275918  0.87108857  0.86832431  1
  O  O35  1  0.54607577  0.65546098  0.85400200  1
  O  O36  1  0.02631803  0.82174084  0.41253817  1
  O  O37  1  0.81166174  0.00261063  0.41308608  1
  O  O38  1  0.18084810  0.18984558  0.40983602  1
  O  O39  1  -0.00021957  0.18349051  0.91568254  1
  O  O40  1  0.17122273  0.97336448  0.91602349  1
  O  O41  1  0.81370833  0.82945301  0.91250876  1
  O  O42  1  0.96650827  0.16586725  0.58742199  1
  O  O43  1  0.18983713  0.01349372  0.58641214  1
  O  O44  1  0.83835540  0.80817259  0.58673156  1
  O  O45  1  0.99417559  0.81652838  0.09212346  1
  O  O46  1  0.83266491  0.02529867  0.09340060  1
  O  O47  1  0.18188650  0.16323488  0.09345832  1
  O  O48  1  0.68896409  0.16287757  0.74038672  1
  O  O49  1  0.48304248  0.32910475  0.74052656  1
  O  O50  1  0.83368773  0.52018524  0.74231172  1
  O  O51  1  0.66348937  0.51578680  0.24139739  1
  O  O52  1  0.84238337  0.31859697  0.24106063  1
  O  O53  1  0.48249488  0.15823106  0.24303446  1
  O  O54  1  0.66407992  0.51541929  0.91655273  1
  O  O55  1  0.85361951  0.35121860  0.91912423  1
  O  O56  1  0.49442659  0.13938962  0.92100348  1
  O  O57  1  0.63984668  0.14545170  0.41947827  1
  O  O58  1  0.49494156  0.34929308  0.41922603  1
  O  O59  1  0.86325583  0.49864331  0.42196384  1
  O  O60  1  0.33169571  0.47697954  0.08730089  1
  O  O61  1  0.14024472  0.64838595  0.08488503  1
  O  O62  1  0.50975934  0.86677001  0.08469559  1
  O  O63  1  0.35621043  0.86589194  0.58111547  1
  O  O64  1  0.52510744  0.66361611  0.58351114  1
  O  O65  1  0.12693229  0.48973593  0.58127892  1
  O  O66  1  0.32762696  0.84382423  0.25523667  1
  O  O67  1  0.51772466  0.68517100  0.25320524  1
  O  O68  1  0.16395702  0.47352490  0.25497614  1
  O  O69  1  0.31422289  0.47486111  0.74628157  1
  O  O70  1  0.14700994  0.66810269  0.74737348  1
  O  O71  1  0.53523468  0.84030630  0.74758448  1
loop_
_geom_bond_atom_site_label_1
_geom_bond_atom_site_label_2
_geom_bond_distance
_geom_bond_site_symmetry_2
Na0 O44 2.558593 1_445
Na0 O43 2.573935 1_555
Na0 O42 2.599347 1_455
Na0 O37 2.679742 1_455
Na0 O38 2.702712 1_555
Na0 O36 2.705213 1_545
Na1 O39 2.601657 1_664
Na1 O40 2.609823 1_654
Na1 O41 2.619329 1_554
Na1 O47 2.647024 1_665
Na1 O45 2.649929 1_555
Na1 O46 2.681015 1_565
Na2 O56 2.520957 1_555
Na2 O49 2.556589 1_555
Na2 O54 2.572602 1_555
Na2 O48 2.726171 1_555
Na2 O55 2.739958 1_555
Na2 O50 2.773848 1_555
Na3 O59 2.500338 1_555
Na3 O58 2.560804 1_555
Na3 O51 2.588491 1_555
Na3 O57 2.700457 1_555
Na3 O52 2.747504 1_555
Na3 O53 2.815451 1_555
Na4 O67 2.513186 1_555
Na4 O66 2.554269 1_555
Na4 O68 2.562699 1_555
Na4 O60 2.577897 1_555
Na4 O61 2.578219 1_555
Na4 O62 2.628840 1_555
Na5 O69 2.485520 1_555
Na5 O70 2.531321 1_555
Na5 O71 2.547183 1_555
Na5 O64 2.605704 1_555
Na5 O63 2.615762 1_555
Na5 O65 2.645505 1_555
Na6 O53 2.479746 1_555
Na6 O66 2.479918 1_545
Na6 O67 2.557662 1_545
Na6 O52 2.559265 1_555
Na6 O16 2.767239 1_555
Na6 O31 2.851434 1_545
Na6 O9 2.932518 1_545
Na6 O2 2.938094 1_555
Na7 O51 2.424069 1_555
Na7 O68 2.515606 1_555
Na7 O53 2.598529 1_555
Na7 O67 2.602355 1_555
Na7 O17 2.603273 1_555
Na7 O32 2.671518 1_555
Na7 O0 2.929396 1_555
Na7 O10 2.936711 1_555
Na8 O49 2.449917 1_555
Na8 O50 2.489062 1_555
Na8 O71 2.510560 1_555
Na8 O14 2.594361 1_555
Na8 O69 2.607567 1_555
Na8 O35 2.649696 1_555
Na9 O70 2.451037 1_655
Na9 O48 2.471425 1_555
Na9 O50 2.550385 1_555
Na9 O69 2.593050 1_655
Na9 O12 2.701140 1_555
Na9 O33 2.870318 1_655
Na10 O44 2.448039 1_455
Na10 O65 2.482936 1_555
Na10 O43 2.499013 1_565
Na10 O63 2.582283 1_555
Na10 O29 2.656073 1_555
Na10 O8 2.711537 1_555
Na11 O42 2.425714 1_565
Na11 O64 2.447942 1_555
Na11 O63 2.528747 1_555
Na11 O44 2.659094 1_555
Na11 O27 2.728542 1_555
Na11 O6 2.752968 1_555
Na12 O45 2.460062 1_455
Na12 O47 2.516730 1_565
Na12 O62 2.533087 1_555
Na12 O61 2.569705 1_555
Na12 O11 2.692242 1_555
Na12 O26 2.699285 1_554
Na12 O18 2.897464 1_565
Na13 O60 2.442716 1_555
Na13 O46 2.459526 1_455
Na13 O61 2.571642 1_555
Na13 O47 2.576306 1_555
Na13 O10 2.728250 1_555
Na13 O25 2.822157 1_554
Na13 O20 2.943464 1_455
Na13 O15 2.977549 1_455
Na14 O54 2.448876 1_555
Na14 O40 2.495438 1_655
Na14 O55 2.525170 1_555
Na14 O41 2.567232 1_555
Na14 O19 2.585969 1_556
Na14 O4 2.828568 1_555
Na15 O39 2.427439 1_655
Na15 O56 2.524394 1_555
Na15 O41 2.557747 1_545
Na15 O55 2.570003 1_555
Na15 O20 2.777981 1_556
Na15 O5 2.825563 1_555
Na15 O24 2.933919 1_545
Na15 O34 2.960420 1_545
Na16 O37 2.402979 1_555
Na16 O59 2.449336 1_555
Na16 O38 2.621871 1_655
Na16 O57 2.647897 1_555
Na16 O2 2.755407 1_555
Na16 O23 2.822597 1_555
Na16 O30 2.886384 1_655
Na16 O28 2.911743 1_655
Na17 O57 2.450502 1_555
Na17 O38 2.494094 1_555
Na17 O58 2.517951 1_555
Na17 O36 2.531454 1_545
Na17 O21 2.632296 1_555
Na17 O0 2.781081 1_555
O0 P0 1.547839 1_555
O0 Y0 2.237308 1_445
O1 P1 1.529130 1_555
O1 Y0 2.156548 1_555
O2 P2 1.551892 1_655
O2 Y0 2.244958 1_545
O3 P3 1.525280 1_555
O3 Y1 2.164361 1_555
O4 P4 1.549476 1_555
O4 Y1 2.239435 1_665
O5 P5 1.551260 1_555
O5 Y1 2.246116 1_655
O6 P5 1.548876 1_565
O6 Sc0 2.103925 1_665
O7 P3 1.541455 1_555
O7 Sc0 2.022429 1_555
O8 P4 1.551149 1_455
O8 Sc0 2.104098 1_565
O9 P1 1.548446 1_555
O9 Sc1 2.046910 1_555
O10 P2 1.555704 1_555
O10 Sc1 2.139845 1_445
O11 P0 1.552881 1_565
O11 Sc1 2.130460 1_455
O12 P6 1.552623 1_555
O12 Sc2 2.078370 1_555
O13 P7 1.547173 1_555
O13 Sc2 2.014278 1_555
O14 P8 1.546242 1_555
O14 Sc2 2.088753 1_555
O15 P9 1.549057 1_555
O15 Sc3 2.036151 1_555
O16 P10 1.551013 1_555
O16 Sc3 2.089710 1_555
O17 P11 1.545370 1_555
O17 Sc3 2.106004 1_555
O18 P11 1.543129 1_555
O18 Y2 2.177074 1_554
O19 P9 1.543614 1_555
O19 Y2 2.246388 1_554
O20 P10 1.553855 1_555
O20 Y2 2.255102 1_554
O21 P7 1.551506 1_555
O21 Sc4 2.116090 1_555
O22 P8 1.555119 1_555
O22 Sc4 2.046404 1_555
O23 P6 1.560139 1_555
O23 Sc4 2.124396 1_555
O24 P12 1.545695 1_555
O24 Y3 2.164831 1_556
O25 P13 1.543268 1_555
O25 Y3 2.222595 1_556
O26 P14 1.545051 1_555
O26 Y3 2.235221 1_556
O27 P15 1.543628 1_555
O27 Y4 2.209070 1_555
O28 P16 1.536151 1_555
O28 Y4 2.142682 1_555
O29 P17 1.538587 1_555
O29 Y4 2.224487 1_555
O30 P17 1.562345 1_555
O30 Sc5 2.058455 1_555
O31 P15 1.564369 1_555
O31 Sc5 2.131056 1_555
O32 P16 1.555995 1_555
O32 Sc5 2.120604 1_555
O33 P13 1.555242 1_555
O33 Y5 2.226245 1_555
O34 P14 1.548428 1_555
O34 Y5 2.159567 1_555
O35 P12 1.547797 1_555
O35 Y5 2.228667 1_555
O36 P17 1.542334 1_555
O36 Y0 2.249362 1_455
O37 P15 1.552900 1_545
O37 Y0 2.275043 1_545
O38 P16 1.551113 1_555
O38 Y0 2.300019 1_445
O39 P13 1.547810 1_555
O39 Y1 2.277816 1_555
O40 P14 1.540821 1_555
O40 Y1 2.265600 1_565
O41 P12 1.538659 1_555
O41 Y1 2.303925 1_665
O42 P6 1.558350 1_555
O42 Sc0 2.188116 1_655
O43 P7 1.553801 1_555
O43 Sc0 2.142739 1_555
O44 P8 1.563061 1_555
O44 Sc0 2.211726 1_665
O45 P9 1.547195 1_555
O45 Sc1 2.113126 1_555
O46 P10 1.548115 1_555
O46 Sc1 2.147256 1_545
O47 P11 1.549675 1_555
O47 Sc1 2.151965 1_445
O48 P5 1.553264 1_555
O48 Sc2 2.140009 1_555
O49 P3 1.550980 1_555
O49 Sc2 2.101544 1_555
O50 P4 1.555489 1_555
O50 Sc2 2.187979 1_555
O51 P1 1.554998 1_555
O51 Sc3 2.103087 1_555
O52 P2 1.556317 1_655
O52 Sc3 2.129651 1_555
O53 P0 1.566697 1_555
O53 Sc3 2.184151 1_555
O54 P12 1.548997 1_555
O54 Y2 2.260099 1_555
O55 P13 1.552663 1_655
O55 Y2 2.315744 1_555
O56 P14 1.543078 1_545
O56 Y2 2.269769 1_555
O57 P15 1.567763 1_545
O57 Sc4 2.224744 1_555
O58 P16 1.556495 1_555
O58 Sc4 2.155302 1_555
O59 P17 1.552015 1_655
O59 Sc4 2.191092 1_555
O60 P11 1.557067 1_555
O60 Y3 2.268933 1_555
O61 P9 1.558601 1_455
O61 Y3 2.345418 1_555
O62 P10 1.551467 1_565
O62 Y3 2.291264 1_555
O63 P7 1.563062 1_565
O63 Y4 2.332785 1_555
O64 P8 1.553841 1_555
O64 Y4 2.262174 1_555
O65 P6 1.554750 1_455
O65 Y4 2.289620 1_555
O66 P0 1.565416 1_565
O66 Sc5 2.167827 1_555
O67 P1 1.568230 1_555
O67 Sc5 2.197347 1_555
O68 P2 1.555471 1_555
O68 Sc5 2.178081 1_555
O69 P3 1.561061 1_555
O69 Y5 2.313689 1_555
O70 P4 1.560912 1_455
O70 Y5 2.290690 1_555
O71 P5 1.551386 1_565
O71 Y5 2.303887 1_555
