# generated using pymatgen
data_Hg3(SeCl)2
_symmetry_space_group_name_H-M   'P 1'
_cell_length_a   7.98397737
_cell_length_b   7.98397778
_cell_length_c   7.98397821
_cell_angle_alpha   109.47121907
_cell_angle_beta   109.47122019
_cell_angle_gamma   109.47122379
_symmetry_Int_Tables_number   1
_chemical_formula_structural   Hg3(SeCl)2
_chemical_formula_sum   'Hg6 Se4 Cl4'
_cell_volume   391.77440787
_cell_formula_units_Z   2
loop_
 _symmetry_equiv_pos_site_id
 _symmetry_equiv_pos_as_xyz
  1  'x, y, z'
loop_
 _atom_site_type_symbol
 _atom_site_label
 _atom_site_symmetry_multiplicity
 _atom_site_fract_x
 _atom_site_fract_y
 _atom_site_fract_z
 _atom_site_occupancy
  Hg  Hg0  1  0.75000000  0.94462606  0.19462606  1
  Hg  Hg1  1  0.30537394  0.25000000  0.55537394  1
  Hg  Hg2  1  0.55537394  0.30537394  0.25000000  1
  Hg  Hg3  1  0.19462606  0.75000000  0.94462606  1
  Hg  Hg4  1  0.94462606  0.19462606  0.75000000  1
  Hg  Hg5  1  0.25000000  0.55537394  0.30537394  1
  Se  Se0  1  0.95503152  0.50000000  0.00000000  1
  Se  Se1  1  0.50000000  -0.00000000  0.95503152  1
  Se  Se2  1  0.54496848  0.54496848  0.54496848  1
  Se  Se3  1  0.00000000  0.95503152  0.50000000  1
  Cl  Cl0  1  0.47146047  0.50000000  -0.00000000  1
  Cl  Cl1  1  0.50000000  0.00000000  0.47146047  1
  Cl  Cl2  1  -0.00000000  0.47146047  0.50000000  1
  Cl  Cl3  1  0.02853953  0.02853953  0.02853953  1
loop_
_geom_bond_atom_site_label_1
_geom_bond_atom_site_label_2
_geom_bond_distance
_geom_bond_site_symmetry_2
Hg0 Se1 2.538770 1_564
Hg0 Se3 2.538770 1_655
Hg1 Se3 2.538770 1_545
Hg1 Se2 2.538770 1_555
Hg2 Se1 2.538770 1_554
Hg2 Se2 2.538770 1_555
Hg3 Se1 2.538770 1_565
Hg3 Se0 2.538770 1_456
Hg4 Se0 2.538770 1_556
Hg4 Se3 2.538770 1_645
Hg5 Se2 2.538770 1_555
Hg5 Se0 2.538770 1_455
Cl0 Hg0 2.952568 1_555
Cl0 Hg2 2.952569 1_555
Cl0 Hg1 2.952569 1_554
Cl1 Hg4 2.952568 1_555
Cl1 Hg5 2.952568 1_545
Cl1 Hg1 2.952569 1_555
Cl2 Hg2 2.952568 1_455
Cl2 Hg5 2.952568 1_555
Cl2 Hg3 2.952569 1_555
Cl3 Hg0 2.952568 1_445
Cl3 Hg3 2.952569 1_544
Cl3 Hg4 2.952569 1_454
