# generated using pymatgen
data_MgTiCo3O8
_symmetry_space_group_name_H-M   'P 1'
_cell_length_a   6.23596992
_cell_length_b   5.86806333
_cell_length_c   5.86865230
_cell_angle_alpha   59.98285159
_cell_angle_beta   61.54603937
_cell_angle_gamma   89.79666308
_symmetry_Int_Tables_number   1
_chemical_formula_structural   MgTiCo3O8
_chemical_formula_sum   'Mg1 Ti1 Co3 O8'
_cell_volume   155.51557930
_cell_formula_units_Z   1
loop_
 _symmetry_equiv_pos_site_id
 _symmetry_equiv_pos_as_xyz
  1  'x, y, z'
loop_
 _atom_site_type_symbol
 _atom_site_label
 _atom_site_symmetry_multiplicity
 _atom_site_fract_x
 _atom_site_fract_y
 _atom_site_fract_z
 _atom_site_occupancy
  Mg  Mg0  1  0.44613200  0.14838600  0.69904800  1
  Ti  Ti0  1  0.90694100  0.96842200  0.06297700  1
  Co  Co0  1  0.02286100  0.00420400  0.48657400  1
  Co  Co1  1  0.02441900  0.50885600  0.98148400  1
  Co  Co2  1  0.02205000  0.50831900  0.48721400  1
  O  O0  1  0.19841000  0.22154700  0.02247600  1
  O  O1  1  0.19696500  0.22116400  0.55576700  1
  O  O2  1  0.19802500  0.75381700  0.02280700  1
  O  O3  1  0.20497500  0.73376700  0.53087100  1
  O  O4  1  0.82182000  0.27411300  0.45174700  1
  O  O5  1  0.79459500  0.27654400  0.96699200  1
  O  O6  1  0.79530400  0.75869300  0.48409200  1
  O  O7  1  0.79458400  0.75758600  0.96670100  1
loop_
_geom_bond_atom_site_label_1
_geom_bond_atom_site_label_2
_geom_bond_distance
_geom_bond_site_symmetry_2
Mg0 O4 1.959650 1_555
Mg0 O1 2.045662 1_555
Mg0 O2 2.046319 1_546
Mg0 O0 2.046936 1_556
Co0 O3 1.931697 1_545
Co0 O1 1.977801 1_555
Co0 O0 1.984041 1_555
Co0 O4 2.007051 1_455
Co0 O6 2.035836 1_445
Co0 O7 2.042745 1_445
Co1 O3 1.919420 1_555
Co1 O2 1.976636 1_556
Co1 O0 1.976732 1_556
Co1 O4 1.999111 1_456
Co1 O5 2.040984 1_455
Co1 O7 2.041810 1_455
Co2 O3 1.935299 1_555
Co2 O1 1.979355 1_555
Co2 O2 1.985078 1_555
Co2 O4 2.009287 1_455
Co2 O6 2.035010 1_455
Co2 O5 2.041110 1_455
O0 Ti0 2.195603 1_445
O1 Ti0 2.191591 1_446
O2 Ti0 2.193036 1_455
O5 Ti0 1.850763 1_546
O6 Ti0 1.852160 1_555
O7 Ti0 1.850296 1_556
