# generated using pymatgen
data_Na6Ca4Zr4Si3(S3O16)3
_symmetry_space_group_name_H-M   'P 1'
_cell_length_a   18.38872781
_cell_length_b   9.13861883
_cell_length_c   23.80741590
_cell_angle_alpha   89.92983371
_cell_angle_beta   89.97501026
_cell_angle_gamma   119.86250439
_symmetry_Int_Tables_number   1
_chemical_formula_structural   Na6Ca4Zr4Si3(S3O16)3
_chemical_formula_sum   'Na18 Ca12 Zr12 Si9 S27 O144'
_cell_volume   3469.56113710
_cell_formula_units_Z   3
loop_
 _symmetry_equiv_pos_site_id
 _symmetry_equiv_pos_as_xyz
  1  'x, y, z'
loop_
 _atom_site_type_symbol
 _atom_site_label
 _atom_site_symmetry_multiplicity
 _atom_site_fract_x
 _atom_site_fract_y
 _atom_site_fract_z
 _atom_site_occupancy
  Na  Na0  1  0.99765778  0.63025420  0.25114098  1
  Na  Na1  1  0.49893352  0.61695908  0.23982694  1
  Na  Na2  1  0.00258832  0.37512776  0.73937832  1
  Na  Na3  1  0.49758176  0.36770773  0.74994779  1
  Na  Na4  1  0.67680375  0.33142840  0.91020767  1
  Na  Na5  1  0.17399524  0.02662820  0.41568987  1
  Na  Na6  1  0.99097381  0.01191631  0.50440551  1
  Na  Na7  1  0.50541690  0.01147440  0.49979759  1
  Na  Na8  1  0.00186930  0.99239946  0.99032132  1
  Na  Na9  1  0.49120488  0.97071492  0.99761589  1
  Na  Na10  1  0.30042253  0.29427801  0.83216070  1
  Na  Na11  1  0.83879586  0.36691866  0.83756040  1
  Na  Na12  1  0.33356460  0.30666883  0.34121314  1
  Na  Na13  1  0.81449930  0.32799582  0.34371037  1
  Na  Na14  1  0.17773921  0.64622884  0.16119390  1
  Na  Na15  1  0.66271487  0.66050319  0.16131259  1
  Na  Na16  1  0.16222185  0.64583680  0.67274441  1
  Na  Na17  1  0.68104933  0.71313069  0.66514591  1
  Ca  Ca0  1  0.99415436  0.00154675  0.35421415  1
  Ca  Ca1  1  0.49421318  0.98583100  0.85298454  1
  Ca  Ca2  1  0.31677779  0.32556974  0.68585565  1
  Ca  Ca3  1  0.83301148  0.32232089  0.67735255  1
  Ca  Ca4  1  0.33126331  0.34053702  0.17724859  1
  Ca  Ca5  1  0.82632410  0.32267878  0.18104086  1
  Ca  Ca6  1  0.83916699  0.34156915  0.98533124  1
  Ca  Ca7  1  0.33882657  0.33729823  0.48690171  1
  Ca  Ca8  1  0.17190431  0.66815035  0.31528682  1
  Ca  Ca9  1  0.67559774  0.66082325  0.31653522  1
  Ca  Ca10  1  0.17400761  0.68286734  0.81353557  1
  Ca  Ca11  1  0.67340208  0.67739131  0.81488082  1
  Zr  Zr0  1  0.50153159  0.01714632  0.36178656  1
  Zr  Zr1  1  0.00831819  0.99530136  0.85775037  1
  Zr  Zr2  1  0.00352956  0.01839805  0.64725084  1
  Zr  Zr3  1  0.50679170  0.99735965  0.64606360  1
  Zr  Zr4  1  0.00719496  0.01656047  0.14511909  1
  Zr  Zr5  1  0.49692639  0.98911029  0.14299362  1
  Zr  Zr6  1  0.32659186  0.33594045  0.98845668  1
  Zr  Zr7  1  0.82607589  0.31839014  0.49006362  1
  Zr  Zr8  1  0.16233514  0.66377256  0.01401562  1
  Zr  Zr9  1  0.67036863  0.67438281  0.01481364  1
  Zr  Zr10  1  0.16997525  0.66600519  0.51701101  1
  Zr  Zr11  1  0.66346522  0.65799358  0.51599473  1
  Si  Si0  1  0.14433416  0.29459885  0.75280708  1
  Si  Si1  1  0.98529333  0.33753259  0.58485594  1
  Si  Si2  1  0.68200069  0.02210918  0.58534813  1
  Si  Si3  1  0.48694123  0.62798972  0.08651557  1
  Si  Si4  1  0.18355760  0.34520764  0.08575903  1
  Si  Si5  1  0.81565447  0.66541825  0.91500989  1
  Si  Si6  1  0.17378882  0.97203147  0.91693826  1
  Si  Si7  1  0.31216779  0.96610320  0.41520814  1
  Si  Si8  1  0.67447349  0.37416568  0.41635380  1
  S  S0  1  0.14461665  0.99810974  0.25004383  1
  S  S1  1  0.63896445  0.99749508  0.24997761  1
  S  S2  1  0.36081583  0.71888661  0.25110353  1
  S  S3  1  0.85614078  0.71003333  0.24554677  1
  S  S4  1  0.99892355  0.29722312  0.24710432  1
  S  S5  1  0.49889376  0.28517082  0.25007946  1
  S  S6  1  0.64495219  0.29173431  0.75008427  1
  S  S7  1  0.99661293  0.71011449  0.74934176  1
  S  S8  1  0.50091725  0.70186649  0.74702266  1
  S  S9  1  0.35814311  0.00374900  0.74532161  1
  S  S10  1  0.85875669  0.00148797  0.75084678  1
  S  S11  1  0.48775652  0.33425824  0.58745159  1
  S  S12  1  0.17765005  0.02233639  0.58066142  1
  S  S13  1  0.33458368  0.64440963  0.58367142  1
  S  S14  1  0.83228614  0.63377802  0.58146576  1
  S  S15  1  0.98818630  0.64128228  0.08780723  1
  S  S16  1  0.33197002  0.02990473  0.08236635  1
  S  S17  1  0.83308345  0.02322915  0.08476894  1
  S  S18  1  0.67834478  0.33337796  0.08238868  1
  S  S19  1  0.31417115  0.66388777  0.92030539  1
  S  S20  1  0.01993257  0.36857316  0.91419017  1
  S  S21  1  0.51743140  0.37330014  0.91810609  1
  S  S22  1  0.66532438  0.96658415  0.91847975  1
  S  S23  1  0.81331414  0.96552264  0.41986925  1
  S  S24  1  0.16618034  0.36577256  0.41829178  1
  S  S25  1  0.01754646  0.66088286  0.41714502  1
  S  S26  1  0.52061307  0.67061802  0.41272910  1
  O  O0  1  0.10506780  0.00715320  0.30316478  1
  O  O1  1  0.59497071  0.00657333  0.30072119  1
  O  O2  1  0.41060648  0.81608743  0.30032542  1
  O  O3  1  0.90228738  0.78789720  0.29795371  1
  O  O4  1  0.49979138  0.19188161  0.30168474  1
  O  O5  1  0.99361288  0.20527921  0.29865538  1
  O  O6  1  0.08722856  0.17724940  0.80634963  1
  O  O7  1  0.60566212  0.20367525  0.80353356  1
  O  O8  1  0.49516844  0.78289629  0.79861866  1
  O  O9  1  0.99416250  0.79896110  0.80155796  1
  O  O10  1  0.40420511  0.01686405  0.79781479  1
  O  O11  1  0.90520394  -0.00144734  0.80085430  1
  O  O12  1  0.40807721  0.99549263  0.69644938  1
  O  O13  1  0.90230136  0.99323975  0.69792177  1
  O  O14  1  0.08899723  0.18367619  0.69510974  1
  O  O15  1  0.59067129  0.18309971  0.70165144  1
  O  O16  1  0.99603027  0.80557407  0.69875759  1
  O  O17  1  0.50353772  0.80608268  0.69678666  1
  O  O18  1  0.40602362  0.81550810  0.19827721  1
  O  O19  1  0.90595366  0.81402402  0.19633496  1
  O  O20  1  0.00126511  0.19943858  0.19678570  1
  O  O21  1  0.50087973  0.19122091  0.19949810  1
  O  O22  1  0.09040842  0.99810800  0.20147128  1
  O  O23  1  0.58989719  0.99402540  0.19833424  1
  O  O24  1  0.45248452  0.36207267  0.63888459  1
  O  O25  1  0.95908039  0.37389103  0.64543754  1
  O  O26  1  0.23149187  0.10042546  0.62940928  1
  O  O27  1  0.73258245  0.08738720  0.64237595  1
  O  O28  1  0.32224836  0.54140043  0.63353385  1
  O  O29  1  0.81502261  0.53567545  0.63299934  1
  O  O30  1  0.46029125  0.54286841  0.14791466  1
  O  O31  1  0.95247962  0.54268775  0.13988850  1
  O  O32  1  0.31707830  0.09497124  0.13435226  1
  O  O33  1  0.81955546  0.09964661  0.13520275  1
  O  O34  1  0.23326117  0.37837449  0.14327309  1
  O  O35  1  0.73094163  0.36035005  0.13204495  1
  O  O36  1  0.22993179  0.30963360  0.03214011  1
  O  O37  1  0.71089691  0.29733502  0.03139960  1
  O  O38  1  0.41951654  0.52312690  0.03639259  1
  O  O39  1  0.93500846  0.56477654  0.03892109  1
  O  O40  1  0.34679883  0.14106818  0.03351752  1
  O  O41  1  0.84850279  0.12529362  0.03447115  1
  O  O42  1  0.21109391  0.12294245  0.52890859  1
  O  O43  1  0.72750662  0.15017975  0.53121957  1
  O  O44  1  0.35035754  0.57563876  0.53259939  1
  O  O45  1  0.84246120  0.54515895  0.53212530  1
  O  O46  1  0.43589030  0.30550670  0.53759071  1
  O  O47  1  0.91828076  0.31422274  0.53430364  1
  O  O48  1  0.26424898  0.67113289  0.96905277  1
  O  O49  1  0.76524814  0.68610271  0.97188292  1
  O  O50  1  0.07356218  0.46183572  0.96490318  1
  O  O51  1  0.57781310  0.47779814  0.96412800  1
  O  O52  1  0.16045343  0.84764399  0.97229171  1
  O  O53  1  0.65949980  0.86050820  0.96872168  1
  O  O54  1  0.26462892  0.84492457  0.47084518  1
  O  O55  1  0.76292162  0.85620487  0.46776369  1
  O  O56  1  0.16098426  0.46052209  0.46787717  1
  O  O57  1  0.65872510  0.47070710  0.47010126  1
  O  O58  1  0.07743454  0.67675199  0.46274089  1
  O  O59  1  0.57433052  0.68789696  0.46248445  1
  O  O60  1  0.04772747  0.63658145  0.36202701  1
  O  O61  1  0.55807771  0.65399294  0.36020596  1
  O  O62  1  0.25411889  0.88479270  0.36074575  1
  O  O63  1  0.77000309  0.89966351  0.36623904  1
  O  O64  1  0.16923404  0.45281878  0.36580874  1
  O  O65  1  0.68753153  0.47065410  0.35812908  1
  O  O66  1  0.05818992  0.46291779  0.86276505  1
  O  O67  1  0.54781854  0.45905216  0.86348254  1
  O  O68  1  0.18804014  0.89885685  0.86018196  1
  O  O69  1  0.66801391  0.88419565  0.86660314  1
  O  O70  1  0.27140574  0.64476709  0.86730549  1
  O  O71  1  0.75112176  0.61922335  0.86319758  1
  O  O72  1  0.01752445  0.82484250  0.41771065  1
  O  O73  1  0.51587986  0.83117526  0.41089331  1
  O  O74  1  0.40679042  0.97923156  0.40974174  1
  O  O75  1  0.89647506  0.97646258  0.42146229  1
  O  O76  1  0.09038442  0.19268516  0.41998332  1
  O  O77  1  0.58673685  0.18268260  0.41303048  1
  O  O78  1  0.01512521  0.20029154  0.91468338  1
  O  O79  1  0.51777094  0.20972999  0.91903592  1
  O  O80  1  0.08699533  0.98793283  0.91488863  1
  O  O81  1  0.58949034  0.98737372  0.92052342  1
  O  O82  1  0.39774591  0.81936071  0.92257175  1
  O  O83  1  0.90709122  0.84039619  0.90959662  1
  O  O84  1  0.49942404  0.18231402  0.59366063  1
  O  O85  1  0.99176123  0.15980802  0.58648835  1
  O  O86  1  0.09097163  0.99563358  0.59015352  1
  O  O87  1  0.58620453  0.00380721  0.58933020  1
  O  O88  1  0.40834375  0.81980137  0.59206050  1
  O  O89  1  0.90933592  0.80219871  0.58532717  1
  O  O90  1  0.49441536  0.82303451  0.08987631  1
  O  O91  1  0.99907077  0.81546262  0.09465879  1
  O  O92  1  0.41036479  0.01398996  0.08805840  1
  O  O93  1  0.90730276  0.99789400  0.09380350  1
  O  O94  1  0.08755876  0.17101386  0.09046567  1
  O  O95  1  0.59152155  0.18477435  0.09307963  1
  O  O96  1  0.35578114  0.16378242  0.74057528  1
  O  O97  1  0.85782457  0.16333308  0.75074487  1
  O  O98  1  0.23504065  0.30815368  0.75399457  1
  O  O99  1  0.72983962  0.31977206  0.74498721  1
  O  O100  1  0.42770445  0.53060643  0.74209420  1
  O  O101  1  0.92130777  0.53880227  0.75040473  1
  O  O102  1  0.35884537  0.55482307  0.25088506  1
  O  O103  1  0.85057597  0.54105428  0.24179675  1
  O  O104  1  0.42219877  0.29957635  0.25154003  1
  O  O105  1  0.92437737  0.32002596  0.24290917  1
  O  O106  1  0.22974323  0.14052829  0.24502406  1
  O  O107  1  0.72377609  0.14588894  0.24754793  1
  O  O108  1  0.32597178  0.51411270  0.92812023  1
  O  O109  1  0.82419838  0.49729821  0.92358677  1
  O  O110  1  0.43348087  0.34819779  0.93015018  1
  O  O111  1  0.93564499  0.34549267  0.92208515  1
  O  O112  1  0.25526141  0.16031139  0.93042994  1
  O  O113  1  0.74058386  0.13504986  0.92354603  1
  O  O114  1  0.32322993  0.15278330  0.42275847  1
  O  O115  1  0.82481178  0.13855299  0.42710660  1
  O  O116  1  0.24152074  0.34713134  0.42289368  1
  O  O117  1  0.75502136  0.34725459  0.42799235  1
  O  O118  1  0.43572190  0.52706305  0.42027542  1
  O  O119  1  0.93274035  0.51732094  0.42784481  1
  O  O120  1  0.16559317  0.50060752  0.07174454  1
  O  O121  1  0.66710648  0.48388666  0.07584534  1
  O  O122  1  0.07390409  0.66419000  0.07926235  1
  O  O123  1  0.58178442  0.66570472  0.06998028  1
  O  O124  1  0.26103029  0.85587096  0.07230111  1
  O  O125  1  0.75770581  0.85060337  0.07847368  1
  O  O126  1  0.16700387  0.84924782  0.57351490  1
  O  O127  1  0.66459678  0.83174670  0.56923499  1
  O  O128  1  0.25860376  0.66420202  0.57718492  1
  O  O129  1  0.75923299  0.66236684  0.57079882  1
  O  O130  1  0.07925540  0.49201495  0.56619703  1
  O  O131  1  0.57407531  0.48311686  0.57810953  1
  O  O132  1  0.14098073  0.83130454  0.24569560  1
  O  O133  1  0.64077901  0.83655610  0.24910472  1
  O  O134  1  0.27679839  0.70005432  0.24931619  1
  O  O135  1  0.77267084  0.69550023  0.24371621  1
  O  O136  1  0.07549727  0.46684584  0.24497622  1
  O  O137  1  0.57415334  0.45706730  0.24922522  1
  O  O138  1  0.14265383  0.47011083  0.74860911  1
  O  O139  1  0.64076415  0.45073587  0.74582207  1
  O  O140  1  0.07339407  0.69617814  0.74869173  1
  O  O141  1  0.57853815  0.68936311  0.74519281  1
  O  O142  1  0.27461995  0.85430254  0.74343760  1
  O  O143  1  0.77308781  0.85434272  0.74869217  1
loop_
_geom_bond_atom_site_label_1
_geom_bond_atom_site_label_2
_geom_bond_distance
_geom_bond_site_symmetry_2
Na0 O132 2.348512 1_655
Na0 O103 2.415472 1_555
Na0 O105 2.467580 1_555
Na0 O136 2.535616 1_655
Na0 O31 2.773244 1_555
Na0 O60 2.787412 1_655
Na1 O30 2.297265 1_555
Na1 O102 2.360105 1_555
Na1 O133 2.380860 1_555
Na1 O137 2.471953 1_555
Na1 O104 2.530496 1_555
Na2 O138 2.282581 1_555
Na2 O25 2.373754 1_455
Na2 O97 2.402694 1_455
Na2 O140 2.559333 1_555
Na2 O101 2.601370 1_455
Na3 O96 2.341870 1_555
Na3 O139 2.351143 1_555
Na3 O100 2.409699 1_555
Na3 O141 2.551636 1_555
Na3 O24 2.764324 1_555
Na3 O67 2.845351 1_555
Na4 O109 2.378230 1_555
Na4 O71 2.539590 1_555
Na4 O79 2.567735 1_555
Na4 O113 2.606156 1_555
Na4 O81 2.737631 1_545
Na4 O7 2.830790 1_555
Na5 O114 2.395526 1_555
Na5 O72 2.529333 1_545
Na5 O116 2.555322 1_555
Na5 O76 2.645937 1_555
Na5 O62 2.732446 1_545
Na5 O42 2.813359 1_555
Na5 O0 2.931614 1_555
Na6 O85 2.373322 1_555
Na6 O75 2.543187 1_545
Na6 O89 2.600298 1_545
Na6 O76 2.663022 1_655
Na6 O86 2.801059 1_645
Na6 O72 2.874035 1_645
Na7 O77 2.571128 1_555
Na7 O87 2.619424 1_555
Na7 O74 2.728647 1_545
Na7 O73 2.748760 1_545
Na7 O84 2.760955 1_555
Na7 O88 2.820074 1_545
Na8 O80 2.395512 1_555
Na8 O83 2.501830 1_455
Na8 O78 2.538025 1_565
Na8 O94 2.878028 1_566
Na8 O91 2.948673 1_456
Na8 O93 3.029778 1_456
Na9 O82 2.387508 1_555
Na9 O81 2.526001 1_555
Na9 O90 2.592609 1_556
Na9 O79 2.726921 1_565
Na9 O92 2.754494 1_566
Na9 O95 2.969170 1_566
Na10 O98 2.253408 1_555
Na10 O112 2.576964 1_555
Na10 O96 2.902759 1_555
Na10 O108 2.923723 1_555
Na11 O109 2.451585 1_555
Na11 O101 2.586657 1_555
Na11 O111 2.758423 1_555
Na11 O113 2.849113 1_555
Na11 O99 2.864217 1_555
Na11 O97 2.917677 1_555
Na12 O114 2.347257 1_555
Na12 O104 2.705719 1_555
Na12 O118 2.715325 1_555
Na12 O116 2.721241 1_555
Na12 O106 2.884433 1_555
Na12 O102 2.986778 1_555
Na13 O117 2.333246 1_555
Na13 O115 2.700745 1_555
Na13 O119 2.828287 1_555
Na13 O107 2.835816 1_555
Na13 O103 2.969645 1_555
Na14 O120 2.463176 1_555
Na14 O134 2.659908 1_555
Na14 O136 2.668366 1_555
Na14 O124 2.749575 1_555
Na14 O122 2.791426 1_555
Na14 O132 2.917252 1_555
Na15 O121 2.624794 1_555
Na15 O125 2.631612 1_555
Na15 O123 2.649150 1_555
Na15 O135 2.720352 1_555
Na15 O137 2.731564 1_555
Na15 O133 2.788103 1_555
Na16 O138 2.321078 1_555
Na16 O142 2.612192 1_555
Na16 O140 2.626175 1_555
Na16 O128 2.836269 1_555
Na16 O130 2.935042 1_555
Na16 O126 2.978327 1_555
Na17 O143 2.514003 1_555
Na17 O127 2.607980 1_555
Na17 O141 2.611597 1_555
Na17 O129 2.826898 1_555
Na17 O139 2.864678 1_555
Na17 O131 2.911728 1_555
Ca0 O3 2.276775 1_545
Ca0 O5 2.286597 1_555
Ca0 O75 2.329945 1_545
Ca0 O0 2.352260 1_655
Ca0 O76 2.359056 1_655
Ca0 O72 2.400674 1_645
Ca1 O10 2.239078 1_565
Ca1 O8 2.270062 1_555
Ca1 O7 2.340628 1_565
Ca1 O82 2.347251 1_555
Ca1 O81 2.373423 1_555
Ca1 O79 2.443947 1_565
Ca2 O98 2.162187 1_555
Ca2 O28 2.290934 1_555
Ca2 O26 2.300882 1_555
Ca2 O96 2.334444 1_555
Ca2 O100 2.380486 1_555
Ca2 O24 2.599391 1_555
Ca3 O27 2.184187 1_555
Ca3 O25 2.254613 1_555
Ca3 O29 2.379823 1_555
Ca3 O97 2.454965 1_555
Ca3 O99 2.479094 1_555
Ca3 O101 2.527243 1_555
Ca4 O34 2.154684 1_555
Ca4 O30 2.272149 1_555
Ca4 O32 2.360092 1_555
Ca4 O106 2.453900 1_555
Ca4 O102 2.487071 1_555
Ca4 O104 2.586287 1_555
Ca5 O33 2.261330 1_555
Ca5 O35 2.271048 1_555
Ca5 O103 2.322724 1_555
Ca5 O105 2.338147 1_555
Ca5 O107 2.372848 1_555
Ca5 O31 2.394228 1_555
Ca6 O109 2.155754 1_555
Ca6 O39 2.307154 1_556
Ca6 O111 2.313038 1_555
Ca6 O113 2.369371 1_555
Ca6 O41 2.374221 1_556
Ca6 O37 2.444795 1_556
Ca7 O114 2.186926 1_555
Ca7 O46 2.289963 1_555
Ca7 O44 2.349212 1_555
Ca7 O118 2.368943 1_555
Ca7 O116 2.386234 1_555
Ca7 O42 2.401180 1_555
Ca8 O62 2.098225 1_555
Ca8 O64 2.284606 1_555
Ca8 O134 2.389245 1_555
Ca8 O60 2.424171 1_555
Ca8 O136 2.468092 1_555
Ca8 O132 2.475983 1_555
Ca9 O65 2.103506 1_555
Ca9 O63 2.326531 1_555
Ca9 O61 2.370339 1_555
Ca9 O135 2.392684 1_555
Ca9 O137 2.462892 1_555
Ca9 O133 2.566073 1_555
Ca10 O68 2.166641 1_555
Ca10 O138 2.322458 1_555
Ca10 O70 2.364244 1_555
Ca10 O66 2.382999 1_555
Ca10 O142 2.401445 1_555
Ca10 O140 2.459112 1_555
Ca11 O71 2.098751 1_555
Ca11 O69 2.299982 1_555
Ca11 O143 2.344694 1_555
Ca11 O141 2.449432 1_555
Ca11 O67 2.460985 1_555
Ca11 O139 2.474851 1_555
O0 S0 1.481361 1_545
O1 S1 1.478857 1_545
O1 Zr0 2.288819 1_555
O2 S2 1.481261 1_555
O2 Zr0 2.293911 1_565
O3 S3 1.478138 1_555
O4 S5 1.499327 1_555
O4 Zr0 2.154910 1_555
O5 S4 1.462004 1_555
O6 Si0 1.658822 1_555
O6 Zr1 1.989614 1_545
O7 S6 1.485436 1_555
O8 S8 1.465767 1_555
O9 S7 1.498501 1_555
O9 Zr1 2.148944 1_655
O10 S9 1.481156 1_555
O11 S10 1.473516 1_555
O11 Zr1 2.342921 1_645
O12 S9 1.506947 1_565
O12 Zr3 2.168296 1_555
O13 S10 1.514573 1_565
O13 Zr2 2.131741 1_665
O14 Si0 1.710928 1_555
O14 Zr2 1.921316 1_555
O15 S6 1.525925 1_555
O15 Zr3 2.100412 1_545
O16 S7 1.489354 1_555
O16 Zr2 2.243281 1_665
O17 S8 1.513678 1_555
O17 Zr3 2.099519 1_555
O18 S2 1.522444 1_555
O18 Zr5 2.096535 1_555
O19 S3 1.498098 1_555
O19 Zr4 2.222499 1_665
O20 S4 1.508773 1_455
O20 Zr4 2.122356 1_555
O21 S5 1.490746 1_555
O21 Zr5 2.258058 1_545
O22 S0 1.527047 1_555
O22 Zr4 2.104283 1_565
O23 S1 1.516362 1_555
O23 Zr5 2.141562 1_555
O24 S11 1.465919 1_555
O25 Si1 1.607175 1_555
O26 S12 1.461454 1_555
O27 Si2 1.585829 1_555
O28 S13 1.459862 1_555
O29 S14 1.457159 1_555
O30 Si3 1.612129 1_555
O31 S15 1.479110 1_555
O32 S16 1.457394 1_555
O33 S17 1.471750 1_555
O34 Si4 1.590078 1_555
O35 S18 1.469041 1_555
O36 Si4 1.654860 1_555
O36 Zr6 1.967476 1_554
O37 S18 1.461880 1_555
O38 Si3 1.643296 1_555
O38 Zr6 2.060124 1_554
O39 S15 1.456623 1_555
O40 S16 1.476423 1_555
O40 Zr6 2.261649 1_554
O41 S17 1.455297 1_555
O42 S12 1.474814 1_555
O43 Si2 1.658537 1_555
O43 Zr7 1.956656 1_555
O44 S13 1.463082 1_555
O45 S14 1.491228 1_555
O45 Zr7 2.184429 1_555
O46 S11 1.462870 1_555
O47 Si1 1.659173 1_555
O47 Zr7 2.012797 1_555
O48 S19 1.501259 1_555
O48 Zr8 2.129566 1_556
O49 Si5 1.703590 1_555
O49 Zr9 1.977931 1_556
O50 S20 1.524197 1_555
O50 Zr8 2.108194 1_556
O51 S21 1.514263 1_555
O51 Zr9 2.131312 1_556
O52 Si6 1.675531 1_555
O52 Zr8 1.966030 1_556
O53 S22 1.508498 1_555
O53 Zr9 2.114568 1_556
O54 Si7 1.666249 1_555
O54 Zr10 2.017632 1_555
O55 S23 1.493743 1_555
O55 Zr11 2.153703 1_555
O56 S24 1.495745 1_555
O56 Zr10 2.149017 1_555
O57 Si8 1.660258 1_555
O57 Zr11 1.996710 1_555
O58 S25 1.501518 1_555
O58 Zr10 2.177804 1_555
O59 S26 1.499991 1_555
O59 Zr11 2.197998 1_555
O60 S25 1.483937 1_555
O61 S26 1.471479 1_555
O62 Si7 1.608249 1_555
O63 S23 1.467029 1_555
O64 S24 1.466349 1_555
O65 Si8 1.594534 1_555
O66 S20 1.459390 1_555
O67 S21 1.475910 1_555
O68 Si6 1.586845 1_555
O69 S22 1.460815 1_555
O70 S19 1.451082 1_555
O71 Si5 1.616060 1_555
O72 S25 1.498643 1_555
O73 S26 1.513074 1_555
O73 Zr0 2.183285 1_565
O74 Si7 1.688423 1_555
O74 Zr0 1.963372 1_565
O75 S23 1.482487 1_555
O76 S24 1.500199 1_555
O77 Si8 1.691244 1_555
O77 Zr0 1.969154 1_555
O78 S20 1.495842 1_555
O78 Zr1 2.266067 1_545
O79 S21 1.498060 1_555
O80 Si6 1.673857 1_555
O80 Zr1 2.011629 1_555
O81 S22 1.498955 1_555
O82 S19 1.486358 1_555
O83 Si5 1.650013 1_555
O83 Zr1 2.088557 1_655
O84 S11 1.513997 1_555
O84 Zr3 2.157476 1_545
O85 Si1 1.686938 1_555
O85 Zr2 2.020813 1_655
O86 S12 1.504449 1_565
O86 Zr2 2.192826 1_565
O87 Si2 1.687157 1_555
O87 Zr3 1.967911 1_545
O88 S13 1.511530 1_555
O88 Zr3 2.155240 1_555
O89 S14 1.487834 1_555
O89 Zr2 2.382977 1_665
O90 Si3 1.720111 1_555
O90 Zr5 1.959514 1_555
O91 S15 1.511221 1_555
O91 Zr4 2.138929 1_665
O92 S16 1.525314 1_555
O92 Zr5 2.158100 1_545
O93 S17 1.509090 1_565
O93 Zr4 2.141546 1_665
O94 Si4 1.692295 1_555
O94 Zr4 1.945710 1_555
O95 S18 1.515814 1_555
O95 Zr5 2.128562 1_545
O96 S9 1.488748 1_555
O97 S10 1.487649 1_555
O98 Si0 1.610150 1_555
O99 S6 1.455497 1_555
O100 S8 1.475819 1_555
O101 S7 1.486656 1_555
O102 S2 1.481621 1_555
O103 S3 1.498695 1_555
O104 S5 1.480680 1_555
O105 S4 1.488978 1_555
O106 S0 1.459170 1_545
O107 S1 1.472493 1_545
O108 S19 1.500112 1_555
O108 Zr6 2.174281 1_555
O109 Si5 1.632941 1_555
O110 S21 1.471318 1_555
O110 Zr6 2.362377 1_555
O111 S20 1.468409 1_655
O112 Si6 1.656182 1_545
O112 Zr6 2.028672 1_555
O113 S22 1.476090 1_545
O114 Si7 1.624597 1_545
O115 S23 1.497510 1_545
O115 Zr7 2.217220 1_555
O116 S24 1.481727 1_555
O117 Si8 1.641363 1_555
O117 Zr7 2.074731 1_555
O118 S26 1.466277 1_555
O119 S25 1.476302 1_655
O119 Zr7 2.405456 1_555
O120 Si4 1.644191 1_555
O120 Zr8 2.049366 1_555
O121 S18 1.497124 1_555
O121 Zr9 2.243924 1_555
O122 S15 1.496916 1_455
O122 Zr8 2.249718 1_555
O123 Si3 1.648005 1_555
O123 Zr9 2.062512 1_555
O124 S16 1.491213 1_565
O124 Zr8 2.266383 1_555
O125 S17 1.501876 1_565
O125 Zr9 2.214095 1_555
O126 S12 1.503876 1_565
O126 Zr10 2.171033 1_555
O127 Si2 1.650234 1_565
O127 Zr11 2.024940 1_555
O128 S13 1.503476 1_555
O128 Zr10 2.176564 1_555
O129 S14 1.512281 1_555
O129 Zr11 2.176531 1_555
O130 Si1 1.656646 1_455
O130 Zr10 2.008639 1_555
O131 S11 1.506051 1_555
O131 Zr11 2.195196 1_555
O132 S0 1.495923 1_555
O133 S1 1.487826 1_555
O134 S2 1.467536 1_555
O135 S3 1.473954 1_555
O136 S4 1.488043 1_455
O137 S5 1.489402 1_555
O138 Si0 1.622505 1_555
O139 S6 1.496222 1_555
O140 S7 1.479527 1_455
O141 S8 1.488172 1_555
O142 S9 1.462022 1_565
O143 S10 1.477581 1_565
