# generated using pymatgen
data_Na3HfMg(PO4)3
_symmetry_space_group_name_H-M   'P 1'
_cell_length_a   9.00917091
_cell_length_b   8.99549579
_cell_length_c   22.25782628
_cell_angle_alpha   90.00000000
_cell_angle_beta   90.17826087
_cell_angle_gamma   119.94980290
_symmetry_Int_Tables_number   1
_chemical_formula_structural   Na3HfMg(PO4)3
_chemical_formula_sum   'Na18 Hf6 Mg6 P18 O72'
_cell_volume   1562.93156924
_cell_formula_units_Z   6
loop_
 _symmetry_equiv_pos_site_id
 _symmetry_equiv_pos_as_xyz
  1  'x, y, z'
loop_
 _atom_site_type_symbol
 _atom_site_label
 _atom_site_symmetry_multiplicity
 _atom_site_fract_x
 _atom_site_fract_y
 _atom_site_fract_z
 _atom_site_occupancy
  Na  Na0  1  0.98155613  0.96478547  0.49181429  1
  Na  Na1  1  0.98155613  0.01677067  0.99181429  1
  Na  Na2  1  0.66698660  0.33816021  0.82499419  1
  Na  Na3  1  0.66698660  0.32882538  0.32499419  1
  Na  Na4  1  0.32876218  0.66194809  0.15834058  1
  Na  Na5  1  0.32876218  0.66681509  0.65834058  1
  Na  Na6  1  0.37042035  0.35977286  0.24528370  1
  Na  Na7  1  0.98697888  0.63301016  0.24546365  1
  Na  Na8  1  0.98697888  0.35396872  0.74546365  1
  Na  Na9  1  0.37042035  0.01064748  0.74528370  1
  Na  Na10  1  0.31059687  0.34581599  0.57879934  1
  Na  Na11  1  0.65668675  0.96515643  0.57860216  1
  Na  Na12  1  0.31059687  0.96477988  0.07879934  1
  Na  Na13  1  0.65668675  0.69152933  0.07860216  1
  Na  Na14  1  0.97897347  0.68184760  0.91134368  1
  Na  Na15  1  0.32299048  0.29774399  0.91272760  1
  Na  Na16  1  0.97897347  0.29712688  0.41134368  1
  Na  Na17  1  0.32299048  0.02524749  0.41272760  1
  Hf  Hf0  1  0.99710449  0.99246620  0.64836410  1
  Hf  Hf1  1  0.99710449  0.00463829  0.14836410  1
  Hf  Hf2  1  0.67166007  0.32789216  0.98153559  1
  Hf  Hf3  1  0.67166007  0.34376691  0.48153559  1
  Hf  Hf4  1  0.34218138  0.67283572  0.31502201  1
  Hf  Hf5  1  0.34218138  0.66934666  0.81502201  1
  Mg  Mg0  1  0.99151821  0.99383276  0.35070655  1
  Mg  Mg1  1  0.99151821  0.99768544  0.85070655  1
  Mg  Mg2  1  0.66900721  0.34204921  0.68411457  1
  Mg  Mg3  1  0.66900721  0.32695699  0.18411457  1
  Mg  Mg4  1  0.33001371  0.66153647  0.01766424  1
  Mg  Mg5  1  0.33001371  0.66847825  0.51766424  1
  P  P0  1  0.29575737  0.00207126  0.25232540  1
  P  P1  1  0.70581898  0.70385526  0.24967951  1
  P  P2  1  0.99904201  0.29702313  0.25519690  1
  P  P3  1  0.29575737  0.29368610  0.75232540  1
  P  P4  1  0.99904201  0.70201889  0.75519690  1
  P  P5  1  0.70581898  0.00196372  0.74967951  1
  P  P6  1  0.96432202  0.33496801  0.58638641  1
  P  P7  1  0.37278281  0.03872755  0.58565760  1
  P  P8  1  0.66286749  0.62790229  0.58548321  1
  P  P9  1  0.96432202  0.62935301  0.08638641  1
  P  P10  1  0.66286749  0.03496420  0.08548321  1
  P  P11  1  0.37278281  0.33405426  0.08565760  1
  P  P12  1  0.63230000  0.66922591  0.92214944  1
  P  P13  1  0.04172952  0.37312513  0.91616584  1
  P  P14  1  0.33289593  0.96301482  0.91893517  1
  P  P15  1  0.63230000  0.96307509  0.42214944  1
  P  P16  1  0.33289593  0.36988211  0.41893517  1
  P  P17  1  0.04172952  0.66860539  0.41616584  1
  O  O0  1  0.20954109  0.02303635  0.30807665  1
  O  O1  1  0.82175540  0.79573045  0.30248334  1
  O  O2  1  0.98507837  0.20124662  0.31304876  1
  O  O3  1  0.20954109  0.18650475  0.80807665  1
  O  O4  1  0.98507837  0.78383175  0.81304876  1
  O  O5  1  0.82175540  0.02602495  0.80248334  1
  O  O6  1  0.78665559  0.97847094  0.69031085  1
  O  O7  1  0.17698432  0.20342370  0.69570021  1
  O  O8  1  0.02285419  0.82310077  0.70068323  1
  O  O9  1  0.78665559  0.80818465  0.19031085  1
  O  O10  1  0.02285419  0.19975342  0.20068323  1
  O  O11  1  0.17698432  0.97356062  0.19570021  1
  O  O12  1  0.87834668  0.34882300  0.64311180  1
  O  O13  1  0.47935408  0.12499138  0.64180968  1
  O  O14  1  0.63863195  0.51606628  0.63933594  1
  O  O15  1  0.87834668  0.52952268  0.14311180  1
  O  O16  1  0.63863195  0.12256467  0.13933594  1
  O  O17  1  0.47935408  0.35436169  0.14180968  1
  O  O18  1  0.46418489  0.30603435  0.02951891  1
  O  O19  1  0.84898294  0.53752707  0.02965832  1
  O  O20  1  0.68737675  0.14450145  0.02751709  1
  O  O21  1  0.46418489  0.15814954  0.52951891  1
  O  O22  1  0.68737675  0.54287430  0.52751709  1
  O  O23  1  0.84898294  0.31145487  0.52965832  1
  O  O24  1  0.55112277  0.68385462  0.97984794  1
  O  O25  1  0.15718030  0.46449408  0.96933454  1
  O  O26  1  0.31398479  0.85676503  0.97464626  1
  O  O27  1  0.55112277  0.86726914  0.47984794  1
  O  O28  1  0.31398479  0.45722076  0.47464626  1
  O  O29  1  0.15718030  0.69268722  0.46933454  1
  O  O30  1  0.12409157  0.63986951  0.35774604  1
  O  O31  1  0.51001883  0.86794154  0.36739189  1
  O  O32  1  0.35252800  0.48025343  0.36147920  1
  O  O33  1  0.12409157  0.48422306  0.85774604  1
  O  O34  1  0.35252800  0.87227556  0.86147920  1
  O  O35  1  0.51001883  0.64207829  0.86739189  1
  O  O36  1  0.01826022  0.82480256  0.40949648  1
  O  O37  1  0.81395054  0.99402041  0.41353043  1
  O  O38  1  0.17600592  0.18840839  0.41331645  1
  O  O39  1  0.01826022  0.19345766  0.90949648  1
  O  O40  1  0.17600592  0.98759753  0.91331645  1
  O  O41  1  0.81395054  0.81993013  0.91353043  1
  O  O42  1  0.97389536  0.16346458  0.58732756  1
  O  O43  1  0.19395059  0.02968724  0.58867342  1
  O  O44  1  0.82740744  0.81042867  0.58830177  1
  O  O45  1  0.97389536  0.81043077  0.08732756  1
  O  O46  1  0.82740744  0.01697877  0.08830177  1
  O  O47  1  0.19395059  0.16426335  0.08867342  1
  O  O48  1  0.67897267  0.15775522  0.74470028  1
  O  O49  1  0.47254566  0.31256390  0.74478479  1
  O  O50  1  0.84959454  0.51891583  0.74696244  1
  O  O51  1  0.67897267  0.52121645  0.24470028  1
  O  O52  1  0.84959454  0.33067771  0.24696244  1
  O  O53  1  0.47254566  0.15998076  0.24478479  1
  O  O54  1  0.64186575  0.49778611  0.92210835  1
  O  O55  1  0.86432228  0.36643433  0.92112243  1
  O  O56  1  0.49594116  0.14741042  0.92066829  1
  O  O57  1  0.64186575  0.14407864  0.42210835  1
  O  O58  1  0.49594116  0.34852974  0.42066829  1
  O  O59  1  0.86432228  0.49788695  0.42112243  1
  O  O60  1  0.35230552  0.49129621  0.07821076  1
  O  O61  1  0.14778372  0.66298085  0.07955468  1
  O  O62  1  0.50740702  0.85371427  0.07876425  1
  O  O63  1  0.35230552  0.86101031  0.57821076  1
  O  O64  1  0.50740702  0.65369376  0.57876425  1
  O  O65  1  0.14778372  0.48480387  0.57955468  1
  O  O66  1  0.30497201  0.83214416  0.25510126  1
  O  O67  1  0.52250689  0.68402770  0.25441230  1
  O  O68  1  0.17138730  0.47672620  0.25450765  1
  O  O69  1  0.30497201  0.47282885  0.75510126  1
  O  O70  1  0.17138730  0.69466210  0.75450765  1
  O  O71  1  0.52250689  0.83848019  0.75441230  1
loop_
_geom_bond_atom_site_label_1
_geom_bond_atom_site_label_2
_geom_bond_distance
_geom_bond_site_symmetry_2
Na0 O36 2.339126 1_655
Na0 O37 2.401126 1_555
Na0 O44 2.561637 1_555
Na0 O38 2.582350 1_665
Na0 O43 2.740255 1_665
Na0 O42 2.800448 1_565
Na1 O39 2.339126 1_655
Na1 O41 2.401126 1_545
Na1 O46 2.561637 1_556
Na1 O40 2.582350 1_645
Na1 O47 2.740255 1_656
Na1 O45 2.800448 1_546
Na2 O50 2.390340 1_555
Na2 O49 2.426254 1_555
Na2 O48 2.452629 1_555
Na2 O54 2.667001 1_555
Na2 O56 2.689597 1_555
Na2 O55 2.707051 1_555
Na3 O52 2.390340 1_555
Na3 O53 2.426254 1_555
Na3 O51 2.452629 1_555
Na3 O57 2.667001 1_555
Na3 O58 2.689597 1_555
Na3 O59 2.707051 1_555
Na4 O61 2.393943 1_555
Na4 O60 2.431030 1_555
Na4 O62 2.439014 1_555
Na4 O68 2.651051 1_555
Na4 O67 2.699870 1_555
Na4 O66 2.712702 1_555
Na5 O65 2.393943 1_555
Na5 O63 2.431030 1_555
Na5 O64 2.439014 1_555
Na5 O70 2.651051 1_555
Na5 O71 2.699870 1_555
Na5 O69 2.712702 1_555
Na6 O53 2.393281 1_555
Na6 O51 2.409539 1_555
Na6 O68 2.500029 1_555
Na6 O17 2.516264 1_555
Na6 O67 2.536600 1_555
Na6 O32 2.840129 1_555
Na6 O10 2.888355 1_555
Na6 O0 2.976329 1_555
Na7 O52 2.359805 1_555
Na7 O51 2.434127 1_555
Na7 O15 2.467944 1_555
Na7 O66 2.516808 1_655
Na7 O68 2.665913 1_655
Na7 O30 2.771317 1_655
Na7 O1 2.855916 1_555
Na7 O11 2.883995 1_655
Na8 O50 2.359797 1_555
Na8 O48 2.434128 1_555
Na8 O12 2.467942 1_555
Na8 O69 2.516806 1_655
Na8 O70 2.665920 1_655
Na8 O33 2.771319 1_655
Na8 O5 2.855916 1_555
Na8 O7 2.883996 1_655
Na9 O49 2.393273 1_555
Na9 O48 2.409539 1_555
Na9 O70 2.500022 1_545
Na9 O13 2.516262 1_555
Na9 O71 2.536592 1_545
Na9 O34 2.840126 1_545
Na9 O8 2.888355 1_545
Na9 O3 2.976330 1_555
Na10 O65 2.355049 1_555
Na10 O64 2.431239 1_555
Na10 O43 2.501404 1_555
Na10 O28 2.519775 1_555
Na10 O42 2.638863 1_455
Na10 O21 2.882606 1_555
Na10 O7 2.887876 1_555
Na10 O14 2.889804 1_555
Na11 O27 2.379519 1_555
Na11 O63 2.415005 1_555
Na11 O64 2.428229 1_555
Na11 O42 2.508630 1_565
Na11 O44 2.546546 1_555
Na11 O6 2.722018 1_555
Na11 O23 2.918095 1_565
Na11 O13 2.984368 1_565
Na12 O61 2.355033 1_555
Na12 O62 2.431225 1_555
Na12 O47 2.501412 1_565
Na12 O26 2.519768 1_554
Na12 O45 2.638863 1_455
Na12 O18 2.882606 1_565
Na12 O11 2.887878 1_555
Na12 O16 2.889804 1_565
Na13 O24 2.379522 1_554
Na13 O60 2.415002 1_555
Na13 O62 2.428245 1_555
Na13 O45 2.508629 1_555
Na13 O46 2.546553 1_565
Na13 O9 2.722020 1_555
Na13 O19 2.918095 1_555
Na13 O17 2.984368 1_555
Na14 O4 2.362545 1_555
Na14 O41 2.366411 1_555
Na14 O40 2.417063 1_655
Na14 O55 2.497941 1_555
Na14 O54 2.646922 1_555
Na14 O19 2.914270 1_556
Na14 O33 2.936519 1_655
Na14 O26 2.966840 1_655
Na15 O40 2.418396 1_545
Na15 O39 2.418572 1_555
Na15 O54 2.523743 1_555
Na15 O56 2.527851 1_555
Na15 O3 2.536848 1_555
Na15 O35 2.872452 1_555
Na15 O18 2.875043 1_556
Na15 O25 2.884089 1_555
Na16 O2 2.362548 1_555
Na16 O37 2.366419 1_545
Na16 O38 2.417070 1_655
Na16 O59 2.497925 1_555
Na16 O57 2.646921 1_555
Na16 O23 2.914265 1_555
Na16 O30 2.936519 1_655
Na16 O28 2.966840 1_655
Na17 O38 2.418388 1_555
Na17 O36 2.418573 1_545
Na17 O57 2.523745 1_555
Na17 O58 2.527836 1_555
Na17 O0 2.536847 1_555
Na17 O31 2.872452 1_545
Na17 O21 2.875039 1_555
Na17 O29 2.884089 1_545
Hf0 O8 2.020457 1_655
Hf0 O6 2.062748 1_555
Hf0 O7 2.063055 1_665
Hf0 O44 2.072093 1_555
Hf0 O43 2.108090 1_665
Hf0 O42 2.138887 1_565
Hf1 O10 2.020457 1_655
Hf1 O9 2.062747 1_545
Hf1 O11 2.063055 1_645
Hf1 O46 2.072093 1_555
Hf1 O47 2.108090 1_655
Hf1 O45 2.138887 1_545
Hf2 O20 2.005319 1_556
Hf2 O19 2.058362 1_556
Hf2 O18 2.078120 1_556
Hf2 O55 2.086798 1_555
Hf2 O56 2.097087 1_555
Hf2 O54 2.136510 1_555
Hf3 O22 2.005319 1_555
Hf3 O23 2.058362 1_555
Hf3 O21 2.078120 1_555
Hf3 O59 2.086798 1_555
Hf3 O58 2.097087 1_555
Hf3 O57 2.136510 1_555
Hf4 O31 2.016093 1_555
Hf4 O32 2.059047 1_555
Hf4 O30 2.069434 1_555
Hf4 O67 2.078375 1_555
Hf4 O66 2.102781 1_555
Hf4 O68 2.137910 1_555
Hf5 O35 2.016093 1_555
Hf5 O34 2.059047 1_555
Hf5 O33 2.069434 1_555
Hf5 O71 2.078375 1_555
Hf5 O69 2.102781 1_555
Hf5 O70 2.137910 1_555
Mg0 O1 1.983752 1_555
Mg0 O2 2.072407 1_565
Mg0 O0 2.079377 1_665
Mg0 O36 2.108571 1_655
Mg0 O37 2.128635 1_555
Mg0 O38 2.202032 1_665
Mg1 O5 1.983752 1_565
Mg1 O4 2.072406 1_555
Mg1 O3 2.079377 1_665
Mg1 O39 2.108571 1_665
Mg1 O41 2.128635 1_555
Mg1 O40 2.202032 1_655
Mg2 O14 1.986116 1_555
Mg2 O13 2.068173 1_555
Mg2 O12 2.071106 1_555
Mg2 O50 2.129866 1_555
Mg2 O49 2.138403 1_555
Mg2 O48 2.173187 1_555
Mg3 O16 1.986116 1_555
Mg3 O17 2.068173 1_555
Mg3 O15 2.071106 1_555
Mg3 O52 2.129866 1_555
Mg3 O53 2.138403 1_555
Mg3 O51 2.173187 1_555
Mg4 O25 1.989285 1_554
Mg4 O26 2.067403 1_554
Mg4 O24 2.080384 1_554
Mg4 O60 2.122975 1_555
Mg4 O62 2.149418 1_555
Mg4 O61 2.151392 1_555
Mg5 O29 1.989285 1_555
Mg5 O28 2.067403 1_555
Mg5 O27 2.080384 1_555
Mg5 O63 2.122975 1_555
Mg5 O64 2.149418 1_555
Mg5 O65 2.151392 1_555
O0 P0 1.526757 1_555
O1 P1 1.511875 1_555
O2 P2 1.519524 1_555
O3 P3 1.526756 1_555
O4 P4 1.519524 1_555
O5 P5 1.511875 1_555
O6 P5 1.575069 1_565
O7 P3 1.586461 1_555
O8 P4 1.572547 1_455
O9 P1 1.575069 1_555
O10 P2 1.572547 1_455
O11 P0 1.586461 1_565
O12 P6 1.520552 1_555
O13 P7 1.527961 1_555
O14 P8 1.509571 1_555
O15 P9 1.520552 1_555
O16 P10 1.509571 1_555
O17 P11 1.527961 1_555
O18 P11 1.586369 1_555
O19 P9 1.578335 1_555
O20 P10 1.571242 1_555
O21 P7 1.586369 1_555
O22 P8 1.571242 1_555
O23 P6 1.578335 1_555
O24 P12 1.517693 1_555
O25 P13 1.515459 1_555
O26 P14 1.522782 1_555
O27 P15 1.517693 1_555
O28 P16 1.522782 1_555
O29 P17 1.515459 1_555
O30 P17 1.582939 1_555
O31 P15 1.575351 1_555
O32 P16 1.574338 1_555
O33 P13 1.582939 1_555
O34 P14 1.574338 1_555
O35 P12 1.575351 1_555
O36 P17 1.528858 1_555
O37 P15 1.529569 1_555
O38 P16 1.540578 1_555
O39 P13 1.528867 1_555
O40 P14 1.540573 1_555
O41 P12 1.529566 1_555
O42 P6 1.587711 1_555
O43 P7 1.573757 1_555
O44 P8 1.570487 1_555
O45 P9 1.587720 1_555
O46 P10 1.570482 1_555
O47 P11 1.573753 1_555
O48 P5 1.540466 1_555
O49 P3 1.524912 1_555
O50 P4 1.530850 1_555
O51 P1 1.540474 1_555
O52 P2 1.530844 1_555
O53 P0 1.524909 1_555
O54 P12 1.586968 1_555
O55 P13 1.573333 1_655
O56 P14 1.573970 1_545
O57 P15 1.586950 1_545
O58 P16 1.573980 1_555
O59 P17 1.573342 1_655
O60 P11 1.524005 1_555
O61 P9 1.532593 1_455
O62 P10 1.536522 1_565
O63 P7 1.523987 1_565
O64 P8 1.536533 1_555
O65 P6 1.532599 1_455
O66 P0 1.572874 1_565
O67 P1 1.573944 1_555
O68 P2 1.586889 1_455
O69 P3 1.572883 1_555
O70 P4 1.586884 1_455
O71 P5 1.573940 1_565
