# generated using pymatgen
data_Na8Ti2Al2Si5SO24
_symmetry_space_group_name_H-M   'P 1'
_cell_length_a   8.90332465
_cell_length_b   8.89001908
_cell_length_c   21.81202154
_cell_angle_alpha   90.08437178
_cell_angle_beta   89.44783287
_cell_angle_gamma   119.90744359
_symmetry_Int_Tables_number   1
_chemical_formula_structural   Na8Ti2Al2Si5SO24
_chemical_formula_sum   'Na24 Ti6 Al6 Si15 S3 O72'
_cell_volume   1496.45054484
_cell_formula_units_Z   3
loop_
 _symmetry_equiv_pos_site_id
 _symmetry_equiv_pos_as_xyz
  1  'x, y, z'
loop_
 _atom_site_type_symbol
 _atom_site_label
 _atom_site_symmetry_multiplicity
 _atom_site_fract_x
 _atom_site_fract_y
 _atom_site_fract_z
 _atom_site_occupancy
  Na  Na0  1  0.63788199  0.00297649  0.25140576  1
  Na  Na1  1  0.36178709  0.36479411  0.24879192  1
  Na  Na2  1  0.00005764  0.63463775  0.25005897  1
  Na  Na3  1  0.63274439  0.63291732  0.74848771  1
  Na  Na4  1  0.99726872  0.36366272  0.74984514  1
  Na  Na5  1  0.36878589  0.00460118  0.74995166  1
  Na  Na6  1  0.29976394  0.33421849  0.58462414  1
  Na  Na7  1  0.03546331  0.70155955  0.58262167  1
  Na  Na8  1  0.66644000  0.96376425  0.58288997  1
  Na  Na9  1  0.29136536  0.96585702  0.08257827  1
  Na  Na10  1  0.66897812  0.69489027  0.08604059  1
  Na  Na11  1  0.04025779  0.33545723  0.08622229  1
  Na  Na12  1  0.97274241  0.66790376  0.91671335  1
  Na  Na13  1  0.70233139  0.03979160  0.91230280  1
  Na  Na14  1  0.32512148  0.29044142  0.91772732  1
  Na  Na15  1  0.96183482  0.29650577  0.41272281  1
  Na  Na16  1  0.33086149  0.02674557  0.41586362  1
  Na  Na17  1  0.70837207  0.67467793  0.41683345  1
  Na  Na18  1  0.99519652  0.99375930  0.50010423  1
  Na  Na19  1  0.01160827  0.00435175  0.00023211  1
  Na  Na20  1  0.66675980  0.32806680  0.83251611  1
  Na  Na21  1  0.67123790  0.33109288  0.33277771  1
  Na  Na22  1  0.32817418  0.65909562  0.16656663  1
  Na  Na23  1  0.33542611  0.66683488  0.66477223  1
  Ti  Ti0  1  0.99953700  0.00014045  0.64809836  1
  Ti  Ti1  1  0.66585107  0.33339304  0.68545774  1
  Ti  Ti2  1  0.67049741  0.35148996  0.18871926  1
  Ti  Ti3  1  0.67769115  0.33188457  0.48365065  1
  Ti  Ti4  1  0.32831709  0.67906610  0.31054348  1
  Ti  Ti5  1  0.31844544  0.67192516  0.81171151  1
  Al  Al0  1  0.98826286  0.98736873  0.34893290  1
  Al  Al1  1  0.01312182  0.01161098  0.85001843  1
  Al  Al2  1  0.01308998  0.99944362  0.15102284  1
  Al  Al3  1  0.66466473  0.33248862  0.98192055  1
  Al  Al4  1  0.30281227  0.64723923  0.01843597  1
  Al  Al5  1  0.33754552  0.68308496  0.52212324  1
  Si  Si0  1  0.28529126  0.00486647  0.25077889  1
  Si  Si1  1  0.71518201  0.72014641  0.24898299  1
  Si  Si2  1  0.99957926  0.28120590  0.24982026  1
  Si  Si3  1  0.29058578  0.29092019  0.75117486  1
  Si  Si4  1  0.99456899  0.71430420  0.75265005  1
  Si  Si5  1  0.71325155  0.99918302  0.75326269  1
  Si  Si6  1  0.96674216  0.33794801  0.58341992  1
  Si  Si7  1  0.37565575  0.04184338  0.58270337  1
  Si  Si8  1  0.66187132  0.62444601  0.58197042  1
  Si  Si9  1  0.95587053  0.62723153  0.08069169  1
  Si  Si10  1  0.37447227  0.33543677  0.08056003  1
  Si  Si11  1  0.03525387  0.36790014  0.91828340  1
  Si  Si12  1  0.33407061  0.95986549  0.92014226  1
  Si  Si13  1  0.62620163  0.95508534  0.41772893  1
  Si  Si14  1  0.04457150  0.67204221  0.41859373  1
  S  S0  1  0.66568678  0.04163918  0.08201048  1
  S  S1  1  0.62199804  0.66633294  0.91787582  1
  S  S2  1  0.33161996  0.37684574  0.41723697  1
  O  O0  1  0.20065657  0.04042178  0.31139453  1
  O  O1  1  0.83349429  0.79276846  0.30953951  1
  O  O2  1  0.96583752  0.16258332  0.31091546  1
  O  O3  1  0.20741897  0.16708015  0.81043388  1
  O  O4  1  0.96224579  0.80279023  0.81221009  1
  O  O5  1  0.83683091  0.03287896  0.81168639  1
  O  O6  1  0.79889329  0.96314843  0.69123839  1
  O  O7  1  0.16589126  0.20532766  0.69078501  1
  O  O8  1  0.03759483  0.83615486  0.69101693  1
  O  O9  1  0.79972036  0.84006067  0.18839544  1
  O  O10  1  0.03371637  0.19599525  0.18878230  1
  O  O11  1  0.16686768  0.95890901  0.19024537  1
  O  O12  1  0.87312326  0.37358442  0.64238958  1
  O  O13  1  0.50195514  0.13290926  0.64222400  1
  O  O14  1  0.62965850  0.49922987  0.64222267  1
  O  O15  1  0.86689369  0.49806244  0.14145009  1
  O  O16  1  0.63317872  0.11836084  0.13762281  1
  O  O17  1  0.50091724  0.36741123  0.14125329  1
  O  O18  1  0.46876167  0.29805564  0.02278314  1
  O  O19  1  0.82888016  0.52997631  0.02294277  1
  O  O20  1  0.69621235  0.15456278  0.02707861  1
  O  O21  1  0.46653929  0.17008238  0.52310264  1
  O  O22  1  0.70052430  0.53211953  0.52287517  1
  O  O23  1  0.83525307  0.29646421  0.52437947  1
  O  O24  1  0.53959516  0.69588775  0.97307675  1
  O  O25  1  0.16520539  0.45612044  0.97590147  1
  O  O26  1  0.30610453  0.83007121  0.97771183  1
  O  O27  1  0.53388699  0.82870507  0.47645228  1
  O  O28  1  0.30445967  0.45823662  0.47230457  1
  O  O29  1  0.16890379  0.69957179  0.47658508  1
  O  O30  1  0.13202391  0.63094491  0.35769568  1
  O  O31  1  0.49875368  0.86271575  0.35770367  1
  O  O32  1  0.36223923  0.48553562  0.36128234  1
  O  O33  1  0.13125701  0.49999127  0.85861090  1
  O  O34  1  0.37014552  0.86906133  0.85862687  1
  O  O35  1  0.51497403  0.63601037  0.86264263  1
  O  O36  1  0.02783123  0.84622964  0.41060275  1
  O  O37  1  0.82097910  0.98044256  0.41045742  1
  O  O38  1  0.17656582  0.20301093  0.41283719  1
  O  O39  1  0.01546793  0.17534526  0.91031324  1
  O  O40  1  0.15697331  0.97168769  0.91177551  1
  O  O41  1  0.79670494  0.82229925  0.91323895  1
  O  O42  1  0.97650871  0.16056113  0.58762493  1
  O  O43  1  0.18551502  0.02566368  0.58781597  1
  O  O44  1  0.83788670  0.81315737  0.58782889  1
  O  O45  1  0.97222695  0.81844263  0.08899331  1
  O  O46  1  0.82332581  0.02621921  0.08611371  1
  O  O47  1  0.18139767  0.16302285  0.08903503  1
  O  O48  1  0.69139270  0.17080497  0.74562671  1
  O  O49  1  0.48326264  0.31052544  0.74443916  1
  O  O50  1  0.82796110  0.51981166  0.74609482  1
  O  O51  1  0.69145812  0.52187958  0.24413995  1
  O  O52  1  0.82734816  0.30588909  0.24321038  1
  O  O53  1  0.48306972  0.17012187  0.24308759  1
  O  O54  1  0.64017852  0.50852534  0.92272289  1
  O  O55  1  0.84540560  0.35616481  0.92567917  1
  O  O56  1  0.50905270  0.15313745  0.92485409  1
  O  O57  1  0.63888263  0.14758690  0.42116446  1
  O  O58  1  0.48982374  0.35930316  0.42070404  1
  O  O59  1  0.84924404  0.49610433  0.42137258  1
  O  O60  1  0.36447455  0.51642137  0.07442194  1
  O  O61  1  0.14995078  0.64575369  0.07748040  1
  O  O62  1  0.51136432  0.86680530  0.07575781  1
  O  O63  1  0.35935179  0.85219517  0.57822567  1
  O  O64  1  0.48808308  0.63858025  0.57520580  1
  O  O65  1  0.15480235  0.50824281  0.57381567  1
  O  O66  1  0.30887802  0.83034616  0.25552661  1
  O  O67  1  0.51688192  0.68660698  0.25634258  1
  O  O68  1  0.17219721  0.47790917  0.25617520  1
  O  O69  1  0.31352151  0.48512845  0.75758818  1
  O  O70  1  0.17059049  0.69442758  0.75553133  1
  O  O71  1  0.52005671  0.82487447  0.75746230  1
loop_
_geom_bond_atom_site_label_1
_geom_bond_atom_site_label_2
_geom_bond_distance
_geom_bond_site_symmetry_2
Na0 O52 2.365364 1_555
Na0 O67 2.461645 1_545
Na0 O53 2.487714 1_555
Na0 O66 2.540904 1_545
Na0 O31 2.622574 1_545
Na0 O16 2.695515 1_555
Na0 O9 2.846011 1_545
Na0 O2 2.856592 1_555
Na1 O68 2.360803 1_555
Na1 O53 2.457016 1_555
Na1 O67 2.486423 1_555
Na1 O51 2.546156 1_555
Na1 O17 2.636739 1_555
Na1 O32 2.675945 1_555
Na1 O0 2.843717 1_555
Na1 O10 2.862502 1_555
Na2 O51 2.414656 1_455
Na2 O66 2.415893 1_555
Na2 O68 2.538105 1_555
Na2 O52 2.539682 1_455
Na2 O30 2.643002 1_555
Na2 O15 2.664972 1_455
Na2 O1 2.809820 1_455
Na2 O11 2.814705 1_555
Na3 O71 2.378999 1_555
Na3 O50 2.403238 1_555
Na3 O69 2.471758 1_555
Na3 O49 2.488212 1_555
Na3 O14 2.597355 1_555
Na3 O35 2.697830 1_555
Na3 O6 2.830337 1_555
Na3 O4 2.910895 1_555
Na4 O48 2.390133 1_555
Na4 O69 2.469694 1_655
Na4 O50 2.509050 1_555
Na4 O70 2.553614 1_655
Na4 O12 2.621212 1_555
Na4 O33 2.669190 1_655
Na4 O7 2.821252 1_655
Na4 O5 2.879795 1_555
Na5 O49 2.384177 1_555
Na5 O70 2.424216 1_545
Na5 O48 2.491013 1_555
Na5 O71 2.558227 1_545
Na5 O13 2.614152 1_555
Na5 O34 2.663548 1_545
Na5 O3 2.813929 1_555
Na5 O8 2.872958 1_545
Na6 O64 2.376062 1_555
Na6 O43 2.404305 1_555
Na6 O65 2.472420 1_555
Na6 O42 2.497345 1_455
Na6 O7 2.586162 1_555
Na6 O28 2.679443 1_555
Na6 O14 2.850671 1_555
Na6 O21 2.872477 1_555
Na7 O44 2.414064 1_455
Na7 O65 2.436265 1_555
Na7 O63 2.502464 1_555
Na7 O43 2.502581 1_565
Na7 O29 2.594039 1_555
Na7 O8 2.644239 1_555
Na7 O12 2.839429 1_455
Na7 O22 2.906854 1_455
Na8 O63 2.402142 1_555
Na8 O42 2.425144 1_565
Na8 O44 2.485139 1_555
Na8 O64 2.516526 1_555
Na8 O27 2.618379 1_555
Na8 O6 2.652563 1_555
Na8 O23 2.859541 1_565
Na8 O13 2.869565 1_565
Na9 O47 2.399732 1_565
Na9 O45 2.467824 1_455
Na9 O61 2.474794 1_555
Na9 O62 2.519543 1_555
Na9 O11 2.574801 1_555
Na9 O26 2.617330 1_554
Na9 O18 2.870124 1_565
Na9 O16 2.914165 1_565
Na10 O45 2.355010 1_555
Na10 O60 2.377862 1_555
Na10 O62 2.549718 1_555
Na10 O46 2.555023 1_565
Na10 O9 2.558993 1_555
Na10 O24 2.731876 1_554
Na10 O17 2.792223 1_555
Na10 O19 2.847465 1_555
Na11 O47 2.419805 1_555
Na11 O61 2.431284 1_555
Na11 O46 2.448125 1_455
Na11 O60 2.518512 1_555
Na11 O10 2.545300 1_555
Na11 O25 2.635266 1_554
Na11 O15 2.847327 1_455
Na11 O20 2.964975 1_455
Na12 O40 2.361278 1_655
Na12 O55 2.422436 1_555
Na12 O41 2.548342 1_555
Na12 O54 2.569307 1_555
Na12 O4 2.601226 1_555
Na12 O19 2.626396 1_556
Na12 O33 2.808378 1_655
Na12 O26 2.908844 1_655
Na13 O56 2.402242 1_555
Na13 O39 2.423700 1_655
Na13 O55 2.459742 1_555
Na13 O41 2.462802 1_545
Na13 O5 2.505310 1_555
Na13 O20 2.712337 1_556
Na13 O34 2.829609 1_545
Na13 O24 2.959944 1_545
Na14 O39 2.422588 1_555
Na14 O40 2.461774 1_545
Na14 O56 2.488901 1_555
Na14 O54 2.494228 1_555
Na14 O3 2.582926 1_555
Na14 O18 2.619291 1_556
Na14 O25 2.803132 1_555
Na14 O35 2.920976 1_555
Na15 O38 2.435283 1_655
Na15 O37 2.440718 1_545
Na15 O59 2.440948 1_555
Na15 O57 2.499748 1_555
Na15 O2 2.526441 1_555
Na15 O23 2.673624 1_555
Na15 O30 2.838891 1_655
Na15 O28 2.959553 1_655
Na16 O36 2.357001 1_545
Na16 O57 2.399196 1_555
Na16 O38 2.548669 1_555
Na16 O58 2.565969 1_555
Na16 O0 2.596792 1_555
Na16 O21 2.658019 1_555
Na16 O29 2.843501 1_545
Na16 O31 2.846370 1_545
Na17 O37 2.386252 1_555
Na17 O59 2.468101 1_555
Na17 O36 2.470160 1_655
Na17 O58 2.492253 1_555
Na17 O1 2.571164 1_555
Na17 O22 2.622625 1_555
Na17 O27 2.838394 1_555
Na17 O32 2.948089 1_555
Na18 O44 2.432224 1_555
Na18 O36 2.444835 1_655
Na18 O42 2.470316 1_565
Na18 O37 2.473486 1_555
Na18 O43 2.488677 1_665
Na18 O38 2.578170 1_665
Na19 O40 2.409773 1_544
Na19 O47 2.439018 1_555
Na19 O45 2.453829 1_445
Na19 O39 2.472677 1_554
Na19 O46 2.573005 1_455
Na19 O41 2.617963 1_444
Na20 O48 2.425804 1_555
Na20 O50 2.456941 1_555
Na20 O49 2.487916 1_555
Na20 O56 2.494739 1_555
Na20 O55 2.527084 1_555
Na20 O54 2.619443 1_555
Na21 O57 2.447664 1_555
Na21 O52 2.460829 1_555
Na21 O59 2.475941 1_555
Na21 O51 2.519034 1_555
Na21 O53 2.519118 1_555
Na21 O58 2.587026 1_555
Na22 O68 2.463663 1_555
Na22 O60 2.478212 1_555
Na22 O61 2.485728 1_555
Na22 O66 2.521530 1_555
Na22 O67 2.523767 1_555
Na22 O62 2.634080 1_555
Na23 O63 2.444545 1_555
Na23 O64 2.452522 1_555
Na23 O65 2.510432 1_555
Na23 O69 2.536523 1_555
Na23 O70 2.536634 1_555
Na23 O71 2.552693 1_555
Al0 O1 1.808652 1_555
Al0 O2 1.863044 1_565
Al0 O0 1.884327 1_665
Al0 O37 1.973123 1_555
Al0 O36 1.990669 1_655
Al0 O38 2.293673 1_665
Al1 O3 1.799660 1_555
Al1 O4 1.869683 1_445
Al1 O5 1.876185 1_455
Al1 O39 1.952794 1_555
Al1 O40 2.017125 1_545
Al1 O41 2.273442 1_445
Al2 O11 1.803267 1_555
Al2 O10 1.855793 1_565
Al2 O9 1.889547 1_455
Al2 O45 1.992849 1_455
Al2 O47 1.995512 1_565
Al2 O46 2.315989 1_465
Al3 O18 1.835409 1_556
Al3 O19 1.865879 1_556
Al3 O55 1.940013 1_555
Al3 O56 1.958480 1_555
Al3 O20 2.001008 1_556
Al3 O54 2.124972 1_555
Al4 O25 1.786061 1_554
Al4 O26 1.840650 1_554
Al4 O61 1.859947 1_555
Al4 O60 1.949088 1_555
Al4 O24 2.159187 1_554
Al4 O62 2.290067 1_555
Al5 O27 1.854088 1_555
Al5 O63 1.871748 1_555
Al5 O29 1.873801 1_555
Al5 O65 1.944844 1_555
Al5 O64 1.963045 1_555
Al5 O28 2.162358 1_555
O0 Si0 1.622615 1_555
O1 Si1 1.617782 1_555
O2 Si2 1.630550 1_555
O3 Si3 1.613655 1_555
O4 Si4 1.613966 1_555
O5 Si5 1.619102 1_545
O6 Si5 1.654303 1_555
O6 Ti0 1.888775 1_565
O7 Si3 1.652103 1_555
O7 Ti0 1.927544 1_455
O8 Si4 1.645601 1_455
O8 Ti0 1.902414 1_465
O9 Si1 1.623041 1_555
O10 Si2 1.630204 1_455
O11 Si0 1.617909 1_565
O12 Si6 1.640432 1_555
O12 Ti1 1.930218 1_555
O13 Si7 1.650032 1_555
O13 Ti1 1.903493 1_555
O14 Si8 1.651445 1_555
O14 Ti1 1.910601 1_555
O15 Si9 1.667221 1_555
O15 Ti2 1.874991 1_555
O16 S0 1.485946 1_555
O16 Ti2 2.227451 1_555
O17 Si10 1.676081 1_555
O17 Ti2 1.901363 1_555
O18 Si10 1.630930 1_555
O19 Si9 1.631547 1_555
O20 S0 1.497492 1_555
O21 Si7 1.645805 1_555
O21 Ti3 1.902541 1_555
O22 Si8 1.650338 1_555
O22 Ti3 1.892103 1_555
O23 Si6 1.661944 1_555
O23 Ti3 1.822533 1_555
O24 S1 1.493746 1_555
O25 Si11 1.628944 1_555
O26 Si12 1.637671 1_555
O27 Si13 1.625293 1_555
O28 S2 1.480228 1_555
O29 Si14 1.625174 1_555
O30 Si14 1.663264 1_555
O30 Ti4 1.875157 1_555
O31 Si13 1.665043 1_555
O31 Ti4 1.892340 1_555
O32 S2 1.493965 1_555
O32 Ti4 2.192337 1_555
O33 Si11 1.669073 1_555
O33 Ti5 1.895206 1_555
O34 Si12 1.673986 1_555
O34 Ti5 1.878783 1_555
O35 S1 1.482251 1_555
O35 Ti5 2.234576 1_555
O36 Si14 1.637677 1_555
O37 Si13 1.639597 1_555
O38 S2 1.475772 1_555
O39 Si11 1.640297 1_555
O40 Si12 1.643582 1_555
O41 S1 1.482874 1_555
O42 Si6 1.624850 1_555
O42 Ti0 2.029320 1_555
O43 Si7 1.628672 1_555
O43 Ti0 2.026426 1_455
O44 Si8 1.633466 1_555
O44 Ti0 2.051110 1_565
O45 Si9 1.642042 1_555
O46 S0 1.480191 1_555
O47 Si10 1.644923 1_555
O48 Si5 1.640402 1_545
O48 Ti1 2.049988 1_555
O49 Si3 1.640685 1_555
O49 Ti1 1.992497 1_555
O50 Si4 1.629767 1_555
O50 Ti1 2.055258 1_555
O51 Si1 1.670672 1_555
O51 Ti2 1.872884 1_555
O52 Si2 1.661398 1_555
O52 Ti2 2.031051 1_555
O53 Si0 1.643929 1_555
O53 Ti2 2.018693 1_555
O54 S1 1.494242 1_555
O55 Si11 1.647089 1_655
O56 Si12 1.650187 1_545
O57 Si13 1.659568 1_545
O57 Ti3 2.024693 1_555
O58 S2 1.495047 1_555
O58 Ti3 2.279053 1_555
O59 Si14 1.661387 1_655
O59 Ti3 2.012906 1_555
O60 Si10 1.660804 1_555
O61 Si9 1.652825 1_455
O62 S0 1.481763 1_565
O63 Si7 1.621377 1_565
O64 Si8 1.621730 1_555
O65 Si6 1.614234 1_455
O66 Si0 1.669651 1_565
O66 Ti4 1.876060 1_555
O67 Si1 1.643624 1_555
O67 Ti4 2.017538 1_555
O68 Si2 1.662084 1_455
O68 Ti4 2.020678 1_555
O69 Si3 1.640240 1_555
O69 Ti5 2.018886 1_555
O70 Si4 1.664121 1_455
O70 Ti5 1.889169 1_555
O71 Si5 1.645520 1_555
O71 Ti5 2.000247 1_555
