# generated using pymatgen
data_Rb2AgI3
_symmetry_space_group_name_H-M   'P 1'
_cell_length_a   4.93261718
_cell_length_b   10.37241083
_cell_length_c   20.10093202
_cell_angle_alpha   90.00000000
_cell_angle_beta   90.00000000
_cell_angle_gamma   90.00000000
_symmetry_Int_Tables_number   1
_chemical_formula_structural   Rb2AgI3
_chemical_formula_sum   'Rb8 Ag4 I12'
_cell_volume   1028.42663541
_cell_formula_units_Z   4
loop_
 _symmetry_equiv_pos_site_id
 _symmetry_equiv_pos_as_xyz
  1  'x, y, z'
loop_
 _atom_site_type_symbol
 _atom_site_label
 _atom_site_symmetry_multiplicity
 _atom_site_fract_x
 _atom_site_fract_y
 _atom_site_fract_z
 _atom_site_occupancy
  Rb  Rb0  1  0.75000000  0.91965973  0.71194694  1
  Rb  Rb1  1  0.25000000  0.08034027  0.28805306  1
  Rb  Rb2  1  0.75000000  0.41965973  0.78805306  1
  Rb  Rb3  1  0.25000000  0.58034027  0.21194694  1
  Rb  Rb4  1  0.75000000  0.24423781  0.04218943  1
  Rb  Rb5  1  0.25000000  0.75576219  0.95781057  1
  Rb  Rb6  1  0.75000000  0.74423781  0.45781057  1
  Rb  Rb7  1  0.25000000  0.25576219  0.54218943  1
  Ag  Ag0  1  0.75000000  0.36254731  0.36375965  1
  Ag  Ag1  1  0.25000000  0.63745269  0.63624035  1
  Ag  Ag2  1  0.75000000  0.86254731  0.13624035  1
  Ag  Ag3  1  0.25000000  0.13745269  0.86375965  1
  I  I0  1  0.75000000  0.31435506  0.22342464  1
  I  I1  1  0.25000000  0.68564494  0.77657536  1
  I  I2  1  0.75000000  0.81435506  0.27657536  1
  I  I3  1  0.25000000  0.18564494  0.72342464  1
  I  I4  1  0.75000000  0.12008045  0.42930393  1
  I  I5  1  0.25000000  0.87991955  0.57069607  1
  I  I6  1  0.75000000  0.62008045  0.07069607  1
  I  I7  1  0.25000000  0.37991955  0.92930393  1
  I  I8  1  0.75000000  0.00502891  0.89734520  1
  I  I9  1  0.25000000  0.99497109  0.10265480  1
  I  I10  1  0.75000000  0.50502891  0.60265480  1
  I  I11  1  0.25000000  0.49497109  0.39734520  1
loop_
_geom_bond_atom_site_label_1
_geom_bond_atom_site_label_2
_geom_bond_distance
_geom_bond_site_symmetry_2
Ag0 I4 2.839166 1_555
Ag0 I0 2.864812 1_555
Ag0 I11 2.902600 1_655
Ag0 I11 2.902600 1_555
Ag1 I5 2.839166 1_555
Ag1 I1 2.864812 1_555
Ag1 I10 2.902600 1_555
Ag1 I10 2.902600 1_455
Ag2 I6 2.839166 1_555
Ag2 I2 2.864812 1_555
Ag2 I9 2.902600 1_555
Ag2 I9 2.902600 1_655
Ag3 I7 2.839166 1_555
Ag3 I3 2.864812 1_555
Ag3 I8 2.902600 1_555
Ag3 I8 2.902600 1_455
I0 Rb1 3.696226 1_555
I0 Rb1 3.696226 1_655
I0 Rb3 3.707759 1_555
I0 Rb3 3.707759 1_655
I0 Rb4 3.714885 1_555
I1 Rb0 3.696226 1_555
I1 Rb0 3.696226 1_455
I1 Rb2 3.707759 1_555
I1 Rb2 3.707759 1_455
I1 Rb5 3.714885 1_555
I2 Rb3 3.696226 1_555
I2 Rb3 3.696226 1_655
I2 Rb1 3.707759 1_565
I2 Rb1 3.707759 1_665
I2 Rb6 3.714885 1_555
I3 Rb2 3.696226 1_555
I3 Rb2 3.696226 1_455
I3 Rb0 3.707759 1_545
I3 Rb0 3.707759 1_445
I3 Rb7 3.714885 1_555
I4 Rb7 3.634850 1_555
I4 Rb7 3.634850 1_655
I4 Rb1 3.783393 1_555
I4 Rb1 3.783393 1_655
I4 Rb6 3.940282 1_545
I5 Rb6 3.634850 1_555
I5 Rb6 3.634850 1_455
I5 Rb0 3.783393 1_455
I5 Rb0 3.783393 1_555
I5 Rb7 3.940282 1_565
I6 Rb5 3.634850 1_654
I6 Rb5 3.634850 1_554
I6 Rb3 3.783393 1_655
I6 Rb3 3.783393 1_555
I6 Rb4 3.940282 1_555
I7 Rb4 3.634850 1_456
I7 Rb4 3.634850 1_556
I7 Rb2 3.783393 1_555
I7 Rb2 3.783393 1_455
I7 Rb5 3.940282 1_555
I8 Rb5 3.774214 1_545
I8 Rb5 3.774214 1_645
I8 Rb4 3.825320 1_556
I8 Rb0 3.830432 1_545
I9 Rb4 3.774214 1_465
I9 Rb4 3.774214 1_565
I9 Rb5 3.825320 1_554
I9 Rb1 3.830432 1_565
I10 Rb7 3.774214 1_655
I10 Rb7 3.774214 1_555
I10 Rb6 3.825320 1_555
I10 Rb2 3.830432 1_555
I11 Rb6 3.774214 1_455
I11 Rb6 3.774214 1_555
I11 Rb7 3.825320 1_555
I11 Rb3 3.830432 1_555
