# generated using pymatgen
data_Zr5Sb3
_symmetry_space_group_name_H-M   'P 1'
_cell_length_a   8.49546287
_cell_length_b   8.49546383
_cell_length_c   5.78132546
_cell_angle_alpha   90.00000000
_cell_angle_beta   90.00000000
_cell_angle_gamma   120.00000035
_symmetry_Int_Tables_number   1
_chemical_formula_structural   Zr5Sb3
_chemical_formula_sum   'Zr10 Sb6'
_cell_volume   361.35343712
_cell_formula_units_Z   2
loop_
 _symmetry_equiv_pos_site_id
 _symmetry_equiv_pos_as_xyz
  1  'x, y, z'
loop_
 _atom_site_type_symbol
 _atom_site_label
 _atom_site_symmetry_multiplicity
 _atom_site_fract_x
 _atom_site_fract_y
 _atom_site_fract_z
 _atom_site_occupancy
  Zr  Zr0  1  0.25483397  0.00000000  0.25000000  1
  Zr  Zr1  1  0.25483397  0.25483397  0.75000000  1
  Zr  Zr2  1  0.00000000  0.74516603  0.75000000  1
  Zr  Zr3  1  -0.00000000  0.25483397  0.25000000  1
  Zr  Zr4  1  0.74516603  0.74516603  0.25000000  1
  Zr  Zr5  1  0.74516603  -0.00000000  0.75000000  1
  Zr  Zr6  1  0.33333300  0.66666700  0.00000000  1
  Zr  Zr7  1  0.66666700  0.33333300  0.50000000  1
  Zr  Zr8  1  0.66666700  0.33333300  0.00000000  1
  Zr  Zr9  1  0.33333300  0.66666700  0.50000000  1
  Sb  Sb0  1  0.61354407  -0.00000000  0.25000000  1
  Sb  Sb1  1  0.61354407  0.61354407  0.75000000  1
  Sb  Sb2  1  -0.00000000  0.38645593  0.75000000  1
  Sb  Sb3  1  0.00000000  0.61354407  0.25000000  1
  Sb  Sb4  1  0.38645593  0.38645593  0.25000000  1
  Sb  Sb5  1  0.38645593  0.00000000  0.75000000  1
loop_
_geom_bond_atom_site_label_1
_geom_bond_atom_site_label_2
_geom_bond_distance
_geom_bond_site_symmetry_2
Sb0 Zr3 2.891035 1_655
Sb0 Zr4 2.891036 1_545
Sb0 Zr8 3.005635 1_555
Sb0 Zr7 3.005635 1_555
Sb0 Zr6 3.005638 1_545
Sb0 Zr9 3.005638 1_545
Sb0 Zr0 3.047408 1_555
Sb0 Zr5 3.099400 1_555
Sb0 Zr5 3.099400 1_554
Sb1 Zr2 2.891035 1_655
Sb1 Zr5 2.891036 1_565
Sb1 Zr9 3.005642 1_555
Sb1 Zr6 3.005642 1_556
Sb1 Zr7 3.005643 1_555
Sb1 Zr8 3.005643 1_556
Sb1 Zr1 3.047408 1_555
Sb1 Zr4 3.099400 1_555
Sb1 Zr4 3.099400 1_556
Sb2 Zr1 2.891035 1_555
Sb2 Zr5 2.891036 1_455
Sb2 Zr7 3.005635 1_455
Sb2 Zr8 3.005635 1_456
Sb2 Zr9 3.005638 1_555
Sb2 Zr6 3.005638 1_556
Sb2 Zr2 3.047409 1_555
Sb2 Zr3 3.099400 1_555
Sb2 Zr3 3.099400 1_556
Sb3 Zr4 2.891035 1_455
Sb3 Zr0 2.891036 1_565
Sb3 Zr9 3.005635 1_555
Sb3 Zr6 3.005635 1_555
Sb3 Zr8 3.005638 1_455
Sb3 Zr7 3.005638 1_455
Sb3 Zr3 3.047409 1_555
Sb3 Zr2 3.099400 1_554
Sb3 Zr2 3.099400 1_555
Sb4 Zr3 2.891035 1_555
Sb4 Zr0 2.891036 1_555
Sb4 Zr7 3.005642 1_555
Sb4 Zr8 3.005642 1_555
Sb4 Zr6 3.005643 1_555
Sb4 Zr9 3.005643 1_555
Sb4 Zr4 3.047408 1_555
Sb4 Zr1 3.099400 1_555
Sb4 Zr1 3.099400 1_554
Sb5 Zr2 2.891035 1_545
Sb5 Zr1 2.891036 1_555
Sb5 Zr9 3.005635 1_545
Sb5 Zr6 3.005635 1_546
Sb5 Zr8 3.005638 1_556
Sb5 Zr7 3.005638 1_555
Sb5 Zr5 3.047408 1_555
Sb5 Zr0 3.099400 1_555
Sb5 Zr0 3.099400 1_556
