# generated using pymatgen
data_Na2Sc6Ta2Si3(S3O16)3
_symmetry_space_group_name_H-M   'P 1'
_cell_length_a   17.76343018
_cell_length_b   8.87177467
_cell_length_c   23.04146000
_cell_angle_alpha   89.91664906
_cell_angle_beta   90.08155859
_cell_angle_gamma   120.08436937
_symmetry_Int_Tables_number   1
_chemical_formula_structural   Na2Sc6Ta2Si3(S3O16)3
_chemical_formula_sum   'Na6 Sc18 Ta6 Si9 S27 O144'
_cell_volume   3142.00964641
_cell_formula_units_Z   3
loop_
 _symmetry_equiv_pos_site_id
 _symmetry_equiv_pos_as_xyz
  1  'x, y, z'
loop_
 _atom_site_type_symbol
 _atom_site_label
 _atom_site_symmetry_multiplicity
 _atom_site_fract_x
 _atom_site_fract_y
 _atom_site_fract_z
 _atom_site_occupancy
  Na  Na0  1  0.99871087  0.99451833  0.49955171  1
  Na  Na1  1  0.50033635  0.00469606  0.99810201  1
  Na  Na2  1  0.33736184  0.33552558  0.83360373  1
  Na  Na3  1  0.83489711  0.34405675  0.83159228  1
  Na  Na4  1  0.33470831  0.32680267  0.33509807  1
  Na  Na5  1  0.83738679  0.33877239  0.33773375  1
  Sc  Sc0  1  0.00114917  0.99115967  0.35777687  1
  Sc  Sc1  1  0.50144478  0.01227090  0.85442849  1
  Sc  Sc2  1  0.99967248  0.99045243  0.64922935  1
  Sc  Sc3  1  0.50090295  0.00868244  0.15041442  1
  Sc  Sc4  1  0.33170919  0.34156255  0.68354121  1
  Sc  Sc5  1  0.83378134  0.33335815  0.68477616  1
  Sc  Sc6  1  0.33928648  0.33380987  0.18879024  1
  Sc  Sc7  1  0.82995167  0.31909743  0.18399974  1
  Sc  Sc8  1  0.33877504  0.33553715  0.97871846  1
  Sc  Sc9  1  0.83500067  0.33150419  0.98028491  1
  Sc  Sc10  1  0.33586703  0.33909108  0.48145224  1
  Sc  Sc11  1  0.83254238  0.33249490  0.48223512  1
  Sc  Sc12  1  0.16679969  0.66611193  0.02007622  1
  Sc  Sc13  1  0.66836085  0.67810855  0.52484172  1
  Sc  Sc14  1  0.16410471  0.67461804  0.31629657  1
  Sc  Sc15  1  0.66367751  0.66116436  0.31021587  1
  Sc  Sc16  1  0.16417059  0.66782985  0.80755396  1
  Sc  Sc17  1  0.66367528  0.65228601  0.81429707  1
  Ta  Ta0  1  0.49512400  0.00593165  0.35681120  1
  Ta  Ta1  1  0.99365896  0.98381518  0.85404548  1
  Ta  Ta2  1  0.50125584  0.99511366  0.64080670  1
  Ta  Ta3  1  0.99785358  0.00192607  0.14419837  1
  Ta  Ta4  1  0.67144308  0.66450176  0.01905457  1
  Ta  Ta5  1  0.17013838  0.67795612  0.52019928  1
  Si  Si0  1  0.50041296  0.29271490  0.24945995  1
  Si  Si1  1  0.99777851  0.70192327  0.74839006  1
  Si  Si2  1  0.69339247  0.04808257  0.58339435  1
  Si  Si3  1  0.33026636  0.61812413  0.58249367  1
  Si  Si4  1  0.83053622  0.04305702  0.08235748  1
  Si  Si5  1  0.81003531  0.65890454  0.91497749  1
  Si  Si6  1  0.52136003  0.37610030  0.91619681  1
  Si  Si7  1  0.30902376  0.96111993  0.41575016  1
  Si  Si8  1  0.01882160  0.66031714  0.41648513  1
  S  S0  1  0.14382765  0.00102184  0.24925144  1
  S  S1  1  0.64426843  0.00108063  0.25133629  1
  S  S2  1  0.35494836  0.71107947  0.25055898  1
  S  S3  1  0.85671402  0.71116907  0.24998313  1
  S  S4  1  0.00008143  0.28823544  0.25034185  1
  S  S5  1  0.14435605  0.28692789  0.75110318  1
  S  S6  1  0.64365871  0.28675459  0.74916527  1
  S  S7  1  0.50003969  0.71294761  0.75019504  1
  S  S8  1  0.35681636  0.00258712  0.74959790  1
  S  S9  1  0.85454892  0.99894418  0.75030177  1
  S  S10  1  0.47847138  0.33294873  0.58447733  1
  S  S11  1  0.98031380  0.33355288  0.58257592  1
  S  S12  1  0.18758461  0.04322835  0.58277114  1
  S  S13  1  0.83380576  0.62539550  0.58280295  1
  S  S14  1  0.47975710  0.62609665  0.08260779  1
  S  S15  1  0.97930156  0.62456805  0.08441557  1
  S  S16  1  0.33291465  0.04119972  0.08285080  1
  S  S17  1  0.18889191  0.33390064  0.08418224  1
  S  S18  1  0.68756764  0.33231073  0.08262938  1
  S  S19  1  0.31079903  0.66581568  0.91653058  1
  S  S20  1  0.02310306  0.37680046  0.91552654  1
  S  S21  1  0.16620268  0.95692923  0.91589330  1
  S  S22  1  0.66655321  0.95360869  0.91655127  1
  S  S23  1  0.81105300  0.95606472  0.41592813  1
  S  S24  1  0.16706135  0.37994109  0.41687045  1
  S  S25  1  0.66704947  0.37740513  0.41570219  1
  S  S26  1  0.52245893  0.66865248  0.41525755  1
  O  O0  1  0.10432629  0.03100850  0.30082825  1
  O  O1  1  0.60150420  0.02639549  0.30295554  1
  O  O2  1  0.41315672  0.79559265  0.30293171  1
  O  O3  1  0.91172334  0.79258437  0.30102225  1
  O  O4  1  0.48631822  0.16112660  0.30666101  1
  O  O5  1  0.98475847  0.17692968  0.30091676  1
  O  O6  1  0.10103380  0.17612918  0.80362072  1
  O  O7  1  0.60374570  0.17817145  0.80171030  1
  O  O8  1  0.48485520  0.79221502  0.80182461  1
  O  O9  1  0.98687907  0.81110723  0.80673303  1
  O  O10  1  0.41070742  0.03060919  0.80221533  1
  O  O11  1  0.91371410  0.02775784  0.80366861  1
  O  O12  1  0.39894063  0.97786612  0.69789384  1
  O  O13  1  0.89636626  0.97545092  0.69901476  1
  O  O14  1  0.09191647  0.21109094  0.69862960  1
  O  O15  1  0.58707326  0.19872996  0.69783371  1
  O  O16  1  0.01489283  0.83126031  0.69446758  1
  O  O17  1  0.51035892  0.82386077  0.69748964  1
  O  O18  1  0.39642832  0.81708853  0.19836509  1
  O  O19  1  0.90167995  0.82444500  0.19661923  1
  O  O20  1  0.01037299  0.19464167  0.19667943  1
  O  O21  1  0.51419304  0.19912229  0.19377063  1
  O  O22  1  0.08746701  0.97831508  0.19673245  1
  O  O23  1  0.59213746  0.97275492  0.19824978  1
  O  O24  1  0.43817935  0.35966947  0.63616812  1
  O  O25  1  0.94327001  0.36658050  0.63495774  1
  O  O26  1  0.24059468  0.11664133  0.63530305  1
  O  O27  1  0.74926430  0.13386462  0.64135135  1
  O  O28  1  0.31615812  0.50318144  0.64038467  1
  O  O29  1  0.82098167  0.52068562  0.63532199  1
  O  O30  1  0.43996009  0.51731817  0.13479891  1
  O  O31  1  0.93947101  0.51847455  0.13629359  1
  O  O32  1  0.31887381  0.12080983  0.13483235  1
  O  O33  1  0.81752472  0.12906971  0.14048956  1
  O  O34  1  0.24196586  0.36187108  0.13597930  1
  O  O35  1  0.74070515  0.36462003  0.13518814  1
  O  O36  1  0.22379820  0.29647828  0.03221020  1
  O  O37  1  0.72794090  0.30681977  0.03088139  1
  O  O38  1  0.42335897  0.54435399  0.03129678  1
  O  O39  1  0.92519536  0.55602825  0.03243434  1
  O  O40  1  0.34739810  0.15116938  0.03110732  1
  O  O41  1  0.85220623  0.16507018  0.02668532  1
  O  O42  1  0.22779807  0.14882411  0.53074498  1
  O  O43  1  0.73068813  0.16622760  0.52623521  1
  O  O44  1  0.35074185  0.53775014  0.52655956  1
  O  O45  1  0.85060693  0.54955233  0.53093809  1
  O  O46  1  0.42399995  0.29452780  0.53241467  1
  O  O47  1  0.92552576  0.30309279  0.53088663  1
  O  O48  1  0.27048805  0.69380747  0.96937606  1
  O  O49  1  0.76528001  0.69587148  0.97346266  1
  O  O50  1  0.07590830  0.45536555  0.96873164  1
  O  O51  1  0.58331286  0.47638783  0.97429462  1
  O  O52  1  0.15037933  0.84879721  0.96846784  1
  O  O53  1  0.65326084  0.84381196  0.96995290  1
  O  O54  1  0.26491771  0.83408529  0.47351699  1
  O  O55  1  0.77224951  0.84727649  0.46802226  1
  O  O56  1  0.15313750  0.46140235  0.46952768  1
  O  O57  1  0.64937588  0.44838418  0.46758436  1
  O  O58  1  0.08368441  0.69021112  0.47362116  1
  O  O59  1  0.57450215  0.69764334  0.46780438  1
  O  O60  1  0.06366251  0.63281362  0.35933520  1
  O  O61  1  0.56266950  0.64082641  0.36363641  1
  O  O62  1  0.25408885  0.86936598  0.35864702  1
  O  O63  1  0.75826776  0.87445695  0.36366731  1
  O  O64  1  0.18111325  0.48352848  0.36407561  1
  O  O65  1  0.67966855  0.48392905  0.36365771  1
  O  O66  1  0.06382851  0.48713790  0.86460368  1
  O  O67  1  0.56302248  0.49553415  0.85973103  1
  O  O68  1  0.18139686  0.87796397  0.86481268  1
  O  O69  1  0.68095383  0.87815242  0.86447640  1
  O  O70  1  0.25786432  0.63977993  0.86484043  1
  O  O71  1  0.75294762  0.63876801  0.85919593  1
  O  O72  1  0.01346406  0.84067171  0.41143324  1
  O  O73  1  0.51363633  0.82652898  0.40475824  1
  O  O74  1  0.40592389  0.97084783  0.40636537  1
  O  O75  1  0.89959042  0.97713718  0.40926054  1
  O  O76  1  0.08754125  0.20552814  0.41156549  1
  O  O77  1  0.58757822  0.19631320  0.40535952  1
  O  O78  1  0.01462773  0.20255573  0.90674311  1
  O  O79  1  0.51220995  0.18319803  0.91214488  1
  O  O80  1  0.08789433  0.97759584  0.90691778  1
  O  O81  1  0.58725388  0.96873934  0.91210944  1
  O  O82  1  0.39906262  0.82077565  0.91100899  1
  O  O83  1  0.90665087  0.84227938  0.90645943  1
  O  O84  1  0.48760093  0.17453475  0.59542107  1
  O  O85  1  0.99082768  0.17904807  0.58994087  1
  O  O86  1  0.10004343  0.02262700  0.58870594  1
  O  O87  1  0.59373098  0.02434109  0.59729355  1
  O  O88  1  0.41499749  0.81475016  0.59753827  1
  O  O89  1  0.91155270  0.80381251  0.58932570  1
  O  O90  1  0.48944786  0.80088272  0.08954865  1
  O  O91  1  0.99034571  0.80462479  0.09584487  1
  O  O92  1  0.41042571  0.02008008  0.08919629  1
  O  O93  1  0.91703871  0.01730785  0.09784770  1
  O  O94  1  0.09862360  0.17373400  0.09536202  1
  O  O95  1  0.59987347  0.17708554  0.08877159  1
  O  O96  1  0.34652740  0.15745689  0.74284461  1
  O  O97  1  0.84966889  0.15928254  0.74718956  1
  O  O98  1  0.23112729  0.30038315  0.74646000  1
  O  O99  1  0.73036304  0.30474481  0.74313042  1
  O  O100  1  0.42196815  0.53668832  0.74274040  1
  O  O101  1  0.91102195  0.51477048  0.74593968  1
  O  O102  1  0.34768079  0.53738872  0.24469427  1
  O  O103  1  0.84768074  0.53848968  0.24101794  1
  O  O104  1  0.41227825  0.30623304  0.24461876  1
  O  O105  1  0.92235980  0.30707220  0.24149753  1
  O  O106  1  0.23020873  0.15848429  0.24084322  1
  O  O107  1  0.73136371  0.16205890  0.24572040  1
  O  O108  1  0.31883093  0.50820875  0.92457915  1
  O  O109  1  0.82536494  0.49756364  0.92550911  1
  O  O110  1  0.42442377  0.35320110  0.92530799  1
  O  O111  1  0.93547833  0.35582161  0.92237815  1
  O  O112  1  0.24216802  0.13301292  0.92404327  1
  O  O113  1  0.74346054  0.12908617  0.92459225  1
  O  O114  1  0.32540180  0.15424960  0.42470029  1
  O  O115  1  0.82064172  0.13058357  0.42194874  1
  O  O116  1  0.24362292  0.35764351  0.42412908  1
  O  O117  1  0.74270011  0.35316932  0.42088527  1
  O  O118  1  0.43424423  0.51509122  0.42102801  1
  O  O119  1  0.92281997  0.49296274  0.42413107  1
  O  O120  1  0.17514208  0.48306142  0.07503930  1
  O  O121  1  0.67816607  0.49043438  0.07473231  1
  O  O122  1  0.06661856  0.64876018  0.07513973  1
  O  O123  1  0.56631266  0.64338371  0.07355289  1
  O  O124  1  0.25483092  0.86727220  0.07393942  1
  O  O125  1  0.74663490  0.84888114  0.07173588  1
  O  O126  1  0.17804794  0.86589357  0.57496038  1
  O  O127  1  0.67470307  0.85162704  0.57343007  1
  O  O128  1  0.24577402  0.64228502  0.57118769  1
  O  O129  1  0.75598623  0.64134567  0.57445265  1
  O  O130  1  0.06796842  0.49007409  0.57290404  1
  O  O131  1  0.56541114  0.48214413  0.57551148  1
  O  O132  1  0.15130968  0.84495198  0.25343708  1
  O  O133  1  0.65553954  0.84972516  0.25942875  1
  O  O134  1  0.26948639  0.69214182  0.25864464  1
  O  O135  1  0.77207003  0.69955379  0.25523480  1
  O  O136  1  0.07904650  0.45709433  0.25336988  1
  O  O137  1  0.58463718  0.47847339  0.26161395  1
  O  O138  1  0.15538900  0.46057409  0.75994326  1
  O  O139  1  0.65083418  0.45819743  0.75448518  1
  O  O140  1  0.08445096  0.69309991  0.76200775  1
  O  O141  1  0.57849651  0.70014170  0.75499184  1
  O  O142  1  0.27108073  0.84511867  0.75726078  1
  O  O143  1  0.76978700  0.84594852  0.75949856  1
loop_
_geom_bond_atom_site_label_1
_geom_bond_atom_site_label_2
_geom_bond_distance
_geom_bond_site_symmetry_2
Na0 O72 2.534212 1_655
Na0 O89 2.628904 1_555
Na0 O86 2.657649 1_665
Na0 O76 2.672272 1_665
Na0 O75 2.677769 1_555
Na0 O85 2.697766 1_565
Na1 O79 2.476339 1_555
Na1 O81 2.629791 1_545
Na1 O82 2.642380 1_545
Na1 O95 2.667888 1_556
Na1 O92 2.684010 1_556
Na1 O90 2.717741 1_546
Na2 O110 2.574802 1_555
Na2 O98 2.662937 1_555
Na2 O100 2.671345 1_555
Na2 O96 2.676544 1_555
Na2 O108 2.714105 1_555
Na2 O112 2.717187 1_555
Na3 O101 2.441920 1_555
Na3 O109 2.609023 1_555
Na3 O97 2.641996 1_555
Na3 O99 2.658252 1_555
Na3 O111 2.716965 1_555
Na3 O113 2.785621 1_555
Na4 O114 2.524149 1_555
Na4 O104 2.557264 1_555
Na4 O118 2.622098 1_555
Na4 O116 2.712181 1_555
Na4 O102 2.727821 1_555
Na4 O106 2.758835 1_555
Na5 O119 2.460764 1_555
Na5 O115 2.589521 1_555
Na5 O117 2.596414 1_555
Na5 O107 2.745523 1_555
Na5 O105 2.776925 1_555
Na5 O103 2.793533 1_555
O0 S0 1.471692 1_555
O0 Sc0 2.135833 1_545
O1 S1 1.488796 1_555
O1 Ta0 2.192209 1_555
O2 S2 1.519659 1_555
O2 Ta0 2.102640 1_565
O3 S3 1.466684 1_555
O3 Sc0 2.128910 1_655
O4 Si0 1.692956 1_555
O4 Ta0 1.861781 1_555
O5 S4 1.461254 1_655
O5 Sc0 2.234102 1_645
O6 S5 1.504515 1_555
O6 Ta1 2.153343 1_445
O7 S6 1.486880 1_555
O7 Sc1 2.064872 1_555
O8 S7 1.475133 1_555
O8 Sc1 2.190083 1_565
O9 Si1 1.724961 1_555
O9 Ta1 1.835791 1_555
O10 S8 1.485617 1_555
O10 Sc1 2.080522 1_555
O11 S9 1.552362 1_545
O11 Ta1 2.016193 1_545
O12 S8 1.481594 1_565
O12 Ta2 2.187286 1_555
O13 S9 1.466334 1_555
O13 Sc2 2.112299 1_555
O14 S5 1.467330 1_555
O14 Sc2 2.144232 1_445
O15 S6 1.493801 1_555
O15 Ta2 2.134019 1_545
O16 Si1 1.612437 1_455
O16 Sc2 1.879353 1_455
O17 S7 1.514254 1_555
O17 Ta2 2.068861 1_555
O18 S2 1.475881 1_555
O18 Sc3 2.095681 1_565
O19 S3 1.534359 1_555
O19 Ta3 2.039670 1_565
O20 S4 1.551625 1_555
O20 Ta3 2.014684 1_455
O21 Si0 1.613580 1_555
O21 Sc3 1.874198 1_555
O22 S0 1.517346 1_565
O22 Ta3 2.090725 1_465
O23 S1 1.476901 1_565
O23 Sc3 2.110610 1_565
O24 S10 1.469818 1_555
O24 Sc4 2.120136 1_555
O25 S11 1.473833 1_555
O25 Sc5 2.148908 1_555
O26 S12 1.469752 1_555
O26 Sc4 2.144811 1_555
O27 Si2 1.609181 1_555
O27 Sc5 1.929891 1_555
O28 Si3 1.619488 1_555
O28 Sc4 1.874353 1_555
O29 S13 1.471258 1_555
O29 Sc5 2.117718 1_555
O30 S14 1.480646 1_555
O30 Sc6 2.116077 1_555
O31 S15 1.465216 1_555
O31 Sc7 2.161546 1_555
O32 S16 1.474964 1_555
O32 Sc6 2.136989 1_555
O33 Si4 1.615709 1_555
O33 Sc7 1.878084 1_555
O34 S17 1.462160 1_555
O34 Sc6 2.226175 1_555
O35 S18 1.471808 1_555
O35 Sc7 2.139342 1_555
O36 S17 1.462322 1_555
O36 Sc8 2.259850 1_554
O37 S18 1.467307 1_555
O37 Sc9 2.147503 1_554
O38 S14 1.482600 1_555
O38 Sc8 2.089973 1_554
O39 S15 1.463200 1_555
O39 Sc9 2.186435 1_554
O40 S16 1.478286 1_555
O40 Sc8 2.097836 1_554
O41 Si4 1.595318 1_555
O41 Sc9 1.965607 1_554
O42 S12 1.467375 1_555
O42 Sc10 2.139264 1_555
O43 Si2 1.604493 1_555
O43 Sc11 1.949985 1_555
O44 Si3 1.601805 1_555
O44 Sc10 1.947812 1_555
O45 S13 1.474660 1_555
O45 Sc11 2.110993 1_555
O46 S10 1.469252 1_555
O46 Sc10 2.144768 1_555
O47 S11 1.473985 1_555
O47 Sc11 2.116278 1_555
O48 S19 1.496227 1_555
O48 Sc12 2.090240 1_556
O49 Si5 1.679676 1_555
O49 Ta4 1.870430 1_556
O50 S20 1.487383 1_555
O50 Sc12 2.115827 1_556
O51 Si6 1.677005 1_555
O51 Ta4 1.918530 1_556
O52 S21 1.481228 1_555
O52 Sc12 2.143192 1_556
O53 S22 1.511744 1_555
O53 Ta4 2.103282 1_556
O54 Si7 1.664037 1_555
O54 Ta5 1.890229 1_555
O55 S23 1.476288 1_555
O55 Sc13 2.143946 1_555
O56 S24 1.496057 1_555
O56 Ta5 2.137589 1_555
O57 S25 1.457954 1_555
O57 Sc13 2.307695 1_555
O58 Si8 1.679696 1_555
O58 Ta5 1.919488 1_555
O59 S26 1.464943 1_555
O59 Sc13 2.195389 1_555
O60 Si8 1.620734 1_555
O60 Sc14 1.909159 1_555
O61 S26 1.471708 1_555
O61 Sc15 2.109038 1_555
O62 Si7 1.596602 1_555
O62 Sc14 1.929784 1_555
O63 S23 1.473808 1_555
O63 Sc15 2.175795 1_555
O64 S24 1.467756 1_555
O64 Sc14 2.164358 1_555
O65 S25 1.471903 1_555
O65 Sc15 2.123806 1_555
O66 S20 1.465402 1_555
O66 Sc16 2.147250 1_555
O67 Si6 1.604910 1_555
O67 Sc17 1.932597 1_555
O68 S21 1.463477 1_555
O68 Sc16 2.178031 1_555
O69 S22 1.458828 1_555
O69 Sc17 2.198978 1_555
O70 S19 1.461474 1_555
O70 Sc16 2.232088 1_555
O71 Si5 1.589830 1_555
O71 Sc17 1.945505 1_555
O72 Si8 1.653755 1_555
O72 Sc0 1.909464 1_555
O73 S26 1.504615 1_555
O73 Ta0 2.092961 1_565
O74 Si7 1.693836 1_555
O74 Ta0 1.849568 1_565
O75 S23 1.495948 1_555
O75 Sc0 2.111369 1_655
O76 S24 1.487720 1_555
O76 Sc0 2.140902 1_545
O77 S25 1.535311 1_555
O77 Ta0 2.005140 1_555
O78 S20 1.490237 1_555
O78 Ta1 2.158698 1_445
O79 Si6 1.638757 1_555
O79 Sc1 1.954251 1_555
O80 S21 1.505358 1_555
O80 Ta1 2.091859 1_455
O81 S22 1.483862 1_555
O81 Sc1 2.195866 1_565
O82 S19 1.484415 1_555
O82 Sc1 2.190005 1_565
O83 Si5 1.682699 1_555
O83 Ta1 1.865271 1_555
O84 S10 1.514075 1_555
O84 Ta2 2.016860 1_545
O85 S11 1.482724 1_555
O85 Sc2 2.224120 1_545
O86 S12 1.478453 1_555
O86 Sc2 2.168129 1_445
O87 Si2 1.705457 1_555
O87 Ta2 1.829683 1_545
O88 Si3 1.672295 1_555
O88 Ta2 1.855912 1_555
O89 S13 1.497960 1_555
O89 Sc2 2.121109 1_555
O90 S14 1.480808 1_555
O90 Sc3 2.244447 1_565
O91 S15 1.531826 1_555
O91 Ta3 2.023423 1_565
O92 S16 1.486681 1_555
O92 Sc3 2.176924 1_555
O93 Si4 1.700227 1_555
O93 Ta3 1.847060 1_555
O94 S17 1.540275 1_555
O94 Ta3 2.014712 1_455
O95 S18 1.480695 1_555
O95 Sc3 2.169772 1_555
O96 S8 1.482047 1_555
O96 Sc4 2.242267 1_555
O97 S9 1.469501 1_545
O97 Sc5 2.227589 1_555
O98 S5 1.489107 1_555
O98 Sc4 2.186064 1_555
O99 S6 1.473439 1_555
O99 Sc5 2.187605 1_555
O100 S7 1.491305 1_555
O100 Sc4 2.155459 1_555
O101 Si1 1.603033 1_555
O101 Sc5 2.060630 1_555
O102 S2 1.486794 1_555
O102 Sc6 2.163262 1_555
O103 S3 1.473002 1_555
O103 Sc7 2.237274 1_555
O104 Si0 1.632652 1_555
O104 Sc6 1.925642 1_555
O105 S4 1.485237 1_655
O105 Sc7 2.151745 1_555
O106 S0 1.481408 1_555
O106 Sc6 2.142866 1_555
O107 S1 1.494931 1_555
O107 Sc7 2.141412 1_555
O108 S19 1.486282 1_555
O108 Sc8 2.136738 1_555
O109 Si5 1.603576 1_555
O109 Sc9 2.009840 1_555
O110 Si6 1.643335 1_555
O110 Sc8 1.902502 1_555
O111 S20 1.480703 1_655
O111 Sc9 2.152277 1_555
O112 S21 1.477599 1_545
O112 Sc8 2.160906 1_555
O113 S22 1.480599 1_545
O113 Sc9 2.142181 1_555
O114 Si7 1.601257 1_545
O114 Sc10 2.033126 1_555
O115 S23 1.477034 1_545
O115 Sc11 2.193127 1_555
O116 S24 1.478401 1_555
O116 Sc10 2.172588 1_555
O117 S25 1.468154 1_555
O117 Sc11 2.205694 1_555
O118 S26 1.479524 1_555
O118 Sc10 2.166864 1_555
O119 Si8 1.614086 1_655
O119 Sc11 2.025472 1_555
O120 S17 1.475904 1_555
O120 Sc12 2.120820 1_555
O121 S18 1.504327 1_555
O121 Ta4 2.055140 1_555
O122 S15 1.471246 1_455
O122 Sc12 2.128722 1_555
O123 S14 1.481703 1_555
O123 Ta4 2.180510 1_555
O124 S16 1.483716 1_565
O124 Sc12 2.091321 1_555
O125 Si4 1.635528 1_565
O125 Ta4 1.934927 1_555
O126 S12 1.506591 1_565
O126 Ta5 2.040243 1_555
O127 Si2 1.619107 1_565
O127 Sc13 1.861898 1_555
O128 Si3 1.639417 1_555
O128 Ta5 1.925159 1_555
O129 S13 1.470777 1_555
O129 Sc13 2.082944 1_555
O130 S11 1.494909 1_455
O130 Ta5 2.124732 1_555
O131 S10 1.459602 1_555
O131 Sc13 2.131345 1_555
O132 S0 1.458834 1_565
O132 Sc14 2.184055 1_555
O133 S1 1.465141 1_565
O133 Sc15 2.103579 1_555
O134 S2 1.453467 1_555
O134 Sc14 2.237777 1_555
O135 S3 1.459837 1_555
O135 Sc15 2.185497 1_555
O136 S4 1.452575 1_555
O136 Sc14 2.277726 1_555
O137 Si0 1.600301 1_555
O137 Sc15 1.889898 1_555
O138 S5 1.466731 1_555
O138 Sc16 2.080030 1_555
O139 S6 1.466579 1_555
O139 Sc17 2.128039 1_555
O140 Si1 1.610691 1_455
O140 Sc16 1.862874 1_555
O141 S7 1.457972 1_555
O141 Sc17 2.230101 1_555
O142 S8 1.472844 1_565
O142 Sc16 2.104678 1_555
O143 S9 1.451022 1_555
O143 Sc17 2.202906 1_555
