# generated using pymatgen
data_Na2Sc3TaP4(SO12)2
_symmetry_space_group_name_H-M   'P 1'
_cell_length_a   8.78741762
_cell_length_b   8.78233722
_cell_length_c   23.13283767
_cell_angle_alpha   90.08714781
_cell_angle_beta   89.92434105
_cell_angle_gamma   120.01519349
_symmetry_Int_Tables_number   1
_chemical_formula_structural   Na2Sc3TaP4(SO12)2
_chemical_formula_sum   'Na6 Sc9 Ta3 P12 S6 O72'
_cell_volume   1545.83741243
_cell_formula_units_Z   3
loop_
 _symmetry_equiv_pos_site_id
 _symmetry_equiv_pos_as_xyz
  1  'x, y, z'
loop_
 _atom_site_type_symbol
 _atom_site_label
 _atom_site_symmetry_multiplicity
 _atom_site_fract_x
 _atom_site_fract_y
 _atom_site_fract_z
 _atom_site_occupancy
  Na  Na0  1  0.99436187  0.99269823  0.49924945  1
  Na  Na1  1  0.00520483  0.99993102  0.99749397  1
  Na  Na2  1  0.66687362  0.33193040  0.82907054  1
  Na  Na3  1  0.67916967  0.33900910  0.33129807  1
  Na  Na4  1  0.32864736  0.65505169  0.15948198  1
  Na  Na5  1  0.33382858  0.66634843  0.66763029  1
  Sc  Sc0  1  0.98518972  0.99245583  0.35221559  1
  Sc  Sc1  1  0.00106161  0.00054739  0.85212053  1
  Sc  Sc2  1  0.99953121  0.99924304  0.65417841  1
  Sc  Sc3  1  0.99725869  0.00255905  0.14514632  1
  Sc  Sc4  1  0.66663588  0.33374509  0.68974531  1
  Sc  Sc5  1  0.67599267  0.34785149  0.18554573  1
  Sc  Sc6  1  0.67486479  0.33348720  0.47766503  1
  Sc  Sc7  1  0.32768572  0.66017175  0.01871157  1
  Sc  Sc8  1  0.33467266  0.67477629  0.51808628  1
  Ta  Ta0  1  0.66434424  0.34049725  0.97794092  1
  Ta  Ta1  1  0.33114387  0.66684728  0.31310537  1
  Ta  Ta2  1  0.33217580  0.66695784  0.81454922  1
  P  P0  1  0.70711641  0.70829947  0.25048246  1
  P  P1  1  0.99833781  0.28871844  0.25104866  1
  P  P2  1  0.29138741  0.29334174  0.75112823  1
  P  P3  1  0.00161648  0.70859691  0.75116514  1
  P  P4  1  0.70683763  0.99829030  0.75132963  1
  P  P5  1  0.95795790  0.62547721  0.08282622  1
  P  P6  1  0.37691008  0.33254762  0.08404188  1
  P  P7  1  0.62207379  0.67028081  0.91771512  1
  P  P8  1  0.04204566  0.37581832  0.91758922  1
  P  P9  1  0.33399442  0.95556994  0.91849807  1
  P  P10  1  0.62114186  0.95602209  0.41701425  1
  P  P11  1  0.04472087  0.66972580  0.41689373  1
  S  S0  1  0.29187779  -0.00015673  0.25101467  1
  S  S1  1  0.95997957  0.33175986  0.58306687  1
  S  S2  1  0.37419679  0.04394074  0.58282237  1
  S  S3  1  0.66699637  0.62514599  0.58255468  1
  S  S4  1  0.66521501  0.04661750  0.08251080  1
  S  S5  1  0.33322692  0.37761526  0.41646476  1
  O  O0  1  0.21076521  0.02217576  0.30341187  1
  O  O1  1  0.81739086  0.79176014  0.30460830  1
  O  O2  1  0.98066206  0.18240189  0.30525186  1
  O  O3  1  0.20823018  0.18259719  0.80454239  1
  O  O4  1  0.97425019  0.79185053  0.80464250  1
  O  O5  1  0.81772145  0.02576402  0.80459874  1
  O  O6  1  0.78145125  0.96147963  0.69597984  1
  O  O7  1  0.17993900  0.21831251  0.69595816  1
  O  O8  1  0.03869284  0.81996930  0.69597976  1
  O  O9  1  0.78405285  0.82068428  0.19634562  1
  O  O10  1  0.03766566  0.21523346  0.19647746  1
  O  O11  1  0.18501836  0.96509722  0.19906503  1
  O  O12  1  0.87612728  0.35570091  0.63482936  1
  O  O13  1  0.48037632  0.12730960  0.63482452  1
  O  O14  1  0.64519747  0.51954553  0.63466317  1
  O  O15  1  0.87345572  0.51362436  0.13677119  1
  O  O16  1  0.64403405  0.12759195  0.13528883  1
  O  O17  1  0.48676494  0.35163784  0.13743918  1
  O  O18  1  0.47658154  0.31436786  0.02864344  1
  O  O19  1  0.83867139  0.52234585  0.02849836  1
  O  O20  1  0.68538498  0.15619640  0.03003904  1
  O  O21  1  0.46014913  0.14834055  0.53034621  1
  O  O22  1  0.68680728  0.53868022  0.53012610  1
  O  O23  1  0.85347351  0.31098099  0.53051967  1
  O  O24  1  0.53694072  0.69030824  0.97151589  1
  O  O25  1  0.15100989  0.46095803  0.97095340  1
  O  O26  1  0.31229947  0.84734371  0.97161270  1
  O  O27  1  0.53616053  0.84415013  0.47069985  1
  O  O28  1  0.30879557  0.45929437  0.46838641  1
  O  O29  1  0.15370838  0.68825979  0.47054997  1
  O  O30  1  0.14199714  0.64678809  0.36266483  1
  O  O31  1  0.50416137  0.85574018  0.36292668  1
  O  O32  1  0.35477046  0.48929996  0.36391362  1
  O  O33  1  0.13164827  0.49553096  0.86325927  1
  O  O34  1  0.36311027  0.86662285  0.86357927  1
  O  O35  1  0.50376394  0.63809601  0.86330322  1
  O  O36  1  0.03225213  0.83569403  0.40936494  1
  O  O37  1  0.80430033  0.97717265  0.41093226  1
  O  O38  1  0.17753449  0.20332285  0.40902638  1
  O  O39  1  0.01566504  0.19289984  0.90937926  1
  O  O40  1  0.17858745  0.98379651  0.90990699  1
  O  O41  1  0.80661303  0.82342427  0.90972978  1
  O  O42  1  0.97645790  0.17215404  0.58752390  1
  O  O43  1  0.19681391  0.02460160  0.58736398  1
  O  O44  1  0.82599548  0.80247412  0.58711836  1
  O  O45  1  0.96482994  0.80351301  0.08579347  1
  O  O46  1  0.82791303  0.03462147  0.08517213  1
  O  O47  1  0.19594955  0.16361378  0.08582185  1
  O  O48  1  0.67763008  0.15579738  0.74331834  1
  O  O49  1  0.47801647  0.32250206  0.74325256  1
  O  O50  1  0.84439903  0.52188848  0.74327412  1
  O  O51  1  0.67491776  0.52023500  0.24577052  1
  O  O52  1  0.83976128  0.31551345  0.24553389  1
  O  O53  1  0.47129836  0.14924576  0.24517254  1
  O  O54  1  0.63394007  0.49525643  0.92401502  1
  O  O55  1  0.85755277  0.36354509  0.92489004  1
  O  O56  1  0.50741978  0.14066731  0.92531461  1
  O  O57  1  0.62982856  0.13536248  0.41976457  1
  O  O58  1  0.49524953  0.36712514  0.41979999  1
  O  O59  1  0.86296164  0.50122290  0.41965070  1
  O  O60  1  0.36304967  0.49850384  0.07730870  1
  O  O61  1  0.13996203  0.64486570  0.07655268  1
  O  O62  1  0.50954858  0.87114120  0.07668447  1
  O  O63  1  0.35618337  0.86537236  0.57837507  1
  O  O64  1  0.50676922  0.64202097  0.57743333  1
  O  O65  1  0.13730301  0.49058915  0.57733901  1
  O  O66  1  0.30940088  0.83518783  0.25921075  1
  O  O67  1  0.51962797  0.68983782  0.26196398  1
  O  O68  1  0.16705203  0.47896258  0.26211487  1
  O  O69  1  0.31049722  0.48052142  0.76087646  1
  O  O70  1  0.16967886  0.68950418  0.76067787  1
  O  O71  1  0.51953446  0.83008334  0.76095550  1
loop_
_geom_bond_atom_site_label_1
_geom_bond_atom_site_label_2
_geom_bond_distance
_geom_bond_site_symmetry_2
Na0 O44 2.577043 1_555
Na0 O37 2.600440 1_555
Na0 O36 2.604671 1_655
Na0 O43 2.628199 1_665
Na0 O42 2.629832 1_565
Na0 O38 2.718945 1_665
Na1 O47 2.576901 1_566
Na1 O40 2.579453 1_555
Na1 O45 2.582698 1_456
Na1 O41 2.619842 1_455
Na1 O39 2.624791 1_565
Na1 O46 2.664283 1_466
Na2 O48 2.544247 1_555
Na2 O50 2.560080 1_555
Na2 O49 2.563749 1_555
Na2 O55 2.709310 1_555
Na2 O54 2.714616 1_555
Na2 O56 2.718478 1_555
Na3 O52 2.500569 1_555
Na3 O59 2.552101 1_555
Na3 O51 2.553088 1_555
Na3 O57 2.609169 1_555
Na3 O53 2.652800 1_555
Na3 O58 2.693221 1_555
Na4 O60 2.449775 1_555
Na4 O61 2.509355 1_555
Na4 O62 2.604208 1_555
Na4 O68 2.801791 1_555
Na4 O67 2.832906 1_555
Na4 O66 2.847670 1_555
Na5 O63 2.650135 1_555
Na5 O64 2.650241 1_555
Na5 O69 2.651998 1_555
Na5 O70 2.653117 1_555
Na5 O71 2.654002 1_555
Na5 O65 2.657150 1_555
O0 S0 1.467154 1_555
O0 Sc0 2.179285 1_445
O1 P0 1.527677 1_555
O1 Sc0 1.972806 1_555
O2 P1 1.525152 1_555
O2 Sc0 2.009149 1_545
O3 P2 1.515557 1_555
O3 Sc1 2.042017 1_555
O4 P3 1.514983 1_655
O4 Sc1 2.045394 1_665
O5 P4 1.514323 1_545
O5 Sc1 2.053171 1_655
O6 P4 1.543505 1_555
O6 Sc2 2.019335 1_555
O7 P2 1.541824 1_555
O7 Sc2 2.023810 1_445
O8 P3 1.541565 1_555
O8 Sc2 2.019882 1_455
O9 P0 1.527590 1_555
O9 Sc3 2.114275 1_565
O10 P1 1.532665 1_455
O10 Sc3 2.086993 1_455
O11 S0 1.460907 1_565
O11 Sc3 2.221708 1_465
O12 S1 1.474059 1_555
O12 Sc4 2.163171 1_555
O13 S2 1.473288 1_555
O13 Sc4 2.147016 1_555
O14 S3 1.474750 1_555
O14 Sc4 2.153194 1_555
O15 P5 1.531381 1_555
O15 Sc5 1.968743 1_555
O16 S4 1.469749 1_555
O16 Sc5 2.150088 1_555
O17 P6 1.525249 1_555
O17 Sc5 2.016140 1_555
O18 P6 1.603506 1_555
O18 Ta0 1.941025 1_554
O19 P5 1.596475 1_555
O19 Ta0 1.953586 1_554
O20 S4 1.504409 1_555
O20 Ta0 2.100573 1_554
O21 S2 1.480836 1_555
O21 Sc6 2.149340 1_555
O22 S3 1.485526 1_555
O22 Sc6 2.129724 1_555
O23 S1 1.489394 1_555
O23 Sc6 2.076906 1_555
O24 P7 1.506004 1_555
O24 Sc7 2.037625 1_556
O25 P8 1.511244 1_555
O25 Sc7 1.993240 1_556
O26 P9 1.507013 1_555
O26 Sc7 2.033630 1_556
O27 P10 1.527255 1_555
O27 Sc8 1.978400 1_555
O28 S5 1.467672 1_555
O28 Sc8 2.125647 1_555
O29 P11 1.526733 1_555
O29 Sc8 1.986309 1_555
O30 P11 1.585447 1_555
O30 Ta1 1.952085 1_555
O31 P10 1.578651 1_555
O31 Ta1 1.966547 1_555
O32 S5 1.514259 1_555
O32 Ta1 2.045967 1_555
O33 P8 1.574194 1_555
O33 Ta2 1.996782 1_555
O34 P9 1.576623 1_555
O34 Ta2 1.988226 1_555
O35 P7 1.566349 1_555
O35 Ta2 1.999366 1_555
O36 P11 1.525616 1_555
O36 Sc0 2.095420 1_455
O37 P10 1.531384 1_555
O37 Sc0 2.042308 1_555
O38 S5 1.465977 1_555
O38 Sc0 2.209161 1_445
O39 P8 1.515622 1_555
O39 Sc1 2.097958 1_555
O40 P9 1.518366 1_555
O40 Sc1 2.116097 1_565
O41 P7 1.513487 1_555
O41 Sc1 2.111043 1_665
O42 S1 1.483219 1_555
O42 Sc2 2.245130 1_545
O43 S2 1.484691 1_555
O43 Sc2 2.247575 1_445
O44 S3 1.487149 1_555
O44 Sc2 2.253858 1_555
O45 P5 1.535686 1_555
O45 Sc3 2.125443 1_565
O46 S4 1.486561 1_555
O46 Sc3 2.155093 1_555
O47 P6 1.539875 1_555
O47 Sc3 2.112171 1_455
O48 P4 1.539410 1_545
O48 Sc4 2.035874 1_555
O49 P2 1.538669 1_555
O49 Sc4 2.029849 1_555
O50 P3 1.537549 1_655
O50 Sc4 2.029840 1_555
O51 P0 1.533580 1_555
O51 Sc5 2.059333 1_555
O52 P1 1.530380 1_555
O52 Sc5 2.119610 1_555
O53 S0 1.468329 1_555
O53 Sc5 2.245498 1_555
O54 P7 1.598730 1_555
O54 Ta0 1.960651 1_555
O55 P8 1.578920 1_655
O55 Ta0 2.020151 1_555
O56 P9 1.584690 1_545
O56 Ta0 2.010050 1_555
O57 P10 1.539484 1_545
O57 Sc6 2.069685 1_555
O58 S5 1.474135 1_555
O58 Sc6 2.200807 1_555
O59 P11 1.542847 1_655
O59 Sc6 2.065745 1_555
O60 P6 1.530259 1_555
O60 Sc7 2.097209 1_555
O61 P5 1.528061 1_455
O61 Sc7 2.074238 1_555
O62 S4 1.468031 1_565
O62 Sc7 2.195696 1_555
O63 S2 1.498746 1_565
O63 Sc8 2.111800 1_555
O64 S3 1.492538 1_555
O64 Sc8 2.167127 1_555
O65 S1 1.488890 1_455
O65 Sc8 2.167278 1_555
O66 S0 1.540918 1_565
O66 Ta1 2.016292 1_555
O67 P0 1.594661 1_555
O67 Ta1 1.960773 1_555
O68 P1 1.605171 1_455
O68 Ta1 1.952293 1_555
O69 P2 1.582458 1_555
O69 Ta2 1.985235 1_555
O70 P3 1.583129 1_555
O70 Ta2 1.979777 1_555
O71 P4 1.583783 1_555
O71 Ta2 1.985029 1_555
