# generated using pymatgen
data_LaNbP2SO12
_symmetry_space_group_name_H-M   'P 1'
_cell_length_a   9.31400485
_cell_length_b   9.26591388
_cell_length_c   22.83242054
_cell_angle_alpha   91.05427248
_cell_angle_beta   90.00000000
_cell_angle_gamma   120.17183595
_symmetry_Int_Tables_number   1
_chemical_formula_structural   LaNbP2SO12
_chemical_formula_sum   'La6 Nb6 P12 S6 O72'
_cell_volume   1703.15558092
_cell_formula_units_Z   6
loop_
 _symmetry_equiv_pos_site_id
 _symmetry_equiv_pos_as_xyz
  1  'x, y, z'
loop_
 _atom_site_type_symbol
 _atom_site_label
 _atom_site_symmetry_multiplicity
 _atom_site_fract_x
 _atom_site_fract_y
 _atom_site_fract_z
 _atom_site_occupancy
  La  La0  1  0.99689346  0.00262823  0.36873177  1
  La  La1  1  0.00573477  0.00262823  0.86873177  1
  La  La2  1  0.66356046  0.33596123  0.70206477  1
  La  La3  1  0.67240177  0.33596123  0.20206477  1
  La  La4  1  0.33022646  0.66929523  0.03539877  1
  La  La5  1  0.33906777  0.66929523  0.53539877  1
  Nb  Nb0  1  0.98980756  0.00883920  0.64301219  1
  Nb  Nb1  1  0.01903165  0.00883920  0.14301219  1
  Nb  Nb2  1  0.65647456  0.34217220  0.97634519  1
  Nb  Nb3  1  0.68569865  0.34217220  0.47634519  1
  Nb  Nb4  1  0.32314056  0.67550620  0.30967919  1
  Nb  Nb5  1  0.35236465  0.67550620  0.80967919  1
  P  P0  1  0.26259409  0.96770952  0.24920973  1
  P  P1  1  0.04226767  0.29936696  0.25043718  1
  P  P2  1  0.25709928  0.29936696  0.75043718  1
  P  P3  1  0.70511543  0.96770952  0.74920973  1
  P  P4  1  0.92926109  0.30104252  0.58254273  1
  P  P5  1  0.70893467  0.63269996  0.58377018  1
  P  P6  1  0.92376628  0.63269996  0.08377018  1
  P  P7  1  0.37178243  0.30104252  0.08254273  1
  P  P8  1  0.59592709  0.63437652  0.91587673  1
  P  P9  1  0.37560067  0.96603396  0.91710418  1
  P  P10  1  0.59043228  0.96603396  0.41710418  1
  P  P11  1  0.03844843  0.63437652  0.41587673  1
  S  S0  1  0.68976124  0.73699503  0.24953324  1
  S  S1  1  0.04723379  0.73699503  0.74953324  1
  S  S2  1  0.35642824  0.07032803  0.58286624  1
  S  S3  1  0.71390079  0.07032803  0.08286624  1
  S  S4  1  0.02309424  0.40366203  0.91620024  1
  S  S5  1  0.38056679  0.40366203  0.41620024  1
  O  O0  1  0.19165041  0.00079168  0.30311471  1
  O  O1  1  0.78884937  0.80076920  0.30318894  1
  O  O2  1  0.00562788  0.19586247  0.30416676  1
  O  O3  1  0.19023459  0.19586247  0.80416676  1
  O  O4  1  0.01191983  0.80076920  0.80318894  1
  O  O5  1  0.80914127  0.00079168  0.80311471  1
  O  O6  1  0.79559325  0.93984988  0.69435686  1
  O  O7  1  0.13472190  0.20203848  0.69636890  1
  O  O8  1  0.06861211  0.84323394  0.69858313  1
  O  O9  1  0.77462183  0.84323394  0.19858313  1
  O  O10  1  0.06731658  0.20203848  0.19636890  1
  O  O11  1  0.14425663  0.93984988  0.19435686  1
  O  O12  1  0.85831741  0.33412468  0.63644771  1
  O  O13  1  0.45551637  0.13410220  0.63652194  1
  O  O14  1  0.67229488  0.52919547  0.63749976  1
  O  O15  1  0.85690159  0.52919547  0.13749976  1
  O  O16  1  0.67858683  0.13410220  0.13652194  1
  O  O17  1  0.47580827  0.33412468  0.13644771  1
  O  O18  1  0.46226025  0.27318288  0.02768986  1
  O  O19  1  0.80138890  0.53537148  0.02970190  1
  O  O20  1  0.73527911  0.17656694  0.03191613  1
  O  O21  1  0.44128883  0.17656694  0.53191613  1
  O  O22  1  0.73398358  0.53537148  0.52970190  1
  O  O23  1  0.81092363  0.27318288  0.52768986  1
  O  O24  1  0.52498341  0.66745868  0.96978171  1
  O  O25  1  0.12218237  0.46743620  0.96985594  1
  O  O26  1  0.33896088  0.86252947  0.97083376  1
  O  O27  1  0.52356759  0.86252947  0.47083376  1
  O  O28  1  0.34525283  0.46743620  0.46985594  1
  O  O29  1  0.14247427  0.66745868  0.46978171  1
  O  O30  1  0.12892625  0.60651688  0.36102386  1
  O  O31  1  0.46805490  0.86870548  0.36303590  1
  O  O32  1  0.40194511  0.50990094  0.36525013  1
  O  O33  1  0.10795483  0.50990094  0.86525013  1
  O  O34  1  0.40064958  0.86870548  0.86303590  1
  O  O35  1  0.47758963  0.60651688  0.86102386  1
  O  O36  1  0.98708920  0.76041299  0.40258461  1
  O  O37  1  0.76597059  0.01222011  0.40247099  1
  O  O38  1  0.25300764  0.22882010  0.40623740  1
  O  O39  1  0.97581246  0.22882010  0.90623740  1
  O  O40  1  0.24624952  0.01222011  0.90247099  1
  O  O41  1  0.77332378  0.76041299  0.90258461  1
  O  O42  1  0.92381234  0.12567603  0.59084993  1
  O  O43  1  0.19488510  0.07221093  0.59223256  1
  O  O44  1  0.87923350  0.80257526  0.59492109  1
  O  O45  1  0.92334176  0.80257526  0.09492109  1
  O  O46  1  0.87732583  0.07221093  0.09223256  1
  O  O47  1  0.20186369  0.12567603  0.09084993  1
  O  O48  1  0.65375620  0.09374599  0.73591761  1
  O  O49  1  0.43263759  0.34555311  0.73580399  1
  O  O50  1  0.91967464  0.56215310  0.73957040  1
  O  O51  1  0.64247946  0.56215310  0.23957040  1
  O  O52  1  0.91291652  0.34555311  0.23580399  1
  O  O53  1  0.43999078  0.09374599  0.23591761  1
  O  O54  1  0.59047934  0.45900903  0.92418293  1
  O  O55  1  0.86155210  0.40554393  0.92556556  1
  O  O56  1  0.54590050  0.13590826  0.92825409  1
  O  O57  1  0.59000876  0.13590826  0.42825409  1
  O  O58  1  0.54399283  0.40554393  0.42556556  1
  O  O59  1  0.86853069  0.45900903  0.42418293  1
  O  O60  1  0.32042220  0.42707999  0.06925161  1
  O  O61  1  0.09930359  0.67888711  0.06913799  1
  O  O62  1  0.58634064  0.89548710  0.07290440  1
  O  O63  1  0.30914546  0.89548710  0.57290440  1
  O  O64  1  0.57958252  0.67888711  0.56913799  1
  O  O65  1  0.10665678  0.42707999  0.56925161  1
  O  O66  1  0.25714534  0.79234303  0.25751693  1
  O  O67  1  0.52821810  0.73887793  0.25889956  1
  O  O68  1  0.21256650  0.46924226  0.26158809  1
  O  O69  1  0.25667476  0.46924226  0.76158809  1
  O  O70  1  0.21065883  0.73887793  0.75889956  1
  O  O71  1  0.53519669  0.79234303  0.75751693  1
loop_
_geom_bond_atom_site_label_1
_geom_bond_atom_site_label_2
_geom_bond_distance
_geom_bond_site_symmetry_2
La0 O2 2.310062 1_655
La0 O37 2.327441 1_555
La0 O36 2.345355 1_545
La0 O0 2.359121 1_655
La0 O38 2.392652 1_655
La0 O1 2.397200 1_545
La1 O3 2.310062 1_555
La1 O40 2.327441 1_555
La1 O41 2.345355 1_445
La1 O5 2.359121 1_455
La1 O39 2.392652 1_455
La1 O4 2.397200 1_545
La2 O14 2.310062 1_555
La2 O49 2.327441 1_555
La2 O48 2.345355 1_555
La2 O12 2.359121 1_555
La2 O50 2.392652 1_555
La2 O13 2.397200 1_555
La3 O15 2.310062 1_555
La3 O52 2.327441 1_555
La3 O53 2.345355 1_555
La3 O17 2.359121 1_555
La3 O51 2.392652 1_555
La3 O16 2.397200 1_555
La4 O26 2.310062 1_554
La4 O61 2.327441 1_555
La4 O60 2.345355 1_555
La4 O24 2.359121 1_554
La4 O62 2.392652 1_555
La4 O25 2.397200 1_554
La5 O27 2.310062 1_555
La5 O64 2.327441 1_555
La5 O65 2.345355 1_555
La5 O29 2.359121 1_555
La5 O63 2.392652 1_555
La5 O28 2.397200 1_555
Nb0 O42 1.919548 1_555
Nb0 O44 1.965538 1_545
Nb0 O6 1.979994 1_545
Nb0 O7 2.000400 1_655
Nb0 O43 2.057947 1_655
Nb0 O8 2.388946 1_645
Nb1 O47 1.919548 1_555
Nb1 O45 1.965538 1_445
Nb1 O11 1.979994 1_545
Nb1 O10 2.000400 1_555
Nb1 O46 2.057947 1_455
Nb1 O9 2.388946 1_445
Nb2 O54 1.919548 1_555
Nb2 O56 1.965538 1_555
Nb2 O18 1.979994 1_556
Nb2 O19 2.000400 1_556
Nb2 O55 2.057947 1_555
Nb2 O20 2.388946 1_556
Nb3 O59 1.919548 1_555
Nb3 O57 1.965538 1_555
Nb3 O23 1.979994 1_555
Nb3 O22 2.000400 1_555
Nb3 O58 2.057947 1_555
Nb3 O21 2.388946 1_555
Nb4 O66 1.919548 1_555
Nb4 O68 1.965538 1_555
Nb4 O30 1.979994 1_555
Nb4 O31 2.000400 1_555
Nb4 O67 2.057947 1_555
Nb4 O32 2.388946 1_555
Nb5 O71 1.919548 1_555
Nb5 O69 1.965538 1_555
Nb5 O35 1.979994 1_555
Nb5 O34 2.000400 1_555
Nb5 O70 2.057947 1_555
Nb5 O33 2.388946 1_555
O0 P0 1.495032 1_545
O1 S0 1.458408 1_555
O2 P1 1.501848 1_555
O3 P2 1.501848 1_555
O4 S1 1.458408 1_555
O5 P3 1.495032 1_545
O6 P3 1.597542 1_555
O7 P2 1.600713 1_555
O8 S1 1.485633 1_555
O9 S0 1.485633 1_555
O10 P1 1.600713 1_555
O11 P0 1.597542 1_555
O12 P4 1.495032 1_555
O13 S2 1.458408 1_555
O14 P5 1.501848 1_555
O15 P6 1.501848 1_555
O16 S3 1.458408 1_555
O17 P7 1.495032 1_555
O18 P7 1.597542 1_555
O19 P6 1.600713 1_555
O20 S3 1.485633 1_555
O21 S2 1.485633 1_555
O22 P5 1.600713 1_555
O23 P4 1.597542 1_555
O24 P8 1.495032 1_555
O25 S4 1.458408 1_555
O26 P9 1.501848 1_555
O27 P10 1.501848 1_555
O28 S5 1.458408 1_555
O29 P11 1.495032 1_555
O30 P11 1.597542 1_555
O31 P10 1.600713 1_555
O32 S5 1.485633 1_555
O33 S4 1.485633 1_555
O34 P9 1.600713 1_555
O35 P8 1.597542 1_555
O36 P11 1.503125 1_655
O37 P10 1.506593 1_545
O38 S5 1.462733 1_555
O39 S4 1.462735 1_655
O40 P9 1.506584 1_545
O41 P8 1.503131 1_555
O42 P4 1.614745 1_555
O43 S2 1.528447 1_555
O44 P5 1.591843 1_555
O45 P6 1.591848 1_555
O46 S3 1.528438 1_555
O47 P7 1.614749 1_555
O48 P3 1.503125 1_545
O49 P2 1.506593 1_555
O50 S1 1.462733 1_655
O51 S0 1.462735 1_555
O52 P1 1.506584 1_655
O53 P0 1.503131 1_545
O54 P8 1.614755 1_555
O55 S4 1.528430 1_655
O56 P9 1.591840 1_545
O57 P10 1.591831 1_545
O58 S5 1.528448 1_555
O59 P11 1.614746 1_655
O60 P7 1.503135 1_555
O61 P6 1.506577 1_455
O62 S3 1.462726 1_565
O63 S2 1.462721 1_565
O64 P5 1.506594 1_555
O65 P4 1.503122 1_455
O66 P0 1.614745 1_555
O67 S0 1.528447 1_555
O68 P1 1.591843 1_555
O69 P2 1.591848 1_555
O70 S1 1.528438 1_555
O71 P3 1.614749 1_555
