# generated using pymatgen
data_Na10Sc7NbSi6(SO8)6
_symmetry_space_group_name_H-M   'P 1'
_cell_length_a   18.14733940
_cell_length_b   9.07189328
_cell_length_c   22.90992525
_cell_angle_alpha   90.18881692
_cell_angle_beta   89.69368431
_cell_angle_gamma   119.91231280
_symmetry_Int_Tables_number   1
_chemical_formula_structural   Na10Sc7NbSi6(SO8)6
_chemical_formula_sum   'Na30 Sc21 Nb3 Si18 S18 O144'
_cell_volume   3269.20338467
_cell_formula_units_Z   3
loop_
 _symmetry_equiv_pos_site_id
 _symmetry_equiv_pos_as_xyz
  1  'x, y, z'
loop_
 _atom_site_type_symbol
 _atom_site_label
 _atom_site_symmetry_multiplicity
 _atom_site_fract_x
 _atom_site_fract_y
 _atom_site_fract_z
 _atom_site_occupancy
  Na  Na0  1  0.31899978  0.00555051  0.24993215  1
  Na  Na1  1  0.82128051  0.00152213  0.25172015  1
  Na  Na2  1  0.18467435  0.36302293  0.25052311  1
  Na  Na3  1  0.68623432  0.37697582  0.24303734  1
  Na  Na4  1  0.99599583  0.62800397  0.24754749  1
  Na  Na5  1  0.49579938  0.62081337  0.25175224  1
  Na  Na6  1  0.31363446  0.62449175  0.74891600  1
  Na  Na7  1  0.80933506  0.62325506  0.74960741  1
  Na  Na8  1  0.99728499  0.35434271  0.74869873  1
  Na  Na9  1  0.68610256  0.00993781  0.75393915  1
  Na  Na10  1  0.16108678  0.34386354  0.58218890  1
  Na  Na11  1  0.01263835  0.69286071  0.58233289  1
  Na  Na12  1  0.33146438  0.96453697  0.58496233  1
  Na  Na13  1  0.83059313  0.96481292  0.58010507  1
  Na  Na14  1  0.83109034  0.68307073  0.07684787  1
  Na  Na15  1  0.16958362  0.30641404  0.91162832  1
  Na  Na16  1  0.67171496  0.31098391  0.91679604  1
  Na  Na17  1  0.35660066  0.66588961  0.41740596  1
  Na  Na18  1  0.99929040  0.99591030  0.49455754  1
  Na  Na19  1  0.50761684  0.98992706  0.49881636  1
  Na  Na20  1  0.99210615  0.97925697  0.99673180  1
  Na  Na21  1  0.49377318  0.97716307  0.99844431  1
  Na  Na22  1  0.33283679  0.32889362  0.83411258  1
  Na  Na23  1  0.83088471  0.33218431  0.83650524  1
  Na  Na24  1  0.33991571  0.33400760  0.33309432  1
  Na  Na25  1  0.83897989  0.34167015  0.33318211  1
  Na  Na26  1  0.16035036  0.66342697  0.16349304  1
  Na  Na27  1  0.65629731  0.64615566  0.16053488  1
  Na  Na28  1  0.16769403  0.67004824  0.66440119  1
  Na  Na29  1  0.66262947  0.63824027  0.66773914  1
  Sc  Sc0  1  0.99842779  0.99867429  0.34771558  1
  Sc  Sc1  1  0.49853155  0.99387714  0.35210231  1
  Sc  Sc2  1  0.99364736  0.99858226  0.85178709  1
  Sc  Sc3  1  0.49898310  0.99530566  0.85316342  1
  Sc  Sc4  1  0.50420744  0.00680331  0.64813708  1
  Sc  Sc5  1  0.32383443  0.32694542  0.68254671  1
  Sc  Sc6  1  0.83012008  0.33804872  0.68399096  1
  Sc  Sc7  1  0.34002561  0.34407475  0.18653340  1
  Sc  Sc8  1  0.84081645  0.35377547  0.18060685  1
  Sc  Sc9  1  0.34177064  0.36214102  0.98264886  1
  Sc  Sc10  1  0.83333304  0.35421299  0.98488357  1
  Sc  Sc11  1  0.33628613  0.34616185  0.48362537  1
  Sc  Sc12  1  0.83907066  0.34523533  0.48466249  1
  Sc  Sc13  1  0.16949116  0.67245065  0.01800705  1
  Sc  Sc14  1  0.66627062  0.66152675  0.02108838  1
  Sc  Sc15  1  0.16704910  0.66529909  0.52214814  1
  Sc  Sc16  1  0.66147694  0.66237023  0.51504633  1
  Sc  Sc17  1  0.16435891  0.66413526  0.30849328  1
  Sc  Sc18  1  0.66007120  0.65306719  0.31619835  1
  Sc  Sc19  1  0.17104647  0.66169268  0.81728301  1
  Sc  Sc20  1  0.67178840  0.65756017  0.81447813  1
  Nb  Nb0  1  0.99916588  0.00982470  0.64536998  1
  Nb  Nb1  1  0.00090010  0.99193206  0.15130080  1
  Nb  Nb2  1  0.49611908  0.00244633  0.14303673  1
  Si  Si0  1  0.14761663  0.00346442  0.25223935  1
  Si  Si1  1  0.35509838  0.71073008  0.25131962  1
  Si  Si2  1  0.85121968  0.70394790  0.25218612  1
  Si  Si3  1  0.99627060  0.28677131  0.25014936  1
  Si  Si4  1  0.50066468  0.28788935  0.25145070  1
  Si  Si5  1  0.14749576  0.29219102  0.75364062  1
  Si  Si6  1  0.64461761  0.29066234  0.75165693  1
  Si  Si7  1  0.85159329  0.00268196  0.74984615  1
  Si  Si8  1  0.97722715  0.33485584  0.58456546  1
  Si  Si9  1  0.18828891  0.04200442  0.58203570  1
  Si  Si10  1  0.33830182  0.63758984  0.58329343  1
  Si  Si11  1  0.82946752  0.62676714  0.58516448  1
  Si  Si12  1  0.48346703  0.62986938  0.08573242  1
  Si  Si13  1  0.98681822  0.63545052  0.08383637  1
  Si  Si14  1  0.68541163  0.33138891  0.08420841  1
  Si  Si15  1  0.31586600  0.66959599  0.91674136  1
  Si  Si16  1  0.81685941  0.67003797  0.91805553  1
  Si  Si17  1  0.51743610  0.66735678  0.41586084  1
  S  S0  1  0.64450004  0.00016667  0.24899354  1
  S  S1  1  0.00192305  0.71215786  0.74943256  1
  S  S2  1  0.49956743  0.70724814  0.74972014  1
  S  S3  1  0.35457079  0.00305886  0.75022241  1
  S  S4  1  0.47969763  0.33492645  0.58435166  1
  S  S5  1  0.68638580  0.04062608  0.58235620  1
  S  S6  1  0.33219833  0.04156451  0.08335703  1
  S  S7  1  0.83563931  0.04315233  0.08395342  1
  S  S8  1  0.18482876  0.33038582  0.08331674  1
  S  S9  1  0.02006552  0.37543548  0.91683576  1
  S  S10  1  0.51953331  0.37379558  0.91614597  1
  S  S11  1  0.16729086  0.95961557  0.91708961  1
  S  S12  1  0.66696120  0.95863005  0.91563411  1
  S  S13  1  0.31184847  0.96007705  0.41651475  1
  S  S14  1  0.81390568  0.96324080  0.41693840  1
  S  S15  1  0.16491531  0.37078937  0.41668741  1
  S  S16  1  0.66837159  0.37076307  0.41658021  1
  S  S17  1  0.01967449  0.66704655  0.41714788  1
  O  O0  1  0.10442963  0.04370888  0.30679754  1
  O  O1  1  0.60689785  0.03035804  0.30164580  1
  O  O2  1  0.41334237  0.78812690  0.30923930  1
  O  O3  1  0.91718456  0.79290878  0.30507368  1
  O  O4  1  0.48691120  0.16737656  0.30680614  1
  O  O5  1  0.97953387  0.16530028  0.30583987  1
  O  O6  1  0.10355152  0.18335904  0.81167835  1
  O  O7  1  0.60148423  0.17159415  0.80957890  1
  O  O8  1  0.48296234  0.78573833  0.80158943  1
  O  O9  1  0.98925508  0.79461150  0.80048292  1
  O  O10  1  0.40667147  0.01794125  0.80143361  1
  O  O11  1  0.91575620  0.03384802  0.80305406  1
  O  O12  1  0.39090291  0.97106296  0.69596991  1
  O  O13  1  0.90106546  0.97263927  0.69170144  1
  O  O14  1  0.08489042  0.18868466  0.69549909  1
  O  O15  1  0.58654530  0.19032103  0.69507457  1
  O  O16  1  0.01243118  0.81096297  0.69487738  1
  O  O17  1  0.51155640  0.81315670  0.69731028  1
  O  O18  1  0.40541676  0.84120166  0.19616446  1
  O  O19  1  0.90122707  0.82889134  0.19308082  1
  O  O20  1  0.01399083  0.19190100  0.19312466  1
  O  O21  1  0.51466332  0.19127162  0.19410564  1
  O  O22  1  0.08226240  0.96780549  0.19466613  1
  O  O23  1  0.59008268  0.97082749  0.19701840  1
  O  O24  1  0.44023495  0.35915504  0.63719444  1
  O  O25  1  0.93897468  0.36867416  0.64381086  1
  O  O26  1  0.24972282  0.12015864  0.63876711  1
  O  O27  1  0.73787968  0.11592274  0.63634622  1
  O  O28  1  0.31833181  0.51498673  0.64097565  1
  O  O29  1  0.81843109  0.52146137  0.64493552  1
  O  O30  1  0.44037211  0.51957660  0.14464710  1
  O  O31  1  0.94596265  0.53356680  0.14514228  1
  O  O32  1  0.32255147  0.11685594  0.13809651  1
  O  O33  1  0.82544633  0.12000723  0.13861761  1
  O  O34  1  0.23503947  0.34956363  0.13636304  1
  O  O35  1  0.74249922  0.35834479  0.14254959  1
  O  O36  1  0.22441512  0.30434200  0.03016582  1
  O  O37  1  0.72415350  0.29668772  0.02463609  1
  O  O38  1  0.42194724  0.54543215  0.02894401  1
  O  O39  1  0.91946286  0.54772788  0.03037718  1
  O  O40  1  0.34345173  0.14625894  0.03200309  1
  O  O41  1  0.84690118  0.14800555  0.03265244  1
  O  O42  1  0.22835125  0.16876702  0.52690640  1
  O  O43  1  0.72812329  0.14786648  0.53102550  1
  O  O44  1  0.34951721  0.54914671  0.52433746  1
  O  O45  1  0.85224402  0.54014512  0.53018118  1
  O  O46  1  0.42577666  0.30507200  0.53208848  1
  O  O47  1  0.91344192  0.28545577  0.52951050  1
  O  O48  1  0.26393264  0.68712217  0.97177269  1
  O  O49  1  0.76884237  0.68841325  0.97595463  1
  O  O50  1  0.07499913  0.46483890  0.96705832  1
  O  O51  1  0.57229483  0.45416116  0.96824654  1
  O  O52  1  0.15522566  0.85484514  0.96920483  1
  O  O53  1  0.65528592  0.85261444  0.96661512  1
  O  O54  1  0.26995984  0.85245106  0.46909906  1
  O  O55  1  0.77180235  0.86073980  0.47027532  1
  O  O56  1  0.15733742  0.45703326  0.47001950  1
  O  O57  1  0.65883085  0.45913700  0.46796872  1
  O  O58  1  0.06945732  0.68094405  0.47029851  1
  O  O59  1  0.57820200  0.68516642  0.47132448  1
  O  O60  1  0.06177349  0.64958674  0.36386626  1
  O  O61  1  0.56329283  0.64821127  0.35583051  1
  O  O62  1  0.26134163  0.87561800  0.36334200  1
  O  O63  1  0.76399824  0.87753370  0.36361893  1
  O  O64  1  0.17532166  0.47673177  0.36410798  1
  O  O65  1  0.68104971  0.47271475  0.36226921  1
  O  O66  1  0.05851801  0.47545612  0.86183067  1
  O  O67  1  0.55805785  0.47849439  0.86340976  1
  O  O68  1  0.17583154  0.87427640  0.86393290  1
  O  O69  1  0.67301744  0.87704580  0.86051227  1
  O  O70  1  0.25686385  0.63555984  0.85667056  1
  O  O71  1  0.75671744  0.63772705  0.85925730  1
  O  O72  1  0.01083061  0.82092377  0.41463939  1
  O  O73  1  0.50522745  0.83646538  0.41497133  1
  O  O74  1  0.39664884  0.97070536  0.41302122  1
  O  O75  1  0.89994483  0.98030301  0.41427943  1
  O  O76  1  0.08835832  0.20080667  0.41368713  1
  O  O77  1  0.59090480  0.20186179  0.41205695  1
  O  O78  1  0.01861262  0.20888203  0.91301377  1
  O  O79  1  0.51515259  0.20458991  0.91014548  1
  O  O80  1  0.09219796  0.98504970  0.91277782  1
  O  O81  1  0.59125179  0.98577298  0.91249643  1
  O  O82  1  0.41031613  0.83641366  0.91042152  1
  O  O83  1  0.91213238  0.83655221  0.91219461  1
  O  O84  1  0.48589627  0.17630468  0.58953303  1
  O  O85  1  0.98918665  0.16256616  0.59056972  1
  O  O86  1  0.09196254  0.01863965  0.59402915  1
  O  O87  1  0.60016623  0.01857263  0.58831354  1
  O  O88  1  0.41688270  0.83294973  0.58997293  1
  O  O89  1  0.92092973  0.81690390  0.59280101  1
  O  O90  1  0.48844131  0.81895846  0.09515893  1
  O  O91  1  0.98884310  0.82534035  0.09040602  1
  O  O92  1  0.41181973  0.02525134  0.08738661  1
  O  O93  1  0.91285005  0.02023708  0.08853540  1
  O  O94  1  0.09808390  0.17495651  0.08863671  1
  O  O95  1  0.58914284  0.16171780  0.09350757  1
  O  O96  1  0.34754761  0.15733497  0.74559877  1
  O  O97  1  0.84484439  0.17382944  0.74247442  1
  O  O98  1  0.24487247  0.32748923  0.74653804  1
  O  O99  1  0.74085922  0.31153858  0.74674030  1
  O  O100  1  0.42390303  0.53542889  0.74354176  1
  O  O101  1  0.92398774  0.53991435  0.74527862  1
  O  O102  1  0.34093446  0.51953958  0.24344184  1
  O  O103  1  0.83873471  0.51320682  0.24564442  1
  O  O104  1  0.41544300  0.30423096  0.24439633  1
  O  O105  1  0.91092201  0.30253428  0.24333336  1
  O  O106  1  0.24025780  0.16625925  0.24036260  1
  O  O107  1  0.73085145  0.15062377  0.24209215  1
  O  O108  1  0.31646174  0.48677432  0.92108925  1
  O  O109  1  0.81858984  0.48772454  0.91988641  1
  O  O110  1  0.43198554  0.34584251  0.92275292  1
  O  O111  1  0.93359506  0.34869159  0.92268849  1
  O  O112  1  0.24469024  0.13141660  0.92240803  1
  O  O113  1  0.74450642  0.13051811  0.91954713  1
  O  O114  1  0.32110737  0.12992521  0.42234387  1
  O  O115  1  0.82053547  0.13351969  0.42105484  1
  O  O116  1  0.24432292  0.36032526  0.41968152  1
  O  O117  1  0.74501198  0.35182569  0.42255933  1
  O  O118  1  0.42085685  0.49719895  0.41957356  1
  O  O119  1  0.93392291  0.50983356  0.42050044  1
  O  O120  1  0.17511527  0.48284344  0.07762711  1
  O  O121  1  0.68009239  0.50613742  0.07909989  1
  O  O122  1  0.08116566  0.66121404  0.07617272  1
  O  O123  1  0.57879935  0.66203370  0.07672726  1
  O  O124  1  0.25855063  0.86725651  0.07864472  1
  O  O125  1  0.76085554  0.86823677  0.07953314  1
  O  O126  1  0.17198747  0.84815480  0.57506275  1
  O  O127  1  0.68045156  0.87102349  0.57646038  1
  O  O128  1  0.25020964  0.65096715  0.57658534  1
  O  O129  1  0.75334394  0.67041444  0.57635382  1
  O  O130  1  0.07301198  0.49497266  0.57543117  1
  O  O131  1  0.56627156  0.48397716  0.57725106  1
  O  O132  1  0.15138577  0.82727413  0.25536233  1
  O  O133  1  0.65339103  0.84552374  0.25468236  1
  O  O134  1  0.26166161  0.69818245  0.25564428  1
  O  O135  1  0.76069184  0.70142974  0.25489015  1
  O  O136  1  0.08301561  0.47390414  0.25477664  1
  O  O137  1  0.58659144  0.47774688  0.25334847  1
  O  O138  1  0.15094657  0.48039671  0.75246216  1
  O  O139  1  0.65643680  0.48234038  0.75402818  1
  O  O140  1  0.07711156  0.68897458  0.75458010  1
  O  O141  1  0.57860357  0.69963040  0.75691389  1
  O  O142  1  0.26799524  0.84623221  0.75611244  1
  O  O143  1  0.75737256  0.83313525  0.75259084  1
loop_
_geom_bond_atom_site_label_1
_geom_bond_atom_site_label_2
_geom_bond_distance
_geom_bond_site_symmetry_2
Na0 O104 2.385649 1_555
Na0 O134 2.445869 1_545
Na0 O106 2.509742 1_555
Na0 O132 2.640885 1_545
Na0 O32 2.745673 1_555
Na0 O62 2.827716 1_545
Na0 O18 2.915287 1_545
Na0 O4 2.950655 1_555
Na1 O135 2.375028 1_545
Na1 O105 2.389536 1_555
Na1 O107 2.605954 1_555
Na1 O133 2.643514 1_545
Na1 O63 2.782473 1_545
Na1 O5 2.786178 1_555
Na1 O33 2.794723 1_555
Na1 O19 2.931495 1_545
Na2 O106 2.459359 1_555
Na2 O102 2.462624 1_555
Na2 O136 2.504594 1_555
Na2 O134 2.640686 1_555
Na2 O34 2.788233 1_555
Na2 O0 2.823376 1_555
Na2 O64 2.831372 1_555
Na2 O20 2.994616 1_555
Na3 O103 2.404158 1_555
Na3 O137 2.409153 1_555
Na3 O35 2.552552 1_555
Na3 O107 2.555469 1_555
Na3 O135 2.568115 1_555
Na3 O65 2.878875 1_555
Na3 O21 2.929593 1_555
Na4 O132 2.484154 1_655
Na4 O103 2.503570 1_555
Na4 O31 2.509235 1_555
Na4 O105 2.562067 1_555
Na4 O136 2.584897 1_655
Na4 O3 2.849775 1_555
Na4 O60 2.891739 1_655
Na4 O22 2.934704 1_655
Na5 O102 2.491586 1_555
Na5 O104 2.495142 1_555
Na5 O133 2.554539 1_555
Na5 O137 2.556220 1_555
Na5 O30 2.639397 1_555
Na5 O61 2.640295 1_555
Na6 O98 2.338002 1_555
Na6 O100 2.506298 1_555
Na6 O142 2.533321 1_555
Na6 O138 2.565308 1_555
Na6 O28 2.678697 1_555
Na6 O70 2.690732 1_555
Na6 O8 2.929743 1_555
Na6 O12 2.988753 1_555
Na7 O139 2.409065 1_555
Na7 O99 2.457683 1_555
Na7 O143 2.511629 1_555
Na7 O101 2.544944 1_555
Na7 O29 2.600722 1_555
Na7 O71 2.708638 1_555
Na8 O97 2.416493 1_555
Na8 O138 2.431600 1_655
Na8 O101 2.616276 1_555
Na8 O140 2.635491 1_655
Na8 O25 2.660335 1_555
Na8 O11 2.811955 1_555
Na8 O66 2.820284 1_655
Na8 O14 2.936246 1_655
Na9 O99 2.406329 1_555
Na9 O141 2.501539 1_545
Na9 O97 2.510178 1_555
Na9 O143 2.512877 1_545
Na9 O69 2.683062 1_545
Na9 O27 2.855554 1_555
Na9 O7 2.889015 1_555
Na10 O128 2.429051 1_555
Na10 O130 2.578200 1_555
Na10 O86 2.581163 1_555
Na10 O85 2.711451 1_455
Na10 O42 2.742508 1_555
Na10 O56 2.784139 1_555
Na10 O28 2.824163 1_555
Na10 O14 2.945665 1_555
Na11 O89 2.440372 1_455
Na11 O126 2.511580 1_555
Na11 O130 2.531035 1_555
Na11 O86 2.575729 1_565
Na11 O58 2.782782 1_555
Na11 O16 2.789573 1_555
Na11 O45 2.797079 1_455
Na11 O25 2.916550 1_455
Na12 O88 2.385247 1_555
Na12 O128 2.473708 1_555
Na12 O84 2.487557 1_565
Na12 O126 2.549476 1_555
Na12 O12 2.756698 1_555
Na12 O26 2.787597 1_565
Na12 O54 2.864896 1_555
Na12 O46 2.944404 1_565
Na13 O129 2.317584 1_555
Na13 O127 2.417555 1_555
Na13 O85 2.532607 1_565
Na13 O89 2.602723 1_555
Na13 O55 2.714646 1_555
Na13 O47 2.776176 1_565
Na13 O13 2.849619 1_555
Na13 O27 2.938666 1_565
Na14 O121 2.387501 1_555
Na14 O91 2.505921 1_555
Na14 O125 2.565914 1_555
Na14 O49 2.589308 1_554
Na14 O93 2.664877 1_565
Na14 O39 2.673932 1_555
Na14 O19 2.965588 1_555
Na14 O35 2.967897 1_555
Na15 O108 2.341569 1_555
Na15 O78 2.423125 1_555
Na15 O80 2.527667 1_545
Na15 O112 2.569693 1_555
Na15 O6 2.569800 1_555
Na15 O70 2.880378 1_555
Na15 O36 2.900569 1_556
Na15 O50 3.008236 1_555
Na16 O109 2.327897 1_555
Na16 O79 2.509145 1_555
Na16 O81 2.559118 1_545
Na16 O113 2.566659 1_555
Na16 O37 2.678926 1_556
Na16 O7 2.768142 1_555
Na16 O71 2.889158 1_555
Na16 O51 2.938726 1_555
Na17 O118 2.342018 1_555
Na17 O73 2.347077 1_555
Na17 O74 2.486283 1_555
Na17 O116 2.491019 1_555
Na17 O44 2.649077 1_555
Na17 O2 2.698691 1_555
Na18 O72 2.494887 1_655
Na18 O75 2.536144 1_555
Na18 O76 2.548434 1_665
Na18 O85 2.721772 1_565
Na18 O89 2.722483 1_555
Na18 O86 2.784989 1_665
Na19 O73 2.356463 1_555
Na19 O87 2.586577 1_565
Na19 O88 2.597076 1_555
Na19 O77 2.650775 1_565
Na19 O74 2.763867 1_555
Na19 O84 2.822468 1_565
Na20 O83 2.381786 1_555
Na20 O91 2.548479 1_556
Na20 O80 2.620986 1_655
Na20 O93 2.669491 1_566
Na20 O78 2.695653 1_665
Na20 O94 2.810206 1_666
Na21 O82 2.465318 1_555
Na21 O81 2.615061 1_555
Na21 O90 2.618932 1_556
Na21 O92 2.676393 1_566
Na21 O95 2.769117 1_566
Na21 O79 2.778535 1_565
Na22 O108 2.551400 1_555
Na22 O98 2.566619 1_555
Na22 O112 2.644107 1_555
Na22 O96 2.644519 1_555
Na22 O110 2.673215 1_555
Na22 O100 2.729099 1_555
Na23 O109 2.445727 1_555
Na23 O113 2.560180 1_555
Na23 O99 2.581000 1_555
Na23 O97 2.665598 1_555
Na23 O111 2.674714 1_555
Na23 O101 2.754402 1_555
Na24 O118 2.473370 1_555
Na24 O104 2.533124 1_555
Na24 O102 2.653910 1_555
Na24 O114 2.666884 1_555
Na24 O116 2.715626 1_555
Na24 O106 2.715676 1_555
Na25 O103 2.543853 1_555
Na25 O105 2.548803 1_555
Na25 O119 2.587081 1_555
Na25 O115 2.667969 1_555
Na25 O117 2.688365 1_555
Na25 O107 2.799521 1_555
Na26 O122 2.463546 1_555
Na26 O132 2.623470 1_555
Na26 O136 2.623928 1_555
Na26 O120 2.652607 1_555
Na26 O124 2.659658 1_555
Na26 O134 2.719493 1_555
Na27 O121 2.409044 1_555
Na27 O123 2.432673 1_555
Na27 O137 2.553592 1_555
Na27 O125 2.697676 1_555
Na27 O135 2.757268 1_555
Na27 O133 2.827447 1_555
Na28 O128 2.558097 1_555
Na28 O138 2.572446 1_555
Na28 O126 2.588519 1_555
Na28 O130 2.631329 1_555
Na28 O140 2.691250 1_555
Na28 O142 2.720217 1_555
Na29 O139 2.403844 1_555
Na29 O129 2.581955 1_555
Na29 O143 2.615788 1_555
Na29 O131 2.625423 1_555
Na29 O141 2.759580 1_555
Na29 O127 2.877151 1_555
Nb0 O13 1.947562 1_545
Nb0 O85 1.947616 1_555
Nb0 O14 1.964987 1_655
Nb0 O89 2.013809 1_545
Nb0 O86 2.017648 1_655
Nb0 O16 2.246894 1_645
Nb1 O22 1.885325 1_555
Nb1 O19 1.923067 1_455
Nb1 O20 1.956184 1_565
Nb1 O91 1.984381 1_455
Nb1 O94 2.235260 1_565
Nb1 O93 2.263417 1_465
Nb2 O90 1.936924 1_545
Nb2 O95 1.944916 1_555
Nb2 O21 1.957690 1_555
Nb2 O18 1.979771 1_545
Nb2 O92 2.084907 1_555
Nb2 O23 2.243240 1_545
O0 Si0 1.606776 1_555
O0 Sc0 1.986339 1_445
O1 S0 1.473481 1_555
O1 Sc1 2.154582 1_545
O2 Si1 1.624694 1_555
O2 Sc1 1.991100 1_555
O3 Si2 1.611818 1_555
O3 Sc0 1.967517 1_555
O4 Si4 1.612285 1_555
O4 Sc1 1.985667 1_545
O5 Si3 1.614230 1_555
O5 Sc0 1.962886 1_545
O6 Si5 1.609577 1_555
O6 Sc2 2.070822 1_445
O7 Si6 1.641783 1_555
O7 Sc3 2.009596 1_545
O8 S2 1.488129 1_555
O8 Sc3 2.129003 1_555
O9 S1 1.463934 1_655
O9 Sc2 2.156713 1_555
O10 S3 1.473833 1_555
O10 Sc3 2.149172 1_545
O11 Si7 1.614383 1_555
O11 Sc2 1.953751 1_545
O12 S3 1.497850 1_565
O12 Sc4 2.201636 1_565
O13 Si7 1.698125 1_565
O14 Si5 1.700209 1_555
O15 Si6 1.633917 1_555
O15 Sc4 1.919658 1_555
O16 S1 1.495428 1_555
O17 S2 1.486095 1_555
O17 Sc4 2.149736 1_565
O18 Si1 1.658630 1_555
O19 Si2 1.706745 1_555
O20 Si3 1.677804 1_455
O21 Si4 1.664244 1_555
O22 Si0 1.697728 1_565
O23 S0 1.487372 1_565
O24 S4 1.474025 1_555
O24 Sc5 2.233817 1_555
O25 Si8 1.617987 1_555
O25 Sc6 2.064390 1_555
O26 Si9 1.629703 1_555
O26 Sc5 1.954404 1_555
O27 S5 1.496645 1_555
O27 Sc6 2.166786 1_555
O28 Si10 1.648431 1_555
O28 Sc5 2.002174 1_555
O29 Si11 1.625650 1_555
O29 Sc6 1.994495 1_555
O30 Si12 1.628406 1_555
O30 Sc7 1.967646 1_555
O31 Si13 1.640309 1_555
O31 Sc8 1.962031 1_555
O32 S6 1.476875 1_555
O32 Sc7 2.217589 1_555
O33 S7 1.486308 1_555
O33 Sc8 2.213619 1_555
O34 S8 1.479797 1_555
O34 Sc7 2.252081 1_555
O35 Si14 1.636927 1_555
O35 Sc8 2.008955 1_555
O36 S8 1.487510 1_555
O36 Sc9 2.204729 1_554
O37 Si14 1.632091 1_555
O37 Sc10 1.994991 1_554
O38 Si12 1.637637 1_555
O38 Sc9 1.897036 1_554
O39 Si13 1.633038 1_555
O39 Sc10 1.969762 1_554
O40 S6 1.462640 1_555
O40 Sc9 2.278055 1_554
O41 S7 1.462474 1_555
O41 Sc10 2.287696 1_554
O42 Si9 1.616203 1_555
O42 Sc11 2.062912 1_555
O43 S5 1.471802 1_555
O43 Sc12 2.186808 1_555
O44 Si10 1.631655 1_555
O44 Sc11 1.966892 1_555
O45 Si11 1.639199 1_555
O45 Sc12 1.959618 1_555
O46 S4 1.486798 1_555
O46 Sc11 2.152879 1_555
O47 Si8 1.620531 1_555
O47 Sc12 1.979850 1_555
O48 Si15 1.624329 1_555
O48 Sc13 1.957296 1_556
O49 Si16 1.636355 1_555
O49 Sc14 2.030213 1_556
O50 S9 1.474858 1_555
O50 Sc13 2.153142 1_556
O51 S10 1.477601 1_555
O51 Sc14 2.172613 1_556
O52 S11 1.474444 1_555
O52 Sc13 2.120729 1_556
O53 S12 1.461355 1_555
O53 Sc14 2.227975 1_556
O54 S13 1.496726 1_555
O54 Sc15 2.162037 1_555
O55 S14 1.493493 1_555
O55 Sc16 2.166984 1_555
O56 S15 1.491021 1_555
O56 Sc15 2.163863 1_555
O57 S16 1.479467 1_555
O57 Sc16 2.112813 1_555
O58 S17 1.487267 1_555
O58 Sc15 2.200462 1_555
O59 Si17 1.640936 1_555
O59 Sc16 1.912885 1_555
O60 S17 1.486021 1_555
O60 Sc17 2.196199 1_555
O61 Si17 1.656639 1_555
O61 Sc18 1.953685 1_555
O62 S13 1.488793 1_555
O62 Sc17 2.235499 1_555
O63 S14 1.490044 1_555
O63 Sc18 2.249647 1_555
O64 S15 1.494855 1_555
O64 Sc17 2.215323 1_555
O65 S16 1.499615 1_555
O65 Sc18 2.138418 1_555
O66 S9 1.504964 1_555
O66 Sc19 2.148088 1_555
O67 S10 1.478811 1_555
O67 Sc20 2.190592 1_555
O68 S11 1.489264 1_555
O68 Sc19 2.165501 1_555
O69 S12 1.492683 1_555
O69 Sc20 2.240437 1_555
O70 Si15 1.678988 1_555
O70 Sc19 1.918462 1_555
O71 Si16 1.669053 1_555
O71 Sc20 1.937761 1_555
O72 S17 1.483858 1_555
O72 Sc0 2.320271 1_455
O73 Si17 1.655995 1_555
O73 Sc1 2.077749 1_555
O74 S13 1.494880 1_555
O74 Sc1 2.235434 1_555
O75 S14 1.491170 1_555
O75 Sc0 2.285362 1_555
O76 S15 1.475284 1_555
O76 Sc0 2.309483 1_445
O77 S16 1.478857 1_555
O77 Sc1 2.260489 1_545
O78 S9 1.500256 1_555
O78 Sc2 2.222542 1_445
O79 S10 1.502834 1_555
O79 Sc3 2.197075 1_545
O80 S11 1.495070 1_555
O80 Sc2 2.326545 1_455
O81 S12 1.513954 1_555
O81 Sc3 2.197377 1_555
O82 Si15 1.631200 1_555
O82 Sc3 2.016011 1_555
O83 Si16 1.638060 1_555
O83 Sc2 2.021648 1_555
O84 S4 1.503388 1_555
O84 Sc4 2.192157 1_555
O85 Si8 1.687908 1_555
O86 Si9 1.673879 1_555
O87 S5 1.480707 1_555
O87 Sc4 2.170780 1_555
O88 Si10 1.636427 1_555
O88 Sc4 2.071338 1_565
O89 Si11 1.704857 1_555
O90 Si12 1.685438 1_555
O91 Si13 1.710783 1_555
O92 S6 1.527414 1_555
O93 S7 1.519782 1_555
O94 S8 1.505468 1_555
O95 Si14 1.668220 1_555
O96 S3 1.471498 1_555
O96 Sc5 2.306743 1_555
O97 Si7 1.626589 1_555
O97 Sc6 2.121333 1_555
O98 Si5 1.638493 1_555
O98 Sc5 2.046258 1_555
O99 Si6 1.663449 1_555
O99 Sc6 2.082602 1_555
O100 S2 1.483606 1_555
O100 Sc5 2.326336 1_555
O101 S1 1.499111 1_655
O101 Sc6 2.263683 1_555
O102 Si1 1.631192 1_555
O102 Sc7 2.047992 1_555
O103 Si2 1.635745 1_555
O103 Sc8 2.086419 1_555
O104 Si4 1.634442 1_555
O104 Sc7 2.068101 1_555
O105 Si3 1.633218 1_555
O105 Sc8 2.124519 1_555
O106 Si0 1.613384 1_555
O106 Sc7 2.115982 1_555
O107 S0 1.486341 1_555
O107 Sc8 2.383715 1_555
O108 Si15 1.667265 1_555
O108 Sc9 2.003426 1_555
O109 Si16 1.670477 1_555
O109 Sc10 2.023684 1_555
O110 S10 1.485676 1_555
O110 Sc9 2.191161 1_555
O111 S9 1.468848 1_655
O111 Sc10 2.325091 1_555
O112 S11 1.494684 1_545
O112 Sc9 2.391397 1_555
O113 S12 1.493921 1_545
O113 Sc10 2.387560 1_555
O114 S13 1.470013 1_545
O114 Sc11 2.311320 1_555
O115 S14 1.491116 1_545
O115 Sc12 2.295237 1_555
O116 S15 1.492594 1_555
O116 Sc11 2.277941 1_555
O117 S16 1.491025 1_555
O117 Sc12 2.251608 1_555
O118 Si17 1.662185 1_555
O118 Sc11 2.068340 1_555
O119 S17 1.499181 1_655
O119 Sc12 2.185704 1_555
O120 S8 1.485113 1_555
O120 Sc13 2.242069 1_555
O121 Si14 1.640170 1_555
O121 Sc14 2.045729 1_555
O122 Si13 1.617057 1_455
O122 Sc13 2.042165 1_555
O123 Si12 1.616729 1_555
O123 Sc14 2.032287 1_555
O124 S6 1.480213 1_565
O124 Sc13 2.196438 1_555
O125 S7 1.490853 1_565
O125 Sc14 2.247978 1_555
O126 Si9 1.638732 1_565
O126 Sc15 2.017187 1_555
O127 S5 1.493557 1_565
O127 Sc16 2.240257 1_555
O128 Si10 1.670399 1_555
O128 Sc15 2.016604 1_555
O129 Si11 1.629407 1_555
O129 Sc16 2.158812 1_555
O130 Si8 1.629453 1_455
O130 Sc15 2.037206 1_555
O131 S4 1.484290 1_555
O131 Sc16 2.198923 1_555
O132 Si0 1.635378 1_565
O132 Sc17 2.022336 1_555
O133 S0 1.496110 1_565
O133 Sc18 2.297469 1_555
O134 Si1 1.644295 1_555
O134 Sc17 2.028547 1_555
O135 Si2 1.632413 1_555
O135 Sc18 2.162681 1_555
O136 Si3 1.645172 1_455
O136 Sc17 2.033830 1_555
O137 Si4 1.649722 1_555
O137 Sc18 2.066700 1_555
O138 Si5 1.677335 1_555
O138 Sc19 2.105895 1_555
O139 Si6 1.643226 1_555
O139 Sc20 2.017491 1_555
O140 S1 1.485939 1_555
O140 Sc19 2.340950 1_555
O141 S2 1.480068 1_555
O141 Sc20 2.327102 1_555
O142 S3 1.510102 1_565
O142 Sc19 2.216647 1_555
O143 Si7 1.633970 1_565
O143 Sc20 2.117437 1_555
