# generated using pymatgen
data_MgTi8(NiO3)8
_symmetry_space_group_name_H-M   'P 1'
_cell_length_a   5.59926231
_cell_length_b   11.12940645
_cell_length_c   11.14131595
_cell_angle_alpha   55.07957328
_cell_angle_beta   54.30939131
_cell_angle_gamma   54.18624446
_symmetry_Int_Tables_number   1
_chemical_formula_structural   MgTi8(NiO3)8
_chemical_formula_sum   'Mg1 Ti8 Ni8 O24'
_cell_volume   428.20545854
_cell_formula_units_Z   1
loop_
 _symmetry_equiv_pos_site_id
 _symmetry_equiv_pos_as_xyz
  1  'x, y, z'
loop_
 _atom_site_type_symbol
 _atom_site_label
 _atom_site_symmetry_multiplicity
 _atom_site_fract_x
 _atom_site_fract_y
 _atom_site_fract_z
 _atom_site_occupancy
  Mg  Mg0  1  0.27705000  0.67723000  0.14582600  1
  Ti  Ti0  1  0.36304400  0.16215200  0.17226900  1
  Ti  Ti1  1  0.13466800  0.07169700  0.57574100  1
  Ti  Ti2  1  0.00975600  0.51232400  0.01309000  1
  Ti  Ti3  1  0.13961800  0.56030400  0.58442500  1
  Ti  Ti4  1  0.85465200  0.42588800  0.42448000  1
  Ti  Ti5  1  0.80012800  0.41879300  0.93246100  1
  Ti  Ti6  1  0.87875700  0.92445000  0.41962000  1
  Ti  Ti7  1  0.84745300  0.92457200  0.91978900  1
  Ni  Ni0  1  0.14422200  0.06929000  0.06959000  1
  Ni  Ni1  1  0.51003000  0.72970700  0.24059100  1
  Ni  Ni2  1  0.35248300  0.17018800  0.67418600  1
  Ni  Ni3  1  0.64223900  0.31662000  0.33386300  1
  Ni  Ni4  1  0.35698600  0.67422200  0.66972000  1
  Ni  Ni5  1  0.64688400  0.31875500  0.81597600  1
  Ni  Ni6  1  0.65990200  0.82343400  0.33846300  1
  Ni  Ni7  1  0.63272900  0.83834200  0.81231200  1
  O  O0  1  0.06253700  0.36722000  0.21454400  1
  O  O1  1  0.43847200  0.03615900  0.36907100  1
  O  O2  1  0.72391100  0.21978300  0.03416400  1
  O  O3  1  0.22136600  0.28263200  0.46948800  1
  O  O4  1  0.60550400  0.46793000  0.11633700  1
  O  O5  1  0.04724900  0.37675700  0.72334100  1
  O  O6  1  0.06649200  0.86342300  0.22837400  1
  O  O7  1  0.95696000  0.11192900  0.28186500  1
  O  O8  1  0.45678400  0.02906500  0.86792200  1
  O  O9  1  0.42540300  0.51149100  0.40032600  1
  O  O10  1  0.77346600  0.21412700  0.52413200  1
  O  O11  1  0.74508300  0.71957200  0.01678000  1
  O  O12  1  0.21456000  0.29316900  0.97928200  1
  O  O13  1  0.23398200  0.78135700  0.47530200  1
  O  O14  1  0.55848100  0.47123400  0.61392600  1
  O  O15  1  0.57020100  0.97788100  0.11291000  1
  O  O16  1  0.05811100  0.88549100  0.70678100  1
  O  O17  1  0.94627100  0.11476000  0.77079200  1
  O  O18  1  0.90242600  0.61755900  0.29512800  1
  O  O19  1  0.42724300  0.52175800  0.87838400  1
  O  O20  1  0.77222100  0.71558000  0.53450900  1
  O  O21  1  0.22201500  0.80473400  0.94405100  1
  O  O22  1  0.56276900  0.97690500  0.60137200  1
  O  O23  1  0.94839500  0.60485400  0.79407000  1
loop_
_geom_bond_atom_site_label_1
_geom_bond_atom_site_label_2
_geom_bond_distance
_geom_bond_site_symmetry_2
Mg0 O21 1.951062 1_554
Mg0 O18 1.975417 1_455
Mg0 O4 2.018384 1_555
Mg0 O6 2.141841 1_555
Mg0 O11 2.330274 1_555
Ni0 O8 1.989500 1_554
Ni0 O6 2.048579 1_545
Ni0 O2 2.052715 1_455
Ni0 O7 2.174183 1_455
Ni0 O15 2.213202 1_545
Ni0 O12 2.278513 1_554
Ni1 O18 2.057793 1_555
Ni1 O6 2.058671 1_555
Ni1 O11 2.069224 1_555
Ni1 O9 2.168969 1_555
Ni1 O13 2.350037 1_555
Ni1 O15 2.407785 1_555
Ni2 O8 1.995748 1_555
Ni2 O5 2.063312 1_555
Ni2 O10 2.098884 1_555
Ni2 O22 2.142666 1_545
Ni2 O17 2.176634 1_455
Ni2 O3 2.217462 1_555
Ni3 O3 2.052738 1_555
Ni3 O7 2.062111 1_555
Ni3 O4 2.062869 1_555
Ni3 O10 2.098324 1_555
Ni3 O9 2.105726 1_555
Ni3 O0 2.160137 1_655
Ni4 O16 2.049371 1_555
Ni4 O19 2.051408 1_555
Ni4 O20 2.063667 1_555
Ni4 O13 2.100160 1_555
Ni4 O14 2.137654 1_555
Ni4 O23 2.212165 1_455
Ni5 O17 2.021832 1_555
Ni5 O14 2.033672 1_555
Ni5 O12 2.079842 1_555
Ni5 O19 2.156239 1_555
Ni5 O5 2.176814 1_655
Ni5 O2 2.215939 1_556
Ni6 O18 2.046272 1_555
Ni6 O6 2.046473 1_655
Ni6 O1 2.062600 1_565
Ni6 O20 2.079619 1_555
Ni6 O13 2.116202 1_555
Ni6 O15 2.244740 1_555
Ni7 O21 2.005612 1_555
Ni7 O8 2.050894 1_565
Ni7 O22 2.067058 1_555
Ni7 O11 2.141037 1_556
Ni7 O23 2.174463 1_555
Ni7 O16 2.195356 1_655
O0 Ti2 1.948998 1_555
O0 Ti0 2.018322 1_555
O0 Ti4 2.221318 1_455
O1 Ti0 1.954403 1_555
O1 Ti1 2.009219 1_555
O1 Ti6 2.274174 1_545
O2 Ti0 1.902856 1_555
O2 Ti5 2.010065 1_554
O3 Ti4 1.861288 1_455
O3 Ti1 2.151665 1_555
O4 Ti5 1.914093 1_554
O4 Ti2 2.076262 1_655
O5 Ti3 1.875790 1_555
O5 Ti5 2.071350 1_455
O6 Ti6 2.077063 1_455
O7 Ti6 1.876079 1_545
O7 Ti0 2.107103 1_655
O8 Ti7 2.049329 1_545
O9 Ti3 1.868541 1_555
O9 Ti4 2.130296 1_555
O10 Ti1 1.869542 1_655
O10 Ti4 2.159374 1_555
O11 Ti2 1.885520 1_655
O11 Ti7 2.164896 1_554
O12 Ti5 2.095754 1_455
O12 Ti0 2.125586 1_556
O12 Ti2 2.163429 1_556
O13 Ti6 1.865155 1_455
O13 Ti3 2.270941 1_555
O14 Ti4 1.901501 1_555
O14 Ti3 2.096859 1_555
O15 Ti0 1.965317 1_565
O15 Ti7 1.969176 1_554
O16 Ti1 1.858877 1_565
O16 Ti7 2.127826 1_455
O17 Ti7 1.954040 1_545
O17 Ti1 1.997715 1_655
O18 Ti4 1.843180 1_555
O19 Ti2 1.934213 1_556
O19 Ti5 1.978052 1_555
O20 Ti3 1.897818 1_655
O20 Ti6 2.173324 1_555
O21 Ti7 1.795999 1_455
O22 Ti6 1.880393 1_555
O22 Ti1 2.105861 1_565
O23 Ti5 2.053653 1_555
O23 Ti3 2.152757 1_655
O23 Ti2 2.195492 1_656
