# generated using pymatgen
data_Ca4Ta2(SO4)9
_symmetry_space_group_name_H-M   'P 1'
_cell_length_a   9.16379353
_cell_length_b   9.16379321
_cell_length_c   23.36079154
_cell_angle_alpha   90.00000000
_cell_angle_beta   90.00000000
_cell_angle_gamma   120.00000114
_symmetry_Int_Tables_number   1
_chemical_formula_structural   Ca4Ta2(SO4)9
_chemical_formula_sum   'Ca8 Ta4 S18 O72'
_cell_volume   1698.90367724
_cell_formula_units_Z   2
loop_
 _symmetry_equiv_pos_site_id
 _symmetry_equiv_pos_as_xyz
  1  'x, y, z'
loop_
 _atom_site_type_symbol
 _atom_site_label
 _atom_site_symmetry_multiplicity
 _atom_site_fract_x
 _atom_site_fract_y
 _atom_site_fract_z
 _atom_site_occupancy
  Ca  Ca0  1  0.00000000  0.00000000  0.35633548  1
  Ca  Ca1  1  0.00000000  0.00000000  0.85633548  1
  Ca  Ca2  1  0.00000000  0.00000000  0.64326993  1
  Ca  Ca3  1  0.00000000  0.00000000  0.14326993  1
  Ca  Ca4  1  0.66666700  0.33333300  0.69386926  1
  Ca  Ca5  1  0.66666700  0.33333300  0.19386926  1
  Ca  Ca6  1  0.33333300  0.66666700  0.02482635  1
  Ca  Ca7  1  0.33333300  0.66666700  0.52482635  1
  Ta  Ta0  1  0.66666700  0.33333300  0.97881841  1
  Ta  Ta1  1  0.66666700  0.33333300  0.47881841  1
  Ta  Ta2  1  0.33333300  0.66666700  0.31689683  1
  Ta  Ta3  1  0.33333300  0.66666700  0.81689683  1
  S  S0  1  0.29087207  0.98368917  0.25394884  1
  S  S1  1  0.69281710  0.70912793  0.25394884  1
  S  S2  1  0.01631083  0.30718290  0.25394884  1
  S  S3  1  0.29087207  0.30718290  0.75394884  1
  S  S4  1  0.01631083  0.70912793  0.75394884  1
  S  S5  1  0.69281710  0.98368917  0.75394884  1
  S  S6  1  0.94320908  0.32615835  0.58030641  1
  S  S7  1  0.38295027  0.05679092  0.58030641  1
  S  S8  1  0.67384165  0.61704973  0.58030641  1
  S  S9  1  0.94320908  0.61704973  0.08030641  1
  S  S10  1  0.67384165  0.05679092  0.08030641  1
  S  S11  1  0.38295027  0.32615835  0.08030641  1
  S  S12  1  0.61243201  0.64759886  0.91745883  1
  S  S13  1  0.03516584  0.38756799  0.91745883  1
  S  S14  1  0.35240114  0.96483416  0.91745883  1
  S  S15  1  0.61243201  0.96483416  0.41745883  1
  S  S16  1  0.35240114  0.38756799  0.41745883  1
  S  S17  1  0.03516584  0.64759886  0.41745883  1
  O  O0  1  0.21292377  0.01203127  0.30382941  1
  O  O1  1  0.79910750  0.78707623  0.30382941  1
  O  O2  1  0.98796873  0.20089250  0.30382941  1
  O  O3  1  0.21292377  0.20089250  0.80382941  1
  O  O4  1  0.98796873  0.78707623  0.80382941  1
  O  O5  1  0.79910750  0.01203127  0.80382941  1
  O  O6  1  0.75220815  0.94031373  0.70227695  1
  O  O7  1  0.18810558  0.24779185  0.70227695  1
  O  O8  1  0.05968627  0.81189442  0.70227695  1
  O  O9  1  0.75220815  0.81189442  0.20227695  1
  O  O10  1  0.05968627  0.24779185  0.20227695  1
  O  O11  1  0.18810558  0.94031373  0.20227695  1
  O  O12  1  0.86335317  0.34762152  0.63099678  1
  O  O13  1  0.48426935  0.13664683  0.63099678  1
  O  O14  1  0.65237848  0.51573065  0.63099678  1
  O  O15  1  0.86335317  0.51573065  0.13099678  1
  O  O16  1  0.65237848  0.13664683  0.13099678  1
  O  O17  1  0.48426935  0.34762152  0.13099678  1
  O  O18  1  0.48374139  0.31383266  0.02611380  1
  O  O19  1  0.83009228  0.51625861  0.02611380  1
  O  O20  1  0.68616734  0.16990772  0.02611380  1
  O  O21  1  0.48374139  0.16990772  0.52611380  1
  O  O22  1  0.68616734  0.51625861  0.52611380  1
  O  O23  1  0.83009228  0.31383266  0.52611380  1
  O  O24  1  0.54266837  0.67904898  0.96833723  1
  O  O25  1  0.13637961  0.45733163  0.96833723  1
  O  O26  1  0.32095102  0.86362039  0.96833723  1
  O  O27  1  0.54266837  0.86362039  0.46833723  1
  O  O28  1  0.32095102  0.45733163  0.46833723  1
  O  O29  1  0.13637961  0.67904898  0.46833723  1
  O  O30  1  0.12434994  0.61683668  0.36720950  1
  O  O31  1  0.49248574  0.87565006  0.36720950  1
  O  O32  1  0.38316332  0.50751426  0.36720950  1
  O  O33  1  0.12434994  0.50751426  0.86720950  1
  O  O34  1  0.38316332  0.87565006  0.86720950  1
  O  O35  1  0.49248574  0.61683668  0.86720950  1
  O  O36  1  0.00212034  0.78286417  0.40427362  1
  O  O37  1  0.78074383  0.99787966  0.40427362  1
  O  O38  1  0.21713583  0.21925617  0.40427362  1
  O  O39  1  0.00212035  0.21925617  0.90427362  1
  O  O40  1  0.21713583  0.99787966  0.90427362  1
  O  O41  1  0.78074383  0.78286417  0.90427362  1
  O  O42  1  0.94452912  0.16753606  0.57953601  1
  O  O43  1  0.22300695  0.05547088  0.57953601  1
  O  O44  1  0.83246394  0.77699305  0.57953601  1
  O  O45  1  0.94452912  0.77699305  0.07953601  1
  O  O46  1  0.83246394  0.05547088  0.07953601  1
  O  O47  1  0.22300695  0.16753606  0.07953601  1
  O  O48  1  0.65164001  0.11708840  0.74675629  1
  O  O49  1  0.46544939  0.34835999  0.74675629  1
  O  O50  1  0.88291160  0.53455061  0.74675629  1
  O  O51  1  0.65164001  0.53455061  0.24675629  1
  O  O52  1  0.88291160  0.34835999  0.24675629  1
  O  O53  1  0.46544939  0.11708840  0.24675629  1
  O  O54  1  0.61956106  0.48507347  0.92429577  1
  O  O55  1  0.86551341  0.38043894  0.92429577  1
  O  O56  1  0.51492653  0.13448659  0.92429577  1
  O  O57  1  0.61956106  0.13448659  0.42429577  1
  O  O58  1  0.51492653  0.38043894  0.42429577  1
  O  O59  1  0.86551341  0.48507347  0.42429577  1
  O  O60  1  0.36793788  0.47359319  0.07032288  1
  O  O61  1  0.10565431  0.63206212  0.07032288  1
  O  O62  1  0.52640681  0.89434569  0.07032288  1
  O  O63  1  0.36793788  0.89434569  0.57032288  1
  O  O64  1  0.52640681  0.63206212  0.57032288  1
  O  O65  1  0.10565431  0.47359319  0.57032288  1
  O  O66  1  0.30325773  0.82184404  0.26966558  1
  O  O67  1  0.51858531  0.69674227  0.26966558  1
  O  O68  1  0.17815596  0.48141469  0.26966558  1
  O  O69  1  0.30325773  0.48141469  0.76966558  1
  O  O70  1  0.17815596  0.69674227  0.76966558  1
  O  O71  1  0.51858531  0.82184404  0.76966558  1
loop_
_geom_bond_atom_site_label_1
_geom_bond_atom_site_label_2
_geom_bond_distance
_geom_bond_site_symmetry_2
Ca0 O1 2.260239 1_445
Ca0 O2 2.260239 1_455
Ca0 O0 2.260239 1_555
Ca0 O38 2.291814 1_555
Ca0 O36 2.291814 1_545
Ca0 O37 2.291814 1_445
Ca1 O4 2.260239 1_445
Ca1 O3 2.260239 1_555
Ca1 O5 2.260239 1_455
Ca1 O39 2.291814 1_555
Ca1 O41 2.291814 1_445
Ca1 O40 2.291814 1_545
Ca2 O42 2.369091 1_455
Ca2 O44 2.369091 1_445
Ca2 O43 2.369092 1_555
Ca2 O7 2.472539 1_555
Ca2 O8 2.472539 1_545
Ca2 O6 2.472539 1_445
Ca3 O46 2.369091 1_455
Ca3 O45 2.369091 1_445
Ca3 O47 2.369092 1_555
Ca3 O10 2.472539 1_555
Ca3 O9 2.472539 1_445
Ca3 O11 2.472539 1_545
Ca4 O13 2.277496 1_555
Ca4 O14 2.277496 1_555
Ca4 O12 2.277496 1_555
Ca4 O48 2.280203 1_555
Ca4 O50 2.280203 1_555
Ca4 O49 2.280203 1_555
Ca5 O16 2.277496 1_555
Ca5 O15 2.277496 1_555
Ca5 O17 2.277496 1_555
Ca5 O53 2.280203 1_555
Ca5 O51 2.280203 1_555
Ca5 O52 2.280203 1_555
Ca6 O62 2.218473 1_555
Ca6 O60 2.218473 1_555
Ca6 O61 2.218473 1_555
Ca6 O25 2.283974 1_554
Ca6 O26 2.283974 1_554
Ca6 O24 2.283974 1_554
Ca7 O63 2.218473 1_555
Ca7 O65 2.218473 1_555
Ca7 O64 2.218473 1_555
Ca7 O28 2.283974 1_555
Ca7 O27 2.283974 1_555
Ca7 O29 2.283974 1_555
O0 S0 1.456368 1_545
O1 S1 1.456368 1_555
O2 S2 1.456368 1_655
O3 S3 1.456368 1_555
O4 S4 1.456368 1_655
O5 S5 1.456368 1_545
O6 S5 1.458633 1_555
O7 S3 1.458633 1_555
O8 S4 1.458633 1_555
O9 S1 1.458633 1_555
O10 S2 1.458633 1_555
O11 S0 1.458633 1_555
O12 S6 1.456150 1_555
O13 S7 1.456150 1_555
O14 S8 1.456150 1_555
O15 S9 1.456150 1_555
O16 S10 1.456150 1_555
O17 S11 1.456150 1_555
O18 S11 1.604021 1_555
O18 Ta0 1.939859 1_554
O19 S9 1.604021 1_555
O19 Ta0 1.939859 1_554
O20 S10 1.604021 1_555
O20 Ta0 1.939859 1_554
O21 S7 1.604021 1_555
O21 Ta1 1.939859 1_555
O22 S8 1.604021 1_555
O22 Ta1 1.939859 1_555
O23 S6 1.604021 1_555
O23 Ta1 1.939859 1_555
O24 S12 1.445229 1_555
O25 S13 1.445229 1_555
O26 S14 1.445229 1_555
O27 S15 1.445229 1_555
O28 S16 1.445229 1_555
O29 S17 1.445229 1_555
O30 S17 1.534839 1_555
O30 Ta2 2.093557 1_555
O31 S15 1.534839 1_555
O31 Ta2 2.093557 1_555
O32 S16 1.534839 1_555
O32 Ta2 2.093557 1_555
O33 S13 1.534839 1_555
O33 Ta3 2.093557 1_555
O34 S14 1.534839 1_555
O34 Ta3 2.093557 1_555
O35 S12 1.534839 1_555
O35 Ta3 2.093557 1_555
O36 S17 1.448587 1_555
O37 S15 1.448596 1_555
O38 S16 1.448593 1_555
O39 S13 1.448596 1_555
O40 S14 1.448587 1_555
O41 S12 1.448593 1_555
O42 S6 1.459779 1_555
O43 S7 1.459788 1_555
O44 S8 1.459783 1_555
O45 S9 1.459788 1_555
O46 S10 1.459779 1_555
O47 S11 1.459783 1_555
O48 S5 1.458169 1_545
O49 S3 1.458178 1_555
O50 S4 1.458175 1_655
O51 S1 1.458178 1_555
O52 S2 1.458169 1_655
O53 S0 1.458175 1_545
O54 S12 1.531416 1_555
O54 Ta0 2.083846 1_555
O55 S13 1.531398 1_655
O55 Ta0 2.083846 1_555
O56 S14 1.531407 1_545
O56 Ta0 2.083846 1_555
O57 S15 1.531398 1_545
O57 Ta1 2.083846 1_555
O58 S16 1.531416 1_555
O58 Ta1 2.083846 1_555
O59 S17 1.531407 1_655
O59 Ta1 2.083846 1_555
O60 S11 1.443799 1_555
O61 S9 1.443781 1_455
O62 S10 1.443788 1_565
O63 S7 1.443781 1_565
O64 S8 1.443799 1_555
O65 S6 1.443788 1_455
O66 S0 1.586080 1_555
O66 Ta2 1.925457 1_555
O67 S1 1.586089 1_555
O67 Ta2 1.925457 1_555
O68 S2 1.586085 1_555
O68 Ta2 1.925457 1_555
O69 S3 1.586089 1_555
O69 Ta3 1.925457 1_555
O70 S4 1.586080 1_555
O70 Ta3 1.925457 1_555
O71 S5 1.586085 1_555
O71 Ta3 1.925457 1_555
