# generated using pymatgen
data_Sr3MgV2O7
_symmetry_space_group_name_H-M   'P 1'
_cell_length_a   3.88144497
_cell_length_b   4.90007230
_cell_length_c   10.54881027
_cell_angle_alpha   103.42998827
_cell_angle_beta   100.60140468
_cell_angle_gamma   89.99999390
_symmetry_Int_Tables_number   1
_chemical_formula_structural   Sr3MgV2O7
_chemical_formula_sum   'Sr3 Mg1 V2 O7'
_cell_volume   191.62260978
_cell_formula_units_Z   1
loop_
 _symmetry_equiv_pos_site_id
 _symmetry_equiv_pos_as_xyz
  1  'x, y, z'
loop_
 _atom_site_type_symbol
 _atom_site_label
 _atom_site_symmetry_multiplicity
 _atom_site_fract_x
 _atom_site_fract_y
 _atom_site_fract_z
 _atom_site_occupancy
  Sr  Sr0  1  0.68018000  0.68018100  0.36036000  1
  Sr  Sr1  1  0.31981900  0.31981900  0.63964000  1
  Sr  Sr2  1  0.49999900  0.50000100  0.00000000  1
  Mg  Mg0  1  0.50000000  0.00000000  0.00000000  1
  V  V0  1  0.89089800  0.89090100  0.78179700  1
  V  V1  1  0.10910100  0.10910000  0.21820300  1
  O  O0  1  0.90528200  0.40528300  0.81056500  1
  O  O1  1  0.40639100  0.90638900  0.81277900  1
  O  O2  1  0.09471700  0.59471700  0.18943500  1
  O  O3  1  0.59361000  0.09361100  0.18722000  1
  O  O4  1  0.79852900  0.79852900  0.59706000  1
  O  O5  1  0.00000000  0.00000000  0.00000000  1
  O  O6  1  0.20147000  0.20147100  0.40293900  1
loop_
_geom_bond_atom_site_label_1
_geom_bond_atom_site_label_2
_geom_bond_distance
_geom_bond_site_symmetry_2
Mg0 O3 1.886267 1_555
Mg0 O1 1.886277 1_544
Mg0 O5 1.940722 1_555
Mg0 O5 1.940722 1_655
Mg0 Sr2 2.450031 1_545
Mg0 Sr2 2.450041 1_555
O0 V0 2.467111 1_545
O0 V0 2.467131 1_555
O0 Sr1 2.594609 1_655
O0 Sr1 2.594612 1_555
O0 Sr2 2.721964 1_656
O0 Sr2 2.721966 1_556
O1 V0 1.965658 1_555
O1 V0 1.965673 1_455
O1 Sr1 3.007589 1_565
O1 Sr1 3.007593 1_555
O2 V1 2.467116 1_565
O2 V1 2.467126 1_555
O2 Sr0 2.594609 1_455
O2 Sr0 2.594612 1_555
O2 Sr2 2.721963 1_555
O2 Sr2 2.721966 1_455
O3 V1 1.965665 1_655
O3 V1 1.965669 1_555
O3 Sr0 3.007597 1_545
O3 Sr0 3.007597 1_555
O4 V0 1.861250 1_555
O4 Sr0 2.384784 1_555
O4 Sr1 3.154857 1_655
O4 Sr1 3.154857 1_565
O4 Sr1 3.154857 1_555
O4 Sr1 3.154857 1_665
O5 V1 2.198424 1_555
O5 V0 2.198424 1_444
O6 V1 1.861240 1_555
O6 Sr1 2.384794 1_555
O6 Sr0 3.154852 1_555
O6 Sr0 3.154855 1_455
O6 Sr0 3.154856 1_545
O6 Sr0 3.154859 1_445
