# generated using pymatgen
data_La5Ti4O15
_symmetry_space_group_name_H-M   'P 1'
_cell_length_a   5.55829640
_cell_length_b   5.55829640
_cell_length_c   22.46108800
_cell_angle_alpha   90.00000000
_cell_angle_beta   90.00000000
_cell_angle_gamma   120.00000476
_symmetry_Int_Tables_number   1
_chemical_formula_structural   La5Ti4O15
_chemical_formula_sum   'La10 Ti8 O30'
_cell_volume   600.95894590
_cell_formula_units_Z   2
loop_
 _symmetry_equiv_pos_site_id
 _symmetry_equiv_pos_as_xyz
  1  'x, y, z'
loop_
 _atom_site_type_symbol
 _atom_site_label
 _atom_site_symmetry_multiplicity
 _atom_site_fract_x
 _atom_site_fract_y
 _atom_site_fract_z
 _atom_site_occupancy
  La  La0  1  0.33333300  0.66666700  0.71465500  1
  La  La1  1  0.66666700  0.33333300  0.78534500  1
  La  La2  1  0.66666700  0.33333300  0.28534500  1
  La  La3  1  0.33333300  0.66666700  0.21465500  1
  La  La4  1  0.33333300  0.66666700  0.89094700  1
  La  La5  1  0.66666700  0.33333300  0.60905300  1
  La  La6  1  0.66666700  0.33333300  0.10905300  1
  La  La7  1  0.33333300  0.66666700  0.39094700  1
  La  La8  1  0.00000000  0.00000000  0.50000000  1
  La  La9  1  0.00000000  0.00000000  0.00000000  1
  Ti  Ti0  1  0.00000000  0.00000000  0.65742700  1
  Ti  Ti1  1  0.00000000  0.00000000  0.84257300  1
  Ti  Ti2  1  0.00000000  0.00000000  0.34257300  1
  Ti  Ti3  1  0.00000000  0.00000000  0.15742700  1
  Ti  Ti4  1  0.33333300  0.66666700  0.55110400  1
  Ti  Ti5  1  0.66666700  0.33333300  0.94889600  1
  Ti  Ti6  1  0.66666700  0.33333300  0.44889600  1
  Ti  Ti7  1  0.33333300  0.66666700  0.05110400  1
  O  O0  1  0.11743300  0.77229300  0.80363200  1
  O  O1  1  0.22770700  0.34513900  0.80363200  1
  O  O2  1  0.65486100  0.88256700  0.80363200  1
  O  O3  1  0.34513900  0.22770700  0.69636800  1
  O  O4  1  0.88256700  0.65486100  0.69636800  1
  O  O5  1  0.77229300  0.11743300  0.69636800  1
  O  O6  1  0.88256700  0.22770700  0.19636800  1
  O  O7  1  0.77229300  0.65486100  0.19636800  1
  O  O8  1  0.34513900  0.11743300  0.19636800  1
  O  O9  1  0.65486100  0.77229300  0.30363200  1
  O  O10  1  0.11743300  0.34513900  0.30363200  1
  O  O11  1  0.22770700  0.88256700  0.30363200  1
  O  O12  1  0.20415200  0.87749900  0.59933600  1
  O  O13  1  0.12250100  0.32665300  0.59933600  1
  O  O14  1  0.67334700  0.79584800  0.59933600  1
  O  O15  1  0.32665300  0.12250100  0.90066400  1
  O  O16  1  0.79584800  0.67334700  0.90066400  1
  O  O17  1  0.87749900  0.20415200  0.90066400  1
  O  O18  1  0.50000000  0.00000000  0.00000000  1
  O  O19  1  0.00000000  0.50000000  0.00000000  1
  O  O20  1  0.50000000  0.50000000  0.00000000  1
  O  O21  1  0.50000000  0.00000000  0.50000000  1
  O  O22  1  0.50000000  0.50000000  0.50000000  1
  O  O23  1  0.00000000  0.50000000  0.50000000  1
  O  O24  1  0.12250100  0.79584800  0.09933600  1
  O  O25  1  0.20415200  0.32665300  0.09933600  1
  O  O26  1  0.67334700  0.87749900  0.09933600  1
  O  O27  1  0.32665300  0.20415200  0.40066400  1
  O  O28  1  0.87749900  0.67334700  0.40066400  1
  O  O29  1  0.79584800  0.12250100  0.40066400  1
loop_
_geom_bond_atom_site_label_1
_geom_bond_atom_site_label_2
_geom_bond_distance
_geom_bond_site_symmetry_2
La0 O5 2.507207 1_565
La0 O4 2.507208 1_455
La0 O3 2.507208 1_555
La0 O0 2.546252 1_555
La0 O2 2.546257 1_555
La0 O1 2.546258 1_555
La1 O0 2.507207 1_655
La1 O2 2.507208 1_545
La1 O1 2.507208 1_555
La1 O5 2.546252 1_555
La1 O4 2.546257 1_555
La1 O3 2.546258 1_555
La2 O11 2.507207 1_545
La2 O10 2.507208 1_655
La2 O9 2.507208 1_555
La2 O6 2.546252 1_555
La2 O8 2.546257 1_555
La2 O7 2.546258 1_555
La3 O6 2.507207 1_455
La3 O8 2.507208 1_565
La3 O7 2.507208 1_555
La3 O11 2.546252 1_555
La3 O10 2.546257 1_555
La3 O9 2.546258 1_555
La4 O0 2.517058 1_555
La4 O2 2.517063 1_555
La4 O1 2.517065 1_555
La4 O15 2.561742 1_565
La4 O17 2.561745 1_455
La4 O16 2.561748 1_555
La4 O19 2.928199 1_556
La4 O18 2.928199 1_566
La4 O20 2.928202 1_556
La4 O16 3.014150 1_455
La4 O17 3.014153 1_565
La4 O15 3.014155 1_555
La5 O5 2.517058 1_555
La5 O4 2.517063 1_555
La5 O3 2.517065 1_555
La5 O13 2.561742 1_655
La5 O12 2.561745 1_545
La5 O14 2.561748 1_555
La5 O23 2.928199 1_655
La5 O21 2.928199 1_555
La5 O22 2.928202 1_555
La5 O14 3.014150 1_545
La5 O12 3.014153 1_655
La5 O13 3.014155 1_555
La6 O6 2.517058 1_555
La6 O8 2.517063 1_555
La6 O7 2.517065 1_555
La6 O26 2.561742 1_545
La6 O24 2.561745 1_655
La6 O25 2.561748 1_555
La6 O19 2.928199 1_655
La6 O18 2.928199 1_555
La6 O20 2.928202 1_555
La6 O25 3.014150 1_655
La6 O24 3.014153 1_545
La6 O26 3.014155 1_555
La7 O11 2.517058 1_555
La7 O10 2.517063 1_555
La7 O9 2.517065 1_555
La7 O28 2.561742 1_455
La7 O29 2.561745 1_565
La7 O27 2.561748 1_555
La7 O21 2.928199 1_565
La7 O23 2.928199 1_555
La7 O22 2.928202 1_555
La7 O27 3.014150 1_565
La7 O29 3.014153 1_455
La7 O28 3.014155 1_555
La8 O14 2.738999 1_445
La8 O27 2.738999 1_555
La8 O13 2.738999 1_555
La8 O28 2.738999 1_445
La8 O12 2.738999 1_545
La8 O29 2.738999 1_455
La8 O22 2.779148 1_555
La8 O22 2.779148 1_445
La8 O23 2.779148 1_555
La8 O21 2.779148 1_455
La8 O21 2.779148 1_555
La8 O23 2.779148 1_545
La9 O25 2.738999 1_555
La9 O16 2.738999 1_444
La9 O26 2.738999 1_445
La9 O15 2.738999 1_554
La9 O24 2.738999 1_545
La9 O17 2.738999 1_454
La9 O20 2.779148 1_555
La9 O20 2.779148 1_445
La9 O19 2.779148 1_545
La9 O18 2.779148 1_455
La9 O18 2.779148 1_555
La9 O19 2.779148 1_555
O0 Ti1 1.902397 1_565
O1 Ti1 1.902393 1_555
O2 Ti1 1.902392 1_665
O3 Ti0 1.902393 1_555
O4 Ti0 1.902392 1_665
O5 Ti0 1.902397 1_655
O6 Ti3 1.902397 1_655
O7 Ti3 1.902393 1_665
O8 Ti3 1.902392 1_555
O9 Ti2 1.902393 1_665
O10 Ti2 1.902392 1_555
O11 Ti2 1.902397 1_565
O12 Ti4 1.975828 1_555
O12 Ti0 2.055811 1_565
O13 Ti4 1.975832 1_555
O13 Ti0 2.055811 1_555
O14 Ti4 1.975832 1_555
O14 Ti0 2.055811 1_665
O15 Ti5 1.975832 1_555
O15 Ti1 2.055811 1_555
O16 Ti5 1.975832 1_555
O16 Ti1 2.055811 1_665
O17 Ti5 1.975828 1_555
O17 Ti1 2.055811 1_655
O18 Ti7 1.972844 1_545
O18 Ti5 1.972844 1_554
O19 Ti7 1.972844 1_555
O19 Ti5 1.972844 1_454
O20 Ti7 1.972848 1_555
O20 Ti5 1.972848 1_554
O21 Ti4 1.972844 1_545
O21 Ti6 1.972844 1_555
O22 Ti4 1.972848 1_555
O22 Ti6 1.972848 1_555
O23 Ti4 1.972844 1_555
O23 Ti6 1.972844 1_455
O24 Ti7 1.975828 1_555
O24 Ti3 2.055811 1_565
O25 Ti7 1.975832 1_555
O25 Ti3 2.055811 1_555
O26 Ti7 1.975832 1_555
O26 Ti3 2.055811 1_665
O27 Ti6 1.975832 1_555
O27 Ti2 2.055811 1_555
O28 Ti6 1.975832 1_555
O28 Ti2 2.055811 1_665
O29 Ti6 1.975828 1_555
O29 Ti2 2.055811 1_655
