# generated using pymatgen
data_Na10Hf5Zn3Si6(SO8)6
_symmetry_space_group_name_H-M   'P 1'
_cell_length_a   18.15028825
_cell_length_b   9.06820122
_cell_length_c   22.81857154
_cell_angle_alpha   90.18542843
_cell_angle_beta   89.75356186
_cell_angle_gamma   119.94247988
_symmetry_Int_Tables_number   1
_chemical_formula_structural   Na10Hf5Zn3Si6(SO8)6
_chemical_formula_sum   'Na30 Hf15 Zn9 Si18 S18 O144'
_cell_volume   3254.39924143
_cell_formula_units_Z   3
loop_
 _symmetry_equiv_pos_site_id
 _symmetry_equiv_pos_as_xyz
  1  'x, y, z'
loop_
 _atom_site_type_symbol
 _atom_site_label
 _atom_site_symmetry_multiplicity
 _atom_site_fract_x
 _atom_site_fract_y
 _atom_site_fract_z
 _atom_site_occupancy
  Na  Na0  1  0.31850052  0.00372568  0.24373543  1
  Na  Na1  1  0.19827799  0.37224121  0.24447034  1
  Na  Na2  1  0.69070694  0.36845260  0.24364081  1
  Na  Na3  1  0.99657915  0.64073092  0.24989139  1
  Na  Na4  1  0.31841396  0.61404852  0.75355637  1
  Na  Na5  1  0.81946421  0.62563775  0.74738504  1
  Na  Na6  1  0.99257819  0.36072920  0.74913761  1
  Na  Na7  1  0.49541553  0.37367322  0.74183322  1
  Na  Na8  1  0.18210072  0.01122972  0.74624521  1
  Na  Na9  1  0.68691767  0.01327488  0.74815854  1
  Na  Na10  1  0.64657408  0.34998141  0.57625385  1
  Na  Na11  1  0.32156687  0.68284961  0.07947884  1
  Na  Na12  1  0.82452311  0.68612461  0.08677518  1
  Na  Na13  1  0.16424676  0.31913385  0.92274932  1
  Na  Na14  1  0.99400026  0.30816033  0.42076857  1
  Na  Na15  1  0.16417546  0.02947098  0.41905221  1
  Na  Na16  1  0.66067619  0.02682427  0.41300079  1
  Na  Na17  1  0.84141542  0.66780896  0.41736340  1
  Na  Na18  1  0.00221157  0.00510367  0.49989167  1
  Na  Na19  1  0.49226586  0.01149983  0.49355591  1
  Na  Na20  1  0.00724610  0.02614023  0.99943783  1
  Na  Na21  1  0.50260050  0.02428738  0.99533324  1
  Na  Na22  1  0.34457747  0.35774828  0.83305899  1
  Na  Na23  1  0.83873500  0.33546158  0.82734135  1
  Na  Na24  1  0.33805178  0.36398774  0.32545846  1
  Na  Na25  1  0.83160430  0.33192476  0.32837251  1
  Na  Na26  1  0.16902207  0.66378725  0.15642055  1
  Na  Na27  1  0.66421669  0.66456268  0.15825926  1
  Na  Na28  1  0.16095082  0.65874278  0.65885164  1
  Na  Na29  1  0.65893218  0.66616959  0.65912500  1
  Hf  Hf0  1  -0.00000187  0.99212733  0.35340687  1
  Hf  Hf1  1  0.99946497  0.00645629  0.84883328  1
  Hf  Hf2  1  0.50278123  0.99853523  0.85627752  1
  Hf  Hf3  1  0.00157591  0.00219982  0.65050229  1
  Hf  Hf4  1  0.50242950  0.00649773  0.64613775  1
  Hf  Hf5  1  0.00493443  0.99729919  0.14722344  1
  Hf  Hf6  1  0.50026958  0.00298006  0.14622090  1
  Hf  Hf7  1  0.33410444  0.33880000  0.97900733  1
  Hf  Hf8  1  0.82938318  0.32635918  0.98139927  1
  Hf  Hf9  1  0.33750349  0.33764116  0.48435027  1
  Hf  Hf10  1  0.83258618  0.33532722  0.47819230  1
  Hf  Hf11  1  0.17158212  0.66442836  0.31604819  1
  Hf  Hf12  1  0.67303040  0.67073830  0.31620256  1
  Hf  Hf13  1  0.15889107  0.64634668  0.81833212  1
  Hf  Hf14  1  0.65984119  0.65715035  0.81251742  1
  Zn  Zn0  1  0.49769381  0.99897353  0.35014890  1
  Zn  Zn1  1  0.34278937  0.35733375  0.68149155  1
  Zn  Zn2  1  0.83633330  0.33587330  0.69160238  1
  Zn  Zn3  1  0.32555796  0.34878715  0.18570549  1
  Zn  Zn4  1  0.82724176  0.34404422  0.17847409  1
  Zn  Zn5  1  0.16836017  0.62456341  0.01276151  1
  Zn  Zn6  1  0.65518268  0.62347706  0.01884604  1
  Zn  Zn7  1  0.15804570  0.65096564  0.50984615  1
  Zn  Zn8  1  0.65967907  0.64386621  0.51267659  1
  Si  Si0  1  0.15017891  0.99815554  0.25157057  1
  Si  Si1  1  0.35906018  0.71226095  0.25256192  1
  Si  Si2  1  0.85160480  0.70244333  0.24780551  1
  Si  Si3  1  0.15038215  0.29552172  0.74898126  1
  Si  Si4  1  0.64632837  0.29023734  0.74953481  1
  Si  Si5  1  0.00389596  0.71186334  0.75044027  1
  Si  Si6  1  0.49850188  0.70975859  0.74953968  1
  Si  Si7  1  0.85226563  0.99717349  0.74883472  1
  Si  Si8  1  0.48374847  0.33924369  0.58682217  1
  Si  Si9  1  0.18344216  0.33358985  0.08419474  1
  Si  Si10  1  0.68431857  0.33731853  0.08562709  1
  Si  Si11  1  0.31603409  0.67354693  0.91918548  1
  Si  Si12  1  0.01319227  0.36193340  0.91857862  1
  Si  Si13  1  0.51799197  0.36972796  0.91686049  1
  Si  Si14  1  0.80980917  0.95344568  0.42138964  1
  Si  Si15  1  0.16953602  0.37178749  0.41788004  1
  Si  Si16  1  0.65793189  0.35685772  0.41767230  1
  Si  Si17  1  0.02389071  0.66905612  0.41763328  1
  S  S0  1  0.64640854  0.99625276  0.25047484  1
  S  S1  1  0.99827362  0.28982770  0.25006605  1
  S  S2  1  0.50099973  0.29524021  0.25043512  1
  S  S3  1  0.35428360  0.99591979  0.75100429  1
  S  S4  1  0.98011043  0.33277676  0.58419223  1
  S  S5  1  0.18633077  0.03611295  0.58390048  1
  S  S6  1  0.68767696  0.03881649  0.58430682  1
  S  S7  1  0.33044960  0.63013677  0.58419136  1
  S  S8  1  0.83648970  0.63017090  0.58490240  1
  S  S9  1  0.48019515  0.62522733  0.08561436  1
  S  S10  1  0.98048550  0.62443631  0.08409627  1
  S  S11  1  0.33354812  0.04366288  0.08639740  1
  S  S12  1  0.83309731  0.04322943  0.08477500  1
  S  S13  1  0.81489928  0.66848240  0.91860667  1
  S  S14  1  0.16600427  0.95632766  0.91827997  1
  S  S15  1  0.66866748  0.95658298  0.91914278  1
  S  S16  1  0.31407706  0.96163673  0.41957439  1
  S  S17  1  0.51987876  0.66384141  0.41755046  1
  O  O0  1  0.10313173  0.03029371  0.30798552  1
  O  O1  1  0.61161332  0.02684675  0.30492754  1
  O  O2  1  0.41386516  0.81399835  0.30828718  1
  O  O3  1  0.90990241  0.80103853  0.30533626  1
  O  O4  1  0.48953738  0.19528852  0.30352936  1
  O  O5  1  0.98838385  0.19239803  0.30465143  1
  O  O6  1  0.10533598  0.17906833  0.80754801  1
  O  O7  1  0.59794394  0.16304287  0.80349134  1
  O  O8  1  0.48324381  0.80379369  0.80458273  1
  O  O9  1  0.98654452  0.80189116  0.80645387  1
  O  O10  1  0.40869867  0.02210483  0.80254074  1
  O  O11  1  0.91591492  0.03429270  0.80447050  1
  O  O12  1  0.39407063  0.96777419  0.69762653  1
  O  O13  1  0.89728501  0.95802393  0.69253308  1
  O  O14  1  0.08269067  0.20492694  0.69474460  1
  O  O15  1  0.58529990  0.20840544  0.69088883  1
  O  O16  1  0.02109147  0.83786726  0.69363462  1
  O  O17  1  0.51285753  0.83017113  0.69193161  1
  O  O18  1  0.40067780  0.83167224  0.19255696  1
  O  O19  1  0.89633965  0.81666213  0.18900212  1
  O  O20  1  0.01087733  0.20251672  0.19896539  1
  O  O21  1  0.51834340  0.21170972  0.19842981  1
  O  O22  1  0.08447006  0.96858743  0.19636543  1
  O  O23  1  0.59181110  0.98139651  0.19898297  1
  O  O24  1  0.43902677  0.35025406  0.64715175  1
  O  O25  1  0.93705435  0.34518748  0.63755053  1
  O  O26  1  0.23360165  0.11991534  0.63765140  1
  O  O27  1  0.73658586  0.12352863  0.63774960  1
  O  O28  1  0.31795861  0.53274309  0.63884611  1
  O  O29  1  0.82799097  0.52584766  0.63716588  1
  O  O30  1  0.44165772  0.52118264  0.13784014  1
  O  O31  1  0.94416147  0.52908042  0.13949905  1
  O  O32  1  0.33010564  0.12643638  0.14118184  1
  O  O33  1  0.82669221  0.12844542  0.13783568  1
  O  O34  1  0.23931672  0.36329547  0.14286433  1
  O  O35  1  0.73852293  0.37003931  0.14590024  1
  O  O36  1  0.23143945  0.31067040  0.02543332  1
  O  O37  1  0.73616408  0.31394424  0.02967291  1
  O  O38  1  0.42572385  0.54366801  0.03247629  1
  O  O39  1  0.92242285  0.53159486  0.03382180  1
  O  O40  1  0.34637358  0.15227249  0.03429798  1
  O  O41  1  0.84551464  0.15196797  0.03168296  1
  O  O42  1  0.23078123  0.14506703  0.53042908  1
  O  O43  1  0.73028302  0.15091617  0.53132267  1
  O  O44  1  0.34105447  0.53665847  0.53285130  1
  O  O45  1  0.84364759  0.54112356  0.53056992  1
  O  O46  1  0.42177191  0.31787575  0.53004264  1
  O  O47  1  0.92871933  0.31768011  0.53032196  1
  O  O48  1  0.27985632  0.70715966  0.97895588  1
  O  O49  1  0.77794501  0.69591506  0.97186942  1
  O  O50  1  0.07605725  0.44885117  0.97207096  1
  O  O51  1  0.57489409  0.45318655  0.97288401  1
  O  O52  1  0.15567263  0.85498109  0.96931339  1
  O  O53  1  0.66035285  0.85702140  0.97054270  1
  O  O54  1  0.27300344  0.85848869  0.47121040  1
  O  O55  1  0.76705883  0.82762285  0.47538597  1
  O  O56  1  0.14623987  0.45102758  0.47288444  1
  O  O57  1  0.64821268  0.43409752  0.47833051  1
  O  O58  1  0.08669125  0.72344666  0.47222454  1
  O  O59  1  0.57232386  0.69124852  0.46953683  1
  O  O60  1  0.06279877  0.62891995  0.35808792  1
  O  O61  1  0.55982513  0.63680432  0.36371865  1
  O  O62  1  0.25975338  0.88233437  0.36490510  1
  O  O63  1  0.74781844  0.87286070  0.36248520  1
  O  O64  1  0.18265129  0.48454827  0.35761902  1
  O  O65  1  0.67906808  0.48895296  0.36063338  1
  O  O66  1  0.05571640  0.47271015  0.85651869  1
  O  O67  1  0.56115180  0.48649641  0.85685298  1
  O  O68  1  0.17635400  0.87769887  0.86253714  1
  O  O69  1  0.68030343  0.88132400  0.86349505  1
  O  O70  1  0.25385305  0.64002003  0.86067798  1
  O  O71  1  0.76273008  0.64627526  0.86500861  1
  O  O72  1  0.00589252  0.82928774  0.40998625  1
  O  O73  1  0.51034987  0.81529900  0.41105521  1
  O  O74  1  0.40021961  0.99007085  0.41199361  1
  O  O75  1  0.90627454  0.98619767  0.40899213  1
  O  O76  1  0.08257975  0.18235877  0.40906148  1
  O  O77  1  0.58296006  0.16126668  0.40699953  1
  O  O78  1  0.01006332  0.17632007  0.91210377  1
  O  O79  1  0.50872267  0.18193290  0.90793127  1
  O  O80  1  0.09161667  0.98523809  0.91150140  1
  O  O81  1  0.59312223  0.97993080  0.91272635  1
  O  O82  1  0.41191597  0.83102042  0.91020189  1
  O  O83  1  0.90208611  0.81630793  0.91079976  1
  O  O84  1  0.49248501  0.16194706  0.58613254  1
  O  O85  1  0.98619763  0.17281879  0.58517800  1
  O  O86  1  0.10007128  0.02463239  0.58455013  1
  O  O87  1  0.60239749  0.03398570  0.58653026  1
  O  O88  1  0.41121925  0.79831023  0.58698511  1
  O  O89  1  0.91617593  0.79946726  0.58603738  1
  O  O90  1  0.48137186  0.79514709  0.09068090  1
  O  O91  1  0.97808762  0.79161126  0.08650138  1
  O  O92  1  0.41242796  0.02043374  0.08850367  1
  O  O93  1  0.91050667  0.02108905  0.08707862  1
  O  O94  1  0.08729055  0.15961390  0.08832764  1
  O  O95  1  0.59019505  0.16323380  0.09006011  1
  O  O96  1  0.34318626  0.14523378  0.74585658  1
  O  O97  1  0.84250253  0.16438958  0.74427299  1
  O  O98  1  0.24223960  0.30777154  0.74172254  1
  O  O99  1  0.74066940  0.31431381  0.74390082  1
  O  O100  1  0.41706348  0.51798746  0.74846966  1
  O  O101  1  0.92164013  0.52330927  0.74493573  1
  O  O102  1  0.34326316  0.52002628  0.24897393  1
  O  O103  1  0.84539701  0.51445936  0.24801482  1
  O  O104  1  0.42485707  0.30804523  0.23998083  1
  O  O105  1  0.92516557  0.31534433  0.24341100  1
  O  O106  1  0.24601064  0.15747826  0.24766482  1
  O  O107  1  0.73301770  0.14457495  0.24283603  1
  O  O108  1  0.31598528  0.48844953  0.92274809  1
  O  O109  1  0.82204260  0.50994023  0.92354944  1
  O  O110  1  0.42186518  0.34589062  0.92387669  1
  O  O111  1  0.91917669  0.34449162  0.92419517  1
  O  O112  1  0.24357269  0.13229622  0.92138216  1
  O  O113  1  0.74576265  0.13274712  0.92271129  1
  O  O114  1  0.31705328  0.13184927  0.42380255  1
  O  O115  1  0.82148079  0.14626094  0.42701897  1
  O  O116  1  0.25020253  0.33777407  0.42496553  1
  O  O117  1  0.75030096  0.35112929  0.42338797  1
  O  O118  1  0.43301721  0.50771856  0.42342125  1
  O  O119  1  0.92846531  0.49820918  0.42627229  1
  O  O120  1  0.17809255  0.50859823  0.08261080  1
  O  O121  1  0.68325848  0.51679589  0.08147407  1
  O  O122  1  0.06676550  0.65991557  0.07570889  1
  O  O123  1  0.56807025  0.66245682  0.07796516  1
  O  O124  1  0.25906118  0.87329269  0.08090800  1
  O  O125  1  0.75783872  0.87331088  0.07726828  1
  O  O126  1  0.17803773  0.86714155  0.57766058  1
  O  O127  1  0.67600656  0.87050710  0.57707799  1
  O  O128  1  0.25692034  0.65455006  0.57574892  1
  O  O129  1  0.76056378  0.64750587  0.58112406  1
  O  O130  1  0.06552802  0.48455239  0.58053899  1
  O  O131  1  0.58019506  0.50283684  0.58161415  1
  O  O132  1  0.15137312  0.81811261  0.25675824  1
  O  O133  1  0.64881380  0.83387329  0.25339457  1
  O  O134  1  0.26122485  0.69475658  0.25595948  1
  O  O135  1  0.75412316  0.67484521  0.25429308  1
  O  O136  1  0.07848908  0.46096317  0.25377197  1
  O  O137  1  0.57949048  0.46741689  0.25466018  1
  O  O138  1  0.15961216  0.48642315  0.75491169  1
  O  O139  1  0.65535184  0.47979749  0.75665822  1
  O  O140  1  0.09306028  0.70457536  0.75589000  1
  O  O141  1  0.58756185  0.70158608  0.75574383  1
  O  O142  1  0.26909534  0.83982904  0.75673370  1
  O  O143  1  0.76000339  0.82633353  0.75876482  1
loop_
_geom_bond_atom_site_label_1
_geom_bond_atom_site_label_2
_geom_bond_distance
_geom_bond_site_symmetry_2
Na0 O106 2.347877 1_555
Na0 O104 2.455918 1_555
Na0 O134 2.470532 1_545
Na0 O32 2.556842 1_555
Na0 O132 2.649824 1_545
Na0 O18 2.884280 1_545
Na0 O62 2.969193 1_545
Na0 O4 3.025579 1_555
Na1 O102 2.283070 1_555
Na1 O34 2.445631 1_555
Na1 O106 2.496895 1_555
Na1 O134 2.567012 1_555
Na1 O136 2.675938 1_555
Na1 O64 2.837045 1_555
Na2 O35 2.387204 1_555
Na2 O135 2.430879 1_555
Na2 O103 2.436516 1_555
Na2 O107 2.503531 1_555
Na2 O137 2.597301 1_555
Na3 O103 2.388859 1_555
Na3 O132 2.448731 1_655
Na3 O105 2.566960 1_555
Na3 O136 2.701286 1_655
Na3 O31 2.705201 1_555
Na3 O60 2.776186 1_655
Na3 O22 2.854461 1_655
Na3 O3 2.905661 1_555
Na4 O100 2.352192 1_555
Na4 O98 2.421441 1_555
Na4 O138 2.513465 1_555
Na4 O142 2.612762 1_555
Na4 O28 2.716011 1_555
Na4 O70 2.765975 1_555
Na4 O8 2.853933 1_555
Na5 O99 2.447619 1_555
Na5 O101 2.453589 1_555
Na5 O143 2.549440 1_555
Na5 O139 2.594279 1_555
Na5 O29 2.699999 1_555
Na5 O13 2.899307 1_555
Na5 O71 2.909399 1_555
Na5 O9 2.958110 1_555
Na6 O101 2.395302 1_555
Na6 O97 2.400417 1_555
Na6 O138 2.657200 1_655
Na6 O66 2.682293 1_655
Na6 O140 2.719335 1_655
Na6 O25 2.719718 1_555
Na6 O11 2.861880 1_555
Na6 O14 2.913708 1_655
Na7 O24 2.357841 1_555
Na7 O100 2.369105 1_555
Na7 O96 2.493837 1_555
Na7 O139 2.585522 1_555
Na7 O141 2.602687 1_555
Na7 O67 2.854775 1_555
Na7 O15 2.944843 1_555
Na8 O98 2.346070 1_555
Na8 O140 2.430586 1_545
Na8 O96 2.545230 1_555
Na8 O26 2.657369 1_555
Na8 O142 2.724312 1_545
Na8 O16 2.807955 1_545
Na8 O6 2.881125 1_555
Na8 O68 2.900195 1_545
Na9 O99 2.399113 1_555
Na9 O97 2.448634 1_555
Na9 O141 2.486591 1_545
Na9 O143 2.634822 1_545
Na9 O27 2.693800 1_555
Na9 O7 2.864853 1_555
Na9 O69 2.871737 1_545
Na10 O131 2.247792 1_555
Na10 O57 2.358685 1_555
Na10 O129 2.449461 1_555
Na10 O84 2.452891 1_555
Na10 O87 2.572581 1_555
Na10 O15 2.880787 1_555
Na11 O120 2.274805 1_555
Na11 O48 2.463336 1_554
Na11 O124 2.495145 1_555
Na11 O90 2.563479 1_555
Na11 O92 2.663204 1_565
Na11 O34 2.899628 1_555
Na11 O18 2.935270 1_555
Na11 O38 2.944973 1_555
Na12 O121 2.240036 1_555
Na12 O91 2.453998 1_555
Na12 O125 2.539459 1_555
Na12 O93 2.632474 1_565
Na12 O19 2.647577 1_555
Na12 O49 2.773608 1_554
Na12 O35 2.830740 1_555
Na13 O108 2.391907 1_555
Na13 O78 2.439993 1_555
Na13 O80 2.642880 1_545
Na13 O50 2.658567 1_555
Na13 O36 2.665060 1_556
Na13 O112 2.716429 1_555
Na13 O6 2.883332 1_555
Na13 O70 2.898462 1_555
Na14 O76 2.404758 1_655
Na14 O119 2.538590 1_555
Na14 O75 2.547466 1_545
Na14 O56 2.678166 1_655
Na14 O115 2.718278 1_555
Na14 O47 2.781340 1_555
Na14 O5 2.830265 1_555
Na14 O60 2.907118 1_655
Na15 O116 2.431892 1_555
Na15 O114 2.450181 1_555
Na15 O76 2.494411 1_555
Na15 O72 2.527483 1_545
Na15 O58 2.694854 1_545
Na15 O0 2.771870 1_555
Na15 O42 2.786300 1_555
Na15 O62 2.932198 1_545
Na16 O77 2.283471 1_555
Na16 O73 2.429360 1_545
Na16 O117 2.564027 1_555
Na16 O115 2.577607 1_555
Na16 O1 2.625569 1_555
Na16 O63 2.820986 1_545
Na16 O59 2.938082 1_545
Na16 O43 2.956780 1_555
Na17 O117 2.502059 1_555
Na17 O75 2.523292 1_555
Na17 O72 2.591922 1_655
Na17 O119 2.708046 1_555
Na17 O55 2.756679 1_555
Na17 O3 2.834247 1_555
Na17 O45 2.839182 1_555
Na17 O65 2.870087 1_555
Na18 O85 2.569466 1_455
Na18 O86 2.575127 1_555
Na18 O76 2.581119 1_555
Na18 O72 2.615159 1_545
Na18 O89 2.621128 1_445
Na18 O75 2.663553 1_445
Na19 O74 2.448067 1_545
Na19 O77 2.492560 1_555
Na19 O84 2.509942 1_555
Na19 O73 2.715365 1_545
Na19 O88 2.758121 1_545
Na19 O87 2.857446 1_555
Na20 O78 2.403302 1_555
Na20 O94 2.438015 1_556
Na20 O93 2.640938 1_456
Na20 O80 2.654193 1_545
Na20 O91 2.764910 1_446
Na20 O83 2.781615 1_445
Na21 O79 2.427251 1_555
Na21 O82 2.584593 1_545
Na21 O95 2.607619 1_556
Na21 O81 2.653774 1_545
Na21 O92 2.667071 1_556
Na21 O90 2.902166 1_546
Na22 O100 2.378226 1_555
Na22 O110 2.539876 1_555
Na22 O108 2.540025 1_555
Na22 O98 2.680701 1_555
Na22 O96 2.756977 1_555
Na22 O112 2.802835 1_555
Na23 O97 2.467778 1_555
Na23 O101 2.477783 1_555
Na23 O99 2.552670 1_555
Na23 O111 2.632499 1_555
Na23 O113 2.803625 1_555
Na23 O109 2.804457 1_555
Na24 O102 2.222174 1_555
Na24 O106 2.515915 1_555
Na24 O104 2.703531 1_555
Na24 O116 2.710821 1_555
Na24 O118 2.727320 1_555
Na24 O114 2.972336 1_555
Na25 O103 2.401429 1_555
Na25 O107 2.621387 1_555
Na25 O105 2.624805 1_555
Na25 O117 2.671192 1_555
Na25 O115 2.765397 1_555
Na25 O119 2.778597 1_555
Na26 O120 2.248944 1_555
Na26 O124 2.479259 1_555
Na26 O122 2.608027 1_555
Na26 O134 2.756423 1_555
Na26 O132 2.779145 1_555
Na26 O136 2.827667 1_555
Na27 O121 2.329560 1_555
Na27 O123 2.529159 1_555
Na27 O125 2.582804 1_555
Na27 O135 2.711298 1_555
Na27 O133 2.747676 1_555
Na27 O137 2.766162 1_555
Na28 O130 2.442419 1_555
Na28 O126 2.555885 1_555
Na28 O128 2.582383 1_555
Na28 O140 2.660071 1_555
Na28 O138 2.689028 1_555
Na28 O142 2.886928 1_555
Na29 O131 2.292623 1_555
Na29 O127 2.545365 1_555
Na29 O129 2.623119 1_555
Na29 O141 2.651050 1_555
Na29 O139 2.779775 1_555
Na29 O143 2.828239 1_555
Hf0 O72 2.007498 1_555
Hf0 O0 2.009212 1_565
Hf0 O3 2.013556 1_455
Hf0 O76 2.063079 1_565
Hf0 O75 2.096667 1_455
Hf0 O5 2.231060 1_465
Hf1 O11 1.945531 1_555
Hf1 O9 1.996846 1_545
Hf1 O6 2.005364 1_655
Hf1 O78 2.046046 1_655
Hf1 O83 2.246872 1_545
Hf1 O80 2.285401 1_645
Hf2 O79 1.994019 1_565
Hf2 O8 2.000196 1_555
Hf2 O82 2.008804 1_555
Hf2 O7 2.020184 1_565
Hf2 O81 2.161484 1_555
Hf2 O10 2.202107 1_565
Hf3 O16 1.963230 1_545
Hf3 O14 1.966025 1_555
Hf3 O13 1.973150 1_445
Hf3 O89 2.259132 1_445
Hf3 O86 2.262290 1_555
Hf3 O85 2.267880 1_455
Hf4 O15 1.977227 1_555
Hf4 O17 1.999766 1_545
Hf4 O84 2.040365 1_555
Hf4 O12 2.159896 1_545
Hf4 O87 2.175742 1_555
Hf4 O88 2.238181 1_545
Hf5 O22 1.949411 1_555
Hf5 O94 2.001542 1_565
Hf5 O19 2.061047 1_455
Hf5 O20 2.157608 1_565
Hf5 O91 2.172125 1_455
Hf5 O93 2.293195 1_465
Hf6 O18 1.997413 1_545
Hf6 O95 2.011063 1_555
Hf6 O21 2.116249 1_555
Hf6 O92 2.138428 1_555
Hf6 O23 2.142843 1_545
Hf6 O90 2.149129 1_545
Hf7 O110 2.001255 1_555
Hf7 O108 2.014496 1_555
Hf7 O36 2.042026 1_556
Hf7 O38 2.150367 1_556
Hf7 O112 2.206063 1_555
Hf7 O40 2.212391 1_556
Hf8 O37 1.970630 1_556
Hf8 O111 2.025496 1_555
Hf8 O41 2.092841 1_556
Hf8 O113 2.126414 1_555
Hf8 O39 2.147543 1_556
Hf8 O109 2.183765 1_555
Hf9 O46 1.935759 1_555
Hf9 O44 2.087489 1_555
Hf9 O116 2.089827 1_555
Hf9 O42 2.127166 1_555
Hf9 O118 2.154319 1_555
Hf9 O114 2.196688 1_555
Hf10 O115 1.996928 1_555
Hf10 O119 2.010310 1_555
Hf10 O117 2.011426 1_555
Hf10 O45 2.136606 1_555
Hf10 O43 2.146665 1_555
Hf10 O47 2.186980 1_555
Hf11 O64 1.984884 1_555
Hf11 O134 2.034571 1_555
Hf11 O60 2.067222 1_555
Hf11 O132 2.105686 1_555
Hf11 O62 2.133750 1_555
Hf11 O136 2.273805 1_555
Hf12 O63 1.957947 1_555
Hf12 O65 1.987321 1_555
Hf12 O135 2.022663 1_555
Hf12 O61 2.200894 1_555
Hf12 O133 2.259184 1_555
Hf12 O137 2.265586 1_555
Hf13 O66 1.948517 1_555
Hf13 O70 2.005274 1_555
Hf13 O138 2.050070 1_555
Hf13 O140 2.094273 1_555
Hf13 O68 2.201037 1_555
Hf13 O142 2.354447 1_555
Hf14 O67 1.963221 1_555
Hf14 O139 2.018578 1_555
Hf14 O141 2.026681 1_555
Hf14 O143 2.090918 1_555
Hf14 O69 2.204149 1_555
Hf14 O71 2.266199 1_555
O0 Si0 1.645546 1_545
O1 S0 1.478387 1_545
O1 Zn0 2.205802 1_545
O2 Si1 1.595209 1_555
O2 Zn0 1.869625 1_555
O3 Si2 1.643871 1_555
O4 S2 1.466058 1_555
O4 Zn0 2.144637 1_545
O5 S1 1.486983 1_555
O6 Si3 1.645442 1_555
O7 Si4 1.614377 1_555
O8 Si6 1.614684 1_555
O9 Si5 1.626588 1_655
O10 S3 1.479478 1_545
O11 Si7 1.637461 1_545
O12 S3 1.498194 1_555
O13 Si7 1.649796 1_555
O14 Si3 1.647722 1_555
O15 Si4 1.659588 1_555
O16 Si5 1.653274 1_555
O17 Si6 1.646365 1_555
O18 Si1 1.673946 1_555
O19 Si2 1.640919 1_555
O20 S1 1.487078 1_455
O21 S2 1.519896 1_555
O22 Si0 1.665123 1_555
O23 S0 1.502141 1_555
O24 Si8 1.623074 1_555
O24 Zn1 1.941407 1_555
O25 S4 1.478024 1_555
O25 Zn2 2.167377 1_555
O26 S5 1.473135 1_555
O26 Zn1 2.303754 1_555
O27 S6 1.479121 1_555
O27 Zn2 2.240393 1_555
O28 S7 1.480404 1_555
O28 Zn1 2.099915 1_555
O29 S8 1.483591 1_555
O29 Zn2 2.193067 1_555
O30 S9 1.463196 1_555
O30 Zn3 2.186338 1_555
O31 S10 1.487084 1_555
O31 Zn4 2.132763 1_555
O32 S11 1.473141 1_555
O32 Zn3 2.292752 1_555
O33 S12 1.469368 1_555
O33 Zn4 2.156681 1_555
O34 Si9 1.621711 1_555
O34 Zn3 1.908589 1_555
O35 Si10 1.632520 1_555
O35 Zn4 1.895094 1_555
O36 Si9 1.664002 1_555
O37 Si10 1.657606 1_555
O38 S9 1.506411 1_555
O39 S10 1.501302 1_555
O40 S11 1.487904 1_555
O41 S12 1.508093 1_555
O42 S5 1.522968 1_555
O43 S6 1.519303 1_555
O44 S7 1.510811 1_555
O45 S8 1.517522 1_555
O46 Si8 1.665804 1_555
O47 S4 1.510340 1_555
O48 Si11 1.604257 1_555
O48 Zn5 1.930950 1_556
O49 S13 1.465096 1_555
O49 Zn6 2.251268 1_556
O50 Si12 1.587782 1_555
O50 Zn5 1.883275 1_556
O51 Si13 1.580663 1_555
O51 Zn6 1.834242 1_556
O52 S14 1.438359 1_555
O52 Zn5 2.428489 1_556
O53 S15 1.443209 1_555
O53 Zn6 2.350468 1_556
O54 S16 1.456864 1_555
O54 Zn7 2.178853 1_555
O55 Si14 1.593463 1_555
O55 Zn8 2.012998 1_555
O56 Si15 1.601048 1_555
O56 Zn7 1.910064 1_555
O57 Si16 1.597658 1_555
O57 Zn8 1.967881 1_555
O58 Si17 1.594143 1_555
O58 Zn7 1.925940 1_555
O59 S17 1.465166 1_555
O59 Zn8 2.088960 1_555
O60 Si17 1.649993 1_555
O61 S17 1.504166 1_555
O62 S16 1.530513 1_555
O63 Si14 1.671073 1_555
O64 Si15 1.660230 1_555
O65 Si16 1.680220 1_555
O66 Si12 1.684055 1_555
O67 Si13 1.667915 1_555
O68 S14 1.512410 1_555
O69 S15 1.502905 1_555
O70 Si11 1.678202 1_555
O71 S13 1.500323 1_555
O72 Si17 1.650568 1_555
O73 S17 1.475434 1_555
O73 Zn0 2.271163 1_555
O74 S16 1.461676 1_555
O74 Zn0 2.228165 1_555
O75 Si14 1.646504 1_555
O76 Si15 1.666223 1_555
O77 Si16 1.627136 1_555
O77 Zn0 1.993770 1_545
O78 Si12 1.661681 1_555
O79 Si13 1.637664 1_555
O80 S14 1.506979 1_555
O81 S15 1.496027 1_555
O82 Si11 1.621055 1_555
O83 S13 1.488086 1_555
O84 Si8 1.692514 1_555
O85 S4 1.508963 1_555
O86 S5 1.516367 1_555
O87 S6 1.527080 1_555
O88 S7 1.499099 1_555
O89 S8 1.494296 1_555
O90 S9 1.534310 1_555
O91 S10 1.538959 1_555
O92 S11 1.548592 1_555
O93 S12 1.516379 1_555
O94 Si9 1.671699 1_555
O95 Si10 1.651724 1_555
O96 S3 1.470099 1_545
O96 Zn1 2.426670 1_555
O97 Si7 1.615848 1_545
O97 Zn2 2.015509 1_555
O98 Si3 1.622444 1_555
O98 Zn1 2.141308 1_555
O99 Si4 1.619047 1_555
O99 Zn2 2.030275 1_555
O100 Si6 1.625934 1_555
O100 Zn1 2.078065 1_555
O101 Si5 1.618710 1_655
O101 Zn2 2.035462 1_555
O102 Si1 1.621131 1_555
O102 Zn3 2.022411 1_555
O103 Si2 1.651348 1_555
O103 Zn4 2.120141 1_555
O104 S2 1.464090 1_555
O104 Zn3 2.367601 1_555
O105 S1 1.464861 1_555
O105 Zn4 2.430892 1_555
O106 Si0 1.616045 1_545
O106 Zn3 2.142666 1_555
O107 S0 1.482927 1_545
O107 Zn4 2.293702 1_555
O108 Si11 1.680289 1_555
O109 S13 1.511206 1_555
O110 Si13 1.654621 1_555
O111 Si12 1.637712 1_655
O112 S14 1.513578 1_545
O113 S15 1.511723 1_545
O114 S16 1.520043 1_545
O115 Si14 1.657590 1_545
O116 Si15 1.648664 1_555
O117 Si16 1.708598 1_555
O118 S17 1.509676 1_555
O119 Si17 1.661113 1_655
O120 Si9 1.638159 1_555
O120 Zn5 1.968796 1_555
O121 Si10 1.640275 1_555
O121 Zn6 1.935241 1_555
O122 S10 1.444777 1_455
O122 Zn5 2.475987 1_555
O123 S9 1.465876 1_555
O123 Zn6 2.231858 1_555
O124 S11 1.464747 1_565
O124 Zn5 2.551117 1_555
O125 S12 1.472633 1_565
O125 Zn6 2.483836 1_555
O126 S5 1.469458 1_565
O126 Zn7 2.375750 1_555
O127 S6 1.441352 1_565
O127 Zn8 2.418168 1_555
O128 S7 1.471274 1_555
O128 Zn7 2.334044 1_555
O129 S8 1.465812 1_555
O129 Zn8 2.399449 1_555
O130 S4 1.474577 1_455
O130 Zn7 2.272003 1_555
O131 Si8 1.638966 1_555
O131 Zn8 2.083993 1_555
O132 Si0 1.648235 1_555
O133 S0 1.496463 1_555
O134 Si1 1.703518 1_555
O135 Si2 1.664631 1_555
O136 S1 1.509950 1_455
O137 S2 1.502125 1_555
O138 Si3 1.659027 1_555
O139 Si4 1.650903 1_555
O140 Si5 1.657549 1_555
O141 Si6 1.661359 1_555
O142 S3 1.491986 1_555
O143 Si7 1.632443 1_555
