# generated using pymatgen
data_Sr3MgMn2O7
_symmetry_space_group_name_H-M   'P 1'
_cell_length_a   3.98535872
_cell_length_b   3.81163568
_cell_length_c   12.31568688
_cell_angle_alpha   107.82948134
_cell_angle_beta   89.97289906
_cell_angle_gamma   90.00366078
_symmetry_Int_Tables_number   1
_chemical_formula_structural   Sr3MgMn2O7
_chemical_formula_sum   'Sr3 Mg1 Mn2 O7'
_cell_volume   178.09902920
_cell_formula_units_Z   1
loop_
 _symmetry_equiv_pos_site_id
 _symmetry_equiv_pos_as_xyz
  1  'x, y, z'
loop_
 _atom_site_type_symbol
 _atom_site_label
 _atom_site_symmetry_multiplicity
 _atom_site_fract_x
 _atom_site_fract_y
 _atom_site_fract_z
 _atom_site_occupancy
  Sr  Sr0  1  0.28994856  0.63964850  0.93534362  1
  Sr  Sr1  1  0.29079486  0.34501714  0.63708245  1
  Sr  Sr2  1  0.78954816  0.62998073  0.41520787  1
  Mg  Mg0  1  0.79174953  0.33532201  0.12741531  1
  Mn  Mn0  1  0.29169000  0.95060956  0.24054368  1
  Mn  Mn1  1  0.79078952  0.99229704  0.78659921  1
  O  O0  1  0.79063896  0.49455856  0.78882035  1
  O  O1  1  0.29077516  0.99303172  0.78764272  1
  O  O2  1  0.29163011  0.37685099  0.16548666  1
  O  O3  1  0.79169048  0.92332322  0.21511791  1
  O  O4  1  0.79222670  0.82326725  0.61623081  1
  O  O5  1  0.79006777  0.16522490  0.96004222  1
  O  O6  1  0.29178019  0.13086838  0.41821618  1
loop_
_geom_bond_atom_site_label_1
_geom_bond_atom_site_label_2
_geom_bond_distance
_geom_bond_site_symmetry_2
Mg0 O5 1.962404 1_554
Mg0 O2 2.041854 1_655
Mg0 O2 2.042370 1_555
Mg0 O3 2.161361 1_545
Mg0 O3 2.169656 1_555
Mn0 O3 2.014731 1_555
Mn0 O3 2.015007 1_455
Mn0 O6 2.083136 1_565
Mn0 O2 2.097453 1_555
Mn0 O2 2.100886 1_565
Mn1 O0 1.905751 1_555
Mn1 O0 1.906240 1_565
Mn1 O1 1.992666 1_655
Mn1 O1 1.992769 1_555
Mn1 O4 1.997438 1_555
Mn1 O5 2.033486 1_565
O0 Sr0 2.629474 1_655
O0 Sr0 2.632403 1_555
O0 Sr1 2.671091 1_655
O0 Sr1 2.671429 1_555
O1 Sr0 2.573645 1_555
O1 Sr0 2.576439 1_565
O1 Sr1 2.595087 1_555
O1 Sr1 2.600321 1_565
O3 Sr2 3.001667 1_555
O3 Sr2 3.043519 1_565
O4 Sr2 2.356956 1_555
O4 Sr1 2.761276 1_655
O4 Sr1 2.766994 1_665
O4 Sr1 2.769157 1_555
O4 Sr1 2.775208 1_565
O5 Sr0 2.768983 1_655
O5 Sr0 2.770040 1_555
O5 Sr0 2.775143 1_645
O5 Sr0 2.775848 1_545
O6 Sr1 2.566047 1_555
O6 Sr2 2.745709 1_545
O6 Sr2 2.756563 1_555
O6 Sr2 2.758440 1_445
O6 Sr2 2.769594 1_455
