# generated using pymatgen
data_Na4CaLa(PO4)3
_symmetry_space_group_name_H-M   'P 1'
_cell_length_a   9.59539269
_cell_length_b   9.59539232
_cell_length_c   23.61222715
_cell_angle_alpha   90.00000000
_cell_angle_beta   90.00000000
_cell_angle_gamma   120.00000131
_symmetry_Int_Tables_number   1
_chemical_formula_structural   Na4CaLa(PO4)3
_chemical_formula_sum   'Na24 Ca6 La6 P18 O72'
_cell_volume   1882.75178282
_cell_formula_units_Z   6
loop_
 _symmetry_equiv_pos_site_id
 _symmetry_equiv_pos_as_xyz
  1  'x, y, z'
loop_
 _atom_site_type_symbol
 _atom_site_label
 _atom_site_symmetry_multiplicity
 _atom_site_fract_x
 _atom_site_fract_y
 _atom_site_fract_z
 _atom_site_occupancy
  Na  Na0  1  0.63841113  0.01176308  0.24780202  1
  Na  Na1  1  0.37335195  0.36158887  0.24780202  1
  Na  Na2  1  0.98823692  0.62664805  0.24780202  1
  Na  Na3  1  0.63841113  0.62664805  0.74780202  1
  Na  Na4  1  0.98823692  0.36158887  0.74780202  1
  Na  Na5  1  0.37335195  0.01176308  0.74780202  1
  Na  Na6  1  0.30507813  0.34509608  0.58113502  1
  Na  Na7  1  0.04001895  0.69492187  0.58113502  1
  Na  Na8  1  0.65490392  0.95998105  0.58113502  1
  Na  Na9  1  0.30507813  0.95998105  0.08113502  1
  Na  Na10  1  0.65490392  0.69492187  0.08113502  1
  Na  Na11  1  0.04001895  0.34509608  0.08113502  1
  Na  Na12  1  0.97174413  0.67843008  0.91446902  1
  Na  Na13  1  0.70668495  0.02825587  0.91446902  1
  Na  Na14  1  0.32156992  0.29331505  0.91446902  1
  Na  Na15  1  0.97174413  0.29331505  0.41446902  1
  Na  Na16  1  0.32156992  0.02825587  0.41446902  1
  Na  Na17  1  0.70668495  0.67843008  0.41446902  1
  Na  Na18  1  -0.00000000  -0.00000000  0.49426637  1
  Na  Na19  1  -0.00000000  -0.00000000  0.99426637  1
  Na  Na20  1  0.66666700  0.33333300  0.82759937  1
  Na  Na21  1  0.66666700  0.33333300  0.32759937  1
  Na  Na22  1  0.33333300  0.66666700  0.16093337  1
  Na  Na23  1  0.33333300  0.66666700  0.66093337  1
  Ca  Ca0  1  -0.00000000  -0.00000000  0.34667936  1
  Ca  Ca1  1  -0.00000000  -0.00000000  0.84667936  1
  Ca  Ca2  1  0.66666700  0.33333300  0.68001236  1
  Ca  Ca3  1  0.66666700  0.33333300  0.18001236  1
  Ca  Ca4  1  0.33333300  0.66666700  0.01334636  1
  Ca  Ca5  1  0.33333300  0.66666700  0.51334636  1
  La  La0  1  -0.00000000  -0.00000000  0.65446598  1
  La  La1  1  -0.00000000  -0.00000000  0.15446598  1
  La  La2  1  0.66666700  0.33333300  0.98779898  1
  La  La3  1  0.66666700  0.33333300  0.48779898  1
  La  La4  1  0.33333300  0.66666700  0.32113298  1
  La  La5  1  0.33333300  0.66666700  0.82113298  1
  P  P0  1  0.30960305  0.00420640  0.25147300  1
  P  P1  1  0.69460336  0.69039695  0.25147300  1
  P  P2  1  0.99579360  0.30539664  0.25147300  1
  P  P3  1  0.30960305  0.30539664  0.75147300  1
  P  P4  1  0.99579360  0.69039695  0.75147300  1
  P  P5  1  0.69460336  0.00420640  0.75147300  1
  P  P6  1  0.97627005  0.33753940  0.58480600  1
  P  P7  1  0.36127036  0.02372995  0.58480600  1
  P  P8  1  0.66246060  0.63872964  0.58480600  1
  P  P9  1  0.97627005  0.63872964  0.08480600  1
  P  P10  1  0.66246060  0.02372995  0.08480600  1
  P  P11  1  0.36127036  0.33753940  0.08480600  1
  P  P12  1  0.64293605  0.67087340  0.91814000  1
  P  P13  1  0.02793636  0.35706395  0.91814000  1
  P  P14  1  0.32912660  0.97206364  0.91814000  1
  P  P15  1  0.64293605  0.97206364  0.41814000  1
  P  P16  1  0.32912660  0.35706395  0.41814000  1
  P  P17  1  0.02793636  0.67087340  0.41814000  1
  O  O0  1  0.22223163  0.01930475  0.30369542  1
  O  O1  1  0.79707312  0.77776837  0.30369542  1
  O  O2  1  0.98069525  0.20292688  0.30369542  1
  O  O3  1  0.22223163  0.20292688  0.80369542  1
  O  O4  1  0.98069525  0.77776837  0.80369542  1
  O  O5  1  0.79707312  0.01930475  0.80369542  1
  O  O6  1  0.77374792  0.98272244  0.69713469  1
  O  O7  1  0.20897451  0.22625208  0.69713469  1
  O  O8  1  0.01727756  0.79102549  0.69713469  1
  O  O9  1  0.77374792  0.79102549  0.19713469  1
  O  O10  1  0.01727756  0.22625208  0.19713469  1
  O  O11  1  0.20897451  0.98272244  0.19713469  1
  O  O12  1  0.88889863  0.35263775  0.63702842  1
  O  O13  1  0.46374012  0.11110137  0.63702842  1
  O  O14  1  0.64736225  0.53625988  0.63702842  1
  O  O15  1  0.88889863  0.53625988  0.13702842  1
  O  O16  1  0.64736225  0.11110137  0.13702842  1
  O  O17  1  0.46374012  0.35263775  0.13702842  1
  O  O18  1  0.44041492  0.31605544  0.03046769  1
  O  O19  1  0.87564151  0.55958508  0.03046769  1
  O  O20  1  0.68394456  0.12435849  0.03046769  1
  O  O21  1  0.44041492  0.12435849  0.53046769  1
  O  O22  1  0.68394456  0.55958508  0.53046769  1
  O  O23  1  0.87564151  0.31605544  0.53046769  1
  O  O24  1  0.55556463  0.68597175  0.97036242  1
  O  O25  1  0.13040612  0.44443537  0.97036242  1
  O  O26  1  0.31402825  0.86959388  0.97036242  1
  O  O27  1  0.55556463  0.86959388  0.47036242  1
  O  O28  1  0.31402825  0.44443537  0.47036242  1
  O  O29  1  0.13040612  0.68597175  0.47036242  1
  O  O30  1  0.10708092  0.64938944  0.36380169  1
  O  O31  1  0.54230751  0.89291908  0.36380169  1
  O  O32  1  0.35061056  0.45769249  0.36380169  1
  O  O33  1  0.10708092  0.45769249  0.86380169  1
  O  O34  1  0.35061056  0.89291908  0.86380169  1
  O  O35  1  0.54230751  0.64938944  0.86380169  1
  O  O36  1  0.01294958  0.82485036  0.41470961  1
  O  O37  1  0.81190078  0.98705042  0.41470961  1
  O  O38  1  0.17514964  0.18809922  0.41470961  1
  O  O39  1  0.01294958  0.18809922  0.91470961  1
  O  O40  1  0.17514964  0.98705042  0.91470961  1
  O  O41  1  0.81190078  0.82485036  0.91470961  1
  O  O42  1  0.99592642  0.18577546  0.58671469  1
  O  O43  1  0.18984905  0.00407358  0.58671469  1
  O  O44  1  0.81422454  0.81015095  0.58671469  1
  O  O45  1  0.99592642  0.81015095  0.08671469  1
  O  O46  1  0.81422454  0.00407358  0.08671469  1
  O  O47  1  0.18984905  0.18577546  0.08671469  1
  O  O48  1  0.67961658  0.15818336  0.74804261  1
  O  O49  1  0.47856778  0.32038342  0.74804261  1
  O  O50  1  0.84181664  0.52143222  0.74804261  1
  O  O51  1  0.67961658  0.52143222  0.24804261  1
  O  O52  1  0.84181664  0.32038342  0.24804261  1
  O  O53  1  0.47856778  0.15818336  0.24804261  1
  O  O54  1  0.66259342  0.51910846  0.92004769  1
  O  O55  1  0.85651605  0.33740658  0.92004769  1
  O  O56  1  0.48089154  0.14348395  0.92004769  1
  O  O57  1  0.66259342  0.14348395  0.42004769  1
  O  O58  1  0.48089154  0.33740658  0.42004769  1
  O  O59  1  0.85651605  0.51910846  0.42004769  1
  O  O60  1  0.34628258  0.49151736  0.08137661  1
  O  O61  1  0.14523378  0.65371742  0.08137661  1
  O  O62  1  0.50848264  0.85476622  0.08137661  1
  O  O63  1  0.34628258  0.85476622  0.58137661  1
  O  O64  1  0.50848264  0.65371742  0.58137661  1
  O  O65  1  0.14523378  0.49151736  0.58137661  1
  O  O66  1  0.32925942  0.85244246  0.25338169  1
  O  O67  1  0.52318205  0.67074058  0.25338169  1
  O  O68  1  0.14755754  0.47681795  0.25338169  1
  O  O69  1  0.32925942  0.47681795  0.75338169  1
  O  O70  1  0.14755754  0.67074058  0.75338169  1
  O  O71  1  0.52318205  0.85244246  0.75338169  1
loop_
_geom_bond_atom_site_label_1
_geom_bond_atom_site_label_2
_geom_bond_distance
_geom_bond_site_symmetry_2
Na0 O53 2.545827 1_555
Na0 O66 2.572784 1_545
Na0 O52 2.607504 1_555
Na0 O16 2.770470 1_555
Na0 O67 2.886075 1_545
Na0 O31 2.932810 1_545
Na1 O51 2.545835 1_555
Na1 O67 2.572784 1_555
Na1 O53 2.607512 1_555
Na1 O17 2.770473 1_555
Na1 O68 2.886084 1_555
Na1 O32 2.932812 1_555
Na2 O52 2.545835 1_555
Na2 O68 2.572776 1_655
Na2 O51 2.607503 1_555
Na2 O15 2.770471 1_555
Na2 O66 2.886077 1_655
Na2 O30 2.932808 1_655
Na3 O49 2.545835 1_555
Na3 O69 2.572785 1_555
Na3 O50 2.607512 1_555
Na3 O14 2.770473 1_555
Na3 O71 2.886084 1_555
Na3 O35 2.932812 1_555
Na4 O50 2.545827 1_555
Na4 O70 2.572784 1_655
Na4 O48 2.607504 1_555
Na4 O12 2.770470 1_555
Na4 O69 2.886075 1_655
Na4 O33 2.932810 1_655
Na5 O48 2.545835 1_555
Na5 O71 2.572776 1_545
Na5 O49 2.607502 1_555
Na5 O13 2.770471 1_555
Na5 O70 2.886077 1_545
Na5 O34 2.932808 1_545
Na6 O65 2.545844 1_555
Na6 O42 2.572784 1_455
Na6 O64 2.607510 1_555
Na6 O28 2.770452 1_555
Na6 O43 2.886075 1_555
Na6 O7 2.932810 1_555
Na7 O63 2.545827 1_555
Na7 O43 2.572784 1_565
Na7 O65 2.607495 1_555
Na7 O29 2.770446 1_555
Na7 O44 2.886084 1_455
Na7 O8 2.932812 1_555
Na8 O64 2.545827 1_555
Na8 O44 2.572776 1_555
Na8 O63 2.607513 1_555
Na8 O27 2.770449 1_555
Na8 O42 2.886077 1_565
Na8 O6 2.932808 1_555
Na9 O61 2.545827 1_555
Na9 O45 2.572785 1_455
Na9 O62 2.607495 1_555
Na9 O26 2.770446 1_554
Na9 O47 2.886084 1_565
Na9 O11 2.932812 1_555
Na10 O62 2.545844 1_555
Na10 O46 2.572784 1_565
Na10 O60 2.607510 1_555
Na10 O24 2.770452 1_554
Na10 O45 2.886075 1_555
Na10 O9 2.932810 1_555
Na11 O60 2.545827 1_555
Na11 O47 2.572776 1_555
Na11 O61 2.607513 1_555
Na11 O25 2.770449 1_554
Na11 O46 2.886077 1_455
Na11 O10 2.932808 1_555
Na12 O41 2.545827 1_555
Na12 O54 2.572775 1_555
Na12 O40 2.607504 1_655
Na12 O4 2.770470 1_555
Na12 O55 2.886085 1_555
Na12 O19 2.932789 1_556
Na13 O39 2.545835 1_655
Na13 O55 2.572775 1_555
Na13 O41 2.607512 1_545
Na13 O5 2.770473 1_555
Na13 O56 2.886067 1_555
Na13 O20 2.932784 1_556
Na14 O40 2.545835 1_545
Na14 O56 2.572792 1_555
Na14 O39 2.607503 1_555
Na14 O3 2.770471 1_555
Na14 O54 2.886081 1_555
Na14 O18 2.932791 1_556
Na15 O37 2.545835 1_545
Na15 O57 2.572775 1_555
Na15 O38 2.607512 1_655
Na15 O2 2.770473 1_555
Na15 O59 2.886066 1_555
Na15 O23 2.932784 1_555
Na16 O38 2.545827 1_555
Na16 O58 2.572775 1_555
Na16 O36 2.607504 1_545
Na16 O0 2.770470 1_555
Na16 O57 2.886085 1_555
Na16 O21 2.932789 1_555
Na17 O36 2.545835 1_655
Na17 O59 2.572792 1_555
Na17 O37 2.607502 1_555
Na17 O1 2.770471 1_555
Na17 O58 2.886081 1_555
Na17 O22 2.932791 1_555
Na18 O38 2.564682 1_555
Na18 O36 2.564682 1_545
Na18 O37 2.564682 1_445
Na18 O42 2.830888 1_455
Na18 O44 2.830888 1_445
Na18 O43 2.830888 1_555
Na19 O39 2.564682 1_555
Na19 O41 2.564682 1_445
Na19 O40 2.564682 1_545
Na19 O47 2.830888 1_556
Na19 O46 2.830888 1_456
Na19 O45 2.830888 1_446
Na20 O50 2.564682 1_555
Na20 O48 2.564682 1_555
Na20 O49 2.564682 1_555
Na20 O54 2.830888 1_555
Na20 O56 2.830888 1_555
Na20 O55 2.830888 1_555
Na21 O51 2.564682 1_555
Na21 O53 2.564682 1_555
Na21 O52 2.564682 1_555
Na21 O59 2.830888 1_555
Na21 O58 2.830888 1_555
Na21 O57 2.830888 1_555
Na22 O62 2.564682 1_555
Na22 O60 2.564682 1_555
Na22 O61 2.564682 1_555
Na22 O66 2.830888 1_555
Na22 O68 2.830888 1_555
Na22 O67 2.830888 1_555
Na23 O63 2.564682 1_555
Na23 O65 2.564682 1_555
Na23 O64 2.564682 1_555
Na23 O71 2.830888 1_555
Na23 O70 2.830888 1_555
Na23 O69 2.830888 1_555
Ca0 O1 2.283979 1_445
Ca0 O2 2.283979 1_455
Ca0 O0 2.283979 1_555
Ca0 O38 2.372579 1_555
Ca0 O36 2.372579 1_545
Ca0 O37 2.372579 1_445
Ca1 O4 2.283979 1_445
Ca1 O3 2.283979 1_555
Ca1 O5 2.283979 1_455
Ca1 O39 2.372579 1_555
Ca1 O41 2.372579 1_445
Ca1 O40 2.372579 1_545
Ca2 O13 2.283979 1_555
Ca2 O14 2.283979 1_555
Ca2 O12 2.283979 1_555
Ca2 O50 2.372579 1_555
Ca2 O48 2.372579 1_555
Ca2 O49 2.372579 1_555
Ca3 O16 2.283979 1_555
Ca3 O15 2.283979 1_555
Ca3 O17 2.283979 1_555
Ca3 O51 2.372579 1_555
Ca3 O53 2.372579 1_555
Ca3 O52 2.372579 1_555
Ca4 O25 2.283979 1_554
Ca4 O26 2.283979 1_554
Ca4 O24 2.283979 1_554
Ca4 O62 2.372579 1_555
Ca4 O60 2.372579 1_555
Ca4 O61 2.372579 1_555
Ca5 O28 2.283979 1_555
Ca5 O27 2.283979 1_555
Ca5 O29 2.283979 1_555
Ca5 O63 2.372579 1_555
Ca5 O65 2.372579 1_555
Ca5 O64 2.372579 1_555
La0 O8 2.322881 1_545
La0 O7 2.322881 1_555
La0 O6 2.322881 1_445
La0 O42 2.409991 1_455
La0 O44 2.409991 1_445
La0 O43 2.409991 1_555
La1 O9 2.322881 1_445
La1 O11 2.322881 1_545
La1 O10 2.322881 1_555
La1 O47 2.409991 1_555
La1 O46 2.409991 1_455
La1 O45 2.409991 1_445
La2 O20 2.322881 1_556
La2 O19 2.322881 1_556
La2 O18 2.322881 1_556
La2 O54 2.409991 1_555
La2 O56 2.409991 1_555
La2 O55 2.409991 1_555
La3 O21 2.322881 1_555
La3 O23 2.322881 1_555
La3 O22 2.322881 1_555
La3 O59 2.409991 1_555
La3 O58 2.409991 1_555
La3 O57 2.409991 1_555
La4 O32 2.322881 1_555
La4 O31 2.322881 1_555
La4 O30 2.322881 1_555
La4 O66 2.409991 1_555
La4 O68 2.409991 1_555
La4 O67 2.409991 1_555
La5 O33 2.322881 1_555
La5 O35 2.322881 1_555
La5 O34 2.322881 1_555
La5 O71 2.409991 1_555
La5 O70 2.409991 1_555
La5 O69 2.409991 1_555
O0 P0 1.538117 1_555
O1 P1 1.538117 1_555
O2 P2 1.538117 1_555
O3 P3 1.538117 1_555
O4 P4 1.538117 1_555
O5 P5 1.538117 1_555
O6 P5 1.556273 1_565
O7 P3 1.556273 1_555
O8 P4 1.556273 1_455
O9 P1 1.556273 1_555
O10 P2 1.556273 1_455
O11 P0 1.556273 1_565
O12 P6 1.538117 1_555
O13 P7 1.538117 1_555
O14 P8 1.538117 1_555
O15 P9 1.538117 1_555
O16 P10 1.538117 1_555
O17 P11 1.538117 1_555
O18 P11 1.556273 1_555
O19 P9 1.556273 1_555
O20 P10 1.556273 1_555
O21 P7 1.556273 1_555
O22 P8 1.556273 1_555
O23 P6 1.556273 1_555
O24 P12 1.538117 1_555
O25 P13 1.538117 1_555
O26 P14 1.538117 1_555
O27 P15 1.538117 1_555
O28 P16 1.538117 1_555
O29 P17 1.538117 1_555
O30 P17 1.556273 1_555
O31 P15 1.556273 1_555
O32 P16 1.556273 1_555
O33 P13 1.556273 1_555
O34 P14 1.556273 1_555
O35 P12 1.556273 1_555
O36 P17 1.556477 1_555
O37 P15 1.556487 1_555
O38 P16 1.556483 1_555
O39 P13 1.556487 1_555
O40 P14 1.556478 1_555
O41 P12 1.556483 1_555
O42 P6 1.559771 1_555
O43 P7 1.559781 1_555
O44 P8 1.559777 1_555
O45 P9 1.559780 1_555
O46 P10 1.559771 1_555
O47 P11 1.559777 1_555
O48 P5 1.556477 1_555
O49 P3 1.556487 1_555
O50 P4 1.556483 1_555
O51 P1 1.556487 1_555
O52 P2 1.556478 1_555
O53 P0 1.556483 1_555
O54 P12 1.559785 1_555
O55 P13 1.559766 1_655
O56 P14 1.559774 1_545
O57 P15 1.559766 1_545
O58 P16 1.559786 1_555
O59 P17 1.559774 1_655
O60 P11 1.556491 1_555
O61 P9 1.556472 1_455
O62 P10 1.556480 1_565
O63 P7 1.556472 1_565
O64 P8 1.556491 1_555
O65 P6 1.556480 1_455
O66 P0 1.559771 1_565
O67 P1 1.559781 1_555
O68 P2 1.559777 1_455
O69 P3 1.559780 1_555
O70 P4 1.559771 1_455
O71 P5 1.559777 1_565
