# generated using pymatgen
data_Na4Zr2Sc2Si3(SO8)3
_symmetry_space_group_name_H-M   'P 1'
_cell_length_a   9.09670121
_cell_length_b   9.04928881
_cell_length_c   23.20614869
_cell_angle_alpha   90.06001017
_cell_angle_beta   89.73572743
_cell_angle_gamma   119.74752523
_symmetry_Int_Tables_number   1
_chemical_formula_structural   Na4Zr2Sc2Si3(SO8)3
_chemical_formula_sum   'Na12 Zr6 Sc6 Si9 S9 O72'
_cell_volume   1658.54131919
_cell_formula_units_Z   3
loop_
 _symmetry_equiv_pos_site_id
 _symmetry_equiv_pos_as_xyz
  1  'x, y, z'
loop_
 _atom_site_type_symbol
 _atom_site_label
 _atom_site_symmetry_multiplicity
 _atom_site_fract_x
 _atom_site_fract_y
 _atom_site_fract_z
 _atom_site_occupancy
  Na  Na0  1  0.99554329  0.64360301  0.25222179  1
  Na  Na1  1  0.99499441  0.35546256  0.74154329  1
  Na  Na2  1  0.66340527  0.97686867  0.58854316  1
  Na  Na3  1  0.67022075  0.69715464  0.08145815  1
  Na  Na4  1  0.33499711  0.30601171  0.90505684  1
  Na  Na5  1  0.32176234  0.02255814  0.42077768  1
  Na  Na6  1  0.01008611  0.99939994  0.50272822  1
  Na  Na7  1  0.98663476  0.97965144  0.99490538  1
  Na  Na8  1  0.65470903  0.32763315  0.82057205  1
  Na  Na9  1  0.66440898  0.34346440  0.33242736  1
  Na  Na10  1  0.33134863  0.67521976  0.16913178  1
  Na  Na11  1  0.32888952  0.66658777  0.66019392  1
  Zr  Zr0  1  0.01397871  0.01747730  0.64682191  1
  Zr  Zr1  1  0.99991646  0.98477608  0.15134565  1
  Zr  Zr2  1  0.67989578  0.35031398  0.98047180  1
  Zr  Zr3  1  0.67823635  0.33834869  0.48499240  1
  Zr  Zr4  1  0.33400766  0.67051119  0.31380681  1
  Zr  Zr5  1  0.35631332  0.67239346  0.80930579  1
  Sc  Sc0  1  0.00022884  0.98264507  0.35047685  1
  Sc  Sc1  1  0.98540337  0.99396533  0.84730454  1
  Sc  Sc2  1  0.65170769  0.31418497  0.68469237  1
  Sc  Sc3  1  0.66713982  0.33771591  0.18960463  1
  Sc  Sc4  1  0.33125873  0.67283716  0.01792157  1
  Sc  Sc5  1  0.30692886  0.66075737  0.52203435  1
  Si  Si0  1  0.30104315  0.00621658  0.25249033  1
  Si  Si1  1  0.70248379  0.70420449  0.24991164  1
  Si  Si2  1  0.29686089  0.28863040  0.75477319  1
  Si  Si3  1  0.71208750  0.00559471  0.74783368  1
  Si  Si4  1  0.96206783  0.33691562  0.58751482  1
  Si  Si5  1  0.37307773  0.03831515  0.58059179  1
  Si  Si6  1  0.96801381  0.62664306  0.08609301  1
  Si  Si7  1  0.63157453  0.67634316  0.92028730  1
  Si  Si8  1  0.03409860  0.66379583  0.41579591  1
  S  S0  1  0.99987288  0.28889590  0.25040816  1
  S  S1  1  0.99902152  0.70707780  0.75112825  1
  S  S2  1  0.66620828  0.62603211  0.58413901  1
  S  S3  1  0.66643900  0.04261152  0.08333379  1
  S  S4  1  0.37372813  0.33307755  0.08269079  1
  S  S5  1  0.04298375  0.37553390  0.91730173  1
  S  S6  1  0.33226480  0.95945309  0.91790517  1
  S  S7  1  0.62805229  0.95854791  0.41749424  1
  S  S8  1  0.33184972  0.37446109  0.41697399  1
  O  O0  1  0.21406443  0.03143248  0.30981964  1
  O  O1  1  0.83092618  0.80045850  0.30265773  1
  O  O2  1  0.97911507  0.18778145  0.30187125  1
  O  O3  1  0.20989979  0.18274559  0.81420943  1
  O  O4  1  0.97885607  0.78993574  0.80335287  1
  O  O5  1  0.82861999  0.02804120  0.80411707  1
  O  O6  1  0.79220887  0.96901049  0.69008336  1
  O  O7  1  0.16934574  0.19897702  0.69936271  1
  O  O8  1  0.02757040  0.81144277  0.69903127  1
  O  O9  1  0.78699430  0.81898871  0.18991072  1
  O  O10  1  0.02285922  0.20931299  0.19721648  1
  O  O11  1  0.17083259  0.96911126  0.19682226  1
  O  O12  1  0.87664278  0.36216598  0.64494578  1
  O  O13  1  0.49661873  0.13232360  0.63513717  1
  O  O14  1  0.64276045  0.52276275  0.63536703  1
  O  O15  1  0.87272477  0.51426938  0.14230963  1
  O  O16  1  0.64340105  0.12234289  0.13471719  1
  O  O17  1  0.48248282  0.35732409  0.13283852  1
  O  O18  1  0.45108671  0.30532961  0.02923388  1
  O  O19  1  0.83779956  0.53210053  0.03006822  1
  O  O20  1  0.68242445  0.14363267  0.03054300  1
  O  O21  1  0.45669226  0.15241762  0.52081484  1
  O  O22  1  0.69044871  0.54400055  0.53106435  1
  O  O23  1  0.83746260  0.30608116  0.53107411  1
  O  O24  1  0.53622558  0.68774442  0.97883365  1
  O  O25  1  0.14955173  0.46355376  0.96808813  1
  O  O26  1  0.31083013  0.85452001  0.96980524  1
  O  O27  1  0.55265403  0.85783207  0.46985599  1
  O  O28  1  0.31858220  0.46076119  0.46836982  1
  O  O29  1  0.16347383  0.69794723  0.46887645  1
  O  O30  1  0.12629143  0.63993913  0.35685172  1
  O  O31  1  0.51586771  0.87089706  0.36615743  1
  O  O32  1  0.35529916  0.47969022  0.36411178  1
  O  O33  1  0.11332031  0.47730194  0.86442883  1
  O  O34  1  0.35389043  0.87844686  0.86588796  1
  O  O35  1  0.50021565  0.63456764  0.86561138  1
  O  O36  1  0.02606269  0.84187459  0.41181441  1
  O  O37  1  0.79955749  0.98634806  0.40837717  1
  O  O38  1  0.17779200  0.20380861  0.41154109  1
  O  O39  1  0.03278340  0.20708858  0.91413277  1
  O  O40  1  0.18493304  0.98631410  0.91450775  1
  O  O41  1  0.82078090  0.83588762  0.91320569  1
  O  O42  1  0.96312176  0.15383490  0.58791442  1
  O  O43  1  0.18176609  0.01033053  0.58822982  1
  O  O44  1  0.82082330  0.79773651  0.58769187  1
  O  O45  1  0.97108696  0.81372894  0.08705380  1
  O  O46  1  0.82234648  0.02560644  0.08629357  1
  O  O47  1  0.20123999  0.18391843  0.08854225  1
  O  O48  1  0.70267510  0.17993123  0.74606304  1
  O  O49  1  0.48673006  0.32393221  0.74601763  1
  O  O50  1  0.84965406  0.53581397  0.74628808  1
  O  O51  1  0.69820476  0.52204869  0.24342771  1
  O  O52  1  0.85086537  0.31390163  0.24452106  1
  O  O53  1  0.48763686  0.16446345  0.24106580  1
  O  O54  1  0.63320644  0.48948947  0.92493031  1
  O  O55  1  0.86765407  0.34954730  0.92528598  1
  O  O56  1  0.48790778  0.13232396  0.92445260  1
  O  O57  1  0.63103877  0.12668142  0.41999732  1
  O  O58  1  0.48297877  0.34913745  0.41933748  1
  O  O59  1  0.84459585  0.49515255  0.42118131  1
  O  O60  1  0.36397241  0.49197970  0.07682860  1
  O  O61  1  0.15500146  0.65019924  0.07565578  1
  O  O62  1  0.51780153  0.86610033  0.07806165  1
  O  O63  1  0.37333636  0.85756074  0.57543586  1
  O  O64  1  0.51856793  0.65093844  0.57594537  1
  O  O65  1  0.15147875  0.49504845  0.57851280  1
  O  O66  1  0.30092584  0.82245217  0.25571788  1
  O  O67  1  0.51335126  0.67965920  0.25641131  1
  O  O68  1  0.15382493  0.46363357  0.25401214  1
  O  O69  1  0.29271166  0.47251729  0.75861357  1
  O  O70  1  0.15160440  0.68461375  0.75855180  1
  O  O71  1  0.52019777  0.83931438  0.75592832  1
loop_
_geom_bond_atom_site_label_1
_geom_bond_atom_site_label_2
_geom_bond_distance
_geom_bond_site_symmetry_2
Na0 O51 2.370586 1_555
Na0 O66 2.425542 1_655
Na0 O52 2.601941 1_555
Na0 O68 2.656103 1_655
Na0 O30 2.716086 1_655
Na0 O1 2.777907 1_555
Na0 O15 2.801107 1_555
Na0 O11 2.863569 1_655
Na1 O48 2.326229 1_555
Na1 O69 2.403279 1_655
Na1 O12 2.505024 1_555
Na1 O50 2.561888 1_555
Na1 O70 2.617078 1_655
Na1 O7 2.773166 1_655
Na2 O63 2.323874 1_555
Na2 O42 2.380141 1_565
Na2 O64 2.581859 1_555
Na2 O44 2.642325 1_555
Na2 O6 2.653079 1_555
Na2 O13 2.747678 1_565
Na2 O23 2.910106 1_565
Na2 O27 2.950220 1_555
Na3 O45 2.399613 1_555
Na3 O60 2.467632 1_555
Na3 O62 2.524042 1_555
Na3 O46 2.584753 1_565
Na3 O24 2.662327 1_554
Na3 O9 2.744937 1_555
Na3 O19 2.866348 1_555
Na3 O17 2.927870 1_555
Na4 O3 2.396116 1_555
Na4 O54 2.422519 1_555
Na4 O39 2.440573 1_555
Na4 O40 2.522047 1_545
Na4 O56 2.604736 1_555
Na4 O35 2.737749 1_555
Na5 O36 2.364768 1_545
Na5 O57 2.484405 1_555
Na5 O58 2.566030 1_555
Na5 O38 2.566388 1_555
Na5 O21 2.620299 1_555
Na5 O0 2.774561 1_555
Na5 O29 2.782578 1_545
Na6 O43 2.502107 1_565
Na6 O42 2.573406 1_465
Na6 O36 2.588570 1_555
Na6 O44 2.653356 1_455
Na6 O38 2.721194 1_565
Na6 O37 2.879116 1_455
Na7 O41 2.374183 1_555
Na7 O40 2.568991 1_655
Na7 O45 2.576906 1_556
Na7 O39 2.658771 1_665
Na7 O46 2.736737 1_566
Na7 O47 2.898164 1_666
Na8 O49 2.302797 1_555
Na8 O48 2.352338 1_555
Na8 O50 2.515710 1_555
Na8 O54 2.884607 1_555
Na8 O56 2.924259 1_555
Na9 O51 2.545564 1_555
Na9 O59 2.570109 1_555
Na9 O58 2.616744 1_555
Na9 O53 2.672844 1_555
Na9 O57 2.735312 1_555
Na9 O52 2.743564 1_555
Na10 O66 2.498863 1_555
Na10 O67 2.609559 1_555
Na10 O61 2.645901 1_555
Na10 O68 2.657819 1_555
Na10 O62 2.719208 1_555
Na10 O60 2.810850 1_555
Na11 O65 2.478532 1_555
Na11 O63 2.514988 1_555
Na11 O64 2.651483 1_555
Na11 O71 2.781430 1_555
Na11 O69 2.799438 1_555
Na11 O70 2.839649 1_555
O0 Si0 1.617671 1_555
O0 Sc0 2.000154 1_545
O1 Si1 1.619611 1_555
O1 Sc0 1.952855 1_655
O2 S0 1.458737 1_555
O2 Sc0 2.261714 1_645
O3 Si2 1.639157 1_555
O3 Sc1 2.050595 1_445
O4 S1 1.482287 1_555
O4 Sc1 2.083325 1_555
O5 Si3 1.633854 1_555
O5 Sc1 1.893110 1_545
O6 Si3 1.632897 1_565
O6 Zr0 2.091468 1_665
O7 Si2 1.653742 1_555
O7 Zr0 1.972274 1_555
O8 S1 1.475500 1_455
O8 Zr0 2.279104 1_565
O9 Si1 1.676130 1_555
O9 Zr1 1.976471 1_555
O10 S0 1.493733 1_455
O10 Zr1 2.209524 1_445
O11 Si0 1.674256 1_565
O11 Zr1 1.945588 1_455
O12 Si4 1.611929 1_555
O12 Sc2 2.080353 1_555
O13 Si5 1.628195 1_555
O13 Sc2 1.930847 1_555
O14 S2 1.460908 1_555
O14 Sc2 2.244386 1_555
O15 Si6 1.613996 1_555
O15 Sc3 2.067435 1_555
O16 S3 1.460235 1_555
O16 Sc3 2.246595 1_555
O17 S4 1.475070 1_555
O17 Sc3 2.214754 1_555
O18 S4 1.504597 1_555
O18 Zr2 2.217400 1_554
O19 Si6 1.682726 1_555
O19 Zr2 1.939195 1_554
O20 S3 1.492124 1_555
O20 Zr2 2.212750 1_554
O21 Si5 1.668200 1_555
O21 Zr3 2.050867 1_555
O22 S2 1.508202 1_555
O22 Zr3 2.100125 1_555
O23 Si4 1.666506 1_555
O23 Zr3 1.939444 1_555
O24 Si7 1.639051 1_555
O24 Sc4 2.013079 1_556
O25 S5 1.485100 1_555
O25 Sc4 2.136074 1_556
O26 S6 1.485522 1_555
O26 Sc4 2.072037 1_556
O27 S7 1.466932 1_555
O27 Sc5 2.380503 1_555
O28 S8 1.461931 1_555
O28 Sc5 2.240990 1_555
O29 Si8 1.627739 1_555
O29 Sc5 1.946660 1_555
O30 Si8 1.670171 1_555
O30 Zr4 2.027091 1_555
O31 S7 1.515194 1_555
O31 Zr4 2.130232 1_555
O32 S8 1.501866 1_555
O32 Zr4 2.172630 1_555
O33 S5 1.474230 1_555
O33 Zr5 2.396918 1_555
O34 S6 1.473858 1_555
O34 Zr5 2.288418 1_555
O35 Si7 1.656918 1_555
O35 Zr5 1.999853 1_555
O36 Si8 1.651679 1_555
O36 Sc0 2.002006 1_555
O37 S7 1.466166 1_555
O37 Sc0 2.275245 1_655
O38 S8 1.489380 1_555
O38 Sc0 2.330182 1_545
O39 S5 1.482231 1_555
O39 Sc1 2.342091 1_445
O40 S6 1.478453 1_555
O40 Sc1 2.425370 1_455
O41 Si7 1.614240 1_555
O41 Sc1 2.117854 1_555
O42 Si4 1.661564 1_555
O42 Zr0 2.044805 1_655
O43 Si5 1.638325 1_555
O43 Zr0 2.064271 1_555
O44 S2 1.493789 1_555
O44 Zr0 2.339574 1_665
O45 Si6 1.679425 1_555
O45 Zr1 2.070396 1_555
O46 S3 1.502435 1_555
O46 Zr1 2.374988 1_545
O47 S4 1.482916 1_555
O47 Zr1 2.330530 1_445
O48 Si3 1.622382 1_555
O48 Sc2 2.070725 1_555
O49 Si2 1.604946 1_555
O49 Sc2 2.096835 1_555
O50 S1 1.473795 1_555
O50 Sc2 2.396224 1_555
O51 Si1 1.636208 1_555
O51 Sc3 1.988348 1_555
O52 S0 1.487729 1_555
O52 Sc3 2.200319 1_555
O53 Si0 1.608298 1_555
O53 Sc3 1.998984 1_555
O54 Si7 1.701839 1_555
O54 Zr2 1.991762 1_555
O55 S5 1.502856 1_655
O55 Zr2 2.132809 1_555
O56 S6 1.509448 1_545
O56 Zr2 2.286525 1_555
O57 S7 1.509255 1_545
O57 Zr3 2.304776 1_555
O58 S8 1.502961 1_555
O58 Zr3 2.383932 1_555
O59 Si8 1.644387 1_655
O59 Zr3 2.085471 1_555
O60 S4 1.490384 1_555
O60 Sc4 2.264416 1_555
O61 Si6 1.622928 1_455
O61 Sc4 2.015582 1_555
O62 S3 1.500812 1_565
O62 Sc4 2.226569 1_555
O63 Si5 1.641109 1_565
O63 Sc5 2.001755 1_555
O64 S2 1.481061 1_555
O64 Sc5 2.339174 1_555
O65 Si4 1.615761 1_455
O65 Sc5 1.961839 1_555
O66 Si0 1.664173 1_565
O66 Zr4 2.053404 1_555
O67 Si1 1.628064 1_555
O67 Zr4 2.070901 1_555
O68 S0 1.507276 1_455
O68 Zr4 2.255488 1_555
O69 Si2 1.685349 1_555
O69 Zr5 1.988332 1_555
O70 S1 1.509910 1_455
O70 Zr5 2.256549 1_555
O71 Si3 1.654543 1_565
O71 Zr5 1.946975 1_555
