# generated using pymatgen
data_Cr2Ag2O7
_symmetry_space_group_name_H-M   'P 1'
_cell_length_a   6.63196400
_cell_length_b   6.99757496
_cell_length_c   7.19701850
_cell_angle_alpha   92.02868809
_cell_angle_beta   111.45431494
_cell_angle_gamma   94.96332813
_symmetry_Int_Tables_number   1
_chemical_formula_structural   Cr2Ag2O7
_chemical_formula_sum   'Cr4 Ag4 O14'
_cell_volume   308.87776480
_cell_formula_units_Z   2
loop_
 _symmetry_equiv_pos_site_id
 _symmetry_equiv_pos_as_xyz
  1  'x, y, z'
loop_
 _atom_site_type_symbol
 _atom_site_label
 _atom_site_symmetry_multiplicity
 _atom_site_fract_x
 _atom_site_fract_y
 _atom_site_fract_z
 _atom_site_occupancy
  Cr  Cr0  1  0.76039100  0.66320700  0.98448100  1
  Cr  Cr1  1  0.23960900  0.33679300  0.01551900  1
  Cr  Cr2  1  0.20007500  0.84461800  0.31225200  1
  Cr  Cr3  1  0.79992500  0.15538200  0.68774800  1
  Ag  Ag0  1  0.75262100  0.15341300  0.18392500  1
  Ag  Ag1  1  0.73184200  0.63375700  0.45495400  1
  Ag  Ag2  1  0.24737900  0.84658700  0.81607500  1
  Ag  Ag3  1  0.26815800  0.36624300  0.54504600  1
  O  O0  1  0.84441300  0.29559200  0.52170500  1
  O  O1  1  0.63193500  0.85163800  0.00036200  1
  O  O2  1  0.26596400  0.49327800  0.85649300  1
  O  O3  1  0.04282500  0.74647000  0.06181800  1
  O  O4  1  0.54644700  0.13748300  0.66749400  1
  O  O5  1  0.88686300  0.94458000  0.66643100  1
  O  O6  1  0.67533800  0.57024700  0.75367100  1
  O  O7  1  0.36806500  0.14836200  0.99963800  1
  O  O8  1  0.73403600  0.50672200  0.14350700  1
  O  O9  1  0.11313700  0.05542000  0.33356900  1
  O  O10  1  0.45355300  0.86251700  0.33250600  1
  O  O11  1  0.95717500  0.25353000  0.93818200  1
  O  O12  1  0.15558700  0.70440800  0.47829500  1
  O  O13  1  0.32466200  0.42975300  0.24632900  1
loop_
_geom_bond_atom_site_label_1
_geom_bond_atom_site_label_2
_geom_bond_distance
_geom_bond_site_symmetry_2
Cr0 O6 1.635631 1_555
Cr0 O1 1.652984 1_556
Cr0 O8 1.655738 1_556
Cr0 O3 1.784178 1_656
Cr1 O13 1.635631 1_555
Cr1 O7 1.652984 1_554
Cr1 O2 1.655738 1_554
Cr1 O11 1.784178 1_454
Cr2 O10 1.626625 1_555
Cr2 O9 1.651590 1_565
Cr2 O12 1.663901 1_555
Cr2 O3 1.794789 1_555
Cr3 O4 1.626625 1_555
Cr3 O5 1.651590 1_545
Cr3 O0 1.663901 1_555
Cr3 O11 1.794789 1_555
Ag0 O1 2.362564 1_545
Ag0 O7 2.402367 1_554
Ag0 O9 2.408104 1_655
Ag0 O0 2.431382 1_555
Ag0 O8 2.507892 1_555
Ag0 O11 2.671622 1_554
Ag1 O6 2.363903 1_555
Ag1 O8 2.387409 1_555
Ag1 O10 2.483269 1_555
Ag1 O5 2.517573 1_555
Ag1 O0 2.551765 1_555
Ag1 O12 2.752922 1_655
Ag1 O13 2.792787 1_555
Ag2 O7 2.362564 1_565
Ag2 O1 2.402367 1_556
Ag2 O5 2.408104 1_455
Ag2 O12 2.431382 1_555
Ag2 O2 2.507892 1_555
Ag2 O3 2.671622 1_556
Ag3 O13 2.363903 1_555
Ag3 O2 2.387409 1_555
Ag3 O4 2.483269 1_555
Ag3 O9 2.517573 1_555
Ag3 O12 2.551765 1_555
Ag3 O0 2.752922 1_455
Ag3 O6 2.792787 1_555
