# generated using pymatgen
data_MgMn4CuO8
_symmetry_space_group_name_H-M   'P 1'
_cell_length_a   6.20878664
_cell_length_b   6.20869706
_cell_length_c   6.01349721
_cell_angle_alpha   99.27031671
_cell_angle_beta   73.42974998
_cell_angle_gamma   55.36425682
_symmetry_Int_Tables_number   1
_chemical_formula_structural   MgMn4CuO8
_chemical_formula_sum   'Mg1 Mn4 Cu1 O8'
_cell_volume   166.75305071
_cell_formula_units_Z   1
loop_
 _symmetry_equiv_pos_site_id
 _symmetry_equiv_pos_as_xyz
  1  'x, y, z'
loop_
 _atom_site_type_symbol
 _atom_site_label
 _atom_site_symmetry_multiplicity
 _atom_site_fract_x
 _atom_site_fract_y
 _atom_site_fract_z
 _atom_site_occupancy
  Mg  Mg0  1  0.15278376  0.54894689  0.39657945  1
  Mn  Mn0  1  0.77479607  0.26640805  0.49177490  1
  Mn  Mn1  1  0.03023485  0.98419947  0.95394388  1
  Mn  Mn2  1  0.52803915  0.98895898  0.96048092  1
  Mn  Mn3  1  0.02816824  0.48921513  0.96118915  1
  Cu  Cu0  1  0.52054948  0.52598395  0.00523114  1
  O  O0  1  0.45812626  0.25701814  0.79915470  1
  O  O1  1  0.95586019  0.21940830  0.76220704  1
  O  O2  1  0.45742556  0.71764847  0.76204184  1
  O  O3  1  0.96001232  0.72226825  0.76252868  1
  O  O4  1  0.09772413  0.29824634  0.20061949  1
  O  O5  1  0.59919090  0.29032730  0.21771200  1
  O  O6  1  0.07202121  0.81646230  0.21749258  1
  O  O7  1  0.60465089  0.76032541  0.15487723  1
loop_
_geom_bond_atom_site_label_1
_geom_bond_atom_site_label_2
_geom_bond_distance
_geom_bond_site_symmetry_2
Mg0 O3 1.924570 1_455
Mg0 O5 2.025214 1_555
Mg0 O6 2.026697 1_555
Mg0 O4 2.042531 1_555
Mn0 O2 2.191881 1_555
Mn0 O1 2.194627 1_555
Mn0 O5 2.201515 1_555
Mn0 O6 2.202124 1_645
Mn0 O0 2.319024 1_555
Mn0 O4 2.384179 1_655
Mn1 O2 1.937715 1_555
Mn1 O1 1.937756 1_465
Mn1 O5 2.028828 1_466
Mn1 O6 2.030468 1_556
Mn1 O3 2.156126 1_455
Mn1 O4 2.555232 1_566
Mn2 O7 1.921490 1_556
Mn2 O0 1.959251 1_565
Mn2 O3 1.961598 1_555
Mn2 O4 1.996255 1_566
Mn2 O2 2.223503 1_555
Mn2 O5 2.546727 1_566
Mn3 O7 1.922114 1_456
Mn3 O0 1.960416 1_555
Mn3 O3 1.961935 1_455
Mn3 O4 1.996999 1_556
Mn3 O1 2.225971 1_455
Mn3 O6 2.537135 1_556
Cu0 O7 1.977156 1_555
Cu0 O2 2.016382 1_554
Cu0 O1 2.016604 1_554
Cu0 O5 2.039092 1_555
Cu0 O6 2.039329 1_555
Cu0 O0 2.194879 1_554
