# generated using pymatgen
data_Na7La2Zr2Si3(PO8)3
_symmetry_space_group_name_H-M   'P 1'
_cell_length_a   9.46844286
_cell_length_b   9.47759030
_cell_length_c   23.19188226
_cell_angle_alpha   90.02595506
_cell_angle_beta   90.06023216
_cell_angle_gamma   120.03427299
_symmetry_Int_Tables_number   1
_chemical_formula_structural   Na7La2Zr2Si3(PO8)3
_chemical_formula_sum   'Na21 La6 Zr6 Si9 P9 O72'
_cell_volume   1801.74163515
_cell_formula_units_Z   3
loop_
 _symmetry_equiv_pos_site_id
 _symmetry_equiv_pos_as_xyz
  1  'x, y, z'
loop_
 _atom_site_type_symbol
 _atom_site_label
 _atom_site_symmetry_multiplicity
 _atom_site_fract_x
 _atom_site_fract_y
 _atom_site_fract_z
 _atom_site_occupancy
  Na  Na0  1  0.63345232  0.00411308  0.25645100  1
  Na  Na1  1  0.36430714  0.37173913  0.24679305  1
  Na  Na2  1  0.00180133  0.61848210  0.25127470  1
  Na  Na3  1  0.63572468  0.63456585  0.74494106  1
  Na  Na4  1  0.98770311  0.36299122  0.74336779  1
  Na  Na5  1  0.37783408  0.00226151  0.74098002  1
  Na  Na6  1  0.03442534  0.69152446  0.58106830  1
  Na  Na7  1  0.65955953  0.97158968  0.57966960  1
  Na  Na8  1  0.67228066  0.68831108  0.08242549  1
  Na  Na9  1  0.02941965  0.34345028  0.08814414  1
  Na  Na10  1  0.95513930  0.66148567  0.92589342  1
  Na  Na11  1  0.70083794  0.03231211  0.91990133  1
  Na  Na12  1  0.34289542  0.30640921  0.92314584  1
  Na  Na13  1  0.96657790  0.31017646  0.41729581  1
  Na  Na14  1  0.33540513  0.02573570  0.42096089  1
  Na  Na15  1  0.00137709  0.99832940  0.50051272  1
  Na  Na16  1  0.01368057  0.99294601  0.00407731  1
  Na  Na17  1  0.66682773  0.33398215  0.83276513  1
  Na  Na18  1  0.68054595  0.34758710  0.33750817  1
  Na  Na19  1  0.31949980  0.66564484  0.16350617  1
  Na  Na20  1  0.33335504  0.65824519  0.66198565  1
  La  La0  1  0.99297960  0.99736300  0.84984987  1
  La  La1  1  0.66493113  0.32962626  0.66949858  1
  La  La2  1  0.66761305  0.33233939  0.18058888  1
  La  La3  1  0.66101147  0.33426445  0.99400584  1
  La  La4  1  0.33105984  0.66325813  0.32409669  1
  La  La5  1  0.34036386  0.66926355  0.81540439  1
  Zr  Zr0  1  0.99035153  0.99675920  0.35620586  1
  Zr  Zr1  1  0.00282114  0.00722178  0.64484575  1
  Zr  Zr2  1  0.00946170  0.00641070  0.14900287  1
  Zr  Zr3  1  0.66602672  0.33207762  0.48658035  1
  Zr  Zr4  1  0.33521005  0.66897419  0.01804945  1
  Zr  Zr5  1  0.33334693  0.66717061  0.51260372  1
  Si  Si0  1  0.99925411  0.28869979  0.25211856  1
  Si  Si1  1  0.70132521  0.00303670  0.74626265  1
  Si  Si2  1  0.97761044  0.33644850  0.58255666  1
  Si  Si3  1  0.35723220  0.02007091  0.58189036  1
  Si  Si4  1  0.98541991  0.65194404  0.08386714  1
  Si  Si5  1  0.34902448  0.33692631  0.08300188  1
  Si  Si6  1  0.63372928  0.66305780  0.91811338  1
  Si  Si7  1  0.63710646  0.97662145  0.41690251  1
  Si  Si8  1  0.02417286  0.66431295  0.41670631  1
  P  P0  1  0.28353612  0.00078441  0.25401088  1
  P  P1  1  0.71669328  0.71687107  0.25001175  1
  P  P2  1  0.29511581  0.29471668  0.74733612  1
  P  P3  1  0.99751378  0.70294201  0.74527789  1
  P  P4  1  0.66589146  0.64124640  0.58368619  1
  P  P5  1  0.66892858  0.01343323  0.08469377  1
  P  P6  1  0.03627347  0.37011083  0.91904223  1
  P  P7  1  0.33561171  0.96442604  0.91736028  1
  P  P8  1  0.33500940  0.35996300  0.41604181  1
  O  O0  1  0.19300538  0.00547734  0.30906422  1
  O  O1  1  0.82056710  0.81432307  0.30345149  1
  O  O2  1  0.99645976  0.18200669  0.30926916  1
  O  O3  1  0.22729326  0.21191317  0.80606807  1
  O  O4  1  0.99148824  0.78106134  0.80312002  1
  O  O5  1  0.79188993  0.01745172  0.80801351  1
  O  O6  1  0.81738649  0.99766852  0.69294910  1
  O  O7  1  0.18319233  0.17998116  0.69787618  1
  O  O8  1  0.00226989  0.81237535  0.69395038  1
  O  O9  1  0.80669284  0.81035249  0.19510612  1
  O  O10  1  -0.00009157  0.18573746  0.19517941  1
  O  O11  1  0.18161976  0.99599681  0.20078689  1
  O  O12  1  0.92260496  0.38295863  0.64290624  1
  O  O13  1  0.45854366  0.07891839  0.64217008  1
  O  O14  1  0.63536598  0.56074376  0.64355395  1
  O  O15  1  0.90416074  0.52493549  0.13854950  1
  O  O16  1  0.64024601  0.09181217  0.13832824  1
  O  O17  1  0.47166290  0.37586250  0.13822930  1
  O  O18  1  0.41933723  0.30362599  0.02397598  1
  O  O19  1  0.86864781  0.57795302  0.02686165  1
  O  O20  1  0.70638902  0.12234650  0.03086987  1
  O  O21  1  0.46516935  0.14938567  0.53041629  1
  O  O22  1  0.68945851  0.53302731  0.53865506  1
  O  O23  1  0.83765868  0.30783962  0.53326000  1
  O  O24  1  0.51734487  0.66575928  0.97107278  1
  O  O25  1  0.14303274  0.48022030  0.96982003  1
  O  O26  1  0.33275733  0.85016956  0.96596019  1
  O  O27  1  0.53377523  0.85094181  0.46925184  1
  O  O28  1  0.30989884  0.46473374  0.46180470  1
  O  O29  1  0.16052652  0.69069765  0.46686824  1
  O  O30  1  0.08249292  0.61685979  0.35679134  1
  O  O31  1  0.53529165  0.91332697  0.35658708  1
  O  O32  1  0.36498706  0.44366318  0.35665627  1
  O  O33  1  0.10757726  0.45774701  0.86118365  1
  O  O34  1  0.34179047  0.89220101  0.85823728  1
  O  O35  1  0.54303903  0.65071184  0.85657316  1
  O  O36  1  0.02573190  0.83900014  0.41259913  1
  O  O37  1  0.82378646  0.00297233  0.41338859  1
  O  O38  1  0.17485565  0.18849836  0.41462706  1
  O  O39  1  0.03674476  0.20699317  0.92333486  1
  O  O40  1  0.18042722  0.97880000  0.92322235  1
  O  O41  1  0.81145019  0.83184149  0.92419773  1
  O  O42  1  0.97726548  0.16179836  0.58649220  1
  O  O43  1  0.17106132  0.99241857  0.58635059  1
  O  O44  1  0.82746529  0.81140964  0.58488926  1
  O  O45  1  0.99374640  0.82653053  0.09475080  1
  O  O46  1  0.81908717  0.99011774  0.09280169  1
  O  O47  1  0.16305022  0.18199383  0.09216689  1
  O  O48  1  0.68205751  0.16612181  0.74395161  1
  O  O49  1  0.47017938  0.32249953  0.74244903  1
  O  O50  1  0.84070633  0.53274265  0.74369646  1
  O  O51  1  0.70044732  0.54547347  0.25194058  1
  O  O52  1  0.83231872  0.30212202  0.25444249  1
  O  O53  1  0.45342698  0.15800095  0.25243416  1
  O  O54  1  0.65403982  0.50060170  0.91958076  1
  O  O55  1  0.85996448  0.33999596  0.92296913  1
  O  O56  1  0.49256800  0.13373775  0.92096327  1
  O  O57  1  0.65808377  0.15966726  0.42799156  1
  O  O58  1  0.47900150  0.33163274  0.42974395  1
  O  O59  1  0.84612880  0.50477398  0.43202667  1
  O  O60  1  0.32905143  0.50005667  0.07689077  1
  O  O61  1  0.16384686  0.66759267  0.07448635  1
  O  O62  1  0.51885942  0.84108797  0.07618756  1
  O  O63  1  0.33989590  0.83891244  0.57016603  1
  O  O64  1  0.52320542  0.67074625  0.56917081  1
  O  O65  1  0.15492057  0.49376923  0.56645923  1
  O  O66  1  0.30028673  0.84604341  0.25144492  1
  O  O67  1  0.54636667  0.70302339  0.25109268  1
  O  O68  1  0.16623281  0.46921303  0.24905262  1
  O  O69  1  0.29385999  0.45718828  0.74213222  1
  O  O70  1  0.15333104  0.68845142  0.74172273  1
  O  O71  1  0.52437398  0.83312868  0.74115277  1
loop_
_geom_bond_atom_site_label_1
_geom_bond_atom_site_label_2
_geom_bond_distance
_geom_bond_site_symmetry_2
Na0 O52 2.490286 1_555
Na0 O31 2.490637 1_545
Na0 O67 2.546066 1_545
Na0 O66 2.734475 1_545
Na0 O53 2.744053 1_555
Na0 O16 2.854594 1_555
Na1 O68 2.471448 1_555
Na1 O53 2.558095 1_555
Na1 O32 2.636415 1_555
Na1 O17 2.709205 1_555
Na1 O67 2.724157 1_555
Na1 O51 2.758296 1_555
Na2 O66 2.556792 1_555
Na2 O30 2.565204 1_555
Na2 O68 2.575460 1_555
Na2 O51 2.577662 1_455
Na2 O52 2.598942 1_455
Na2 O15 2.765444 1_455
Na3 O14 2.452453 1_555
Na3 O49 2.562569 1_555
Na3 O50 2.563999 1_555
Na3 O71 2.578172 1_555
Na3 O35 2.763175 1_555
Na3 O69 2.803615 1_555
Na4 O12 2.440959 1_555
Na4 O48 2.539982 1_555
Na4 O69 2.571110 1_655
Na4 O50 2.601376 1_555
Na4 O70 2.670827 1_655
Na4 O33 2.920877 1_655
Na5 O13 2.410937 1_555
Na5 O48 2.497072 1_555
Na5 O71 2.592515 1_545
Na5 O70 2.652533 1_545
Na5 O49 2.705686 1_555
Na5 O34 2.871922 1_545
Na6 O43 2.475351 1_555
Na6 O63 2.517581 1_555
Na6 O65 2.658951 1_555
Na6 O44 2.714398 1_455
Na6 O29 2.907968 1_555
Na6 O8 2.933646 1_555
Na6 O12 2.938992 1_455
Na6 O22 2.995507 1_455
Na7 O64 2.483868 1_555
Na7 O42 2.625681 1_565
Na7 O63 2.641823 1_555
Na7 O44 2.694923 1_555
Na7 O27 2.812701 1_555
Na7 O13 2.949732 1_565
Na7 O23 2.964021 1_565
Na7 O6 2.969455 1_555
Na8 O46 2.488070 1_555
Na8 O62 2.516554 1_555
Na8 O45 2.658714 1_555
Na8 O60 2.820617 1_555
Na8 O19 2.856924 1_555
Na8 O9 2.881573 1_555
Na8 O17 2.903452 1_555
Na8 O24 2.923120 1_554
Na9 O47 2.426771 1_555
Na9 O60 2.471154 1_555
Na9 O61 2.691764 1_555
Na9 O15 2.788350 1_455
Na9 O10 2.839207 1_555
Na9 O46 2.918334 1_445
Na9 O25 2.996906 1_554
Na9 O20 3.013893 1_455
Na10 O54 2.474191 1_555
Na10 O19 2.477382 1_556
Na10 O41 2.580350 1_555
Na10 O40 2.679004 1_655
Na10 O55 2.711390 1_555
Na10 O4 3.020714 1_555
Na11 O55 2.525905 1_555
Na11 O41 2.590106 1_545
Na11 O56 2.590572 1_555
Na11 O20 2.703144 1_556
Na11 O39 2.755223 1_655
Na11 O5 2.760880 1_555
Na12 O18 2.451219 1_556
Na12 O39 2.560583 1_555
Na12 O54 2.578044 1_555
Na12 O56 2.647786 1_555
Na12 O40 2.688082 1_545
Na12 O3 2.895345 1_555
Na13 O37 2.524335 1_555
Na13 O57 2.541499 1_555
Na13 O59 2.631479 1_555
Na13 O38 2.738530 1_655
Na13 O2 2.859224 1_555
Na13 O30 2.904399 1_655
Na13 O23 2.950157 1_555
Na13 O28 3.000550 1_655
Na14 O58 2.519575 1_555
Na14 O36 2.563395 1_545
Na14 O38 2.656916 1_555
Na14 O57 2.662522 1_555
Na14 O21 2.806460 1_555
Na14 O0 2.884849 1_555
Na14 O29 2.949857 1_545
Na14 O31 2.994795 1_545
Na15 O43 2.575068 1_555
Na15 O44 2.601714 1_455
Na15 O42 2.603995 1_465
Na15 O36 2.614818 1_555
Na15 O38 2.638283 1_565
Na15 O37 2.641803 1_465
Na16 O40 2.498973 1_554
Na16 O41 2.548154 1_454
Na16 O45 2.578996 1_455
Na16 O47 2.614986 1_565
Na16 O39 2.688950 1_564
Na16 O46 2.754662 1_455
Na17 O54 2.598320 1_555
Na17 O48 2.649846 1_555
Na17 O56 2.717382 1_555
Na17 O50 2.726203 1_555
Na17 O55 2.758874 1_555
Na17 O49 2.766734 1_555
Na18 O52 2.566502 1_555
Na18 O59 2.671007 1_555
Na18 O51 2.672354 1_555
Na18 O57 2.691849 1_555
Na18 O53 2.804596 1_555
Na18 O58 2.821415 1_555
Na19 O61 2.540785 1_555
Na19 O60 2.577965 1_555
Na19 O68 2.610172 1_555
Na19 O62 2.701491 1_555
Na19 O66 2.724832 1_555
Na19 O67 2.845049 1_555
Na20 O71 2.525634 1_555
Na20 O69 2.552881 1_555
Na20 O70 2.627129 1_555
Na20 O63 2.714377 1_555
Na20 O65 2.746845 1_555
Na20 O64 2.770199 1_555
La0 O5 2.227570 1_565
La0 O4 2.312201 1_555
La0 O3 2.361892 1_665
La0 O41 2.387019 1_555
La0 O39 2.488941 1_665
La0 O40 2.526479 1_655
La1 O13 2.283477 1_555
La1 O12 2.314579 1_555
La1 O48 2.379609 1_555
La1 O14 2.419315 1_555
La1 O49 2.479768 1_555
La1 O50 2.494124 1_555
La2 O15 2.283103 1_555
La2 O17 2.310887 1_555
La2 O16 2.372875 1_555
La2 O52 2.426868 1_555
La2 O53 2.504893 1_555
La2 O51 2.506508 1_555
La3 O18 2.267603 1_556
La3 O19 2.286886 1_556
La3 O54 2.361209 1_555
La3 O20 2.411249 1_556
La3 O56 2.445894 1_555
La3 O55 2.483929 1_555
La4 O30 2.296846 1_555
La4 O31 2.309070 1_555
La4 O32 2.382246 1_555
La4 O68 2.442365 1_555
La4 O67 2.530479 1_555
La4 O66 2.536115 1_555
La5 O35 2.226929 1_555
La5 O34 2.328275 1_555
La5 O33 2.363857 1_555
La5 O71 2.390189 1_555
La5 O69 2.496179 1_555
La5 O70 2.530918 1_555
O0 P0 1.551565 1_555
O0 Zr0 2.174805 1_445
O1 P1 1.563162 1_555
O1 Zr0 2.069378 1_555
O2 Si0 1.659664 1_555
O2 Zr0 2.042299 1_545
O3 P2 1.543345 1_555
O4 P3 1.546772 1_555
O5 Si1 1.638571 1_555
O6 Si1 1.672653 1_565
O6 Zr1 2.044653 1_665
O7 P2 1.569724 1_555
O7 Zr1 2.074786 1_555
O8 P3 1.564999 1_455
O8 Zr1 2.167818 1_565
O9 P1 1.542762 1_555
O9 Zr2 2.171856 1_665
O10 Si0 1.643467 1_455
O10 Zr2 2.048437 1_555
O11 P0 1.552589 1_565
O11 Zr2 2.065487 1_565
O12 Si2 1.629504 1_555
O13 Si3 1.626826 1_555
O14 P4 1.540941 1_555
O15 Si4 1.650931 1_555
O16 P5 1.540988 1_555
O17 Si5 1.640904 1_555
O18 Si5 1.621308 1_555
O19 Si4 1.637686 1_555
O20 P5 1.544379 1_555
O21 Si3 1.649760 1_555
O21 Zr3 2.087523 1_555
O22 P4 1.555979 1_555
O22 Zr3 2.170104 1_555
O23 Si2 1.665363 1_555
O23 Zr3 2.058131 1_555
O24 Si6 1.659704 1_555
O24 Zr4 2.053880 1_556
O25 P6 1.561432 1_555
O25 Zr4 2.120794 1_556
O26 P7 1.554230 1_555
O26 Zr4 2.109684 1_556
O27 Si7 1.639283 1_555
O27 Zr5 2.083912 1_555
O28 P8 1.550758 1_555
O28 Zr5 2.165489 1_555
O29 Si8 1.660163 1_555
O29 Zr5 2.052854 1_555
O30 Si8 1.639411 1_555
O31 Si7 1.632002 1_555
O32 P8 1.543735 1_555
O33 P6 1.545254 1_555
O34 P7 1.546452 1_555
O35 Si6 1.638517 1_555
O36 Si8 1.651069 1_555
O36 Zr0 2.135541 1_455
O37 Si7 1.658837 1_545
O37 Zr0 2.084894 1_545
O38 P8 1.573038 1_555
O38 Zr0 2.237145 1_445
O39 P6 1.551443 1_555
O40 P7 1.548170 1_555
O41 Si6 1.647768 1_555
O42 Si2 1.656189 1_555
O42 Zr1 2.095777 1_655
O43 Si3 1.650642 1_565
O43 Zr1 2.150753 1_565
O44 P4 1.572327 1_555
O44 Zr1 2.245584 1_665
O45 Si4 1.636098 1_555
O45 Zr2 2.062861 1_665
O46 P5 1.555503 1_565
O46 Zr2 2.165215 1_665
O47 Si5 1.647662 1_555
O47 Zr2 2.050620 1_555
O48 Si1 1.645457 1_555
O49 P2 1.547015 1_555
O50 P3 1.552465 1_555
O51 P1 1.553834 1_555
O52 Si0 1.648907 1_555
O53 P0 1.552404 1_555
O54 Si6 1.644759 1_555
O55 P6 1.549175 1_655
O56 P7 1.550138 1_545
O57 Si7 1.664269 1_545
O57 Zr3 2.096849 1_555
O58 P8 1.548387 1_555
O58 Zr3 2.204767 1_555
O59 Si8 1.644550 1_655
O59 Zr3 2.097636 1_555
O60 Si5 1.655008 1_555
O60 Zr4 2.082624 1_555
O61 Si4 1.635074 1_455
O61 Zr4 2.080671 1_555
O62 P5 1.549756 1_565
O62 Zr4 2.157828 1_555
O63 Si3 1.663172 1_565
O63 Zr5 2.081403 1_555
O64 P4 1.547250 1_555
O64 Zr5 2.210846 1_555
O65 Si2 1.636180 1_455
O65 Zr5 2.083747 1_555
O66 P0 1.553162 1_565
O67 P1 1.551436 1_555
O68 Si0 1.650552 1_455
O69 P2 1.550582 1_555
O70 P3 1.550929 1_455
O71 Si1 1.647093 1_565
