# generated using pymatgen
data_Na9CaTa5(SiO4)9
_symmetry_space_group_name_H-M   'P 1'
_cell_length_a   15.82699764
_cell_length_b   27.36204983
_cell_length_c   9.10729779
_cell_angle_alpha   89.85774164
_cell_angle_beta   125.05449983
_cell_angle_gamma   90.08811113
_symmetry_Int_Tables_number   1
_chemical_formula_structural   Na9CaTa5(SiO4)9
_chemical_formula_sum   'Na36 Ca4 Ta20 Si36 O144'
_cell_volume   3228.57092358
_cell_formula_units_Z   4
loop_
 _symmetry_equiv_pos_site_id
 _symmetry_equiv_pos_as_xyz
  1  'x, y, z'
loop_
 _atom_site_type_symbol
 _atom_site_label
 _atom_site_symmetry_multiplicity
 _atom_site_fract_x
 _atom_site_fract_y
 _atom_site_fract_z
 _atom_site_occupancy
  Na  Na0  1  0.25366623  0.25418969  0.01086646  1
  Na  Na1  1  0.25732702  0.58935426  0.01380914  1
  Na  Na2  1  0.24785010  0.91512560  0.99860455  1
  Na  Na3  1  0.74540164  0.25632590  0.50251251  1
  Na  Na4  1  0.74100179  0.57714051  0.49647844  1
  Na  Na5  1  0.75262801  0.91474346  0.50761236  1
  Na  Na6  1  0.75732702  0.08935426  0.01380914  1
  Na  Na7  1  0.74785010  0.41512560  0.99860455  1
  Na  Na8  1  0.75366623  0.75418969  0.01086646  1
  Na  Na9  1  0.24100179  0.07714051  0.49647844  1
  Na  Na10  1  0.25262801  0.41474346  0.50761236  1
  Na  Na11  1  0.24540164  0.75632590  0.50251251  1
  Na  Na12  1  0.50381865  0.03512190  0.75676858  1
  Na  Na13  1  0.48930522  0.36272986  0.72508984  1
  Na  Na14  1  0.48821784  0.69812347  0.72908535  1
  Na  Na15  1  0.49789491  0.29171608  0.25744816  1
  Na  Na16  1  0.49826845  0.62659845  0.26469414  1
  Na  Na17  1  0.49798419  0.96400072  0.25117097  1
  Na  Na18  1  0.98821784  0.19812347  0.72908535  1
  Na  Na19  1  0.00381865  0.53512190  0.75676858  1
  Na  Na20  1  0.98930522  0.86272986  0.72508984  1
  Na  Na21  1  0.99826845  0.12659845  0.26469414  1
  Na  Na22  1  0.99798419  0.46400072  0.25117097  1
  Na  Na23  1  0.99789491  0.79171608  0.25744816  1
  Na  Na24  1  0.80876401  0.65101099  0.23947057  1
  Na  Na25  1  0.81727491  0.98435485  0.24452717  1
  Na  Na26  1  0.19955896  0.30690609  0.28557295  1
  Na  Na27  1  0.20408157  0.64413452  0.27994302  1
  Na  Na28  1  0.81699781  0.02450231  0.69527061  1
  Na  Na29  1  0.81340590  0.69046488  0.69092845  1
  Na  Na30  1  0.30876401  0.15101099  0.23947057  1
  Na  Na31  1  0.31727491  0.48435485  0.24452717  1
  Na  Na32  1  0.70408157  0.14413452  0.27994302  1
  Na  Na33  1  0.69955896  0.80690609  0.28557295  1
  Na  Na34  1  0.31340590  0.19046488  0.69092845  1
  Na  Na35  1  0.31699781  0.52450231  0.69527061  1
  Ca  Ca0  1  0.90151522  0.08319601  0.44271845  1
  Ca  Ca1  1  0.90134881  0.74829661  0.44323424  1
  Ca  Ca2  1  0.40134881  0.24829661  0.44323424  1
  Ca  Ca3  1  0.40151522  0.58319601  0.44271845  1
  Ta  Ta0  1  0.10601522  0.25068873  0.57195422  1
  Ta  Ta1  1  0.10722425  0.58447871  0.57052879  1
  Ta  Ta2  1  0.10773621  0.91745237  0.56889181  1
  Ta  Ta3  1  0.89149645  0.25360205  0.93516485  1
  Ta  Ta4  1  0.89476683  0.57952693  0.93721393  1
  Ta  Ta5  1  0.89788486  0.91699338  0.93887066  1
  Ta  Ta6  1  0.89231379  0.41502089  0.43374988  1
  Ta  Ta7  1  0.10098311  0.08118814  0.05518299  1
  Ta  Ta8  1  0.10625357  0.41564722  0.06799550  1
  Ta  Ta9  1  0.10677606  0.75038989  0.05783028  1
  Ta  Ta10  1  0.60722425  0.08447871  0.57052879  1
  Ta  Ta11  1  0.60773621  0.41745237  0.56889181  1
  Ta  Ta12  1  0.60601522  0.75068873  0.57195422  1
  Ta  Ta13  1  0.39476683  0.07952693  0.93721393  1
  Ta  Ta14  1  0.39788486  0.41699338  0.93887066  1
  Ta  Ta15  1  0.39149645  0.75360205  0.93516485  1
  Ta  Ta16  1  0.39231379  0.91502089  0.43374988  1
  Ta  Ta17  1  0.60677606  0.25038989  0.05783028  1
  Ta  Ta18  1  0.60098311  0.58118814  0.05518299  1
  Ta  Ta19  1  0.60625357  0.91564722  0.06799550  1
  Si  Si0  1  0.00138050  0.31999905  0.75247364  1
  Si  Si1  1  0.00151439  0.64967713  0.75084110  1
  Si  Si2  1  0.99792106  0.98282890  0.73857297  1
  Si  Si3  1  0.00445923  0.01292573  0.24203173  1
  Si  Si4  1  0.00220044  0.34701449  0.25303015  1
  Si  Si5  1  0.00462840  0.67804822  0.24454659  1
  Si  Si6  1  0.50151439  0.14967713  0.75084110  1
  Si  Si7  1  0.49792106  0.48282890  0.73857297  1
  Si  Si8  1  0.50138050  0.81999905  0.75247364  1
  Si  Si9  1  0.50462840  0.17804822  0.24454659  1
  Si  Si10  1  0.50445923  0.51292573  0.24203173  1
  Si  Si11  1  0.50220044  0.84701449  0.25303015  1
  Si  Si12  1  0.35181391  0.29862702  0.75693477  1
  Si  Si13  1  0.34952914  0.63381993  0.75332577  1
  Si  Si14  1  0.35523151  0.96298898  0.75249754  1
  Si  Si15  1  0.64681179  0.30066660  0.73740987  1
  Si  Si16  1  0.65072098  0.63290417  0.74817778  1
  Si  Si17  1  0.64562321  0.96337910  0.74498923  1
  Si  Si18  1  0.64220132  0.03232942  0.24651595  1
  Si  Si19  1  0.64374302  0.36745541  0.24978556  1
  Si  Si20  1  0.63823394  0.70024731  0.24109779  1
  Si  Si21  1  0.35329218  0.03559115  0.25477924  1
  Si  Si22  1  0.35597472  0.37104020  0.25577306  1
  Si  Si23  1  0.35349906  0.70667423  0.25199170  1
  Si  Si24  1  0.84952914  0.13381993  0.75332577  1
  Si  Si25  1  0.85523151  0.46298898  0.75249754  1
  Si  Si26  1  0.85181391  0.79862702  0.75693477  1
  Si  Si27  1  0.15072098  0.13290417  0.74817778  1
  Si  Si28  1  0.14562321  0.46337910  0.74498923  1
  Si  Si29  1  0.14681179  0.80066660  0.73740987  1
  Si  Si30  1  0.13823394  0.20024731  0.24109779  1
  Si  Si31  1  0.14220132  0.53232942  0.24651595  1
  Si  Si32  1  0.14374302  0.86745541  0.24978556  1
  Si  Si33  1  0.85349906  0.20667423  0.25199170  1
  Si  Si34  1  0.85329218  0.53559115  0.25477924  1
  Si  Si35  1  0.85597472  0.87104020  0.25577306  1
  O  O0  1  0.15302996  0.19386043  0.74832576  1
  O  O1  1  0.14488553  0.52347510  0.73151320  1
  O  O2  1  0.15018149  0.86109128  0.74775933  1
  O  O3  1  0.84492174  0.19242191  0.78464834  1
  O  O4  1  0.84699832  0.52271526  0.75754389  1
  O  O5  1  0.84675897  0.85692238  0.79021305  1
  O  O6  1  0.84118378  0.14871104  0.23570291  1
  O  O7  1  0.85174573  0.47559723  0.26992360  1
  O  O8  1  0.84011003  0.81381307  0.23193030  1
  O  O9  1  0.14156025  0.13979006  0.23190897  1
  O  O10  1  0.15186344  0.47178121  0.24968454  1
  O  O11  1  0.14369500  0.80757618  0.23241417  1
  O  O12  1  0.64488553  0.02347510  0.73151320  1
  O  O13  1  0.65018149  0.36109128  0.74775933  1
  O  O14  1  0.65302996  0.69386043  0.74832576  1
  O  O15  1  0.34699832  0.02271526  0.75754389  1
  O  O16  1  0.34675897  0.35692238  0.79021305  1
  O  O17  1  0.34492174  0.69242191  0.78464834  1
  O  O18  1  0.34011003  0.31381307  0.23193030  1
  O  O19  1  0.34118378  0.64871104  0.23570291  1
  O  O20  1  0.35174573  0.97559723  0.26992360  1
  O  O21  1  0.64369500  0.30757618  0.23241417  1
  O  O22  1  0.64156025  0.63979006  0.23190897  1
  O  O23  1  0.65186344  0.97178121  0.24968454  1
  O  O24  1  0.41241314  0.17553928  0.56875043  1
  O  O25  1  0.41091459  0.50929409  0.55507646  1
  O  O26  1  0.43466153  0.85719830  0.58035835  1
  O  O27  1  0.56731456  0.18881098  0.92056444  1
  O  O28  1  0.55836383  0.52384677  0.90607037  1
  O  O29  1  0.56966180  0.85542556  0.93223430  1
  O  O30  1  0.57181184  0.14261550  0.42770712  1
  O  O31  1  0.56492137  0.47566645  0.41840486  1
  O  O32  1  0.57002489  0.80948655  0.42435473  1
  O  O33  1  0.45364642  0.13646346  0.08580779  1
  O  O34  1  0.44802581  0.47826392  0.06358036  1
  O  O35  1  0.44135758  0.81452749  0.07220896  1
  O  O36  1  0.91091459  0.00929409  0.55507646  1
  O  O37  1  0.93466153  0.35719830  0.58035835  1
  O  O38  1  0.91241314  0.67553928  0.56875043  1
  O  O39  1  0.05836383  0.02384677  0.90607037  1
  O  O40  1  0.06966180  0.35542556  0.93223430  1
  O  O41  1  0.06731456  0.68881098  0.92056444  1
  O  O42  1  0.07002489  0.30948655  0.42435473  1
  O  O43  1  0.07181184  0.64261550  0.42770712  1
  O  O44  1  0.06492137  0.97566645  0.41840486  1
  O  O45  1  0.94135758  0.31452749  0.07220896  1
  O  O46  1  0.95364642  0.63646346  0.08580779  1
  O  O47  1  0.94802581  0.97826392  0.06358036  1
  O  O48  1  0.25669737  0.26905714  0.74304114  1
  O  O49  1  0.25731617  0.60217459  0.74486241  1
  O  O50  1  0.25643356  0.93752104  0.73161785  1
  O  O51  1  0.75338350  0.28025436  0.77059200  1
  O  O52  1  0.76003090  0.61409245  0.78167701  1
  O  O53  1  0.74897911  0.94457528  0.76177813  1
  O  O54  1  0.72449716  0.05923872  0.22568483  1
  O  O55  1  0.74626728  0.39210977  0.27337770  1
  O  O56  1  0.72750781  0.72505674  0.23423947  1
  O  O57  1  0.25622477  0.06413399  0.23386556  1
  O  O58  1  0.25645296  0.39728788  0.24288701  1
  O  O59  1  0.25440194  0.73158311  0.23971285  1
  O  O60  1  0.75731617  0.10217459  0.74486241  1
  O  O61  1  0.75643356  0.43752104  0.73161785  1
  O  O62  1  0.75669737  0.76905714  0.74304114  1
  O  O63  1  0.26003090  0.11409245  0.78167701  1
  O  O64  1  0.24897911  0.44457528  0.76177813  1
  O  O65  1  0.25338350  0.78025436  0.77059200  1
  O  O66  1  0.22750781  0.22505674  0.23423947  1
  O  O67  1  0.22449716  0.55923872  0.22568483  1
  O  O68  1  0.24626728  0.89210977  0.27337770  1
  O  O69  1  0.75440194  0.23158311  0.23971285  1
  O  O70  1  0.75622477  0.56413399  0.23386556  1
  O  O71  1  0.75645296  0.89728788  0.24288701  1
  O  O72  1  0.34641785  0.29513674  0.57635288  1
  O  O73  1  0.34369893  0.62850826  0.57331814  1
  O  O74  1  0.36624995  0.95169805  0.58671452  1
  O  O75  1  0.63414586  0.28423854  0.90346520  1
  O  O76  1  0.64313929  0.61883936  0.91951450  1
  O  O77  1  0.64285100  0.95130101  0.92249618  1
  O  O78  1  0.64597225  0.04667193  0.42797806  1
  O  O79  1  0.63711286  0.38003675  0.41949585  1
  O  O80  1  0.64314154  0.71357299  0.42605961  1
  O  O81  1  0.35312581  0.04746379  0.07840685  1
  O  O82  1  0.36101350  0.39556309  0.09616383  1
  O  O83  1  0.35641432  0.72852074  0.08819971  1
  O  O84  1  0.84369893  0.12850826  0.57331814  1
  O  O85  1  0.86624995  0.45169805  0.58671452  1
  O  O86  1  0.84641785  0.79513674  0.57635288  1
  O  O87  1  0.14313929  0.11883936  0.91951450  1
  O  O88  1  0.14285100  0.45130101  0.92249618  1
  O  O89  1  0.13414586  0.78423854  0.90346520  1
  O  O90  1  0.14314154  0.21357299  0.42605961  1
  O  O91  1  0.14597225  0.54667193  0.42797806  1
  O  O92  1  0.13711286  0.88003675  0.41949585  1
  O  O93  1  0.85641432  0.22852074  0.08819971  1
  O  O94  1  0.85312581  0.54746379  0.07840685  1
  O  O95  1  0.86101350  0.89556309  0.09616383  1
  O  O96  1  0.46124667  0.27400702  0.93008848  1
  O  O97  1  0.46024872  0.60868467  0.92446013  1
  O  O98  1  0.46452119  0.94247647  0.93570929  1
  O  O99  1  0.55238886  0.28157215  0.54801773  1
  O  O100  1  0.55750498  0.61300566  0.55977007  1
  O  O101  1  0.53889120  0.94114588  0.56775810  1
  O  O102  1  0.52488564  0.04335873  0.07451291  1
  O  O103  1  0.53685570  0.38725618  0.06957279  1
  O  O104  1  0.52755301  0.72137608  0.07305544  1
  O  O105  1  0.46260856  0.05745031  0.43172880  1
  O  O106  1  0.46255266  0.39130824  0.44333247  1
  O  O107  1  0.46389915  0.72471793  0.43992377  1
  O  O108  1  0.96024872  0.10868467  0.92446013  1
  O  O109  1  0.96452119  0.44247647  0.93570929  1
  O  O110  1  0.96124667  0.77400702  0.93008848  1
  O  O111  1  0.05750498  0.11300566  0.55977007  1
  O  O112  1  0.03889120  0.44114588  0.56775810  1
  O  O113  1  0.05238886  0.78157215  0.54801773  1
  O  O114  1  0.02755301  0.22137608  0.07305544  1
  O  O115  1  0.02488564  0.54335873  0.07451291  1
  O  O116  1  0.03685570  0.88725618  0.06957279  1
  O  O117  1  0.96389915  0.22471793  0.43992377  1
  O  O118  1  0.96260856  0.55745031  0.43172880  1
  O  O119  1  0.96255266  0.89130824  0.44333247  1
  O  O120  1  0.08107474  0.28633309  0.73529363  1
  O  O121  1  0.08533117  0.61606249  0.74221094  1
  O  O122  1  0.08717852  0.95109847  0.74372740  1
  O  O123  1  0.92521425  0.28201588  0.76257300  1
  O  O124  1  0.93901272  0.60891104  0.79018108  1
  O  O125  1  0.92818031  0.94347178  0.76744787  1
  O  O126  1  0.91707339  0.04639529  0.22876245  1
  O  O127  1  0.92462588  0.38392575  0.26600777  1
  O  O128  1  0.91506984  0.70998051  0.22698677  1
  O  O129  1  0.08956181  0.04698977  0.23843766  1
  O  O130  1  0.08714546  0.38105402  0.24709563  1
  O  O131  1  0.08930792  0.71129726  0.23719501  1
  O  O132  1  0.58533117  0.11606249  0.74221094  1
  O  O133  1  0.58717852  0.45109847  0.74372740  1
  O  O134  1  0.58107474  0.78633309  0.73529363  1
  O  O135  1  0.43901272  0.10891104  0.79018108  1
  O  O136  1  0.42818031  0.44347178  0.76744787  1
  O  O137  1  0.42521425  0.78201588  0.76257300  1
  O  O138  1  0.41506984  0.20998051  0.22698677  1
  O  O139  1  0.41707339  0.54639529  0.22876245  1
  O  O140  1  0.42462588  0.88392575  0.26600777  1
  O  O141  1  0.58930792  0.21129726  0.23719501  1
  O  O142  1  0.58956181  0.54698977  0.23843766  1
  O  O143  1  0.58714546  0.88105402  0.24709563  1
loop_
_geom_bond_atom_site_label_1
_geom_bond_atom_site_label_2
_geom_bond_distance
_geom_bond_site_symmetry_2
Na0 O18 2.330675 1_555
Na0 O66 2.429757 1_555
Na0 O138 2.466768 1_555
Na0 O48 2.499349 1_554
Na0 O0 2.572097 1_554
Na0 O120 2.579782 1_554
Na1 O19 2.326332 1_555
Na1 O67 2.411415 1_555
Na1 O139 2.432800 1_555
Na1 O49 2.473410 1_554
Na1 O121 2.514971 1_554
Na1 O1 2.789910 1_554
Na2 O2 2.397424 1_555
Na2 O122 2.457504 1_555
Na2 O140 2.580229 1_556
Na2 O50 2.584198 1_555
Na2 O68 2.592985 1_556
Na2 O20 2.625258 1_556
Na3 O21 2.459651 1_555
Na3 O51 2.461472 1_555
Na3 O123 2.542080 1_555
Na3 O69 2.570400 1_555
Na3 O141 2.570633 1_555
Na3 O3 2.734545 1_555
Na4 O142 2.341238 1_555
Na4 O4 2.468459 1_555
Na4 O70 2.563460 1_555
Na4 O22 2.617813 1_555
Na4 O52 2.640630 1_555
Na4 O124 2.847058 1_555
Na5 O23 2.486588 1_555
Na5 O53 2.488138 1_555
Na5 O143 2.490762 1_555
Na5 O71 2.493561 1_555
Na5 O125 2.527333 1_555
Na5 O5 2.632321 1_555
Na6 O6 2.326332 1_555
Na6 O54 2.411415 1_555
Na6 O126 2.432800 1_555
Na6 O60 2.473410 1_554
Na6 O132 2.514971 1_554
Na6 O12 2.789910 1_554
Na7 O13 2.397424 1_555
Na7 O133 2.457504 1_555
Na7 O127 2.580229 1_556
Na7 O61 2.584198 1_555
Na7 O55 2.592985 1_556
Na7 O7 2.625258 1_556
Na8 O8 2.330675 1_555
Na8 O56 2.429757 1_555
Na8 O128 2.466768 1_555
Na8 O62 2.499349 1_554
Na8 O14 2.572097 1_554
Na8 O134 2.579782 1_554
Na9 O129 2.341238 1_555
Na9 O15 2.468459 1_555
Na9 O57 2.563460 1_555
Na9 O9 2.617813 1_555
Na9 O63 2.640630 1_555
Na9 O135 2.847058 1_555
Na10 O10 2.486588 1_555
Na10 O64 2.488138 1_555
Na10 O130 2.490762 1_555
Na10 O58 2.493561 1_555
Na10 O136 2.527333 1_555
Na10 O16 2.632321 1_555
Na11 O11 2.459651 1_555
Na11 O65 2.461472 1_555
Na11 O137 2.542080 1_555
Na11 O59 2.570400 1_555
Na11 O131 2.570633 1_555
Na11 O17 2.734545 1_555
Na12 O135 2.364111 1_555
Na12 O12 2.394098 1_555
Na12 O15 2.508609 1_555
Na12 O132 2.602511 1_555
Na12 O105 2.708508 1_555
Na12 O102 2.725923 1_556
Na12 O74 2.911776 1_545
Na12 O77 2.926349 1_545
Na13 O13 2.433960 1_555
Na13 O106 2.473526 1_555
Na13 O136 2.530826 1_555
Na13 O72 2.617335 1_555
Na13 O16 2.646204 1_555
Na13 O133 2.821930 1_555
Na13 O103 2.855898 1_556
Na13 O75 2.868213 1_555
Na14 O14 2.514810 1_555
Na14 O107 2.537693 1_555
Na14 O137 2.591596 1_555
Na14 O17 2.596309 1_555
Na14 O73 2.673054 1_555
Na14 O134 2.807636 1_555
Na14 O104 2.893822 1_556
Na14 O76 2.973029 1_555
Na15 O99 2.280160 1_555
Na15 O18 2.448094 1_555
Na15 O21 2.483142 1_555
Na15 O138 2.524557 1_555
Na15 O141 2.699528 1_555
Na15 O96 2.734888 1_554
Na16 O100 2.311077 1_555
Na16 O19 2.422119 1_555
Na16 O139 2.467034 1_555
Na16 O22 2.477400 1_555
Na16 O142 2.701644 1_555
Na16 O97 2.840518 1_554
Na17 O20 2.437915 1_555
Na17 O23 2.452176 1_555
Na17 O140 2.517488 1_555
Na17 O101 2.640334 1_555
Na17 O98 2.672279 1_554
Na17 O143 2.685929 1_555
Na17 O102 2.872529 1_565
Na17 O81 2.966791 1_565
Na17 O78 2.977432 1_565
Na18 O0 2.514810 1_655
Na18 O117 2.537693 1_555
Na18 O123 2.591596 1_555
Na18 O3 2.596309 1_555
Na18 O84 2.673054 1_555
Na18 O120 2.807636 1_655
Na18 O114 2.893822 1_656
Na18 O87 2.973029 1_655
Na19 O124 2.364111 1_455
Na19 O1 2.394098 1_555
Na19 O4 2.508609 1_455
Na19 O121 2.602511 1_555
Na19 O118 2.708508 1_455
Na19 O115 2.725923 1_556
Na19 O85 2.911776 1_455
Na19 O88 2.926349 1_555
Na20 O2 2.433960 1_655
Na20 O119 2.473526 1_555
Na20 O125 2.530826 1_555
Na20 O86 2.617335 1_555
Na20 O5 2.646204 1_555
Na20 O122 2.821930 1_655
Na20 O116 2.855898 1_656
Na20 O89 2.868213 1_655
Na21 O111 2.311077 1_655
Na21 O6 2.422119 1_555
Na21 O126 2.467034 1_555
Na21 O9 2.477400 1_655
Na21 O129 2.701644 1_655
Na21 O108 2.840518 1_554
Na22 O7 2.437915 1_555
Na22 O10 2.452176 1_655
Na22 O127 2.517488 1_555
Na22 O112 2.640334 1_655
Na22 O109 2.672279 1_554
Na22 O130 2.685929 1_655
Na22 O115 2.872529 1_655
Na22 O94 2.966791 1_555
Na22 O91 2.977432 1_655
Na23 O113 2.280160 1_655
Na23 O8 2.448094 1_555
Na23 O11 2.483142 1_655
Na23 O128 2.524557 1_555
Na23 O131 2.699528 1_655
Na23 O110 2.734888 1_554
Na24 O128 2.378589 1_555
Na24 O56 2.387086 1_555
Na24 O70 2.508104 1_555
Na24 O38 2.547583 1_555
Na24 O22 2.624948 1_555
Na24 O76 2.714526 1_554
Na25 O126 2.376594 1_565
Na25 O36 2.419239 1_565
Na25 O54 2.470220 1_565
Na25 O71 2.564953 1_555
Na25 O23 2.666969 1_555
Na25 O77 2.783075 1_554
Na26 O72 2.333807 1_555
Na26 O66 2.382371 1_555
Na26 O18 2.543504 1_555
Na26 O130 2.587628 1_555
Na26 O58 2.732825 1_555
Na26 O40 2.954999 1_554
Na26 O42 2.963613 1_555
Na27 O73 2.328019 1_555
Na27 O19 2.426882 1_555
Na27 O67 2.436386 1_555
Na27 O131 2.454148 1_555
Na27 O59 2.611296 1_555
Na28 O78 2.459534 1_555
Na28 O60 2.472651 1_555
Na28 O36 2.489462 1_555
Na28 O53 2.654022 1_545
Na28 O125 2.668413 1_545
Na28 O12 2.926188 1_555
Na29 O38 2.422289 1_555
Na29 O80 2.451740 1_555
Na29 O62 2.481036 1_555
Na29 O52 2.559601 1_555
Na29 O124 2.772735 1_555
Na29 O14 2.872250 1_555
Na30 O138 2.378589 1_555
Na30 O66 2.387086 1_555
Na30 O57 2.508104 1_555
Na30 O24 2.547583 1_555
Na30 O9 2.624948 1_555
Na30 O87 2.714526 1_554
Na31 O139 2.376594 1_555
Na31 O25 2.419239 1_555
Na31 O67 2.470220 1_555
Na31 O58 2.564953 1_555
Na31 O10 2.666969 1_555
Na31 O88 2.783075 1_554
Na32 O84 2.328019 1_555
Na32 O6 2.426882 1_555
Na32 O54 2.436386 1_555
Na32 O141 2.454148 1_555
Na32 O69 2.611296 1_555
Na33 O86 2.333807 1_555
Na33 O56 2.382371 1_555
Na33 O8 2.543504 1_555
Na33 O143 2.587628 1_555
Na33 O71 2.732825 1_555
Na33 O29 2.954999 1_554
Na33 O32 2.963613 1_555
Na34 O24 2.422289 1_555
Na34 O90 2.451740 1_555
Na34 O48 2.481036 1_555
Na34 O63 2.559601 1_555
Na34 O135 2.772735 1_555
Na34 O0 2.872250 1_555
Na35 O91 2.459534 1_555
Na35 O49 2.472651 1_555
Na35 O25 2.489462 1_555
Na35 O64 2.654022 1_555
Na35 O136 2.668413 1_555
Na35 O1 2.926188 1_555
Ca0 O111 2.207216 1_655
Ca0 O36 2.230232 1_555
Ca0 O84 2.247280 1_555
Ca0 O126 2.330907 1_555
Ca0 O6 2.366502 1_555
Ca0 O54 2.413599 1_555
Ca1 O113 2.198028 1_655
Ca1 O38 2.249543 1_555
Ca1 O86 2.256133 1_555
Ca1 O128 2.351003 1_555
Ca1 O56 2.362674 1_555
Ca1 O8 2.387896 1_555
Ca2 O99 2.198028 1_555
Ca2 O24 2.249543 1_555
Ca2 O72 2.256133 1_555
Ca2 O138 2.351003 1_555
Ca2 O66 2.362674 1_555
Ca2 O18 2.387896 1_555
Ca3 O100 2.207216 1_555
Ca3 O25 2.230232 1_555
Ca3 O73 2.247280 1_555
Ca3 O139 2.330907 1_555
Ca3 O19 2.366502 1_555
Ca3 O67 2.413599 1_555
O0 Si27 1.668219 1_555
O0 Ta0 2.042010 1_555
O1 Si28 1.648180 1_555
O1 Ta1 2.068345 1_555
O2 Si29 1.655295 1_555
O2 Ta2 2.053488 1_555
O3 Si24 1.638394 1_555
O3 Ta3 2.017833 1_555
O4 Si25 1.642473 1_555
O4 Ta4 2.062390 1_555
O5 Si26 1.634987 1_555
O5 Ta5 1.984412 1_555
O6 Si33 1.594481 1_555
O7 Si34 1.648320 1_555
O7 Ta6 2.067897 1_555
O8 Si35 1.581119 1_555
O9 Si30 1.659000 1_555
O9 Ta7 2.096741 1_555
O10 Si31 1.662655 1_555
O10 Ta8 2.062846 1_555
O11 Si32 1.646387 1_555
O11 Ta9 2.064026 1_555
O12 Si17 1.648180 1_545
O12 Ta10 2.068345 1_555
O13 Si15 1.655295 1_555
O13 Ta11 2.053488 1_555
O14 Si16 1.668219 1_555
O14 Ta12 2.042010 1_555
O15 Si14 1.642473 1_545
O15 Ta13 2.062390 1_555
O16 Si12 1.634987 1_555
O16 Ta14 1.984412 1_555
O17 Si13 1.638394 1_555
O17 Ta15 2.017833 1_555
O18 Si22 1.581119 1_555
O19 Si23 1.594481 1_555
O20 Si21 1.648320 1_565
O20 Ta16 2.067897 1_555
O21 Si19 1.646387 1_555
O21 Ta17 2.064026 1_555
O22 Si20 1.659000 1_555
O22 Ta18 2.096741 1_555
O23 Si18 1.662655 1_565
O23 Ta19 2.062846 1_555
O24 Si6 1.597003 1_555
O25 Si7 1.602181 1_555
O26 Si8 1.643822 1_555
O26 Ta16 1.923528 1_555
O27 Si6 1.666146 1_555
O27 Ta17 1.975396 1_556
O28 Si7 1.682457 1_555
O28 Ta18 1.927683 1_556
O29 Si8 1.661337 1_555
O29 Ta19 1.940097 1_556
O30 Si9 1.676543 1_555
O30 Ta10 1.921327 1_555
O31 Si10 1.662650 1_555
O31 Ta11 1.949457 1_555
O32 Si11 1.647027 1_555
O32 Ta12 1.957618 1_555
O33 Si9 1.643509 1_555
O33 Ta13 1.919429 1_554
O34 Si10 1.635894 1_555
O34 Ta14 1.923630 1_554
O35 Si11 1.616291 1_555
O35 Ta15 1.958170 1_554
O36 Si2 1.602181 1_545
O37 Si0 1.643822 1_655
O37 Ta6 1.923528 1_555
O38 Si1 1.597003 1_655
O39 Si2 1.682457 1_445
O39 Ta7 1.927683 1_556
O40 Si0 1.661337 1_555
O40 Ta8 1.940097 1_556
O41 Si1 1.666146 1_555
O41 Ta9 1.975396 1_556
O42 Si4 1.647027 1_555
O42 Ta0 1.957618 1_555
O43 Si5 1.676543 1_555
O43 Ta1 1.921327 1_555
O44 Si3 1.662650 1_565
O44 Ta2 1.949457 1_555
O45 Si4 1.616291 1_655
O45 Ta3 1.958170 1_554
O46 Si5 1.643509 1_655
O46 Ta4 1.919429 1_554
O47 Si3 1.635894 1_665
O47 Ta5 1.923630 1_554
O48 Si12 1.647680 1_555
O48 Ta0 2.024741 1_555
O49 Si13 1.659193 1_555
O49 Ta1 2.016452 1_555
O50 Si14 1.619441 1_555
O50 Ta2 2.007513 1_555
O51 Si15 1.632420 1_555
O51 Ta3 1.947425 1_555
O52 Si16 1.657329 1_555
O52 Ta4 1.994519 1_555
O53 Si17 1.636726 1_555
O53 Ta5 2.087616 1_555
O54 Si18 1.598381 1_555
O55 Si19 1.652604 1_555
O55 Ta6 1.997785 1_555
O56 Si20 1.599790 1_555
O57 Si21 1.634999 1_555
O57 Ta7 2.075965 1_555
O58 Si22 1.673716 1_555
O58 Ta8 2.022541 1_555
O59 Si23 1.654803 1_555
O59 Ta9 2.005346 1_555
O60 Si24 1.659193 1_555
O60 Ta10 2.016452 1_555
O61 Si25 1.619441 1_555
O61 Ta11 2.007513 1_555
O62 Si26 1.647680 1_555
O62 Ta12 2.024741 1_555
O63 Si27 1.657329 1_555
O63 Ta13 1.994519 1_555
O64 Si28 1.636726 1_555
O64 Ta14 2.087616 1_555
O65 Si29 1.632420 1_555
O65 Ta15 1.947425 1_555
O66 Si30 1.599790 1_555
O67 Si31 1.598381 1_555
O68 Si32 1.652604 1_555
O68 Ta16 1.997785 1_555
O69 Si33 1.654803 1_555
O69 Ta17 2.005346 1_555
O70 Si34 1.634999 1_555
O70 Ta18 2.075965 1_555
O71 Si35 1.673716 1_555
O71 Ta19 2.022541 1_555
O72 Si12 1.600181 1_555
O73 Si13 1.595176 1_555
O74 Si14 1.646328 1_555
O74 Ta16 1.945857 1_555
O75 Si15 1.695268 1_555
O75 Ta17 1.927095 1_556
O76 Si16 1.676114 1_555
O76 Ta18 1.992909 1_556
O77 Si17 1.674320 1_555
O77 Ta19 1.979053 1_556
O78 Si18 1.666914 1_555
O78 Ta10 2.013672 1_555
O79 Si19 1.645438 1_555
O79 Ta11 1.962280 1_555
O80 Si20 1.682021 1_555
O80 Ta12 2.011836 1_555
O81 Si21 1.636526 1_555
O81 Ta13 1.955414 1_554
O82 Si22 1.642477 1_555
O82 Ta14 1.921338 1_554
O83 Si23 1.630699 1_555
O83 Ta15 1.898628 1_554
O84 Si24 1.595176 1_555
O85 Si25 1.646328 1_555
O85 Ta6 1.945857 1_555
O86 Si26 1.600181 1_555
O87 Si27 1.676114 1_555
O87 Ta7 1.992909 1_556
O88 Si28 1.674320 1_555
O88 Ta8 1.979053 1_556
O89 Si29 1.695268 1_555
O89 Ta9 1.927095 1_556
O90 Si30 1.682021 1_555
O90 Ta0 2.011836 1_555
O91 Si31 1.666914 1_555
O91 Ta1 2.013672 1_555
O92 Si32 1.645438 1_555
O92 Ta2 1.962280 1_555
O93 Si33 1.630699 1_555
O93 Ta3 1.898628 1_554
O94 Si34 1.636526 1_555
O94 Ta4 1.955414 1_554
O95 Si35 1.642477 1_555
O95 Ta5 1.921338 1_554
O96 Si12 1.673700 1_555
O96 Ta17 1.999739 1_556
O97 Si13 1.683437 1_555
O97 Ta18 1.974664 1_556
O98 Si14 1.665549 1_555
O98 Ta19 1.979534 1_556
O99 Si15 1.588231 1_555
O100 Si16 1.584775 1_555
O101 Si17 1.642736 1_555
O101 Ta16 2.032048 1_555
O102 Si18 1.628111 1_555
O102 Ta13 1.956040 1_554
O103 Si19 1.630368 1_555
O103 Ta14 1.977356 1_554
O104 Si20 1.632225 1_555
O104 Ta15 1.971177 1_554
O105 Si21 1.657398 1_555
O105 Ta10 2.014819 1_555
O106 Si22 1.662134 1_555
O106 Ta11 2.019902 1_555
O107 Si23 1.671059 1_555
O107 Ta12 1.975490 1_555
O108 Si24 1.683437 1_555
O108 Ta7 1.974664 1_656
O109 Si25 1.665549 1_555
O109 Ta8 1.979534 1_656
O110 Si26 1.673700 1_555
O110 Ta9 1.999739 1_656
O111 Si27 1.584775 1_555
O112 Si28 1.642736 1_555
O112 Ta6 2.032048 1_455
O113 Si29 1.588231 1_555
O114 Si30 1.632225 1_555
O114 Ta3 1.971177 1_454
O115 Si31 1.628111 1_555
O115 Ta4 1.956040 1_454
O116 Si32 1.630368 1_555
O116 Ta5 1.977356 1_454
O117 Si33 1.671059 1_555
O117 Ta0 1.975490 1_655
O118 Si34 1.657398 1_555
O118 Ta1 2.014819 1_655
O119 Si35 1.662134 1_555
O119 Ta2 2.019902 1_655
O120 Si0 1.641631 1_555
O120 Ta0 2.000708 1_555
O121 Si1 1.654029 1_555
O121 Ta1 1.985345 1_555
O122 Si2 1.636778 1_455
O122 Ta2 2.022891 1_555
O123 Si0 1.632430 1_655
O123 Ta3 2.077533 1_555
O124 Si1 1.659177 1_655
O124 Ta4 2.000008 1_555
O125 Si2 1.666002 1_555
O125 Ta5 2.011308 1_555
O126 Si3 1.605453 1_655
O127 Si4 1.646975 1_655
O127 Ta6 2.055352 1_555
O128 Si5 1.594006 1_655
O129 Si3 1.652462 1_555
O129 Ta7 2.007976 1_555
O130 Si4 1.660499 1_555
O130 Ta8 2.050865 1_555
O131 Si5 1.651475 1_555
O131 Ta9 2.097189 1_555
O132 Si6 1.654029 1_555
O132 Ta10 1.985345 1_555
O133 Si7 1.636778 1_555
O133 Ta11 2.022891 1_555
O134 Si8 1.641631 1_555
O134 Ta12 2.000708 1_555
O135 Si6 1.659177 1_555
O135 Ta13 2.000008 1_555
O136 Si7 1.666002 1_555
O136 Ta14 2.011308 1_555
O137 Si8 1.632430 1_555
O137 Ta15 2.077533 1_555
O138 Si9 1.594006 1_555
O139 Si10 1.605453 1_555
O140 Si11 1.646975 1_555
O140 Ta16 2.055352 1_555
O141 Si9 1.651475 1_555
O141 Ta17 2.097189 1_555
O142 Si10 1.652462 1_555
O142 Ta18 2.007976 1_555
O143 Si11 1.660499 1_555
O143 Ta19 2.050865 1_555
