# generated using pymatgen
data_MgV4Zn2O10
_symmetry_space_group_name_H-M   'P 1'
_cell_length_a   3.62169970
_cell_length_b   5.43675405
_cell_length_c   11.95073193
_cell_angle_alpha   87.82123382
_cell_angle_beta   89.67653865
_cell_angle_gamma   98.20742261
_symmetry_Int_Tables_number   1
_chemical_formula_structural   MgV4Zn2O10
_chemical_formula_sum   'Mg1 V4 Zn2 O10'
_cell_volume   232.72028669
_cell_formula_units_Z   1
loop_
 _symmetry_equiv_pos_site_id
 _symmetry_equiv_pos_as_xyz
  1  'x, y, z'
loop_
 _atom_site_type_symbol
 _atom_site_label
 _atom_site_symmetry_multiplicity
 _atom_site_fract_x
 _atom_site_fract_y
 _atom_site_fract_z
 _atom_site_occupancy
  Mg  Mg0  1  0.27255488  0.04754950  0.24916132  1
  V  V0  1  0.23302479  0.41640466  0.07491325  1
  V  V1  1  0.78627072  0.63919752  0.89074739  1
  V  V2  1  0.75834812  0.60028686  0.60393430  1
  V  V3  1  0.21877627  0.37650929  0.42749438  1
  Zn  Zn0  1  0.71638591  0.68964995  0.25584616  1
  Zn  Zn1  1  0.15871328  0.23556668  0.75904087  1
  O  O0  1  0.70527049  0.42206266  0.75693509  1
  O  O1  1  0.23696370  0.42774605  0.25083546  1
  O  O2  1  0.76186415  0.55749450  0.05748893  1
  O  O3  1  0.25280146  0.50923341  0.91359268  1
  O  O4  1  0.74765638  0.52084684  0.43792680  1
  O  O5  1  0.22701956  0.45268766  0.58945204  1
  O  O6  1  0.21376917  0.07077922  0.41815606  1
  O  O7  1  0.82845833  0.89992804  0.62768075  1
  O  O8  1  0.91659758  0.94333848  0.85544074  1
  O  O9  1  0.21551719  0.10738669  0.08135079  1
loop_
_geom_bond_atom_site_label_1
_geom_bond_atom_site_label_2
_geom_bond_distance
_geom_bond_site_symmetry_2
Mg0 O9 2.035836 1_555
Mg0 O6 2.040177 1_555
Mg0 O1 2.090177 1_555
Mg0 Zn0 2.591755 1_445
Mg0 Zn0 2.694257 1_545
O0 V1 2.021612 1_555
O0 V2 2.031572 1_555
O0 Zn1 2.049284 1_655
O0 Zn1 2.090798 1_555
O1 Zn0 2.085109 1_555
O1 V0 2.105714 1_555
O1 V3 2.118393 1_555
O1 Zn0 2.521397 1_455
O2 V0 1.965707 1_555
O2 V0 1.977158 1_655
O2 V1 2.023712 1_554
O2 Zn0 2.514277 1_555
O3 V1 1.939090 1_455
O3 V0 1.972504 1_556
O3 V1 1.973899 1_555
O3 Zn1 2.410929 1_555
O4 V3 1.970089 1_555
O4 V3 1.982416 1_655
O4 V2 2.045771 1_555
O4 Zn0 2.338943 1_555
O5 V2 1.987539 1_555
O5 V2 1.987752 1_455
O5 V3 1.994168 1_555
O5 Zn1 2.300269 1_555
O6 V3 1.667676 1_555
O7 V2 1.648259 1_555
O8 V1 1.690231 1_555
O8 Zn1 2.017914 1_665
O9 V0 1.670995 1_555
