# generated using pymatgen
data_Sr2MgZrCrO6
_symmetry_space_group_name_H-M   'P 1'
_cell_length_a   6.60627882
_cell_length_b   5.71839895
_cell_length_c   5.79583101
_cell_angle_alpha   89.99952467
_cell_angle_beta   116.01868974
_cell_angle_gamma   115.64564220
_symmetry_Int_Tables_number   1
_chemical_formula_structural   Sr2MgZrCrO6
_chemical_formula_sum   'Sr2 Mg1 Zr1 Cr1 O6'
_cell_volume   172.43803383
_cell_formula_units_Z   1
loop_
 _symmetry_equiv_pos_site_id
 _symmetry_equiv_pos_as_xyz
  1  'x, y, z'
loop_
 _atom_site_type_symbol
 _atom_site_label
 _atom_site_symmetry_multiplicity
 _atom_site_fract_x
 _atom_site_fract_y
 _atom_site_fract_z
 _atom_site_occupancy
  Sr  Sr0  1  0.35583900  0.17792000  0.67792000  1
  Sr  Sr1  1  0.64416100  0.82208000  0.32208000  1
  Mg  Mg0  1  0.00000000  0.50000000  0.00000000  1
  Zr  Zr0  1  0.00000000  0.50000000  0.50000000  1
  Cr  Cr0  1  0.00000000  0.00000000  0.00000000  1
  O  O0  1  0.00000000  0.24573300  0.24124300  1
  O  O1  1  0.00000000  0.75426700  0.75875700  1
  O  O2  1  0.58876400  0.29438300  0.29438300  1
  O  O3  1  0.41123600  0.70561700  0.70561700  1
  O  O4  1  0.00000000  0.75426900  0.24124300  1
  O  O5  1  0.00000000  0.24573100  0.75875700  1
loop_
_geom_bond_atom_site_label_1
_geom_bond_atom_site_label_2
_geom_bond_distance
_geom_bond_site_symmetry_2
Mg0 O1 2.017190 1_554
Mg0 O0 2.017190 1_555
Mg0 O5 2.017215 1_554
Mg0 O4 2.017215 1_555
Cr0 O5 1.982295 1_554
Cr0 O4 1.982295 1_545
Cr0 O1 1.982320 1_544
Cr0 O0 1.982320 1_555
O0 Zr0 2.088849 1_555
O0 Sr1 2.766099 1_445
O0 Sr0 2.766100 1_555
O1 Zr0 2.088849 1_555
O1 Sr0 2.766099 1_565
O1 Sr1 2.766100 1_455
O2 Zr0 2.139607 1_655
O2 Sr1 2.873681 1_555
O2 Sr1 2.873699 1_545
O2 Sr0 3.141106 1_555
O2 Sr0 3.141111 1_554
O3 Zr0 2.139607 1_555
O3 Sr0 2.873681 1_555
O3 Sr0 2.873699 1_565
O3 Sr1 3.141106 1_555
O3 Sr1 3.141111 1_556
O4 Zr0 2.088839 1_555
O4 Sr1 2.766103 1_455
O4 Sr0 2.766110 1_565
O5 Zr0 2.088839 1_555
O5 Sr0 2.766103 1_555
O5 Sr1 2.766110 1_445
