# generated using pymatgen
data_Na8Al6Si6SO28
_symmetry_space_group_name_H-M   'P 1'
_cell_length_a   9.04510749
_cell_length_b   9.04510749
_cell_length_c   9.04510749
_cell_angle_alpha   90.00000000
_cell_angle_beta   90.00000000
_cell_angle_gamma   90.00000000
_symmetry_Int_Tables_number   1
_chemical_formula_structural   Na8Al6Si6SO28
_chemical_formula_sum   'Na8 Al6 Si6 S1 O28'
_cell_volume   740.01614836
_cell_formula_units_Z   1
loop_
 _symmetry_equiv_pos_site_id
 _symmetry_equiv_pos_as_xyz
  1  'x, y, z'
loop_
 _atom_site_type_symbol
 _atom_site_label
 _atom_site_symmetry_multiplicity
 _atom_site_fract_x
 _atom_site_fract_y
 _atom_site_fract_z
 _atom_site_occupancy
  Na  Na0  1  0.19151425  0.19151425  0.19151425  1
  Na  Na1  1  0.19151425  0.80848575  0.80848575  1
  Na  Na2  1  0.23853733  0.23853733  0.76146267  1
  Na  Na3  1  0.23853733  0.76146267  0.23853733  1
  Na  Na4  1  0.76146267  0.23853733  0.23853733  1
  Na  Na5  1  0.76146267  0.76146267  0.76146267  1
  Na  Na6  1  0.80848575  0.19151425  0.80848575  1
  Na  Na7  1  0.80848575  0.80848575  0.19151425  1
  Al  Al0  1  -0.00000000  0.25040570  0.50000000  1
  Al  Al1  1  -0.00000000  0.74959430  0.50000000  1
  Al  Al2  1  0.25040570  0.50000000  0.00000000  1
  Al  Al3  1  0.50000000  0.00000000  0.74959430  1
  Al  Al4  1  0.50000000  0.00000000  0.25040570  1
  Al  Al5  1  0.74959430  0.50000000  0.00000000  1
  Si  Si0  1  -0.00000000  0.50000000  0.24953144  1
  Si  Si1  1  -0.00000000  0.50000000  0.75046856  1
  Si  Si2  1  0.24953144  0.00000000  0.50000000  1
  Si  Si3  1  0.50000000  0.75046856  0.00000000  1
  Si  Si4  1  0.50000000  0.24953144  0.00000000  1
  Si  Si5  1  0.75046856  0.00000000  0.50000000  1
  S  S0  1  -0.00000000  0.00000000  0.00000000  1
  O  O0  1  0.04732864  0.35795372  0.65196124  1
  O  O1  1  0.04732864  0.64204628  0.34803876  1
  O  O2  1  0.09422825  0.09422825  0.90577175  1
  O  O3  1  0.09422825  0.90577175  0.09422825  1
  O  O4  1  0.15061193  0.14133638  0.45037902  1
  O  O5  1  0.14133638  0.45037902  0.15061193  1
  O  O6  1  0.14133638  0.54962098  0.84938807  1
  O  O7  1  0.15061193  0.85866362  0.54962098  1
  O  O8  1  0.34803876  0.04732864  0.64204628  1
  O  O9  1  0.35795372  0.34803876  0.95267136  1
  O  O10  1  0.35795372  0.65196124  0.04732864  1
  O  O11  1  0.34803876  0.95267136  0.35795372  1
  O  O12  1  0.45037902  0.15061193  0.14133638  1
  O  O13  1  0.45037902  0.84938807  0.85866362  1
  O  O14  1  0.54962098  0.15061193  0.85866362  1
  O  O15  1  0.54962098  0.84938807  0.14133638  1
  O  O16  1  0.65196124  0.04732864  0.35795372  1
  O  O17  1  0.64204628  0.34803876  0.04732864  1
  O  O18  1  0.64204628  0.65196124  0.95267136  1
  O  O19  1  0.65196124  0.95267136  0.64204628  1
  O  O20  1  0.84938807  0.14133638  0.54962098  1
  O  O21  1  0.85866362  0.45037902  0.84938807  1
  O  O22  1  0.85866362  0.54962098  0.15061193  1
  O  O23  1  0.84938807  0.85866362  0.45037902  1
  O  O24  1  0.90577175  0.09422825  0.09422825  1
  O  O25  1  0.90577175  0.90577175  0.90577175  1
  O  O26  1  0.95267136  0.35795372  0.34803876  1
  O  O27  1  0.95267136  0.64204628  0.65196124  1
loop_
_geom_bond_atom_site_label_1
_geom_bond_atom_site_label_2
_geom_bond_distance
_geom_bond_site_symmetry_2
Na0 O5 2.413566 1_555
Na0 O12 2.413566 1_555
Na0 O4 2.413566 1_555
Na1 O6 2.413566 1_555
Na1 O7 2.413566 1_555
Na1 O13 2.413566 1_555
Na2 O2 2.260831 1_555
Na2 O9 2.266907 1_555
Na2 O8 2.266907 1_555
Na2 O0 2.266907 1_555
Na3 O3 2.260831 1_555
Na3 O11 2.266907 1_555
Na3 O1 2.266907 1_555
Na3 O10 2.266907 1_555
Na4 O24 2.260831 1_555
Na4 O26 2.266907 1_555
Na4 O17 2.266907 1_555
Na4 O16 2.266907 1_555
Na5 O25 2.260831 1_555
Na5 O19 2.266907 1_555
Na5 O18 2.266907 1_555
Na5 O27 2.266907 1_555
Na6 O20 2.413566 1_555
Na6 O14 2.413566 1_555
Na6 O21 2.413566 1_555
Na7 O22 2.413566 1_555
Na7 O15 2.413566 1_555
Na7 O23 2.413566 1_555
Al0 O0 1.737480 1_555
Al0 O26 1.737480 1_455
Al0 O20 1.740856 1_455
Al0 O4 1.740856 1_555
Al1 O1 1.737480 1_555
Al1 O27 1.737480 1_455
Al1 O23 1.740856 1_455
Al1 O7 1.740856 1_555
Al2 O9 1.737480 1_554
Al2 O10 1.737480 1_555
Al2 O6 1.740856 1_554
Al2 O5 1.740856 1_555
Al3 O8 1.737480 1_555
Al3 O19 1.737480 1_545
Al3 O13 1.740856 1_545
Al3 O14 1.740856 1_555
Al4 O11 1.737480 1_545
Al4 O16 1.737480 1_555
Al4 O15 1.740856 1_545
Al4 O12 1.740856 1_555
Al5 O18 1.737480 1_554
Al5 O17 1.737480 1_555
Al5 O21 1.740856 1_554
Al5 O22 1.740856 1_555
O0 Si1 1.621090 1_555
O1 Si0 1.621090 1_555
O2 S0 1.476235 1_556
O3 S0 1.476235 1_565
O4 Si2 1.623673 1_555
O5 Si0 1.623673 1_555
O6 Si1 1.623673 1_555
O7 Si2 1.623673 1_565
O8 Si2 1.621090 1_555
O9 Si4 1.621090 1_556
O10 Si3 1.621090 1_555
O11 Si2 1.621090 1_565
O12 Si4 1.623673 1_555
O13 Si3 1.623673 1_556
O14 Si4 1.623673 1_556
O15 Si3 1.623673 1_555
O16 Si5 1.621090 1_555
O17 Si4 1.621090 1_555
O18 Si3 1.621090 1_556
O19 Si5 1.621090 1_565
O20 Si5 1.623673 1_555
O21 Si1 1.623673 1_655
O22 Si0 1.623673 1_655
O23 Si5 1.623673 1_565
O24 S0 1.476235 1_655
O25 S0 1.476235 1_666
O26 Si0 1.621090 1_655
O27 Si1 1.621090 1_655
