# generated using pymatgen
data_Na5Sc2In2P5SO24
_symmetry_space_group_name_H-M   'P 1'
_cell_length_a   8.99637609
_cell_length_b   9.02747412
_cell_length_c   22.93935663
_cell_angle_alpha   90.20626305
_cell_angle_beta   89.90797004
_cell_angle_gamma   119.88384174
_symmetry_Int_Tables_number   1
_chemical_formula_structural   Na5Sc2In2P5SO24
_chemical_formula_sum   'Na15 Sc6 In6 P15 S3 O72'
_cell_volume   1615.28828073
_cell_formula_units_Z   3
loop_
 _symmetry_equiv_pos_site_id
 _symmetry_equiv_pos_as_xyz
  1  'x, y, z'
loop_
 _atom_site_type_symbol
 _atom_site_label
 _atom_site_symmetry_multiplicity
 _atom_site_fract_x
 _atom_site_fract_y
 _atom_site_fract_z
 _atom_site_occupancy
  Na  Na0  1  0.64238056  0.00067992  0.25032185  1
  Na  Na1  1  0.99781185  0.36287577  0.74979685  1
  Na  Na2  1  0.36466499  -0.00003391  0.75066582  1
  Na  Na3  1  0.03110008  0.69911262  0.58233922  1
  Na  Na4  1  0.66530873  0.96730683  0.58355420  1
  Na  Na5  1  0.30261168  0.97248546  0.08207199  1
  Na  Na6  1  0.03016262  0.33261775  0.08379941  1
  Na  Na7  1  0.97402942  0.66555919  0.91683127  1
  Na  Na8  1  0.70332441  0.67067704  0.41747068  1
  Na  Na9  1  0.01390113  0.01263949  0.49968137  1
  Na  Na10  1  0.99796888  0.00653616  0.99916813  1
  Na  Na11  1  0.65727370  0.32650516  0.83386372  1
  Na  Na12  1  0.67977264  0.33843019  0.33336794  1
  Na  Na13  1  0.33643965  0.65196252  0.16756305  1
  Na  Na14  1  0.34287824  0.65609337  0.66662318  1
  Sc  Sc0  1  0.99219788  0.99755746  0.35028167  1
  Sc  Sc1  1  0.98891097  0.99571936  0.14983676  1
  Sc  Sc2  1  0.67380986  0.34899504  0.18410514  1
  Sc  Sc3  1  0.67057874  0.32530811  0.48213809  1
  Sc  Sc4  1  0.33347592  0.66475454  0.01825213  1
  Sc  Sc5  1  0.32143635  0.65995517  0.31534558  1
  In  In0  1  0.00586572  0.01059832  0.85057538  1
  In  In1  1  0.00353189  0.00415213  0.65011095  1
  In  In2  1  0.66473291  0.34067221  0.68201993  1
  In  In3  1  0.66164993  0.32306973  0.98459066  1
  In  In4  1  0.33132363  0.66673626  0.51477890  1
  In  In5  1  0.33683439  0.66797026  0.81745323  1
  P  P0  1  0.70379208  0.70470884  0.25165660  1
  P  P1  1  0.00035716  0.29345584  0.24909233  1
  P  P2  1  0.29827929  0.29831175  0.75026047  1
  P  P3  1  0.99800160  0.70256643  0.75117026  1
  P  P4  1  0.70243405  0.99928916  0.74889230  1
  P  P5  1  0.96328518  0.33411914  0.58397754  1
  P  P6  1  0.37212279  0.03977800  0.58316440  1
  P  P7  1  0.66454635  0.62797523  0.58078582  1
  P  P8  1  0.96125901  0.63059378  0.08157414  1
  P  P9  1  0.66548714  0.03775035  0.08568309  1
  P  P10  1  0.37187021  0.33283050  0.08441566  1
  P  P11  1  0.03653393  0.37055720  0.91757251  1
  P  P12  1  0.33387826  0.96297919  0.91699283  1
  P  P13  1  0.62666822  0.96129358  0.41494199  1
  P  P14  1  0.03594650  0.66808792  0.41695890  1
  S  S0  1  0.29406547  0.00088740  0.24966236  1
  S  S1  1  0.62992534  0.66623775  0.91745784  1
  S  S2  1  0.33233405  0.37029592  0.41571101  1
  O  O0  1  0.20844843  0.02181195  0.30108234  1
  O  O1  1  0.81193654  0.78738058  0.30730569  1
  O  O2  1  0.97351794  0.17501924  0.30157147  1
  O  O3  1  0.22207466  0.18411391  0.80438573  1
  O  O4  1  0.97319249  0.78366040  0.80699054  1
  O  O5  1  0.81895361  0.03268213  0.80217977  1
  O  O6  1  0.77715980  0.97201108  0.69159411  1
  O  O7  1  0.18308479  0.22218864  0.69576790  1
  O  O8  1  0.03064465  0.81271276  0.69556787  1
  O  O9  1  0.79400613  0.82315321  0.19891253  1
  O  O10  1  0.02516046  0.21215121  0.19279430  1
  O  O11  1  0.19297833  0.97725182  0.19577791  1
  O  O12  1  0.89103075  0.36692383  0.64115944  1
  O  O13  1  0.47613865  0.11062522  0.64042299  1
  O  O14  1  0.63837019  0.52472931  0.63655385  1
  O  O15  1  0.87323576  0.50882753  0.13346624  1
  O  O16  1  0.63331953  0.12009158  0.14020923  1
  O  O17  1  0.48676362  0.35879742  0.13740178  1
  O  O18  1  0.44452437  0.29354059  0.02917254  1
  O  O19  1  0.85858134  0.55870383  0.02466943  1
  O  O20  1  0.70883241  0.15332408  0.03148782  1
  O  O21  1  0.46605858  0.15347060  0.53079022  1
  O  O22  1  0.69092688  0.54227999  0.52626368  1
  O  O23  1  0.84387772  0.30760436  0.53180474  1
  O  O24  1  0.54247977  0.68617046  0.96904954  1
  O  O25  1  0.14835629  0.46233671  0.97181191  1
  O  O26  1  0.31198369  0.84921453  0.97094226  1
  O  O27  1  0.55562434  0.84986028  0.47103080  1
  O  O28  1  0.30099868  0.44134520  0.46979095  1
  O  O29  1  0.13609781  0.69571432  0.47469647  1
  O  O30  1  0.13021768  0.64238864  0.36521703  1
  O  O31  1  0.51539745  0.86979018  0.36095378  1
  O  O32  1  0.36017653  0.48327019  0.36516229  1
  O  O33  1  0.11485783  0.47688111  0.86113428  1
  O  O34  1  0.35851516  0.88508995  0.85995672  1
  O  O35  1  0.53063268  0.64168374  0.86349315  1
  O  O36  1  0.01420565  0.82769635  0.40901761  1
  O  O37  1  0.80715758  0.97642061  0.40875323  1
  O  O38  1  0.18202714  0.19764524  0.40764519  1
  O  O39  1  0.01741620  0.19112515  0.91497496  1
  O  O40  1  0.15967717  0.96316547  0.91456855  1
  O  O41  1  0.80345347  0.82124009  0.91422235  1
  O  O42  1  0.97020891  0.16586216  0.58645423  1
  O  O43  1  0.18765205  0.01277069  0.58592301  1
  O  O44  1  0.83204416  0.80807310  0.58511240  1
  O  O45  1  0.99318951  0.81388904  0.09122854  1
  O  O46  1  0.82876450  0.02167148  0.09206268  1
  O  O47  1  0.19013124  0.17056856  0.09177569  1
  O  O48  1  0.68534927  0.16355034  0.74524831  1
  O  O49  1  0.47443032  0.30859143  0.74477360  1
  O  O50  1  0.84317177  0.51917081  0.74655797  1
  O  O51  1  0.68501453  0.52638305  0.24449512  1
  O  O52  1  0.83091031  0.30111646  0.24407897  1
  O  O53  1  0.46945155  0.15247465  0.24505102  1
  O  O54  1  0.65335595  0.51479528  0.92219249  1
  O  O55  1  0.86084872  0.36597642  0.92194473  1
  O  O56  1  0.49109471  0.14366819  0.92112786  1
  O  O57  1  0.64362178  0.13892960  0.42138860  1
  O  O58  1  0.49273406  0.36168987  0.42121996  1
  O  O59  1  0.85179123  0.50940731  0.42107408  1
  O  O60  1  0.34529227  0.48953197  0.07802071  1
  O  O61  1  0.14271952  0.64511713  0.07714743  1
  O  O62  1  0.50088639  0.86205326  0.07709671  1
  O  O63  1  0.35498321  0.85849971  0.57813221  1
  O  O64  1  0.50946826  0.65832573  0.57658975  1
  O  O65  1  0.13977681  0.49821188  0.57712790  1
  O  O66  1  0.31600638  0.84715650  0.25519521  1
  O  O67  1  0.52704959  0.69693733  0.25708451  1
  O  O68  1  0.15897521  0.47274948  0.25658383  1
  O  O69  1  0.30935062  0.47480155  0.75647043  1
  O  O70  1  0.16409870  0.68711724  0.75457632  1
  O  O71  1  0.51940634  0.84282816  0.75460140  1
loop_
_geom_bond_atom_site_label_1
_geom_bond_atom_site_label_2
_geom_bond_distance
_geom_bond_site_symmetry_2
Na0 O52 2.381436 1_555
Na0 O67 2.405585 1_545
Na0 O53 2.537495 1_555
Na0 O66 2.549410 1_545
Na0 O16 2.767086 1_555
Na0 O31 2.794452 1_545
Na0 O9 2.824798 1_545
Na0 O2 2.838947 1_555
Na1 O50 2.426693 1_555
Na1 O69 2.465345 1_655
Na1 O48 2.471805 1_555
Na1 O70 2.540183 1_655
Na1 O12 2.679165 1_555
Na1 O33 2.756949 1_655
Na1 O7 2.831744 1_655
Na1 O5 2.856286 1_555
Na2 O71 2.434669 1_545
Na2 O49 2.452855 1_555
Na2 O70 2.482608 1_545
Na2 O48 2.504827 1_555
Na2 O34 2.706470 1_545
Na2 O13 2.722267 1_555
Na2 O3 2.834229 1_555
Na2 O8 2.901698 1_545
Na3 O44 2.435768 1_455
Na3 O65 2.454472 1_555
Na3 O43 2.456163 1_565
Na3 O63 2.528246 1_555
Na3 O29 2.647880 1_555
Na3 O8 2.789827 1_555
Na3 O12 2.942708 1_455
Na3 O22 2.950711 1_455
Na4 O42 2.416951 1_565
Na4 O64 2.423232 1_555
Na4 O63 2.458064 1_555
Na4 O44 2.543004 1_555
Na4 O6 2.668580 1_555
Na4 O27 2.776046 1_555
Na4 O13 2.906345 1_565
Na4 O23 2.920557 1_565
Na5 O45 2.423148 1_455
Na5 O62 2.441149 1_555
Na5 O47 2.463879 1_565
Na5 O61 2.564711 1_555
Na5 O11 2.794871 1_555
Na5 O26 2.795804 1_554
Na5 O18 2.799250 1_565
Na5 O16 2.907789 1_565
Na6 O60 2.461677 1_555
Na6 O46 2.476478 1_455
Na6 O61 2.482569 1_555
Na6 O47 2.518996 1_555
Na6 O10 2.721491 1_555
Na6 O20 2.784088 1_455
Na6 O25 2.805957 1_554
Na6 O15 2.835706 1_455
Na7 O40 2.353616 1_655
Na7 O55 2.371191 1_555
Na7 O54 2.505514 1_555
Na7 O41 2.546300 1_555
Na7 O19 2.671925 1_556
Na7 O4 2.740969 1_555
Na7 O33 2.875457 1_655
Na7 O26 2.916781 1_655
Na8 O59 2.418528 1_555
Na8 O36 2.432841 1_655
Na8 O37 2.442305 1_555
Na8 O58 2.472344 1_555
Na8 O1 2.726981 1_555
Na8 O22 2.734098 1_555
Na8 O27 2.830895 1_555
Na8 O32 2.936836 1_555
Na9 O43 2.522940 1_555
Na9 O42 2.559177 1_455
Na9 O44 2.632990 1_445
Na9 O38 2.651857 1_555
Na9 O36 2.663164 1_545
Na9 O37 2.705281 1_445
Na10 O39 2.503805 1_655
Na10 O40 2.566888 1_645
Na10 O41 2.593836 1_545
Na10 O46 2.659228 1_556
Na10 O47 2.670670 1_656
Na10 O45 2.727222 1_546
Na11 O56 2.553776 1_555
Na11 O49 2.579122 1_555
Na11 O48 2.589810 1_555
Na11 O55 2.630598 1_555
Na11 O50 2.636051 1_555
Na11 O54 2.651545 1_555
Na12 O59 2.536238 1_555
Na12 O52 2.569040 1_555
Na12 O57 2.620428 1_555
Na12 O51 2.642395 1_555
Na12 O58 2.697205 1_555
Na12 O53 2.706524 1_555
Na13 O60 2.543569 1_555
Na13 O67 2.575663 1_555
Na13 O68 2.603051 1_555
Na13 O61 2.691888 1_555
Na13 O62 2.704596 1_555
Na13 O66 2.734212 1_555
Na14 O64 2.544069 1_555
Na14 O69 2.558851 1_555
Na14 O71 2.599014 1_555
Na14 O65 2.642072 1_555
Na14 O70 2.677746 1_555
Na14 O63 2.701646 1_555
In0 O3 2.080606 1_555
In0 O5 2.107463 1_455
In0 O39 2.159514 1_555
In0 O4 2.160837 1_445
In0 O40 2.203295 1_545
In0 O41 2.297236 1_445
In1 O7 2.098277 1_555
In1 O6 2.131691 1_445
In1 O8 2.137148 1_545
In1 O43 2.186865 1_555
In1 O42 2.192294 1_455
In1 O44 2.236888 1_445
In2 O14 2.076246 1_555
In2 O13 2.140519 1_555
In2 O49 2.142004 1_555
In2 O12 2.143395 1_555
In2 O50 2.185891 1_555
In2 O48 2.237829 1_555
In3 O20 2.084987 1_556
In3 O18 2.099798 1_556
In3 O56 2.147212 1_555
In3 O55 2.175019 1_555
In3 O19 2.178234 1_556
In3 O54 2.279678 1_555
In4 O29 2.112649 1_555
In4 O27 2.119716 1_555
In4 O28 2.170744 1_555
In4 O64 2.171185 1_555
In4 O65 2.173695 1_555
In4 O63 2.184007 1_555
In5 O34 2.106260 1_555
In5 O33 2.130964 1_555
In5 O69 2.147765 1_555
In5 O35 2.152078 1_555
In5 O71 2.166429 1_555
In5 O70 2.191307 1_555
O0 S0 1.469944 1_555
O0 Sc0 2.162589 1_445
O1 P0 1.551359 1_555
O1 Sc0 2.031579 1_555
O2 P1 1.549761 1_655
O2 Sc0 2.031023 1_545
O3 P2 1.541610 1_555
O4 P3 1.542897 1_555
O5 P4 1.539642 1_545
O6 P4 1.549185 1_555
O7 P2 1.548258 1_555
O8 P3 1.555237 1_455
O9 P0 1.551546 1_555
O9 Sc1 2.013222 1_555
O10 P1 1.552992 1_555
O10 Sc1 2.060849 1_445
O11 S0 1.486203 1_565
O11 Sc1 2.195745 1_455
O12 P5 1.554711 1_555
O13 P6 1.552881 1_555
O14 P7 1.532852 1_555
O15 P8 1.546408 1_555
O15 Sc2 2.018884 1_555
O16 P9 1.551541 1_555
O16 Sc2 2.157043 1_555
O17 P10 1.536629 1_555
O17 Sc2 2.035209 1_555
O18 P10 1.544037 1_555
O19 P8 1.542338 1_555
O20 P9 1.545489 1_555
O21 P6 1.533726 1_555
O21 Sc3 2.049151 1_555
O22 P7 1.547286 1_555
O22 Sc3 2.126886 1_555
O23 P5 1.545791 1_555
O23 Sc3 2.002394 1_555
O24 S1 1.479334 1_555
O24 Sc4 2.116422 1_556
O25 P11 1.553255 1_555
O25 Sc4 2.051026 1_556
O26 P12 1.559454 1_555
O26 Sc4 2.079089 1_556
O27 P13 1.562654 1_555
O28 S2 1.484308 1_555
O29 P14 1.551044 1_555
O30 P14 1.540369 1_555
O30 Sc5 2.004099 1_555
O31 P13 1.546225 1_555
O31 Sc5 2.103690 1_555
O32 S2 1.483398 1_555
O32 Sc5 2.130683 1_555
O33 P11 1.557559 1_555
O34 P12 1.550199 1_555
O35 S1 1.477760 1_555
O36 P14 1.558958 1_555
O36 Sc0 2.127023 1_455
O37 P13 1.566464 1_555
O37 Sc0 2.069985 1_555
O38 S2 1.480042 1_555
O38 Sc0 2.197027 1_445
O39 P11 1.542292 1_555
O40 P12 1.569092 1_555
O41 S1 1.491376 1_555
O42 P5 1.552155 1_555
O43 P6 1.553767 1_555
O44 P7 1.575387 1_555
O45 P8 1.547089 1_555
O45 Sc1 2.133146 1_555
O46 P9 1.553536 1_555
O46 Sc1 2.057123 1_545
O47 P10 1.568992 1_555
O47 Sc1 2.168517 1_445
O48 P4 1.567656 1_545
O49 P2 1.545540 1_555
O50 P3 1.547130 1_555
O51 P0 1.540868 1_555
O51 Sc2 2.077795 1_555
O52 P1 1.564448 1_655
O52 Sc2 2.167096 1_555
O53 S0 1.490745 1_555
O53 Sc2 2.289411 1_555
O54 S1 1.487824 1_555
O55 P11 1.563405 1_655
O56 P12 1.539643 1_545
O57 P13 1.539909 1_545
O57 Sc3 2.099834 1_555
O58 S2 1.488852 1_555
O58 Sc3 2.270385 1_555
O59 P14 1.562449 1_655
O59 Sc3 2.165989 1_555
O60 P10 1.555152 1_555
O60 Sc4 2.139364 1_555
O61 P8 1.574419 1_455
O61 Sc4 2.119636 1_555
O62 P9 1.550979 1_565
O62 Sc4 2.139837 1_555
O63 P6 1.569214 1_565
O64 P7 1.553153 1_555
O65 P5 1.548293 1_455
O66 S0 1.501795 1_565
O66 Sc5 2.204877 1_555
O67 P0 1.561065 1_555
O67 Sc5 2.167755 1_555
O68 P1 1.543636 1_555
O68 Sc5 2.082740 1_555
O69 P2 1.552082 1_555
O70 P3 1.570518 1_455
O71 P4 1.551290 1_555
