# generated using pymatgen
data_Na2Nb4Zn4Si3(S3O16)3
_symmetry_space_group_name_H-M   'P 1'
_cell_length_a   17.64885941
_cell_length_b   8.83739564
_cell_length_c   22.84294001
_cell_angle_alpha   90.00647265
_cell_angle_beta   89.98117716
_cell_angle_gamma   120.15261566
_symmetry_Int_Tables_number   1
_chemical_formula_structural   Na2Nb4Zn4Si3(S3O16)3
_chemical_formula_sum   'Na6 Nb12 Zn12 Si9 S27 O144'
_cell_volume   3080.72979956
_cell_formula_units_Z   3
loop_
 _symmetry_equiv_pos_site_id
 _symmetry_equiv_pos_as_xyz
  1  'x, y, z'
loop_
 _atom_site_type_symbol
 _atom_site_label
 _atom_site_symmetry_multiplicity
 _atom_site_fract_x
 _atom_site_fract_y
 _atom_site_fract_z
 _atom_site_occupancy
  Na  Na0  1  0.99891792  0.99850334  0.49975528  1
  Na  Na1  1  0.49944507  0.00107027  0.99692503  1
  Na  Na2  1  0.33476129  0.33462506  0.83785681  1
  Na  Na3  1  0.83115524  0.33321822  0.83676013  1
  Na  Na4  1  0.33517646  0.33608069  0.33950483  1
  Na  Na5  1  0.83350578  0.33216361  0.33974210  1
  Nb  Nb0  1  0.50001370  0.01053174  0.35605800  1
  Nb  Nb1  1  0.99943863  0.98872015  0.85362328  1
  Nb  Nb2  1  0.50589158  0.01380032  0.64117572  1
  Nb  Nb3  1  0.99958462  0.99961178  0.14012705  1
  Nb  Nb4  1  0.33775617  0.34168377  0.68523019  1
  Nb  Nb5  1  0.82799378  0.33121470  0.69234260  1
  Nb  Nb6  1  0.33436883  0.33385253  0.18840813  1
  Nb  Nb7  1  0.83499190  0.33208095  0.18428996  1
  Nb  Nb8  1  0.16551834  0.65844016  0.02362884  1
  Nb  Nb9  1  0.66698276  0.67036880  0.02121048  1
  Nb  Nb10  1  0.16624586  0.66234303  0.52456705  1
  Nb  Nb11  1  0.66662410  0.67269145  0.52605352  1
  Zn  Zn0  1  0.99760028  0.99693168  0.35342430  1
  Zn  Zn1  1  0.50190929  0.00620862  0.84788772  1
  Zn  Zn2  1  0.00059085  0.99516940  0.65183056  1
  Zn  Zn3  1  0.50136762  0.00742094  0.15213191  1
  Zn  Zn4  1  0.33004618  0.33451552  0.98158577  1
  Zn  Zn5  1  0.83854239  0.33437474  0.98505997  1
  Zn  Zn6  1  0.33804754  0.34530669  0.48672909  1
  Zn  Zn7  1  0.83167082  0.32655915  0.48371343  1
  Zn  Zn8  1  0.16312599  0.66211007  0.31466401  1
  Zn  Zn9  1  0.66586157  0.66421559  0.31150637  1
  Zn  Zn10  1  0.16807019  0.67109401  0.81026688  1
  Zn  Zn11  1  0.66165021  0.65184209  0.80891768  1
  Si  Si0  1  0.50607969  0.29952479  0.24711517  1
  Si  Si1  1  0.63808500  0.28958275  0.75508543  1
  Si  Si2  1  0.00684060  0.71047697  0.74568421  1
  Si  Si3  1  0.47404340  0.33019003  0.57836285  1
  Si  Si4  1  0.69425818  0.05712758  0.58108996  1
  Si  Si5  1  0.33530990  0.62197363  0.58187521  1
  Si  Si6  1  0.97535669  0.61811800  0.07908861  1
  Si  Si7  1  0.83110361  0.04595593  0.08056594  1
  Si  Si8  1  0.19390698  0.33320042  0.08127994  1
  S  S0  1  0.14308918  0.99639183  0.25132956  1
  S  S1  1  0.64450146  0.99919121  0.24998796  1
  S  S2  1  0.35356630  0.71172653  0.25023849  1
  S  S3  1  0.85618314  0.71213318  0.25113821  1
  S  S4  1  0.00054797  0.28989974  0.25150077  1
  S  S5  1  0.14478835  0.29013863  0.74972183  1
  S  S6  1  0.50016786  0.71307683  0.75150323  1
  S  S7  1  0.35458480  0.99871196  0.75056387  1
  S  S8  1  0.85497666  0.99816316  0.75005403  1
  S  S9  1  0.97678208  0.32618164  0.58268004  1
  S  S10  1  0.18629278  0.04564833  0.58092518  1
  S  S11  1  0.83703855  0.62645413  0.58109346  1
  S  S12  1  0.47776897  0.62737675  0.08232248  1
  S  S13  1  0.33669181  0.04630788  0.08078230  1
  S  S14  1  0.68611908  0.32756361  0.08070248  1
  S  S15  1  0.31280184  0.66917595  0.91458353  1
  S  S16  1  0.80967615  0.66250243  0.91514237  1
  S  S17  1  0.02141396  0.37783156  0.91437613  1
  S  S18  1  0.51834564  0.37396987  0.91711687  1
  S  S19  1  0.16973849  0.95868317  0.91516151  1
  S  S20  1  0.66698859  0.95808450  0.91467307  1
  S  S21  1  0.30847313  0.95564009  0.41486698  1
  S  S22  1  0.81218214  0.95626071  0.41467387  1
  S  S23  1  0.16683268  0.37539905  0.41543580  1
  S  S24  1  0.67071828  0.38232418  0.41520358  1
  S  S25  1  0.02001676  0.66529422  0.41613566  1
  S  S26  1  0.52177784  0.66495688  0.41472793  1
  O  O0  1  0.10929830  0.03833005  0.30361301  1
  O  O1  1  0.60000105  0.02839642  0.30307335  1
  O  O2  1  0.41181545  0.79148328  0.30342411  1
  O  O3  1  0.91195172  0.78126057  0.30322248  1
  O  O4  1  0.48455601  0.15927649  0.30723617  1
  O  O5  1  0.98191345  0.18117190  0.30368309  1
  O  O6  1  0.09950380  0.17107768  0.80324618  1
  O  O7  1  0.60867128  0.16520272  0.81110522  1
  O  O8  1  0.47722147  0.77483738  0.80427416  1
  O  O9  1  0.98468867  0.80894593  0.80672222  1
  O  O10  1  0.40842628  0.04181890  0.80377247  1
  O  O11  1  0.91425148  0.03154205  0.80370415  1
  O  O12  1  0.39777629  0.97976913  0.69795482  1
  O  O13  1  0.89432971  0.97842555  0.69714378  1
  O  O14  1  0.09387331  0.21524079  0.69713067  1
  O  O15  1  0.58170875  0.18537896  0.69595482  1
  O  O16  1  0.01466282  0.82731470  0.69189264  1
  O  O17  1  0.50724699  0.81239234  0.69831524  1
  O  O18  1  0.39303350  0.80864083  0.19696321  1
  O  O19  1  0.90152615  0.81990990  0.19835916  1
  O  O20  1  0.00975939  0.20393297  0.19840731  1
  O  O21  1  0.51244240  0.20142546  0.19186393  1
  O  O22  1  0.09008273  0.97734136  0.19858974  1
  O  O23  1  0.59387954  0.97286330  0.19711091  1
  O  O24  1  0.42979216  0.36470503  0.63856460  1
  O  O25  1  0.94134007  0.36510749  0.63502671  1
  O  O26  1  0.24185992  0.12042849  0.63458228  1
  O  O27  1  0.75606039  0.14137454  0.63931864  1
  O  O28  1  0.31346600  0.49043265  0.64035484  1
  O  O29  1  0.82082460  0.51630492  0.63434757  1
  O  O30  1  0.43812653  0.51285573  0.13631549  1
  O  O31  1  0.92946345  0.49445445  0.13916039  1
  O  O32  1  0.32159303  0.12969046  0.13490513  1
  O  O33  1  0.81392540  0.13490061  0.14065268  1
  O  O34  1  0.25398769  0.36643446  0.14055397  1
  O  O35  1  0.74301936  0.36144376  0.13512423  1
  O  O36  1  0.22965724  0.29175725  0.02485101  1
  O  O37  1  0.72639251  0.30433291  0.02882652  1
  O  O38  1  0.42548743  0.54801264  0.03040133  1
  O  O39  1  0.91695220  0.54971372  0.02338974  1
  O  O40  1  0.35125861  0.15382260  0.02932845  1
  O  O41  1  0.85080947  0.15764507  0.02409295  1
  O  O42  1  0.22578526  0.14620828  0.52825984  1
  O  O43  1  0.72918718  0.16526146  0.52333007  1
  O  O44  1  0.34857616  0.54562428  0.52376789  1
  O  O45  1  0.85138951  0.55025169  0.52875335  1
  O  O46  1  0.41772308  0.28878245  0.52174497  1
  O  O47  1  0.92710675  0.30239892  0.52926005  1
  O  O48  1  0.26575879  0.68868638  0.96912274  1
  O  O49  1  0.76897132  0.69027414  0.97023446  1
  O  O50  1  0.07670471  0.46300386  0.96979686  1
  O  O51  1  0.57697904  0.47023469  0.97118963  1
  O  O52  1  0.15285351  0.84986806  0.96909492  1
  O  O53  1  0.65950960  0.83989110  0.97046508  1
  O  O54  1  0.26862595  0.84634344  0.46864718  1
  O  O55  1  0.76662907  0.84397775  0.46855757  1
  O  O56  1  0.15663236  0.47052317  0.46932840  1
  O  O57  1  0.65283887  0.45485293  0.46841757  1
  O  O58  1  0.07712759  0.68759136  0.46933307  1
  O  O59  1  0.57616591  0.69273331  0.46919229  1
  O  O60  1  0.06001396  0.64002079  0.36328500  1
  O  O61  1  0.56479417  0.64512053  0.36362699  1
  O  O62  1  0.25740212  0.87154935  0.36239079  1
  O  O63  1  0.75921147  0.87319456  0.36254421  1
  O  O64  1  0.17886488  0.48253039  0.36335379  1
  O  O65  1  0.68035180  0.48317278  0.36296607  1
  O  O66  1  0.06544072  0.48597955  0.86413134  1
  O  O67  1  0.55882564  0.48126081  0.86560503  1
  O  O68  1  0.18005547  0.87640901  0.86350851  1
  O  O69  1  0.67811589  0.87155513  0.86403073  1
  O  O70  1  0.25861995  0.64400327  0.86323386  1
  O  O71  1  0.75813443  0.64594624  0.86390691  1
  O  O72  1  0.01493706  0.82774680  0.41345914  1
  O  O73  1  0.51507340  0.82944918  0.40786647  1
  O  O74  1  0.39796629  0.96493258  0.40875771  1
  O  O75  1  0.89950809  0.96780612  0.41310940  1
  O  O76  1  0.08442949  0.20376735  0.41405521  1
  O  O77  1  0.58738083  0.19738119  0.40758962  1
  O  O78  1  0.01536326  0.20235676  0.90947002  1
  O  O79  1  0.51292430  0.20252140  0.91682990  1
  O  O80  1  0.08739306  0.97618896  0.90818726  1
  O  O81  1  0.58445220  0.95954459  0.91769359  1
  O  O82  1  0.39940656  0.83179217  0.91327738  1
  O  O83  1  0.89892979  0.83119139  0.91020671  1
  O  O84  1  0.48927905  0.16957383  0.59462942  1
  O  O85  1  0.99254182  0.17942334  0.59037050  1
  O  O86  1  0.09844834  0.01952044  0.58860952  1
  O  O87  1  0.59486283  0.01223028  0.59583483  1
  O  O88  1  0.41258789  0.81064948  0.60132302  1
  O  O89  1  0.90960608  0.80601027  0.58851990  1
  O  O90  1  0.49105382  0.80225377  0.09233607  1
  O  O91  1  0.99193144  0.81090359  0.09890594  1
  O  O92  1  0.40935757  0.01410225  0.08937970  1
  O  O93  1  0.91198866  0.01487190  0.09921403  1
  O  O94  1  0.09531672  0.17425980  0.09905647  1
  O  O95  1  0.59898708  0.17615918  0.08937641  1
  O  O96  1  0.34321745  0.15980338  0.74062172  1
  O  O97  1  0.85187606  0.16763100  0.74694420  1
  O  O98  1  0.23174828  0.29410222  0.74638554  1
  O  O99  1  0.73897208  0.30863515  0.73938885  1
  O  O100  1  0.41684631  0.52381204  0.74281319  1
  O  O101  1  0.91346424  0.51879524  0.74063716  1
  O  O102  1  0.34795829  0.53124259  0.24533641  1
  O  O103  1  0.84504488  0.53008757  0.24103449  1
  O  O104  1  0.41111678  0.30518680  0.24089937  1
  O  O105  1  0.91785510  0.30740882  0.24292620  1
  O  O106  1  0.23475827  0.15908408  0.24110952  1
  O  O107  1  0.73237413  0.17041054  0.24589349  1
  O  O108  1  0.32228749  0.51344181  0.92193345  1
  O  O109  1  0.82249227  0.51347709  0.92222645  1
  O  O110  1  0.43146685  0.35825669  0.92599564  1
  O  O111  1  0.93400100  0.35521796  0.92070207  1
  O  O112  1  0.24497893  0.13532483  0.92141515  1
  O  O113  1  0.74449178  0.13132298  0.92309721  1
  O  O114  1  0.32233573  0.13128731  0.42088725  1
  O  O115  1  0.82285372  0.13215451  0.42105136  1
  O  O116  1  0.24385570  0.35518658  0.42240037  1
  O  O117  1  0.74533053  0.35500270  0.42084379  1
  O  O118  1  0.43340562  0.51390493  0.42011154  1
  O  O119  1  0.93261315  0.50838747  0.42387191  1
  O  O120  1  0.18103957  0.50612348  0.07212004  1
  O  O121  1  0.67942123  0.49129745  0.07421481  1
  O  O122  1  0.07413026  0.64460951  0.07081084  1
  O  O123  1  0.56613730  0.63904447  0.07545684  1
  O  O124  1  0.25300624  0.87206574  0.07425235  1
  O  O125  1  0.74552047  0.84681990  0.07236461  1
  O  O126  1  0.17855604  0.86491418  0.57291691  1
  O  O127  1  0.68242059  0.85726948  0.57190866  1
  O  O128  1  0.24612152  0.64308677  0.57141891  1
  O  O129  1  0.75331945  0.63566260  0.57282696  1
  O  O130  1  0.06777417  0.49290875  0.57314243  1
  O  O131  1  0.57338714  0.50402475  0.57043514  1
  O  O132  1  0.15534346  0.84609024  0.25665788  1
  O  O133  1  0.65981976  0.85650297  0.26080789  1
  O  O134  1  0.26667119  0.68513571  0.26049550  1
  O  O135  1  0.77057726  0.69479873  0.25580977  1
  O  O136  1  0.07632825  0.46544357  0.25626412  1
  O  O137  1  0.58283584  0.48576272  0.26234047  1
  O  O138  1  0.15922534  0.46268399  0.76119213  1
  O  O139  1  0.65684471  0.48382342  0.75559241  1
  O  O140  1  0.08438840  0.68357719  0.76272310  1
  O  O141  1  0.57549868  0.69052242  0.75651521  1
  O  O142  1  0.26830926  0.84576639  0.75598295  1
  O  O143  1  0.76865037  0.85296435  0.76109384  1
loop_
_geom_bond_atom_site_label_1
_geom_bond_atom_site_label_2
_geom_bond_distance
_geom_bond_site_symmetry_2
Na0 O75 2.567720 1_555
Na0 O76 2.578598 1_665
Na0 O72 2.582743 1_655
Na0 O89 2.606661 1_555
Na0 O86 2.629501 1_665
Na0 O85 2.652062 1_565
Na1 O79 2.479620 1_555
Na1 O81 2.492458 1_545
Na1 O82 2.520777 1_545
Na1 O92 2.680140 1_556
Na1 O95 2.685397 1_556
Na1 O90 2.756516 1_546
Na2 O112 2.539925 1_555
Na2 O108 2.565699 1_555
Na2 O110 2.579582 1_555
Na2 O98 2.673526 1_555
Na2 O100 2.678265 1_555
Na2 O96 2.751960 1_555
Na3 O109 2.572227 1_555
Na3 O111 2.580085 1_555
Na3 O113 2.582567 1_555
Na3 O97 2.649700 1_555
Na3 O101 2.688208 1_555
Na3 O99 2.699732 1_555
Na4 O118 2.475872 1_555
Na4 O114 2.524134 1_555
Na4 O116 2.546184 1_555
Na4 O102 2.694879 1_555
Na4 O104 2.703664 1_555
Na4 O106 2.802923 1_555
Na5 O117 2.491621 1_555
Na5 O115 2.505198 1_555
Na5 O119 2.538304 1_555
Na5 O107 2.695098 1_555
Na5 O105 2.734940 1_555
Na5 O103 2.797797 1_555
Nb0 O4 1.845785 1_555
Nb0 O77 1.983115 1_555
Nb0 O74 2.030962 1_545
Nb0 O1 2.079087 1_555
Nb0 O73 2.111895 1_545
Nb0 O2 2.142304 1_545
Nb1 O9 1.823175 1_555
Nb1 O80 2.037008 1_655
Nb1 O6 2.044544 1_665
Nb1 O83 2.067207 1_555
Nb1 O11 2.068014 1_565
Nb1 O78 2.176590 1_665
Nb2 O84 1.875527 1_555
Nb2 O87 1.886632 1_555
Nb2 O15 1.902058 1_555
Nb2 O88 1.947867 1_545
Nb2 O12 2.198979 1_545
Nb2 O17 2.217127 1_545
Nb3 O91 1.859973 1_555
Nb3 O93 1.868706 1_565
Nb3 O94 1.869897 1_665
Nb3 O19 2.127067 1_555
Nb3 O22 2.165746 1_655
Nb3 O20 2.176899 1_665
Nb4 O24 1.866299 1_555
Nb4 O28 1.878659 1_555
Nb4 O100 2.003221 1_555
Nb4 O96 2.085674 1_555
Nb4 O26 2.168512 1_555
Nb4 O98 2.199260 1_555
Nb5 O99 1.829530 1_555
Nb5 O101 1.931078 1_555
Nb5 O27 1.937597 1_555
Nb5 O97 2.106212 1_555
Nb5 O29 2.157574 1_555
Nb5 O25 2.280799 1_555
Nb6 O104 1.918977 1_555
Nb6 O34 1.924012 1_555
Nb6 O106 2.048564 1_555
Nb6 O30 2.088201 1_555
Nb6 O102 2.090682 1_555
Nb6 O32 2.095441 1_555
Nb7 O31 1.870142 1_555
Nb7 O33 1.875460 1_555
Nb7 O105 2.074131 1_555
Nb7 O35 2.094730 1_555
Nb7 O103 2.112204 1_555
Nb7 O107 2.168143 1_555
Nb8 O120 1.866791 1_555
Nb8 O122 1.891774 1_555
Nb8 O50 2.057463 1_554
Nb8 O48 2.067620 1_554
Nb8 O124 2.087516 1_555
Nb8 O52 2.200962 1_554
Nb9 O125 1.883499 1_555
Nb9 O53 1.950510 1_554
Nb9 O51 2.033544 1_554
Nb9 O123 2.069660 1_555
Nb9 O49 2.075422 1_554
Nb9 O121 2.090015 1_555
Nb10 O128 1.844910 1_555
Nb10 O130 1.969385 1_555
Nb10 O126 2.020103 1_555
Nb10 O56 2.050691 1_555
Nb10 O58 2.114104 1_555
Nb10 O54 2.141948 1_555
Nb11 O127 1.838107 1_555
Nb11 O131 1.868831 1_555
Nb11 O129 2.023349 1_555
Nb11 O55 2.108644 1_555
Nb11 O59 2.133705 1_555
Nb11 O57 2.242270 1_555
O0 S0 1.463172 1_545
O0 Zn0 2.142145 1_445
O1 S1 1.535202 1_545
O2 S2 1.517352 1_555
O3 S3 1.467661 1_555
O3 Zn0 2.083029 1_555
O4 Si0 1.758864 1_555
O5 S4 1.461105 1_655
O5 Zn0 2.114759 1_545
O6 S5 1.547765 1_555
O7 Si1 1.594326 1_555
O7 Zn1 1.889465 1_555
O8 S6 1.461707 1_555
O8 Zn1 2.113781 1_565
O9 Si2 1.787540 1_655
O10 S7 1.470499 1_545
O10 Zn1 2.087913 1_555
O11 S8 1.540802 1_545
O12 S7 1.476766 1_555
O13 S8 1.447304 1_555
O13 Zn2 2.080951 1_655
O14 S5 1.446306 1_555
O14 Zn2 2.085110 1_545
O15 Si1 1.656070 1_555
O16 Si2 1.565892 1_555
O16 Zn2 1.862844 1_555
O17 S6 1.466997 1_555
O18 S2 1.449165 1_555
O18 Zn3 2.101248 1_565
O19 S3 1.495003 1_555
O20 S4 1.482652 1_555
O21 Si0 1.566703 1_555
O21 Zn3 1.861326 1_555
O22 S0 1.482350 1_555
O23 S1 1.450204 1_555
O23 Zn3 2.077701 1_565
O24 Si3 1.683040 1_555
O25 S9 1.467995 1_555
O26 S10 1.500108 1_555
O27 Si4 1.642600 1_555
O28 Si5 1.683526 1_555
O29 S11 1.493145 1_555
O30 S12 1.524244 1_555
O31 Si6 1.686332 1_555
O32 S13 1.529494 1_555
O33 Si7 1.683026 1_555
O34 Si8 1.652847 1_555
O35 S14 1.530430 1_555
O36 Si8 1.557330 1_555
O36 Zn4 1.893406 1_554
O37 S14 1.448298 1_555
O37 Zn5 2.111526 1_554
O38 S12 1.449266 1_555
O38 Zn4 2.109167 1_554
O39 Si6 1.556098 1_555
O39 Zn5 1.912579 1_554
O40 S13 1.450862 1_555
O40 Zn4 2.116770 1_554
O41 Si7 1.553853 1_555
O41 Zn5 1.902977 1_554
O42 S10 1.449233 1_555
O42 Zn6 2.101996 1_555
O43 Si4 1.562690 1_555
O43 Zn7 1.879207 1_555
O44 Si5 1.558915 1_555
O44 Zn6 1.885094 1_555
O45 S11 1.455367 1_555
O45 Zn7 2.096721 1_555
O46 Si3 1.558821 1_555
O46 Zn6 1.890279 1_555
O47 S9 1.455125 1_555
O47 Zn7 2.080272 1_555
O48 S15 1.553785 1_555
O49 S16 1.528569 1_555
O50 S17 1.544078 1_555
O51 S18 1.560913 1_555
O52 S19 1.497836 1_555
O53 S20 1.610703 1_555
O54 S21 1.501343 1_555
O55 S22 1.531077 1_555
O56 S23 1.551218 1_555
O57 S24 1.480124 1_555
O58 S25 1.527308 1_555
O59 S26 1.514429 1_555
O60 S25 1.470866 1_555
O60 Zn8 2.055526 1_555
O61 S26 1.450086 1_555
O61 Zn9 2.079401 1_555
O62 S21 1.459172 1_555
O62 Zn8 2.071170 1_555
O63 S22 1.463542 1_555
O63 Zn9 2.104371 1_555
O64 S23 1.467980 1_555
O64 Zn8 2.067915 1_555
O65 S24 1.447397 1_555
O65 Zn9 2.102066 1_555
O66 S17 1.445033 1_555
O66 Zn10 2.119710 1_555
O67 S18 1.453683 1_555
O67 Zn11 2.119710 1_555
O68 S19 1.444527 1_555
O68 Zn10 2.104804 1_555
O69 S20 1.453297 1_555
O69 Zn11 2.207348 1_555
O70 S15 1.458337 1_555
O70 Zn10 2.112074 1_555
O71 S16 1.444157 1_555
O71 Zn11 2.137931 1_555
O72 S25 1.483986 1_555
O72 Zn0 2.161040 1_455
O73 S26 1.524673 1_555
O74 S21 1.546105 1_555
O75 S22 1.492978 1_555
O75 Zn0 2.114957 1_555
O76 S23 1.483451 1_555
O76 Zn0 2.189639 1_445
O77 S24 1.565232 1_555
O78 S17 1.504115 1_555
O79 S18 1.469442 1_555
O79 Zn1 2.277836 1_555
O80 S19 1.545132 1_555
O81 S20 1.464800 1_555
O81 Zn1 2.332415 1_565
O82 S15 1.481779 1_555
O82 Zn1 2.253244 1_565
O83 S16 1.535330 1_555
O84 Si3 1.615168 1_555
O85 S9 1.467248 1_555
O85 Zn2 2.208091 1_645
O86 S10 1.458741 1_555
O86 Zn2 2.177091 1_545
O87 Si4 1.627436 1_555
O88 Si5 1.597921 1_555
O89 S11 1.464736 1_555
O89 Zn2 2.183754 1_655
O90 S12 1.460023 1_555
O90 Zn3 2.203266 1_565
O91 Si6 1.640853 1_555
O92 S13 1.459852 1_555
O92 Zn3 2.189312 1_555
O93 Si7 1.639858 1_555
O94 Si8 1.646153 1_555
O95 S14 1.458465 1_555
O95 Zn3 2.159820 1_555
O96 S7 1.550991 1_545
O97 S8 1.527537 1_545
O98 S5 1.519339 1_555
O99 Si1 1.739442 1_555
O100 S6 1.590169 1_555
O101 Si2 1.671602 1_655
O102 S2 1.551695 1_555
O103 S3 1.537013 1_555
O104 Si0 1.707631 1_555
O105 S4 1.555416 1_655
O106 S0 1.549886 1_545
O107 S1 1.531645 1_545
O108 S15 1.477129 1_555
O108 Zn4 2.143357 1_555
O109 S16 1.452984 1_555
O109 Zn5 2.257606 1_555
O110 S18 1.482350 1_555
O110 Zn4 2.117016 1_555
O111 S17 1.459792 1_655
O111 Zn5 2.172603 1_555
O112 S19 1.462263 1_545
O112 Zn4 2.141898 1_555
O113 S20 1.465685 1_545
O113 Zn5 2.233230 1_555
O114 S21 1.451462 1_545
O114 Zn6 2.321425 1_555
O115 S22 1.476089 1_545
O115 Zn7 2.180762 1_555
O116 S23 1.466010 1_555
O116 Zn6 2.253415 1_555
O117 S24 1.458920 1_555
O117 Zn7 2.198626 1_555
O118 S26 1.462178 1_555
O118 Zn6 2.201765 1_555
O119 S25 1.478027 1_655
O119 Zn7 2.178867 1_555
O120 Si8 1.667172 1_555
O121 S14 1.517097 1_555
O122 Si6 1.649013 1_455
O123 S12 1.518509 1_555
O124 S13 1.513307 1_565
O125 Si7 1.656291 1_565
O126 S10 1.544044 1_565
O127 Si4 1.684170 1_565
O128 Si5 1.692596 1_555
O129 S11 1.531798 1_555
O130 S9 1.555682 1_455
O131 Si3 1.661581 1_555
O132 S0 1.454150 1_555
O132 Zn8 2.154785 1_555
O133 S1 1.437663 1_555
O133 Zn9 2.103050 1_555
O134 S2 1.449060 1_555
O134 Zn8 2.130040 1_555
O135 S3 1.443916 1_555
O135 Zn9 2.145689 1_555
O136 S4 1.457025 1_555
O136 Zn8 2.114971 1_555
O137 Si0 1.557316 1_555
O137 Zn9 1.890697 1_555
O138 S5 1.438187 1_555
O138 Zn10 2.093820 1_555
O139 Si1 1.576529 1_555
O139 Zn11 1.889152 1_555
O140 Si2 1.551895 1_555
O140 Zn10 1.880854 1_555
O141 S6 1.444556 1_555
O141 Zn11 2.094040 1_555
O142 S7 1.446753 1_555
O142 Zn10 2.075023 1_555
O143 S8 1.437772 1_555
O143 Zn11 2.132099 1_555
