# generated using pymatgen
data_MgFe2(NiO2)4
_symmetry_space_group_name_H-M   'P 1'
_cell_length_a   6.25348983
_cell_length_b   6.25372517
_cell_length_c   5.93784600
_cell_angle_alpha   61.65656350
_cell_angle_beta   61.65695111
_cell_angle_gamma   58.10505621
_symmetry_Int_Tables_number   1
_chemical_formula_structural   MgFe2(NiO2)4
_chemical_formula_sum   'Mg1 Fe2 Ni4 O8'
_cell_volume   165.54625166
_cell_formula_units_Z   1
loop_
 _symmetry_equiv_pos_site_id
 _symmetry_equiv_pos_as_xyz
  1  'x, y, z'
loop_
 _atom_site_type_symbol
 _atom_site_label
 _atom_site_symmetry_multiplicity
 _atom_site_fract_x
 _atom_site_fract_y
 _atom_site_fract_z
 _atom_site_occupancy
  Mg  Mg0  1  0.65126600  0.65116200  0.09877200  1
  Fe  Fe0  1  0.10219800  0.10215100  0.14783000  1
  Fe  Fe1  1  0.93204500  0.93209700  0.81792800  1
  Ni  Ni0  1  0.44673900  0.44674200  0.02549100  1
  Ni  Ni1  1  0.99054700  0.51007500  0.49969300  1
  Ni  Ni2  1  0.51007300  0.99056800  0.49969200  1
  Ni  Ni3  1  0.44671700  0.44677800  0.58100200  1
  O  O0  1  0.30110700  0.74104700  0.72892500  1
  O  O1  1  0.27046900  0.71513800  0.25719500  1
  O  O2  1  0.71515700  0.27042600  0.25720900  1
  O  O3  1  0.23181900  0.23184700  0.27575500  1
  O  O4  1  0.23183500  0.23183800  0.76059900  1
  O  O5  1  0.74102200  0.30112000  0.72892700  1
  O  O6  1  0.78740800  0.78742500  0.20977100  1
  O  O7  1  0.78743100  0.78741700  0.71537900  1
loop_
_geom_bond_atom_site_label_1
_geom_bond_atom_site_label_2
_geom_bond_distance
_geom_bond_site_symmetry_2
Mg0 O7 1.928205 1_554
Mg0 O6 1.928241 1_555
Mg0 O2 1.984603 1_555
Mg0 O1 1.984750 1_555
Fe0 O4 1.938060 1_554
Fe0 O3 1.938106 1_555
Fe0 O1 1.962633 1_545
Fe0 O2 1.962709 1_455
Fe1 O5 1.886875 1_565
Fe1 O0 1.887025 1_655
Fe1 O7 1.979370 1_555
Fe1 O6 1.979386 1_556
Ni0 O3 1.984118 1_555
Ni0 O5 1.997916 1_554
Ni0 O0 1.997974 1_554
Ni0 O1 2.173200 1_555
Ni0 O2 2.173247 1_555
Ni1 O5 2.108159 1_555
Ni1 O7 2.120932 1_555
Ni1 O6 2.121009 1_555
Ni1 O3 2.142376 1_655
Ni1 O4 2.142440 1_655
Ni1 O1 2.237795 1_655
Ni2 O0 2.108198 1_555
Ni2 O7 2.120920 1_555
Ni2 O6 2.121041 1_555
Ni2 O4 2.142418 1_565
Ni2 O3 2.142430 1_565
Ni2 O2 2.237589 1_565
Ni3 O4 1.984123 1_555
Ni3 O0 1.997967 1_555
Ni3 O5 1.998026 1_555
Ni3 O1 2.172957 1_555
Ni3 O2 2.173305 1_555
