# generated using pymatgen
data_Na2GaGe(PO4)3
_symmetry_space_group_name_H-M   'P 1'
_cell_length_a   8.55446302
_cell_length_b   8.55446276
_cell_length_c   21.85467310
_cell_angle_alpha   90.08931497
_cell_angle_beta   89.91068504
_cell_angle_gamma   120.34363823
_symmetry_Int_Tables_number   1
_chemical_formula_structural   Na2GaGe(PO4)3
_chemical_formula_sum   'Na12 Ga6 Ge6 P18 O72'
_cell_volume   1380.21091272
_cell_formula_units_Z   6
loop_
 _symmetry_equiv_pos_site_id
 _symmetry_equiv_pos_as_xyz
  1  'x, y, z'
loop_
 _atom_site_type_symbol
 _atom_site_label
 _atom_site_symmetry_multiplicity
 _atom_site_fract_x
 _atom_site_fract_y
 _atom_site_fract_z
 _atom_site_occupancy
  Na  Na0  1  0.36566294  0.36333127  0.24969706  1
  Na  Na1  1  0.63666873  0.63433706  0.74969706  1
  Na  Na2  1  0.03232994  0.69666427  0.58303006  1
  Na  Na3  1  0.30333573  0.96767006  0.08303006  1
  Na  Na4  1  0.69899594  0.02999827  0.91636406  1
  Na  Na5  1  0.97000173  0.30100406  0.41636406  1
  Na  Na6  1  0.99985976  0.99967069  0.49897105  1
  Na  Na7  1  0.00032931  0.00014024  0.99897105  1
  Na  Na8  1  0.66652676  0.33300369  0.83230405  1
  Na  Na9  1  0.66699631  0.33347324  0.33230405  1
  Na  Na10  1  0.33319276  0.66633769  0.16563805  1
  Na  Na11  1  0.33366231  0.66680724  0.66563805  1
  Ga  Ga0  1  0.99920694  0.99470657  0.35235217  1
  Ga  Ga1  1  0.00529343  0.00079306  0.85235217  1
  Ga  Ga2  1  0.66587394  0.32803957  0.68568517  1
  Ga  Ga3  1  0.67196043  0.33412606  0.18568517  1
  Ga  Ga4  1  0.33253994  0.66137357  0.01901917  1
  Ga  Ga5  1  0.33862643  0.66746006  0.51901917  1
  Ge  Ge0  1  0.00139354  0.00556145  0.64787298  1
  Ge  Ge1  1  0.99443855  0.99860646  0.14787298  1
  Ge  Ge2  1  0.66806054  0.33889445  0.98120598  1
  Ge  Ge3  1  0.66110555  0.33193946  0.48120598  1
  Ge  Ge4  1  0.33472654  0.67222845  0.31453998  1
  Ge  Ge5  1  0.32777155  0.66527346  0.81453998  1
  P  P0  1  0.28831635  0.99562204  0.25026388  1
  P  P1  1  0.71191964  0.71255114  0.25052364  1
  P  P2  1  0.99614267  0.28879222  0.25100317  1
  P  P3  1  0.28744886  0.28808036  0.75052364  1
  P  P4  1  0.00437796  0.71168365  0.75026388  1
  P  P5  1  0.71120778  0.00385733  0.75100317  1
  P  P6  1  0.95498335  0.32895504  0.58359688  1
  P  P7  1  0.37858664  0.04588414  0.58385664  1
  P  P8  1  0.66280967  0.62212522  0.58433617  1
  P  P9  1  0.95411586  0.62141336  0.08385664  1
  P  P10  1  0.67104496  0.04501665  0.08359688  1
  P  P11  1  0.37787478  0.33719033  0.08433617  1
  P  P12  1  0.62164935  0.66228904  0.91693088  1
  P  P13  1  0.04525264  0.37921814  0.91719064  1
  P  P14  1  0.32947567  0.95545922  0.91767017  1
  P  P15  1  0.62078186  0.95474736  0.41719064  1
  P  P16  1  0.33771096  0.37835065  0.41693088  1
  P  P17  1  0.04454078  0.67052433  0.41767017  1
  O  O0  1  0.20865483  0.03909668  0.30591602  1
  O  O1  1  0.82669913  0.79219907  0.30738660  1
  O  O2  1  0.96713885  0.17745730  0.30884074  1
  O  O3  1  0.20780093  0.17330087  0.80738660  1
  O  O4  1  0.96090332  0.79134517  0.80591602  1
  O  O5  1  0.82254270  0.03286115  0.80884074  1
  O  O6  1  0.79147080  0.95652879  0.69368205  1
  O  O7  1  0.16883201  0.20837052  0.69212732  1
  O  O8  1  0.03870825  0.82815997  0.69078134  1
  O  O9  1  0.79162948  0.83116799  0.19212732  1
  O  O10  1  0.04347121  0.20852920  0.19368205  1
  O  O11  1  0.17184003  0.96129175  0.19078134  1
  O  O12  1  0.87532183  0.37242968  0.63924902  1
  O  O13  1  0.49336613  0.12553207  0.64071960  1
  O  O14  1  0.63380585  0.51079030  0.64217374  1
  O  O15  1  0.87446793  0.50663387  0.14071960  1
  O  O16  1  0.62757032  0.12467817  0.13924902  1
  O  O17  1  0.48920970  0.36619415  0.14217374  1
  O  O18  1  0.45813780  0.28986179  0.02701505  1
  O  O19  1  0.83549901  0.54170352  0.02546032  1
  O  O20  1  0.70537525  0.16149297  0.02411434  1
  O  O21  1  0.45829648  0.16450099  0.52546032  1
  O  O22  1  0.71013821  0.54186220  0.52701505  1
  O  O23  1  0.83850703  0.29462475  0.52411434  1
  O  O24  1  0.54198783  0.70576368  0.97258302  1
  O  O25  1  0.16003213  0.45886607  0.97405360  1
  O  O26  1  0.30047185  0.84412430  0.97550774  1
  O  O27  1  0.54113393  0.83996787  0.47405360  1
  O  O28  1  0.29423632  0.45801217  0.47258302  1
  O  O29  1  0.15587570  0.69952815  0.47550774  1
  O  O30  1  0.12480380  0.62319579  0.36034905  1
  O  O31  1  0.50216501  0.87503752  0.35879432  1
  O  O32  1  0.37204125  0.49482697  0.35744834  1
  O  O33  1  0.12496248  0.49783499  0.85879432  1
  O  O34  1  0.37680421  0.87519620  0.86034905  1
  O  O35  1  0.50517303  0.62795875  0.85744834  1
  O  O36  1  0.02393364  0.83537003  0.41015425  1
  O  O37  1  0.81199638  0.98270809  0.40998040  1
  O  O38  1  0.16616721  0.19134604  0.40956847  1
  O  O39  1  0.01729191  0.18800362  0.90998040  1
  O  O40  1  0.16462997  0.97606636  0.91015425  1
  O  O41  1  0.80865396  0.83383279  0.90956847  1
  O  O42  1  0.97260177  0.15800375  0.59043943  1
  O  O43  1  0.18398023  0.02230592  0.59012509  1
  O  O44  1  0.84166190  0.81256531  0.59031436  1
  O  O45  1  0.97769408  0.81601977  0.09012509  1
  O  O46  1  0.84199625  0.02739823  0.09043943  1
  O  O47  1  0.18743469  0.15833810  0.09031436  1
  O  O48  1  0.69060064  0.16870303  0.74348725  1
  O  O49  1  0.47866338  0.31604109  0.74331340  1
  O  O50  1  0.83283421  0.52467904  0.74290147  1
  O  O51  1  0.68395891  0.52133662  0.24331340  1
  O  O52  1  0.83129697  0.30939936  0.24348725  1
  O  O53  1  0.47532096  0.16716579  0.24290147  1
  O  O54  1  0.63926877  0.49133675  0.92377243  1
  O  O55  1  0.85064723  0.35563892  0.92345809  1
  O  O56  1  0.50832890  0.14589831  0.92364736  1
  O  O57  1  0.64436108  0.14935277  0.42345809  1
  O  O58  1  0.50866325  0.36073123  0.42377243  1
  O  O59  1  0.85410169  0.49167110  0.42364736  1
  O  O60  1  0.35726664  0.50203703  0.07682125  1
  O  O61  1  0.14532938  0.64937509  0.07664740  1
  O  O62  1  0.49950021  0.85801304  0.07623547  1
  O  O63  1  0.35062491  0.85467062  0.57664740  1
  O  O64  1  0.49796297  0.64273336  0.57682125  1
  O  O65  1  0.14198696  0.50049979  0.57623547  1
  O  O66  1  0.30593477  0.82467075  0.25710643  1
  O  O67  1  0.51731323  0.68897292  0.25679209  1
  O  O68  1  0.17499490  0.47923231  0.25698136  1
  O  O69  1  0.31102708  0.48268677  0.75679209  1
  O  O70  1  0.17532925  0.69406523  0.75710643  1
  O  O71  1  0.52076769  0.82500510  0.75698136  1
loop_
_geom_bond_atom_site_label_1
_geom_bond_atom_site_label_2
_geom_bond_distance
_geom_bond_site_symmetry_2
Na0 O68 2.302465 1_555
Na0 O53 2.303754 1_555
Na0 O51 2.353983 1_555
Na0 O67 2.411437 1_555
Na0 O17 2.570183 1_555
Na0 O32 2.596894 1_555
Na0 O10 2.677039 1_555
Na0 O0 2.692247 1_555
Na1 O71 2.302465 1_555
Na1 O50 2.303754 1_555
Na1 O49 2.353983 1_555
Na1 O69 2.411437 1_555
Na1 O14 2.570183 1_555
Na1 O35 2.596894 1_555
Na1 O6 2.677039 1_555
Na1 O4 2.692247 1_555
Na2 O44 2.302465 1_455
Na2 O65 2.303738 1_555
Na2 O63 2.353974 1_555
Na2 O43 2.411437 1_565
Na2 O29 2.570158 1_555
Na2 O8 2.596894 1_555
Na2 O22 2.677039 1_455
Na2 O12 2.692247 1_455
Na3 O47 2.302465 1_565
Na3 O62 2.303738 1_555
Na3 O61 2.353974 1_555
Na3 O45 2.411437 1_455
Na3 O26 2.570158 1_554
Na3 O11 2.596894 1_555
Na3 O18 2.677039 1_565
Na3 O16 2.692247 1_565
Na4 O56 2.302449 1_555
Na4 O41 2.303754 1_545
Na4 O39 2.353983 1_655
Na4 O55 2.411428 1_555
Na4 O5 2.570183 1_555
Na4 O20 2.596869 1_556
Na4 O34 2.677039 1_545
Na4 O24 2.692247 1_545
Na5 O59 2.302449 1_555
Na5 O38 2.303754 1_655
Na5 O37 2.353983 1_545
Na5 O57 2.411428 1_555
Na5 O2 2.570183 1_555
Na5 O23 2.596869 1_555
Na5 O30 2.677039 1_655
Na5 O28 2.692247 1_655
Na6 O36 2.463386 1_655
Na6 O37 2.481828 1_555
Na6 O38 2.484861 1_665
Na6 O43 2.487438 1_665
Na6 O44 2.488257 1_555
Na6 O42 2.488810 1_565
Na7 O40 2.463386 1_545
Na7 O39 2.481828 1_555
Na7 O41 2.484861 1_445
Na7 O45 2.487438 1_446
Na7 O47 2.488257 1_556
Na7 O46 2.488810 1_456
Na8 O48 2.463386 1_555
Na8 O49 2.481828 1_555
Na8 O50 2.484861 1_555
Na8 O55 2.487438 1_555
Na8 O56 2.488257 1_555
Na8 O54 2.488810 1_555
Na9 O52 2.463386 1_555
Na9 O51 2.481828 1_555
Na9 O53 2.484861 1_555
Na9 O57 2.487438 1_555
Na9 O59 2.488257 1_555
Na9 O58 2.488810 1_555
Na10 O60 2.463386 1_555
Na10 O61 2.481828 1_555
Na10 O62 2.484861 1_555
Na10 O67 2.487438 1_555
Na10 O68 2.488257 1_555
Na10 O66 2.488810 1_555
Na11 O64 2.463386 1_555
Na11 O63 2.481828 1_555
Na11 O65 2.484861 1_555
Na11 O69 2.487438 1_555
Na11 O71 2.488257 1_555
Na11 O70 2.488810 1_555
Ga0 O1 1.886986 1_555
Ga0 O0 1.921576 1_665
Ga0 O36 1.948310 1_655
Ga0 O2 1.965271 1_565
Ga0 O37 1.997381 1_555
Ga0 O38 2.001174 1_665
Ga1 O3 1.886986 1_555
Ga1 O4 1.921576 1_445
Ga1 O40 1.948310 1_545
Ga1 O5 1.965271 1_455
Ga1 O39 1.997381 1_555
Ga1 O41 2.001174 1_445
Ga2 O13 1.886986 1_555
Ga2 O12 1.921576 1_555
Ga2 O48 1.948310 1_555
Ga2 O14 1.965271 1_555
Ga2 O49 1.997381 1_555
Ga2 O50 2.001174 1_555
Ga3 O15 1.886986 1_555
Ga3 O16 1.921576 1_555
Ga3 O52 1.948310 1_555
Ga3 O17 1.965271 1_555
Ga3 O51 1.997381 1_555
Ga3 O53 2.001174 1_555
Ga4 O25 1.886986 1_554
Ga4 O24 1.921576 1_554
Ga4 O60 1.948310 1_555
Ga4 O26 1.965271 1_554
Ga4 O61 1.997381 1_555
Ga4 O62 2.001174 1_555
Ga5 O27 1.886986 1_555
Ga5 O28 1.921576 1_555
Ga5 O64 1.948310 1_555
Ga5 O29 1.965271 1_555
Ga5 O63 1.997381 1_555
Ga5 O65 2.001174 1_555
Ge0 O7 1.866892 1_555
Ge0 O6 1.907274 1_445
Ge0 O42 1.915028 1_455
Ge0 O8 1.943994 1_545
Ge0 O43 1.954818 1_555
Ge0 O44 1.973516 1_445
Ge1 O9 1.866892 1_555
Ge1 O10 1.907274 1_665
Ge1 O46 1.915028 1_565
Ge1 O11 1.943994 1_655
Ge1 O45 1.954818 1_555
Ge1 O47 1.973516 1_665
Ge2 O19 1.866892 1_556
Ge2 O18 1.907274 1_556
Ge2 O54 1.915028 1_555
Ge2 O20 1.943994 1_556
Ge2 O55 1.954818 1_555
Ge2 O56 1.973516 1_555
Ge3 O21 1.866892 1_555
Ge3 O22 1.907274 1_555
Ge3 O58 1.915028 1_555
Ge3 O23 1.943994 1_555
Ge3 O57 1.954818 1_555
Ge3 O59 1.973516 1_555
Ge4 O31 1.866892 1_555
Ge4 O30 1.907274 1_555
Ge4 O66 1.915028 1_555
Ge4 O32 1.943994 1_555
Ge4 O67 1.954818 1_555
Ge4 O68 1.973516 1_555
Ge5 O33 1.866892 1_555
Ge5 O34 1.907274 1_555
Ge5 O70 1.915028 1_555
Ge5 O35 1.943994 1_555
Ge5 O69 1.954818 1_555
Ge5 O71 1.973516 1_555
O0 P0 1.527763 1_545
O1 P1 1.515882 1_555
O2 P2 1.526570 1_555
O3 P3 1.515882 1_555
O4 P4 1.527763 1_655
O5 P5 1.526570 1_555
O6 P5 1.575214 1_565
O7 P3 1.557432 1_555
O8 P4 1.573584 1_555
O9 P1 1.557432 1_555
O10 P2 1.575214 1_455
O11 P0 1.573584 1_555
O12 P6 1.527763 1_555
O13 P7 1.515882 1_555
O14 P8 1.526570 1_555
O15 P9 1.515882 1_555
O16 P10 1.527763 1_555
O17 P11 1.526570 1_555
O18 P11 1.575214 1_555
O19 P9 1.557432 1_555
O20 P10 1.573584 1_555
O21 P7 1.557432 1_555
O22 P8 1.575214 1_555
O23 P6 1.573584 1_555
O24 P12 1.527763 1_555
O25 P13 1.515882 1_555
O26 P14 1.526570 1_555
O27 P15 1.515882 1_555
O28 P16 1.527763 1_555
O29 P17 1.526570 1_555
O30 P17 1.575214 1_555
O31 P15 1.557432 1_555
O32 P16 1.573584 1_555
O33 P13 1.557432 1_555
O34 P14 1.575214 1_555
O35 P12 1.573584 1_555
O36 P17 1.516115 1_555
O37 P15 1.536778 1_555
O38 P16 1.538347 1_555
O39 P13 1.536778 1_555
O40 P14 1.516115 1_555
O41 P12 1.538347 1_555
O42 P6 1.551491 1_555
O43 P7 1.578280 1_555
O44 P8 1.579090 1_555
O45 P9 1.578280 1_555
O46 P10 1.551492 1_555
O47 P11 1.579090 1_555
O48 P5 1.516115 1_555
O49 P3 1.536778 1_555
O50 P4 1.538347 1_655
O51 P1 1.536778 1_555
O52 P2 1.516115 1_555
O53 P0 1.538347 1_545
O54 P12 1.551503 1_555
O55 P13 1.578266 1_655
O56 P14 1.579088 1_545
O57 P15 1.578266 1_545
O58 P16 1.551503 1_555
O59 P17 1.579088 1_655
O60 P11 1.516126 1_555
O61 P9 1.536764 1_455
O62 P10 1.538343 1_565
O63 P7 1.536764 1_565
O64 P8 1.516126 1_555
O65 P6 1.538343 1_455
O66 P0 1.551491 1_555
O67 P1 1.578280 1_555
O68 P2 1.579090 1_455
O69 P3 1.578280 1_555
O70 P4 1.551492 1_555
O71 P5 1.579090 1_565
