# generated using pymatgen
data_K3NaMg(RuO4)2
_symmetry_space_group_name_H-M   'P 1'
_cell_length_a   6.21573864
_cell_length_b   6.21573800
_cell_length_c   7.77757559
_cell_angle_alpha   90.11142318
_cell_angle_beta   89.88857681
_cell_angle_gamma   115.77360148
_symmetry_Int_Tables_number   1
_chemical_formula_structural   K3NaMg(RuO4)2
_chemical_formula_sum   'K3 Na1 Mg1 Ru2 O8'
_cell_volume   270.59609190
_cell_formula_units_Z   1
loop_
 _symmetry_equiv_pos_site_id
 _symmetry_equiv_pos_as_xyz
  1  'x, y, z'
loop_
 _atom_site_type_symbol
 _atom_site_label
 _atom_site_symmetry_multiplicity
 _atom_site_fract_x
 _atom_site_fract_y
 _atom_site_fract_z
 _atom_site_occupancy
  K  K0  1  0.71506953  0.35757607  0.33115617  1
  K  K1  1  0.86490536  0.86490536  1.00000000  1
  K  K2  1  0.35757607  0.71506953  0.66884383  1
  Na  Na0  1  0.01481935  0.01481935  0.50000000  1
  Mg  Mg0  1  0.34358945  0.34358945  0.00000000  1
  Ru  Ru0  1  0.69721530  0.33470581  0.76469337  1
  Ru  Ru1  1  0.33470581  0.69721530  0.23530663  1
  O  O0  1  0.22319427  0.35334381  0.23822755  1
  O  O1  1  0.62370300  0.84441764  0.33255584  1
  O  O2  1  0.11101402  0.78970319  0.29698510  1
  O  O3  1  0.84441764  0.62370300  0.66744416  1
  O  O4  1  0.78970319  0.11101402  0.70301490  1
  O  O5  1  0.35334381  0.22319427  0.76177245  1
  O  O6  1  0.67140753  0.37130767  0.00558197  1
  O  O7  1  0.37130767  0.67140753  0.99441803  1
loop_
_geom_bond_atom_site_label_1
_geom_bond_atom_site_label_2
_geom_bond_distance
_geom_bond_site_symmetry_2
K0 O6 2.552748 1_555
K0 O2 2.755665 1_655
K0 O1 2.986869 1_545
K0 O3 3.009710 1_555
K0 O0 3.131956 1_555
K0 O0 3.249874 1_655
K0 O1 3.312725 1_555
K1 O6 2.766376 1_556
K1 O7 2.766376 1_555
K1 O4 2.921248 1_565
K1 O2 2.921249 1_656
K1 O3 2.962095 1_555
K1 O1 2.962095 1_556
K2 O7 2.552748 1_555
K2 O4 2.755665 1_565
K2 O3 2.986869 1_455
K2 O1 3.009710 1_555
K2 O5 3.131956 1_555
K2 O5 3.249873 1_565
K2 O3 3.312725 1_555
Na0 O2 2.350295 1_545
Na0 O4 2.350295 1_455
Na0 O3 2.548666 1_445
Na0 O1 2.548666 1_445
Na0 O0 2.808309 1_555
Na0 O5 2.808309 1_555
Mg0 O7 1.969398 1_554
Mg0 O6 1.969399 1_555
Mg0 O5 2.007564 1_554
Mg0 O0 2.007564 1_555
O0 Ru1 1.939395 1_555
O1 Ru1 1.791462 1_555
O2 Ru1 1.784739 1_555
O3 Ru0 1.791462 1_555
O4 Ru0 1.784739 1_555
O5 Ru0 1.939395 1_555
O6 Ru0 1.901714 1_554
O7 Ru1 1.901714 1_556
