# generated using pymatgen
data_Na5LaTa3Si5PO24
_symmetry_space_group_name_H-M   'P 1'
_cell_length_a   9.12389717
_cell_length_b   9.16174898
_cell_length_c   22.74262150
_cell_angle_alpha   90.11735238
_cell_angle_beta   89.84757994
_cell_angle_gamma   119.85579152
_symmetry_Int_Tables_number   1
_chemical_formula_structural   Na5LaTa3Si5PO24
_chemical_formula_sum   'Na15 La3 Ta9 Si15 P3 O72'
_cell_volume   1648.76020277
_cell_formula_units_Z   3
loop_
 _symmetry_equiv_pos_site_id
 _symmetry_equiv_pos_as_xyz
  1  'x, y, z'
loop_
 _atom_site_type_symbol
 _atom_site_label
 _atom_site_symmetry_multiplicity
 _atom_site_fract_x
 _atom_site_fract_y
 _atom_site_fract_z
 _atom_site_occupancy
  Na  Na0  1  0.99259922  0.63804195  0.24150029  1
  Na  Na1  1  0.62898357  0.62022074  0.74875070  1
  Na  Na2  1  0.99058512  0.36927686  0.74831688  1
  Na  Na3  1  0.37727830  0.00964521  0.75102848  1
  Na  Na4  1  0.32059348  0.97435487  0.08132786  1
  Na  Na5  1  0.65842415  0.68190646  0.08253957  1
  Na  Na6  1  0.96843432  0.29239897  0.41720040  1
  Na  Na7  1  0.32236870  0.03145531  0.41507219  1
  Na  Na8  1  0.70670719  0.67727389  0.41745568  1
  Na  Na9  1  -0.00015143  0.99972219  0.50403085  1
  Na  Na10  1  0.99885396  0.01070959  0.99618397  1
  Na  Na11  1  0.66608995  0.33421918  0.83508634  1
  Na  Na12  1  0.64525292  0.31419678  0.32379404  1
  Na  Na13  1  0.33214015  0.65313301  0.16452261  1
  Na  Na14  1  0.33121085  0.65842094  0.66425223  1
  La  La0  1  0.00479308  0.00533630  0.34834694  1
  La  La1  1  0.66850620  0.33732835  0.67816891  1
  La  La2  1  0.65926459  0.32161233  0.17314956  1
  Ta  Ta0  1  0.00023154  0.99951974  0.85870414  1
  Ta  Ta1  1  0.99613390  0.99942044  0.64595875  1
  Ta  Ta2  1  0.00433319  0.00417539  0.14656699  1
  Ta  Ta3  1  0.66656267  0.33142440  0.97812133  1
  Ta  Ta4  1  0.67150900  0.33620589  0.48441680  1
  Ta  Ta5  1  0.32881834  0.66315200  0.01285513  1
  Ta  Ta6  1  0.33424328  0.66496809  0.52114339  1
  Ta  Ta7  1  0.33681902  0.66988543  0.31217058  1
  Ta  Ta8  1  0.33266493  0.66582899  0.81480886  1
  Si  Si0  1  0.30235668  0.99232520  0.25197378  1
  Si  Si1  1  0.27622892  0.28713756  0.75279519  1
  Si  Si2  1  0.01178074  0.72385778  0.75245503  1
  Si  Si3  1  0.71018687  0.98808458  0.75343540  1
  Si  Si4  1  0.97403562  0.33158472  0.58490000  1
  Si  Si5  1  0.66963501  0.64217480  0.58488537  1
  Si  Si6  1  0.97018021  0.63314559  0.08284751  1
  Si  Si7  1  0.66348286  0.02753221  0.07882409  1
  Si  Si8  1  0.36634759  0.33912922  0.07985785  1
  Si  Si9  1  0.62466017  0.66188342  0.91538313  1
  Si  Si10  1  0.03649293  0.37446628  0.91435580  1
  Si  Si11  1  0.33874116  0.96312233  0.91550764  1
  Si  Si12  1  0.61077732  0.96022812  0.41901990  1
  Si  Si13  1  0.34869420  0.38896418  0.41843706  1
  Si  Si14  1  0.04043840  0.65173468  0.41801962  1
  P  P0  1  0.69481070  0.70495824  0.24953515  1
  P  P1  1  0.01411521  0.30893374  0.25057358  1
  P  P2  1  0.35945726  0.02885977  0.58202462  1
  O  O0  1  0.22862784  0.00164085  0.31538778  1
  O  O1  1  0.78117429  0.77347473  0.30888137  1
  O  O2  1  0.98987116  0.22689992  0.31088420  1
  O  O3  1  0.17560843  0.17112427  0.80936035  1
  O  O4  1  0.99600259  0.82497428  0.80899404  1
  O  O5  1  0.82867607  0.00597122  0.80930589  1
  O  O6  1  0.80787163  0.97063421  0.69376501  1
  O  O7  1  0.16203980  0.19055194  0.69370753  1
  O  O8  1  0.03190539  0.83988878  0.69374345  1
  O  O9  1  0.80123346  0.82698637  0.19721771  1
  O  O10  1  0.01864263  0.19216640  0.19990817  1
  O  O11  1  0.16694713  0.97756836  0.19749326  1
  O  O12  1  0.91933312  0.37129100  0.64702857  1
  O  O13  1  0.45143739  0.08088948  0.64072482  1
  O  O14  1  0.62473878  0.54715922  0.64684178  1
  O  O15  1  0.92457554  0.54831645  0.14600223  1
  O  O16  1  0.58674090  0.06824695  0.13545696  1
  O  O17  1  0.48102455  0.40745336  0.13724576  1
  O  O18  1  0.46671844  0.29336143  0.02853778  1
  O  O19  1  0.82349682  0.52391312  0.03281149  1
  O  O20  1  0.69613484  0.16677946  0.02694120  1
  O  O21  1  0.46827662  0.15691019  0.53145943  1
  O  O22  1  0.68819924  0.52218207  0.53107090  1
  O  O23  1  0.83412772  0.30759650  0.53084827  1
  O  O24  1  0.52483758  0.68399724  0.97052338  1
  O  O25  1  0.16148686  0.47996879  0.96795891  1
  O  O26  1  0.31725905  0.84470081  0.97156516  1
  O  O27  1  0.50600146  0.84038532  0.47256154  1
  O  O28  1  0.33645288  0.49500664  0.47297997  1
  O  O29  1  0.16220267  0.66858801  0.47136777  1
  O  O30  1  0.13220318  0.62975621  0.35693121  1
  O  O31  1  0.49590731  0.86139935  0.35871609  1
  O  O32  1  0.36728693  0.50446175  0.35924958  1
  O  O33  1  0.13110420  0.49351984  0.85567883  1
  O  O34  1  0.36120315  0.86482983  0.85729620  1
  O  O35  1  0.50357164  0.63711687  0.85707995  1
  O  O36  1  0.00918727  0.80953583  0.41923636  1
  O  O37  1  0.79783079  0.98520928  0.41986988  1
  O  O38  1  0.18393056  0.20437978  0.42086628  1
  O  O39  1  0.01644402  0.18762557  0.91031846  1
  O  O40  1  0.17137028  0.98400527  0.91021381  1
  O  O41  1  0.81208010  0.82914613  0.91014545  1
  O  O42  1  0.98012829  0.15632614  0.58801135  1
  O  O43  1  0.18963578  0.02663558  0.58513861  1
  O  O44  1  0.84875570  0.81992050  0.58810339  1
  O  O45  1  0.97781629  0.82181206  0.09142728  1
  O  O46  1  0.83695579  0.01671896  0.09256656  1
  O  O47  1  0.18598100  0.15978336  0.09315989  1
  O  O48  1  0.68660044  0.15095919  0.75220057  1
  O  O49  1  0.46192913  0.30647670  0.75282853  1
  O  O50  1  0.84667581  0.53841112  0.75268908  1
  O  O51  1  0.68231671  0.53449314  0.24345957  1
  O  O52  1  0.87116104  0.34673111  0.24364663  1
  O  O53  1  0.48771851  0.14857335  0.24734283  1
  O  O54  1  0.64207353  0.49384062  0.92567856  1
  O  O55  1  0.85256481  0.36121671  0.92480851  1
  O  O56  1  0.50773112  0.14884542  0.92367127  1
  O  O57  1  0.62202882  0.14582031  0.42474107  1
  O  O58  1  0.52146178  0.37444081  0.42503752  1
  O  O59  1  0.85383915  0.47657956  0.42570936  1
  O  O60  1  0.32924366  0.49125435  0.06452298  1
  O  O61  1  0.16410212  0.67784224  0.06794836  1
  O  O62  1  0.51304893  0.83391855  0.06482739  1
  O  O63  1  0.33223806  0.85213730  0.56878906  1
  O  O64  1  0.51329873  0.67460774  0.57045730  1
  O  O65  1  0.15869136  0.49340810  0.57067065  1
  O  O66  1  0.29223864  0.80403802  0.25229706  1
  O  O67  1  0.52074557  0.69881545  0.25138679  1
  O  O68  1  0.18811839  0.47717769  0.25086401  1
  O  O69  1  0.29321483  0.47685029  0.75611862  1
  O  O70  1  0.18602191  0.70845961  0.75598613  1
  O  O71  1  0.52226075  0.81370424  0.75609710  1
loop_
_geom_bond_atom_site_label_1
_geom_bond_atom_site_label_2
_geom_bond_distance
_geom_bond_site_symmetry_2
Na0 O15 2.295623 1_555
Na0 O52 2.325759 1_555
Na0 O66 2.389503 1_655
Na0 O51 2.498394 1_555
Na0 O68 2.832077 1_655
Na0 O11 2.878529 1_655
Na0 O30 2.938489 1_655
Na1 O14 2.406136 1_555
Na1 O71 2.415534 1_555
Na1 O50 2.449127 1_555
Na1 O49 2.496485 1_555
Na1 O69 2.670261 1_555
Na1 O35 2.750060 1_555
Na2 O12 2.397801 1_555
Na2 O69 2.432961 1_655
Na2 O50 2.481823 1_555
Na2 O48 2.485362 1_555
Na2 O70 2.710923 1_655
Na2 O33 2.730119 1_655
Na3 O70 2.424471 1_545
Na3 O49 2.429472 1_555
Na3 O48 2.450342 1_555
Na3 O13 2.595162 1_555
Na3 O71 2.711394 1_545
Na3 O34 2.727685 1_545
Na4 O61 2.376573 1_555
Na4 O16 2.466554 1_565
Na4 O47 2.557485 1_565
Na4 O62 2.668996 1_555
Na4 O45 2.726298 1_455
Na4 O26 2.756026 1_554
Na4 O18 2.808401 1_565
Na4 O11 2.994461 1_555
Na5 O62 2.388622 1_555
Na5 O17 2.537771 1_555
Na5 O45 2.541443 1_555
Na5 O60 2.649484 1_555
Na5 O46 2.671889 1_565
Na5 O19 2.792390 1_555
Na5 O24 2.831227 1_554
Na5 O9 2.923373 1_555
Na6 O59 2.394197 1_555
Na6 O37 2.446614 1_545
Na6 O38 2.470389 1_655
Na6 O2 2.520524 1_555
Na6 O57 2.755762 1_555
Na6 O23 2.890149 1_555
Na7 O0 2.391855 1_555
Na7 O57 2.402368 1_555
Na7 O38 2.472527 1_555
Na7 O36 2.553963 1_545
Na7 O58 2.746177 1_555
Na7 O21 2.929591 1_555
Na7 O31 3.002372 1_545
Na8 O36 2.399428 1_655
Na8 O58 2.432214 1_555
Na8 O37 2.513530 1_555
Na8 O1 2.596050 1_555
Na8 O59 2.771007 1_555
Na9 O42 2.445967 1_465
Na9 O44 2.451073 1_455
Na9 O43 2.460045 1_565
Na9 O38 2.603090 1_565
Na9 O37 2.617690 1_455
Na9 O36 2.625919 1_555
Na10 O39 2.493732 1_655
Na10 O41 2.584945 1_545
Na10 O40 2.593307 1_645
Na10 O46 2.655760 1_556
Na10 O47 2.707494 1_656
Na10 O45 2.721442 1_546
Na11 O49 2.565025 1_555
Na11 O56 2.566356 1_555
Na11 O50 2.579751 1_555
Na11 O48 2.589471 1_555
Na11 O55 2.591715 1_555
Na11 O54 2.595347 1_555
Na12 O53 2.285278 1_555
Na12 O51 2.618808 1_555
Na12 O52 2.651460 1_555
Na12 O57 2.716939 1_555
Na12 O58 2.735625 1_555
Na12 O59 2.897904 1_555
Na13 O68 2.464030 1_555
Na13 O67 2.517276 1_555
Na13 O66 2.552421 1_555
Na13 O60 2.705544 1_555
Na13 O61 2.755233 1_555
Na13 O62 2.807511 1_555
Na14 O69 2.586260 1_555
Na14 O70 2.627453 1_555
Na14 O65 2.632143 1_555
Na14 O71 2.638871 1_555
Na14 O64 2.658856 1_555
Na14 O63 2.804042 1_555
La0 O0 2.189606 1_555
La0 O2 2.268885 1_455
La0 O1 2.273227 1_445
La0 O38 2.398219 1_555
La0 O37 2.425651 1_445
La0 O36 2.429530 1_545
La1 O12 2.262521 1_555
La1 O14 2.265879 1_555
La1 O13 2.352750 1_555
La1 O50 2.434947 1_555
La1 O49 2.443336 1_555
La1 O48 2.464015 1_555
La2 O16 2.242001 1_555
La2 O17 2.283201 1_555
La2 O53 2.310111 1_555
La2 O15 2.355052 1_555
La2 O52 2.435822 1_555
La2 O51 2.446558 1_555
O0 Si0 1.609733 1_545
O1 P0 1.531769 1_555
O2 P1 1.527162 1_655
O3 Si1 1.629497 1_555
O3 Ta0 1.945375 1_545
O4 Si2 1.630725 1_655
O4 Ta0 1.941199 1_655
O5 Si3 1.624867 1_545
O5 Ta0 1.953813 1_645
O6 Si3 1.672147 1_555
O6 Ta1 1.934501 1_555
O7 Si1 1.661018 1_555
O7 Ta1 1.974532 1_445
O8 Si2 1.660379 1_555
O8 Ta1 1.976645 1_455
O9 P0 1.589627 1_555
O9 Ta2 2.096979 1_665
O10 P1 1.585109 1_555
O10 Ta2 2.055118 1_555
O11 Si0 1.709092 1_555
O11 Ta2 1.993118 1_565
O12 Si4 1.597756 1_555
O13 P2 1.522756 1_555
O14 Si5 1.599353 1_555
O15 Si6 1.587306 1_555
O16 Si7 1.594231 1_555
O17 Si8 1.594311 1_555
O18 Si8 1.658716 1_555
O18 Ta3 2.029379 1_554
O19 Si6 1.660573 1_555
O19 Ta3 2.047845 1_554
O20 Si7 1.653622 1_555
O20 Ta3 1.998650 1_554
O21 P2 1.588803 1_555
O21 Ta4 2.060408 1_555
O22 Si5 1.707018 1_555
O22 Ta4 1.946091 1_555
O23 Si4 1.707868 1_555
O23 Ta4 1.944703 1_555
O24 Si9 1.618565 1_555
O24 Ta5 1.952804 1_556
O25 Si10 1.620516 1_555
O25 Ta5 1.907940 1_556
O26 Si11 1.622806 1_555
O26 Ta5 1.959869 1_556
O27 Si12 1.598870 1_555
O27 Ta6 1.936478 1_555
O28 Si13 1.611654 1_555
O28 Ta6 1.910255 1_555
O29 Si14 1.601792 1_555
O29 Ta6 1.951390 1_555
O30 Si14 1.682927 1_555
O30 Ta7 1.991175 1_555
O31 Si12 1.690244 1_555
O31 Ta7 1.941887 1_555
O32 Si13 1.669223 1_555
O32 Ta7 1.987040 1_555
O33 Si10 1.666752 1_555
O33 Ta8 1.960739 1_555
O34 Si11 1.668245 1_555
O34 Ta8 1.961376 1_555
O35 Si9 1.669499 1_555
O35 Ta8 1.960188 1_555
O36 Si14 1.606996 1_555
O37 Si12 1.605207 1_555
O38 Si13 1.609843 1_555
O39 Si10 1.630887 1_555
O39 Ta0 2.026981 1_545
O40 Si11 1.635549 1_555
O40 Ta0 2.015455 1_555
O41 Si9 1.636233 1_555
O41 Ta0 2.020155 1_655
O42 Si4 1.635740 1_555
O42 Ta1 2.010575 1_545
O43 P2 1.540832 1_555
O43 Ta1 2.154654 1_445
O44 Si5 1.636615 1_555
O44 Ta1 2.010658 1_555
O45 Si6 1.705720 1_555
O45 Ta2 2.003282 1_665
O46 Si7 1.664772 1_555
O46 Ta2 2.009700 1_655
O47 Si8 1.675323 1_555
O47 Ta2 1.974446 1_555
O48 Si3 1.610508 1_545
O49 Si1 1.613442 1_555
O50 Si2 1.614833 1_655
O51 P0 1.514306 1_555
O52 P1 1.515567 1_655
O53 Si0 1.584226 1_545
O54 Si9 1.641810 1_555
O54 Ta3 2.006572 1_555
O55 Si10 1.637859 1_655
O55 Ta3 1.988426 1_555
O56 Si11 1.641699 1_545
O56 Ta3 2.004790 1_555
O57 Si12 1.656511 1_545
O57 Ta4 2.073104 1_555
O58 Si13 1.653836 1_555
O58 Ta4 2.076017 1_555
O59 Si14 1.668442 1_655
O59 Ta4 2.017216 1_555
O60 Si8 1.628222 1_555
O60 Ta5 1.968434 1_555
O61 Si6 1.639821 1_455
O61 Ta5 2.009298 1_555
O62 Si7 1.645501 1_565
O62 Ta5 2.013680 1_555
O63 P2 1.540061 1_565
O63 Ta6 2.034341 1_555
O64 Si5 1.629556 1_555
O64 Ta6 1.949420 1_555
O65 Si4 1.628926 1_455
O65 Ta6 1.948288 1_555
O66 Si0 1.681021 1_555
O66 Ta7 2.009423 1_555
O67 P0 1.561356 1_555
O67 Ta7 2.084144 1_555
O68 P1 1.568434 1_555
O68 Ta7 2.125303 1_555
O69 Si1 1.667950 1_555
O69 Ta8 2.069166 1_555
O70 Si2 1.666645 1_555
O70 Ta8 2.065015 1_555
O71 Si3 1.663872 1_555
O71 Ta8 2.067009 1_555
