# generated using pymatgen
data_AlTeI7
_symmetry_space_group_name_H-M   'P 1'
_cell_length_a   7.31254673
_cell_length_b   7.47030195
_cell_length_c   16.44594787
_cell_angle_alpha   103.22202995
_cell_angle_beta   90.00000000
_cell_angle_gamma   90.00000000
_symmetry_Int_Tables_number   1
_chemical_formula_structural   AlTeI7
_chemical_formula_sum   'Al2 Te2 I14'
_cell_volume   874.57624063
_cell_formula_units_Z   2
loop_
 _symmetry_equiv_pos_site_id
 _symmetry_equiv_pos_as_xyz
  1  'x, y, z'
loop_
 _atom_site_type_symbol
 _atom_site_label
 _atom_site_symmetry_multiplicity
 _atom_site_fract_x
 _atom_site_fract_y
 _atom_site_fract_z
 _atom_site_occupancy
  Al  Al0  1  0.99110597  0.28844479  0.65544193  1
  Al  Al1  1  0.00889403  0.28844479  0.15544193  1
  Te  Te0  1  0.58963922  0.00040308  0.50065052  1
  Te  Te1  1  0.41036078  0.00040308  0.00065052  1
  I  I0  1  0.37674711  0.11289881  0.38461507  1
  I  I1  1  0.38104846  0.71743316  0.53132449  1
  I  I2  1  0.16894565  0.78696756  0.89056195  1
  I  I3  1  0.83105435  0.78696756  0.39056195  1
  I  I4  1  0.11812279  0.96328215  0.15760423  1
  I  I5  1  0.61895154  0.71743316  0.03132449  1
  I  I6  1  0.12318217  0.36330112  0.01948154  1
  I  I7  1  0.87681783  0.36330112  0.51948154  1
  I  I8  1  0.66356609  0.31971696  0.16601668  1
  I  I9  1  0.33643391  0.31971696  0.66601668  1
  I  I10  1  0.15890534  0.50965438  0.27882159  1
  I  I11  1  0.84109466  0.50965438  0.77882159  1
  I  I12  1  0.62325289  0.11289881  0.88461507  1
  I  I13  1  0.88187721  0.96328215  0.65760423  1
loop_
_geom_bond_atom_site_label_1
_geom_bond_atom_site_label_2
_geom_bond_distance
_geom_bond_site_symmetry_2
Al0 I9 2.538307 1_655
Al0 I11 2.552931 1_555
Al0 I13 2.564978 1_545
Al0 I7 2.565702 1_555
Al1 I8 2.538307 1_455
Al1 I10 2.552931 1_555
Al1 I4 2.564978 1_545
Al1 I6 2.565702 1_555
I0 Te0 2.739540 1_555
I1 Te0 2.745428 1_565
I2 Te1 2.759730 1_566
I3 Te0 2.759730 1_565
I4 Te1 3.410863 1_565
I5 Te1 2.745428 1_565
I6 Te1 3.386912 1_555
I7 Te0 3.386912 1_555
I12 Te1 2.739540 1_556
I13 Te0 3.410863 1_565
