# generated using pymatgen
data_Na3LaTiSi2SO12
_symmetry_space_group_name_H-M   'P 1'
_cell_length_a   9.54573868
_cell_length_b   9.54573831
_cell_length_c   22.46408670
_cell_angle_alpha   87.13774346
_cell_angle_beta   92.86225655
_cell_angle_gamma   119.43613721
_symmetry_Int_Tables_number   1
_chemical_formula_structural   Na3LaTiSi2SO12
_chemical_formula_sum   'Na18 La6 Ti6 Si12 S6 O72'
_cell_volume   1779.71650602
_cell_formula_units_Z   6
loop_
 _symmetry_equiv_pos_site_id
 _symmetry_equiv_pos_as_xyz
  1  'x, y, z'
loop_
 _atom_site_type_symbol
 _atom_site_label
 _atom_site_symmetry_multiplicity
 _atom_site_fract_x
 _atom_site_fract_y
 _atom_site_fract_z
 _atom_site_occupancy
  Na  Na0  1  0.63637641  0.99549281  0.24210049  1
  Na  Na1  1  0.99565502  0.63350573  0.24957702  1
  Na  Na2  1  0.00450719  0.36362359  0.74210049  1
  Na  Na3  1  0.36649427  0.00434498  0.74957702  1
  Na  Na4  1  0.30304341  0.32882581  0.57543349  1
  Na  Na5  1  0.66232202  0.96683873  0.58291002  1
  Na  Na6  1  0.67117419  0.69695659  0.07543349  1
  Na  Na7  1  0.03316127  0.33767798  0.08291002  1
  Na  Na8  1  0.96970941  0.66215981  0.90876749  1
  Na  Na9  1  0.32898802  0.30017273  0.91624402  1
  Na  Na10  1  0.33784019  0.03029059  0.40876749  1
  Na  Na11  1  0.69982727  0.67101198  0.41624402  1
  Na  Na12  1  0.99060860  0.02328536  0.50106337  1
  Na  Na13  1  0.97671464  0.00939140  0.00106337  1
  Na  Na14  1  0.65727560  0.35661836  0.83439637  1
  Na  Na15  1  0.64338164  0.34272440  0.33439637  1
  Na  Na16  1  0.32394160  0.68995236  0.16773037  1
  Na  Na17  1  0.31004764  0.67605840  0.66773037  1
  La  La0  1  0.01144965  0.01939653  0.34795818  1
  La  La1  1  0.98060347  0.98855035  0.84795818  1
  La  La2  1  0.67811665  0.35272953  0.68129118  1
  La  La3  1  0.64727047  0.32188335  0.18129118  1
  La  La4  1  0.34478265  0.68606353  0.01462518  1
  La  La5  1  0.31393647  0.65521735  0.51462518  1
  Ti  Ti0  1  0.04852936  0.01927815  0.64623388  1
  Ti  Ti1  1  0.98072185  0.95147064  0.14623388  1
  Ti  Ti2  1  0.71519636  0.35261115  0.97956688  1
  Ti  Ti3  1  0.64738885  0.28480364  0.47956688  1
  Ti  Ti4  1  0.38186236  0.68594515  0.31290088  1
  Ti  Ti5  1  0.31405485  0.61813764  0.81290088  1
  Si  Si0  1  0.28716620  0.97215718  0.25440611  1
  Si  Si1  1  0.69973763  0.70140334  0.25266442  1
  Si  Si2  1  0.29859666  0.30026237  0.75266442  1
  Si  Si3  1  0.02784282  0.71283380  0.75440611  1
  Si  Si4  1  0.95383320  0.30549018  0.58773911  1
  Si  Si5  1  0.36640463  0.03473634  0.58599742  1
  Si  Si6  1  0.96526366  0.63359537  0.08599742  1
  Si  Si7  1  0.69450982  0.04616680  0.08773911  1
  Si  Si8  1  0.62049920  0.63882418  0.92107311  1
  Si  Si9  1  0.03307063  0.36807034  0.91933142  1
  Si  Si10  1  0.63192966  0.96692937  0.41933142  1
  Si  Si11  1  0.36117582  0.37950080  0.42107311  1
  S  S0  1  0.02393144  0.32809159  0.24421079  1
  S  S1  1  0.67190841  0.97606856  0.74421079  1
  S  S2  1  0.69059844  0.66142459  0.57754379  1
  S  S3  1  0.33857541  0.30940156  0.07754379  1
  S  S4  1  0.35726444  0.99475859  0.91087779  1
  S  S5  1  0.00524141  0.64273556  0.41087779  1
  O  O0  1  0.22129746  0.99347936  0.31583717  1
  O  O1  1  0.79520405  0.78885386  0.31196972  1
  O  O2  1  0.00551118  0.23396001  0.30036996  1
  O  O3  1  0.21114614  0.20479595  0.81196972  1
  O  O4  1  0.00652064  0.77870254  0.81583717  1
  O  O5  1  0.76603999  -0.00551118  0.80036996  1
  O  O6  1  0.75932900  0.97418471  0.69257193  1
  O  O7  1  0.17760550  0.19745333  0.69265842  1
  O  O8  1  0.04426508  0.85296791  0.69895298  1
  O  O9  1  0.80254667  0.82239450  0.19265842  1
  O  O10  1  0.02581529  0.24067100  0.19257193  1
  O  O11  1  0.14703209  0.95573492  0.19895298  1
  O  O12  1  0.88796446  0.32681236  0.64917017  1
  O  O13  1  0.46187105  0.12218686  0.64530272  1
  O  O14  1  0.67217818  0.56729301  0.63370296  1
  O  O15  1  0.87781314  0.53812895  0.14530272  1
  O  O16  1  0.67318764  0.11203554  0.14917017  1
  O  O17  1  0.43270699  0.32782182  0.13370296  1
  O  O18  1  0.42599600  0.30751771  0.02590493  1
  O  O19  1  0.84427250  0.53078633  0.02599142  1
  O  O20  1  0.71093208  0.18630091  0.03228598  1
  O  O21  1  0.46921367  0.15572750  0.52599142  1
  O  O22  1  0.69248229  0.57400400  0.52590493  1
  O  O23  1  0.81369909  0.28906792  0.53228598  1
  O  O24  1  0.55463046  0.66014636  0.98250417  1
  O  O25  1  0.12853705  0.45552086  0.97863672  1
  O  O26  1  0.33884418  0.90062701  0.96703696  1
  O  O27  1  0.54447914  0.87146295  0.47863672  1
  O  O28  1  0.33985364  0.44536954  0.48250417  1
  O  O29  1  0.09937299  0.66115582  0.46703696  1
  O  O30  1  0.09266200  0.64085171  0.35923893  1
  O  O31  1  0.51093850  0.86412033  0.35932542  1
  O  O32  1  0.37759808  0.51963491  0.36561998  1
  O  O33  1  0.13587967  0.48906150  0.85932542  1
  O  O34  1  0.35914829  0.90733800  0.85923893  1
  O  O35  1  0.48036509  0.62240192  0.86561998  1
  O  O36  1  0.98053387  0.78651378  0.40988467  1
  O  O37  1  0.80995406  0.98999511  0.41648020  1
  O  O38  1  0.21848923  0.19504017  0.41278609  1
  O  O39  1  0.01000489  0.19004594  0.91648020  1
  O  O40  1  0.21348622  0.01946613  0.90988467  1
  O  O41  1  0.80495983  0.78151077  0.91278609  1
  O  O42  1  0.95955060  0.13059945  0.59190089  1
  O  O43  1  0.19065321  0.03981423  0.58721176  1
  O  O44  1  0.83988782  0.82026273  0.58116194  1
  O  O45  1  0.96018577  0.80934679  0.08721176  1
  O  O46  1  0.86940055  0.04044940  0.09190089  1
  O  O47  1  0.17973727  0.16011218  0.08116194  1
  O  O48  1  0.64720087  0.11984678  0.74321767  1
  O  O49  1  0.47662106  0.32332811  0.74981320  1
  O  O50  1  0.88515623  0.52837317  0.74611909  1
  O  O51  1  0.67667189  0.52337894  0.24981320  1
  O  O52  1  0.88015322  0.35279913  0.24321767  1
  O  O53  1  0.47162683  0.11484377  0.24611909  1
  O  O54  1  0.62621760  0.46393245  0.92523389  1
  O  O55  1  0.85732021  0.37314723  0.92054476  1
  O  O56  1  0.50655482  0.15359573  0.91449494  1
  O  O57  1  0.62685277  0.14267979  0.42054476  1
  O  O58  1  0.53606755  0.37378240  0.42523389  1
  O  O59  1  0.84640427  0.49344518  0.41449494  1
  O  O60  1  0.31386687  0.45318078  0.07655167  1
  O  O61  1  0.14328706  0.65666211  0.08314720  1
  O  O62  1  0.55182223  0.86170717  0.07945309  1
  O  O63  1  0.34333789  0.85671294  0.58314720  1
  O  O64  1  0.54681922  0.68613313  0.57655167  1
  O  O65  1  0.13829283  0.44817777  0.57945309  1
  O  O66  1  0.29288360  0.79726645  0.25856789  1
  O  O67  1  0.52398621  0.70648123  0.25387876  1
  O  O68  1  0.17322082  0.48692973  0.24782894  1
  O  O69  1  0.29351877  0.47601379  0.75387876  1
  O  O70  1  0.20273355  0.70711640  0.75856789  1
  O  O71  1  0.51307027  0.82677918  0.74782894  1
loop_
_geom_bond_atom_site_label_1
_geom_bond_atom_site_label_2
_geom_bond_distance
_geom_bond_site_symmetry_2
Na0 O16 2.275135 1_565
Na0 O53 2.359010 1_565
Na0 O67 2.424538 1_555
Na1 O52 2.352591 1_555
Na1 O66 2.479793 1_655
Na1 O15 2.554297 1_555
Na1 O30 2.580042 1_655
Na1 O68 2.678702 1_655
Na1 O51 2.689154 1_555
Na1 O11 2.878994 1_655
Na2 O12 2.275135 1_455
Na2 O50 2.359009 1_455
Na2 O69 2.424538 1_555
Na3 O48 2.352591 1_555
Na3 O70 2.479793 1_545
Na3 O13 2.554297 1_555
Na3 O34 2.580042 1_545
Na3 O71 2.678702 1_545
Na3 O49 2.689154 1_555
Na3 O8 2.878994 1_545
Na4 O28 2.275119 1_555
Na4 O65 2.359028 1_555
Na4 O43 2.424538 1_555
Na5 O64 2.352579 1_555
Na5 O42 2.479793 1_565
Na5 O27 2.554277 1_555
Na5 O6 2.580042 1_555
Na5 O44 2.678702 1_555
Na5 O63 2.689165 1_555
Na5 O23 2.878994 1_565
Na6 O24 2.275119 1_554
Na6 O62 2.359028 1_555
Na6 O45 2.424538 1_555
Na7 O60 2.352579 1_555
Na7 O46 2.479793 1_455
Na7 O25 2.554277 1_554
Na7 O10 2.580042 1_555
Na7 O47 2.678702 1_555
Na7 O61 2.689165 1_555
Na7 O20 2.878994 1_455
Na8 O4 2.275135 1_655
Na8 O41 2.359010 1_555
Na8 O55 2.424546 1_555
Na9 O40 2.352591 1_555
Na9 O54 2.479799 1_555
Na9 O3 2.554297 1_555
Na9 O18 2.580025 1_556
Na9 O56 2.678720 1_555
Na9 O39 2.689154 1_555
Na9 O35 2.878994 1_555
Na10 O0 2.275135 1_545
Na10 O38 2.359009 1_555
Na10 O57 2.424546 1_555
Na11 O36 2.352591 1_555
Na11 O58 2.479799 1_555
Na11 O1 2.554297 1_555
Na11 O22 2.580025 1_555
Na11 O59 2.678720 1_555
Na11 O37 2.689154 1_555
Na11 O32 2.878994 1_555
Na12 O42 2.422590 1_555
Na12 O37 2.424781 1_545
Na12 O44 2.496621 1_545
Na12 O43 2.604193 1_655
Na12 O38 2.820127 1_655
Na13 O46 2.422590 1_555
Na13 O39 2.424781 1_654
Na13 O47 2.496621 1_655
Na13 O45 2.604193 1_545
Na13 O41 2.820127 1_544
Na14 O54 2.422590 1_555
Na14 O49 2.424781 1_555
Na14 O56 2.496621 1_555
Na14 O55 2.604193 1_555
Na14 O50 2.820127 1_555
Na15 O58 2.422590 1_555
Na15 O51 2.424781 1_555
Na15 O59 2.496621 1_555
Na15 O57 2.604193 1_555
Na15 O53 2.820127 1_555
Na16 O66 2.422590 1_555
Na16 O61 2.424781 1_555
Na16 O68 2.496621 1_555
Na16 O67 2.604193 1_555
Na16 O62 2.820127 1_555
Na17 O70 2.422590 1_555
Na17 O63 2.424781 1_555
Na17 O71 2.496621 1_555
Na17 O69 2.604193 1_555
Na17 O65 2.820127 1_555
La0 O2 2.287010 1_555
La0 O0 2.289929 1_545
La0 O1 2.302960 1_445
La0 O38 2.353151 1_555
La0 O37 2.422740 1_445
La0 O36 2.459985 1_445
La1 O5 2.287010 1_565
La1 O4 2.289929 1_655
La1 O3 2.302960 1_665
La1 O41 2.353151 1_555
La1 O39 2.422740 1_665
La1 O40 2.459985 1_665
La2 O14 2.287010 1_555
La2 O12 2.289929 1_555
La2 O13 2.302960 1_555
La2 O50 2.353151 1_555
La2 O49 2.422740 1_555
La2 O48 2.459985 1_555
La3 O17 2.287010 1_555
La3 O16 2.289929 1_555
La3 O15 2.302960 1_555
La3 O53 2.353151 1_555
La3 O51 2.422740 1_555
La3 O52 2.459985 1_555
La4 O26 2.287010 1_554
La4 O24 2.289929 1_554
La4 O25 2.302960 1_554
La4 O62 2.353151 1_555
La4 O61 2.422740 1_555
La4 O60 2.459985 1_555
La5 O29 2.287010 1_555
La5 O28 2.289929 1_555
La5 O27 2.302960 1_555
La5 O65 2.353151 1_555
La5 O63 2.422740 1_555
La5 O64 2.459985 1_555
O0 Si0 1.606751 1_555
O1 Si1 1.595078 1_555
O2 S0 1.477671 1_555
O3 Si2 1.595078 1_555
O4 Si3 1.606751 1_555
O5 S1 1.477671 1_545
O6 S1 1.468285 1_555
O6 Ti0 2.822087 1_665
O7 Si2 1.725293 1_555
O7 Ti0 1.867493 1_555
O8 Si3 1.735719 1_555
O8 Ti0 1.917824 1_565
O9 Si1 1.725293 1_555
O9 Ti1 1.867493 1_555
O10 S0 1.468285 1_555
O10 Ti1 2.822087 1_445
O11 Si0 1.735719 1_555
O11 Ti1 1.917824 1_455
O12 Si4 1.606751 1_555
O13 Si5 1.595078 1_555
O14 S2 1.477671 1_555
O15 Si6 1.595078 1_555
O16 Si7 1.606751 1_555
O17 S3 1.477671 1_555
O18 S3 1.468285 1_555
O18 Ti2 2.822087 1_554
O19 Si6 1.725293 1_555
O19 Ti2 1.867493 1_554
O20 Si7 1.735719 1_555
O20 Ti2 1.917824 1_554
O21 Si5 1.725293 1_555
O21 Ti3 1.867493 1_555
O22 S2 1.468285 1_555
O22 Ti3 2.822087 1_555
O23 Si4 1.735719 1_555
O23 Ti3 1.917824 1_555
O24 Si8 1.606751 1_555
O25 Si9 1.595078 1_555
O26 S4 1.477671 1_555
O27 Si10 1.595078 1_555
O28 Si11 1.606751 1_555
O29 S5 1.477671 1_555
O30 S5 1.468285 1_555
O30 Ti4 2.822087 1_555
O31 Si10 1.725293 1_555
O31 Ti4 1.867493 1_555
O32 Si11 1.735719 1_555
O32 Ti4 1.917824 1_555
O33 Si9 1.725293 1_555
O33 Ti5 1.867493 1_555
O34 S4 1.468285 1_555
O34 Ti5 2.822087 1_555
O35 Si8 1.735719 1_555
O35 Ti5 1.917824 1_555
O36 S5 1.501459 1_655
O37 Si10 1.606905 1_555
O38 Si11 1.624928 1_555
O39 Si9 1.606905 1_555
O40 S4 1.501459 1_545
O41 Si8 1.624928 1_555
O42 Si4 1.694780 1_555
O42 Ti0 1.998610 1_655
O43 Si5 1.703622 1_555
O43 Ti0 1.878626 1_555
O44 S2 1.487727 1_555
O44 Ti0 2.445429 1_665
O45 Si6 1.703622 1_555
O45 Ti1 1.878626 1_555
O46 Si7 1.694780 1_555
O46 Ti1 1.998610 1_545
O47 S3 1.487727 1_555
O47 Ti1 2.445429 1_445
O48 S1 1.501459 1_545
O49 Si2 1.606905 1_555
O50 Si3 1.624928 1_655
O51 Si1 1.606905 1_555
O52 S0 1.501459 1_655
O53 Si0 1.624928 1_545
O54 Si8 1.694794 1_555
O54 Ti2 1.998610 1_555
O55 Si9 1.703606 1_655
O55 Ti2 1.878626 1_555
O56 S4 1.487724 1_545
O56 Ti2 2.445429 1_555
O57 Si10 1.703606 1_545
O57 Ti3 1.878626 1_555
O58 Si11 1.694794 1_555
O58 Ti3 1.998610 1_555
O59 S5 1.487725 1_655
O59 Ti3 2.445429 1_555
O60 S3 1.501475 1_555
O61 Si6 1.606890 1_455
O62 Si7 1.624922 1_565
O63 Si5 1.606890 1_565
O64 S2 1.501475 1_555
O65 Si4 1.624922 1_455
O66 Si0 1.694780 1_555
O66 Ti4 1.998610 1_555
O67 Si1 1.703622 1_555
O67 Ti4 1.878626 1_555
O68 S0 1.487727 1_555
O68 Ti4 2.445429 1_555
O69 Si2 1.703622 1_555
O69 Ti5 1.878626 1_555
O70 Si3 1.694780 1_555
O70 Ti5 1.998610 1_555
O71 S1 1.487727 1_555
O71 Ti5 2.445429 1_555
