# generated using pymatgen
data_MgCuPtO2
_symmetry_space_group_name_H-M   'P 1'
_cell_length_a   5.74203018
_cell_length_b   9.18724218
_cell_length_c   11.24083654
_cell_angle_alpha   90.00000000
_cell_angle_beta   90.00000000
_cell_angle_gamma   90.00000000
_symmetry_Int_Tables_number   1
_chemical_formula_structural   MgCuPtO2
_chemical_formula_sum   'Mg8 Cu8 Pt8 O16'
_cell_volume   592.99259215
_cell_formula_units_Z   8
loop_
 _symmetry_equiv_pos_site_id
 _symmetry_equiv_pos_as_xyz
  1  'x, y, z'
loop_
 _atom_site_type_symbol
 _atom_site_label
 _atom_site_symmetry_multiplicity
 _atom_site_fract_x
 _atom_site_fract_y
 _atom_site_fract_z
 _atom_site_occupancy
  Mg  Mg0_0  1  0.25000000  0.25000000  0.00000000  1
  Mg  Mg0_1  1  0.25000000  0.25000000  0.50000000  1
  Mg  Mg0_2  1  0.25000000  0.75000000  0.00000000  1
  Mg  Mg0_3  1  0.25000000  0.75000000  0.50000000  1
  Mg  Mg0_4  1  0.75000000  0.25000000  0.00000000  1
  Mg  Mg0_5  1  0.75000000  0.25000000  0.50000000  1
  Mg  Mg0_6  1  0.75000000  0.75000000  0.00000000  1
  Mg  Mg0_7  1  0.75000000  0.75000000  0.50000000  1
  Cu  Cu0_0  1  0.25000000  0.25000000  0.25000000  1
  Cu  Cu0_1  1  0.25000000  0.25000000  0.75000000  1
  Cu  Cu0_2  1  0.25000000  0.75000000  0.25000000  1
  Cu  Cu0_3  1  0.25000000  0.75000000  0.75000000  1
  Cu  Cu0_4  1  0.75000000  0.25000000  0.25000000  1
  Cu  Cu0_5  1  0.75000000  0.25000000  0.75000000  1
  Cu  Cu0_6  1  0.75000000  0.75000000  0.25000000  1
  Cu  Cu0_7  1  0.75000000  0.75000000  0.75000000  1
  Pt  Pt0_0  1  0.00000000  0.00000000  0.00000000  1
  Pt  Pt0_1  1  0.00000000  0.00000000  0.50000000  1
  Pt  Pt0_2  1  0.00000000  0.50000000  0.00000000  1
  Pt  Pt0_3  1  0.00000000  0.50000000  0.50000000  1
  Pt  Pt0_4  1  0.50000000  0.00000000  0.00000000  1
  Pt  Pt0_5  1  0.50000000  0.00000000  0.50000000  1
  Pt  Pt0_6  1  0.50000000  0.50000000  0.00000000  1
  Pt  Pt0_7  1  0.50000000  0.50000000  0.50000000  1
  O  O0_0  1  0.00000000  0.25000000  0.37121783  1
  O  O0_1  1  0.00000000  0.25000000  0.87121784  1
  O  O0_2  1  0.00000000  0.75000000  0.37121783  1
  O  O0_3  1  0.00000000  0.75000000  0.87121784  1
  O  O0_4  1  0.50000000  0.25000000  0.37121783  1
  O  O0_5  1  0.50000000  0.25000000  0.87121784  1
  O  O0_6  1  0.50000000  0.75000000  0.37121783  1
  O  O0_7  1  0.50000000  0.75000000  0.87121784  1
  O  O1_0  1  0.00000000  0.25000000  0.12878217  1
  O  O1_1  1  0.00000000  0.25000000  0.62878216  1
  O  O1_2  1  0.00000000  0.75000000  0.12878217  1
  O  O1_3  1  0.00000000  0.75000000  0.62878216  1
  O  O1_4  1  0.50000000  0.25000000  0.12878217  1
  O  O1_5  1  0.50000000  0.25000000  0.62878216  1
  O  O1_6  1  0.50000000  0.75000000  0.12878217  1
  O  O1_7  1  0.50000000  0.75000000  0.62878216  1
loop_
_geom_bond_atom_site_label_1
_geom_bond_atom_site_label_2
_geom_bond_distance
_geom_bond_site_symmetry_2
Mg0_0 O0_1 2.038697 1_554
Mg0_0 O0_5 2.038697 1_554
Mg0_0 O1_0 2.038697 1_555
Mg0_0 O1_4 2.038697 1_555
Mg0_0 Pt0_6 2.708509 1_555
Mg0_0 Pt0_0 2.708509 1_555
Mg0_0 Pt0_4 2.708509 1_555
Mg0_0 Pt0_2 2.708509 1_555
Mg0_1 O1_1 2.038697 1_555
Mg0_1 O1_5 2.038697 1_555
Mg0_1 O0_4 2.038697 1_555
Mg0_1 O0_0 2.038697 1_555
Mg0_1 Pt0_3 2.708509 1_555
Mg0_1 Pt0_5 2.708509 1_555
Mg0_1 Pt0_1 2.708509 1_555
Mg0_1 Pt0_7 2.708509 1_555
Mg0_2 O0_3 2.038697 1_554
Mg0_2 O0_7 2.038697 1_554
Mg0_2 O1_2 2.038697 1_555
Mg0_2 O1_6 2.038697 1_555
Mg0_2 Pt0_6 2.708509 1_555
Mg0_2 Pt0_0 2.708509 1_565
Mg0_2 Pt0_2 2.708509 1_555
Mg0_2 Pt0_4 2.708509 1_565
Mg0_3 O1_7 2.038697 1_555
Mg0_3 O1_3 2.038697 1_555
Mg0_3 O0_2 2.038697 1_555
Mg0_3 O0_6 2.038697 1_555
Mg0_3 Pt0_3 2.708509 1_555
Mg0_3 Pt0_1 2.708509 1_565
Mg0_3 Pt0_5 2.708509 1_565
Mg0_3 Pt0_7 2.708509 1_555
Mg0_4 O0_1 2.038697 1_654
Mg0_4 O0_5 2.038697 1_554
Mg0_4 O1_4 2.038697 1_555
Mg0_4 O1_0 2.038697 1_655
Mg0_4 Pt0_6 2.708509 1_555
Mg0_4 Pt0_2 2.708509 1_655
Mg0_4 Pt0_0 2.708509 1_655
Mg0_4 Pt0_4 2.708509 1_555
Mg0_5 O1_5 2.038697 1_555
Mg0_5 O1_1 2.038697 1_655
Mg0_5 O0_0 2.038697 1_655
Mg0_5 O0_4 2.038697 1_555
Mg0_5 Pt0_1 2.708509 1_655
Mg0_5 Pt0_3 2.708509 1_655
Mg0_5 Pt0_7 2.708509 1_555
Mg0_5 Pt0_5 2.708509 1_555
Mg0_6 O0_7 2.038697 1_554
Mg0_6 O0_3 2.038697 1_654
Mg0_6 O1_6 2.038697 1_555
Mg0_6 O1_2 2.038697 1_655
Mg0_6 Pt0_6 2.708509 1_555
Mg0_6 Pt0_2 2.708509 1_655
Mg0_6 Pt0_0 2.708509 1_665
Mg0_6 Pt0_4 2.708509 1_565
Mg0_7 O1_7 2.038697 1_555
Mg0_7 O1_3 2.038697 1_655
Mg0_7 O0_2 2.038697 1_655
Mg0_7 O0_6 2.038697 1_555
Mg0_7 Pt0_1 2.708509 1_665
Mg0_7 Pt0_5 2.708509 1_565
Mg0_7 Pt0_3 2.708509 1_655
Mg0_7 Pt0_7 2.708509 1_555
Cu0_0 O1_0 1.979225 1_555
Cu0_0 O0_0 1.979225 1_555
Cu0_0 O1_4 1.979225 1_555
Cu0_0 O0_4 1.979225 1_555
Cu0_1 O0_1 1.979225 1_555
Cu0_1 O0_5 1.979225 1_555
Cu0_1 O1_5 1.979225 1_555
Cu0_1 O1_1 1.979225 1_555
Cu0_2 O1_2 1.979225 1_555
Cu0_2 O1_6 1.979225 1_555
Cu0_2 O0_2 1.979225 1_555
Cu0_2 O0_6 1.979225 1_555
Cu0_3 O1_7 1.979225 1_555
Cu0_3 O0_7 1.979225 1_555
Cu0_3 O0_3 1.979225 1_555
Cu0_3 O1_3 1.979225 1_555
Cu0_4 O1_0 1.979225 1_655
Cu0_4 O0_0 1.979225 1_655
Cu0_4 O1_4 1.979225 1_555
Cu0_4 O0_4 1.979225 1_555
Cu0_5 O0_5 1.979225 1_555
Cu0_5 O1_5 1.979225 1_555
Cu0_5 O0_1 1.979225 1_655
Cu0_5 O1_1 1.979225 1_655
Cu0_6 O0_2 1.979225 1_655
Cu0_6 O1_2 1.979225 1_655
Cu0_6 O1_6 1.979225 1_555
Cu0_6 O0_6 1.979225 1_555
Cu0_7 O1_3 1.979225 1_655
Cu0_7 O0_3 1.979225 1_655
Cu0_7 O0_7 1.979225 1_555
Cu0_7 O1_7 1.979225 1_555
Pt0_0 Pt0_4 2.871015 1_455
Pt0_0 Pt0_4 2.871015 1_555
Pt0_1 Pt0_5 2.871015 1_455
Pt0_1 Pt0_5 2.871015 1_555
Pt0_2 Pt0_6 2.871015 1_455
Pt0_2 Pt0_6 2.871015 1_555
Pt0_3 Pt0_7 2.871015 1_455
Pt0_3 Pt0_7 2.871015 1_555
O0_0 Pt0_3 2.714948 1_555
O0_0 Pt0_1 2.714948 1_555
O0_1 Pt0_2 2.714948 1_556
O0_1 Pt0_0 2.714948 1_556
O0_2 Pt0_3 2.714948 1_555
O0_2 Pt0_1 2.714948 1_565
O0_3 Pt0_0 2.714948 1_566
O0_3 Pt0_2 2.714948 1_556
O0_4 Pt0_7 2.714948 1_555
O0_4 Pt0_5 2.714948 1_555
O0_5 Pt0_4 2.714948 1_556
O0_5 Pt0_6 2.714948 1_556
O0_6 Pt0_5 2.714948 1_565
O0_6 Pt0_7 2.714948 1_555
O0_7 Pt0_4 2.714948 1_566
O0_7 Pt0_6 2.714948 1_556
O1_0 Pt0_0 2.714948 1_555
O1_0 Pt0_2 2.714948 1_555
O1_1 Pt0_1 2.714948 1_555
O1_1 Pt0_3 2.714948 1_555
O1_2 Pt0_0 2.714948 1_565
O1_2 Pt0_2 2.714948 1_555
O1_3 Pt0_1 2.714948 1_565
O1_3 Pt0_3 2.714948 1_555
O1_4 Pt0_6 2.714948 1_555
O1_4 Pt0_4 2.714948 1_555
O1_5 Pt0_5 2.714948 1_555
O1_5 Pt0_7 2.714948 1_555
O1_6 Pt0_6 2.714948 1_555
O1_6 Pt0_4 2.714948 1_565
O1_7 Pt0_5 2.714948 1_565
O1_7 Pt0_7 2.714948 1_555
