# generated using pymatgen
data_Na10La4Hf4Si7S5O48
_symmetry_space_group_name_H-M   'P 1'
_cell_length_a   18.88965967
_cell_length_b   9.42581759
_cell_length_c   23.17703080
_cell_angle_alpha   90.00192977
_cell_angle_beta   89.05572985
_cell_angle_gamma   119.68810350
_symmetry_Int_Tables_number   1
_chemical_formula_structural   Na10La4Hf4Si7S5O48
_chemical_formula_sum   'Na30 La12 Hf12 Si21 S15 O144'
_cell_volume   3584.34633951
_cell_formula_units_Z   3
loop_
 _symmetry_equiv_pos_site_id
 _symmetry_equiv_pos_as_xyz
  1  'x, y, z'
loop_
 _atom_site_type_symbol
 _atom_site_label
 _atom_site_symmetry_multiplicity
 _atom_site_fract_x
 _atom_site_fract_y
 _atom_site_fract_z
 _atom_site_occupancy
  Na  Na0  1  0.18467391  0.37414696  0.23776431  1
  Na  Na1  1  0.68499122  0.37583588  0.23787921  1
  Na  Na2  1  0.99018532  0.63581862  0.25603345  1
  Na  Na3  1  0.49221531  0.63657295  0.25585506  1
  Na  Na4  1  0.49107634  0.34115988  0.76272552  1
  Na  Na5  1  0.18508614  0.99818557  0.74146561  1
  Na  Na6  1  0.68067235  0.99709595  0.74077253  1
  Na  Na7  1  0.66428189  0.34655481  0.57742435  1
  Na  Na8  1  0.01480956  0.70559254  0.57508959  1
  Na  Na9  1  0.82395988  0.96256366  0.59243873  1
  Na  Na10  1  0.49872343  0.68002173  0.91064305  1
  Na  Na11  1  0.99901445  0.67960144  0.90947711  1
  Na  Na12  1  0.84755704  0.03558941  0.90532729  1
  Na  Na13  1  0.15375413  0.29715580  0.92463627  1
  Na  Na14  1  0.49607540  0.31569111  0.40919083  1
  Na  Na15  1  0.99240028  0.30975806  0.40991195  1
  Na  Na16  1  0.34359798  0.65696267  0.40336443  1
  Na  Na17  1  0.84683625  0.66272384  0.40810295  1
  Na  Na18  1  0.02937800  0.01463999  0.49901741  1
  Na  Na19  1  0.52461458  0.98837671  0.49693188  1
  Na  Na20  1  0.01770465  0.02499325  0.00322106  1
  Na  Na21  1  0.52521451  0.05809754  0.99777728  1
  Na  Na22  1  0.34603914  0.32520152  0.83545053  1
  Na  Na23  1  0.85355202  0.34153622  0.82712654  1
  Na  Na24  1  0.34302472  0.33812143  0.33002229  1
  Na  Na25  1  0.84076681  0.33521987  0.33384031  1
  Na  Na26  1  0.17884651  0.64868903  0.16492385  1
  Na  Na27  1  0.67827836  0.64929391  0.16558815  1
  Na  Na28  1  0.17828430  0.69068619  0.67337519  1
  Na  Na29  1  0.67883818  0.69119656  0.66898808  1
  La  La0  1  0.00196826  0.99765422  0.34827831  1
  La  La1  1  0.50241627  0.00011000  0.34676913  1
  La  La2  1  0.99775369  0.00237362  0.84289318  1
  La  La3  1  0.49408665  0.00032640  0.85390026  1
  La  La4  1  0.33444825  0.33263183  0.68214356  1
  La  La5  1  0.83833535  0.34171643  0.68622064  1
  La  La6  1  0.33518028  0.33914299  0.17904137  1
  La  La7  1  0.83513286  0.33794376  0.17980286  1
  La  La8  1  0.16077942  0.65418133  0.01954001  1
  La  La9  1  0.66007121  0.64723389  0.02105980  1
  La  La10  1  0.16672195  0.67820237  0.51756369  1
  La  La11  1  0.65873098  0.67310833  0.51707273  1
  Hf  Hf0  1  0.99487997  0.97987807  0.65126898  1
  Hf  Hf1  1  0.49600967  0.97658147  0.65051914  1
  Hf  Hf2  1  0.99767183  0.01543799  0.14978275  1
  Hf  Hf3  1  0.49736137  0.01346754  0.14956913  1
  Hf  Hf4  1  0.32552366  0.31313924  0.98004768  1
  Hf  Hf5  1  0.82301504  0.32034185  0.98017903  1
  Hf  Hf6  1  0.32387614  0.32694273  0.47997642  1
  Hf  Hf7  1  0.82616625  0.34603578  0.48112848  1
  Hf  Hf8  1  0.16326168  0.64625112  0.31416137  1
  Hf  Hf9  1  0.66243980  0.64777869  0.31495422  1
  Hf  Hf10  1  0.16154598  0.68079455  0.81390669  1
  Hf  Hf11  1  0.66320695  0.68021385  0.81451185  1
  Si  Si0  1  0.34741877  0.70900346  0.25174951  1
  Si  Si1  1  0.84784747  0.71000971  0.25173883  1
  Si  Si2  1  0.00312458  0.30751033  0.25412002  1
  Si  Si3  1  0.50323153  0.30799350  0.25384828  1
  Si  Si4  1  0.00550832  0.69998215  0.75454686  1
  Si  Si5  1  0.50327942  0.69815197  0.75470022  1
  Si  Si6  1  0.34820333  0.98601003  0.74799277  1
  Si  Si7  1  0.84226915  0.98175245  0.75237934  1
  Si  Si8  1  0.17829348  0.04066056  0.58893632  1
  Si  Si9  1  0.68219747  0.04789277  0.58872951  1
  Si  Si10  1  0.83632722  0.64094336  0.58149503  1
  Si  Si11  1  0.17806343  0.31639646  0.08774596  1
  Si  Si12  1  0.67805048  0.31448708  0.09025486  1
  Si  Si13  1  0.01440696  0.37335763  0.91635549  1
  Si  Si14  1  0.51065882  0.37391593  0.91544274  1
  Si  Si15  1  0.16878165  0.97065911  0.91587992  1
  Si  Si16  1  0.67074880  0.96827475  0.91843169  1
  Si  Si17  1  0.16937382  0.37005075  0.41775772  1
  Si  Si18  1  0.66903822  0.36839394  0.42055118  1
  Si  Si19  1  0.01153022  0.65102790  0.41848749  1
  Si  Si20  1  0.50830639  0.65110719  0.41437414  1
  S  S0  1  0.14529650  0.98020131  0.24547549  1
  S  S1  1  0.64563512  0.97990055  0.24537351  1
  S  S2  1  0.14541747  0.31304323  0.74843269  1
  S  S3  1  0.64027520  0.30087865  0.74533636  1
  S  S4  1  0.47888826  0.30397968  0.58084497  1
  S  S5  1  0.97825033  0.31148872  0.57789583  1
  S  S6  1  0.34527185  0.64556723  0.57938447  1
  S  S7  1  0.47920682  0.65561132  0.08253702  1
  S  S8  1  0.97882078  0.65456037  0.08176856  1
  S  S9  1  0.34352558  0.04166185  0.08158656  1
  S  S10  1  0.84377471  0.04191099  0.07999591  1
  S  S11  1  0.30904727  0.63988730  0.91679519  1
  S  S12  1  0.81165499  0.64686210  0.91630754  1
  S  S13  1  0.31246893  0.97896840  0.41462532  1
  S  S14  1  0.81072205  0.97522924  0.41582990  1
  O  O0  1  0.11633697  0.01347386  0.30058157  1
  O  O1  1  0.61699890  0.01304301  0.30068741  1
  O  O2  1  0.39526787  0.76663833  0.31224027  1
  O  O3  1  0.89736071  0.76683543  0.31172705  1
  O  O4  1  0.49278952  0.22089462  0.31557426  1
  O  O5  1  0.99402368  0.21956876  0.31538173  1
  O  O6  1  0.11738731  0.23363273  0.80604680  1
  O  O7  1  0.60426615  0.20434955  0.79794376  1
  O  O8  1  0.49389982  0.77126260  0.81473844  1
  O  O9  1  0.00209558  0.77671557  0.81596126  1
  O  O10  1  0.40968140  0.04447914  0.80111077  1
  O  O11  1  0.88556571  0.00178557  0.81389263  1
  O  O12  1  0.40110405  0.97151814  0.69122183  1
  O  O13  1  0.90082220  0.98074163  0.69650058  1
  O  O14  1  0.08866659  0.20772274  0.70264972  1
  O  O15  1  0.58876127  0.20808498  0.69392255  1
  O  O16  1  0.01201882  0.82775402  0.70027666  1
  O  O17  1  0.51191790  0.82613164  0.69972863  1
  O  O18  1  0.40638444  0.83329042  0.19876883  1
  O  O19  1  0.90615667  0.83471402  0.19832513  1
  O  O20  1  0.01337420  0.19752594  0.20064235  1
  O  O21  1  0.51280813  0.19572633  0.20096943  1
  O  O22  1  0.08947075  0.96873518  0.19799742  1
  O  O23  1  0.58943915  0.96817176  0.19827292  1
  O  O24  1  0.44362175  0.32408837  0.63529191  1
  O  O25  1  0.94151143  0.33669577  0.63022293  1
  O  O26  1  0.22313717  0.11158224  0.64911785  1
  O  O27  1  0.72689762  0.11714799  0.64913739  1
  O  O28  1  0.33416244  0.55322376  0.63251184  1
  O  O29  1  0.81708891  0.51472724  0.63317166  1
  O  O30  1  0.44547737  0.56802649  0.13845603  1
  O  O31  1  0.94421222  0.56782505  0.13737475  1
  O  O32  1  0.33245348  0.10793801  0.13591099  1
  O  O33  1  0.83338318  0.11293310  0.13337653  1
  O  O34  1  0.22040110  0.32315140  0.14904238  1
  O  O35  1  0.71905404  0.31931360  0.15171709  1
  O  O36  1  0.23616495  0.30637192  0.03254365  1
  O  O37  1  0.73960307  0.30903235  0.03637594  1
  O  O38  1  0.42910968  0.55494040  0.03351269  1
  O  O39  1  0.92935308  0.55531033  0.03220436  1
  O  O40  1  0.35009347  0.15139689  0.03182601  1
  O  O41  1  0.85062889  0.14741480  0.02875488  1
  O  O42  1  0.23877886  0.16431299  0.53383231  1
  O  O43  1  0.73856984  0.17979531  0.53440880  1
  O  O44  1  0.34986363  0.55089115  0.52783025  1
  O  O45  1  0.85018655  0.55014132  0.52222588  1
  O  O46  1  0.43099117  0.30760308  0.53033002  1
  O  O47  1  0.92843054  0.30126701  0.52618234  1
  O  O48  1  0.27611955  0.66707514  0.97025278  1
  O  O49  1  0.77850289  0.67484103  0.96966454  1
  O  O50  1  0.07600181  0.43810128  0.96992818  1
  O  O51  1  0.56483367  0.46233846  0.97049797  1
  O  O52  1  0.15126903  0.84813653  0.96877161  1
  O  O53  1  0.66832788  0.85993501  0.97202097  1
  O  O54  1  0.28055930  0.88777178  0.46866816  1
  O  O55  1  0.77979098  0.88936405  0.47150308  1
  O  O56  1  0.16421904  0.47028759  0.47151267  1
  O  O57  1  0.66364514  0.45018662  0.48007468  1
  O  O58  1  0.05741586  0.67263773  0.47909555  1
  O  O59  1  0.56096186  0.67831569  0.47080050  1
  O  O60  1  0.06843269  0.64009093  0.36285685  1
  O  O61  1  0.56093591  0.63710700  0.35669183  1
  O  O62  1  0.26083258  0.89033709  0.36489788  1
  O  O63  1  0.75746209  0.87775120  0.36738011  1
  O  O64  1  0.18378421  0.49104847  0.35929953  1
  O  O65  1  0.67873877  0.49703717  0.36541485  1
  O  O66  1  0.06708418  0.50235925  0.86150320  1
  O  O67  1  0.56172999  0.49117691  0.85671057  1
  O  O68  1  0.17834132  0.87805695  0.85652170  1
  O  O69  1  0.68365133  0.87450233  0.85943801  1
  O  O70  1  0.25923631  0.63133214  0.86598325  1
  O  O71  1  0.76097424  0.63077773  0.86575996  1
  O  O72  1  0.98950574  0.79756620  0.41405291  1
  O  O73  1  0.48379595  0.79444435  0.41212989  1
  O  O74  1  0.39707288  0.01107875  0.40814480  1
  O  O75  1  0.89438747  0.99925392  0.40890000  1
  O  O76  1  0.08885101  0.19186532  0.41576981  1
  O  O77  1  0.58830005  0.19039687  0.41529385  1
  O  O78  1  0.99155515  0.18243466  0.90990968  1
  O  O79  1  0.49126656  0.18712477  0.91502792  1
  O  O80  1  0.09434756  0.01311779  0.91345354  1
  O  O81  1  0.59000240  0.98512111  0.91625595  1
  O  O82  1  0.39524783  0.76399264  0.91137754  1
  O  O83  1  0.89699927  0.78351765  0.90979910  1
  O  O84  1  0.48082149  0.14761779  0.58170709  1
  O  O85  1  0.97785839  0.15249476  0.58250054  1
  O  O86  1  0.08793792  0.03202638  0.58998788  1
  O  O87  1  0.59217699  0.04236399  0.58984386  1
  O  O88  1  0.42508147  0.80426910  0.58197090  1
  O  O89  1  0.92429947  0.81527053  0.59104749  1
  O  O90  1  0.47855643  0.81347644  0.08455240  1
  O  O91  1  0.97932706  0.81391276  0.08309310  1
  O  O92  1  0.42268827  0.03929048  0.08421110  1
  O  O93  1  0.92331697  0.03954844  0.08366732  1
  O  O94  1  0.08730204  0.14520443  0.08979876  1
  O  O95  1  0.58740353  0.14417791  0.09022078  1
  O  O96  1  0.32749433  0.13627671  0.74270668  1
  O  O97  1  0.82027449  0.12875282  0.74868326  1
  O  O98  1  0.22763845  0.33357128  0.74000553  1
  O  O99  1  0.72352068  0.33014180  0.74037769  1
  O  O100  1  0.43294952  0.50764337  0.74758493  1
  O  O101  1  0.93044935  0.51727171  0.75118224  1
  O  O102  1  0.32935322  0.51904636  0.24499699  1
  O  O103  1  0.83059479  0.52116873  0.24427232  1
  O  O104  1  0.43204250  0.35575761  0.24663622  1
  O  O105  1  0.93189051  0.35495102  0.24726645  1
  O  O106  1  0.22951767  0.11249463  0.23713339  1
  O  O107  1  0.72993136  0.11153462  0.23708496  1
  O  O108  1  0.30475044  0.47366206  0.92068085  1
  O  O109  1  0.81721135  0.49192477  0.92210136  1
  O  O110  1  0.42381967  0.38449305  0.92320960  1
  O  O111  1  0.92765729  0.37921138  0.92711256  1
  O  O112  1  0.25488338  0.15015314  0.92424477  1
  O  O113  1  0.75800957  0.15031867  0.92366963  1
  O  O114  1  0.31665758  0.14322615  0.41959082  1
  O  O115  1  0.81671406  0.13943830  0.41760544  1
  O  O116  1  0.25630384  0.36284068  0.42361349  1
  O  O117  1  0.75699414  0.36495271  0.41969982  1
  O  O118  1  0.42160527  0.46893439  0.42162182  1
  O  O119  1  0.92450109  0.46968393  0.42058034  1
  O  O120  1  0.16781543  0.47780638  0.08531817  1
  O  O121  1  0.66770152  0.47523328  0.08827461  1
  O  O122  1  0.06290284  0.68395529  0.07882831  1
  O  O123  1  0.56378290  0.68765388  0.07936438  1
  O  O124  1  0.27594963  0.87557833  0.07426093  1
  O  O125  1  0.77677019  0.87483574  0.07443794  1
  O  O126  1  0.15801896  0.84956255  0.58502261  1
  O  O127  1  0.67631831  0.87079588  0.58225087  1
  O  O128  1  0.27823787  0.68048541  0.57392732  1
  O  O129  1  0.76279111  0.68277651  0.57864977  1
  O  O130  1  0.06206570  0.44997540  0.57382204  1
  O  O131  1  0.56459716  0.44073608  0.57858576  1
  O  O132  1  0.14167087  0.81777519  0.24926198  1
  O  O133  1  0.64235131  0.81769817  0.24887922  1
  O  O134  1  0.25757000  0.70222475  0.25630122  1
  O  O135  1  0.75750898  0.70072983  0.25746408  1
  O  O136  1  0.09315092  0.48493641  0.25447280  1
  O  O137  1  0.59383741  0.48394956  0.25446695  1
  O  O138  1  0.14976214  0.47500776  0.74870105  1
  O  O139  1  0.63886289  0.45835962  0.74776637  1
  O  O140  1  0.09581941  0.70536391  0.75114498  1
  O  O141  1  0.59382283  0.70317114  0.75400798  1
  O  O142  1  0.25998819  0.81452195  0.75746630  1
  O  O143  1  0.75454750  0.80348725  0.75414983  1
loop_
_geom_bond_atom_site_label_1
_geom_bond_atom_site_label_2
_geom_bond_distance
_geom_bond_site_symmetry_2
Na0 O34 2.278255 1_555
Na0 O102 2.383310 1_555
Na0 O136 2.448595 1_555
Na0 O134 2.728562 1_555
Na1 O35 2.232248 1_555
Na1 O103 2.396772 1_555
Na1 O137 2.422266 1_555
Na1 O135 2.706617 1_555
Na2 O105 2.319967 1_555
Na2 O132 2.505638 1_655
Na2 O103 2.670217 1_555
Na2 O31 2.873246 1_555
Na2 O3 2.887212 1_555
Na2 O60 2.894439 1_655
Na2 O136 2.923112 1_655
Na2 O22 3.043233 1_655
Na3 O104 2.317660 1_555
Na3 O133 2.484488 1_555
Na3 O61 2.690846 1_555
Na3 O102 2.721120 1_555
Na3 O30 2.848605 1_555
Na3 O137 2.913576 1_555
Na3 O2 2.951179 1_555
Na3 O23 3.026009 1_555
Na4 O100 2.347498 1_555
Na4 O139 2.459092 1_555
Na4 O10 2.582966 1_555
Na4 O67 2.598444 1_555
Na4 O96 2.762078 1_555
Na5 O26 2.329938 1_565
Na5 O96 2.337856 1_565
Na5 O140 2.426755 1_555
Na5 O142 2.753178 1_555
Na5 O98 2.850093 1_565
Na6 O97 2.302591 1_565
Na6 O27 2.348165 1_565
Na6 O141 2.437695 1_555
Na6 O143 2.812597 1_555
Na6 O99 2.827163 1_565
Na6 O17 2.945290 1_555
Na6 O69 2.995397 1_555
Na7 O131 2.447179 1_555
Na7 O57 2.461255 1_555
Na7 O87 2.505558 1_555
Na7 O43 2.751819 1_555
Na7 O129 2.768977 1_555
Na7 O29 2.846812 1_555
Na8 O126 2.365730 1_555
Na8 O89 2.420450 1_455
Na8 O58 2.425445 1_555
Na8 O86 2.701889 1_565
Na9 O129 2.320744 1_555
Na9 O127 2.492795 1_555
Na9 O85 2.555761 1_565
Na9 O13 2.797024 1_555
Na9 O89 2.850552 1_555
Na9 O55 2.921524 1_555
Na10 O8 2.402734 1_555
Na10 O110 2.434889 1_555
Na10 O82 2.445128 1_555
Na10 O81 2.521074 1_555
Na10 O67 2.863004 1_555
Na11 O9 2.341414 1_655
Na11 O111 2.490449 1_555
Na11 O83 2.557760 1_555
Na11 O80 2.744413 1_665
Na11 O66 2.785914 1_655
Na11 O52 2.878932 1_655
Na12 O11 2.298773 1_555
Na12 O78 2.367706 1_555
Na12 O113 2.449422 1_555
Na12 O111 2.864534 1_555
Na13 O80 2.351140 1_555
Na13 O108 2.490508 1_555
Na13 O50 2.627914 1_555
Na13 O78 2.725033 1_455
Na13 O6 2.835426 1_555
Na13 O112 2.861929 1_555
Na13 O36 2.946204 1_556
Na14 O4 2.336549 1_555
Na14 O118 2.479439 1_555
Na14 O74 2.534663 1_555
Na14 O77 2.548681 1_555
Na14 O61 2.904215 1_555
Na15 O5 2.355266 1_555
Na15 O119 2.425535 1_555
Na15 O76 2.566379 1_655
Na15 O75 2.574520 1_545
Na15 O115 2.885416 1_555
Na15 O60 2.909627 1_655
Na15 O47 2.919830 1_555
Na16 O73 2.313500 1_555
Na16 O2 2.326921 1_555
Na16 O116 2.464034 1_555
Na16 O118 2.845871 1_555
Na17 O72 2.348751 1_555
Na17 O3 2.421875 1_555
Na17 O117 2.469178 1_555
Na17 O75 2.836794 1_555
Na17 O45 2.863308 1_555
Na17 O119 2.864422 1_555
Na17 O65 2.948176 1_555
Na18 O86 2.364999 1_555
Na18 O76 2.417677 1_555
Na18 O72 2.674646 1_445
Na18 O85 2.751309 1_455
Na18 O89 2.861258 1_445
Na19 O87 2.443799 1_565
Na19 O77 2.511860 1_565
Na19 O73 2.540194 1_555
Na19 O88 2.660311 1_555
Na19 O84 2.823828 1_565
Na20 O94 2.376967 1_555
Na20 O91 2.537379 1_445
Na20 O80 2.549202 1_554
Na20 O93 2.608991 1_455
Na20 O78 2.808027 1_454
Na21 O95 2.401584 1_556
Na21 O81 2.509657 1_545
Na21 O79 2.526230 1_555
Na21 O92 2.706913 1_556
Na21 O90 2.840258 1_546
Na22 O110 2.427595 1_555
Na22 O100 2.625481 1_555
Na22 O112 2.644208 1_555
Na22 O96 2.705728 1_555
Na22 O108 2.738391 1_555
Na23 O101 2.341900 1_555
Na23 O97 2.551822 1_555
Na23 O111 2.659006 1_555
Na23 O113 2.856141 1_555
Na23 O109 2.870531 1_555
Na24 O104 2.491236 1_555
Na24 O118 2.553731 1_555
Na24 O114 2.644269 1_555
Na24 O102 2.704000 1_555
Na24 O116 2.775601 1_555
Na25 O119 2.503730 1_555
Na25 O115 2.553764 1_555
Na25 O105 2.567620 1_555
Na25 O117 2.622613 1_555
Na25 O103 2.786643 1_555
Na26 O120 2.392055 1_555
Na26 O134 2.512314 1_555
Na26 O136 2.593244 1_555
Na26 O132 2.813773 1_555
Na26 O124 2.888105 1_555
Na27 O121 2.372656 1_555
Na27 O135 2.528951 1_555
Na27 O137 2.577988 1_555
Na27 O133 2.780383 1_555
Na27 O125 2.897728 1_555
Na28 O140 2.411535 1_555
Na28 O142 2.420223 1_555
Na28 O138 2.520982 1_555
Na28 O126 2.678870 1_555
Na28 O128 2.987155 1_555
Na29 O143 2.378005 1_555
Na29 O141 2.559263 1_555
Na29 O129 2.630647 1_555
Na29 O127 2.644358 1_555
Na29 O139 2.652125 1_555
La0 O3 2.269861 1_455
La0 O5 2.300865 1_465
La0 O72 2.341995 1_455
La0 O0 2.348140 1_565
La0 O76 2.366413 1_565
La0 O75 2.457697 1_455
La1 O2 2.284976 1_545
La1 O4 2.294771 1_555
La1 O73 2.341752 1_545
La1 O1 2.345797 1_555
La1 O77 2.360875 1_555
La1 O74 2.470709 1_555
La2 O11 2.231166 1_555
La2 O9 2.256448 1_645
La2 O78 2.344678 1_555
La2 O6 2.375868 1_655
La2 O80 2.435011 1_655
La2 O83 2.509236 1_545
La3 O10 2.221225 1_555
La3 O79 2.280450 1_555
La3 O8 2.340523 1_545
La3 O7 2.378741 1_555
La3 O81 2.394873 1_545
La3 O82 2.453821 1_545
La4 O26 2.249789 1_555
La4 O96 2.272954 1_555
La4 O24 2.351423 1_555
La4 O100 2.352922 1_555
La4 O28 2.378668 1_555
La4 O98 2.407856 1_555
La5 O29 2.235375 1_555
La5 O101 2.294949 1_555
La5 O27 2.301350 1_555
La5 O25 2.343740 1_555
La5 O97 2.355260 1_555
La5 O99 2.442758 1_555
La6 O34 2.221020 1_555
La6 O30 2.315857 1_555
La6 O102 2.324563 1_555
La6 O104 2.374304 1_555
La6 O32 2.375208 1_555
La6 O106 2.459349 1_555
La7 O35 2.219928 1_555
La7 O103 2.316237 1_555
La7 O31 2.327766 1_555
La7 O33 2.364056 1_555
La7 O105 2.369613 1_555
La7 O107 2.445069 1_555
La8 O50 2.205597 1_554
La8 O52 2.256437 1_554
La8 O120 2.308993 1_555
La8 O48 2.392126 1_554
La8 O122 2.411526 1_555
La8 O124 2.507986 1_555
La9 O51 2.147252 1_554
La9 O53 2.240591 1_554
La9 O121 2.305454 1_555
La9 O49 2.413909 1_554
La9 O123 2.425870 1_555
La9 O125 2.529342 1_555
La10 O56 2.211752 1_555
La10 O58 2.239256 1_555
La10 O126 2.309727 1_555
La10 O54 2.350010 1_555
La10 O130 2.436952 1_555
La10 O128 2.487995 1_555
La11 O59 2.172189 1_555
La11 O127 2.295142 1_555
La11 O57 2.312902 1_555
La11 O55 2.408962 1_555
La11 O129 2.413289 1_555
La11 O131 2.459792 1_555
Hf0 O16 1.980679 1_655
Hf0 O89 2.035958 1_555
Hf0 O13 2.051521 1_555
Hf0 O86 2.100179 1_665
Hf0 O14 2.338705 1_665
Hf0 O85 2.413776 1_565
Hf1 O17 1.958489 1_555
Hf1 O12 1.991388 1_555
Hf1 O87 2.112372 1_565
Hf1 O88 2.207173 1_555
Hf1 O15 2.261442 1_565
Hf1 O84 2.387122 1_565
Hf2 O20 1.982519 1_655
Hf2 O94 2.041231 1_655
Hf2 O19 2.043287 1_545
Hf2 O93 2.181661 1_555
Hf2 O22 2.295540 1_645
Hf2 O91 2.341549 1_545
Hf3 O21 1.992598 1_555
Hf3 O95 2.037200 1_555
Hf3 O18 2.045091 1_545
Hf3 O92 2.180382 1_555
Hf3 O23 2.298272 1_545
Hf3 O90 2.303171 1_545
Hf4 O112 1.959485 1_555
Hf4 O36 2.039432 1_556
Hf4 O110 2.077926 1_555
Hf4 O40 2.167763 1_556
Hf4 O108 2.223197 1_555
Hf4 O38 2.494196 1_556
Hf5 O113 1.973598 1_555
Hf5 O37 1.989068 1_556
Hf5 O111 2.135703 1_555
Hf5 O109 2.149476 1_555
Hf5 O41 2.249025 1_556
Hf5 O39 2.463098 1_556
Hf6 O116 1.983186 1_555
Hf6 O42 1.996241 1_555
Hf6 O118 2.121056 1_555
Hf6 O114 2.179060 1_555
Hf6 O44 2.217731 1_555
Hf6 O46 2.435661 1_555
Hf7 O45 1.990941 1_555
Hf7 O117 2.014505 1_555
Hf7 O43 2.020562 1_555
Hf7 O119 2.132549 1_555
Hf7 O115 2.378173 1_555
Hf7 O47 2.423642 1_555
Hf8 O64 1.989999 1_555
Hf8 O136 2.011287 1_555
Hf8 O134 2.059266 1_555
Hf8 O60 2.077546 1_555
Hf8 O132 2.390881 1_555
Hf8 O62 2.438013 1_555
Hf9 O65 1.981601 1_555
Hf9 O137 2.026523 1_555
Hf9 O135 2.069505 1_555
Hf9 O61 2.090465 1_555
Hf9 O63 2.369525 1_555
Hf9 O133 2.382395 1_555
Hf10 O68 1.989794 1_555
Hf10 O140 2.013801 1_555
Hf10 O66 2.047465 1_555
Hf10 O142 2.087114 1_555
Hf10 O138 2.383100 1_555
Hf10 O70 2.450530 1_555
Hf11 O69 1.974761 1_555
Hf11 O141 2.018065 1_555
Hf11 O143 2.054022 1_555
Hf11 O67 2.088277 1_555
Hf11 O71 2.441999 1_555
Hf11 O139 2.459305 1_555
O0 S0 1.475032 1_545
O1 S1 1.475890 1_545
O2 Si0 1.622652 1_555
O3 Si1 1.625209 1_555
O4 Si3 1.609339 1_555
O5 Si2 1.607345 1_655
O6 S2 1.485897 1_555
O7 S3 1.461804 1_555
O8 Si5 1.598542 1_555
O9 Si4 1.611351 1_555
O10 Si6 1.606582 1_545
O11 Si7 1.619442 1_545
O12 Si6 1.685336 1_555
O13 Si7 1.692321 1_555
O14 S2 1.497975 1_555
O15 S3 1.525431 1_555
O16 Si4 1.701764 1_555
O17 Si5 1.703925 1_555
O18 Si0 1.668341 1_555
O19 Si1 1.673352 1_555
O20 Si2 1.685018 1_555
O21 Si3 1.684278 1_555
O22 S0 1.503309 1_555
O23 S1 1.500898 1_555
O24 S4 1.472922 1_555
O25 S5 1.464408 1_555
O26 Si8 1.608707 1_555
O27 Si9 1.610036 1_555
O28 S6 1.458925 1_555
O29 Si10 1.593559 1_555
O30 S7 1.489641 1_555
O31 S8 1.483112 1_555
O32 S9 1.462864 1_555
O33 S10 1.462690 1_555
O34 Si11 1.627559 1_555
O35 Si12 1.622553 1_555
O36 Si11 1.704945 1_555
O37 Si12 1.710343 1_555
O38 S7 1.494275 1_555
O39 S8 1.495781 1_555
O40 S9 1.511162 1_555
O41 S10 1.511163 1_555
O42 Si8 1.711106 1_555
O43 Si9 1.705651 1_555
O44 S6 1.518160 1_555
O45 Si10 1.702381 1_555
O46 S4 1.502006 1_555
O47 S5 1.509578 1_555
O48 S11 1.456060 1_555
O49 S12 1.459138 1_555
O50 Si13 1.616200 1_555
O51 Si14 1.602564 1_555
O52 Si15 1.598196 1_555
O53 Si16 1.593594 1_555
O54 S13 1.460504 1_555
O55 S14 1.472482 1_555
O56 Si17 1.594185 1_555
O57 Si18 1.606578 1_555
O58 Si19 1.622104 1_555
O59 Si20 1.598621 1_555
O60 Si19 1.700728 1_555
O61 Si20 1.696822 1_555
O62 S13 1.485758 1_555
O63 S14 1.496276 1_555
O64 Si17 1.700291 1_555
O65 Si18 1.705641 1_555
O66 Si13 1.686653 1_555
O67 Si14 1.704669 1_555
O68 Si15 1.683752 1_555
O69 Si16 1.706598 1_555
O70 S11 1.496690 1_555
O71 S12 1.484987 1_555
O72 Si19 1.631600 1_655
O73 Si20 1.631836 1_555
O74 S13 1.476880 1_545
O75 S14 1.487248 1_555
O76 Si17 1.615035 1_555
O77 Si18 1.620869 1_555
O78 Si13 1.637025 1_655
O79 Si14 1.611041 1_555
O80 Si15 1.643247 1_545
O81 Si16 1.611415 1_555
O82 S11 1.463567 1_555
O83 S12 1.488597 1_555
O84 S4 1.492405 1_555
O85 S5 1.498794 1_555
O86 Si8 1.667744 1_555
O87 Si9 1.675025 1_555
O88 S6 1.511018 1_555
O89 Si10 1.678638 1_555
O90 S7 1.494853 1_555
O91 S8 1.497630 1_555
O92 S9 1.508773 1_555
O93 S10 1.517458 1_555
O94 Si11 1.674023 1_555
O95 Si12 1.669189 1_555
O96 Si6 1.650641 1_545
O97 Si7 1.634399 1_545
O98 S2 1.476520 1_555
O99 S3 1.458213 1_555
O100 Si5 1.631194 1_555
O101 Si4 1.602249 1_655
O102 Si0 1.656303 1_555
O103 Si1 1.652789 1_555
O104 Si3 1.626674 1_555
O105 Si2 1.624459 1_655
O106 S0 1.465642 1_545
O107 S1 1.464510 1_545
O108 S11 1.530812 1_555
O109 S12 1.521236 1_555
O110 Si14 1.698645 1_555
O111 Si13 1.681233 1_655
O112 Si15 1.682246 1_545
O113 Si16 1.697345 1_545
O114 S13 1.515113 1_545
O115 S14 1.495599 1_545
O116 Si17 1.684443 1_555
O117 Si18 1.677553 1_555
O118 Si20 1.692412 1_555
O119 Si19 1.685399 1_655
O120 Si11 1.627102 1_555
O121 Si12 1.621649 1_555
O122 S8 1.471249 1_455
O123 S7 1.472127 1_555
O124 S9 1.461726 1_565
O125 S10 1.459307 1_565
O126 Si8 1.648401 1_565
O127 Si9 1.624280 1_565
O128 S6 1.464862 1_555
O129 Si10 1.623246 1_555
O130 S5 1.472218 1_455
O131 S4 1.488460 1_555
O132 S0 1.500766 1_555
O133 S1 1.501284 1_555
O134 Si0 1.668060 1_555
O135 Si1 1.667920 1_555
O136 Si2 1.694751 1_555
O137 Si3 1.693878 1_555
O138 S2 1.487729 1_555
O139 S3 1.498819 1_555
O140 Si4 1.681929 1_555
O141 Si5 1.687212 1_555
O142 Si6 1.660610 1_555
O143 Si7 1.676480 1_555
