# generated using pymatgen
data_AsPd5
_symmetry_space_group_name_H-M   'P 1'
_cell_length_a   4.77693221
_cell_length_b   4.77693058
_cell_length_c   8.51508225
_cell_angle_alpha   95.01475892
_cell_angle_beta   95.01476310
_cell_angle_gamma   108.70412661
_symmetry_Int_Tables_number   1
_chemical_formula_structural   AsPd5
_chemical_formula_sum   'As2 Pd10'
_cell_volume   181.96253331
_cell_formula_units_Z   2
loop_
 _symmetry_equiv_pos_site_id
 _symmetry_equiv_pos_as_xyz
  1  'x, y, z'
loop_
 _atom_site_type_symbol
 _atom_site_label
 _atom_site_symmetry_multiplicity
 _atom_site_fract_x
 _atom_site_fract_y
 _atom_site_fract_z
 _atom_site_occupancy
  As  As0  1  0.25109444  0.20557475  0.71281267  1
  As  As1  1  0.79442525  0.74890556  0.28718733  1
  Pd  Pd0  1  0.22612615  0.70172116  0.82570446  1
  Pd  Pd1  1  0.29827884  0.77387385  0.17429554  1
  Pd  Pd2  1  0.74724281  0.18038048  0.82574719  1
  Pd  Pd3  1  0.81961952  0.25275719  0.17425281  1
  Pd  Pd4  1  0.66707671  0.62128350  0.64788451  1
  Pd  Pd5  1  0.37871650  0.33292329  0.35211549  1
  Pd  Pd6  1  0.76658327  0.72085851  0.99394168  1
  Pd  Pd7  1  0.27914149  0.23341673  0.00605832  1
  Pd  Pd8  1  0.83931093  0.16068907  0.50000000  1
  Pd  Pd9  1  0.20638508  0.79361492  0.50000000  1
loop_
_geom_bond_atom_site_label_1
_geom_bond_atom_site_label_2
_geom_bond_distance
_geom_bond_site_symmetry_2
As0 Pd4 2.459861 1_555
As0 Pd7 2.478453 1_556
As0 Pd8 2.497493 1_455
As0 Pd9 2.498273 1_545
As0 Pd0 2.521607 1_555
As0 Pd2 2.522140 1_555
As0 Pd2 2.640330 1_455
As0 Pd0 2.640407 1_545
As1 Pd5 2.459861 1_555
As1 Pd6 2.478453 1_554
As1 Pd8 2.497492 1_565
As1 Pd9 2.498274 1_655
As1 Pd1 2.521608 1_555
As1 Pd3 2.522139 1_555
As1 Pd3 2.640329 1_565
As1 Pd1 2.640408 1_655
Pd0 Pd6 2.745011 1_455
Pd0 Pd7 2.776887 1_566
Pd0 Pd2 2.788207 1_565
Pd0 Pd2 2.789561 1_455
Pd0 Pd4 2.802169 1_555
Pd0 Pd6 2.811589 1_555
Pd0 Pd9 2.843765 1_555
Pd0 Pd4 2.846985 1_455
Pd0 Pd7 2.884961 1_556
Pd0 Pd1 2.935026 1_556
Pd1 Pd7 2.745011 1_565
Pd1 Pd6 2.776888 1_454
Pd1 Pd3 2.788207 1_455
Pd1 Pd3 2.789561 1_565
Pd1 Pd5 2.802169 1_555
Pd1 Pd7 2.811588 1_555
Pd1 Pd9 2.843765 1_555
Pd1 Pd5 2.846984 1_565
Pd1 Pd6 2.884961 1_554
Pd2 Pd6 2.744948 1_545
Pd2 Pd7 2.777506 1_656
Pd2 Pd4 2.801764 1_555
Pd2 Pd6 2.811222 1_555
Pd2 Pd8 2.844333 1_555
Pd2 Pd4 2.847612 1_545
Pd2 Pd7 2.883950 1_556
Pd2 Pd3 2.934287 1_556
Pd3 Pd7 2.744949 1_655
Pd3 Pd6 2.777505 1_544
Pd3 Pd5 2.801765 1_555
Pd3 Pd7 2.811223 1_555
Pd3 Pd8 2.844333 1_555
Pd3 Pd5 2.847613 1_655
Pd3 Pd6 2.883949 1_554
Pd4 Pd8 2.821595 1_555
Pd4 Pd9 2.822253 1_555
Pd4 Pd9 2.878990 1_655
Pd4 Pd8 2.879363 1_565
Pd4 Pd6 2.915535 1_555
Pd5 Pd8 2.821596 1_555
Pd5 Pd9 2.822252 1_555
Pd5 Pd9 2.878989 1_545
Pd5 Pd8 2.879363 1_455
Pd5 Pd7 2.915535 1_555
Pd6 Pd7 2.731466 1_556
Pd6 Pd7 2.840292 1_666
Pd8 Pd9 2.849816 1_645
Pd8 Pd9 2.969124 1_655
Pd8 Pd9 2.969125 1_545
