# generated using pymatgen
data_Dy2C3
_symmetry_space_group_name_H-M   'P 1'
_cell_length_a   7.11006630
_cell_length_b   7.11006654
_cell_length_c   7.11006612
_cell_angle_alpha   109.47121359
_cell_angle_beta   109.47121422
_cell_angle_gamma   109.47122218
_symmetry_Int_Tables_number   1
_chemical_formula_structural   Dy2C3
_chemical_formula_sum   'Dy8 C12'
_cell_volume   276.69360930
_cell_formula_units_Z   4
loop_
 _symmetry_equiv_pos_site_id
 _symmetry_equiv_pos_as_xyz
  1  'x, y, z'
loop_
 _atom_site_type_symbol
 _atom_site_label
 _atom_site_symmetry_multiplicity
 _atom_site_fract_x
 _atom_site_fract_y
 _atom_site_fract_z
 _atom_site_occupancy
  Dy  Dy0  1  0.60036342  0.60036342  0.60036342  1
  Dy  Dy1  1  0.39963658  0.50000000  0.00000000  1
  Dy  Dy2  1  0.50000000  0.00000000  0.39963658  1
  Dy  Dy3  1  0.00000000  0.39963658  0.50000000  1
  Dy  Dy4  1  0.50000000  0.00000000  0.89963658  1
  Dy  Dy5  1  0.00000000  0.89963658  0.50000000  1
  Dy  Dy6  1  0.89963658  0.50000000  0.00000000  1
  Dy  Dy7  1  0.10036342  0.10036342  0.10036342  1
  C  C0  1  0.75000000  0.79377237  0.04377237  1
  C  C1  1  0.75000000  0.95622763  0.20622763  1
  C  C2  1  0.29377237  0.25000000  0.54377237  1
  C  C3  1  0.54377237  0.29377237  0.25000000  1
  C  C4  1  0.20622763  0.75000000  0.95622763  1
  C  C5  1  0.95622763  0.20622763  0.75000000  1
  C  C6  1  0.25000000  0.70622763  0.45622763  1
  C  C7  1  0.70622763  0.45622763  0.25000000  1
  C  C8  1  0.25000000  0.54377237  0.29377237  1
  C  C9  1  0.45622763  0.25000000  0.70622763  1
  C  C10  1  0.04377237  0.75000000  0.79377237  1
  C  C11  1  0.79377237  0.04377237  0.75000000  1
loop_
_geom_bond_atom_site_label_1
_geom_bond_atom_site_label_2
_geom_bond_distance
_geom_bond_site_symmetry_2
C0 C1 1.333757 1_555
C0 Dy1 2.499244 1_555
C0 Dy7 2.499244 1_665
C0 Dy6 2.619259 1_555
C0 Dy0 2.619259 1_554
C1 Dy5 2.499244 1_655
C1 Dy4 2.499244 1_564
C1 Dy2 2.619259 1_565
C1 Dy3 2.619259 1_665
C2 C9 1.333757 1_555
C2 Dy5 2.499244 1_545
C2 Dy0 2.499244 1_555
C2 Dy3 2.619259 1_555
C2 Dy7 2.619259 1_555
C3 C7 1.333757 1_555
C3 Dy4 2.499245 1_554
C3 Dy0 2.499245 1_555
C3 Dy2 2.619259 1_555
C3 Dy7 2.619259 1_555
C4 Dy4 2.499244 1_565
C4 Dy6 2.499244 1_456
C4 Dy1 2.619259 1_556
C4 Dy2 2.619259 1_566
C5 Dy6 2.499245 1_556
C5 Dy5 2.499245 1_645
C5 Dy3 2.619259 1_655
C5 Dy1 2.619259 1_656
C6 C8 1.333757 1_555
C6 Dy2 2.499244 1_565
C6 Dy3 2.499244 1_555
C6 Dy5 2.619259 1_555
C6 Dy4 2.619259 1_565
C7 Dy3 2.499244 1_655
C7 Dy1 2.499244 1_555
C7 Dy6 2.619259 1_555
C7 Dy5 2.619259 1_655
C8 Dy6 2.499245 1_455
C8 Dy0 2.499245 1_555
C8 Dy1 2.619259 1_555
C8 Dy7 2.619259 1_555
C9 Dy1 2.499244 1_556
C9 Dy2 2.499244 1_555
C9 Dy4 2.619259 1_555
C9 Dy6 2.619259 1_556
C10 C4 1.333757 1_555
C10 Dy3 2.499245 1_555
C10 Dy7 2.499245 1_566
C10 Dy5 2.619259 1_555
C10 Dy0 2.619259 1_455
C11 C5 1.333757 1_555
C11 Dy2 2.499245 1_555
C11 Dy7 2.499245 1_656
C11 Dy4 2.619259 1_555
C11 Dy0 2.619259 1_545
