# generated using pymatgen
data_Na4Y3NbSi3(SO8)3
_symmetry_space_group_name_H-M   'P 1'
_cell_length_a   9.25778359
_cell_length_b   9.26159913
_cell_length_c   23.84121444
_cell_angle_alpha   89.95910356
_cell_angle_beta   90.04919533
_cell_angle_gamma   119.91638187
_symmetry_Int_Tables_number   1
_chemical_formula_structural   Na4Y3NbSi3(SO8)3
_chemical_formula_sum   'Na12 Y9 Nb3 Si9 S9 O72'
_cell_volume   1771.80997624
_cell_formula_units_Z   3
loop_
 _symmetry_equiv_pos_site_id
 _symmetry_equiv_pos_as_xyz
  1  'x, y, z'
loop_
 _atom_site_type_symbol
 _atom_site_label
 _atom_site_symmetry_multiplicity
 _atom_site_fract_x
 _atom_site_fract_y
 _atom_site_fract_z
 _atom_site_occupancy
  Na  Na0  1  0.64378445  0.00157851  0.25234597  1
  Na  Na1  1  0.35749983  0.35578857  0.25206375  1
  Na  Na2  1  0.99870676  0.64113625  0.25291028  1
  Na  Na3  1  0.30618427  0.34276810  0.58483175  1
  Na  Na4  1  0.66254110  0.96436611  0.58460761  1
  Na  Na5  1  0.29413605  0.96104078  0.08498273  1
  Na  Na6  1  0.00024281  0.99020369  0.50386117  1
  Na  Na7  1  0.98834319  0.00004031  0.98987459  1
  Na  Na8  1  0.66621265  0.33292205  0.82858309  1
  Na  Na9  1  0.66740873  0.33366521  0.32917411  1
  Na  Na10  1  0.33337060  0.65594154  0.17879866  1
  Na  Na11  1  0.31966757  0.66638108  0.66173279  1
  Y  Y0  1  0.00087425  0.00058105  0.34767844  1
  Y  Y1  1  0.00168099  0.00031692  0.85419264  1
  Y  Y2  1  0.00157078  0.99114819  0.64404942  1
  Y  Y3  1  0.99286582  0.00099633  0.15224625  1
  Y  Y4  1  0.66975419  0.33691032  0.68305494  1
  Y  Y5  1  0.67058352  0.33734745  0.18626054  1
  Y  Y6  1  0.33398175  0.66062098  0.01514942  1
  Y  Y7  1  0.32488288  0.66652412  0.51837494  1
  Y  Y8  1  0.33315391  0.66795597  0.31743129  1
  Nb  Nb0  1  0.66840927  0.33445235  0.97021100  1
  Nb  Nb1  1  0.67023351  0.33599124  0.48874228  1
  Nb  Nb2  1  0.33385697  0.66725129  0.82466879  1
  Si  Si0  1  0.29538959  0.99824159  0.24664864  1
  Si  Si1  1  0.70226011  0.70451731  0.25071583  1
  Si  Si2  1  0.00233796  0.29754193  0.25048600  1
  Si  Si3  1  0.96000048  0.33178365  0.58460283  1
  Si  Si4  1  0.37819910  0.04470721  0.58366021  1
  Si  Si5  1  0.66600520  0.62579409  0.58276381  1
  Si  Si6  1  0.62608909  0.66562616  0.91825467  1
  Si  Si7  1  0.03991170  0.37445034  0.91802268  1
  Si  Si8  1  0.33477245  0.95914372  0.92108901  1
  S  S0  1  0.29791032  0.30917473  0.75171077  1
  S  S1  1  0.01137917  0.70238172  0.75318862  1
  S  S2  1  0.69112515  0.98888764  0.75183328  1
  S  S3  1  0.95572995  0.62463561  0.07891364  1
  S  S4  1  0.66710330  0.04831247  0.07896098  1
  S  S5  1  0.37969944  0.32996768  0.07937472  1
  S  S6  1  0.63566127  0.97786698  0.41950553  1
  S  S7  1  0.34288578  0.36475139  0.41935776  1
  S  S8  1  0.02053081  0.65737180  0.41783105  1
  O  O0  1  0.20963956  0.03701777  0.29954199  1
  O  O1  1  0.82295250  0.78393653  0.30466423  1
  O  O2  1  0.96008780  0.17675516  0.30451344  1
  O  O3  1  0.20853125  0.20069576  0.79934036  1
  O  O4  1  0.99195461  0.78804990  0.80159410  1
  O  O5  1  0.79947569  0.00712882  0.79943814  1
  O  O6  1  0.76309779  0.96741876  0.69861117  1
  O  O7  1  0.20482100  0.23621616  0.69845083  1
  O  O8  1  0.03226698  0.79898706  0.70090564  1
  O  O9  1  0.77989600  0.82261246  0.19529363  1
  O  O10  1  0.04251928  0.22003379  0.19496910  1
  O  O11  1  0.18794557  0.96297229  0.18786702  1
  O  O12  1  0.87782433  0.36089764  0.63895046  1
  O  O13  1  0.49161432  0.12415323  0.63815882  1
  O  O14  1  0.62719510  0.50860064  0.63660368  1
  O  O15  1  0.87960270  0.53568937  0.13188337  1
  O  O16  1  0.65148015  0.12494099  0.13149597  1
  O  O17  1  0.46878841  0.34343287  0.13235880  1
  O  O18  1  0.47900173  0.32128629  0.03086582  1
  O  O19  1  0.85072661  0.52630184  0.03021886  1
  O  O20  1  0.67714455  0.15534056  0.03006775  1
  O  O21  1  0.48487240  0.17112518  0.52770792  1
  O  O22  1  0.68695004  0.51999829  0.52714915  1
  O  O23  1  0.83472419  0.31533866  0.52835356  1
  O  O24  1  0.54501868  0.68911644  0.97325778  1
  O  O25  1  0.14348434  0.45654505  0.97305819  1
  O  O26  1  0.31417648  0.86369332  0.97869608  1
  O  O27  1  0.54816223  0.87375497  0.46877547  1
  O  O28  1  0.32594814  0.45166853  0.46870289  1
  O  O29  1  0.12791277  0.67405464  0.46591162  1
  O  O30  1  0.09446739  0.63662722  0.36533070  1
  O  O31  1  0.53777774  0.90085320  0.36763309  1
  O  O32  1  0.36211876  0.46220309  0.36753666  1
  O  O33  1  0.14110590  0.50488968  0.86281917  1
  O  O34  1  0.36356871  0.85513471  0.86635622  1
  O  O35  1  0.49461386  0.63471136  0.86305364  1
  O  O36  1  0.00226545  0.80671463  0.41610461  1
  O  O37  1  0.80326798  0.99600344  0.41667724  1
  O  O38  1  0.19412102  0.19661691  0.41646305  1
  O  O39  1  0.00166352  0.19012300  0.90629119  1
  O  O40  1  0.18842609  0.99595851  0.90731026  1
  O  O41  1  0.80975249  0.81189278  0.90608034  1
  O  O42  1  0.95865972  0.15414047  0.58545702  1
  O  O43  1  0.20409793  0.04866555  0.58431928  1
  O  O44  1  0.83011308  0.81002027  0.58448880  1
  O  O45  1  0.97238332  0.79315907  0.07840359  1
  O  O46  1  0.81689022  0.03065656  0.07915407  1
  O  O47  1  0.21645808  0.17131900  0.07889211  1
  O  O48  1  0.67019008  0.13779823  0.74969940  1
  O  O49  1  0.46777441  0.32997476  0.74973416  1
  O  O50  1  0.86291308  0.53301924  0.74992917  1
  O  O51  1  0.67836809  0.51799159  0.24373262  1
  O  O52  1  0.84006076  0.32226349  0.24349186  1
  O  O53  1  0.48309681  0.16053290  0.24205399  1
  O  O54  1  0.63353470  0.48624325  0.92697401  1
  O  O55  1  0.85295276  0.36700685  0.92644176  1
  O  O56  1  0.51449552  0.14732674  0.92768438  1
  O  O57  1  0.64935659  0.14679736  0.42521157  1
  O  O58  1  0.49824075  0.35121044  0.42494519  1
  O  O59  1  0.85275962  0.50224569  0.42467595  1
  O  O60  1  0.35634668  0.47603799  0.07641847  1
  O  O61  1  0.12691214  0.64725754  0.07693265  1
  O  O62  1  0.51130588  0.88312955  0.07620237  1
  O  O63  1  0.36622825  0.86674303  0.57352744  1
  O  O64  1  0.50283889  0.64428394  0.57186617  1
  O  O65  1  0.14880921  0.48183589  0.57529491  1
  O  O66  1  0.31450107  0.83289996  0.25659897  1
  O  O67  1  0.51600848  0.68231395  0.25833370  1
  O  O68  1  0.16640470  0.48314508  0.25839614  1
  O  O69  1  0.31162615  0.47825328  0.75946222  1
  O  O70  1  0.16708515  0.68826143  0.76000249  1
  O  O71  1  0.52108802  0.83429001  0.75986604  1
loop_
_geom_bond_atom_site_label_1
_geom_bond_atom_site_label_2
_geom_bond_distance
_geom_bond_site_symmetry_2
Na0 O53 2.573679 1_555
Na0 O67 2.583349 1_545
Na0 O52 2.604641 1_555
Na0 O66 2.644577 1_545
Na0 O2 2.830484 1_555
Na0 O9 2.876597 1_545
Na0 O31 2.911335 1_545
Na1 O68 2.574102 1_555
Na1 O51 2.582565 1_555
Na1 O53 2.603391 1_555
Na1 O67 2.625820 1_555
Na1 O0 2.799658 1_555
Na1 O10 2.876708 1_555
Na1 O32 2.917858 1_555
Na2 O66 2.555345 1_655
Na2 O52 2.569668 1_555
Na2 O51 2.601738 1_555
Na2 O68 2.614163 1_655
Na2 O30 2.829144 1_655
Na2 O1 2.841006 1_555
Na3 O65 2.388326 1_555
Na3 O43 2.396873 1_555
Na3 O64 2.477260 1_555
Na3 O42 2.792296 1_455
Na3 O14 2.856198 1_555
Na3 O7 2.875583 1_555
Na3 O28 2.920442 1_555
Na4 O42 2.408052 1_565
Na4 O63 2.436704 1_555
Na4 O44 2.581115 1_555
Na4 O64 2.587463 1_555
Na4 O6 2.867818 1_555
Na4 O27 2.926388 1_555
Na4 O13 2.943825 1_565
Na5 O47 2.393202 1_565
Na5 O62 2.460625 1_555
Na5 O61 2.528191 1_555
Na5 O45 2.587415 1_455
Na5 O11 2.646730 1_555
Na5 O26 2.727523 1_554
Na6 O44 2.517841 1_455
Na6 O43 2.551555 1_565
Na6 O42 2.612733 1_465
Na6 O36 2.702332 1_555
Na6 O37 2.782034 1_455
Na6 O38 2.792146 1_565
Na7 O39 2.619981 1_655
Na7 O41 2.624237 1_545
Na7 O40 2.717256 1_645
Na7 O46 2.754287 1_556
Na7 O45 2.803615 1_546
Na7 O47 2.852349 1_656
Na8 O49 2.617948 1_555
Na8 O48 2.622116 1_555
Na8 O50 2.627090 1_555
Na8 O55 2.825132 1_555
Na8 O54 2.836367 1_555
Na8 O56 2.846307 1_555
Na9 O51 2.626174 1_555
Na9 O52 2.629284 1_555
Na9 O53 2.658261 1_555
Na9 O59 2.809335 1_555
Na9 O58 2.820126 1_555
Na9 O57 2.823513 1_555
Na10 O68 2.466771 1_555
Na10 O67 2.469286 1_555
Na10 O66 2.539198 1_555
Na11 O65 2.640619 1_555
Na11 O63 2.692532 1_555
Na11 O70 2.795954 1_555
Na11 O64 2.803739 1_555
Na11 O69 2.887099 1_555
Na11 O71 2.911101 1_555
Nb0 O55 1.894063 1_555
Nb0 O54 1.895595 1_555
Nb0 O56 1.897020 1_555
Nb0 O20 2.219254 1_556
Nb0 O18 2.229707 1_556
Nb0 O19 2.249624 1_556
Nb1 O22 1.872326 1_555
Nb1 O21 1.877863 1_555
Nb1 O23 1.880222 1_555
Nb1 O59 2.228244 1_555
Nb1 O57 2.251074 1_555
Nb1 O58 2.255669 1_555
Nb2 O35 1.894163 1_555
Nb2 O33 1.896584 1_555
Nb2 O34 1.901572 1_555
Nb2 O70 2.256917 1_555
Nb2 O71 2.260794 1_555
Nb2 O69 2.273132 1_555
O0 Si0 1.623622 1_545
O0 Y0 2.125788 1_555
O1 Si1 1.619533 1_555
O1 Y0 2.119944 1_665
O2 Si2 1.620474 1_655
O2 Y0 2.115516 1_655
O3 S0 1.467753 1_555
O3 Y1 2.297256 1_555
O4 S1 1.462075 1_655
O4 Y1 2.296148 1_665
O5 S2 1.467016 1_545
O5 Y1 2.307782 1_655
O6 S2 1.492488 1_555
O6 Y2 2.476905 1_655
O7 S0 1.493359 1_555
O7 Y2 2.472736 1_545
O8 S1 1.489261 1_555
O8 Y2 2.363466 1_555
O9 Si1 1.635307 1_555
O9 Y3 2.102865 1_565
O10 Si2 1.635278 1_555
O10 Y3 2.106212 1_455
O11 Si0 1.653564 1_555
O11 Y3 2.176748 1_465
O12 Si3 1.592846 1_555
O12 Y4 2.107561 1_555
O13 Si4 1.600145 1_555
O13 Y4 2.122922 1_555
O14 Si5 1.601450 1_555
O14 Y4 2.128818 1_555
O15 S3 1.480228 1_555
O15 Y5 2.292344 1_555
O16 S4 1.482335 1_555
O16 Y5 2.293952 1_555
O17 S5 1.478959 1_555
O17 Y5 2.290304 1_555
O18 S5 1.504931 1_555
O19 S3 1.496222 1_555
O20 S4 1.502212 1_555
O21 Si4 1.724033 1_555
O22 Si5 1.716845 1_555
O23 Si3 1.728621 1_555
O24 Si6 1.579624 1_555
O24 Y6 2.091145 1_556
O25 Si7 1.578355 1_555
O25 Y6 2.089119 1_556
O26 Si8 1.592082 1_555
O26 Y6 2.160467 1_556
O27 S6 1.478738 1_555
O27 Y7 2.323461 1_555
O28 S7 1.477906 1_555
O28 Y7 2.320606 1_555
O29 S8 1.473510 1_555
O29 Y7 2.239940 1_555
O30 S8 1.484962 1_555
O30 Y8 2.373909 1_555
O31 S6 1.487942 1_555
O31 Y8 2.365956 1_555
O32 S7 1.487013 1_555
O32 Y8 2.374051 1_555
O33 Si7 1.714706 1_555
O34 Si8 1.720551 1_555
O35 Si6 1.716293 1_555
O36 S8 1.475332 1_555
O36 Y0 2.429862 1_565
O37 S6 1.476691 1_555
O37 Y0 2.445867 1_665
O38 S7 1.478912 1_555
O38 Y0 2.438364 1_555
O39 Si7 1.586055 1_555
O39 Y1 2.153238 1_555
O40 Si8 1.587334 1_555
O40 Y1 2.158716 1_565
O41 Si6 1.585304 1_555
O41 Y1 2.154214 1_665
O42 Si3 1.639217 1_555
O42 Y2 2.232084 1_645
O43 Si4 1.630474 1_555
O43 Y2 2.198714 1_545
O44 Si5 1.623399 1_555
O44 Y2 2.166466 1_655
O45 S3 1.489951 1_555
O45 Y3 2.545733 1_565
O46 S4 1.475077 1_555
O46 Y3 2.491402 1_555
O47 S5 1.492663 1_555
O47 Y3 2.564542 1_455
O48 S2 1.486173 1_545
O48 Y4 2.434849 1_555
O49 S0 1.486685 1_555
O49 Y4 2.431653 1_555
O50 S1 1.484958 1_655
O50 Y4 2.407935 1_555
O51 Si1 1.637131 1_555
O51 Y5 2.136492 1_555
O52 Si2 1.637020 1_655
O52 Y5 2.134871 1_555
O53 Si0 1.638824 1_545
O53 Y5 2.151612 1_555
O54 Si6 1.709338 1_555
O55 Si7 1.709490 1_655
O56 Si8 1.714091 1_545
O57 S6 1.511573 1_545
O58 S7 1.510489 1_555
O59 S8 1.509117 1_655
O60 S5 1.474270 1_555
O60 Y6 2.334113 1_555
O61 S3 1.492158 1_455
O61 Y6 2.372308 1_555
O62 S4 1.491348 1_565
O62 Y6 2.384570 1_555
O63 Si4 1.614198 1_565
O63 Y7 2.146791 1_555
O64 Si5 1.623545 1_555
O64 Y7 2.171980 1_555
O65 Si3 1.616511 1_455
O65 Y7 2.154945 1_555
O66 Si0 1.643840 1_555
O66 Y8 2.174046 1_555
O67 Si1 1.641709 1_555
O67 Y8 2.155876 1_555
O68 Si2 1.641075 1_555
O68 Y8 2.158210 1_555
O69 S0 1.518049 1_555
O70 S1 1.519538 1_555
O71 S2 1.522068 1_555
