# generated using pymatgen
data_LiNiPO4
_symmetry_space_group_name_H-M   'P 1'
_cell_length_a   8.42153985
_cell_length_b   8.42153985
_cell_length_c   8.42153985
_cell_angle_alpha   106.74074013
_cell_angle_beta   106.74074013
_cell_angle_gamma   106.74074409
_symmetry_Int_Tables_number   1
_chemical_formula_structural   LiNiPO4
_chemical_formula_sum   'Li6 Ni6 P6 O24'
_cell_volume   500.89278606
_cell_formula_units_Z   6
loop_
 _symmetry_equiv_pos_site_id
 _symmetry_equiv_pos_as_xyz
  1  'x, y, z'
loop_
 _atom_site_type_symbol
 _atom_site_label
 _atom_site_symmetry_multiplicity
 _atom_site_fract_x
 _atom_site_fract_y
 _atom_site_fract_z
 _atom_site_occupancy
  Li  Li0  1  0.71711900  0.12449700  0.89141500  1
  Li  Li1  1  0.61004100  0.20304100  0.43222200  1
  Li  Li2  1  0.20304100  0.43222200  0.61004100  1
  Li  Li3  1  0.89141500  0.71711900  0.12449700  1
  Li  Li4  1  0.43222200  0.61004100  0.20304100  1
  Li  Li5  1  0.12449700  0.89141500  0.71711900  1
  Ni  Ni0  1  0.23561400  0.06818400  0.45537400  1
  Ni  Ni1  1  0.93274600  0.54295700  0.78108800  1
  Ni  Ni2  1  0.45537400  0.23561400  0.06818400  1
  Ni  Ni3  1  0.54295700  0.78108800  0.93274600  1
  Ni  Ni4  1  0.06818400  0.45537400  0.23561400  1
  Ni  Ni5  1  0.78108800  0.93274600  0.54295700  1
  P  P0  1  0.28197900  0.87738400  0.08999600  1
  P  P1  1  0.38578300  0.79206100  0.56682300  1
  P  P2  1  0.79206100  0.56682300  0.38578300  1
  P  P3  1  0.08999600  0.28197900  0.87738400  1
  P  P4  1  0.56682300  0.38578300  0.79206100  1
  P  P5  1  0.87738400  0.08999600  0.28197900  1
  O  O0  1  0.08243900  0.74318100  0.02386100  1
  O  O1  1  0.27667100  0.91226700  0.58146600  1
  O  O2  1  0.40587400  0.77212900  0.08540800  1
  O  O3  1  0.29445700  0.97618800  0.96081500  1
  O  O4  1  0.97618800  0.96081500  0.29445700  1
  O  O5  1  0.59220900  0.91477700  0.64031200  1
  O  O6  1  0.96081500  0.29445700  0.97618800  1
  O  O7  1  0.77212900  0.08540800  0.40587400  1
  O  O8  1  0.74318100  0.02386100  0.08243900  1
  O  O9  1  0.58146600  0.27667100  0.91226700  1
  O  O10  1  0.35084800  0.02379500  0.28548000  1
  O  O11  1  0.02386100  0.08243900  0.74318100  1
  O  O12  1  0.68633300  0.35736400  0.68461900  1
  O  O13  1  0.36940800  0.31267400  0.65151400  1
  O  O14  1  0.65151400  0.36940800  0.31267400  1
  O  O15  1  0.64031200  0.59220900  0.91477700  1
  O  O16  1  0.08540800  0.40587400  0.77212900  1
  O  O17  1  0.91477700  0.64031200  0.59220900  1
  O  O18  1  0.02379500  0.28548000  0.35084800  1
  O  O19  1  0.91226700  0.58146600  0.27667100  1
  O  O20  1  0.28548000  0.35084800  0.02379500  1
  O  O21  1  0.35736400  0.68461900  0.68633300  1
  O  O22  1  0.68461900  0.68633300  0.35736400  1
  O  O23  1  0.31267400  0.65151400  0.36940800  1
loop_
_geom_bond_atom_site_label_1
_geom_bond_atom_site_label_2
_geom_bond_distance
_geom_bond_site_symmetry_2
Li0 O6 1.909270 1_555
Li0 O9 1.951309 1_555
Li0 O8 2.010871 1_556
Li0 O5 2.048015 1_545
Li1 O7 1.928940 1_555
Li1 O12 1.939258 1_555
Li1 O14 1.957510 1_555
Li1 O10 2.010884 1_555
Li2 O16 1.928940 1_555
Li2 O21 1.939258 1_555
Li2 O13 1.957510 1_555
Li2 O18 2.010884 1_555
Li3 O4 1.909270 1_555
Li3 O19 1.951309 1_555
Li3 O0 2.010871 1_655
Li3 O15 2.048015 1_554
Li4 O2 1.928940 1_555
Li4 O22 1.939258 1_555
Li4 O23 1.957510 1_555
Li4 O20 2.010884 1_555
Li5 O3 1.909270 1_555
Li5 O1 1.951309 1_555
Li5 O11 2.010871 1_565
Li5 O17 2.048015 1_455
Ni0 O1 1.955650 1_545
Ni0 O10 1.956876 1_555
Ni0 O13 1.967097 1_555
Ni0 O4 1.969189 1_445
Ni1 O12 1.959095 1_555
Ni1 O16 1.962671 1_655
Ni1 O17 1.977214 1_555
Ni1 O0 1.979177 1_656
Ni2 O9 1.955650 1_554
Ni2 O20 1.956876 1_555
Ni2 O14 1.967097 1_555
Ni2 O3 1.969189 1_544
Ni3 O21 1.959095 1_555
Ni3 O2 1.962671 1_556
Ni3 O15 1.977214 1_555
Ni3 O8 1.979177 1_566
Ni4 O19 1.955650 1_455
Ni4 O18 1.956876 1_555
Ni4 O23 1.967097 1_555
Ni4 O6 1.969189 1_454
Ni5 O22 1.959095 1_555
Ni5 O7 1.962671 1_565
Ni5 O5 1.977214 1_555
Ni5 O11 1.979177 1_665
O0 P0 1.554186 1_555
O1 P1 1.553577 1_555
O2 P0 1.553114 1_555
O3 P0 1.556890 1_556
O4 P5 1.556890 1_565
O5 P1 1.565226 1_555
O6 P3 1.556890 1_655
O7 P5 1.553114 1_555
O8 P5 1.554186 1_555
O9 P4 1.553577 1_555
O10 P0 1.560614 1_545
O11 P3 1.554186 1_555
O12 P4 1.558071 1_555
O13 P4 1.549497 1_555
O14 P2 1.549497 1_555
O15 P4 1.565226 1_555
O16 P3 1.553114 1_555
O17 P2 1.565226 1_555
O18 P5 1.560614 1_455
O19 P2 1.553577 1_555
O20 P3 1.560614 1_554
O21 P1 1.558071 1_555
O22 P2 1.558071 1_555
O23 P1 1.549497 1_555
