# generated using pymatgen
data_Fe4As2O11
_symmetry_space_group_name_H-M   'P 1'
_cell_length_a   5.14403100
_cell_length_b   6.57526040
_cell_length_c   6.73326933
_cell_angle_alpha   108.94071949
_cell_angle_beta   106.12899683
_cell_angle_gamma   98.14768761
_symmetry_Int_Tables_number   1
_chemical_formula_structural   Fe4As2O11
_chemical_formula_sum   'Fe4 As2 O11'
_cell_volume   200.07895164
_cell_formula_units_Z   1
loop_
 _symmetry_equiv_pos_site_id
 _symmetry_equiv_pos_as_xyz
  1  'x, y, z'
loop_
 _atom_site_type_symbol
 _atom_site_label
 _atom_site_symmetry_multiplicity
 _atom_site_fract_x
 _atom_site_fract_y
 _atom_site_fract_z
 _atom_site_occupancy
  Fe  Fe0  1  0.10427300  0.75337700  0.03150400  1
  Fe  Fe1  1  0.89572700  0.24662300  0.96849600  1
  Fe  Fe2  1  0.65805900  0.62804700  0.25057300  1
  Fe  Fe3  1  0.34194100  0.37195300  0.74942700  1
  As  As0  1  0.33745700  0.81462500  0.60574200  1
  As  As1  1  0.66254300  0.18537500  0.39425800  1
  O  O0  1  0.73912800  0.52532000  0.95648500  1
  O  O1  1  0.26087200  0.47468000  0.04351500  1
  O  O2  1  0.00000000  0.00000000  0.00000000  1
  O  O3  1  0.92595800  0.20723500  0.63168500  1
  O  O4  1  0.07404200  0.79276500  0.36831500  1
  O  O5  1  0.39343500  0.27782200  0.46071900  1
  O  O6  1  0.21550000  0.65582200  0.73784000  1
  O  O7  1  0.78450000  0.34417800  0.26216000  1
  O  O8  1  0.46326600  0.09149100  0.78794900  1
  O  O9  1  0.53673400  0.90850900  0.21205100  1
  O  O10  1  0.60656500  0.72217800  0.53928100  1
loop_
_geom_bond_atom_site_label_1
_geom_bond_atom_site_label_2
_geom_bond_distance
_geom_bond_site_symmetry_2
Fe0 O2 1.835473 1_565
Fe0 O0 2.052948 1_454
Fe0 O1 2.119425 1_555
Fe0 O9 2.125180 1_555
Fe0 O6 2.134905 1_554
Fe0 O4 2.249538 1_555
Fe1 O2 1.835473 1_656
Fe1 O1 2.052948 1_656
Fe1 O0 2.119425 1_555
Fe1 O8 2.125180 1_555
Fe1 O7 2.134905 1_556
Fe1 O3 2.249538 1_555
Fe2 O10 1.945165 1_555
Fe2 O1 2.013888 1_555
Fe2 O0 2.054651 1_554
Fe2 O4 2.055126 1_655
Fe2 O7 2.079291 1_555
Fe2 O9 2.098648 1_555
Fe3 O5 1.945165 1_555
Fe3 O0 2.013888 1_555
Fe3 O1 2.054651 1_556
Fe3 O3 2.055126 1_455
Fe3 O6 2.079291 1_555
Fe3 O8 2.098648 1_555
As0 O10 1.700631 1_555
As0 O6 1.732701 1_555
As0 O4 1.733353 1_555
As0 O8 1.735828 1_565
As1 O5 1.700631 1_555
As1 O7 1.732701 1_555
As1 O3 1.733353 1_555
As1 O9 1.735828 1_545
