# generated using pymatgen
data_MgMn3BiO8
_symmetry_space_group_name_H-M   'P 1'
_cell_length_a   6.18841110
_cell_length_b   6.18841021
_cell_length_c   6.56486273
_cell_angle_alpha   59.04166056
_cell_angle_beta   120.95832845
_cell_angle_gamma   121.30283369
_symmetry_Int_Tables_number   1
_chemical_formula_structural   MgMn3BiO8
_chemical_formula_sum   'Mg1 Mn3 Bi1 O8'
_cell_volume   173.41629041
_cell_formula_units_Z   1
loop_
 _symmetry_equiv_pos_site_id
 _symmetry_equiv_pos_as_xyz
  1  'x, y, z'
loop_
 _atom_site_type_symbol
 _atom_site_label
 _atom_site_symmetry_multiplicity
 _atom_site_fract_x
 _atom_site_fract_y
 _atom_site_fract_z
 _atom_site_occupancy
  Mg  Mg0  1  0.00000000  0.00000000  0.50000000  1
  Mn  Mn0  1  0.50000000  0.50000000  0.00000000  1
  Mn  Mn1  1  0.50000000  0.00000000  0.00000000  1
  Mn  Mn2  1  0.00000000  0.50000000  0.00000000  1
  Bi  Bi0  1  0.50000000  0.50000000  0.50000000  1
  O  O0  1  0.78522600  0.72764700  0.76587500  1
  O  O1  1  0.75424000  0.24576000  0.81346100  1
  O  O2  1  0.25378700  0.74621300  0.80749400  1
  O  O3  1  0.27235300  0.21477400  0.76587500  1
  O  O4  1  0.72764700  0.78522600  0.23412500  1
  O  O5  1  0.74621300  0.25378700  0.19250600  1
  O  O6  1  0.24576000  0.75424000  0.18653900  1
  O  O7  1  0.21477400  0.27235300  0.23412500  1
loop_
_geom_bond_atom_site_label_1
_geom_bond_atom_site_label_2
_geom_bond_distance
_geom_bond_site_symmetry_2
Mg0 O7 2.164744 1_555
Mg0 O0 2.164744 1_445
Mg0 O3 2.164745 1_555
Mg0 O4 2.164745 1_445
Mg0 O2 2.246707 1_545
Mg0 O5 2.246707 1_455
Mn0 O2 2.165749 1_554
Mn0 O5 2.165749 1_555
Mn0 O7 2.332836 1_555
Mn0 O0 2.332836 1_554
Mn0 O3 2.332836 1_554
Mn0 O4 2.332836 1_555
Mn1 O4 1.931261 1_545
Mn1 O3 1.931261 1_554
Mn1 O6 1.966659 1_545
Mn1 O1 1.966659 1_554
Mn1 O5 1.989881 1_555
Mn1 O2 1.989881 1_544
Mn2 O0 1.931261 1_454
Mn2 O7 1.931261 1_555
Mn2 O6 1.966659 1_555
Mn2 O1 1.966659 1_454
Mn2 O5 1.989881 1_455
Mn2 O2 1.989881 1_554
Bi0 O4 2.218777 1_555
Bi0 O3 2.218777 1_555
Bi0 O0 2.218777 1_555
Bi0 O7 2.218777 1_555
Bi0 O1 2.257366 1_555
Bi0 O6 2.257366 1_555
