# generated using pymatgen
data_Na2Zn5Sn3(SO4)12
_symmetry_space_group_name_H-M   'P 1'
_cell_length_a   17.41470478
_cell_length_b   8.71050473
_cell_length_c   22.72783985
_cell_angle_alpha   90.05713116
_cell_angle_beta   89.94281699
_cell_angle_gamma   120.00628425
_symmetry_Int_Tables_number   1
_chemical_formula_structural   Na2Zn5Sn3(SO4)12
_chemical_formula_sum   'Na6 Zn15 Sn9 S36 O144'
_cell_volume   2985.52310398
_cell_formula_units_Z   3
loop_
 _symmetry_equiv_pos_site_id
 _symmetry_equiv_pos_as_xyz
  1  'x, y, z'
loop_
 _atom_site_type_symbol
 _atom_site_label
 _atom_site_symmetry_multiplicity
 _atom_site_fract_x
 _atom_site_fract_y
 _atom_site_fract_z
 _atom_site_occupancy
  Na  Na0  1  0.99994467  0.99990609  0.50162142  1
  Na  Na1  1  0.50248005  0.00369431  0.99770621  1
  Na  Na2  1  0.33440574  0.33509936  0.83028411  1
  Na  Na3  1  0.83226930  0.33138592  0.83058880  1
  Na  Na4  1  0.33198884  0.33323417  0.33845482  1
  Na  Na5  1  0.83461834  0.33343276  0.33351052  1
  Zn  Zn0  1  0.99813868  0.99981924  0.35285938  1
  Zn  Zn1  1  0.50081702  0.00079409  0.84849970  1
  Zn  Zn2  1  0.99980861  0.99979934  0.64909322  1
  Zn  Zn3  1  0.50569903  0.00536867  0.14880652  1
  Zn  Zn4  1  0.33183992  0.33043192  0.68480626  1
  Zn  Zn5  1  0.83480931  0.33644426  0.68437298  1
  Zn  Zn6  1  0.83192874  0.33342834  0.18459720  1
  Zn  Zn7  1  0.33484827  0.33518031  0.97889394  1
  Zn  Zn8  1  0.83148450  0.33094901  0.98280256  1
  Zn  Zn9  1  0.33177676  0.33308297  0.48604847  1
  Zn  Zn10  1  0.83509229  0.33431261  0.48543927  1
  Zn  Zn11  1  0.16220660  0.65781155  0.31415072  1
  Zn  Zn12  1  0.67114443  0.67458715  0.31254898  1
  Zn  Zn13  1  0.16807374  0.66751685  0.80821298  1
  Zn  Zn14  1  0.66504704  0.66593891  0.80891640  1
  Sn  Sn0  1  0.50098356  0.99944776  0.35330958  1
  Sn  Sn1  1  0.99931349  0.99948708  0.84933191  1
  Sn  Sn2  1  0.50019663  0.00020996  0.64955217  1
  Sn  Sn3  1  0.99557918  0.99634802  0.14938804  1
  Sn  Sn4  1  0.33425864  0.33338603  0.18388657  1
  Sn  Sn5  1  0.16470551  0.66665722  0.01676498  1
  Sn  Sn6  1  0.66853183  0.66640240  0.01750641  1
  Sn  Sn7  1  0.16535869  0.66552098  0.52061258  1
  Sn  Sn8  1  0.66791309  0.66764400  0.52074017  1
  S  S0  1  0.14607668  0.99823181  0.25045440  1
  S  S1  1  0.64667003  0.99877504  0.24934662  1
  S  S2  1  0.35288924  0.70960081  0.24876250  1
  S  S3  1  0.85258950  0.70358479  0.25207511  1
  S  S4  1  0.99964244  0.29355402  0.25133712  1
  S  S5  1  0.50152808  0.29423156  0.24936511  1
  S  S6  1  0.14737074  0.29438430  0.74910233  1
  S  S7  1  0.64784956  0.29396369  0.75141639  1
  S  S8  1  0.00020369  0.70517660  0.74900476  1
  S  S9  1  0.49892926  0.70462904  0.75143067  1
  S  S10  1  0.35340415  0.00164088  0.75153548  1
  S  S11  1  0.85216936  -0.00015798  0.74889403  1
  S  S12  1  0.47842966  0.33203682  0.58320417  1
  S  S13  1  0.97806973  0.32949673  0.58311008  1
  S  S14  1  0.18694357  0.04339613  0.58268908  1
  S  S15  1  0.68732083  0.04354129  0.58349731  1
  S  S16  1  0.33417537  0.62557428  0.58356106  1
  S  S17  1  0.83499739  0.62580470  0.58269076  1
  S  S18  1  0.47974618  0.62764692  0.08151494  1
  S  S19  1  0.97915730  0.62521288  0.08329472  1
  S  S20  1  0.33401956  0.04000481  0.08139638  1
  S  S21  1  0.83287698  0.04252912  0.08321780  1
  S  S22  1  0.18640220  0.33185175  0.08205468  1
  S  S23  1  0.68696627  0.33197322  0.08260895  1
  S  S24  1  0.31315265  0.66654633  0.91574476  1
  S  S25  1  0.81363734  0.66590163  0.91446508  1
  S  S26  1  0.01950119  0.37346914  0.91474517  1
  S  S27  1  0.51985353  0.37305856  0.91539726  1
  S  S28  1  0.16683906  0.96067341  0.91454905  1
  S  S29  1  0.66690463  0.96002457  0.91572418  1
  S  S30  1  0.31196599  0.95919994  0.41455830  1
  S  S31  1  0.81294041  0.96132342  0.41578062  1
  S  S32  1  0.16768281  0.37423046  0.41556445  1
  S  S33  1  0.66792847  0.37676196  0.41494180  1
  S  S34  1  0.01957122  0.66622118  0.41532772  1
  S  S35  1  0.52012823  0.66241533  0.41514737  1
  O  O0  1  0.10872664  0.03814782  0.30181829  1
  O  O1  1  0.60756082  0.03833471  0.30479760  1
  O  O2  1  0.40981396  0.78062414  0.30355340  1
  O  O3  1  0.91145970  0.78845357  0.30255129  1
  O  O4  1  0.47975267  0.17884918  0.30374235  1
  O  O5  1  0.98385273  0.17814223  0.30234573  1
  O  O6  1  0.11002356  0.18126288  0.80584402  1
  O  O7  1  0.60699520  0.17943844  0.80311196  1
  O  O8  1  0.48257457  0.78608992  0.80325712  1
  O  O9  1  0.98094412  0.77978428  0.80585255  1
  O  O10  1  0.41026291  0.03399591  0.80330977  1
  O  O11  1  0.90915137  0.03940878  0.80562654  1
  O  O12  1  0.39176217  0.96738913  0.69564197  1
  O  O13  1  0.89470774  0.97119375  0.69792582  1
  O  O14  1  0.09103762  0.21044295  0.69796817  1
  O  O15  1  0.59192984  0.21672349  0.69566251  1
  O  O16  1  0.01442174  0.81802487  0.69795500  1
  O  O17  1  0.51609916  0.81578696  0.69560919  1
  O  O18  1  0.39481944  0.81474642  0.19619157  1
  O  O19  1  0.89027195  0.81355711  0.19555379  1
  O  O20  1  0.01796063  0.21699636  0.19502064  1
  O  O21  1  0.51138595  0.21089138  0.19637649  1
  O  O22  1  0.09461433  0.97342760  0.19431221  1
  O  O23  1  0.59026257  0.96925041  0.19785639  1
  O  O24  1  0.44169491  0.36572294  0.63616843  1
  O  O25  1  0.94090684  0.36478192  0.63578592  1
  O  O26  1  0.24164809  0.11762017  0.63540109  1
  O  O27  1  0.74057375  0.11648739  0.63652287  1
  O  O28  1  0.31785260  0.51867799  0.63648840  1
  O  O29  1  0.81733547  0.51719451  0.63552649  1
  O  O30  1  0.44277588  0.51619928  0.13733643  1
  O  O31  1  0.94264961  0.51939771  0.13663225  1
  O  O32  1  0.31495548  0.11356639  0.13706702  1
  O  O33  1  0.81784829  0.11639907  0.13697168  1
  O  O34  1  0.24142187  0.36889173  0.13760606  1
  O  O35  1  0.74064257  0.36541062  0.13591516  1
  O  O36  1  0.22623248  0.30073415  0.03102350  1
  O  O37  1  0.72580415  0.30409649  0.02893589  1
  O  O38  1  0.42329847  0.54335303  0.03055718  1
  O  O39  1  0.92723280  0.55240336  0.02963697  1
  O  O40  1  0.34743026  0.15122842  0.03013716  1
  O  O41  1  0.84943698  0.14821987  0.02983245  1
  O  O42  1  0.22558186  0.14707961  0.52834450  1
  O  O43  1  0.72367008  0.14667243  0.52939714  1
  O  O44  1  0.35020240  0.55308739  0.52947774  1
  O  O45  1  0.84729915  0.54846795  0.52816082  1
  O  O46  1  0.42671765  0.30132409  0.52905236  1
  O  O47  1  0.92657249  0.30316393  0.52872206  1
  O  O48  1  0.27468770  0.70072007  0.97315554  1
  O  O49  1  0.77806419  0.70355820  0.97057436  1
  O  O50  1  0.07445709  0.44483955  0.97124411  1
  O  O51  1  0.57445108  0.44968732  0.97231259  1
  O  O52  1  0.14866222  0.85268596  0.97111152  1
  O  O53  1  0.64980561  0.84926122  0.97271779  1
  O  O54  1  0.27576650  0.84949237  0.46926450  1
  O  O55  1  0.77360495  0.84779420  0.47102175  1
  O  O56  1  0.15143835  0.45314632  0.47092543  1
  O  O57  1  0.64870901  0.44959991  0.46967072  1
  O  O58  1  0.07606072  0.70067161  0.47044255  1
  O  O59  1  0.57529212  0.69998930  0.46994848  1
  O  O60  1  0.06074517  0.63797136  0.36321036  1
  O  O61  1  0.56073615  0.63702087  0.36271852  1
  O  O62  1  0.25871646  0.87843699  0.36197370  1
  O  O63  1  0.75754041  0.87884241  0.36395498  1
  O  O64  1  0.18261817  0.48513338  0.36349806  1
  O  O65  1  0.67994157  0.48275544  0.36246098  1
  O  O66  1  0.06200425  0.48624862  0.86416362  1
  O  O67  1  0.56164728  0.48602531  0.86457548  1
  O  O68  1  0.18113036  0.87673716  0.86390390  1
  O  O69  1  0.68128938  0.87583496  0.86483372  1
  O  O70  1  0.25629083  0.63711107  0.86516299  1
  O  O71  1  0.75779212  0.63799862  0.86356859  1
  O  O72  1  0.01280839  0.82890157  0.41113783  1
  O  O73  1  0.51219563  0.82780547  0.41049106  1
  O  O74  1  0.40253091  0.97386589  0.40935035  1
  O  O75  1  0.90099495  0.97465358  0.41208669  1
  O  O76  1  0.08650764  0.19775154  0.41146759  1
  O  O77  1  0.58436969  0.19650642  0.41033581  1
  O  O78  1  0.01244695  0.19485966  0.91014517  1
  O  O79  1  0.51178441  0.19598850  0.91227824  1
  O  O80  1  0.08490471  0.97559575  0.91011299  1
  O  O81  1  0.58591523  0.97468507  0.91268885  1
  O  O82  1  0.40126651  0.82782673  0.91282268  1
  O  O83  1  0.90330650  0.83081912  0.91007287  1
  O  O84  1  0.49029485  0.17318905  0.58993136  1
  O  O85  1  0.99040548  0.17402555  0.58848202  1
  O  O86  1  0.09697712  0.01882753  0.58823916  1
  O  O87  1  0.59583419  0.01997890  0.58991749  1
  O  O88  1  0.41402012  0.80800637  0.59008765  1
  O  O89  1  0.91254599  0.80614915  0.58809349  1
  O  O90  1  0.48819483  0.80292008  0.08979852  1
  O  O91  1  0.99186665  0.80936894  0.09039613  1
  O  O92  1  0.41225166  0.02051603  0.09000543  1
  O  O93  1  0.91372226  0.02050833  0.08919001  1
  O  O94  1  0.09768992  0.17216718  0.09167669  1
  O  O95  1  0.59649948  0.17527761  0.08817861  1
  O  O96  1  0.34624686  0.16267668  0.74365887  1
  O  O97  1  0.84544648  0.16209142  0.74469247  1
  O  O98  1  0.23540904  0.30825067  0.74512530  1
  O  O99  1  0.73526144  0.30728158  0.74330848  1
  O  O100  1  0.41829293  0.52952915  0.74339176  1
  O  O101  1  0.91892293  0.52934673  0.74511121  1
  O  O102  1  0.34593981  0.52603157  0.24438129  1
  O  O103  1  0.84610132  0.52913915  0.24363727  1
  O  O104  1  0.41653154  0.30751545  0.24511035  1
  O  O105  1  0.91894606  0.30659840  0.24283553  1
  O  O106  1  0.23769313  0.16814021  0.24326708  1
  O  O107  1  0.73423367  0.16151648  0.24501557  1
  O  O108  1  0.31976629  0.50519770  0.92407357  1
  O  O109  1  0.82372484  0.50879572  0.92300600  1
  O  O110  1  0.43192423  0.35855803  0.92330828  1
  O  O111  1  0.93149104  0.35505598  0.92377412  1
  O  O112  1  0.24571972  0.13706378  0.92336847  1
  O  O113  1  0.74757232  0.13568093  0.92371991  1
  O  O114  1  0.32403170  0.13828104  0.42212713  1
  O  O115  1  0.82033574  0.13670519  0.42330844  1
  O  O116  1  0.24817253  0.35851313  0.42273378  1
  O  O117  1  0.74547468  0.35390264  0.42256451  1
  O  O118  1  0.43088079  0.50685527  0.42280094  1
  O  O119  1  0.93163442  0.50554297  0.42264642  1
  O  O120  1  0.17724508  0.49309689  0.07685077  1
  O  O121  1  0.67809387  0.49680025  0.07620306  1
  O  O122  1  0.07120494  0.64724974  0.07662161  1
  O  O123  1  0.56846807  0.64144545  0.07679945  1
  O  O124  1  0.25137967  0.86151166  0.07648752  1
  O  O125  1  0.75303166  0.85982785  0.07669276  1
  O  O126  1  0.17972718  0.86214786  0.57597547  1
  O  O127  1  0.67568423  0.85989955  0.57668155  1
  O  O128  1  0.25390341  0.64700031  0.57627508  1
  O  O129  1  0.75133797  0.64115190  0.57667368  1
  O  O130  1  0.06925947  0.49563532  0.57700595  1
  O  O131  1  0.56970277  0.49370093  0.57603475  1
  O  O132  1  0.15775014  0.84532897  0.25593083  1
  O  O133  1  0.65239483  0.83950387  0.25863699  1
  O  O134  1  0.26566399  0.68786108  0.25785800  1
  O  O135  1  0.76600434  0.69071271  0.25706695  1
  O  O136  1  0.07996055  0.46715007  0.25623300  1
  O  O137  1  0.57772001  0.46838670  0.25830339  1
  O  O138  1  0.15355561  0.46561969  0.75871945  1
  O  O139  1  0.65414611  0.46673491  0.75718636  1
  O  O140  1  0.07967790  0.69323911  0.75881828  1
  O  O141  1  0.57920343  0.69230202  0.75682577  1
  O  O142  1  0.26686122  0.84134959  0.75691722  1
  O  O143  1  0.76684499  0.84067633  0.75876543  1
loop_
_geom_bond_atom_site_label_1
_geom_bond_atom_site_label_2
_geom_bond_distance
_geom_bond_site_symmetry_2
Na0 O89 2.541428 1_555
Na0 O85 2.543725 1_565
Na0 O86 2.546668 1_665
Na0 O75 2.604933 1_555
Na0 O72 2.612431 1_655
Na0 O76 2.615963 1_665
Na1 O81 2.503863 1_545
Na1 O79 2.517141 1_555
Na1 O82 2.544724 1_545
Na1 O95 2.587612 1_556
Na1 O90 2.659390 1_546
Na1 O92 2.667236 1_556
Na2 O98 2.524961 1_555
Na2 O100 2.535514 1_555
Na2 O96 2.545081 1_555
Na2 O110 2.656135 1_555
Na2 O112 2.678205 1_555
Na2 O108 2.678532 1_555
Na3 O97 2.523942 1_555
Na3 O101 2.534356 1_555
Na3 O99 2.546402 1_555
Na3 O109 2.654230 1_555
Na3 O113 2.654791 1_555
Na3 O111 2.676531 1_555
Na4 O116 2.482564 1_555
Na4 O114 2.507961 1_555
Na4 O118 2.514707 1_555
Na4 O104 2.653556 1_555
Na4 O102 2.654948 1_555
Na4 O106 2.661561 1_555
Na5 O119 2.583314 1_555
Na5 O107 2.593555 1_555
Na5 O115 2.596780 1_555
Na5 O103 2.604512 1_555
Na5 O105 2.606657 1_555
Na5 O117 2.609258 1_555
O0 S0 1.459667 1_545
O0 Zn0 2.125872 1_445
O1 S1 1.550182 1_545
O1 Sn0 2.035447 1_545
O2 S2 1.517795 1_555
O2 Sn0 2.098842 1_555
O3 S3 1.468424 1_555
O3 Zn0 2.048209 1_555
O4 S5 1.517117 1_555
O4 Sn0 2.104758 1_545
O5 S4 1.468144 1_555
O5 Zn0 2.045305 1_545
O6 S6 1.554638 1_555
O6 Sn1 2.036443 1_445
O7 S7 1.473970 1_555
O7 Zn1 2.006515 1_555
O8 S9 1.473720 1_555
O8 Zn1 2.014549 1_565
O9 S8 1.555515 1_655
O9 Sn1 2.031192 1_555
O10 S10 1.472106 1_555
O10 Zn1 2.021221 1_555
O11 S11 1.557454 1_555
O11 Sn1 2.030490 1_545
O12 S10 1.531624 1_565
O12 Sn2 2.049782 1_565
O13 S11 1.461347 1_565
O13 Zn2 2.045539 1_555
O14 S6 1.459728 1_555
O14 Zn2 2.051439 1_445
O15 S7 1.533673 1_555
O15 Sn2 2.047708 1_555
O16 S8 1.460130 1_555
O16 Zn2 2.052339 1_455
O17 S9 1.532523 1_555
O17 Sn2 2.049855 1_565
O18 S2 1.459850 1_555
O18 Zn3 2.106653 1_565
O19 S3 1.539641 1_555
O19 Sn3 2.019456 1_555
O20 S4 1.547576 1_455
O20 Sn3 2.041827 1_445
O21 S5 1.459220 1_555
O21 Zn3 2.050021 1_555
O22 S0 1.511977 1_555
O22 Sn3 2.098846 1_455
O23 S1 1.466159 1_555
O23 Zn3 1.994447 1_565
O24 S12 1.459416 1_555
O24 Zn4 2.093957 1_555
O25 S13 1.463996 1_555
O25 Zn5 2.057793 1_555
O26 S14 1.464764 1_555
O26 Zn4 2.061869 1_555
O27 S15 1.458598 1_555
O27 Zn5 2.097924 1_555
O28 S16 1.460013 1_555
O28 Zn4 2.087481 1_555
O29 S17 1.463600 1_555
O29 Zn5 2.070569 1_555
O30 S18 1.530426 1_555
O30 Sn4 2.053260 1_555
O31 S19 1.462146 1_555
O31 Zn6 2.098951 1_555
O32 S20 1.527096 1_555
O32 Sn4 2.065049 1_555
O33 S21 1.463325 1_555
O33 Zn6 2.082865 1_555
O34 S22 1.519415 1_555
O34 Sn4 2.078460 1_555
O35 S23 1.468220 1_555
O35 Zn6 2.067874 1_555
O36 S22 1.444164 1_555
O36 Zn7 2.121360 1_554
O37 S23 1.471912 1_555
O37 Zn8 2.026627 1_554
O38 S18 1.457889 1_555
O38 Zn7 2.060374 1_554
O39 S19 1.460889 1_555
O39 Zn8 2.101600 1_554
O40 S20 1.458012 1_555
O40 Zn7 2.080194 1_554
O41 S21 1.462488 1_555
O41 Zn8 2.067709 1_554
O42 S14 1.478758 1_555
O42 Zn9 1.992960 1_555
O43 S15 1.466782 1_555
O43 Zn10 2.064453 1_555
O44 S16 1.470209 1_555
O44 Zn9 2.032600 1_555
O45 S17 1.475744 1_555
O45 Zn10 2.016896 1_555
O46 S12 1.468981 1_555
O46 Zn9 2.055886 1_555
O47 S13 1.476747 1_555
O47 Zn10 2.003817 1_555
O48 S24 1.561023 1_555
O48 Sn5 2.041377 1_556
O49 S25 1.522641 1_555
O49 Sn6 2.064010 1_556
O50 S26 1.535284 1_555
O50 Sn5 2.058074 1_556
O51 S27 1.545582 1_555
O51 Sn6 2.051559 1_556
O52 S28 1.530160 1_555
O52 Sn5 2.058430 1_556
O53 S29 1.552998 1_555
O53 Sn6 2.050117 1_556
O54 S30 1.501598 1_555
O54 Sn7 2.131737 1_555
O55 S31 1.531892 1_555
O55 Sn8 2.058550 1_555
O56 S32 1.525700 1_555
O56 Sn7 2.074605 1_555
O57 S33 1.507236 1_555
O57 Sn8 2.104135 1_555
O58 S34 1.527537 1_555
O58 Sn7 2.071889 1_555
O59 S35 1.506118 1_555
O59 Sn8 2.114839 1_555
O60 S34 1.466956 1_555
O60 Zn11 2.021431 1_555
O61 S35 1.457110 1_555
O61 Zn12 2.114523 1_555
O62 S30 1.459870 1_555
O62 Zn11 2.113822 1_555
O63 S31 1.463448 1_555
O63 Zn12 2.028833 1_555
O64 S32 1.466812 1_555
O64 Zn11 2.045855 1_555
O65 S33 1.458559 1_555
O65 Zn12 2.088674 1_555
O66 S26 1.451826 1_555
O66 Zn13 2.145771 1_555
O67 S27 1.454799 1_555
O67 Zn14 2.115555 1_555
O68 S28 1.449538 1_555
O68 Zn13 2.134596 1_555
O69 S29 1.455952 1_555
O69 Zn14 2.125245 1_555
O70 S24 1.454529 1_555
O70 Zn13 2.125380 1_555
O71 S25 1.451986 1_555
O71 Zn14 2.146744 1_555
O72 S34 1.482605 1_555
O72 Zn0 2.102655 1_455
O73 S35 1.518252 1_555
O73 Sn0 2.063679 1_555
O74 S30 1.521811 1_555
O74 Sn0 2.055628 1_555
O75 S31 1.481100 1_555
O75 Zn0 2.084981 1_555
O76 S32 1.482088 1_555
O76 Zn0 2.112074 1_445
O77 S33 1.519367 1_555
O77 Sn0 2.059400 1_545
O78 S26 1.501669 1_555
O78 Sn1 2.113150 1_445
O79 S27 1.478750 1_555
O79 Zn1 2.167794 1_555
O80 S28 1.499603 1_555
O80 Sn1 2.118560 1_455
O81 S29 1.480091 1_555
O81 Zn1 2.172172 1_565
O82 S24 1.475288 1_555
O82 Zn1 2.190788 1_565
O83 S25 1.506107 1_555
O83 Sn1 2.098158 1_555
O84 S12 1.505651 1_555
O84 Sn2 2.097750 1_555
O85 S13 1.478634 1_555
O85 Zn2 2.116784 1_545
O86 S14 1.476715 1_555
O86 Zn2 2.125808 1_445
O87 S15 1.508073 1_555
O87 Sn2 2.085587 1_555
O88 S16 1.506829 1_555
O88 Sn2 2.090028 1_565
O89 S17 1.478062 1_555
O89 Zn2 2.124243 1_555
O90 S18 1.470636 1_555
O90 Zn3 2.111793 1_565
O91 S19 1.514134 1_555
O91 Sn3 2.084447 1_555
O92 S20 1.468034 1_555
O92 Zn3 2.161290 1_555
O93 S21 1.519186 1_555
O93 Sn3 2.062230 1_545
O94 S22 1.489934 1_555
O94 Sn3 2.122138 1_445
O95 S23 1.486683 1_555
O95 Zn3 2.061191 1_555
O96 S10 1.480059 1_555
O96 Zn4 2.087715 1_555
O97 S11 1.478497 1_555
O97 Zn5 2.122796 1_555
O98 S6 1.479146 1_555
O98 Zn4 2.099587 1_555
O99 S7 1.479029 1_555
O99 Zn5 2.102301 1_555
O100 S9 1.479644 1_555
O100 Zn4 2.105976 1_555
O101 S8 1.479452 1_655
O101 Zn5 2.100548 1_555
O102 S2 1.545140 1_555
O102 Sn4 2.098125 1_555
O103 S3 1.478578 1_555
O103 Zn6 2.083961 1_555
O104 S5 1.544446 1_555
O104 Sn4 2.089818 1_555
O105 S4 1.478315 1_555
O105 Zn6 2.112305 1_555
O106 S0 1.549457 1_545
O106 Sn4 2.073528 1_555
O107 S1 1.477298 1_545
O107 Zn6 2.115132 1_555
O108 S24 1.478783 1_555
O108 Zn7 2.051321 1_555
O109 S25 1.477261 1_555
O109 Zn8 2.116372 1_555
O110 S27 1.482935 1_555
O110 Zn7 2.036514 1_555
O111 S26 1.473256 1_655
O111 Zn8 2.123015 1_555
O112 S28 1.475398 1_545
O112 Zn7 2.073714 1_555
O113 S29 1.482460 1_545
O113 Zn8 2.084458 1_555
O114 S30 1.476042 1_545
O114 Zn9 2.185081 1_555
O115 S31 1.477280 1_545
O115 Zn10 2.139220 1_555
O116 S32 1.484085 1_555
O116 Zn9 2.137045 1_555
O117 S33 1.470661 1_555
O117 Zn10 2.185898 1_555
O118 S35 1.474940 1_555
O118 Zn9 2.173161 1_555
O119 S34 1.479159 1_655
O119 Zn10 2.139935 1_555
O120 S22 1.495494 1_555
O120 Sn5 2.129096 1_555
O121 S23 1.526014 1_555
O121 Sn6 2.059202 1_555
O122 S19 1.523555 1_455
O122 Sn5 2.061876 1_555
O123 S18 1.492352 1_555
O123 Sn6 2.125297 1_555
O124 S20 1.504295 1_565
O124 Sn5 2.106805 1_555
O125 S21 1.508221 1_565
O125 Sn6 2.081648 1_555
O126 S14 1.527313 1_565
O126 Sn7 2.036412 1_555
O127 S15 1.516302 1_565
O127 Sn8 2.051509 1_555
O128 S16 1.509265 1_555
O128 Sn7 2.063319 1_555
O129 S17 1.534397 1_555
O129 Sn8 2.029678 1_555
O130 S13 1.528646 1_455
O130 Sn7 2.038580 1_555
O131 S12 1.515662 1_555
O131 Sn8 2.051293 1_555
O132 S0 1.449779 1_555
O132 Zn11 2.134506 1_555
O133 S1 1.455396 1_555
O133 Zn12 2.035923 1_555
O134 S2 1.448348 1_555
O134 Zn11 2.115621 1_555
O135 S3 1.459335 1_555
O135 Zn12 2.025560 1_555
O136 S4 1.462814 1_455
O136 Zn11 2.040245 1_555
O137 S5 1.445605 1_555
O137 Zn12 2.114201 1_555
O138 S6 1.456984 1_555
O138 Zn13 1.993477 1_555
O139 S7 1.458974 1_555
O139 Zn14 2.023872 1_555
O140 S8 1.456253 1_555
O140 Zn13 2.007273 1_555
O141 S9 1.459909 1_555
O141 Zn14 2.009142 1_555
O142 S10 1.459829 1_565
O142 Zn13 2.001408 1_555
O143 S11 1.455976 1_565
O143 Zn14 2.014756 1_555
