# generated using pymatgen
data_CaAl2
_symmetry_space_group_name_H-M   'P 1'
_cell_length_a   5.64939876
_cell_length_b   5.64939822
_cell_length_c   5.64939978
_cell_angle_alpha   59.99999674
_cell_angle_beta   59.99999990
_cell_angle_gamma   59.99999339
_symmetry_Int_Tables_number   1
_chemical_formula_structural   CaAl2
_chemical_formula_sum   'Ca2 Al4'
_cell_volume   127.49457266
_cell_formula_units_Z   2
loop_
 _symmetry_equiv_pos_site_id
 _symmetry_equiv_pos_as_xyz
  1  'x, y, z'
loop_
 _atom_site_type_symbol
 _atom_site_label
 _atom_site_symmetry_multiplicity
 _atom_site_fract_x
 _atom_site_fract_y
 _atom_site_fract_z
 _atom_site_occupancy
  Ca  Ca0  1  0.37500000  0.37500000  0.37500000  1
  Ca  Ca1  1  0.62500000  0.62500000  0.62500000  1
  Al  Al0  1  -0.00000000  -0.00000000  0.00000000  1
  Al  Al1  1  -0.00000000  -0.00000000  0.50000000  1
  Al  Al2  1  0.50000000  -0.00000000  0.00000000  1
  Al  Al3  1  -0.00000000  0.50000000  0.00000000  1
loop_
_geom_bond_atom_site_label_1
_geom_bond_atom_site_label_2
_geom_bond_distance
_geom_bond_site_symmetry_2
Ca0 Ca1 3.459535 1_545
Ca0 Ca1 3.459536 1_455
Ca0 Ca1 3.459536 1_555
Ca0 Ca1 3.459537 1_554
Al0 Al3 2.824699 1_555
Al0 Al3 2.824699 1_545
Al0 Al2 2.824699 1_555
Al0 Al2 2.824699 1_455
Al0 Al1 2.824700 1_555
Al0 Al1 2.824700 1_554
Al0 Ca0 3.312253 1_545
Al0 Ca1 3.312253 1_454
Al0 Ca0 3.312254 1_455
Al0 Ca1 3.312254 1_544
Al0 Ca1 3.312254 1_445
Al0 Ca0 3.312254 1_554
Al1 Al3 2.824699 1_555
Al1 Al3 2.824699 1_546
Al1 Al2 2.824700 1_555
Al1 Al2 2.824700 1_456
Al1 Ca0 3.312253 1_545
Al1 Ca1 3.312253 1_455
Al1 Ca0 3.312253 1_455
Al1 Ca1 3.312253 1_545
Al1 Ca1 3.312254 1_445
Al1 Ca0 3.312254 1_555
Al2 Al3 2.824699 1_645
Al2 Al3 2.824699 1_555
Al2 Ca0 3.312253 1_545
Al2 Ca1 3.312253 1_554
Al2 Ca1 3.312254 1_544
Al2 Ca0 3.312254 1_555
Al2 Ca1 3.312254 1_545
Al2 Ca0 3.312254 1_554
Al3 Ca0 3.312254 1_455
Al3 Ca1 3.312254 1_554
Al3 Ca1 3.312254 1_454
Al3 Ca0 3.312254 1_555
Al3 Ca1 3.312254 1_455
Al3 Ca0 3.312254 1_554
