# generated using pymatgen
data_Lu2V2O7
_symmetry_space_group_name_H-M   'P 1'
_cell_length_a   6.97266731
_cell_length_b   6.97308737
_cell_length_c   6.97302430
_cell_angle_alpha   60.00265113
_cell_angle_beta   60.00067007
_cell_angle_gamma   60.00113537
_symmetry_Int_Tables_number   1
_chemical_formula_structural   Lu2V2O7
_chemical_formula_sum   'Lu4 V4 O14'
_cell_volume   239.74240498
_cell_formula_units_Z   2
loop_
 _symmetry_equiv_pos_site_id
 _symmetry_equiv_pos_as_xyz
  1  'x, y, z'
loop_
 _atom_site_type_symbol
 _atom_site_label
 _atom_site_symmetry_multiplicity
 _atom_site_fract_x
 _atom_site_fract_y
 _atom_site_fract_z
 _atom_site_occupancy
  Lu  Lu0  1  0.62501193  0.62499781  0.62499561  1
  Lu  Lu1  1  0.12500150  0.62499837  0.62499754  1
  Lu  Lu2  1  0.62499479  0.62501088  0.12500055  1
  Lu  Lu3  1  0.62499635  0.12500514  0.62500697  1
  V  V0  1  0.12495597  0.12498885  0.12501683  1
  V  V1  1  0.62498490  0.12499007  0.12500226  1
  V  V2  1  0.12502372  0.12497948  0.62499502  1
  V  V3  1  0.12501556  0.62497994  0.12499000  1
  O  O0  1  0.74998166  0.75001109  0.75000923  1
  O  O1  1  0.50001714  0.49999870  0.49998934  1
  O  O2  1  0.79125709  0.20876721  0.20875829  1
  O  O3  1  0.04116622  0.45883679  0.45879419  1
  O  O4  1  0.20883850  0.20877660  0.79116929  1
  O  O5  1  0.79127166  0.20877133  0.79117620  1
  O  O6  1  0.20882732  0.79116119  0.20875810  1
  O  O7  1  0.79130286  0.79116211  0.20875694  1
  O  O8  1  0.20883881  0.79116410  0.79120822  1
  O  O9  1  0.04116624  0.04123482  0.45883054  1
  O  O10  1  0.45870578  0.45883453  0.04125045  1
  O  O11  1  0.04116765  0.45885072  0.04123059  1
  O  O12  1  0.45873903  0.04123760  0.45882386  1
  O  O13  1  0.45873833  0.04124366  0.04123996  1
loop_
_geom_bond_atom_site_label_1
_geom_bond_atom_site_label_2
_geom_bond_distance
_geom_bond_site_symmetry_2
Lu0 O0 2.134971 1_555
Lu0 O1 2.134991 1_555
Lu0 O3 2.392367 1_655
Lu0 O8 2.392476 1_555
Lu0 O5 2.392977 1_555
Lu0 O7 2.393020 1_555
Lu0 O12 2.393048 1_565
Lu0 O10 2.393114 1_556
Lu1 O1 2.135039 1_555
Lu1 O0 2.135062 1_455
Lu1 O3 2.392650 1_555
Lu1 O8 2.392729 1_555
Lu1 O4 2.392911 1_555
Lu1 O11 2.392951 1_556
Lu1 O6 2.392996 1_555
Lu1 O9 2.392999 1_565
Lu2 O1 2.135028 1_555
Lu2 O0 2.135042 1_554
Lu2 O6 2.392459 1_555
Lu2 O11 2.392480 1_655
Lu2 O7 2.392786 1_555
Lu2 O10 2.392790 1_555
Lu2 O13 2.393021 1_565
Lu2 O2 2.393087 1_555
Lu3 O1 2.135084 1_555
Lu3 O0 2.135087 1_545
Lu3 O4 2.392385 1_555
Lu3 O9 2.392457 1_655
Lu3 O12 2.392728 1_555
Lu3 O5 2.392745 1_555
Lu3 O13 2.392986 1_556
Lu3 O2 2.393079 1_555
O2 V0 1.928559 1_655
O2 V1 1.929246 1_555
O3 V3 1.929231 1_555
O3 V2 1.929592 1_555
O4 V2 1.929070 1_555
O4 V0 1.929472 1_556
O5 V2 1.928859 1_655
O5 V1 1.929464 1_556
O6 V3 1.928950 1_555
O6 V0 1.929432 1_565
O7 V3 1.928660 1_655
O7 V1 1.929534 1_565
O8 V3 1.929155 1_556
O8 V2 1.929384 1_565
O9 V2 1.928957 1_555
O9 V0 1.929390 1_555
O10 V3 1.928503 1_555
O10 V1 1.929581 1_555
O11 V3 1.928766 1_555
O11 V0 1.929687 1_555
O12 V2 1.928656 1_555
O12 V1 1.929398 1_555
O13 V1 1.928956 1_555
O13 V0 1.929082 1_555
