# generated using pymatgen
data_Na30Nb20Zn4Si33(SO48)3
_symmetry_space_group_name_H-M   'P 1'
_cell_length_a   18.12651946
_cell_length_b   9.07430607
_cell_length_c   22.54940378
_cell_angle_alpha   90.10890709
_cell_angle_beta   89.92175563
_cell_angle_gamma   120.06051613
_symmetry_Int_Tables_number   1
_chemical_formula_structural   Na30Nb20Zn4Si33(SO48)3
_chemical_formula_sum   'Na30 Nb20 Zn4 Si33 S3 O144'
_cell_volume   3210.16643905
_cell_formula_units_Z   1
loop_
 _symmetry_equiv_pos_site_id
 _symmetry_equiv_pos_as_xyz
  1  'x, y, z'
loop_
 _atom_site_type_symbol
 _atom_site_label
 _atom_site_symmetry_multiplicity
 _atom_site_fract_x
 _atom_site_fract_y
 _atom_site_fract_z
 _atom_site_occupancy
  Na  Na0  1  0.31275292  0.97955528  0.25564298  1
  Na  Na1  1  0.18504686  0.38973375  0.25719273  1
  Na  Na2  1  0.68020782  0.38399455  0.25328182  1
  Na  Na3  1  0.50710185  0.63620339  0.26016705  1
  Na  Na4  1  0.31051203  0.63871026  0.75801158  1
  Na  Na5  1  0.00571615  0.38994318  0.75620311  1
  Na  Na6  1  0.18458616  0.97755842  0.75554715  1
  Na  Na7  1  0.64965180  0.33254553  0.58404166  1
  Na  Na8  1  0.64232751  0.96719107  0.08737861  1
  Na  Na9  1  0.34028479  0.72090538  0.08972044  1
  Na  Na10  1  0.51889008  0.31605287  0.08980737  1
  Na  Na11  1  0.98861906  0.66080728  0.91393255  1
  Na  Na12  1  0.34530692  0.02856008  0.91549974  1
  Na  Na13  1  0.66570811  0.29719622  0.91568468  1
  Na  Na14  1  0.48756252  0.31646586  0.41457843  1
  Na  Na15  1  0.99015706  0.32133006  0.41445236  1
  Na  Na16  1  0.34157992  0.66050516  0.41509560  1
  Na  Na17  1  0.84289506  0.65766957  0.41418331  1
  Na  Na18  1  0.00991527  0.00647103  0.50121895  1
  Na  Na19  1  0.50120992  0.98862602  0.50248107  1
  Na  Na20  1  0.00590902  0.01610448  0.00218466  1
  Na  Na21  1  0.49846274  0.99125946  0.00657269  1
  Na  Na22  1  0.33931728  0.34527612  0.83693366  1
  Na  Na23  1  0.82899434  0.32177863  0.83118175  1
  Na  Na24  1  0.32907233  0.32566778  0.33650545  1
  Na  Na25  1  0.83352774  0.32335834  0.33303708  1
  Na  Na26  1  0.15735479  0.65603145  0.17251336  1
  Na  Na27  1  0.67551900  0.67041856  0.17482016  1
  Na  Na28  1  0.16719972  0.67755947  0.66673098  1
  Na  Na29  1  0.66805209  0.67616645  0.66683885  1
  Nb  Nb0  1  0.99326919  0.99511692  0.35690115  1
  Nb  Nb1  1  0.49449932  0.99702352  0.35522584  1
  Nb  Nb2  1  0.99378529  0.99309477  0.85800004  1
  Nb  Nb3  1  0.49828461  0.99478177  0.85533470  1
  Nb  Nb4  1  0.99353078  0.98665603  0.64082726  1
  Nb  Nb5  1  0.49846485  0.99441700  0.64535929  1
  Nb  Nb6  1  0.99375502  0.99938020  0.14234891  1
  Nb  Nb7  1  0.34099132  0.33546536  0.68435908  1
  Nb  Nb8  1  0.83057233  0.33192293  0.68947851  1
  Nb  Nb9  1  0.33787480  0.33845217  0.18509402  1
  Nb  Nb10  1  0.84073376  0.34588475  0.18707722  1
  Nb  Nb11  1  0.33062014  0.33860846  0.97912560  1
  Nb  Nb12  1  0.83514532  0.32793359  0.97881764  1
  Nb  Nb13  1  0.33086412  0.32935282  0.48112322  1
  Nb  Nb14  1  0.83360908  0.33001312  0.48048016  1
  Nb  Nb15  1  0.16412572  0.66498507  0.02031007  1
  Nb  Nb16  1  0.66942862  0.66667267  0.02201861  1
  Nb  Nb17  1  0.16487898  0.66564374  0.52175528  1
  Nb  Nb18  1  0.66658732  0.67231225  0.51946596  1
  Nb  Nb19  1  0.66526705  0.66407264  0.80979590  1
  Zn  Zn0  1  0.49448882  0.00479720  0.14606793  1
  Zn  Zn1  1  0.16457168  0.65414150  0.31975340  1
  Zn  Zn2  1  0.66961436  0.66148739  0.31924880  1
  Zn  Zn3  1  0.16806643  0.67843685  0.82164294  1
  Si  Si0  1  0.35246819  0.70727532  0.24618549  1
  Si  Si1  1  0.85285935  0.70818983  0.24956512  1
  Si  Si2  1  0.99917364  0.29129449  0.24966339  1
  Si  Si3  1  0.50146967  0.29521750  0.24665770  1
  Si  Si4  1  0.64344550  0.28707625  0.74996377  1
  Si  Si5  1  0.99973226  0.71008146  0.74934192  1
  Si  Si6  1  0.50002419  0.70959106  0.74971713  1
  Si  Si7  1  0.35458877  0.00241983  0.75034050  1
  Si  Si8  1  0.85490402  0.99896895  0.74958896  1
  Si  Si9  1  0.48150066  0.33232147  0.58054304  1
  Si  Si10  1  0.97889787  0.33609164  0.58566005  1
  Si  Si11  1  0.18806944  0.04118248  0.58545028  1
  Si  Si12  1  0.68916426  0.04057343  0.58466597  1
  Si  Si13  1  0.33169083  0.62251123  0.58400862  1
  Si  Si14  1  0.83171997  0.61928395  0.58248647  1
  Si  Si15  1  0.48109089  0.62786549  0.08231049  1
  Si  Si16  1  0.97971110  0.62627079  0.08105725  1
  Si  Si17  1  0.33066750  0.04080735  0.08090220  1
  Si  Si18  1  0.83149126  0.04465519  0.08485141  1
  Si  Si19  1  0.18727585  0.33289258  0.08464082  1
  Si  Si20  1  0.69023193  0.33541401  0.08389390  1
  Si  Si21  1  0.30908321  0.66398808  0.91360694  1
  Si  Si22  1  0.80922736  0.66329919  0.91574446  1
  Si  Si23  1  0.02413616  0.37813996  0.91302617  1
  Si  Si24  1  0.52103097  0.37992655  0.91658248  1
  Si  Si25  1  0.16751498  0.96119901  0.91438679  1
  Si  Si26  1  0.66631773  0.95129508  0.91668168  1
  Si  Si27  1  0.30577046  0.95493552  0.41306005  1
  Si  Si28  1  0.80692137  0.95580324  0.41388837  1
  Si  Si29  1  0.16696868  0.37413467  0.41505443  1
  Si  Si30  1  0.66750412  0.37291826  0.41514091  1
  Si  Si31  1  0.02431957  0.66829841  0.41488837  1
  Si  Si32  1  0.52169443  0.66840496  0.41363344  1
  S  S0  1  0.14205298  -0.00032603  0.24861192  1
  S  S1  1  0.64649606  0.00575541  0.24872377  1
  S  S2  1  0.14259906  0.28204417  0.74893255  1
  O  O0  1  0.10138374  0.02372169  0.30249527  1
  O  O1  1  0.60045771  0.02656888  0.30120631  1
  O  O2  1  0.41565439  0.80123518  0.30651310  1
  O  O3  1  0.91221514  0.80139267  0.30954074  1
  O  O4  1  0.48718161  0.16755052  0.30593673  1
  O  O5  1  0.98856922  0.16993555  0.30894536  1
  O  O6  1  0.10308331  0.17900383  0.80312033  1
  O  O7  1  0.59717431  0.17024084  0.80916368  1
  O  O8  1  0.48401146  0.80442021  0.80679698  1
  O  O9  1  0.99035272  0.80906705  0.80901656  1
  O  O10  1  0.41281953  0.02743661  0.81010092  1
  O  O11  1  0.91834590  0.02818556  0.80712201  1
  O  O12  1  0.40981432  0.98835719  0.69417570  1
  O  O13  1  0.90505222  0.97956340  0.69222533  1
  O  O14  1  0.09178690  0.19872708  0.69597567  1
  O  O15  1  0.58777108  0.19688920  0.69003121  1
  O  O16  1  0.01008174  0.83755619  0.69375838  1
  O  O17  1  0.51166249  0.82818377  0.69177615  1
  O  O18  1  0.39826743  0.81380175  0.18784477  1
  O  O19  1  0.91065149  0.82783651  0.19352405  1
  O  O20  1  0.00712004  0.18031825  0.19362584  1
  O  O21  1  0.51807483  0.21536441  0.18825540  1
  O  O22  1  0.09315809  0.98830322  0.19471118  1
  O  O23  1  0.59848674  0.98424044  0.19326029  1
  O  O24  1  0.43228052  0.35798740  0.63938224  1
  O  O25  1  0.93156465  0.35988679  0.64404714  1
  O  O26  1  0.24784949  0.13825389  0.64455225  1
  O  O27  1  0.74874826  0.13638569  0.64274525  1
  O  O28  1  0.32154438  0.50353453  0.64306283  1
  O  O29  1  0.81810923  0.49574784  0.63943021  1
  O  O30  1  0.43451292  0.50307466  0.14242624  1
  O  O31  1  0.93173800  0.50233517  0.13932455  1
  O  O32  1  0.32003516  0.13796189  0.14136033  1
  O  O33  1  0.81669986  0.13932128  0.14116593  1
  O  O34  1  0.24912261  0.36297271  0.14348797  1
  O  O35  1  0.74915426  0.36018211  0.14299274  1
  O  O36  1  0.23570236  0.30935745  0.02743278  1
  O  O37  1  0.74112784  0.31720430  0.02551434  1
  O  O38  1  0.41685467  0.52158090  0.02819579  1
  O  O39  1  0.92114869  0.53602008  0.02211404  1
  O  O40  1  0.34176867  0.16311204  0.02443675  1
  O  O41  1  0.84541027  0.16332177  0.02620309  1
  O  O42  1  0.23809550  0.16522779  0.52892665  1
  O  O43  1  0.73745674  0.16743240  0.52836212  1
  O  O44  1  0.34577269  0.52999978  0.52599227  1
  O  O45  1  0.84617124  0.53383299  0.52338922  1
  O  O46  1  0.42307079  0.31048566  0.52313532  1
  O  O47  1  0.92036997  0.30718044  0.52638395  1
  O  O48  1  0.26418857  0.69895674  0.97196536  1
  O  O49  1  0.76474070  0.69237912  0.97463330  1
  O  O50  1  0.08405674  0.47327313  0.97133592  1
  O  O51  1  0.58278107  0.47022165  0.97518062  1
  O  O52  1  0.14921185  0.82766656  0.96994482  1
  O  O53  1  0.65418246  0.83876316  0.97696087  1
  O  O54  1  0.26264462  0.82707736  0.47002339  1
  O  O55  1  0.76500539  0.83075631  0.47280333  1
  O  O56  1  0.14888362  0.46938467  0.47109214  1
  O  O57  1  0.64987980  0.46392827  0.47361194  1
  O  O58  1  0.08328408  0.69637894  0.47443941  1
  O  O59  1  0.58376652  0.69197262  0.47151872  1
  O  O60  1  0.05806743  0.61132778  0.35907813  1
  O  O61  1  0.55441115  0.61958109  0.35513964  1
  O  O62  1  0.25825698  0.88737341  0.35123551  1
  O  O63  1  0.75319737  0.87700165  0.35574341  1
  O  O64  1  0.19413000  0.48453771  0.35534270  1
  O  O65  1  0.69206437  0.48527068  0.35602701  1
  O  O66  1  0.05576552  0.49104923  0.85365118  1
  O  O67  1  0.57011520  0.49942847  0.85942825  1
  O  O68  1  0.19174341  0.90064277  0.85404145  1
  O  O69  1  0.67952092  0.85684197  0.85953686  1
  O  O70  1  0.25811725  0.63221945  0.85242415  1
  O  O71  1  0.74823046  0.63256751  0.85920139  1
  O  O72  1  0.01004619  0.83506317  0.40961768  1
  O  O73  1  0.50926989  0.83676712  0.41045937  1
  O  O74  1  0.40454034  0.97316181  0.40964973  1
  O  O75  1  0.90475430  0.97286644  0.41171216  1
  O  O76  1  0.07948670  0.18564415  0.40996039  1
  O  O77  1  0.57883681  0.18580289  0.40923096  1
  O  O78  1  0.01353963  0.18694460  0.90911254  1
  O  O79  1  0.51479684  0.19205934  0.91157923  1
  O  O80  1  0.07947018  0.97278952  0.91031312  1
  O  O81  1  0.58324332  0.97878569  0.91040209  1
  O  O82  1  0.40440276  0.84295939  0.91130890  1
  O  O83  1  0.90577564  0.83144808  0.91119447  1
  O  O84  1  0.49254370  0.16557500  0.58712497  1
  O  O85  1  0.98988069  0.16726101  0.59268921  1
  O  O86  1  0.09490077  0.02751912  0.59151466  1
  O  O87  1  0.59670476  0.03153543  0.58861272  1
  O  O88  1  0.41772352  0.81081591  0.59028032  1
  O  O89  1  0.91672084  0.80970582  0.58788728  1
  O  O90  1  0.49176902  0.81259584  0.08555862  1
  O  O91  1  0.98986326  0.81370254  0.08997850  1
  O  O92  1  0.41516902  0.02488811  0.08163778  1
  O  O93  1  0.91555532  0.02262742  0.08903349  1
  O  O94  1  0.09401323  0.16330546  0.09163175  1
  O  O95  1  0.59774992  0.16675120  0.08335473  1
  O  O96  1  0.34381819  0.17409882  0.74504761  1
  O  O97  1  0.85179894  0.17631074  0.74598194  1
  O  O98  1  0.23007340  0.29826402  0.74608496  1
  O  O99  1  0.73817281  0.30474548  0.74504464  1
  O  O100  1  0.40960624  0.52462034  0.74503113  1
  O  O101  1  0.91285747  0.52206458  0.74526940  1
  O  O102  1  0.34610384  0.51403411  0.24612067  1
  O  O103  1  0.84563463  0.51700600  0.24522891  1
  O  O104  1  0.40727281  0.29370824  0.24614229  1
  O  O105  1  0.90991867  0.29748944  0.24386470  1
  O  O106  1  0.22876712  0.16446610  0.24627231  1
  O  O107  1  0.73070113  0.16825939  0.24814333  1
  O  O108  1  0.32528726  0.50396068  0.92513420  1
  O  O109  1  0.82110053  0.49596243  0.92053744  1
  O  O110  1  0.42447933  0.34743221  0.92172922  1
  O  O111  1  0.92856344  0.35668049  0.92519175  1
  O  O112  1  0.25029585  0.14952533  0.92618741  1
  O  O113  1  0.74928445  0.14664885  0.92230375  1
  O  O114  1  0.32938105  0.15370257  0.42432135  1
  O  O115  1  0.83057555  0.15377116  0.42441633  1
  O  O116  1  0.25005023  0.34941291  0.42754019  1
  O  O117  1  0.75056173  0.34923583  0.42717379  1
  O  O118  1  0.42454058  0.50402057  0.42569754  1
  O  O119  1  0.92600688  0.50366132  0.42624073  1
  O  O120  1  0.18436486  0.50912024  0.07734065  1
  O  O121  1  0.68092544  0.50693259  0.07763332  1
  O  O122  1  0.07198939  0.63796622  0.07637932  1
  O  O123  1  0.57242375  0.63180174  0.07860761  1
  O  O124  1  0.24540067  0.85156612  0.07673120  1
  O  O125  1  0.74453707  0.85991021  0.07861499  1
  O  O126  1  0.18062051  0.85654205  0.57787084  1
  O  O127  1  0.67939564  0.85315488  0.57671028  1
  O  O128  1  0.24721710  0.63958832  0.57717881  1
  O  O129  1  0.74527191  0.63160185  0.57729476  1
  O  O130  1  0.07285977  0.50536677  0.57787302  1
  O  O131  1  0.57578277  0.50115706  0.57820922  1
  O  O132  1  0.15541999  0.85524132  0.25096441  1
  O  O133  1  0.65608924  0.85506800  0.25565327  1
  O  O134  1  0.25947687  0.68724388  0.25206328  1
  O  O135  1  0.75952154  0.68278125  0.24873172  1
  O  O136  1  0.08445346  0.47140918  0.25015109  1
  O  O137  1  0.57949416  0.48748900  0.25348651  1
  O  O138  1  0.15306911  0.45369433  0.75203515  1
  O  O139  1  0.65326861  0.47618829  0.75632987  1
  O  O140  1  0.08340825  0.69048587  0.74937211  1
  O  O141  1  0.58277655  0.68681967  0.75541314  1
  O  O142  1  0.26288666  0.83132845  0.74854296  1
  O  O143  1  0.76172413  0.82958805  0.75620958  1
loop_
_geom_bond_atom_site_label_1
_geom_bond_atom_site_label_2
_geom_bond_distance
_geom_bond_site_symmetry_2
Na0 O134 2.325540 1_555
Na0 O62 2.344173 1_555
Na0 O132 2.488844 1_555
Na0 O104 2.493222 1_565
Na0 O106 2.781919 1_565
Na1 O136 2.292260 1_555
Na1 O134 2.339606 1_555
Na1 O64 2.348916 1_555
Na1 O106 2.547101 1_555
Na1 O102 2.560789 1_555
Na1 O34 2.872980 1_555
Na2 O135 2.350334 1_555
Na2 O137 2.435643 1_555
Na2 O65 2.460472 1_555
Na2 O107 2.545077 1_555
Na2 O103 2.618188 1_555
Na2 O35 2.837875 1_555
Na3 O137 2.310509 1_555
Na3 O61 2.341009 1_555
Na3 O133 2.423788 1_555
Na3 O102 2.570213 1_555
Na3 O104 2.719779 1_555
Na3 O2 2.925540 1_555
Na3 O30 2.940158 1_555
Na4 O142 2.315061 1_555
Na4 O70 2.318792 1_555
Na4 O138 2.486281 1_555
Na4 O100 2.498875 1_555
Na4 O98 2.688381 1_555
Na4 O28 2.914695 1_555
Na4 O8 2.937245 1_555
Na5 O140 2.366006 1_555
Na5 O66 2.378499 1_555
Na5 O138 2.435004 1_555
Na5 O97 2.485310 1_455
Na5 O101 2.520974 1_455
Na5 O25 2.813629 1_455
Na6 O140 2.319899 1_555
Na6 O68 2.352479 1_555
Na6 O142 2.384436 1_555
Na6 O96 2.531863 1_565
Na6 O98 2.606241 1_565
Na6 O26 2.834875 1_565
Na7 O129 2.383340 1_555
Na7 O87 2.401478 1_555
Na7 O84 2.467326 1_555
Na7 O131 2.490959 1_555
Na7 O15 2.665739 1_555
Na7 O57 2.761959 1_555
Na7 O29 2.924085 1_555
Na7 O43 2.954802 1_555
Na8 O95 2.325329 1_565
Na8 O90 2.362675 1_555
Na8 O125 2.494882 1_555
Na8 O23 2.544115 1_555
Na8 O123 2.653698 1_555
Na8 O53 2.800373 1_554
Na9 O92 2.394743 1_565
Na9 O18 2.413029 1_555
Na9 O90 2.439613 1_555
Na9 O120 2.513516 1_555
Na9 O124 2.548597 1_555
Na10 O92 2.360523 1_555
Na10 O21 2.399432 1_555
Na10 O95 2.416378 1_555
Na10 O123 2.536033 1_555
Na10 O121 2.570057 1_555
Na10 O51 2.891679 1_554
Na11 O111 2.420296 1_555
Na11 O80 2.462349 1_655
Na11 O109 2.632369 1_555
Na11 O83 2.643219 1_555
Na11 O39 2.709930 1_556
Na11 O9 2.716152 1_555
Na11 O66 2.750989 1_655
Na11 O52 2.819365 1_655
Na12 O82 2.408206 1_545
Na12 O112 2.474019 1_555
Na12 O110 2.508131 1_555
Na12 O79 2.661031 1_555
Na12 O10 2.674096 1_555
Na12 O40 2.756031 1_556
Na12 O68 2.789922 1_545
Na12 O48 2.886584 1_545
Na13 O79 2.405724 1_555
Na13 O109 2.471738 1_555
Na13 O113 2.501675 1_555
Na13 O81 2.503849 1_545
Na13 O7 2.683996 1_555
Na13 O37 2.791829 1_556
Na13 O71 2.927486 1_555
Na13 O51 2.979181 1_555
Na14 O77 2.474241 1_555
Na14 O114 2.491562 1_555
Na14 O118 2.491950 1_555
Na14 O74 2.698938 1_545
Na14 O46 2.700157 1_555
Na14 O61 2.738767 1_555
Na14 O4 2.793874 1_555
Na14 O57 2.877333 1_555
Na15 O119 2.466820 1_555
Na15 O76 2.478828 1_655
Na15 O115 2.514570 1_555
Na15 O60 2.600462 1_655
Na15 O75 2.737602 1_545
Na15 O5 2.737977 1_555
Na15 O47 2.795894 1_555
Na15 O56 2.800937 1_655
Na16 O116 2.471845 1_555
Na16 O74 2.474679 1_555
Na16 O118 2.544885 1_555
Na16 O73 2.633949 1_555
Na16 O64 2.689766 1_555
Na16 O2 2.777368 1_555
Na16 O44 2.786293 1_555
Na16 O54 2.832101 1_555
Na17 O117 2.455462 1_555
Na17 O75 2.495709 1_555
Na17 O119 2.531486 1_555
Na17 O72 2.625932 1_655
Na17 O3 2.685046 1_555
Na17 O65 2.712764 1_555
Na17 O45 2.721786 1_555
Na17 O55 2.901064 1_555
Na18 O86 2.503533 1_555
Na18 O76 2.533765 1_555
Na18 O72 2.584044 1_545
Na18 O89 2.616027 1_445
Na18 O85 2.651867 1_455
Na18 O75 2.688133 1_445
Na19 O87 2.500243 1_565
Na19 O88 2.524077 1_555
Na19 O73 2.532989 1_555
Na19 O84 2.546794 1_565
Na19 O77 2.662103 1_565
Na19 O74 2.689724 1_555
Na20 O94 2.502866 1_555
Na20 O93 2.570816 1_455
Na20 O78 2.573676 1_554
Na20 O80 2.595884 1_544
Na20 O91 2.618050 1_445
Na20 O83 2.694837 1_444
Na21 O90 2.372499 1_555
Na21 O92 2.385470 1_565
Na21 O95 2.428881 1_565
Na21 O82 2.651947 1_554
Na21 O81 2.691005 1_554
Na21 O79 2.732905 1_564
Na22 O110 2.452981 1_555
Na22 O108 2.539359 1_555
Na22 O100 2.548485 1_555
Na22 O96 2.612813 1_555
Na22 O112 2.634938 1_555
Na22 O98 2.731551 1_555
Na23 O97 2.477740 1_555
Na23 O99 2.501895 1_555
Na23 O113 2.557160 1_555
Na23 O101 2.569923 1_555
Na23 O109 2.606211 1_555
Na23 O111 2.699416 1_555
Na24 O114 2.525230 1_555
Na24 O116 2.571299 1_555
Na24 O104 2.578194 1_555
Na24 O102 2.579497 1_555
Na24 O118 2.617310 1_555
Na24 O106 2.630565 1_555
Na25 O105 2.516346 1_555
Na25 O107 2.547724 1_555
Na25 O115 2.558543 1_555
Na25 O103 2.584989 1_555
Na25 O119 2.674493 1_555
Na25 O117 2.676930 1_555
Na26 O136 2.324812 1_555
Na26 O134 2.491279 1_555
Na26 O132 2.539609 1_555
Na26 O122 2.621859 1_555
Na26 O120 2.694947 1_555
Na26 O124 2.743802 1_555
Na27 O135 2.223504 1_555
Na27 O137 2.457630 1_555
Na27 O133 2.613766 1_555
Na27 O125 2.660759 1_555
Na27 O121 2.673171 1_555
Na27 O123 2.770211 1_555
Na28 O142 2.435785 1_555
Na28 O140 2.441975 1_555
Na28 O126 2.515396 1_555
Na28 O130 2.588655 1_555
Na28 O128 2.605818 1_555
Na28 O138 2.717459 1_555
Na29 O127 2.536242 1_555
Na29 O143 2.552053 1_555
Na29 O141 2.555077 1_555
Na29 O131 2.578688 1_555
Na29 O129 2.599240 1_555
Na29 O139 2.638614 1_555
Nb0 O3 1.949116 1_555
Nb0 O75 1.952858 1_555
Nb0 O5 1.958399 1_565
Nb0 O72 2.016182 1_655
Nb0 O76 2.037978 1_665
Nb0 O0 2.213159 1_665
Nb1 O74 1.963106 1_555
Nb1 O2 1.964353 1_555
Nb1 O4 1.964677 1_565
Nb1 O77 2.031780 1_565
Nb1 O73 2.033596 1_555
Nb1 O1 2.173376 1_565
Nb2 O11 1.931179 1_565
Nb2 O83 1.947446 1_555
Nb2 O9 1.975253 1_555
Nb2 O78 1.978197 1_665
Nb2 O80 2.032324 1_655
Nb2 O6 2.226064 1_665
Nb3 O8 1.947978 1_555
Nb3 O7 1.993510 1_565
Nb3 O10 1.998381 1_565
Nb3 O82 2.009741 1_555
Nb3 O81 2.040699 1_555
Nb3 O79 2.087678 1_565
Nb4 O89 1.923380 1_555
Nb4 O16 1.938794 1_655
Nb4 O13 1.952283 1_555
Nb4 O85 1.996027 1_565
Nb4 O86 2.015866 1_665
Nb4 O14 2.232738 1_665
Nb5 O12 1.924533 1_555
Nb5 O17 1.948432 1_555
Nb5 O88 2.003639 1_555
Nb5 O15 2.007150 1_565
Nb5 O87 2.077598 1_565
Nb5 O84 2.079247 1_565
Nb6 O19 1.917512 1_555
Nb6 O20 1.920022 1_665
Nb6 O93 1.950467 1_565
Nb6 O91 2.027810 1_555
Nb6 O94 2.028754 1_665
Nb6 O22 2.199670 1_655
Nb7 O24 1.861716 1_555
Nb7 O26 1.957000 1_555
Nb7 O28 1.965262 1_555
Nb7 O96 2.025466 1_555
Nb7 O100 2.054713 1_555
Nb7 O98 2.325471 1_555
Nb8 O27 1.954317 1_555
Nb8 O29 1.969311 1_555
Nb8 O25 1.998904 1_555
Nb8 O99 2.004407 1_555
Nb8 O101 2.050138 1_555
Nb8 O97 2.077946 1_555
Nb9 O30 1.898696 1_555
Nb9 O32 1.947216 1_555
Nb9 O34 1.970122 1_555
Nb9 O104 2.039816 1_555
Nb9 O102 2.051494 1_555
Nb9 O106 2.275928 1_555
Nb10 O31 1.884386 1_555
Nb10 O33 1.987662 1_555
Nb10 O105 1.990875 1_555
Nb10 O35 1.995355 1_555
Nb10 O103 1.998237 1_555
Nb10 O107 2.291822 1_555
Nb11 O36 1.937964 1_556
Nb11 O38 1.955029 1_556
Nb11 O108 1.973710 1_555
Nb11 O40 1.987468 1_556
Nb11 O112 1.995762 1_555
Nb11 O110 2.105699 1_555
Nb12 O41 1.921627 1_556
Nb12 O37 1.962612 1_556
Nb12 O111 1.987658 1_555
Nb12 O39 1.999259 1_556
Nb12 O113 2.045695 1_555
Nb12 O109 2.124654 1_555
Nb13 O42 1.923509 1_555
Nb13 O116 1.977804 1_555
Nb13 O44 1.978025 1_555
Nb13 O46 2.002980 1_555
Nb13 O114 2.032543 1_555
Nb13 O118 2.064700 1_555
Nb14 O43 1.950620 1_555
Nb14 O47 1.979739 1_555
Nb14 O45 1.995160 1_555
Nb14 O117 2.002550 1_555
Nb14 O115 2.015768 1_555
Nb14 O119 2.035128 1_555
Nb15 O50 1.954484 1_554
Nb15 O52 1.987249 1_554
Nb15 O48 2.002249 1_554
Nb15 O122 2.008257 1_555
Nb15 O124 2.038058 1_555
Nb15 O120 2.077706 1_555
Nb16 O49 1.942460 1_554
Nb16 O51 1.988109 1_554
Nb16 O53 1.996606 1_554
Nb16 O121 2.006872 1_555
Nb16 O125 2.040000 1_555
Nb16 O123 2.063553 1_555
Nb17 O58 1.955093 1_555
Nb17 O56 2.009159 1_555
Nb17 O54 2.011791 1_555
Nb17 O130 2.017333 1_555
Nb17 O126 2.044703 1_555
Nb17 O128 2.050641 1_555
Nb18 O59 1.930810 1_555
Nb18 O55 1.946252 1_555
Nb18 O127 2.006030 1_555
Nb18 O57 2.038674 1_555
Nb18 O131 2.077697 1_555
Nb18 O129 2.099032 1_555
Nb19 O67 1.969528 1_555
Nb19 O69 1.981218 1_555
Nb19 O71 2.005218 1_555
Nb19 O139 2.007240 1_555
Nb19 O141 2.024207 1_555
Nb19 O143 2.035486 1_555
O0 S0 1.491675 1_555
O1 S1 1.512281 1_555
O2 Si0 1.706121 1_555
O3 Si1 1.670304 1_555
O4 Si3 1.703030 1_555
O5 Si2 1.682107 1_555
O6 S2 1.487063 1_555
O7 Si4 1.649542 1_555
O8 Si6 1.651177 1_555
O9 Si5 1.671587 1_555
O10 Si7 1.656578 1_555
O11 Si8 1.665278 1_545
O12 Si7 1.657183 1_565
O13 Si8 1.639140 1_555
O14 S2 1.465559 1_555
O15 Si4 1.639120 1_555
O16 Si5 1.652776 1_455
O17 Si6 1.639140 1_555
O18 Si0 1.597552 1_555
O18 Zn0 1.976524 1_565
O19 Si1 1.653860 1_555
O20 Si2 1.664802 1_455
O21 Si3 1.601179 1_555
O21 Zn0 1.978517 1_555
O22 S0 1.477932 1_565
O23 S1 1.480352 1_565
O23 Zn0 2.253760 1_565
O24 Si9 1.677611 1_555
O25 Si10 1.642442 1_555
O26 Si11 1.664172 1_555
O27 Si12 1.642071 1_555
O28 Si13 1.666900 1_555
O29 Si14 1.641289 1_555
O30 Si15 1.696353 1_555
O31 Si16 1.664341 1_555
O32 Si17 1.684603 1_555
O33 Si18 1.627275 1_555
O34 Si19 1.669810 1_555
O35 Si20 1.652107 1_555
O36 Si19 1.632158 1_555
O37 Si20 1.661320 1_555
O38 Si15 1.627678 1_555
O39 Si16 1.641012 1_555
O40 Si17 1.635344 1_555
O41 Si18 1.644530 1_555
O42 Si11 1.641210 1_555
O43 Si12 1.642059 1_555
O44 Si13 1.640408 1_555
O45 Si14 1.626139 1_555
O46 Si9 1.621511 1_555
O47 Si10 1.644586 1_555
O48 Si21 1.657962 1_555
O49 Si22 1.640780 1_555
O50 Si23 1.647428 1_555
O51 Si24 1.658710 1_555
O52 Si25 1.658228 1_555
O53 Si26 1.648680 1_555
O54 Si27 1.643598 1_555
O55 Si28 1.664036 1_555
O56 Si29 1.652221 1_555
O57 Si30 1.667791 1_555
O58 Si31 1.655386 1_555
O59 Si32 1.666535 1_555
O60 Si31 1.592957 1_555
O60 Zn1 1.977251 1_555
O61 Si32 1.595810 1_555
O61 Zn2 2.088379 1_555
O62 Si27 1.591290 1_555
O62 Zn1 2.064936 1_555
O63 Si28 1.575130 1_555
O63 Zn2 1.956048 1_555
O64 Si29 1.602561 1_555
O64 Zn1 2.032662 1_555
O65 Si30 1.601029 1_555
O65 Zn2 2.016977 1_555
O66 Si23 1.607998 1_555
O66 Zn3 2.022137 1_555
O67 Si24 1.632213 1_555
O68 Si25 1.607412 1_555
O68 Zn3 1.977862 1_555
O69 Si26 1.628741 1_555
O70 Si21 1.604721 1_555
O70 Zn3 2.003027 1_555
O71 Si22 1.618491 1_555
O72 Si31 1.662550 1_555
O73 Si32 1.653810 1_555
O74 Si27 1.715126 1_555
O75 Si28 1.701744 1_555
O76 Si29 1.654031 1_555
O77 Si30 1.658224 1_555
O78 Si23 1.649361 1_555
O79 Si24 1.654699 1_555
O80 Si25 1.653826 1_555
O81 Si26 1.651337 1_555
O82 Si21 1.677627 1_555
O83 Si22 1.651174 1_555
O84 Si9 1.629713 1_555
O85 Si10 1.648759 1_555
O86 Si11 1.635805 1_555
O87 Si12 1.638730 1_555
O88 Si13 1.643720 1_555
O89 Si14 1.645320 1_555
O90 Si15 1.589757 1_555
O90 Zn0 2.193401 1_565
O91 Si16 1.628600 1_555
O92 Si17 1.609054 1_555
O92 Zn0 2.116744 1_555
O93 Si18 1.635967 1_555
O94 Si19 1.626287 1_555
O95 Si20 1.606989 1_555
O95 Zn0 2.215389 1_555
O96 Si7 1.668768 1_555
O97 Si8 1.640345 1_545
O98 S2 1.518514 1_555
O99 Si4 1.646237 1_555
O100 Si6 1.660862 1_555
O101 Si5 1.645380 1_555
O102 Si0 1.698678 1_555
O103 Si1 1.675778 1_555
O104 Si3 1.700698 1_555
O105 Si2 1.652126 1_555
O106 S0 1.534559 1_555
O107 S1 1.499838 1_555
O108 Si21 1.640577 1_555
O109 Si22 1.640678 1_555
O110 Si24 1.626653 1_555
O111 Si23 1.665931 1_655
O112 Si25 1.634996 1_545
O113 Si26 1.658034 1_545
O114 Si27 1.651090 1_545
O115 Si28 1.641442 1_545
O116 Si29 1.654516 1_555
O117 Si30 1.646798 1_555
O118 Si32 1.664011 1_555
O119 Si31 1.675178 1_655
O120 Si19 1.634840 1_555
O121 Si20 1.653706 1_555
O122 Si16 1.625417 1_455
O123 Si15 1.639962 1_555
O124 Si17 1.639322 1_565
O125 Si18 1.633113 1_565
O126 Si11 1.620808 1_565
O127 Si12 1.628842 1_565
O128 Si13 1.621974 1_555
O129 Si14 1.630252 1_555
O130 Si10 1.634138 1_455
O131 Si9 1.627163 1_555
O132 S0 1.448345 1_565
O132 Zn1 2.465435 1_555
O133 S1 1.470880 1_565
O133 Zn2 2.375760 1_555
O134 Si0 1.607610 1_555
O134 Zn1 2.203714 1_555
O135 Si1 1.589110 1_555
O135 Zn2 2.213676 1_555
O136 Si2 1.590550 1_455
O136 Zn1 2.214887 1_555
O137 Si3 1.611069 1_555
O137 Zn2 2.185003 1_555
O138 S2 1.473269 1_555
O138 Zn3 2.475934 1_555
O139 Si4 1.640180 1_555
O140 Si5 1.613184 1_455
O140 Zn3 2.279962 1_555
O141 Si6 1.618759 1_555
O142 Si7 1.609220 1_565
O142 Zn3 2.282122 1_555
O143 Si8 1.623850 1_555
