# generated using pymatgen
data_TbSe
_symmetry_space_group_name_H-M   'P 1'
_cell_length_a   4.90202653
_cell_length_b   4.90202653
_cell_length_c   5.72683331
_cell_angle_alpha   90.00000000
_cell_angle_beta   90.00000000
_cell_angle_gamma   120.00001440
_symmetry_Int_Tables_number   1
_chemical_formula_structural   TbSe
_chemical_formula_sum   'Tb2 Se2'
_cell_volume   119.17809115
_cell_formula_units_Z   2
loop_
 _symmetry_equiv_pos_site_id
 _symmetry_equiv_pos_as_xyz
  1  'x, y, z'
loop_
 _atom_site_type_symbol
 _atom_site_label
 _atom_site_symmetry_multiplicity
 _atom_site_fract_x
 _atom_site_fract_y
 _atom_site_fract_z
 _atom_site_occupancy
  Tb  Tb0  1  0.66666700  0.33333300  0.43748198  1
  Tb  Tb1  1  0.33333300  0.66666700  0.93754012  1
  Se  Se0  1  0.66666700  0.33333300  0.93746683  1
  Se  Se1  1  0.33333300  0.66666700  0.43751107  1
loop_
_geom_bond_atom_site_label_1
_geom_bond_atom_site_label_2
_geom_bond_distance
_geom_bond_site_symmetry_2
Se0 Tb1 2.830183 1_545
Se0 Tb1 2.830183 1_655
Se0 Tb1 2.830192 1_555
Se0 Tb0 2.863330 1_555
Se0 Tb0 2.863503 1_556
Se1 Tb0 2.830183 1_455
Se1 Tb0 2.830183 1_565
Se1 Tb0 2.830192 1_555
Se1 Tb1 2.863250 1_554
Se1 Tb1 2.863583 1_555
