# generated using pymatgen
data_Sr2MgZrVO6
_symmetry_space_group_name_H-M   'P 1'
_cell_length_a   5.62730514
_cell_length_b   6.21124092
_cell_length_c   6.37717047
_cell_angle_alpha   95.98117419
_cell_angle_beta   109.18693277
_cell_angle_gamma   120.96412437
_symmetry_Int_Tables_number   1
_chemical_formula_structural   Sr2MgZrVO6
_chemical_formula_sum   'Sr2 Mg1 Zr1 V1 O6'
_cell_volume   169.92686245
_cell_formula_units_Z   1
loop_
 _symmetry_equiv_pos_site_id
 _symmetry_equiv_pos_as_xyz
  1  'x, y, z'
loop_
 _atom_site_type_symbol
 _atom_site_label
 _atom_site_symmetry_multiplicity
 _atom_site_fract_x
 _atom_site_fract_y
 _atom_site_fract_z
 _atom_site_occupancy
  Sr  Sr0  1  0.54485443  0.70344440  0.23200278  1
  Sr  Sr1  1  0.38893081  0.16842717  0.47772229  1
  Mg  Mg0  1  0.79893314  0.29544894  0.11119669  1
  Zr  Zr0  1  0.12584194  0.58366997  0.64640145  1
  V  V0  1  0.98333958  0.02859084  0.86588124  1
  O  O0  1  0.15136618  0.69525226  0.35053177  1
  O  O1  1  0.98456964  0.37225491  0.87589364  1
  O  O2  1  0.56235614  0.87682610  0.88921626  1
  O  O3  1  0.42326399  0.25094010  0.11122293  1
  O  O4  1  -0.03645286  0.21560718  0.41921664  1
  O  O5  1  0.82299703  0.67858614  0.62785731  1
loop_
_geom_bond_atom_site_label_1
_geom_bond_atom_site_label_2
_geom_bond_distance
_geom_bond_site_symmetry_2
Mg0 O3 1.986028 1_555
Mg0 O1 2.058465 1_554
Mg0 O4 2.107648 1_655
Mg0 O0 2.140593 1_655
Mg0 O2 2.229201 1_544
O0 Zr0 2.099822 1_555
O0 Sr1 2.414604 1_565
O0 Sr0 2.543461 1_555
O1 V0 2.125243 1_555
O1 Zr0 2.142260 1_655
O1 Sr0 2.641179 1_656
O1 Sr1 2.941832 1_555
O2 Zr0 2.014188 1_555
O2 V0 2.118008 1_565
O2 Sr0 2.543829 1_556
O3 V0 1.992354 1_454
O3 Sr0 2.486873 1_555
O3 Sr1 2.491423 1_555
O4 Zr0 2.109754 1_555
O4 Sr1 2.472398 1_555
O4 Sr0 2.596812 1_445
O5 Zr0 2.044934 1_655
O5 V0 2.058622 1_565
O5 Sr0 2.564992 1_555
O5 Sr1 2.605752 1_555
