# generated using pymatgen
data_Nd(MnGe)2
_symmetry_space_group_name_H-M   'P 1'
_cell_length_a   4.17325368
_cell_length_b   4.17325367
_cell_length_c   6.29251894
_cell_angle_alpha   109.36618674
_cell_angle_beta   109.36617424
_cell_angle_gamma   90.00000541
_symmetry_Int_Tables_number   1
_chemical_formula_structural   Nd(MnGe)2
_chemical_formula_sum   'Nd1 Mn2 Ge2'
_cell_volume   96.79275921
_cell_formula_units_Z   1
loop_
 _symmetry_equiv_pos_site_id
 _symmetry_equiv_pos_as_xyz
  1  'x, y, z'
loop_
 _atom_site_type_symbol
 _atom_site_label
 _atom_site_symmetry_multiplicity
 _atom_site_fract_x
 _atom_site_fract_y
 _atom_site_fract_z
 _atom_site_occupancy
  Nd  Nd0  1  0.00000000  -0.00000000  -0.00000000  1
  Mn  Mn0  1  0.25000000  0.75000000  0.50000000  1
  Mn  Mn1  1  0.75000000  0.25000000  0.50000000  1
  Ge  Ge0  1  0.61479894  0.61479894  0.22959788  1
  Ge  Ge1  1  0.38520106  0.38520106  0.77040212  1
loop_
_geom_bond_atom_site_label_1
_geom_bond_atom_site_label_2
_geom_bond_distance
_geom_bond_site_symmetry_2
Mn0 Nd0 3.475047 1_566
Mn0 Nd0 3.475047 1_555
Mn0 Nd0 3.475048 1_565
Mn0 Nd0 3.475048 1_666
Mn1 Nd0 3.475047 1_655
Mn1 Nd0 3.475047 1_666
Mn1 Nd0 3.475048 1_656
Mn1 Nd0 3.475048 1_555
Ge0 Ge1 2.552062 1_554
Ge0 Mn0 2.571467 1_555
Ge0 Mn1 2.571467 1_565
Ge0 Mn1 2.571467 1_555
Ge0 Mn0 2.571467 1_655
Ge0 Nd0 3.215008 1_665
Ge0 Nd0 3.215008 1_555
Ge0 Nd0 3.215008 1_655
Ge0 Nd0 3.215009 1_565
Ge1 Mn1 2.571467 1_555
Ge1 Mn0 2.571467 1_545
Ge1 Mn0 2.571467 1_555
Ge1 Mn1 2.571467 1_455
Ge1 Nd0 3.215008 1_556
Ge1 Nd0 3.215008 1_666
Ge1 Nd0 3.215008 1_566
Ge1 Nd0 3.215009 1_656
