# generated using pymatgen
data_Na15Ca8Nb4P15(SO24)3
_symmetry_space_group_name_H-M   'P 1'
_cell_length_a   9.24455677
_cell_length_b   9.25677222
_cell_length_c   22.87349830
_cell_angle_alpha   89.98420506
_cell_angle_beta   90.04821070
_cell_angle_gamma   119.83615753
_symmetry_Int_Tables_number   1
_chemical_formula_structural   Na15Ca8Nb4P15(SO24)3
_chemical_formula_sum   'Na15 Ca8 Nb4 P15 S3 O72'
_cell_volume   1697.94408099
_cell_formula_units_Z   1
loop_
 _symmetry_equiv_pos_site_id
 _symmetry_equiv_pos_as_xyz
  1  'x, y, z'
loop_
 _atom_site_type_symbol
 _atom_site_label
 _atom_site_symmetry_multiplicity
 _atom_site_fract_x
 _atom_site_fract_y
 _atom_site_fract_z
 _atom_site_occupancy
  Na  Na0  1  0.99558233  0.65394841  0.24574974  1
  Na  Na1  1  0.66001500  0.64548413  0.75029222  1
  Na  Na2  1  0.34766561  0.01271415  0.75056553  1
  Na  Na3  1  0.30509900  0.33743654  0.58486438  1
  Na  Na4  1  0.04470606  0.71611972  0.58092964  1
  Na  Na5  1  0.65741021  0.95105354  0.58257553  1
  Na  Na6  1  0.29618303  0.95243913  0.08328640  1
  Na  Na7  1  0.67104951  0.71402580  0.07595797  1
  Na  Na8  1  0.03253887  0.33927523  0.08534097  1
  Na  Na9  1  0.99992681  0.99219610  0.48806945  1
  Na  Na10  1  0.99220957  0.99104298  0.98739607  1
  Na  Na11  1  0.68226833  0.33286244  0.82605671  1
  Na  Na12  1  0.65293599  0.30169212  0.32585680  1
  Na  Na13  1  0.34387136  0.67620093  0.16976198  1
  Na  Na14  1  0.32768091  0.66053023  0.66846802  1
  Ca  Ca0  1  0.00026193  0.00748991  0.35062469  1
  Ca  Ca1  1  0.00069781  0.00364891  0.85075321  1
  Ca  Ca2  1  0.00221186  0.00254092  0.65772210  1
  Ca  Ca3  1  0.00505054  0.01140267  0.15735916  1
  Ca  Ca4  1  0.67110529  0.33106966  0.68649894  1
  Ca  Ca5  1  0.66357069  0.32192388  0.18838869  1
  Ca  Ca6  1  0.33097460  0.66766181  0.01127650  1
  Ca  Ca7  1  0.33620040  0.67005063  0.51061191  1
  Nb  Nb0  1  0.67697080  0.33310621  0.97402042  1
  Nb  Nb1  1  0.65669688  0.33347928  0.47434122  1
  Nb  Nb2  1  0.32823283  0.66573894  0.32344875  1
  Nb  Nb3  1  0.33181560  0.66295456  0.82261827  1
  P  P0  1  0.30235547  0.98655748  0.25224473  1
  P  P1  1  0.01234857  0.32035853  0.25111498  1
  P  P2  1  0.30596735  0.31547667  0.74995235  1
  P  P3  1  0.01248812  0.69739232  0.75125218  1
  P  P4  1  0.68083649  0.98558151  0.75175831  1
  P  P5  1  0.37298029  0.04336283  0.58094720  1
  P  P6  1  0.67113153  0.62705873  0.58135763  1
  P  P7  1  0.95416092  0.62663891  0.08219733  1
  P  P8  1  0.66990686  0.04298414  0.07904405  1
  P  P9  1  0.63036955  0.65597194  0.92142899  1
  P  P10  1  0.03208374  0.36978741  0.92171071  1
  P  P11  1  0.34456106  0.97442303  0.92024133  1
  P  P12  1  0.62903674  0.97271827  0.42120783  1
  P  P13  1  0.33731737  0.36998333  0.42133023  1
  P  P14  1  0.02314006  0.65588090  0.42103668  1
  S  S0  1  0.68268819  0.69669677  0.25135926  1
  S  S1  1  0.95555251  0.32990217  0.57890008  1
  S  S2  1  0.37843300  0.33076060  0.08023399  1
  O  O0  1  0.19404229  0.99269815  0.30038639  1
  O  O1  1  0.79815948  0.78823095  0.29906079  1
  O  O2  1  0.98515562  0.19771625  0.29875125  1
  O  O3  1  0.21229930  0.18451222  0.79601552  1
  O  O4  1  0.98523320  0.79621244  0.79825528  1
  O  O5  1  0.79862307  0.00731590  0.80045273  1
  O  O6  1  0.73763945  0.94823542  0.69203504  1
  O  O7  1  0.21938926  0.26372280  0.68933619  1
  O  O8  1  0.06052708  0.79541511  0.69210043  1
  O  O9  1  0.74412358  0.78645008  0.19452288  1
  O  O10  1  0.04281654  0.26696829  0.19017868  1
  O  O11  1  0.20708263  0.94387337  0.19248631  1
  O  O12  1  0.88057916  0.34821515  0.63243352  1
  O  O13  1  0.46802065  0.12109159  0.63719833  1
  O  O14  1  0.66103812  0.53533462  0.63771603  1
  O  O15  1  0.87236515  0.53562608  0.13862865  1
  O  O16  1  0.64556142  0.12526740  0.13208925  1
  O  O17  1  0.47306625  0.34991082  0.13334233  1
  O  O18  1  0.47081359  0.32023978  0.02730773  1
  O  O19  1  0.83747041  0.51205284  0.02807638  1
  O  O20  1  0.67508530  0.15553609  0.02337624  1
  O  O21  1  0.48735725  0.15912908  0.52705430  1
  O  O22  1  0.67492864  0.51338358  0.52738245  1
  O  O23  1  0.85242908  0.32148869  0.52650518  1
  O  O24  1  0.55877718  0.67005166  0.97918464  1
  O  O25  1  0.11123964  0.43606292  0.98044182  1
  O  O26  1  0.32730400  0.88832600  0.97818287  1
  O  O27  1  0.56499774  0.89084182  0.48015273  1
  O  O28  1  0.32409034  0.43729503  0.48017252  1
  O  O29  1  0.11138031  0.67376042  0.47854334  1
  O  O30  1  0.13095830  0.63541977  0.36899933  1
  O  O31  1  0.49731623  0.86092834  0.37145436  1
  O  O32  1  0.35947754  0.49922091  0.37134151  1
  O  O33  1  0.14077436  0.49828457  0.87162949  1
  O  O34  1  0.36440807  0.86663767  0.86873902  1
  O  O35  1  0.50454870  0.63621014  0.86951867  1
  O  O36  1  0.98947276  0.79642901  0.40923212  1
  O  O37  1  0.80226180  0.00375140  0.40954321  1
  O  O38  1  0.19782726  0.19518775  0.41099233  1
  O  O39  1  0.99749827  0.19501357  0.91095907  1
  O  O40  1  0.20273769  0.00794702  0.90987823  1
  O  O41  1  0.80441935  0.79858726  0.91109711  1
  O  O42  1  0.96377594  0.17219856  0.57930972  1
  O  O43  1  0.20524475  0.04271288  0.57683665  1
  O  O44  1  0.83387675  0.79762249  0.57671010  1
  O  O45  1  0.96205660  0.79766194  0.07706693  1
  O  O46  1  0.83792318  0.04309289  0.07772359  1
  O  O47  1  0.21226196  0.17308598  0.08086931  1
  O  O48  1  0.63561001  0.12462287  0.75035811  1
  O  O49  1  0.48959055  0.35396243  0.74925648  1
  O  O50  1  0.86121537  0.52176668  0.74840925  1
  O  O51  1  0.66253711  0.52795673  0.24882953  1
  O  O52  1  0.87558799  0.36984639  0.25164035  1
  O  O53  1  0.47831025  0.13407528  0.25183819  1
  O  O54  1  0.63361348  0.48428187  0.92202355  1
  O  O55  1  0.85717564  0.36955564  0.91954227  1
  O  O56  1  0.51634838  0.14880575  0.92013687  1
  O  O57  1  0.63057517  0.14684069  0.42059553  1
  O  O58  1  0.51113053  0.36717550  0.42052845  1
  O  O59  1  0.85100855  0.48336616  0.42206167  1
  O  O60  1  0.35169388  0.47692796  0.07642160  1
  O  O61  1  0.12980161  0.64521891  0.07837057  1
  O  O62  1  0.52032434  0.86351185  0.07565787  1
  O  O63  1  0.34686564  0.86519710  0.57679918  1
  O  O64  1  0.51385099  0.64515237  0.57742967  1
  O  O65  1  0.12765087  0.47676125  0.57561789  1
  O  O66  1  0.31710570  0.82079755  0.26565673  1
  O  O67  1  0.51360589  0.68137406  0.26202789  1
  O  O68  1  0.18100650  0.49609986  0.26573424  1
  O  O69  1  0.31897591  0.49074257  0.76606061  1
  O  O70  1  0.17487611  0.68405490  0.76730589  1
  O  O71  1  0.50481670  0.81672255  0.76427188  1
loop_
_geom_bond_atom_site_label_1
_geom_bond_atom_site_label_2
_geom_bond_distance
_geom_bond_site_symmetry_2
Na0 O52 2.293929 1_555
Na0 O66 2.618723 1_655
Na0 O15 2.693725 1_555
Na0 O51 2.696634 1_555
Na0 O11 2.700125 1_655
Na1 O49 2.352534 1_555
Na1 O50 2.625405 1_555
Na1 O71 2.633880 1_555
Na1 O69 2.762197 1_555
Na1 O14 2.771552 1_555
Na1 O4 2.830303 1_555
Na1 O6 2.853607 1_555
Na2 O48 2.327041 1_555
Na2 O70 2.668090 1_545
Na2 O3 2.675659 1_555
Na2 O8 2.750129 1_545
Na2 O49 2.752588 1_555
Na2 O13 2.803807 1_555
Na3 O43 2.413074 1_555
Na3 O7 2.503615 1_555
Na3 O64 2.529298 1_555
Na3 O28 2.541205 1_555
Na3 O65 2.550195 1_555
Na3 O42 2.740280 1_455
Na4 O44 2.416611 1_455
Na4 O63 2.425018 1_555
Na4 O29 2.502347 1_555
Na4 O43 2.624240 1_565
Na4 O8 2.630573 1_555
Na4 O65 2.683811 1_555
Na5 O27 2.460206 1_555
Na5 O64 2.460484 1_555
Na5 O42 2.539451 1_565
Na5 O63 2.572929 1_555
Na5 O6 2.614477 1_555
Na5 O44 2.646217 1_555
Na6 O61 2.472529 1_555
Na6 O47 2.520565 1_565
Na6 O26 2.527146 1_554
Na6 O62 2.588349 1_555
Na6 O11 2.619551 1_555
Na6 O45 2.685102 1_455
Na7 O24 2.391436 1_554
Na7 O45 2.401003 1_555
Na7 O62 2.403101 1_555
Na7 O46 2.642785 1_565
Na7 O60 2.661904 1_555
Na7 O9 2.794279 1_555
Na8 O46 2.423971 1_455
Na8 O10 2.503891 1_555
Na8 O61 2.514076 1_555
Na8 O25 2.538179 1_554
Na8 O60 2.574953 1_555
Na8 O47 2.771492 1_555
Na9 O36 2.524359 1_555
Na9 O38 2.563020 1_665
Na9 O37 2.601086 1_565
Na9 O44 2.638825 1_555
Na9 O43 2.656087 1_665
Na9 O42 2.792980 1_565
Na10 O41 2.480445 1_555
Na10 O39 2.555514 1_565
Na10 O40 2.580475 1_665
Na10 O45 2.644141 1_556
Na10 O46 2.687865 1_566
Na10 O47 2.851826 1_666
Na11 O48 2.464368 1_555
Na11 O50 2.464478 1_555
Na11 O49 2.576350 1_555
Na11 O55 2.598166 1_555
Na11 O56 2.699917 1_555
Na11 O54 2.759726 1_555
Na12 O53 2.320444 1_555
Na12 O52 2.495930 1_555
Na12 O57 2.549029 1_555
Na12 O51 2.704109 1_555
Na12 O58 2.751625 1_555
Na12 O59 2.820390 1_555
Na13 O67 2.614980 1_555
Na13 O66 2.645014 1_555
Na13 O68 2.714990 1_555
Na13 O62 2.736787 1_555
Na13 O61 2.792343 1_555
Na13 O60 2.846287 1_555
Na14 O71 2.685873 1_555
Na14 O69 2.707818 1_555
Na14 O70 2.732344 1_555
Na14 O64 2.751096 1_555
Na14 O63 2.771534 1_555
Na14 O65 2.772928 1_555
Ca0 O2 2.184334 1_455
Ca0 O0 2.189982 1_545
Ca0 O38 2.258476 1_555
Ca0 O37 2.260302 1_455
Ca0 O1 2.285951 1_445
Ca0 O36 2.330028 1_445
Ca1 O5 2.207745 1_455
Ca1 O4 2.208472 1_445
Ca1 O3 2.222911 1_555
Ca1 O39 2.255838 1_455
Ca1 O40 2.289313 1_555
Ca1 O41 2.318691 1_445
Ca2 O7 2.359582 1_555
Ca2 O8 2.368973 1_545
Ca2 O6 2.372867 1_445
Ca2 O42 2.522337 1_455
Ca2 O43 2.528867 1_555
Ca2 O44 2.552137 1_445
Ca3 O10 2.336820 1_555
Ca3 O11 2.384018 1_545
Ca3 O9 2.425217 1_445
Ca3 O47 2.474256 1_555
Ca3 O46 2.497421 1_455
Ca3 O45 2.581449 1_445
Ca4 O13 2.222831 1_555
Ca4 O12 2.236658 1_555
Ca4 O14 2.236687 1_555
Ca4 O50 2.262822 1_555
Ca4 O48 2.295343 1_555
Ca4 O49 2.297681 1_555
Ca5 O16 2.167784 1_555
Ca5 O53 2.258900 1_555
Ca5 O15 2.266602 1_555
Ca5 O17 2.281252 1_555
Ca5 O52 2.293910 1_555
Ca5 O51 2.359745 1_555
Ca6 O26 2.194219 1_554
Ca6 O25 2.210213 1_554
Ca6 O24 2.220477 1_554
Ca6 O62 2.314923 1_555
Ca6 O61 2.340355 1_555
Ca6 O60 2.389335 1_555
Ca7 O27 2.199214 1_555
Ca7 O28 2.213626 1_555
Ca7 O29 2.219743 1_555
Ca7 O63 2.321407 1_555
Ca7 O64 2.336314 1_555
Ca7 O65 2.387502 1_555
Nb0 O55 1.971257 1_555
Nb0 O20 1.986743 1_556
Nb0 O19 2.006650 1_556
Nb0 O54 2.022358 1_555
Nb0 O56 2.027773 1_555
Nb0 O18 2.215849 1_556
Nb1 O58 1.959066 1_555
Nb1 O22 1.998792 1_555
Nb1 O21 1.999327 1_555
Nb1 O59 2.025966 1_555
Nb1 O57 2.034700 1_555
Nb1 O23 2.215006 1_555
Nb2 O68 1.983057 1_555
Nb2 O66 1.990945 1_555
Nb2 O30 1.995996 1_555
Nb2 O32 2.025100 1_555
Nb2 O31 2.025236 1_555
Nb2 O67 2.165318 1_555
Nb3 O70 2.005623 1_555
Nb3 O33 2.005751 1_555
Nb3 O69 2.010352 1_555
Nb3 O71 2.025428 1_555
Nb3 O35 2.037738 1_555
Nb3 O34 2.047899 1_555
O0 P0 1.508955 1_555
O1 S0 1.465093 1_555
O2 P1 1.501694 1_655
O3 P2 1.511922 1_555
O4 P3 1.512115 1_655
O5 P4 1.498939 1_545
O6 P4 1.563182 1_555
O7 P2 1.552246 1_555
O8 P3 1.565423 1_555
O9 S0 1.494683 1_555
O10 P1 1.551095 1_555
O11 P0 1.565955 1_555
O12 S1 1.458412 1_555
O13 P5 1.521420 1_555
O14 P6 1.520594 1_555
O15 P7 1.521456 1_555
O16 P8 1.508151 1_555
O17 S2 1.454807 1_555
O18 S2 1.512934 1_555
O19 P7 1.637433 1_555
O20 P8 1.630601 1_555
O21 P5 1.630943 1_555
O22 P6 1.634098 1_555
O23 S1 1.508459 1_555
O24 P9 1.512499 1_555
O25 P10 1.506198 1_555
O26 P11 1.513399 1_555
O27 P12 1.515608 1_555
O28 P13 1.513694 1_555
O29 P14 1.512290 1_555
O30 P14 1.623600 1_555
O31 P12 1.610350 1_555
O32 P13 1.592587 1_555
O33 P10 1.596444 1_555
O34 P11 1.612482 1_555
O35 P9 1.606961 1_555
O36 P14 1.504999 1_655
O37 P12 1.503691 1_545
O38 P13 1.503458 1_555
O39 P10 1.505158 1_655
O40 P11 1.508556 1_545
O41 P9 1.508123 1_555
O42 S1 1.499126 1_555
O43 P5 1.550431 1_555
O44 P6 1.550549 1_555
O45 P7 1.552514 1_555
O46 P8 1.553055 1_555
O47 S2 1.503118 1_555
O48 P4 1.538767 1_545
O49 P2 1.551458 1_555
O50 P3 1.529887 1_655
O51 S0 1.479308 1_555
O52 P1 1.544266 1_655
O53 P0 1.516740 1_545
O54 P9 1.604481 1_555
O55 P10 1.616601 1_655
O56 P11 1.605285 1_545
O57 P12 1.604841 1_545
O58 P13 1.620033 1_555
O59 P14 1.598243 1_655
O60 S2 1.494028 1_555
O61 P7 1.547921 1_455
O62 P8 1.546667 1_565
O63 P5 1.546331 1_565
O64 P6 1.546706 1_555
O65 S1 1.494304 1_455
O66 P0 1.635530 1_555
O67 S0 1.517543 1_555
O68 P1 1.632433 1_555
O69 P2 1.608883 1_555
O70 P3 1.608468 1_555
O71 P4 1.625633 1_555
