# generated using pymatgen
data_MgMn6(OF)6
_symmetry_space_group_name_H-M   'P 1'
_cell_length_a   5.30473925
_cell_length_b   14.75629367
_cell_length_c   3.12762556
_cell_angle_alpha   89.66940095
_cell_angle_beta   90.31383257
_cell_angle_gamma   79.26595554
_symmetry_Int_Tables_number   1
_chemical_formula_structural   MgMn6(OF)6
_chemical_formula_sum   'Mg1 Mn6 O6 F6'
_cell_volume   240.53195133
_cell_formula_units_Z   1
loop_
 _symmetry_equiv_pos_site_id
 _symmetry_equiv_pos_as_xyz
  1  'x, y, z'
loop_
 _atom_site_type_symbol
 _atom_site_label
 _atom_site_symmetry_multiplicity
 _atom_site_fract_x
 _atom_site_fract_y
 _atom_site_fract_z
 _atom_site_occupancy
  Mg  Mg0  1  0.49183056  -0.00153564  0.48737404  1
  Mn  Mn0  1  0.99227206  0.99877152  0.98748444  1
  Mn  Mn1  1  0.18738479  0.34595013  0.98722043  1
  Mn  Mn2  1  0.85591305  0.65434274  -0.00960743  1
  Mn  Mn3  1  0.71194051  0.20913502  0.48466171  1
  Mn  Mn4  1  0.53254681  0.49882440  0.49334918  1
  Mn  Mn5  1  0.22856820  0.78867756  0.48858529  1
  O  O0  1  0.35886214  0.27884759  0.47390112  1
  O  O1  1  0.18438302  0.92944103  0.48946507  1
  O  O2  1  0.07168069  0.74490187  0.98827866  1
  O  O3  1  0.40848162  0.43587496  -0.00594919  1
  O  O4  1  0.62174214  0.57120854  -0.00784811  1
  O  O5  1  0.79908125  0.06877181  0.48586569  1
  F  F0  1  0.06283628  0.59155283  0.49113299  1
  F  F1  1  0.31426233  0.07189928  0.98444291  1
  F  F2  1  0.91747085  0.25002218  0.98625449  1
  F  F3  1  0.66947313  0.92631055  0.99029427  1
  F  F4  1  0.93783955  0.40687239  0.50622674  1
  F  F5  1  0.62565502  0.73013125  0.49053271  1
loop_
_geom_bond_atom_site_label_1
_geom_bond_atom_site_label_2
_geom_bond_distance
_geom_bond_site_symmetry_2
Mg0 O1 2.077545 1_545
Mg0 O5 2.088737 1_555
Mn0 O1 2.031184 1_656
Mn0 O5 2.036658 1_565
Mn0 O1 2.039313 1_655
Mn0 O5 2.046632 1_566
Mn1 O3 1.927865 1_556
Mn1 O0 1.938245 1_556
Mn1 O0 2.020960 1_555
Mn2 O4 1.901499 1_555
Mn2 O2 1.914578 1_654
Mn3 O0 1.961795 1_555
Mn3 O5 2.036412 1_555
Mn4 O3 1.991947 1_555
Mn4 O3 1.992637 1_556
Mn4 O4 1.999494 1_556
Mn4 O4 1.999765 1_555
Mn5 O2 1.937854 1_555
Mn5 O2 1.938060 1_554
Mn5 O1 2.046510 1_555
F0 Mn2 2.025267 1_455
F0 Mn2 2.039184 1_456
F0 Mn4 2.609708 1_555
F1 Mg0 2.029696 1_556
F1 Mg0 2.033152 1_555
F1 Mn0 2.183735 1_445
F2 Mn3 2.058033 1_556
F2 Mn3 2.061815 1_555
F2 Mn1 2.192914 1_655
F3 Mg0 2.021510 1_565
F3 Mg0 2.024867 1_566
F3 Mn0 2.181207 1_555
F4 Mn1 2.083976 1_655
F4 Mn1 2.189201 1_654
F4 Mn4 2.318804 1_555
F5 Mn5 2.122598 1_555
F5 Mn2 2.153342 1_556
F5 Mn2 2.172979 1_555
