# generated using pymatgen
data_Na4MgMn4O8
_symmetry_space_group_name_H-M   'P 1'
_cell_length_a   6.07973778
_cell_length_b   7.44743412
_cell_length_c   6.07991828
_cell_angle_alpha   66.32559467
_cell_angle_beta   89.75446203
_cell_angle_gamma   114.29293136
_symmetry_Int_Tables_number   1
_chemical_formula_structural   Na4MgMn4O8
_chemical_formula_sum   'Na4 Mg1 Mn4 O8'
_cell_volume   225.01102341
_cell_formula_units_Z   1
loop_
 _symmetry_equiv_pos_site_id
 _symmetry_equiv_pos_as_xyz
  1  'x, y, z'
loop_
 _atom_site_type_symbol
 _atom_site_label
 _atom_site_symmetry_multiplicity
 _atom_site_fract_x
 _atom_site_fract_y
 _atom_site_fract_z
 _atom_site_occupancy
  Na  Na0  1  0.41322917  0.36520363  0.05043227  1
  Na  Na1  1  0.00848692  0.00962389  0.50583846  1
  Na  Na2  1  0.58439739  0.13472442  0.45186449  1
  Na  Na3  1  0.48457258  0.49026393  0.50128327  1
  Mg  Mg0  1  0.38940697  0.75000974  0.86056626  1
  Mn  Mn0  1  0.97131782  0.92137370  0.03300734  1
  Mn  Mn1  1  0.54571151  0.06182196  0.98856650  1
  Mn  Mn2  1  0.94958455  0.43822512  0.01609717  1
  Mn  Mn3  1  0.04566833  0.57863628  0.45002886  1
  O  O0  1  0.25901905  0.96849277  0.24723506  1
  O  O1  1  0.78424388  0.53150220  0.20951575  1
  O  O2  1  0.21401405  0.50508882  0.20348388  1
  O  O3  1  0.79444278  0.08288125  0.18635440  1
  O  O4  1  0.29144033  -0.00501315  0.79103528  1
  O  O5  1  0.73071995  0.41714829  0.78849650  1
  O  O6  1  0.22650289  0.53400199  0.74207853  1
  O  O7  1  0.72390883  0.96601516  0.80744900  1
loop_
_geom_bond_atom_site_label_1
_geom_bond_atom_site_label_2
_geom_bond_distance
_geom_bond_site_symmetry_2
Na0 O2 2.285878 1_555
Na0 O5 2.297009 1_554
Na0 O6 2.384046 1_554
Na0 O0 2.431437 1_545
Na0 O1 2.497902 1_555
Na1 O7 2.343890 1_445
Na1 O3 2.349246 1_455
Na1 O0 2.374053 1_545
Na1 O4 2.450711 1_555
Na2 O4 2.286417 1_555
Na2 O3 2.296586 1_555
Na2 O7 2.383939 1_545
Na2 O1 2.431689 1_555
Na2 O0 2.497356 1_545
Na3 O6 2.344141 1_555
Na3 O5 2.348330 1_555
Na3 O1 2.373796 1_555
Na3 O2 2.451662 1_555
Mg0 O7 1.927003 1_555
Mg0 O6 1.927086 1_555
Mg0 O2 2.034092 1_556
Mg0 O4 2.034444 1_565
Mn0 O7 2.077684 1_554
Mn0 O4 2.168559 1_664
Mn0 O0 2.181898 1_655
Mn0 O3 2.329951 1_565
Mn0 O1 2.376087 1_555
Mn1 O3 1.931166 1_556
Mn1 O4 1.985639 1_555
Mn1 O0 2.023948 1_546
Mn1 O7 2.037705 1_545
Mn1 O5 2.168337 1_555
Mn2 O5 1.930929 1_554
Mn2 O2 1.985735 1_655
Mn2 O1 2.023968 1_555
Mn2 O6 2.037739 1_654
Mn2 O3 2.168517 1_555
Mn3 O6 2.077391 1_555
Mn3 O2 2.168404 1_555
Mn3 O1 2.181925 1_455
Mn3 O5 2.330561 1_455
Mn3 O0 2.375981 1_555
