# generated using pymatgen
data_Na9Ta2Zn4(PO4)9
_symmetry_space_group_name_H-M   'P 1'
_cell_length_a   9.02292393
_cell_length_b   26.96998721
_cell_length_c   22.11151191
_cell_angle_alpha   89.93819342
_cell_angle_beta   89.97005511
_cell_angle_gamma   120.08603033
_symmetry_Int_Tables_number   1
_chemical_formula_structural   Na9Ta2Zn4(PO4)9
_chemical_formula_sum   'Na54 Ta12 Zn24 P54 O216'
_cell_volume   4655.85433476
_cell_formula_units_Z   6
loop_
 _symmetry_equiv_pos_site_id
 _symmetry_equiv_pos_as_xyz
  1  'x, y, z'
loop_
 _atom_site_type_symbol
 _atom_site_label
 _atom_site_symmetry_multiplicity
 _atom_site_fract_x
 _atom_site_fract_y
 _atom_site_fract_z
 _atom_site_occupancy
  Na  Na0  1  0.02170354  0.00366161  0.49085451  1
  Na  Na1  1  0.00952271  0.33133117  0.49182553  1
  Na  Na2  1  0.98610763  0.66912602  0.50671641  1
  Na  Na3  1  0.99738129  0.00317618  0.99354735  1
  Na  Na4  1  0.01659837  0.33794616  0.00776515  1
  Na  Na5  1  0.99640138  0.66128320  0.01069552  1
  Na  Na6  1  0.65186769  0.10624726  0.82962793  1
  Na  Na7  1  0.68106385  0.44915593  0.83705382  1
  Na  Na8  1  0.66727488  0.77802493  0.83315678  1
  Na  Na9  1  0.65309191  0.10267249  0.32115484  1
  Na  Na10  1  0.67833665  0.45203633  0.34527190  1
  Na  Na11  1  0.69353986  0.78316130  0.33213222  1
  Na  Na12  1  0.32327958  0.22362795  0.17487756  1
  Na  Na13  1  0.31158324  0.55123403  0.17513695  1
  Na  Na14  1  0.33559626  0.89231596  0.15981400  1
  Na  Na15  1  0.31635735  0.21726568  0.65884011  1
  Na  Na16  1  0.33625816  0.55265653  0.67377822  1
  Na  Na17  1  0.33580300  0.89415274  0.65528889  1
  Na  Na18  1  0.64124991  0.32743146  0.26259660  1
  Na  Na19  1  0.62017933  0.66589896  0.24612087  1
  Na  Na20  1  0.37453526  0.12447173  0.25511017  1
  Na  Na21  1  0.34618169  0.45267783  0.25814928  1
  Na  Na22  1  0.36638324  0.78572001  0.23741298  1
  Na  Na23  1  0.99769682  0.21137945  0.24833276  1
  Na  Na24  1  0.62393053  0.20803364  0.74943711  1
  Na  Na25  1  0.62213245  0.54163683  0.74529378  1
  Na  Na26  1  0.64314753  0.87402245  0.74275263  1
  Na  Na27  1  -0.00000703  0.12656681  0.74976651  1
  Na  Na28  1  0.99539779  0.45718265  0.75580528  1
  Na  Na29  1  0.38240358  0.33386975  0.74989823  1
  Na  Na30  1  0.38031044  0.66716811  0.74685635  1
  Na  Na31  1  0.30081121  0.77875955  0.58227276  1
  Na  Na32  1  0.01277452  0.56678139  0.58964244  1
  Na  Na33  1  0.02132176  0.89116768  0.57441465  1
  Na  Na34  1  0.64935335  0.32149827  0.57110462  1
  Na  Na35  1  0.68540454  0.66532613  0.59162455  1
  Na  Na36  1  0.31267506  0.66463630  0.09291767  1
  Na  Na37  1  0.32134161  0.98979931  0.07697611  1
  Na  Na38  1  0.68317667  0.23356470  0.09579859  1
  Na  Na39  1  0.64860818  0.89172393  0.07475409  1
  Na  Na40  1  0.03323525  0.77777878  0.08361565  1
  Na  Na41  1  0.95074958  0.22154074  0.91698477  1
  Na  Na42  1  0.95357631  0.88889042  0.91950100  1
  Na  Na43  1  0.71124184  0.01390085  0.92142575  1
  Na  Na44  1  0.70901176  0.34739116  0.91721788  1
  Na  Na45  1  0.69018515  0.68177806  0.92366728  1
  Na  Na46  1  0.33796687  0.09830228  0.91109096  1
  Na  Na47  1  0.33313196  0.42881932  0.91677813  1
  Na  Na48  1  0.98607236  0.10210200  0.40805239  1
  Na  Na49  1  0.95802373  0.43058047  0.41188406  1
  Na  Na50  1  0.33475137  0.34349099  0.41834759  1
  Na  Na51  1  0.35785695  0.68362383  0.42180820  1
  Na  Na52  1  0.69142311  0.22771743  0.40407413  1
  Na  Na53  1  0.70900938  0.88906293  0.41923919  1
  Ta  Ta0  1  0.99398425  0.66277151  0.35240503  1
  Ta  Ta1  1  0.99862983  0.66506461  0.85375083  1
  Ta  Ta2  1  0.00286400  0.00180369  0.64614696  1
  Ta  Ta3  1  0.00455578  0.33143261  0.64761303  1
  Ta  Ta4  1  0.99205929  0.99956615  0.15042169  1
  Ta  Ta5  1  0.67280295  0.44552747  0.18242112  1
  Ta  Ta6  1  0.66028519  0.10981551  0.48414810  1
  Ta  Ta7  1  0.32834773  0.22390132  0.01908683  1
  Ta  Ta8  1  0.33057640  0.55376417  0.02041066  1
  Ta  Ta9  1  0.34072791  0.55488336  0.51727119  1
  Ta  Ta10  1  0.33239394  0.89422267  0.31478808  1
  Ta  Ta11  1  0.33482855  0.89068394  0.81284121  1
  Zn  Zn0  1  0.00624541  0.99945765  0.34933716  1
  Zn  Zn1  1  0.99864729  0.33479077  0.34376944  1
  Zn  Zn2  1  0.00454496  0.00093617  0.84742879  1
  Zn  Zn3  1  0.99943727  0.33339568  0.85194226  1
  Zn  Zn4  1  0.00268025  0.67069796  0.65340959  1
  Zn  Zn5  1  0.00712423  0.33395587  0.15050120  1
  Zn  Zn6  1  0.00136269  0.66700855  0.15052937  1
  Zn  Zn7  1  0.65901223  0.10900008  0.68246370  1
  Zn  Zn8  1  0.66078185  0.44561356  0.67846728  1
  Zn  Zn9  1  0.68615594  0.77647929  0.68063189  1
  Zn  Zn10  1  0.67827563  0.11294440  0.17939124  1
  Zn  Zn11  1  0.66320992  0.77834842  0.18101729  1
  Zn  Zn12  1  0.67228474  0.10967899  0.98842985  1
  Zn  Zn13  1  0.67417033  0.44646167  0.98412720  1
  Zn  Zn14  1  0.65048265  0.78020512  0.98529142  1
  Zn  Zn15  1  0.65355276  0.44204378  0.48742644  1
  Zn  Zn16  1  0.69595920  0.78082748  0.48497321  1
  Zn  Zn17  1  0.33098135  0.88512835  0.01381435  1
  Zn  Zn18  1  0.32537209  0.22126497  0.51612250  1
  Zn  Zn19  1  0.32697282  0.88713556  0.51446936  1
  Zn  Zn20  1  0.33425978  0.22031650  0.32302887  1
  Zn  Zn21  1  0.32531066  0.55424598  0.31677613  1
  Zn  Zn22  1  0.33358901  0.22197515  0.81471117  1
  Zn  Zn23  1  0.32892765  0.55476890  0.81932564  1
  P  P0  1  0.29290159  0.00074391  0.24934479  1
  P  P1  1  0.29806706  0.33439335  0.25108491  1
  P  P2  1  0.29367846  0.66440902  0.24880986  1
  P  P3  1  0.70145027  0.23282055  0.24863562  1
  P  P4  1  0.70669061  0.56883845  0.24625993  1
  P  P5  1  0.70034611  0.90075240  0.25513781  1
  P  P6  1  0.99654367  0.09818477  0.25527761  1
  P  P7  1  -0.00009636  0.43253384  0.24884031  1
  P  P8  1  0.00055828  0.76504551  0.24985165  1
  P  P9  1  0.29561714  0.09840520  0.75305944  1
  P  P10  1  0.29527800  0.42983023  0.75329743  1
  P  P11  1  0.29338596  0.76506822  0.75017024  1
  P  P12  1  0.99510672  0.23400859  0.75507093  1
  P  P13  1  0.00281004  0.56950070  0.74688782  1
  P  P14  1  0.00240327  0.90205215  0.75130507  1
  P  P15  1  0.70995428  0.00099538  0.75418624  1
  P  P16  1  0.70988668  0.33476161  0.75060702  1
  P  P17  1  0.70199780  0.66583838  0.74975190  1
  P  P18  1  0.95994358  0.11189308  0.58784513  1
  P  P19  1  0.96432184  0.44462650  0.58385755  1
  P  P20  1  0.97223627  0.77764096  0.58381733  1
  P  P21  1  0.36891162  0.01216144  0.58798322  1
  P  P22  1  0.36911899  0.34365741  0.58406989  1
  P  P23  1  0.37411494  0.67985783  0.58095072  1
  P  P24  1  0.66595420  0.20953324  0.58813034  1
  P  P25  1  0.66749288  0.54349856  0.58435577  1
  P  P26  1  0.66444889  0.87511473  0.58558300  1
  P  P27  1  0.96391381  0.21180035  0.08265392  1
  P  P28  1  0.96451367  0.54328957  0.07878160  1
  P  P29  1  0.96012343  0.87589038  0.08265679  1
  P  P30  1  0.66650488  0.01192658  0.08232754  1
  P  P31  1  0.66726026  0.34590569  0.07847188  1
  P  P32  1  0.66808865  0.68047992  0.08114697  1
  P  P33  1  0.36734965  0.11050467  0.08275235  1
  P  P34  1  0.37332306  0.44374768  0.07893827  1
  P  P35  1  0.36168221  0.77746407  0.08556873  1
  P  P36  1  0.62351207  0.22085509  0.91603101  1
  P  P37  1  0.62379464  0.55467292  0.91261060  1
  P  P38  1  0.63038664  0.88950999  0.91706074  1
  P  P39  1  0.03776451  0.12567863  0.91333307  1
  P  P40  1  0.03771121  0.45717239  0.91366480  1
  P  P41  1  0.04086482  0.79058140  0.91677679  1
  P  P42  1  0.33838116  0.32148932  0.91160743  1
  P  P43  1  0.33061060  0.65360816  0.91571040  1
  P  P44  1  0.33063276  0.98620805  0.91968379  1
  P  P45  1  0.63155179  0.32266289  0.41800827  1
  P  P46  1  0.63080129  0.65415336  0.41235950  1
  P  P47  1  0.62546626  0.98645750  0.42078479  1
  P  P48  1  0.33333791  0.12299409  0.41786189  1
  P  P49  1  0.33620578  0.45682097  0.41152826  1
  P  P50  1  0.33083804  0.79109248  0.41509755  1
  P  P51  1  0.03535940  0.22123060  0.41561228  1
  P  P52  1  0.04025949  0.55550079  0.41719912  1
  P  P53  1  0.03553047  0.88979267  0.42011499  1
  O  O0  1  0.20937803  0.00804361  0.30494374  1
  O  O1  1  0.23829368  0.35105960  0.30946025  1
  O  O2  1  0.17758509  0.66408583  0.30471906  1
  O  O3  1  0.81064256  0.26226810  0.30573013  1
  O  O4  1  0.81623893  0.59773417  0.30620556  1
  O  O5  1  0.79522470  0.92891099  0.31292296  1
  O  O6  1  0.98574725  0.06697928  0.31397698  1
  O  O7  1  0.95430678  0.39822559  0.30891932  1
  O  O8  1  0.98669927  0.72140138  0.30184600  1
  O  O9  1  0.21490129  0.06750405  0.81245232  1
  O  O10  1  0.21750979  0.39754375  0.81238696  1
  O  O11  1  0.17833681  0.72476525  0.80333750  1
  O  O12  1  0.97575665  0.26141212  0.81286970  1
  O  O13  1  0.99553906  0.60607677  0.80328972  1
  O  O14  1  0.98111119  0.92910175  0.80880673  1
  O  O15  1  0.80311416  0.00632697  0.81341674  1
  O  O16  1  0.81262462  0.34240744  0.80869649  1
  O  O17  1  0.81566131  0.66667119  0.80610762  1
  O  O18  1  0.81370271  0.33052937  0.69391657  1
  O  O19  1  0.78554266  0.65965063  0.69208762  1
  O  O20  1  0.80923073  0.99119564  0.70060597  1
  O  O21  1  0.17031281  0.05978037  0.69917104  1
  O  O22  1  0.17505991  0.39165783  0.69908748  1
  O  O23  1  0.20368630  0.74277270  0.69016643  1
  O  O24  1  0.99664381  0.27259309  0.69925881  1
  O  O25  1  0.02111439  0.60428269  0.68966276  1
  O  O26  1  0.02684032  0.94063037  0.69413763  1
  O  O27  1  0.78493277  0.26832103  0.19128096  1
  O  O28  1  0.79584393  0.60811598  0.19375409  1
  O  O29  1  0.79979472  0.93894253  0.19798378  1
  O  O30  1  0.00460067  0.05808163  0.20219551  1
  O  O31  1  0.02246132  0.40104128  0.19626862  1
  O  O32  1  0.04537589  0.74573357  0.19150494  1
  O  O33  1  0.18370428  0.32449750  0.19720541  1
  O  O34  1  0.20053572  0.66328853  0.19107707  1
  O  O35  1  0.17615979  0.99127442  0.19191930  1
  O  O36  1  0.88037956  0.11708556  0.64616149  1
  O  O37  1  0.90048925  0.46142165  0.64031854  1
  O  O38  1  0.89094306  0.78720562  0.64022714  1
  O  O39  1  0.46760108  0.03942883  0.64497892  1
  O  O40  1  0.47989875  0.37364976  0.63981269  1
  O  O41  1  0.47870015  0.70223463  0.63962936  1
  O  O42  1  0.65633771  0.17865822  0.64648500  1
  O  O43  1  0.63694512  0.51338677  0.64576751  1
  O  O44  1  0.63947968  0.83796174  0.64202181  1
  O  O45  1  0.89722495  0.17816459  0.14177980  1
  O  O46  1  0.86481744  0.50408711  0.13504010  1
  O  O47  1  0.87035556  0.83561232  0.13552847  1
  O  O48  1  0.63711788  0.04347192  0.13359980  1
  O  O49  1  0.64889447  0.38057134  0.13387142  1
  O  O50  1  0.62331111  0.70219216  0.13920689  1
  O  O51  1  0.48131029  0.12474791  0.13833057  1
  O  O52  1  0.49725627  0.45347129  0.13474019  1
  O  O53  1  0.46609112  0.78514322  0.14402296  1
  O  O54  1  0.43208839  0.09403645  0.02618529  1
  O  O55  1  0.45334406  0.43863315  0.02056927  1
  O  O56  1  0.45284485  0.76971983  0.03126887  1
  O  O57  1  0.85362154  0.18196378  0.02675347  1
  O  O58  1  0.86566223  0.51623675  0.02181791  1
  O  O59  1  0.85969544  0.85579346  0.02271263  1
  O  O60  1  0.69795305  0.04214114  0.02097255  1
  O  O61  1  0.67741075  0.37699193  0.02023843  1
  O  O62  1  0.69381559  0.71762449  0.02469957  1
  O  O63  1  0.46881153  0.05163646  0.53177795  1
  O  O64  1  0.43520678  0.37723004  0.52487155  1
  O  O65  1  0.46089710  0.71679292  0.52476246  1
  O  O66  1  0.68478121  0.17511565  0.53270983  1
  O  O67  1  0.69601032  0.51188169  0.53295867  1
  O  O68  1  0.70838932  0.85319213  0.52758624  1
  O  O69  1  0.83607956  0.10215182  0.53202705  1
  O  O70  1  0.85140179  0.43083952  0.52808022  1
  O  O71  1  0.85639222  0.76514618  0.52824963  1
  O  O72  1  0.51968886  0.22515795  0.97272449  1
  O  O73  1  0.52413069  0.56435756  0.96613325  1
  O  O74  1  0.54615862  0.89516159  0.97484681  1
  O  O75  1  0.15823777  0.16394453  0.96752177  1
  O  O76  1  0.16297287  0.49583481  0.96751410  1
  O  O77  1  0.13081391  0.81258676  0.97682276  1
  O  O78  1  0.33656739  0.28292754  0.96746139  1
  O  O79  1  0.30637749  0.61492944  0.97273118  1
  O  O80  1  0.31281807  0.95155005  0.97671769  1
  O  O81  1  0.54797703  0.28742432  0.47546567  1
  O  O82  1  0.53477473  0.61585473  0.47001109  1
  O  O83  1  0.53518454  0.94745318  0.47327303  1
  O  O84  1  0.31104145  0.15448468  0.47040478  1
  O  O85  1  0.32725451  0.49680542  0.46454001  1
  O  O86  1  0.30336986  0.81192998  0.47521067  1
  O  O87  1  0.15038818  0.23158244  0.46936998  1
  O  O88  1  0.16139626  0.56578865  0.47381846  1
  O  O89  1  0.12944211  0.89299806  0.47822879  1
  O  O90  1  0.09546294  0.20469213  0.35717178  1
  O  O91  1  0.12522839  0.54926395  0.36124846  1
  O  O92  1  0.15561722  0.89081792  0.36513354  1
  O  O93  1  0.52215277  0.29332241  0.36094249  1
  O  O94  1  0.52874675  0.62571407  0.35543531  1
  O  O95  1  0.51510009  0.95751322  0.36086945  1
  O  O96  1  0.38011254  0.15758693  0.35797199  1
  O  O97  1  0.34809521  0.48799402  0.35262590  1
  O  O98  1  0.34434654  0.83312775  0.36242651  1
  O  O99  1  0.11540433  0.15796797  0.85430294  1
  O  O100  1  0.11867312  0.48823246  0.85425907  1
  O  O101  1  0.15510984  0.83082401  0.86354922  1
  O  O102  1  0.35775802  0.29418470  0.85380906  1
  O  O103  1  0.35308810  0.62673782  0.85814255  1
  O  O104  1  0.33777133  0.94956064  0.86325137  1
  O  O105  1  0.52117875  0.21336945  0.85794108  1
  O  O106  1  0.53013628  0.54924855  0.85331262  1
  O  O107  1  0.51718928  0.88883531  0.86067027  1
  O  O108  1  0.00668424  0.27273113  0.40912727  1
  O  O109  1  0.03141018  0.61317475  0.41402638  1
  O  O110  1  0.01187100  0.94212141  0.41422438  1
  O  O111  1  0.81265441  0.32866432  0.41341104  1
  O  O112  1  0.81101022  0.65750960  0.41044577  1
  O  O113  1  0.80766236  0.99690511  0.41455504  1
  O  O114  1  0.17752771  0.06286956  0.41366854  1
  O  O115  1  0.16663706  0.39952707  0.41813914  1
  O  O116  1  0.17084746  0.72880550  0.40318100  1
  O  O117  1  0.03283294  0.06790947  0.91923927  1
  O  O118  1  0.03580104  0.39972193  0.92040324  1
  O  O119  1  0.01495952  0.72868005  0.90652372  1
  O  O120  1  0.16844638  0.32165664  0.91811515  1
  O  O121  1  0.16166856  0.65815489  0.91148308  1
  O  O122  1  0.17002445  0.99196664  0.91454666  1
  O  O123  1  0.79875527  0.27673526  0.91867815  1
  O  O124  1  0.80513654  0.61253618  0.91219457  1
  O  O125  1  0.80880785  0.94430580  0.91308270  1
  O  O126  1  0.96802726  0.05362818  0.59201655  1
  O  O127  1  0.98926076  0.39153802  0.59418280  1
  O  O128  1  0.99356395  0.72386641  0.58861010  1
  O  O129  1  0.18714264  0.00986967  0.58890132  1
  O  O130  1  0.18414388  0.33709520  0.59397384  1
  O  O131  1  0.19000056  0.66919830  0.58433313  1
  O  O132  1  0.83657323  0.27133054  0.58722902  1
  O  O133  1  0.81731952  0.60582520  0.58447719  1
  O  O134  1  0.83512411  0.93646860  0.59597039  1
  O  O135  1  0.98787960  0.27218084  0.08488387  1
  O  O136  1  0.00804173  0.60486892  0.08732165  1
  O  O137  1  0.97523307  0.93756151  0.09366161  1
  O  O138  1  0.83083953  0.00444822  0.09368997  1
  O  O139  1  0.81502627  0.33494255  0.08699025  1
  O  O140  1  0.82381129  0.67244917  0.08640186  1
  O  O141  1  0.18166248  0.05711590  0.09473808  1
  O  O142  1  0.19412903  0.39498246  0.08940258  1
  O  O143  1  0.18002929  0.72350925  0.08704509  1
  O  O144  1  0.68852581  0.05258282  0.74566536  1
  O  O145  1  0.69285050  0.38864638  0.74365841  1
  O  O146  1  0.68513051  0.71942423  0.75366614  1
  O  O147  1  0.47564682  0.10700303  0.74736457  1
  O  O148  1  0.47472144  0.43690100  0.74645318  1
  O  O149  1  0.46851917  0.76969844  0.75543800  1
  O  O150  1  0.83798577  0.17373398  0.74998988  1
  O  O151  1  0.83614596  0.51174372  0.75153736  1
  O  O152  1  0.84461416  0.84270007  0.74445390  1
  O  O153  1  0.68283493  0.17207043  0.24682349  1
  O  O154  1  0.69265768  0.50811702  0.24143563  1
  O  O155  1  0.66984205  0.84023846  0.24726821  1
  O  O156  1  0.84197188  0.10592955  0.24699707  1
  O  O157  1  0.83217037  0.43797836  0.23709134  1
  O  O158  1  0.83306565  0.76571582  0.25131824  1
  O  O159  1  0.47004721  0.05240067  0.24028244  1
  O  O160  1  0.48601900  0.39023644  0.23881741  1
  O  O161  1  0.46631985  0.72094763  0.25589061  1
  O  O162  1  0.64066979  0.16704247  0.92302840  1
  O  O163  1  0.64482792  0.50296406  0.92107740  1
  O  O164  1  0.64653570  0.83571650  0.91294197  1
  O  O165  1  0.85848650  0.11866874  0.92030964  1
  O  O166  1  0.85777022  0.44859993  0.91931036  1
  O  O167  1  0.86512500  0.78572284  0.91152835  1
  O  O168  1  0.49745122  0.04399849  0.91495903  1
  O  O169  1  0.49541496  0.38181656  0.91673194  1
  O  O170  1  0.48778691  0.71309286  0.92297968  1
  O  O171  1  0.64005668  0.04735043  0.42525187  1
  O  O172  1  0.65089507  0.38360019  0.41975588  1
  O  O173  1  0.65038735  0.71314753  0.42004161  1
  O  O174  1  0.50130020  0.11760957  0.42966704  1
  O  O175  1  0.49133628  0.44943822  0.41995403  1
  O  O176  1  0.49135018  0.78560042  0.41030359  1
  O  O177  1  0.84776177  0.16539178  0.42796274  1
  O  O178  1  0.86399557  0.50355246  0.42631972  1
  O  O179  1  0.86077875  0.83453684  0.41408438  1
  O  O180  1  0.34302366  0.16382111  0.07227242  1
  O  O181  1  0.36536362  0.50199969  0.07482624  1
  O  O182  1  0.34398551  0.83199371  0.08154832  1
  O  O183  1  0.14910424  0.21843785  0.07280538  1
  O  O184  1  0.14621886  0.54571471  0.07791146  1
  O  O185  1  0.14548269  0.88732492  0.07986961  1
  O  O186  1  0.49660050  0.28426081  0.07948016  1
  O  O187  1  0.49808100  0.61911368  0.07099557  1
  O  O188  1  0.51472124  0.94976499  0.08171335  1
  O  O189  1  0.34535395  0.28330981  0.58188742  1
  O  O190  1  0.35684954  0.61732126  0.57314423  1
  O  O191  1  0.32591389  0.95085892  0.57949061  1
  O  O192  1  0.51830149  0.22060183  0.57973567  1
  O  O193  1  0.50102469  0.54998455  0.57344156  1
  O  O194  1  0.50937569  0.88342956  0.58072460  1
  O  O195  1  0.13914909  0.16060289  0.57729716  1
  O  O196  1  0.15014962  0.49810020  0.57158809  1
  O  O197  1  0.15209048  0.83189323  0.57869443  1
  O  O198  1  0.32645680  0.28282287  0.25741334  1
  O  O199  1  0.32040573  0.61282036  0.25256510  1
  O  O200  1  0.30675421  0.94416515  0.25368003  1
  O  O201  1  0.52020712  0.22674970  0.25326570  1
  O  O202  1  0.52451520  0.55848906  0.25240808  1
  O  O203  1  0.51624167  0.89634498  0.25537400  1
  O  O204  1  0.16624896  0.15557742  0.24845927  1
  O  O205  1  0.15566158  0.49260539  0.25279098  1
  O  O206  1  0.16081166  0.82543015  0.26441835  1
  O  O207  1  0.29773410  0.15593668  0.74630049  1
  O  O208  1  0.30038217  0.48763687  0.74748910  1
  O  O209  1  0.31870453  0.82687421  0.76033171  1
  O  O210  1  0.16503388  0.23396079  0.74852549  1
  O  O211  1  0.16346838  0.56378326  0.75198173  1
  O  O212  1  0.17115456  0.89725868  0.75537610  1
  O  O213  1  0.53485724  0.27895368  0.74800321  1
  O  O214  1  0.52331488  0.61097486  0.75386419  1
  O  O215  1  0.52817420  0.94307114  0.75463144  1
loop_
_geom_bond_atom_site_label_1
_geom_bond_atom_site_label_2
_geom_bond_distance
_geom_bond_site_symmetry_2
Na0 O114 2.275996 1_555
Na0 O110 2.343547 1_545
Na0 O113 2.502112 1_445
Na0 O129 2.590361 1_555
Na0 O126 2.777372 1_455
Na0 O134 2.906632 1_445
Na1 O115 2.328979 1_555
Na1 O108 2.409953 1_555
Na1 O111 2.458086 1_455
Na1 O132 2.638420 1_455
Na1 O130 2.714237 1_555
Na1 O127 2.845631 1_455
Na2 O128 2.317199 1_555
Na2 O133 2.361043 1_555
Na2 O131 2.515884 1_655
Na2 O112 2.575698 1_555
Na2 O109 2.696094 1_655
Na2 O116 2.812177 1_655
Na3 O117 2.298553 1_655
Na3 O125 2.425327 1_545
Na3 O122 2.457606 1_645
Na3 O138 2.685290 1_556
Na3 O141 2.733698 1_656
Na3 O137 2.776402 1_546
Na4 O135 2.377620 1_455
Na4 O142 2.393575 1_555
Na4 O139 2.496375 1_455
Na4 O118 2.498128 1_554
Na4 O120 2.569485 1_554
Na4 O123 2.688285 1_454
Na5 O136 2.313338 1_655
Na5 O143 2.373374 1_655
Na5 O140 2.405521 1_555
Na5 O121 2.677009 1_654
Na5 O124 2.680628 1_554
Na5 O119 2.884975 1_654
Na6 O147 2.423362 1_555
Na6 O168 2.442338 1_555
Na6 O144 2.477101 1_555
Na6 O150 2.481789 1_555
Na6 O165 2.643390 1_555
Na6 O162 2.671514 1_555
Na7 O166 2.424335 1_555
Na7 O151 2.450520 1_555
Na7 O163 2.479019 1_555
Na7 O169 2.479549 1_555
Na7 O148 2.641445 1_555
Na7 O145 2.668387 1_555
Na8 O149 2.412471 1_555
Na8 O167 2.421860 1_555
Na8 O164 2.421934 1_555
Na8 O146 2.423667 1_555
Na8 O152 2.576984 1_555
Na8 O170 2.603822 1_555
Na9 O156 2.334010 1_555
Na9 O159 2.350949 1_555
Na9 O153 2.401206 1_555
Na9 O171 2.711897 1_555
Na9 O174 2.889102 1_555
Na9 O177 2.925436 1_555
Na10 O175 2.336036 1_555
Na10 O178 2.371331 1_555
Na10 O172 2.390664 1_555
Na10 O154 2.715161 1_555
Na10 O157 2.884151 1_555
Na10 O160 2.905660 1_555
Na11 O179 2.322190 1_555
Na11 O158 2.364888 1_555
Na11 O155 2.502144 1_555
Na11 O161 2.534041 1_555
Na11 O176 2.537221 1_555
Na11 O173 2.598023 1_555
Na12 O204 2.325306 1_555
Na12 O198 2.416741 1_555
Na12 O201 2.454004 1_555
Na12 O186 2.644689 1_555
Na12 O183 2.714254 1_555
Na12 O180 2.841882 1_555
Na13 O205 2.277948 1_555
Na13 O199 2.360093 1_555
Na13 O202 2.505206 1_555
Na13 O184 2.579040 1_555
Na13 O181 2.751278 1_555
Na13 O187 2.895499 1_555
Na14 O188 2.340025 1_555
Na14 O182 2.403495 1_555
Na14 O185 2.420240 1_555
Na14 O200 2.588727 1_555
Na14 O203 2.638130 1_555
Na14 O206 2.868087 1_555
Na15 O189 2.379529 1_555
Na15 O195 2.387895 1_555
Na15 O207 2.493609 1_555
Na15 O192 2.493915 1_555
Na15 O210 2.571981 1_555
Na15 O213 2.695241 1_555
Na16 O208 2.293562 1_555
Na16 O214 2.409544 1_555
Na16 O211 2.445046 1_555
Na16 O193 2.691073 1_555
Na16 O196 2.761236 1_555
Na16 O190 2.773767 1_555
Na17 O191 2.299432 1_555
Na17 O197 2.377819 1_555
Na17 O194 2.388966 1_555
Na17 O212 2.689518 1_555
Na17 O215 2.700524 1_555
Na17 O209 2.901864 1_555
Na18 O201 2.374195 1_555
Na18 O93 2.394145 1_555
Na18 O198 2.470369 1_555
Na18 O157 2.649647 1_555
Na18 O7 2.696938 1_555
Na18 O160 2.735846 1_555
Na19 O199 2.345794 1_555
Na19 O158 2.401349 1_555
Na19 O161 2.498999 1_555
Na19 O50 2.552400 1_555
Na19 O202 2.578397 1_555
Na19 O94 2.606422 1_555
Na20 O201 2.388068 1_555
Na20 O204 2.416221 1_555
Na20 O153 2.416276 1_555
Na20 O96 2.435706 1_555
Na20 O159 2.511759 1_555
Na20 O51 2.754274 1_555
Na20 O0 2.931588 1_555
Na21 O97 2.293330 1_555
Na21 O205 2.446357 1_555
Na21 O202 2.478752 1_555
Na21 O160 2.596546 1_555
Na21 O1 2.657681 1_555
Na21 O154 2.730679 1_555
Na21 O31 2.876326 1_555
Na22 O53 2.255213 1_555
Na22 O161 2.368520 1_555
Na22 O155 2.381478 1_555
Na22 O203 2.616494 1_555
Na22 O206 2.633622 1_555
Na22 O32 2.730646 1_555
Na23 O156 2.461132 1_555
Na23 O153 2.485286 1_555
Na23 O45 2.523458 1_555
Na23 O90 2.600613 1_655
Na23 O198 2.612139 1_655
Na23 O204 2.621579 1_655
Na23 O33 2.873881 1_655
Na23 O3 2.943965 1_555
Na24 O147 2.358375 1_555
Na24 O213 2.417965 1_555
Na24 O42 2.476035 1_555
Na24 O150 2.525376 1_555
Na24 O207 2.548713 1_555
Na24 O105 2.601643 1_555
Na25 O43 2.355152 1_555
Na25 O151 2.441070 1_555
Na25 O148 2.445765 1_555
Na25 O214 2.449546 1_555
Na25 O208 2.512410 1_555
Na25 O106 2.570163 1_555
Na26 O152 2.357780 1_555
Na26 O44 2.424944 1_555
Na26 O149 2.455775 1_555
Na26 O215 2.559453 1_555
Na26 O209 2.569714 1_555
Na27 O150 2.370532 1_455
Na27 O207 2.390962 1_555
Na27 O36 2.491065 1_455
Na27 O144 2.503225 1_455
Na27 O99 2.503399 1_555
Na27 O210 2.506574 1_555
Na28 O100 2.397964 1_655
Na28 O145 2.425640 1_555
Na28 O208 2.452376 1_655
Na28 O211 2.490118 1_655
Na28 O151 2.521658 1_555
Na28 O37 2.714227 1_555
Na28 O16 2.922576 1_555
Na29 O210 2.410371 1_555
Na29 O145 2.428603 1_555
Na29 O148 2.469805 1_555
Na29 O213 2.475945 1_555
Na29 O102 2.495921 1_555
Na29 O40 2.626006 1_555
Na30 O146 2.384963 1_555
Na30 O214 2.438456 1_555
Na30 O149 2.471990 1_555
Na30 O211 2.478903 1_555
Na30 O41 2.540698 1_555
Na30 O103 2.651309 1_555
Na31 O128 2.404395 1_455
Na31 O197 2.405888 1_555
Na31 O194 2.486992 1_555
Na31 O86 2.525797 1_555
Na31 O23 2.557649 1_555
Na31 O131 2.602034 1_555
Na32 O131 2.402326 1_555
Na32 O25 2.418364 1_555
Na32 O133 2.468586 1_455
Na32 O190 2.717418 1_555
Na32 O196 2.725798 1_555
Na32 O37 2.731668 1_455
Na32 O67 2.774355 1_455
Na32 O88 2.896637 1_555
Na33 O89 2.329553 1_555
Na33 O191 2.392129 1_555
Na33 O197 2.418207 1_555
Na33 O134 2.569207 1_455
Na33 O68 2.683205 1_455
Na33 O129 2.791141 1_565
Na33 O38 2.836468 1_455
Na33 O26 2.954857 1_555
Na34 O81 2.305795 1_555
Na34 O192 2.368971 1_555
Na34 O189 2.409943 1_555
Na34 O132 2.665066 1_555
Na34 O127 2.725822 1_555
Na34 O70 2.743514 1_555
Na35 O128 2.413826 1_555
Na35 O19 2.431957 1_555
Na35 O133 2.435621 1_555
Na35 O190 2.604977 1_555
Na35 O71 2.723404 1_555
Na35 O193 2.724140 1_555
Na35 O41 2.730870 1_555
Na36 O34 2.386762 1_555
Na36 O136 2.393213 1_555
Na36 O143 2.423935 1_555
Na36 O187 2.569163 1_555
Na36 O50 2.662401 1_555
Na36 O184 2.797479 1_555
Na36 O56 2.808205 1_555
Na36 O79 2.965505 1_554
Na37 O185 2.400594 1_555
Na37 O80 2.431077 1_554
Na37 O188 2.471858 1_555
Na37 O141 2.708115 1_565
Na37 O54 2.708980 1_565
Na37 O137 2.731313 1_455
Na37 O48 2.766514 1_565
Na37 O35 2.868126 1_555
Na38 O27 2.307052 1_555
Na38 O139 2.380395 1_555
Na38 O135 2.414458 1_555
Na38 O186 2.672262 1_555
Na38 O180 2.728414 1_555
Na38 O51 2.729078 1_555
Na39 O182 2.394190 1_555
Na39 O188 2.414482 1_555
Na39 O74 2.414715 1_554
Na39 O137 2.595792 1_555
Na39 O138 2.667056 1_565
Na39 O59 2.782331 1_555
Na40 O143 2.417824 1_555
Na40 O182 2.427153 1_555
Na40 O140 2.502375 1_455
Na40 O77 2.529193 1_554
Na40 O32 2.557490 1_555
Na40 O185 2.600149 1_555
Na40 O47 2.865439 1_455
Na40 O62 2.955612 1_455
Na41 O120 2.415011 1_655
Na41 O162 2.425336 1_555
Na41 O165 2.465734 1_555
Na41 O123 2.478917 1_555
Na41 O12 2.501591 1_555
Na41 O57 2.617775 1_556
Na42 O164 2.402149 1_555
Na42 O125 2.432514 1_555
Na42 O59 2.440921 1_556
Na42 O122 2.471870 1_655
Na42 O167 2.486913 1_555
Na42 O14 2.636701 1_555
Na43 O60 2.352520 1_556
Na43 O168 2.443443 1_555
Na43 O165 2.446573 1_555
Na43 O125 2.447303 1_545
Na43 O117 2.511164 1_655
Na43 O15 2.569309 1_555
Na44 O166 2.362519 1_555
Na44 O123 2.415566 1_555
Na44 O61 2.477724 1_556
Na44 O169 2.523991 1_555
Na44 O118 2.553271 1_655
Na44 O16 2.602762 1_555
Na45 O170 2.365369 1_555
Na45 O62 2.428862 1_556
Na45 O167 2.446215 1_555
Na45 O124 2.563242 1_555
Na45 O119 2.571471 1_655
Na46 O9 2.400341 1_555
Na46 O162 2.427262 1_555
Na46 O117 2.453770 1_555
Na46 O122 2.483764 1_545
Na46 O168 2.517128 1_555
Na46 O54 2.703815 1_556
Na46 O105 2.931098 1_555
Na47 O169 2.368982 1_555
Na47 O118 2.389242 1_555
Na47 O55 2.495909 1_556
Na47 O10 2.500463 1_555
Na47 O120 2.501197 1_555
Na47 O163 2.505904 1_555
Na48 O6 2.286001 1_555
Na48 O114 2.439621 1_655
Na48 O113 2.466037 1_545
Na48 O177 2.607987 1_555
Na48 O90 2.673856 1_655
Na48 O171 2.729070 1_555
Na48 O84 2.889559 1_655
Na49 O111 2.379468 1_555
Na49 O172 2.407051 1_555
Na49 O115 2.417474 1_655
Na49 O7 2.433308 1_555
Na49 O178 2.523895 1_555
Na49 O70 2.744254 1_555
Na50 O175 2.472816 1_555
Na50 O172 2.492900 1_555
Na50 O64 2.525358 1_555
Na50 O1 2.602928 1_555
Na50 O108 2.604529 1_555
Na50 O115 2.623617 1_555
Na50 O87 2.847156 1_555
Na50 O93 2.931953 1_555
Na51 O173 2.344155 1_555
Na51 O176 2.399278 1_555
Na51 O65 2.453511 1_555
Na51 O116 2.561809 1_555
Na51 O109 2.589564 1_555
Na52 O111 2.380544 1_555
Na52 O3 2.396301 1_555
Na52 O108 2.473100 1_655
Na52 O174 2.639979 1_555
Na52 O96 2.680893 1_555
Na52 O177 2.733236 1_555
Na53 O110 2.367779 1_655
Na53 O179 2.463750 1_555
Na53 O176 2.487874 1_555
Na53 O5 2.537891 1_555
Na53 O68 2.581662 1_555
Na53 O113 2.581862 1_555
O0 P0 1.505453 1_555
O0 Zn0 1.987112 1_545
O1 P1 1.550024 1_555
O1 Zn1 2.118955 1_455
O2 P2 1.617123 1_555
O2 Ta0 1.948495 1_455
O3 P3 1.553758 1_555
O3 Zn1 2.022181 1_555
O4 P4 1.603921 1_555
O4 Ta0 1.969141 1_555
O5 P5 1.514460 1_555
O5 Zn0 2.065544 1_655
O6 P6 1.522412 1_555
O6 Zn0 2.072810 1_645
O7 P7 1.550898 1_655
O7 Zn1 2.089154 1_555
O8 P8 1.603828 1_655
O8 Ta0 1.963394 1_555
O9 P9 1.528967 1_555
O9 Zn2 2.000719 1_555
O10 P10 1.530259 1_555
O10 Zn3 2.052239 1_455
O11 P11 1.582985 1_555
O11 Ta1 1.959837 1_455
O12 P12 1.530105 1_555
O12 Zn3 2.036911 1_555
O13 P13 1.612510 1_655
O13 Ta1 1.932892 1_555
O14 P14 1.525767 1_655
O14 Zn2 2.029896 1_665
O15 P15 1.524095 1_555
O15 Zn2 2.038662 1_655
O16 P16 1.536818 1_555
O16 Zn3 2.055872 1_555
O17 P17 1.607297 1_555
O17 Ta1 1.977526 1_555
O18 P16 1.602514 1_555
O18 Ta3 1.992575 1_655
O19 P17 1.532127 1_555
O19 Zn4 2.017711 1_655
O20 P15 1.585178 1_565
O20 Ta2 2.019969 1_665
O21 P9 1.614466 1_555
O21 Ta2 1.933785 1_555
O22 P10 1.599278 1_555
O22 Ta3 1.949614 1_555
O23 P11 1.513890 1_555
O23 Zn4 2.049095 1_555
O24 P12 1.608978 1_555
O24 Ta3 1.926100 1_655
O25 P13 1.533038 1_555
O25 Zn4 2.043150 1_555
O26 P14 1.579831 1_555
O26 Ta2 2.061342 1_565
O27 P3 1.538093 1_555
O27 Zn5 2.098198 1_655
O28 P4 1.503045 1_555
O28 Zn6 1.979104 1_655
O29 P5 1.591391 1_555
O29 Ta4 1.984788 1_555
O30 P6 1.623027 1_455
O30 Ta4 1.907602 1_445
O31 P7 1.513044 1_555
O31 Zn5 2.017393 1_555
O32 P8 1.520304 1_555
O32 Zn6 2.155408 1_555
O33 P1 1.510366 1_555
O33 Zn5 2.019575 1_555
O34 P2 1.520712 1_555
O34 Zn6 2.055680 1_555
O35 P0 1.587280 1_565
O35 Ta4 2.006210 1_455
O36 P18 1.515891 1_555
O36 Zn7 2.059771 1_555
O37 P19 1.535427 1_555
O37 Zn8 2.155011 1_555
O38 P20 1.532901 1_555
O38 Zn9 1.938541 1_555
O39 P21 1.506195 1_555
O39 Zn7 1.986526 1_555
O40 P22 1.537993 1_555
O40 Zn8 1.997584 1_555
O41 P23 1.539526 1_555
O41 Zn9 2.140823 1_555
O42 P24 1.513585 1_555
O42 Zn7 2.050648 1_555
O43 P25 1.533694 1_555
O43 Zn8 2.074010 1_555
O44 P26 1.543644 1_555
O44 Zn9 2.086451 1_555
O45 P27 1.530864 1_555
O45 Zn10 2.049298 1_555
O46 P28 1.586482 1_555
O46 Ta5 1.960808 1_555
O47 P29 1.522150 1_555
O47 Zn11 1.997712 1_555
O48 P30 1.519001 1_555
O48 Zn10 1.995148 1_555
O49 P31 1.599905 1_555
O49 Ta5 1.973167 1_555
O50 P32 1.546785 1_555
O50 Zn11 2.113298 1_555
O51 P33 1.523626 1_555
O51 Zn10 2.156940 1_555
O52 P34 1.596803 1_555
O52 Ta5 2.001953 1_555
O53 P35 1.551520 1_555
O53 Zn11 2.047941 1_555
O54 P33 1.537364 1_555
O54 Zn12 2.156998 1_554
O55 P34 1.518330 1_555
O55 Zn13 2.059150 1_554
O56 P35 1.527592 1_555
O56 Zn14 1.945623 1_554
O57 P27 1.538255 1_555
O57 Zn12 2.000689 1_554
O58 P28 1.505008 1_555
O58 Zn13 1.991525 1_554
O59 P29 1.543408 1_555
O59 Zn14 2.133311 1_554
O60 P30 1.533116 1_555
O60 Zn12 2.075950 1_554
O61 P31 1.513224 1_555
O61 Zn13 2.049513 1_554
O62 P32 1.542453 1_555
O62 Zn14 2.102294 1_554
O63 P21 1.588804 1_555
O63 Ta6 1.957710 1_555
O64 P22 1.531049 1_555
O64 Zn15 2.040808 1_555
O65 P23 1.537297 1_555
O65 Zn16 2.139482 1_555
O66 P24 1.597656 1_555
O66 Ta6 1.979274 1_555
O67 P25 1.518763 1_555
O67 Zn15 1.997276 1_555
O68 P26 1.545133 1_555
O68 Zn16 2.119915 1_555
O69 P18 1.596605 1_555
O69 Ta6 2.002364 1_555
O70 P19 1.523123 1_555
O70 Zn15 2.151315 1_555
O71 P20 1.537812 1_555
O71 Zn16 1.950485 1_555
O72 P36 1.603303 1_555
O72 Ta7 1.993019 1_556
O73 P37 1.585097 1_555
O73 Ta8 2.017130 1_556
O74 P38 1.532634 1_555
O74 Zn17 2.013995 1_556
O75 P39 1.600514 1_555
O75 Ta7 1.946300 1_556
O76 P40 1.613981 1_555
O76 Ta8 1.932067 1_556
O77 P41 1.514474 1_555
O77 Zn17 2.054500 1_556
O78 P42 1.608508 1_555
O78 Ta7 1.928844 1_556
O79 P43 1.579192 1_555
O79 Ta8 2.058648 1_556
O80 P44 1.528576 1_555
O80 Zn17 2.049413 1_556
O81 P45 1.537475 1_555
O81 Zn18 2.104203 1_555
O82 P46 1.594168 1_555
O82 Ta9 1.992327 1_555
O83 P47 1.501460 1_555
O83 Zn19 1.984052 1_555
O84 P48 1.511543 1_555
O84 Zn18 2.013211 1_555
O85 P49 1.622763 1_555
O85 Ta9 1.908118 1_555
O86 P50 1.511596 1_555
O86 Zn19 2.117494 1_555
O87 P51 1.509828 1_555
O87 Zn18 2.020023 1_555
O88 P52 1.592836 1_555
O88 Ta9 2.026338 1_555
O89 P53 1.518093 1_555
O89 Zn19 2.031625 1_555
O90 P51 1.551092 1_555
O90 Zn20 2.115970 1_555
O91 P52 1.508435 1_555
O91 Zn21 1.999723 1_555
O92 P53 1.619044 1_555
O92 Ta10 1.908642 1_555
O93 P45 1.553392 1_555
O93 Zn20 2.027834 1_555
O94 P46 1.521735 1_555
O94 Zn21 2.067180 1_555
O95 P47 1.606366 1_555
O95 Ta10 1.963108 1_555
O96 P48 1.550541 1_555
O96 Zn20 2.080786 1_555
O97 P49 1.523716 1_555
O97 Zn21 2.056390 1_555
O98 P50 1.585860 1_555
O98 Ta10 2.002684 1_555
O99 P39 1.528965 1_555
O99 Zn22 2.051753 1_555
O100 P40 1.530973 1_555
O100 Zn23 1.999537 1_555
O101 P41 1.581148 1_555
O101 Ta11 1.965331 1_555
O102 P42 1.528741 1_555
O102 Zn22 2.041001 1_555
O103 P43 1.528299 1_555
O103 Zn23 2.032546 1_555
O104 P44 1.613837 1_555
O104 Ta11 1.930325 1_555
O105 P36 1.535596 1_555
O105 Zn22 2.056107 1_555
O106 P37 1.527197 1_555
O106 Zn23 2.038409 1_555
O107 P38 1.606544 1_555
O107 Ta11 1.977961 1_555
O108 P51 1.541640 1_555
O108 Zn1 2.238696 1_455
O109 P52 1.598457 1_555
O109 Ta0 2.051638 1_455
O110 P53 1.534933 1_555
O110 Zn0 2.127511 1_555
O111 P45 1.562481 1_555
O111 Zn1 2.221177 1_555
O112 P46 1.583115 1_555
O112 Ta0 2.038464 1_555
O113 P47 1.528454 1_555
O113 Zn0 2.273379 1_655
O114 P48 1.526219 1_555
O114 Zn0 2.166635 1_545
O115 P49 1.542375 1_555
O115 Zn1 2.324965 1_455
O116 P50 1.595418 1_555
O116 Ta0 2.033631 1_455
O117 P39 1.541606 1_555
O117 Zn2 2.322362 1_555
O118 P40 1.547896 1_555
O118 Zn3 2.239856 1_455
O119 P41 1.582031 1_555
O119 Ta1 2.019415 1_455
O120 P42 1.542229 1_555
O120 Zn3 2.247671 1_455
O121 P43 1.592154 1_555
O121 Ta1 2.026006 1_455
O122 P44 1.537161 1_555
O122 Zn2 2.203192 1_565
O123 P36 1.544677 1_555
O123 Zn3 2.238202 1_555
O124 P37 1.597681 1_555
O124 Ta1 2.058877 1_555
O125 P38 1.548454 1_555
O125 Zn2 2.201689 1_665
O126 P18 1.611752 1_555
O126 Ta2 1.980463 1_655
O127 P19 1.573267 1_555
O127 Ta3 2.064683 1_655
O128 P20 1.559211 1_555
O128 Zn4 2.056670 1_655
O129 P21 1.610108 1_555
O129 Ta2 2.012157 1_555
O130 P22 1.602584 1_555
O130 Ta3 1.950702 1_555
O131 P23 1.539152 1_555
O131 Zn4 2.292861 1_555
O132 P24 1.604872 1_555
O132 Ta3 2.061809 1_655
O133 P25 1.541050 1_555
O133 Zn4 2.292634 1_655
O134 P26 1.615154 1_555
O134 Ta2 1.989649 1_665
O135 P27 1.532385 1_555
O135 Zn5 2.150925 1_655
O136 P28 1.514902 1_455
O136 Zn6 2.207227 1_555
O137 P29 1.617969 1_555
O137 Ta4 2.035891 1_555
O138 P30 1.613244 1_555
O138 Ta4 1.974988 1_545
O139 P31 1.515232 1_555
O139 Zn5 2.241833 1_655
O140 P32 1.529665 1_555
O140 Zn6 2.199147 1_655
O141 P33 1.590792 1_555
O141 Ta4 2.045297 1_445
O142 P34 1.504806 1_555
O142 Zn5 2.142341 1_555
O143 P35 1.553572 1_555
O143 Zn6 2.102722 1_555
O144 P15 1.509242 1_555
O144 Zn7 2.177409 1_555
O145 P16 1.543615 1_555
O145 Zn8 2.227889 1_555
O146 P17 1.529726 1_555
O146 Zn9 2.226242 1_555
O147 P9 1.526551 1_555
O147 Zn7 2.169710 1_555
O148 P10 1.539768 1_555
O148 Zn8 2.175897 1_555
O149 P11 1.525980 1_555
O149 Zn9 2.502300 1_555
O150 P12 1.534609 1_555
O150 Zn7 2.250931 1_555
O151 P13 1.532760 1_655
O151 Zn8 2.339781 1_555
O152 P14 1.525807 1_655
O152 Zn9 2.161665 1_555
O153 P3 1.561571 1_555
O153 Zn10 2.169590 1_555
O154 P4 1.581716 1_555
O154 Ta5 2.070299 1_555
O155 P5 1.523138 1_555
O155 Zn11 2.200204 1_555
O156 P6 1.521372 1_555
O156 Zn10 2.175745 1_555
O157 P7 1.613290 1_655
O157 Ta5 1.966035 1_555
O158 P8 1.520746 1_655
O158 Zn11 2.325110 1_555
O159 P0 1.517350 1_555
O159 Zn10 2.219413 1_555
O160 P1 1.629642 1_555
O160 Ta5 2.023153 1_555
O161 P2 1.547736 1_555
O161 Zn11 2.351073 1_555
O162 P36 1.542420 1_555
O162 Zn12 2.237011 1_555
O163 P37 1.510221 1_555
O163 Zn13 2.176272 1_555
O164 P38 1.531860 1_555
O164 Zn14 2.202332 1_555
O165 P39 1.539243 1_655
O165 Zn12 2.176785 1_555
O166 P40 1.525932 1_655
O166 Zn13 2.168707 1_555
O167 P41 1.528707 1_655
O167 Zn14 2.477979 1_555
O168 P44 1.533999 1_545
O168 Zn12 2.339399 1_555
O169 P42 1.535220 1_555
O169 Zn13 2.247362 1_555
O170 P43 1.526616 1_555
O170 Zn14 2.161714 1_555
O171 P47 1.583595 1_545
O171 Ta6 2.064972 1_555
O172 P45 1.563820 1_555
O172 Zn15 2.165916 1_555
O173 P46 1.519967 1_555
O173 Zn16 2.194538 1_555
O174 P48 1.614616 1_555
O174 Ta6 1.963872 1_555
O175 P49 1.520928 1_555
O175 Zn15 2.168457 1_555
O176 P50 1.531558 1_555
O176 Zn16 2.528223 1_555
O177 P51 1.628056 1_655
O177 Ta6 2.025648 1_555
O178 P52 1.515929 1_655
O178 Zn15 2.239957 1_555
O179 P53 1.539347 1_655
O179 Zn16 2.144688 1_555
O180 P33 1.576492 1_555
O180 Ta7 2.058469 1_555
O181 P34 1.610734 1_555
O181 Ta8 1.982780 1_555
O182 P35 1.559302 1_555
O182 Zn17 2.115329 1_555
O183 P27 1.603498 1_455
O183 Ta7 1.951134 1_555
O184 P28 1.607825 1_455
O184 Ta8 2.016393 1_555
O185 P29 1.542347 1_455
O185 Zn17 2.243938 1_555
O186 P31 1.602773 1_555
O186 Ta7 2.065684 1_555
O187 P32 1.611953 1_555
O187 Ta8 1.994236 1_555
O188 P30 1.544192 1_565
O188 Zn17 2.269837 1_555
O189 P22 1.532181 1_555
O189 Zn18 2.156440 1_555
O190 P23 1.623559 1_555
O190 Ta9 2.035248 1_555
O191 P21 1.508946 1_565
O191 Zn19 2.245563 1_555
O192 P24 1.515705 1_555
O192 Zn18 2.245631 1_555
O193 P25 1.615131 1_555
O193 Ta9 1.960887 1_555
O194 P26 1.527849 1_555
O194 Zn19 2.243221 1_555
O195 P18 1.504655 1_455
O195 Zn18 2.136910 1_555
O196 P19 1.593463 1_455
O196 Ta9 2.024430 1_555
O197 P20 1.551148 1_455
O197 Zn19 2.088641 1_555
O198 P1 1.541590 1_555
O198 Zn20 2.250707 1_555
O199 P2 1.528749 1_555
O199 Zn21 2.139797 1_555
O200 P0 1.595052 1_565
O200 Ta10 2.000582 1_555
O201 P3 1.563001 1_555
O201 Zn20 2.220238 1_555
O202 P4 1.529053 1_555
O202 Zn21 2.249496 1_555
O203 P5 1.604876 1_555
O203 Ta10 2.093634 1_555
O204 P6 1.544756 1_455
O204 Zn20 2.328182 1_555
O205 P7 1.524852 1_555
O205 Zn21 2.136472 1_555
O206 P8 1.577159 1_555
O206 Ta10 2.050844 1_555
O207 P9 1.549199 1_555
O207 Zn22 2.234637 1_555
O208 P10 1.541690 1_555
O208 Zn23 2.325205 1_555
O209 P11 1.581240 1_555
O209 Ta11 2.020980 1_555
O210 P12 1.540624 1_455
O210 Zn22 2.247987 1_555
O211 P13 1.536903 1_555
O211 Zn23 2.206972 1_555
O212 P14 1.593955 1_555
O212 Ta11 2.022619 1_555
O213 P16 1.542707 1_555
O213 Zn22 2.242643 1_555
O214 P17 1.550736 1_555
O214 Zn23 2.190034 1_555
O215 P15 1.600560 1_565
O215 Ta11 2.053971 1_555
