# generated using pymatgen
data_TeMo5O16
_symmetry_space_group_name_H-M   'P 1'
_cell_length_a   14.83156900
_cell_length_b   8.20220400
_cell_length_c   10.28018949
_cell_angle_alpha   89.25566041
_cell_angle_beta   90.00000000
_cell_angle_gamma   90.00000000
_symmetry_Int_Tables_number   1
_chemical_formula_structural   TeMo5O16
_chemical_formula_sum   'Te4 Mo20 O64'
_cell_volume   1250.49550131
_cell_formula_units_Z   4
loop_
 _symmetry_equiv_pos_site_id
 _symmetry_equiv_pos_as_xyz
  1  'x, y, z'
loop_
 _atom_site_type_symbol
 _atom_site_label
 _atom_site_symmetry_multiplicity
 _atom_site_fract_x
 _atom_site_fract_y
 _atom_site_fract_z
 _atom_site_occupancy
  Te  Te0  1  0.83682400  0.28542500  0.02161400  1
  Te  Te1  1  0.66317600  0.78542500  0.02161400  1
  Te  Te2  1  0.33682400  0.21457500  0.97838600  1
  Te  Te3  1  0.16317600  0.71457500  0.97838600  1
  Mo  Mo0  1  0.99922200  0.20699700  0.68518000  1
  Mo  Mo1  1  0.50077800  0.70699700  0.68518000  1
  Mo  Mo2  1  0.25221200  0.27463400  0.66541700  1
  Mo  Mo3  1  0.75221200  0.22536600  0.33458300  1
  Mo  Mo4  1  0.25412700  0.19858000  0.30747800  1
  Mo  Mo5  1  0.74587300  0.80142000  0.69252200  1
  Mo  Mo6  1  0.00077800  0.79300300  0.31482000  1
  Mo  Mo7  1  0.00180100  0.29482200  0.32973100  1
  Mo  Mo8  1  0.74778800  0.72536600  0.33458300  1
  Mo  Mo9  1  0.49922200  0.29300300  0.31482000  1
  Mo  Mo10  1  0.24778800  0.77463400  0.66541700  1
  Mo  Mo11  1  0.88909300  0.75559500  0.99898700  1
  Mo  Mo12  1  0.24587300  0.69858000  0.30747800  1
  Mo  Mo13  1  0.61090700  0.25559500  0.99898700  1
  Mo  Mo14  1  0.49819900  0.79482200  0.32973100  1
  Mo  Mo15  1  0.50180100  0.20517800  0.67026900  1
  Mo  Mo16  1  0.75412700  0.30142000  0.69252200  1
  Mo  Mo17  1  0.38909300  0.74440500  0.00101300  1
  Mo  Mo18  1  0.11090700  0.24440500  0.00101300  1
  Mo  Mo19  1  0.99819900  0.70517800  0.67026900  1
  O  O0  1  0.74697000  0.51351100  0.68826200  1
  O  O1  1  0.23269600  0.23465500  0.11204100  1
  O  O2  1  0.39131400  0.53306900  0.00806900  1
  O  O3  1  0.26730400  0.73465500  0.11204100  1
  O  O4  1  0.87741600  0.26018200  0.74734900  1
  O  O5  1  0.63060700  0.25565000  0.35622600  1
  O  O6  1  0.21502900  0.73821400  0.49659800  1
  O  O7  1  0.60868600  0.46693100  0.99193100  1
  O  O8  1  0.75480400  0.01288600  0.32723300  1
  O  O9  1  0.49961500  0.99355100  0.65389100  1
  O  O10  1  0.12258400  0.73981800  0.25265100  1
  O  O11  1  0.72789400  0.27053200  0.13198500  1
  O  O12  1  0.77210600  0.77053200  0.13198500  1
  O  O13  1  0.86939300  0.75565000  0.35622600  1
  O  O14  1  0.84540200  0.50994400  0.01111800  1
  O  O15  1  0.46440700  0.77926300  0.86257600  1
  O  O16  1  0.12371200  0.25292100  0.34728300  1
  O  O17  1  0.36939300  0.74435000  0.64377400  1
  O  O18  1  0.49959400  0.49621400  0.70437600  1
  O  O19  1  0.37583700  0.23075600  0.74301200  1
  O  O20  1  0.03286800  0.29300200  0.13292200  1
  O  O21  1  0.28497100  0.23821400  0.49659800  1
  O  O22  1  0.99961500  0.50644900  0.34610900  1
  O  O23  1  0.71502900  0.76178600  0.50340200  1
  O  O24  1  0.89131400  0.96693100  0.99193100  1
  O  O25  1  0.99959400  0.00378600  0.29562400  1
  O  O26  1  0.62416300  0.76924400  0.25698800  1
  O  O27  1  0.37741600  0.23981800  0.25265100  1
  O  O28  1  0.73269600  0.26534500  0.88795900  1
  O  O29  1  0.10868600  0.03306900  0.00806900  1
  O  O30  1  0.46993600  0.27385700  0.50547400  1
  O  O31  1  0.27210600  0.72946800  0.86801500  1
  O  O32  1  0.50040600  0.50378600  0.29562400  1
  O  O33  1  0.96993600  0.22614300  0.49452600  1
  O  O34  1  0.37628800  0.75292100  0.34728300  1
  O  O35  1  0.12416300  0.73075600  0.74301200  1
  O  O36  1  0.03559300  0.27926300  0.86257600  1
  O  O37  1  0.50038500  0.00644900  0.34610900  1
  O  O38  1  0.53286800  0.20699800  0.86707800  1
  O  O39  1  0.62371200  0.24707900  0.65271700  1
  O  O40  1  0.62258400  0.76018200  0.74734900  1
  O  O41  1  0.03006400  0.77385700  0.50547400  1
  O  O42  1  0.76730400  0.76534500  0.88795900  1
  O  O43  1  0.75303000  0.01351100  0.68826200  1
  O  O44  1  0.00040600  0.99621400  0.70437600  1
  O  O45  1  0.24519600  0.98711400  0.67276700  1
  O  O46  1  0.24697000  0.98648900  0.31173800  1
  O  O47  1  0.87583700  0.26924400  0.25698800  1
  O  O48  1  0.22789400  0.22946800  0.86801500  1
  O  O49  1  0.25303000  0.48648900  0.31173800  1
  O  O50  1  0.87628800  0.74707900  0.65271700  1
  O  O51  1  0.46713200  0.79300200  0.13292200  1
  O  O52  1  0.65459800  0.00994400  0.01111800  1
  O  O53  1  0.15459800  0.49005600  0.98888200  1
  O  O54  1  0.74519600  0.51288600  0.32723300  1
  O  O55  1  0.25480400  0.48711400  0.67276700  1
  O  O56  1  0.34540200  0.99005600  0.98888200  1
  O  O57  1  0.96440700  0.72073700  0.13742400  1
  O  O58  1  0.78497100  0.26178600  0.50340200  1
  O  O59  1  0.13060700  0.24435000  0.64377400  1
  O  O60  1  0.53006400  0.72614300  0.49452600  1
  O  O61  1  0.96713200  0.70699800  0.86707800  1
  O  O62  1  0.00038500  0.49355100  0.65389100  1
  O  O63  1  0.53559300  0.22073700  0.13742400  1
loop_
_geom_bond_atom_site_label_1
_geom_bond_atom_site_label_2
_geom_bond_distance
_geom_bond_site_symmetry_2
Mo0 O44 1.737651 1_645
Mo0 O4 1.967159 1_555
Mo0 O36 1.999043 1_655
Mo0 O33 2.011659 1_555
Mo0 O59 2.017148 1_655
Mo0 O62 2.368201 1_655
Mo1 O18 1.737651 1_555
Mo1 O40 1.967159 1_555
Mo1 O15 1.999043 1_555
Mo1 O60 2.011659 1_555
Mo1 O17 2.017148 1_555
Mo1 O9 2.368201 1_555
Mo2 O55 1.745845 1_555
Mo2 O21 1.830493 1_555
Mo2 O59 1.834554 1_555
Mo2 O19 2.029851 1_555
Mo2 O48 2.141287 1_555
Mo2 O45 2.360821 1_545
Mo3 O8 1.745845 1_555
Mo3 O58 1.830493 1_555
Mo3 O5 1.834554 1_555
Mo3 O47 2.029851 1_555
Mo3 O11 2.141287 1_555
Mo3 O54 2.360821 1_555
Mo4 O46 1.742832 1_545
Mo4 O27 1.941855 1_555
Mo4 O21 2.027621 1_555
Mo4 O16 2.027858 1_555
Mo4 O1 2.051765 1_555
Mo4 O49 2.362519 1_555
Mo5 O43 1.742832 1_565
Mo5 O40 1.941855 1_555
Mo5 O23 2.027621 1_555
Mo5 O50 2.027858 1_555
Mo5 O42 2.051765 1_555
Mo5 O0 2.362519 1_555
Mo6 O25 1.737651 1_465
Mo6 O10 1.967159 1_555
Mo6 O57 1.999043 1_455
Mo6 O41 2.011659 1_555
Mo6 O13 2.017148 1_455
Mo6 O22 2.368201 1_455
Mo7 O22 1.746431 1_455
Mo7 O33 1.840094 1_455
Mo7 O16 1.848892 1_555
Mo7 O47 2.024265 1_455
Mo7 O20 2.075282 1_555
Mo7 O25 2.417474 1_455
Mo8 O54 1.745845 1_555
Mo8 O23 1.830493 1_555
Mo8 O13 1.834554 1_555
Mo8 O26 2.029851 1_555
Mo8 O12 2.141287 1_555
Mo8 O8 2.360821 1_565
Mo9 O32 1.737651 1_555
Mo9 O27 1.967159 1_555
Mo9 O63 1.999043 1_555
Mo9 O30 2.011659 1_555
Mo9 O5 2.017148 1_555
Mo9 O37 2.368201 1_555
Mo10 O45 1.745845 1_555
Mo10 O6 1.830493 1_555
Mo10 O17 1.834554 1_555
Mo10 O35 2.029851 1_555
Mo10 O31 2.141287 1_555
Mo10 O55 2.360821 1_555
Mo11 O24 1.734309 1_555
Mo11 O57 1.828742 1_556
Mo11 O61 1.830701 1_555
Mo11 O14 2.118649 1_556
Mo11 O42 2.137660 1_555
Mo11 O12 2.213435 1_556
Mo12 O49 1.742832 1_555
Mo12 O10 1.941855 1_555
Mo12 O6 2.027621 1_555
Mo12 O34 2.027858 1_555
Mo12 O3 2.051765 1_555
Mo12 O46 2.362519 1_555
Mo13 O7 1.734309 1_555
Mo13 O63 1.828742 1_556
Mo13 O38 1.830701 1_555
Mo13 O52 2.118649 1_556
Mo13 O28 2.137660 1_555
Mo13 O11 2.213435 1_556
Mo14 O37 1.746431 1_565
Mo14 O60 1.840094 1_555
Mo14 O34 1.848892 1_555
Mo14 O26 2.024265 1_555
Mo14 O51 2.075282 1_555
Mo14 O32 2.417474 1_555
Mo15 O9 1.746431 1_545
Mo15 O30 1.840094 1_555
Mo15 O39 1.848892 1_555
Mo15 O19 2.024265 1_555
Mo15 O38 2.075282 1_555
Mo15 O18 2.417474 1_555
Mo16 O0 1.742832 1_555
Mo16 O4 1.941855 1_555
Mo16 O58 2.027621 1_555
Mo16 O39 2.027858 1_555
Mo16 O28 2.051765 1_555
Mo16 O43 2.362519 1_555
Mo17 O2 1.734309 1_555
Mo17 O15 1.828742 1_554
Mo17 O51 1.830701 1_555
Mo17 O56 2.118649 1_554
Mo17 O3 2.137660 1_555
Mo17 O31 2.213435 1_554
Mo18 O29 1.734309 1_555
Mo18 O36 1.828742 1_554
Mo18 O20 1.830701 1_555
Mo18 O53 2.118649 1_554
Mo18 O1 2.137660 1_555
Mo18 O48 2.213435 1_554
Mo19 O62 1.746431 1_655
Mo19 O41 1.840094 1_655
Mo19 O50 1.848892 1_555
Mo19 O35 2.024265 1_655
Mo19 O61 2.075282 1_555
Mo19 O44 2.417474 1_655
O1 Te2 2.075089 1_554
O3 Te3 2.075089 1_554
O11 Te0 1.977091 1_555
O12 Te1 1.977091 1_555
O14 Te0 1.847694 1_555
O19 Te2 2.489774 1_555
O26 Te1 2.489774 1_555
O28 Te0 2.075089 1_556
O31 Te3 1.977091 1_555
O35 Te3 2.489774 1_555
O42 Te1 2.075089 1_556
O47 Te0 2.489774 1_555
O48 Te2 1.977091 1_555
O52 Te1 1.847694 1_545
O53 Te3 1.847694 1_555
O56 Te2 1.847694 1_565
