# generated using pymatgen
data_Li6Si2O7
_symmetry_space_group_name_H-M   'P 1'
_cell_length_a   7.76932700
_cell_length_b   7.76932700
_cell_length_c   4.90626200
_cell_angle_alpha   90.00000000
_cell_angle_beta   90.00000000
_cell_angle_gamma   90.00000000
_symmetry_Int_Tables_number   1
_chemical_formula_structural   Li6Si2O7
_chemical_formula_sum   'Li12 Si4 O14'
_cell_volume   296.15395557
_cell_formula_units_Z   2
loop_
 _symmetry_equiv_pos_site_id
 _symmetry_equiv_pos_as_xyz
  1  'x, y, z'
loop_
 _atom_site_type_symbol
 _atom_site_label
 _atom_site_symmetry_multiplicity
 _atom_site_fract_x
 _atom_site_fract_y
 _atom_site_fract_z
 _atom_site_occupancy
  Li  Li0  1  0.63656000  0.41754800  0.70335000  1
  Li  Li1  1  0.36344000  0.58245200  0.70335000  1
  Li  Li2  1  0.41754800  0.36344000  0.29665000  1
  Li  Li3  1  0.58245200  0.63656000  0.29665000  1
  Li  Li4  1  0.13656000  0.08245200  0.29665000  1
  Li  Li5  1  0.08245200  0.86344000  0.70335000  1
  Li  Li6  1  0.88922800  0.61077200  0.68570700  1
  Li  Li7  1  0.38922800  0.88922800  0.31429300  1
  Li  Li8  1  0.61077200  0.11077200  0.31429300  1
  Li  Li9  1  0.11077200  0.38922800  0.68570700  1
  Li  Li10  1  0.91754800  0.13656000  0.70335000  1
  Li  Li11  1  0.86344000  0.91754800  0.29665000  1
  Si  Si0  1  0.64400400  0.85599600  0.82051000  1
  Si  Si1  1  0.14400400  0.64400400  0.17949000  1
  Si  Si2  1  0.85599600  0.35599600  0.17949000  1
  Si  Si3  1  0.35599600  0.14400400  0.82051000  1
  O  O0  1  0.16425500  0.09745900  0.70865900  1
  O  O1  1  0.90254100  0.16425500  0.29134100  1
  O  O2  1  0.59745900  0.66425500  0.70865900  1
  O  O3  1  0.40254100  0.33574500  0.70865900  1
  O  O4  1  0.33574500  0.59745900  0.29134100  1
  O  O5  1  0.66425500  0.40254100  0.29134100  1
  O  O6  1  0.63056800  0.86943200  0.15375400  1
  O  O7  1  0.13056800  0.63056800  0.84624600  1
  O  O8  1  0.86943200  0.36943200  0.84624600  1
  O  O9  1  0.36943200  0.13056800  0.15375400  1
  O  O10  1  0.50000000  0.00000000  0.68321200  1
  O  O11  1  0.00000000  0.50000000  0.31678800  1
  O  O12  1  0.83574500  0.90254100  0.70865900  1
  O  O13  1  0.09745900  0.83574500  0.29134100  1
loop_
_geom_bond_atom_site_label_1
_geom_bond_atom_site_label_2
_geom_bond_distance
_geom_bond_site_symmetry_2
Li0 O3 1.926227 1_555
Li0 O2 1.940847 1_555
Li0 O8 1.976028 1_555
Li0 O5 2.036185 1_555
Li1 O2 1.926227 1_555
Li1 O3 1.940847 1_555
Li1 O7 1.976028 1_555
Li1 O4 2.036185 1_555
Li2 O4 1.926227 1_555
Li2 O5 1.940847 1_555
Li2 O9 1.976028 1_555
Li2 O3 2.036185 1_555
Li3 O5 1.926227 1_555
Li3 O4 1.940847 1_555
Li3 O6 1.976028 1_555
Li3 O2 2.036185 1_555
Li4 O1 1.926227 1_455
Li4 O13 1.940847 1_545
Li4 O9 1.976028 1_555
Li4 O0 2.036185 1_555
Li5 O0 1.926227 1_565
Li5 O12 1.940847 1_455
Li5 O7 1.976028 1_555
Li5 O13 2.036185 1_555
Li6 O7 2.039572 1_655
Li6 O8 2.039572 1_555
Li6 O11 2.181168 1_655
Li6 O12 2.307368 1_555
Li6 O2 2.307368 1_555
Li7 O6 2.039572 1_555
Li7 O9 2.039572 1_565
Li7 O10 2.181168 1_565
Li7 O13 2.307368 1_555
Li7 O4 2.307368 1_555
Li8 O9 2.039572 1_555
Li8 O6 2.039572 1_545
Li8 O10 2.181168 1_555
Li8 O5 2.307368 1_555
Li8 O1 2.307368 1_555
Li9 O8 2.039572 1_455
Li9 O7 2.039572 1_555
Li9 O11 2.181168 1_555
Li9 O0 2.307368 1_555
Li9 O3 2.307368 1_555
Li10 O12 1.926227 1_545
Li10 O0 1.940847 1_655
Li10 O8 1.976028 1_555
Li10 O1 2.036185 1_555
Li11 O13 1.926227 1_655
Li11 O1 1.940847 1_565
Li11 O6 1.976028 1_555
Li11 O12 2.036185 1_555
O0 Si3 1.628227 1_555
O1 Si2 1.628227 1_555
O2 Si0 1.628227 1_555
O3 Si3 1.628227 1_555
O4 Si1 1.628227 1_555
O5 Si2 1.628227 1_555
O6 Si0 1.641634 1_554
O7 Si1 1.641634 1_556
O8 Si2 1.641634 1_556
O9 Si3 1.641634 1_554
O10 Si3 1.719667 1_555
O10 Si0 1.719667 1_545
O11 Si2 1.719667 1_455
O11 Si1 1.719667 1_555
O12 Si0 1.628227 1_555
O13 Si1 1.628227 1_555
