# generated using pymatgen
data_Ba2EuTaO6
_symmetry_space_group_name_H-M   'P 1'
_cell_length_a   6.10301173
_cell_length_b   6.10301173
_cell_length_c   6.10301173
_cell_angle_alpha   120.16496379
_cell_angle_beta   120.16496379
_cell_angle_gamma   89.71451102
_symmetry_Int_Tables_number   1
_chemical_formula_structural   Ba2EuTaO6
_chemical_formula_sum   'Ba2 Eu1 Ta1 O6'
_cell_volume   160.33470638
_cell_formula_units_Z   1
loop_
 _symmetry_equiv_pos_site_id
 _symmetry_equiv_pos_as_xyz
  1  'x, y, z'
loop_
 _atom_site_type_symbol
 _atom_site_label
 _atom_site_symmetry_multiplicity
 _atom_site_fract_x
 _atom_site_fract_y
 _atom_site_fract_z
 _atom_site_occupancy
  Ba  Ba0  1  0.25000000  0.75000000  0.50000000  1
  Ba  Ba1  1  0.75000000  0.25000000  0.50000000  1
  Eu  Eu0  1  0.00000000  0.00000000  0.00000000  1
  Ta  Ta0  1  0.50000000  0.50000000  0.00000000  1
  O  O0  1  0.24918800  0.28448400  0.53367200  1
  O  O1  1  0.73214700  0.73214700  0.00000000  1
  O  O2  1  0.28448400  0.75081200  0.03529600  1
  O  O3  1  0.26785300  0.26785300  0.00000000  1
  O  O4  1  0.75081200  0.71551600  0.46632800  1
  O  O5  1  0.71551600  0.24918800  0.96470400  1
loop_
_geom_bond_atom_site_label_1
_geom_bond_atom_site_label_2
_geom_bond_distance
_geom_bond_site_symmetry_2
Ba0 O0 2.949869 1_555
Ba0 O5 2.949869 1_565
Ba0 O2 2.949869 1_555
Ba0 O4 2.949869 1_455
Ba0 O1 3.047811 1_556
Ba0 O3 3.047811 1_555
Ba0 O1 3.047811 1_455
Ba0 O3 3.047811 1_566
Ba0 O4 3.163833 1_555
Ba0 O0 3.163833 1_565
Ba0 O2 3.163833 1_556
Ba0 O5 3.163833 1_454
Ba1 O4 2.949869 1_555
Ba1 O0 2.949869 1_655
Ba1 O2 2.949869 1_545
Ba1 O5 2.949869 1_555
Ba1 O1 3.047811 1_556
Ba1 O1 3.047811 1_545
Ba1 O3 3.047811 1_555
Ba1 O3 3.047811 1_656
Ba1 O5 3.163833 1_554
Ba1 O0 3.163833 1_555
Ba1 O2 3.163833 1_656
Ba1 O4 3.163833 1_545
Eu0 O0 2.302325 1_555
Eu0 O2 2.302325 1_545
Eu0 O4 2.302325 1_444
Eu0 O5 2.302325 1_454
Eu0 O1 2.317581 1_445
Eu0 O3 2.317581 1_555
O0 Ta0 2.013152 1_556
O1 Ta0 2.008638 1_555
O2 Ta0 2.013152 1_555
O3 Ta0 2.008638 1_555
O4 Ta0 2.013152 1_555
O5 Ta0 2.013152 1_556
