# generated using pymatgen
data_Na3Hf2Sc2P5SO24
_symmetry_space_group_name_H-M   'P 1'
_cell_length_a   8.86934485
_cell_length_b   8.85016260
_cell_length_c   23.16701480
_cell_angle_alpha   90.04099800
_cell_angle_beta   90.00216986
_cell_angle_gamma   119.87228186
_symmetry_Int_Tables_number   1
_chemical_formula_structural   Na3Hf2Sc2P5SO24
_chemical_formula_sum   'Na9 Hf6 Sc6 P15 S3 O72'
_cell_volume   1576.88793474
_cell_formula_units_Z   3
loop_
 _symmetry_equiv_pos_site_id
 _symmetry_equiv_pos_as_xyz
  1  'x, y, z'
loop_
 _atom_site_type_symbol
 _atom_site_label
 _atom_site_symmetry_multiplicity
 _atom_site_fract_x
 _atom_site_fract_y
 _atom_site_fract_z
 _atom_site_occupancy
  Na  Na0  1  0.00463673  0.36412642  0.75116258  1
  Na  Na1  1  0.66809964  0.96529877  0.58362368  1
  Na  Na2  1  0.03646318  0.33340542  0.08358876  1
  Na  Na3  1  0.00778400  0.99412823  0.50328709  1
  Na  Na4  1  0.00666710  0.99379486  0.00252239  1
  Na  Na5  1  0.65677635  0.32663842  0.83410263  1
  Na  Na6  1  0.67865140  0.33711199  0.33318075  1
  Na  Na7  1  0.34562172  0.67099608  0.16737710  1
  Na  Na8  1  0.33432040  0.66682628  0.66655353  1
  Hf  Hf0  1  0.98483657  0.99255456  0.35238290  1
  Hf  Hf1  1  0.00588931  0.00477768  0.85183196  1
  Hf  Hf2  1  0.66203635  0.33556067  0.68572208  1
  Hf  Hf3  1  0.67035530  0.33776503  0.18605522  1
  Hf  Hf4  1  0.66541183  0.32867612  0.98139412  1
  Hf  Hf5  1  0.67352379  0.33591477  0.48105115  1
  Sc  Sc0  1  0.00539557  0.99730448  0.64783410  1
  Sc  Sc1  1  0.99264828  0.99574015  0.14746086  1
  Sc  Sc2  1  0.32991702  0.67065932  0.01930672  1
  Sc  Sc3  1  0.32620137  0.66922115  0.51904506  1
  Sc  Sc4  1  0.32996784  0.66620616  0.31459983  1
  Sc  Sc5  1  0.33376088  0.67684258  0.81476544  1
  P  P0  1  0.70372445  0.70648930  0.24930082  1
  P  P1  1  0.00198904  0.29307977  0.24855274  1
  P  P2  1  0.29180393  0.29364530  0.74981104  1
  P  P3  1  0.99930814  0.70744111  0.74986406  1
  P  P4  1  0.70844779  0.99801701  0.74795005  1
  P  P5  1  0.96034914  0.33416490  0.58509422  1
  P  P6  1  0.37609745  0.04489363  0.58215009  1
  P  P7  1  0.66469638  0.62637258  0.58251739  1
  P  P8  1  0.95653799  0.62522300  0.08250043  1
  P  P9  1  0.66430236  0.04055726  0.08433616  1
  P  P10  1  0.37482519  0.33338655  0.08358266  1
  P  P11  1  0.04031091  0.37436185  0.91663118  1
  P  P12  1  0.33281815  0.95968776  0.91711723  1
  P  P13  1  0.62126369  0.95715004  0.41770560  1
  P  P14  1  0.04266811  0.66860696  0.41573795  1
  S  S0  1  0.29060424  0.00122730  0.24997811  1
  S  S1  1  0.62622765  0.66717898  0.91655360  1
  S  S2  1  0.33241615  0.37216264  0.41626050  1
  O  O0  1  0.20725950  0.02416478  0.30224021  1
  O  O1  1  0.81987632  0.79376696  0.30352027  1
  O  O2  1  0.98055509  0.17624651  0.30167609  1
  O  O3  1  0.20523941  0.17853869  0.80403667  1
  O  O4  1  0.97433334  0.79512137  0.80395271  1
  O  O5  1  0.82861851  0.02863996  0.80100980  1
  O  O6  1  0.78979597  0.97695481  0.69228839  1
  O  O7  1  0.17681020  0.20930475  0.69696258  1
  O  O8  1  0.02438139  0.81673274  0.69634897  1
  O  O9  1  0.79392791  0.81659666  0.19595250  1
  O  O10  1  0.02389800  0.21092059  0.19290225  1
  O  O11  1  0.18741720  0.97944512  0.19804793  1
  O  O12  1  0.87291874  0.35659927  0.64017582  1
  O  O13  1  0.49219619  0.13356726  0.63603845  1
  O  O14  1  0.64429310  0.51345434  0.63634627  1
  O  O15  1  0.86742202  0.50778442  0.13608268  1
  O  O16  1  0.64277481  0.13219970  0.13787205  1
  O  O17  1  0.48825670  0.35425250  0.13705227  1
  O  O18  1  0.46717223  0.31256304  0.02996683  1
  O  O19  1  0.84389638  0.53428096  0.02892309  1
  O  O20  1  0.69254158  0.15794432  0.03067543  1
  O  O21  1  0.46854375  0.15689551  0.52857164  1
  O  O22  1  0.68626924  0.53320965  0.52931191  1
  O  O23  1  0.84088748  0.30899511  0.53217978  1
  O  O24  1  0.54725256  0.69220638  0.96870080  1
  O  O25  1  0.14751262  0.45475054  0.97185565  1
  O  O26  1  0.30873414  0.85026611  0.97106441  1
  O  O27  1  0.54730340  0.85339756  0.47380995  1
  O  O28  1  0.30610116  0.45061452  0.46846840  1
  O  O29  1  0.15015662  0.69282772  0.47040544  1
  O  O30  1  0.12487080  0.63892840  0.36219747  1
  O  O31  1  0.51227556  0.86928014  0.36425493  1
  O  O32  1  0.35871720  0.47770177  0.36451103  1
  O  O33  1  0.12360987  0.47960148  0.86147040  1
  O  O34  1  0.36258666  0.87886861  0.86287261  1
  O  O35  1  0.52198234  0.64164224  0.86454190  1
  O  O36  1  0.02450235  0.83368140  0.40829861  1
  O  O37  1  0.80849781  0.98261019  0.40985245  1
  O  O38  1  0.17769312  0.19533407  0.40891210  1
  O  O39  1  0.01532928  0.18748197  0.90983503  1
  O  O40  1  0.16777690  0.97767926  0.91006580  1
  O  O41  1  0.80279155  0.82337089  0.91003469  1
  O  O42  1  0.96565717  0.16307493  0.58832940  1
  O  O43  1  0.19632124  0.02623885  0.58691019  1
  O  O44  1  0.82629074  0.80918788  0.58709994  1
  O  O45  1  0.97681440  0.80592521  0.08825539  1
  O  O46  1  0.83536170  0.03480757  0.08843140  1
  O  O47  1  0.19157739  0.17211546  0.08859712  1
  O  O48  1  0.69911762  0.17023401  0.74401565  1
  O  O49  1  0.47313324  0.30914433  0.74444261  1
  O  O50  1  0.83632257  0.52096857  0.74449326  1
  O  O51  1  0.68820930  0.52370355  0.24429396  1
  O  O52  1  0.83283131  0.30571793  0.24451419  1
  O  O53  1  0.46613372  0.16010975  0.24511572  1
  O  O54  1  0.64711553  0.51050415  0.92278286  1
  O  O55  1  0.85645903  0.35494989  0.92342711  1
  O  O56  1  0.49405900  0.14541725  0.92363133  1
  O  O57  1  0.64481587  0.14341949  0.42327549  1
  O  O58  1  0.48950885  0.35239341  0.42285398  1
  O  O59  1  0.85668831  0.50746307  0.42315010  1
  O  O60  1  0.35268403  0.49519367  0.07812924  1
  O  O61  1  0.13300314  0.63068899  0.07794518  1
  O  O62  1  0.50435811  0.86073134  0.07819087  1
  O  O63  1  0.36920928  0.86710748  0.57797229  1
  O  O64  1  0.50316075  0.64765960  0.57756717  1
  O  O65  1  0.13876038  0.49559150  0.57831759  1
  O  O66  1  0.31157999  0.84646273  0.25573256  1
  O  O67  1  0.52403113  0.68818588  0.25688323  1
  O  O68  1  0.16089400  0.47480146  0.25647997  1
  O  O69  1  0.30633926  0.47271219  0.75788972  1
  O  O70  1  0.15594876  0.67704205  0.75591490  1
  O  O71  1  0.52791381  0.83949647  0.75624555  1
loop_
_geom_bond_atom_site_label_1
_geom_bond_atom_site_label_2
_geom_bond_distance
_geom_bond_site_symmetry_2
Na0 O69 2.355083 1_555
Na0 O48 2.383780 1_455
Na0 O70 2.404130 1_555
Na0 O50 2.498730 1_455
Na0 O33 2.758682 1_555
Na0 O7 2.804998 1_555
Na0 O12 2.811136 1_455
Na0 O5 2.823848 1_455
Na1 O42 2.332125 1_565
Na1 O63 2.346256 1_555
Na1 O44 2.411432 1_555
Na1 O64 2.442384 1_555
Na1 O6 2.720601 1_555
Na1 O27 2.745927 1_555
Na1 O23 2.895363 1_565
Na1 O13 2.904868 1_565
Na2 O61 2.329993 1_555
Na2 O46 2.341502 1_455
Na2 O47 2.429039 1_555
Na2 O60 2.435633 1_555
Na2 O10 2.735781 1_555
Na2 O25 2.788256 1_554
Na2 O15 2.900150 1_455
Na2 O20 2.915008 1_455
Na3 O43 2.481075 1_565
Na3 O44 2.533889 1_455
Na3 O42 2.609442 1_465
Na3 O36 2.662004 1_555
Na3 O38 2.748616 1_565
Na3 O37 2.764054 1_455
Na4 O45 2.519074 1_455
Na4 O47 2.563929 1_565
Na4 O40 2.617812 1_554
Na4 O46 2.636264 1_465
Na4 O41 2.722855 1_454
Na4 O39 2.725656 1_564
Na5 O56 2.579986 1_555
Na5 O49 2.596073 1_555
Na5 O48 2.631835 1_555
Na5 O54 2.647672 1_555
Na5 O55 2.653053 1_555
Na5 O50 2.660952 1_555
Na6 O52 2.558231 1_555
Na6 O59 2.595113 1_555
Na6 O51 2.615359 1_555
Na6 O57 2.622558 1_555
Na6 O53 2.687570 1_555
Na6 O58 2.715556 1_555
Na7 O67 2.566384 1_555
Na7 O62 2.592513 1_555
Na7 O60 2.606179 1_555
Na7 O68 2.670572 1_555
Na7 O66 2.674915 1_555
Na7 O61 2.702709 1_555
Na8 O64 2.602699 1_555
Na8 O65 2.619270 1_555
Na8 O63 2.628277 1_555
Na8 O70 2.634267 1_555
Na8 O71 2.642456 1_555
Na8 O69 2.659108 1_555
Hf0 O1 1.987500 1_555
Hf0 O2 2.022019 1_565
Hf0 O37 2.022301 1_555
Hf0 O36 2.067400 1_655
Hf0 O0 2.184106 1_665
Hf0 O38 2.190942 1_665
Hf1 O3 2.002797 1_555
Hf1 O4 2.057006 1_445
Hf1 O5 2.057642 1_455
Hf1 O40 2.069435 1_545
Hf1 O39 2.071059 1_555
Hf1 O41 2.182425 1_445
Hf2 O14 2.015271 1_555
Hf2 O13 2.025885 1_555
Hf2 O12 2.073627 1_555
Hf2 O49 2.079147 1_555
Hf2 O50 2.099001 1_555
Hf2 O48 2.134244 1_555
Hf3 O15 2.010529 1_555
Hf3 O17 2.038009 1_555
Hf3 O16 2.041920 1_555
Hf3 O51 2.071388 1_555
Hf3 O52 2.097332 1_555
Hf3 O53 2.188930 1_555
Hf4 O20 2.002284 1_556
Hf4 O18 2.031915 1_556
Hf4 O19 2.038896 1_556
Hf4 O56 2.066964 1_555
Hf4 O55 2.082510 1_555
Hf4 O54 2.173217 1_555
Hf5 O23 2.003949 1_555
Hf5 O22 2.027867 1_555
Hf5 O21 2.039802 1_555
Hf5 O59 2.071157 1_555
Hf5 O57 2.079255 1_555
Hf5 O58 2.177154 1_555
O0 S0 1.484175 1_555
O1 P0 1.562552 1_555
O2 P1 1.557549 1_655
O3 P2 1.558265 1_555
O4 P3 1.546371 1_555
O5 P4 1.559537 1_545
O6 P4 1.533578 1_555
O6 Sc0 2.099296 1_655
O7 P2 1.528608 1_555
O7 Sc0 2.069400 1_545
O8 P3 1.519723 1_455
O8 Sc0 2.028822 1_555
O9 P0 1.530475 1_555
O9 Sc1 2.025161 1_555
O10 P1 1.538854 1_555
O10 Sc1 2.069559 1_445
O11 S0 1.464911 1_565
O11 Sc1 2.150972 1_455
O12 P5 1.556341 1_555
O13 P6 1.558301 1_555
O14 P7 1.551849 1_555
O15 P8 1.558686 1_555
O16 P9 1.544461 1_555
O17 P10 1.547653 1_555
O18 P10 1.548480 1_555
O19 P8 1.544032 1_555
O20 P9 1.558894 1_555
O21 P6 1.545244 1_555
O22 P7 1.546437 1_555
O23 P5 1.561863 1_555
O24 S1 1.467455 1_555
O24 Sc2 2.181952 1_556
O25 P11 1.540063 1_555
O25 Sc2 2.096300 1_556
O26 P12 1.530067 1_555
O26 Sc2 2.027579 1_556
O27 P13 1.537730 1_555
O27 Sc3 2.102195 1_555
O28 S2 1.469585 1_555
O28 Sc3 2.191102 1_555
O29 P14 1.534523 1_555
O29 Sc3 2.019043 1_555
O30 P14 1.526251 1_555
O30 Sc4 2.036256 1_555
O31 P13 1.523894 1_555
O31 Sc4 2.066399 1_555
O32 S2 1.465858 1_555
O32 Sc4 2.147494 1_555
O33 P11 1.537105 1_555
O33 Sc5 2.110410 1_555
O34 P12 1.532132 1_555
O34 Sc5 2.011482 1_555
O35 S1 1.466026 1_555
O35 Sc5 2.175358 1_555
O36 P14 1.557186 1_555
O37 P13 1.571289 1_555
O38 S2 1.490498 1_555
O39 P11 1.563300 1_555
O40 P12 1.557874 1_555
O41 S1 1.493303 1_555
O42 P5 1.540042 1_555
O42 Sc0 2.166778 1_645
O43 P6 1.523039 1_555
O43 Sc0 2.119904 1_545
O44 P7 1.540450 1_555
O44 Sc0 2.153359 1_655
O45 P8 1.523449 1_555
O45 Sc1 2.117727 1_555
O46 P9 1.546072 1_555
O46 Sc1 2.101621 1_545
O47 P10 1.543260 1_555
O47 Sc1 2.160790 1_445
O48 P4 1.569721 1_545
O49 P2 1.549551 1_555
O50 P3 1.565873 1_555
O51 P0 1.557971 1_555
O52 P1 1.561853 1_655
O53 S0 1.494394 1_555
O54 S1 1.494649 1_555
O55 P11 1.560226 1_655
O56 P12 1.558151 1_545
O57 P13 1.560304 1_545
O58 S2 1.496031 1_555
O59 P14 1.562467 1_655
O60 P10 1.544536 1_555
O60 Sc2 2.150514 1_555
O61 P8 1.545221 1_455
O61 Sc2 2.099117 1_555
O62 P9 1.521916 1_565
O62 Sc2 2.118586 1_555
O63 P6 1.546877 1_565
O63 Sc3 2.099382 1_555
O64 P7 1.539548 1_555
O64 Sc3 2.153250 1_555
O65 P5 1.522512 1_455
O65 Sc3 2.114032 1_555
O66 S0 1.477340 1_565
O66 Sc4 2.166504 1_555
O67 P0 1.529727 1_555
O67 Sc4 2.110766 1_555
O68 P1 1.532403 1_555
O68 Sc4 2.096991 1_555
O69 P2 1.535970 1_555
O69 Sc5 2.148946 1_555
O70 P3 1.547434 1_455
O70 Sc5 2.085336 1_555
O71 P4 1.527004 1_555
O71 Sc5 2.099813 1_555
