# generated using pymatgen
data_MgMn6(O5F)2
_symmetry_space_group_name_H-M   'P 1'
_cell_length_a   5.05328858
_cell_length_b   5.08195191
_cell_length_c   8.71584431
_cell_angle_alpha   91.01554110
_cell_angle_beta   89.29010773
_cell_angle_gamma   100.35577879
_symmetry_Int_Tables_number   1
_chemical_formula_structural   MgMn6(O5F)2
_chemical_formula_sum   'Mg1 Mn6 O10 F2'
_cell_volume   220.13757933
_cell_formula_units_Z   1
loop_
 _symmetry_equiv_pos_site_id
 _symmetry_equiv_pos_as_xyz
  1  'x, y, z'
loop_
 _atom_site_type_symbol
 _atom_site_label
 _atom_site_symmetry_multiplicity
 _atom_site_fract_x
 _atom_site_fract_y
 _atom_site_fract_z
 _atom_site_occupancy
  Mg  Mg0  1  0.51064220  0.03702282  0.50710414  1
  Mn  Mn0  1  0.01383024  0.98557316  0.01187227  1
  Mn  Mn1  1  0.00665708  0.98882948  0.32546261  1
  Mn  Mn2  1  0.01312142  0.96347930  0.68042800  1
  Mn  Mn3  1  0.44933193  0.54182986  0.83823879  1
  Mn  Mn4  1  0.53654346  0.47838098  0.16805395  1
  Mn  Mn5  1  0.43049313  0.53141255  0.50097596  1
  O  O0  1  0.14038981  0.80519511  0.17090619  1
  O  O1  1  0.14904863  0.80258764  0.50234077  1
  O  O2  1  0.15658502  0.79094685  0.84287566  1
  O  O3  1  0.33640826  0.28597438  0.00086886  1
  O  O4  1  0.35492247  0.25623845  0.34203251  1
  O  O5  1  0.34615061  0.27897910  0.66320846  1
  O  O6  1  0.68032597  0.70938966  0.00463986  1
  O  O7  1  0.64946016  0.74553549  0.34266245  1
  O  O8  1  0.62229046  0.75602818  0.65945860  1
  O  O9  1  0.87013358  0.17854671  0.17466264  1
  F  F0  1  0.87853474  0.20858237  0.50293423  1
  F  F1  1  0.86901782  0.16935691  0.83984604  1
loop_
_geom_bond_atom_site_label_1
_geom_bond_atom_site_label_2
_geom_bond_distance
_geom_bond_site_symmetry_2
Mg0 O1 1.994340 1_545
Mg0 O4 2.080939 1_555
Mg0 O5 2.081871 1_555
Mg0 O8 2.120435 1_545
Mg0 O7 2.239202 1_545
Mn0 O0 1.856985 1_555
Mn0 O9 1.919202 1_465
Mn0 O2 1.961325 1_554
Mn0 O6 1.990787 1_455
Mn0 O3 2.025730 1_565
Mn1 O0 1.817102 1_555
Mn1 O9 1.854600 1_465
Mn1 O7 2.001695 1_455
Mn1 O4 2.025916 1_565
Mn1 O1 2.028366 1_555
Mn2 O2 1.896577 1_555
Mn2 O1 1.918363 1_555
Mn2 O8 2.073393 1_455
Mn2 O5 2.111300 1_565
Mn3 O3 1.950381 1_556
Mn3 O6 1.957527 1_556
Mn3 O8 2.015243 1_555
Mn3 O5 2.020037 1_555
Mn3 O2 2.112546 1_555
Mn4 O6 1.913557 1_555
Mn4 O3 1.932021 1_555
Mn4 O4 2.017388 1_555
Mn4 O7 2.038300 1_555
Mn4 O9 2.468962 1_555
Mn5 O5 1.918213 1_555
Mn5 O8 1.931296 1_555
Mn5 O4 1.942418 1_555
Mn5 O7 1.973551 1_555
Mn5 O1 2.150733 1_555
F0 Mg0 1.906387 1_555
F0 Mn1 2.057401 1_645
F0 Mn2 2.192314 1_645
F1 Mn2 1.937227 1_645
F1 Mn0 1.994600 1_646
