# generated using pymatgen
data_MgMo3(SeS2)2
_symmetry_space_group_name_H-M   'P 1'
_cell_length_a   3.23660700
_cell_length_b   3.23661255
_cell_length_c   36.40090802
_cell_angle_alpha   90.00331606
_cell_angle_beta   90.00000000
_cell_angle_gamma   119.99995352
_symmetry_Int_Tables_number   1
_chemical_formula_structural   MgMo3(SeS2)2
_chemical_formula_sum   'Mg1 Mo3 Se2 S4'
_cell_volume   330.23548197
_cell_formula_units_Z   1
loop_
 _symmetry_equiv_pos_site_id
 _symmetry_equiv_pos_as_xyz
  1  'x, y, z'
loop_
 _atom_site_type_symbol
 _atom_site_label
 _atom_site_symmetry_multiplicity
 _atom_site_fract_x
 _atom_site_fract_y
 _atom_site_fract_z
 _atom_site_occupancy
  Mg  Mg0  1  0.00001700  0.00003300  0.22417700  1
  Mo  Mo0  1  0.33334700  0.66669600  0.10794700  1
  Mo  Mo1  1  0.33331000  0.66662200  0.57836600  1
  Mo  Mo2  1  0.66664200  0.33328500  0.35496100  1
  Se  Se0  1  0.33332700  0.66665600  0.40180700  1
  Se  Se1  1  0.33329200  0.66658500  0.30773200  1
  S  S0  1  0.66665700  0.33331200  0.06567100  1
  S  S1  1  0.66662600  0.33325000  0.53573800  1
  S  S2  1  0.66671300  0.33342400  0.15091000  1
  S  S3  1  0.66666900  0.33333700  0.62097900  1
loop_
_geom_bond_atom_site_label_1
_geom_bond_atom_site_label_2
_geom_bond_distance
_geom_bond_site_symmetry_2
Mo0 S0 2.420725 1_565
Mo0 S0 2.420764 1_455
Mo0 S0 2.420773 1_555
Mo0 S2 2.436697 1_455
Mo0 S2 2.436705 1_555
Mo0 S2 2.436781 1_565
Mo1 S3 2.428554 1_455
Mo1 S3 2.428561 1_555
Mo1 S3 2.428597 1_565
Mo1 S1 2.428916 1_455
Mo1 S1 2.428917 1_565
Mo1 S1 2.428925 1_555
Mo2 Se0 2.529761 1_655
Mo2 Se0 2.529763 1_555
Mo2 Se0 2.529774 1_545
Mo2 Se1 2.539170 1_545
Mo2 Se1 2.539191 1_655
Mo2 Se1 2.539192 1_555
