# generated using pymatgen
data_TbMn2
_symmetry_space_group_name_H-M   'P 1'
_cell_length_a   5.13106916
_cell_length_b   5.13106982
_cell_length_c   5.13106900
_cell_angle_alpha   59.99999881
_cell_angle_beta   59.99999459
_cell_angle_gamma   60.00000061
_symmetry_Int_Tables_number   1
_chemical_formula_structural   TbMn2
_chemical_formula_sum   'Tb2 Mn4'
_cell_volume   95.52314876
_cell_formula_units_Z   2
loop_
 _symmetry_equiv_pos_site_id
 _symmetry_equiv_pos_as_xyz
  1  'x, y, z'
loop_
 _atom_site_type_symbol
 _atom_site_label
 _atom_site_symmetry_multiplicity
 _atom_site_fract_x
 _atom_site_fract_y
 _atom_site_fract_z
 _atom_site_occupancy
  Tb  Tb0  1  0.12500000  0.12500000  0.12500000  1
  Tb  Tb1  1  0.87500000  0.87500000  0.87500000  1
  Mn  Mn0  1  0.50000000  0.00000000  0.50000000  1
  Mn  Mn1  1  0.00000000  0.50000000  0.50000000  1
  Mn  Mn2  1  0.50000000  0.50000000  0.50000000  1
  Mn  Mn3  1  0.50000000  0.50000000  0.00000000  1
loop_
_geom_bond_atom_site_label_1
_geom_bond_atom_site_label_2
_geom_bond_distance
_geom_bond_site_symmetry_2
Tb0 Tb1 3.142125 1_445
Tb0 Tb1 3.142125 1_544
Tb0 Tb1 3.142125 1_444
Tb0 Tb1 3.142126 1_454
Mn0 Mn3 2.565535 1_546
Mn0 Mn3 2.565535 1_555
Mn0 Mn1 2.565535 1_645
Mn0 Mn1 2.565535 1_555
Mn0 Mn2 2.565535 1_555
Mn0 Mn2 2.565535 1_545
Mn0 Tb1 3.008356 1_544
Mn0 Tb0 3.008356 1_556
Mn0 Tb0 3.008356 1_655
Mn0 Tb1 3.008356 1_445
Mn0 Tb1 3.008356 1_545
Mn0 Tb0 3.008356 1_555
Mn1 Mn3 2.565534 1_555
Mn1 Mn3 2.565534 1_456
Mn1 Mn2 2.565535 1_555
Mn1 Mn2 2.565535 1_455
Mn1 Tb0 3.008356 1_556
Mn1 Tb1 3.008356 1_454
Mn1 Tb0 3.008356 1_555
Mn1 Tb1 3.008356 1_455
Mn1 Tb0 3.008356 1_565
Mn1 Tb1 3.008356 1_445
Mn2 Mn3 2.565535 1_555
Mn2 Mn3 2.565535 1_556
Mn2 Tb1 3.008356 1_554
Mn2 Tb0 3.008356 1_556
Mn2 Tb1 3.008356 1_455
Mn2 Tb0 3.008356 1_655
Mn2 Tb0 3.008356 1_565
Mn2 Tb1 3.008356 1_545
Mn3 Tb0 3.008356 1_655
Mn3 Tb1 3.008356 1_454
Mn3 Tb0 3.008356 1_555
Mn3 Tb1 3.008356 1_554
Mn3 Tb0 3.008356 1_565
Mn3 Tb1 3.008356 1_544
