# generated using pymatgen
data_Er2Ge5
_symmetry_space_group_name_H-M   'P 1'
_cell_length_a   3.88453755
_cell_length_b   3.97106473
_cell_length_c   18.46140618
_cell_angle_alpha   90.00000000
_cell_angle_beta   90.00000000
_cell_angle_gamma   90.00000000
_symmetry_Int_Tables_number   1
_chemical_formula_structural   Er2Ge5
_chemical_formula_sum   'Er4 Ge10'
_cell_volume   284.78103744
_cell_formula_units_Z   2
loop_
 _symmetry_equiv_pos_site_id
 _symmetry_equiv_pos_as_xyz
  1  'x, y, z'
loop_
 _atom_site_type_symbol
 _atom_site_label
 _atom_site_symmetry_multiplicity
 _atom_site_fract_x
 _atom_site_fract_y
 _atom_site_fract_z
 _atom_site_occupancy
  Er  Er0  1  0.75000000  0.75000000  0.62580079  1
  Er  Er1  1  0.25000000  0.25000000  0.37419921  1
  Er  Er2  1  0.75000000  0.25000000  0.18786984  1
  Er  Er3  1  0.25000000  0.75000000  0.81213016  1
  Ge  Ge0  1  0.75000000  0.25000000  0.50394451  1
  Ge  Ge1  1  0.25000000  0.75000000  0.49605549  1
  Ge  Ge2  1  0.75000000  0.75000000  0.32631942  1
  Ge  Ge3  1  0.25000000  0.25000000  0.67368058  1
  Ge  Ge4  1  0.25000000  0.25000000  0.06603813  1
  Ge  Ge5  1  0.75000000  0.75000000  0.93396187  1
  Ge  Ge6  1  0.25000000  0.25000000  0.93207738  1
  Ge  Ge7  1  0.75000000  0.75000000  0.06792262  1
  Ge  Ge8  1  0.25000000  0.75000000  0.23904791  1
  Ge  Ge9  1  0.75000000  0.25000000  0.76095209  1
loop_
_geom_bond_atom_site_label_1
_geom_bond_atom_site_label_2
_geom_bond_distance
_geom_bond_site_symmetry_2
Er0 Ge3 2.914803 1_665
Er0 Ge3 2.914803 1_555
Er0 Ge3 2.914803 1_565
Er0 Ge3 2.914803 1_655
Er0 Ge0 3.000535 1_555
Er0 Ge0 3.000535 1_565
Er0 Ge1 3.083793 1_555
Er0 Ge1 3.083793 1_655
Er0 Ge9 3.188695 1_555
Er0 Ge9 3.188695 1_565
Er1 Ge2 2.914803 1_445
Er1 Ge2 2.914803 1_545
Er1 Ge2 2.914803 1_455
Er1 Ge2 2.914803 1_555
Er1 Ge1 3.000535 1_555
Er1 Ge1 3.000535 1_545
Er1 Ge0 3.083793 1_555
Er1 Ge0 3.083793 1_455
Er1 Ge8 3.188695 1_545
Er1 Ge8 3.188695 1_555
Er2 Ge8 2.933842 1_545
Er2 Ge8 2.933842 1_645
Er2 Ge8 2.933842 1_555
Er2 Ge8 2.933842 1_655
Er2 Ge4 2.971740 1_655
Er2 Ge4 2.971740 1_555
Er2 Ge7 2.974203 1_555
Er2 Ge7 2.974203 1_545
Er2 Ge2 3.236563 1_545
Er2 Ge2 3.236563 1_555
Er3 Ge9 2.933842 1_565
Er3 Ge9 2.933842 1_465
Er3 Ge9 2.933842 1_555
Er3 Ge9 2.933842 1_455
Er3 Ge5 2.971740 1_555
Er3 Ge5 2.971740 1_455
Er3 Ge6 2.974203 1_555
Er3 Ge6 2.974203 1_565
Er3 Ge3 3.236563 1_555
Er3 Ge3 3.236563 1_565
Ge0 Ge1 2.781359 1_545
Ge0 Ge1 2.781359 1_555
Ge0 Ge1 2.781359 1_655
Ge0 Ge1 2.781359 1_645
Ge2 Ge8 2.523535 1_655
Ge2 Ge8 2.523535 1_555
Ge3 Ge9 2.523535 1_555
Ge3 Ge9 2.523535 1_455
Ge4 Ge6 2.473104 1_554
Ge4 Ge7 2.777761 1_455
Ge4 Ge7 2.777761 1_555
Ge4 Ge7 2.777761 1_445
Ge4 Ge7 2.777761 1_545
Ge5 Ge7 2.473104 1_556
Ge5 Ge6 2.777761 1_565
Ge5 Ge6 2.777761 1_655
Ge5 Ge6 2.777761 1_665
Ge5 Ge6 2.777761 1_555
