# generated using pymatgen
data_GdCoB4
_symmetry_space_group_name_H-M   'P 1'
_cell_length_a   3.42548254
_cell_length_b   5.92061909
_cell_length_c   11.47227264
_cell_angle_alpha   90.01343114
_cell_angle_beta   90.00000000
_cell_angle_gamma   90.00000000
_symmetry_Int_Tables_number   1
_chemical_formula_structural   GdCoB4
_chemical_formula_sum   'Gd4 Co4 B16'
_cell_volume   232.66889482
_cell_formula_units_Z   4
loop_
 _symmetry_equiv_pos_site_id
 _symmetry_equiv_pos_as_xyz
  1  'x, y, z'
loop_
 _atom_site_type_symbol
 _atom_site_label
 _atom_site_symmetry_multiplicity
 _atom_site_fract_x
 _atom_site_fract_y
 _atom_site_fract_z
 _atom_site_occupancy
  Gd  Gd0  1  -0.00000000  0.37307343  0.65047010  1
  Gd  Gd1  1  0.00000000  0.62675491  0.34961125  1
  Gd  Gd2  1  -0.00000000  0.87343170  0.84961375  1
  Gd  Gd3  1  0.00000000  0.12674903  0.15028257  1
  Co  Co0  1  -0.00000000  0.36725909  0.91174370  1
  Co  Co1  1  0.00000000  0.63307950  0.08819218  1
  Co  Co2  1  -0.00000000  0.86678125  0.58822218  1
  Co  Co3  1  -0.00000000  0.13292594  0.41174628  1
  B  B0  1  0.50000000  0.02139439  0.68911343  1
  B  B1  1  0.50000000  0.97887313  0.31107929  1
  B  B2  1  0.50000000  0.52172548  0.81083418  1
  B  B3  1  0.50000000  0.47859649  0.18902805  1
  B  B4  1  0.50000000  0.11144444  0.54574671  1
  B  B5  1  0.50000000  0.88840870  0.45421637  1
  B  B6  1  0.50000000  0.61146158  0.95416974  1
  B  B7  1  0.50000000  0.38841421  0.04585988  1
  B  B8  1  0.50000000  0.28152133  0.31672597  1
  B  B9  1  0.50000000  0.71854136  0.68354724  1
  B  B10  1  0.50000000  0.78122393  0.18326562  1
  B  B11  1  0.50000000  0.21838836  0.81667321  1
  B  B12  1  0.50000000  0.35937024  0.46682832  1
  B  B13  1  0.50000000  0.64072254  0.53310088  1
  B  B14  1  0.50000000  0.85955981  0.03304431  1
  B  B15  1  0.50000000  0.14030115  0.96688378  1
loop_
_geom_bond_atom_site_label_1
_geom_bond_atom_site_label_2
_geom_bond_distance
_geom_bond_site_symmetry_2
B0 B4 1.729115 1_555
B0 B9 1.794199 1_545
B0 B11 1.871111 1_555
B0 Co2 2.260674 1_545
B0 Co2 2.260674 1_645
B0 Gd2 2.663094 1_545
B0 Gd2 2.663094 1_645
B0 Gd0 2.732368 1_655
B0 Gd0 2.732368 1_555
B1 B5 1.727369 1_555
B1 B8 1.793020 1_565
B1 B10 1.875807 1_555
B1 Co3 2.258017 1_565
B1 Co3 2.258017 1_665
B1 Gd3 2.665277 1_665
B1 Gd3 2.665277 1_565
B1 Gd1 2.734143 1_655
B1 Gd1 2.734143 1_555
B2 B6 1.727965 1_555
B2 B9 1.868434 1_555
B2 Co0 2.260650 1_655
B2 Co0 2.260650 1_555
B2 Gd0 2.663075 1_655
B2 Gd0 2.663075 1_555
B2 Gd2 2.732586 1_555
B2 Gd2 2.732586 1_655
B3 B7 1.726952 1_555
B3 B8 1.873078 1_555
B3 Co1 2.260257 1_655
B3 Co1 2.260257 1_555
B3 Gd1 2.663848 1_555
B3 Gd1 2.663848 1_655
B3 Gd3 2.733160 1_555
B3 Gd3 2.733160 1_655
B4 B5 1.686927 1_545
B4 Co2 2.295558 1_645
B4 Co2 2.295558 1_545
B4 Co3 2.304997 1_555
B4 Co3 2.304997 1_655
B4 Gd0 2.602965 1_555
B4 Gd0 2.602965 1_655
B5 Co3 2.294999 1_565
B5 Co3 2.294999 1_665
B5 Co2 2.305086 1_555
B5 Co2 2.305086 1_655
B5 Gd1 2.602427 1_555
B5 Gd1 2.602427 1_655
B6 B7 1.688508 1_556
B6 Co0 2.293573 1_655
B6 Co0 2.293573 1_555
B6 Co1 2.305170 1_556
B6 Co1 2.305170 1_656
B6 Gd2 2.603617 1_655
B6 Gd2 2.603617 1_555
B7 Co1 2.295073 1_655
B7 Co1 2.295073 1_555
B7 Co0 2.305737 1_554
B7 Co0 2.305737 1_654
B7 Gd3 2.601837 1_655
B7 Gd3 2.601837 1_555
B8 Co3 2.212748 1_555
B8 Co3 2.212748 1_655
B8 Gd1 2.693209 1_655
B8 Gd1 2.693209 1_555
B8 Gd3 2.723690 1_655
B8 Gd3 2.723690 1_555
B9 Co2 2.213637 1_655
B9 Co2 2.213637 1_555
B9 Gd0 2.694571 1_555
B9 Gd0 2.694571 1_655
B9 Gd2 2.720896 1_655
B9 Gd2 2.720896 1_555
B10 B14 1.784803 1_555
B10 B3 1.792976 1_555
B10 Co1 2.211786 1_655
B10 Co1 2.211786 1_555
B10 Gd3 2.694811 1_665
B10 Gd3 2.694811 1_565
B10 Gd1 2.722601 1_655
B10 Gd1 2.722601 1_555
B11 B15 1.784301 1_555
B11 B2 1.797208 1_555
B11 Co0 2.213477 1_555
B11 Co0 2.213477 1_655
B11 Gd2 2.692188 1_645
B11 Gd2 2.692188 1_545
B11 Gd0 2.721885 1_655
B11 Gd0 2.721885 1_555
B12 B4 1.724813 1_555
B12 B8 1.782528 1_555
B12 B13 1.830923 1_555
B12 Co3 2.264918 1_555
B12 Co3 2.264918 1_655
B12 Gd1 2.692392 1_655
B12 Gd1 2.692392 1_555
B12 Gd0 2.716347 1_655
B12 Gd0 2.716347 1_555
B13 B5 1.723401 1_555
B13 B9 1.786295 1_555
B13 Co2 2.263693 1_655
B13 Co2 2.263693 1_555
B13 Gd0 2.694185 1_555
B13 Gd0 2.694185 1_655
B13 Gd1 2.715041 1_655
B13 Gd1 2.715041 1_555
B14 B6 1.725057 1_554
B14 B15 1.827423 1_564
B14 Co1 2.265431 1_655
B14 Co1 2.265431 1_555
B14 Gd3 2.691462 1_665
B14 Gd3 2.691462 1_565
B14 Gd2 2.714528 1_554
B14 Gd2 2.714528 1_654
B15 B7 1.725742 1_556
B15 Co0 2.267081 1_555
B15 Co0 2.267081 1_655
B15 Gd2 2.690532 1_545
B15 Gd2 2.690532 1_645
B15 Gd3 2.714189 1_656
B15 Gd3 2.714189 1_556
