# generated using pymatgen
data_BaMg(NiO2)4
_symmetry_space_group_name_H-M   'P 1'
_cell_length_a   6.57974701
_cell_length_b   6.58323104
_cell_length_c   6.57974723
_cell_angle_alpha   53.66319462
_cell_angle_beta   53.66847258
_cell_angle_gamma   53.66320311
_symmetry_Int_Tables_number   1
_chemical_formula_structural   BaMg(NiO2)4
_chemical_formula_sum   'Ba1 Mg1 Ni4 O8'
_cell_volume   171.67444044
_cell_formula_units_Z   1
loop_
 _symmetry_equiv_pos_site_id
 _symmetry_equiv_pos_as_xyz
  1  'x, y, z'
loop_
 _atom_site_type_symbol
 _atom_site_label
 _atom_site_symmetry_multiplicity
 _atom_site_fract_x
 _atom_site_fract_y
 _atom_site_fract_z
 _atom_site_occupancy
  Ba  Ba0  1  0.49778800  0.49843100  0.49778800  1
  Mg  Mg0  1  0.85128000  0.85243700  0.85128000  1
  Ni  Ni0  1  0.00267000  0.00264300  0.00267000  1
  Ni  Ni1  1  0.49914800  0.00134900  0.49914800  1
  Ni  Ni2  1  0.49919800  0.49927300  0.00092700  1
  Ni  Ni3  1  0.00092700  0.49927300  0.49919800  1
  O  O0  1  0.78515200  0.23300300  0.78515200  1
  O  O1  1  0.21425500  0.21345500  0.75162500  1
  O  O2  1  0.21383500  0.75138900  0.21383500  1
  O  O3  1  0.75162500  0.21345500  0.21425500  1
  O  O4  1  0.27930400  0.27779500  0.27930400  1
  O  O5  1  0.73000500  0.73114900  0.73000500  1
  O  O6  1  0.78502100  0.78562800  0.23238600  1
  O  O7  1  0.23238600  0.78562800  0.78502100  1
loop_
_geom_bond_atom_site_label_1
_geom_bond_atom_site_label_2
_geom_bond_distance
_geom_bond_site_symmetry_2
Ba0 O2 2.552748 1_555
Ba0 O1 2.555755 1_555
Ba0 O3 2.555756 1_555
Ba0 O6 2.570450 1_555
Ba0 O7 2.570451 1_555
Ba0 O0 2.570780 1_555
Mg0 O5 2.043432 1_555
Mg0 O0 2.072704 1_565
Mg0 O7 2.072763 1_655
Mg0 O6 2.072763 1_556
Ni0 O2 1.854005 1_545
Ni0 O1 1.854950 1_554
Ni0 O3 1.854950 1_455
Ni0 O6 1.917613 1_445
Ni0 O7 1.917613 1_544
Ni0 O0 1.918191 1_454
Ni1 O4 1.933081 1_555
Ni1 O5 2.026994 1_545
Ni1 O3 2.044633 1_555
Ni1 O1 2.044633 1_555
Ni1 O7 2.124152 1_545
Ni1 O6 2.124153 1_545
Ni2 O4 1.941428 1_555
Ni2 O5 2.031977 1_554
Ni2 O2 2.046523 1_555
Ni2 O3 2.048973 1_555
Ni2 O0 2.122269 1_554
Ni2 O7 2.124477 1_554
Ni3 O4 1.941428 1_555
Ni3 O5 2.031978 1_455
Ni3 O2 2.046523 1_555
Ni3 O1 2.048973 1_555
Ni3 O0 2.122269 1_455
Ni3 O6 2.124477 1_455
