# generated using pymatgen
data_MgMn4Zn2O8
_symmetry_space_group_name_H-M   'P 1'
_cell_length_a   3.04140715
_cell_length_b   8.61951846
_cell_length_c   8.02809154
_cell_angle_alpha   82.90275561
_cell_angle_beta   83.22610503
_cell_angle_gamma   76.68512547
_symmetry_Int_Tables_number   1
_chemical_formula_structural   MgMn4Zn2O8
_chemical_formula_sum   'Mg1 Mn4 Zn2 O8'
_cell_volume   202.35886285
_cell_formula_units_Z   1
loop_
 _symmetry_equiv_pos_site_id
 _symmetry_equiv_pos_as_xyz
  1  'x, y, z'
loop_
 _atom_site_type_symbol
 _atom_site_label
 _atom_site_symmetry_multiplicity
 _atom_site_fract_x
 _atom_site_fract_y
 _atom_site_fract_z
 _atom_site_occupancy
  Mg  Mg0  1  0.32749437  0.74568284  0.69560429  1
  Mn  Mn0  1  0.55341470  0.08323129  0.64614659  1
  Mn  Mn1  1  0.23700257  0.56956133  0.12471740  1
  Mn  Mn2  1  0.92799407  0.39074934  0.84826157  1
  Mn  Mn3  1  0.33590111  0.87426560  0.35590592  1
  Zn  Zn0  1  0.03377358  0.19583556  0.24474841  1
  Zn  Zn1  1  0.68753877  0.93700197  0.99239527  1
  O  O0  1  0.84321620  0.79317435  0.53863215  1
  O  O1  1  0.52898991  0.25029997  0.80659505  1
  O  O2  1  0.62423392  0.72266031  0.15570757  1
  O  O3  1  0.07187340  0.11929190  0.48695081  1
  O  O4  1  0.24386248  0.93151571  0.83019205  1
  O  O5  1  0.84831702  0.40728163  0.12955317  1
  O  O6  1  0.65782898  0.04457974  0.19394313  1
  O  O7  1  0.32808290  0.54920345  0.84709761  1
loop_
_geom_bond_atom_site_label_1
_geom_bond_atom_site_label_2
_geom_bond_distance
_geom_bond_site_symmetry_2
Mg0 O7 1.958938 1_555
Mg0 O0 1.979362 1_555
Mg0 O0 1.989400 1_455
Mg0 O4 1.993250 1_555
Mn0 O3 1.966879 1_655
Mn0 O3 2.002163 1_555
Mn0 O1 2.031003 1_555
Mn0 O4 2.130979 1_545
Mn0 O0 2.666722 1_545
Mn1 O2 2.014076 1_555
Mn1 O5 2.023103 1_455
Mn1 O2 2.028692 1_455
Mn1 O5 2.054417 1_555
Mn1 O7 2.236849 1_554
Mn2 O1 1.963457 1_655
Mn2 O1 1.980563 1_555
Mn2 O7 2.011866 1_555
Mn2 O7 2.026287 1_655
Mn2 O5 2.261232 1_556
Mn3 O0 2.143910 1_455
Mn3 O6 2.166672 1_565
Mn3 O2 2.172199 1_555
Mn3 O0 2.192032 1_555
Mn3 O3 2.404327 1_565
Mn3 O6 2.620157 1_465
O2 Zn1 2.162196 1_554
O3 Zn0 1.982533 1_555
O4 Zn1 1.994474 1_555
O4 Zn1 2.004844 1_455
O5 Zn0 1.930851 1_655
O6 Zn1 1.945181 1_544
O6 Zn0 2.025226 1_655
O6 Zn0 2.068225 1_555
