# generated using pymatgen
data_Na8Sc2Si5Sn2SO24
_symmetry_space_group_name_H-M   'P 1'
_cell_length_a   9.17570393
_cell_length_b   9.16102475
_cell_length_c   22.66667434
_cell_angle_alpha   90.24194119
_cell_angle_beta   89.44853687
_cell_angle_gamma   120.10160683
_symmetry_Int_Tables_number   1
_chemical_formula_structural   Na8Sc2Si5Sn2SO24
_chemical_formula_sum   'Na24 Sc6 Si15 Sn6 S3 O72'
_cell_volume   1648.29938259
_cell_formula_units_Z   3
loop_
 _symmetry_equiv_pos_site_id
 _symmetry_equiv_pos_as_xyz
  1  'x, y, z'
loop_
 _atom_site_type_symbol
 _atom_site_label
 _atom_site_symmetry_multiplicity
 _atom_site_fract_x
 _atom_site_fract_y
 _atom_site_fract_z
 _atom_site_occupancy
  Na  Na0  1  0.63918888  0.00096454  0.25220350  1
  Na  Na1  1  0.36064226  0.36179902  0.24763737  1
  Na  Na2  1  0.00000742  0.63706367  0.24989924  1
  Na  Na3  1  0.63682159  0.63592025  0.74741102  1
  Na  Na4  1  0.99805925  0.36391465  0.74977691  1
  Na  Na5  1  0.36587753  0.00216380  0.74977249  1
  Na  Na6  1  0.30047478  0.33700115  0.58573831  1
  Na  Na7  1  0.03645465  0.70010591  0.58316392  1
  Na  Na8  1  0.66491309  0.96289844  0.58321133  1
  Na  Na9  1  0.28839905  0.96508103  0.08168182  1
  Na  Na10  1  0.66822874  0.69140015  0.08642536  1
  Na  Na11  1  0.04339950  0.33868165  0.08562762  1
  Na  Na12  1  0.97566582  0.66774722  0.91631251  1
  Na  Na13  1  0.70239697  0.04279371  0.91157905  1
  Na  Na14  1  0.32304773  0.28716342  0.91788196  1
  Na  Na15  1  0.96053969  0.29662195  0.41413891  1
  Na  Na16  1  0.32931224  0.02251636  0.41623378  1
  Na  Na17  1  0.71058315  0.67832666  0.41790261  1
  Na  Na18  1  0.99307287  0.99200184  0.50089256  1
  Na  Na19  1  0.01532272  0.00561508  0.99988941  1
  Na  Na20  1  0.66773754  0.32668275  0.83202906  1
  Na  Na21  1  0.67218245  0.33223290  0.33209012  1
  Na  Na22  1  0.32695161  0.65846282  0.16701611  1
  Na  Na23  1  0.33363698  0.66655410  0.66469691  1
  Sc  Sc0  1  0.99210608  0.99203340  0.34775318  1
  Sc  Sc1  1  0.00916462  0.00731677  0.84841097  1
  Sc  Sc2  1  0.00903098  0.00001994  0.15216394  1
  Sc  Sc3  1  0.66459566  0.33388433  0.98188048  1
  Sc  Sc4  1  0.31221655  0.65423174  0.01812540  1
  Sc  Sc5  1  0.33603182  0.67911604  0.52143946  1
  Si  Si0  1  0.29591962  0.00298881  0.25020388  1
  Si  Si1  1  0.70382397  0.70744643  0.24983127  1
  Si  Si2  1  0.99982006  0.29348284  0.25005848  1
  Si  Si3  1  0.29571761  0.29542306  0.74972184  1
  Si  Si4  1  0.99631718  0.70711833  0.75012568  1
  Si  Si5  1  0.70728816  0.99969323  0.75117300  1
  Si  Si6  1  0.96266300  0.33166522  0.58481217  1
  Si  Si7  1  0.37465294  0.04499331  0.58387390  1
  Si  Si8  1  0.66614681  0.62501579  0.58360379  1
  Si  Si9  1  0.95742352  0.62798441  0.08245431  1
  Si  Si10  1  0.37280586  0.33418274  0.08269666  1
  Si  Si11  1  0.03694085  0.36885452  0.91651657  1
  Si  Si12  1  0.33339011  0.96038809  0.91765461  1
  Si  Si13  1  0.62801821  0.96138805  0.41785200  1
  Si  Si14  1  0.03858602  0.66704738  0.41838802  1
  Sn  Sn0  1  0.99936864  0.99963231  0.64897197  1
  Sn  Sn1  1  0.66750768  0.33362531  0.68500239  1
  Sn  Sn2  1  0.66933559  0.34418210  0.18627683  1
  Sn  Sn3  1  0.67690873  0.33158175  0.48568766  1
  Sn  Sn4  1  0.32946597  0.67513297  0.31414111  1
  Sn  Sn5  1  0.32411491  0.66995662  0.81280710  1
  S  S0  1  0.66704288  0.04073578  0.08294761  1
  S  S1  1  0.62429729  0.66712606  0.91696511  1
  S  S2  1  0.33406810  0.37593383  0.41752353  1
  O  O0  1  0.21789726  0.04243768  0.30861440  1
  O  O1  1  0.82159990  0.78527179  0.30767897  1
  O  O2  1  0.96442546  0.17826129  0.30862879  1
  O  O3  1  0.21590024  0.17768537  0.80756295  1
  O  O4  1  0.96016262  0.78662881  0.80846334  1
  O  O5  1  0.82357282  0.03462883  0.80865674  1
  O  O6  1  0.78466342  0.95901107  0.69156194  1
  O  O7  1  0.17504275  0.21723118  0.69150545  1
  O  O8  1  0.03906141  0.82702562  0.69129704  1
  O  O9  1  0.78171005  0.82430970  0.19146014  1
  O  O10  1  0.03546015  0.21376121  0.19132941  1
  O  O11  1  0.17837035  0.96290534  0.19242883  1
  O  O12  1  0.87908506  0.37252098  0.64195968  1
  O  O13  1  0.49523613  0.12497909  0.64145457  1
  O  O14  1  0.62905924  0.50541695  0.64171561  1
  O  O15  1  0.87838493  0.50276347  0.14109939  1
  O  O16  1  0.63446847  0.11514564  0.13684008  1
  O  O17  1  0.49242237  0.36776380  0.14169306  1
  O  O18  1  0.46013831  0.29896733  0.02566594  1
  O  O19  1  0.83902699  0.53781287  0.02551987  1
  O  O20  1  0.69511749  0.14790013  0.03066440  1
  O  O21  1  0.45376886  0.16503620  0.52420680  1
  O  O22  1  0.70490089  0.54400557  0.52384556  1
  O  O23  1  0.84386407  0.28743327  0.52557311  1
  O  O24  1  0.54553583  0.69447944  0.96993350  1
  O  O25  1  0.15916226  0.45426297  0.97339748  1
  O  O26  1  0.30714352  0.84200564  0.97492524  1
  O  O27  1  0.54190623  0.83929576  0.47390316  1
  O  O28  1  0.30725192  0.45311861  0.46932976  1
  O  O29  1  0.15701336  0.69498945  0.47434154  1
  O  O30  1  0.11638749  0.62146435  0.35891276  1
  O  O31  1  0.50835274  0.87968610  0.35845322  1
  O  O32  1  0.36526251  0.48093352  0.36303400  1
  O  O33  1  0.12372926  0.49252489  0.85820605  1
  O  O34  1  0.37634103  0.87905378  0.85862352  1
  O  O35  1  0.51893155  0.63607427  0.86352820  1
  O  O36  1  0.02393441  0.83708602  0.41189588  1
  O  O37  1  0.81740958  0.98703312  0.41183566  1
  O  O38  1  0.18241648  0.20526987  0.41135012  1
  O  O39  1  0.01572874  0.18064872  0.91247045  1
  O  O40  1  0.16085340  0.97131194  0.91256144  1
  O  O41  1  0.79368014  0.81873223  0.91143763  1
  O  O42  1  0.97534069  0.15880433  0.58925348  1
  O  O43  1  0.18716058  0.02754169  0.58842714  1
  O  O44  1  0.83906632  0.81176185  0.58818032  1
  O  O45  1  0.97140396  0.81293619  0.08783441  1
  O  O46  1  0.81971830  0.02579289  0.08822769  1
  O  O47  1  0.18402755  0.16702776  0.08767384  1
  O  O48  1  0.68707280  0.16828032  0.74481659  1
  O  O49  1  0.48294107  0.31283326  0.74438523  1
  O  O50  1  0.82824477  0.51763692  0.74472249  1
  O  O51  1  0.68592775  0.51833967  0.24641172  1
  O  O52  1  0.82801749  0.31050512  0.24369290  1
  O  O53  1  0.48738035  0.16936933  0.24246471  1
  O  O54  1  0.64119557  0.51443729  0.92181702  1
  O  O55  1  0.85309295  0.35713517  0.92205262  1
  O  O56  1  0.50280961  0.14841184  0.92125137  1
  O  O57  1  0.63744148  0.14925068  0.42178191  1
  O  O58  1  0.48809851  0.35854684  0.42122266  1
  O  O59  1  0.84594874  0.49435286  0.42155766  1
  O  O60  1  0.36560043  0.50992678  0.07849829  1
  O  O61  1  0.14627262  0.64785214  0.07994040  1
  O  O62  1  0.51640526  0.87083923  0.07690502  1
  O  O63  1  0.35670028  0.85945570  0.57910446  1
  O  O64  1  0.49836492  0.64077168  0.57771772  1
  O  O65  1  0.14744335  0.49731019  0.57742319  1
  O  O66  1  0.31364401  0.83187813  0.25390128  1
  O  O67  1  0.51268437  0.68262973  0.25797937  1
  O  O68  1  0.17229789  0.48262485  0.25649491  1
  O  O69  1  0.31703343  0.48534436  0.75709904  1
  O  O70  1  0.16753946  0.68926142  0.75305906  1
  O  O71  1  0.51905985  0.82637369  0.75626300  1
loop_
_geom_bond_atom_site_label_1
_geom_bond_atom_site_label_2
_geom_bond_distance
_geom_bond_site_symmetry_2
Na0 O52 2.479987 1_555
Na0 O67 2.544398 1_545
Na0 O53 2.556077 1_555
Na0 O66 2.584711 1_545
Na0 O31 2.665466 1_545
Na0 O16 2.829219 1_555
Na0 O9 2.879978 1_545
Na0 O2 2.893732 1_555
Na1 O68 2.482417 1_555
Na1 O53 2.554550 1_555
Na1 O67 2.554855 1_555
Na1 O51 2.582866 1_555
Na1 O17 2.666604 1_555
Na1 O32 2.822449 1_555
Na1 O0 2.888076 1_555
Na1 O10 2.893241 1_555
Na2 O66 2.515381 1_555
Na2 O51 2.520742 1_455
Na2 O52 2.593279 1_455
Na2 O68 2.602524 1_555
Na2 O30 2.733739 1_555
Na2 O15 2.736974 1_455
Na2 O11 2.894367 1_555
Na2 O1 2.900291 1_455
Na3 O71 2.477081 1_555
Na3 O50 2.483845 1_555
Na3 O69 2.547773 1_555
Na3 O49 2.562613 1_555
Na3 O14 2.658526 1_555
Na3 O35 2.836229 1_555
Na3 O6 2.859112 1_555
Na3 O4 2.928776 1_555
Na4 O48 2.498380 1_555
Na4 O69 2.563827 1_655
Na4 O50 2.574882 1_555
Na4 O70 2.580396 1_655
Na4 O12 2.703650 1_555
Na4 O33 2.724992 1_655
Na4 O7 2.884463 1_655
Na4 O5 2.931333 1_555
Na5 O49 2.490514 1_555
Na5 O70 2.510152 1_545
Na5 O48 2.551608 1_555
Na5 O71 2.620522 1_545
Na5 O13 2.707482 1_555
Na5 O34 2.739595 1_545
Na5 O3 2.891761 1_555
Na5 O8 2.925077 1_545
Na6 O64 2.450250 1_555
Na6 O43 2.483016 1_555
Na6 O65 2.497982 1_555
Na6 O42 2.585141 1_455
Na6 O7 2.641666 1_555
Na6 O28 2.837572 1_555
Na6 O14 2.910604 1_555
Na6 O21 2.927778 1_555
Na7 O44 2.488562 1_455
Na7 O65 2.529579 1_555
Na7 O63 2.543091 1_555
Na7 O43 2.600721 1_565
Na7 O29 2.703466 1_555
Na7 O8 2.703541 1_555
Na7 O12 2.918439 1_455
Na7 O22 2.967603 1_455
Na8 O63 2.494146 1_555
Na8 O42 2.496151 1_565
Na8 O64 2.556628 1_555
Na8 O44 2.589850 1_555
Na8 O6 2.707809 1_555
Na8 O27 2.728190 1_555
Na8 O23 2.887371 1_565
Na8 O13 2.938409 1_565
Na9 O47 2.476047 1_565
Na9 O61 2.519202 1_555
Na9 O45 2.519860 1_455
Na9 O62 2.634518 1_555
Na9 O11 2.693058 1_555
Na9 O26 2.705514 1_554
Na10 O45 2.423622 1_555
Na10 O60 2.425569 1_555
Na10 O9 2.643186 1_555
Na10 O62 2.644867 1_555
Na10 O46 2.654605 1_565
Na10 O17 2.856034 1_555
Na10 O24 2.886185 1_554
Na10 O19 2.914692 1_555
Na11 O47 2.485386 1_555
Na11 O61 2.499734 1_555
Na11 O46 2.555402 1_455
Na11 O60 2.562877 1_555
Na11 O10 2.644145 1_555
Na11 O25 2.750154 1_554
Na11 O15 2.891947 1_455
Na12 O40 2.426434 1_655
Na12 O55 2.483751 1_555
Na12 O41 2.652434 1_555
Na12 O54 2.660342 1_555
Na12 O4 2.714200 1_555
Na12 O19 2.753982 1_556
Na12 O33 2.879652 1_655
Na12 O26 2.958712 1_655
Na13 O56 2.471032 1_555
Na13 O39 2.494002 1_655
Na13 O55 2.503478 1_555
Na13 O41 2.576683 1_545
Na13 O5 2.591588 1_555
Na13 O34 2.862527 1_545
Na13 O20 2.873456 1_556
Na14 O39 2.482836 1_555
Na14 O40 2.506573 1_545
Na14 O56 2.539390 1_555
Na14 O54 2.602232 1_555
Na14 O3 2.694878 1_555
Na14 O18 2.735554 1_556
Na14 O25 2.905935 1_555
Na15 O37 2.456654 1_545
Na15 O59 2.513873 1_555
Na15 O38 2.560320 1_655
Na15 O57 2.572777 1_555
Na15 O2 2.629031 1_555
Na15 O23 2.718908 1_555
Na15 O30 2.862904 1_655
Na16 O36 2.444630 1_545
Na16 O57 2.463819 1_555
Na16 O38 2.626780 1_555
Na16 O58 2.667085 1_555
Na16 O0 2.695900 1_555
Na16 O21 2.744035 1_555
Na16 O31 2.868197 1_545
Na16 O29 2.910703 1_545
Na17 O37 2.489532 1_555
Na17 O36 2.490036 1_655
Na17 O59 2.548159 1_555
Na17 O58 2.599099 1_555
Na17 O1 2.685174 1_555
Na17 O22 2.691038 1_555
Na17 O27 2.901207 1_555
Na18 O44 2.504227 1_555
Na18 O36 2.555691 1_655
Na18 O42 2.567134 1_565
Na18 O37 2.581315 1_555
Na18 O43 2.587520 1_665
Na18 O38 2.741494 1_665
Na19 O40 2.482913 1_545
Na19 O47 2.506084 1_556
Na19 O39 2.553080 1_555
Na19 O45 2.559799 1_446
Na19 O46 2.743234 1_456
Na19 O41 2.764736 1_445
Na20 O48 2.504460 1_555
Na20 O50 2.556232 1_555
Na20 O56 2.556800 1_555
Na20 O49 2.585490 1_555
Na20 O55 2.592351 1_555
Na20 O54 2.746068 1_555
Na21 O52 2.515133 1_555
Na21 O51 2.549859 1_555
Na21 O59 2.553820 1_555
Na21 O57 2.554421 1_555
Na21 O53 2.594500 1_555
Na21 O58 2.707686 1_555
Na22 O68 2.530098 1_555
Na22 O60 2.539750 1_555
Na22 O61 2.559925 1_555
Na22 O66 2.565310 1_555
Na22 O67 2.624861 1_555
Na22 O62 2.748054 1_555
Na23 O64 2.554239 1_555
Na23 O63 2.564683 1_555
Na23 O65 2.572578 1_555
Na23 O70 2.575516 1_555
Na23 O71 2.624819 1_555
Na23 O69 2.633493 1_555
O0 Si0 1.622734 1_555
O0 Sc0 2.073898 1_445
O1 Si1 1.625422 1_555
O1 Sc0 1.975071 1_555
O2 Si2 1.625372 1_555
O2 Sc0 2.052629 1_545
O3 Si3 1.618560 1_555
O3 Sc1 1.974908 1_555
O4 Si4 1.617082 1_555
O4 Sc1 2.046950 1_665
O5 Si5 1.618434 1_545
O5 Sc1 2.057523 1_655
O6 Si5 1.646618 1_555
O6 Sn0 2.045154 1_555
O7 Si3 1.644685 1_555
O7 Sn0 2.071740 1_445
O8 Si4 1.645816 1_455
O8 Sn0 2.037306 1_455
O9 Si1 1.622881 1_555
O9 Sc2 2.084143 1_665
O10 Si2 1.623386 1_455
O10 Sc2 2.047970 1_555
O11 Si0 1.624508 1_565
O11 Sc2 1.980591 1_565
O12 Si6 1.634262 1_555
O12 Sn1 2.029864 1_555
O13 Si7 1.634339 1_555
O13 Sn1 2.027293 1_555
O14 Si8 1.637325 1_555
O14 Sn1 2.034843 1_555
O15 Si9 1.663955 1_555
O15 Sn2 2.004516 1_555
O16 S0 1.495506 1_555
O16 Sn2 2.252600 1_555
O17 Si10 1.665420 1_555
O17 Sn2 2.021933 1_555
O18 Si10 1.628844 1_555
O18 Sc3 1.992923 1_554
O19 Si9 1.626600 1_555
O19 Sc3 2.011435 1_554
O20 S0 1.478130 1_555
O20 Sc3 2.169013 1_554
O21 Si7 1.660838 1_555
O21 Sn3 2.031167 1_555
O22 Si8 1.660991 1_555
O22 Sn3 2.022309 1_555
O23 Si6 1.654067 1_555
O23 Sn3 1.994736 1_555
O24 S1 1.479516 1_555
O24 Sc4 2.253685 1_556
O25 Si11 1.634421 1_555
O25 Sc4 1.946068 1_556
O26 Si12 1.631929 1_555
O26 Sc4 2.003877 1_556
O27 Si13 1.611116 1_555
O27 Sc5 2.019015 1_555
O28 S2 1.449617 1_555
O28 Sc5 2.277767 1_555
O29 Si14 1.612343 1_555
O29 Sc5 2.033146 1_555
O30 Si14 1.666476 1_555
O30 Sn4 2.023856 1_555
O31 Si13 1.665580 1_555
O31 Sn4 2.035967 1_555
O32 S2 1.503233 1_555
O32 Sn4 2.260742 1_555
O33 Si11 1.658927 1_555
O33 Sn5 2.015345 1_555
O34 Si12 1.666382 1_555
O34 Sn5 2.012327 1_555
O35 S1 1.492143 1_555
O35 Sn5 2.283131 1_555
O36 Si14 1.636650 1_555
O36 Sc0 2.157653 1_455
O37 Si13 1.637047 1_555
O37 Sc0 2.136245 1_555
O38 S2 1.489944 1_555
O38 Sc0 2.355071 1_445
O39 Si11 1.637501 1_555
O39 Sc1 2.125953 1_555
O40 Si12 1.640800 1_555
O40 Sc1 2.159605 1_565
O41 S1 1.480783 1_555
O41 Sc1 2.339892 1_665
O42 Si6 1.648560 1_555
O42 Sn0 2.086162 1_545
O43 Si7 1.648251 1_555
O43 Sn0 2.105563 1_445
O44 Si8 1.653462 1_555
O44 Sn0 2.122279 1_555
O45 Si9 1.637889 1_555
O45 Sc2 2.139577 1_665
O46 S0 1.480312 1_555
O46 Sc2 2.374062 1_655
O47 Si10 1.641683 1_555
O47 Sc2 2.136675 1_555
O48 Si5 1.652326 1_545
O48 Sn1 2.111775 1_555
O49 Si3 1.646997 1_555
O49 Sn1 2.085854 1_555
O50 Si4 1.650186 1_555
O50 Sn1 2.091560 1_555
O51 Si1 1.657703 1_555
O51 Sn2 2.041712 1_555
O52 Si2 1.667739 1_555
O52 Sn2 2.097461 1_555
O53 Si0 1.658520 1_555
O53 Sn2 2.066038 1_555
O54 S1 1.487252 1_555
O54 Sc3 2.239727 1_555
O55 Si11 1.639326 1_655
O55 Sc3 2.112729 1_555
O56 Si12 1.644862 1_545
O56 Sc3 2.113954 1_555
O57 Si13 1.681336 1_545
O57 Sn3 2.098173 1_555
O58 S2 1.502707 1_555
O58 Sn3 2.382992 1_555
O59 Si14 1.681051 1_655
O59 Sn3 2.096963 1_555
O60 Si10 1.647331 1_555
O60 Sc4 2.130248 1_555
O61 Si9 1.649509 1_455
O61 Sc4 2.038490 1_555
O62 S0 1.481774 1_565
O62 Sc4 2.349368 1_555
O63 Si7 1.626589 1_565
O63 Sc5 2.036194 1_555
O64 Si8 1.623502 1_555
O64 Sc5 2.129441 1_555
O65 Si6 1.619070 1_455
O65 Sc5 2.112652 1_555
O66 Si0 1.657641 1_565
O66 Sn4 2.043751 1_555
O67 Si1 1.660096 1_555
O67 Sn4 2.072502 1_555
O68 Si2 1.667318 1_455
O68 Sn4 2.088768 1_555
O69 Si3 1.658375 1_555
O69 Sn5 2.081411 1_555
O70 Si4 1.661142 1_455
O70 Sn5 2.055187 1_555
O71 Si5 1.662626 1_555
O71 Sn5 2.072672 1_555
