# generated using pymatgen
data_Fe3O4
_symmetry_space_group_name_H-M   'P 1'
_cell_length_a   3.00756923
_cell_length_b   5.04741294
_cell_length_c   5.04710620
_cell_angle_alpha   73.06372354
_cell_angle_beta   90.00000000
_cell_angle_gamma   90.00000000
_symmetry_Int_Tables_number   1
_chemical_formula_structural   Fe3O4
_chemical_formula_sum   'Fe3 O4'
_cell_volume   73.29436863
_cell_formula_units_Z   1
loop_
 _symmetry_equiv_pos_site_id
 _symmetry_equiv_pos_as_xyz
  1  'x, y, z'
loop_
 _atom_site_type_symbol
 _atom_site_label
 _atom_site_symmetry_multiplicity
 _atom_site_fract_x
 _atom_site_fract_y
 _atom_site_fract_z
 _atom_site_occupancy
  Fe  Fe0  1  -0.00000000  0.00000000  -0.00000000  1
  Fe  Fe1  1  -0.00000000  0.50000000  0.50000000  1
  Fe  Fe2  1  0.50000000  0.00000000  0.50000000  1
  O  O0  1  -0.00000000  0.22558361  0.27442290  1
  O  O1  1  0.50000000  0.75185282  0.25189930  1
  O  O2  1  -0.00000000  0.77441639  0.72557710  1
  O  O3  1  0.50000000  0.24814718  0.74810070  1
loop_
_geom_bond_atom_site_label_1
_geom_bond_atom_site_label_2
_geom_bond_distance
_geom_bond_site_symmetry_2
Fe0 O0 2.033121 1_555
Fe0 O2 2.033121 1_544
Fe0 O1 2.125733 1_445
Fe0 O1 2.125733 1_545
Fe0 O3 2.125733 1_554
Fe0 O3 2.125733 1_454
Fe1 O2 2.033087 1_555
Fe1 O0 2.033087 1_555
Fe1 O3 2.125537 1_455
Fe1 O3 2.125537 1_555
Fe1 O1 2.125537 1_555
Fe1 O1 2.125537 1_455
Fe2 O3 2.012585 1_555
Fe2 O1 2.012585 1_545
Fe2 O2 2.024539 1_545
Fe2 O2 2.024539 1_645
Fe2 O0 2.024539 1_655
Fe2 O0 2.024539 1_555
