# generated using pymatgen
data_CrHO2
_symmetry_space_group_name_H-M   'P 1'
_cell_length_a   4.79401449
_cell_length_b   4.79401458
_cell_length_c   4.79401427
_cell_angle_alpha   36.47392936
_cell_angle_beta   36.47392347
_cell_angle_gamma   36.47392210
_symmetry_Int_Tables_number   1
_chemical_formula_structural   CrHO2
_chemical_formula_sum   'Cr1 H1 O2'
_cell_volume   34.85351235
_cell_formula_units_Z   1
loop_
 _symmetry_equiv_pos_site_id
 _symmetry_equiv_pos_as_xyz
  1  'x, y, z'
loop_
 _atom_site_type_symbol
 _atom_site_label
 _atom_site_symmetry_multiplicity
 _atom_site_fract_x
 _atom_site_fract_y
 _atom_site_fract_z
 _atom_site_occupancy
  Cr  Cr0  1  0.00215207  0.00215207  0.00215207  1
  H  H0  1  0.51376696  0.51376696  0.51376696  1
  O  O0  1  0.40579281  0.40579281  0.40579281  1
  O  O1  1  0.59168816  0.59168816  0.59168816  1
loop_
_geom_bond_atom_site_label_1
_geom_bond_atom_site_label_2
_geom_bond_distance
_geom_bond_site_symmetry_2
Cr0 O0 1.972319 1_455
Cr0 O0 1.972319 1_545
Cr0 O0 1.972319 1_554
Cr0 O1 2.017660 1_544
Cr0 O1 2.017661 1_454
Cr0 O1 2.017661 1_445
H0 O1 1.044938 1_555
H0 O0 1.447954 1_555
