# generated using pymatgen
data_Na6Sc3TaSi4(SO12)2
_symmetry_space_group_name_H-M   'P 1'
_cell_length_a   9.12608683
_cell_length_b   9.13875608
_cell_length_c   22.54211216
_cell_angle_alpha   89.75119508
_cell_angle_beta   90.30199286
_cell_angle_gamma   120.03237581
_symmetry_Int_Tables_number   1
_chemical_formula_structural   Na6Sc3TaSi4(SO12)2
_chemical_formula_sum   'Na18 Sc9 Ta3 Si12 S6 O72'
_cell_volume   1627.60220343
_cell_formula_units_Z   3
loop_
 _symmetry_equiv_pos_site_id
 _symmetry_equiv_pos_as_xyz
  1  'x, y, z'
loop_
 _atom_site_type_symbol
 _atom_site_label
 _atom_site_symmetry_multiplicity
 _atom_site_fract_x
 _atom_site_fract_y
 _atom_site_fract_z
 _atom_site_occupancy
  Na  Na0  1  0.62322364  0.99921314  0.25202943  1
  Na  Na1  1  0.64181131  0.62701230  0.75189342  1
  Na  Na2  1  0.00242388  0.36481819  0.74278094  1
  Na  Na3  1  0.29571595  0.34446722  0.58480434  1
  Na  Na4  1  0.02301786  0.69080975  0.58896926  1
  Na  Na5  1  0.67651725  0.96115256  0.57503701  1
  Na  Na6  1  0.29788161  0.95105621  0.08723017  1
  Na  Na7  1  0.67008081  0.71255161  0.07649467  1
  Na  Na8  1  0.02771271  0.33720750  0.08218822  1
  Na  Na9  1  0.97442687  0.68246210  0.91398943  1
  Na  Na10  1  0.32478044  0.29419591  0.91131227  1
  Na  Na11  1  0.68159404  0.67295978  0.41373096  1
  Na  Na12  1  0.99699768  0.02369606  0.49465579  1
  Na  Na13  1  0.97779867  0.99365657  0.99415395  1
  Na  Na14  1  0.65100684  0.32213257  0.82910531  1
  Na  Na15  1  0.63517081  0.31283787  0.33034764  1
  Na  Na16  1  0.31579889  0.67568298  0.16956257  1
  Na  Na17  1  0.32543555  0.65773056  0.66515697  1
  Sc  Sc0  1  0.02273409  0.01829653  0.35357904  1
  Sc  Sc1  1  0.00546180  0.99797244  0.85303279  1
  Sc  Sc2  1  0.00641410  0.00350375  0.64956055  1
  Sc  Sc3  1  0.00441545  0.98796731  0.14822982  1
  Sc  Sc4  1  0.67117296  0.34842719  0.68663716  1
  Sc  Sc5  1  0.66528925  0.32465174  0.18620108  1
  Sc  Sc6  1  0.33421816  0.67464811  0.01716039  1
  Sc  Sc7  1  0.33998390  0.65588278  0.51568088  1
  Sc  Sc8  1  0.34162340  0.67669018  0.31735887  1
  Ta  Ta0  1  0.68071214  0.33410225  0.97583442  1
  Ta  Ta1  1  0.67349211  0.33406586  0.47787741  1
  Ta  Ta2  1  0.32570840  0.66291184  0.81742650  1
  Si  Si0  1  0.29742483  0.99721726  0.24904808  1
  Si  Si1  1  0.29756473  0.29661939  0.75116846  1
  Si  Si2  1  0.00656849  0.70875459  0.74983960  1
  Si  Si3  1  0.96150955  0.33506395  0.58587555  1
  Si  Si4  1  0.66904099  0.63049086  0.58305634  1
  Si  Si5  1  0.95740400  0.62329152  0.08412530  1
  Si  Si6  1  0.66807932  0.03950044  0.08505476  1
  Si  Si7  1  0.62667783  0.66842867  0.91948178  1
  Si  Si8  1  0.04184988  0.36899074  0.91983109  1
  Si  Si9  1  0.33816299  0.96202444  0.91822473  1
  Si  Si10  1  0.63257688  0.96329953  0.41695551  1
  Si  Si11  1  0.33436432  0.37135614  0.41798617  1
  S  S0  1  0.70522024  0.70381274  0.25064608  1
  S  S1  1  0.00340605  0.29486936  0.24880298  1
  S  S2  1  0.70191606  0.99534197  0.74966741  1
  S  S3  1  0.38045793  0.04748751  0.58216100  1
  S  S4  1  0.37759717  0.33286345  0.08235272  1
  S  S5  1  0.03737396  0.66407548  0.41823872  1
  O  O0  1  0.19210053  0.01317964  0.30415994  1
  O  O1  1  0.80471872  0.78642421  0.30459577  1
  O  O2  1  0.97545335  0.18273334  0.30060888  1
  O  O3  1  0.20210952  0.19011026  0.80975479  1
  O  O4  1  0.96783718  0.79109308  0.80684613  1
  O  O5  1  0.81093112  0.02237611  0.80154274  1
  O  O6  1  0.77712862  0.96754592  0.69479969  1
  O  O7  1  0.17802176  0.21886553  0.69141823  1
  O  O8  1  0.02932814  0.81658391  0.68888155  1
  O  O9  1  0.78874855  0.81150031  0.19664894  1
  O  O10  1  0.02011029  0.21500586  0.19336619  1
  O  O11  1  0.19270101  0.98179017  0.18669244  1
  O  O12  1  0.87102699  0.35314366  0.64504380  1
  O  O13  1  0.48482262  0.12339319  0.63537521  1
  O  O14  1  0.63547619  0.51233341  0.64146102  1
  O  O15  1  0.85529683  0.50008726  0.13857082  1
  O  O16  1  0.63364113  0.12321642  0.14288475  1
  O  O17  1  0.48242293  0.35423555  0.13496252  1
  O  O18  1  0.45750059  0.30966642  0.02764970  1
  O  O19  1  0.83597266  0.52878261  0.02323550  1
  O  O20  1  0.68653096  0.16993285  0.02790541  1
  O  O21  1  0.46581634  0.15506151  0.52854785  1
  O  O22  1  0.68866599  0.52387359  0.52620405  1
  O  O23  1  0.83036011  0.31164694  0.52953888  1
  O  O24  1  0.53945514  0.68507605  0.97901725  1
  O  O25  1  0.15225491  0.45495306  0.97841138  1
  O  O26  1  0.30181546  0.84849449  0.97721276  1
  O  O27  1  0.54006007  0.85012656  0.47613536  1
  O  O28  1  0.31250036  0.45129419  0.47994692  1
  O  O29  1  0.13273677  0.68531002  0.47367443  1
  O  O30  1  0.11661888  0.63742352  0.36621747  1
  O  O31  1  0.51646716  0.88339589  0.35755859  1
  O  O32  1  0.37578642  0.50419674  0.36377555  1
  O  O33  1  0.13529040  0.49937828  0.86150327  1
  O  O34  1  0.36334081  0.86000443  0.86156183  1
  O  O35  1  0.50081011  0.63781780  0.86051169  1
  O  O36  1  0.00293426  0.80529872  0.41196733  1
  O  O37  1  0.81405150  0.97077679  0.41072499  1
  O  O38  1  0.17479260  0.18172521  0.41334832  1
  O  O39  1  0.01788540  0.18537832  0.91039611  1
  O  O40  1  0.17374209  0.98460679  0.91048644  1
  O  O41  1  0.81779749  0.82182168  0.91182885  1
  O  O42  1  0.97886815  0.16473515  0.58533533  1
  O  O43  1  0.21282062  0.03835539  0.58517772  1
  O  O44  1  0.84312051  0.81492225  0.58512749  1
  O  O45  1  0.97215453  0.81078655  0.08510308  1
  O  O46  1  0.84563843  0.03566173  0.08640067  1
  O  O47  1  0.20569038  0.17940752  0.08598371  1
  O  O48  1  0.67955632  0.14379513  0.74382698  1
  O  O49  1  0.48875664  0.32586656  0.74724115  1
  O  O50  1  0.84406150  0.51312848  0.74693604  1
  O  O51  1  0.68546269  0.53412372  0.24488933  1
  O  O52  1  0.84593390  0.30773360  0.24586230  1
  O  O53  1  0.48981106  0.16546811  0.24790665  1
  O  O54  1  0.63147293  0.48621329  0.92350876  1
  O  O55  1  0.85815476  0.36824859  0.92134512  1
  O  O56  1  0.50558157  0.15326093  0.92356026  1
  O  O57  1  0.65356479  0.15501107  0.42707434  1
  O  O58  1  0.51394594  0.36069902  0.42597277  1
  O  O59  1  0.86156167  0.50514828  0.42278367  1
  O  O60  1  0.35878683  0.48457810  0.07893257  1
  O  O61  1  0.14356547  0.63908048  0.08073103  1
  O  O62  1  0.50353947  0.85002901  0.07987400  1
  O  O63  1  0.35418287  0.87472163  0.57561045  1
  O  O64  1  0.50280992  0.65574461  0.57996885  1
  O  O65  1  0.14385714  0.51074274  0.57935566  1
  O  O66  1  0.32099520  0.82894001  0.25303031  1
  O  O67  1  0.53567930  0.69265558  0.25270325  1
  O  O68  1  0.15434580  0.46372452  0.25526670  1
  O  O69  1  0.31951430  0.49315562  0.75771569  1
  O  O70  1  0.17764863  0.68701888  0.75739640  1
  O  O71  1  0.53344193  0.83583124  0.75586783  1
loop_
_geom_bond_atom_site_label_1
_geom_bond_atom_site_label_2
_geom_bond_distance
_geom_bond_site_symmetry_2
Na0 O53 2.376713 1_565
Na0 O66 2.394491 1_555
Na0 O67 2.499308 1_555
Na0 O52 2.522546 1_565
Na0 O31 2.588196 1_555
Na0 O16 2.686447 1_565
Na1 O49 2.385196 1_555
Na1 O50 2.535450 1_555
Na1 O71 2.553332 1_555
Na1 O69 2.562431 1_555
Na1 O14 2.694289 1_555
Na1 O35 2.796992 1_555
Na1 O4 2.854303 1_555
Na1 O6 3.000230 1_555
Na2 O50 2.428530 1_455
Na2 O12 2.479828 1_455
Na2 O69 2.541421 1_555
Na2 O70 2.574009 1_555
Na2 O48 2.608700 1_455
Na2 O7 2.803617 1_555
Na2 O33 2.940514 1_555
Na2 O5 3.019335 1_455
Na3 O43 2.505943 1_555
Na3 O64 2.508774 1_555
Na3 O42 2.511040 1_455
Na3 O65 2.519788 1_555
Na3 O28 2.529379 1_555
Na3 O7 2.648817 1_555
Na4 O65 2.406907 1_555
Na4 O44 2.418877 1_455
Na4 O8 2.520297 1_555
Na4 O63 2.640100 1_555
Na4 O43 2.754589 1_565
Na4 O29 2.799790 1_555
Na4 O12 2.957083 1_455
Na4 O22 2.992231 1_455
Na5 O64 2.426038 1_555
Na5 O42 2.446897 1_565
Na5 O44 2.485334 1_555
Na5 O27 2.505267 1_555
Na5 O63 2.636644 1_555
Na5 O6 2.838384 1_555
Na5 O23 2.961078 1_565
Na6 O61 2.473001 1_555
Na6 O62 2.478229 1_555
Na6 O11 2.515007 1_555
Na6 O45 2.581998 1_455
Na6 O47 2.611570 1_565
Na6 O26 2.661790 1_554
Na6 O16 2.930769 1_565
Na7 O62 2.409922 1_555
Na7 O45 2.441694 1_555
Na7 O24 2.447457 1_554
Na7 O60 2.547625 1_555
Na7 O46 2.569510 1_565
Na7 O9 2.887346 1_555
Na8 O46 2.404178 1_455
Na8 O61 2.410300 1_555
Na8 O25 2.589248 1_554
Na8 O60 2.622298 1_555
Na8 O47 2.658417 1_555
Na8 O10 2.726340 1_555
Na8 O15 2.947693 1_455
Na8 O20 2.956462 1_455
Na9 O41 2.342766 1_555
Na9 O40 2.431332 1_655
Na9 O55 2.519289 1_555
Na9 O4 2.619150 1_555
Na9 O54 2.728258 1_555
Na9 O19 2.803575 1_556
Na9 O26 2.948944 1_655
Na9 O33 2.974673 1_655
Na10 O40 2.449809 1_545
Na10 O39 2.458697 1_555
Na10 O54 2.463438 1_555
Na10 O3 2.514965 1_555
Na10 O56 2.564560 1_555
Na10 O18 2.857065 1_556
Na10 O35 2.948206 1_555
Na11 O37 2.362073 1_555
Na11 O58 2.487513 1_555
Na11 O36 2.552434 1_655
Na11 O32 2.666262 1_555
Na11 O1 2.689011 1_555
Na11 O59 2.757897 1_555
Na11 O22 2.888757 1_555
Na11 O27 2.898439 1_555
Na12 O38 2.395934 1_655
Na12 O37 2.401539 1_545
Na12 O42 2.471231 1_555
Na12 O44 2.661949 1_545
Na12 O36 2.757259 1_645
Na12 O43 2.785156 1_655
Na13 O41 2.396576 1_555
Na13 O39 2.470925 1_665
Na13 O46 2.534349 1_566
Na13 O45 2.623743 1_556
Na13 O40 2.635638 1_655
Na13 O47 2.818384 1_666
Na14 O49 2.370730 1_555
Na14 O50 2.551411 1_555
Na14 O56 2.574429 1_555
Na14 O48 2.622414 1_555
Na14 O54 2.666113 1_555
Na14 O55 2.691375 1_555
Na15 O53 2.287930 1_555
Na15 O58 2.565053 1_555
Na15 O51 2.656640 1_555
Na15 O57 2.659691 1_555
Na15 O52 2.730941 1_555
Na15 O59 2.837424 1_555
Na16 O66 2.336562 1_555
Na16 O61 2.457368 1_555
Na16 O68 2.606948 1_555
Na16 O62 2.614899 1_555
Na16 O67 2.685986 1_555
Na16 O60 2.846597 1_555
Na17 O65 2.460071 1_555
Na17 O64 2.524032 1_555
Na17 O69 2.551647 1_555
Na17 O70 2.570951 1_555
Na17 O71 2.707244 1_555
Na17 O63 2.743338 1_555
O0 Si0 1.625762 1_545
O0 Sc0 1.929560 1_555
O1 S0 1.477708 1_555
O1 Sc0 2.333469 1_665
O2 S1 1.486646 1_655
O2 Sc0 2.120907 1_655
O3 Si1 1.613274 1_555
O3 Sc1 2.026062 1_545
O4 Si2 1.619233 1_655
O4 Sc1 2.034661 1_655
O5 S2 1.470539 1_545
O5 Sc1 2.218332 1_645
O6 S2 1.500544 1_555
O6 Sc2 2.204023 1_665
O7 Si1 1.651089 1_555
O7 Sc2 2.032680 1_555
O8 Si2 1.639753 1_555
O8 Sc2 2.022339 1_565
O9 S0 1.509850 1_555
O9 Sc3 2.120384 1_655
O10 S1 1.496289 1_555
O10 Sc3 2.253904 1_545
O11 Si0 1.661852 1_555
O11 Sc3 1.946402 1_555
O12 Si3 1.624260 1_555
O12 Sc4 2.036295 1_555
O13 S3 1.470078 1_555
O13 Sc4 2.226183 1_555
O14 Si4 1.629105 1_555
O14 Sc4 1.964333 1_555
O15 Si5 1.610030 1_555
O15 Sc5 1.987953 1_555
O16 Si6 1.623932 1_555
O16 Sc5 1.976382 1_555
O17 S4 1.470643 1_555
O17 Sc5 2.149617 1_555
O18 S4 1.504579 1_555
O18 Ta0 2.265213 1_554
O19 Si5 1.701244 1_555
O19 Ta0 1.947284 1_554
O20 Si6 1.702017 1_555
O20 Ta0 1.922320 1_554
O21 S3 1.505634 1_555
O21 Ta1 2.115639 1_555
O22 Si4 1.676841 1_555
O22 Ta1 1.997292 1_555
O23 Si3 1.679595 1_555
O23 Ta1 1.929138 1_555
O24 Si7 1.610009 1_555
O24 Sc6 2.023400 1_556
O25 Si8 1.605864 1_555
O25 Sc6 2.052858 1_556
O26 Si9 1.613320 1_555
O26 Sc6 1.969131 1_556
O27 Si10 1.639517 1_555
O27 Sc7 2.009663 1_555
O28 Si11 1.637695 1_555
O28 Sc7 1.936243 1_555
O29 S5 1.475889 1_555
O29 Sc7 2.243711 1_555
O30 S5 1.464660 1_555
O30 Sc8 2.200255 1_555
O31 Si10 1.633336 1_555
O31 Sc8 1.979430 1_555
O32 Si11 1.625622 1_555
O32 Sc8 2.037440 1_555
O33 Si8 1.690244 1_555
O33 Ta2 1.909514 1_555
O34 Si9 1.667759 1_555
O34 Ta2 1.935149 1_555
O35 Si7 1.682341 1_555
O35 Ta2 1.974334 1_555
O36 S5 1.479328 1_555
O36 Sc0 2.276445 1_565
O37 Si10 1.629824 1_555
O37 Sc0 2.160583 1_665
O38 Si11 1.615147 1_555
O38 Sc0 1.973526 1_555
O39 Si8 1.594987 1_555
O39 Sc1 2.107475 1_545
O40 Si9 1.622183 1_555
O40 Sc1 2.053338 1_555
O41 Si7 1.609555 1_555
O41 Sc1 2.127660 1_655
O42 Si3 1.641719 1_555
O42 Sc2 2.163033 1_655
O43 S3 1.491759 1_555
O43 Sc2 2.276030 1_555
O44 Si4 1.639050 1_555
O44 Sc2 2.174552 1_665
O45 Si5 1.650456 1_555
O45 Sc3 2.066856 1_655
O46 Si6 1.638379 1_555
O46 Sc3 2.199503 1_645
O47 S4 1.494234 1_555
O47 Sc3 2.278773 1_545
O48 S2 1.474728 1_545
O48 Sc4 2.299192 1_555
O49 Si1 1.630437 1_555
O49 Sc4 2.087629 1_555
O50 Si2 1.657079 1_655
O50 Sc4 2.054399 1_555
O51 S0 1.475053 1_555
O51 Sc5 2.261715 1_555
O52 S1 1.500509 1_655
O52 Sc5 2.186414 1_555
O53 Si0 1.656911 1_545
O53 Sc5 2.071139 1_555
O54 Si7 1.689588 1_555
O54 Ta0 2.032500 1_555
O55 Si8 1.673561 1_655
O55 Ta0 1.933970 1_555
O56 Si9 1.652350 1_545
O56 Ta0 2.006832 1_555
O57 Si10 1.680876 1_545
O57 Ta1 1.933490 1_555
O58 Si11 1.698330 1_555
O58 Ta1 1.970424 1_555
O59 S5 1.536921 1_655
O59 Ta1 2.062086 1_555
O60 S4 1.481528 1_555
O60 Sc6 2.317755 1_555
O61 Si5 1.633682 1_455
O61 Sc6 2.154675 1_555
O62 Si6 1.632160 1_565
O62 Sc6 2.114883 1_555
O63 S3 1.481488 1_565
O63 Sc7 2.367214 1_555
O64 Si4 1.645819 1_555
O64 Sc7 2.070603 1_555
O65 Si3 1.641546 1_455
O65 Sc7 2.158097 1_555
O66 Si0 1.658015 1_555
O66 Sc8 2.077485 1_555
O67 S0 1.499772 1_555
O67 Sc8 2.246903 1_555
O68 S1 1.473792 1_555
O68 Sc8 2.310171 1_555
O69 Si1 1.711645 1_555
O69 Ta2 2.037451 1_555
O70 Si2 1.677333 1_555
O70 Ta2 1.995387 1_555
O71 S2 1.505150 1_555
O71 Ta2 2.242049 1_555
