# generated using pymatgen
data_Ba2TmMgCu3O7
_symmetry_space_group_name_H-M   'P 1'
_cell_length_a   3.75512700
_cell_length_b   4.12982500
_cell_length_c   13.04896300
_cell_angle_alpha   90.00000000
_cell_angle_beta   90.00000000
_cell_angle_gamma   90.00000000
_symmetry_Int_Tables_number   1
_chemical_formula_structural   Ba2TmMgCu3O7
_chemical_formula_sum   'Ba2 Tm1 Mg1 Cu3 O7'
_cell_volume   202.36354477
_cell_formula_units_Z   1
loop_
 _symmetry_equiv_pos_site_id
 _symmetry_equiv_pos_as_xyz
  1  'x, y, z'
loop_
 _atom_site_type_symbol
 _atom_site_label
 _atom_site_symmetry_multiplicity
 _atom_site_fract_x
 _atom_site_fract_y
 _atom_site_fract_z
 _atom_site_occupancy
  Ba  Ba0  1  0.50000000  0.44328600  0.23040100  1
  Ba  Ba1  1  0.50000000  0.44328600  0.76959900  1
  Tm  Tm0  1  0.50000000  0.46409200  0.50000000  1
  Mg  Mg0  1  0.50000000  0.73118200  0.00000000  1
  Cu  Cu0  1  0.00000000  0.96484600  0.60878200  1
  Cu  Cu1  1  0.00000000  0.96484600  0.39121800  1
  Cu  Cu2  1  0.00000000  0.12291200  0.00000000  1
  O  O0  1  0.50000000  0.97156300  0.39083700  1
  O  O1  1  0.00000000  0.06402100  0.85404800  1
  O  O2  1  0.50000000  0.97156300  0.60916300  1
  O  O3  1  0.00000000  0.46709000  0.39122800  1
  O  O4  1  0.00000000  0.46709000  0.60877200  1
  O  O5  1  0.00000000  0.06402100  0.14595200  1
  O  O6  1  0.00000000  0.59353400  0.00000000  1
loop_
_geom_bond_atom_site_label_1
_geom_bond_atom_site_label_2
_geom_bond_distance
_geom_bond_site_symmetry_2
Ba0 O5 2.681954 1_555
Ba0 O5 2.681954 1_655
Ba0 O3 2.817648 1_555
Ba0 O3 2.817648 1_655
Ba0 O0 2.859731 1_545
Ba0 O0 3.023676 1_555
Ba0 Mg0 3.233053 1_555
Ba0 O5 3.363221 1_665
Ba0 O5 3.363221 1_565
Ba1 O1 2.681954 1_555
Ba1 O1 2.681954 1_655
Ba1 O4 2.817648 1_555
Ba1 O4 2.817648 1_655
Ba1 O2 2.859731 1_545
Ba1 O2 3.023676 1_555
Ba1 Mg0 3.233053 1_556
Ba1 O1 3.363221 1_565
Ba1 O1 3.363221 1_665
Mg0 O6 1.961732 1_655
Mg0 O6 1.961732 1_555
Cu0 O2 1.877775 1_555
Cu0 O2 1.877775 1_455
Cu0 O4 2.055645 1_555
Cu0 O4 2.074180 1_565
Cu1 O0 1.877775 1_555
Cu1 O0 1.877775 1_455
Cu1 O3 2.055645 1_555
Cu1 O3 2.074180 1_565
Cu2 O1 1.919989 1_554
Cu2 O5 1.919989 1_555
Cu2 O6 1.943587 1_555
Cu2 O6 2.186238 1_545
O0 Tm0 2.483242 1_565
O0 Tm0 2.534035 1_555
O2 Tm0 2.483242 1_565
O2 Tm0 2.534035 1_555
O3 Tm0 2.353717 1_555
O3 Tm0 2.353717 1_455
O4 Tm0 2.353717 1_555
O4 Tm0 2.353717 1_455
