# generated using pymatgen
data_ZrC
_symmetry_space_group_name_H-M   'P 1'
_cell_length_a   3.33249812
_cell_length_b   3.33249961
_cell_length_c   3.33250012
_cell_angle_alpha   60.00002562
_cell_angle_beta   60.00001090
_cell_angle_gamma   60.00002210
_symmetry_Int_Tables_number   1
_chemical_formula_structural   ZrC
_chemical_formula_sum   'Zr1 C1'
_cell_volume   26.16949786
_cell_formula_units_Z   1
loop_
 _symmetry_equiv_pos_site_id
 _symmetry_equiv_pos_as_xyz
  1  'x, y, z'
loop_
 _atom_site_type_symbol
 _atom_site_label
 _atom_site_symmetry_multiplicity
 _atom_site_fract_x
 _atom_site_fract_y
 _atom_site_fract_z
 _atom_site_occupancy
  Zr  Zr0  1  -0.00000000  0.00000000  0.00000000  1
  C  C0  1  0.50000000  0.50000000  0.50000000  1
loop_
_geom_bond_atom_site_label_1
_geom_bond_atom_site_label_2
_geom_bond_distance
_geom_bond_site_symmetry_2
C0 Zr0 2.356433 1_665
C0 Zr0 2.356433 1_556
C0 Zr0 2.356433 1_565
C0 Zr0 2.356433 1_656
C0 Zr0 2.356433 1_566
C0 Zr0 2.356433 1_655
