# generated using pymatgen
data_Bi2WO6
_symmetry_space_group_name_H-M   'P 1'
_cell_length_a   8.72013079
_cell_length_b   8.72013079
_cell_length_c   5.48711112
_cell_angle_alpha   90.00000000
_cell_angle_beta   90.00000000
_cell_angle_gamma   143.28039872
_symmetry_Int_Tables_number   1
_chemical_formula_structural   Bi2WO6
_chemical_formula_sum   'Bi4 W2 O12'
_cell_volume   249.46973954
_cell_formula_units_Z   2
loop_
 _symmetry_equiv_pos_site_id
 _symmetry_equiv_pos_as_xyz
  1  'x, y, z'
loop_
 _atom_site_type_symbol
 _atom_site_label
 _atom_site_symmetry_multiplicity
 _atom_site_fract_x
 _atom_site_fract_y
 _atom_site_fract_z
 _atom_site_occupancy
  Bi  Bi0  1  0.28763567  0.63428889  0.02362751  1
  Bi  Bi1  1  0.63428889  0.28763567  0.97637249  1
  Bi  Bi2  1  0.78763567  0.13428889  0.47637249  1
  Bi  Bi3  1  0.13428889  0.78763567  0.52362751  1
  W  W0  1  0.49367061  0.49367061  0.50000000  1
  W  W1  1  0.99367061  0.99367061  0.00000000  1
  O  O0  1  0.45678004  0.67206075  0.41903716  1
  O  O1  1  0.67206075  0.45678004  0.58096284  1
  O  O2  1  0.95678004  0.17206075  0.08096284  1
  O  O3  1  0.17206075  0.95678004  0.91903716  1
  O  O4  1  0.80401041  0.76080697  0.24442723  1
  O  O5  1  0.76080697  0.80401041  0.75557277  1
  O  O6  1  0.99091452  0.48983213  0.76224440  1
  O  O7  1  0.48983213  0.99091452  0.23775560  1
  O  O8  1  0.49091452  0.98983213  0.73775560  1
  O  O9  1  0.98983213  0.49091452  0.26224440  1
  O  O10  1  0.26080697  0.30401041  0.74442723  1
  O  O11  1  0.30401041  0.26080697  0.25557277  1
loop_
_geom_bond_atom_site_label_1
_geom_bond_atom_site_label_2
_geom_bond_distance
_geom_bond_site_symmetry_2
Bi0 O9 2.194596 1_455
Bi0 O6 2.261305 1_454
Bi0 O7 2.317322 1_555
Bi0 O2 2.454870 1_455
Bi0 O0 2.492504 1_555
Bi0 O8 2.530721 1_554
Bi1 O8 2.194596 1_545
Bi1 O7 2.261305 1_546
Bi1 O6 2.317322 1_555
Bi1 O3 2.454870 1_545
Bi1 O1 2.492504 1_555
Bi1 O9 2.530721 1_556
Bi2 O7 2.194596 1_545
Bi2 O8 2.261305 1_545
Bi2 O9 2.317322 1_555
Bi2 O0 2.454870 1_545
Bi2 O2 2.492504 1_555
Bi2 O6 2.530721 1_555
Bi3 O6 2.194596 1_455
Bi3 O9 2.261305 1_455
Bi3 O8 2.317322 1_555
Bi3 O1 2.454870 1_455
Bi3 O3 2.492504 1_555
Bi3 O7 2.530721 1_555
O0 W0 1.876947 1_555
O1 W0 1.876947 1_555
O2 W1 1.876947 1_545
O3 W1 1.876947 1_456
O4 W1 1.809290 1_555
O4 W0 2.147167 1_555
O5 W1 1.809290 1_556
O5 W0 2.147167 1_555
O10 W0 1.809290 1_555
O10 W1 2.147167 1_446
O11 W0 1.809290 1_555
O11 W1 2.147167 1_445
