# generated using pymatgen
data_Na5Y3Ge(PO4)6
_symmetry_space_group_name_H-M   'P 1'
_cell_length_a   9.14195073
_cell_length_b   9.14096262
_cell_length_c   23.00179862
_cell_angle_alpha   89.98193077
_cell_angle_beta   89.96598678
_cell_angle_gamma   120.08161918
_symmetry_Int_Tables_number   1
_chemical_formula_structural   Na5Y3Ge(PO4)6
_chemical_formula_sum   'Na15 Y9 Ge3 P18 O72'
_cell_volume   1663.27967206
_cell_formula_units_Z   3
loop_
 _symmetry_equiv_pos_site_id
 _symmetry_equiv_pos_as_xyz
  1  'x, y, z'
loop_
 _atom_site_type_symbol
 _atom_site_label
 _atom_site_symmetry_multiplicity
 _atom_site_fract_x
 _atom_site_fract_y
 _atom_site_fract_z
 _atom_site_occupancy
  Na  Na0  1  0.64082171  0.00133035  0.25624672  1
  Na  Na1  1  0.36157847  0.36100320  0.25745990  1
  Na  Na2  1  0.99752434  0.63772566  0.25630906  1
  Na  Na3  1  0.64618813  0.64729288  0.75382860  1
  Na  Na4  1  -0.00011110  0.35914544  0.75433808  1
  Na  Na5  1  0.03507256  0.70045646  0.57853693  1
  Na  Na6  1  0.66207068  0.96400494  0.57842988  1
  Na  Na7  1  0.66268210  0.69888470  0.07807645  1
  Na  Na8  1  0.03565883  0.33372101  0.07792682  1
  Na  Na9  1  0.01333671  0.01395003  0.49635063  1
  Na  Na10  1  0.01461766  0.99940909  0.99448448  1
  Na  Na11  1  0.65516054  0.32147044  0.83911645  1
  Na  Na12  1  0.66693836  0.33338486  0.34559045  1
  Na  Na13  1  0.33355489  0.68073644  0.16758299  1
  Na  Na14  1  0.33423796  0.66800082  0.66973725  1
  Y  Y0  1  0.99731713  0.99816197  0.35737060  1
  Y  Y1  1  0.00129852  0.99950169  0.85511284  1
  Y  Y2  1  0.01238236  0.00893711  0.64990118  1
  Y  Y3  1  0.00928138  0.99927981  0.14443495  1
  Y  Y4  1  0.65431147  0.32562664  0.68653400  1
  Y  Y5  1  0.66180999  0.32841247  0.18172393  1
  Y  Y6  1  0.33269335  0.67381329  0.01347771  1
  Y  Y7  1  0.33202227  0.65662955  0.51436649  1
  Y  Y8  1  0.33324394  0.66472003  0.32901379  1
  Ge  Ge0  1  0.66406028  0.33135596  0.97714445  1
  Ge  Ge1  1  0.66344694  0.33241786  0.48266348  1
  Ge  Ge2  1  0.33367558  0.67481226  0.82242886  1
  P  P0  1  0.29723245  0.99377502  0.25152092  1
  P  P1  1  0.69778957  0.70287341  0.24762152  1
  P  P2  1  0.00522318  0.30202573  0.24788102  1
  P  P3  1  0.29919175  0.31906175  0.75633859  1
  P  P4  1  0.01716701  0.70248406  0.75242980  1
  P  P5  1  0.68644426  0.98428125  0.75319064  1
  P  P6  1  0.94584371  0.32898325  0.58123050  1
  P  P7  1  0.37740781  0.04693475  0.57709684  1
  P  P8  1  0.67158277  0.62331269  0.58126683  1
  P  P9  1  0.94697313  0.61671016  0.07738112  1
  P  P10  1  0.67094345  0.04754040  0.07791016  1
  P  P11  1  0.37856516  0.33066175  0.07616119  1
  P  P12  1  0.62137148  0.64689078  0.91745560  1
  P  P13  1  0.02492328  0.37802785  0.91778620  1
  P  P14  1  0.35350734  0.97537081  0.91618138  1
  P  P15  1  0.63911643  0.99123239  0.42186216  1
  P  P16  1  0.35228627  0.35849918  0.41864403  1
  P  P17  1  0.00858227  0.64823419  0.42209895  1
  O  O0  1  0.20995856  0.02055870  0.30326123  1
  O  O1  1  0.81626891  0.79454600  0.29827180  1
  O  O2  1  0.97970690  0.18389510  0.29852966  1
  O  O3  1  0.21346672  0.20449941  0.80736863  1
  O  O4  1  0.97904111  0.79028198  0.80116510  1
  O  O5  1  0.81020242  0.01517769  0.80214040  1
  O  O6  1  0.75446791  0.94717939  0.69574051  1
  O  O7  1  0.19128230  0.24402953  0.70038218  1
  O  O8  1  0.04595043  0.79974505  0.69409849  1
  O  O9  1  0.77376036  0.80102149  0.18980360  1
  O  O10  1  0.02861360  0.22671058  0.19014907  1
  O  O11  1  0.19312516  0.96872765  0.19546009  1
  O  O12  1  0.87413229  0.35069244  0.63910103  1
  O  O13  1  0.47870609  0.12296329  0.63281014  1
  O  O14  1  0.65276445  0.53322203  0.63948880  1
  O  O15  1  0.87662846  0.52778060  0.13613548  1
  O  O16  1  0.65382901  0.11690660  0.13683959  1
  O  O17  1  0.46871528  0.34966087  0.13459108  1
  O  O18  1  0.47852151  0.31357757  0.02416632  1
  O  O19  1  0.82470485  0.51694596  0.02596575  1
  O  O20  1  0.68942221  0.16844227  0.02655569  1
  O  O21  1  0.47084718  0.16035598  0.52383955  1
  O  O22  1  0.69095881  0.52296741  0.52954781  1
  O  O23  1  0.82415344  0.30414858  0.52948126  1
  O  O24  1  0.54725036  0.67065225  0.97374061  1
  O  O25  1  0.12306915  0.45086552  0.97412166  1
  O  O26  1  0.32693996  0.87509565  0.97157830  1
  O  O27  1  0.54939528  0.87816192  0.47443210  1
  O  O28  1  0.32751320  0.45462819  0.46820615  1
  O  O29  1  0.12172709  0.67255954  0.47461545  1
  O  O30  1  0.08778767  0.62412530  0.36498892  1
  O  O31  1  0.53700159  0.91046442  0.36470679  1
  O  O32  1  0.37639841  0.45574685  0.36010269  1
  O  O33  1  0.12109680  0.49762581  0.86332481  1
  O  O34  1  0.37838096  0.87999803  0.86218109  1
  O  O35  1  0.50443259  0.62728294  0.86279563  1
  O  O36  1  0.98391526  0.80166680  0.41741731  1
  O  O37  1  0.81768724  0.01611977  0.41763985  1
  O  O38  1  0.19852711  0.18021319  0.41622928  1
  O  O39  1  0.00103350  0.20174704  0.90992036  1
  O  O40  1  0.20145860  0.99926437  0.90880693  1
  O  O41  1  0.79873518  0.79947557  0.91035375  1
  O  O42  1  0.95659479  0.16438128  0.58326664  1
  O  O43  1  0.19709000  0.02339453  0.58059190  1
  O  O44  1  0.83875265  0.79986067  0.58239206  1
  O  O45  1  0.95785155  0.79153896  0.07745559  1
  O  O46  1  0.83722162  0.03813317  0.07758511  1
  O  O47  1  0.19736003  0.17567925  0.07638082  1
  O  O48  1  0.66841800  0.14237082  0.74870408  1
  O  O49  1  0.48204856  0.35436139  0.75032350  1
  O  O50  1  0.86220214  0.51977429  0.74799088  1
  O  O51  1  0.67468329  0.52251309  0.24598602  1
  O  O52  1  0.84711378  0.32370849  0.24624969  1
  O  O53  1  0.47666870  0.15204239  0.24786274  1
  O  O54  1  0.63219746  0.47959922  0.92119612  1
  O  O55  1  0.84629906  0.36633479  0.92204098  1
  O  O56  1  0.52058968  0.15314031  0.92127285  1
  O  O57  1  0.64905502  0.16609169  0.42783385  1
  O  O58  1  0.51852146  0.35304001  0.42740452  1
  O  O59  1  0.83398276  0.48250980  0.42910303  1
  O  O60  1  0.36242631  0.49225429  0.07376104  1
  O  O61  1  0.12134247  0.62960711  0.07394228  1
  O  O62  1  0.52095757  0.86458094  0.07518737  1
  O  O63  1  0.35713000  0.86755814  0.57383718  1
  O  O64  1  0.52218490  0.65661128  0.57638185  1
  O  O65  1  0.12085909  0.48951530  0.57564289  1
  O  O66  1  0.31508017  0.83360283  0.25695641  1
  O  O67  1  0.52142851  0.68805208  0.25482345  1
  O  O68  1  0.16557876  0.47981728  0.25489591  1
  O  O69  1  0.30865954  0.49710007  0.76404196  1
  O  O70  1  0.17873580  0.68440735  0.76388253  1
  O  O71  1  0.51033003  0.81623746  0.76403937  1
loop_
_geom_bond_atom_site_label_1
_geom_bond_atom_site_label_2
_geom_bond_distance
_geom_bond_site_symmetry_2
Na0 O67 2.501946 1_545
Na0 O53 2.501968 1_555
Na0 O66 2.577181 1_545
Na0 O52 2.592548 1_555
Na0 O31 2.649572 1_545
Na0 O2 2.854935 1_555
Na0 O16 2.923324 1_555
Na1 O51 2.491000 1_555
Na1 O32 2.495318 1_555
Na1 O68 2.518847 1_555
Na1 O67 2.587821 1_555
Na1 O53 2.611303 1_555
Na2 O52 2.495536 1_555
Na2 O66 2.534417 1_655
Na2 O68 2.582241 1_655
Na2 O51 2.600251 1_555
Na2 O30 2.655304 1_655
Na2 O1 2.848235 1_555
Na2 O15 2.960454 1_555
Na2 O11 2.980242 1_655
Na3 O49 2.323894 1_555
Na3 O71 2.430087 1_555
Na3 O69 2.685809 1_555
Na3 O6 2.748723 1_555
Na3 O50 2.753889 1_555
Na3 O35 2.784481 1_555
Na3 O14 2.841174 1_555
Na3 O4 2.858510 1_555
Na4 O50 2.369483 1_455
Na4 O69 2.457759 1_555
Na4 O70 2.586318 1_555
Na4 O48 2.665919 1_455
Na4 O7 2.748271 1_555
Na4 O33 2.777388 1_555
Na4 O12 2.875479 1_455
Na4 O5 2.937996 1_455
Na5 O44 2.385227 1_455
Na5 O65 2.419384 1_555
Na5 O63 2.550404 1_555
Na5 O43 2.554843 1_565
Na5 O29 2.570440 1_555
Na5 O8 2.794744 1_555
Na6 O42 2.381922 1_565
Na6 O64 2.435356 1_555
Na6 O63 2.469127 1_555
Na6 O27 2.567670 1_555
Na6 O44 2.701507 1_555
Na6 O6 2.854989 1_555
Na6 O23 2.916840 1_565
Na6 O13 2.987696 1_565
Na7 O45 2.389122 1_555
Na7 O60 2.432091 1_555
Na7 O62 2.438127 1_555
Na7 O24 2.582666 1_554
Na7 O46 2.683716 1_565
Na7 O9 2.749829 1_555
Na8 O46 2.382838 1_455
Na8 O61 2.411060 1_555
Na8 O47 2.532661 1_555
Na8 O25 2.573842 1_554
Na8 O60 2.587082 1_555
Na8 O10 2.749402 1_555
Na9 O38 2.446962 1_555
Na9 O43 2.538241 1_555
Na9 O37 2.552803 1_455
Na9 O36 2.571731 1_445
Na9 O42 2.621528 1_455
Na9 O44 2.675196 1_445
Na10 O47 2.498587 1_566
Na10 O45 2.555417 1_456
Na10 O40 2.607614 1_555
Na10 O46 2.642210 1_466
Na10 O41 2.714944 1_455
Na10 O39 2.729121 1_565
Na11 O56 2.355842 1_555
Na11 O54 2.450163 1_555
Na11 O55 2.479077 1_555
Na11 O48 2.687120 1_555
Na11 O49 2.691984 1_555
Na11 O50 2.795580 1_555
Na12 O58 2.378284 1_555
Na12 O57 2.385609 1_555
Na12 O59 2.408022 1_555
Na12 O53 2.818342 1_555
Na12 O52 2.843229 1_555
Na12 O51 2.849116 1_555
Na13 O66 2.538739 1_555
Na13 O67 2.621110 1_555
Na13 O68 2.632765 1_555
Na13 O62 2.717214 1_555
Na13 O61 2.778151 1_555
Na13 O60 2.855328 1_555
Na14 O69 2.613720 1_555
Na14 O70 2.634982 1_555
Na14 O71 2.636659 1_555
Na14 O64 2.783742 1_555
Na14 O63 2.802036 1_555
Na14 O65 2.822809 1_555
Ge0 O18 1.947991 1_556
Ge0 O19 1.949734 1_556
Ge0 O56 1.971577 1_555
Ge0 O20 1.977007 1_556
Ge0 O55 1.986853 1_555
Ge0 O54 1.993060 1_555
Ge1 O58 1.912772 1_555
Ge1 O59 1.919146 1_555
Ge1 O21 1.921436 1_555
Ge1 O57 1.928813 1_555
Ge1 O23 1.940933 1_555
Ge1 O22 1.955118 1_555
Ge2 O34 1.937539 1_555
Ge2 O70 1.988538 1_555
Ge2 O71 1.996643 1_555
Ge2 O69 2.030800 1_555
Ge2 O33 2.031354 1_555
Ge2 O35 2.041845 1_555
O0 P0 1.519136 1_545
O0 Y0 2.228890 1_445
O1 P1 1.524779 1_555
O1 Y0 2.228828 1_555
O2 P2 1.524488 1_655
O2 Y0 2.238974 1_545
O3 P3 1.504662 1_555
O3 Y1 2.198229 1_545
O4 P4 1.517479 1_655
O4 Y1 2.202375 1_655
O5 P5 1.519515 1_545
O5 Y1 2.193291 1_645
O6 P5 1.568031 1_555
O6 Y2 2.377428 1_665
O7 P3 1.556923 1_555
O7 Y2 2.263123 1_555
O8 P4 1.556984 1_555
O8 Y2 2.317686 1_565
O9 P1 1.558672 1_555
O9 Y3 2.256935 1_655
O10 P2 1.559144 1_555
O10 Y3 2.256580 1_545
O11 P0 1.550563 1_555
O11 Y3 2.180112 1_555
O12 P6 1.539679 1_555
O12 Y4 2.194763 1_555
O13 P7 1.529586 1_555
O13 Y4 2.135097 1_555
O14 P8 1.535664 1_555
O14 Y4 2.190385 1_555
O15 P9 1.541111 1_555
O15 Y5 2.164739 1_555
O16 P10 1.537402 1_555
O16 Y5 2.160802 1_555
O17 P11 1.540674 1_555
O17 Y5 2.162196 1_555
O18 P11 1.559373 1_555
O19 P9 1.568469 1_555
O20 P10 1.567494 1_555
O21 P7 1.554154 1_555
O22 P8 1.565652 1_555
O23 P6 1.566719 1_555
O24 P12 1.526155 1_555
O24 Y6 2.176774 1_556
O25 P13 1.526613 1_555
O25 Y6 2.175628 1_556
O26 P14 1.516096 1_555
O26 Y6 2.100677 1_556
O27 P15 1.533426 1_555
O27 Y7 2.203648 1_555
O28 P16 1.524102 1_555
O28 Y7 2.112713 1_555
O29 P17 1.532854 1_555
O29 Y7 2.199070 1_555
O30 P17 1.567651 1_555
O30 Y8 2.240675 1_555
O31 P15 1.567189 1_555
O31 Y8 2.235667 1_555
O32 P16 1.566676 1_555
O32 Y8 2.251861 1_555
O33 P13 1.603664 1_555
O34 P14 1.598012 1_555
O35 P12 1.601685 1_555
O36 P17 1.531830 1_655
O36 Y0 2.219567 1_555
O37 P15 1.534176 1_545
O37 Y0 2.216565 1_545
O38 P16 1.529245 1_555
O38 Y0 2.218461 1_445
O39 P13 1.524600 1_555
O39 Y1 2.238975 1_545
O40 P14 1.520933 1_555
O40 Y1 2.209164 1_555
O41 P12 1.527608 1_555
O41 Y1 2.233472 1_655
O42 P6 1.556902 1_555
O42 Y2 2.313940 1_655
O43 P7 1.553839 1_555
O43 Y2 2.276698 1_555
O44 P8 1.571087 1_555
O44 Y2 2.355226 1_665
O45 P9 1.550647 1_555
O45 Y3 2.303983 1_655
O46 P10 1.564992 1_555
O46 Y3 2.351025 1_645
O47 P11 1.548744 1_555
O47 Y3 2.285314 1_545
O48 P5 1.537775 1_545
O48 Y4 2.254538 1_555
O49 P3 1.541655 1_555
O49 Y4 2.261439 1_555
O50 P4 1.560504 1_655
O50 Y4 2.320229 1_555
O51 P1 1.554049 1_555
O51 Y5 2.267006 1_555
O52 P2 1.554737 1_655
O52 Y5 2.269461 1_555
O53 P0 1.552961 1_545
O53 Y5 2.244601 1_555
O54 P12 1.583450 1_555
O55 P13 1.585067 1_655
O56 P14 1.580991 1_545
O57 P15 1.560935 1_545
O58 P16 1.558527 1_555
O59 P17 1.563382 1_655
O60 P11 1.557274 1_555
O60 Y6 2.280831 1_555
O61 P9 1.540353 1_455
O61 Y6 2.246019 1_555
O62 P10 1.543490 1_565
O62 Y6 2.239112 1_555
O63 P7 1.556889 1_565
O63 Y7 2.280316 1_555
O64 P8 1.545172 1_555
O64 Y7 2.249505 1_555
O65 P6 1.541357 1_455
O65 Y7 2.255205 1_555
O66 P0 1.557342 1_555
O66 Y8 2.326708 1_555
O67 P1 1.557547 1_555
O67 Y8 2.354956 1_555
O68 P2 1.558339 1_555
O68 Y8 2.349575 1_555
O69 P3 1.595759 1_555
O70 P4 1.588550 1_555
O71 P5 1.591871 1_555
