# generated using pymatgen
data_Bi2TeI
_symmetry_space_group_name_H-M   'P 1'
_cell_length_a   19.30346998
_cell_length_b   19.30346998
_cell_length_c   19.30346979
_cell_angle_alpha   13.19841474
_cell_angle_beta   13.19841474
_cell_angle_gamma   13.19841737
_symmetry_Int_Tables_number   1
_chemical_formula_structural   Bi2TeI
_chemical_formula_sum   'Bi4 Te2 I2'
_cell_volume   326.17886873
_cell_formula_units_Z   2
loop_
 _symmetry_equiv_pos_site_id
 _symmetry_equiv_pos_as_xyz
  1  'x, y, z'
loop_
 _atom_site_type_symbol
 _atom_site_label
 _atom_site_symmetry_multiplicity
 _atom_site_fract_x
 _atom_site_fract_y
 _atom_site_fract_z
 _atom_site_occupancy
  Bi  Bi0  1  0.44086500  0.44086500  0.44086500  1
  Bi  Bi1  1  0.55913500  0.55913500  0.55913500  1
  Bi  Bi2  1  0.68079000  0.68079000  0.68079000  1
  Bi  Bi3  1  0.31921000  0.31921000  0.31921000  1
  Te  Te0  1  0.19497900  0.19497900  0.19497900  1
  Te  Te1  1  0.80502100  0.80502100  0.80502100  1
  I  I0  1  0.92749200  0.92749200  0.92749200  1
  I  I1  1  0.07250800  0.07250800  0.07250800  1
loop_
_geom_bond_atom_site_label_1
_geom_bond_atom_site_label_2
_geom_bond_distance
_geom_bond_site_symmetry_2
Bi0 Te1 3.113166 1_554
Bi0 Te1 3.113167 1_545
Bi0 Te1 3.113167 1_455
Bi0 I1 3.256247 1_556
Bi0 I1 3.256248 1_565
Bi0 I1 3.256248 1_655
Bi1 Te0 3.113166 1_556
Bi1 Te0 3.113167 1_565
Bi1 Te0 3.113167 1_655
Bi1 I0 3.256247 1_554
Bi1 I0 3.256248 1_455
Bi1 I0 3.256248 1_545
Bi2 Bi3 3.031583 1_556
Bi2 Bi3 3.031583 1_655
Bi2 Bi3 3.031583 1_565
