# generated using pymatgen
data_Te7As2F12
_symmetry_space_group_name_H-M   'P 1'
_cell_length_a   9.95648200
_cell_length_b   11.41946900
_cell_length_c   16.71577300
_cell_angle_alpha   90.00000000
_cell_angle_beta   90.00000000
_cell_angle_gamma   90.00000000
_symmetry_Int_Tables_number   1
_chemical_formula_structural   Te7As2F12
_chemical_formula_sum   'Te28 As8 F48'
_cell_volume   1900.54557147
_cell_formula_units_Z   4
loop_
 _symmetry_equiv_pos_site_id
 _symmetry_equiv_pos_as_xyz
  1  'x, y, z'
loop_
 _atom_site_type_symbol
 _atom_site_label
 _atom_site_symmetry_multiplicity
 _atom_site_fract_x
 _atom_site_fract_y
 _atom_site_fract_z
 _atom_site_occupancy
  Te  Te0  1  0.90014600  0.75000000  0.48825600  1
  Te  Te1  1  0.40014600  0.25000000  0.01174400  1
  Te  Te2  1  0.09985400  0.25000000  0.51174400  1
  Te  Te3  1  0.59985400  0.75000000  0.98825600  1
  Te  Te4  1  0.11960500  0.47179500  0.62703000  1
  Te  Te5  1  0.61960500  0.52820500  0.87297000  1
  Te  Te6  1  0.88039500  0.97179500  0.37297000  1
  Te  Te7  1  0.38039500  0.02820500  0.12703000  1
  Te  Te8  1  0.88039500  0.52820500  0.37297000  1
  Te  Te9  1  0.38039500  0.47179500  0.12703000  1
  Te  Te10  1  0.11960500  0.02820500  0.62703000  1
  Te  Te11  1  0.61960500  0.97179500  0.87297000  1
  Te  Te12  1  0.25232600  0.57017900  0.50151700  1
  Te  Te13  1  0.75232600  0.42982100  0.99848300  1
  Te  Te14  1  0.74767400  0.07017900  0.49848300  1
  Te  Te15  1  0.24767400  0.92982100  0.00151700  1
  Te  Te16  1  0.74767400  0.42982100  0.49848300  1
  Te  Te17  1  0.24767400  0.57017900  0.00151700  1
  Te  Te18  1  0.25232600  0.92982100  0.50151700  1
  Te  Te19  1  0.75232600  0.07017900  0.99848300  1
  Te  Te20  1  0.14255700  0.42195100  0.38533400  1
  Te  Te21  1  0.64255700  0.57804800  0.11466600  1
  Te  Te22  1  0.85744300  0.92195200  0.61466600  1
  Te  Te23  1  0.35744300  0.07804900  0.88533400  1
  Te  Te24  1  0.85744300  0.57804800  0.61466600  1
  Te  Te25  1  0.35744300  0.42195100  0.88533400  1
  Te  Te26  1  0.14255700  0.07804900  0.38533400  1
  Te  Te27  1  0.64255700  0.92195200  0.11466600  1
  As  As0  1  0.47869700  0.75000000  0.68594600  1
  As  As1  1  0.97869700  0.25000000  0.81405400  1
  As  As2  1  0.52130300  0.25000000  0.31405400  1
  As  As3  1  0.02130300  0.75000000  0.18594600  1
  As  As4  1  0.01260500  0.75000000  0.82944400  1
  As  As5  1  0.51260500  0.25000000  0.67055600  1
  As  As6  1  0.98739500  0.25000000  0.17055600  1
  As  As7  1  0.48739500  0.75000000  0.32944400  1
  F  F0  1  0.58170600  0.14015100  0.24789700  1
  F  F1  1  0.08170600  0.85984900  0.25210300  1
  F  F2  1  0.41829400  0.64015100  0.75210300  1
  F  F3  1  0.91829400  0.35984900  0.74789700  1
  F  F4  1  0.41829400  0.85984900  0.75210300  1
  F  F5  1  0.91829400  0.14015100  0.74789700  1
  F  F6  1  0.58170600  0.35984900  0.24789700  1
  F  F7  1  0.08170600  0.64015100  0.25210300  1
  F  F8  1  0.46111300  0.35991900  0.37978600  1
  F  F9  1  0.96111300  0.64008100  0.12021400  1
  F  F10  1  0.53888700  0.85991900  0.62021400  1
  F  F11  1  0.03888700  0.14008100  0.87978600  1
  F  F12  1  0.53888700  0.64008100  0.62021400  1
  F  F13  1  0.03888700  0.35991900  0.87978600  1
  F  F14  1  0.46111300  0.14008100  0.37978600  1
  F  F15  1  0.96111300  0.85991900  0.12021400  1
  F  F16  1  0.32130200  0.75000000  0.63431900  1
  F  F17  1  0.82130200  0.25000000  0.86568100  1
  F  F18  1  0.67869800  0.25000000  0.36568100  1
  F  F19  1  0.17869800  0.75000000  0.13431900  1
  F  F20  1  0.13833700  0.63979400  0.83501300  1
  F  F21  1  0.63557100  0.75000000  0.73727200  1
  F  F22  1  0.36442900  0.25000000  0.26272800  1
  F  F23  1  0.86442900  0.75000000  0.23727200  1
  F  F24  1  0.11279000  0.13979900  0.17823600  1
  F  F25  1  0.61279000  0.86020100  0.32176400  1
  F  F26  1  0.88721000  0.63979900  0.82176400  1
  F  F27  1  0.38721000  0.36020100  0.67823600  1
  F  F28  1  0.88721000  0.86020100  0.82176400  1
  F  F29  1  0.38721000  0.13979900  0.67823600  1
  F  F30  1  0.11279000  0.36020100  0.17823600  1
  F  F31  1  0.61279000  0.63979900  0.32176400  1
  F  F32  1  0.86166300  0.36020600  0.16498700  1
  F  F33  1  0.36166300  0.63979400  0.33501300  1
  F  F34  1  0.13833700  0.86020600  0.83501300  1
  F  F35  1  0.63833700  0.13979400  0.66498700  1
  F  F36  1  0.47292500  0.75000000  0.22249300  1
  F  F37  1  0.97292500  0.25000000  0.27750700  1
  F  F38  1  0.52707500  0.25000000  0.77750700  1
  F  F39  1  0.02707500  0.75000000  0.72249300  1
  F  F40  1  0.50145200  0.75000000  0.43493500  1
  F  F41  1  0.00145200  0.25000000  0.06506500  1
  F  F42  1  0.49854800  0.25000000  0.56506500  1
  F  F43  1  0.99854800  0.75000000  0.93493500  1
  F  F44  1  0.36166300  0.86020600  0.33501300  1
  F  F45  1  0.86166300  0.13979400  0.16498700  1
  F  F46  1  0.63833700  0.36020600  0.66498700  1
  F  F47  1  0.13557100  0.25000000  0.76272800  1
loop_
_geom_bond_atom_site_label_1
_geom_bond_atom_site_label_2
_geom_bond_distance
_geom_bond_site_symmetry_2
Te0 Te22 2.915723 1_555
Te0 Te24 2.915723 1_555
Te0 Te6 3.188627 1_555
Te0 Te8 3.188627 1_555
Te1 Te25 2.915715 1_554
Te1 Te23 2.915715 1_554
Te1 Te9 3.188627 1_555
Te1 Te7 3.188627 1_555
Te2 Te20 2.915715 1_555
Te2 Te26 2.915715 1_555
Te2 Te4 3.188627 1_555
Te3 Te5 3.188627 1_555
Te10 Te18 2.722173 1_545
Te10 Te22 2.885852 1_445
Te10 Te2 3.188627 1_555
Te11 Te19 2.722173 1_565
Te11 Te23 2.885857 1_565
Te11 Te3 3.188627 1_555
Te12 Te4 2.722173 1_555
Te12 Te20 2.798455 1_555
Te13 Te5 2.722173 1_555
Te13 Te21 2.798448 1_556
Te14 Te6 2.722173 1_545
Te14 Te22 2.798448 1_545
Te15 Te7 2.722173 1_565
Te15 Te23 2.798455 1_564
Te16 Te8 2.722173 1_555
Te16 Te24 2.798448 1_555
Te17 Te9 2.722173 1_555
Te17 Te25 2.798455 1_554
Te18 Te26 2.798455 1_565
Te19 Te27 2.798448 1_546
Te20 Te8 2.885857 1_455
Te21 Te9 2.885852 1_555
Te21 Te3 2.915723 1_554
Te24 Te4 2.885852 1_655
Te25 Te5 2.885857 1_555
Te26 Te6 2.885857 1_445
Te27 Te7 2.885852 1_565
Te27 Te3 2.915723 1_554
As0 F12 1.772564 1_555
As0 F10 1.772564 1_555
As0 F4 1.777128 1_555
As0 F2 1.777128 1_555
As0 F21 1.782037 1_555
As0 F16 1.789007 1_555
As1 F13 1.772564 1_655
As1 F11 1.772564 1_655
As1 F3 1.777128 1_555
As1 F5 1.777128 1_555
As1 F47 1.782037 1_655
As1 F17 1.789007 1_555
As2 F8 1.772564 1_555
As2 F14 1.772564 1_555
As2 F6 1.777128 1_555
As2 F0 1.777128 1_555
As2 F22 1.782037 1_555
As2 F18 1.789007 1_555
As3 F9 1.772564 1_455
As3 F15 1.772564 1_455
As3 F7 1.777128 1_555
As3 F1 1.777128 1_555
As3 F23 1.782037 1_455
As3 F19 1.789007 1_555
As4 F43 1.768909 1_455
As4 F28 1.777324 1_455
As4 F26 1.777324 1_455
As4 F34 1.777526 1_555
As4 F20 1.777526 1_555
As4 F39 1.793564 1_555
As5 F42 1.768909 1_555
As5 F29 1.777324 1_555
As5 F27 1.777324 1_555
As5 F46 1.777526 1_555
As5 F35 1.777526 1_555
As5 F38 1.793564 1_555
As6 F41 1.768909 1_655
As6 F30 1.777324 1_655
As6 F24 1.777324 1_655
As6 F32 1.777526 1_555
As6 F45 1.777526 1_555
As6 F37 1.793564 1_555
As7 F40 1.768909 1_555
As7 F31 1.777324 1_555
As7 F25 1.777324 1_555
As7 F44 1.777526 1_555
As7 F33 1.777526 1_555
As7 F36 1.793564 1_555
