# generated using pymatgen
data_Ta2SnO7
_symmetry_space_group_name_H-M   'P 1'
_cell_length_a   8.72517981
_cell_length_b   8.72517981
_cell_length_c   5.21373993
_cell_angle_alpha   83.73798221
_cell_angle_beta   83.73798221
_cell_angle_gamma   33.00372641
_symmetry_Int_Tables_number   1
_chemical_formula_structural   Ta2SnO7
_chemical_formula_sum   'Ta4 Sn2 O14'
_cell_volume   214.79383694
_cell_formula_units_Z   2
loop_
 _symmetry_equiv_pos_site_id
 _symmetry_equiv_pos_as_xyz
  1  'x, y, z'
loop_
 _atom_site_type_symbol
 _atom_site_label
 _atom_site_symmetry_multiplicity
 _atom_site_fract_x
 _atom_site_fract_y
 _atom_site_fract_z
 _atom_site_occupancy
  Ta  Ta0  1  0.39079700  0.93495600  0.19679000  1
  Ta  Ta1  1  0.06504400  0.60920300  0.30321000  1
  Ta  Ta2  1  0.93495600  0.39079700  0.69679000  1
  Ta  Ta3  1  0.60920300  0.06504400  0.80321000  1
  Sn  Sn0  1  0.22717700  0.77282300  0.75000000  1
  Sn  Sn1  1  0.77282300  0.22717700  0.25000000  1
  O  O0  1  0.68585000  0.86613900  0.16278600  1
  O  O1  1  0.13386100  0.31415000  0.33721400  1
  O  O2  1  0.31415000  0.13386100  0.83721400  1
  O  O3  1  0.86613900  0.68585000  0.66278600  1
  O  O4  1  0.31333400  0.40198100  0.01016000  1
  O  O5  1  0.59801900  0.68666600  0.48984000  1
  O  O6  1  0.38073500  0.61926500  0.25000000  1
  O  O7  1  0.61926500  0.38073500  0.75000000  1
  O  O8  1  0.93071000  0.90731400  0.52471000  1
  O  O9  1  0.09268600  0.06929000  0.97529000  1
  O  O10  1  0.06929000  0.09268600  0.47529000  1
  O  O11  1  0.90731400  0.93071000  0.02471000  1
  O  O12  1  0.40198100  0.31333400  0.51016000  1
  O  O13  1  0.68666600  0.59801900  0.98984000  1
loop_
_geom_bond_atom_site_label_1
_geom_bond_atom_site_label_2
_geom_bond_distance
_geom_bond_site_symmetry_2
O0 Ta1 2.058644 1_655
O0 Ta0 2.085769 1_555
O0 Ta3 2.142623 1_564
O1 Ta0 2.058644 1_545
O1 Ta1 2.085769 1_555
O1 Ta2 2.142623 1_455
O2 Ta2 2.058644 1_455
O2 Ta3 2.085769 1_555
O2 Ta0 2.142623 1_546
O3 Ta3 2.058644 1_565
O3 Ta2 2.085769 1_555
O3 Ta1 2.142623 1_655
O4 Ta1 1.899343 1_555
O4 Ta3 1.956070 1_554
O5 Ta0 1.899343 1_555
O5 Ta2 1.956070 1_555
O6 Sn1 1.943468 1_555
O7 Sn0 1.943468 1_555
O8 Sn0 2.172276 1_655
O8 Ta1 2.172456 1_655
O8 Sn1 2.201802 1_565
O8 Ta3 2.223433 1_565
O9 Sn0 2.172276 1_545
O9 Ta0 2.172456 1_546
O9 Sn1 2.201802 1_456
O9 Ta2 2.223433 1_455
O10 Sn1 2.172276 1_455
O10 Ta2 2.172456 1_455
O10 Sn0 2.201802 1_545
O10 Ta0 2.223433 1_545
O11 Sn1 2.172276 1_565
O11 Ta3 2.172456 1_564
O11 Sn0 2.201802 1_654
O11 Ta1 2.223433 1_655
O12 Ta3 1.899343 1_555
O12 Ta1 1.956070 1_555
O13 Ta2 1.899343 1_555
O13 Ta0 1.956070 1_556
