# generated using pymatgen
data_NaNbSi2GeSO12
_symmetry_space_group_name_H-M   'P 1'
_cell_length_a   8.79515560
_cell_length_b   8.70290885
_cell_length_c   22.58867920
_cell_angle_alpha   91.91567179
_cell_angle_beta   90.00000000
_cell_angle_gamma   120.35125350
_symmetry_Int_Tables_number   1
_chemical_formula_structural   NaNbSi2GeSO12
_chemical_formula_sum   'Na6 Nb6 Si12 Ge6 S6 O72'
_cell_volume   1490.92313891
_cell_formula_units_Z   6
loop_
 _symmetry_equiv_pos_site_id
 _symmetry_equiv_pos_as_xyz
  1  'x, y, z'
loop_
 _atom_site_type_symbol
 _atom_site_label
 _atom_site_symmetry_multiplicity
 _atom_site_fract_x
 _atom_site_fract_y
 _atom_site_fract_z
 _atom_site_occupancy
  Na  Na0  1  0.00768081  0.00547496  0.49757026  1
  Na  Na1  1  0.99779416  0.00547496  0.99757026  1
  Na  Na2  1  0.67434781  0.33880796  0.83090326  1
  Na  Na3  1  0.66446116  0.33880796  0.33090326  1
  Na  Na4  1  0.34101381  0.67214196  0.16423726  1
  Na  Na5  1  0.33112716  0.67214196  0.66423726  1
  Nb  Nb0  1  0.00031963  0.99527967  0.64433858  1
  Nb  Nb1  1  0.99496005  0.99527967  0.14433858  1
  Nb  Nb2  1  0.66698663  0.32861267  0.97767158  1
  Nb  Nb3  1  0.66162705  0.32861267  0.47767158  1
  Nb  Nb4  1  0.33365263  0.66194667  0.31100558  1
  Nb  Nb5  1  0.32829305  0.66194667  0.81100558  1
  Si  Si0  1  0.29061031  0.00227018  0.24995881  1
  Si  Si1  1  0.72018880  0.70899096  0.25060868  1
  Si  Si2  1  0.98880216  0.70899096  0.75060868  1
  Si  Si3  1  0.71165986  0.00227018  0.74995881  1
  Si  Si4  1  0.95727731  0.33560318  0.58329181  1
  Si  Si5  1  0.38685580  0.04232396  0.58394168  1
  Si  Si6  1  0.65546916  0.04232396  0.08394168  1
  Si  Si7  1  0.37832686  0.33560318  0.08329181  1
  Si  Si8  1  0.62394331  0.66893718  0.91662581  1
  Si  Si9  1  0.05352180  0.37565796  0.91727568  1
  Si  Si10  1  0.32213516  0.37565796  0.41727568  1
  Si  Si11  1  0.04499286  0.66893718  0.41662581  1
  Ge  Ge0  1  0.02455911  0.98508077  0.35403797  1
  Ge  Ge1  1  0.96052167  0.98508077  0.85403797  1
  Ge  Ge2  1  0.69122611  0.31841377  0.68737097  1
  Ge  Ge3  1  0.62718867  0.31841377  0.18737097  1
  Ge  Ge4  1  0.35789211  0.65174777  0.02070497  1
  Ge  Ge5  1  0.29385467  0.65174777  0.52070497  1
  S  S0  1  0.99087923  0.28332696  0.25121311  1
  S  S1  1  0.29244773  0.28332696  0.75121311  1
  S  S2  1  0.65754623  0.61665996  0.58454611  1
  S  S3  1  0.95911473  0.61665996  0.08454611  1
  S  S4  1  0.32421223  0.94999396  0.91788011  1
  S  S5  1  0.62578073  0.94999396  0.41788011  1
  O  O0  1  0.20937603  0.04388677  0.30882035  1
  O  O1  1  0.84065993  0.81005030  0.31027366  1
  O  O2  1  0.96788149  0.18003751  0.30371927  1
  O  O3  1  0.21215602  0.18003751  0.80371927  1
  O  O4  1  0.96939037  0.81005030  0.81027366  1
  O  O5  1  0.83451074  0.04388677  0.80882035  1
  O  O6  1  0.80489071  0.97062258  0.69197802  1
  O  O7  1  0.18009783  0.20734132  0.69634732  1
  O  O8  1  0.02997566  0.83300950  0.69270616  1
  O  O9  1  0.80303384  0.83300950  0.19270616  1
  O  O10  1  0.02724348  0.20734132  0.19634732  1
  O  O11  1  0.16573187  0.97062258  0.19197802  1
  O  O12  1  0.87604303  0.37721977  0.64215335  1
  O  O13  1  0.50732693  0.14338330  0.64360666  1
  O  O14  1  0.63454849  0.51337051  0.63705227  1
  O  O15  1  0.87882302  0.51337051  0.13705227  1
  O  O16  1  0.63605737  0.14338330  0.14360666  1
  O  O17  1  0.50117774  0.37721977  0.14215335  1
  O  O18  1  0.47155771  0.30395558  0.02531102  1
  O  O19  1  0.84676483  0.54067432  0.02968032  1
  O  O20  1  0.69664266  0.16634250  0.02603916  1
  O  O21  1  0.46970084  0.16634250  0.52603916  1
  O  O22  1  0.69391048  0.54067432  0.52968032  1
  O  O23  1  0.83239887  0.30395558  0.52531102  1
  O  O24  1  0.54270903  0.71055377  0.97548735  1
  O  O25  1  0.17399293  0.47671730  0.97694066  1
  O  O26  1  0.30121449  0.84670451  0.97038627  1
  O  O27  1  0.54548902  0.84670451  0.47038627  1
  O  O28  1  0.30272337  0.47671730  0.47694066  1
  O  O29  1  0.16784374  0.71055377  0.47548735  1
  O  O30  1  0.13822371  0.63728958  0.35864502  1
  O  O31  1  0.51343083  0.87400832  0.36301432  1
  O  O32  1  0.36330866  0.49967650  0.35937316  1
  O  O33  1  0.13636684  0.49967650  0.85937316  1
  O  O34  1  0.36057648  0.87400832  0.86301432  1
  O  O35  1  0.49906487  0.63728958  0.85864502  1
  O  O36  1  0.02097420  0.84203095  0.41083649  1
  O  O37  1  0.80195461  0.97637768  0.41004299  1
  O  O38  1  0.14269609  0.17989085  0.40684216  1
  O  O39  1  0.03719477  0.17989085  0.90684216  1
  O  O40  1  0.17442308  0.97637768  0.91004299  1
  O  O41  1  0.82105675  0.84203095  0.91083649  1
  O  O42  1  0.97599398  0.15966621  0.59093241  1
  O  O43  1  0.19058259  0.02017470  0.59152959  1
  O  O44  1  0.82418515  0.79648811  0.58824415  1
  O  O45  1  0.97230296  0.79648811  0.08824415  1
  O  O46  1  0.82959211  0.02017470  0.09152959  1
  O  O47  1  0.18367222  0.15966621  0.09093241  1
  O  O48  1  0.68764120  0.17536395  0.74416949  1
  O  O49  1  0.46862161  0.30971068  0.74337599  1
  O  O50  1  0.80936309  0.51322385  0.74017516  1
  O  O51  1  0.70386177  0.51322385  0.24017516  1
  O  O52  1  0.84109008  0.30971068  0.24337599  1
  O  O53  1  0.48772375  0.17536395  0.24416949  1
  O  O54  1  0.64266098  0.49299921  0.92426541  1
  O  O55  1  0.85724959  0.35350770  0.92486259  1
  O  O56  1  0.49085215  0.12982111  0.92157715  1
  O  O57  1  0.63896996  0.12982111  0.42157715  1
  O  O58  1  0.49625911  0.35350770  0.42486259  1
  O  O59  1  0.85033922  0.49299921  0.42426541  1
  O  O60  1  0.35430720  0.50869795  0.07750349  1
  O  O61  1  0.13528761  0.64304468  0.07670999  1
  O  O62  1  0.47602909  0.84655785  0.07350916  1
  O  O63  1  0.37052777  0.84655785  0.57350916  1
  O  O64  1  0.50775608  0.64304468  0.57670999  1
  O  O65  1  0.15438975  0.50869795  0.57750349  1
  O  O66  1  0.30932698  0.82633321  0.25759941  1
  O  O67  1  0.52391559  0.68684170  0.25819659  1
  O  O68  1  0.15751815  0.46315511  0.25491115  1
  O  O69  1  0.30563596  0.46315511  0.75491115  1
  O  O70  1  0.16292511  0.68684170  0.75819659  1
  O  O71  1  0.51700522  0.82633321  0.75759941  1
loop_
_geom_bond_atom_site_label_1
_geom_bond_atom_site_label_2
_geom_bond_distance
_geom_bond_site_symmetry_2
Na0 O36 2.420170 1_545
Na0 O38 2.510126 1_555
Na0 O42 2.552393 1_455
Na0 O37 2.598179 1_445
Na0 O43 2.623479 1_555
Na0 O44 2.718525 1_445
Na1 O41 2.420170 1_545
Na1 O39 2.510126 1_655
Na1 O47 2.552393 1_656
Na1 O40 2.598179 1_645
Na1 O46 2.623480 1_556
Na1 O45 2.718525 1_546
Na2 O48 2.420170 1_555
Na2 O50 2.510126 1_555
Na2 O54 2.552393 1_555
Na2 O49 2.598179 1_555
Na2 O55 2.623479 1_555
Na2 O56 2.718525 1_555
Na3 O53 2.420170 1_555
Na3 O51 2.510126 1_555
Na3 O59 2.552393 1_555
Na3 O52 2.598179 1_555
Na3 O58 2.623480 1_555
Na3 O57 2.718525 1_555
Na4 O60 2.420170 1_555
Na4 O62 2.510126 1_555
Na4 O66 2.552393 1_555
Na4 O61 2.598179 1_555
Na4 O67 2.623479 1_555
Na4 O68 2.718525 1_555
Na5 O65 2.420170 1_555
Na5 O63 2.510126 1_555
Na5 O71 2.552393 1_555
Na5 O64 2.598179 1_555
Na5 O70 2.623480 1_555
Na5 O69 2.718525 1_555
Nb0 O8 1.931709 1_555
Nb0 O6 1.949647 1_455
Nb0 O43 1.980161 1_565
Nb0 O42 1.993129 1_465
Nb0 O44 2.035535 1_455
Nb0 O7 2.047518 1_565
Nb1 O9 1.931709 1_555
Nb1 O11 1.949647 1_655
Nb1 O46 1.980161 1_565
Nb1 O47 1.993129 1_665
Nb1 O45 2.035535 1_555
Nb1 O10 2.047518 1_665
Nb2 O20 1.931709 1_556
Nb2 O18 1.949647 1_556
Nb2 O55 1.980161 1_555
Nb2 O54 1.993129 1_555
Nb2 O56 2.035535 1_555
Nb2 O19 2.047518 1_556
Nb3 O21 1.931709 1_555
Nb3 O23 1.949647 1_555
Nb3 O58 1.980161 1_555
Nb3 O59 1.993129 1_555
Nb3 O57 2.035535 1_555
Nb3 O22 2.047518 1_555
Nb4 O32 1.931709 1_555
Nb4 O30 1.949647 1_555
Nb4 O67 1.980161 1_555
Nb4 O66 1.993129 1_555
Nb4 O68 2.035535 1_555
Nb4 O31 2.047518 1_555
Nb5 O33 1.931709 1_555
Nb5 O35 1.949647 1_555
Nb5 O70 1.980161 1_555
Nb5 O71 1.993129 1_555
Nb5 O69 2.035535 1_555
Nb5 O34 2.047518 1_555
Ge0 O0 1.772471 1_565
Ge0 O36 1.806685 1_555
Ge0 O1 1.822946 1_455
Ge0 O38 1.860449 1_565
Ge0 O37 2.301271 1_455
Ge0 O2 2.324406 1_465
Ge1 O5 1.772471 1_565
Ge1 O41 1.806685 1_555
Ge1 O4 1.822946 1_555
Ge1 O39 1.860449 1_665
Ge1 O40 2.301271 1_655
Ge1 O3 2.324406 1_665
Ge2 O12 1.772471 1_555
Ge2 O48 1.806685 1_555
Ge2 O13 1.822946 1_555
Ge2 O50 1.860449 1_555
Ge2 O49 2.301271 1_555
Ge2 O14 2.324406 1_555
Ge3 O17 1.772471 1_555
Ge3 O53 1.806685 1_555
Ge3 O16 1.822946 1_555
Ge3 O51 1.860449 1_555
Ge3 O52 2.301271 1_555
Ge3 O15 2.324406 1_555
Ge4 O24 1.772471 1_554
Ge4 O60 1.806685 1_555
Ge4 O25 1.822946 1_554
Ge4 O62 1.860449 1_555
Ge4 O61 2.301271 1_555
Ge4 O26 2.324406 1_554
Ge5 O29 1.772471 1_555
Ge5 O65 1.806685 1_555
Ge5 O28 1.822946 1_555
Ge5 O63 1.860449 1_555
Ge5 O64 2.301271 1_555
Ge5 O27 2.324406 1_555
O0 Si0 1.624441 1_555
O1 Si1 1.640617 1_555
O2 S0 1.463967 1_555
O3 S1 1.463967 1_555
O4 Si2 1.640617 1_555
O5 Si3 1.624441 1_555
O6 Si3 1.633305 1_565
O7 S1 1.494835 1_555
O8 Si2 1.645044 1_455
O9 Si1 1.645044 1_555
O10 S0 1.494835 1_455
O11 Si0 1.633305 1_565
O12 Si4 1.624441 1_555
O13 Si5 1.640617 1_555
O14 S2 1.463967 1_555
O15 S3 1.463967 1_555
O16 Si6 1.640617 1_555
O17 Si7 1.624441 1_555
O18 Si7 1.633305 1_555
O19 S3 1.494835 1_555
O20 Si6 1.645044 1_555
O21 Si5 1.645044 1_555
O22 S2 1.494835 1_555
O23 Si4 1.633305 1_555
O24 Si8 1.624441 1_555
O25 Si9 1.640617 1_555
O26 S4 1.463967 1_555
O27 S5 1.463967 1_555
O28 Si10 1.640617 1_555
O29 Si11 1.624441 1_555
O30 Si11 1.633305 1_555
O31 S5 1.494835 1_555
O32 Si10 1.645044 1_555
O33 Si9 1.645044 1_555
O34 S4 1.494835 1_555
O35 Si8 1.633305 1_555
O36 Si11 1.632727 1_555
O37 S5 1.458802 1_555
O38 Si10 1.644628 1_555
O39 Si9 1.644631 1_555
O40 S4 1.458794 1_555
O41 Si8 1.632732 1_555
O42 Si4 1.635158 1_555
O43 Si5 1.646940 1_555
O44 S2 1.509151 1_555
O45 S3 1.509155 1_555
O46 Si6 1.646931 1_555
O47 Si7 1.635163 1_555
O48 Si3 1.632727 1_555
O49 S1 1.458802 1_555
O50 Si2 1.644628 1_555
O51 Si1 1.644631 1_555
O52 S0 1.458794 1_555
O53 Si0 1.632732 1_555
O54 Si8 1.635168 1_555
O55 Si9 1.646925 1_655
O56 S4 1.509150 1_545
O57 S5 1.509142 1_545
O58 Si10 1.646943 1_555
O59 Si11 1.635158 1_655
O60 Si7 1.632739 1_555
O61 S3 1.458787 1_455
O62 Si6 1.644624 1_565
O63 Si5 1.644617 1_565
O64 S2 1.458805 1_555
O65 Si4 1.632728 1_455
O66 Si0 1.635158 1_565
O67 Si1 1.646940 1_555
O68 S0 1.509151 1_455
O69 S1 1.509155 1_555
O70 Si2 1.646931 1_455
O71 Si3 1.635163 1_565
