# generated using pymatgen
data_Na2Hf4Si3(SO8)3
_symmetry_space_group_name_H-M   'P 1'
_cell_length_a   8.93504032
_cell_length_b   8.92137088
_cell_length_c   23.34579354
_cell_angle_alpha   90.34156418
_cell_angle_beta   90.28593902
_cell_angle_gamma   119.94791753
_symmetry_Int_Tables_number   1
_chemical_formula_structural   Na2Hf4Si3(SO8)3
_chemical_formula_sum   'Na6 Hf12 Si9 S9 O72'
_cell_volume   1612.38591014
_cell_formula_units_Z   3
loop_
 _symmetry_equiv_pos_site_id
 _symmetry_equiv_pos_as_xyz
  1  'x, y, z'
loop_
 _atom_site_type_symbol
 _atom_site_label
 _atom_site_symmetry_multiplicity
 _atom_site_fract_x
 _atom_site_fract_y
 _atom_site_fract_z
 _atom_site_occupancy
  Na  Na0  1  0.97231103  0.96713981  0.49357543  1
  Na  Na1  1  0.00872827  0.97957464  0.00141941  1
  Na  Na2  1  0.64220982  0.30237659  0.82708940  1
  Na  Na3  1  0.67544450  0.31261144  0.33616099  1
  Na  Na4  1  0.30439016  0.65744353  0.17736158  1
  Na  Na5  1  0.35667008  0.65827215  0.66348210  1
  Hf  Hf0  1  0.00487423  0.00434965  0.35451466  1
  Hf  Hf1  1  0.01241082  0.01101438  0.85061713  1
  Hf  Hf2  1  0.98790512  0.00122804  0.64641671  1
  Hf  Hf3  1  0.00905869  0.99661636  0.15019641  1
  Hf  Hf4  1  0.65356952  0.33266620  0.68792704  1
  Hf  Hf5  1  0.68361438  0.33626666  0.19210971  1
  Hf  Hf6  1  0.66408647  0.33510806  0.97992734  1
  Hf  Hf7  1  0.67842424  0.34560877  0.47627982  1
  Hf  Hf8  1  0.31953718  0.67476404  0.02158896  1
  Hf  Hf9  1  0.34889424  0.67986608  0.51694618  1
  Hf  Hf10  1  0.32088156  0.67611885  0.31358366  1
  Hf  Hf11  1  0.34771798  0.68251818  0.80914651  1
  Si  Si0  1  0.29618858  0.00544368  0.25088922  1
  Si  Si1  1  0.01186184  0.29099030  0.25005228  1
  Si  Si2  1  0.28907912  0.29249759  0.74899377  1
  Si  Si3  1  0.71563426  0.00916894  0.75094315  1
  Si  Si4  1  0.66384082  0.62455243  0.58369516  1
  Si  Si5  1  0.95177611  0.62755985  0.08310948  1
  Si  Si6  1  0.32875878  0.95969711  0.91645999  1
  Si  Si7  1  0.62852363  0.96015191  0.41551386  1
  Si  Si8  1  0.04593290  0.67252428  0.41830126  1
  S  S0  1  0.71058681  0.71183357  0.24925659  1
  S  S1  1  0.00026928  0.71144256  0.74974395  1
  S  S2  1  0.95610557  0.33569111  0.58400692  1
  S  S3  1  0.37472763  0.04250976  0.58326185  1
  S  S4  1  0.66750462  0.04453064  0.08215590  1
  S  S5  1  0.37697530  0.33477805  0.08238392  1
  S  S6  1  0.62071775  0.66641127  0.91796033  1
  S  S7  1  0.04296069  0.37769680  0.91712439  1
  S  S8  1  0.33512567  0.38007405  0.41670289  1
  O  O0  1  0.20047206  0.02472002  0.30640332  1
  O  O1  1  0.81724328  0.79015755  0.30087257  1
  O  O2  1  0.97725539  0.17058270  0.30532525  1
  O  O3  1  0.20331371  0.17250525  0.80641255  1
  O  O4  1  0.97486647  0.79148648  0.80201254  1
  O  O5  1  0.82490878  0.02108300  0.80879911  1
  O  O6  1  0.80116474  0.97296736  0.69474181  1
  O  O7  1  0.17543415  0.19443958  0.69262609  1
  O  O8  1  0.02683125  0.81702461  0.69881493  1
  O  O9  1  0.79387743  0.81633624  0.19721017  1
  O  O10  1  0.01658031  0.19264355  0.19083320  1
  O  O11  1  0.17550044  0.97082929  0.19248927  1
  O  O12  1  0.87018724  0.35139264  0.63555320  1
  O  O13  1  0.48183592  0.12400105  0.63605350  1
  O  O14  1  0.64890590  0.50996459  0.64043157  1
  O  O15  1  0.85571461  0.50813842  0.13772115  1
  O  O16  1  0.63728146  0.12081665  0.13358247  1
  O  O17  1  0.47993284  0.35713820  0.13346811  1
  O  O18  1  0.45913294  0.30752373  0.03020444  1
  O  O19  1  0.83968597  0.52752430  0.02534008  1
  O  O20  1  0.68138006  0.14826785  0.03061774  1
  O  O21  1  0.45816124  0.14475705  0.53272248  1
  O  O22  1  0.68000830  0.52277130  0.52817965  1
  O  O23  1  0.84970496  0.30881528  0.53215001  1
  O  O24  1  0.53500108  0.68367291  0.96926171  1
  O  O25  1  0.15046729  0.45997799  0.96933298  1
  O  O26  1  0.31132826  0.84268013  0.97330825  1
  O  O27  1  0.53994349  0.84135555  0.47309705  1
  O  O28  1  0.31452282  0.46325461  0.46890280  1
  O  O29  1  0.15855995  0.68523537  0.47525174  1
  O  O30  1  0.12912917  0.63811631  0.36088618  1
  O  O31  1  0.51120462  0.86009963  0.35978484  1
  O  O32  1  0.35999118  0.48215060  0.36537956  1
  O  O33  1  0.12229696  0.47987690  0.86608767  1
  O  O34  1  0.35104928  0.86116660  0.86137105  1
  O  O35  1  0.51455265  0.63927783  0.86563868  1
  O  O36  1  0.02993126  0.84508893  0.41230637  1
  O  O37  1  0.82174406  0.98715513  0.41043526  1
  O  O38  1  0.17849013  0.20728330  0.41291531  1
  O  O39  1  0.02207563  0.20134152  0.91322831  1
  O  O40  1  0.15430342  0.97507321  0.91287353  1
  O  O41  1  0.79407712  0.82030834  0.91291333  1
  O  O42  1  0.97474235  0.17810037  0.58829155  1
  O  O43  1  0.20259780  0.02488268  0.59009933  1
  O  O44  1  0.83972335  0.81503553  0.58909452  1
  O  O45  1  0.97189527  0.81932033  0.08582771  1
  O  O46  1  0.82348989  0.03009781  0.08576527  1
  O  O47  1  0.20114039  0.18049353  0.08540489  1
  O  O48  1  0.70206722  0.18271762  0.74344549  1
  O  O49  1  0.48356264  0.31824879  0.74458275  1
  O  O50  1  0.84720881  0.53777908  0.74386215  1
  O  O51  1  0.69363342  0.53842868  0.24198138  1
  O  O52  1  0.84178618  0.31894179  0.24384962  1
  O  O53  1  0.48206870  0.17969149  0.23982515  1
  O  O54  1  0.63856645  0.50834347  0.92291911  1
  O  O55  1  0.86822563  0.35825327  0.92450644  1
  O  O56  1  0.50217585  0.15134310  0.92415233  1
  O  O57  1  0.63388058  0.14432259  0.42535098  1
  O  O58  1  0.48687791  0.35614123  0.42373229  1
  O  O59  1  0.85156948  0.50117230  0.42318125  1
  O  O60  1  0.36270181  0.49174836  0.07318086  1
  O  O61  1  0.14500766  0.64429079  0.07696445  1
  O  O62  1  0.51466953  0.86705352  0.07479210  1
  O  O63  1  0.35582638  0.86728632  0.57977009  1
  O  O64  1  0.49004156  0.64212658  0.57984502  1
  O  O65  1  0.12831779  0.48973431  0.57946824  1
  O  O66  1  0.32071247  0.83613478  0.25426242  1
  O  O67  1  0.53915871  0.69248978  0.25366991  1
  O  O68  1  0.18745841  0.47710059  0.25481382  1
  O  O69  1  0.30078198  0.47895159  0.75951939  1
  O  O70  1  0.15395264  0.69151916  0.75715856  1
  O  O71  1  0.52081367  0.83815167  0.75624513  1
loop_
_geom_bond_atom_site_label_1
_geom_bond_atom_site_label_2
_geom_bond_distance
_geom_bond_site_symmetry_2
Na0 O36 2.365420 1_655
Na0 O37 2.413933 1_555
Na0 O44 2.583604 1_555
Na0 O38 2.769803 1_665
Na0 O42 2.888114 1_565
Na0 O43 2.908383 1_665
Na1 O45 2.367654 1_455
Na1 O40 2.458596 1_554
Na1 O47 2.619291 1_565
Na1 O41 2.677923 1_454
Na1 O46 2.754413 1_465
Na1 O39 2.825423 1_564
Na2 O48 2.407161 1_555
Na2 O49 2.432283 1_555
Na2 O56 2.626277 1_555
Na2 O50 2.790033 1_555
Na2 O54 2.897255 1_555
Na2 O55 2.904237 1_555
Na3 O57 2.493176 1_555
Na3 O59 2.591872 1_555
Na3 O52 2.608866 1_555
Na3 O53 2.708037 1_555
Na3 O58 2.801317 1_555
Na3 O51 2.940881 1_555
Na4 O68 2.307578 1_555
Na4 O66 2.348814 1_555
Na4 O67 2.640618 1_555
Na4 O61 2.707767 1_555
Na5 O64 2.333376 1_555
Na5 O71 2.644465 1_555
Na5 O69 2.663055 1_555
Na5 O65 2.670698 1_555
Na5 O63 2.711799 1_555
Na5 O70 2.952914 1_555
Hf0 O2 1.990448 1_455
Hf0 O0 2.013426 1_555
Hf0 O37 2.044111 1_445
Hf0 O36 2.055877 1_545
Hf0 O38 2.165277 1_555
Hf0 O1 2.186866 1_445
Hf1 O3 1.905747 1_555
Hf1 O5 1.975579 1_455
Hf1 O40 2.053207 1_545
Hf1 O4 2.132963 1_445
Hf1 O39 2.202255 1_555
Hf1 O41 2.357853 1_445
Hf2 O6 1.929389 1_545
Hf2 O7 2.004661 1_655
Hf2 O44 2.015705 1_545
Hf2 O42 2.134093 1_555
Hf2 O8 2.215481 1_645
Hf2 O43 2.253285 1_655
Hf3 O11 1.889208 1_555
Hf3 O10 1.955810 1_565
Hf3 O45 2.076685 1_455
Hf3 O9 2.107778 1_455
Hf3 O47 2.273561 1_565
Hf3 O46 2.361346 1_465
Hf4 O14 1.954326 1_555
Hf4 O49 1.974951 1_555
Hf4 O48 2.061822 1_555
Hf4 O13 2.095035 1_555
Hf4 O50 2.198899 1_555
Hf4 O12 2.229855 1_555
Hf5 O52 1.919258 1_555
Hf5 O53 1.990505 1_555
Hf5 O15 2.004126 1_555
Hf5 O51 2.104555 1_555
Hf5 O16 2.213913 1_555
Hf5 O17 2.353186 1_555
Hf6 O19 1.950667 1_556
Hf6 O56 2.015904 1_555
Hf6 O18 2.089680 1_556
Hf6 O20 2.116988 1_556
Hf6 O54 2.141309 1_555
Hf6 O55 2.166638 1_555
Hf7 O59 1.937043 1_555
Hf7 O22 1.980157 1_555
Hf7 O57 2.013210 1_555
Hf7 O58 2.141005 1_555
Hf7 O23 2.153578 1_555
Hf7 O21 2.313757 1_555
Hf8 O26 1.910233 1_554
Hf8 O61 1.943720 1_555
Hf8 O62 2.119479 1_555
Hf8 O25 2.122671 1_554
Hf8 O60 2.216499 1_555
Hf8 O24 2.253186 1_554
Hf9 O27 1.901870 1_555
Hf9 O29 1.976700 1_555
Hf9 O64 2.066761 1_555
Hf9 O28 2.113042 1_555
Hf9 O63 2.194803 1_555
Hf9 O65 2.369065 1_555
Hf10 O30 1.926991 1_555
Hf10 O31 1.980675 1_555
Hf10 O66 1.995392 1_555
Hf10 O68 2.073021 1_555
Hf10 O32 2.281074 1_555
Hf10 O67 2.350911 1_555
Hf11 O71 1.934066 1_555
Hf11 O34 1.989135 1_555
Hf11 O69 2.006496 1_555
Hf11 O70 2.143808 1_555
Hf11 O35 2.161223 1_555
Hf11 O33 2.347778 1_555
O0 Si0 1.611184 1_555
O1 S0 1.470422 1_555
O2 Si1 1.613539 1_655
O3 Si2 1.654818 1_555
O4 S1 1.484815 1_655
O5 Si3 1.634161 1_555
O6 Si3 1.631330 1_565
O7 Si2 1.616827 1_555
O8 S1 1.466360 1_555
O9 S0 1.493056 1_555
O10 Si1 1.644989 1_555
O11 Si0 1.662791 1_565
O12 S2 1.473663 1_555
O13 S3 1.498757 1_555
O14 Si4 1.642870 1_555
O15 Si5 1.615982 1_555
O16 S4 1.467830 1_555
O17 S5 1.453050 1_555
O18 S5 1.505171 1_555
O19 Si5 1.642623 1_555
O20 S4 1.489891 1_555
O21 S3 1.456919 1_555
O22 Si4 1.626019 1_555
O23 S2 1.477979 1_555
O24 S6 1.472896 1_555
O25 S7 1.490230 1_555
O26 Si6 1.652790 1_555
O27 Si7 1.657399 1_555
O28 S8 1.482407 1_555
O29 Si8 1.632231 1_555
O30 Si8 1.635957 1_555
O31 Si7 1.620683 1_555
O32 S8 1.458757 1_555
O33 S7 1.459227 1_555
O34 Si6 1.621811 1_555
O35 S6 1.485297 1_555
O36 Si8 1.622426 1_555
O37 Si7 1.624744 1_555
O38 S8 1.478498 1_555
O39 S7 1.491126 1_555
O40 Si6 1.633371 1_555
O41 S6 1.476027 1_555
O42 S2 1.499873 1_555
O43 S3 1.475427 1_555
O44 Si4 1.643928 1_555
O45 Si5 1.629295 1_555
O46 S4 1.464346 1_555
O47 S5 1.486955 1_555
O48 Si3 1.622638 1_555
O49 Si2 1.639063 1_555
O50 S1 1.472973 1_655
O51 S0 1.485823 1_555
O52 Si1 1.664037 1_655
O53 Si0 1.634929 1_555
O54 S6 1.501249 1_555
O55 S7 1.493313 1_655
O56 Si6 1.644657 1_545
O57 Si7 1.634483 1_545
O58 S8 1.482654 1_555
O59 Si8 1.649016 1_655
O60 S5 1.484975 1_555
O61 Si5 1.664091 1_455
O62 S4 1.495652 1_565
O63 S3 1.487824 1_565
O64 Si4 1.638912 1_555
O65 S2 1.469556 1_455
O66 Si0 1.633227 1_565
O67 S0 1.457541 1_555
O68 Si1 1.620467 1_555
O69 Si2 1.630800 1_555
O70 S1 1.479468 1_555
O71 Si3 1.651056 1_565
