# generated using pymatgen
data_Na5Ga3Si3Sn(SO8)3
_symmetry_space_group_name_H-M   'P 1'
_cell_length_a   8.84585602
_cell_length_b   8.85672601
_cell_length_c   22.29350623
_cell_angle_alpha   90.23334923
_cell_angle_beta   90.66994497
_cell_angle_gamma   120.13693431
_symmetry_Int_Tables_number   1
_chemical_formula_structural   Na5Ga3Si3Sn(SO8)3
_chemical_formula_sum   'Na15 Ga9 Si9 Sn3 S9 O72'
_cell_volume   1510.29844193
_cell_formula_units_Z   3
loop_
 _symmetry_equiv_pos_site_id
 _symmetry_equiv_pos_as_xyz
  1  'x, y, z'
loop_
 _atom_site_type_symbol
 _atom_site_label
 _atom_site_symmetry_multiplicity
 _atom_site_fract_x
 _atom_site_fract_y
 _atom_site_fract_z
 _atom_site_occupancy
  Na  Na0  1  0.63955984  0.00332896  0.25344997  1
  Na  Na1  1  0.00178358  0.62616412  0.24914399  1
  Na  Na2  1  0.62835179  0.63302015  0.74743953  1
  Na  Na3  1  0.37153336  0.01027880  0.75324382  1
  Na  Na4  1  0.66799258  0.95887156  0.58516277  1
  Na  Na5  1  0.96876447  0.67764803  0.92015247  1
  Na  Na6  1  0.69424845  0.02051902  0.91252963  1
  Na  Na7  1  0.96412214  0.30139613  0.41187018  1
  Na  Na8  1  0.70792216  0.67830291  0.42011771  1
  Na  Na9  1  0.00234791  0.98665837  0.50169267  1
  Na  Na10  1  0.00583361  0.99188428  0.00020811  1
  Na  Na11  1  0.65281528  0.32657933  0.83150884  1
  Na  Na12  1  0.66458895  0.32677787  0.33230543  1
  Na  Na13  1  0.31988278  0.64958128  0.16263890  1
  Na  Na14  1  0.33040719  0.64985090  0.66510359  1
  Ga  Ga0  1  0.98749997  0.99674369  0.35357239  1
  Ga  Ga1  1  0.00652733  0.00915329  0.85133388  1
  Ga  Ga2  1  0.98548692  0.99633204  0.65230793  1
  Ga  Ga3  1  0.00833362  0.00530437  0.14623358  1
  Ga  Ga4  1  0.64949416  0.33179736  0.68831868  1
  Ga  Ga5  1  0.69286411  0.34144224  0.18062265  1
  Ga  Ga6  1  0.33013634  0.68371522  0.01698891  1
  Ga  Ga7  1  0.34654100  0.67874557  0.51631948  1
  Ga  Ga8  1  0.31567582  0.65838985  0.31882185  1
  Si  Si0  1  0.00820251  0.28885591  0.24943628  1
  Si  Si1  1  0.27832226  0.28269046  0.74871401  1
  Si  Si2  1  0.71681984  0.01294951  0.74939359  1
  Si  Si3  1  0.66679276  0.62873876  0.58591219  1
  Si  Si4  1  0.97268860  0.63778356  0.08531723  1
  Si  Si5  1  0.62470873  0.66960932  0.92010193  1
  Si  Si6  1  0.32747304  0.96097006  0.91661484  1
  Si  Si7  1  0.61755226  0.95390419  0.41497569  1
  Si  Si8  1  0.05223013  0.67828922  0.41699226  1
  Sn  Sn0  1  0.65810928  0.34226825  0.98314240  1
  Sn  Sn1  1  0.67374578  0.33952971  0.48225087  1
  Sn  Sn2  1  0.34652386  0.66852193  0.81409539  1
  S  S0  1  0.29282603  0.00608672  0.24972544  1
  S  S1  1  0.70345183  0.70411104  0.24915363  1
  S  S2  1  0.99833220  0.70631263  0.74967251  1
  S  S3  1  0.96566382  0.33733375  0.58523349  1
  S  S4  1  0.36916672  0.03983749  0.58370246  1
  S  S5  1  0.66751525  0.03973133  0.08464931  1
  S  S6  1  0.37372051  0.33402667  0.08689238  1
  S  S7  1  0.04640161  0.37561814  0.91797713  1
  S  S8  1  0.33108520  0.37493660  0.41615222  1
  O  O0  1  0.21406166  0.03118508  0.30419187  1
  O  O1  1  0.81645196  0.77793333  0.30487115  1
  O  O2  1  0.96546068  0.16772241  0.30994251  1
  O  O3  1  0.20375540  0.15928749  0.80709414  1
  O  O4  1  0.96567821  0.77973326  0.80470700  1
  O  O5  1  0.82516995  0.03335100  0.81137842  1
  O  O6  1  0.78408442  0.95610511  0.69029189  1
  O  O7  1  0.16730794  0.19149675  0.68772047  1
  O  O8  1  0.03410178  0.81798394  0.69653876  1
  O  O9  1  0.78645227  0.81775545  0.19715040  1
  O  O10  1  0.02783430  0.18987546  0.19145030  1
  O  O11  1  0.17804584  0.96681194  0.19604993  1
  O  O12  1  0.87621664  0.36133856  0.63628650  1
  O  O13  1  0.48616737  0.11883292  0.63742751  1
  O  O14  1  0.64041053  0.50566521  0.64330985  1
  O  O15  1  0.88238287  0.51693946  0.14450538  1
  O  O16  1  0.63541867  0.12057908  0.13885328  1
  O  O17  1  0.48816993  0.35754819  0.13978753  1
  O  O18  1  0.44216660  0.29371061  0.03082921  1
  O  O19  1  0.84897601  0.54992277  0.02431015  1
  O  O20  1  0.69514885  0.14781044  0.02978337  1
  O  O21  1  0.45037126  0.14762633  0.52890492  1
  O  O22  1  0.69785000  0.54901399  0.52266144  1
  O  O23  1  0.85214569  0.29463095  0.52771931  1
  O  O24  1  0.52822568  0.70162852  0.97643123  1
  O  O25  1  0.15408621  0.45640475  0.97216575  1
  O  O26  1  0.28547531  0.83235209  0.97277740  1
  O  O27  1  0.54644004  0.83653644  0.47504045  1
  O  O28  1  0.29949935  0.45105910  0.47049962  1
  O  O29  1  0.16656204  0.69391260  0.47635238  1
  O  O30  1  0.11598524  0.62208357  0.35649623  1
  O  O31  1  0.50500187  0.86380561  0.35326496  1
  O  O32  1  0.36857530  0.48632048  0.36282264  1
  O  O33  1  0.11451162  0.48522461  0.86368317  1
  O  O34  1  0.36968406  0.88247518  0.85536134  1
  O  O35  1  0.51422681  0.62323169  0.85659038  1
  O  O36  1  0.02217840  0.84522568  0.40752181  1
  O  O37  1  0.81707417  0.98190142  0.41070675  1
  O  O38  1  0.17494894  0.20022682  0.40953745  1
  O  O39  1  0.02378567  0.19992808  0.91258521  1
  O  O40  1  0.15285482  0.97546163  0.90955122  1
  O  O41  1  0.81764468  0.84512631  0.91243393  1
  O  O42  1  0.97765472  0.17683294  0.58831428  1
  O  O43  1  0.19742117  0.02253709  0.58894921  1
  O  O44  1  0.84274659  0.82690370  0.59052995  1
  O  O45  1  0.98224101  0.82779194  0.09361541  1
  O  O46  1  0.82639629  0.02712608  0.09019272  1
  O  O47  1  0.19834640  0.17552741  0.09087820  1
  O  O48  1  0.68871465  0.18103764  0.74006978  1
  O  O49  1  0.48058578  0.31402125  0.74504514  1
  O  O50  1  0.84182093  0.53152268  0.74294492  1
  O  O51  1  0.68579423  0.52787522  0.24334208  1
  O  O52  1  0.82444836  0.30587839  0.24415824  1
  O  O53  1  0.47009708  0.16153893  0.24273808  1
  O  O54  1  0.65812581  0.50162587  0.92055590  1
  O  O55  1  0.86647135  0.35411470  0.92299222  1
  O  O56  1  0.51708896  0.14580799  0.92439569  1
  O  O57  1  0.64376977  0.15243534  0.42202732  1
  O  O58  1  0.49103519  0.35851529  0.42143865  1
  O  O59  1  0.85014178  0.50042828  0.42056763  1
  O  O60  1  0.36202663  0.49141440  0.07997236  1
  O  O61  1  0.16030114  0.64436038  0.07744037  1
  O  O62  1  0.50966198  0.86607651  0.07990649  1
  O  O63  1  0.35900221  0.86708509  0.57840244  1
  O  O64  1  0.49101810  0.65049325  0.57770570  1
  O  O65  1  0.13624316  0.49450703  0.57742681  1
  O  O66  1  0.31386417  0.84757736  0.25392701  1
  O  O67  1  0.53206020  0.69207498  0.25581290  1
  O  O68  1  0.17670367  0.49018426  0.25607981  1
  O  O69  1  0.30327648  0.48106055  0.75254745  1
  O  O70  1  0.15823519  0.69111426  0.75552117  1
  O  O71  1  0.51477139  0.83627730  0.75172369  1
loop_
_geom_bond_atom_site_label_1
_geom_bond_atom_site_label_2
_geom_bond_distance
_geom_bond_site_symmetry_2
Na0 O52 2.347306 1_555
Na0 O67 2.424146 1_545
Na0 O66 2.492711 1_545
Na0 O53 2.524108 1_555
Na0 O31 2.550059 1_545
Na0 O16 2.768421 1_555
Na0 O2 2.775311 1_555
Na0 O9 2.851468 1_545
Na1 O68 2.394922 1_555
Na1 O66 2.456288 1_555
Na1 O52 2.458654 1_455
Na1 O51 2.476883 1_455
Na1 O15 2.528079 1_455
Na1 O30 2.594291 1_555
Na1 O11 2.878058 1_555
Na1 O1 2.878325 1_455
Na2 O49 2.445921 1_555
Na2 O71 2.465011 1_555
Na2 O50 2.468209 1_555
Na2 O69 2.493188 1_555
Na2 O14 2.603439 1_555
Na2 O35 2.630432 1_555
Na2 O6 2.796679 1_555
Na2 O4 2.868156 1_555
Na3 O49 2.367120 1_555
Na3 O71 2.437794 1_545
Na3 O48 2.451064 1_555
Na3 O70 2.490172 1_545
Na3 O34 2.543127 1_545
Na3 O3 2.716820 1_555
Na3 O13 2.778774 1_555
Na3 O8 2.863172 1_545
Na4 O44 2.362445 1_555
Na4 O64 2.373773 1_555
Na4 O63 2.431589 1_555
Na4 O42 2.433000 1_565
Na4 O6 2.552950 1_555
Na4 O27 2.665323 1_555
Na4 O13 2.875791 1_565
Na4 O23 2.890024 1_565
Na5 O40 2.316449 1_655
Na5 O54 2.383352 1_555
Na5 O41 2.450423 1_555
Na5 O55 2.536299 1_555
Na5 O19 2.582568 1_556
Na5 O26 2.675466 1_655
Na5 O4 2.735720 1_555
Na5 O33 2.894517 1_655
Na6 O41 2.303735 1_545
Na6 O56 2.347478 1_555
Na6 O5 2.523931 1_555
Na6 O39 2.524106 1_655
Na6 O55 2.563413 1_555
Na6 O34 2.781915 1_545
Na6 O20 2.840868 1_556
Na6 O24 2.842499 1_545
Na7 O59 2.438853 1_555
Na7 O38 2.442014 1_655
Na7 O37 2.449975 1_545
Na7 O57 2.466891 1_555
Na7 O2 2.560867 1_555
Na7 O30 2.762538 1_655
Na7 O23 2.767034 1_555
Na7 O28 2.865872 1_655
Na8 O37 2.368284 1_555
Na8 O36 2.426325 1_655
Na8 O59 2.460610 1_555
Na8 O58 2.499826 1_555
Na8 O22 2.543393 1_555
Na8 O1 2.743511 1_555
Na8 O27 2.746043 1_555
Na8 O32 2.881143 1_555
Na9 O44 2.449468 1_455
Na9 O36 2.493023 1_555
Na9 O43 2.495699 1_565
Na9 O37 2.579613 1_455
Na9 O42 2.639433 1_465
Na9 O38 2.708296 1_565
Na10 O41 2.453591 1_454
Na10 O40 2.458908 1_554
Na10 O45 2.494442 1_455
Na10 O47 2.596686 1_565
Na10 O39 2.641772 1_564
Na10 O46 2.684779 1_465
Na11 O49 2.410076 1_555
Na11 O54 2.499257 1_555
Na11 O48 2.514491 1_555
Na11 O56 2.539266 1_555
Na11 O50 2.654683 1_555
Na11 O55 2.689601 1_555
Na12 O57 2.483398 1_555
Na12 O52 2.494080 1_555
Na12 O59 2.509224 1_555
Na12 O53 2.540946 1_555
Na12 O51 2.615889 1_555
Na12 O58 2.623851 1_555
Na13 O61 2.339555 1_555
Na13 O60 2.452987 1_555
Na13 O68 2.495350 1_555
Na13 O62 2.601073 1_555
Na13 O67 2.678093 1_555
Na13 O66 2.699428 1_555
Na14 O69 2.401481 1_555
Na14 O64 2.423124 1_555
Na14 O65 2.488010 1_555
Na14 O71 2.512255 1_555
Na14 O63 2.656075 1_555
Na14 O70 2.672256 1_555
Ga0 O2 1.892414 1_565
Ga0 O36 1.938907 1_655
Ga0 O37 1.938988 1_555
Ga0 O1 2.055204 1_555
Ga0 O38 2.118170 1_665
Ga0 O0 2.182192 1_665
Ga1 O3 1.872452 1_555
Ga1 O5 1.930386 1_455
Ga1 O40 1.949529 1_545
Ga1 O41 2.095126 1_445
Ga1 O39 2.111899 1_555
Ga1 O4 2.139275 1_445
Ga2 O7 1.834524 1_665
Ga2 O6 1.848888 1_555
Ga2 O44 1.944943 1_555
Ga2 O8 2.082591 1_655
Ga2 O42 2.173307 1_565
Ga2 O43 2.278447 1_665
Ga3 O10 1.848645 1_555
Ga3 O45 1.874919 1_445
Ga3 O11 2.020242 1_545
Ga3 O47 2.034734 1_555
Ga3 O46 2.110839 1_455
Ga3 O9 2.166492 1_445
Ga4 O14 1.876037 1_555
Ga4 O49 1.914715 1_555
Ga4 O48 1.924222 1_555
Ga4 O13 2.034713 1_555
Ga4 O50 2.102054 1_555
Ga4 O12 2.228504 1_555
Ga5 O15 1.816584 1_555
Ga5 O52 1.947704 1_555
Ga5 O16 1.981849 1_555
Ga5 O17 2.085566 1_555
Ga5 O51 2.184564 1_555
Ga5 O53 2.295318 1_555
Ga6 O26 1.839630 1_554
Ga6 O24 1.916302 1_554
Ga6 O61 1.928755 1_555
Ga6 O25 2.067817 1_554
Ga6 O62 2.109959 1_555
Ga6 O60 2.333353 1_555
Ga7 O27 1.869179 1_555
Ga7 O29 1.878608 1_555
Ga7 O64 1.962598 1_555
Ga7 O28 2.100896 1_555
Ga7 O63 2.122073 1_555
Ga7 O65 2.237939 1_555
Ga8 O30 1.842728 1_555
Ga8 O31 1.898247 1_555
Ga8 O68 1.947030 1_555
Ga8 O32 2.054557 1_555
Ga8 O66 2.224193 1_555
Ga8 O67 2.284477 1_555
O0 S0 1.477281 1_555
O1 S1 1.509190 1_555
O2 Si0 1.652234 1_655
O3 Si1 1.622120 1_555
O4 S2 1.483911 1_555
O5 Si2 1.629081 1_555
O6 Si2 1.630113 1_565
O7 Si1 1.621432 1_555
O8 S2 1.478350 1_455
O9 S1 1.477686 1_555
O10 Si0 1.618224 1_555
O11 S0 1.482342 1_565
O12 S3 1.467872 1_555
O13 S4 1.494081 1_555
O14 Si3 1.625699 1_555
O15 Si4 1.643894 1_555
O16 S5 1.502888 1_555
O17 S6 1.489032 1_555
O18 S6 1.512397 1_555
O18 Sn0 2.047026 1_554
O19 Si4 1.659628 1_555
O19 Sn0 1.976707 1_554
O20 S5 1.501238 1_555
O20 Sn0 2.174383 1_554
O21 S4 1.503718 1_555
O21 Sn1 2.136599 1_555
O22 Si3 1.660758 1_555
O22 Sn1 1.970795 1_555
O23 S3 1.542723 1_555
O23 Sn1 2.066889 1_555
O24 Si5 1.628194 1_555
O25 S7 1.469825 1_555
O26 Si6 1.612714 1_555
O27 Si7 1.625963 1_555
O28 S8 1.480197 1_555
O29 Si8 1.618621 1_555
O30 Si8 1.636763 1_555
O31 Si7 1.637667 1_555
O32 S8 1.478821 1_555
O33 S7 1.486529 1_555
O33 Sn2 2.189014 1_555
O34 Si6 1.659014 1_555
O34 Sn2 2.017577 1_555
O35 Si5 1.639639 1_555
O35 Sn2 1.956232 1_555
O36 Si8 1.642294 1_555
O37 Si7 1.658382 1_555
O38 S8 1.473449 1_555
O39 S7 1.470054 1_555
O40 Si6 1.618875 1_555
O41 Si5 1.644215 1_555
O42 S3 1.479423 1_555
O43 S4 1.454576 1_555
O44 Si3 1.662910 1_555
O45 Si4 1.651565 1_555
O46 S5 1.468536 1_555
O47 S6 1.484128 1_555
O48 Si2 1.641412 1_555
O49 Si1 1.670323 1_555
O50 S2 1.475434 1_555
O51 S1 1.493511 1_555
O52 Si0 1.708932 1_655
O53 S0 1.489420 1_555
O54 Si5 1.656094 1_555
O54 Sn0 1.988627 1_555
O55 S7 1.510640 1_655
O55 Sn0 2.251912 1_555
O56 Si6 1.660451 1_545
O56 Sn0 2.015600 1_555
O57 Si7 1.660622 1_545
O57 Sn1 2.037403 1_555
O58 S8 1.496610 1_555
O58 Sn1 2.168400 1_555
O59 Si8 1.691206 1_655
O59 Sn1 2.046910 1_555
O60 S6 1.457304 1_555
O61 Si4 1.642653 1_455
O62 S5 1.471458 1_565
O63 S4 1.491023 1_565
O64 Si3 1.668141 1_555
O65 S3 1.464191 1_455
O66 S0 1.509064 1_565
O67 S1 1.474818 1_555
O68 Si0 1.657413 1_555
O69 Si1 1.658816 1_555
O69 Sn2 2.029044 1_555
O70 S2 1.490935 1_455
O70 Sn2 2.192093 1_555
O71 Si2 1.685270 1_565
O71 Sn2 2.049580 1_555
