# generated using pymatgen
data_KScBP2HO9
_symmetry_space_group_name_H-M   'P 1'
_cell_length_a   5.33972900
_cell_length_b   8.39899036
_cell_length_c   8.47306136
_cell_angle_alpha   88.21737367
_cell_angle_beta   79.93687536
_cell_angle_gamma   86.65886203
_symmetry_Int_Tables_number   1
_chemical_formula_structural   KScBP2HO9
_chemical_formula_sum   'K2 Sc2 B2 P4 H2 O18'
_cell_volume   373.43603131
_cell_formula_units_Z   2
loop_
 _symmetry_equiv_pos_site_id
 _symmetry_equiv_pos_as_xyz
  1  'x, y, z'
loop_
 _atom_site_type_symbol
 _atom_site_label
 _atom_site_symmetry_multiplicity
 _atom_site_fract_x
 _atom_site_fract_y
 _atom_site_fract_z
 _atom_site_occupancy
  K  K0  1  0.71966600  0.32313400  0.12042300  1
  K  K1  1  0.28033400  0.67686600  0.87957700  1
  Sc  Sc0  1  0.27644900  0.19658600  0.80446400  1
  Sc  Sc1  1  0.72355100  0.80341400  0.19553600  1
  B  B0  1  0.88757800  0.72881800  0.55850400  1
  B  B1  1  0.11242200  0.27118200  0.44149600  1
  P  P0  1  0.78704000  0.93957300  0.80646100  1
  P  P1  1  0.21296000  0.06042700  0.19353900  1
  P  P2  1  0.80630500  0.42404000  0.69919800  1
  P  P3  1  0.19369500  0.57596000  0.30080200  1
  H  H0  1  0.58093000  0.86815100  0.51609900  1
  H  H1  1  0.41907000  0.13184900  0.48390100  1
  O  O0  1  0.56012200  0.36339600  0.79588200  1
  O  O1  1  0.43987800  0.63660400  0.20411800  1
  O  O2  1  0.71834900  0.80337000  0.45319800  1
  O  O3  1  0.28165100  0.19663000  0.54680200  1
  O  O4  1  0.46647300  0.00339600  0.24747700  1
  O  O5  1  0.53352700  0.99660400  0.75252300  1
  O  O6  1  0.02821100  0.40673200  0.79341100  1
  O  O7  1  0.97178900  0.59326800  0.20658900  1
  O  O8  1  0.03843100  0.15395900  0.33485300  1
  O  O9  1  0.96156900  0.84604100  0.66514700  1
  O  O10  1  0.05924400  0.92343700  0.15554900  1
  O  O11  1  0.94075600  0.07656300  0.84445100  1
  O  O12  1  0.12510300  0.66491000  0.46374700  1
  O  O13  1  0.87489700  0.33509000  0.53625300  1
  O  O14  1  0.26803500  0.17952500  0.04981200  1
  O  O15  1  0.73196500  0.82047500  0.95018800  1
  O  O16  1  0.25759200  0.39640400  0.34037400  1
  O  O17  1  0.74240800  0.60359600  0.65962600  1
loop_
_geom_bond_atom_site_label_1
_geom_bond_atom_site_label_2
_geom_bond_distance
_geom_bond_site_symmetry_2
K0 O16 2.868304 1_555
K0 O7 2.880234 1_555
K0 O14 2.918343 1_555
K0 O8 2.975807 1_655
K0 O1 2.992347 1_555
K0 O0 3.021436 1_554
K0 O6 3.050112 1_654
K0 O14 3.067216 1_655
K0 O4 3.151709 1_555
K0 O11 3.194043 1_554
K1 O17 2.868304 1_555
K1 O6 2.880234 1_555
K1 O15 2.918343 1_555
K1 O9 2.975807 1_455
K1 O0 2.992347 1_555
K1 O1 3.021436 1_556
K1 O7 3.050112 1_456
K1 O15 3.067216 1_455
K1 O5 3.151709 1_555
K1 O10 3.194043 1_556
B0 O12 1.460466 1_655
B0 O9 1.472201 1_555
B0 O2 1.478455 1_555
B0 O17 1.499342 1_555
B1 O13 1.460466 1_455
B1 O8 1.472201 1_555
B1 O3 1.478455 1_555
B1 O16 1.499342 1_555
H0 O2 0.976401 1_555
H1 O3 0.976401 1_555
O0 P2 1.527852 1_555
O0 Sc0 2.113091 1_555
O1 P3 1.527852 1_555
O1 Sc1 2.113091 1_555
O2 Sc1 2.178493 1_555
O3 Sc0 2.178493 1_555
O4 P1 1.548480 1_555
O4 Sc1 2.113147 1_545
O5 P0 1.548480 1_555
O5 Sc0 2.113147 1_565
O6 P2 1.538070 1_455
O6 Sc0 2.154403 1_555
O7 P3 1.538070 1_655
O7 Sc1 2.154403 1_555
O8 P1 1.581941 1_555
O9 P0 1.581941 1_555
O10 P1 1.525324 1_565
O10 Sc1 2.078757 1_455
O11 P0 1.525324 1_545
O11 Sc0 2.078757 1_655
O12 P3 1.566534 1_555
O13 P2 1.566534 1_555
O14 P1 1.550319 1_555
O14 Sc0 2.072134 1_554
O15 P0 1.550319 1_555
O15 Sc1 2.072134 1_556
O16 P3 1.565794 1_555
O17 P2 1.565794 1_555
