# generated using pymatgen
data_Tl5SbO5
_symmetry_space_group_name_H-M   'P 1'
_cell_length_a   8.05867829
_cell_length_b   8.05867829
_cell_length_c   13.75145131
_cell_angle_alpha   90.00000000
_cell_angle_beta   90.00000000
_cell_angle_gamma   95.18371712
_symmetry_Int_Tables_number   1
_chemical_formula_structural   Tl5SbO5
_chemical_formula_sum   'Tl20 Sb4 O20'
_cell_volume   889.39834352
_cell_formula_units_Z   4
loop_
 _symmetry_equiv_pos_site_id
 _symmetry_equiv_pos_as_xyz
  1  'x, y, z'
loop_
 _atom_site_type_symbol
 _atom_site_label
 _atom_site_symmetry_multiplicity
 _atom_site_fract_x
 _atom_site_fract_y
 _atom_site_fract_z
 _atom_site_occupancy
  Tl  Tl0  1  0.73803899  0.26196101  0.10027407  1
  Tl  Tl1  1  0.26196101  0.73803899  0.60027407  1
  Tl  Tl2  1  0.48097749  0.51902251  0.75967772  1
  Tl  Tl3  1  0.51902251  0.48097749  0.25967772  1
  Tl  Tl4  1  0.31424431  0.35848499  0.00424232  1
  Tl  Tl5  1  0.68575569  0.64151501  0.50424232  1
  Tl  Tl6  1  0.64151501  0.68575569  0.00424232  1
  Tl  Tl7  1  0.35848499  0.31424431  0.50424232  1
  Tl  Tl8  1  0.19856748  0.12256886  0.74628346  1
  Tl  Tl9  1  0.80143252  0.87743114  0.24628346  1
  Tl  Tl10  1  0.87743114  0.80143252  0.74628346  1
  Tl  Tl11  1  0.12256886  0.19856748  0.24628346  1
  Tl  Tl12  1  0.96247659  0.36568262  0.61218465  1
  Tl  Tl13  1  0.03752341  0.63431738  0.11218465  1
  Tl  Tl14  1  0.63431738  0.03752341  0.61218465  1
  Tl  Tl15  1  0.36568262  0.96247659  0.11218465  1
  Tl  Tl16  1  0.92422688  0.40025810  0.86649323  1
  Tl  Tl17  1  0.07577312  0.59974190  0.36649323  1
  Tl  Tl18  1  0.59974190  0.07577312  0.86649323  1
  Tl  Tl19  1  0.40025810  0.92422688  0.36649323  1
  Sb  Sb0  1  0.24433358  0.75566642  0.89505672  1
  Sb  Sb1  1  0.75566642  0.24433358  0.39505672  1
  Sb  Sb2  1  0.00700604  0.99299396  0.47987226  1
  Sb  Sb3  1  0.99299396  0.00700604  0.97987226  1
  O  O0  1  0.06338286  0.93661714  0.34398296  1
  O  O1  1  0.93661714  0.06338286  0.84398296  1
  O  O2  1  0.94594175  0.05405825  0.61433067  1
  O  O3  1  0.05405825  0.94594175  0.11433067  1
  O  O4  1  0.82163653  0.17836347  0.26253239  1
  O  O5  1  0.17836347  0.82163653  0.76253239  1
  O  O6  1  0.69428921  0.30571079  0.53083752  1
  O  O7  1  0.30571079  0.69428921  0.03083752  1
  O  O8  1  0.24855910  0.01817125  0.51267170  1
  O  O9  1  0.75144090  0.98182875  0.01267170  1
  O  O10  1  0.98182875  0.75144090  0.51267170  1
  O  O11  1  0.01817125  0.24855910  0.01267170  1
  O  O12  1  0.48463338  0.77874881  0.86095808  1
  O  O13  1  0.51536662  0.22125119  0.36095808  1
  O  O14  1  0.22125119  0.51536662  0.86095808  1
  O  O15  1  0.77874881  0.48463338  0.36095808  1
  O  O16  1  0.24190495  -0.00065675  0.94058591  1
  O  O17  1  0.75809505  0.00065675  0.44058591  1
  O  O18  1  0.00065675  0.75809505  0.94058591  1
  O  O19  1  -0.00065675  0.24190495  0.44058591  1
loop_
_geom_bond_atom_site_label_1
_geom_bond_atom_site_label_2
_geom_bond_distance
_geom_bond_site_symmetry_2
O0 Sb2 1.985463 1_555
O0 Tl11 2.511331 1_565
O0 Tl9 2.511331 1_455
O0 Tl19 2.743127 1_555
O0 Tl17 2.743127 1_555
O1 Sb3 1.985463 1_555
O1 Tl8 2.511331 1_655
O1 Tl10 2.511331 1_545
O1 Tl16 2.743127 1_555
O1 Tl18 2.743127 1_555
O2 Sb2 1.986674 1_645
O2 Tl12 2.502936 1_555
O2 Tl14 2.502936 1_555
O2 Tl8 2.745702 1_655
O2 Tl10 2.745702 1_545
O3 Sb3 1.986674 1_464
O3 Tl15 2.502936 1_555
O3 Tl13 2.502936 1_555
O3 Tl11 2.745702 1_565
O3 Tl9 2.745702 1_455
O4 Sb1 1.984310 1_555
O4 Tl11 2.426166 1_655
O4 Tl9 2.426166 1_545
O4 Tl0 2.443022 1_555
O5 Sb0 1.984310 1_555
O5 Tl8 2.426166 1_565
O5 Tl10 2.426166 1_455
O5 Tl1 2.443022 1_555
O6 Sb1 2.004963 1_555
O6 Tl12 2.442771 1_555
O6 Tl14 2.442771 1_555
O6 Tl7 2.737753 1_555
O6 Tl5 2.737753 1_555
O7 Sb0 2.004963 1_554
O7 Tl15 2.442771 1_555
O7 Tl13 2.442771 1_555
O7 Tl4 2.737753 1_555
O7 Tl6 2.737753 1_555
O8 Sb2 1.990598 1_545
O8 Tl7 2.471648 1_555
O8 Tl19 2.505124 1_545
O8 Tl1 2.569672 1_545
O9 Sb3 1.990598 1_564
O9 Tl6 2.471648 1_555
O9 Tl18 2.505124 1_564
O9 Tl0 2.569672 1_565
O10 Sb2 1.990598 1_655
O10 Tl5 2.471648 1_555
O10 Tl17 2.505124 1_655
O10 Tl1 2.569672 1_655
O11 Sb3 1.990598 1_454
O11 Tl4 2.471648 1_555
O11 Tl16 2.505124 1_454
O11 Tl0 2.569672 1_455
O12 Sb0 1.984795 1_555
O12 Tl18 2.488873 1_565
O12 Tl6 2.492689 1_556
O12 Tl2 2.512040 1_555
O13 Sb1 1.984795 1_555
O13 Tl19 2.488873 1_545
O13 Tl7 2.492689 1_555
O13 Tl3 2.512040 1_555
O14 Sb0 1.984795 1_555
O14 Tl16 2.488873 1_455
O14 Tl4 2.492689 1_556
O14 Tl2 2.512040 1_555
O15 Sb1 1.984795 1_555
O15 Tl17 2.488873 1_655
O15 Tl5 2.492689 1_555
O15 Tl3 2.512040 1_555
O16 Sb0 2.062884 1_545
O16 Sb3 2.083667 1_455
O16 Tl15 2.589426 1_546
O17 Sb1 2.062884 1_555
O17 Sb2 2.083667 1_645
O17 Tl14 2.589426 1_555
O18 Sb0 2.062884 1_555
O18 Sb3 2.083667 1_465
O18 Tl13 2.589426 1_556
O19 Sb1 2.062884 1_455
O19 Sb2 2.083667 1_545
O19 Tl12 2.589426 1_455
