# generated using pymatgen
data_Na8Zr2Ga2Si5SO24
_symmetry_space_group_name_H-M   'P 1'
_cell_length_a   9.13373608
_cell_length_b   9.11443896
_cell_length_c   22.35165174
_cell_angle_alpha   89.86378956
_cell_angle_beta   89.72515742
_cell_angle_gamma   119.73551545
_symmetry_Int_Tables_number   1
_chemical_formula_structural   Na8Zr2Ga2Si5SO24
_chemical_formula_sum   'Na24 Zr6 Ga6 Si15 S3 O72'
_cell_volume   1615.69145918
_cell_formula_units_Z   3
loop_
 _symmetry_equiv_pos_site_id
 _symmetry_equiv_pos_as_xyz
  1  'x, y, z'
loop_
 _atom_site_type_symbol
 _atom_site_label
 _atom_site_symmetry_multiplicity
 _atom_site_fract_x
 _atom_site_fract_y
 _atom_site_fract_z
 _atom_site_occupancy
  Na  Na0  1  0.63932597  0.00197020  0.25249916  1
  Na  Na1  1  0.36045295  0.36259440  0.24691944  1
  Na  Na2  1  -0.00001196  0.63593403  0.24976323  1
  Na  Na3  1  0.63457919  0.63556426  0.74774372  1
  Na  Na4  1  0.99842040  0.36304489  0.75051037  1
  Na  Na5  1  0.36717207  0.00422291  0.75045670  1
  Na  Na6  1  0.30269987  0.33955118  0.58438553  1
  Na  Na7  1  0.03727572  0.69965757  0.58163815  1
  Na  Na8  1  0.66325360  0.96262282  0.58195490  1
  Na  Na9  1  0.28663635  0.96402404  0.08106326  1
  Na  Na10  1  0.66886093  0.69598510  0.08582199  1
  Na  Na11  1  0.04238464  0.33410529  0.08658699  1
  Na  Na12  1  0.97204614  0.66919293  0.91660191  1
  Na  Na13  1  0.70378164  0.04212705  0.91135737  1
  Na  Na14  1  0.32201281  0.28543945  0.91889923  1
  Na  Na15  1  0.96174115  0.29243222  0.41103354  1
  Na  Na16  1  0.32651991  0.02209726  0.41512255  1
  Na  Na17  1  0.71490279  0.68224838  0.41716658  1
  Na  Na18  1  0.99314539  0.99136643  0.49873277  1
  Na  Na19  1  0.01485303  0.00585518  0.99994060  1
  Na  Na20  1  0.66663343  0.32609138  0.83450229  1
  Na  Na21  1  0.67469441  0.33133095  0.33206425  1
  Na  Na22  1  0.32637044  0.65736375  0.16382317  1
  Na  Na23  1  0.33509210  0.66676275  0.66287529  1
  Zr  Zr0  1  0.99970726  0.00072984  0.64835809  1
  Zr  Zr1  1  0.66955322  0.33521984  0.68518277  1
  Zr  Zr2  1  0.66825657  0.34310760  0.18581971  1
  Zr  Zr3  1  0.67448349  0.33252791  0.48319003  1
  Zr  Zr4  1  0.33009732  0.67219553  0.31183597  1
  Zr  Zr5  1  0.32362589  0.67008665  0.81567383  1
  Ga  Ga0  1  0.98666110  0.98389325  0.34672712  1
  Ga  Ga1  1  0.01536057  0.01351439  0.84849567  1
  Ga  Ga2  1  0.01376142  0.99868837  0.15220240  1
  Ga  Ga3  1  0.66380926  0.33347322  0.98356138  1
  Ga  Ga4  1  0.29336922  0.64220361  0.01620811  1
  Ga  Ga5  1  0.33849506  0.68780136  0.52098639  1
  Si  Si0  1  0.28503584  0.00277442  0.25107299  1
  Si  Si1  1  0.71550262  0.71702602  0.24818874  1
  Si  Si2  1  0.99933364  0.27871905  0.24963170  1
  Si  Si3  1  0.29465638  0.29397486  0.75203012  1
  Si  Si4  1  0.99646415  0.71214315  0.75405935  1
  Si  Si5  1  0.71131867  0.99940496  0.75419945  1
  Si  Si6  1  0.97421014  0.34094663  0.58207259  1
  Si  Si7  1  0.37076727  0.03616460  0.58237756  1
  Si  Si8  1  0.65940548  0.63015356  0.58122154  1
  Si  Si9  1  0.95880971  0.63080874  0.08020537  1
  Si  Si10  1  0.37039553  0.33707129  0.07938294  1
  Si  Si11  1  0.02775638  0.36081440  0.91898209  1
  Si  Si12  1  0.33566766  0.96460407  0.92140171  1
  Si  Si13  1  0.63063513  0.95773765  0.41734527  1
  Si  Si14  1  0.04182632  0.67330309  0.41799783  1
  S  S0  1  0.66631407  0.03890308  0.08166291  1
  S  S1  1  0.62485847  0.66637001  0.91916133  1
  S  S2  1  0.33176583  0.37389748  0.41766118  1
  O  O0  1  0.20352097  0.03860616  0.31040202  1
  O  O1  1  0.82618106  0.78623500  0.30893674  1
  O  O2  1  0.96724738  0.16660083  0.31058717  1
  O  O3  1  0.21467801  0.17494009  0.81090977  1
  O  O4  1  0.96471000  0.79959732  0.81231618  1
  O  O5  1  0.83144135  0.03168700  0.81189715  1
  O  O6  1  0.78998136  0.96625675  0.69308432  1
  O  O7  1  0.17710011  0.21403352  0.69273314  1
  O  O8  1  0.03349385  0.82464972  0.69315317  1
  O  O9  1  0.79782537  0.83570972  0.18923030  1
  O  O10  1  0.03244682  0.19834152  0.18924334  1
  O  O11  1  0.17328206  0.96063622  0.19060899  1
  O  O12  1  0.88570989  0.37403207  0.64058174  1
  O  O13  1  0.49153654  0.12550375  0.64047924  1
  O  O14  1  0.62994580  0.51064859  0.64039007  1
  O  O15  1  0.87676710  0.50778715  0.13957140  1
  O  O16  1  0.63906695  0.11807853  0.13603066  1
  O  O17  1  0.48977726  0.36865076  0.13919588  1
  O  O18  1  0.46173272  0.29879718  0.02295671  1
  O  O19  1  0.83570064  0.53769401  0.02294979  1
  O  O20  1  0.69292127  0.14708235  0.02835772  1
  O  O21  1  0.45616140  0.15701967  0.52346953  1
  O  O22  1  0.69517493  0.54187370  0.52323587  1
  O  O23  1  0.84751032  0.30074005  0.52468329  1
  O  O24  1  0.54229521  0.69084932  0.97219405  1
  O  O25  1  0.15463891  0.44264558  0.97610939  1
  O  O26  1  0.30646533  0.83687190  0.97844458  1
  O  O27  1  0.54161179  0.83658840  0.47568241  1
  O  O28  1  0.31003036  0.45549940  0.47109561  1
  O  O29  1  0.16116728  0.70034413  0.47590246  1
  O  O30  1  0.12331862  0.63174698  0.35898814  1
  O  O31  1  0.51138559  0.86940274  0.35854494  1
  O  O32  1  0.35744958  0.47742263  0.36294908  1
  O  O33  1  0.11722550  0.48697584  0.86092571  1
  O  O34  1  0.37363714  0.88225333  0.86154807  1
  O  O35  1  0.52128066  0.64176373  0.86461886  1
  O  O36  1  0.02783932  0.84615468  0.41171017  1
  O  O37  1  0.82163220  0.98254564  0.41194702  1
  O  O38  1  0.18128301  0.20448667  0.41329329  1
  O  O39  1  0.00962512  0.17234276  0.91206304  1
  O  O40  1  0.16046171  0.97426056  0.91461613  1
  O  O41  1  0.79447220  0.81755750  0.91415742  1
  O  O42  1  0.98570847  0.16878511  0.58580372  1
  O  O43  1  0.18467432  0.01858911  0.58599159  1
  O  O44  1  0.83051453  0.81459454  0.58596132  1
  O  O45  1  0.97370800  0.81821359  0.08719645  1
  O  O46  1  0.82023046  0.02427590  0.08625659  1
  O  O47  1  0.18173007  0.16774491  0.08687573  1
  O  O48  1  0.69122298  0.16834089  0.74828940  1
  O  O49  1  0.48174084  0.31202558  0.74653846  1
  O  O50  1  0.83114758  0.52333102  0.74868160  1
  O  O51  1  0.69316334  0.52484102  0.24452845  1
  O  O52  1  0.83057148  0.30200390  0.24469134  1
  O  O53  1  0.47721420  0.16631166  0.24526026  1
  O  O54  1  0.64037704  0.51077763  0.92168799  1
  O  O55  1  0.84313034  0.35207678  0.92606020  1
  O  O56  1  0.50640493  0.15388532  0.92575399  1
  O  O57  1  0.64193940  0.14532332  0.41923816  1
  O  O58  1  0.48700804  0.35758157  0.41990533  1
  O  O59  1  0.85032957  0.50421347  0.41989808  1
  O  O60  1  0.36158897  0.51550724  0.07390910  1
  O  O61  1  0.14894951  0.64872686  0.07801092  1
  O  O62  1  0.51484513  0.86964966  0.07749908  1
  O  O63  1  0.35685130  0.85132933  0.57960774  1
  O  O64  1  0.48839805  0.64266221  0.57571668  1
  O  O65  1  0.15780197  0.50803924  0.57397281  1
  O  O66  1  0.30799018  0.83339599  0.25461900  1
  O  O67  1  0.52268966  0.68738459  0.25359910  1
  O  O68  1  0.16803088  0.46985423  0.25434287  1
  O  O69  1  0.31731057  0.48344427  0.75756203  1
  O  O70  1  0.16671371  0.69225230  0.75646918  1
  O  O71  1  0.52353516  0.83008220  0.75791913  1
loop_
_geom_bond_atom_site_label_1
_geom_bond_atom_site_label_2
_geom_bond_distance
_geom_bond_site_symmetry_2
Na0 O52 2.411677 1_555
Na0 O67 2.515166 1_545
Na0 O53 2.581383 1_555
Na0 O66 2.628177 1_545
Na0 O31 2.646312 1_545
Na0 O16 2.808264 1_555
Na0 O2 2.914874 1_555
Na0 O9 2.925542 1_545
Na1 O68 2.403036 1_555
Na1 O53 2.496367 1_555
Na1 O67 2.575671 1_555
Na1 O51 2.639069 1_555
Na1 O17 2.665185 1_555
Na1 O32 2.804072 1_555
Na1 O10 2.911309 1_555
Na1 O0 2.923992 1_555
Na2 O51 2.466071 1_455
Na2 O66 2.479184 1_555
Na2 O68 2.638779 1_555
Na2 O52 2.646148 1_455
Na2 O30 2.701703 1_555
Na2 O15 2.726418 1_455
Na2 O1 2.879578 1_455
Na2 O11 2.885573 1_555
Na3 O71 2.450952 1_555
Na3 O50 2.468295 1_555
Na3 O69 2.524840 1_555
Na3 O49 2.561731 1_555
Na3 O14 2.649901 1_555
Na3 O35 2.816246 1_555
Na3 O6 2.883383 1_555
Na3 O4 2.998422 1_555
Na4 O48 2.467159 1_555
Na4 O69 2.558749 1_655
Na4 O50 2.585474 1_555
Na4 O70 2.610043 1_655
Na4 O12 2.689326 1_555
Na4 O33 2.714279 1_655
Na4 O7 2.891835 1_655
Na4 O5 2.953119 1_555
Na5 O49 2.461498 1_555
Na5 O70 2.507363 1_545
Na5 O48 2.570334 1_555
Na5 O71 2.614648 1_545
Na5 O13 2.696212 1_555
Na5 O34 2.731006 1_545
Na5 O3 2.885960 1_555
Na5 O8 2.950779 1_545
Na6 O64 2.427504 1_555
Na6 O65 2.486241 1_555
Na6 O42 2.516931 1_455
Na6 O43 2.567503 1_555
Na6 O7 2.673569 1_555
Na6 O28 2.729267 1_555
Na6 O14 2.890363 1_555
Na6 O21 2.981964 1_555
Na7 O65 2.489645 1_555
Na7 O43 2.528310 1_565
Na7 O63 2.535508 1_555
Na7 O44 2.575747 1_455
Na7 O29 2.614057 1_555
Na7 O8 2.750189 1_555
Na7 O12 2.889427 1_455
Na7 O22 3.020946 1_455
Na8 O63 2.459556 1_555
Na8 O44 2.491524 1_555
Na8 O64 2.541366 1_555
Na8 O42 2.593421 1_565
Na8 O27 2.639808 1_555
Na8 O6 2.738746 1_555
Na8 O13 2.945230 1_565
Na8 O23 2.963758 1_565
Na9 O47 2.479432 1_565
Na9 O45 2.486283 1_455
Na9 O61 2.502268 1_555
Na9 O26 2.617979 1_554
Na9 O62 2.620739 1_555
Na9 O11 2.647979 1_555
Na10 O45 2.432851 1_555
Na10 O60 2.466380 1_555
Na10 O62 2.594013 1_555
Na10 O46 2.600241 1_565
Na10 O9 2.627487 1_555
Na10 O24 2.786407 1_554
Na10 O17 2.850123 1_555
Na10 O19 2.923791 1_555
Na11 O47 2.415254 1_555
Na11 O46 2.531388 1_455
Na11 O61 2.536544 1_555
Na11 O60 2.553866 1_555
Na11 O10 2.584070 1_555
Na11 O25 2.661870 1_554
Na11 O15 2.926421 1_455
Na12 O40 2.438602 1_655
Na12 O55 2.530580 1_555
Na12 O41 2.576506 1_555
Na12 O4 2.630184 1_555
Na12 O54 2.632816 1_555
Na12 O19 2.667425 1_556
Na12 O33 2.871227 1_655
Na12 O26 2.999350 1_655
Na13 O39 2.433941 1_655
Na13 O55 2.479976 1_555
Na13 O56 2.491746 1_555
Na13 O5 2.529231 1_555
Na13 O41 2.561514 1_545
Na13 O20 2.804905 1_556
Na13 O34 2.852517 1_545
Na14 O40 2.466116 1_545
Na14 O56 2.510482 1_555
Na14 O39 2.512837 1_555
Na14 O54 2.599163 1_555
Na14 O3 2.618474 1_555
Na14 O18 2.632247 1_556
Na14 O25 2.861500 1_555
Na15 O37 2.455502 1_545
Na15 O38 2.502260 1_655
Na15 O2 2.535135 1_555
Na15 O57 2.544035 1_555
Na15 O59 2.597906 1_555
Na15 O23 2.757009 1_555
Na15 O30 2.921409 1_655
Na16 O36 2.383819 1_545
Na16 O57 2.522508 1_555
Na16 O38 2.590887 1_555
Na16 O0 2.637190 1_555
Na16 O58 2.658331 1_555
Na16 O21 2.715945 1_555
Na16 O29 2.880014 1_545
Na16 O31 2.950630 1_545
Na17 O37 2.409542 1_555
Na17 O59 2.481586 1_555
Na17 O36 2.485230 1_655
Na17 O1 2.606408 1_555
Na17 O58 2.642116 1_555
Na17 O22 2.653868 1_555
Na17 O27 2.896962 1_555
Na18 O36 2.461283 1_655
Na18 O37 2.475553 1_555
Na18 O44 2.487343 1_555
Na18 O42 2.555349 1_565
Na18 O43 2.555447 1_665
Na18 O38 2.648161 1_665
Na19 O40 2.418074 1_545
Na19 O47 2.467236 1_556
Na19 O45 2.491872 1_446
Na19 O39 2.494319 1_555
Na19 O46 2.678634 1_456
Na19 O41 2.701730 1_445
Na20 O48 2.482020 1_555
Na20 O56 2.538285 1_555
Na20 O50 2.538819 1_555
Na20 O55 2.549143 1_555
Na20 O49 2.559751 1_555
Na20 O54 2.664625 1_555
Na21 O57 2.497172 1_555
Na21 O52 2.503146 1_555
Na21 O59 2.539299 1_555
Na21 O53 2.576105 1_555
Na21 O51 2.579277 1_555
Na21 O58 2.688442 1_555
Na22 O61 2.493022 1_555
Na22 O60 2.496581 1_555
Na22 O68 2.570918 1_555
Na22 O67 2.620534 1_555
Na22 O66 2.645831 1_555
Na22 O62 2.660138 1_555
Na23 O63 2.446062 1_555
Na23 O64 2.466820 1_555
Na23 O65 2.526731 1_555
Na23 O69 2.647257 1_555
Na23 O70 2.668602 1_555
Na23 O71 2.683256 1_555
Ga0 O1 1.872736 1_555
Ga0 O2 1.935203 1_565
Ga0 O0 1.958071 1_665
Ga0 O36 2.071756 1_655
Ga0 O37 2.087526 1_555
Ga0 O38 2.431108 1_665
Ga1 O3 1.872739 1_555
Ga1 O4 1.945698 1_445
Ga1 O5 1.951188 1_455
Ga1 O39 2.049744 1_555
Ga1 O40 2.134316 1_545
Ga1 O41 2.408102 1_445
Ga2 O11 1.868689 1_555
Ga2 O10 1.930397 1_565
Ga2 O9 1.963090 1_455
Ga2 O45 2.090528 1_455
Ga2 O47 2.117262 1_565
Ga2 O46 2.404993 1_465
Ga3 O18 1.919982 1_556
Ga3 O19 1.956216 1_556
Ga3 O55 2.016558 1_555
Ga3 O56 2.027104 1_555
Ga3 O20 2.098073 1_556
Ga3 O54 2.214788 1_555
Ga4 O25 1.857293 1_554
Ga4 O26 1.912136 1_554
Ga4 O61 1.926784 1_555
Ga4 O60 2.024723 1_555
Ga4 O24 2.304398 1_554
Ga4 O62 2.479217 1_555
Ga5 O63 1.931306 1_555
Ga5 O27 1.945756 1_555
Ga5 O29 1.962303 1_555
Ga5 O65 2.024977 1_555
Ga5 O64 2.028020 1_555
Ga5 O28 2.293914 1_555
O0 Si0 1.628905 1_555
O1 Si1 1.627323 1_555
O2 Si2 1.636736 1_555
O3 Si3 1.624965 1_555
O4 Si4 1.626557 1_555
O5 Si5 1.627471 1_545
O6 Si5 1.637499 1_555
O6 Zr0 2.037316 1_565
O7 Si3 1.637863 1_555
O7 Zr0 2.070869 1_455
O8 Si4 1.632205 1_455
O8 Zr0 2.039596 1_465
O9 Si1 1.627583 1_555
O10 Si2 1.634215 1_455
O11 Si0 1.625632 1_565
O12 Si6 1.639562 1_555
O12 Zr1 2.074490 1_555
O13 Si7 1.641376 1_555
O13 Zr1 2.058489 1_555
O14 Si8 1.645250 1_555
O14 Zr1 2.063860 1_555
O15 Si9 1.652092 1_555
O15 Zr2 2.021531 1_555
O16 S0 1.496281 1_555
O16 Zr2 2.233264 1_555
O17 Si10 1.662423 1_555
O17 Zr2 2.046788 1_555
O18 Si10 1.639828 1_555
O19 Si9 1.641564 1_555
O20 S0 1.484841 1_555
O21 Si7 1.639012 1_555
O21 Zr3 2.038991 1_555
O22 Si8 1.641839 1_555
O22 Zr3 2.032156 1_555
O23 Si6 1.647643 1_555
O23 Zr3 1.977043 1_555
O24 S1 1.477549 1_555
O25 Si11 1.640453 1_555
O26 Si12 1.653419 1_555
O27 Si13 1.634928 1_555
O28 S2 1.472234 1_555
O29 Si14 1.634802 1_555
O30 Si14 1.646139 1_555
O30 Zr4 2.025357 1_555
O31 Si13 1.646439 1_555
O31 Zr4 2.033624 1_555
O32 S2 1.487630 1_555
O32 Zr4 2.225350 1_555
O33 Si11 1.650616 1_555
O33 Zr5 2.053045 1_555
O34 Si12 1.652867 1_555
O34 Zr5 2.034010 1_555
O35 S1 1.494471 1_555
O35 Zr5 2.236649 1_555
O36 Si14 1.648295 1_555
O37 Si13 1.647901 1_555
O38 S2 1.476345 1_555
O39 Si11 1.649706 1_555
O40 Si12 1.653374 1_555
O41 S1 1.480308 1_555
O42 Si6 1.625784 1_555
O42 Zr0 2.122098 1_555
O43 Si7 1.627811 1_555
O43 Zr0 2.127781 1_455
O44 Si8 1.635837 1_555
O44 Zr0 2.154671 1_565
O45 Si9 1.652697 1_555
O46 S0 1.480514 1_555
O47 Si10 1.654443 1_555
O48 Si5 1.643658 1_545
O48 Zr1 2.152526 1_555
O49 Si3 1.637399 1_555
O49 Zr1 2.117649 1_555
O50 Si4 1.637374 1_555
O50 Zr1 2.157276 1_555
O51 Si1 1.662205 1_555
O51 Zr2 2.038816 1_555
O52 Si2 1.661107 1_555
O52 Zr2 2.153406 1_555
O53 Si0 1.649602 1_555
O53 Zr2 2.141228 1_555
O54 S1 1.494487 1_555
O55 Si11 1.655060 1_655
O56 Si12 1.658645 1_545
O57 Si13 1.661603 1_545
O57 Zr3 2.134365 1_555
O58 S2 1.498336 1_555
O58 Zr3 2.322657 1_555
O59 Si14 1.661686 1_655
O59 Zr3 2.122293 1_555
O60 Si10 1.671931 1_555
O61 Si9 1.662212 1_455
O62 S0 1.478926 1_565
O63 Si7 1.626732 1_565
O64 Si8 1.626718 1_555
O65 Si6 1.620649 1_455
O66 Si0 1.659572 1_565
O66 Zr4 2.030488 1_555
O67 Si1 1.647701 1_555
O67 Zr4 2.131560 1_555
O68 Si2 1.661260 1_455
O68 Zr4 2.136630 1_555
O69 Si3 1.639240 1_555
O69 Zr5 2.120900 1_555
O70 Si4 1.653558 1_455
O70 Zr5 2.037202 1_555
O71 Si5 1.643975 1_555
O71 Zr5 2.110464 1_555
