# generated using pymatgen
data_Tl5Se3
_symmetry_space_group_name_H-M   'P 1'
_cell_length_a   8.59451600
_cell_length_b   8.59451600
_cell_length_c   12.81879100
_cell_angle_alpha   90.00000000
_cell_angle_beta   90.00000000
_cell_angle_gamma   90.00000000
_symmetry_Int_Tables_number   1
_chemical_formula_structural   Tl5Se3
_chemical_formula_sum   'Tl20 Se12'
_cell_volume   946.86903798
_cell_formula_units_Z   4
loop_
 _symmetry_equiv_pos_site_id
 _symmetry_equiv_pos_as_xyz
  1  'x, y, z'
loop_
 _atom_site_type_symbol
 _atom_site_label
 _atom_site_symmetry_multiplicity
 _atom_site_fract_x
 _atom_site_fract_y
 _atom_site_fract_z
 _atom_site_occupancy
  Tl  Tl0  1  0.64685300  0.34495900  0.59779300  1
  Tl  Tl1  1  0.14685300  0.15504100  0.90220700  1
  Tl  Tl2  1  0.84495900  0.85314700  0.59779300  1
  Tl  Tl3  1  0.15504100  0.14685300  0.59779300  1
  Tl  Tl4  1  0.50000000  0.00000000  0.25571600  1
  Tl  Tl5  1  0.00000000  0.50000000  0.24428400  1
  Tl  Tl6  1  0.00000000  0.50000000  0.74428400  1
  Tl  Tl7  1  0.50000000  0.00000000  0.75571600  1
  Tl  Tl8  1  0.35314700  0.65504100  0.59779300  1
  Tl  Tl9  1  0.34495900  0.64685300  0.90220700  1
  Tl  Tl10  1  0.65504100  0.35314700  0.90220700  1
  Tl  Tl11  1  0.85314700  0.84495900  0.90220700  1
  Tl  Tl12  1  0.34495900  0.35314700  0.40220700  1
  Tl  Tl13  1  0.65504100  0.64685300  0.40220700  1
  Tl  Tl14  1  0.35314700  0.34495900  0.09779300  1
  Tl  Tl15  1  0.85314700  0.15504100  0.40220700  1
  Tl  Tl16  1  0.14685300  0.84495900  0.40220700  1
  Tl  Tl17  1  0.15504100  0.85314700  0.09779300  1
  Tl  Tl18  1  0.84495900  0.14685300  0.09779300  1
  Tl  Tl19  1  0.64685300  0.65504100  0.09779300  1
  Se  Se0  1  0.50000000  0.00000000  0.50267700  1
  Se  Se1  1  0.00000000  0.50000000  0.99732300  1
  Se  Se2  1  0.00000000  0.50000000  0.49732300  1
  Se  Se3  1  0.50000000  0.00000000  0.00267700  1
  Se  Se4  1  0.34191900  0.34191900  0.75000000  1
  Se  Se5  1  0.15808100  0.84191900  0.75000000  1
  Se  Se6  1  0.84191900  0.15808100  0.75000000  1
  Se  Se7  1  0.65808100  0.65808100  0.75000000  1
  Se  Se8  1  0.15808100  0.15808100  0.25000000  1
  Se  Se9  1  0.34191900  0.65808100  0.25000000  1
  Se  Se10  1  0.65808100  0.34191900  0.25000000  1
  Se  Se11  1  0.84191900  0.84191900  0.25000000  1
loop_
_geom_bond_atom_site_label_1
_geom_bond_atom_site_label_2
_geom_bond_distance
_geom_bond_site_symmetry_2
Se0 Tl4 3.165741 1_555
Se0 Tl7 3.243654 1_555
Se1 Tl5 3.165741 1_556
Se1 Tl6 3.243654 1_555
Se2 Tl6 3.165741 1_555
Se2 Tl5 3.243654 1_555
Se3 Tl7 3.165741 1_554
Se3 Tl4 3.243654 1_555
Se4 Tl3 3.032675 1_555
Se4 Tl1 3.032675 1_555
Se4 Tl6 3.238330 1_555
Se4 Tl7 3.238330 1_555
Se4 Tl9 3.267399 1_555
Se4 Tl0 3.267399 1_555
Se4 Tl10 3.325407 1_555
Se4 Tl8 3.325407 1_555
Se5 Tl8 3.032675 1_555
Se5 Tl9 3.032675 1_555
Se5 Tl6 3.238330 1_555
Se5 Tl7 3.238330 1_565
Se5 Tl11 3.267399 1_455
Se5 Tl3 3.267399 1_565
Se5 Tl2 3.325407 1_455
Se5 Tl1 3.325407 1_565
Se6 Tl10 3.032675 1_555
Se6 Tl0 3.032675 1_555
Se6 Tl7 3.238330 1_555
Se6 Tl6 3.238330 1_655
Se6 Tl2 3.267399 1_545
Se6 Tl1 3.267399 1_655
Se6 Tl3 3.325407 1_655
Se6 Tl11 3.325407 1_545
Se7 Tl2 3.032675 1_555
Se7 Tl11 3.032675 1_555
Se7 Tl6 3.238330 1_655
Se7 Tl7 3.238330 1_565
Se7 Tl8 3.267399 1_555
Se7 Tl10 3.267399 1_555
Se7 Tl9 3.325407 1_555
Se7 Tl0 3.325407 1_555
Se8 Tl14 3.032675 1_555
Se8 Tl12 3.032675 1_555
Se8 Tl5 3.238330 1_555
Se8 Tl4 3.238330 1_555
Se8 Tl15 3.267399 1_455
Se8 Tl17 3.267399 1_545
Se8 Tl16 3.325407 1_545
Se8 Tl18 3.325407 1_455
Se9 Tl16 3.032675 1_555
Se9 Tl17 3.032675 1_555
Se9 Tl5 3.238330 1_555
Se9 Tl4 3.238330 1_565
Se9 Tl12 3.267399 1_555
Se9 Tl19 3.267399 1_555
Se9 Tl13 3.325407 1_555
Se9 Tl14 3.325407 1_555
Se10 Tl15 3.032675 1_555
Se10 Tl18 3.032675 1_555
Se10 Tl5 3.238330 1_655
Se10 Tl4 3.238330 1_555
Se10 Tl14 3.267399 1_555
Se10 Tl13 3.267399 1_555
Se10 Tl19 3.325407 1_555
Se10 Tl12 3.325407 1_555
Se11 Tl13 3.032675 1_555
Se11 Tl19 3.032675 1_555
Se11 Tl5 3.238330 1_655
Se11 Tl4 3.238330 1_565
Se11 Tl18 3.267399 1_565
Se11 Tl16 3.267399 1_655
Se11 Tl15 3.325407 1_565
Se11 Tl17 3.325407 1_655
