# generated using pymatgen
data_Na3Ca4Ta2P3(SO6)6
_symmetry_space_group_name_H-M   'P 1'
_cell_length_a   9.04985591
_cell_length_b   9.04985560
_cell_length_c   23.64037123
_cell_angle_alpha   90.00000000
_cell_angle_beta   90.00000000
_cell_angle_gamma   120.00000116
_symmetry_Int_Tables_number   1
_chemical_formula_structural   Na3Ca4Ta2P3(SO6)6
_chemical_formula_sum   'Na6 Ca8 Ta4 P6 S12 O72'
_cell_volume   1676.74968308
_cell_formula_units_Z   2
loop_
 _symmetry_equiv_pos_site_id
 _symmetry_equiv_pos_as_xyz
  1  'x, y, z'
loop_
 _atom_site_type_symbol
 _atom_site_label
 _atom_site_symmetry_multiplicity
 _atom_site_fract_x
 _atom_site_fract_y
 _atom_site_fract_z
 _atom_site_occupancy
  Na  Na0  1  -0.00000000  0.00000000  0.49356919  1
  Na  Na1  1  -0.00000000  0.00000000  0.99356919  1
  Na  Na2  1  0.66666700  0.33333300  0.82915742  1
  Na  Na3  1  0.66666700  0.33333300  0.32915742  1
  Na  Na4  1  0.33333300  0.66666700  0.16412213  1
  Na  Na5  1  0.33333300  0.66666700  0.66412213  1
  Ca  Ca0  1  -0.00000000  0.00000000  0.35225643  1
  Ca  Ca1  1  -0.00000000  0.00000000  0.85225643  1
  Ca  Ca2  1  -0.00000000  0.00000000  0.64801131  1
  Ca  Ca3  1  -0.00000000  0.00000000  0.14801131  1
  Ca  Ca4  1  0.66666700  0.33333300  0.68757753  1
  Ca  Ca5  1  0.66666700  0.33333300  0.18757753  1
  Ca  Ca6  1  0.33333300  0.66666700  0.01844971  1
  Ca  Ca7  1  0.33333300  0.66666700  0.51844971  1
  Ta  Ta0  1  0.66666700  0.33333300  0.97572902  1
  Ta  Ta1  1  0.66666700  0.33333300  0.47572902  1
  Ta  Ta2  1  0.33333300  0.66666700  0.32500543  1
  Ta  Ta3  1  0.33333300  0.66666700  0.82500543  1
  P  P0  1  0.62348851  0.65683797  0.91958022  1
  P  P1  1  0.03334846  0.37651149  0.91958022  1
  P  P2  1  0.34316203  0.96665154  0.91958022  1
  P  P3  1  0.62348851  0.96665154  0.41958022  1
  P  P4  1  0.34316203  0.37651149  0.41958022  1
  P  P5  1  0.03334846  0.65683797  0.41958022  1
  S  S0  1  0.30206555  0.98419937  0.25423070  1
  S  S1  1  0.68213382  0.69793445  0.25423070  1
  S  S2  1  0.01580063  0.31786618  0.25423070  1
  S  S3  1  0.30206555  0.31786618  0.75423070  1
  S  S4  1  0.01580063  0.69793445  0.75423070  1
  S  S5  1  0.68213382  0.98419937  0.75423070  1
  S  S6  1  0.94822028  0.32773104  0.57925634  1
  S  S7  1  0.37951176  0.05177972  0.57925634  1
  S  S8  1  0.67226896  0.62048824  0.57925634  1
  S  S9  1  0.94822028  0.62048824  0.07925634  1
  S  S10  1  0.67226896  0.05177972  0.07925634  1
  S  S11  1  0.37951176  0.32773104  0.07925634  1
  O  O0  1  0.21758622  0.00836759  0.30261383  1
  O  O1  1  0.79078137  0.78241378  0.30261383  1
  O  O2  1  0.99163241  0.20921863  0.30261383  1
  O  O3  1  0.21758622  0.20921863  0.80261383  1
  O  O4  1  0.99163241  0.78241378  0.80261383  1
  O  O5  1  0.79078137  0.00836759  0.80261383  1
  O  O6  1  0.74850316  0.95327071  0.70110617  1
  O  O7  1  0.20476755  0.25149684  0.70110617  1
  O  O8  1  0.04672929  0.79523245  0.70110617  1
  O  O9  1  0.74850316  0.79523245  0.20110617  1
  O  O10  1  0.04672929  0.25149684  0.20110617  1
  O  O11  1  0.20476755  0.95327071  0.20110617  1
  O  O12  1  0.86403564  0.33442155  0.63106002  1
  O  O13  1  0.47038691  0.13596436  0.63106002  1
  O  O14  1  0.66557845  0.52961309  0.63106002  1
  O  O15  1  0.86403564  0.52961309  0.13106002  1
  O  O16  1  0.66557845  0.13596436  0.13106002  1
  O  O17  1  0.47038691  0.33442155  0.13106002  1
  O  O18  1  0.48491450  0.32767938  0.02755506  1
  O  O19  1  0.84276588  0.51508550  0.02755506  1
  O  O20  1  0.67232062  0.15723412  0.02755506  1
  O  O21  1  0.48491450  0.15723412  0.52755506  1
  O  O22  1  0.67232062  0.51508550  0.52755506  1
  O  O23  1  0.84276588  0.32767938  0.52755506  1
  O  O24  1  0.54694426  0.68122362  0.97201524  1
  O  O25  1  0.13427836  0.45305574  0.97201524  1
  O  O26  1  0.31877638  0.86572164  0.97201524  1
  O  O27  1  0.54694426  0.86572164  0.47201524  1
  O  O28  1  0.31877638  0.45305574  0.47201524  1
  O  O29  1  0.13427836  0.68122362  0.47201524  1
  O  O30  1  0.13273264  0.62945578  0.36667967  1
  O  O31  1  0.49672215  0.86726736  0.36667967  1
  O  O32  1  0.37054422  0.50327785  0.36667967  1
  O  O33  1  0.13273264  0.50327785  0.86667967  1
  O  O34  1  0.37054422  0.86726736  0.86667967  1
  O  O35  1  0.49672215  0.62945578  0.86667967  1
  O  O36  1  0.99426623  0.79589594  0.40707110  1
  O  O37  1  0.80162971  0.00573377  0.40707110  1
  O  O38  1  0.20410406  0.19837029  0.40707110  1
  O  O39  1  0.99426623  0.19837029  0.90707110  1
  O  O40  1  0.20410406  0.00573377  0.90707110  1
  O  O41  1  0.80162971  0.79589594  0.90707110  1
  O  O42  1  0.95349075  0.16747752  0.57537487  1
  O  O43  1  0.21398677  0.04650925  0.57537487  1
  O  O44  1  0.83252248  0.78601323  0.57537487  1
  O  O45  1  0.95349075  0.78601323  0.07537487  1
  O  O46  1  0.83252248  0.04650925  0.07537487  1
  O  O47  1  0.21398677  0.16747752  0.07537487  1
  O  O48  1  0.64927910  0.12840966  0.75002621  1
  O  O49  1  0.47913156  0.35072090  0.75002621  1
  O  O50  1  0.87159034  0.52086844  0.75002621  1
  O  O51  1  0.64927910  0.52086844  0.25002621  1
  O  O52  1  0.87159034  0.35072090  0.25002621  1
  O  O53  1  0.47913156  0.12840966  0.25002621  1
  O  O54  1  0.62459324  0.48032685  0.92431758  1
  O  O55  1  0.85573461  0.37540676  0.92431758  1
  O  O56  1  0.51967315  0.14426539  0.92431758  1
  O  O57  1  0.62459324  0.14426539  0.42431758  1
  O  O58  1  0.51967315  0.37540676  0.42431758  1
  O  O59  1  0.85573461  0.48032685  0.42431758  1
  O  O60  1  0.36192369  0.47986248  0.07678008  1
  O  O61  1  0.11793779  0.63807631  0.07678008  1
  O  O62  1  0.52013752  0.88206221  0.07678008  1
  O  O63  1  0.36192369  0.88206221  0.57678008  1
  O  O64  1  0.52013752  0.63807631  0.57678008  1
  O  O65  1  0.11793779  0.47986248  0.57678008  1
  O  O66  1  0.31602276  0.82364262  0.26437351  1
  O  O67  1  0.50761887  0.68397724  0.26437351  1
  O  O68  1  0.17635738  0.49238113  0.26437351  1
  O  O69  1  0.31602276  0.49238113  0.76437351  1
  O  O70  1  0.17635738  0.68397724  0.76437351  1
  O  O71  1  0.50761887  0.82364262  0.76437351  1
loop_
_geom_bond_atom_site_label_1
_geom_bond_atom_site_label_2
_geom_bond_distance
_geom_bond_site_symmetry_2
Na0 O44 2.617693 1_445
Na0 O42 2.617693 1_455
Na0 O43 2.617693 1_555
Na0 O36 2.738625 1_445
Na0 O38 2.738625 1_555
Na0 O37 2.738625 1_455
Na1 O45 2.617693 1_446
Na1 O47 2.617693 1_556
Na1 O46 2.617693 1_456
Na1 O41 2.738625 1_445
Na1 O39 2.738625 1_455
Na1 O40 2.738625 1_555
Na2 O48 2.582962 1_555
Na2 O50 2.582962 1_555
Na2 O49 2.582962 1_555
Na2 O56 2.735310 1_555
Na2 O54 2.735310 1_555
Na2 O55 2.735310 1_555
Na3 O53 2.582962 1_555
Na3 O51 2.582962 1_555
Na3 O52 2.582962 1_555
Na3 O57 2.735310 1_555
Na3 O59 2.735310 1_555
Na3 O58 2.735310 1_555
Na4 O62 2.761472 1_555
Na4 O60 2.761472 1_555
Na4 O61 2.761472 1_555
Na4 O66 2.807492 1_555
Na4 O68 2.807493 1_555
Na4 O67 2.807493 1_555
Na5 O63 2.761472 1_555
Na5 O65 2.761472 1_555
Na5 O64 2.761472 1_555
Na5 O70 2.807493 1_555
Na5 O71 2.807493 1_555
Na5 O69 2.807493 1_555
Ca0 O36 2.235591 1_445
Ca0 O38 2.235591 1_555
Ca0 O37 2.235591 1_455
Ca0 O1 2.260826 1_445
Ca0 O2 2.260826 1_455
Ca0 O0 2.260826 1_555
Ca1 O41 2.235591 1_445
Ca1 O39 2.235591 1_455
Ca1 O40 2.235591 1_555
Ca1 O4 2.260826 1_445
Ca1 O3 2.260826 1_555
Ca1 O5 2.260826 1_455
Ca2 O7 2.443774 1_555
Ca2 O8 2.443774 1_545
Ca2 O6 2.443775 1_445
Ca2 O44 2.461889 1_445
Ca2 O42 2.461889 1_455
Ca2 O43 2.461889 1_555
Ca3 O10 2.443774 1_555
Ca3 O9 2.443774 1_445
Ca3 O11 2.443775 1_545
Ca3 O45 2.461889 1_445
Ca3 O47 2.461889 1_555
Ca3 O46 2.461889 1_455
Ca4 O13 2.226659 1_555
Ca4 O14 2.226659 1_555
Ca4 O12 2.226659 1_555
Ca4 O48 2.313374 1_555
Ca4 O50 2.313374 1_555
Ca4 O49 2.313374 1_555
Ca5 O15 2.226659 1_555
Ca5 O16 2.226659 1_555
Ca5 O17 2.226659 1_555
Ca5 O53 2.313374 1_555
Ca5 O51 2.313374 1_555
Ca5 O52 2.313374 1_555
Ca6 O25 2.169048 1_554
Ca6 O26 2.169048 1_554
Ca6 O24 2.169048 1_554
Ca6 O62 2.294307 1_555
Ca6 O60 2.294307 1_555
Ca6 O61 2.294307 1_555
Ca7 O28 2.169048 1_555
Ca7 O27 2.169048 1_555
Ca7 O29 2.169048 1_555
Ca7 O63 2.294307 1_555
Ca7 O65 2.294307 1_555
Ca7 O64 2.294307 1_555
O0 S0 1.451834 1_545
O1 S1 1.451834 1_555
O2 S2 1.451834 1_655
O3 S3 1.451834 1_555
O4 S4 1.451834 1_655
O5 S5 1.451834 1_545
O6 S5 1.477993 1_555
O7 S3 1.477993 1_555
O8 S4 1.477993 1_555
O9 S1 1.477993 1_555
O10 S2 1.477993 1_555
O11 S0 1.477993 1_555
O12 S6 1.459456 1_555
O13 S7 1.459456 1_555
O14 S8 1.459456 1_555
O15 S9 1.459456 1_555
O16 S10 1.459456 1_555
O17 S11 1.459456 1_555
O18 S11 1.550547 1_555
O18 Ta0 2.031015 1_554
O19 S9 1.550547 1_555
O19 Ta0 2.031015 1_554
O20 S10 1.550547 1_555
O20 Ta0 2.031015 1_554
O21 S7 1.550547 1_555
O21 Ta1 2.031015 1_555
O22 S8 1.550547 1_555
O22 Ta1 2.031015 1_555
O23 S6 1.550547 1_555
O23 Ta1 2.031015 1_555
O24 P0 1.489294 1_555
O25 P1 1.489294 1_555
O26 P2 1.489294 1_555
O27 P3 1.489294 1_555
O28 P4 1.489294 1_555
O29 P5 1.489294 1_555
O30 P5 1.630092 1_555
O30 Ta2 1.941226 1_555
O31 P3 1.630092 1_555
O31 Ta2 1.941226 1_555
O32 P4 1.630092 1_555
O32 Ta2 1.941226 1_555
O33 P1 1.630092 1_555
O33 Ta3 1.941226 1_555
O34 P2 1.630092 1_555
O34 Ta3 1.941226 1_555
O35 P0 1.630092 1_555
O35 Ta3 1.941226 1_555
O36 P5 1.497116 1_655
O37 P3 1.497124 1_545
O38 P4 1.497121 1_555
O39 P1 1.497124 1_655
O40 P2 1.497116 1_545
O41 P0 1.497121 1_555
O42 S6 1.477550 1_555
O43 S7 1.477559 1_555
O44 S8 1.477555 1_555
O45 S9 1.477559 1_555
O46 S10 1.477550 1_555
O47 S11 1.477555 1_555
O48 S5 1.479718 1_545
O49 S3 1.479727 1_555
O50 S4 1.479724 1_655
O51 S1 1.479727 1_555
O52 S2 1.479718 1_655
O53 S0 1.479724 1_545
O54 P0 1.606331 1_555
O54 Ta0 1.974407 1_555
O55 P1 1.606313 1_655
O55 Ta0 1.974407 1_555
O56 P2 1.606322 1_545
O56 Ta0 1.974407 1_555
O57 P3 1.606313 1_545
O57 Ta1 1.974407 1_555
O58 P4 1.606331 1_555
O58 Ta1 1.974407 1_555
O59 P5 1.606322 1_655
O59 Ta1 1.974407 1_555
O60 S11 1.464032 1_555
O61 S9 1.464014 1_455
O62 S10 1.464022 1_565
O63 S7 1.464014 1_565
O64 S8 1.464032 1_555
O65 S6 1.464022 1_455
O66 S0 1.538907 1_555
O66 Ta2 2.078397 1_555
O67 S1 1.538916 1_555
O67 Ta2 2.078397 1_555
O68 S2 1.538912 1_555
O68 Ta2 2.078397 1_555
O69 S3 1.538916 1_555
O69 Ta3 2.078397 1_555
O70 S4 1.538907 1_555
O70 Ta3 2.078397 1_555
O71 S5 1.538912 1_555
O71 Ta3 2.078397 1_555
