# generated using pymatgen
data_Na7ZnSi3Sn3(PO8)3
_symmetry_space_group_name_H-M   'P 1'
_cell_length_a   9.07739402
_cell_length_b   9.07939610
_cell_length_c   22.40565716
_cell_angle_alpha   89.76045537
_cell_angle_beta   90.28063224
_cell_angle_gamma   120.00503223
_symmetry_Int_Tables_number   1
_chemical_formula_structural   Na7ZnSi3Sn3(PO8)3
_chemical_formula_sum   'Na21 Zn3 Si9 Sn9 P9 O72'
_cell_volume   1599.11009971
_cell_formula_units_Z   3
loop_
 _symmetry_equiv_pos_site_id
 _symmetry_equiv_pos_as_xyz
  1  'x, y, z'
loop_
 _atom_site_type_symbol
 _atom_site_label
 _atom_site_symmetry_multiplicity
 _atom_site_fract_x
 _atom_site_fract_y
 _atom_site_fract_z
 _atom_site_occupancy
  Na  Na0  1  0.63742931  0.01340912  0.24751774  1
  Na  Na1  1  0.37677139  0.36366589  0.24763328  1
  Na  Na2  1  0.98776594  0.62637336  0.25014475  1
  Na  Na3  1  0.63743558  0.62106019  0.74883011  1
  Na  Na4  1  0.98578425  0.36975969  0.74607598  1
  Na  Na5  1  0.37411282  0.00952566  0.74505052  1
  Na  Na6  1  0.02913314  0.69250839  0.58402743  1
  Na  Na7  1  0.66806959  0.97451516  0.57956915  1
  Na  Na8  1  0.31189191  0.97750416  0.08429171  1
  Na  Na9  1  0.66144898  0.69262895  0.08347395  1
  Na  Na10  1  0.02759213  0.33072827  0.08060579  1
  Na  Na11  1  0.33428852  0.30432165  0.91891484  1
  Na  Na12  1  0.96773961  0.28742785  0.41533973  1
  Na  Na13  1  0.31948237  0.03151269  0.41400514  1
  Na  Na14  1  0.71282173  0.67981865  0.41343139  1
  Na  Na15  1  0.00817082  0.01120340  0.49259186  1
  Na  Na16  1  0.98560039  0.99499573  0.99711631  1
  Na  Na17  1  0.68473629  0.34437892  0.83355159  1
  Na  Na18  1  0.66632281  0.33312974  0.33259079  1
  Na  Na19  1  0.33831818  0.66752928  0.16509686  1
  Na  Na20  1  0.32531669  0.65327387  0.66405750  1
  Zn  Zn0  1  0.99845591  0.99984453  0.35476533  1
  Zn  Zn1  1  0.67930911  0.34397092  0.68014715  1
  Zn  Zn2  1  0.66077868  0.32700212  0.17664185  1
  Si  Si0  1  0.00137611  0.70802576  0.75035368  1
  Si  Si1  1  0.96574509  0.33403318  0.58578409  1
  Si  Si2  1  0.66459837  0.03844627  0.08552154  1
  Si  Si3  1  0.37358659  0.33391177  0.08466002  1
  Si  Si4  1  0.63058958  0.66678295  0.91690096  1
  Si  Si5  1  0.03362149  0.37006561  0.91584525  1
  Si  Si6  1  0.62497764  0.96039977  0.41784059  1
  Si  Si7  1  0.33540011  0.37215161  0.41639687  1
  Si  Si8  1  0.03860807  0.66612563  0.41735263  1
  Sn  Sn0  1  0.99261432  0.99461531  0.85488581  1
  Sn  Sn1  1  0.00530020  0.00351841  0.64780628  1
  Sn  Sn2  1  0.00034381  0.00294473  0.15012300  1
  Sn  Sn3  1  0.67123079  0.33317406  0.98069236  1
  Sn  Sn4  1  0.66799331  0.33132731  0.48220800  1
  Sn  Sn5  1  0.33614306  0.66526656  0.01578582  1
  Sn  Sn6  1  0.33001361  0.65953184  0.51743523  1
  Sn  Sn7  1  0.33337319  0.66504677  0.31825378  1
  Sn  Sn8  1  0.32890827  0.66413682  0.81723195  1
  P  P0  1  0.29247414  0.99692619  0.25203695  1
  P  P1  1  0.70513362  0.70622470  0.25163384  1
  P  P2  1  0.00205930  0.29777975  0.25166942  1
  P  P3  1  0.29096715  0.29222971  0.75180581  1
  P  P4  1  0.70584919  0.99754549  0.75015181  1
  P  P5  1  0.37362151  0.04106386  0.58507095  1
  P  P6  1  0.66385039  0.62702255  0.58569589  1
  P  P7  1  0.96041132  0.62742232  0.08509919  1
  P  P8  1  0.33437081  0.96091949  0.91641675  1
  O  O0  1  0.20574820  0.02027662  0.30569812  1
  O  O1  1  0.81450029  0.79194685  0.30601938  1
  O  O2  1  0.97520131  0.18648984  0.30578323  1
  O  O3  1  0.20965029  0.18308674  0.80873055  1
  O  O4  1  0.96839490  0.80345991  0.80549135  1
  O  O5  1  0.82638277  0.03539540  0.80384109  1
  O  O6  1  0.78143179  0.96028024  0.69308946  1
  O  O7  1  0.16972286  0.21298426  0.69730053  1
  O  O8  1  0.04431282  0.82862217  0.68949208  1
  O  O9  1  0.78384762  0.81746725  0.19296589  1
  O  O10  1  0.03715652  0.22101347  0.19325392  1
  O  O11  1  0.18078129  0.96267579  0.19310878  1
  O  O12  1  0.88943366  0.37115606  0.64480202  1
  O  O13  1  0.47984297  0.12074136  0.64115790  1
  O  O14  1  0.63591699  0.52403517  0.64226265  1
  O  O15  1  0.89284786  0.52162496  0.14186965  1
  O  O16  1  0.62670853  0.10812968  0.14607564  1
  O  O17  1  0.48992680  0.37823804  0.14361487  1
  O  O18  1  0.45359939  0.29331591  0.02515479  1
  O  O19  1  0.84228495  0.55011261  0.03037275  1
  O  O20  1  0.71373644  0.16911197  0.02896737  1
  O  O21  1  0.45176560  0.14710690  0.52742719  1
  O  O22  1  0.69666358  0.54770906  0.52892165  1
  O  O23  1  0.84270357  0.29293037  0.52599332  1
  O  O24  1  0.54786572  0.69752224  0.97692972  1
  O  O25  1  0.15456745  0.45334677  0.97532768  1
  O  O26  1  0.30445820  0.85169453  0.97297154  1
  O  O27  1  0.54095530  0.84141608  0.47728832  1
  O  O28  1  0.29327626  0.45789946  0.47225617  1
  O  O29  1  0.15949042  0.70519870  0.47639050  1
  O  O30  1  0.11495387  0.61952376  0.35734650  1
  O  O31  1  0.50359453  0.88252218  0.35731876  1
  O  O32  1  0.38338856  0.49257765  0.35517474  1
  O  O33  1  0.11605900  0.48265252  0.85499402  1
  O  O34  1  0.36212677  0.88156368  0.85940931  1
  O  O35  1  0.50932582  0.63004060  0.85704659  1
  O  O36  1  0.01780639  0.83127402  0.41244352  1
  O  O37  1  0.81090560  0.98081185  0.41357347  1
  O  O38  1  0.17051700  0.18602354  0.41143844  1
  O  O39  1  0.03542602  0.18892870  0.91151877  1
  O  O40  1  0.17688870  0.98555463  0.91177517  1
  O  O41  1  0.81778669  0.83541071  0.91369516  1
  O  O42  1  0.97270144  0.15402637  0.58893278  1
  O  O43  1  0.18755627  0.01137323  0.58696443  1
  O  O44  1  0.83169853  0.80768496  0.58841026  1
  O  O45  1  0.98113678  0.80978981  0.09011133  1
  O  O46  1  0.83376345  0.01131252  0.08921804  1
  O  O47  1  0.18240469  0.15824890  0.08926097  1
  O  O48  1  0.67870995  0.15042595  0.74506136  1
  O  O49  1  0.46610660  0.30828285  0.74581779  1
  O  O50  1  0.83396918  0.52062319  0.74765254  1
  O  O51  1  0.68458032  0.52779484  0.24580500  1
  O  O52  1  0.84667255  0.32248454  0.24473555  1
  O  O53  1  0.47147510  0.15419885  0.24651377  1
  O  O54  1  0.63202342  0.48655597  0.92168928  1
  O  O55  1  0.84676496  0.35083992  0.92074170  1
  O  O56  1  0.49294102  0.14118821  0.92112443  1
  O  O57  1  0.63350801  0.14564177  0.42181542  1
  O  O58  1  0.51094284  0.36259857  0.42371333  1
  O  O59  1  0.85173149  0.49174775  0.42275687  1
  O  O60  1  0.34303190  0.49929373  0.07848644  1
  O  O61  1  0.14247988  0.65197905  0.07560383  1
  O  O62  1  0.49076943  0.84898331  0.07692227  1
  O  O63  1  0.35834786  0.86078080  0.57994317  1
  O  O64  1  0.51239922  0.66088232  0.57935062  1
  O  O65  1  0.15243572  0.51013410  0.57945386  1
  O  O66  1  0.30553318  0.82858666  0.25329012  1
  O  O67  1  0.52427562  0.69408107  0.25256728  1
  O  O68  1  0.17096820  0.47820281  0.25334212  1
  O  O69  1  0.30895077  0.47397637  0.75477511  1
  O  O70  1  0.18145088  0.69852233  0.75439635  1
  O  O71  1  0.52874723  0.82919339  0.75645522  1
loop_
_geom_bond_atom_site_label_1
_geom_bond_atom_site_label_2
_geom_bond_distance
_geom_bond_site_symmetry_2
Na0 O53 2.414379 1_555
Na0 O16 2.445454 1_555
Na0 O52 2.480969 1_555
Na0 O67 2.548282 1_545
Na0 O66 2.618195 1_545
Na0 O31 2.738876 1_545
Na0 O2 2.955272 1_555
Na0 O9 2.970584 1_545
Na1 O51 2.421898 1_555
Na1 O53 2.447942 1_555
Na1 O17 2.527688 1_555
Na1 O68 2.556230 1_555
Na1 O67 2.605519 1_555
Na1 O32 2.670441 1_555
Na1 O10 2.940876 1_555
Na1 O0 2.994675 1_555
Na2 O52 2.394739 1_555
Na2 O51 2.432954 1_555
Na2 O66 2.529530 1_655
Na2 O15 2.590653 1_555
Na2 O68 2.610771 1_655
Na2 O30 2.673848 1_655
Na2 O11 2.943625 1_655
Na2 O1 2.949694 1_555
Na3 O50 2.375445 1_555
Na3 O49 2.463988 1_555
Na3 O71 2.538245 1_555
Na3 O14 2.546080 1_555
Na3 O69 2.590752 1_555
Na3 O35 2.713316 1_555
Na3 O4 2.895515 1_555
Na3 O6 2.951542 1_555
Na4 O50 2.380206 1_555
Na4 O12 2.430098 1_555
Na4 O48 2.486769 1_555
Na4 O69 2.599725 1_655
Na4 O70 2.607362 1_655
Na4 O33 2.680459 1_655
Na4 O7 2.901071 1_655
Na4 O5 2.928679 1_555
Na5 O48 2.396624 1_555
Na5 O49 2.406291 1_555
Na5 O70 2.476968 1_545
Na5 O13 2.528298 1_555
Na5 O71 2.647258 1_545
Na5 O34 2.788973 1_545
Na5 O8 2.876183 1_545
Na6 O65 2.421002 1_555
Na6 O44 2.488408 1_455
Na6 O43 2.508118 1_565
Na6 O63 2.590033 1_555
Na6 O8 2.642153 1_555
Na6 O29 2.668134 1_555
Na6 O12 2.873741 1_455
Na6 O22 2.893044 1_455
Na7 O42 2.415913 1_565
Na7 O63 2.463177 1_555
Na7 O64 2.466005 1_555
Na7 O27 2.578017 1_555
Na7 O44 2.604726 1_555
Na7 O6 2.765795 1_555
Na7 O23 2.778110 1_565
Na7 O13 2.982179 1_565
Na8 O62 2.434069 1_555
Na8 O47 2.453373 1_565
Na8 O61 2.567924 1_555
Na8 O45 2.603791 1_455
Na8 O11 2.691544 1_555
Na8 O26 2.734131 1_554
Na8 O18 2.815690 1_565
Na8 O16 2.841593 1_565
Na9 O46 2.511945 1_565
Na9 O60 2.524320 1_555
Na9 O45 2.546485 1_555
Na9 O62 2.575466 1_555
Na9 O24 2.604712 1_554
Na9 O9 2.697143 1_555
Na9 O17 2.816262 1_555
Na9 O19 2.817954 1_555
Na10 O60 2.482185 1_555
Na10 O46 2.537476 1_455
Na10 O61 2.561987 1_555
Na10 O47 2.580828 1_555
Na10 O25 2.617877 1_554
Na10 O20 2.722004 1_455
Na10 O10 2.726448 1_555
Na10 O15 2.922485 1_455
Na11 O54 2.360641 1_555
Na11 O39 2.374709 1_555
Na11 O40 2.511827 1_545
Na11 O56 2.530296 1_555
Na11 O18 2.632514 1_556
Na11 O3 2.708544 1_555
Na11 O25 2.886530 1_555
Na11 O35 2.911981 1_555
Na12 O37 2.411403 1_545
Na12 O38 2.437348 1_655
Na12 O59 2.556568 1_555
Na12 O2 2.636756 1_555
Na12 O57 2.641892 1_555
Na12 O23 2.742772 1_555
Na12 O28 2.856435 1_655
Na12 O30 2.918915 1_655
Na13 O38 2.386558 1_555
Na13 O36 2.413662 1_545
Na13 O57 2.504460 1_555
Na13 O0 2.614821 1_555
Na13 O58 2.623123 1_555
Na13 O21 2.780924 1_555
Na13 O29 2.919348 1_545
Na13 O31 2.921036 1_545
Na14 O36 2.397633 1_655
Na14 O37 2.414048 1_555
Na14 O58 2.535033 1_555
Na14 O59 2.587919 1_555
Na14 O1 2.596481 1_555
Na14 O22 2.820978 1_555
Na14 O32 2.903808 1_555
Na14 O27 2.993731 1_555
Na15 O38 2.379070 1_555
Na15 O37 2.428159 1_445
Na15 O36 2.463789 1_545
Na15 O42 2.625353 1_455
Na15 O43 2.662019 1_555
Na15 O44 2.762183 1_445
Na16 O41 2.387611 1_555
Na16 O39 2.483332 1_665
Na16 O46 2.532725 1_566
Na16 O40 2.619429 1_655
Na16 O47 2.644240 1_666
Na16 O45 2.659721 1_556
Na17 O55 2.422720 1_555
Na17 O50 2.435492 1_555
Na17 O54 2.538395 1_555
Na17 O48 2.639477 1_555
Na17 O56 2.659947 1_555
Na17 O49 2.688265 1_555
Na18 O57 2.540327 1_555
Na18 O59 2.560233 1_555
Na18 O53 2.570230 1_555
Na18 O51 2.571736 1_555
Na18 O58 2.576729 1_555
Na18 O52 2.599169 1_555
Na19 O60 2.488327 1_555
Na19 O62 2.500331 1_555
Na19 O67 2.512564 1_555
Na19 O68 2.561471 1_555
Na19 O66 2.568416 1_555
Na19 O61 2.630058 1_555
Na20 O65 2.386774 1_555
Na20 O64 2.530603 1_555
Na20 O69 2.556755 1_555
Na20 O70 2.557470 1_555
Na20 O63 2.569477 1_555
Na20 O71 2.699500 1_555
O0 P0 1.512809 1_545
O0 Zn0 2.110258 1_445
O1 P1 1.516403 1_555
O1 Zn0 2.095504 1_555
O2 P2 1.515504 1_655
O2 Zn0 2.112043 1_545
O3 P3 1.555847 1_555
O3 Sn0 2.124244 1_445
O4 Si0 1.624393 1_655
O4 Sn0 1.979250 1_555
O5 P4 1.541687 1_545
O5 Sn0 2.064071 1_545
O6 P4 1.569776 1_555
O6 Sn1 2.128874 1_665
O7 P3 1.556454 1_555
O7 Sn1 2.058352 1_555
O8 Si0 1.666203 1_555
O8 Sn1 2.016468 1_565
O9 P1 1.592130 1_555
O9 Sn2 2.077128 1_665
O10 P2 1.591903 1_555
O10 Sn2 2.077690 1_555
O11 P0 1.594646 1_555
O11 Sn2 2.079555 1_565
O12 Si1 1.608800 1_555
O12 Zn1 1.966848 1_555
O13 P5 1.526548 1_555
O13 Zn1 2.116220 1_555
O14 P6 1.516933 1_555
O14 Zn1 2.043929 1_555
O15 P7 1.524792 1_555
O15 Zn2 2.109199 1_555
O16 Si2 1.608960 1_555
O16 Zn2 1.976963 1_555
O17 Si3 1.608657 1_555
O17 Zn2 1.968933 1_555
O18 Si3 1.649935 1_555
O18 Sn3 2.080225 1_554
O19 P7 1.545169 1_555
O19 Sn3 2.114753 1_554
O20 Si2 1.635775 1_555
O20 Sn3 2.023595 1_554
O21 P5 1.553631 1_555
O21 Sn4 2.097258 1_555
O22 P6 1.565674 1_555
O22 Sn4 2.127457 1_555
O23 Si1 1.659530 1_555
O23 Sn4 2.033215 1_555
O24 Si4 1.635051 1_555
O24 Sn5 1.997171 1_556
O25 Si5 1.648363 1_555
O25 Sn5 2.017094 1_556
O26 P8 1.544798 1_555
O26 Sn5 2.082942 1_556
O27 Si6 1.642176 1_555
O27 Sn6 2.011115 1_555
O28 Si7 1.621518 1_555
O28 Sn6 1.972042 1_555
O29 Si8 1.637082 1_555
O29 Sn6 2.009583 1_555
O30 Si8 1.665557 1_555
O30 Sn7 2.015793 1_555
O31 Si6 1.663434 1_555
O31 Sn7 2.000554 1_555
O32 Si7 1.668484 1_555
O32 Sn7 2.009745 1_555
O33 Si5 1.642281 1_555
O33 Sn8 1.996062 1_555
O34 P8 1.551283 1_555
O34 Sn8 2.073285 1_555
O35 Si4 1.656338 1_555
O35 Sn8 2.015989 1_555
O36 Si8 1.605519 1_555
O36 Zn0 2.072087 1_455
O37 Si6 1.606411 1_555
O37 Zn0 2.095293 1_555
O38 Si7 1.605792 1_555
O38 Zn0 2.065719 1_445
O39 Si5 1.656113 1_555
O39 Sn0 2.049845 1_445
O40 P8 1.556450 1_555
O40 Sn0 2.131990 1_455
O41 Si4 1.623260 1_555
O41 Sn0 2.013557 1_555
O42 Si1 1.668018 1_555
O42 Sn1 2.020025 1_655
O43 P5 1.572380 1_555
O43 Sn1 2.122204 1_555
O44 P6 1.586212 1_555
O44 Sn1 2.147717 1_665
O45 P7 1.574620 1_555
O45 Sn2 2.150705 1_665
O46 Si2 1.674065 1_555
O46 Sn2 2.061131 1_655
O47 Si3 1.672781 1_555
O47 Sn2 2.062612 1_555
O48 P4 1.529975 1_545
O48 Zn1 2.274333 1_555
O49 P3 1.528696 1_555
O49 Zn1 2.326411 1_555
O50 Si0 1.619242 1_655
O50 Zn1 2.139749 1_555
O51 P1 1.541302 1_555
O51 Zn2 2.323378 1_555
O52 P2 1.542067 1_655
O52 Zn2 2.284798 1_555
O53 P0 1.540921 1_545
O53 Zn2 2.274789 1_555
O54 Si4 1.645949 1_555
O54 Sn3 2.071096 1_555
O55 Si5 1.620197 1_655
O55 Sn3 2.032845 1_555
O56 P8 1.550993 1_545
O56 Sn3 2.148441 1_555
O57 Si6 1.647300 1_545
O57 Sn4 2.063580 1_555
O58 Si7 1.645934 1_555
O58 Sn4 2.052825 1_555
O59 Si8 1.647179 1_655
O59 Sn4 2.062389 1_555
O60 Si3 1.662886 1_555
O60 Sn5 2.079433 1_555
O61 P7 1.568732 1_455
O61 Sn5 2.170456 1_555
O62 Si2 1.664660 1_565
O62 Sn5 2.070619 1_555
O63 P5 1.576761 1_565
O63 Sn6 2.216801 1_555
O64 P6 1.557298 1_555
O64 Sn6 2.150101 1_555
O65 Si1 1.654968 1_455
O65 Sn6 2.046592 1_555
O66 P0 1.591141 1_555
O66 Sn7 2.177357 1_555
O67 P1 1.589690 1_555
O67 Sn7 2.191648 1_555
O68 P2 1.588598 1_555
O68 Sn7 2.159809 1_555
O69 P3 1.576535 1_555
O69 Sn8 2.162623 1_555
O70 Si0 1.681412 1_555
O70 Sn8 2.065684 1_555
O71 P4 1.575931 1_555
O71 Sn8 2.163112 1_555
