# generated using pymatgen
data_Na2Mg2Zr6Si3(S3O16)3
_symmetry_space_group_name_H-M   'P 1'
_cell_length_a   17.98207501
_cell_length_b   8.97655669
_cell_length_c   23.23499587
_cell_angle_alpha   90.04137696
_cell_angle_beta   89.97347736
_cell_angle_gamma   119.97358489
_symmetry_Int_Tables_number   1
_chemical_formula_structural   Na2Mg2Zr6Si3(S3O16)3
_chemical_formula_sum   'Na6 Mg6 Zr18 Si9 S27 O144'
_cell_volume   3248.91414741
_cell_formula_units_Z   3
loop_
 _symmetry_equiv_pos_site_id
 _symmetry_equiv_pos_as_xyz
  1  'x, y, z'
loop_
 _atom_site_type_symbol
 _atom_site_label
 _atom_site_symmetry_multiplicity
 _atom_site_fract_x
 _atom_site_fract_y
 _atom_site_fract_z
 _atom_site_occupancy
  Na  Na0  1  0.00155758  0.99524265  0.49595554  1
  Na  Na1  1  0.50036629  0.00591905  0.99869854  1
  Na  Na2  1  0.33144371  0.32805882  0.83651626  1
  Na  Na3  1  0.83416315  0.33354405  0.83594135  1
  Na  Na4  1  0.32942022  0.32848932  0.33371342  1
  Na  Na5  1  0.83266544  0.33602548  0.33488499  1
  Mg  Mg0  1  0.00665824  0.99444467  0.35290759  1
  Mg  Mg1  1  0.49959831  0.00692575  0.85525062  1
  Mg  Mg2  1  0.00350897  0.00787168  0.65002575  1
  Mg  Mg3  1  0.50219552  0.99679842  0.15102052  1
  Mg  Mg4  1  0.83376419  0.33328589  0.98394057  1
  Mg  Mg5  1  0.33158527  0.33116674  0.48063931  1
  Zr  Zr0  1  0.50902159  0.00894468  0.35446363  1
  Zr  Zr1  1  0.01024619  0.01066133  0.85571234  1
  Zr  Zr2  1  0.50165259  0.00056763  0.64129730  1
  Zr  Zr3  1  0.00858443  0.00250035  0.14495086  1
  Zr  Zr4  1  0.32614390  0.32728062  0.68730639  1
  Zr  Zr5  1  0.83219858  0.32493308  0.68337286  1
  Zr  Zr6  1  0.32563421  0.33083989  0.18735754  1
  Zr  Zr7  1  0.82875041  0.32453745  0.18826559  1
  Zr  Zr8  1  0.32897737  0.32310052  0.97832001  1
  Zr  Zr9  1  0.82926286  0.33455077  0.47619237  1
  Zr  Zr10  1  0.16519826  0.67003439  0.02404452  1
  Zr  Zr11  1  0.66130532  0.65376948  0.02225147  1
  Zr  Zr12  1  0.16198434  0.66729757  0.51769091  1
  Zr  Zr13  1  0.66579078  0.66359069  0.52105999  1
  Zr  Zr14  1  0.16051695  0.67027322  0.31027323  1
  Zr  Zr15  1  0.66740218  0.66425691  0.30923046  1
  Zr  Zr16  1  0.16669163  0.66799237  0.81111007  1
  Zr  Zr17  1  0.66231405  0.66151427  0.81491391  1
  Si  Si0  1  0.14342542  0.00204920  0.25321265  1
  Si  Si1  1  0.64190434  0.99587686  0.24681600  1
  Si  Si2  1  0.14173314  0.28858545  0.74696343  1
  Si  Si3  1  0.68880365  0.03972874  0.58178315  1
  Si  Si4  1  0.18773597  0.33567684  0.08213199  1
  Si  Si5  1  0.51894058  0.36482295  0.91660197  1
  Si  Si6  1  0.16702797  0.95376790  0.91683356  1
  Si  Si7  1  0.66559268  0.37834940  0.41625910  1
  Si  Si8  1  0.01914594  0.67471274  0.41535908  1
  S  S0  1  0.35637600  0.71436073  0.24931288  1
  S  S1  1  0.85712528  0.71372301  0.25059097  1
  S  S2  1  0.99929389  0.28472817  0.25128184  1
  S  S3  1  0.49933104  0.28660200  0.24852581  1
  S  S4  1  0.64406583  0.28697183  0.75135110  1
  S  S5  1  0.99911692  0.71179683  0.74882042  1
  S  S6  1  0.49979796  0.71382865  0.75130988  1
  S  S7  1  0.35731458  0.00055068  0.75092070  1
  S  S8  1  0.85577477  0.99818546  0.74930723  1
  S  S9  1  0.47591112  0.33364535  0.58235995  1
  S  S10  1  0.97919464  0.32775134  0.58284605  1
  S  S11  1  0.18664800  0.04425975  0.58142382  1
  S  S12  1  0.33251885  0.61955013  0.58170731  1
  S  S13  1  0.83642571  0.63046325  0.58385032  1
  S  S14  1  0.47802110  0.62926012  0.08351250  1
  S  S15  1  0.97513195  0.61891002  0.08211546  1
  S  S16  1  0.33699122  0.04341186  0.08411258  1
  S  S17  1  0.83366861  0.04525092  0.08149028  1
  S  S18  1  0.68712112  0.32728620  0.08192494  1
  S  S19  1  0.31377440  0.67136930  0.91641090  1
  S  S20  1  0.81189717  0.66338381  0.91721203  1
  S  S21  1  0.01881123  0.37726826  0.91732095  1
  S  S22  1  0.66710881  0.96135119  0.91710748  1
  S  S23  1  0.31223074  0.96096041  0.41679732  1
  S  S24  1  0.81399964  0.95567782  0.41596616  1
  S  S25  1  0.16749504  0.37337764  0.41662635  1
  S  S26  1  0.51874440  0.66063389  0.41687592  1
  O  O0  1  0.10291287  0.03959107  0.30693891  1
  O  O1  1  0.60249195  0.03271794  0.30613145  1
  O  O2  1  0.40922885  0.79087111  0.30217316  1
  O  O3  1  0.90791923  0.78798123  0.30210740  1
  O  O4  1  0.48409076  0.18058140  0.30169815  1
  O  O5  1  0.98276611  0.18005717  0.30255828  1
  O  O6  1  0.10248494  0.17225355  0.80600971  1
  O  O7  1  0.60542907  0.18036106  0.80150395  1
  O  O8  1  0.48598162  0.79140160  0.80215403  1
  O  O9  1  0.98309117  0.78621295  0.80171311  1
  O  O10  1  0.40992169  0.02917785  0.80159375  1
  O  O11  1  0.90781086  0.02848828  0.80203063  1
  O  O12  1  0.39654589  0.97518178  0.69789875  1
  O  O13  1  0.89317851  0.97247692  0.69773055  1
  O  O14  1  0.08581661  0.20087174  0.69217422  1
  O  O15  1  0.59177706  0.21004448  0.69851976  1
  O  O16  1  0.01176047  0.81386761  0.69760818  1
  O  O17  1  0.51268489  0.81845396  0.69826664  1
  O  O18  1  0.39414805  0.81659101  0.19783090  1
  O  O19  1  0.89364752  0.81569738  0.19754675  1
  O  O20  1  0.01103310  0.20716664  0.19797992  1
  O  O21  1  0.51285654  0.20989474  0.19757861  1
  O  O22  1  0.08628366  0.96907710  0.19395709  1
  O  O23  1  0.58602946  0.97078874  0.19202711  1
  O  O24  1  0.43695610  0.36006674  0.63539583  1
  O  O25  1  0.93917144  0.36150953  0.63540876  1
  O  O26  1  0.24248725  0.12562759  0.63450266  1
  O  O27  1  0.74768120  0.13385186  0.63965569  1
  O  O28  1  0.32055879  0.51422882  0.63512947  1
  O  O29  1  0.82103136  0.51693299  0.63567684  1
  O  O30  1  0.44141821  0.51877709  0.13492703  1
  O  O31  1  0.93655783  0.51288488  0.13469808  1
  O  O32  1  0.32122596  0.12346213  0.13511254  1
  O  O33  1  0.81901508  0.12614531  0.13443666  1
  O  O34  1  0.24854830  0.36611303  0.13836810  1
  O  O35  1  0.74256291  0.36038272  0.13432670  1
  O  O36  1  0.23428222  0.30385042  0.02755746  1
  O  O37  1  0.72917230  0.30550827  0.03086932  1
  O  O38  1  0.42575888  0.54500835  0.03140835  1
  O  O39  1  0.92290844  0.53895071  0.03076870  1
  O  O40  1  0.35007620  0.15076880  0.03176301  1
  O  O41  1  0.84670481  0.15397088  0.03112108  1
  O  O42  1  0.22951754  0.15376688  0.53158200  1
  O  O43  1  0.73410534  0.16627118  0.52847122  1
  O  O44  1  0.34850183  0.54210489  0.53170450  1
  O  O45  1  0.84992988  0.54838332  0.53254330  1
  O  O46  1  0.42302279  0.30393866  0.53155655  1
  O  O47  1  0.92502025  0.30545560  0.53231118  1
  O  O48  1  0.27259450  0.69565057  0.96818783  1
  O  O49  1  0.77109280  0.69298486  0.96846668  1
  O  O50  1  0.07404514  0.45448976  0.96835652  1
  O  O51  1  0.58289627  0.47122188  0.97174127  1
  O  O52  1  0.15297473  0.83516938  0.97268835  1
  O  O53  1  0.65471602  0.85054148  0.96838685  1
  O  O54  1  0.27142624  0.85002195  0.46924233  1
  O  O55  1  0.77180061  0.84938936  0.46853600  1
  O  O56  1  0.15622867  0.46241260  0.46950909  1
  O  O57  1  0.65305378  0.46957828  0.47324582  1
  O  O58  1  0.08132398  0.69440751  0.47235850  1
  O  O59  1  0.57433742  0.69348657  0.46871447  1
  O  O60  1  0.06669616  0.63414076  0.36200869  1
  O  O61  1  0.56030253  0.63571236  0.36536677  1
  O  O62  1  0.25759348  0.87813893  0.36548127  1
  O  O63  1  0.75803162  0.87768488  0.36487020  1
  O  O64  1  0.18298464  0.48409427  0.36544912  1
  O  O65  1  0.68125070  0.49900275  0.36058168  1
  O  O66  1  0.06014888  0.48429464  0.86503111  1
  O  O67  1  0.56848062  0.49762562  0.86093463  1
  O  O68  1  0.18115478  0.86447754  0.85994922  1
  O  O69  1  0.68212374  0.87841052  0.86436929  1
  O  O70  1  0.25852264  0.63938276  0.86445754  1
  O  O71  1  0.75654027  0.63715108  0.86470674  1
  O  O72  1  0.00921188  0.84082010  0.41267456  1
  O  O73  1  0.50988933  0.81488937  0.40911907  1
  O  O74  1  0.39653937  0.97429518  0.40877495  1
  O  O75  1  0.89901046  0.97624621  0.40915181  1
  O  O76  1  0.08875285  0.20712076  0.41192193  1
  O  O77  1  0.58069917  0.19041439  0.40873076  1
  O  O78  1  0.00940013  0.20462990  0.90847220  1
  O  O79  1  0.51273529  0.18281062  0.90967232  1
  O  O80  1  0.08148870  0.97077385  0.90843903  1
  O  O81  1  0.58958404  0.97267381  0.90856785  1
  O  O82  1  0.39918188  0.82188650  0.90847772  1
  O  O83  1  0.89578531  0.81802126  0.90760734  1
  O  O84  1  0.48627064  0.17956265  0.59276793  1
  O  O85  1  0.98685753  0.17489247  0.59076095  1
  O  O86  1  0.10105435  0.02153610  0.59012212  1
  O  O87  1  0.59503748  0.02293935  0.59546729  1
  O  O88  1  0.40937166  0.79336622  0.59299204  1
  O  O89  1  0.91200268  0.80051466  0.59242361  1
  O  O90  1  0.48785914  0.80040112  0.08952096  1
  O  O91  1  0.98439572  0.79062961  0.09033620  1
  O  O92  1  0.41253277  0.02331633  0.09129241  1
  O  O93  1  0.90825925  0.02406862  0.09208614  1
  O  O94  1  0.09350449  0.16878559  0.09218477  1
  O  O95  1  0.60083173  0.18071674  0.08957900  1
  O  O96  1  0.34714300  0.15646032  0.74193645  1
  O  O97  1  0.84612754  0.15797652  0.74319435  1
  O  O98  1  0.24126243  0.31260421  0.74192417  1
  O  O99  1  0.73255438  0.31158285  0.74305246  1
  O  O100  1  0.42414485  0.53702968  0.74196130  1
  O  O101  1  0.92148825  0.53370692  0.74288966  1
  O  O102  1  0.34879902  0.53878753  0.24369073  1
  O  O103  1  0.84602818  0.53623420  0.24169405  1
  O  O104  1  0.42345233  0.31131679  0.24293061  1
  O  O105  1  0.92325378  0.31185780  0.24175801  1
  O  O106  1  0.24216831  0.16685072  0.24226582  1
  O  O107  1  0.74115378  0.17034180  0.24189344  1
  O  O108  1  0.32167125  0.51460317  0.92289278  1
  O  O109  1  0.81992293  0.50870982  0.92393376  1
  O  O110  1  0.42876985  0.36359701  0.92377299  1
  O  O111  1  0.93282355  0.35841863  0.92422951  1
  O  O112  1  0.25088034  0.14593670  0.92180450  1
  O  O113  1  0.74500842  0.13207056  0.92371954  1
  O  O114  1  0.32084940  0.13191764  0.42535147  1
  O  O115  1  0.82104118  0.12778217  0.42359303  1
  O  O116  1  0.24503930  0.35734940  0.42572318  1
  O  O117  1  0.75000569  0.35580845  0.42231400  1
  O  O118  1  0.43334436  0.50759093  0.42512861  1
  O  O119  1  0.92874116  0.49448006  0.42538267  1
  O  O120  1  0.17799689  0.50294124  0.07216627  1
  O  O121  1  0.68160782  0.48903377  0.07542675  1
  O  O122  1  0.06196772  0.63928068  0.07565232  1
  O  O123  1  0.56579160  0.64721673  0.07454868  1
  O  O124  1  0.25851933  0.87328245  0.07546275  1
  O  O125  1  0.75583503  0.87307560  0.07371913  1
  O  O126  1  0.18166109  0.87324891  0.57577146  1
  O  O127  1  0.67696213  0.85165704  0.57388533  1
  O  O128  1  0.25722791  0.64162450  0.57529766  1
  O  O129  1  0.75782779  0.64274191  0.57631026  1
  O  O130  1  0.06519114  0.48522384  0.57616982  1
  O  O131  1  0.56284502  0.48455663  0.57603917  1
  O  O132  1  0.15785103  0.83565667  0.25818310  1
  O  O133  1  0.65740363  0.83625305  0.26215277  1
  O  O134  1  0.26927925  0.68749731  0.25901255  1
  O  O135  1  0.76936860  0.68979856  0.25715987  1
  O  O136  1  0.07653722  0.45743129  0.25708448  1
  O  O137  1  0.57596814  0.45984088  0.25809035  1
  O  O138  1  0.15773727  0.47963857  0.76181408  1
  O  O139  1  0.65560235  0.46236443  0.75783911  1
  O  O140  1  0.07476556  0.68957391  0.75793824  1
  O  O141  1  0.57761102  0.69549638  0.75763516  1
  O  O142  1  0.27052363  0.84917511  0.75687471  1
  O  O143  1  0.76809344  0.84861257  0.75890198  1
loop_
_geom_bond_atom_site_label_1
_geom_bond_atom_site_label_2
_geom_bond_distance
_geom_bond_site_symmetry_2
Na0 O72 2.423081 1_555
Na0 O76 2.628866 1_565
Na0 O75 2.680676 1_455
Na0 O86 2.761321 1_565
Na0 O89 2.804008 1_455
Na0 O85 2.818348 1_465
Na1 O79 2.549714 1_555
Na1 O95 2.711266 1_556
Na1 O92 2.718531 1_556
Na1 O82 2.725651 1_545
Na1 O90 2.738215 1_546
Na1 O81 2.742790 1_545
Na2 O112 2.516735 1_555
Na2 O110 2.592217 1_555
Na2 O108 2.674256 1_555
Na2 O98 2.693990 1_555
Na2 O96 2.776821 1_555
Na2 O100 2.828847 1_555
Na3 O111 2.648090 1_555
Na3 O113 2.665685 1_555
Na3 O109 2.667424 1_555
Na3 O97 2.739967 1_555
Na3 O101 2.748081 1_555
Na3 O99 2.771022 1_555
Na4 O106 2.608754 1_555
Na4 O116 2.707177 1_555
Na4 O114 2.721078 1_555
Na4 O102 2.721743 1_555
Na4 O118 2.754134 1_555
Na4 O104 2.754788 1_555
Na5 O117 2.574485 1_555
Na5 O119 2.640635 1_555
Na5 O107 2.672361 1_555
Na5 O115 2.720479 1_555
Na5 O103 2.747678 1_555
Na5 O105 2.780614 1_555
Mg0 O0 1.897085 1_565
Mg0 O72 1.974424 1_555
Mg0 O3 2.165945 1_455
Mg0 O76 2.210469 1_565
Mg0 O5 2.246732 1_465
Mg0 O75 2.272345 1_455
Mg1 O79 1.942213 1_555
Mg1 O10 2.125714 1_555
Mg1 O82 2.133781 1_545
Mg1 O7 2.155254 1_555
Mg1 O81 2.178783 1_545
Mg1 O8 2.201906 1_545
Mg2 O14 1.894173 1_555
Mg2 O16 2.130312 1_545
Mg2 O13 2.152744 1_445
Mg2 O85 2.164619 1_455
Mg2 O86 2.193646 1_555
Mg2 O89 2.213949 1_445
Mg3 O23 1.894264 1_555
Mg3 O18 2.105897 1_555
Mg3 O21 2.120579 1_565
Mg3 O90 2.181508 1_555
Mg3 O92 2.228951 1_565
Mg3 O95 2.232656 1_565
Mg4 O39 2.050233 1_556
Mg4 O41 2.055200 1_556
Mg4 O37 2.078065 1_556
Mg4 O111 2.178384 1_555
Mg4 O109 2.209232 1_555
Mg4 O113 2.210321 1_555
Mg5 O42 2.094243 1_555
Mg5 O116 2.114971 1_555
Mg5 O44 2.123019 1_555
Mg5 O114 2.130348 1_555
Mg5 O46 2.136974 1_555
Mg5 O118 2.150609 1_555
O0 Si0 1.564117 1_555
O1 Si1 1.656409 1_545
O1 Zr0 1.942144 1_555
O2 S0 1.493688 1_555
O2 Zr0 2.239847 1_565
O3 S1 1.450128 1_555
O4 S3 1.499325 1_555
O4 Zr0 2.184318 1_555
O5 S2 1.453570 1_555
O6 Si2 1.653953 1_555
O6 Zr1 1.945627 1_555
O7 S4 1.446712 1_555
O8 S6 1.453835 1_555
O9 S5 1.493469 1_555
O9 Zr1 2.210393 1_665
O10 S7 1.450814 1_555
O11 S8 1.482061 1_545
O11 Zr1 2.295922 1_655
O12 S7 1.492174 1_565
O12 Zr2 2.218451 1_565
O13 S8 1.447659 1_555
O14 Si2 1.568516 1_555
O15 S4 1.489583 1_555
O15 Zr2 2.209847 1_555
O16 S5 1.449231 1_455
O17 S6 1.496212 1_555
O17 Zr2 2.188910 1_565
O18 S0 1.453393 1_555
O19 S1 1.479336 1_555
O19 Zr3 2.261551 1_665
O20 S2 1.486096 1_455
O20 Zr3 2.193475 1_555
O21 S3 1.449295 1_555
O22 Si0 1.654038 1_565
O22 Zr3 1.938952 1_565
O23 Si1 1.567000 1_555
O24 S9 1.493405 1_555
O24 Zr4 2.219075 1_555
O25 S10 1.522474 1_555
O25 Zr5 2.101780 1_555
O26 S11 1.526349 1_555
O26 Zr4 2.079068 1_555
O27 Si3 1.657945 1_555
O27 Zr5 1.917764 1_555
O28 S12 1.509667 1_555
O28 Zr4 2.113641 1_555
O29 S13 1.511577 1_555
O29 Zr5 2.141891 1_555
O30 S14 1.480759 1_555
O30 Zr6 2.270678 1_555
O31 S15 1.490267 1_555
O31 Zr7 2.211700 1_555
O32 S16 1.484221 1_555
O32 Zr6 2.189651 1_555
O33 S17 1.516491 1_555
O33 Zr7 2.109961 1_555
O34 Si4 1.637089 1_555
O34 Zr6 1.938530 1_555
O35 S18 1.506412 1_555
O35 Zr7 2.139360 1_555
O36 Si4 1.620967 1_555
O36 Zr8 1.985628 1_554
O37 S18 1.470986 1_555
O38 S14 1.486730 1_555
O38 Zr8 2.247833 1_554
O39 S15 1.465166 1_555
O40 S16 1.496134 1_555
O40 Zr8 2.160689 1_554
O41 S17 1.466241 1_555
O42 S11 1.464694 1_555
O43 Si3 1.601496 1_555
O43 Zr9 2.025658 1_555
O44 S12 1.453918 1_555
O45 S13 1.483314 1_555
O45 Zr9 2.195646 1_555
O46 S9 1.454700 1_555
O47 S10 1.474333 1_555
O47 Zr9 2.277136 1_555
O48 S19 1.484323 1_555
O48 Zr10 2.240802 1_556
O49 S20 1.490229 1_555
O49 Zr11 2.210674 1_556
O50 S21 1.478211 1_555
O50 Zr10 2.221259 1_556
O51 Si5 1.666815 1_555
O51 Zr11 1.934082 1_556
O52 Si6 1.616901 1_555
O52 Zr10 1.999472 1_556
O53 S22 1.496216 1_555
O53 Zr11 2.216483 1_556
O54 S23 1.511883 1_555
O54 Zr12 2.146112 1_555
O55 S24 1.501832 1_555
O55 Zr13 2.174602 1_555
O56 S25 1.532881 1_555
O56 Zr12 2.110320 1_555
O57 Si7 1.630133 1_555
O57 Zr13 1.979549 1_555
O58 Si8 1.684900 1_555
O58 Zr12 1.904445 1_555
O59 S26 1.497697 1_555
O59 Zr13 2.167723 1_555
O60 Si8 1.646170 1_555
O60 Zr14 1.961730 1_555
O61 S26 1.485497 1_555
O61 Zr15 2.231814 1_555
O62 S23 1.486475 1_555
O62 Zr14 2.217740 1_555
O63 S24 1.486061 1_555
O63 Zr15 2.208238 1_555
O64 S25 1.484618 1_555
O64 Zr14 2.297409 1_555
O65 Si7 1.619515 1_555
O65 Zr15 2.014465 1_555
O66 S21 1.496308 1_555
O66 Zr16 2.191657 1_555
O67 Si5 1.681580 1_555
O67 Zr17 1.917030 1_555
O68 Si6 1.629565 1_555
O68 Zr16 2.001311 1_555
O69 S22 1.525773 1_555
O69 Zr17 2.131243 1_555
O70 S19 1.497434 1_555
O70 Zr16 2.180669 1_555
O71 S20 1.516948 1_555
O71 Zr17 2.151675 1_555
O72 Si8 1.589147 1_555
O73 S26 1.481851 1_555
O73 Zr0 2.162798 1_565
O74 S23 1.471702 1_555
O74 Zr0 2.269350 1_565
O75 S24 1.453889 1_555
O76 S25 1.460333 1_555
O77 Si7 1.622819 1_555
O77 Zr0 1.950723 1_555
O78 S21 1.486607 1_555
O78 Zr1 2.134957 1_555
O79 Si5 1.589117 1_555
O80 Si6 1.631646 1_555
O80 Zr1 1.931498 1_565
O81 S22 1.461148 1_555
O82 S19 1.464548 1_555
O83 S20 1.469708 1_555
O83 Zr1 2.263826 1_665
O84 S9 1.504731 1_555
O84 Zr2 2.092032 1_555
O85 S10 1.457705 1_555
O86 S11 1.462022 1_555
O87 Si3 1.646947 1_555
O87 Zr2 1.912026 1_555
O88 S12 1.502750 1_555
O88 Zr2 2.094643 1_565
O89 S13 1.464143 1_555
O90 S14 1.462541 1_555
O91 S15 1.477611 1_555
O91 Zr3 2.141736 1_665
O92 S16 1.466527 1_555
O93 S17 1.466645 1_555
O93 Zr3 2.269856 1_655
O94 Si4 1.622898 1_555
O94 Zr3 1.945867 1_555
O95 S18 1.459633 1_555
O96 S7 1.513921 1_555
O96 Zr4 2.164911 1_555
O97 S8 1.535137 1_545
O97 Zr5 2.149233 1_555
O98 Si2 1.696363 1_555
O98 Zr4 1.937803 1_555
O99 S4 1.505474 1_555
O99 Zr5 2.220617 1_555
O100 S6 1.503019 1_555
O100 Zr4 2.224071 1_555
O101 S5 1.514363 1_555
O101 Zr5 2.234760 1_555
O102 S0 1.518122 1_555
O102 Zr6 2.142703 1_555
O103 S1 1.517514 1_555
O103 Zr7 2.157733 1_555
O104 S3 1.493498 1_555
O104 Zr6 2.258859 1_555
O105 S2 1.520208 1_555
O105 Zr7 2.154303 1_555
O106 Si0 1.667759 1_555
O106 Zr6 1.959740 1_555
O107 Si1 1.690622 1_545
O107 Zr7 1.942110 1_555
O108 S19 1.491009 1_555
O108 Zr8 2.204523 1_555
O109 S20 1.474293 1_555
O110 Si5 1.624478 1_555
O110 Zr8 2.074933 1_555
O111 S21 1.477712 1_655
O112 Si6 1.632023 1_545
O112 Zr8 1.998188 1_555
O113 S22 1.479593 1_545
O114 S23 1.476646 1_545
O115 S24 1.496105 1_545
O115 Zr9 2.164069 1_555
O116 S25 1.486784 1_555
O117 Si7 1.634609 1_555
O117 Zr9 1.977001 1_555
O118 S26 1.474607 1_555
O119 Si8 1.639119 1_655
O119 Zr9 2.022151 1_555
O120 Si4 1.613054 1_555
O120 Zr10 1.974964 1_555
O121 S18 1.511590 1_555
O121 Zr11 2.095002 1_555
O122 S15 1.486187 1_455
O122 Zr10 2.108622 1_555
O123 S14 1.518526 1_555
O123 Zr11 2.080178 1_555
O124 S16 1.486738 1_565
O124 Zr10 2.124038 1_555
O125 S17 1.489501 1_565
O125 Zr11 2.202222 1_555
O126 S11 1.497984 1_565
O126 Zr12 2.169652 1_555
O127 Si3 1.602981 1_565
O127 Zr13 2.013756 1_555
O128 S12 1.470627 1_555
O128 Zr12 2.274837 1_555
O129 S13 1.481999 1_555
O129 Zr13 2.175752 1_555
O130 S10 1.493142 1_455
O130 Zr12 2.169219 1_555
O131 S9 1.478014 1_555
O131 Zr13 2.160931 1_555
O132 Si0 1.642858 1_565
O132 Zr14 1.935169 1_555
O133 Si1 1.630231 1_555
O133 Zr15 1.972956 1_555
O134 S0 1.477919 1_555
O134 Zr14 2.227890 1_555
O135 S1 1.490250 1_555
O135 Zr15 2.111063 1_555
O136 S2 1.482940 1_455
O136 Zr14 2.138580 1_555
O137 S3 1.491733 1_555
O137 Zr15 2.113377 1_555
O138 Si2 1.627631 1_555
O138 Zr16 1.980378 1_555
O139 S4 1.489260 1_555
O139 Zr17 2.179480 1_555
O140 S5 1.485470 1_455
O140 Zr16 2.149083 1_555
O141 S6 1.495612 1_555
O141 Zr17 2.156601 1_555
O142 S7 1.477278 1_565
O142 Zr16 2.164676 1_555
O143 S8 1.491046 1_555
O143 Zr17 2.222915 1_555
