# generated using pymatgen
data_Sr2CaTlCu2O7
_symmetry_space_group_name_H-M   'P 1'
_cell_length_a   3.78195800
_cell_length_b   3.78195800
_cell_length_c   12.29058500
_cell_angle_alpha   90.00000000
_cell_angle_beta   90.00000000
_cell_angle_gamma   90.00000000
_symmetry_Int_Tables_number   1
_chemical_formula_structural   Sr2CaTlCu2O7
_chemical_formula_sum   'Sr2 Ca1 Tl1 Cu2 O7'
_cell_volume   175.79477297
_cell_formula_units_Z   1
loop_
 _symmetry_equiv_pos_site_id
 _symmetry_equiv_pos_as_xyz
  1  'x, y, z'
loop_
 _atom_site_type_symbol
 _atom_site_label
 _atom_site_symmetry_multiplicity
 _atom_site_fract_x
 _atom_site_fract_y
 _atom_site_fract_z
 _atom_site_occupancy
  Sr  Sr0  1  0.50000000  0.50000000  0.20906500  1
  Sr  Sr1  1  0.50000000  0.50000000  0.79093500  1
  Ca  Ca0  1  0.50000000  0.50000000  0.50000000  1
  Tl  Tl0  1  0.00000000  0.00000000  0.00000000  1
  Cu  Cu0  1  0.00000000  0.00000000  0.35682300  1
  Cu  Cu1  1  0.00000000  0.00000000  0.64317700  1
  O  O0  1  0.50000000  0.00000000  0.62813600  1
  O  O1  1  0.00000000  0.50000000  0.62813600  1
  O  O2  1  0.50000000  0.00000000  0.37186400  1
  O  O3  1  0.00000000  0.50000000  0.37186400  1
  O  O4  1  0.00000000  0.00000000  0.82790300  1
  O  O5  1  0.00000000  0.00000000  0.17209700  1
  O  O6  1  0.50000000  0.50000000  0.00000000  1
loop_
_geom_bond_atom_site_label_1
_geom_bond_atom_site_label_2
_geom_bond_distance
_geom_bond_site_symmetry_2
Ca0 O2 2.460895 1_555
Ca0 O1 2.460895 1_655
Ca0 O3 2.460895 1_555
Ca0 O3 2.460895 1_655
Ca0 O2 2.460895 1_565
Ca0 O1 2.460895 1_555
Ca0 O0 2.460895 1_555
Ca0 O0 2.460895 1_565
Cu0 O3 1.899994 1_545
Cu0 O2 1.899994 1_455
Cu0 O2 1.899994 1_555
Cu0 O3 1.899994 1_555
Cu0 O5 2.270391 1_555
Cu1 O1 1.899994 1_545
Cu1 O0 1.899994 1_455
Cu1 O1 1.899994 1_555
Cu1 O0 1.899994 1_555
Cu1 O4 2.270391 1_555
O0 Sr1 2.753068 1_545
O0 Sr1 2.753068 1_555
O1 Sr1 2.753068 1_455
O1 Sr1 2.753068 1_555
O2 Sr0 2.753068 1_545
O2 Sr0 2.753068 1_555
O3 Sr0 2.753068 1_455
O3 Sr0 2.753068 1_555
O4 Tl0 2.115173 1_556
O4 Sr1 2.712572 1_455
O4 Sr1 2.712572 1_555
O4 Sr1 2.712572 1_445
O4 Sr1 2.712572 1_545
O5 Tl0 2.115173 1_555
O5 Sr0 2.712572 1_445
O5 Sr0 2.712572 1_545
O5 Sr0 2.712572 1_555
O5 Sr0 2.712572 1_455
O6 Sr1 2.569531 1_554
O6 Sr0 2.569531 1_555
O6 Tl0 2.674248 1_665
O6 Tl0 2.674248 1_555
O6 Tl0 2.674248 1_655
O6 Tl0 2.674248 1_565
