# generated using pymatgen
data_K4Be3O5
_symmetry_space_group_name_H-M   'P 1'
_cell_length_a   6.28590976
_cell_length_b   6.28590976
_cell_length_c   10.72232841
_cell_angle_alpha   67.36723799
_cell_angle_beta   67.36723799
_cell_angle_gamma   70.23064877
_symmetry_Int_Tables_number   1
_chemical_formula_structural   K4Be3O5
_chemical_formula_sum   'K8 Be6 O10'
_cell_volume   351.82211313
_cell_formula_units_Z   2
loop_
 _symmetry_equiv_pos_site_id
 _symmetry_equiv_pos_as_xyz
  1  'x, y, z'
loop_
 _atom_site_type_symbol
 _atom_site_label
 _atom_site_symmetry_multiplicity
 _atom_site_fract_x
 _atom_site_fract_y
 _atom_site_fract_z
 _atom_site_occupancy
  K  K0  1  0.44264703  0.22473792  0.59456548  1
  K  K1  1  0.77526208  0.55735297  0.90543452  1
  K  K2  1  0.55735297  0.77526208  0.40543452  1
  K  K3  1  0.22473792  0.44264703  0.09456548  1
  K  K4  1  0.25425231  0.09148060  0.92443939  1
  K  K5  1  0.90851940  0.74574769  0.57556061  1
  K  K6  1  0.74574769  0.90851940  0.07556061  1
  K  K7  1  0.09148060  0.25425231  0.42443939  1
  Be  Be0  1  0.31099912  0.68900088  0.75000000  1
  Be  Be1  1  0.68900088  0.31099912  0.25000000  1
  Be  Be2  1  0.26737680  0.73262320  0.25000000  1
  Be  Be3  1  0.73262320  0.26737680  0.75000000  1
  Be  Be4  1  0.97904173  0.02095827  0.25000000  1
  Be  Be5  1  0.02095827  0.97904173  0.75000000  1
  O  O0  1  0.47770645  0.52229355  0.25000000  1
  O  O1  1  0.52229355  0.47770645  0.75000000  1
  O  O2  1  0.87433151  0.22815291  0.12152970  1
  O  O3  1  0.77184709  0.12566849  0.37847030  1
  O  O4  1  0.12566849  0.77184709  0.87847030  1
  O  O5  1  0.22815291  0.87433151  0.62152970  1
  O  O6  1  0.26566113  0.99019088  0.23180652  1
  O  O7  1  0.00980912  0.73433887  0.26819348  1
  O  O8  1  0.73433887  0.00980912  0.76819348  1
  O  O9  1  0.99019088  0.26566113  0.73180652  1
loop_
_geom_bond_atom_site_label_1
_geom_bond_atom_site_label_2
_geom_bond_distance
_geom_bond_site_symmetry_2
K0 O3 2.566547 1_555
K0 O9 2.625986 1_455
K0 O8 2.769248 1_555
K0 O5 2.823445 1_545
K0 O1 2.962637 1_555
K1 O2 2.566547 1_556
K1 O8 2.625986 1_565
K1 O9 2.769248 1_555
K1 O4 2.823445 1_655
K1 O1 2.962637 1_555
K2 O5 2.566547 1_555
K2 O7 2.625986 1_655
K2 O6 2.769248 1_555
K2 O3 2.823445 1_565
K2 O0 2.962637 1_555
K3 O4 2.566547 1_554
K3 O6 2.625986 1_545
K3 O7 2.769248 1_555
K3 O2 2.823445 1_455
K3 O0 2.962637 1_555
K4 O2 2.651865 1_456
K4 O4 2.664667 1_545
K4 O9 2.808712 1_455
K4 O8 2.810701 1_555
K4 O1 3.012987 1_555
K4 O6 3.131794 1_546
K5 O3 2.651865 1_565
K5 O5 2.664667 1_655
K5 O8 2.808712 1_565
K5 O9 2.810701 1_555
K5 O1 3.012987 1_555
K5 O7 3.131794 1_655
K6 O4 2.651865 1_654
K6 O2 2.664667 1_565
K6 O7 2.808712 1_655
K6 O6 2.810701 1_555
K6 O0 3.012987 1_555
K6 O8 3.131794 1_564
K7 O5 2.651865 1_545
K7 O3 2.664667 1_455
K7 O6 2.808712 1_545
K7 O7 2.810701 1_555
K7 O0 3.012987 1_555
K7 O9 3.131794 1_455
Be0 O1 1.528000 1_555
Be0 O4 1.559642 1_555
Be0 O5 1.559642 1_555
Be1 O0 1.528000 1_555
Be1 O2 1.559642 1_555
Be1 O3 1.559642 1_555
Be2 O0 1.521023 1_555
Be2 O6 1.551196 1_555
Be2 O7 1.551196 1_555
Be3 O1 1.521023 1_555
Be3 O9 1.551196 1_555
Be3 O8 1.551196 1_555
Be4 O3 1.662564 1_555
Be4 O2 1.662564 1_555
Be4 O6 1.686498 1_645
Be4 O7 1.686498 1_645
Be5 O5 1.662564 1_555
Be5 O4 1.662564 1_555
Be5 O9 1.686498 1_465
Be5 O8 1.686498 1_465
