# generated using pymatgen
data_NaTa2Nb2Si3(PO8)3
_symmetry_space_group_name_H-M   'P 1'
_cell_length_a   8.85225325
_cell_length_b   8.85491357
_cell_length_c   22.84362643
_cell_angle_alpha   90.06348167
_cell_angle_beta   90.14363543
_cell_angle_gamma   119.97251598
_symmetry_Int_Tables_number   1
_chemical_formula_structural   NaTa2Nb2Si3(PO8)3
_chemical_formula_sum   'Na3 Ta6 Nb6 Si9 P9 O72'
_cell_volume   1551.14026217
_cell_formula_units_Z   3
loop_
 _symmetry_equiv_pos_site_id
 _symmetry_equiv_pos_as_xyz
  1  'x, y, z'
loop_
 _atom_site_type_symbol
 _atom_site_label
 _atom_site_symmetry_multiplicity
 _atom_site_fract_x
 _atom_site_fract_y
 _atom_site_fract_z
 _atom_site_occupancy
  Na  Na0  1  0.99978976  0.99742489  0.99904526  1
  Na  Na1  1  0.66604506  0.33142373  0.83614673  1
  Na  Na2  1  0.66739468  0.33195435  0.33108734  1
  Ta  Ta0  1  0.99624191  0.00087566  0.35841313  1
  Ta  Ta1  1  0.99843438  0.00163774  0.64453713  1
  Ta  Ta2  1  0.66526561  0.33301538  0.68930608  1
  Ta  Ta3  1  0.66877717  0.33393512  0.47737061  1
  Ta  Ta4  1  0.33461755  0.67068178  0.52215030  1
  Ta  Ta5  1  0.32964527  0.66836914  0.30954087  1
  Nb  Nb0  1  0.00253421  0.00407578  0.85609113  1
  Nb  Nb1  1  0.00363143  0.00421494  0.14472307  1
  Nb  Nb2  1  0.67191604  0.33825563  0.18715721  1
  Nb  Nb3  1  0.66147374  0.33652693  0.97726304  1
  Nb  Nb4  1  0.33450710  0.66964981  0.02414440  1
  Nb  Nb5  1  0.34183932  0.67068643  0.80873443  1
  Si  Si0  1  0.99875777  0.28598892  0.25118311  1
  Si  Si1  1  0.28419762  0.28559183  0.74962651  1
  Si  Si2  1  0.71624830  0.00154003  0.74927097  1
  Si  Si3  1  0.95373494  0.62124654  0.08279799  1
  Si  Si4  1  0.37974750  0.33373403  0.08350602  1
  Si  Si5  1  0.61992197  0.66923725  0.91663068  1
  Si  Si6  1  0.33371465  0.95135026  0.91650172  1
  Si  Si7  1  0.61620280  0.95039565  0.41680061  1
  Si  Si8  1  0.04949107  0.66759292  0.41640053  1
  P  P0  1  0.28592961  0.00220907  0.25114981  1
  P  P1  1  0.71480591  0.71506754  0.25119881  1
  P  P2  1  0.00005854  0.71619568  0.74939796  1
  P  P3  1  0.95289104  0.33376197  0.58324358  1
  P  P4  1  0.38089967  0.04808134  0.58321235  1
  P  P5  1  0.66643989  0.61846322  0.58315364  1
  P  P6  1  0.66779052  0.04897970  0.08310265  1
  P  P7  1  0.04855734  0.38363597  0.91648566  1
  P  P8  1  0.33428898  0.38444606  0.41661790  1
  O  O0  1  0.19851467  0.02883239  0.30510897  1
  O  O1  1  0.83237252  0.80130850  0.30559026  1
  O  O2  1  0.97186618  0.16272375  0.30764297  1
  O  O3  1  0.19909668  0.16144648  0.80653215  1
  O  O4  1  0.96314338  0.79545389  0.80367518  1
  O  O5  1  0.83749388  0.03396347  0.80648592  1
  O  O6  1  0.80750234  0.97248031  0.69132226  1
  O  O7  1  0.16585720  0.18846659  0.69153813  1
  O  O8  1  0.02467819  0.82793493  0.69404448  1
  O  O9  1  0.79888538  0.82494008  0.19634085  1
  O  O10  1  0.02479092  0.19211451  0.19333063  1
  O  O11  1  0.17232225  0.97142409  0.19580232  1
  O  O12  1  0.86608852  0.36335433  0.63710197  1
  O  O13  1  0.49896420  0.13681162  0.63739173  1
  O  O14  1  0.63858438  0.50237486  0.63717232  1
  O  O15  1  0.86129141  0.49944100  0.14116937  1
  O  O16  1  0.64218570  0.13559519  0.13859235  1
  O  O17  1  0.49871645  0.35756221  0.14142118  1
  O  O18  1  0.46958979  0.29828343  0.02630418  1
  O  O19  1  0.82943748  0.52690163  0.02624666  1
  O  O20  1  0.70042333  0.16254869  0.02881901  1
  O  O21  1  0.46820211  0.16404166  0.52910278  1
  O  O22  1  0.69385827  0.52930500  0.52890382  1
  O  O23  1  0.83441418  0.30487508  0.52883270  1
  O  O24  1  0.52922320  0.69570718  0.97408857  1
  O  O25  1  0.16060197  0.46526947  0.97158096  1
  O  O26  1  0.30344358  0.83331391  0.97444979  1
  O  O27  1  0.52605202  0.83040199  0.47479529  1
  O  O28  1  0.30555343  0.46759080  0.47190489  1
  O  O29  1  0.16790896  0.69146964  0.47448477  1
  O  O30  1  0.13775458  0.63089777  0.35976816  1
  O  O31  1  0.49564467  0.86150001  0.35971987  1
  O  O32  1  0.36896171  0.49947575  0.36245144  1
  O  O33  1  0.12977113  0.49254477  0.86147054  1
  O  O34  1  0.35822693  0.85825749  0.85862682  1
  O  O35  1  0.49860998  0.63587215  0.85850211  1
  O  O36  1  0.03002444  0.83697620  0.40523527  1
  O  O37  1  0.80897715  0.97469590  0.40696436  1
  O  O38  1  0.17533737  0.20183893  0.40693602  1
  O  O39  1  0.02948730  0.19881649  0.90974606  1
  O  O40  1  0.16293879  0.97620491  0.90907750  1
  O  O41  1  0.81367612  0.83949826  0.90872482  1
  O  O42  1  0.97002748  0.16983051  0.59190407  1
  O  O43  1  0.19885862  0.02493093  0.59269598  1
  O  O44  1  0.82915876  0.79876041  0.59225391  1
  O  O45  1  0.96957085  0.81099466  0.09249714  1
  O  O46  1  0.82941718  0.02598259  0.09184017  1
  O  O47  1  0.18652961  0.15968949  0.09158122  1
  O  O48  1  0.69696332  0.17519465  0.73895128  1
  O  O49  1  0.48006231  0.31068143  0.73883806  1
  O  O50  1  0.83496449  0.53232029  0.73871595  1
  O  O51  1  0.69331262  0.53017576  0.24451323  1
  O  O52  1  0.82530938  0.30598415  0.24429021  1
  O  O53  1  0.46906883  0.16325793  0.24402844  1
  O  O54  1  0.64263357  0.49632687  0.92286295  1
  O  O55  1  0.86331471  0.35796627  0.92384084  1
  O  O56  1  0.50853234  0.14345576  0.92342775  1
  O  O57  1  0.63707281  0.14412331  0.42734316  1
  O  O58  1  0.49693759  0.36208343  0.42685019  1
  O  O59  1  0.85399004  0.49702159  0.42720276  1
  O  O60  1  0.35967431  0.50239461  0.07350727  1
  O  O61  1  0.14306837  0.64035898  0.07410316  1
  O  O62  1  0.50569099  0.86846058  0.07595582  1
  O  O63  1  0.36364095  0.86641453  0.57420477  1
  O  O64  1  0.50338757  0.63594360  0.57354187  1
  O  O65  1  0.13478987  0.49305081  0.57317283  1
  O  O66  1  0.30445289  0.83799429  0.25962718  1
  O  O67  1  0.53359499  0.69511019  0.26118841  1
  O  O68  1  0.17203929  0.47630593  0.26066874  1
  O  O69  1  0.30006800  0.47312750  0.75872259  1
  O  O70  1  0.15717451  0.69228001  0.75766073  1
  O  O71  1  0.52376369  0.83368439  0.75768467  1
loop_
_geom_bond_atom_site_label_1
_geom_bond_atom_site_label_2
_geom_bond_distance
_geom_bond_site_symmetry_2
Na0 O41 2.569330 1_555
Na0 O40 2.574899 1_655
Na0 O47 2.620699 1_666
Na0 O45 2.631254 1_556
Na0 O39 2.636831 1_665
Na0 O46 2.688475 1_566
Na1 O56 2.528294 1_555
Na1 O54 2.529264 1_555
Na1 O55 2.586326 1_555
Na1 O48 2.700549 1_555
Na1 O49 2.713683 1_555
Na1 O50 2.778808 1_555
Na2 O52 2.504484 1_555
Na2 O53 2.573769 1_555
Na2 O51 2.579194 1_555
Na2 O57 2.690396 1_555
Na2 O59 2.692207 1_555
Na2 O58 2.747908 1_555
Nb0 O3 1.960065 1_555
Nb0 O5 1.966533 1_455
Nb0 O40 1.970888 1_545
Nb0 O41 1.985952 1_445
Nb0 O39 2.028683 1_555
Nb0 O4 2.077809 1_445
Nb1 O10 1.928686 1_555
Nb1 O47 1.943401 1_555
Nb1 O45 1.979850 1_445
Nb1 O11 2.025089 1_545
Nb1 O46 2.040353 1_455
Nb1 O9 2.082178 1_445
Nb2 O15 1.890107 1_555
Nb2 O17 1.930225 1_555
Nb2 O52 2.002121 1_555
Nb2 O16 2.010630 1_555
Nb2 O51 2.076737 1_555
Nb2 O53 2.132914 1_555
Nb3 O18 1.921093 1_556
Nb3 O19 1.946194 1_556
Nb3 O54 1.952698 1_555
Nb3 O56 1.985571 1_555
Nb3 O55 2.095305 1_555
Nb3 O20 2.100468 1_556
Nb4 O61 1.952629 1_555
Nb4 O60 1.961313 1_555
Nb4 O26 1.965920 1_554
Nb4 O24 1.986171 1_554
Nb4 O62 2.029092 1_555
Nb4 O25 2.071022 1_554
Nb5 O71 1.930631 1_555
Nb5 O35 1.932295 1_555
Nb5 O34 1.957784 1_555
Nb5 O69 1.961973 1_555
Nb5 O70 2.091233 1_555
Nb5 O33 2.126138 1_555
O0 P0 1.536276 1_555
O0 Ta0 2.078178 1_455
O1 P1 1.551581 1_555
O1 Ta0 2.026899 1_565
O2 Si0 1.629889 1_555
O2 Ta0 1.938292 1_555
O3 Si1 1.626780 1_555
O4 P2 1.538156 1_655
O5 Si2 1.620764 1_555
O6 Si2 1.638108 1_565
O6 Ta1 1.907675 1_565
O7 Si1 1.639565 1_555
O7 Ta1 1.903798 1_455
O8 P2 1.553732 1_555
O8 Ta1 2.014538 1_465
O9 P1 1.534527 1_555
O10 Si0 1.637407 1_455
O11 P0 1.550224 1_565
O12 P3 1.542075 1_555
O12 Ta2 2.046655 1_555
O13 P4 1.553158 1_555
O13 Ta2 2.005789 1_555
O14 P5 1.546374 1_555
O14 Ta2 2.019785 1_555
O15 Si3 1.654614 1_555
O16 P6 1.555436 1_555
O17 Si4 1.635332 1_555
O18 Si4 1.640811 1_555
O19 Si3 1.627722 1_555
O20 P6 1.531911 1_555
O21 P4 1.547309 1_555
O21 Ta3 2.039079 1_555
O22 P5 1.552023 1_555
O22 Ta3 2.009564 1_555
O23 P3 1.560449 1_555
O23 Ta3 1.991769 1_555
O24 Si5 1.617090 1_555
O25 P7 1.538069 1_555
O26 Si6 1.625284 1_555
O27 Si7 1.637725 1_555
O27 Ta4 1.913134 1_555
O28 P8 1.545473 1_555
O28 Ta4 2.036990 1_555
O29 Si8 1.635562 1_555
O29 Ta4 1.913406 1_555
O30 Si8 1.627112 1_555
O30 Ta5 1.938938 1_555
O31 Si7 1.615605 1_555
O31 Ta5 1.968296 1_555
O32 P8 1.534629 1_555
O32 Ta5 2.083413 1_555
O33 P7 1.529955 1_555
O34 Si6 1.628565 1_555
O35 Si5 1.636679 1_555
O36 Si8 1.613458 1_555
O36 Ta0 1.943003 1_465
O37 Si7 1.626046 1_555
O37 Ta0 1.912498 1_565
O38 P8 1.538738 1_555
O38 Ta0 2.019088 1_455
O39 P7 1.566461 1_555
O40 Si6 1.641288 1_555
O41 Si5 1.632740 1_555
O42 P3 1.545896 1_555
O42 Ta1 2.025734 1_555
O43 P4 1.535442 1_555
O43 Ta1 2.058691 1_455
O44 P5 1.538480 1_555
O44 Ta1 2.048340 1_565
O45 Si3 1.629571 1_555
O46 P6 1.555041 1_555
O47 Si4 1.644106 1_555
O48 Si2 1.646851 1_555
O48 Ta2 1.926541 1_555
O49 Si1 1.653388 1_555
O49 Ta2 1.921736 1_555
O50 P2 1.570413 1_655
O50 Ta2 1.995839 1_555
O51 P1 1.558207 1_555
O52 Si0 1.638322 1_555
O53 P0 1.542802 1_555
O54 Si5 1.647084 1_555
O55 P7 1.548525 1_655
O56 Si6 1.637511 1_545
O57 Si7 1.648355 1_545
O57 Ta3 1.931986 1_555
O58 P8 1.565304 1_555
O58 Ta3 2.019561 1_555
O59 Si8 1.651804 1_655
O59 Ta3 1.932435 1_555
O60 Si4 1.606214 1_555
O61 Si3 1.611053 1_455
O62 P6 1.532085 1_565
O63 P4 1.551439 1_565
O63 Ta4 2.008219 1_555
O64 P5 1.541828 1_555
O64 Ta4 2.038634 1_555
O65 P3 1.538983 1_455
O65 Ta4 2.048407 1_555
O66 P0 1.554837 1_565
O66 Ta5 1.985716 1_555
O67 P1 1.541168 1_555
O67 Ta5 2.029542 1_555
O68 Si0 1.629283 1_455
O68 Ta5 1.924178 1_555
O69 Si1 1.608270 1_555
O70 P2 1.519193 1_555
O71 Si2 1.619037 1_565
