# generated using pymatgen
data_InSnBr3
_symmetry_space_group_name_H-M   'P 1'
_cell_length_a   7.78272723
_cell_length_b   7.78272723
_cell_length_c   7.78272589
_cell_angle_alpha   66.04772618
_cell_angle_beta   66.04772618
_cell_angle_gamma   66.04771977
_symmetry_Int_Tables_number   1
_chemical_formula_structural   InSnBr3
_chemical_formula_sum   'In2 Sn2 Br6'
_cell_volume   376.94058456
_cell_formula_units_Z   2
loop_
 _symmetry_equiv_pos_site_id
 _symmetry_equiv_pos_as_xyz
  1  'x, y, z'
loop_
 _atom_site_type_symbol
 _atom_site_label
 _atom_site_symmetry_multiplicity
 _atom_site_fract_x
 _atom_site_fract_y
 _atom_site_fract_z
 _atom_site_occupancy
  In  In0  1  0.71749033  0.71749033  0.71749033  1
  In  In1  1  0.21749033  0.21749033  0.21749033  1
  Sn  Sn0  1  -0.00530576  -0.00530576  -0.00530576  1
  Sn  Sn1  1  0.49469424  0.49469424  0.49469424  1
  Br  Br0  1  0.81179397  0.11629340  0.33123106  1
  Br  Br1  1  0.11629340  0.33123106  0.81179397  1
  Br  Br2  1  0.33123106  0.81179397  0.11629340  1
  Br  Br3  1  0.83123106  0.61629340  0.31179397  1
  Br  Br4  1  0.31179397  0.83123106  0.61629340  1
  Br  Br5  1  0.61629340  0.31179397  0.83123106  1
loop_
_geom_bond_atom_site_label_1
_geom_bond_atom_site_label_2
_geom_bond_distance
_geom_bond_site_symmetry_2
Br0 Sn0 2.770116 1_655
Br0 In1 3.249133 1_655
Br1 Sn0 2.770116 1_556
Br1 In1 3.249133 1_556
Br2 Sn0 2.770116 1_565
Br2 In1 3.249133 1_565
Br3 Sn1 2.770116 1_555
Br3 In0 3.249133 1_555
Br4 Sn1 2.770116 1_555
Br4 In0 3.249133 1_555
Br5 Sn1 2.770116 1_555
Br5 In0 3.249133 1_555
