# generated using pymatgen
data_H2C(NO)2
_symmetry_space_group_name_H-M   'P 1'
_cell_length_a   7.06759300
_cell_length_b   7.07283200
_cell_length_c   13.28819864
_cell_angle_alpha   59.22422888
_cell_angle_beta   90.00000000
_cell_angle_gamma   90.00000000
_symmetry_Int_Tables_number   1
_chemical_formula_structural   H2C(NO)2
_chemical_formula_sum   'H16 C8 N16 O16'
_cell_volume   570.70713184
_cell_formula_units_Z   8
loop_
 _symmetry_equiv_pos_site_id
 _symmetry_equiv_pos_as_xyz
  1  'x, y, z'
loop_
 _atom_site_type_symbol
 _atom_site_label
 _atom_site_symmetry_multiplicity
 _atom_site_fract_x
 _atom_site_fract_y
 _atom_site_fract_z
 _atom_site_occupancy
  H  H0  1  0.34617200  0.37734300  0.36384300  1
  H  H1  1  0.84617200  0.62265700  0.13615700  1
  H  H2  1  0.65382800  0.62265700  0.63615700  1
  H  H3  1  0.15382800  0.37734300  0.86384300  1
  H  H4  1  0.29767800  0.48760600  0.45431800  1
  H  H5  1  0.79767800  0.51239400  0.04568200  1
  H  H6  1  0.70232200  0.51239400  0.54568200  1
  H  H7  1  0.20232200  0.48760600  0.95431800  1
  H  H8  1  0.30375700  0.84277200  0.06909500  1
  H  H9  1  0.80375700  0.15722800  0.43090500  1
  H  H10  1  0.69624300  0.15722800  0.93090500  1
  H  H11  1  0.19624300  0.84277200  0.56909500  1
  H  H12  1  0.19819300  0.01437900  0.93193300  1
  H  H13  1  0.69819300  0.98562100  0.56806700  1
  H  H14  1  0.80180700  0.98562100  0.06806700  1
  H  H15  1  0.30180700  0.01437900  0.43193300  1
  C  C0  1  0.17342300  0.13012000  0.63809200  1
  C  C1  1  0.67342300  0.86988000  0.86190800  1
  C  C2  1  0.82657700  0.86988000  0.36190800  1
  C  C3  1  0.25921200  0.16140800  0.02643500  1
  C  C4  1  0.24078800  0.16140800  0.52643500  1
  C  C5  1  0.74078800  0.83859200  0.97356500  1
  C  C6  1  0.75921200  0.83859200  0.47356500  1
  C  C7  1  0.32657700  0.13012000  0.13809200  1
  N  N0  1  0.29842000  0.35768500  0.44122100  1
  N  N1  1  0.79842000  0.64231500  0.05877900  1
  N  N2  1  0.70158000  0.64231500  0.55877900  1
  N  N3  1  0.20158000  0.35768500  0.94122100  1
  N  N4  1  0.24693600  0.99117200  0.00978000  1
  N  N5  1  0.86624400  0.08567200  0.26743400  1
  N  N6  1  0.63375600  0.08567200  0.76743400  1
  N  N7  1  0.13375600  0.91432800  0.73256600  1
  N  N8  1  0.34983500  0.30410500  0.15960900  1
  N  N9  1  0.84983500  0.69589500  0.34039100  1
  N  N10  1  0.65016500  0.69589500  0.84039100  1
  N  N11  1  0.15016500  0.30410500  0.65960900  1
  N  N12  1  0.25306400  0.99117200  0.50978000  1
  N  N13  1  0.75306400  0.00882800  0.99022000  1
  N  N14  1  0.74693600  0.00882800  0.49022000  1
  N  N15  1  0.36624400  0.91432800  0.23256600  1
  O  O0  1  0.33547400  0.86419100  0.33613800  1
  O  O1  1  0.83547400  0.13580900  0.16386200  1
  O  O2  1  0.66452600  0.13580900  0.66386200  1
  O  O3  1  0.16452600  0.86419100  0.83613800  1
  O  O4  1  0.42801300  0.77419000  0.20933900  1
  O  O5  1  0.92801300  0.22581000  0.29066100  1
  O  O6  1  0.57198700  0.22581000  0.79066100  1
  O  O7  1  0.07198700  0.77419000  0.70933900  1
  O  O8  1  0.29675700  0.49476900  0.08251900  1
  O  O9  1  0.79675700  0.50523100  0.41748100  1
  O  O10  1  0.70324300  0.50523100  0.91748100  1
  O  O11  1  0.20324300  0.49476900  0.58251900  1
  O  O12  1  0.43043100  0.27064600  0.25166700  1
  O  O13  1  0.93043100  0.72935400  0.24833300  1
  O  O14  1  0.56956900  0.72935400  0.74833300  1
  O  O15  1  0.06956900  0.27064600  0.75166700  1
loop_
_geom_bond_atom_site_label_1
_geom_bond_atom_site_label_2
_geom_bond_distance
_geom_bond_site_symmetry_2
H0 N0 1.021840 1_555
H1 N1 1.021840 1_555
H2 N2 1.021840 1_555
H3 N3 1.021840 1_555
H4 N0 1.019004 1_555
H5 N1 1.019004 1_555
H6 N2 1.019004 1_555
H7 N3 1.019004 1_555
H8 N4 1.018616 1_555
H9 N14 1.018616 1_555
H10 N13 1.018616 1_555
H11 N12 1.018616 1_555
H12 N4 1.020754 1_546
H13 N14 1.020754 1_565
H14 N13 1.020754 1_564
H15 N12 1.020754 1_545
C0 N11 1.408237 1_555
C0 N7 1.422414 1_545
C0 C4 1.463239 1_555
C1 N10 1.408237 1_555
C1 N6 1.422414 1_565
C1 C5 1.463239 1_555
C2 N9 1.408237 1_555
C2 N5 1.422414 1_565
C2 C6 1.463239 1_555
C3 N3 1.329145 1_554
C3 N4 1.333771 1_545
C3 C7 1.463239 1_555
C4 N0 1.329145 1_555
C4 N12 1.333771 1_545
C5 N1 1.329145 1_556
C5 N13 1.333771 1_565
C6 N2 1.329145 1_555
C6 N14 1.333771 1_565
C7 N8 1.408237 1_555
C7 N15 1.422414 1_545
N5 O1 1.252101 1_555
N5 O5 1.257511 1_555
N6 O2 1.252101 1_555
N6 O6 1.257511 1_555
N7 O3 1.252101 1_555
N7 O7 1.257511 1_555
N8 O12 1.257236 1_555
N8 O8 1.262913 1_555
N9 O13 1.257236 1_555
N9 O9 1.262913 1_555
N10 O14 1.257236 1_555
N10 O10 1.262913 1_555
N11 O15 1.257236 1_555
N11 O11 1.262913 1_555
N15 O0 1.252101 1_555
N15 O4 1.257511 1_555
