# generated using pymatgen
data_MgTe2Mo2W(SeS)2
_symmetry_space_group_name_H-M   'P 1'
_cell_length_a   6.69642600
_cell_length_b   6.69650266
_cell_length_c   61.86226200
_cell_angle_alpha   90.00044199
_cell_angle_beta   90.00000371
_cell_angle_gamma   119.99810766
_symmetry_Int_Tables_number   1
_chemical_formula_structural   MgTe2Mo2W(SeS)2
_chemical_formula_sum   'Mg8 Te16 Mo16 W8 Se16 S16'
_cell_volume   2402.45813333
_cell_formula_units_Z   8
loop_
 _symmetry_equiv_pos_site_id
 _symmetry_equiv_pos_as_xyz
  1  'x, y, z'
loop_
 _atom_site_type_symbol
 _atom_site_label
 _atom_site_symmetry_multiplicity
 _atom_site_fract_x
 _atom_site_fract_y
 _atom_site_fract_z
 _atom_site_occupancy
  Mg  Mg0_0  1  0.34130500  0.17431450  0.42782200  1
  Mg  Mg0_1  1  0.34130500  0.17431450  0.92782200  1
  Mg  Mg0_2  1  0.34130500  0.67431450  0.42782200  1
  Mg  Mg0_3  1  0.34130500  0.67431450  0.92782200  1
  Mg  Mg0_4  1  0.84130500  0.17431450  0.42782200  1
  Mg  Mg0_5  1  0.84130500  0.17431450  0.92782200  1
  Mg  Mg0_6  1  0.84130500  0.67431450  0.42782200  1
  Mg  Mg0_7  1  0.84130500  0.67431450  0.92782200  1
  Te  Te0_0  1  0.33332050  0.16664050  0.25837300  1
  Te  Te0_1  1  0.33332050  0.16664050  0.75837300  1
  Te  Te0_2  1  0.33332050  0.66664050  0.25837300  1
  Te  Te0_3  1  0.33332050  0.66664050  0.75837300  1
  Te  Te0_4  1  0.83332050  0.16664050  0.25837300  1
  Te  Te0_5  1  0.83332050  0.16664050  0.75837300  1
  Te  Te0_6  1  0.83332050  0.66664050  0.25837300  1
  Te  Te0_7  1  0.83332050  0.66664050  0.75837300  1
  Te  Te1_0  1  0.33332050  0.16664050  0.31993400  1
  Te  Te1_1  1  0.33332050  0.16664050  0.81993400  1
  Te  Te1_2  1  0.33332050  0.66664050  0.31993400  1
  Te  Te1_3  1  0.33332050  0.66664050  0.81993400  1
  Te  Te1_4  1  0.83332050  0.16664050  0.31993400  1
  Te  Te1_5  1  0.83332050  0.16664050  0.81993400  1
  Te  Te1_6  1  0.83332050  0.66664050  0.31993400  1
  Te  Te1_7  1  0.83332050  0.66664050  0.81993400  1
  Mo  Mo0_0  1  0.16665600  0.33331300  0.05782000  1
  Mo  Mo0_1  1  0.16665600  0.33331300  0.55782000  1
  Mo  Mo0_2  1  0.16665600  0.83331300  0.05782000  1
  Mo  Mo0_3  1  0.16665600  0.83331300  0.55782000  1
  Mo  Mo0_4  1  0.66665600  0.33331300  0.05782000  1
  Mo  Mo0_5  1  0.66665600  0.33331300  0.55782000  1
  Mo  Mo0_6  1  0.66665600  0.83331300  0.05782000  1
  Mo  Mo0_7  1  0.66665600  0.83331300  0.55782000  1
  Mo  Mo1_0  1  0.33334800  0.16670250  0.17347850  1
  Mo  Mo1_1  1  0.33334800  0.16670250  0.67347850  1
  Mo  Mo1_2  1  0.33334800  0.66670250  0.17347850  1
  Mo  Mo1_3  1  0.33334800  0.66670250  0.67347850  1
  Mo  Mo1_4  1  0.83334800  0.16670250  0.17347850  1
  Mo  Mo1_5  1  0.83334800  0.16670250  0.67347850  1
  Mo  Mo1_6  1  0.83334800  0.66670250  0.17347850  1
  Mo  Mo1_7  1  0.83334800  0.66670250  0.67347850  1
  W  W0_0  1  0.16665500  0.33331000  0.28917250  1
  W  W0_1  1  0.16665500  0.33331000  0.78917250  1
  W  W0_2  1  0.16665500  0.83331000  0.28917250  1
  W  W0_3  1  0.16665500  0.83331000  0.78917250  1
  W  W0_4  1  0.66665500  0.33331000  0.28917250  1
  W  W0_5  1  0.66665500  0.33331000  0.78917250  1
  W  W0_6  1  0.66665500  0.83331000  0.28917250  1
  W  W0_7  1  0.66665500  0.83331000  0.78917250  1
  Se  Se0_0  1  0.33331950  0.16663850  0.03094400  1
  Se  Se0_1  1  0.33331950  0.16663850  0.53094400  1
  Se  Se0_2  1  0.33331950  0.66663850  0.03094400  1
  Se  Se0_3  1  0.33331950  0.66663850  0.53094400  1
  Se  Se0_4  1  0.83331950  0.16663850  0.03094400  1
  Se  Se0_5  1  0.83331950  0.16663850  0.53094400  1
  Se  Se0_6  1  0.83331950  0.66663850  0.03094400  1
  Se  Se0_7  1  0.83331950  0.66663850  0.53094400  1
  Se  Se1_0  1  0.33332550  0.16665000  0.08472550  1
  Se  Se1_1  1  0.33332550  0.16665000  0.58472550  1
  Se  Se1_2  1  0.33332550  0.66665000  0.08472550  1
  Se  Se1_3  1  0.33332550  0.66665000  0.58472550  1
  Se  Se1_4  1  0.83332550  0.16665000  0.08472550  1
  Se  Se1_5  1  0.83332550  0.16665000  0.58472550  1
  Se  Se1_6  1  0.83332550  0.66665000  0.08472550  1
  Se  Se1_7  1  0.83332550  0.66665000  0.58472550  1
  S  S0_0  1  0.16667850  0.33335300  0.19794950  1
  S  S0_1  1  0.16667850  0.33335300  0.69794950  1
  S  S0_2  1  0.16667850  0.83335300  0.19794950  1
  S  S0_3  1  0.16667850  0.83335300  0.69794950  1
  S  S0_4  1  0.66667850  0.33335300  0.19794950  1
  S  S0_5  1  0.66667850  0.33335300  0.69794950  1
  S  S0_6  1  0.66667850  0.83335300  0.19794950  1
  S  S0_7  1  0.66667850  0.83335300  0.69794950  1
  S  S1_0  1  0.16667650  0.33334900  0.14902350  1
  S  S1_1  1  0.16667650  0.33334900  0.64902350  1
  S  S1_2  1  0.16667650  0.83334900  0.14902350  1
  S  S1_3  1  0.16667650  0.83334900  0.64902350  1
  S  S1_4  1  0.66667650  0.33334900  0.14902350  1
  S  S1_5  1  0.66667650  0.33334900  0.64902350  1
  S  S1_6  1  0.66667650  0.83334900  0.14902350  1
  S  S1_7  1  0.66667650  0.83334900  0.64902350  1
loop_
_geom_bond_atom_site_label_1
_geom_bond_atom_site_label_2
_geom_bond_distance
_geom_bond_site_symmetry_2
Mg0_0 Mg0_4 3.348213 1_455
Mg0_0 Mg0_4 3.348213 1_555
Mg0_0 Mg0_2 3.348251 1_555
Mg0_0 Mg0_2 3.348251 1_545
Mg0_0 Mg0_6 3.348328 1_555
Mg0_0 Mg0_6 3.348328 1_445
Mg0_1 Mg0_5 3.348213 1_555
Mg0_1 Mg0_5 3.348213 1_455
Mg0_1 Mg0_3 3.348251 1_555
Mg0_1 Mg0_3 3.348251 1_545
Mg0_1 Mg0_7 3.348328 1_555
Mg0_1 Mg0_7 3.348328 1_445
Mg0_2 Mg0_6 3.348213 1_455
Mg0_2 Mg0_6 3.348213 1_555
Mg0_2 Mg0_4 3.348328 1_455
Mg0_2 Mg0_4 3.348328 1_565
Mg0_3 Mg0_7 3.348213 1_455
Mg0_3 Mg0_7 3.348213 1_555
Mg0_3 Mg0_5 3.348328 1_455
Mg0_3 Mg0_5 3.348328 1_565
Mg0_4 Mg0_6 3.348251 1_555
Mg0_4 Mg0_6 3.348251 1_545
Mg0_5 Mg0_7 3.348251 1_555
Mg0_5 Mg0_7 3.348251 1_545
Te0_0 W0_0 2.714238 1_555
Te0_0 W0_4 2.714268 1_555
Te0_0 W0_2 2.714285 1_545
Te0_1 W0_1 2.714238 1_555
Te0_1 W0_5 2.714268 1_555
Te0_1 W0_3 2.714285 1_545
Te0_2 W0_2 2.714238 1_555
Te0_2 W0_6 2.714268 1_555
Te0_2 W0_0 2.714285 1_555
Te0_3 W0_3 2.714238 1_555
Te0_3 W0_7 2.714268 1_555
Te0_3 W0_1 2.714285 1_555
Te0_4 W0_4 2.714238 1_555
Te0_4 W0_0 2.714268 1_655
Te0_4 W0_6 2.714285 1_545
Te0_5 W0_5 2.714238 1_555
Te0_5 W0_1 2.714268 1_655
Te0_5 W0_7 2.714285 1_545
Te0_6 W0_6 2.714238 1_555
Te0_6 W0_2 2.714268 1_655
Te0_6 W0_4 2.714285 1_555
Te0_7 W0_7 2.714238 1_555
Te0_7 W0_3 2.714268 1_655
Te0_7 W0_5 2.714285 1_555
Te1_0 W0_0 2.712601 1_555
Te1_0 W0_2 2.712611 1_545
Te1_0 W0_4 2.712630 1_555
Te1_1 W0_1 2.712601 1_555
Te1_1 W0_3 2.712611 1_545
Te1_1 W0_5 2.712630 1_555
Te1_2 W0_2 2.712601 1_555
Te1_2 W0_0 2.712611 1_555
Te1_2 W0_6 2.712630 1_555
Te1_3 W0_3 2.712601 1_555
Te1_3 W0_1 2.712611 1_555
Te1_3 W0_7 2.712630 1_555
Te1_4 W0_4 2.712601 1_555
Te1_4 W0_6 2.712611 1_545
Te1_4 W0_0 2.712630 1_655
Te1_5 W0_5 2.712601 1_555
Te1_5 W0_7 2.712611 1_545
Te1_5 W0_1 2.712630 1_655
Te1_6 W0_6 2.712601 1_555
Te1_6 W0_4 2.712611 1_555
Te1_6 W0_2 2.712630 1_655
Te1_7 W0_7 2.712601 1_555
Te1_7 W0_5 2.712611 1_555
Te1_7 W0_3 2.712630 1_655
Mo0_0 Se0_0 2.549738 1_555
Mo0_0 Se0_2 2.549750 1_555
Mo0_0 Se0_4 2.549765 1_455
Mo0_0 Se1_0 2.550915 1_555
Mo0_0 Se1_4 2.550940 1_455
Mo0_0 Se1_2 2.550969 1_555
Mo0_1 Se0_1 2.549738 1_555
Mo0_1 Se0_3 2.549750 1_555
Mo0_1 Se0_5 2.549765 1_455
Mo0_1 Se1_1 2.550915 1_555
Mo0_1 Se1_5 2.550940 1_455
Mo0_1 Se1_3 2.550969 1_555
Mo0_2 Se0_2 2.549738 1_555
Mo0_2 Se0_0 2.549750 1_565
Mo0_2 Se0_6 2.549765 1_455
Mo0_2 Se1_2 2.550915 1_555
Mo0_2 Se1_6 2.550940 1_455
Mo0_2 Se1_0 2.550969 1_565
Mo0_3 Se0_3 2.549738 1_555
Mo0_3 Se0_1 2.549750 1_565
Mo0_3 Se0_7 2.549765 1_455
Mo0_3 Se1_3 2.550915 1_555
Mo0_3 Se1_7 2.550940 1_455
Mo0_3 Se1_1 2.550969 1_565
Mo0_4 Se0_4 2.549738 1_555
Mo0_4 Se0_6 2.549750 1_555
Mo0_4 Se0_0 2.549765 1_555
Mo0_4 Se1_4 2.550915 1_555
Mo0_4 Se1_0 2.550940 1_555
Mo0_4 Se1_6 2.550969 1_555
Mo0_5 Se0_5 2.549738 1_555
Mo0_5 Se0_7 2.549750 1_555
Mo0_5 Se0_1 2.549765 1_555
Mo0_5 Se1_5 2.550915 1_555
Mo0_5 Se1_1 2.550940 1_555
Mo0_5 Se1_7 2.550969 1_555
Mo0_6 Se0_6 2.549738 1_555
Mo0_6 Se0_4 2.549750 1_565
Mo0_6 Se0_2 2.549765 1_555
Mo0_6 Se1_6 2.550915 1_555
Mo0_6 Se1_2 2.550940 1_555
Mo0_6 Se1_4 2.550969 1_565
Mo0_7 Se0_7 2.549738 1_555
Mo0_7 Se0_5 2.549750 1_565
Mo0_7 Se0_3 2.549765 1_555
Mo0_7 Se1_7 2.550915 1_555
Mo0_7 Se1_3 2.550940 1_555
Mo0_7 Se1_5 2.550969 1_565
Mo1_0 S1_0 2.454626 1_555
Mo1_0 S1_4 2.454708 1_555
Mo1_0 S1_2 2.454824 1_545
Mo1_0 S0_0 2.455234 1_555
Mo1_0 S0_4 2.455317 1_555
Mo1_0 S0_2 2.455437 1_545
Mo1_1 S1_1 2.454626 1_555
Mo1_1 S1_5 2.454708 1_555
Mo1_1 S1_3 2.454824 1_545
Mo1_1 S0_1 2.455234 1_555
Mo1_1 S0_5 2.455317 1_555
Mo1_1 S0_3 2.455437 1_545
Mo1_2 S1_2 2.454626 1_555
Mo1_2 S1_6 2.454708 1_555
Mo1_2 S1_0 2.454824 1_555
Mo1_2 S0_2 2.455234 1_555
Mo1_2 S0_6 2.455317 1_555
Mo1_2 S0_0 2.455437 1_555
Mo1_3 S1_3 2.454626 1_555
Mo1_3 S1_7 2.454708 1_555
Mo1_3 S1_1 2.454824 1_555
Mo1_3 S0_3 2.455234 1_555
Mo1_3 S0_7 2.455317 1_555
Mo1_3 S0_1 2.455437 1_555
Mo1_4 S1_4 2.454626 1_555
Mo1_4 S1_0 2.454708 1_655
Mo1_4 S1_6 2.454824 1_545
Mo1_4 S0_4 2.455234 1_555
Mo1_4 S0_0 2.455317 1_655
Mo1_4 S0_6 2.455437 1_545
Mo1_5 S1_5 2.454626 1_555
Mo1_5 S1_1 2.454708 1_655
Mo1_5 S1_7 2.454824 1_545
Mo1_5 S0_5 2.455234 1_555
Mo1_5 S0_1 2.455317 1_655
Mo1_5 S0_7 2.455437 1_545
Mo1_6 S1_6 2.454626 1_555
Mo1_6 S1_2 2.454708 1_655
Mo1_6 S1_4 2.454824 1_555
Mo1_6 S0_6 2.455234 1_555
Mo1_6 S0_2 2.455317 1_655
Mo1_6 S0_4 2.455437 1_555
Mo1_7 S1_7 2.454626 1_555
Mo1_7 S1_3 2.454708 1_655
Mo1_7 S1_5 2.454824 1_555
Mo1_7 S0_7 2.455234 1_555
Mo1_7 S0_3 2.455317 1_655
Mo1_7 S0_5 2.455437 1_555
