# generated using pymatgen
data_Na4La3NbSi3(SO8)3
_symmetry_space_group_name_H-M   'P 1'
_cell_length_a   9.48521514
_cell_length_b   9.48979232
_cell_length_c   24.43723372
_cell_angle_alpha   89.97776870
_cell_angle_beta   89.97305401
_cell_angle_gamma   119.91241544
_symmetry_Int_Tables_number   1
_chemical_formula_structural   Na4La3NbSi3(SO8)3
_chemical_formula_sum   'Na12 La9 Nb3 Si9 S9 O72'
_cell_volume   1906.64141917
_cell_formula_units_Z   3
loop_
 _symmetry_equiv_pos_site_id
 _symmetry_equiv_pos_as_xyz
  1  'x, y, z'
loop_
 _atom_site_type_symbol
 _atom_site_label
 _atom_site_symmetry_multiplicity
 _atom_site_fract_x
 _atom_site_fract_y
 _atom_site_fract_z
 _atom_site_occupancy
  Na  Na0  1  0.64440107  0.00328844  0.25318961  1
  Na  Na1  1  0.35703475  0.35294929  0.25308472  1
  Na  Na2  1  0.99844096  0.64226915  0.25408821  1
  Na  Na3  1  0.30985242  0.34579592  0.58383765  1
  Na  Na4  1  0.65962927  0.96262610  0.58317695  1
  Na  Na5  1  0.29250033  0.95789203  0.08367229  1
  Na  Na6  1  0.99931037  0.99025970  0.50357284  1
  Na  Na7  1  0.98466699  0.99877334  0.99208331  1
  Na  Na8  1  0.66568495  0.33239236  0.82770495  1
  Na  Na9  1  0.66744689  0.33371159  0.32971633  1
  Na  Na10  1  0.33265653  0.65490524  0.18232354  1
  Na  Na11  1  0.31826159  0.66492370  0.66448895  1
  La  La0  1  0.00187222  0.00137871  0.34795650  1
  La  La1  1  0.00239189  0.00119521  0.85366754  1
  La  La2  1  0.00112708  0.98784353  0.64470635  1
  La  La3  1  0.99136639  0.00111668  0.15181552  1
  La  La4  1  0.67199390  0.33917486  0.68342010  1
  La  La5  1  0.67286103  0.33926167  0.18400563  1
  La  La6  1  0.33434209  0.65876992  0.01319864  1
  La  La7  1  0.32138943  0.66603300  0.51678783  1
  La  La8  1  0.33342905  0.66857010  0.32153916  1
  Nb  Nb0  1  0.66774847  0.33393025  0.96900018  1
  Nb  Nb1  1  0.67202361  0.33721065  0.49074437  1
  Nb  Nb2  1  0.33438492  0.66742495  0.82813510  1
  Si  Si0  1  0.30093705  0.99638065  0.24536408  1
  Si  Si1  1  0.69498061  0.69920333  0.25095028  1
  Si  Si2  1  0.00413427  0.30513236  0.25070182  1
  Si  Si3  1  0.95858796  0.32599897  0.58290011  1
  Si  Si4  1  0.37927285  0.04847926  0.58214253  1
  Si  Si5  1  0.66672607  0.62721386  0.58077272  1
  Si  Si6  1  0.62537960  0.65754887  0.91749089  1
  Si  Si7  1  0.03295819  0.37571211  0.91741984  1
  Si  Si8  1  0.34210723  0.96490565  0.92110632  1
  S  S0  1  0.30402161  0.32476432  0.75313189  1
  S  S1  1  0.02159511  0.69604055  0.75543073  1
  S  S2  1  0.67564147  0.97930354  0.75343975  1
  S  S3  1  0.95450781  0.62790413  0.07581362  1
  S  S4  1  0.66901905  0.05228408  0.07564111  1
  S  S5  1  0.37949591  0.32372601  0.07640468  1
  S  S6  1  0.64395449  0.99453379  0.42143872  1
  S  S7  1  0.35189127  0.35688692  0.42126884  1
  S  S8  1  0.00210380  0.64870235  0.41872452  1
  O  O0  1  0.20905497  0.02890326  0.29598864  1
  O  O1  1  0.81284270  0.78319681  0.30324243  1
  O  O2  1  0.96863083  0.18692570  0.30310359  1
  O  O3  1  0.21236167  0.21483006  0.79839634  1
  O  O4  1  0.00265188  0.78385234  0.80158705  1
  O  O5  1  0.78563412  0.99680206  0.79854963  1
  O  O6  1  0.74285016  0.96033667  0.70029869  1
  O  O7  1  0.21850228  0.25578694  0.70003879  1
  O  O8  1  0.03882626  0.78491522  0.70317982  1
  O  O9  1  0.77504669  0.81253923  0.19634319  1
  O  O10  1  0.03605058  0.22471427  0.19595326  1
  O  O11  1  0.19971130  0.96880665  0.18741929  1
  O  O12  1  0.87909817  0.35144322  0.63690130  1
  O  O13  1  0.48321867  0.12637127  0.63658377  1
  O  O14  1  0.63544987  0.51882796  0.63455679  1
  O  O15  1  0.88241134  0.55153062  0.12940470  1
  O  O16  1  0.66546751  0.12493213  0.12926668  1
  O  O17  1  0.45649894  0.32924206  0.12990895  1
  O  O18  1  0.48681879  0.32757902  0.03059525  1
  O  O19  1  0.85215981  0.52292120  0.03012956  1
  O  O20  1  0.67200026  0.15942463  0.02993389  1
  O  O21  1  0.49289437  0.17198106  0.52859698  1
  O  O22  1  0.68134246  0.51546327  0.52769627  1
  O  O23  1  0.83787741  0.32399780  0.52893496  1
  O  O24  1  0.55110826  0.68241742  0.97221960  1
  O  O25  1  0.13107732  0.45172891  0.97205635  1
  O  O26  1  0.32104286  0.87489824  0.97804808  1
  O  O27  1  0.55361447  0.88955777  0.46846245  1
  O  O28  1  0.33650986  0.44641213  0.46840483  1
  O  O29  1  0.11102961  0.66340459  0.46424734  1
  O  O30  1  0.07208511  0.63204738  0.36602625  1
  O  O31  1  0.55317414  0.92125672  0.36954680  1
  O  O32  1  0.36696331  0.44694370  0.36940204  1
  O  O33  1  0.14388418  0.50773125  0.86503423  1
  O  O34  1  0.36438869  0.85211841  0.86910755  1
  O  O35  1  0.49177863  0.63377684  0.86523915  1
  O  O36  1  0.98253838  0.79283455  0.41909990  1
  O  O37  1  0.80771778  0.01337151  0.42002981  1
  O  O38  1  0.20777453  0.19232332  0.41998376  1
  O  O39  1  0.99173850  0.19444704  0.90560728  1
  O  O40  1  0.20241005  0.00486790  0.90663853  1
  O  O41  1  0.80571897  0.79788423  0.90494575  1
  O  O42  1  0.94983662  0.14854484  0.58187158  1
  O  O43  1  0.20915129  0.05395448  0.58114854  1
  O  O44  1  0.82904226  0.80724503  0.58113609  1
  O  O45  1  0.97049204  0.79229141  0.07235328  1
  O  O46  1  0.81267197  0.03155615  0.07202479  1
  O  O47  1  0.22201538  0.16740935  0.07277094  1
  O  O48  1  0.65386371  0.12375680  0.75258895  1
  O  O49  1  0.47048061  0.34681539  0.75263547  1
  O  O50  1  0.87816527  0.52987287  0.75369932  1
  O  O51  1  0.66927024  0.51521155  0.24644689  1
  O  O52  1  0.84656079  0.33225470  0.24643954  1
  O  O53  1  0.48634047  0.15379910  0.24408178  1
  O  O54  1  0.63015388  0.48018052  0.92667879  1
  O  O55  1  0.85017672  0.37025564  0.92628488  1
  O  O56  1  0.51999165  0.14949822  0.92769057  1
  O  O57  1  0.65554303  0.15807510  0.42754009  1
  O  O58  1  0.50415014  0.34603719  0.42713083  1
  O  O59  1  0.84057719  0.49620241  0.42618305  1
  O  O60  1  0.35335254  0.46439425  0.07530862  1
  O  O61  1  0.12229724  0.65111466  0.07562019  1
  O  O62  1  0.51426818  0.89302100  0.07454567  1
  O  O63  1  0.36644256  0.87295521  0.57374886  1
  O  O64  1  0.50690141  0.64630564  0.57168284  1
  O  O65  1  0.14624143  0.46988751  0.57569173  1
  O  O66  1  0.31647960  0.83231396  0.25516683  1
  O  O67  1  0.51292751  0.67963773  0.25755333  1
  O  O68  1  0.16727009  0.48587894  0.25756281  1
  O  O69  1  0.31442430  0.48786984  0.76187863  1
  O  O70  1  0.17485009  0.68565825  0.76300752  1
  O  O71  1  0.51137654  0.82763880  0.76275840  1
loop_
_geom_bond_atom_site_label_1
_geom_bond_atom_site_label_2
_geom_bond_distance
_geom_bond_site_symmetry_2
Na0 O53 2.544232 1_555
Na0 O67 2.679453 1_545
Na0 O66 2.697406 1_545
Na0 O52 2.734753 1_555
Na0 O2 2.939850 1_555
Na0 O31 2.960422 1_545
Na0 O9 2.996612 1_545
Na1 O51 2.572864 1_555
Na1 O68 2.666019 1_555
Na1 O67 2.690360 1_555
Na1 O53 2.726950 1_555
Na1 O0 2.866541 1_555
Na1 O32 2.966919 1_555
Na1 O10 3.001631 1_555
Na2 O52 2.557180 1_555
Na2 O66 2.632021 1_655
Na2 O68 2.672934 1_655
Na2 O51 2.735547 1_555
Na2 O30 2.837119 1_655
Na2 O1 2.945839 1_555
Na3 O65 2.378550 1_555
Na3 O43 2.439001 1_555
Na3 O64 2.529234 1_555
Na3 O28 2.947766 1_555
Na3 O14 2.952604 1_555
Na3 O42 2.965180 1_455
Na3 O7 2.966741 1_555
Na4 O42 2.418103 1_565
Na4 O63 2.480201 1_555
Na4 O64 2.617700 1_555
Na4 O44 2.668724 1_555
Na4 O27 2.942659 1_555
Na4 O6 2.972297 1_555
Na5 O47 2.407637 1_565
Na5 O62 2.478848 1_555
Na5 O61 2.536469 1_555
Na5 O45 2.662512 1_455
Na5 O11 2.702233 1_555
Na5 O26 2.751288 1_554
Na6 O44 2.532669 1_555
Na6 O43 2.593327 1_665
Na6 O42 2.615725 1_565
Na6 O36 2.739109 1_555
Na6 O37 2.814127 1_565
Na6 O38 2.823288 1_665
Na7 O46 2.660507 1_566
Na7 O45 2.727525 1_556
Na7 O39 2.791227 1_565
Na7 O41 2.798036 1_555
Na7 O47 2.816145 1_666
Na7 O40 2.916432 1_665
Na8 O49 2.658590 1_555
Na8 O50 2.659244 1_555
Na8 O48 2.661529 1_555
Na8 O55 2.893495 1_555
Na8 O54 2.898907 1_555
Na8 O56 2.914373 1_555
Na9 O52 2.654847 1_555
Na9 O51 2.659925 1_555
Na9 O53 2.706699 1_555
Na9 O59 2.848278 1_555
Na9 O58 2.873535 1_555
Na9 O57 2.883482 1_555
Na10 O68 2.428946 1_555
Na10 O67 2.441649 1_555
Na10 O66 2.507267 1_555
Na11 O65 2.791264 1_555
Na11 O70 2.819486 1_555
Na11 O63 2.849400 1_555
Na11 O69 2.902468 1_555
Na11 O64 2.947549 1_555
Na11 O71 2.948313 1_555
La0 O2 2.225708 1_455
La0 O1 2.235351 1_445
La0 O0 2.242399 1_555
La0 O36 2.570573 1_445
La0 O38 2.583025 1_555
La0 O37 2.590878 1_455
La1 O39 2.273986 1_455
La1 O41 2.275747 1_445
La1 O40 2.283128 1_555
La1 O3 2.422670 1_555
La1 O4 2.425067 1_545
La1 O5 2.441358 1_445
La2 O44 2.286757 1_455
La2 O43 2.336884 1_565
La2 O42 2.378866 1_465
La2 O8 2.561904 1_555
La2 O6 2.697055 1_455
La2 O7 2.705829 1_565
La3 O9 2.220547 1_545
La3 O10 2.225019 1_655
La3 O11 2.315621 1_645
La3 O46 2.692448 1_555
La3 O45 2.710926 1_545
La3 O47 2.749211 1_655
La4 O12 2.221379 1_555
La4 O13 2.234207 1_555
La4 O14 2.245166 1_555
La4 O50 2.554364 1_555
La4 O49 2.579712 1_555
La4 O48 2.590781 1_555
La5 O52 2.271186 1_555
La5 O51 2.275114 1_555
La5 O53 2.296293 1_555
La5 O17 2.403410 1_555
La5 O15 2.406438 1_555
La5 O16 2.406478 1_555
La6 O25 2.194012 1_554
La6 O24 2.195071 1_554
La6 O26 2.284118 1_554
La6 O60 2.463438 1_555
La6 O61 2.495746 1_555
La6 O62 2.514551 1_555
La7 O63 2.267570 1_555
La7 O65 2.282157 1_555
La7 O64 2.293787 1_555
La7 O29 2.362877 1_555
La7 O28 2.462132 1_555
La7 O27 2.466096 1_555
La8 O67 2.274598 1_555
La8 O68 2.283233 1_555
La8 O66 2.306214 1_555
La8 O31 2.547649 1_555
La8 O32 2.560913 1_555
La8 O30 2.566563 1_555
Nb0 O56 1.898110 1_555
Nb0 O55 1.898877 1_555
Nb0 O54 1.901531 1_555
Nb0 O20 2.241888 1_556
Nb0 O18 2.260273 1_556
Nb0 O19 2.320232 1_556
Nb1 O22 1.880640 1_555
Nb1 O21 1.881869 1_555
Nb1 O23 1.886682 1_555
Nb1 O59 2.216217 1_555
Nb1 O57 2.244353 1_555
Nb1 O58 2.257062 1_555
Nb2 O35 1.905095 1_555
Nb2 O33 1.908154 1_555
Nb2 O34 1.913011 1_555
Nb2 O70 2.261850 1_555
Nb2 O71 2.265458 1_555
Nb2 O69 2.289432 1_555
O0 Si0 1.628751 1_545
O1 Si1 1.622193 1_555
O2 Si2 1.622739 1_655
O3 S0 1.470164 1_555
O4 S1 1.465880 1_555
O5 S2 1.469589 1_555
O6 S2 1.496344 1_555
O7 S0 1.497306 1_555
O8 S1 1.493291 1_555
O9 Si1 1.642426 1_555
O10 Si2 1.641604 1_555
O11 Si0 1.657236 1_555
O12 Si3 1.596596 1_555
O13 Si4 1.601113 1_555
O14 Si5 1.602397 1_555
O15 S3 1.487327 1_555
O16 S4 1.489146 1_555
O17 S5 1.486128 1_555
O18 S5 1.500858 1_555
O19 S3 1.489494 1_555
O20 S4 1.500857 1_555
O21 Si4 1.727716 1_555
O22 Si5 1.724445 1_555
O23 Si3 1.740743 1_555
O24 Si6 1.582987 1_555
O25 Si7 1.581627 1_555
O26 Si8 1.591972 1_555
O27 S6 1.481213 1_555
O28 S7 1.481249 1_555
O29 S8 1.477132 1_555
O30 S8 1.492653 1_555
O31 S6 1.495858 1_555
O32 S7 1.494810 1_555
O33 Si7 1.731542 1_555
O34 Si8 1.741084 1_555
O35 Si6 1.733159 1_555
O36 S8 1.469194 1_655
O37 S6 1.472744 1_545
O38 S7 1.476279 1_555
O39 Si7 1.588992 1_655
O40 Si8 1.589373 1_545
O41 Si6 1.587685 1_555
O42 Si3 1.644386 1_555
O43 Si4 1.640359 1_555
O44 Si5 1.632768 1_555
O45 S3 1.492560 1_555
O46 S4 1.473207 1_555
O47 S5 1.493290 1_555
O48 S2 1.484817 1_545
O49 S0 1.485704 1_555
O50 S1 1.483149 1_655
O51 Si1 1.641874 1_555
O52 Si2 1.641578 1_655
O53 Si0 1.644699 1_545
O54 Si6 1.720850 1_555
O55 Si7 1.722064 1_655
O56 Si8 1.730324 1_545
O57 S6 1.507643 1_545
O58 S7 1.505107 1_555
O59 S8 1.504362 1_655
O60 S5 1.474560 1_555
O61 S3 1.493934 1_455
O62 S4 1.492320 1_565
O63 Si4 1.621577 1_565
O64 Si5 1.629280 1_555
O65 Si3 1.624566 1_455
O66 Si0 1.652849 1_555
O67 Si1 1.649950 1_555
O68 Si2 1.648613 1_555
O69 S0 1.516304 1_555
O70 S1 1.516638 1_555
O71 S2 1.521129 1_555
