# generated using pymatgen
data_La4MgTi4O10
_symmetry_space_group_name_H-M   'P 1'
_cell_length_a   5.91201425
_cell_length_b   5.75664500
_cell_length_c   8.97617828
_cell_angle_alpha   110.16666426
_cell_angle_beta   110.66148961
_cell_angle_gamma   85.75066562
_symmetry_Int_Tables_number   1
_chemical_formula_structural   La4MgTi4O10
_chemical_formula_sum   'La4 Mg1 Ti4 O10'
_cell_volume   267.92363186
_cell_formula_units_Z   1
loop_
 _symmetry_equiv_pos_site_id
 _symmetry_equiv_pos_as_xyz
  1  'x, y, z'
loop_
 _atom_site_type_symbol
 _atom_site_label
 _atom_site_symmetry_multiplicity
 _atom_site_fract_x
 _atom_site_fract_y
 _atom_site_fract_z
 _atom_site_occupancy
  La  La0  1  0.57014400  0.05957100  0.28639500  1
  La  La1  1  0.39666200  0.89003400  0.75378900  1
  La  La2  1  0.19725800  0.72663800  0.28609500  1
  La  La3  1  0.83694300  0.36387400  0.75387300  1
  Mg  Mg0  1  0.85019200  0.36003400  0.21965100  1
  Ti  Ti0  1  0.98658900  0.97706400  0.98280300  1
  Ti  Ti1  1  0.47629600  0.50552400  0.98263000  1
  Ti  Ti2  1  0.17228100  0.30791900  0.50414900  1
  Ti  Ti3  1  0.81211400  0.69637900  0.50427200  1
  O  O0  1  0.20671400  0.21681200  0.93300700  1
  O  O1  1  0.24533500  0.75508700  0.00931100  1
  O  O2  1  0.72659700  0.23651200  0.97287100  1
  O  O3  1  0.75215800  0.76168500  0.02320400  1
  O  O4  1  0.14135400  0.15490700  0.24891600  1
  O  O5  1  0.83445300  0.79533800  0.73920900  1
  O  O6  1  0.58832900  0.59434700  0.24880700  1
  O  O7  1  0.38492700  0.44313600  0.73901000  1
  O  O8  1  0.99304000  0.00206500  0.50460900  1
  O  O9  1  0.50185400  0.01021800  0.52168500  1
loop_
_geom_bond_atom_site_label_1
_geom_bond_atom_site_label_2
_geom_bond_distance
_geom_bond_site_symmetry_2
La0 O9 2.395149 1_555
La0 O4 2.481927 1_555
La0 O6 2.580246 1_545
La0 O8 2.658119 1_555
La0 O1 2.658615 1_545
La0 O3 2.899470 1_545
La1 O0 2.502578 1_565
La1 O7 2.534855 1_555
La1 O2 2.610624 1_565
La1 O5 2.644611 1_555
La1 O9 2.679174 1_565
La1 O8 2.848303 1_465
La1 O3 2.868179 1_556
La2 O9 2.397438 1_565
La2 O6 2.479280 1_555
La2 O4 2.582146 1_565
La2 O8 2.657431 1_465
La2 O1 2.658184 1_555
La2 O3 2.898478 1_455
La3 O0 2.502981 1_655
La3 O5 2.530882 1_555
La3 O2 2.607101 1_555
La3 O7 2.641400 1_555
La3 O9 2.677956 1_555
La3 O8 2.855686 1_555
La3 O3 2.864949 1_556
Mg0 O2 1.948103 1_554
Mg0 O6 2.004419 1_555
Mg0 O4 2.004996 1_655
O0 Ti1 2.209509 1_555
O0 Ti0 2.213639 1_445
O1 Ti1 1.920567 1_554
O1 Ti0 1.921619 1_454
O2 Ti1 2.062512 1_555
O2 Ti0 2.063042 1_545
O3 Ti0 2.123445 1_554
O3 Ti1 2.129305 1_554
O4 Ti2 2.096400 1_555
O4 Ti0 2.121647 1_444
O5 Ti3 1.943047 1_555
O5 Ti0 1.964371 1_555
O6 Ti3 2.097432 1_555
O6 Ti1 2.121262 1_554
O7 Ti2 1.942664 1_555
O7 Ti1 1.963773 1_555
O8 Ti2 2.123102 1_655
O8 Ti3 2.124560 1_545
O9 Ti3 2.483844 1_545
O9 Ti2 2.496575 1_555
