# generated using pymatgen
data_Na6Ta4Ti4Si9(SO16)3
_symmetry_space_group_name_H-M   'P 1'
_cell_length_a   17.73748634
_cell_length_b   8.87321851
_cell_length_c   22.50130630
_cell_angle_alpha   89.93884204
_cell_angle_beta   89.91664428
_cell_angle_gamma   119.99420535
_symmetry_Int_Tables_number   1
_chemical_formula_structural   Na6Ta4Ti4Si9(SO16)3
_chemical_formula_sum   'Na18 Ta12 Ti12 Si27 S9 O144'
_cell_volume   3067.15396838
_cell_formula_units_Z   3
loop_
 _symmetry_equiv_pos_site_id
 _symmetry_equiv_pos_as_xyz
  1  'x, y, z'
loop_
 _atom_site_type_symbol
 _atom_site_label
 _atom_site_symmetry_multiplicity
 _atom_site_fract_x
 _atom_site_fract_y
 _atom_site_fract_z
 _atom_site_occupancy
  Na  Na0  1  0.00071378  0.63797711  0.24637794  1
  Na  Na1  1  0.50027224  0.62559485  0.24749539  1
  Na  Na2  1  0.00018340  0.37495323  0.74759749  1
  Na  Na3  1  0.50187189  0.36565690  0.74692583  1
  Na  Na4  1  0.33460078  0.96678119  0.58792521  1
  Na  Na5  1  0.83289504  0.70269405  0.08184867  1
  Na  Na6  1  0.99776311  0.00825853  0.50230490  1
  Na  Na7  1  0.50519726  0.99950739  0.50699665  1
  Na  Na8  1  0.00426038  0.01471859  0.00166709  1
  Na  Na9  1  0.49776947  0.98859188  0.99770181  1
  Na  Na10  1  0.32809337  0.34014041  0.82755552  1
  Na  Na11  1  0.82761149  0.33941399  0.82897327  1
  Na  Na12  1  0.32904522  0.31858600  0.33095382  1
  Na  Na13  1  0.82341964  0.31481633  0.33075471  1
  Na  Na14  1  0.17171768  0.67502396  0.16460896  1
  Na  Na15  1  0.66400590  0.65605950  0.16791019  1
  Na  Na16  1  0.16553694  0.67471960  0.66975950  1
  Na  Na17  1  0.66717033  0.66577153  0.66842138  1
  Ta  Ta0  1  0.00164562  0.00185774  0.35497298  1
  Ta  Ta1  1  0.50377376  0.01010289  0.35671838  1
  Ta  Ta2  1  0.00206278  0.99604138  0.85603121  1
  Ta  Ta3  1  0.50014435  0.98797419  0.85190128  1
  Ta  Ta4  1  0.00582507  0.99845779  0.64137760  1
  Ta  Ta5  1  0.50517989  0.01212262  0.14087294  1
  Ta  Ta6  1  0.33244708  0.34357309  0.98294159  1
  Ta  Ta7  1  0.83206856  0.34045470  0.97282810  1
  Ta  Ta8  1  0.33279796  0.32618638  0.47459645  1
  Ta  Ta9  1  0.83186263  0.32063041  0.48368540  1
  Ta  Ta10  1  0.16818857  0.65249395  0.02462752  1
  Ta  Ta11  1  0.66757443  0.68363061  0.52582609  1
  Ti  Ti0  1  0.50828686  0.01652481  0.65142002  1
  Ti  Ti1  1  0.00584154  0.98167787  0.14638238  1
  Ti  Ti2  1  0.33486201  0.31699241  0.69137270  1
  Ti  Ti3  1  0.83023763  0.34871297  0.68496305  1
  Ti  Ti4  1  0.33154005  0.31231362  0.18455753  1
  Ti  Ti5  1  0.82756710  0.34832215  0.18718366  1
  Ti  Ti6  1  0.66383268  0.67475518  0.02074546  1
  Ti  Ti7  1  0.16675681  0.65512414  0.52420009  1
  Ti  Ti8  1  0.17623530  0.68159273  0.31632801  1
  Ti  Ti9  1  0.66724285  0.68252259  0.30722683  1
  Ti  Ti10  1  0.16820697  0.65195176  0.80687175  1
  Ti  Ti11  1  0.66955464  0.67339053  0.81239027  1
  Si  Si0  1  0.14969166  0.00205390  0.25113714  1
  Si  Si1  1  0.64739210  0.00840889  0.24842782  1
  Si  Si2  1  0.85378492  0.71511809  0.24844647  1
  Si  Si3  1  0.49921739  0.29206778  0.25038433  1
  Si  Si4  1  0.14676857  0.28511621  0.74843378  1
  Si  Si5  1  0.64963985  0.29411292  0.75207850  1
  Si  Si6  1  0.99916607  0.70552156  0.75059763  1
  Si  Si7  1  0.50103848  0.70918173  0.74650600  1
  Si  Si8  1  0.35464442  0.99036157  0.74886537  1
  Si  Si9  1  0.47733535  0.33080493  0.58460913  1
  Si  Si10  1  0.97858858  0.33679605  0.58782720  1
  Si  Si11  1  0.19331401  0.04551828  0.58258334  1
  Si  Si12  1  0.68623114  0.05062547  0.58892951  1
  Si  Si13  1  0.83312455  0.62172089  0.58090626  1
  Si  Si14  1  0.47891709  0.61968280  0.08759709  1
  Si  Si15  1  0.97675084  0.61413368  0.08487068  1
  Si  Si16  1  0.33264593  0.04404918  0.08087424  1
  Si  Si17  1  0.18743755  0.32377735  0.08886190  1
  Si  Si18  1  0.69038417  0.34094000  0.08064251  1
  Si  Si19  1  0.30990070  0.66723592  0.91478197  1
  Si  Si20  1  0.80721842  0.67234943  0.91735535  1
  Si  Si21  1  0.02541631  0.38216593  0.91388395  1
  Si  Si22  1  0.66543495  0.95097979  0.91610668  1
  Si  Si23  1  0.31080411  0.94972083  0.41991898  1
  Si  Si24  1  0.80821960  0.95309045  0.41459778  1
  Si  Si25  1  0.16680067  0.38485359  0.41665694  1
  Si  Si26  1  0.52532522  0.66737247  0.41384464  1
  S  S0  1  0.35511903  0.71486240  0.25086278  1
  S  S1  1  0.00108269  0.28794916  0.24915857  1
  S  S2  1  0.85569423  0.99647055  0.75042898  1
  S  S3  1  0.33340839  0.61742044  0.58314656  1
  S  S4  1  0.83381594  0.05005154  0.08426816  1
  S  S5  1  0.52188938  0.37874499  0.91706728  1
  S  S6  1  0.16878319  0.95398919  0.91657682  1
  S  S7  1  0.66921196  0.38447688  0.41615730  1
  S  S8  1  0.02223333  0.66517842  0.41587583  1
  O  O0  1  0.09838525  0.02435420  0.30856307  1
  O  O1  1  0.59796140  0.03185725  0.30679237  1
  O  O2  1  0.41005794  0.80217280  0.30431692  1
  O  O3  1  0.92104665  0.81232781  0.30449279  1
  O  O4  1  0.48590589  0.16693986  0.30847571  1
  O  O5  1  0.99036820  0.18091715  0.30405770  1
  O  O6  1  0.09545781  0.16379313  0.80692459  1
  O  O7  1  0.59942394  0.16952589  0.80965791  1
  O  O8  1  0.48572214  0.79963071  0.80665455  1
  O  O9  1  0.98569945  0.80389882  0.80873099  1
  O  O10  1  0.42033892  0.03189565  0.80589287  1
  O  O11  1  0.91087482  0.01927439  0.80414994  1
  O  O12  1  0.39916795  0.96749359  0.68855815  1
  O  O13  1  0.89621155  0.97233909  0.69649069  1
  O  O14  1  0.07922764  0.19268845  0.69288524  1
  O  O15  1  0.58340721  0.20641926  0.69456574  1
  O  O16  1  0.00911165  0.83063365  0.69350134  1
  O  O17  1  0.51721679  0.84083409  0.69147532  1
  O  O18  1  0.39410079  0.81917319  0.19680515  1
  O  O19  1  0.90079928  0.83059830  0.18875105  1
  O  O20  1  0.01312731  0.20466383  0.19674513  1
  O  O21  1  0.50917007  0.18700883  0.19343403  1
  O  O22  1  0.08246292  0.96068118  0.19395995  1
  O  O23  1  0.58082013  0.96899640  0.19277305  1
  O  O24  1  0.43539386  0.36262537  0.64462886  1
  O  O25  1  0.93482393  0.36582431  0.64645252  1
  O  O26  1  0.25558643  0.13892934  0.63956021  1
  O  O27  1  0.75152006  0.14475544  0.64355491  1
  O  O28  1  0.32076793  0.51336374  0.63639303  1
  O  O29  1  0.81852883  0.50338854  0.63993178  1
  O  O30  1  0.43435694  0.50249795  0.14647534  1
  O  O31  1  0.93428942  0.50289951  0.14605293  1
  O  O32  1  0.31820701  0.13290725  0.14023855  1
  O  O33  1  0.82240004  0.13236582  0.13747535  1
  O  O34  1  0.25141919  0.35856293  0.14429697  1
  O  O35  1  0.75233705  0.37047931  0.13980172  1
  O  O36  1  0.23324155  0.30062578  0.02765327  1
  O  O37  1  0.73562400  0.30373742  0.02448766  1
  O  O38  1  0.41642899  0.52763635  0.02820306  1
  O  O39  1  0.91182884  0.52067287  0.02874674  1
  O  O40  1  0.34785356  0.16672637  0.02288947  1
  O  O41  1  0.84477121  0.15235834  0.02959890  1
  O  O42  1  0.23497426  0.16705603  0.52371518  1
  O  O43  1  0.73458283  0.16469569  0.52723853  1
  O  O44  1  0.34193581  0.53447733  0.52819382  1
  O  O45  1  0.84828583  0.52943253  0.52234719  1
  O  O46  1  0.41291832  0.30666871  0.52766659  1
  O  O47  1  0.91695561  0.30579193  0.52774424  1
  O  O48  1  0.26418379  0.69070473  0.97476577  1
  O  O49  1  0.76314819  0.69369342  0.97796896  1
  O  O50  1  0.08516628  0.47708840  0.97251591  1
  O  O51  1  0.57498824  0.46367164  0.97016609  1
  O  O52  1  0.15521275  0.85142252  0.97083527  1
  O  O53  1  0.65144289  0.82855862  0.97477099  1
  O  O54  1  0.26378896  0.83206915  0.47754728  1
  O  O55  1  0.76563297  0.83784517  0.47437734  1
  O  O56  1  0.15069111  0.47549140  0.47462153  1
  O  O57  1  0.65552671  0.45873724  0.47024030  1
  O  O58  1  0.07449850  0.69025462  0.46895042  1
  O  O59  1  0.58617000  0.69521271  0.47179561  1
  O  O60  1  0.06149276  0.64499355  0.36033781  1
  O  O61  1  0.56671416  0.63643713  0.35382802  1
  O  O62  1  0.25063435  0.86104317  0.35952494  1
  O  O63  1  0.74733978  0.85706384  0.35738587  1
  O  O64  1  0.17546149  0.50487533  0.35813591  1
  O  O65  1  0.67927206  0.48243886  0.36190666  1
  O  O66  1  0.06604284  0.49614725  0.85420254  1
  O  O67  1  0.55949853  0.47925332  0.86171159  1
  O  O68  1  0.17909986  0.87600326  0.86246623  1
  O  O69  1  0.67571562  0.85223155  0.85822715  1
  O  O70  1  0.24770160  0.63863616  0.85815052  1
  O  O71  1  0.74755006  0.64258290  0.85900013  1
  O  O72  1  0.01274792  0.82491044  0.41100738  1
  O  O73  1  0.51498626  0.84138896  0.40700361  1
  O  O74  1  0.40725554  0.97276590  0.40985063  1
  O  O75  1  0.90631567  0.97687603  0.40616226  1
  O  O76  1  0.08112591  0.18965333  0.40798863  1
  O  O77  1  0.58945459  0.20241953  0.41223072  1
  O  O78  1  0.01477149  0.18731783  0.90861612  1
  O  O79  1  0.51264765  0.20326805  0.91342180  1
  O  O80  1  0.08883716  0.97558583  0.91285441  1
  O  O81  1  0.58093975  0.97733742  0.91158663  1
  O  O82  1  0.40611544  0.84100653  0.91021129  1
  O  O83  1  0.90572095  0.84140772  0.90997617  1
  O  O84  1  0.48076727  0.15080086  0.58811670  1
  O  O85  1  0.98583381  0.16074382  0.59148422  1
  O  O86  1  0.09609079  0.02470054  0.58910648  1
  O  O87  1  0.59050711  0.02798930  0.59032707  1
  O  O88  1  0.40926937  0.79451111  0.58521955  1
  O  O89  1  0.91777974  0.81419535  0.58930072  1
  O  O90  1  0.48566935  0.80975781  0.09261393  1
  O  O91  1  0.98180172  0.80654814  0.08977141  1
  O  O92  1  0.41709942  0.02036399  0.09009452  1
  O  O93  1  0.91097775  0.02603231  0.08820813  1
  O  O94  1  0.08940784  0.15686230  0.09427502  1
  O  O95  1  0.59502979  0.16642753  0.08837173  1
  O  O96  1  0.35006811  0.17174216  0.74467017  1
  O  O97  1  0.85005353  0.15548333  0.74803357  1
  O  O98  1  0.24124160  0.30514619  0.74130828  1
  O  O99  1  0.74335000  0.30718627  0.74492000  1
  O  O100  1  0.41592915  0.51564980  0.74181800  1
  O  O101  1  0.91456189  0.51093988  0.74575887  1
  O  O102  1  0.34836225  0.54354036  0.24830121  1
  O  O103  1  0.85144400  0.52525202  0.24405725  1
  O  O104  1  0.41462461  0.31839018  0.24568567  1
  O  O105  1  0.92219370  0.30495234  0.24728604  1
  O  O106  1  0.24324701  0.17428228  0.24522161  1
  O  O107  1  0.74409879  0.17630546  0.24083095  1
  O  O108  1  0.32105321  0.49268865  0.92257997  1
  O  O109  1  0.81942683  0.49894073  0.92201241  1
  O  O110  1  0.43308826  0.35941657  0.92259216  1
  O  O111  1  0.92853489  0.35721462  0.92611794  1
  O  O112  1  0.24563717  0.13354442  0.92218475  1
  O  O113  1  0.75365827  0.14020422  0.92383552  1
  O  O114  1  0.32005477  0.14274612  0.42178194  1
  O  O115  1  0.82115169  0.15118744  0.42139742  1
  O  O116  1  0.25340024  0.36806382  0.42250874  1
  O  O117  1  0.74609973  0.35821558  0.42120726  1
  O  O118  1  0.42805758  0.50061433  0.42480119  1
  O  O119  1  0.93326662  0.51056388  0.41966850  1
  O  O120  1  0.17933137  0.49961520  0.07959159  1
  O  O121  1  0.68433732  0.51604695  0.07659498  1
  O  O122  1  0.07385214  0.64419580  0.07583355  1
  O  O123  1  0.57472175  0.64071424  0.07603799  1
  O  O124  1  0.24597371  0.85493651  0.07419423  1
  O  O125  1  0.75480412  0.87136027  0.07968608  1
  O  O126  1  0.18444125  0.85399487  0.57531013  1
  O  O127  1  0.67941342  0.85906540  0.57974383  1
  O  O128  1  0.25314092  0.63737476  0.57845000  1
  O  O129  1  0.74638403  0.63675931  0.57323825  1
  O  O130  1  0.07434136  0.50853616  0.57544460  1
  O  O131  1  0.57369030  0.50104861  0.57360603  1
  O  O132  1  0.15039253  0.81694591  0.25817703  1
  O  O133  1  0.65134893  0.82858930  0.25377132  1
  O  O134  1  0.26713586  0.69717796  0.25681107  1
  O  O135  1  0.75793177  0.68756934  0.25720105  1
  O  O136  1  0.07798988  0.46537632  0.25584760  1
  O  O137  1  0.58587427  0.48236282  0.25590667  1
  O  O138  1  0.15035064  0.47281056  0.75394616  1
  O  O139  1  0.65374754  0.48200334  0.75941523  1
  O  O140  1  0.08618732  0.69001310  0.75607182  1
  O  O141  1  0.58593697  0.68417457  0.75687942  1
  O  O142  1  0.25836293  0.82480172  0.75824081  1
  O  O143  1  0.76885486  0.83942457  0.75578698  1
loop_
_geom_bond_atom_site_label_1
_geom_bond_atom_site_label_2
_geom_bond_distance
_geom_bond_site_symmetry_2
Na0 O103 2.316472 1_455
Na0 O132 2.329923 1_555
Na0 O136 2.523641 1_555
Na0 O31 2.553897 1_455
Na0 O105 2.560690 1_455
Na0 O22 2.743981 1_555
Na0 O60 2.771775 1_555
Na0 O3 2.878345 1_455
Na1 O104 2.366449 1_555
Na1 O133 2.370856 1_555
Na1 O102 2.414357 1_555
Na1 O137 2.426156 1_555
Na1 O30 2.542268 1_555
Na1 O61 2.649175 1_555
Na2 O138 2.357548 1_555
Na2 O101 2.365684 1_455
Na2 O97 2.387185 1_455
Na2 O140 2.432470 1_555
Na2 O25 2.538590 1_455
Na2 O66 2.651933 1_555
Na2 O14 2.891926 1_555
Na2 O11 3.012651 1_455
Na3 O96 2.362571 1_555
Na3 O139 2.371505 1_555
Na3 O141 2.459712 1_555
Na3 O100 2.477311 1_555
Na3 O24 2.581820 1_555
Na3 O15 2.741859 1_555
Na3 O67 2.777575 1_555
Na3 O10 2.885566 1_555
Na4 O84 2.270539 1_565
Na4 O126 2.348161 1_555
Na4 O88 2.473569 1_555
Na4 O12 2.537593 1_555
Na4 O128 2.540902 1_555
Na4 O54 2.772946 1_555
Na4 O26 2.790509 1_565
Na4 O46 2.942926 1_565
Na5 O121 2.310480 1_555
Na5 O91 2.329223 1_555
Na5 O93 2.489713 1_565
Na5 O125 2.496700 1_555
Na5 O49 2.628779 1_554
Na5 O19 2.678142 1_555
Na5 O35 2.864753 1_555
Na5 O39 2.873446 1_555
Na6 O85 2.488561 1_555
Na6 O89 2.520310 1_545
Na6 O86 2.575660 1_655
Na6 O76 2.623927 1_655
Na6 O75 2.635999 1_545
Na6 O72 2.715787 1_645
Na7 O87 2.344417 1_565
Na7 O84 2.430282 1_565
Na7 O88 2.488338 1_555
Na7 O73 2.703731 1_555
Na7 O77 2.704517 1_565
Na7 O74 2.729932 1_555
Na8 O94 2.514804 1_555
Na8 O78 2.543754 1_554
Na8 O93 2.587821 1_455
Na8 O91 2.599032 1_445
Na8 O80 2.622651 1_544
Na8 O83 2.646955 1_444
Na9 O81 2.465841 1_555
Na9 O82 2.473801 1_555
Na9 O90 2.603077 1_556
Na9 O79 2.604374 1_565
Na9 O92 2.616274 1_566
Na9 O95 2.631327 1_566
Na10 O98 2.401582 1_555
Na10 O100 2.476571 1_555
Na10 O96 2.539517 1_555
Na10 O108 2.567879 1_555
Na10 O112 2.708394 1_555
Na10 O110 2.786473 1_555
Na11 O99 2.339801 1_555
Na11 O101 2.416542 1_555
Na11 O109 2.572628 1_555
Na11 O97 2.606300 1_555
Na11 O113 2.658367 1_555
Na11 O111 2.781548 1_555
Na12 O106 2.396338 1_555
Na12 O104 2.445319 1_555
Na12 O114 2.525916 1_555
Na12 O116 2.611499 1_555
Na12 O102 2.620483 1_555
Na12 O118 2.708194 1_555
Na13 O107 2.422582 1_555
Na13 O115 2.490904 1_555
Na13 O103 2.569187 1_555
Na13 O117 2.587131 1_555
Na13 O105 2.597833 1_555
Na13 O119 2.729653 1_555
Na14 O124 2.511030 1_555
Na14 O120 2.513182 1_555
Na14 O122 2.571943 1_555
Na14 O132 2.577062 1_555
Na14 O134 2.624084 1_555
Na14 O136 2.707209 1_555
Na15 O137 2.463030 1_555
Na15 O121 2.519246 1_555
Na15 O135 2.536868 1_555
Na15 O133 2.544661 1_555
Na15 O123 2.567995 1_555
Na15 O125 2.662836 1_555
Na16 O140 2.440255 1_555
Na16 O142 2.504236 1_555
Na16 O138 2.525767 1_555
Na16 O126 2.572341 1_555
Na16 O130 2.631836 1_555
Na16 O128 2.693069 1_555
Na17 O141 2.508418 1_555
Na17 O139 2.551678 1_555
Na17 O127 2.566975 1_555
Na17 O143 2.594221 1_555
Na17 O129 2.642267 1_555
Na17 O131 2.651638 1_555
O0 Si0 1.647477 1_555
O0 Ta0 1.930447 1_555
O1 Si1 1.648136 1_555
O1 Ta1 1.939591 1_555
O2 S0 1.499028 1_555
O2 Ta1 2.121669 1_565
O3 Si2 1.653965 1_555
O3 Ta0 1.940939 1_665
O4 Si3 1.652567 1_555
O4 Ta1 1.911609 1_555
O5 S1 1.510101 1_655
O5 Ta0 2.047312 1_655
O6 Si4 1.653268 1_555
O6 Ta2 1.925261 1_545
O7 Si5 1.644130 1_555
O7 Ta3 1.937835 1_545
O8 Si7 1.664010 1_555
O8 Ta3 1.863300 1_555
O9 Si6 1.655330 1_555
O9 Ta2 1.906250 1_655
O10 Si8 1.648095 1_545
O10 Ta3 1.944835 1_545
O11 S2 1.505342 1_545
O11 Ta2 2.088014 1_645
O12 Si8 1.632167 1_555
O12 Ti0 1.945853 1_565
O13 S2 1.478933 1_555
O13 Ta4 2.216671 1_655
O14 Si4 1.641437 1_555
O14 Ta4 1.942637 1_545
O15 Si5 1.659203 1_555
O15 Ti0 1.821973 1_555
O16 Si6 1.647603 1_455
O16 Ta4 1.918277 1_555
O17 Si7 1.625115 1_555
O17 Ti0 1.874040 1_565
O18 S0 1.472958 1_555
O18 Ta5 2.238890 1_565
O19 Si2 1.639846 1_555
O19 Ti1 1.916317 1_655
O20 S1 1.463446 1_555
O20 Ti1 2.228303 1_545
O21 Si3 1.645826 1_555
O21 Ta5 1.925154 1_555
O22 Si0 1.667265 1_565
O22 Ti1 1.812415 1_555
O23 Si1 1.636234 1_565
O23 Ta5 1.956333 1_565
O24 Si9 1.632476 1_555
O24 Ti2 1.929171 1_555
O25 Si10 1.614544 1_555
O25 Ti3 1.982109 1_555
O26 Si11 1.625343 1_555
O26 Ti2 1.902688 1_555
O27 Si12 1.608964 1_555
O27 Ti3 1.890458 1_555
O28 S3 1.458815 1_555
O28 Ti2 2.249642 1_555
O29 Si13 1.630253 1_555
O29 Ti3 1.798928 1_555
O30 Si14 1.622778 1_555
O30 Ti4 1.955332 1_555
O31 Si15 1.639365 1_555
O31 Ti5 1.928069 1_555
O32 Si16 1.635451 1_555
O32 Ti4 1.792276 1_555
O33 S4 1.468629 1_555
O33 Ti5 2.181893 1_555
O34 Si17 1.610538 1_555
O34 Ti4 1.895996 1_555
O35 Si18 1.662909 1_555
O35 Ti5 1.794976 1_555
O36 Si17 1.662340 1_555
O36 Ta6 1.891394 1_554
O37 Si18 1.616244 1_555
O37 Ta7 1.954466 1_554
O38 Si14 1.668292 1_555
O38 Ta6 1.870601 1_554
O39 Si15 1.631038 1_555
O39 Ta7 1.972151 1_554
O40 Si16 1.631680 1_555
O40 Ta6 1.942034 1_554
O41 S4 1.481760 1_555
O41 Ta7 2.200105 1_554
O42 Si11 1.631254 1_555
O42 Ta8 1.941008 1_555
O43 Si12 1.677064 1_555
O43 Ta9 1.859395 1_555
O44 S3 1.485323 1_555
O44 Ta8 2.145328 1_555
O45 Si13 1.643344 1_555
O45 Ta9 1.933619 1_555
O46 Si9 1.659295 1_555
O46 Ta8 1.930330 1_555
O47 Si10 1.674202 1_555
O47 Ta9 1.865753 1_555
O48 Si19 1.639789 1_555
O48 Ta10 1.920780 1_556
O49 Si20 1.628671 1_555
O49 Ti6 1.938222 1_556
O50 Si21 1.639241 1_555
O50 Ta10 1.919185 1_556
O51 S5 1.475818 1_555
O51 Ti6 2.084572 1_556
O52 S6 1.467829 1_555
O52 Ta10 2.244143 1_556
O53 Si22 1.646353 1_555
O53 Ti6 1.810652 1_556
O54 Si23 1.609431 1_555
O54 Ti7 1.954160 1_555
O55 Si24 1.627095 1_555
O55 Ta11 1.961885 1_555
O56 Si25 1.631114 1_555
O56 Ti7 1.848486 1_555
O57 S7 1.461103 1_555
O57 Ta11 2.274187 1_555
O58 S8 1.460381 1_555
O58 Ti7 2.199024 1_555
O59 Si26 1.632280 1_555
O59 Ta11 1.930468 1_555
O60 S8 1.483692 1_555
O60 Ti8 2.135638 1_555
O61 Si26 1.624012 1_555
O61 Ti9 1.926370 1_555
O62 Si23 1.664869 1_555
O62 Ti8 1.768555 1_555
O63 Si24 1.623513 1_555
O63 Ti9 1.870651 1_555
O64 Si25 1.650631 1_555
O64 Ti8 1.821880 1_555
O65 S7 1.455874 1_555
O65 Ti9 2.255255 1_555
O66 Si21 1.615914 1_555
O66 Ti10 1.953398 1_555
O67 S5 1.480613 1_555
O67 Ti11 2.153434 1_555
O68 S6 1.456893 1_555
O68 Ti10 2.275201 1_555
O69 Si22 1.630539 1_555
O69 Ti11 1.850508 1_555
O70 Si19 1.621796 1_555
O70 Ti10 1.872035 1_555
O71 Si20 1.624606 1_555
O71 Ti11 1.862877 1_555
O72 S8 1.512381 1_555
O72 Ta0 2.097460 1_565
O73 Si26 1.650521 1_555
O73 Ta1 1.963579 1_565
O74 Si23 1.633707 1_555
O74 Ta1 1.973858 1_565
O75 Si24 1.655259 1_555
O75 Ta0 1.963176 1_665
O76 Si25 1.648432 1_555
O76 Ta0 1.961537 1_555
O77 S7 1.527913 1_555
O77 Ta1 2.049162 1_555
O78 Si21 1.647123 1_555
O78 Ta2 1.988467 1_545
O79 S5 1.484287 1_555
O79 Ta3 2.279874 1_545
O80 S6 1.525315 1_555
O80 Ta2 2.078777 1_555
O81 Si22 1.631592 1_555
O81 Ta3 2.001728 1_555
O82 Si19 1.633629 1_555
O82 Ta3 2.004781 1_555
O83 Si20 1.645798 1_555
O83 Ta2 1.980491 1_655
O84 Si9 1.630334 1_555
O84 Ti0 2.065592 1_555
O85 Si10 1.632200 1_555
O85 Ta4 1.991971 1_645
O86 Si11 1.646288 1_555
O86 Ta4 1.903221 1_545
O87 Si12 1.607192 1_555
O87 Ti0 1.967862 1_555
O88 S3 1.472502 1_555
O88 Ti0 2.395609 1_565
O89 Si13 1.626248 1_555
O89 Ta4 1.985379 1_655
O90 Si14 1.634048 1_555
O90 Ta5 1.976652 1_565
O91 Si15 1.668136 1_555
O91 Ti1 1.887472 1_655
O92 Si16 1.626891 1_555
O92 Ta5 1.967472 1_555
O93 S4 1.489451 1_555
O93 Ti1 2.316698 1_645
O94 Si17 1.629724 1_555
O94 Ti1 1.917154 1_545
O95 Si18 1.633620 1_555
O95 Ta5 1.902504 1_555
O96 Si8 1.654110 1_545
O96 Ti2 1.875442 1_555
O97 S2 1.464482 1_545
O97 Ti3 2.382462 1_555
O98 Si4 1.602091 1_555
O98 Ti2 1.962376 1_555
O99 Si5 1.615132 1_555
O99 Ti3 1.938086 1_555
O100 Si7 1.627251 1_555
O100 Ti2 1.984454 1_555
O101 Si6 1.629483 1_555
O101 Ti3 2.009503 1_555
O102 S0 1.465154 1_555
O102 Ti4 2.398188 1_555
O103 Si2 1.667392 1_555
O103 Ti5 1.903383 1_555
O104 Si3 1.633378 1_555
O104 Ti4 1.998309 1_555
O105 S1 1.481146 1_655
O105 Ti5 2.333555 1_555
O106 Si0 1.603212 1_555
O106 Ti4 1.971916 1_555
O107 Si1 1.623151 1_555
O107 Ti5 1.926217 1_555
O108 Si19 1.665694 1_555
O108 Ta6 1.974993 1_555
O109 Si20 1.660817 1_555
O109 Ta7 1.909949 1_555
O110 S5 1.501709 1_555
O110 Ta6 2.189076 1_555
O111 Si21 1.641923 1_655
O111 Ta7 1.947968 1_555
O112 S6 1.497344 1_545
O112 Ta6 2.203525 1_555
O113 Si22 1.634809 1_545
O113 Ta7 1.960783 1_555
O114 Si23 1.637498 1_545
O114 Ta8 1.936456 1_555
O115 Si24 1.662313 1_545
O115 Ta9 1.995162 1_555
O116 Si25 1.621221 1_555
O116 Ta8 2.005544 1_555
O117 S7 1.498427 1_555
O117 Ta9 2.216794 1_555
O118 Si26 1.634748 1_555
O118 Ta8 1.970274 1_555
O119 S8 1.488110 1_655
O119 Ta9 2.259844 1_555
O120 Si17 1.649924 1_555
O120 Ta10 1.916770 1_555
O121 Si18 1.612552 1_555
O121 Ti6 2.050454 1_555
O122 Si15 1.618163 1_455
O122 Ta10 2.000980 1_555
O123 Si14 1.634550 1_555
O123 Ti6 1.911439 1_555
O124 Si16 1.619808 1_565
O124 Ta10 1.976127 1_555
O125 S4 1.505924 1_565
O125 Ti6 2.145385 1_555
O126 Si11 1.634891 1_565
O126 Ti7 1.996708 1_555
O127 Si12 1.655844 1_565
O127 Ta11 1.901884 1_555
O128 S3 1.523812 1_555
O128 Ti7 2.027056 1_555
O129 Si13 1.618867 1_555
O129 Ta11 1.962106 1_555
O130 Si10 1.641479 1_455
O130 Ti7 1.888907 1_555
O131 Si9 1.637343 1_555
O131 Ta11 1.961462 1_555
O132 Si0 1.656180 1_565
O132 Ti8 1.978254 1_555
O133 Si1 1.636103 1_565
O133 Ti9 1.889196 1_555
O134 S0 1.494160 1_555
O134 Ti8 2.045154 1_555
O135 Si2 1.603935 1_555
O135 Ti9 1.944031 1_555
O136 S1 1.488609 1_555
O136 Ti8 2.288954 1_555
O137 Si3 1.623340 1_555
O137 Ti9 2.004311 1_555
O138 Si4 1.639457 1_555
O138 Ti10 1.883352 1_555
O139 Si5 1.640508 1_555
O139 Ti11 1.978049 1_555
O140 Si6 1.621575 1_455
O140 Ti10 2.008090 1_555
O141 Si7 1.645118 1_555
O141 Ti11 1.978925 1_555
O142 Si8 1.615259 1_555
O142 Ti10 1.909475 1_555
O143 S2 1.477158 1_555
O143 Ti11 2.071229 1_555
