# generated using pymatgen
data_Si5Pt6
_symmetry_space_group_name_H-M   'P 1'
_cell_length_a   3.52920036
_cell_length_b   6.18220855
_cell_length_c   15.47652074
_cell_angle_alpha   93.42399035
_cell_angle_beta   90.00000000
_cell_angle_gamma   90.00000000
_symmetry_Int_Tables_number   1
_chemical_formula_structural   Si5Pt6
_chemical_formula_sum   'Si10 Pt12'
_cell_volume   337.06786610
_cell_formula_units_Z   2
loop_
 _symmetry_equiv_pos_site_id
 _symmetry_equiv_pos_as_xyz
  1  'x, y, z'
loop_
 _atom_site_type_symbol
 _atom_site_label
 _atom_site_symmetry_multiplicity
 _atom_site_fract_x
 _atom_site_fract_y
 _atom_site_fract_z
 _atom_site_occupancy
  Si  Si0  1  0.75000000  0.22243266  0.42603576  1
  Si  Si1  1  0.25000000  0.77756734  0.57396424  1
  Si  Si2  1  0.25000000  0.31720283  0.27912442  1
  Si  Si3  1  0.75000000  0.68279717  0.72087558  1
  Si  Si4  1  0.25000000  0.76944787  0.33514052  1
  Si  Si5  1  0.75000000  0.23055213  0.66485948  1
  Si  Si6  1  0.25000000  0.43504076  0.06437352  1
  Si  Si7  1  0.75000000  0.56495924  0.93562648  1
  Si  Si8  1  0.75000000  0.94555802  0.11983948  1
  Si  Si9  1  0.25000000  0.05444198  0.88016052  1
  Pt  Pt0  1  0.75000000  0.52804917  0.57686750  1
  Pt  Pt1  1  0.25000000  0.47195083  0.42313250  1
  Pt  Pt2  1  0.75000000  0.85159798  0.44826912  1
  Pt  Pt3  1  0.25000000  0.14840202  0.55173088  1
  Pt  Pt4  1  0.75000000  0.00755948  0.28179050  1
  Pt  Pt5  1  0.25000000  0.99244052  0.71820950  1
  Pt  Pt6  1  0.75000000  0.34082852  0.17352784  1
  Pt  Pt7  1  0.25000000  0.65917148  0.82647216  1
  Pt  Pt8  1  0.25000000  0.71958701  0.17828957  1
  Pt  Pt9  1  0.75000000  0.28041299  0.82171043  1
  Pt  Pt10  1  0.25000000  0.80216891  0.00145152  1
  Pt  Pt11  1  0.75000000  0.19783109  0.99854848  1
loop_
_geom_bond_atom_site_label_1
_geom_bond_atom_site_label_2
_geom_bond_distance
_geom_bond_site_symmetry_2
Pt0 Si1 2.345985 1_555
Pt0 Si1 2.345985 1_655
Pt0 Si5 2.352938 1_555
Pt0 Si3 2.372310 1_555
Pt0 Si0 2.914128 1_555
Pt1 Si0 2.345985 1_455
Pt1 Si0 2.345985 1_555
Pt1 Si4 2.352938 1_555
Pt1 Si2 2.372310 1_555
Pt1 Si1 2.914128 1_555
Pt2 Si0 2.338491 1_565
Pt2 Si4 2.516140 1_655
Pt2 Si4 2.516140 1_555
Pt2 Si1 2.685872 1_655
Pt2 Si1 2.685872 1_555
Pt3 Si1 2.338491 1_545
Pt3 Si5 2.516140 1_455
Pt3 Si5 2.516140 1_555
Pt3 Si0 2.685872 1_555
Pt3 Si0 2.685872 1_455
Pt4 Si4 2.471372 1_645
Pt4 Si4 2.471372 1_545
Pt4 Si8 2.512847 1_545
Pt4 Si0 2.528650 1_555
Pt4 Si2 2.605651 1_555
Pt4 Si2 2.605651 1_655
Pt5 Si5 2.471372 1_565
Pt5 Si5 2.471372 1_465
Pt5 Si9 2.512847 1_565
Pt5 Si1 2.528650 1_555
Pt5 Si3 2.605651 1_455
Pt5 Si3 2.605651 1_555
Pt6 Si2 2.415469 1_555
Pt6 Si2 2.415469 1_655
Pt6 Si8 2.533629 1_545
Pt6 Si6 2.534642 1_555
Pt6 Si6 2.534642 1_655
Pt7 Si3 2.415469 1_455
Pt7 Si3 2.415469 1_555
Pt7 Si9 2.533629 1_565
Pt7 Si7 2.534642 1_455
Pt7 Si7 2.534642 1_555
Pt8 Si6 2.415019 1_555
Pt8 Si4 2.428668 1_555
Pt8 Si8 2.456559 1_455
Pt8 Si8 2.456559 1_555
Pt9 Si7 2.415019 1_555
Pt9 Si5 2.428668 1_555
Pt9 Si9 2.456559 1_555
Pt9 Si9 2.456559 1_655
Pt10 Si7 2.474623 1_454
Pt10 Si7 2.474623 1_554
Pt10 Si9 2.511137 1_564
Pt10 Si6 2.522636 1_555
Pt10 Si8 2.657574 1_455
Pt10 Si8 2.657574 1_555
Pt11 Si6 2.474623 1_556
Pt11 Si6 2.474623 1_656
Pt11 Si8 2.511137 1_546
Pt11 Si7 2.522636 1_555
Pt11 Si9 2.657574 1_655
Pt11 Si9 2.657574 1_555
