# generated using pymatgen
data_NaMgNiIO6
_symmetry_space_group_name_H-M   'P 1'
_cell_length_a   5.27672153
_cell_length_b   5.28074264
_cell_length_c   5.32633302
_cell_angle_alpha   89.98968706
_cell_angle_beta   90.00447512
_cell_angle_gamma   120.02582623
_symmetry_Int_Tables_number   1
_chemical_formula_structural   NaMgNiIO6
_chemical_formula_sum   'Na1 Mg1 Ni1 I1 O6'
_cell_volume   128.50056530
_cell_formula_units_Z   1
loop_
 _symmetry_equiv_pos_site_id
 _symmetry_equiv_pos_as_xyz
  1  'x, y, z'
loop_
 _atom_site_type_symbol
 _atom_site_label
 _atom_site_symmetry_multiplicity
 _atom_site_fract_x
 _atom_site_fract_y
 _atom_site_fract_z
 _atom_site_occupancy
  Na  Na0  1  0.00168200  0.00084000  0.00001100  1
  Mg  Mg0  1  0.66871300  0.33436200  0.00001200  1
  Ni  Ni0  1  0.33369300  0.66683100  0.50002500  1
  I  I0  1  0.66699500  0.33353000  0.49993700  1
  O  O0  1  0.96845800  0.36338900  0.71852900  1
  O  O1  1  0.63738700  0.03305500  0.28130800  1
  O  O2  1  0.96844700  0.60505500  0.28148000  1
  O  O3  1  0.39612400  0.36349400  0.28099200  1
  O  O4  1  0.63738500  0.60432200  0.71869200  1
  O  O5  1  0.39611600  0.03262300  0.71901400  1
loop_
_geom_bond_atom_site_label_1
_geom_bond_atom_site_label_2
_geom_bond_distance
_geom_bond_site_symmetry_2
Na0 O3 2.500173 1_555
Na0 O5 2.500183 1_554
Na0 O2 2.505734 1_445
Na0 O0 2.505750 1_454
Na0 O1 2.509338 1_455
Na0 O4 2.509442 1_444
Mg0 O2 2.128431 1_555
Mg0 O0 2.128532 1_554
Mg0 O1 2.130680 1_555
Mg0 O4 2.130701 1_554
Mg0 O3 2.134070 1_555
Mg0 O5 2.134202 1_554
Ni0 O0 2.132016 1_455
Ni0 O2 2.132246 1_455
Ni0 O4 2.135985 1_555
Ni0 O1 2.136161 1_565
Ni0 O5 2.136417 1_565
Ni0 O3 2.136429 1_555
I0 O1 1.910682 1_555
I0 O4 1.910784 1_555
I0 O3 1.911529 1_555
I0 O5 1.912112 1_555
I0 O2 1.912383 1_555
I0 O0 1.913019 1_555
