# generated using pymatgen
data_YCrB4
_symmetry_space_group_name_H-M   'P 1'
_cell_length_a   3.44648958
_cell_length_b   5.91809299
_cell_length_c   11.43413371
_cell_angle_alpha   90.00000000
_cell_angle_beta   90.00000000
_cell_angle_gamma   90.00000000
_symmetry_Int_Tables_number   1
_chemical_formula_structural   YCrB4
_chemical_formula_sum   'Y4 Cr4 B16'
_cell_volume   233.21797558
_cell_formula_units_Z   4
loop_
 _symmetry_equiv_pos_site_id
 _symmetry_equiv_pos_as_xyz
  1  'x, y, z'
loop_
 _atom_site_type_symbol
 _atom_site_label
 _atom_site_symmetry_multiplicity
 _atom_site_fract_x
 _atom_site_fract_y
 _atom_site_fract_z
 _atom_site_occupancy
  Y  Y0  1  0.00000000  0.37500099  0.65046827  1
  Y  Y1  1  -0.00000000  0.62499901  0.34953173  1
  Y  Y2  1  0.00000000  0.87500099  0.84953173  1
  Y  Y3  1  -0.00000000  0.12499901  0.15046827  1
  Cr  Cr0  1  -0.00000000  0.37919200  0.92137056  1
  Cr  Cr1  1  0.00000000  0.62080800  0.07862944  1
  Cr  Cr2  1  0.00000000  0.87919200  0.57862944  1
  Cr  Cr3  1  0.00000000  0.12080800  0.42137056  1
  B  B0  1  0.50000000  0.02468384  0.69132386  1
  B  B1  1  0.50000000  0.97531616  0.30867614  1
  B  B2  1  0.50000000  0.52468384  0.80867614  1
  B  B3  1  0.50000000  0.47531616  0.19132386  1
  B  B4  1  0.50000000  0.11302982  0.54671775  1
  B  B5  1  0.50000000  0.88697018  0.45328225  1
  B  B6  1  0.50000000  0.61302982  0.95328225  1
  B  B7  1  0.50000000  0.38697018  0.04671775  1
  B  B8  1  0.50000000  0.27963348  0.31648092  1
  B  B9  1  0.50000000  0.72036652  0.68351908  1
  B  B10  1  0.50000000  0.77963348  0.18351908  1
  B  B11  1  0.50000000  0.22036652  0.81648092  1
  B  B12  1  0.50000000  0.36223578  0.46745896  1
  B  B13  1  0.50000000  0.63776422  0.53254104  1
  B  B14  1  0.50000000  0.86223578  0.03254104  1
  B  B15  1  0.50000000  0.13776422  0.96745896  1
loop_
_geom_bond_atom_site_label_1
_geom_bond_atom_site_label_2
_geom_bond_distance
_geom_bond_site_symmetry_2
B0 B4 1.734141 1_555
B0 B9 1.803188 1_545
B0 B11 1.840941 1_555
B0 Cr2 2.317617 1_545
B0 Cr2 2.317617 1_645
B0 Y2 2.650783 1_545
B0 Y2 2.650783 1_645
B0 Y0 2.736055 1_555
B0 Y0 2.736055 1_655
B1 B5 1.734141 1_555
B1 B8 1.803188 1_565
B1 B10 1.840941 1_555
B1 Cr3 2.317617 1_565
B1 Cr3 2.317617 1_665
B1 Y3 2.650783 1_565
B1 Y3 2.650783 1_665
B1 Y1 2.736055 1_555
B1 Y1 2.736055 1_655
B2 B6 1.734141 1_555
B2 B9 1.840941 1_555
B2 Cr0 2.317617 1_555
B2 Cr0 2.317617 1_655
B2 Y0 2.650783 1_555
B2 Y0 2.650783 1_655
B2 Y2 2.736055 1_655
B2 Y2 2.736055 1_555
B3 B7 1.734141 1_555
B3 B8 1.840941 1_555
B3 Cr1 2.317617 1_655
B3 Cr1 2.317617 1_555
B3 Y1 2.650783 1_555
B3 Y1 2.650783 1_655
B3 Y3 2.736055 1_555
B3 Y3 2.736055 1_655
B4 B5 1.712075 1_545
B4 Cr2 2.240049 1_545
B4 Cr2 2.240049 1_645
B4 Cr3 2.241843 1_555
B4 Cr3 2.241843 1_655
B4 Y0 2.603943 1_655
B4 Y0 2.603943 1_555
B5 Cr3 2.240049 1_565
B5 Cr3 2.240049 1_665
B5 Cr2 2.241843 1_655
B5 Cr2 2.241843 1_555
B5 Y1 2.603943 1_555
B5 Y1 2.603943 1_655
B6 B7 1.712075 1_556
B6 Cr0 2.240049 1_655
B6 Cr0 2.240049 1_555
B6 Cr1 2.241843 1_556
B6 Cr1 2.241843 1_656
B6 Y2 2.603943 1_655
B6 Y2 2.603943 1_555
B7 Cr1 2.240049 1_555
B7 Cr1 2.240049 1_655
B7 Cr0 2.241843 1_554
B7 Cr0 2.241843 1_654
B7 Y3 2.603943 1_555
B7 Y3 2.603943 1_655
B8 Cr3 2.300313 1_655
B8 Cr3 2.300313 1_555
B8 Y1 2.699988 1_555
B8 Y1 2.699988 1_655
B8 Y3 2.722179 1_555
B8 Y3 2.722179 1_655
B9 Cr2 2.300313 1_655
B9 Cr2 2.300313 1_555
B9 Y0 2.699988 1_655
B9 Y0 2.699988 1_555
B9 Y2 2.722179 1_655
B9 Y2 2.722179 1_555
B10 B14 1.794184 1_555
B10 B3 1.803188 1_555
B10 Cr1 2.300313 1_555
B10 Cr1 2.300313 1_655
B10 Y3 2.699988 1_565
B10 Y3 2.699988 1_665
B10 Y1 2.722179 1_555
B10 Y1 2.722179 1_655
B11 B15 1.794184 1_555
B11 B2 1.803188 1_555
B11 Cr0 2.300313 1_555
B11 Cr0 2.300313 1_655
B11 Y2 2.699988 1_545
B11 Y2 2.699988 1_645
B11 Y0 2.722179 1_655
B11 Y0 2.722179 1_555
B12 B4 1.731013 1_555
B12 B13 1.792383 1_555
B12 B8 1.794184 1_555
B12 Cr3 2.299724 1_655
B12 Cr3 2.299724 1_555
B12 Y1 2.684389 1_555
B12 Y1 2.684389 1_655
B12 Y0 2.711837 1_655
B12 Y0 2.711837 1_555
B13 B5 1.731013 1_555
B13 B9 1.794184 1_555
B13 Cr2 2.299724 1_655
B13 Cr2 2.299724 1_555
B13 Y0 2.684389 1_655
B13 Y0 2.684389 1_555
B13 Y1 2.711837 1_555
B13 Y1 2.711837 1_655
B14 B6 1.731013 1_554
B14 B15 1.792383 1_564
B14 Cr1 2.299724 1_655
B14 Cr1 2.299724 1_555
B14 Y3 2.684389 1_665
B14 Y3 2.684389 1_565
B14 Y2 2.711837 1_654
B14 Y2 2.711837 1_554
B15 B7 1.731013 1_556
B15 Cr0 2.299724 1_555
B15 Cr0 2.299724 1_655
B15 Y2 2.684389 1_645
B15 Y2 2.684389 1_545
B15 Y3 2.711837 1_656
B15 Y3 2.711837 1_556
