# generated using pymatgen
data_MgV(CO3)2
_symmetry_space_group_name_H-M   'P 1'
_cell_length_a   4.76046200
_cell_length_b   6.12346872
_cell_length_c   4.75828405
_cell_angle_alpha   113.00038702
_cell_angle_beta   60.00102430
_cell_angle_gamma   112.93088204
_symmetry_Int_Tables_number   1
_chemical_formula_structural   MgV(CO3)2
_chemical_formula_sum   'Mg1 V1 C2 O6'
_cell_volume   107.24180835
_cell_formula_units_Z   1
loop_
 _symmetry_equiv_pos_site_id
 _symmetry_equiv_pos_as_xyz
  1  'x, y, z'
loop_
 _atom_site_type_symbol
 _atom_site_label
 _atom_site_symmetry_multiplicity
 _atom_site_fract_x
 _atom_site_fract_y
 _atom_site_fract_z
 _atom_site_occupancy
  Mg  Mg0  1  0.82599800  0.47594400  0.82597400  1
  V  V0  1  0.00642000  0.01754500  0.00600400  1
  C  C0  1  0.58200100  0.74711600  0.58268300  1
  C  C1  1  0.41524800  0.24281900  0.41475500  1
  O  O0  1  0.28444900  0.74270200  0.63621300  1
  O  O1  1  0.42602000  0.24429700  0.13747200  1
  O  O2  1  0.13816200  0.24431900  0.68264200  1
  O  O3  1  0.82172400  0.74384500  0.28536000  1
  O  O4  1  0.63605500  0.74432700  0.82271000  1
  O  O5  1  0.68336700  0.24500300  0.42563200  1
loop_
_geom_bond_atom_site_label_1
_geom_bond_atom_site_label_2
_geom_bond_distance
_geom_bond_site_symmetry_2
Mg0 O5 2.128294 1_555
Mg0 O1 2.133251 1_556
Mg0 O2 2.134993 1_655
Mg0 O3 2.156141 1_556
Mg0 O0 2.156550 1_655
Mg0 O4 2.170411 1_555
C0 O4 1.297493 1_555
C0 O3 1.298249 1_555
C0 O0 1.298769 1_555
C1 O2 1.297604 1_555
C1 O5 1.297765 1_555
C1 O1 1.298006 1_555
O0 V0 2.184739 1_566
O1 V0 2.172263 1_555
O2 V0 2.171461 1_556
O3 V0 2.184705 1_665
O4 V0 2.183368 1_666
O5 V0 2.171888 1_655
