# generated using pymatgen
data_MgV3SnO8
_symmetry_space_group_name_H-M   'P 1'
_cell_length_a   6.62417118
_cell_length_b   6.62417239
_cell_length_c   6.92551573
_cell_angle_alpha   74.43148821
_cell_angle_beta   105.56851211
_cell_angle_gamma   145.28249825
_symmetry_Int_Tables_number   1
_chemical_formula_structural   MgV3SnO8
_chemical_formula_sum   'Mg1 V3 Sn1 O8'
_cell_volume   166.09066050
_cell_formula_units_Z   1
loop_
 _symmetry_equiv_pos_site_id
 _symmetry_equiv_pos_as_xyz
  1  'x, y, z'
loop_
 _atom_site_type_symbol
 _atom_site_label
 _atom_site_symmetry_multiplicity
 _atom_site_fract_x
 _atom_site_fract_y
 _atom_site_fract_z
 _atom_site_occupancy
  Mg  Mg0  1  0.82091400  0.17908600  0.98741400  1
  V  V0  1  0.39819600  0.60180400  0.32878100  1
  V  V1  1  0.60201000  0.39799000  0.69503900  1
  V  V2  1  0.29593400  0.70406600  0.68911800  1
  Sn  Sn0  1  0.68824200  0.31175800  0.28504100  1
  O  O0  1  0.13975100  0.86024900  0.68025400  1
  O  O1  1  0.23651900  0.76348100  0.36328800  1
  O  O2  1  0.35531200  0.64468800  0.98187300  1
  O  O3  1  0.43068500  0.56931500  0.63096000  1
  O  O4  1  0.55607700  0.44392300  0.38470300  1
  O  O5  1  0.65821100  0.34178900  0.98992100  1
  O  O6  1  0.76996600  0.23003400  0.67659700  1
  O  O7  1  0.85818000  0.14182000  0.28701100  1
loop_
_geom_bond_atom_site_label_1
_geom_bond_atom_site_label_2
_geom_bond_distance
_geom_bond_site_symmetry_2
Mg0 O7 1.994303 1_556
Mg0 O2 2.026326 1_655
Mg0 O2 2.026326 1_545
Mg0 O5 2.062321 1_555
Mg0 O6 2.066079 1_555
O0 V2 1.958551 1_555
O0 V1 2.042465 1_455
O0 V1 2.042465 1_565
O1 Sn0 2.094330 1_455
O1 Sn0 2.094330 1_565
O1 V0 2.124016 1_555
O1 V2 2.168635 1_555
O2 V2 1.954044 1_555
O2 V0 2.309426 1_556
O3 V2 1.857832 1_555
O3 V0 2.016145 1_555
O3 V1 2.085552 1_555
O4 V0 1.923737 1_555
O4 Sn0 1.979416 1_555
O4 V1 2.062649 1_555
O5 V1 1.964547 1_555
O5 Sn0 1.971057 1_556
O6 V2 2.001318 1_655
O6 V2 2.001318 1_545
O6 V1 2.163185 1_555
O6 Sn0 2.616368 1_555
O7 V0 2.040427 1_655
O7 V0 2.040427 1_545
O7 Sn0 2.145061 1_555
