# generated using pymatgen
data_NaLaSiSn(SO6)2
_symmetry_space_group_name_H-M   'P 1'
_cell_length_a   9.24440632
_cell_length_b   9.28384309
_cell_length_c   23.74610876
_cell_angle_alpha   91.11575312
_cell_angle_beta   90.00000000
_cell_angle_gamma   119.85958003
_symmetry_Int_Tables_number   1
_chemical_formula_structural   NaLaSiSn(SO6)2
_chemical_formula_sum   'Na6 La6 Si6 Sn6 S12 O72'
_cell_volume   1766.98627542
_cell_formula_units_Z   6
loop_
 _symmetry_equiv_pos_site_id
 _symmetry_equiv_pos_as_xyz
  1  'x, y, z'
loop_
 _atom_site_type_symbol
 _atom_site_label
 _atom_site_symmetry_multiplicity
 _atom_site_fract_x
 _atom_site_fract_y
 _atom_site_fract_z
 _atom_site_occupancy
  Na  Na0  1  0.04222852  0.01644609  0.49687483  1
  Na  Na1  1  0.97421757  0.01644609  0.99687483  1
  Na  Na2  1  0.70671781  0.33298754  0.82858351  1
  Na  Na3  1  0.62627073  0.33298754  0.32858351  1
  Na  Na4  1  0.34023241  0.71117495  0.16272754  1
  Na  Na5  1  0.37094155  0.71117495  0.66272754  1
  La  La0  1  0.00006254  -0.00010578  0.64422593  1
  La  La1  1  0.99983168  -0.00010578  0.14422593  1
  La  La2  1  0.67472358  0.32148703  0.97659127  1
  La  La3  1  0.64676445  0.32148703  0.47659127  1
  La  La4  1  0.33583391  0.67127095  0.31042424  1
  La  La5  1  0.33543604  0.67127095  0.81042424  1
  Si  Si0  1  0.30534797  0.01559108  0.24811805  1
  Si  Si1  1  0.71024311  0.01559108  0.74811805  1
  Si  Si2  1  0.37099835  0.01707405  0.57982126  1
  Si  Si3  1  0.64607670  0.01707405  0.07982126  1
  Si  Si4  1  0.05608124  0.36850357  0.91534934  1
  Si  Si5  1  0.31242133  0.36850357  0.41534934  1
  Sn  Sn0  1  0.02355295  0.01466445  0.35193160  1
  Sn  Sn1  1  0.99111150  0.01466445  0.85193160  1
  Sn  Sn2  1  0.65578974  0.30256477  0.68331372  1
  Sn  Sn3  1  0.64677602  0.30256477  0.18331372  1
  Sn  Sn4  1  0.33044360  0.66227270  0.01732398  1
  Sn  Sn5  1  0.33182810  0.66227270  0.51732398  1
  S  S0  1  0.72033530  0.68966269  0.25070955  1
  S  S1  1  0.97049374  0.28460483  0.25172923  1
  S  S2  1  0.31411109  0.28460483  0.75172923  1
  S  S3  1  0.96932739  0.68966269  0.75070955  1
  S  S4  1  0.97304132  0.35818706  0.58396410  1
  S  S5  1  0.63898723  0.61141631  0.58609276  1
  S  S6  1  0.97243007  0.61141631  0.08609276  1
  S  S7  1  0.38514674  0.35818706  0.08396410  1
  S  S8  1  0.64498640  0.69127501  0.91793090  1
  S  S9  1  0.29938057  0.95335578  0.91701553  1
  S  S10  1  0.65397421  0.95335578  0.41701553  1
  S  S11  1  0.04628762  0.69127501  0.41793090  1
  O  O0  1  0.21359880  0.03239522  0.30792028  1
  O  O1  1  0.81711166  0.77634343  0.30392352  1
  O  O2  1  0.95326710  0.18489483  0.30302631  1
  O  O3  1  0.23162773  0.18489483  0.80302631  1
  O  O4  1  0.95923177  0.77634343  0.80392352  1
  O  O5  1  0.81879642  0.03239522  0.80792028  1
  O  O6  1  0.80282856  0.00325107  0.69315370  1
  O  O7  1  0.21879326  0.20364507  0.70015017  1
  O  O8  1  0.99186315  0.78800738  0.70078176  1
  O  O9  1  0.79614423  0.78800738  0.20078176  1
  O  O10  1  0.98485182  0.20364507  0.20015017  1
  O  O11  1  0.20042251  0.00325107  0.19315370  1
  O  O12  1  0.89064393  0.37528283  0.63720232  1
  O  O13  1  0.48355159  0.10688550  0.63938821  1
  O  O14  1  0.63101184  0.51540765  0.63757876  1
  O  O15  1  0.88439680  0.51540765  0.13757876  1
  O  O16  1  0.62333491  0.10688550  0.13938821  1
  O  O17  1  0.48463990  0.37528283  0.13720232  1
  O  O18  1  0.46843283  0.34472320  0.03387073  1
  O  O19  1  0.87684482  0.53643894  0.03435356  1
  O  O20  1  0.66475614  0.12575648  0.02628494  1
  O  O21  1  0.46100135  0.12575648  0.52628494  1
  O  O22  1  0.65959512  0.53643894  0.53435356  1
  O  O23  1  0.87629136  0.34472320  0.53387073  1
  O  O24  1  0.56236401  0.71363791  0.96962624  1
  O  O25  1  0.16533283  0.46454024  0.97549779  1
  O  O26  1  0.28975036  0.85853980  0.96855076  1
  O  O27  1  0.56878844  0.85853980  0.46855076  1
  O  O28  1  0.29920641  0.46454024  0.47549779  1
  O  O29  1  0.15127290  0.71363791  0.46962624  1
  O  O30  1  0.12467160  0.67570508  0.36650702  1
  O  O31  1  0.55127432  0.88182020  0.36609652  1
  O  O32  1  0.31801195  0.47001127  0.36137015  1
  O  O33  1  0.15199832  0.47001127  0.86137015  1
  O  O34  1  0.33054488  0.88182020  0.86609652  1
  O  O35  1  0.55103248  0.67570508  0.86650702  1
  O  O36  1  0.03317215  0.84740978  0.41528838  1
  O  O37  1  0.81360669  0.94623776  0.41143262  1
  O  O38  1  0.13710348  0.18240826  0.41478961  1
  O  O39  1  0.04530477  0.18240826  0.91478961  1
  O  O40  1  0.13263107  0.94623776  0.91143262  1
  O  O41  1  0.81423763  0.84740978  0.91528838  1
  O  O42  1  0.99665310  0.21255104  0.58637993  1
  O  O43  1  0.18137072  0.98124091  0.58294751  1
  O  O44  1  0.77747092  0.78360812  0.58967597  1
  O  O45  1  0.00613720  0.78360812  0.08967597  1
  O  O46  1  0.79987019  0.98124091  0.08294751  1
  O  O47  1  0.21589795  0.21255104  0.08637993  1
  O  O48  1  0.70588324  0.19446320  0.74657648  1
  O  O49  1  0.48335087  0.29745447  0.74844322  1
  O  O50  1  0.80821965  0.52547625  0.74586487  1
  O  O51  1  0.71725760  0.52547625  0.24586487  1
  O  O52  1  0.81410460  0.29745447  0.24844322  1
  O  O53  1  0.48858096  0.19446320  0.24657648  1
  O  O54  1  0.66863961  0.54753356  0.92271957  1
  O  O55  1  0.86832297  0.34033141  0.91602864  1
  O  O56  1  0.43189723  0.12816605  0.92215813  1
  O  O57  1  0.69626983  0.12816605  0.42215813  1
  O  O58  1  0.47200944  0.34033141  0.41602864  1
  O  O59  1  0.87889495  0.54753356  0.42271957  1
  O  O60  1  0.37138651  0.51296279  0.08252819  1
  O  O61  1  0.13772849  0.61534853  0.08345371  1
  O  O62  1  0.46533106  0.83421721  0.07470746  1
  O  O63  1  0.36888514  0.83421721  0.57470746  1
  O  O64  1  0.47761904  0.61534853  0.58345371  1
  O  O65  1  0.14157528  0.51296279  0.58252819  1
  O  O66  1  0.33918845  0.86039637  0.24935358  1
  O  O67  1  0.54782002  0.65757085  0.25433494  1
  O  O68  1  0.11435139  0.45290423  0.25530713  1
  O  O69  1  0.33855184  0.45290423  0.75530713  1
  O  O70  1  0.10974983  0.65757085  0.75433494  1
  O  O71  1  0.52120692  0.86039637  0.74935358  1
loop_
_geom_bond_atom_site_label_1
_geom_bond_atom_site_label_2
_geom_bond_distance
_geom_bond_site_symmetry_2
Na0 O38 2.390387 1_555
Na0 O36 2.444150 1_545
Na0 O43 2.526557 1_545
Na0 O37 2.754072 1_445
Na0 O42 2.936415 1_455
Na1 O39 2.390387 1_655
Na1 O41 2.444150 1_545
Na1 O46 2.526557 1_546
Na1 O40 2.754072 1_645
Na1 O47 2.936415 1_656
Na2 O48 2.310564 1_555
Na2 O50 2.529667 1_555
Na2 O55 2.537982 1_555
Na2 O49 2.700254 1_555
Na3 O53 2.310564 1_555
Na3 O51 2.529667 1_555
Na3 O58 2.537982 1_555
Na3 O52 2.700254 1_555
Na4 O62 2.405928 1_555
Na4 O66 2.460283 1_555
Na4 O61 2.473049 1_555
Na4 O60 2.736282 1_555
Na5 O63 2.405928 1_555
Na5 O71 2.460283 1_555
Na5 O64 2.473049 1_555
Na5 O65 2.736282 1_555
La0 O6 2.174968 1_455
La0 O43 2.288198 1_545
La0 O7 2.350285 1_555
La0 O8 2.373464 1_445
La0 O44 2.393430 1_445
La0 O42 2.439907 1_455
La1 O11 2.174968 1_655
La1 O46 2.288198 1_545
La1 O10 2.350285 1_555
La1 O9 2.373464 1_545
La1 O45 2.393430 1_645
La1 O47 2.439907 1_655
La2 O20 2.149352 1_556
La2 O55 2.236047 1_555
La2 O19 2.352761 1_556
La2 O56 2.414310 1_555
La2 O18 2.435483 1_556
La2 O54 2.503147 1_555
La3 O21 2.149352 1_555
La3 O58 2.236047 1_555
La3 O22 2.352761 1_555
La3 O57 2.414310 1_555
La3 O23 2.435483 1_555
La3 O59 2.503147 1_555
La4 O32 2.182507 1_555
La4 O66 2.287320 1_555
La4 O31 2.357536 1_555
La4 O30 2.379854 1_555
La4 O68 2.403855 1_555
La4 O67 2.423243 1_555
La5 O33 2.182507 1_555
La5 O71 2.287320 1_555
La5 O34 2.357536 1_555
La5 O35 2.379854 1_555
La5 O69 2.403855 1_555
La5 O70 2.423243 1_555
O0 Si0 1.698074 1_555
O0 Sn0 1.981065 1_555
O1 S0 1.512690 1_555
O1 Sn0 2.352501 1_665
O2 S1 1.504384 1_555
O2 Sn0 2.315693 1_655
O3 S2 1.504384 1_555
O3 Sn1 2.315693 1_455
O4 S3 1.512690 1_555
O4 Sn1 2.352501 1_565
O5 Si1 1.698074 1_555
O5 Sn1 1.981065 1_555
O6 Si1 1.594057 1_555
O7 S2 1.464983 1_555
O8 S3 1.461295 1_555
O9 S0 1.461295 1_555
O10 S1 1.464983 1_555
O11 Si0 1.594057 1_555
O12 S4 1.521897 1_555
O12 Sn2 2.222081 1_555
O13 Si2 1.693751 1_555
O13 Sn2 1.992330 1_555
O14 S5 1.507195 1_555
O14 Sn2 2.381337 1_555
O15 S6 1.507195 1_555
O15 Sn3 2.381337 1_555
O16 Si3 1.693751 1_555
O16 Sn3 1.992330 1_555
O17 S7 1.521897 1_555
O17 Sn3 2.222081 1_555
O18 S7 1.453761 1_555
O19 S6 1.459118 1_555
O20 Si3 1.593893 1_555
O21 Si2 1.593893 1_555
O22 S5 1.459118 1_555
O23 S4 1.453761 1_555
O24 S8 1.510421 1_555
O24 Sn4 2.260498 1_556
O25 Si4 1.705502 1_555
O25 Sn4 1.955765 1_556
O26 S9 1.498095 1_555
O26 Sn4 2.359598 1_556
O27 S10 1.498095 1_555
O27 Sn5 2.359598 1_555
O28 Si5 1.705502 1_555
O28 Sn5 1.955765 1_555
O29 S11 1.510421 1_555
O29 Sn5 2.260498 1_555
O30 S11 1.460996 1_555
O31 S10 1.464684 1_555
O32 Si5 1.591320 1_555
O33 Si4 1.591320 1_555
O34 S9 1.464684 1_555
O35 S8 1.460996 1_555
O36 S11 1.516021 1_555
O36 Sn0 2.216058 1_565
O37 S10 1.515394 1_555
O37 Sn0 2.230239 1_665
O38 Si5 1.680085 1_555
O38 Sn0 2.009165 1_555
O39 Si4 1.680089 1_555
O39 Sn1 2.009165 1_455
O40 S9 1.515385 1_555
O40 Sn1 2.230239 1_465
O41 S8 1.516026 1_555
O41 Sn1 2.216058 1_565
O42 S4 1.475093 1_555
O43 Si2 1.615377 1_565
O44 S5 1.469199 1_555
O45 S6 1.469202 1_455
O46 Si3 1.615368 1_565
O47 S7 1.475098 1_555
O48 Si1 1.682153 1_555
O48 Sn2 1.999972 1_555
O49 S2 1.510816 1_555
O49 Sn2 2.205181 1_555
O50 S3 1.512432 1_555
O50 Sn2 2.334768 1_555
O51 S0 1.512436 1_555
O51 Sn3 2.334768 1_555
O52 S1 1.510806 1_555
O52 Sn3 2.205181 1_555
O53 Si0 1.682158 1_555
O53 Sn3 1.999971 1_555
O54 S8 1.462199 1_555
O55 Si4 1.621571 1_655
O56 S9 1.470398 1_545
O57 S10 1.470393 1_545
O58 Si5 1.621589 1_555
O59 S11 1.462188 1_655
O60 S7 1.505317 1_555
O60 Sn4 2.251247 1_555
O61 S6 1.511571 1_455
O61 Sn4 2.254641 1_555
O62 Si3 1.689971 1_565
O62 Sn4 1.973090 1_555
O63 Si2 1.689962 1_565
O63 Sn5 1.973090 1_555
O64 S5 1.511590 1_555
O64 Sn5 2.254641 1_555
O65 S4 1.505307 1_455
O65 Sn5 2.251247 1_555
O66 Si0 1.620218 1_565
O67 S0 1.472222 1_555
O68 S1 1.463851 1_455
O69 S2 1.463855 1_555
O70 S3 1.472213 1_455
O71 Si1 1.620224 1_565
