# generated using pymatgen
data_La6ZnSb15
_symmetry_space_group_name_H-M   'P 1'
_cell_length_a   12.76836439
_cell_length_b   12.76836439
_cell_length_c   4.33527286
_cell_angle_alpha   80.22619455
_cell_angle_beta   80.22619455
_cell_angle_gamma   100.82054470
_symmetry_Int_Tables_number   1
_chemical_formula_structural   La6ZnSb15
_chemical_formula_sum   'La6 Zn1 Sb15'
_cell_volume   669.13475658
_cell_formula_units_Z   1
loop_
 _symmetry_equiv_pos_site_id
 _symmetry_equiv_pos_as_xyz
  1  'x, y, z'
loop_
 _atom_site_type_symbol
 _atom_site_label
 _atom_site_symmetry_multiplicity
 _atom_site_fract_x
 _atom_site_fract_y
 _atom_site_fract_z
 _atom_site_occupancy
  La  La0  1  0.26571919  0.00056949  0.76606680  1
  La  La1  1  0.72237880  0.99594670  0.04131740  1
  La  La2  1  0.99594670  0.72237880  0.04131740  1
  La  La3  1  0.00056949  0.26571919  0.76606680  1
  La  La4  1  0.32565784  0.67489522  0.90011434  1
  La  La5  1  0.67489522  0.32565784  0.90011434  1
  Zn  Zn0  1  0.25476578  0.25476578  0.64214134  1
  Sb  Sb0  1  0.50806502  0.91571737  0.68966160  1
  Sb  Sb1  1  0.48255619  0.08459680  0.11520625  1
  Sb  Sb2  1  0.08459680  0.48255619  0.11520625  1
  Sb  Sb3  1  0.91571737  0.50806502  0.68966160  1
  Sb  Sb4  1  0.42412822  0.42412822  0.97437185  1
  Sb  Sb5  1  0.60730057  0.60730057  0.79469893  1
  Sb  Sb6  1  0.19794054  0.79718292  0.40270382  1
  Sb  Sb7  1  0.79718292  0.19794054  0.40270382  1
  Sb  Sb8  1  0.46569097  0.24967368  0.54332432  1
  Sb  Sb9  1  0.53984411  0.75547977  0.25139638  1
  Sb  Sb10  1  0.75547977  0.53984411  0.25139638  1
  Sb  Sb11  1  0.24967368  0.46569097  0.54332432  1
  Sb  Sb12  1  0.15008405  0.15008405  0.24811299  1
  Sb  Sb13  1  0.85456032  0.85456032  0.54519959  1
  Sb  Sb14  1  0.98624344  0.98624344  0.91399348  1
loop_
_geom_bond_atom_site_label_1
_geom_bond_atom_site_label_2
_geom_bond_distance
_geom_bond_site_symmetry_2
La0 Zn0 3.232104 1_555
La0 Sb6 3.313965 1_545
La0 Sb6 3.319972 1_546
La0 Sb12 3.399556 1_556
La0 Sb12 3.405162 1_555
La0 Sb0 3.448360 1_545
La0 Sb1 3.459252 1_556
La0 Sb1 3.461614 1_555
La0 Sb14 3.480901 1_445
La0 Sb8 3.555177 1_555
La1 Sb7 3.312672 1_565
La1 Sb7 3.313923 1_564
La1 Sb14 3.349559 1_554
La1 Sb9 3.366262 1_555
La1 Sb0 3.428667 1_554
La1 Sb0 3.434576 1_555
La1 Sb1 3.442679 1_565
La1 Sb13 3.454880 1_555
La1 Sb13 3.458795 1_554
La2 Sb6 3.312672 1_655
La2 Sb6 3.313923 1_654
La2 Sb14 3.349559 1_554
La2 Sb10 3.366262 1_555
La2 Sb3 3.428667 1_554
La2 Sb3 3.434576 1_555
La2 Sb2 3.442679 1_655
La2 Sb13 3.454880 1_555
La2 Sb13 3.458795 1_554
La3 Zn0 3.232104 1_555
La3 Sb7 3.313965 1_455
La3 Sb7 3.319972 1_456
La3 Sb12 3.399556 1_556
La3 Sb12 3.405162 1_555
La3 Sb3 3.448360 1_455
La3 Sb2 3.459252 1_556
La3 Sb2 3.461614 1_555
La3 Sb14 3.480901 1_445
La3 Sb11 3.555177 1_555
La4 Sb6 3.278647 1_556
La4 Sb6 3.279364 1_555
La4 Sb0 3.368827 1_555
La4 Sb11 3.377626 1_555
La4 Sb11 3.381085 1_556
La4 Sb9 3.427336 1_556
La4 Sb2 3.432844 1_556
La4 Sb9 3.434669 1_555
La4 Sb4 3.638064 1_555
La4 Sb5 3.824537 1_555
La5 Sb7 3.278647 1_556
La5 Sb7 3.279364 1_555
La5 Sb3 3.368827 1_555
La5 Sb8 3.377626 1_555
La5 Sb8 3.381085 1_556
La5 Sb10 3.427336 1_556
La5 Sb1 3.432844 1_556
La5 Sb10 3.434669 1_555
La5 Sb4 3.638064 1_555
La5 Sb5 3.824537 1_555
Sb0 Sb9 3.039204 1_556
Sb0 Sb9 3.054574 1_555
Sb0 Sb1 3.093473 1_566
Sb0 Sb1 3.110275 1_565
Sb1 Sb8 3.035333 1_554
Sb1 Sb8 3.049053 1_555
Sb2 Sb3 3.093473 1_454
Sb2 Sb3 3.110275 1_455
Sb4 Sb5 2.873316 1_555
Sb4 Sb8 3.202477 1_555
Sb4 Sb8 3.217170 1_556
Sb5 Sb9 3.089707 1_556
Sb5 Sb9 3.107556 1_555
Sb8 Zn0 2.669157 1_555
Sb10 Sb3 3.039204 1_554
Sb10 Sb3 3.054574 1_555
Sb10 Sb5 3.089707 1_554
Sb10 Sb5 3.107556 1_555
Sb11 Zn0 2.669157 1_555
Sb11 Sb2 3.035333 1_556
Sb11 Sb2 3.049053 1_555
Sb11 Sb4 3.202477 1_555
Sb11 Sb4 3.217170 1_554
Sb12 Zn0 2.714904 1_555
Sb12 Zn0 2.723850 1_554
Sb12 Sb14 3.356387 1_444
Sb12 Sb14 3.367829 1_445
Sb13 Sb14 2.992745 1_554
Sb13 Sb14 2.995704 1_555
