# generated using pymatgen
data_Ba2MgTi3Tl2O10
_symmetry_space_group_name_H-M   'P 1'
_cell_length_a   3.98878612
_cell_length_b   4.13296687
_cell_length_c   17.00857934
_cell_angle_alpha   82.71429466
_cell_angle_beta   84.99530913
_cell_angle_gamma   90.00829057
_symmetry_Int_Tables_number   1
_chemical_formula_structural   Ba2MgTi3Tl2O10
_chemical_formula_sum   'Ba2 Mg1 Ti3 Tl2 O10'
_cell_volume   277.05322743
_cell_formula_units_Z   1
loop_
 _symmetry_equiv_pos_site_id
 _symmetry_equiv_pos_as_xyz
  1  'x, y, z'
loop_
 _atom_site_type_symbol
 _atom_site_label
 _atom_site_symmetry_multiplicity
 _atom_site_fract_x
 _atom_site_fract_y
 _atom_site_fract_z
 _atom_site_occupancy
  Ba  Ba0  1  0.14732002  0.05680423  0.23882762  1
  Ba  Ba1  1  0.78957460  0.74370131  0.74687028  1
  Mg  Mg0  1  0.59892596  0.46640163  0.36124900  1
  Ti  Ti0  1  0.21766699  0.17953856  0.86112890  1
  Ti  Ti1  1  0.69166282  0.64788842  0.12497487  1
  Ti  Ti2  1  0.25634852  0.57330589  0.99320167  1
  Tl  Tl0  1  0.82651719  0.89413742  0.47473959  1
  Tl  Tl1  1  0.36747885  0.33042172  0.59295048  1
  O  O0  1  0.25868557  0.68580771  0.87690910  1
  O  O1  1  0.31217139  0.25197220  0.74776684  1
  O  O2  1  0.77552393  0.19051804  0.85585277  1
  O  O3  1  0.03415779  0.83301243  0.59318800  1
  O  O4  1  0.72639557  0.62240513  0.01124245  1
  O  O5  1  0.19231856  0.58920238  0.11386882  1
  O  O6  1  0.64496116  0.52789137  0.24370725  1
  O  O7  1  0.68585838  0.06946231  0.13505713  1
  O  O8  1  0.09842166  0.43852077  0.37927569  1
  O  O9  1  0.24314405  0.15104548  0.97954453  1
loop_
_geom_bond_atom_site_label_1
_geom_bond_atom_site_label_2
_geom_bond_distance
_geom_bond_site_symmetry_2
Ba0 O7 2.654687 1_555
Ba0 O7 2.655076 1_455
Ba0 O6 2.793997 1_555
Ba0 O6 2.797493 1_455
Ba0 O5 2.852768 1_555
Ba0 O6 2.951193 1_545
Ba0 O6 2.953695 1_445
Ba0 O8 3.017957 1_555
Ba0 O5 3.042964 1_545
Ba0 O8 3.262609 1_545
Ba1 O3 2.689021 1_655
Ba1 O2 2.751940 1_555
Ba1 O2 2.774788 1_565
Ba1 O1 2.782559 1_555
Ba1 O1 2.836098 1_565
Ba1 O1 2.911124 1_655
Ba1 O0 2.912368 1_555
Ba1 O1 2.961535 1_665
Ba1 O0 3.006413 1_655
Mg0 O6 1.975411 1_555
Mg0 O8 1.994265 1_555
Mg0 O8 2.043174 1_655
O0 Ti2 1.972858 1_555
O0 Ti0 2.032632 1_565
O0 Ti0 2.151028 1_555
O1 Ti0 1.917328 1_555
O1 Tl1 2.601855 1_555
O2 Ti0 1.773993 1_655
O2 Ti0 2.219369 1_555
O3 Tl0 2.229498 1_455
O3 Tl1 2.447466 1_565
O3 Tl1 2.466662 1_555
O4 Ti2 1.940801 1_554
O4 Ti1 1.943506 1_555
O4 Ti2 2.122857 1_654
O5 Ti1 2.007112 1_455
O5 Ti1 2.034408 1_555
O5 Ti2 2.055370 1_554
O6 Ti1 2.009783 1_555
O7 Ti1 1.772239 1_545
O7 Ti1 2.374932 1_555
O9 Ti2 1.790905 1_555
O9 Ti0 2.014020 1_555
O9 Ti2 2.370593 1_545
