# generated using pymatgen
data_AlFe3
_symmetry_space_group_name_H-M   'P 1'
_cell_length_a   4.08303656
_cell_length_b   4.08303648
_cell_length_c   4.08303539
_cell_angle_alpha   59.99998324
_cell_angle_beta   59.99998382
_cell_angle_gamma   59.99997868
_symmetry_Int_Tables_number   1
_chemical_formula_structural   AlFe3
_chemical_formula_sum   'Al1 Fe3'
_cell_volume   48.13206525
_cell_formula_units_Z   1
loop_
 _symmetry_equiv_pos_site_id
 _symmetry_equiv_pos_as_xyz
  1  'x, y, z'
loop_
 _atom_site_type_symbol
 _atom_site_label
 _atom_site_symmetry_multiplicity
 _atom_site_fract_x
 _atom_site_fract_y
 _atom_site_fract_z
 _atom_site_occupancy
  Al  Al0  1  0.00000000  0.00000000  0.00000000  1
  Fe  Fe0  1  0.50000000  0.50000000  0.50000000  1
  Fe  Fe1  1  0.25000000  0.25000000  0.25000000  1
  Fe  Fe2  1  0.75000000  0.75000000  0.75000000  1
loop_
_geom_bond_atom_site_label_1
_geom_bond_atom_site_label_2
_geom_bond_distance
_geom_bond_site_symmetry_2
Al0 Fe1 2.500338 1_554
Al0 Fe2 2.500338 1_445
Al0 Fe2 2.500338 1_454
Al0 Fe1 2.500338 1_545
Al0 Fe2 2.500338 1_544
Al0 Fe1 2.500338 1_455
Al0 Fe2 2.500339 1_444
Al0 Fe1 2.500339 1_555
Al0 Fe0 2.887142 1_544
Al0 Fe0 2.887142 1_455
Al0 Fe0 2.887142 1_545
Al0 Fe0 2.887142 1_454
Al0 Fe0 2.887143 1_554
Al0 Fe0 2.887143 1_445
Fe0 Fe2 2.500338 1_554
Fe0 Fe1 2.500338 1_556
Fe0 Fe2 2.500338 1_545
Fe0 Fe1 2.500338 1_565
Fe0 Fe2 2.500338 1_455
Fe0 Fe1 2.500338 1_655
Fe0 Fe2 2.500339 1_555
Fe0 Fe1 2.500339 1_555
