# generated using pymatgen
data_MgCr2O4
_symmetry_space_group_name_H-M   'P 1'
_cell_length_a   5.91407400
_cell_length_b   5.88781138
_cell_length_c   14.48701194
_cell_angle_alpha   90.00051544
_cell_angle_beta   89.27830722
_cell_angle_gamma   119.85286476
_symmetry_Int_Tables_number   1
_chemical_formula_structural   MgCr2O4
_chemical_formula_sum   'Mg6 Cr12 O24'
_cell_volume   437.46802322
_cell_formula_units_Z   6
loop_
 _symmetry_equiv_pos_site_id
 _symmetry_equiv_pos_as_xyz
  1  'x, y, z'
loop_
 _atom_site_type_symbol
 _atom_site_label
 _atom_site_symmetry_multiplicity
 _atom_site_fract_x
 _atom_site_fract_y
 _atom_site_fract_z
 _atom_site_occupancy
  Mg  Mg0  1  0.99797328  0.99898855  0.95456262  1
  Mg  Mg1  1  0.66147202  0.33073187  0.62459315  1
  Mg  Mg2  1  0.66779341  0.33389477  0.99675400  1
  Mg  Mg3  1  0.33998005  0.67000639  0.29162988  1
  Mg  Mg4  1  0.99334685  0.99667342  0.70943198  1
  Mg  Mg5  1  0.67011951  0.33506923  0.37538260  1
  Cr  Cr0  1  0.49390593  -0.00114969  0.83330146  1
  Cr  Cr1  1  0.98888940  0.49444241  0.83268743  1
  Cr  Cr2  1  0.16553974  0.33293844  0.50048212  1
  Cr  Cr3  1  0.49390713  0.49504974  0.83330041  1
  Cr  Cr4  1  0.32786020  0.66392713  0.66716281  1
  Cr  Cr5  1  0.66505826  0.83252777  0.50040193  1
  Cr  Cr6  1  0.84404561  0.67342906  0.16719434  1
  Cr  Cr7  1  0.16554117  0.83259820  0.50048250  1
  Cr  Cr8  1  0.84404765  0.17062008  0.16719493  1
  Cr  Cr9  1  0.00440370  0.00220452  0.33453239  1
  Cr  Cr10  1  0.34057822  0.17029435  0.16785375  1
  Cr  Cr11  1  0.34379422  0.67190032  0.04200021  1
  O  O0  1  0.35624068  0.17812036  0.91132054  1
  O  O1  1  0.65983170  0.32990823  0.76077708  1
  O  O2  1  0.81170639  0.17057618  0.90853953  1
  O  O3  1  0.81171040  0.64113415  0.90854138  1
  O  O4  1  0.17735160  0.36118006  0.75352053  1
  O  O5  1  0.02682855  0.51341568  0.57976039  1
  O  O6  1  0.17734733  0.81615982  0.75352323  1
  O  O7  1  0.31082349  0.65540633  0.90833755  1
  O  O8  1  0.48040724  0.51200362  0.57885907  1
  O  O9  1  0.33539712  0.66769333  0.42785069  1
  O  O10  1  0.62654344  0.81326502  0.75253782  1
  O  O11  1  0.48040431  0.96839879  0.57886152  1
  O  O12  1  0.85072354  0.69758362  0.42061537  1
  O  O13  1  0.70657875  0.85329429  0.24720663  1
  O  O14  1  0.85071533  0.15313415  0.42061774  1
  O  O15  1  0.99505356  0.99752701  0.57218797  1
  O  O16  1  0.01182866  0.00591275  0.09461505  1
  O  O17  1  0.15750053  0.85149807  0.24640942  1
  O  O18  1  0.30440255  0.15219495  0.42000760  1
  O  O19  1  0.15750103  0.30601516  0.24641313  1
  O  O20  1  0.51977745  0.01781319  0.09271411  1
  O  O21  1  0.67322146  0.33661312  0.23813863  1
  O  O22  1  0.51977423  0.50196989  0.09271542  1
  O  O23  1  0.99007432  0.49503465  0.08695010  1
loop_
_geom_bond_atom_site_label_1
_geom_bond_atom_site_label_2
_geom_bond_distance
_geom_bond_site_symmetry_2
Mg0 O0 1.932881 1_665
Mg0 O3 1.950677 1_555
Mg0 O2 1.950688 1_565
Mg0 O16 2.031216 1_666
Mg1 O11 1.969858 1_545
Mg1 O8 1.969887 1_555
Mg1 O1 1.972794 1_555
Mg1 O5 1.974458 1_655
Mg2 O2 2.017323 1_555
Mg2 O3 2.017359 1_555
Mg2 O0 2.035446 1_555
Mg2 O23 2.121976 1_556
Mg2 O20 2.123638 1_556
Mg2 O22 2.123678 1_556
Mg3 O9 1.973231 1_555
Mg3 O17 1.975253 1_555
Mg3 O19 1.975330 1_555
Mg3 O13 1.978620 1_555
Mg4 O4 1.972440 1_665
Mg4 O6 1.972488 1_655
Mg4 O10 1.973755 1_555
Mg4 O15 1.988148 1_555
Mg5 O12 1.968237 1_555
Mg5 O14 1.968328 1_555
Mg5 O18 1.975258 1_555
Mg5 O21 1.988088 1_555
Cr0 O0 1.971492 1_555
Cr0 O2 1.975489 1_555
Cr0 O1 1.983953 1_555
Cr0 O10 2.002108 1_545
Cr0 O6 2.011814 1_545
Cr0 O7 2.057600 1_545
Cr1 O2 1.980771 1_555
Cr1 O3 1.980782 1_555
Cr1 O7 1.995103 1_655
Cr1 O1 1.996280 1_555
Cr1 O6 2.002891 1_655
Cr1 O4 2.002922 1_655
Cr2 O5 1.991298 1_555
Cr2 O8 1.991760 1_555
Cr2 O15 1.996761 1_445
Cr2 O9 2.000822 1_555
Cr2 O18 2.003004 1_555
Cr2 O14 2.004484 1_455
Cr3 O0 1.971496 1_555
Cr3 O3 1.975523 1_555
Cr3 O1 1.983958 1_555
Cr3 O10 2.002089 1_555
Cr3 O4 2.011814 1_555
Cr3 O7 2.057570 1_555
Cr4 O6 1.981724 1_555
Cr4 O4 1.981727 1_555
Cr4 O10 1.982905 1_555
Cr4 O8 2.006203 1_555
Cr4 O11 2.006206 1_555
Cr4 O5 2.011027 1_555
Cr5 O8 1.990720 1_555
Cr5 O11 1.990722 1_555
Cr5 O15 1.999425 1_555
Cr5 O14 2.002370 1_565
Cr5 O12 2.002383 1_555
Cr5 O9 2.003890 1_555
Cr6 O13 1.989833 1_555
Cr6 O16 1.990552 1_665
Cr6 O17 1.992831 1_655
Cr6 O22 1.996458 1_555
Cr6 O21 1.997248 1_555
Cr6 O23 2.019468 1_555
Cr7 O5 1.991290 1_555
Cr7 O11 1.991759 1_555
Cr7 O15 1.996758 1_455
Cr7 O9 2.000829 1_555
Cr7 O18 2.002988 1_565
Cr7 O12 2.004480 1_455
Cr8 O13 1.989821 1_545
Cr8 O16 1.990555 1_655
Cr8 O19 1.992847 1_655
Cr8 O20 1.996469 1_555
Cr8 O21 1.997237 1_555
Cr8 O23 2.019459 1_555
Cr9 O14 1.986626 1_455
Cr9 O12 1.986637 1_445
Cr9 O18 1.989104 1_555
Cr9 O13 1.997559 1_445
Cr9 O17 2.001913 1_545
Cr9 O19 2.001930 1_555
Cr10 O17 1.984025 1_545
Cr10 O19 1.984041 1_555
Cr10 O21 1.999610 1_555
Cr10 O16 2.005284 1_555
Cr10 O22 2.008042 1_555
Cr10 O20 2.008051 1_555
Cr11 O22 1.918321 1_555
Cr11 O20 1.918324 1_565
Cr11 O23 1.918743 1_455
Cr11 O7 1.946188 1_554
