# generated using pymatgen
data_Mo
_symmetry_space_group_name_H-M   'P 1'
_cell_length_a   5.53613200
_cell_length_b   5.53613118
_cell_length_c   9.75088000
_cell_angle_alpha   90.00000000
_cell_angle_beta   90.00000000
_cell_angle_gamma   120.00000492
_symmetry_Int_Tables_number   1
_chemical_formula_structural   Mo
_chemical_formula_sum   Mo16
_cell_volume   258.81368160
_cell_formula_units_Z   16
loop_
 _symmetry_equiv_pos_site_id
 _symmetry_equiv_pos_as_xyz
  1  'x, y, z'
loop_
 _atom_site_type_symbol
 _atom_site_label
 _atom_site_symmetry_multiplicity
 _atom_site_fract_x
 _atom_site_fract_y
 _atom_site_fract_z
 _atom_site_occupancy
  Mo  Mo0_0  1  0.00000000  0.00000000  0.00000000  1
  Mo  Mo0_1  1  0.00000000  0.00000000  0.50000000  1
  Mo  Mo0_2  1  0.00000000  0.50000000  0.00000000  1
  Mo  Mo0_3  1  0.00000000  0.50000000  0.50000000  1
  Mo  Mo0_4  1  0.50000000  0.00000000  0.00000000  1
  Mo  Mo0_5  1  0.50000000  0.00000000  0.50000000  1
  Mo  Mo0_6  1  0.50000000  0.50000000  0.00000000  1
  Mo  Mo0_7  1  0.50000000  0.50000000  0.50000000  1
  Mo  Mo1_0  1  0.33333350  0.16666650  0.25000000  1
  Mo  Mo1_1  1  0.33333350  0.16666650  0.75000000  1
  Mo  Mo1_2  1  0.33333350  0.66666650  0.25000000  1
  Mo  Mo1_3  1  0.33333350  0.66666650  0.75000000  1
  Mo  Mo1_4  1  0.83333350  0.16666650  0.25000000  1
  Mo  Mo1_5  1  0.83333350  0.16666650  0.75000000  1
  Mo  Mo1_6  1  0.83333350  0.66666650  0.25000000  1
  Mo  Mo1_7  1  0.83333350  0.66666650  0.75000000  1
loop_
_geom_bond_atom_site_label_1
_geom_bond_atom_site_label_2
_geom_bond_distance
_geom_bond_site_symmetry_2
Mo0_0 Mo0_2 2.768066 1_555
Mo0_0 Mo0_6 2.768066 1_555
Mo0_0 Mo0_6 2.768066 1_445
Mo0_0 Mo0_2 2.768066 1_545
Mo0_0 Mo0_4 2.768066 1_555
Mo0_0 Mo0_4 2.768066 1_455
Mo0_0 Mo1_4 2.914882 1_455
Mo0_0 Mo1_5 2.914882 1_454
Mo0_0 Mo1_6 2.914883 1_445
Mo0_0 Mo1_7 2.914883 1_444
Mo0_0 Mo1_1 2.914883 1_554
Mo0_0 Mo1_0 2.914883 1_555
Mo0_1 Mo0_3 2.768066 1_555
Mo0_1 Mo0_7 2.768066 1_555
Mo0_1 Mo0_3 2.768066 1_545
Mo0_1 Mo0_7 2.768066 1_445
Mo0_1 Mo0_5 2.768066 1_455
Mo0_1 Mo0_5 2.768066 1_555
Mo0_1 Mo1_4 2.914882 1_455
Mo0_1 Mo1_5 2.914882 1_455
Mo0_1 Mo1_7 2.914883 1_445
Mo0_1 Mo1_6 2.914883 1_445
Mo0_1 Mo1_1 2.914883 1_555
Mo0_1 Mo1_0 2.914883 1_555
Mo0_2 Mo0_4 2.768066 1_455
Mo0_2 Mo0_4 2.768066 1_565
Mo0_2 Mo0_6 2.768066 1_555
Mo0_2 Mo0_6 2.768066 1_455
Mo0_2 Mo1_7 2.914882 1_454
Mo0_2 Mo1_6 2.914882 1_455
Mo0_2 Mo1_5 2.914883 1_454
Mo0_2 Mo1_4 2.914883 1_455
Mo0_2 Mo1_3 2.914883 1_554
Mo0_2 Mo1_2 2.914883 1_555
Mo0_3 Mo0_5 2.768066 1_455
Mo0_3 Mo0_5 2.768066 1_565
Mo0_3 Mo0_7 2.768066 1_555
Mo0_3 Mo0_7 2.768066 1_455
Mo0_3 Mo1_6 2.914882 1_455
Mo0_3 Mo1_7 2.914882 1_455
Mo0_3 Mo1_5 2.914883 1_455
Mo0_3 Mo1_4 2.914883 1_455
Mo0_3 Mo1_2 2.914883 1_555
Mo0_3 Mo1_3 2.914883 1_555
Mo0_4 Mo0_6 2.768066 1_555
Mo0_4 Mo0_6 2.768066 1_545
Mo0_4 Mo1_1 2.914882 1_554
Mo0_4 Mo1_0 2.914882 1_555
Mo0_4 Mo1_2 2.914883 1_545
Mo0_4 Mo1_3 2.914883 1_544
Mo0_4 Mo1_5 2.914883 1_554
Mo0_4 Mo1_4 2.914883 1_555
Mo0_5 Mo0_7 2.768066 1_555
Mo0_5 Mo0_7 2.768066 1_545
Mo0_5 Mo1_1 2.914882 1_555
Mo0_5 Mo1_0 2.914882 1_555
Mo0_5 Mo1_3 2.914883 1_545
Mo0_5 Mo1_2 2.914883 1_545
Mo0_5 Mo1_4 2.914883 1_555
Mo0_5 Mo1_5 2.914883 1_555
Mo0_6 Mo1_3 2.914882 1_554
Mo0_6 Mo1_2 2.914882 1_555
Mo0_6 Mo1_1 2.914883 1_554
Mo0_6 Mo1_0 2.914883 1_555
Mo0_6 Mo1_7 2.914883 1_554
Mo0_6 Mo1_6 2.914883 1_555
Mo0_7 Mo1_3 2.914882 1_555
Mo0_7 Mo1_2 2.914882 1_555
Mo0_7 Mo1_0 2.914883 1_555
Mo0_7 Mo1_1 2.914883 1_555
Mo0_7 Mo1_7 2.914883 1_555
Mo0_7 Mo1_6 2.914883 1_555
Mo1_0 Mo1_2 2.768066 1_555
Mo1_0 Mo1_6 2.768066 1_555
Mo1_0 Mo1_2 2.768066 1_545
Mo1_0 Mo1_6 2.768066 1_445
Mo1_0 Mo1_4 2.768066 1_555
Mo1_0 Mo1_4 2.768066 1_455
Mo1_1 Mo1_3 2.768066 1_555
Mo1_1 Mo1_7 2.768066 1_555
Mo1_1 Mo1_3 2.768066 1_545
Mo1_1 Mo1_7 2.768066 1_445
Mo1_1 Mo1_5 2.768066 1_455
Mo1_1 Mo1_5 2.768066 1_555
Mo1_2 Mo1_4 2.768066 1_455
Mo1_2 Mo1_4 2.768066 1_565
Mo1_2 Mo1_6 2.768066 1_455
Mo1_2 Mo1_6 2.768066 1_555
Mo1_3 Mo1_5 2.768066 1_455
Mo1_3 Mo1_5 2.768066 1_565
Mo1_3 Mo1_7 2.768066 1_455
Mo1_3 Mo1_7 2.768066 1_555
Mo1_4 Mo1_6 2.768066 1_555
Mo1_4 Mo1_6 2.768066 1_545
Mo1_5 Mo1_7 2.768066 1_555
Mo1_5 Mo1_7 2.768066 1_545
