# generated using pymatgen
data_Na6Mg2Si5Sn6S7O48
_symmetry_space_group_name_H-M   'P 1'
_cell_length_a   17.65103905
_cell_length_b   8.89206039
_cell_length_c   22.95317858
_cell_angle_alpha   89.79260804
_cell_angle_beta   89.98669052
_cell_angle_gamma   120.23937241
_symmetry_Int_Tables_number   1
_chemical_formula_structural   Na6Mg2Si5Sn6S7O48
_chemical_formula_sum   'Na18 Mg6 Si15 Sn18 S21 O144'
_cell_volume   3112.35738000
_cell_formula_units_Z   3
loop_
 _symmetry_equiv_pos_site_id
 _symmetry_equiv_pos_as_xyz
  1  'x, y, z'
loop_
 _atom_site_type_symbol
 _atom_site_label
 _atom_site_symmetry_multiplicity
 _atom_site_fract_x
 _atom_site_fract_y
 _atom_site_fract_z
 _atom_site_occupancy
  Na  Na0  1  0.65490440  0.34811889  0.58136649  1
  Na  Na1  1  0.52078493  0.68972736  0.58404888  1
  Na  Na2  1  0.82464026  0.95600699  0.58263700  1
  Na  Na3  1  0.15318191  0.95991262  0.08436816  1
  Na  Na4  1  0.32333874  0.69241299  0.08624354  1
  Na  Na5  1  0.02050070  0.35297990  0.08734618  1
  Na  Na6  1  0.00547976  0.99098131  0.49584980  1
  Na  Na7  1  0.49371926  0.00784464  0.49984082  1
  Na  Na8  1  0.99500327  0.98133320  0.00205842  1
  Na  Na9  1  0.50369931  0.00814151  0.00028046  1
  Na  Na10  1  0.32609739  0.31817756  0.82097456  1
  Na  Na11  1  0.82929538  0.33324383  0.83413298  1
  Na  Na12  1  0.32660919  0.32347911  0.33551456  1
  Na  Na13  1  0.83422309  0.34448172  0.32520278  1
  Na  Na14  1  0.16390712  0.66536151  0.16134643  1
  Na  Na15  1  0.67373928  0.67914424  0.17306172  1
  Na  Na16  1  0.17234888  0.66670933  0.66832570  1
  Na  Na17  1  0.66562992  0.66381333  0.65628752  1
  Mg  Mg0  1  0.33265411  0.32022200  0.68960678  1
  Mg  Mg1  1  0.82993117  0.33340610  0.68061140  1
  Mg  Mg2  1  0.32789463  0.32311883  0.18355927  1
  Mg  Mg3  1  0.83556920  0.34690764  0.19247947  1
  Mg  Mg4  1  0.16613887  0.66933839  0.02394522  1
  Mg  Mg5  1  0.66717576  0.66553861  0.52293299  1
  Si  Si0  1  0.64723307  0.00445410  0.25011001  1
  Si  Si1  1  0.85522138  0.70670112  0.25187037  1
  Si  Si2  1  0.14731128  0.28938960  0.74996665  1
  Si  Si3  1  0.35652093  0.00611560  0.75213036  1
  Si  Si4  1  0.47520643  0.33701294  0.58506328  1
  Si  Si5  1  0.68882873  0.04251304  0.58547330  1
  Si  Si6  1  0.83635420  0.63062183  0.58699170  1
  Si  Si7  1  0.97490552  0.61623246  0.08521013  1
  Si  Si8  1  0.33785726  0.04436668  0.08585046  1
  Si  Si9  1  0.18638037  0.33462838  0.08681697  1
  Si  Si10  1  0.81556527  0.66927260  0.91435776  1
  Si  Si11  1  0.66556395  0.96211926  0.91720953  1
  Si  Si12  1  0.31594192  0.96050269  0.41414131  1
  Si  Si13  1  0.16690568  0.37192408  0.41690554  1
  Si  Si14  1  0.01543903  0.65910219  0.41781356  1
  Sn  Sn0  1  0.00155634  0.99246886  0.35548285  1
  Sn  Sn1  1  0.50039640  0.99974632  0.35173500  1
  Sn  Sn2  1  0.00037483  0.00003513  0.85108085  1
  Sn  Sn3  1  0.50120317  0.99708572  0.85076062  1
  Sn  Sn4  1  0.00497301  0.00239309  0.64831255  1
  Sn  Sn5  1  0.49414138  0.00654481  0.64550018  1
  Sn  Sn6  1  0.99558232  0.98365931  0.14905068  1
  Sn  Sn7  1  0.50276256  0.00839017  0.15146867  1
  Sn  Sn8  1  0.32823054  0.31589548  0.98780550  1
  Sn  Sn9  1  0.83166389  0.34418123  0.97893232  1
  Sn  Sn10  1  0.33071011  0.31697993  0.47817093  1
  Sn  Sn11  1  0.83371597  0.35016725  0.48419900  1
  Sn  Sn12  1  0.67235993  0.67966485  0.01468390  1
  Sn  Sn13  1  0.16814685  0.66704724  0.51024864  1
  Sn  Sn14  1  0.16388903  0.66043027  0.32144128  1
  Sn  Sn15  1  0.67225332  0.68187453  0.31231716  1
  Sn  Sn16  1  0.17077168  0.66121023  0.81111386  1
  Sn  Sn17  1  0.67073102  0.67735866  0.81694416  1
  S  S0  1  0.15057873  0.99892091  0.25070514  1
  S  S1  1  0.35002708  0.70008978  0.24955960  1
  S  S2  1  0.00261921  0.29399784  0.24997510  1
  S  S3  1  0.49737525  0.29636454  0.25122692  1
  S  S4  1  0.64982057  0.30142052  0.75125212  1
  S  S5  1  0.99707859  0.69966231  0.75127182  1
  S  S6  1  0.50194785  0.70534825  0.74959533  1
  S  S7  1  0.85180183  0.00309766  0.74913643  1
  S  S8  1  0.98286540  0.34021771  0.58499238  1
  S  S9  1  0.18792532  0.03484561  0.58430950  1
  S  S10  1  0.32847483  0.61700398  0.58391576  1
  S  S11  1  0.48248374  0.62424876  0.08341883  1
  S  S12  1  0.82993590  0.04260758  0.08419751  1
  S  S13  1  0.68660629  0.33883271  0.08343334  1
  S  S14  1  0.31319715  0.66049379  0.91950963  1
  S  S15  1  0.02305733  0.37809822  0.91710774  1
  S  S16  1  0.51762083  0.37397117  0.91739120  1
  S  S17  1  0.16800547  0.95691357  0.91654165  1
  S  S18  1  0.81147316  0.96200992  0.41955090  1
  S  S19  1  0.66603952  0.37842236  0.41655307  1
  S  S20  1  0.52330797  0.66737476  0.41710923  1
  O  O0  1  0.10842574  0.02503180  0.30222579  1
  O  O1  1  0.60099884  0.03667351  0.30777646  1
  O  O2  1  0.40520470  0.78769275  0.30142819  1
  O  O3  1  0.91409301  0.80607406  0.30880776  1
  O  O4  1  0.48156929  0.18379267  0.30311425  1
  O  O5  1  0.99343450  0.18773147  0.30211266  1
  O  O6  1  0.10278128  0.16768819  0.80913828  1
  O  O7  1  0.60870486  0.19333588  0.80474667  1
  O  O8  1  0.49192882  0.78839171  0.80366463  1
  O  O9  1  0.98146466  0.77859698  0.80411090  1
  O  O10  1  0.41531817  0.03208255  0.81174092  1
  O  O11  1  0.90340470  0.02074992  0.80282194  1
  O  O12  1  0.39574468  0.94885244  0.69656997  1
  O  O13  1  0.89087787  0.97177355  0.69639536  1
  O  O14  1  0.08134870  0.20378848  0.69354308  1
  O  O15  1  0.59612634  0.22163892  0.69822308  1
  O  O16  1  0.01405129  0.81046741  0.69863713  1
  O  O17  1  0.52042634  0.81745834  0.69719618  1
  O  O18  1  0.38887200  0.80944843  0.19494842  1
  O  O19  1  0.89099208  0.83540336  0.19339878  1
  O  O20  1  0.01901634  0.21957628  0.19517949  1
  O  O21  1  0.51498682  0.22181011  0.19759382  1
  O  O22  1  0.09820906  0.97237794  0.19585584  1
  O  O23  1  0.58217776  0.95735464  0.19181423  1
  O  O24  1  0.43271047  0.37842864  0.63925896  1
  O  O25  1  0.94229826  0.36148017  0.63725505  1
  O  O26  1  0.23899570  0.11767619  0.63577228  1
  O  O27  1  0.75120837  0.12314255  0.64052671  1
  O  O28  1  0.31643838  0.51583482  0.63623258  1
  O  O29  1  0.81825250  0.51176525  0.64305200  1
  O  O30  1  0.44230907  0.52028622  0.13531247  1
  O  O31  1  0.93111353  0.48367164  0.13778034  1
  O  O32  1  0.32027852  0.13231049  0.13987835  1
  O  O33  1  0.81645493  0.11851403  0.13543106  1
  O  O34  1  0.25358987  0.38092448  0.13889891  1
  O  O35  1  0.73861313  0.36423764  0.13425135  1
  O  O36  1  0.21958550  0.27685224  0.02537605  1
  O  O37  1  0.72031625  0.30538064  0.02807141  1
  O  O38  1  0.42851308  0.55117603  0.02863427  1
  O  O39  1  0.91827628  0.54072883  0.02321657  1
  O  O40  1  0.36400451  0.16121179  0.02369824  1
  O  O41  1  0.84239778  0.14182071  0.02864439  1
  O  O42  1  0.22171072  0.13708017  0.52942313  1
  O  O43  1  0.72646080  0.17025084  0.52585205  1
  O  O44  1  0.34364377  0.54386975  0.52975378  1
  O  O45  1  0.86005940  0.56266163  0.52677253  1
  O  O46  1  0.41773388  0.30015850  0.52435396  1
  O  O47  1  0.92844496  0.30384867  0.53131611  1
  O  O48  1  0.27221425  0.68485819  0.97099352  1
  O  O49  1  0.77557873  0.70473224  0.97371451  1
  O  O50  1  0.07520989  0.45837608  0.96905298  1
  O  O51  1  0.57183565  0.45286584  0.97034633  1
  O  O52  1  0.15848491  0.85754686  0.96953164  1
  O  O53  1  0.64116197  0.83710612  0.97470847  1
  O  O54  1  0.27911949  0.84854369  0.47455973  1
  O  O55  1  0.77053742  0.85208732  0.47073764  1
  O  O56  1  0.14643282  0.44596431  0.47613666  1
  O  O57  1  0.65585652  0.45806173  0.46932490  1
  O  O58  1  0.07533319  0.69941811  0.47658092  1
  O  O59  1  0.57520742  0.69136762  0.46924276  1
  O  O60  1  0.05611762  0.62640561  0.35836491  1
  O  O61  1  0.56238983  0.63816709  0.36333696  1
  O  O62  1  0.25746794  0.87867061  0.35576499  1
  O  O63  1  0.75841740  0.88511956  0.36516466  1
  O  O64  1  0.18895715  0.48898980  0.35779248  1
  O  O65  1  0.67610654  0.48210617  0.36264288  1
  O  O66  1  0.06219934  0.48701969  0.86326532  1
  O  O67  1  0.55761463  0.47916798  0.86385141  1
  O  O68  1  0.17831001  0.87435793  0.86297848  1
  O  O69  1  0.68205663  0.88103064  0.85822842  1
  O  O70  1  0.26067388  0.63155494  0.86541999  1
  O  O71  1  0.75364998  0.62908466  0.85700509  1
  O  O72  1  0.00690048  0.83322312  0.41455053  1
  O  O73  1  0.51526877  0.82675911  0.41076180  1
  O  O74  1  0.41392974  0.97710167  0.40952760  1
  O  O75  1  0.89955437  0.98170679  0.41254983  1
  O  O76  1  0.07837237  0.18150392  0.40934785  1
  O  O77  1  0.58549127  0.20159207  0.41185713  1
  O  O78  1  0.01481803  0.20285347  0.91071995  1
  O  O79  1  0.50903417  0.19976268  0.91291962  1
  O  O80  1  0.08826049  0.97474971  0.91203744  1
  O  O81  1  0.57825893  0.98499751  0.91032010  1
  O  O82  1  0.40165380  0.82038594  0.91284618  1
  O  O83  1  0.91246989  0.84904527  0.90904258  1
  O  O84  1  0.48891671  0.16367835  0.58651126  1
  O  O85  1  0.98962942  0.17723442  0.58885574  1
  O  O86  1  0.09733231  0.01343394  0.58791316  1
  O  O87  1  0.58761683  0.01857128  0.59222371  1
  O  O88  1  0.41266460  0.79386635  0.58714246  1
  O  O89  1  0.92266052  0.83783909  0.59168087  1
  O  O90  1  0.49076740  0.80034377  0.08659799  1
  O  O91  1  0.98931039  0.81702140  0.08777052  1
  O  O92  1  0.42366073  0.00873597  0.09091136  1
  O  O93  1  0.91199011  0.03061059  0.08655899  1
  O  O94  1  0.08649116  0.15827562  0.09311392  1
  O  O95  1  0.59616632  0.18024395  0.08745943  1
  O  O96  1  0.34947270  0.17542464  0.74809658  1
  O  O97  1  0.84435223  0.15867348  0.74501717  1
  O  O98  1  0.24259404  0.31717224  0.74364894  1
  O  O99  1  0.73684749  0.32133448  0.74729528  1
  O  O100  1  0.42383676  0.53656811  0.74524560  1
  O  O101  1  0.92112360  0.52557621  0.74499176  1
  O  O102  1  0.34493990  0.53162167  0.24424795  1
  O  O103  1  0.84828167  0.52326457  0.24776141  1
  O  O104  1  0.42091242  0.31668078  0.24393689  1
  O  O105  1  0.92426967  0.30671173  0.24476674  1
  O  O106  1  0.23736860  0.15522357  0.24596371  1
  O  O107  1  0.74194833  0.16747833  0.24267600  1
  O  O108  1  0.32531930  0.50499795  0.92412772  1
  O  O109  1  0.82511408  0.49726292  0.91723335  1
  O  O110  1  0.43036766  0.36160974  0.92231802  1
  O  O111  1  0.93320171  0.35243578  0.91987448  1
  O  O112  1  0.24841857  0.13662095  0.91825133  1
  O  O113  1  0.75456640  0.15000634  0.92538730  1
  O  O114  1  0.32661066  0.15307874  0.41720797  1
  O  O115  1  0.81961257  0.13560817  0.42412112  1
  O  O116  1  0.25588072  0.35898145  0.42461730  1
  O  O117  1  0.74436835  0.35737526  0.41820398  1
  O  O118  1  0.43364760  0.51395453  0.42004075  1
  O  O119  1  0.91985646  0.47748503  0.42154314  1
  O  O120  1  0.17323852  0.49778942  0.07464032  1
  O  O121  1  0.67467154  0.49583770  0.07578291  1
  O  O122  1  0.07374032  0.65115784  0.07569042  1
  O  O123  1  0.57099059  0.64019414  0.07653545  1
  O  O124  1  0.25404876  0.85378740  0.07478698  1
  O  O125  1  0.75119133  0.85926021  0.07921871  1
  O  O126  1  0.17838497  0.85811211  0.57889932  1
  O  O127  1  0.67325798  0.85084984  0.57417942  1
  O  O128  1  0.25161273  0.64502493  0.57823910  1
  O  O129  1  0.75261832  0.65571951  0.57691273  1
  O  O130  1  0.07193566  0.49662610  0.57902015  1
  O  O131  1  0.57404755  0.49886644  0.57580370  1
  O  O132  1  0.15586831  0.83663022  0.25506919  1
  O  O133  1  0.64429342  0.81626086  0.25639078  1
  O  O134  1  0.26282975  0.68712441  0.25390360  1
  O  O135  1  0.75610045  0.68616555  0.25566951  1
  O  O136  1  0.08446561  0.47201563  0.25387015  1
  O  O137  1  0.57882153  0.46667142  0.25802844  1
  O  O138  1  0.14491725  0.47258765  0.75618666  1
  O  O139  1  0.65265551  0.47336392  0.75670375  1
  O  O140  1  0.07936850  0.69336818  0.75831314  1
  O  O141  1  0.58335872  0.68884116  0.75593420  1
  O  O142  1  0.25835501  0.82765774  0.75699585  1
  O  O143  1  0.76318876  0.83926363  0.75294359  1
loop_
_geom_bond_atom_site_label_1
_geom_bond_atom_site_label_2
_geom_bond_distance
_geom_bond_site_symmetry_2
Na0 O129 2.390148 1_555
Na0 O131 2.403295 1_555
Na0 O84 2.538969 1_555
Na0 O87 2.559056 1_555
Na0 O57 2.744986 1_555
Na0 O43 2.783232 1_555
Na0 O29 2.868151 1_555
Na0 O15 2.887426 1_555
Na1 O131 2.325794 1_555
Na1 O127 2.336825 1_555
Na1 O88 2.507007 1_555
Na1 O87 2.550857 1_565
Na1 O24 2.706349 1_555
Na1 O59 2.802057 1_555
Na1 O17 2.839635 1_555
Na2 O129 2.312314 1_555
Na2 O127 2.353054 1_555
Na2 O89 2.443427 1_555
Na2 O85 2.569666 1_565
Na2 O55 2.737200 1_555
Na2 O27 2.758268 1_565
Na2 O13 2.836105 1_555
Na2 O47 2.928492 1_565
Na3 O122 2.381175 1_555
Na3 O124 2.408797 1_555
Na3 O91 2.506890 1_455
Na3 O94 2.575072 1_565
Na3 O22 2.758898 1_555
Na3 O36 2.791827 1_565
Na3 O52 2.808585 1_554
Na3 O32 2.852082 1_565
Na4 O124 2.321458 1_555
Na4 O120 2.338973 1_555
Na4 O92 2.458510 1_565
Na4 O90 2.607331 1_555
Na4 O34 2.681145 1_555
Na4 O18 2.730263 1_555
Na4 O48 2.785332 1_554
Na5 O122 2.338760 1_555
Na5 O120 2.347713 1_555
Na5 O93 2.521141 1_455
Na5 O94 2.530098 1_555
Na5 O31 2.652489 1_455
Na5 O20 2.735224 1_555
Na5 O50 2.872627 1_554
Na6 O72 2.346288 1_555
Na6 O76 2.499338 1_565
Na6 O89 2.607965 1_455
Na6 O86 2.610068 1_565
Na6 O75 2.646845 1_455
Na6 O85 2.805442 1_465
Na7 O74 2.443999 1_545
Na7 O84 2.454191 1_555
Na7 O77 2.613974 1_555
Na7 O88 2.629031 1_545
Na7 O87 2.663897 1_555
Na7 O73 2.749266 1_545
Na8 O91 2.417968 1_555
Na8 O83 2.521474 1_554
Na8 O93 2.598540 1_565
Na8 O94 2.630147 1_665
Na8 O80 2.660610 1_654
Na8 O78 2.770113 1_664
Na9 O81 2.512505 1_544
Na9 O92 2.515885 1_555
Na9 O95 2.553012 1_555
Na9 O79 2.597421 1_554
Na9 O90 2.634416 1_545
Na9 O82 2.656378 1_544
Na10 O96 2.263251 1_555
Na10 O98 2.304504 1_555
Na10 O100 2.523605 1_555
Na10 O112 2.686013 1_555
Na10 O110 2.870552 1_555
Na10 O108 2.901249 1_555
Na11 O109 2.428849 1_555
Na11 O99 2.544764 1_555
Na11 O113 2.567337 1_555
Na11 O101 2.630504 1_555
Na11 O111 2.637217 1_555
Na11 O97 2.665059 1_555
Na12 O114 2.406537 1_555
Na12 O116 2.498299 1_555
Na12 O106 2.568009 1_555
Na12 O118 2.646659 1_555
Na12 O102 2.699461 1_555
Na12 O104 2.700634 1_555
Na13 O103 2.308780 1_555
Na13 O107 2.481775 1_555
Na13 O105 2.566811 1_555
Na13 O119 2.606389 1_555
Na13 O117 2.696074 1_555
Na13 O115 2.856223 1_555
Na14 O122 2.493029 1_555
Na14 O120 2.544945 1_555
Na14 O124 2.564291 1_555
Na14 O136 2.641247 1_555
Na14 O132 2.684865 1_555
Na14 O134 2.695190 1_555
Na15 O135 2.371344 1_555
Na15 O133 2.463678 1_555
Na15 O125 2.615737 1_555
Na15 O137 2.638855 1_555
Na15 O123 2.773578 1_555
Na15 O121 2.774181 1_555
Na16 O142 2.515813 1_555
Na16 O138 2.532500 1_555
Na16 O128 2.558043 1_555
Na16 O126 2.629306 1_555
Na16 O130 2.637193 1_555
Na16 O140 2.722103 1_555
Na17 O129 2.406871 1_555
Na17 O131 2.410400 1_555
Na17 O127 2.467323 1_555
Na17 O143 2.764452 1_555
Na17 O141 2.778005 1_555
Na17 O139 2.795290 1_555
Mg0 O24 1.948467 1_555
Mg0 O96 1.980138 1_555
Mg0 O98 2.005454 1_555
Mg0 O26 2.126437 1_555
Mg0 O100 2.195981 1_555
Mg0 O28 2.257105 1_555
Mg1 O29 1.902772 1_555
Mg1 O27 1.915547 1_555
Mg1 O25 2.117808 1_555
Mg1 O99 2.207671 1_555
Mg1 O101 2.223414 1_555
Mg1 O97 2.246376 1_555
Mg2 O32 1.919550 1_555
Mg2 O34 1.926408 1_555
Mg2 O106 2.101064 1_555
Mg2 O104 2.171346 1_555
Mg2 O30 2.190275 1_555
Mg2 O102 2.219324 1_555
Mg3 O103 1.944155 1_555
Mg3 O31 1.954895 1_555
Mg3 O107 1.983447 1_555
Mg3 O105 2.140287 1_555
Mg3 O35 2.236971 1_555
Mg3 O33 2.298324 1_555
Mg4 O122 1.956753 1_555
Mg4 O120 1.968852 1_555
Mg4 O124 1.977615 1_555
Mg4 O52 2.142814 1_554
Mg4 O50 2.160541 1_554
Mg4 O48 2.177016 1_554
Mg5 O131 1.975737 1_555
Mg5 O127 1.986525 1_555
Mg5 O129 1.987459 1_555
Mg5 O55 2.109945 1_555
Mg5 O59 2.140350 1_555
Mg5 O57 2.145441 1_555
O0 S0 1.477005 1_545
O0 Sn0 2.140726 1_545
O1 Si0 1.654630 1_555
O1 Sn1 1.920572 1_545
O2 S1 1.488577 1_555
O2 Sn1 2.130143 1_555
O3 Si1 1.628721 1_555
O3 Sn0 1.927327 1_655
O4 S3 1.485997 1_555
O4 Sn1 2.137505 1_545
O5 S2 1.479439 1_655
O5 Sn0 2.184331 1_645
O6 Si2 1.663031 1_555
O6 Sn2 1.921253 1_555
O7 S4 1.498853 1_555
O7 Sn3 2.100433 1_545
O8 S6 1.501616 1_555
O8 Sn3 2.085110 1_555
O9 S5 1.496797 1_555
O9 Sn2 2.122359 1_665
O10 Si3 1.662559 1_555
O10 Sn3 1.915960 1_545
O11 S7 1.493533 1_555
O11 Sn2 2.123095 1_655
O12 Si3 1.650556 1_565
O12 Sn5 1.936755 1_565
O13 S7 1.488073 1_565
O13 Sn4 2.189171 1_665
O14 Si2 1.651506 1_555
O14 Sn4 1.919558 1_555
O15 S4 1.487492 1_555
O15 Sn5 2.216534 1_555
O16 S5 1.487961 1_455
O16 Sn4 2.129260 1_565
O17 S6 1.486729 1_555
O17 Sn5 2.285121 1_565
O18 S1 1.518619 1_555
O18 Sn7 2.137991 1_565
O19 Si1 1.664425 1_555
O19 Sn6 1.928822 1_555
O20 S2 1.517353 1_555
O20 Sn6 2.198901 1_445
O21 S3 1.504964 1_555
O21 Sn7 2.090714 1_555
O22 S0 1.509344 1_555
O22 Sn6 2.151468 1_455
O23 Si0 1.674753 1_565
O23 Sn7 1.914877 1_565
O24 Si4 1.589602 1_555
O25 S8 1.457775 1_555
O26 S9 1.445147 1_555
O27 Si5 1.592253 1_555
O28 S10 1.447752 1_555
O29 Si6 1.588923 1_555
O30 S11 1.451751 1_555
O31 Si7 1.585710 1_555
O32 Si8 1.580164 1_555
O33 S12 1.436140 1_555
O34 Si9 1.586894 1_555
O35 S13 1.431018 1_555
O36 Si9 1.704245 1_555
O36 Sn8 1.966785 1_554
O37 S13 1.495975 1_555
O37 Sn9 2.137089 1_554
O38 S11 1.514588 1_555
O38 Sn8 2.161809 1_554
O39 Si7 1.675203 1_555
O39 Sn9 1.935793 1_554
O40 Si8 1.683345 1_555
O40 Sn8 1.958618 1_554
O41 S12 1.499626 1_555
O41 Sn9 2.214579 1_554
O42 S9 1.488121 1_555
O42 Sn10 2.128347 1_555
O43 Si5 1.683019 1_555
O43 Sn11 1.998762 1_555
O44 S10 1.490367 1_555
O44 Sn10 2.253405 1_555
O45 Si6 1.646590 1_555
O45 Sn11 1.967235 1_555
O46 Si4 1.657522 1_555
O46 Sn10 1.933024 1_555
O47 S8 1.495246 1_555
O47 Sn11 2.196887 1_555
O48 S14 1.458082 1_555
O49 Si10 1.637254 1_555
O49 Sn12 1.960109 1_556
O50 S15 1.457179 1_555
O51 S16 1.488571 1_555
O51 Sn12 2.159311 1_556
O52 S17 1.459751 1_555
O53 Si11 1.633987 1_555
O53 Sn12 1.967878 1_556
O54 Si12 1.635421 1_555
O54 Sn13 1.979413 1_555
O55 S18 1.462120 1_555
O56 Si13 1.630423 1_555
O56 Sn13 1.969013 1_555
O57 S19 1.461270 1_555
O58 Si14 1.639552 1_555
O58 Sn13 1.959051 1_555
O59 S20 1.456758 1_555
O60 Si14 1.635457 1_555
O60 Sn14 1.961168 1_555
O61 S20 1.499689 1_555
O61 Sn15 2.125910 1_555
O62 Si12 1.625238 1_555
O62 Sn14 1.974348 1_555
O63 S18 1.504867 1_555
O63 Sn15 2.073387 1_555
O64 Si13 1.630188 1_555
O64 Sn14 1.971376 1_555
O65 S19 1.496463 1_555
O65 Sn15 2.145055 1_555
O66 S15 1.503224 1_555
O66 Sn16 2.121411 1_555
O67 S16 1.486513 1_555
O67 Sn17 2.166251 1_555
O68 S17 1.491449 1_555
O68 Sn16 2.188501 1_555
O69 Si11 1.629645 1_555
O69 Sn17 1.966143 1_555
O70 S14 1.493207 1_555
O70 Sn16 2.135757 1_555
O71 Si10 1.632713 1_555
O71 Sn17 1.950000 1_555
O72 Si14 1.630871 1_555
O72 Sn0 1.993210 1_555
O73 S20 1.500351 1_555
O73 Sn1 2.159267 1_555
O74 Si12 1.663473 1_555
O74 Sn1 1.953757 1_555
O75 S18 1.482929 1_555
O75 Sn0 2.188825 1_655
O76 Si13 1.635932 1_555
O76 Sn0 1.978063 1_545
O77 S19 1.501666 1_555
O77 Sn1 2.164574 1_545
O78 S15 1.498101 1_555
O78 Sn2 2.178613 1_555
O79 S16 1.482501 1_555
O79 Sn3 2.251774 1_545
O80 S17 1.497309 1_555
O80 Sn2 2.182809 1_565
O81 Si11 1.660359 1_555
O81 Sn3 1.969118 1_555
O82 S14 1.498343 1_555
O82 Sn3 2.188360 1_555
O83 Si10 1.655417 1_555
O83 Sn2 1.966705 1_665
O84 Si4 1.676486 1_555
O84 Sn5 1.977424 1_555
O85 S8 1.515196 1_555
O85 Sn4 2.182160 1_655
O86 S9 1.514351 1_555
O86 Sn4 2.103820 1_555
O87 Si5 1.696305 1_555
O87 Sn5 2.012344 1_555
O88 S10 1.527757 1_555
O88 Sn5 2.172277 1_565
O89 Si6 1.703433 1_555
O89 Sn4 1.953200 1_665
O90 S11 1.499603 1_555
O90 Sn7 2.304309 1_565
O91 Si7 1.673133 1_555
O91 Sn6 2.009039 1_555
O92 Si8 1.700229 1_555
O92 Sn7 1.971475 1_555
O93 S12 1.505865 1_555
O93 Sn6 2.241859 1_545
O94 Si9 1.673929 1_555
O94 Sn6 2.027137 1_445
O95 S13 1.508998 1_555
O95 Sn7 2.157992 1_555
O96 Si3 1.574245 1_555
O97 S7 1.456804 1_555
O98 Si2 1.578537 1_555
O99 S4 1.457772 1_555
O100 S6 1.442318 1_555
O101 S5 1.458018 1_555
O102 S1 1.460431 1_555
O103 Si1 1.576183 1_555
O104 S3 1.458647 1_555
O105 S2 1.448130 1_655
O106 S0 1.464455 1_545
O107 Si0 1.575614 1_555
O108 S14 1.505243 1_555
O108 Sn8 2.244034 1_555
O109 Si10 1.622076 1_555
O109 Sn9 2.004115 1_555
O110 S16 1.492021 1_555
O110 Sn8 2.220597 1_555
O111 S15 1.485582 1_655
O111 Sn9 2.218276 1_555
O112 S17 1.511833 1_545
O112 Sn8 2.198207 1_555
O113 Si11 1.628885 1_545
O113 Sn9 1.998278 1_555
O114 Si12 1.627514 1_545
O114 Sn10 1.998980 1_555
O115 S18 1.480639 1_545
O115 Sn11 2.268117 1_555
O116 Si13 1.641062 1_555
O116 Sn10 1.972140 1_555
O117 S19 1.486136 1_555
O117 Sn11 2.210907 1_555
O118 S20 1.481524 1_555
O118 Sn10 2.219444 1_555
O119 Si14 1.648154 1_655
O119 Sn11 1.978687 1_555
O120 Si9 1.604035 1_555
O121 S13 1.522752 1_555
O121 Sn12 2.165865 1_555
O122 Si7 1.625188 1_455
O123 S11 1.504084 1_555
O123 Sn12 2.168614 1_555
O124 Si8 1.613358 1_565
O125 S12 1.523793 1_565
O125 Sn12 2.112005 1_555
O126 S9 1.499446 1_565
O126 Sn13 2.261058 1_555
O127 Si5 1.605849 1_565
O128 S10 1.503334 1_555
O128 Sn13 2.221203 1_555
O129 Si6 1.618612 1_555
O130 S8 1.490299 1_455
O130 Sn13 2.249776 1_555
O131 Si4 1.621372 1_555
O132 S0 1.495311 1_555
O132 Sn14 2.236512 1_555
O133 Si0 1.653669 1_565
O133 Sn15 1.975493 1_555
O134 S1 1.487701 1_555
O134 Sn14 2.255650 1_555
O135 Si1 1.667342 1_555
O135 Sn15 1.955588 1_555
O136 S2 1.516083 1_555
O136 Sn14 2.198159 1_555
O137 S3 1.481025 1_555
O137 Sn15 2.184935 1_555
O138 Si2 1.657363 1_555
O138 Sn16 1.963550 1_555
O139 S4 1.510007 1_555
O139 Sn17 2.177033 1_555
O140 S5 1.490282 1_455
O140 Sn16 2.148624 1_555
O141 S6 1.523166 1_555
O141 Sn17 2.123313 1_555
O142 Si3 1.661957 1_565
O142 Sn16 1.950562 1_555
O143 S7 1.510075 1_565
O143 Sn17 2.123933 1_555
