# generated using pymatgen
data_Na9Ca4Nb2(PO4)9
_symmetry_space_group_name_H-M   'P 1'
_cell_length_a   9.28805576
_cell_length_b   27.76690795
_cell_length_c   22.55294554
_cell_angle_alpha   89.90655001
_cell_angle_beta   90.06835317
_cell_angle_gamma   120.03006626
_symmetry_Int_Tables_number   1
_chemical_formula_structural   Na9Ca4Nb2(PO4)9
_chemical_formula_sum   'Na54 Ca24 Nb12 P54 O216'
_cell_volume   5035.63173359
_cell_formula_units_Z   6
loop_
 _symmetry_equiv_pos_site_id
 _symmetry_equiv_pos_as_xyz
  1  'x, y, z'
loop_
 _atom_site_type_symbol
 _atom_site_label
 _atom_site_symmetry_multiplicity
 _atom_site_fract_x
 _atom_site_fract_y
 _atom_site_fract_z
 _atom_site_occupancy
  Na  Na0  1  0.03102259  0.00386483  0.49328754  1
  Na  Na1  1  0.00534383  0.33090360  0.49397532  1
  Na  Na2  1  0.98115388  0.66941480  0.50469166  1
  Na  Na3  1  0.99558259  0.00589872  0.99931124  1
  Na  Na4  1  0.02411214  0.33940400  0.00838447  1
  Na  Na5  1  0.99748720  0.65891649  0.01041984  1
  Na  Na6  1  0.64584017  0.10356365  0.82754255  1
  Na  Na7  1  0.68720091  0.45169269  0.83911887  1
  Na  Na8  1  0.66803068  0.77824547  0.83311661  1
  Na  Na9  1  0.65234311  0.10148523  0.32020078  1
  Na  Na10  1  0.67921368  0.45343998  0.34589309  1
  Na  Na11  1  0.68937541  0.78259682  0.33101892  1
  Na  Na12  1  0.32705135  0.22396483  0.17251678  1
  Na  Na13  1  0.30327465  0.55099575  0.17198309  1
  Na  Na14  1  0.34130675  0.89352340  0.16102986  1
  Na  Na15  1  0.30876440  0.21574421  0.65808686  1
  Na  Na16  1  0.33786043  0.54986739  0.66841655  1
  Na  Na17  1  0.33545685  0.89682756  0.65504864  1
  Na  Na18  1  0.64896104  0.32550794  0.26404567  1
  Na  Na19  1  0.62686489  0.66279088  0.25138755  1
  Na  Na20  1  0.37369320  0.12234429  0.25407295  1
  Na  Na21  1  0.34715996  0.45167884  0.25710179  1
  Na  Na22  1  0.36001866  0.78660348  0.23637535  1
  Na  Na23  1  0.98852945  0.21251448  0.24519492  1
  Na  Na24  1  0.63484124  0.21065346  0.74356322  1
  Na  Na25  1  0.62084134  0.54287115  0.74569713  1
  Na  Na26  1  0.65217003  0.87572249  0.74239514  1
  Na  Na27  1  0.98978884  0.12378827  0.74512229  1
  Na  Na28  1  0.99521517  0.45499478  0.75524851  1
  Na  Na29  1  0.38563596  0.33639045  0.74458964  1
  Na  Na30  1  0.37642247  0.66392749  0.75365656  1
  Na  Na31  1  0.30693186  0.78064122  0.58195461  1
  Na  Na32  1  0.00588664  0.56321076  0.58491499  1
  Na  Na33  1  0.01309384  0.88760184  0.57375457  1
  Na  Na34  1  0.65178623  0.32379489  0.57028089  1
  Na  Na35  1  0.69028497  0.67105532  0.59024037  1
  Na  Na36  1  0.32175186  0.66827284  0.09255219  1
  Na  Na37  1  0.32828556  0.99357653  0.08136107  1
  Na  Na38  1  0.68082143  0.23137801  0.09659225  1
  Na  Na39  1  0.64509278  0.88646108  0.07601313  1
  Na  Na40  1  0.02741832  0.77606615  0.08332964  1
  Na  Na41  1  0.94750362  0.21901996  0.92238595  1
  Na  Na42  1  0.95773834  0.89224521  0.91461226  1
  Na  Na43  1  0.71292575  0.01264378  0.92117163  1
  Na  Na44  1  0.69809035  0.34465906  0.92303767  1
  Na  Na45  1  0.68162755  0.68038319  0.92383527  1
  Na  Na46  1  0.33797905  0.10025591  0.91175662  1
  Na  Na47  1  0.34323677  0.43145074  0.92145435  1
  Na  Na48  1  0.98622547  0.10316593  0.40904192  1
  Na  Na49  1  0.95883705  0.43262478  0.41266114  1
  Na  Na50  1  0.34348279  0.34229382  0.42157551  1
  Na  Na51  1  0.35996720  0.68232638  0.42111073  1
  Na  Na52  1  0.68307633  0.22935005  0.40271524  1
  Na  Na53  1  0.70540303  0.89160415  0.41341589  1
  Ca  Ca0  1  0.00460444  0.00092215  0.34784756  1
  Ca  Ca1  1  0.00769549  0.33833833  0.34387952  1
  Ca  Ca2  1  0.00851806  0.00460623  0.84833576  1
  Ca  Ca3  1  0.00027731  0.33335721  0.85595110  1
  Ca  Ca4  1  0.00986489  0.67204197  0.65400836  1
  Ca  Ca5  1  0.00645881  0.33334381  0.14889104  1
  Ca  Ca6  1  0.99674905  0.66668409  0.15200464  1
  Ca  Ca7  1  0.65338885  0.10766888  0.67996888  1
  Ca  Ca8  1  0.67474172  0.45177407  0.67735209  1
  Ca  Ca9  1  0.67740074  0.77243096  0.68551669  1
  Ca  Ca10  1  0.67753959  0.11338021  0.17610795  1
  Ca  Ca11  1  0.66523206  0.77649436  0.18447219  1
  Ca  Ca12  1  0.65872529  0.10356237  0.98952550  1
  Ca  Ca13  1  0.67957833  0.44776296  0.98661982  1
  Ca  Ca14  1  0.65826575  0.78409141  0.98119248  1
  Ca  Ca15  1  0.65521679  0.44206820  0.49045955  1
  Ca  Ca16  1  0.68971000  0.78256665  0.48183665  1
  Ca  Ca17  1  0.32514939  0.88341273  0.01309418  1
  Ca  Ca18  1  0.32658379  0.22194830  0.51773241  1
  Ca  Ca19  1  0.33085726  0.88698983  0.51261066  1
  Ca  Ca20  1  0.32484922  0.21673086  0.32268934  1
  Ca  Ca21  1  0.32380423  0.55287070  0.31728381  1
  Ca  Ca22  1  0.33299434  0.22208028  0.81076516  1
  Ca  Ca23  1  0.32505561  0.55097849  0.81860934  1
  Nb  Nb0  1  0.99495154  0.66041235  0.35073077  1
  Nb  Nb1  1  0.99692527  0.66474177  0.85310456  1
  Nb  Nb2  1  0.00428359  0.00109631  0.64905389  1
  Nb  Nb3  1  0.00454565  0.33086039  0.64929846  1
  Nb  Nb4  1  0.98753691  0.99820983  0.15510106  1
  Nb  Nb5  1  0.67458333  0.44621919  0.17726337  1
  Nb  Nb6  1  0.65816832  0.10908702  0.48921966  1
  Nb  Nb7  1  0.32827852  0.22439344  0.01738403  1
  Nb  Nb8  1  0.32934097  0.55443797  0.01738207  1
  Nb  Nb9  1  0.34509834  0.55560027  0.51280347  1
  Nb  Nb10  1  0.33249236  0.89613431  0.31734852  1
  Nb  Nb11  1  0.33649059  0.89099446  0.81331527  1
  P  P0  1  0.29336947  0.99759970  0.24800984  1
  P  P1  1  0.32120232  0.33768369  0.25100228  1
  P  P2  1  0.30231392  0.66744217  0.25175861  1
  P  P3  1  0.69012626  0.22831501  0.24947274  1
  P  P4  1  0.69996105  0.56347599  0.24923131  1
  P  P5  1  0.68415393  0.90012582  0.25551980  1
  P  P6  1  0.00555391  0.10222465  0.25308972  1
  P  P7  1  0.99093532  0.43585435  0.24775686  1
  P  P8  1  0.00353692  0.76585510  0.25534953  1
  P  P9  1  0.29572626  0.10282574  0.74945169  1
  P  P10  1  0.29521648  0.43042259  0.75088364  1
  P  P11  1  0.30082909  0.76690943  0.75520065  1
  P  P12  1  0.99629241  0.23382621  0.75302671  1
  P  P13  1  0.99633814  0.56737271  0.75035258  1
  P  P14  1  0.01442745  0.90315019  0.75101978  1
  P  P15  1  0.69996544  0.99713875  0.75439388  1
  P  P16  1  0.70921821  0.33482136  0.74657204  1
  P  P17  1  0.69837744  0.66461288  0.75254680  1
  P  P18  1  0.95703223  0.10595998  0.58903550  1
  P  P19  1  0.98727600  0.44514069  0.58332041  1
  P  P20  1  0.98337859  0.77840627  0.58382118  1
  P  P21  1  0.34980527  0.01032173  0.58671194  1
  P  P22  1  0.35684656  0.33971630  0.58781096  1
  P  P23  1  0.35962488  0.67292256  0.57921664  1
  P  P24  1  0.67858108  0.21432112  0.58778240  1
  P  P25  1  0.66711648  0.55148557  0.58642583  1
  P  P26  1  0.66983949  0.87957141  0.58928296  1
  P  P27  1  0.97651704  0.21582997  0.07883321  1
  P  P28  1  0.98406545  0.54502358  0.07994866  1
  P  P29  1  0.97419828  0.88292039  0.08190710  1
  P  P30  1  0.66789014  0.00417795  0.08042046  1
  P  P31  1  0.65430978  0.34107144  0.07879962  1
  P  P32  1  0.66269975  0.67616825  0.07732063  1
  P  P33  1  0.34414703  0.10987178  0.08344002  1
  P  P34  1  0.37646036  0.44971150  0.07770377  1
  P  P35  1  0.35149248  0.77717465  0.08804256  1
  P  P36  1  0.62424101  0.22071000  0.92020196  1
  P  P37  1  0.63380541  0.55855151  0.91238262  1
  P  P38  1  0.63464150  0.89073369  0.91390621  1
  P  P39  1  0.03785066  0.12505673  0.91582301  1
  P  P40  1  0.03750835  0.45266237  0.91724528  1
  P  P41  1  0.03313390  0.78867624  0.91168871  1
  P  P42  1  0.33715337  0.32162755  0.91369567  1
  P  P43  1  0.31879408  0.65260785  0.91600406  1
  P  P44  1  0.33770359  0.98814549  0.91627582  1
  P  P45  1  0.64289336  0.32714716  0.41713769  1
  P  P46  1  0.64199785  0.65442577  0.41125841  1
  P  P47  1  0.63184341  0.99174729  0.41802031  1
  P  P48  1  0.34166735  0.11959069  0.41853845  1
  P  P49  1  0.32682628  0.45259901  0.41336857  1
  P  P50  1  0.33163525  0.78912089  0.41076022  1
  P  P51  1  0.01217470  0.21794610  0.41563871  1
  P  P52  1  0.04032883  0.55878126  0.41929482  1
  P  P53  1  0.02796636  0.88877593  0.41754840  1
  O  O0  1  0.22049238  0.00571558  0.30373284  1
  O  O1  1  0.27554284  0.35504129  0.31019457  1
  O  O2  1  0.16896954  0.65810805  0.30447271  1
  O  O3  1  0.79448129  0.26273289  0.30332161  1
  O  O4  1  0.81375109  0.59540086  0.30720092  1
  O  O5  1  0.76983671  0.92464247  0.31392916  1
  O  O6  1  0.00939814  0.07980665  0.31432709  1
  O  O7  1  0.94646590  0.40817648  0.30947006  1
  O  O8  1  0.98920374  0.71811212  0.30016655  1
  O  O9  1  0.22455770  0.07845660  0.81030367  1
  O  O10  1  0.22306507  0.40373583  0.81076170  1
  O  O11  1  0.17594111  0.72401199  0.80282376  1
  O  O12  1  0.98911665  0.26017448  0.81143244  1
  O  O13  1  0.00391247  0.60766862  0.80404620  1
  O  O14  1  0.99922042  0.92983379  0.80788092  1
  O  O15  1  0.77828300  0.00136240  0.81473684  1
  O  O16  1  0.80101548  0.33867506  0.80443187  1
  O  O17  1  0.81271144  0.66105529  0.80501625  1
  O  O18  1  0.81981688  0.33419874  0.69196337  1
  O  O19  1  0.78528601  0.66787353  0.69459672  1
  O  O20  1  0.81272232  0.99048690  0.70531403  1
  O  O21  1  0.17315956  0.05865167  0.69997950  1
  O  O22  1  0.17784148  0.38727089  0.70082835  1
  O  O23  1  0.22731957  0.74958982  0.69370491  1
  O  O24  1  0.97604932  0.27040129  0.70077614  1
  O  O25  1  0.99810788  0.59551618  0.69223876  1
  O  O26  1  0.03695880  0.94201294  0.69576962  1
  O  O27  1  0.77735783  0.25742529  0.19141678  1
  O  O28  1  0.77919336  0.60270163  0.19798984  1
  O  O29  1  0.79691731  0.93937531  0.20234985  1
  O  O30  1  0.99627182  0.05535652  0.20707965  1
  O  O31  1  0.00279523  0.39804131  0.20239705  1
  O  O32  1  0.04803648  0.75197737  0.19510397  1
  O  O33  1  0.19482573  0.32699884  0.20279014  1
  O  O34  1  0.22048825  0.67031709  0.19482963  1
  O  O35  1  0.17254011  0.98913564  0.19388202  1
  O  O36  1  0.89112660  0.11359777  0.64775137  1
  O  O37  1  0.93492254  0.46621457  0.63776551  1
  O  O38  1  0.88770606  0.77733564  0.63966652  1
  O  O39  1  0.43658862  0.03225325  0.64491983  1
  O  O40  1  0.46975254  0.37468218  0.63890023  1
  O  O41  1  0.45822584  0.69411944  0.63771999  1
  O  O42  1  0.66767780  0.18722781  0.64727408  1
  O  O43  1  0.63256014  0.52593858  0.64845788  1
  O  O44  1  0.64803113  0.84171123  0.64249215  1
  O  O45  1  0.91971313  0.18712373  0.13932893  1
  O  O46  1  0.87042754  0.50423611  0.13150666  1
  O  O47  1  0.87190498  0.83937200  0.12895893  1
  O  O48  1  0.63673716  0.03972855  0.12441531  1
  O  O49  1  0.64529862  0.38144111  0.12875673  1
  O  O50  1  0.62321843  0.69609268  0.13595489  1
  O  O51  1  0.46957164  0.12772086  0.13447313  1
  O  O52  1  0.50602911  0.45798742  0.12957884  1
  O  O53  1  0.43840470  0.77683310  0.14635176  1
  O  O54  1  0.39783387  0.08924044  0.02888138  1
  O  O55  1  0.44229053  0.44209241  0.01908247  1
  O  O56  1  0.46365959  0.77977784  0.03687031  1
  O  O57  1  0.86380314  0.18091462  0.02772062  1
  O  O58  1  0.89670860  0.52307360  0.02162469  1
  O  O59  1  0.88890842  0.86709568  0.02053567  1
  O  O60  1  0.70411475  0.02979404  0.01847100  1
  O  O61  1  0.66565702  0.36829143  0.01944985  1
  O  O62  1  0.68468093  0.71400581  0.02420985  1
  O  O63  1  0.46318984  0.05142949  0.53517174  1
  O  O64  1  0.41353943  0.36854026  0.52732137  1
  O  O65  1  0.44923108  0.71068246  0.52582465  1
  O  O66  1  0.68799512  0.17423824  0.53783835  1
  O  O67  1  0.69783284  0.51608135  0.54219090  1
  O  O68  1  0.71130988  0.85978928  0.53104378  1
  O  O69  1  0.82735534  0.09770641  0.53719503  1
  O  O70  1  0.86307445  0.42784686  0.53203175  1
  O  O71  1  0.87912988  0.77449127  0.52915049  1
  O  O72  1  0.51352440  0.22133228  0.97482904  1
  O  O73  1  0.52039702  0.56499771  0.96155710  1
  O  O74  1  0.54759834  0.88674262  0.97228396  1
  O  O75  1  0.15529035  0.16835752  0.96584690  1
  O  O76  1  0.16024192  0.49693092  0.96672423  1
  O  O77  1  0.10692434  0.80567895  0.97336904  1
  O  O78  1  0.35730510  0.28508829  0.96588225  1
  O  O79  1  0.29638497  0.61342127  0.97100373  1
  O  O80  1  0.33678485  0.95972137  0.97411750  1
  O  O81  1  0.55580873  0.29819347  0.47527139  1
  O  O82  1  0.53590797  0.61458199  0.46539309  1
  O  O83  1  0.55214399  0.95295553  0.46920333  1
  O  O84  1  0.33018031  0.15726005  0.46423829  1
  O  O85  1  0.33494789  0.49869315  0.46020408  1
  O  O86  1  0.30467325  0.80508353  0.47239106  1
  O  O87  1  0.13936235  0.22902096  0.46369949  1
  O  O88  1  0.16406187  0.56738467  0.47256331  1
  O  O89  1  0.10262940  0.88471840  0.47542670  1
  O  O90  1  0.05799508  0.20075499  0.35634425  1
  O  O91  1  0.11683802  0.55309054  0.36298253  1
  O  O92  1  0.16549828  0.89673088  0.36641515  1
  O  O93  1  0.53811382  0.29278879  0.36335372  1
  O  O94  1  0.55095943  0.62889852  0.35370945  1
  O  O95  1  0.51687919  0.95985014  0.36003996  1
  O  O96  1  0.38915373  0.14812349  0.35720537  1
  O  O97  1  0.32335789  0.47553395  0.35232834  1
  O  O98  1  0.34855249  0.83599050  0.36517972  1
  O  O99  1  0.11012074  0.15180107  0.85598188  1
  O  O100  1  0.10875266  0.47719937  0.85650072  1
  O  O101  1  0.15741804  0.83148558  0.86416951  1
  O  O102  1  0.34441128  0.29544838  0.85519949  1
  O  O103  1  0.33554466  0.62619728  0.85905159  1
  O  O104  1  0.32988319  0.94804550  0.86235154  1
  O  O105  1  0.53288539  0.21710601  0.86233811  1
  O  O106  1  0.55548261  0.55444878  0.85208558  1
  O  O107  1  0.52022930  0.89455560  0.86185562  1
  O  O108  1  0.98190527  0.26748839  0.41111655  1
  O  O109  1  0.03355230  0.61542447  0.41706420  1
  O  O110  1  0.00169752  0.93907435  0.41679883  1
  O  O111  1  0.81727607  0.33212558  0.41594568  1
  O  O112  1  0.81779954  0.65800960  0.41119813  1
  O  O113  1  0.81017470  0.00404391  0.40922912  1
  O  O114  1  0.18500799  0.06234119  0.41928080  1
  O  O115  1  0.16245224  0.39898901  0.42660640  1
  O  O116  1  0.17844751  0.72935561  0.39519445  1
  O  O117  1  0.04232062  0.07085343  0.92705340  1
  O  O118  1  0.04805103  0.40016975  0.93103844  1
  O  O119  1  0.00767384  0.72877700  0.89907953  1
  O  O120  1  0.17017664  0.31858435  0.92628330  1
  O  O121  1  0.15671885  0.65880584  0.91278627  1
  O  O122  1  0.18428411  0.99521483  0.91373631  1
  O  O123  1  0.79260213  0.27498046  0.92641201  1
  O  O124  1  0.80908107  0.61523070  0.91537286  1
  O  O125  1  0.80591216  0.94470657  0.91480884  1
  O  O126  1  0.95898520  0.04853539  0.59375615  1
  O  O127  1  0.01288190  0.39444382  0.59657914  1
  O  O128  1  0.01108836  0.72770125  0.58098081  1
  O  O129  1  0.17712413  0.01075375  0.58627532  1
  O  O130  1  0.17550174  0.33165246  0.59851356  1
  O  O131  1  0.17975123  0.66133142  0.58212396  1
  O  O132  1  0.84525325  0.27351780  0.58430455  1
  O  O133  1  0.80976042  0.61193013  0.58265352  1
  O  O134  1  0.83726268  0.93771372  0.60198303  1
  O  O135  1  0.99273542  0.27331996  0.07641188  1
  O  O136  1  0.03113401  0.60487778  0.09205141  1
  O  O137  1  0.98150689  0.94073340  0.09728833  1
  O  O138  1  0.82843153  0.99955311  0.09790747  1
  O  O139  1  0.79571614  0.32995034  0.09003393  1
  O  O140  1  0.81237280  0.66746884  0.08070092  1
  O  O141  1  0.16937422  0.05902693  0.10239873  1
  O  O142  1  0.20320269  0.40407803  0.09159662  1
  O  O143  1  0.17799662  0.72426466  0.08054276  1
  O  O144  1  0.67954971  0.04736419  0.74415144  1
  O  O145  1  0.69359606  0.38745625  0.74088482  1
  O  O146  1  0.67487802  0.71450528  0.76580447  1
  O  O147  1  0.47322152  0.11344623  0.74554846  1
  O  O148  1  0.47162358  0.43943936  0.74492276  1
  O  O149  1  0.46930044  0.76992960  0.76262931  1
  O  O150  1  0.84716914  0.17421008  0.75018517  1
  O  O151  1  0.83330158  0.51222637  0.76020543  1
  O  O152  1  0.85854321  0.84645262  0.74348359  1
  O  O153  1  0.67183610  0.16930840  0.25354674  1
  O  O154  1  0.69539782  0.50640208  0.24279778  1
  O  O155  1  0.65338411  0.84159582  0.24502391  1
  O  O156  1  0.85579366  0.11012857  0.24467938  1
  O  O157  1  0.83192838  0.44132508  0.23011771  1
  O  O158  1  0.83546841  0.76320416  0.25866047  1
  O  O159  1  0.46539763  0.04712758  0.23580248  1
  O  O160  1  0.49594280  0.39204605  0.23223981  1
  O  O161  1  0.46122982  0.72286725  0.26643197  1
  O  O162  1  0.63991168  0.16813589  0.92588417  1
  O  O163  1  0.65375390  0.50822690  0.92260370  1
  O  O164  1  0.65712326  0.84068935  0.90054306  1
  O  O165  1  0.86166784  0.11614469  0.92179251  1
  O  O166  1  0.85994408  0.44198512  0.92118811  1
  O  O167  1  0.86389276  0.78508017  0.90447904  1
  O  O168  1  0.50075502  0.04336059  0.90661548  1
  O  O169  1  0.48632057  0.38132236  0.91651040  1
  O  O170  1  0.47340524  0.70939993  0.92417615  1
  O  O171  1  0.63767894  0.04914899  0.42406758  1
  O  O172  1  0.66165637  0.38625616  0.41291066  1
  O  O173  1  0.65527286  0.71050944  0.42176180  1
  O  O174  1  0.50014148  0.11375846  0.43656272  1
  O  O175  1  0.47714692  0.44502187  0.42168213  1
  O  O176  1  0.49005110  0.78494498  0.40435343  1
  O  O177  1  0.83757631  0.16366496  0.43445447  1
  O  O178  1  0.86942588  0.50875643  0.43050654  1
  O  O179  1  0.86413078  0.83615987  0.40180803  1
  O  O180  1  0.31856734  0.16069775  0.06997869  1
  O  O181  1  0.37477273  0.50720866  0.07311724  1
  O  O182  1  0.32818048  0.82883046  0.08947787  1
  O  O183  1  0.15794330  0.22396184  0.06823206  1
  O  O184  1  0.15615936  0.54446311  0.08040977  1
  O  O185  1  0.15504404  0.89507417  0.08280653  1
  O  O186  1  0.48788550  0.28205648  0.08249790  1
  O  O187  1  0.49507822  0.61805601  0.06515719  1
  O  O188  1  0.52244894  0.94405338  0.08378897  1
  O  O189  1  0.34078501  0.28230950  0.59016071  1
  O  O190  1  0.34923433  0.61363863  0.56950077  1
  O  O191  1  0.30365331  0.95065783  0.57417479  1
  O  O192  1  0.53745683  0.22555338  0.57673606  1
  O  O193  1  0.50338839  0.55473370  0.56975851  1
  O  O194  1  0.52009188  0.88806792  0.58551758  1
  O  O195  1  0.13003100  0.15153781  0.57524503  1
  O  O196  1  0.16275183  0.49578218  0.56425384  1
  O  O197  1  0.15604774  0.83215035  0.58556101  1
  O  O198  1  0.35133895  0.28814641  0.25553993  1
  O  O199  1  0.33845364  0.61937559  0.25075875  1
  O  O200  1  0.30436947  0.94182409  0.25235472  1
  O  O201  1  0.51577216  0.22334316  0.25053530  1
  O  O202  1  0.52109222  0.55089676  0.25714959  1
  O  O203  1  0.50815268  0.89731723  0.25334913  1
  O  O204  1  0.17010373  0.15572826  0.23941946  1
  O  O205  1  0.14664601  0.49349203  0.24592976  1
  O  O206  1  0.15224695  0.82418290  0.27386041  1
  O  O207  1  0.28558483  0.15544239  0.73570569  1
  O  O208  1  0.29098889  0.48472159  0.73985042  1
  O  O209  1  0.32636100  0.82668884  0.76785519  1
  O  O210  1  0.16340281  0.23703648  0.74039074  1
  O  O211  1  0.15014726  0.56049898  0.75320096  1
  O  O212  1  0.17587567  0.89647448  0.75419135  1
  O  O213  1  0.54096965  0.28061838  0.74044985  1
  O  O214  1  0.52649216  0.61068967  0.75178254  1
  O  O215  1  0.52408758  0.94043221  0.75166433  1
loop_
_geom_bond_atom_site_label_1
_geom_bond_atom_site_label_2
_geom_bond_distance
_geom_bond_site_symmetry_2
Na0 O114 2.267210 1_555
Na0 O110 2.409364 1_545
Na0 O129 2.451689 1_555
Na0 O113 2.793289 1_455
Na0 O126 2.822014 1_455
Na1 O115 2.290548 1_555
Na1 O111 2.490199 1_455
Na1 O108 2.503222 1_455
Na1 O132 2.554464 1_455
Na1 O130 2.831091 1_555
Na1 O127 2.891658 1_555
Na2 O128 2.283520 1_655
Na2 O133 2.372279 1_555
Na2 O112 2.522289 1_555
Na2 O131 2.628298 1_655
Na2 O109 2.670601 1_655
Na3 O117 2.303370 1_655
Na3 O125 2.574688 1_545
Na3 O138 2.668154 1_546
Na3 O122 2.723047 1_645
Na3 O141 2.793909 1_656
Na3 O137 2.815082 1_546
Na4 O135 2.294000 1_455
Na4 O118 2.356911 1_554
Na4 O120 2.529367 1_554
Na4 O142 2.554881 1_555
Na4 O123 2.718955 1_454
Na4 O139 2.722191 1_455
Na5 O143 2.358507 1_655
Na5 O140 2.437486 1_555
Na5 O136 2.489477 1_655
Na5 O124 2.646421 1_554
Na5 O121 2.654830 1_654
Na6 O168 2.352001 1_555
Na6 O147 2.548930 1_555
Na6 O144 2.563247 1_555
Na6 O150 2.591064 1_555
Na6 O165 2.819593 1_555
Na6 O162 2.872092 1_555
Na7 O151 2.355233 1_555
Na7 O166 2.548904 1_555
Na7 O163 2.570001 1_555
Na7 O169 2.587130 1_555
Na7 O148 2.819282 1_555
Na7 O145 2.865740 1_555
Na8 O164 2.348146 1_555
Na8 O149 2.356924 1_555
Na8 O146 2.358543 1_555
Na8 O167 2.363082 1_555
Na8 O152 2.728761 1_555
Na8 O170 2.770717 1_555
Na9 O153 2.342916 1_555
Na9 O156 2.466136 1_555
Na9 O159 2.508875 1_555
Na9 O171 2.721994 1_555
Na10 O172 2.340513 1_555
Na10 O175 2.462903 1_555
Na10 O178 2.531290 1_555
Na10 O154 2.712889 1_555
Na11 O179 2.231750 1_555
Na11 O158 2.352393 1_555
Na11 O161 2.417764 1_555
Na11 O176 2.509101 1_555
Na11 O155 2.663301 1_555
Na11 O173 2.765636 1_555
Na12 O204 2.285389 1_555
Na12 O201 2.488295 1_555
Na12 O198 2.517993 1_555
Na12 O186 2.557311 1_555
Na12 O183 2.826601 1_555
Na12 O180 2.883470 1_555
Na13 O205 2.262576 1_555
Na13 O184 2.431389 1_555
Na13 O199 2.501373 1_555
Na13 O181 2.776941 1_555
Na13 O202 2.789001 1_555
Na14 O188 2.338830 1_555
Na14 O182 2.373916 1_555
Na14 O185 2.484780 1_555
Na14 O203 2.564611 1_555
Na14 O200 2.574837 1_555
Na15 O189 2.300691 1_555
Na15 O207 2.354749 1_555
Na15 O210 2.535025 1_555
Na15 O195 2.542854 1_555
Na15 O192 2.716752 1_555
Na15 O213 2.731223 1_555
Na16 O208 2.293699 1_555
Na16 O214 2.549050 1_555
Na16 O193 2.670574 1_555
Na16 O211 2.703355 1_555
Na16 O190 2.814915 1_555
Na16 O196 2.824333 1_555
Na17 O197 2.337855 1_555
Na17 O194 2.425743 1_555
Na17 O191 2.465746 1_555
Na17 O215 2.675761 1_555
Na17 O212 2.681384 1_555
Na18 O198 2.425608 1_555
Na18 O93 2.442178 1_555
Na18 O201 2.481941 1_555
Na18 O7 2.757965 1_555
Na18 O3 2.828412 1_555
Na18 O157 2.887975 1_555
Na18 O160 2.927353 1_555
Na19 O199 2.323156 1_555
Na19 O94 2.457783 1_555
Na19 O158 2.479608 1_555
Na19 O202 2.753012 1_555
Na19 O50 2.767109 1_555
Na19 O161 2.799337 1_555
Na19 O28 2.934163 1_555
Na20 O153 2.398873 1_555
Na20 O96 2.417592 1_555
Na20 O201 2.430627 1_555
Na20 O204 2.509211 1_555
Na20 O159 2.653571 1_555
Na20 O51 2.821746 1_555
Na21 O97 2.291794 1_555
Na21 O202 2.396878 1_555
Na21 O205 2.653695 1_555
Na21 O160 2.694610 1_555
Na21 O1 2.698400 1_555
Na21 O154 2.820693 1_555
Na22 O53 2.220087 1_555
Na22 O155 2.372642 1_555
Na22 O161 2.476892 1_555
Na22 O203 2.694290 1_555
Na22 O32 2.719450 1_555
Na22 O206 2.747708 1_555
Na23 O156 2.468670 1_555
Na23 O45 2.481329 1_555
Na23 O153 2.568167 1_555
Na23 O90 2.647831 1_655
Na23 O204 2.830227 1_655
Na23 O33 2.930729 1_655
Na23 O198 2.955796 1_655
Na24 O42 2.331679 1_555
Na24 O147 2.342028 1_555
Na24 O213 2.496798 1_555
Na24 O150 2.632823 1_555
Na24 O207 2.815410 1_555
Na24 O105 2.877821 1_555
Na24 O24 2.909758 1_555
Na25 O43 2.257752 1_555
Na25 O214 2.446572 1_555
Na25 O148 2.487067 1_555
Na25 O151 2.530496 1_555
Na25 O106 2.535779 1_555
Na25 O208 2.656899 1_555
Na26 O152 2.427833 1_555
Na26 O44 2.437259 1_555
Na26 O149 2.593420 1_555
Na26 O215 2.613173 1_555
Na26 O209 2.686751 1_555
Na26 O20 2.883719 1_555
Na27 O36 2.340925 1_555
Na27 O150 2.363280 1_555
Na27 O207 2.439159 1_655
Na27 O144 2.585818 1_555
Na27 O99 2.689750 1_655
Na27 O210 2.724679 1_655
Na28 O100 2.460652 1_655
Na28 O208 2.465874 1_655
Na28 O145 2.492258 1_555
Na28 O211 2.536784 1_655
Na28 O151 2.681881 1_555
Na28 O37 2.756694 1_555
Na29 O145 2.477869 1_555
Na29 O210 2.486178 1_555
Na29 O148 2.556946 1_555
Na29 O40 2.566554 1_555
Na29 O213 2.593366 1_555
Na29 O102 2.686869 1_555
Na30 O146 2.415489 1_555
Na30 O214 2.488479 1_555
Na30 O103 2.547078 1_555
Na30 O211 2.573646 1_555
Na30 O149 2.628414 1_555
Na30 O41 2.734384 1_555
Na31 O128 2.380935 1_555
Na31 O197 2.454192 1_555
Na31 O86 2.564266 1_555
Na31 O194 2.629319 1_555
Na31 O23 2.645997 1_555
Na31 O131 2.907493 1_555
Na32 O131 2.372902 1_555
Na32 O25 2.596324 1_455
Na32 O67 2.660335 1_455
Na32 O37 2.706201 1_455
Na32 O133 2.759899 1_455
Na32 O190 2.789811 1_555
Na32 O88 2.903405 1_555
Na32 O196 2.929190 1_555
Na33 O191 2.370519 1_555
Na33 O89 2.384803 1_555
Na33 O197 2.499728 1_555
Na33 O68 2.685209 1_455
Na33 O134 2.699706 1_455
Na34 O81 2.292923 1_555
Na34 O192 2.385327 1_555
Na34 O189 2.557905 1_555
Na34 O70 2.695121 1_555
Na34 O132 2.790339 1_555
Na35 O133 2.404328 1_555
Na35 O19 2.529417 1_555
Na35 O128 2.589470 1_655
Na35 O41 2.755315 1_555
Na35 O190 2.781893 1_555
Na35 O38 2.811297 1_555
Na35 O193 2.837255 1_555
Na35 O71 2.859072 1_555
Na36 O136 2.372551 1_555
Na36 O34 2.503508 1_555
Na36 O143 2.519685 1_555
Na36 O187 2.677613 1_555
Na36 O50 2.688141 1_555
Na37 O185 2.380301 1_555
Na37 O80 2.611894 1_554
Na37 O48 2.667493 1_565
Na37 O54 2.673598 1_565
Na37 O188 2.761847 1_555
Na37 O137 2.815478 1_455
Na37 O35 2.894269 1_555
Na37 O141 2.897533 1_565
Na38 O27 2.291709 1_555
Na38 O139 2.393258 1_555
Na38 O135 2.565325 1_555
Na38 O51 2.684664 1_555
Na38 O186 2.795285 1_555
Na39 O188 2.389635 1_555
Na39 O74 2.508946 1_554
Na39 O182 2.569655 1_555
Na39 O56 2.720779 1_555
Na39 O137 2.747779 1_555
Na39 O138 2.766831 1_555
Na39 O59 2.865422 1_555
Na40 O182 2.423351 1_555
Na40 O143 2.458227 1_555
Na40 O77 2.600282 1_554
Na40 O32 2.638229 1_555
Na40 O140 2.656620 1_455
Na40 O185 2.898991 1_555
Na40 O47 2.964116 1_455
Na41 O162 2.474776 1_555
Na41 O120 2.491102 1_655
Na41 O165 2.552686 1_555
Na41 O57 2.557399 1_556
Na41 O123 2.594423 1_555
Na41 O12 2.695882 1_555
Na42 O164 2.438169 1_555
Na42 O59 2.480824 1_556
Na42 O125 2.483269 1_555
Na42 O122 2.565339 1_655
Na42 O14 2.573611 1_555
Na42 O167 2.659346 1_555
Na43 O60 2.256469 1_556
Na43 O125 2.440679 1_545
Na43 O165 2.488819 1_555
Na43 O168 2.529539 1_555
Na43 O15 2.534736 1_555
Na43 O117 2.653385 1_655
Na44 O61 2.335238 1_556
Na44 O166 2.344858 1_555
Na44 O123 2.493786 1_555
Na44 O169 2.632468 1_555
Na44 O118 2.821106 1_655
Na44 O16 2.874574 1_555
Na44 O78 2.906912 1_555
Na45 O170 2.439096 1_555
Na45 O62 2.444826 1_556
Na45 O167 2.565048 1_555
Na45 O124 2.618353 1_555
Na45 O119 2.686403 1_655
Na45 O73 2.902270 1_555
Na46 O9 2.464129 1_555
Na46 O117 2.466561 1_555
Na46 O162 2.495563 1_555
Na46 O122 2.525686 1_545
Na46 O168 2.680792 1_555
Na46 O54 2.746678 1_556
Na47 O55 2.346671 1_556
Na47 O169 2.359736 1_555
Na47 O118 2.436254 1_555
Na47 O163 2.590254 1_555
Na47 O10 2.685174 1_555
Na47 O120 2.715595 1_555
Na48 O6 2.274925 1_655
Na48 O113 2.396750 1_555
Na48 O114 2.615361 1_655
Na48 O90 2.717170 1_655
Na48 O177 2.717193 1_555
Na48 O171 2.825892 1_555
Na49 O172 2.391557 1_555
Na49 O7 2.411771 1_555
Na49 O111 2.418381 1_555
Na49 O115 2.512632 1_655
Na49 O178 2.661030 1_555
Na49 O70 2.818311 1_555
Na50 O175 2.476539 1_555
Na50 O64 2.483848 1_555
Na50 O172 2.579046 1_555
Na50 O1 2.655249 1_555
Na50 O115 2.822895 1_555
Na50 O87 2.900958 1_555
Na50 O108 2.943851 1_455
Na51 O173 2.446882 1_555
Na51 O65 2.496502 1_555
Na51 O176 2.504686 1_555
Na51 O109 2.648319 1_555
Na51 O116 2.662359 1_555
Na52 O108 2.432786 1_555
Na52 O3 2.448162 1_555
Na52 O111 2.495636 1_555
Na52 O96 2.726011 1_555
Na52 O93 2.840719 1_555
Na52 O174 2.882362 1_555
Na52 O177 2.917373 1_555
Na53 O5 2.383481 1_555
Na53 O110 2.384498 1_655
Na53 O176 2.624015 1_555
Na53 O179 2.624136 1_555
Na53 O113 2.767982 1_565
Na53 O68 2.803849 1_555
Ca0 O0 2.183006 1_555
Ca0 O5 2.281373 1_445
Ca0 O6 2.295282 1_555
Ca0 O110 2.305016 1_545
Ca0 O113 2.312599 1_455
Ca0 O114 2.335343 1_555
Ca1 O3 2.237497 1_455
Ca1 O111 2.345202 1_455
Ca1 O108 2.397185 1_455
Ca1 O7 2.404990 1_455
Ca1 O1 2.414497 1_555
Ca1 O115 2.442162 1_555
Ca2 O9 2.201586 1_555
Ca2 O15 2.226833 1_455
Ca2 O14 2.230925 1_445
Ca2 O122 2.308201 1_545
Ca2 O125 2.328285 1_445
Ca2 O117 2.462778 1_555
Ca3 O12 2.223431 1_455
Ca3 O16 2.250550 1_455
Ca3 O10 2.256220 1_555
Ca3 O118 2.385547 1_555
Ca3 O123 2.396410 1_455
Ca3 O120 2.411281 1_555
Ca4 O19 2.228199 1_455
Ca4 O25 2.243315 1_455
Ca4 O128 2.252861 1_555
Ca4 O23 2.272968 1_555
Ca4 O131 2.384101 1_555
Ca4 O133 2.393036 1_455
Ca5 O31 2.180117 1_555
Ca5 O33 2.207351 1_555
Ca5 O135 2.293860 1_455
Ca5 O142 2.295982 1_555
Ca5 O27 2.323811 1_455
Ca5 O139 2.326338 1_455
Ca6 O28 2.172738 1_555
Ca6 O34 2.246601 1_655
Ca6 O143 2.300395 1_655
Ca6 O136 2.330807 1_655
Ca6 O140 2.355801 1_555
Ca6 O32 2.378640 1_655
Ca7 O39 2.201311 1_555
Ca7 O36 2.251764 1_555
Ca7 O42 2.267804 1_555
Ca7 O147 2.299753 1_555
Ca7 O144 2.314449 1_555
Ca7 O150 2.415618 1_555
Ca8 O40 2.209539 1_555
Ca8 O148 2.314565 1_555
Ca8 O145 2.361626 1_555
Ca8 O43 2.370969 1_555
Ca8 O37 2.414915 1_555
Ca8 O151 2.451014 1_555
Ca9 O38 2.154392 1_555
Ca9 O44 2.288031 1_555
Ca9 O152 2.303600 1_555
Ca9 O41 2.367745 1_555
Ca9 O146 2.412294 1_555
Ca9 O149 2.576530 1_555
Ca10 O48 2.217227 1_555
Ca10 O156 2.298685 1_555
Ca10 O45 2.308508 1_555
Ca10 O159 2.334379 1_555
Ca10 O51 2.352811 1_555
Ca10 O153 2.357127 1_555
Ca11 O47 2.223654 1_555
Ca11 O53 2.278870 1_555
Ca11 O155 2.313482 1_555
Ca11 O50 2.338510 1_555
Ca11 O158 2.451824 1_555
Ca11 O161 2.529740 1_555
Ca12 O57 2.211481 1_556
Ca12 O165 2.313989 1_555
Ca12 O162 2.368565 1_555
Ca12 O60 2.378821 1_556
Ca12 O54 2.420166 1_556
Ca12 O168 2.447907 1_555
Ca13 O58 2.200862 1_556
Ca13 O55 2.252622 1_556
Ca13 O61 2.267967 1_556
Ca13 O166 2.299021 1_555
Ca13 O163 2.314082 1_555
Ca13 O169 2.411186 1_555
Ca14 O56 2.155566 1_556
Ca14 O62 2.293412 1_556
Ca14 O170 2.311294 1_555
Ca14 O59 2.397648 1_556
Ca14 O164 2.405314 1_555
Ca14 O167 2.568447 1_555
Ca15 O67 2.221233 1_555
Ca15 O175 2.297267 1_555
Ca15 O64 2.304349 1_555
Ca15 O70 2.349403 1_555
Ca15 O178 2.350808 1_555
Ca15 O172 2.359226 1_555
Ca16 O71 2.161895 1_555
Ca16 O173 2.304008 1_555
Ca16 O68 2.333716 1_555
Ca16 O65 2.343850 1_555
Ca16 O179 2.383656 1_555
Ca16 O176 2.571275 1_555
Ca17 O74 2.222063 1_554
Ca17 O80 2.244748 1_554
Ca17 O77 2.278785 1_554
Ca17 O182 2.302058 1_555
Ca17 O185 2.364868 1_555
Ca17 O188 2.376711 1_555
Ca18 O84 2.179488 1_555
Ca18 O87 2.209838 1_555
Ca18 O195 2.294014 1_555
Ca18 O189 2.298237 1_555
Ca18 O192 2.326992 1_555
Ca18 O81 2.327819 1_555
Ca19 O83 2.183709 1_555
Ca19 O89 2.250084 1_555
Ca19 O197 2.277131 1_555
Ca19 O86 2.346677 1_555
Ca19 O191 2.360704 1_555
Ca19 O194 2.394649 1_555
Ca20 O93 2.244929 1_555
Ca20 O201 2.346573 1_555
Ca20 O96 2.392625 1_555
Ca20 O198 2.406034 1_555
Ca20 O90 2.412267 1_555
Ca20 O204 2.455385 1_555
Ca21 O91 2.184958 1_555
Ca21 O94 2.264138 1_555
Ca21 O97 2.285078 1_555
Ca21 O205 2.302719 1_555
Ca21 O202 2.303641 1_555
Ca21 O199 2.327991 1_555
Ca22 O102 2.226182 1_555
Ca22 O105 2.251640 1_555
Ca22 O99 2.255764 1_555
Ca22 O207 2.382467 1_555
Ca22 O213 2.396762 1_555
Ca22 O210 2.412326 1_555
Ca23 O100 2.200507 1_555
Ca23 O106 2.224813 1_555
Ca23 O103 2.237401 1_555
Ca23 O211 2.303911 1_555
Ca23 O214 2.326933 1_555
Ca23 O208 2.463029 1_555
Nb0 O2 1.952592 1_655
Nb0 O8 1.987377 1_555
Nb0 O4 2.003968 1_555
Nb0 O116 2.076430 1_655
Nb0 O109 2.089959 1_655
Nb0 O112 2.113455 1_555
Nb1 O13 1.961786 1_655
Nb1 O17 1.983635 1_555
Nb1 O11 2.004627 1_655
Nb1 O119 2.018579 1_655
Nb1 O121 2.069058 1_655
Nb1 O124 2.122486 1_555
Nb2 O21 1.956045 1_555
Nb2 O134 1.974936 1_445
Nb2 O126 2.003885 1_455
Nb2 O129 2.055962 1_555
Nb2 O20 2.083730 1_445
Nb2 O26 2.094163 1_545
Nb3 O24 1.945713 1_455
Nb3 O130 1.950097 1_555
Nb3 O22 1.967945 1_555
Nb3 O18 2.010410 1_455
Nb3 O127 2.096008 1_555
Nb3 O132 2.125396 1_455
Nb4 O30 1.943111 1_565
Nb4 O138 1.974712 1_555
Nb4 O29 2.010666 1_555
Nb4 O137 2.041405 1_555
Nb4 O35 2.051857 1_655
Nb4 O141 2.064093 1_665
Nb5 O157 1.941457 1_555
Nb5 O49 2.005504 1_555
Nb5 O46 2.008716 1_555
Nb5 O160 2.013386 1_555
Nb5 O52 2.054533 1_555
Nb5 O154 2.167581 1_555
Nb6 O174 1.940971 1_555
Nb6 O63 2.003466 1_555
Nb6 O66 2.013908 1_555
Nb6 O177 2.017444 1_555
Nb6 O69 2.057125 1_555
Nb6 O171 2.157647 1_555
Nb7 O78 1.949784 1_554
Nb7 O183 1.950263 1_555
Nb7 O75 1.962829 1_554
Nb7 O72 2.009798 1_554
Nb7 O180 2.092110 1_555
Nb7 O186 2.131782 1_555
Nb8 O76 1.952760 1_554
Nb8 O187 1.982818 1_555
Nb8 O181 2.006273 1_555
Nb8 O184 2.059819 1_555
Nb8 O73 2.074470 1_554
Nb8 O79 2.089379 1_554
Nb9 O85 1.941570 1_555
Nb9 O193 1.960316 1_555
Nb9 O82 2.014952 1_555
Nb9 O196 2.038731 1_555
Nb9 O190 2.044076 1_555
Nb9 O88 2.074645 1_555
Nb10 O92 1.913233 1_555
Nb10 O95 1.989723 1_555
Nb10 O200 2.037404 1_555
Nb10 O98 2.053758 1_555
Nb10 O206 2.100207 1_555
Nb10 O203 2.167526 1_555
Nb11 O104 1.959455 1_555
Nb11 O107 1.986857 1_555
Nb11 O101 2.014868 1_555
Nb11 O209 2.021350 1_555
Nb11 O212 2.061170 1_555
Nb11 O215 2.111670 1_555
O0 P0 1.497975 1_545
O1 P1 1.549933 1_555
O2 P2 1.641854 1_555
O3 P3 1.549679 1_555
O4 P4 1.635488 1_555
O5 P5 1.513348 1_555
O6 P6 1.521666 1_555
O7 P7 1.542254 1_555
O8 P8 1.617427 1_655
O9 P9 1.526340 1_555
O10 P10 1.524369 1_555
O11 P11 1.591776 1_555
O12 P12 1.525426 1_555
O13 P13 1.627482 1_455
O14 P14 1.523714 1_655
O15 P15 1.519125 1_545
O16 P16 1.532214 1_555
O17 P17 1.624620 1_555
O18 P16 1.610342 1_555
O19 P17 1.515544 1_555
O20 P15 1.597873 1_555
O21 P9 1.627626 1_555
O22 P10 1.610157 1_555
O23 P11 1.514011 1_555
O24 P12 1.625445 1_555
O25 P13 1.520714 1_555
O26 P14 1.590944 1_555
O27 P3 1.538745 1_555
O28 P4 1.503012 1_555
O29 P5 1.605889 1_555
O30 P6 1.633912 1_655
O31 P7 1.510163 1_455
O32 P8 1.525740 1_555
O33 P1 1.515761 1_555
O34 P2 1.513432 1_555
O35 P0 1.593300 1_555
O36 P18 1.518559 1_555
O37 P19 1.541154 1_555
O38 P20 1.533918 1_555
O39 P21 1.500891 1_555
O40 P22 1.533506 1_555
O41 P23 1.544715 1_555
O42 P24 1.515644 1_555
O43 P25 1.527539 1_555
O44 P26 1.539339 1_555
O45 P27 1.533760 1_555
O46 P28 1.597161 1_555
O47 P29 1.529456 1_555
O48 P30 1.527221 1_555
O49 P31 1.622088 1_555
O50 P32 1.547846 1_555
O51 P33 1.532382 1_555
O52 P34 1.609518 1_555
O53 P35 1.544722 1_555
O54 P33 1.542898 1_555
O55 P34 1.516188 1_555
O56 P35 1.532885 1_555
O57 P27 1.532839 1_555
O58 P28 1.505030 1_555
O59 P29 1.545101 1_555
O60 P30 1.526263 1_555
O61 P31 1.513699 1_555
O62 P32 1.536890 1_555
O63 P21 1.599533 1_555
O64 P22 1.534685 1_555
O65 P23 1.538443 1_555
O66 P24 1.617664 1_555
O67 P25 1.525670 1_555
O68 P26 1.546156 1_555
O69 P18 1.609773 1_555
O70 P19 1.530854 1_555
O71 P20 1.536830 1_555
O72 P36 1.611363 1_555
O73 P37 1.601144 1_555
O74 P38 1.520424 1_555
O75 P39 1.611529 1_555
O76 P40 1.629291 1_555
O77 P41 1.517797 1_555
O78 P42 1.623360 1_555
O79 P43 1.592294 1_555
O80 P44 1.521393 1_555
O81 P45 1.538749 1_555
O82 P46 1.610232 1_555
O83 P47 1.496851 1_555
O84 P48 1.511015 1_555
O85 P49 1.633133 1_555
O86 P50 1.518251 1_555
O87 P51 1.516374 1_555
O88 P52 1.594973 1_555
O89 P53 1.507660 1_555
O90 P51 1.550493 1_555
O91 P52 1.502687 1_555
O92 P53 1.652484 1_555
O93 P45 1.549282 1_555
O94 P46 1.517377 1_555
O95 P47 1.639625 1_555
O96 P48 1.543925 1_555
O97 P49 1.522922 1_555
O98 P50 1.602021 1_555
O99 P39 1.524273 1_555
O100 P40 1.525368 1_555
O101 P41 1.587271 1_555
O102 P42 1.525053 1_555
O103 P43 1.526283 1_555
O104 P44 1.627063 1_555
O105 P36 1.531605 1_555
O106 P37 1.518764 1_555
O107 P38 1.621124 1_555
O108 P51 1.538959 1_655
O109 P52 1.605936 1_555
O110 P53 1.533420 1_555
O111 P45 1.555370 1_555
O112 P46 1.585399 1_555
O113 P47 1.527709 1_545
O114 P48 1.526200 1_555
O115 P49 1.536491 1_555
O116 P50 1.593417 1_555
O117 P39 1.546721 1_555
O118 P40 1.540174 1_555
O119 P41 1.584549 1_555
O120 P42 1.537138 1_555
O121 P43 1.600003 1_555
O122 P44 1.533650 1_555
O123 P36 1.541855 1_555
O124 P37 1.602294 1_555
O125 P38 1.546215 1_555
O126 P18 1.607015 1_555
O127 P19 1.568801 1_455
O128 P20 1.554222 1_455
O129 P21 1.609927 1_555
O130 P22 1.602721 1_555
O131 P23 1.536569 1_555
O132 P24 1.599193 1_555
O133 P25 1.534143 1_555
O134 P26 1.610662 1_555
O135 P27 1.527403 1_555
O136 P28 1.517142 1_455
O137 P29 1.610771 1_555
O138 P30 1.607965 1_565
O139 P31 1.513089 1_555
O140 P32 1.527264 1_555
O141 P33 1.586485 1_555
O142 P34 1.500776 1_555
O143 P35 1.553804 1_555
O144 P15 1.515841 1_545
O145 P16 1.544381 1_555
O146 P17 1.536363 1_555
O147 P9 1.525190 1_555
O148 P10 1.534663 1_555
O149 P11 1.533522 1_555
O150 P12 1.538827 1_555
O151 P13 1.538181 1_555
O152 P14 1.523970 1_655
O153 P3 1.562919 1_555
O154 P4 1.570936 1_555
O155 P5 1.521571 1_555
O156 P6 1.524389 1_655
O157 P7 1.607922 1_555
O158 P8 1.527435 1_655
O159 P0 1.523323 1_545
O160 P1 1.624545 1_555
O161 P2 1.543852 1_555
O162 P36 1.542951 1_555
O163 P37 1.515938 1_555
O164 P38 1.535348 1_555
O165 P39 1.533708 1_655
O166 P40 1.525326 1_655
O167 P41 1.532869 1_655
O168 P44 1.538590 1_545
O169 P42 1.540316 1_555
O170 P43 1.522047 1_555
O171 P47 1.573587 1_545
O172 P45 1.564123 1_555
O173 P46 1.518340 1_555
O174 P48 1.610884 1_555
O175 P49 1.523817 1_555
O176 P50 1.539673 1_555
O177 P51 1.623187 1_655
O178 P52 1.518542 1_655
O179 P53 1.533392 1_655
O180 P33 1.573010 1_555
O181 P34 1.607583 1_555
O182 P35 1.554421 1_555
O183 P27 1.602389 1_455
O184 P28 1.606284 1_455
O185 P29 1.538922 1_455
O186 P31 1.595658 1_555
O187 P32 1.608970 1_555
O188 P30 1.536326 1_565
O189 P22 1.525667 1_555
O190 P23 1.615300 1_555
O191 P21 1.516157 1_565
O192 P24 1.511821 1_555
O193 P25 1.611773 1_555
O194 P26 1.524946 1_555
O195 P18 1.498258 1_455
O196 P19 1.588820 1_455
O197 P20 1.550848 1_455
O198 P1 1.538068 1_555
O199 P2 1.530694 1_555
O200 P0 1.605122 1_555
O201 P3 1.555133 1_555
O202 P4 1.527628 1_555
O203 P5 1.597803 1_555
O204 P6 1.537856 1_555
O205 P7 1.529018 1_455
O206 P8 1.570639 1_555
O207 P9 1.541331 1_555
O208 P10 1.547473 1_555
O209 P11 1.581239 1_555
O210 P12 1.536476 1_455
O211 P13 1.534298 1_455
O212 P14 1.601877 1_555
O213 P16 1.540246 1_555
O214 P17 1.548665 1_555
O215 P15 1.605354 1_555
