# generated using pymatgen
data_Na6Ca3HfSi2(SO6)4
_symmetry_space_group_name_H-M   'P 1'
_cell_length_a   9.36298360
_cell_length_b   9.38404795
_cell_length_c   23.39764627
_cell_angle_alpha   90.16210649
_cell_angle_beta   89.84945395
_cell_angle_gamma   119.89433131
_symmetry_Int_Tables_number   1
_chemical_formula_structural   Na6Ca3HfSi2(SO6)4
_chemical_formula_sum   'Na18 Ca9 Hf3 Si6 S12 O72'
_cell_volume   1782.24155092
_cell_formula_units_Z   3
loop_
 _symmetry_equiv_pos_site_id
 _symmetry_equiv_pos_as_xyz
  1  'x, y, z'
loop_
 _atom_site_type_symbol
 _atom_site_label
 _atom_site_symmetry_multiplicity
 _atom_site_fract_x
 _atom_site_fract_y
 _atom_site_fract_z
 _atom_site_occupancy
  Na  Na0  1  0.63255188  0.99626794  0.26126421  1
  Na  Na1  1  0.36769638  0.36371989  0.24015033  1
  Na  Na2  1  0.64112404  0.65260788  0.73879759  1
  Na  Na3  1  0.32383644  0.35322073  0.58953613  1
  Na  Na4  1  0.01736771  0.69954049  0.58286152  1
  Na  Na5  1  0.66525187  0.93877956  0.58430024  1
  Na  Na6  1  0.29760148  0.97508382  0.07256827  1
  Na  Na7  1  0.05638934  0.33745011  0.07277432  1
  Na  Na8  1  0.99453798  0.67753194  0.91597786  1
  Na  Na9  1  0.71025032  0.03881163  0.90172219  1
  Na  Na10  1  0.30041635  0.28406709  0.91891954  1
  Na  Na11  1  0.69360296  0.69344615  0.42273459  1
  Na  Na12  1  0.97362413  0.99192208  0.49619419  1
  Na  Na13  1  0.02300184  0.02127330  0.99461589  1
  Na  Na14  1  0.67283573  0.29884758  0.82503986  1
  Na  Na15  1  0.67479964  0.31479420  0.33751832  1
  Na  Na16  1  0.33725225  0.64768976  0.16026734  1
  Na  Na17  1  0.36243441  0.67961746  0.67136026  1
  Ca  Ca0  1  0.00183387  0.00438964  0.35148396  1
  Ca  Ca1  1  -0.00007071  0.00970779  0.84627160  1
  Ca  Ca2  1  0.98079302  0.99257518  0.65560529  1
  Ca  Ca3  1  0.00234791  0.99756467  0.14630074  1
  Ca  Ca4  1  0.66395860  0.32303520  0.68685353  1
  Ca  Ca5  1  0.66728665  0.34389979  0.18189287  1
  Ca  Ca6  1  0.33728779  0.66215482  0.01609803  1
  Ca  Ca7  1  0.34332926  0.67259339  0.51216933  1
  Ca  Ca8  1  0.33557350  0.68243553  0.32419344  1
  Hf  Hf0  1  0.65657597  0.32711624  0.98053052  1
  Hf  Hf1  1  0.66575346  0.32951011  0.48183563  1
  Hf  Hf2  1  0.32429801  0.67644551  0.81970763  1
  Si  Si0  1  0.68004593  0.98820894  0.75335848  1
  Si  Si1  1  0.66612275  0.62682295  0.58364956  1
  Si  Si2  1  0.36750183  0.33403638  0.08540614  1
  Si  Si3  1  0.03203094  0.37176883  0.92051016  1
  Si  Si4  1  0.33427318  0.96610334  0.92194255  1
  Si  Si5  1  0.64442080  0.97989485  0.41717752  1
  S  S0  1  0.30221901  0.99862687  0.24845931  1
  S  S1  1  0.69707394  0.69895071  0.25214980  1
  S  S2  1  0.00127688  0.29889831  0.24860232  1
  S  S3  1  0.30581953  0.31490839  0.75158901  1
  S  S4  1  0.00637724  0.69905141  0.75169965  1
  S  S5  1  0.95825060  0.33546618  0.58067958  1
  S  S6  1  0.37332511  0.04315867  0.58080114  1
  S  S7  1  0.95984399  0.62589113  0.08031165  1
  S  S8  1  0.66800091  0.04609797  0.08264099  1
  S  S9  1  0.62704672  0.65780120  0.91574317  1
  S  S10  1  0.34267865  0.36398191  0.41809997  1
  S  S11  1  0.02031450  0.65789249  0.42036531  1
  O  O0  1  0.21641309  0.01631299  0.29842271  1
  O  O1  1  0.78885720  0.77793948  0.30504151  1
  O  O2  1  0.98180131  0.19367165  0.29846535  1
  O  O3  1  0.22570282  0.21279300  0.80207257  1
  O  O4  1  0.98895830  0.78263367  0.80238315  1
  O  O5  1  0.78285228  0.99867801  0.81041940  1
  O  O6  1  0.75315845  0.94875259  0.69430497  1
  O  O7  1  0.21310238  0.23897803  0.69801864  1
  O  O8  1  0.03424110  0.79697073  0.69877585  1
  O  O9  1  0.78152538  0.80045127  0.20152016  1
  O  O10  1  0.01928458  0.22120680  0.19532866  1
  O  O11  1  0.21150582  0.98602856  0.19510558  1
  O  O12  1  0.88348260  0.35470213  0.63289194  1
  O  O13  1  0.47298148  0.11260064  0.63226061  1
  O  O14  1  0.64770523  0.52301889  0.64093493  1
  O  O15  1  0.88145255  0.52680168  0.13155095  1
  O  O16  1  0.65262304  0.12302508  0.13542618  1
  O  O17  1  0.45729037  0.33922858  0.14503142  1
  O  O18  1  0.48357315  0.32621803  0.02959849  1
  O  O19  1  0.86112292  0.53747018  0.02796551  1
  O  O20  1  0.68434277  0.15496427  0.03157845  1
  O  O21  1  0.46779213  0.14685493  0.52988535  1
  O  O22  1  0.67476189  0.51597692  0.52756820  1
  O  O23  1  0.84851627  0.31432426  0.53022573  1
  O  O24  1  0.55760310  0.69143465  0.96657023  1
  O  O25  1  0.13794518  0.44142262  0.97808791  1
  O  O26  1  0.31142398  0.86833585  0.98033562  1
  O  O27  1  0.55426621  0.86489489  0.47272328  1
  O  O28  1  0.31797463  0.44027993  0.46958425  1
  O  O29  1  0.11304636  0.67530328  0.47310681  1
  O  O30  1  0.09660143  0.63080251  0.36971207  1
  O  O31  1  0.54241855  0.91018838  0.35708665  1
  O  O32  1  0.37077637  0.46710541  0.36670564  1
  O  O33  1  0.13574745  0.50065922  0.86665565  1
  O  O34  1  0.36263829  0.86486142  0.86743999  1
  O  O35  1  0.51979439  0.62910411  0.86466096  1
  O  O36  1  0.99539907  0.80108548  0.41443595  1
  O  O37  1  0.82328268  0.98693299  0.41504392  1
  O  O38  1  0.20568100  0.19542437  0.41237239  1
  O  O39  1  -0.00058186  0.18509294  0.91211562  1
  O  O40  1  0.17563857  0.98989124  0.91198067  1
  O  O41  1  0.79791451  0.79418750  0.90801582  1
  O  O42  1  0.97743184  0.18689482  0.58204087  1
  O  O43  1  0.21478156  0.04418672  0.58309265  1
  O  O44  1  0.83788942  0.80828610  0.57953623  1
  O  O45  1  0.97299210  0.79032261  0.08228617  1
  O  O46  1  0.82129784  0.03640336  0.08218303  1
  O  O47  1  0.18843976  0.15890063  0.07814411  1
  O  O48  1  0.65578519  0.14655634  0.74936983  1
  O  O49  1  0.47764659  0.34677991  0.74875330  1
  O  O50  1  0.85559879  0.53625475  0.74729258  1
  O  O51  1  0.67394649  0.53000333  0.24918563  1
  O  O52  1  0.84855326  0.31155635  0.24646071  1
  O  O53  1  0.47227332  0.14999901  0.24767777  1
  O  O54  1  0.63549990  0.50101479  0.92300117  1
  O  O55  1  0.84959926  0.36726895  0.92507798  1
  O  O56  1  0.50907197  0.15216469  0.92453353  1
  O  O57  1  0.66352605  0.16674544  0.42724620  1
  O  O58  1  0.50324472  0.35883126  0.42470589  1
  O  O59  1  0.84760071  0.50673137  0.42512942  1
  O  O60  1  0.33712688  0.49053034  0.08399503  1
  O  O61  1  0.12829494  0.64779078  0.07755114  1
  O  O62  1  0.51851827  0.88418284  0.07734286  1
  O  O63  1  0.34043539  0.87176256  0.57416806  1
  O  O64  1  0.49944120  0.64554549  0.58027355  1
  O  O65  1  0.12146133  0.48579991  0.57309230  1
  O  O66  1  0.32433608  0.85187782  0.25187506  1
  O  O67  1  0.52683813  0.68142918  0.25405054  1
  O  O68  1  0.15423995  0.46275645  0.25392831  1
  O  O69  1  0.31715791  0.48157570  0.75792653  1
  O  O70  1  0.15584340  0.67783366  0.75841977  1
  O  O71  1  0.49701313  0.80777864  0.76085148  1
loop_
_geom_bond_atom_site_label_1
_geom_bond_atom_site_label_2
_geom_bond_distance
_geom_bond_site_symmetry_2
Na0 O31 2.390008 1_555
Na0 O66 2.513186 1_555
Na0 O53 2.568534 1_565
Na0 O67 2.611535 1_555
Na0 O52 2.646033 1_565
Na1 O17 2.426747 1_555
Na1 O51 2.498583 1_555
Na1 O67 2.604533 1_555
Na1 O68 2.609291 1_555
Na1 O53 2.640538 1_555
Na2 O71 2.481489 1_555
Na2 O49 2.501325 1_555
Na2 O14 2.604573 1_555
Na2 O6 2.648004 1_555
Na2 O69 2.668566 1_555
Na2 O50 2.730045 1_555
Na3 O64 2.404370 1_555
Na3 O43 2.553812 1_555
Na3 O7 2.749639 1_555
Na3 O65 2.764546 1_555
Na3 O42 2.818106 1_455
Na3 O14 2.893525 1_555
Na3 O28 2.933579 1_555
Na4 O44 2.362595 1_455
Na4 O63 2.632260 1_555
Na4 O65 2.640082 1_555
Na4 O29 2.763439 1_555
Na4 O43 2.813807 1_565
Na4 O8 2.839143 1_555
Na5 O64 2.394162 1_555
Na5 O44 2.469019 1_555
Na5 O42 2.680212 1_565
Na5 O6 2.691449 1_555
Na5 O27 2.768000 1_555
Na5 O63 2.792375 1_555
Na6 O47 2.406767 1_565
Na6 O26 2.406827 1_554
Na6 O62 2.603671 1_555
Na6 O45 2.653501 1_455
Na6 O61 2.665986 1_555
Na7 O60 2.297684 1_555
Na7 O25 2.388285 1_554
Na7 O47 2.533528 1_555
Na7 O46 2.583967 1_455
Na7 O61 2.644071 1_555
Na8 O55 2.535235 1_555
Na8 O40 2.553859 1_655
Na8 O41 2.575681 1_555
Na8 O33 2.829011 1_655
Na8 O4 2.847202 1_555
Na8 O19 2.918786 1_556
Na8 O54 2.918842 1_555
Na8 O26 2.998210 1_655
Na9 O5 2.326067 1_545
Na9 O39 2.360245 1_655
Na9 O56 2.636882 1_555
Na9 O55 2.736207 1_555
Na9 O41 2.801023 1_545
Na9 O34 2.934527 1_545
Na10 O40 2.407402 1_545
Na10 O39 2.494558 1_555
Na10 O54 2.762357 1_555
Na10 O56 2.789044 1_555
Na10 O3 2.818594 1_555
Na10 O25 2.937271 1_555
Na10 O18 3.024049 1_556
Na11 O37 2.400005 1_555
Na11 O36 2.489127 1_555
Na11 O58 2.731368 1_555
Na11 O59 2.769734 1_555
Na11 O27 2.780665 1_555
Na11 O1 2.881275 1_555
Na11 O22 2.923888 1_555
Na11 O32 2.995283 1_555
Na12 O37 2.353011 1_555
Na12 O44 2.492028 1_555
Na12 O36 2.692673 1_555
Na12 O42 2.701464 1_565
Na12 O38 2.841995 1_665
Na12 O43 2.896114 1_665
Na13 O47 2.427835 1_556
Na13 O40 2.503844 1_545
Na13 O39 2.548633 1_555
Na13 O46 2.833714 1_456
Na13 O45 2.851759 1_446
Na13 O41 2.934208 1_445
Na14 O48 2.227613 1_555
Na14 O50 2.721599 1_555
Na14 O56 2.749636 1_555
Na14 O49 2.751240 1_555
Na14 O55 2.753664 1_555
Na15 O57 2.493596 1_555
Na15 O59 2.674999 1_555
Na15 O52 2.686529 1_555
Na15 O53 2.735943 1_555
Na15 O58 2.748103 1_555
Na15 O51 2.896538 1_555
Na16 O60 2.311531 1_555
Na16 O67 2.742715 1_555
Na16 O61 2.755929 1_555
Na16 O68 2.790685 1_555
Na16 O62 2.796907 1_555
Na16 O66 2.913189 1_555
Na17 O71 2.430543 1_555
Na17 O64 2.584662 1_555
Na17 O69 2.639582 1_555
Na17 O70 2.799707 1_555
Na17 O63 2.976718 1_555
Ca0 O37 2.179131 1_445
Ca0 O2 2.252738 1_455
Ca0 O0 2.313861 1_555
Ca0 O1 2.333944 1_445
Ca0 O38 2.339951 1_555
Ca0 O36 2.390349 1_445
Ca1 O5 2.155035 1_445
Ca1 O39 2.252921 1_555
Ca1 O3 2.270232 1_555
Ca1 O4 2.318547 1_445
Ca1 O40 2.329103 1_545
Ca1 O41 2.438036 1_445
Ca2 O6 2.156363 1_555
Ca2 O8 2.359828 1_655
Ca2 O44 2.374321 1_555
Ca2 O7 2.459157 1_665
Ca2 O42 2.522708 1_565
Ca2 O43 2.615393 1_665
Ca3 O47 2.289250 1_565
Ca3 O11 2.318313 1_555
Ca3 O10 2.324022 1_565
Ca3 O9 2.356447 1_455
Ca3 O45 2.356672 1_455
Ca3 O46 2.426799 1_465
Ca4 O48 2.185145 1_555
Ca4 O14 2.235230 1_555
Ca4 O13 2.281774 1_555
Ca4 O12 2.299286 1_555
Ca4 O49 2.358529 1_555
Ca4 O50 2.375167 1_555
Ca5 O17 2.129430 1_555
Ca5 O15 2.218689 1_555
Ca5 O16 2.280642 1_555
Ca5 O51 2.325779 1_555
Ca5 O53 2.388155 1_555
Ca5 O52 2.405090 1_555
Ca6 O25 2.170175 1_554
Ca6 O26 2.231495 1_554
Ca6 O24 2.257839 1_554
Ca6 O60 2.264864 1_555
Ca6 O61 2.374458 1_555
Ca6 O62 2.396993 1_555
Ca7 O27 2.110954 1_555
Ca7 O64 2.263720 1_555
Ca7 O28 2.296694 1_555
Ca7 O29 2.355854 1_555
Ca7 O63 2.373433 1_555
Ca7 O65 2.405982 1_555
Ca8 O31 2.187114 1_555
Ca8 O30 2.298947 1_555
Ca8 O66 2.363346 1_555
Ca8 O32 2.420356 1_555
Ca8 O67 2.429377 1_555
Ca8 O68 2.518296 1_555
Hf0 O18 1.979557 1_556
Hf0 O56 2.014086 1_555
Hf0 O55 2.098395 1_555
Hf0 O20 2.129594 1_556
Hf0 O54 2.201959 1_555
Hf0 O19 2.242010 1_556
Hf1 O57 1.980432 1_555
Hf1 O22 2.014124 1_555
Hf1 O21 2.114354 1_555
Hf1 O23 2.117690 1_555
Hf1 O59 2.145501 1_555
Hf1 O58 2.146564 1_555
Hf2 O34 1.964842 1_555
Hf2 O71 2.010388 1_555
Hf2 O33 2.035092 1_555
Hf2 O70 2.139311 1_555
Hf2 O69 2.302552 1_555
Hf2 O35 2.340397 1_555
O0 S0 1.471902 1_545
O1 S1 1.478137 1_555
O2 S2 1.481676 1_655
O3 S3 1.470172 1_555
O4 S4 1.472861 1_655
O5 Si0 1.621856 1_555
O6 Si0 1.661211 1_555
O7 S3 1.488780 1_555
O8 S4 1.487129 1_555
O9 S1 1.478681 1_555
O10 S2 1.493302 1_555
O11 S0 1.482698 1_555
O12 S5 1.461266 1_555
O13 S6 1.462990 1_555
O14 Si1 1.616745 1_555
O15 S7 1.470389 1_555
O16 S8 1.471335 1_555
O17 Si2 1.618752 1_555
O18 Si2 1.721328 1_555
O19 S7 1.509512 1_555
O20 S8 1.531220 1_555
O21 S6 1.513781 1_555
O22 Si1 1.698797 1_555
O23 S5 1.513419 1_555
O24 S9 1.461171 1_555
O25 Si3 1.606697 1_555
O26 Si4 1.601270 1_555
O27 Si5 1.631054 1_555
O28 S10 1.475113 1_555
O29 S11 1.471888 1_555
O30 S11 1.467745 1_555
O31 Si5 1.641924 1_555
O32 S10 1.484202 1_555
O33 Si3 1.680809 1_555
O34 Si4 1.685894 1_555
O35 S9 1.498124 1_555
O36 S11 1.480868 1_655
O37 Si5 1.643392 1_555
O38 S10 1.463728 1_555
O39 Si3 1.632698 1_555
O40 Si4 1.625689 1_555
O41 S9 1.479514 1_555
O42 S5 1.492292 1_555
O43 S6 1.490096 1_555
O44 Si1 1.663040 1_555
O45 S7 1.486108 1_555
O46 S8 1.482767 1_555
O47 Si2 1.671549 1_555
O48 Si0 1.614211 1_545
O49 S3 1.483932 1_555
O50 S4 1.479034 1_655
O51 S1 1.490796 1_555
O52 S2 1.493685 1_655
O53 S0 1.516168 1_545
O54 S9 1.522288 1_555
O55 Si3 1.690561 1_655
O56 Si4 1.697727 1_545
O57 Si5 1.687363 1_545
O58 S10 1.536250 1_555
O59 S11 1.533961 1_655
O60 Si2 1.629493 1_555
O61 S7 1.486750 1_455
O62 S8 1.470697 1_565
O63 S6 1.486929 1_565
O64 Si1 1.657328 1_555
O65 S5 1.485929 1_455
O66 S0 1.493535 1_555
O67 S1 1.519213 1_555
O68 S2 1.495244 1_555
O69 S3 1.520744 1_555
O70 S4 1.517205 1_555
O71 Si0 1.715275 1_555
