# generated using pymatgen
data_Li7Fe4P9O32
_symmetry_space_group_name_H-M   'P 1'
_cell_length_a   13.87419000
_cell_length_b   13.87419000
_cell_length_c   6.39533800
_cell_angle_alpha   90.00000000
_cell_angle_beta   90.00000000
_cell_angle_gamma   90.00000000
_symmetry_Int_Tables_number   1
_chemical_formula_structural   Li7Fe4P9O32
_chemical_formula_sum   'Li14 Fe8 P18 O64'
_cell_volume   1231.05874514
_cell_formula_units_Z   2
loop_
 _symmetry_equiv_pos_site_id
 _symmetry_equiv_pos_as_xyz
  1  'x, y, z'
loop_
 _atom_site_type_symbol
 _atom_site_label
 _atom_site_symmetry_multiplicity
 _atom_site_fract_x
 _atom_site_fract_y
 _atom_site_fract_z
 _atom_site_occupancy
  Li  Li0  1  0.00000000  0.00000000  0.00000000  1
  Li  Li1  1  0.00000000  0.50000000  0.13401100  1
  Li  Li2  1  0.00000000  0.50000000  0.63401100  1
  Li  Li3  1  0.10627300  0.74475500  0.81205000  1
  Li  Li4  1  0.24475500  0.60627300  0.31205000  1
  Li  Li5  1  0.25524500  0.10627300  0.18795000  1
  Li  Li6  1  0.39372700  0.24475500  0.68795000  1
  Li  Li7  1  0.50000000  0.00000000  0.36598900  1
  Li  Li8  1  0.50000000  0.00000000  0.86598900  1
  Li  Li9  1  0.50000000  0.50000000  0.50000000  1
  Li  Li10  1  0.60627300  0.75524500  0.68795000  1
  Li  Li11  1  0.74475500  0.89372700  0.18795000  1
  Li  Li12  1  0.75524500  0.39372700  0.31205000  1
  Li  Li13  1  0.89372700  0.25524500  0.81205000  1
  Fe  Fe0  1  0.12098700  0.19665800  0.62436600  1
  Fe  Fe1  1  0.19665800  0.87901300  0.37563400  1
  Fe  Fe2  1  0.30334200  0.37901300  0.12436600  1
  Fe  Fe3  1  0.37901300  0.69665800  0.87563400  1
  Fe  Fe4  1  0.62098700  0.30334200  0.87563400  1
  Fe  Fe5  1  0.69665800  0.62098700  0.12436600  1
  Fe  Fe6  1  0.80334200  0.12098700  0.37563400  1
  Fe  Fe7  1  0.87901300  0.80334200  0.62436600  1
  P  P0  1  0.00000000  0.00000000  0.50000000  1
  P  P1  1  0.06022200  0.69188000  0.38317400  1
  P  P2  1  0.10714700  0.24686700  0.13393000  1
  P  P3  1  0.19188000  0.56022200  0.88317400  1
  P  P4  1  0.24686700  0.89285300  0.86607000  1
  P  P5  1  0.25313300  0.39285300  0.63393000  1
  P  P6  1  0.30812000  0.06022200  0.61682600  1
  P  P7  1  0.39285300  0.74686700  0.36607000  1
  P  P8  1  0.43977800  0.19188000  0.11682600  1
  P  P9  1  0.50000000  0.50000000  0.00000000  1
  P  P10  1  0.56022200  0.80812000  0.11682600  1
  P  P11  1  0.60714700  0.25313300  0.36607000  1
  P  P12  1  0.69188000  0.93977800  0.61682600  1
  P  P13  1  0.74686700  0.60714700  0.63393000  1
  P  P14  1  0.75313300  0.10714700  0.86607000  1
  P  P15  1  0.80812000  0.43977800  0.88317400  1
  P  P16  1  0.89285300  0.75313300  0.13393000  1
  P  P17  1  0.93977800  0.30812000  0.38317400  1
  O  O0  1  0.00573200  0.72891200  0.17080400  1
  O  O1  1  0.01335300  0.74190400  0.57276900  1
  O  O2  1  0.05617200  0.58292900  0.38526600  1
  O  O3  1  0.06051900  0.06505500  0.64855900  1
  O  O4  1  0.06505500  0.93948100  0.35144100  1
  O  O5  1  0.08292900  0.55617200  0.88526600  1
  O  O6  1  0.10600000  0.18813700  0.93232300  1
  O  O7  1  0.13997400  0.17994300  0.31218600  1
  O  O8  1  0.15826100  0.33835300  0.62438400  1
  O  O9  1  0.16164700  0.34173900  0.12438400  1
  O  O10  1  0.16409200  0.72942900  0.35261700  1
  O  O11  1  0.17994300  0.86002600  0.68781400  1
  O  O12  1  0.18813700  0.89400000  0.06767700  1
  O  O13  1  0.22891200  0.50573200  0.67080400  1
  O  O14  1  0.22942900  0.66409200  0.85261700  1
  O  O15  1  0.24190400  0.51335300  0.07276900  1
  O  O16  1  0.25809600  0.01335300  0.42723100  1
  O  O17  1  0.27057100  0.16409200  0.64738300  1
  O  O18  1  0.27108800  0.00573200  0.82919600  1
  O  O19  1  0.31186300  0.39400000  0.43232300  1
  O  O20  1  0.32005700  0.36002600  0.81218600  1
  O  O21  1  0.33590800  0.22942900  0.14738300  1
  O  O22  1  0.33835300  0.84173900  0.37561600  1
  O  O23  1  0.34173900  0.83835300  0.87561600  1
  O  O24  1  0.36002600  0.67994300  0.18781400  1
  O  O25  1  0.39400000  0.68813700  0.56767700  1
  O  O26  1  0.41707100  0.05617200  0.61473400  1
  O  O27  1  0.43494500  0.43948100  0.14855900  1
  O  O28  1  0.43948100  0.56505500  0.85144100  1
  O  O29  1  0.44382800  0.08292900  0.11473400  1
  O  O30  1  0.48664700  0.24190400  0.92723100  1
  O  O31  1  0.49426800  0.22891200  0.32919600  1
  O  O32  1  0.50573200  0.77108800  0.32919600  1
  O  O33  1  0.51335300  0.75809600  0.92723100  1
  O  O34  1  0.55617200  0.91707100  0.11473400  1
  O  O35  1  0.56051900  0.43494500  0.85144100  1
  O  O36  1  0.56505500  0.56051900  0.14855900  1
  O  O37  1  0.58292900  0.94382800  0.61473400  1
  O  O38  1  0.60600000  0.31186300  0.56767700  1
  O  O39  1  0.63997400  0.32005700  0.18781400  1
  O  O40  1  0.65826100  0.16164700  0.87561600  1
  O  O41  1  0.66164700  0.15826100  0.37561600  1
  O  O42  1  0.66409200  0.77057100  0.14738300  1
  O  O43  1  0.67994300  0.63997400  0.81218600  1
  O  O44  1  0.68813700  0.60600000  0.43232300  1
  O  O45  1  0.72891200  0.99426800  0.82919600  1
  O  O46  1  0.72942900  0.83590800  0.64738300  1
  O  O47  1  0.74190400  0.98664700  0.42723100  1
  O  O48  1  0.75809600  0.48664700  0.07276900  1
  O  O49  1  0.77057100  0.33590800  0.85261700  1
  O  O50  1  0.77108800  0.49426800  0.67080400  1
  O  O51  1  0.81186300  0.10600000  0.06767700  1
  O  O52  1  0.82005700  0.13997400  0.68781400  1
  O  O53  1  0.83590800  0.27057100  0.35261700  1
  O  O54  1  0.83835300  0.65826100  0.12438400  1
  O  O55  1  0.84173900  0.66164700  0.62438400  1
  O  O56  1  0.86002600  0.82005700  0.31218600  1
  O  O57  1  0.89400000  0.81186300  0.93232300  1
  O  O58  1  0.91707100  0.44382800  0.88526600  1
  O  O59  1  0.93494500  0.06051900  0.35144100  1
  O  O60  1  0.93948100  0.93494500  0.64855900  1
  O  O61  1  0.94382800  0.41707100  0.38526600  1
  O  O62  1  0.98664700  0.25809600  0.57276900  1
  O  O63  1  0.99426800  0.27108800  0.17080400  1
loop_
_geom_bond_atom_site_label_1
_geom_bond_atom_site_label_2
_geom_bond_distance
_geom_bond_site_symmetry_2
Li0 O3 2.563457 1_554
Li0 O4 2.563457 1_545
Li0 O59 2.563457 1_455
Li0 O60 2.563457 1_444
Li1 O5 2.112312 1_554
Li1 O58 2.112312 1_454
Li1 O2 2.124427 1_555
Li1 O61 2.124427 1_455
Li2 O2 2.112312 1_555
Li2 O61 2.112312 1_455
Li2 O5 2.124427 1_555
Li2 O58 2.124427 1_455
Li3 O1 2.001335 1_555
Li3 O11 2.057602 1_555
Li3 O14 2.058978 1_555
Li4 O15 2.001335 1_555
Li4 O24 2.057602 1_555
Li4 O10 2.058978 1_555
Li5 O16 2.001335 1_555
Li5 O7 2.057602 1_555
Li5 O21 2.058978 1_555
Li6 O30 2.001335 1_555
Li6 O20 2.057602 1_555
Li6 O17 2.058978 1_555
Li7 O37 2.112312 1_545
Li7 O26 2.112312 1_555
Li7 O34 2.124427 1_545
Li7 O29 2.124427 1_555
Li8 O34 2.112312 1_546
Li8 O29 2.112312 1_556
Li8 O37 2.124427 1_545
Li8 O26 2.124427 1_555
Li9 O36 2.563457 1_555
Li9 O28 2.563457 1_555
Li9 O35 2.563457 1_555
Li9 O27 2.563457 1_555
Li10 O33 2.001335 1_555
Li10 O43 2.057602 1_555
Li10 O46 2.058978 1_555
Li11 O47 2.001335 1_555
Li11 O56 2.057602 1_555
Li11 O42 2.058978 1_555
Li12 O48 2.001335 1_555
Li12 O39 2.057602 1_555
Li12 O53 2.058978 1_555
Li13 O62 2.001335 1_555
Li13 O52 2.057602 1_555
Li13 O49 2.058978 1_555
Fe0 O6 1.983961 1_555
Fe0 O3 2.015347 1_555
Fe0 O7 2.027110 1_555
Fe0 O8 2.032785 1_555
Fe0 O62 2.075921 1_455
Fe0 O17 2.129066 1_555
Fe1 O12 1.983961 1_555
Fe1 O4 2.015347 1_555
Fe1 O11 2.027110 1_555
Fe1 O22 2.032785 1_555
Fe1 O16 2.075921 1_565
Fe1 O10 2.129066 1_555
Fe2 O19 1.983961 1_555
Fe2 O27 2.015347 1_555
Fe2 O20 2.027110 1_554
Fe2 O9 2.032785 1_555
Fe2 O15 2.075921 1_555
Fe2 O21 2.129066 1_555
Fe3 O25 1.983961 1_555
Fe3 O28 2.015347 1_555
Fe3 O24 2.027110 1_556
Fe3 O23 2.032785 1_555
Fe3 O33 2.075921 1_555
Fe3 O14 2.129066 1_555
Fe4 O38 1.983961 1_555
Fe4 O35 2.015347 1_555
Fe4 O39 2.027110 1_556
Fe4 O40 2.032785 1_555
Fe4 O30 2.075921 1_555
Fe4 O49 2.129066 1_555
Fe5 O44 1.983961 1_555
Fe5 O36 2.015347 1_555
Fe5 O43 2.027110 1_554
Fe5 O54 2.032785 1_555
Fe5 O48 2.075921 1_555
Fe5 O42 2.129066 1_555
Fe6 O51 1.983961 1_555
Fe6 O59 2.015347 1_555
Fe6 O52 2.027110 1_555
Fe6 O41 2.032785 1_555
Fe6 O47 2.075921 1_545
Fe6 O53 2.129066 1_555
Fe7 O57 1.983961 1_555
Fe7 O60 2.015347 1_555
Fe7 O56 2.027110 1_555
Fe7 O55 2.032785 1_555
Fe7 O1 2.075921 1_655
Fe7 O46 2.129066 1_555
O0 P16 1.619019 1_455
O0 P1 1.637122 1_555
O1 P1 1.541026 1_555
O2 P1 1.512710 1_555
O3 P0 1.556386 1_555
O4 P0 1.556386 1_565
O5 P3 1.512710 1_555
O6 P2 1.525324 1_556
O7 P2 1.539218 1_555
O8 P5 1.519228 1_555
O9 P2 1.519228 1_555
O10 P1 1.544796 1_555
O11 P4 1.539218 1_555
O12 P4 1.525324 1_554
O13 P5 1.619019 1_555
O13 P3 1.637122 1_555
O14 P3 1.544796 1_555
O15 P3 1.541026 1_554
O16 P6 1.541026 1_555
O17 P6 1.544796 1_555
O18 P4 1.619019 1_545
O18 P6 1.637122 1_555
O19 P5 1.525324 1_555
O20 P5 1.539218 1_555
O21 P8 1.544796 1_555
O22 P7 1.519228 1_555
O23 P4 1.519228 1_555
O24 P7 1.539218 1_555
O25 P7 1.525324 1_555
O26 P6 1.512710 1_555
O27 P9 1.556386 1_555
O28 P9 1.556386 1_556
O29 P8 1.512710 1_555
O30 P8 1.541026 1_556
O31 P11 1.619019 1_555
O31 P8 1.637122 1_555
O32 P7 1.619019 1_555
O32 P10 1.637122 1_555
O33 P10 1.541026 1_556
O34 P10 1.512710 1_555
O35 P9 1.556386 1_556
O36 P9 1.556386 1_555
O37 P12 1.512710 1_555
O38 P11 1.525324 1_555
O39 P11 1.539218 1_555
O40 P14 1.519228 1_555
O41 P11 1.519228 1_555
O42 P10 1.544796 1_555
O43 P13 1.539218 1_555
O44 P13 1.525324 1_555
O45 P14 1.619019 1_565
O45 P12 1.637122 1_555
O46 P12 1.544796 1_555
O47 P12 1.541026 1_555
O48 P15 1.541026 1_554
O49 P15 1.544796 1_555
O50 P13 1.619019 1_555
O50 P15 1.637122 1_555
O51 P14 1.525324 1_554
O52 P14 1.539218 1_555
O53 P17 1.544796 1_555
O54 P16 1.519228 1_555
O55 P13 1.519228 1_555
O56 P16 1.539218 1_555
O57 P16 1.525324 1_556
O58 P15 1.512710 1_555
O59 P0 1.556386 1_655
O60 P0 1.556386 1_665
O61 P17 1.512710 1_555
O62 P17 1.541026 1_555
O63 P2 1.619019 1_655
O63 P17 1.637122 1_555
