# generated using pymatgen
data_Cs3Te22
_symmetry_space_group_name_H-M   'P 1'
_cell_length_a   9.69847991
_cell_length_b   9.79686312
_cell_length_c   12.53515781
_cell_angle_alpha   112.82195468
_cell_angle_beta   112.61610807
_cell_angle_gamma   90.25796804
_symmetry_Int_Tables_number   1
_chemical_formula_structural   Cs3Te22
_chemical_formula_sum   'Cs3 Te22'
_cell_volume   996.70420258
_cell_formula_units_Z   1
loop_
 _symmetry_equiv_pos_site_id
 _symmetry_equiv_pos_as_xyz
  1  'x, y, z'
loop_
 _atom_site_type_symbol
 _atom_site_label
 _atom_site_symmetry_multiplicity
 _atom_site_fract_x
 _atom_site_fract_y
 _atom_site_fract_z
 _atom_site_occupancy
  Cs  Cs0  1  0.17240223  0.17088759  0.35103061  1
  Cs  Cs1  1  0.82043879  0.82020139  0.64957761  1
  Cs  Cs2  1  0.49670445  0.50020355  0.00016927  1
  Te  Te0  1  0.88600522  0.79390578  0.00091520  1
  Te  Te1  1  0.09868026  0.51975099  0.76281239  1
  Te  Te2  1  0.24914106  0.09782966  0.76284742  1
  Te  Te3  1  0.01535361  0.20854738  0.62195695  1
  Te  Te4  1  0.33507002  0.75469050  0.23697714  1
  Te  Te5  1  -0.01638531  0.79746603  0.37849625  1
  Te  Te6  1  0.67713243  0.26199639  0.77647444  1
  Te  Te7  1  0.48813837  0.33401161  0.23787321  1
  Te  Te8  1  0.82196052  0.11647920  0.00178826  1
  Te  Te9  1  0.52061273  0.67079848  0.77196356  1
  Te  Te10  1  0.74725438  0.89885311  0.22885474  1
  Te  Te11  1  0.90214353  0.48724436  0.22499380  1
  Te  Te12  1  0.42359972  0.02297690  0.62474272  1
  Te  Te13  1  0.58847678  -0.01094612  0.38407306  1
  Te  Te14  1  0.20743044  0.60582033  0.61574988  1
  Te  Te15  1  0.19895616  0.88917420  -0.00049120  1
  Te  Te16  1  0.60679893  0.41884545  0.62284796  1
  Te  Te17  1  -0.00633109  0.52640578  -0.00078856  1
  Te  Te18  1  0.80018540  0.39925532  0.37645515  1
  Te  Te19  1  0.10089217  0.16285133  0.00011323  1
  Te  Te20  1  0.47678655  -0.01350458  -0.00116056  1
  Te  Te21  1  0.39459165  0.58473538  0.37877847  1
loop_
_geom_bond_atom_site_label_1
_geom_bond_atom_site_label_2
_geom_bond_distance
_geom_bond_site_symmetry_2
Cs0 Te3 4.123232 1_555
Cs0 Te19 4.149841 1_555
Cs0 Te12 4.155321 1_555
Cs0 Te14 4.175414 1_555
Cs0 Te16 4.207909 1_555
Cs0 Te8 4.210782 1_455
Cs0 Te5 4.272714 1_545
Cs0 Te10 4.281088 1_445
Cs0 Te4 4.292885 1_545
Cs0 Te18 4.306174 1_455
Cs0 Te15 4.306377 1_545
Cs0 Te0 4.309823 1_445
Cs0 Te13 4.356620 1_555
Cs0 Te7 4.358644 1_555
Cs0 Te21 4.410636 1_555
Cs0 Te11 4.433799 1_455
Cs1 Te21 4.118107 1_555
Cs1 Te19 4.154244 1_666
Cs1 Te18 4.158094 1_555
Cs1 Te13 4.173710 1_565
Cs1 Te5 4.201529 1_655
Cs1 Te8 4.233918 1_566
Cs1 Te9 4.252778 1_555
Cs1 Te16 4.270470 1_555
Cs1 Te1 4.281051 1_655
Cs1 Te15 4.297392 1_656
Cs1 Te12 4.299209 1_565
Cs1 Te0 4.312106 1_556
Cs1 Te2 4.366092 1_665
Cs1 Te14 4.391106 1_655
Cs1 Te6 4.428210 1_565
Cs1 Te3 4.430422 1_665
Cs2 Te6 3.886540 1_554
Cs2 Te11 3.896057 1_555
Cs2 Te9 3.904533 1_554
Cs2 Te10 3.904801 1_555
Cs2 Te4 3.918914 1_555
Cs2 Te1 3.925002 1_554
Cs2 Te2 3.934241 1_554
Cs2 Te7 3.935570 1_555
Te0 Te17 2.820814 1_655
Te0 Te15 3.179930 1_655
Te0 Te8 3.220080 1_565
Te0 Te9 3.421059 1_554
Te0 Te10 3.423829 1_555
Te1 Te3 2.787539 1_555
Te1 Te14 2.813349 1_555
Te1 Te17 3.463310 1_556
Te1 Te15 3.502366 1_556
Te2 Te3 2.804460 1_555
Te10 Te5 2.814014 1_655
Te10 Te13 2.814381 1_565
Te10 Te20 3.472047 1_565
Te11 Te5 2.799299 1_655
Te11 Te18 2.833966 1_555
Te11 Te17 3.422970 1_655
Te12 Te2 2.770681 1_555
Te12 Te6 2.836052 1_555
Te13 Te4 2.809169 1_545
Te14 Te9 2.811860 1_555
Te15 Te19 2.847113 1_565
Te15 Te20 2.858337 1_565
Te15 Te4 3.517815 1_555
Te16 Te6 2.798146 1_555
Te16 Te9 2.815393 1_555
Te17 Te6 3.414030 1_454
Te17 Te4 3.467074 1_555
Te18 Te7 2.768220 1_555
Te19 Te8 2.750459 1_455
Te20 Te9 3.457244 1_544
Te21 Te4 2.789338 1_555
Te21 Te7 2.804153 1_555
