# generated using pymatgen
data_MgMn5O9F
_symmetry_space_group_name_H-M   'P 1'
_cell_length_a   5.34430305
_cell_length_b   5.21463183
_cell_length_c   7.92102187
_cell_angle_alpha   108.73779773
_cell_angle_beta   75.50031999
_cell_angle_gamma   79.19745277
_symmetry_Int_Tables_number   1
_chemical_formula_structural   MgMn5O9F
_chemical_formula_sum   'Mg1 Mn5 O9 F1'
_cell_volume   193.55945140
_cell_formula_units_Z   1
loop_
 _symmetry_equiv_pos_site_id
 _symmetry_equiv_pos_as_xyz
  1  'x, y, z'
loop_
 _atom_site_type_symbol
 _atom_site_label
 _atom_site_symmetry_multiplicity
 _atom_site_fract_x
 _atom_site_fract_y
 _atom_site_fract_z
 _atom_site_occupancy
  Mg  Mg0  1  0.50573400  0.22631500  0.91562200  1
  Mn  Mn0  1  0.98753100  0.19401700  0.39825100  1
  Mn  Mn1  1  0.99989800  0.99932700  0.00515500  1
  Mn  Mn2  1  0.96644900  0.60442100  0.20815100  1
  Mn  Mn3  1  0.00369100  0.78763000  0.58835400  1
  Mn  Mn4  1  0.00202800  0.40794200  0.79456700  1
  O  O0  1  0.19046300  0.20951500  0.15203900  1
  O  O1  1  0.17795300  0.79237000  0.34400400  1
  O  O2  1  0.18244300  0.40355000  0.54647000  1
  O  O3  1  0.19759100  0.58994100  0.96193500  1
  O  O4  1  0.79328400  0.38130000  0.02818200  1
  O  O5  1  0.78618900  0.98443000  0.26313800  1
  O  O6  1  0.78082600  0.55861100  0.42837600  1
  O  O7  1  0.81056700  0.18556700  0.65193800  1
  O  O8  1  0.80443300  0.84642800  0.84640300  1
  F  F0  1  0.29556000  0.01637000  0.76414200  1
loop_
_geom_bond_atom_site_label_1
_geom_bond_atom_site_label_2
_geom_bond_distance
_geom_bond_site_symmetry_2
Mg0 O8 2.109899 1_545
Mg0 O4 2.120950 1_556
Mg0 O3 2.126522 1_555
Mg0 O0 2.221303 1_556
Mg0 O7 2.223253 1_555
Mn0 O6 1.918641 1_555
Mn0 O5 1.940032 1_545
Mn0 O2 1.967787 1_655
Mn0 O1 2.002705 1_645
Mn0 O7 2.013747 1_555
Mn0 O0 2.015240 1_655
Mn1 O8 1.906316 1_554
Mn1 O0 1.945428 1_665
Mn1 O4 2.015263 1_565
Mn1 O3 2.072362 1_654
Mn1 O5 2.110182 1_555
Mn2 O5 1.887941 1_555
Mn2 O6 1.890541 1_555
Mn2 O1 1.934678 1_655
Mn2 O3 1.999821 1_654
Mn2 O0 2.023082 1_655
Mn2 O4 2.059357 1_555
Mn3 O2 1.931634 1_555
Mn3 O1 1.936712 1_555
Mn3 O8 1.947048 1_455
Mn3 O7 1.972396 1_465
Mn3 O6 2.183417 1_455
Mn4 O2 1.950926 1_555
Mn4 O7 1.962140 1_455
Mn4 O4 1.969167 1_456
Mn4 O3 2.001969 1_555
Mn4 O8 2.187830 1_455
F0 Mg0 2.047385 1_555
F0 Mn1 2.190959 1_446
F0 Mn4 2.232076 1_555
F0 Mn3 2.551989 1_545
