# generated using pymatgen
data_GaMo3
_symmetry_space_group_name_H-M   'P 1'
_cell_length_a   4.94529480
_cell_length_b   4.94529480
_cell_length_c   4.94529480
_cell_angle_alpha   90.00000000
_cell_angle_beta   90.00000000
_cell_angle_gamma   90.00000000
_symmetry_Int_Tables_number   1
_chemical_formula_structural   GaMo3
_chemical_formula_sum   'Ga2 Mo6'
_cell_volume   120.94183617
_cell_formula_units_Z   2
loop_
 _symmetry_equiv_pos_site_id
 _symmetry_equiv_pos_as_xyz
  1  'x, y, z'
loop_
 _atom_site_type_symbol
 _atom_site_label
 _atom_site_symmetry_multiplicity
 _atom_site_fract_x
 _atom_site_fract_y
 _atom_site_fract_z
 _atom_site_occupancy
  Ga  Ga0  1  -0.00000000  -0.00000000  -0.00000000  1
  Ga  Ga1  1  0.50000000  0.50000000  0.50000000  1
  Mo  Mo0  1  0.25000000  -0.00000000  0.50000000  1
  Mo  Mo1  1  0.75000000  -0.00000000  0.50000000  1
  Mo  Mo2  1  -0.00000000  0.50000000  0.25000000  1
  Mo  Mo3  1  -0.00000000  0.50000000  0.75000000  1
  Mo  Mo4  1  0.50000000  0.75000000  -0.00000000  1
  Mo  Mo5  1  0.50000000  0.25000000  -0.00000000  1
loop_
_geom_bond_atom_site_label_1
_geom_bond_atom_site_label_2
_geom_bond_distance
_geom_bond_site_symmetry_2
Ga0 Mo4 2.764504 1_545
Ga0 Mo3 2.764504 1_544
Ga0 Mo2 2.764504 1_545
Ga0 Mo2 2.764504 1_555
Ga0 Mo3 2.764504 1_554
Ga0 Mo0 2.764504 1_554
Ga0 Mo5 2.764504 1_555
Ga0 Mo1 2.764504 1_455
Ga0 Mo5 2.764504 1_455
Ga0 Mo1 2.764504 1_454
Ga0 Mo0 2.764504 1_555
Ga0 Mo4 2.764504 1_445
Ga1 Mo2 2.764504 1_655
Ga1 Mo4 2.764504 1_555
Ga1 Mo5 2.764504 1_556
Ga1 Mo1 2.764504 1_555
Ga1 Mo4 2.764504 1_556
Ga1 Mo3 2.764504 1_655
Ga1 Mo2 2.764504 1_555
Ga1 Mo5 2.764504 1_555
Ga1 Mo0 2.764504 1_565
Ga1 Mo1 2.764504 1_565
Ga1 Mo3 2.764504 1_555
Ga1 Mo0 2.764504 1_555
Mo0 Mo1 2.472647 1_555
Mo0 Mo1 2.472647 1_455
Mo0 Mo3 3.028362 1_555
Mo0 Mo4 3.028362 1_545
Mo0 Mo5 3.028362 1_556
Mo0 Mo2 3.028362 1_545
Mo0 Mo2 3.028362 1_555
Mo0 Mo3 3.028362 1_545
Mo0 Mo4 3.028362 1_546
Mo0 Mo5 3.028362 1_555
Mo1 Mo3 3.028362 1_655
Mo1 Mo2 3.028362 1_645
Mo1 Mo4 3.028362 1_545
Mo1 Mo2 3.028362 1_655
Mo1 Mo5 3.028362 1_556
Mo1 Mo4 3.028362 1_546
Mo1 Mo3 3.028362 1_645
Mo1 Mo5 3.028362 1_555
Mo2 Mo3 2.472647 1_555
Mo2 Mo3 2.472647 1_554
Mo2 Mo5 3.028362 1_455
Mo2 Mo4 3.028362 1_555
Mo2 Mo4 3.028362 1_455
Mo2 Mo5 3.028362 1_555
Mo3 Mo5 3.028362 1_556
Mo3 Mo4 3.028362 1_556
Mo3 Mo4 3.028362 1_456
Mo3 Mo5 3.028362 1_456
Mo4 Mo5 2.472647 1_565
Mo4 Mo5 2.472647 1_555
