# generated using pymatgen
data_Ba5V3ClO12
_symmetry_space_group_name_H-M   'P 1'
_cell_length_a   10.74369406
_cell_length_b   10.74369406
_cell_length_c   7.88327200
_cell_angle_alpha   90.00000000
_cell_angle_beta   90.00000000
_cell_angle_gamma   120.00000035
_symmetry_Int_Tables_number   1
_chemical_formula_structural   Ba5V3ClO12
_chemical_formula_sum   'Ba10 V6 Cl2 O24'
_cell_volume   788.03300424
_cell_formula_units_Z   2
loop_
 _symmetry_equiv_pos_site_id
 _symmetry_equiv_pos_as_xyz
  1  'x, y, z'
loop_
 _atom_site_type_symbol
 _atom_site_label
 _atom_site_symmetry_multiplicity
 _atom_site_fract_x
 _atom_site_fract_y
 _atom_site_fract_z
 _atom_site_occupancy
  Ba  Ba0  1  0.66666700  0.33333300  0.49970000  1
  Ba  Ba1  1  0.33333300  0.66666700  0.99970000  1
  Ba  Ba2  1  0.33333300  0.66666700  0.50030000  1
  Ba  Ba3  1  0.66666700  0.33333300  0.00030000  1
  Ba  Ba4  1  0.99108200  0.24653800  0.75000000  1
  Ba  Ba5  1  0.75346200  0.74454400  0.75000000  1
  Ba  Ba6  1  0.25545600  0.00891800  0.75000000  1
  Ba  Ba7  1  0.00891800  0.75346200  0.25000000  1
  Ba  Ba8  1  0.24653800  0.25545600  0.25000000  1
  Ba  Ba9  1  0.74454400  0.99108200  0.25000000  1
  V  V0  1  0.37217500  0.40441100  0.75000000  1
  V  V1  1  0.59558900  0.96776400  0.75000000  1
  V  V2  1  0.03223600  0.62782500  0.75000000  1
  V  V3  1  0.62782500  0.59558900  0.25000000  1
  V  V4  1  0.40441100  0.03223600  0.25000000  1
  V  V5  1  0.96776400  0.37217500  0.25000000  1
  Cl  Cl0  1  0.00000000  0.00000000  0.50000000  1
  Cl  Cl1  1  0.00000000  0.00000000  0.00000000  1
  O  O0  1  0.48332300  0.32858300  0.75000000  1
  O  O1  1  0.67141700  0.15474100  0.75000000  1
  O  O2  1  0.84525900  0.51667700  0.75000000  1
  O  O3  1  0.51667700  0.67141700  0.25000000  1
  O  O4  1  0.32858300  0.84525900  0.25000000  1
  O  O5  1  0.15474100  0.48332300  0.25000000  1
  O  O6  1  0.46980500  0.59306300  0.75000000  1
  O  O7  1  0.40693700  0.87674200  0.75000000  1
  O  O8  1  0.12325800  0.53019500  0.75000000  1
  O  O9  1  0.53019500  0.40693700  0.25000000  1
  O  O10  1  0.59306300  0.12325800  0.25000000  1
  O  O11  1  0.87674200  0.46980500  0.25000000  1
  O  O12  1  0.25960700  0.35213200  0.57392000  1
  O  O13  1  0.64786800  0.90747500  0.57392000  1
  O  O14  1  0.09252500  0.74039300  0.57392000  1
  O  O15  1  0.74039300  0.64786800  0.07392000  1
  O  O16  1  0.35213200  0.09252500  0.07392000  1
  O  O17  1  0.90747500  0.25960700  0.07392000  1
  O  O18  1  0.74039300  0.64786800  0.42608000  1
  O  O19  1  0.35213200  0.09252500  0.42608000  1
  O  O20  1  0.90747500  0.25960700  0.42608000  1
  O  O21  1  0.25960700  0.35213200  0.92608000  1
  O  O22  1  0.64786800  0.90747500  0.92608000  1
  O  O23  1  0.09252500  0.74039300  0.92608000  1
loop_
_geom_bond_atom_site_label_1
_geom_bond_atom_site_label_2
_geom_bond_distance
_geom_bond_site_symmetry_2
Ba0 O1 2.770474 1_555
Ba0 O2 2.770482 1_555
Ba0 O0 2.770489 1_555
Ba0 O10 2.794518 1_555
Ba0 O11 2.794519 1_555
Ba0 O9 2.794525 1_555
Ba0 O20 3.115595 1_555
Ba0 O19 3.115603 1_555
Ba0 O18 3.115606 1_555
Ba1 O4 2.770474 1_556
Ba1 O5 2.770482 1_556
Ba1 O3 2.770489 1_556
Ba1 O7 2.794518 1_555
Ba1 O8 2.794519 1_555
Ba1 O6 2.794525 1_555
Ba1 O23 3.115595 1_555
Ba1 O22 3.115603 1_555
Ba1 O21 3.115606 1_555
Ba2 O4 2.770474 1_555
Ba2 O5 2.770482 1_555
Ba2 O3 2.770489 1_555
Ba2 O7 2.794518 1_555
Ba2 O8 2.794519 1_555
Ba2 O6 2.794525 1_555
Ba2 O14 3.115595 1_555
Ba2 O13 3.115603 1_555
Ba2 O12 3.115606 1_555
Ba3 O1 2.770474 1_554
Ba3 O2 2.770482 1_554
Ba3 O0 2.770489 1_554
Ba3 O10 2.794518 1_555
Ba3 O11 2.794519 1_555
Ba3 O9 2.794525 1_555
Ba3 O17 3.115595 1_555
Ba3 O16 3.115603 1_555
Ba3 O15 3.115606 1_555
Ba4 O8 2.641270 1_655
Ba4 O20 2.733734 1_555
Ba4 O17 2.733734 1_556
Ba4 O12 2.874692 1_655
Ba4 O21 2.874692 1_655
Ba4 O1 3.062765 1_555
Ba4 Cl1 3.341085 1_656
Ba4 Cl0 3.341085 1_655
Ba5 O6 2.641270 1_555
Ba5 O18 2.733734 1_555
Ba5 O15 2.733734 1_556
Ba5 O13 2.874692 1_555
Ba5 O22 2.874692 1_555
Ba5 O2 3.062755 1_555
Ba5 Cl1 3.341085 1_666
Ba5 Cl0 3.341085 1_665
Ba6 O7 2.641270 1_545
Ba6 O19 2.733734 1_555
Ba6 O16 2.733734 1_556
Ba6 O23 2.874692 1_545
Ba6 O14 2.874692 1_545
Ba6 O0 3.062763 1_555
Ba6 Cl0 3.341085 1_555
Ba6 Cl1 3.341085 1_556
Ba7 O11 2.641270 1_455
Ba7 O23 2.733734 1_554
Ba7 O14 2.733734 1_555
Ba7 O15 2.874692 1_455
Ba7 O18 2.874692 1_455
Ba7 O4 3.062765 1_555
Ba7 Cl0 3.341085 1_565
Ba7 Cl1 3.341085 1_565
Ba8 O9 2.641270 1_555
Ba8 O21 2.733734 1_554
Ba8 O12 2.733734 1_555
Ba8 O16 2.874692 1_555
Ba8 O19 2.874692 1_555
Ba8 O5 3.062755 1_555
Ba8 Cl1 3.341085 1_555
Ba8 Cl0 3.341085 1_555
Ba9 O10 2.641270 1_565
Ba9 O22 2.733734 1_554
Ba9 O13 2.733734 1_555
Ba9 O17 2.874692 1_565
Ba9 O20 2.874692 1_565
Ba9 O3 3.062763 1_555
Ba9 Cl0 3.341085 1_665
Ba9 Cl1 3.341085 1_665
O0 V0 1.749999 1_555
O1 V1 1.750009 1_545
O2 V2 1.750007 1_655
O3 V3 1.749999 1_555
O4 V4 1.750009 1_565
O5 V5 1.750007 1_455
O6 V0 1.755636 1_555
O7 V1 1.755636 1_555
O8 V2 1.755636 1_555
O9 V3 1.755636 1_555
O10 V4 1.755636 1_555
O11 V5 1.755636 1_555
O12 V0 1.739429 1_555
O13 V1 1.739429 1_555
O14 V2 1.739429 1_555
O15 V3 1.739429 1_555
O16 V4 1.739429 1_555
O17 V5 1.739429 1_555
O18 V3 1.739429 1_555
O19 V4 1.739429 1_555
O20 V5 1.739429 1_555
O21 V0 1.739429 1_555
O22 V1 1.739429 1_555
O23 V2 1.739429 1_555
