# generated using pymatgen
data_PbSO3
_symmetry_space_group_name_H-M   'P 1'
_cell_length_a   5.40746200
_cell_length_b   4.56563900
_cell_length_c   6.50796170
_cell_angle_alpha   73.44685591
_cell_angle_beta   90.00000000
_cell_angle_gamma   90.00000000
_symmetry_Int_Tables_number   1
_chemical_formula_structural   PbSO3
_chemical_formula_sum   'Pb2 S2 O6'
_cell_volume   154.01303269
_cell_formula_units_Z   2
loop_
 _symmetry_equiv_pos_site_id
 _symmetry_equiv_pos_as_xyz
  1  'x, y, z'
loop_
 _atom_site_type_symbol
 _atom_site_label
 _atom_site_symmetry_multiplicity
 _atom_site_fract_x
 _atom_site_fract_y
 _atom_site_fract_z
 _atom_site_occupancy
  Pb  Pb0  1  0.25000000  0.64311300  0.71873000  1
  Pb  Pb1  1  0.75000000  0.35688700  0.28127000  1
  S  S0  1  0.75000000  0.08668200  0.82424600  1
  S  S1  1  0.25000000  0.91331800  0.17575400  1
  O  O0  1  0.02496600  0.80202300  0.32711300  1
  O  O1  1  0.52496600  0.19797700  0.67288700  1
  O  O2  1  0.97503400  0.19797700  0.67288700  1
  O  O3  1  0.47503400  0.80202300  0.32711300  1
  O  O4  1  0.25000000  0.26337200  0.13345600  1
  O  O5  1  0.75000000  0.73662800  0.86654400  1
loop_
_geom_bond_atom_site_label_1
_geom_bond_atom_site_label_2
_geom_bond_distance
_geom_bond_site_symmetry_2
O0 S1 1.556936 1_555
O0 Pb1 2.603007 1_455
O0 Pb0 2.729289 1_555
O1 S0 1.556936 1_555
O1 Pb0 2.603007 1_555
O1 Pb1 2.729289 1_555
O2 S0 1.556936 1_555
O2 Pb0 2.603007 1_655
O2 Pb1 2.729289 1_555
O3 S1 1.556936 1_555
O3 Pb1 2.603007 1_555
O3 Pb0 2.729289 1_555
O4 S1 1.542529 1_545
O4 Pb0 2.761203 1_554
O5 S0 1.542529 1_565
O5 Pb1 2.761203 1_556
