# generated using pymatgen
data_Ti6CCl14
_symmetry_space_group_name_H-M   'P 1'
_cell_length_a   9.14264582
_cell_length_b   9.14264582
_cell_length_c   11.02880440
_cell_angle_alpha   90.00000000
_cell_angle_beta   90.00000000
_cell_angle_gamma   95.12695249
_symmetry_Int_Tables_number   1
_chemical_formula_structural   Ti6CCl14
_chemical_formula_sum   'Ti12 C2 Cl28'
_cell_volume   918.18710378
_cell_formula_units_Z   2
loop_
 _symmetry_equiv_pos_site_id
 _symmetry_equiv_pos_as_xyz
  1  'x, y, z'
loop_
 _atom_site_type_symbol
 _atom_site_label
 _atom_site_symmetry_multiplicity
 _atom_site_fract_x
 _atom_site_fract_y
 _atom_site_fract_z
 _atom_site_occupancy
  Ti  Ti0  1  0.64088051  0.64088051  0.10039532  1
  Ti  Ti1  1  0.85911949  0.85911949  0.60039532  1
  Ti  Ti2  1  0.14088051  0.14088051  0.39960468  1
  Ti  Ti3  1  0.35911949  0.35911949  0.89960468  1
  Ti  Ti4  1  0.45212839  0.67942494  0.88367222  1
  Ti  Ti5  1  0.04787161  0.82057506  0.38367222  1
  Ti  Ti6  1  0.17942494  0.95212839  0.61632778  1
  Ti  Ti7  1  0.32057506  0.54787161  0.11632778  1
  Ti  Ti8  1  0.54787161  0.32057506  0.11632778  1
  Ti  Ti9  1  0.95212839  0.17942494  0.61632778  1
  Ti  Ti10  1  0.82057506  0.04787161  0.38367222  1
  Ti  Ti11  1  0.67942494  0.45212839  0.88367222  1
  C  C0  1  0.50000000  0.50000000  -0.00000000  1
  C  C1  1  -0.00000000  0.00000000  0.50000000  1
  Cl  Cl0  1  0.60461182  0.10461182  0.25000000  1
  Cl  Cl1  1  0.89538818  0.39538818  0.75000000  1
  Cl  Cl2  1  0.39538818  0.89538818  0.75000000  1
  Cl  Cl3  1  0.10461182  0.60461182  0.25000000  1
  Cl  Cl4  1  0.38727205  0.14259115  0.01142500  1
  Cl  Cl5  1  0.11272795  0.35740885  0.51142500  1
  Cl  Cl6  1  0.64259115  0.88727205  0.48857500  1
  Cl  Cl7  1  0.85740885  0.61272795  0.98857500  1
  Cl  Cl8  1  0.61272795  0.85740885  0.98857500  1
  Cl  Cl9  1  0.88727205  0.64259115  0.48857500  1
  Cl  Cl10  1  0.74776671  0.25223329  -0.00000000  1
  Cl  Cl11  1  0.75223329  0.24776671  0.50000000  1
  Cl  Cl12  1  0.25223329  0.74776671  -0.00000000  1
  Cl  Cl13  1  0.24776671  0.75223329  0.50000000  1
  Cl  Cl14  1  0.14923012  0.14923012  0.76137023  1
  Cl  Cl15  1  0.35076988  0.35076988  0.26137023  1
  Cl  Cl16  1  0.64923012  0.64923012  0.73862977  1
  Cl  Cl17  1  0.85076988  0.85076988  0.23862977  1
  Cl  Cl18  1  0.96803026  0.21174854  0.25662870  1
  Cl  Cl19  1  0.53196974  0.28825146  0.75662870  1
  Cl  Cl20  1  0.71174854  0.46803026  0.24337130  1
  Cl  Cl21  1  0.78825146  0.03196974  0.74337130  1
  Cl  Cl22  1  0.03196974  0.78825146  0.74337130  1
  Cl  Cl23  1  0.46803026  0.71174854  0.24337130  1
  Cl  Cl24  1  0.28825146  0.53196974  0.75662870  1
  Cl  Cl25  1  0.21174854  0.96803026  0.25662870  1
  Cl  Cl26  1  0.14259115  0.38727205  0.01142500  1
  Cl  Cl27  1  0.35740885  0.11272795  0.51142500  1
loop_
_geom_bond_atom_site_label_1
_geom_bond_atom_site_label_2
_geom_bond_distance
_geom_bond_site_symmetry_2
C0 Ti3 2.060939 1_554
C0 Ti0 2.060939 1_555
C0 Ti11 2.157968 1_554
C0 Ti8 2.157968 1_555
C0 Ti4 2.157968 1_554
C0 Ti7 2.157968 1_555
C1 Ti2 2.060939 1_555
C1 Ti1 2.060939 1_445
C1 Ti10 2.157968 1_455
C1 Ti5 2.157968 1_545
C1 Ti6 2.157968 1_545
C1 Ti9 2.157968 1_455
Cl0 Ti8 2.554236 1_555
Cl0 Ti10 2.554236 1_555
Cl1 Ti11 2.554236 1_555
Cl1 Ti9 2.554236 1_555
Cl2 Ti4 2.554236 1_555
Cl2 Ti6 2.554236 1_555
Cl3 Ti7 2.554236 1_555
Cl3 Ti5 2.554236 1_555
Cl4 Ti3 2.365838 1_554
Cl4 Ti8 2.390680 1_555
Cl5 Ti2 2.365838 1_555
Cl5 Ti9 2.390680 1_455
Cl6 Ti1 2.365838 1_555
Cl6 Ti10 2.390680 1_565
Cl7 Ti0 2.365838 1_556
Cl7 Ti11 2.390680 1_555
Cl8 Ti0 2.365838 1_556
Cl8 Ti4 2.390680 1_555
Cl9 Ti1 2.365838 1_555
Cl9 Ti5 2.390680 1_655
Cl10 Ti11 2.362305 1_554
Cl10 Ti8 2.362305 1_555
Cl11 Ti10 2.362305 1_555
Cl11 Ti9 2.362305 1_555
Cl12 Ti4 2.362305 1_554
Cl12 Ti7 2.362305 1_555
Cl13 Ti5 2.362305 1_555
Cl13 Ti6 2.362305 1_555
Cl14 Ti9 2.443624 1_455
Cl14 Ti6 2.443624 1_545
Cl14 Ti3 3.005137 1_555
Cl15 Ti8 2.443624 1_555
Cl15 Ti7 2.443624 1_555
Cl15 Ti2 3.005137 1_555
Cl16 Ti11 2.443624 1_555
Cl16 Ti4 2.443624 1_555
Cl16 Ti1 3.005137 1_555
Cl17 Ti5 2.443624 1_655
Cl17 Ti10 2.443624 1_565
Cl17 Ti0 3.005137 1_555
Cl18 Ti2 2.363609 1_655
Cl18 Ti10 2.380011 1_555
Cl19 Ti3 2.363609 1_555
Cl19 Ti11 2.380011 1_555
Cl20 Ti0 2.363609 1_555
Cl20 Ti8 2.380011 1_555
Cl21 Ti1 2.363609 1_545
Cl21 Ti9 2.380011 1_555
Cl22 Ti1 2.363609 1_455
Cl22 Ti6 2.380011 1_555
Cl23 Ti0 2.363609 1_555
Cl23 Ti7 2.380011 1_555
Cl24 Ti3 2.363609 1_555
Cl24 Ti4 2.380011 1_555
Cl25 Ti2 2.363609 1_565
Cl25 Ti5 2.380011 1_555
Cl26 Ti3 2.365838 1_554
Cl26 Ti7 2.390680 1_555
Cl27 Ti2 2.365838 1_555
Cl27 Ti6 2.390680 1_545
