# generated using pymatgen
data_BaS3
_symmetry_space_group_name_H-M   'P 1'
_cell_length_a   4.21601149
_cell_length_b   6.95195505
_cell_length_c   6.95195505
_cell_angle_alpha   90.00000000
_cell_angle_beta   90.00000000
_cell_angle_gamma   90.00000000
_symmetry_Int_Tables_number   1
_chemical_formula_structural   BaS3
_chemical_formula_sum   'Ba2 S6'
_cell_volume   203.75848204
_cell_formula_units_Z   2
loop_
 _symmetry_equiv_pos_site_id
 _symmetry_equiv_pos_as_xyz
  1  'x, y, z'
loop_
 _atom_site_type_symbol
 _atom_site_label
 _atom_site_symmetry_multiplicity
 _atom_site_fract_x
 _atom_site_fract_y
 _atom_site_fract_z
 _atom_site_occupancy
  Ba  Ba0  1  -0.00000000  0.50000000  0.50000000  1
  Ba  Ba1  1  -0.00000000  -0.00000000  0.00000000  1
  S  S0  1  0.47518716  0.82212087  0.32212087  1
  S  S1  1  0.52481284  0.32212087  0.17787913  1
  S  S2  1  0.21150960  -0.00000000  0.50000000  1
  S  S3  1  0.78849040  0.50000000  0.00000000  1
  S  S4  1  0.47518716  0.17787913  0.67787913  1
  S  S5  1  0.52481284  0.67787913  0.82212087  1
loop_
_geom_bond_atom_site_label_1
_geom_bond_atom_site_label_2
_geom_bond_distance
_geom_bond_site_symmetry_2
Ba0 S0 3.249241 1_555
Ba0 S4 3.249241 1_555
Ba0 S5 3.249241 1_455
Ba0 S1 3.249241 1_455
Ba0 S0 3.382255 1_455
Ba0 S4 3.382255 1_455
Ba0 S1 3.382255 1_555
Ba0 S5 3.382255 1_555
Ba0 S3 3.588537 1_455
Ba0 S2 3.588537 1_555
Ba0 S2 3.588537 1_565
Ba0 S3 3.588537 1_456
Ba1 S4 3.249241 1_554
Ba1 S0 3.249241 1_545
Ba1 S5 3.249241 1_444
Ba1 S1 3.249241 1_455
Ba1 S1 3.382255 1_555
Ba1 S5 3.382255 1_544
Ba1 S4 3.382255 1_454
Ba1 S0 3.382255 1_445
Ba1 S3 3.588537 1_455
Ba1 S2 3.588537 1_555
Ba1 S3 3.588537 1_445
Ba1 S2 3.588537 1_554
S0 S2 2.072246 1_565
S1 S3 2.072246 1_555
S2 S4 2.072246 1_555
S3 S5 2.072246 1_554
