# generated using pymatgen
data_Zr6Ni(SnH5)2
_symmetry_space_group_name_H-M   'P 1'
_cell_length_a   8.16474648
_cell_length_b   8.16474648
_cell_length_c   7.36734600
_cell_angle_alpha   90.00000000
_cell_angle_beta   90.00000000
_cell_angle_gamma   120.00000385
_symmetry_Int_Tables_number   1
_chemical_formula_structural   Zr6Ni(SnH5)2
_chemical_formula_sum   'Zr12 Ni2 Sn4 H20'
_cell_volume   425.33105101
_cell_formula_units_Z   2
loop_
 _symmetry_equiv_pos_site_id
 _symmetry_equiv_pos_as_xyz
  1  'x, y, z'
loop_
 _atom_site_type_symbol
 _atom_site_label
 _atom_site_symmetry_multiplicity
 _atom_site_fract_x
 _atom_site_fract_y
 _atom_site_fract_z
 _atom_site_occupancy
  Zr  Zr0  1  0.95252800  0.36815200  0.25000000  1
  Zr  Zr1  1  0.36815200  0.95252800  0.75000000  1
  Zr  Zr2  1  0.41562400  0.04747200  0.25000000  1
  Zr  Zr3  1  0.63184800  0.58437600  0.25000000  1
  Zr  Zr4  1  0.74144200  0.00000000  0.50000000  1
  Zr  Zr5  1  0.25855800  0.25855800  0.00000000  1
  Zr  Zr6  1  0.00000000  0.74144200  0.00000000  1
  Zr  Zr7  1  0.00000000  0.74144200  0.50000000  1
  Zr  Zr8  1  0.25855800  0.25855800  0.50000000  1
  Zr  Zr9  1  0.74144200  0.00000000  0.00000000  1
  Zr  Zr10  1  0.04747200  0.41562400  0.75000000  1
  Zr  Zr11  1  0.58437600  0.63184800  0.75000000  1
  Ni  Ni0  1  0.00000000  0.00000000  0.75000000  1
  Ni  Ni1  1  0.00000000  0.00000000  0.25000000  1
  Sn  Sn0  1  0.33333300  0.66666700  0.04043600  1
  Sn  Sn1  1  0.33333300  0.66666700  0.45956400  1
  Sn  Sn2  1  0.66666700  0.33333300  0.95956400  1
  Sn  Sn3  1  0.66666700  0.33333300  0.54043600  1
  H  H0  1  0.00000000  0.00000000  0.50000000  1
  H  H1  1  0.00000000  0.00000000  0.00000000  1
  H  H2  1  0.27327900  0.00000000  0.50000000  1
  H  H3  1  0.72672100  0.72672100  0.00000000  1
  H  H4  1  0.00000000  0.27327900  0.00000000  1
  H  H5  1  0.00000000  0.27327900  0.50000000  1
  H  H6  1  0.72672100  0.72672100  0.50000000  1
  H  H7  1  0.27327900  0.00000000  0.00000000  1
  H  H8  1  0.29711500  0.40148000  0.75000000  1
  H  H9  1  0.59852000  0.89563600  0.75000000  1
  H  H10  1  0.10436400  0.70288500  0.75000000  1
  H  H11  1  0.70288500  0.10436400  0.25000000  1
  H  H12  1  0.89563600  0.59852000  0.25000000  1
  H  H13  1  0.40148000  0.29711500  0.25000000  1
  H  H14  1  0.23925800  0.12155800  0.75000000  1
  H  H15  1  0.87844200  0.11770000  0.75000000  1
  H  H16  1  0.88230000  0.76074200  0.75000000  1
  H  H17  1  0.76074200  0.88230000  0.25000000  1
  H  H18  1  0.12155800  0.23925800  0.25000000  1
  H  H19  1  0.11770000  0.87844200  0.25000000  1
loop_
_geom_bond_atom_site_label_1
_geom_bond_atom_site_label_2
_geom_bond_distance
_geom_bond_site_symmetry_2
Sn0 Zr1 3.072990 1_554
Sn0 Zr10 3.072992 1_554
Sn0 Zr11 3.072996 1_554
Sn0 Zr6 3.087078 1_555
Sn0 Zr9 3.087083 1_565
Sn0 Zr5 3.087086 1_555
Sn0 Sn1 3.087861 1_555
Sn0 Zr2 3.226936 1_565
Sn0 Zr0 3.226939 1_455
Sn0 Zr3 3.226943 1_555
Sn1 Zr1 3.072990 1_555
Sn1 Zr10 3.072992 1_555
Sn1 Zr11 3.072996 1_555
Sn1 Zr7 3.087078 1_555
Sn1 Zr4 3.087083 1_565
Sn1 Zr8 3.087086 1_555
Sn1 Zr2 3.226936 1_565
Sn1 Zr0 3.226939 1_455
Sn1 Zr3 3.226943 1_555
Sn2 Zr0 3.072990 1_556
Sn2 Zr2 3.072992 1_556
Sn2 Zr3 3.072996 1_556
Sn2 Zr9 3.087078 1_556
Sn2 Zr6 3.087083 1_656
Sn2 Zr5 3.087086 1_556
Sn2 Sn3 3.087861 1_555
Sn2 Zr10 3.226936 1_655
Sn2 Zr1 3.226939 1_545
Sn2 Zr11 3.226943 1_555
Sn3 Zr0 3.072990 1_555
Sn3 Zr2 3.072992 1_555
Sn3 Zr3 3.072996 1_555
Sn3 Zr4 3.087078 1_555
Sn3 Zr7 3.087083 1_655
Sn3 Zr8 3.087086 1_555
Sn3 Zr10 3.226936 1_655
Sn3 Zr1 3.226939 1_545
Sn3 Zr11 3.226943 1_555
H0 Ni1 1.841837 1_555
H0 Ni0 1.841837 1_555
H0 Zr8 2.111060 1_555
H0 Zr7 2.111061 1_545
H0 Zr4 2.111061 1_455
H1 Ni0 1.841837 1_554
H1 Ni1 1.841837 1_555
H1 Zr5 2.111060 1_555
H1 Zr6 2.111061 1_545
H1 Zr9 2.111061 1_455
H2 Zr2 2.107809 1_555
H2 Zr1 2.107809 1_545
H2 Zr7 2.173651 1_545
H2 Zr8 2.173651 1_555
H3 Zr3 2.107809 1_555
H3 Zr11 2.107809 1_554
H3 Zr6 2.173651 1_655
H3 Zr9 2.173651 1_565
H4 Zr10 2.107809 1_554
H4 Zr0 2.107809 1_455
H4 Zr9 2.173651 1_455
H4 Zr5 2.173651 1_555
H5 Zr10 2.107809 1_555
H5 Zr0 2.107809 1_455
H5 Zr4 2.173651 1_455
H5 Zr8 2.173651 1_555
H6 Zr3 2.107809 1_555
H6 Zr11 2.107809 1_555
H6 Zr7 2.173651 1_655
H6 Zr4 2.173651 1_565
H7 Zr2 2.107809 1_555
H7 Zr1 2.107809 1_544
H7 Zr6 2.173651 1_545
H7 Zr5 2.173651 1_555
H8 Zr10 2.098398 1_555
H8 Zr5 2.117975 1_556
H8 Zr8 2.117975 1_555
H8 Zr11 2.151105 1_555
H9 Zr11 2.098406 1_555
H9 Zr9 2.117973 1_566
H9 Zr4 2.117973 1_565
H9 Zr1 2.151100 1_555
H10 Zr1 2.098402 1_555
H10 Zr7 2.117971 1_555
H10 Zr6 2.117971 1_556
H10 Zr10 2.151108 1_555
H11 Zr0 2.098402 1_555
H11 Zr9 2.117971 1_555
H11 Zr4 2.117971 1_555
H11 Zr2 2.151108 1_555
H12 Zr3 2.098406 1_555
H12 Zr6 2.117973 1_655
H12 Zr7 2.117973 1_655
H12 Zr0 2.151100 1_555
H13 Zr2 2.098398 1_555
H13 Zr5 2.117975 1_555
H13 Zr8 2.117975 1_555
H13 Zr3 2.151105 1_555
H14 Ni0 1.691837 1_555
H14 Zr1 2.112947 1_545
H14 Zr5 2.119464 1_556
H14 Zr8 2.119464 1_555
H15 Ni0 1.691837 1_655
H15 Zr10 2.112947 1_655
H15 Zr9 2.119464 1_556
H15 Zr4 2.119464 1_555
H16 Ni0 1.691837 1_665
H16 Zr11 2.112947 1_555
H16 Zr6 2.119464 1_656
H16 Zr7 2.119464 1_655
H17 Ni1 1.691837 1_665
H17 Zr3 2.112947 1_555
H17 Zr9 2.119464 1_565
H17 Zr4 2.119464 1_565
H18 Ni1 1.691837 1_555
H18 Zr0 2.112947 1_455
H18 Zr5 2.119464 1_555
H18 Zr8 2.119464 1_555
H19 Ni1 1.691837 1_565
H19 Zr2 2.112947 1_565
H19 Zr6 2.119464 1_555
H19 Zr7 2.119464 1_555
