# generated using pymatgen
data_RbSrCl3
_symmetry_space_group_name_H-M   'P 1'
_cell_length_a   8.01279019
_cell_length_b   7.59527107
_cell_length_c   11.03797225
_cell_angle_alpha   90.00000000
_cell_angle_beta   90.00000000
_cell_angle_gamma   89.92422272
_symmetry_Int_Tables_number   1
_chemical_formula_structural   RbSrCl3
_chemical_formula_sum   'Rb4 Sr4 Cl12'
_cell_volume   671.76282633
_cell_formula_units_Z   4
loop_
 _symmetry_equiv_pos_site_id
 _symmetry_equiv_pos_as_xyz
  1  'x, y, z'
loop_
 _atom_site_type_symbol
 _atom_site_label
 _atom_site_symmetry_multiplicity
 _atom_site_fract_x
 _atom_site_fract_y
 _atom_site_fract_z
 _atom_site_occupancy
  Rb  Rb0  1  0.06879194  0.47929216  0.75000000  1
  Rb  Rb1  1  0.93120806  0.52070784  0.25000000  1
  Rb  Rb2  1  0.56896575  0.01959536  0.75000000  1
  Rb  Rb3  1  0.43103425  0.98040464  0.25000000  1
  Sr  Sr0  1  0.50000000  0.50000000  -0.00000000  1
  Sr  Sr1  1  0.50000000  0.50000000  0.50000000  1
  Sr  Sr2  1  -0.00000000  0.00000000  -0.00000000  1
  Sr  Sr3  1  -0.00000000  0.00000000  0.50000000  1
  Cl  Cl0  1  0.80423796  0.30980286  0.94796433  1
  Cl  Cl1  1  0.19576204  0.69019714  0.05203567  1
  Cl  Cl2  1  0.19576204  0.69019714  0.44796433  1
  Cl  Cl3  1  0.80423796  0.30980286  0.55203567  1
  Cl  Cl4  1  0.69538126  0.81017351  0.44946877  1
  Cl  Cl5  1  0.30461874  0.18982649  0.55053123  1
  Cl  Cl6  1  0.30461874  0.18982649  0.94946877  1
  Cl  Cl7  1  0.69538126  0.81017351  0.05053123  1
  Cl  Cl8  1  0.46591795  0.59855443  0.75000000  1
  Cl  Cl9  1  0.53408205  0.40144557  0.25000000  1
  Cl  Cl10  1  0.96821174  0.90105663  0.75000000  1
  Cl  Cl11  1  0.03178826  0.09894337  0.25000000  1
loop_
_geom_bond_atom_site_label_1
_geom_bond_atom_site_label_2
_geom_bond_distance
_geom_bond_site_symmetry_2
Cl0 Sr2 2.883994 1_656
Cl0 Sr0 2.889687 1_556
Cl0 Rb0 3.306477 1_655
Cl0 Rb2 3.632934 1_555
Cl0 Rb1 3.836670 1_556
Cl1 Sr2 2.883994 1_565
Cl1 Sr0 2.889687 1_555
Cl1 Rb1 3.306477 1_455
Cl1 Rb3 3.632934 1_555
Cl1 Rb0 3.836670 1_554
Cl2 Sr3 2.883994 1_565
Cl2 Sr1 2.889687 1_555
Cl2 Rb1 3.306477 1_455
Cl2 Rb3 3.632934 1_555
Cl2 Rb0 3.836670 1_555
Cl3 Sr3 2.883994 1_655
Cl3 Sr1 2.889687 1_555
Cl3 Rb0 3.306477 1_655
Cl3 Rb2 3.632934 1_555
Cl3 Rb1 3.836670 1_555
Cl4 Sr1 2.884759 1_555
Cl4 Sr3 2.890826 1_665
Cl4 Rb3 3.316427 1_555
Cl4 Rb1 3.638825 1_555
Cl4 Rb2 3.815236 1_565
Cl5 Sr1 2.884759 1_555
Cl5 Sr3 2.890826 1_555
Cl5 Rb2 3.316427 1_555
Cl5 Rb0 3.638825 1_555
Cl5 Rb3 3.815236 1_545
Cl6 Sr0 2.884759 1_556
Cl6 Sr2 2.890826 1_556
Cl6 Rb2 3.316427 1_555
Cl6 Rb0 3.638825 1_555
Cl6 Rb3 3.815236 1_546
Cl7 Sr0 2.884759 1_555
Cl7 Sr2 2.890826 1_665
Cl7 Rb3 3.316427 1_555
Cl7 Rb1 3.638825 1_555
Cl7 Rb2 3.815236 1_564
Cl8 Sr1 2.872136 1_555
Cl8 Sr0 2.872136 1_556
Cl8 Rb2 3.303855 1_565
Cl8 Rb0 3.309657 1_555
Cl9 Sr1 2.872136 1_555
Cl9 Sr0 2.872136 1_555
Cl9 Rb3 3.303855 1_545
Cl9 Rb1 3.309657 1_555
Cl10 Sr3 2.871401 1_665
Cl10 Sr2 2.871401 1_666
Cl10 Rb0 3.302206 1_655
Cl10 Rb2 3.322207 1_565
Cl11 Sr3 2.871401 1_555
Cl11 Sr2 2.871401 1_555
Cl11 Rb1 3.302206 1_455
Cl11 Rb3 3.322207 1_545
