# generated using pymatgen
data_Tb2Ti3Ge4
_symmetry_space_group_name_H-M   'P 1'
_cell_length_a   7.00702902
_cell_length_b   7.18087300
_cell_length_c   13.48393621
_cell_angle_alpha   90.00000000
_cell_angle_beta   90.00000000
_cell_angle_gamma   90.00000000
_symmetry_Int_Tables_number   1
_chemical_formula_structural   Tb2Ti3Ge4
_chemical_formula_sum   'Tb8 Ti12 Ge16'
_cell_volume   678.46562919
_cell_formula_units_Z   4
loop_
 _symmetry_equiv_pos_site_id
 _symmetry_equiv_pos_as_xyz
  1  'x, y, z'
loop_
 _atom_site_type_symbol
 _atom_site_label
 _atom_site_symmetry_multiplicity
 _atom_site_fract_x
 _atom_site_fract_y
 _atom_site_fract_z
 _atom_site_occupancy
  Tb  Tb0  1  0.00400058  0.17362004  0.40347133  1
  Tb  Tb1  1  0.50400058  0.32637996  0.09652867  1
  Tb  Tb2  1  0.49599942  0.67362004  0.59652867  1
  Tb  Tb3  1  0.99599942  0.82637996  0.90347133  1
  Tb  Tb4  1  0.99599942  0.82637996  0.59652867  1
  Tb  Tb5  1  0.49599942  0.67362004  0.90347133  1
  Tb  Tb6  1  0.50400058  0.32637996  0.40347133  1
  Tb  Tb7  1  0.00400058  0.17362004  0.09652867  1
  Ti  Ti0  1  0.34195832  0.82996542  0.12652478  1
  Ti  Ti1  1  0.84195832  0.67003458  0.37347522  1
  Ti  Ti2  1  0.65804168  0.17003458  0.62652478  1
  Ti  Ti3  1  0.15804168  0.32996542  0.87347522  1
  Ti  Ti4  1  0.15804168  0.32996542  0.62652478  1
  Ti  Ti5  1  0.65804168  0.17003458  0.87347522  1
  Ti  Ti6  1  0.33022007  0.01071763  0.75000000  1
  Ti  Ti7  1  0.84195832  0.67003458  0.12652478  1
  Ti  Ti8  1  0.66977993  0.98928237  0.25000000  1
  Ti  Ti9  1  0.16977993  0.51071763  0.25000000  1
  Ti  Ti10  1  0.83022007  0.48928237  0.75000000  1
  Ti  Ti11  1  0.34195832  0.82996542  0.37347522  1
  Ge  Ge0  1  0.32541083  0.04422818  0.54247842  1
  Ge  Ge1  1  0.82541083  0.45577182  0.95752158  1
  Ge  Ge2  1  0.67458917  0.95577182  0.04247842  1
  Ge  Ge3  1  0.17458917  0.54422818  0.45752158  1
  Ge  Ge4  1  0.17458917  0.54422818  0.04247842  1
  Ge  Ge5  1  0.67458917  0.95577182  0.45752158  1
  Ge  Ge6  1  0.82541083  0.45577182  0.54247842  1
  Ge  Ge7  1  0.32541083  0.04422818  0.95752158  1
  Ge  Ge8  1  0.81037353  0.37054749  0.25000000  1
  Ge  Ge9  1  0.31037353  0.12945251  0.25000000  1
  Ge  Ge10  1  0.68962647  0.87054749  0.75000000  1
  Ge  Ge11  1  0.18962647  0.62945251  0.75000000  1
  Ge  Ge12  1  0.04048069  0.86820463  0.25000000  1
  Ge  Ge13  1  0.54048069  0.63179537  0.25000000  1
  Ge  Ge14  1  0.45951931  0.36820463  0.75000000  1
  Ge  Ge15  1  0.95951931  0.13179537  0.75000000  1
loop_
_geom_bond_atom_site_label_1
_geom_bond_atom_site_label_2
_geom_bond_distance
_geom_bond_site_symmetry_2
Ge0 Ti4 2.621019 1_555
Ge0 Ti2 2.744606 1_555
Ge0 Ti11 2.752049 1_545
Ge0 Ti6 2.808738 1_555
Ge0 Tb4 2.882029 1_445
Ge0 Tb2 3.007061 1_545
Ge0 Tb6 3.030555 1_555
Ge0 Tb0 3.073864 1_555
Ge1 Ti5 2.621019 1_555
Ge1 Ti3 2.744606 1_655
Ge1 Ti7 2.752049 1_556
Ge1 Ti10 2.808738 1_555
Ge1 Tb5 2.882029 1_555
Ge1 Tb3 3.007061 1_555
Ge1 Tb7 3.030555 1_656
Ge1 Tb1 3.073864 1_556
Ge2 Ti7 2.621019 1_555
Ge2 Ti0 2.744606 1_555
Ge2 Ti5 2.752049 1_564
Ge2 Ti8 2.808738 1_555
Ge2 Tb7 2.882029 1_665
Ge2 Tb1 3.007061 1_565
Ge2 Tb5 3.030555 1_554
Ge2 Tb3 3.073864 1_554
Ge3 Ti11 2.621019 1_555
Ge3 Ti1 2.744606 1_455
Ge3 Ti4 2.752049 1_555
Ge3 Ti9 2.808738 1_555
Ge3 Tb6 2.882029 1_555
Ge3 Tb0 3.007061 1_555
Ge3 Tb4 3.030555 1_455
Ge3 Tb2 3.073864 1_555
Ge4 Ti0 2.621019 1_555
Ge4 Ti7 2.744606 1_455
Ge4 Ti3 2.752049 1_554
Ge4 Ti9 2.808738 1_555
Ge4 Tb1 2.882029 1_555
Ge4 Tb7 3.007061 1_555
Ge4 Tb3 3.030555 1_454
Ge4 Tb5 3.073864 1_554
Ge5 Ti1 2.621019 1_555
Ge5 Ti11 2.744606 1_555
Ge5 Ti2 2.752049 1_565
Ge5 Ti8 2.808738 1_555
Ge5 Tb0 2.882029 1_665
Ge5 Tb6 3.007061 1_565
Ge5 Tb2 3.030555 1_555
Ge5 Tb4 3.073864 1_555
Ge6 Ti2 2.621019 1_555
Ge6 Ti4 2.744606 1_655
Ge6 Ti1 2.752049 1_555
Ge6 Ti10 2.808738 1_555
Ge6 Tb2 2.882029 1_555
Ge6 Tb4 3.007061 1_555
Ge6 Tb0 3.030555 1_655
Ge6 Tb6 3.073864 1_555
Ge7 Ti3 2.621019 1_555
Ge7 Ti5 2.744606 1_555
Ge7 Ti0 2.752049 1_546
Ge7 Ti6 2.808738 1_555
Ge7 Tb3 2.882029 1_445
Ge7 Tb5 3.007061 1_545
Ge7 Tb1 3.030555 1_556
Ge7 Tb7 3.073864 1_556
Ge8 Ti9 2.712070 1_655
Ge8 Ti1 2.728730 1_555
Ge8 Ti7 2.728730 1_555
Ge8 Tb7 2.850068 1_655
Ge8 Tb0 2.850068 1_655
Ge8 Ti8 2.909664 1_545
Ge8 Tb6 2.998599 1_555
Ge8 Tb1 2.998599 1_555
Ge9 Ti8 2.712070 1_545
Ge9 Ti0 2.728730 1_545
Ge9 Ti11 2.728730 1_545
Ge9 Tb6 2.850068 1_555
Ge9 Tb1 2.850068 1_555
Ge9 Ti9 2.909664 1_555
Ge9 Tb7 2.998599 1_555
Ge9 Tb0 2.998599 1_555
Ge10 Ge15 2.663788 1_565
Ge10 Ti6 2.712070 1_565
Ge10 Ti2 2.728730 1_565
Ge10 Ti5 2.728730 1_565
Ge10 Tb5 2.850068 1_555
Ge10 Tb2 2.850068 1_555
Ge10 Ti10 2.909664 1_555
Ge10 Tb3 2.998599 1_555
Ge10 Tb4 2.998599 1_555
Ge11 Ge14 2.663788 1_555
Ge11 Ti10 2.712070 1_455
Ge11 Ti3 2.728730 1_555
Ge11 Ti4 2.728730 1_555
Ge11 Tb4 2.850068 1_455
Ge11 Tb3 2.850068 1_455
Ge11 Ti6 2.909664 1_565
Ge11 Tb5 2.998599 1_555
Ge11 Tb2 2.998599 1_555
Ge12 Ti7 2.594619 1_455
Ge12 Ti1 2.594619 1_455
Ge12 Ge9 2.663788 1_565
Ge12 Ti11 2.703682 1_555
Ge12 Ti0 2.703682 1_555
Ge12 Ti9 2.722257 1_555
Ge12 Ti8 2.739160 1_455
Ge12 Tb7 3.026161 1_565
Ge12 Tb0 3.026161 1_565
Ge13 Ti0 2.594619 1_555
Ge13 Ti11 2.594619 1_555
Ge13 Ge8 2.663788 1_555
Ge13 Ti7 2.703682 1_555
Ge13 Ti1 2.703682 1_555
Ge13 Ti8 2.722257 1_555
Ge13 Ti9 2.739160 1_555
Ge13 Tb6 3.026161 1_555
Ge13 Tb1 3.026161 1_555
Ge14 Ti2 2.594619 1_555
Ge14 Ti5 2.594619 1_555
Ge14 Ti4 2.703682 1_555
Ge14 Ti3 2.703682 1_555
Ge14 Ti6 2.722257 1_555
Ge14 Ti10 2.739160 1_555
Ge14 Tb2 3.026161 1_555
Ge14 Tb5 3.026161 1_555
Ge15 Ti3 2.594619 1_655
Ge15 Ti4 2.594619 1_655
Ge15 Ti2 2.703682 1_555
Ge15 Ti5 2.703682 1_555
Ge15 Ti10 2.722257 1_555
Ge15 Ti6 2.739160 1_655
Ge15 Tb3 3.026161 1_545
Ge15 Tb4 3.026161 1_545
