# generated using pymatgen
data_H8W3Se(NO6)2
_symmetry_space_group_name_H-M   'P 1'
_cell_length_a   7.34915100
_cell_length_b   7.34915172
_cell_length_c   12.57245800
_cell_angle_alpha   90.00000000
_cell_angle_beta   90.00000000
_cell_angle_gamma   120.00000128
_symmetry_Int_Tables_number   1
_chemical_formula_structural   H8W3Se(NO6)2
_chemical_formula_sum   'H16 W6 Se2 N4 O24'
_cell_volume   588.06482557
_cell_formula_units_Z   2
loop_
 _symmetry_equiv_pos_site_id
 _symmetry_equiv_pos_as_xyz
  1  'x, y, z'
loop_
 _atom_site_type_symbol
 _atom_site_label
 _atom_site_symmetry_multiplicity
 _atom_site_fract_x
 _atom_site_fract_y
 _atom_site_fract_z
 _atom_site_occupancy
  H  H0  1  0.66666700  0.33333300  0.15170300  1
  H  H1  1  0.25482400  0.51168000  0.14918400  1
  H  H2  1  0.74314400  0.25482400  0.64918400  1
  H  H3  1  0.51168000  0.25685600  0.64918400  1
  H  H4  1  0.33333400  0.66666700  0.65170200  1
  H  H5  1  0.66666700  0.33333300  0.53992300  1
  H  H6  1  0.33333400  0.66666700  0.03992400  1
  H  H7  1  0.40321300  0.81951800  0.76256900  1
  H  H8  1  0.58369400  0.40321200  0.26256900  1
  H  H9  1  0.48832000  0.74314400  0.14918400  1
  H  H10  1  0.18048300  0.58369400  0.76256900  1
  H  H11  1  0.41630500  0.59678700  0.76256900  1
  H  H12  1  0.59678800  0.18048200  0.26256900  1
  H  H13  1  0.74517600  0.48832000  0.64918400  1
  H  H14  1  0.25685600  0.74517600  0.14918400  1
  H  H15  1  0.81951800  0.41630500  0.26256900  1
  W  W0  1  0.83272000  0.66110700  0.89431900  1
  W  W1  1  0.82838700  0.16727900  0.89431900  1
  W  W2  1  0.66110800  0.82838700  0.39431900  1
  W  W3  1  0.16728000  0.33889200  0.39431900  1
  W  W4  1  0.33889200  0.17161300  0.89431900  1
  W  W5  1  0.17161300  0.83272000  0.39431900  1
  Se  Se0  1  0.00000000  0.00000000  0.66503500  1
  Se  Se1  1  0.00000000  0.00000000  0.16503500  1
  N  N0  1  0.66666700  0.33333300  0.23419200  1
  N  N1  1  0.33333400  0.66666700  0.73419200  1
  N  N2  1  0.66666700  0.33333300  0.62144800  1
  N  N3  1  0.33333400  0.66666700  0.12144800  1
  O  O0  1  0.20495200  0.80015100  0.53036400  1
  O  O1  1  0.79504800  0.19984900  0.03036400  1
  O  O2  1  0.80015100  0.59519900  0.03036400  1
  O  O3  1  0.59519800  0.79504800  0.53036400  1
  O  O4  1  0.54114900  0.08456400  0.84847000  1
  O  O5  1  0.45658500  0.54114900  0.34847000  1
  O  O6  1  0.19984900  0.40480100  0.53036400  1
  O  O7  1  0.91543600  0.45658500  0.84847000  1
  O  O8  1  0.54341600  0.45885100  0.84847000  1
  O  O9  1  0.45885100  0.91543500  0.34847000  1
  O  O10  1  0.24914900  0.12752700  0.72386500  1
  O  O11  1  0.12162100  0.24914900  0.22386500  1
  O  O12  1  0.12752700  0.87837900  0.22386500  1
  O  O13  1  0.87247200  0.12162100  0.72386500  1
  O  O14  1  0.87837800  0.75085100  0.72386500  1
  O  O15  1  0.75085100  0.87247300  0.22386500  1
  O  O16  1  0.08456400  0.54341500  0.34847000  1
  O  O17  1  0.87459400  0.12317800  0.40466200  1
  O  O18  1  0.75141500  0.87459300  0.90466200  1
  O  O19  1  0.12317800  0.24858500  0.90466200  1
  O  O20  1  0.87682100  0.75141400  0.40466200  1
  O  O21  1  0.24858500  0.12540600  0.40466200  1
  O  O22  1  0.12540700  0.87682100  0.90466200  1
  O  O23  1  0.40480100  0.20495200  0.03036400  1
loop_
_geom_bond_atom_site_label_1
_geom_bond_atom_site_label_2
_geom_bond_distance
_geom_bond_site_symmetry_2
H0 N0 1.037089 1_555
H1 N3 1.046272 1_555
H2 N2 1.046266 1_555
H3 N2 1.046271 1_555
H4 N1 1.037102 1_555
H5 N2 1.024970 1_555
H6 N3 1.024957 1_555
H7 N1 1.037301 1_555
H8 N0 1.037307 1_555
H9 N3 1.046265 1_555
H10 N1 1.037301 1_555
H11 N1 1.037301 1_555
H12 N0 1.037301 1_555
H13 N2 1.046272 1_555
H14 N3 1.046272 1_555
H15 N0 1.037301 1_555
O0 W5 1.761109 1_555
O1 W1 1.761110 1_554
O2 W0 1.761109 1_554
O3 W2 1.761112 1_555
O4 W1 1.968430 1_555
O4 W4 1.975320 1_555
O5 W2 1.968430 1_555
O5 W3 1.975315 1_555
O6 W3 1.761110 1_555
O7 W0 1.968428 1_555
O7 W1 1.975321 1_555
O8 W4 1.968432 1_555
O8 W0 1.975308 1_555
O9 W5 1.968430 1_555
O9 W2 1.975315 1_555
O10 Se0 1.749871 1_555
O10 W4 2.217844 1_555
O11 Se1 1.749871 1_555
O11 W3 2.217844 1_555
O12 Se1 1.749865 1_565
O12 W5 2.217847 1_555
O13 Se0 1.749871 1_655
O13 W1 2.217844 1_555
O14 Se0 1.749871 1_665
O14 W0 2.217846 1_555
O15 Se1 1.749871 1_665
O15 W2 2.217844 1_555
O16 W3 1.968435 1_555
O16 W5 1.975314 1_555
O17 W3 1.935692 1_655
O17 W2 1.942420 1_545
O18 W1 1.935692 1_565
O18 W0 1.942420 1_555
O19 W4 1.935692 1_555
O19 W1 1.942418 1_455
O20 W2 1.935690 1_555
O20 W5 1.942425 1_655
O21 W5 1.935692 1_545
O21 W3 1.942420 1_555
O22 W0 1.935697 1_455
O22 W4 1.942424 1_565
O23 W4 1.761110 1_554
