# generated using pymatgen
data_NaLaScP(SO6)2
_symmetry_space_group_name_H-M   'P 1'
_cell_length_a   9.13956457
_cell_length_b   9.12779414
_cell_length_c   24.22319629
_cell_angle_alpha   90.01194803
_cell_angle_beta   89.94596359
_cell_angle_gamma   120.01691832
_symmetry_Int_Tables_number   1
_chemical_formula_structural   NaLaScP(SO6)2
_chemical_formula_sum   'Na6 La6 Sc6 P6 S12 O72'
_cell_volume   1749.76266471
_cell_formula_units_Z   6
loop_
 _symmetry_equiv_pos_site_id
 _symmetry_equiv_pos_as_xyz
  1  'x, y, z'
loop_
 _atom_site_type_symbol
 _atom_site_label
 _atom_site_symmetry_multiplicity
 _atom_site_fract_x
 _atom_site_fract_y
 _atom_site_fract_z
 _atom_site_occupancy
  Na  Na0  1  0.98709884  0.99232415  0.49854289  1
  Na  Na1  1  0.00735957  0.98597869  0.99938321  1
  Na  Na2  1  0.65698413  0.31126803  0.82908805  1
  Na  Na3  1  0.65419450  0.31385706  0.33641759  1
  Na  Na4  1  0.31940172  0.67293852  0.16337334  1
  Na  Na5  1  0.34744355  0.67185736  0.66215251  1
  La  La0  1  0.99929752  0.00096204  0.84904266  1
  La  La1  1  0.00668148  0.99244872  0.14894295  1
  La  La2  1  0.66587890  0.33261032  0.18548833  1
  La  La3  1  0.66608719  0.33195422  0.98199952  1
  La  La4  1  0.33817839  0.68195865  0.32362318  1
  La  La5  1  0.34181283  0.68187990  0.80812623  1
  Sc  Sc0  1  0.00305980  0.00052926  0.35520024  1
  Sc  Sc1  1  0.98310292  0.99173528  0.64462501  1
  Sc  Sc2  1  0.66460830  0.33232656  0.67821809  1
  Sc  Sc3  1  0.66943690  0.33521492  0.48669842  1
  Sc  Sc4  1  0.32429971  0.67432770  0.01609149  1
  Sc  Sc5  1  0.35984045  0.67786967  0.51773280  1
  P  P0  1  0.29497267  0.00566798  0.25639586  1
  P  P1  1  0.71257763  0.01654937  0.74183557  1
  P  P2  1  0.66630273  0.62140825  0.58266538  1
  P  P3  1  0.98112678  0.63473682  0.08101948  1
  P  P4  1  0.32689105  0.95750597  0.91835701  1
  P  P5  1  0.64396732  0.97687417  0.42192482  1
  S  S0  1  0.70912854  0.70731822  0.25604335  1
  S  S1  1  0.99912704  0.28977267  0.25554990  1
  S  S2  1  0.30040470  0.28716881  0.74098333  1
  S  S3  1  0.98448745  0.69675305  0.74128632  1
  S  S4  1  0.96036824  0.33575745  0.58291172  1
  S  S5  1  0.37477369  0.04040485  0.58242238  1
  S  S6  1  0.65389340  0.01363599  0.08133279  1
  S  S7  1  0.36188850  0.35028972  0.08082868  1
  S  S8  1  0.62327245  0.67180926  0.91973603  1
  S  S9  1  0.04910738  0.37670786  0.91840582  1
  S  S10  1  0.33561332  0.36410242  0.42164982  1
  S  S11  1  0.02811453  0.66532834  0.42256425  1
  O  O0  1  0.18741327  0.00743699  0.30620504  1
  O  O1  1  0.81176565  0.80720498  0.30383571  1
  O  O2  1  0.99155329  0.18501745  0.30359056  1
  O  O3  1  0.23462696  0.19995662  0.79506514  1
  O  O4  1  0.96598682  0.76446915  0.79518615  1
  O  O5  1  0.80305434  0.03551036  0.79785801  1
  O  O6  1  0.81590052  0.99808213  0.69409394  1
  O  O7  1  0.18779693  0.18905792  0.69529311  1
  O  O8  1  0.00419249  0.81215168  0.69563909  1
  O  O9  1  0.78164655  0.79418951  0.20307674  1
  O  O10  1  0.00563652  0.21256351  0.20260099  1
  O  O11  1  0.20848852  0.99722237  0.20087958  1
  O  O12  1  0.87801198  0.35943652  0.63263835  1
  O  O13  1  0.48107799  0.11841916  0.63245829  1
  O  O14  1  0.63707184  0.50910235  0.63410169  1
  O  O15  1  0.89552214  0.53457902  0.13468719  1
  O  O16  1  0.63331842  0.09340056  0.13221584  1
  O  O17  1  0.45823358  0.36495472  0.13215335  1
  O  O18  1  0.44409014  0.32310584  0.03263516  1
  O  O19  1  0.87124256  0.54423231  0.03063297  1
  O  O20  1  0.67512093  0.11902341  0.03269787  1
  O  O21  1  0.45718888  0.14818653  0.53337716  1
  O  O22  1  0.69262555  0.53535873  0.53173918  1
  O  O23  1  0.85237681  0.30730495  0.53362101  1
  O  O24  1  0.52658495  0.67189765  0.96854556  1
  O  O25  1  0.14629163  0.47095043  0.96771983  1
  O  O26  1  0.32455300  0.85317374  0.96947821  1
  O  O27  1  0.54481071  0.84779969  0.46984342  1
  O  O28  1  0.30999028  0.45629809  0.46812143  1
  O  O29  1  0.14644302  0.69183648  0.46823580  1
  O  O30  1  0.08746743  0.62812008  0.36999352  1
  O  O31  1  0.53908537  0.91296226  0.36835224  1
  O  O32  1  0.36790248  0.46089074  0.36958022  1
  O  O33  1  0.13250293  0.46411001  0.86667504  1
  O  O34  1  0.33436178  0.87131487  0.86431644  1
  O  O35  1  0.53517927  0.66292918  0.86748592  1
  O  O36  1  0.01464374  0.82155420  0.41530198  1
  O  O37  1  0.81875930  0.98885036  0.41358896  1
  O  O38  1  0.17949911  0.19454294  0.41566494  1
  O  O39  1  0.03300546  0.20630662  0.92056660  1
  O  O40  1  0.16434188  0.97052362  0.91958276  1
  O  O41  1  0.79171972  0.82901618  0.92096185  1
  O  O42  1  0.97755745  0.18142827  0.58964276  1
  O  O43  1  0.20477714  0.02195275  0.58949177  1
  O  O44  1  0.82486057  0.80143624  0.59065602  1
  O  O45  1  0.00370961  0.81445204  0.08160672  1
  O  O46  1  0.80517631  0.99525965  0.08443435  1
  O  O47  1  0.18852240  0.20184404  0.08329621  1
  O  O48  1  0.69233366  0.17417753  0.73410382  1
  O  O49  1  0.47199448  0.30714878  0.73498484  1
  O  O50  1  0.83213251  0.52685707  0.73486928  1
  O  O51  1  0.70156120  0.54060720  0.25648335  1
  O  O52  1  0.84364979  0.30468054  0.25658606  1
  O  O53  1  0.47087894  0.16899214  0.25727773  1
  O  O54  1  0.64621891  0.52200504  0.91918120  1
  O  O55  1  0.87816875  0.35821493  0.91797753  1
  O  O56  1  0.48562818  0.13566422  0.91794814  1
  O  O57  1  0.66469093  0.15261191  0.43471483  1
  O  O58  1  0.48392394  0.34133871  0.43146310  1
  O  O59  1  0.85653519  0.51763056  0.43240105  1
  O  O60  1  0.35383085  0.50675907  0.07513773  1
  O  O61  1  0.15723430  0.64896252  0.07635898  1
  O  O62  1  0.50072027  0.84478421  0.07614369  1
  O  O63  1  0.35832852  0.86922441  0.57486086  1
  O  O64  1  0.50624302  0.64171258  0.57382404  1
  O  O65  1  0.13009903  0.48805370  0.57593392  1
  O  O66  1  0.31323429  0.84576664  0.25707928  1
  O  O67  1  0.53588116  0.68180341  0.25810441  1
  O  O68  1  0.15179207  0.46005929  0.25783375  1
  O  O69  1  0.31487038  0.45704649  0.74271685  1
  O  O70  1  0.13790699  0.67904552  0.74224054  1
  O  O71  1  0.53567029  0.85360441  0.74169140  1
loop_
_geom_bond_atom_site_label_1
_geom_bond_atom_site_label_2
_geom_bond_distance
_geom_bond_site_symmetry_2
Na0 O37 2.561259 1_555
Na0 O36 2.636123 1_655
Na0 O38 2.697585 1_665
Na0 O44 2.761091 1_555
Na0 O42 2.829372 1_565
Na0 O43 2.890401 1_665
Na1 O40 2.451967 1_555
Na1 O45 2.523541 1_556
Na1 O41 2.593510 1_455
Na1 O39 2.696967 1_565
Na1 O47 2.737896 1_566
Na1 O46 2.795644 1_456
Na2 O56 2.671814 1_555
Na2 O48 2.714016 1_555
Na2 O49 2.828361 1_555
Na2 O55 2.836820 1_555
Na2 O50 2.913248 1_555
Na2 O54 2.942721 1_555
Na3 O53 2.453353 1_555
Na3 O52 2.623634 1_555
Na3 O51 2.706275 1_555
Na3 O57 2.826324 1_555
Na3 O58 2.858122 1_555
Na3 O59 2.974916 1_555
Na4 O61 2.523585 1_555
Na4 O62 2.658079 1_555
Na4 O60 2.728194 1_555
Na4 O66 2.780520 1_555
Na4 O68 2.893961 1_555
Na4 O67 3.005832 1_555
Na5 O71 2.563835 1_555
Na5 O64 2.674599 1_555
Na5 O69 2.675462 1_555
Na5 O63 2.747418 1_555
Na5 O70 2.748457 1_555
Na5 O65 2.791852 1_555
La0 O5 2.328918 1_555
La0 O40 2.386758 1_645
La0 O3 2.392028 1_655
La0 O4 2.407584 1_545
La0 O39 2.455948 1_655
La0 O41 2.472509 1_545
La1 O11 2.215966 1_555
La1 O45 2.292543 1_555
La1 O9 2.344464 1_455
La1 O10 2.396729 1_565
La1 O47 2.400418 1_565
La1 O46 2.426285 1_455
La2 O15 2.332990 1_555
La2 O53 2.400614 1_555
La2 O16 2.422953 1_555
La2 O17 2.433771 1_555
La2 O51 2.459378 1_555
La2 O52 2.467935 1_555
La3 O19 2.241922 1_556
La3 O56 2.320505 1_555
La3 O20 2.335437 1_556
La3 O18 2.336455 1_556
La3 O54 2.382132 1_555
La3 O55 2.397760 1_555
La4 O31 2.262887 1_555
La4 O66 2.286614 1_555
La4 O30 2.371155 1_555
La4 O67 2.404352 1_555
La4 O32 2.436147 1_555
La4 O68 2.468940 1_555
La5 O34 2.227952 1_555
La5 O71 2.324418 1_555
La5 O35 2.351909 1_555
La5 O33 2.411160 1_555
La5 O70 2.445028 1_555
La5 O69 2.505289 1_555
O0 P0 1.560772 1_555
O0 Sc0 2.035045 1_555
O1 S0 1.482351 1_555
O1 Sc0 2.152931 1_665
O2 S1 1.485720 1_555
O2 Sc0 2.141963 1_655
O3 S2 1.493802 1_555
O4 S3 1.489668 1_555
O5 P1 1.553750 1_555
O6 P1 1.553922 1_565
O6 Sc1 1.964593 1_555
O7 S2 1.471640 1_555
O7 Sc1 2.209633 1_445
O8 S3 1.474748 1_455
O8 Sc1 2.137419 1_455
O9 S0 1.478913 1_555
O10 S1 1.478743 1_455
O11 P0 1.542774 1_565
O12 S4 1.491689 1_555
O12 Sc2 2.144186 1_555
O13 S5 1.493221 1_555
O13 Sc2 2.140182 1_555
O14 P2 1.549358 1_555
O14 Sc2 2.053405 1_555
O15 P3 1.555916 1_555
O16 S6 1.490236 1_555
O17 S7 1.490980 1_555
O18 S7 1.474300 1_555
O19 P3 1.533801 1_555
O20 S6 1.471128 1_555
O21 S5 1.484603 1_555
O21 Sc3 2.153894 1_555
O22 P2 1.544231 1_555
O22 Sc3 2.045716 1_555
O23 S4 1.487556 1_555
O23 Sc3 2.140613 1_555
O24 S8 1.475643 1_555
O24 Sc4 2.186778 1_556
O25 S9 1.480868 1_555
O25 Sc4 2.108768 1_556
O26 P4 1.555921 1_555
O26 Sc4 1.984153 1_556
O27 P5 1.577026 1_555
O27 Sc5 1.995751 1_555
O28 S10 1.492146 1_555
O28 Sc5 2.195498 1_555
O29 S11 1.480671 1_555
O29 Sc5 2.347540 1_555
O30 S11 1.487980 1_555
O31 P5 1.544588 1_555
O32 S10 1.482352 1_555
O33 S9 1.475760 1_555
O34 P4 1.546070 1_555
O35 S8 1.480980 1_555
O36 S11 1.501790 1_555
O36 Sc0 2.230215 1_565
O37 P5 1.558678 1_555
O37 Sc0 2.159858 1_665
O38 S10 1.497694 1_555
O38 Sc0 2.242303 1_555
O39 S9 1.488164 1_555
O40 P4 1.548749 1_555
O41 S8 1.489939 1_555
O42 S4 1.502406 1_555
O42 Sc1 2.205287 1_545
O43 S5 1.486388 1_555
O43 Sc1 2.323854 1_445
O44 P2 1.567051 1_555
O44 Sc1 2.075351 1_555
O45 P3 1.547570 1_455
O46 S6 1.475727 1_565
O47 S7 1.483900 1_555
O48 P1 1.551119 1_555
O48 Sc2 2.085205 1_555
O49 S2 1.492390 1_555
O49 Sc2 2.152547 1_555
O50 S3 1.485873 1_555
O50 Sc2 2.159435 1_555
O51 S0 1.488350 1_555
O52 S1 1.493909 1_555
O53 P0 1.552322 1_555
O54 S8 1.483509 1_555
O55 S9 1.485118 1_655
O56 P4 1.545606 1_545
O57 P5 1.549488 1_545
O57 Sc3 2.071830 1_555
O58 S10 1.489787 1_555
O58 Sc3 2.183388 1_555
O59 S11 1.489178 1_655
O59 Sc3 2.138777 1_555
O60 S7 1.472947 1_555
O60 Sc4 2.207423 1_555
O61 P3 1.552676 1_455
O61 Sc4 2.039241 1_555
O62 S6 1.480729 1_565
O62 Sc4 2.151778 1_555
O63 S5 1.504165 1_565
O63 Sc5 2.233616 1_555
O64 P2 1.578635 1_555
O64 Sc5 2.047157 1_555
O65 S4 1.486437 1_455
O65 Sc5 2.398740 1_555
O66 P0 1.549887 1_565
O67 S0 1.481488 1_555
O68 S1 1.481930 1_455
O69 S2 1.489464 1_555
O70 S3 1.489834 1_455
O71 P1 1.555752 1_565
