# generated using pymatgen
data_KBH4
_symmetry_space_group_name_H-M   'P 1'
_cell_length_a   3.41186500
_cell_length_b   8.16051600
_cell_length_c   8.81751300
_cell_angle_alpha   90.00000000
_cell_angle_beta   90.00000000
_cell_angle_gamma   90.00000000
_symmetry_Int_Tables_number   1
_chemical_formula_structural   KBH4
_chemical_formula_sum   'K4 B4 H16'
_cell_volume   245.50230160
_cell_formula_units_Z   4
loop_
 _symmetry_equiv_pos_site_id
 _symmetry_equiv_pos_as_xyz
  1  'x, y, z'
loop_
 _atom_site_type_symbol
 _atom_site_label
 _atom_site_symmetry_multiplicity
 _atom_site_fract_x
 _atom_site_fract_y
 _atom_site_fract_z
 _atom_site_occupancy
  K  K0  1  0.75000000  0.24648000  0.25994000  1
  K  K1  1  0.25000000  0.75352000  0.74006000  1
  K  K2  1  0.25000000  0.25352000  0.75994000  1
  K  K3  1  0.75000000  0.74648000  0.24006000  1
  B  B0  1  0.75000000  0.97083400  0.96096100  1
  B  B1  1  0.25000000  0.02916600  0.03903900  1
  B  B2  1  0.25000000  0.52916600  0.46096100  1
  B  B3  1  0.75000000  0.47083400  0.53903900  1
  H  H0  1  0.35991900  0.60690700  0.00736500  1
  H  H1  1  0.85991900  0.39309300  0.99263500  1
  H  H2  1  0.64008100  0.89309300  0.50736500  1
  H  H3  1  0.14008100  0.10690700  0.49263500  1
  H  H4  1  0.64008100  0.39309300  0.99263500  1
  H  H5  1  0.14008100  0.60690700  0.00736500  1
  H  H6  1  0.35991900  0.10690700  0.49263500  1
  H  H7  1  0.85991900  0.89309300  0.50736500  1
  H  H8  1  0.75000000  0.50612200  0.68200100  1
  H  H9  1  0.25000000  0.49387800  0.31799900  1
  H  H10  1  0.25000000  0.99387800  0.18200100  1
  H  H11  1  0.75000000  0.00612200  0.81799900  1
  H  H12  1  0.75000000  0.81409700  0.95133000  1
  H  H13  1  0.25000000  0.18590300  0.04867000  1
  H  H14  1  0.25000000  0.68590300  0.45133000  1
  H  H15  1  0.75000000  0.31409700  0.54867000  1
loop_
_geom_bond_atom_site_label_1
_geom_bond_atom_site_label_2
_geom_bond_distance
_geom_bond_site_symmetry_2
B0 H12 1.281871 1_555
B0 H11 1.293043 1_565
B1 H13 1.281871 1_555
B1 H10 1.293043 1_545
B2 H14 1.281871 1_555
B2 H9 1.293043 1_555
B3 H15 1.281871 1_555
B3 H8 1.293043 1_555
H0 H5 0.750058 1_555
H0 K1 2.669718 1_554
H0 K3 2.697859 1_555
H1 H4 0.750058 1_555
H1 K0 2.669718 1_556
H1 K2 2.697859 1_655
H2 H7 0.750058 1_555
H2 K3 2.669718 1_555
H2 K1 2.697859 1_555
H3 H6 0.750058 1_555
H3 K2 2.669718 1_555
H3 K0 2.697859 1_455
H4 K0 2.669718 1_556
H4 K2 2.697859 1_555
H5 K1 2.669718 1_554
H5 K3 2.697859 1_455
H6 K2 2.669718 1_555
H6 K0 2.697859 1_555
H7 K3 2.669718 1_555
H7 K1 2.697859 1_655
H8 K1 2.692252 1_655
H8 K1 2.692252 1_555
H8 K2 2.762554 1_555
H8 K2 2.762554 1_655
H9 K0 2.692252 1_455
H9 K0 2.692252 1_555
H9 K3 2.762554 1_555
H9 K3 2.762554 1_455
H10 K3 2.692252 1_555
H10 K3 2.692252 1_455
H10 K0 2.762554 1_465
H10 K0 2.762554 1_565
H11 K2 2.692252 1_555
H11 K2 2.692252 1_655
H11 K1 2.762554 1_545
H11 K1 2.762554 1_645
H12 K1 2.573885 1_655
H12 K1 2.573885 1_555
H12 K3 2.604991 1_556
H13 K0 2.573885 1_555
H13 K0 2.573885 1_455
H13 K2 2.604991 1_554
H14 K3 2.573885 1_455
H14 K3 2.573885 1_555
H14 K1 2.604991 1_555
H15 K2 2.573885 1_655
H15 K2 2.573885 1_555
H15 K0 2.604991 1_555
