# generated using pymatgen
data_MgTi2V2O8
_symmetry_space_group_name_H-M   'P 1'
_cell_length_a   5.65219711
_cell_length_b   5.64947458
_cell_length_c   5.81094059
_cell_angle_alpha   74.87028856
_cell_angle_beta   105.89235614
_cell_angle_gamma   63.50070665
_symmetry_Int_Tables_number   1
_chemical_formula_structural   MgTi2V2O8
_chemical_formula_sum   'Mg1 Ti2 V2 O8'
_cell_volume   143.01330295
_cell_formula_units_Z   1
loop_
 _symmetry_equiv_pos_site_id
 _symmetry_equiv_pos_as_xyz
  1  'x, y, z'
loop_
 _atom_site_type_symbol
 _atom_site_label
 _atom_site_symmetry_multiplicity
 _atom_site_fract_x
 _atom_site_fract_y
 _atom_site_fract_z
 _atom_site_occupancy
  Mg  Mg0  1  0.48580800  0.49511500  0.46701900  1
  Ti  Ti0  1  0.78430500  0.78010000  0.49131600  1
  Ti  Ti1  1  0.49516100  0.52740900  0.95117300  1
  V  V0  1  0.20066500  0.22773800  0.48341300  1
  V  V1  1  0.97457500  0.01097500  0.97434900  1
  O  O0  1  0.51854200  0.24376600  0.80026500  1
  O  O1  1  0.04192300  0.74365700  0.79051400  1
  O  O2  1  0.93028700  0.32983600  0.64838900  1
  O  O3  1  0.47714000  0.77204300  0.64995200  1
  O  O4  1  0.01689200  0.69511200  0.31056900  1
  O  O5  1  0.49870400  0.18831100  0.33084400  1
  O  O6  1  0.90989300  0.26870000  0.16506200  1
  O  O7  1  0.42801100  0.76485600  0.13951700  1
loop_
_geom_bond_atom_site_label_1
_geom_bond_atom_site_label_2
_geom_bond_distance
_geom_bond_site_symmetry_2
Mg0 O7 1.937040 1_555
Mg0 O0 1.983546 1_555
Mg0 O2 2.058414 1_555
Mg0 O5 2.066531 1_555
Mg0 O3 2.099599 1_555
Mg0 O4 2.144673 1_555
O0 Ti1 1.990544 1_555
O0 V1 2.061393 1_555
O0 V0 2.246526 1_555
O1 Ti0 1.828823 1_455
O1 V1 2.029444 1_465
O1 Ti1 2.056407 1_555
O2 V0 1.972719 1_655
O2 V1 2.110028 1_555
O2 Ti0 2.118290 1_555
O3 Ti1 1.870347 1_555
O3 V0 2.070613 1_565
O3 Ti0 2.188878 1_555
O4 Ti0 1.875660 1_455
O4 V1 2.145210 1_464
O4 V0 2.157853 1_555
O5 Ti0 1.877438 1_545
O5 V0 2.063876 1_555
O5 Ti1 2.504633 1_554
O6 Ti1 1.890690 1_554
O6 V0 1.987184 1_655
O6 V1 2.017662 1_554
O7 Ti1 1.918573 1_554
O7 V1 2.049191 1_464
O7 Ti0 2.496817 1_555
