# generated using pymatgen
data_Na12Nb2Zn10Si3(S5O24)3
_symmetry_space_group_name_H-M   'P 1'
_cell_length_a   8.87393131
_cell_length_b   8.92789359
_cell_length_c   22.57168343
_cell_angle_alpha   89.54029728
_cell_angle_beta   90.57333674
_cell_angle_gamma   119.76145810
_symmetry_Int_Tables_number   1
_chemical_formula_structural   Na12Nb2Zn10Si3(S5O24)3
_chemical_formula_sum   'Na12 Nb2 Zn10 Si3 S15 O72'
_cell_volume   1552.29450695
_cell_formula_units_Z   1
loop_
 _symmetry_equiv_pos_site_id
 _symmetry_equiv_pos_as_xyz
  1  'x, y, z'
loop_
 _atom_site_type_symbol
 _atom_site_label
 _atom_site_symmetry_multiplicity
 _atom_site_fract_x
 _atom_site_fract_y
 _atom_site_fract_z
 _atom_site_occupancy
  Na  Na0  1  0.30090594  0.33629168  0.57918850  1
  Na  Na1  1  0.67142494  0.96929595  0.59048135  1
  Na  Na2  1  0.29613857  0.96849191  0.09010379  1
  Na  Na3  1  0.03054031  0.33298479  0.08318787  1
  Na  Na4  1  0.33047523  0.04547357  0.40966190  1
  Na  Na5  1  0.69342218  0.65657840  0.41565588  1
  Na  Na6  1  0.00937391  0.01347263  0.49749168  1
  Na  Na7  1  0.98750468  0.99018927  0.99556622  1
  Na  Na8  1  0.67093797  0.32109803  0.82925087  1
  Na  Na9  1  0.65282752  0.32159934  0.32763536  1
  Na  Na10  1  0.34372104  0.67607028  0.16478728  1
  Na  Na11  1  0.32672893  0.67104876  0.66444128  1
  Nb  Nb0  1  0.33312865  0.66166125  0.31167805  1
  Nb  Nb1  1  0.34248372  0.67376903  0.81217159  1
  Zn  Zn0  1  0.03257589  0.03295355  0.34660712  1
  Zn  Zn1  1  0.99365524  0.00332573  0.84663046  1
  Zn  Zn2  1  0.98592956  0.98689645  0.66015242  1
  Zn  Zn3  1  0.00070319  0.98533929  0.15889473  1
  Zn  Zn4  1  0.67227073  0.32453338  0.68677248  1
  Zn  Zn5  1  0.64910211  0.32117493  0.18604463  1
  Zn  Zn6  1  0.66936948  0.33667476  0.98197134  1
  Zn  Zn7  1  0.66003803  0.33689335  0.48338494  1
  Zn  Zn8  1  0.33860891  0.66572589  0.01154167  1
  Zn  Zn9  1  0.32006993  0.65217330  0.51262388  1
  Si  Si0  1  0.30118883  0.00842603  0.24942513  1
  Si  Si1  1  0.71809049  0.01591781  0.74874433  1
  Si  Si2  1  0.32919499  0.36622848  0.42158229  1
  S  S0  1  0.71034630  0.70813004  0.25218927  1
  S  S1  1  0.99562314  0.29423998  0.24872406  1
  S  S2  1  0.29593529  0.29470194  0.75063421  1
  S  S3  1  0.99871662  0.70699252  0.75187503  1
  S  S4  1  0.95933774  0.33698362  0.58260358  1
  S  S5  1  0.36701223  0.03424360  0.58256065  1
  S  S6  1  0.67215847  0.62918889  0.58373019  1
  S  S7  1  0.95531198  0.62394925  0.08255229  1
  S  S8  1  0.66866379  0.03847132  0.08252416  1
  S  S9  1  0.37447124  0.33804707  0.08134245  1
  S  S10  1  0.62817899  0.66533305  0.91827803  1
  S  S11  1  0.03981937  0.37264777  0.91873733  1
  S  S12  1  0.33051765  0.95982153  0.91746601  1
  S  S13  1  0.62711764  0.95737223  0.41741480  1
  S  S14  1  0.04052950  0.66358375  0.41687377  1
  O  O0  1  0.21791260  0.02229451  0.31072582  1
  O  O1  1  0.80464099  0.78782743  0.30739036  1
  O  O2  1  0.96873609  0.18832515  0.30176919  1
  O  O3  1  0.21655846  0.18780772  0.80303957  1
  O  O4  1  0.98218231  0.78895560  0.80515681  1
  O  O5  1  0.82221785  0.02983926  0.80788496  1
  O  O6  1  0.76822778  0.95934551  0.68692058  1
  O  O7  1  0.19265493  0.22836569  0.69520480  1
  O  O8  1  0.04372147  0.81393176  0.69757829  1
  O  O9  1  0.77773233  0.81692668  0.19880796  1
  O  O10  1  0.03088127  0.22612847  0.19423880  1
  O  O11  1  0.19073201  0.96096445  0.18763301  1
  O  O12  1  0.87751445  0.35588542  0.63612048  1
  O  O13  1  0.48094269  0.11803388  0.63433046  1
  O  O14  1  0.64577871  0.51499791  0.63501318  1
  O  O15  1  0.87590831  0.51595875  0.13576252  1
  O  O16  1  0.63819987  0.11736704  0.13528758  1
  O  O17  1  0.47778660  0.36290687  0.13551983  1
  O  O18  1  0.45500755  0.30833750  0.02873103  1
  O  O19  1  0.85477672  0.54226155  0.02813714  1
  O  O20  1  0.69868139  0.14722004  0.02861298  1
  O  O21  1  0.44155851  0.13770922  0.52684649  1
  O  O22  1  0.68923503  0.55254802  0.52744918  1
  O  O23  1  0.85035616  0.30978591  0.52882037  1
  O  O24  1  0.54670651  0.69016947  0.97080887  1
  O  O25  1  0.13874655  0.45249406  0.97452228  1
  O  O26  1  0.30775688  0.85875731  0.97260804  1
  O  O27  1  0.55020491  0.85641315  0.47249331  1
  O  O28  1  0.31099736  0.45177353  0.48149811  1
  O  O29  1  0.15309183  0.70261881  0.46969232  1
  O  O30  1  0.13449666  0.64855603  0.36359283  1
  O  O31  1  0.50699696  0.86721598  0.36470912  1
  O  O32  1  0.35468023  0.50211168  0.36462791  1
  O  O33  1  0.13620035  0.48686529  0.86659284  1
  O  O34  1  0.34936139  0.86018574  0.86539985  1
  O  O35  1  0.51228947  0.64873155  0.86454200  1
  O  O36  1  0.01053891  0.81238217  0.41011421  1
  O  O37  1  0.79412014  0.96352243  0.40821995  1
  O  O38  1  0.16180802  0.17439284  0.41595175  1
  O  O39  1  0.02827903  0.20275719  0.91350998  1
  O  O40  1  0.17403148  0.97468609  0.90805895  1
  O  O41  1  0.80044959  0.81775337  0.91130696  1
  O  O42  1  0.98263180  0.18021701  0.58613077  1
  O  O43  1  0.19383883  0.02196275  0.58958018  1
  O  O44  1  0.82814663  0.80489074  0.58742054  1
  O  O45  1  0.97805837  0.80126403  0.08563928  1
  O  O46  1  0.82867950  0.02328171  0.08996263  1
  O  O47  1  0.19544556  0.18078789  0.08557059  1
  O  O48  1  0.67236505  0.16880765  0.74569251  1
  O  O49  1  0.47513589  0.33130663  0.74442984  1
  O  O50  1  0.84800043  0.53457228  0.74460355  1
  O  O51  1  0.68795037  0.53539970  0.24520902  1
  O  O52  1  0.85254721  0.33022162  0.24287896  1
  O  O53  1  0.49588792  0.16984955  0.24592487  1
  O  O54  1  0.63207713  0.50185881  0.91916157  1
  O  O55  1  0.86714001  0.36136906  0.91992286  1
  O  O56  1  0.49184776  0.12830104  0.91892315  1
  O  O57  1  0.63936516  0.12826415  0.41940342  1
  O  O58  1  0.51226175  0.35874728  0.41872255  1
  O  O59  1  0.87272563  0.50225592  0.41999496  1
  O  O60  1  0.34823313  0.49181469  0.07584028  1
  O  O61  1  0.13653200  0.64398857  0.07865647  1
  O  O62  1  0.50789172  0.86474947  0.07600576  1
  O  O63  1  0.35482329  0.86103102  0.57685617  1
  O  O64  1  0.51300749  0.65102506  0.58133303  1
  O  O65  1  0.13724455  0.49275128  0.57957785  1
  O  O66  1  0.31639757  0.82506887  0.26186990  1
  O  O67  1  0.52586191  0.68813977  0.25749635  1
  O  O68  1  0.16274465  0.47172785  0.25757601  1
  O  O69  1  0.30614069  0.47294003  0.76008360  1
  O  O70  1  0.15984508  0.68302721  0.76073289  1
  O  O71  1  0.51365569  0.82863891  0.76305291  1
loop_
_geom_bond_atom_site_label_1
_geom_bond_atom_site_label_2
_geom_bond_distance
_geom_bond_site_symmetry_2
Na0 O28 2.410186 1_555
Na0 O42 2.457917 1_455
Na0 O65 2.464751 1_555
Na0 O43 2.485937 1_555
Na0 O64 2.488032 1_555
Na0 O7 2.792785 1_555
Na0 O21 2.890836 1_555
Na0 O14 2.933730 1_555
Na1 O6 2.349359 1_555
Na1 O42 2.453949 1_565
Na1 O44 2.474563 1_555
Na1 O64 2.476056 1_555
Na1 O63 2.492716 1_555
Na1 O13 2.807694 1_565
Na1 O27 2.859168 1_555
Na1 O23 2.980509 1_565
Na2 O11 2.387890 1_555
Na2 O45 2.453440 1_455
Na2 O47 2.465294 1_565
Na2 O62 2.496919 1_555
Na2 O61 2.529257 1_555
Na2 O16 2.824004 1_565
Na2 O26 2.855065 1_554
Na2 O18 2.972775 1_565
Na3 O46 2.441078 1_455
Na3 O47 2.441709 1_555
Na3 O61 2.451392 1_555
Na3 O60 2.454154 1_555
Na3 O25 2.657914 1_554
Na3 O10 2.675359 1_555
Na3 O20 2.837570 1_455
Na3 O15 2.872075 1_455
Na4 O38 2.302671 1_555
Na4 O0 2.405225 1_555
Na4 O58 2.447440 1_555
Na4 O57 2.467238 1_555
Na4 O36 2.554580 1_545
Na4 O21 2.796963 1_555
Na4 O31 2.923815 1_545
Na4 O29 2.979256 1_545
Na5 O58 2.327015 1_555
Na5 O37 2.429158 1_555
Na5 O36 2.446971 1_655
Na5 O59 2.571117 1_555
Na5 O22 2.676073 1_555
Na5 O1 2.678275 1_555
Na5 O32 2.846929 1_555
Na5 O27 2.960489 1_555
Na6 O38 2.315011 1_555
Na6 O42 2.585232 1_455
Na6 O43 2.610954 1_555
Na6 O37 2.645661 1_445
Na6 O36 2.681177 1_545
Na6 O44 2.684375 1_445
Na7 O41 2.487830 1_555
Na7 O39 2.537370 1_665
Na7 O45 2.606437 1_556
Na7 O40 2.637718 1_655
Na7 O46 2.664043 1_566
Na7 O47 2.700167 1_666
Na8 O48 2.337665 1_555
Na8 O55 2.582309 1_555
Na8 O50 2.603911 1_555
Na8 O49 2.603976 1_555
Na8 O56 2.622585 1_555
Na8 O54 2.731481 1_555
Na9 O53 2.300467 1_555
Na9 O58 2.523094 1_555
Na9 O51 2.562433 1_555
Na9 O52 2.595563 1_555
Na9 O57 2.650850 1_555
Na9 O59 2.757385 1_555
Na10 O62 2.558061 1_555
Na10 O61 2.580039 1_555
Na10 O67 2.601163 1_555
Na10 O60 2.618867 1_555
Na10 O66 2.647231 1_555
Na10 O68 2.718675 1_555
Na11 O65 2.521431 1_555
Na11 O63 2.526580 1_555
Na11 O64 2.577641 1_555
Na11 O70 2.674672 1_555
Na11 O71 2.710122 1_555
Na11 O69 2.729089 1_555
Nb0 O66 1.897292 1_555
Nb0 O32 1.931993 1_555
Nb0 O68 2.025753 1_555
Nb0 O67 2.027931 1_555
Nb0 O30 2.080416 1_555
Nb0 O31 2.090082 1_555
Nb1 O71 1.836372 1_555
Nb1 O35 2.003095 1_555
Nb1 O70 2.018768 1_555
Nb1 O34 2.036396 1_555
Nb1 O69 2.037954 1_555
Nb1 O33 2.150311 1_555
O0 Si0 1.609347 1_555
O0 Zn0 1.884992 1_555
O1 S0 1.470101 1_555
O1 Zn0 2.294516 1_665
O2 S1 1.465679 1_555
O2 Zn0 2.003878 1_655
O3 S2 1.461955 1_555
O3 Zn1 2.090933 1_455
O4 S3 1.458640 1_555
O4 Zn1 2.093565 1_565
O5 Si1 1.585934 1_555
O5 Zn1 1.860876 1_555
O6 Si1 1.627021 1_565
O6 Zn2 1.925333 1_555
O7 S2 1.485307 1_555
O7 Zn2 2.170458 1_445
O8 S3 1.478352 1_455
O8 Zn2 2.029245 1_455
O9 S0 1.473720 1_555
O9 Zn3 2.011899 1_655
O10 S1 1.479433 1_455
O10 Zn3 2.186607 1_545
O11 Si0 1.629550 1_565
O11 Zn3 1.910997 1_555
O12 S4 1.468790 1_555
O12 Zn4 2.057451 1_555
O13 S5 1.478768 1_555
O13 Zn4 2.137741 1_555
O14 S6 1.477705 1_555
O14 Zn4 2.161294 1_555
O15 S7 1.480695 1_555
O15 Zn5 2.214126 1_555
O16 S8 1.482077 1_555
O16 Zn5 2.118784 1_555
O17 S9 1.471439 1_555
O17 Zn5 2.066721 1_555
O18 S9 1.483769 1_555
O18 Zn6 2.086763 1_554
O19 S7 1.477456 1_555
O19 Zn6 2.039621 1_554
O20 S8 1.491688 1_555
O20 Zn6 2.107054 1_554
O21 S5 1.504561 1_555
O21 Zn7 2.114423 1_555
O22 S6 1.491877 1_555
O22 Zn7 2.072110 1_555
O23 S4 1.488649 1_555
O23 Zn7 2.080804 1_555
O24 S10 1.469117 1_555
O24 Zn8 1.983357 1_556
O25 S11 1.495096 1_555
O25 Zn8 2.027744 1_556
O26 S12 1.486660 1_555
O26 Zn8 2.063134 1_556
O27 S13 1.487314 1_555
O27 Zn9 2.151646 1_555
O28 Si2 1.606781 1_555
O28 Zn9 1.891338 1_555
O29 S14 1.475732 1_555
O29 Zn9 1.991040 1_555
O30 S14 1.514394 1_555
O31 S13 1.528917 1_555
O32 Si2 1.698220 1_555
O33 S11 1.513828 1_555
O34 S12 1.539079 1_555
O35 S10 1.541856 1_555
O36 S14 1.485205 1_555
O36 Zn0 2.355621 1_565
O37 S13 1.472246 1_555
O37 Zn0 2.353462 1_665
O38 Si2 1.621695 1_555
O38 Zn0 1.979330 1_555
O39 S11 1.474248 1_555
O39 Zn1 2.243696 1_455
O40 S12 1.472291 1_555
O40 Zn1 2.214986 1_465
O41 S10 1.466159 1_555
O41 Zn1 2.237594 1_565
O42 S4 1.514279 1_555
O42 Zn2 2.402954 1_545
O43 S5 1.495320 1_555
O43 Zn2 2.348778 1_445
O44 S6 1.492575 1_555
O44 Zn2 2.243662 1_555
O45 S7 1.495291 1_555
O45 Zn3 2.276909 1_655
O46 S8 1.499642 1_555
O46 Zn3 2.307223 1_645
O47 S9 1.513495 1_555
O47 Zn3 2.405750 1_545
O48 Si1 1.606352 1_555
O48 Zn4 1.916534 1_555
O49 S2 1.463892 1_555
O49 Zn4 2.215733 1_555
O50 S3 1.463224 1_555
O50 Zn4 2.178881 1_555
O51 S0 1.463371 1_555
O51 Zn5 2.222023 1_555
O52 S1 1.460646 1_555
O52 Zn5 2.173036 1_555
O53 Si0 1.611592 1_555
O53 Zn5 1.919502 1_555
O54 S10 1.476929 1_555
O54 Zn6 2.176212 1_555
O55 S11 1.485439 1_655
O55 Zn6 2.179508 1_555
O56 S12 1.474841 1_545
O56 Zn6 2.248523 1_555
O57 S13 1.475799 1_545
O57 Zn7 2.299405 1_555
O58 Si2 1.660598 1_555
O58 Zn7 2.024627 1_555
O59 S14 1.472428 1_655
O59 Zn7 2.245632 1_555
O60 S9 1.506085 1_555
O60 Zn8 2.148816 1_555
O61 S7 1.530615 1_455
O61 Zn8 2.291800 1_555
O62 S8 1.505082 1_565
O62 Zn8 2.208816 1_555
O63 S5 1.502185 1_565
O63 Zn9 2.266627 1_555
O64 S6 1.518931 1_555
O64 Zn9 2.302326 1_555
O65 S4 1.500674 1_455
O65 Zn9 2.159609 1_555
O66 Si0 1.728602 1_565
O67 S0 1.561992 1_555
O68 S1 1.554460 1_455
O69 S2 1.564573 1_555
O70 S3 1.558049 1_455
O71 Si1 1.784019 1_565
