# generated using pymatgen
data_Na2ScInP2SO12
_symmetry_space_group_name_H-M   'P 1'
_cell_length_a   8.97344691
_cell_length_b   8.96133323
_cell_length_c   23.01514897
_cell_angle_alpha   90.38231428
_cell_angle_beta   89.61298075
_cell_angle_gamma   119.77354649
_symmetry_Int_Tables_number   1
_chemical_formula_structural   Na2ScInP2SO12
_chemical_formula_sum   'Na12 Sc6 In6 P12 S6 O72'
_cell_volume   1606.38545778
_cell_formula_units_Z   6
loop_
 _symmetry_equiv_pos_site_id
 _symmetry_equiv_pos_as_xyz
  1  'x, y, z'
loop_
 _atom_site_type_symbol
 _atom_site_label
 _atom_site_symmetry_multiplicity
 _atom_site_fract_x
 _atom_site_fract_y
 _atom_site_fract_z
 _atom_site_occupancy
  Na  Na0  1  0.99646787  0.63007639  0.25253516  1
  Na  Na1  1  0.37127780  0.00594380  0.75174095  1
  Na  Na2  1  0.66216328  0.96205720  0.58535749  1
  Na  Na3  1  0.03722643  0.33666044  0.08564547  1
  Na  Na4  1  0.32777200  0.29579143  0.91896199  1
  Na  Na5  1  0.70383890  0.67200052  0.41878607  1
  Na  Na6  1  0.01858357  0.99630063  0.50035534  1
  Na  Na7  1  0.00377475  0.98282809  0.00030997  1
  Na  Na8  1  0.68564599  0.32929042  0.83374710  1
  Na  Na9  1  0.66996500  0.31506214  0.33381620  1
  Na  Na10  1  0.35118412  0.66340143  0.16725998  1
  Na  Na11  1  0.33651517  0.64979619  0.66683614  1
  Sc  Sc0  1  0.99230721  0.00242499  0.34996950  1
  Sc  Sc1  1  0.00195467  0.00084226  0.64839549  1
  Sc  Sc2  1  0.65945831  0.33670213  0.68339398  1
  Sc  Sc3  1  0.66379511  0.34175239  0.18456786  1
  Sc  Sc4  1  0.66603948  0.33102624  0.48209269  1
  Sc  Sc5  1  0.33494863  0.66673112  0.31644723  1
  In  In0  1  0.99728714  0.00668221  0.84863361  1
  In  In1  1  0.00189898  0.99848383  0.15116881  1
  In  In2  1  0.66836514  0.33216729  0.98364135  1
  In  In3  1  0.32616209  0.67001644  0.01737769  1
  In  In4  1  0.33056519  0.67359713  0.51642035  1
  In  In5  1  0.33375616  0.66473200  0.81565307  1
  P  P0  1  0.70305613  0.70606655  0.25091557  1
  P  P1  1  0.99993225  0.29769787  0.24860119  1
  P  P2  1  0.29507604  0.29617181  0.74979811  1
  P  P3  1  0.70283174  0.00142339  0.74774824  1
  P  P4  1  0.37267435  0.04209773  0.58420115  1
  P  P5  1  0.66585080  0.62825327  0.58165631  1
  P  P6  1  0.95996078  0.62992307  0.08471302  1
  P  P7  1  0.37016910  0.33405099  0.08203331  1
  P  P8  1  0.03513791  0.37015998  0.91740759  1
  P  P9  1  0.33255457  0.96553004  0.91473797  1
  P  P10  1  0.62836948  0.96289273  0.41709156  1
  P  P11  1  0.03557864  0.66751680  0.41509006  1
  S  S0  1  0.29702511  0.00057377  0.25142183  1
  S  S1  1  0.99655299  0.70428183  0.74958200  1
  S  S2  1  0.95965115  0.33471701  0.58398594  1
  S  S3  1  0.66542595  0.03723907  0.08472121  1
  S  S4  1  0.63152178  0.66867323  0.91742929  1
  S  S5  1  0.33098953  0.37031022  0.41710909  1
  O  O0  1  0.21168921  0.02528141  0.30251077  1
  O  O1  1  0.81891105  0.78850422  0.30510606  1
  O  O2  1  0.98096920  0.18104776  0.30026528  1
  O  O3  1  0.22836294  0.19042278  0.80695596  1
  O  O4  1  0.97006076  0.77725529  0.80377551  1
  O  O5  1  0.80581151  0.02279396  0.80332353  1
  O  O6  1  0.79021521  0.97820456  0.69278658  1
  O  O7  1  0.17739253  0.19597219  0.69827897  1
  O  O8  1  0.02105264  0.81623449  0.69878294  1
  O  O9  1  0.78452245  0.81510038  0.19629900  1
  O  O10  1  0.03075851  0.22675820  0.19081699  1
  O  O11  1  0.19128846  0.96505754  0.19815986  1
  O  O12  1  0.87684923  0.35592809  0.63624243  1
  O  O13  1  0.48285715  0.12387484  0.63938595  1
  O  O14  1  0.64920425  0.51721462  0.63463041  1
  O  O15  1  0.87331459  0.51772428  0.13941935  1
  O  O16  1  0.64585359  0.12494968  0.13625597  1
  O  O17  1  0.48297453  0.34788153  0.13430881  1
  O  O18  1  0.44310909  0.30859161  0.02393095  1
  O  O19  1  0.85565884  0.54545743  0.02944865  1
  O  O20  1  0.69334207  0.13871622  0.03084445  1
  O  O21  1  0.46693097  0.15216625  0.53042171  1
  O  O22  1  0.68776632  0.54611846  0.52501416  1
  O  O23  1  0.85358144  0.30973859  0.53141444  1
  O  O24  1  0.55206541  0.69346924  0.97034883  1
  O  O25  1  0.14396494  0.44427169  0.97363529  1
  O  O26  1  0.31346206  0.85869844  0.96910355  1
  O  O27  1  0.56182107  0.85353552  0.47367198  1
  O  O28  1  0.30161503  0.44369913  0.47063735  1
  O  O29  1  0.14251468  0.69305904  0.47004584  1
  O  O30  1  0.12090048  0.64252304  0.35994081  1
  O  O31  1  0.51068695  0.86525919  0.36539461  1
  O  O32  1  0.35897247  0.48280180  0.36611605  1
  O  O33  1  0.12388024  0.48026281  0.86340192  1
  O  O34  1  0.35893158  0.88864656  0.85759147  1
  O  O35  1  0.52521256  0.64018538  0.86478448  1
  O  O36  1  0.01236191  0.82814264  0.40922331  1
  O  O37  1  0.80836128  0.97890204  0.40868980  1
  O  O38  1  0.18231222  0.19652314  0.40893757  1
  O  O39  1  0.02307721  0.19063015  0.91287115  1
  O  O40  1  0.16920568  0.98512758  0.91159365  1
  O  O41  1  0.80548622  0.81995350  0.91175437  1
  O  O42  1  0.97038498  0.17329159  0.58832868  1
  O  O43  1  0.19200142  0.02221555  0.58947246  1
  O  O44  1  0.82476203  0.81320638  0.58789124  1
  O  O45  1  0.98261543  0.81200160  0.08917751  1
  O  O46  1  0.82476427  0.02442007  0.08892394  1
  O  O47  1  0.18397518  0.17698166  0.08748087  1
  O  O48  1  0.68047911  0.16242314  0.74244312  1
  O  O49  1  0.47501390  0.31209408  0.74208318  1
  O  O50  1  0.84779670  0.53027994  0.74221482  1
  O  O51  1  0.69255242  0.52688340  0.24490915  1
  O  O52  1  0.83678347  0.31721288  0.24484348  1
  O  O53  1  0.46937889  0.15340958  0.24499372  1
  O  O54  1  0.64224022  0.50791807  0.92132546  1
  O  O55  1  0.85473748  0.35127438  0.92165514  1
  O  O56  1  0.49044714  0.15183177  0.91953237  1
  O  O57  1  0.64573581  0.14240445  0.42288739  1
  O  O58  1  0.49261342  0.36090787  0.42150726  1
  O  O59  1  0.85095766  0.50768740  0.42083903  1
  O  O60  1  0.35297615  0.49939828  0.08042781  1
  O  O61  1  0.13818204  0.63772727  0.08219362  1
  O  O62  1  0.51154072  0.86412274  0.08056483  1
  O  O63  1  0.36203746  0.86255721  0.58064560  1
  O  O64  1  0.50259462  0.64885303  0.57932965  1
  O  O65  1  0.13371635  0.48605135  0.57896835  1
  O  O66  1  0.31154462  0.84244163  0.25791346  1
  O  O67  1  0.52168979  0.68204744  0.25864640  1
  O  O68  1  0.15672300  0.48266235  0.25653892  1
  O  O69  1  0.31070311  0.47563952  0.75319620  1
  O  O70  1  0.15929819  0.69646172  0.75221969  1
  O  O71  1  0.51703464  0.84106235  0.75136899  1
loop_
_geom_bond_atom_site_label_1
_geom_bond_atom_site_label_2
_geom_bond_distance
_geom_bond_site_symmetry_2
Na0 O68 2.389906 1_655
Na0 O51 2.413101 1_555
Na0 O52 2.439689 1_555
Na0 O66 2.507714 1_655
Na0 O30 2.698093 1_655
Na0 O15 2.812721 1_555
Na0 O1 2.866306 1_555
Na0 O11 2.905561 1_655
Na1 O71 2.411007 1_545
Na1 O48 2.417121 1_555
Na1 O49 2.431417 1_555
Na1 O70 2.463907 1_545
Na1 O34 2.639497 1_545
Na1 O13 2.785082 1_555
Na1 O3 2.836908 1_555
Na1 O8 2.995060 1_545
Na2 O63 2.382788 1_555
Na2 O44 2.417993 1_555
Na2 O64 2.439954 1_555
Na2 O42 2.457398 1_565
Na2 O6 2.706105 1_555
Na2 O27 2.737155 1_555
Na2 O13 2.916163 1_565
Na2 O23 2.984462 1_565
Na3 O47 2.378317 1_555
Na3 O61 2.383379 1_555
Na3 O60 2.462352 1_555
Na3 O46 2.484479 1_455
Na3 O10 2.608733 1_555
Na3 O25 2.752377 1_554
Na3 O15 2.940521 1_455
Na3 O20 2.974236 1_455
Na4 O56 2.380360 1_555
Na4 O39 2.414089 1_555
Na4 O40 2.422118 1_545
Na4 O54 2.500542 1_555
Na4 O18 2.613993 1_556
Na4 O3 2.737630 1_555
Na4 O25 2.864172 1_555
Na4 O35 2.968101 1_555
Na5 O36 2.412384 1_655
Na5 O59 2.417758 1_555
Na5 O37 2.437477 1_555
Na5 O58 2.474121 1_555
Na5 O22 2.672288 1_555
Na5 O27 2.806424 1_555
Na5 O1 2.816183 1_555
Na5 O32 2.955200 1_555
Na6 O43 2.521940 1_565
Na6 O36 2.559088 1_555
Na6 O44 2.634114 1_455
Na6 O38 2.682402 1_565
Na6 O42 2.725580 1_465
Na6 O37 2.791231 1_455
Na7 O40 2.510455 1_554
Na7 O45 2.512095 1_455
Na7 O47 2.621082 1_565
Na7 O41 2.623040 1_454
Na7 O39 2.696761 1_564
Na7 O46 2.723761 1_465
Na8 O55 2.484713 1_555
Na8 O48 2.558228 1_555
Na8 O56 2.593053 1_555
Na8 O50 2.684323 1_555
Na8 O54 2.709685 1_555
Na8 O49 2.794124 1_555
Na9 O57 2.519105 1_555
Na9 O52 2.522858 1_555
Na9 O59 2.615789 1_555
Na9 O53 2.633998 1_555
Na9 O58 2.714707 1_555
Na9 O51 2.737763 1_555
Na10 O60 2.477479 1_555
Na10 O67 2.564669 1_555
Na10 O62 2.593415 1_555
Na10 O68 2.660717 1_555
Na10 O61 2.673403 1_555
Na10 O66 2.750622 1_555
Na11 O69 2.473062 1_555
Na11 O64 2.499782 1_555
Na11 O71 2.566622 1_555
Na11 O65 2.629185 1_555
Na11 O70 2.678193 1_555
Na11 O63 2.689488 1_555
In0 O5 2.081612 1_555
In0 O3 2.129376 1_655
In0 O39 2.133036 1_655
In0 O4 2.197455 1_545
In0 O40 2.201549 1_645
In0 O41 2.238555 1_545
In1 O9 2.096712 1_455
In1 O10 2.129917 1_565
In1 O45 2.131320 1_455
In1 O11 2.163870 1_555
In1 O47 2.186328 1_565
In1 O46 2.243868 1_465
In2 O19 2.096693 1_556
In2 O18 2.131523 1_556
In2 O55 2.132635 1_555
In2 O20 2.156403 1_556
In2 O56 2.185218 1_555
In2 O54 2.234680 1_555
In3 O26 2.079541 1_554
In3 O25 2.118786 1_554
In3 O61 2.154403 1_555
In3 O24 2.207996 1_554
In3 O60 2.213830 1_555
In3 O62 2.243424 1_555
In4 O29 2.082356 1_555
In4 O27 2.131841 1_555
In4 O63 2.151597 1_555
In4 O28 2.205757 1_555
In4 O64 2.214254 1_555
In4 O65 2.250929 1_555
In5 O33 2.095612 1_555
In5 O34 2.129769 1_555
In5 O69 2.145657 1_555
In5 O35 2.164143 1_555
In5 O71 2.192721 1_555
In5 O70 2.267487 1_555
O0 S0 1.473332 1_555
O0 Sc0 2.164237 1_455
O1 P0 1.557093 1_555
O1 Sc0 2.048177 1_565
O2 P1 1.540371 1_555
O2 Sc0 2.017166 1_555
O3 P2 1.558695 1_555
O4 S1 1.476259 1_555
O5 P3 1.537393 1_555
O6 P3 1.550284 1_565
O6 Sc1 2.070946 1_665
O7 P2 1.545434 1_555
O7 Sc1 2.029235 1_555
O8 S1 1.488245 1_455
O8 Sc1 2.102590 1_565
O9 P0 1.537456 1_555
O10 P1 1.551679 1_455
O11 S0 1.488226 1_565
O12 S2 1.469631 1_555
O12 Sc2 2.157048 1_555
O13 P4 1.553278 1_555
O13 Sc2 2.041787 1_555
O14 P5 1.537863 1_555
O14 Sc2 2.014500 1_555
O15 P6 1.558205 1_555
O15 Sc3 2.037710 1_555
O16 S3 1.475561 1_555
O16 Sc3 2.167908 1_555
O17 P7 1.541882 1_555
O17 Sc3 2.022006 1_555
O18 P7 1.549535 1_555
O19 P6 1.538296 1_555
O20 S3 1.487237 1_555
O21 P4 1.547223 1_555
O21 Sc4 2.037483 1_555
O22 P5 1.551566 1_555
O22 Sc4 2.081616 1_555
O23 S2 1.490086 1_555
O23 Sc4 2.122412 1_555
O24 S4 1.477548 1_555
O25 P8 1.559129 1_555
O26 P9 1.536768 1_555
O27 P10 1.561424 1_555
O28 S5 1.475362 1_555
O29 P11 1.538619 1_555
O30 P11 1.549447 1_555
O30 Sc5 2.073997 1_555
O31 P10 1.543309 1_555
O31 Sc5 2.032723 1_555
O32 S5 1.488974 1_555
O32 Sc5 2.109817 1_555
O33 P8 1.541181 1_555
O34 P9 1.551199 1_555
O35 S4 1.487574 1_555
O36 P11 1.560246 1_555
O36 Sc0 2.154590 1_465
O37 P10 1.559710 1_555
O37 Sc0 2.055127 1_565
O38 S5 1.475354 1_555
O38 Sc0 2.197449 1_455
O39 P8 1.560745 1_555
O40 P9 1.562664 1_555
O41 S4 1.479744 1_555
O42 S2 1.500773 1_555
O42 Sc1 2.201860 1_655
O43 P4 1.544569 1_555
O43 Sc1 2.105203 1_555
O44 P5 1.566335 1_555
O44 Sc1 2.153608 1_665
O45 P6 1.543644 1_555
O46 S3 1.494009 1_555
O47 P7 1.566014 1_555
O48 P3 1.557826 1_555
O48 Sc2 2.155464 1_555
O49 P2 1.557780 1_555
O49 Sc2 2.055184 1_555
O50 S1 1.474565 1_555
O50 Sc2 2.187715 1_555
O51 P0 1.566281 1_555
O51 Sc3 2.072805 1_555
O52 P1 1.561270 1_555
O52 Sc3 2.180517 1_555
O53 S0 1.478377 1_555
O53 Sc3 2.213716 1_555
O54 S4 1.493992 1_555
O55 P8 1.544263 1_655
O56 P9 1.567583 1_545
O57 P10 1.542183 1_545
O57 Sc4 2.100908 1_555
O58 S5 1.498080 1_555
O58 Sc4 2.210436 1_555
O59 P11 1.567335 1_655
O59 Sc4 2.153226 1_555
O60 P7 1.564781 1_555
O61 P6 1.566399 1_455
O62 S3 1.481530 1_565
O63 P4 1.565333 1_565
O64 P5 1.566160 1_555
O65 S2 1.479234 1_455
O66 S0 1.494608 1_565
O66 Sc5 2.167689 1_555
O67 P0 1.541226 1_555
O67 Sc5 2.083370 1_555
O68 P1 1.563215 1_455
O68 Sc5 2.135221 1_555
O69 P2 1.544928 1_555
O70 S1 1.498071 1_455
O71 P3 1.572253 1_565
