# generated using pymatgen
data_MgTe2MoW3(Se2S)2
_symmetry_space_group_name_H-M   'P 1'
_cell_length_a   3.33582200
_cell_length_b   3.33601424
_cell_length_c   45.33465800
_cell_angle_alpha   90.00012208
_cell_angle_beta   90.00000000
_cell_angle_gamma   119.99811356
_symmetry_Int_Tables_number   1
_chemical_formula_structural   MgTe2MoW3(Se2S)2
_chemical_formula_sum   'Mg1 Te2 Mo1 W3 Se4 S2'
_cell_volume   436.91805899
_cell_formula_units_Z   1
loop_
 _symmetry_equiv_pos_site_id
 _symmetry_equiv_pos_as_xyz
  1  'x, y, z'
loop_
 _atom_site_type_symbol
 _atom_site_label
 _atom_site_symmetry_multiplicity
 _atom_site_fract_x
 _atom_site_fract_y
 _atom_site_fract_z
 _atom_site_occupancy
  Mg  Mg0  1  0.00001900  0.00003900  0.55870000  1
  Te  Te0  1  0.66666500  0.33333100  0.05157600  1
  Te  Te1  1  0.66666500  0.33332900  0.13540300  1
  Mo  Mo0  1  0.33334000  0.66668100  0.09348900  1
  W  W0  1  0.33331600  0.66663200  0.46282300  1
  W  W1  1  0.66667300  0.33334500  0.28207600  1
  W  W2  1  0.66667100  0.33334200  0.66459600  1
  Se  Se0  1  0.33334000  0.66668000  0.31908600  1
  Se  Se1  1  0.33334400  0.66668800  0.70155500  1
  Se  Se2  1  0.33334800  0.66669600  0.24506300  1
  Se  Se3  1  0.33334100  0.66668200  0.62730700  1
  S  S0  1  0.66664600  0.33329100  0.42937800  1
  S  S1  1  0.66663100  0.33326200  0.49672600  1
loop_
_geom_bond_atom_site_label_1
_geom_bond_atom_site_label_2
_geom_bond_distance
_geom_bond_site_symmetry_2
Mo0 Te0 2.705529 1_455
Mo0 Te0 2.705529 1_555
Mo0 Te0 2.705561 1_565
Mo0 Te1 2.705564 1_455
Mo0 Te1 2.705568 1_555
Mo0 Te1 2.705582 1_565
Se0 W1 2.554311 1_455
Se0 W1 2.554314 1_555
Se0 W1 2.554395 1_565
Se1 W2 2.552806 1_455
Se1 W2 2.552807 1_555
Se1 W2 2.552853 1_565
Se2 W1 2.554421 1_455
Se2 W1 2.554424 1_555
Se2 W1 2.554443 1_565
Se3 W2 2.562647 1_455
Se3 W2 2.562647 1_555
Se3 W2 2.562704 1_565
S0 W0 2.451188 1_655
S0 W0 2.451191 1_555
S0 W0 2.451255 1_545
S1 W0 2.464080 1_545
S1 W0 2.464122 1_655
S1 W0 2.464123 1_555
