# generated using pymatgen
data_NaTiNbSi(PO6)2
_symmetry_space_group_name_H-M   'P 1'
_cell_length_a   8.76740647
_cell_length_b   8.76397465
_cell_length_c   22.65252708
_cell_angle_alpha   90.14026262
_cell_angle_beta   90.00000000
_cell_angle_gamma   120.01295426
_symmetry_Int_Tables_number   1
_chemical_formula_structural   NaTiNbSi(PO6)2
_chemical_formula_sum   'Na6 Ti6 Nb6 Si6 P12 O72'
_cell_volume   1507.16605041
_cell_formula_units_Z   6
loop_
 _symmetry_equiv_pos_site_id
 _symmetry_equiv_pos_as_xyz
  1  'x, y, z'
loop_
 _atom_site_type_symbol
 _atom_site_label
 _atom_site_symmetry_multiplicity
 _atom_site_fract_x
 _atom_site_fract_y
 _atom_site_fract_z
 _atom_site_occupancy
  Na  Na0  1  0.00030516  0.00117362  0.49706356  1
  Na  Na1  1  0.00086846  0.00117362  0.99706356  1
  Na  Na2  1  0.66654219  0.33352587  0.83053873  1
  Na  Na3  1  0.66698468  0.33352587  0.33053873  1
  Na  Na4  1  0.33428370  0.66849440  0.16376012  1
  Na  Na5  1  0.33420970  0.66849440  0.66376012  1
  Ti  Ti0  1  0.99957762  0.99808327  0.35374035  1
  Ti  Ti1  1  0.99850565  0.99808327  0.85374035  1
  Ti  Ti2  1  0.67785313  0.33966981  0.68723366  1
  Ti  Ti3  1  0.66181767  0.33966981  0.18723366  1
  Ti  Ti4  1  0.32989678  0.65572352  0.02046121  1
  Ti  Ti5  1  0.32582574  0.65572352  0.52046121  1
  Nb  Nb0  1  0.00241227  -0.00026230  0.64485718  1
  Nb  Nb1  1  0.99732543  -0.00026230  0.14485718  1
  Nb  Nb2  1  0.66461476  0.33132442  0.97833056  1
  Nb  Nb3  1  0.66671066  0.33132442  0.47833056  1
  Nb  Nb4  1  0.33683170  0.66371818  0.31165186  1
  Nb  Nb5  1  0.32688548  0.66371818  0.81165186  1
  Si  Si0  1  0.71513972  0.70954008  0.25101825  1
  Si  Si1  1  0.99440035  0.70954008  0.75101825  1
  Si  Si2  1  0.95845170  0.33832631  0.58385019  1
  Si  Si3  1  0.37987561  0.33832631  0.08385019  1
  Si  Si4  1  0.04626669  0.37295605  0.91728120  1
  Si  Si5  1  0.32668836  0.37295605  0.41728120  1
  P  P0  1  0.28837738  0.00373902  0.25076511  1
  P  P1  1  0.99376714  0.28424283  0.25107839  1
  P  P2  1  0.29047570  0.28424283  0.75107839  1
  P  P3  1  0.71536164  0.00373902  0.75076511  1
  P  P4  1  0.38355953  0.04451156  0.58456681  1
  P  P5  1  0.66197309  0.61801341  0.58433640  1
  P  P6  1  0.95604132  0.61801341  0.08433640  1
  P  P7  1  0.66095303  0.04451156  0.08456681  1
  P  P8  1  0.62249245  0.67095625  0.91748380  1
  P  P9  1  0.32826956  0.94994973  0.91795556  1
  P  P10  1  0.62167917  0.94994973  0.41795556  1
  P  P11  1  0.04846280  0.67095625  0.41748380  1
  O  O0  1  0.20249206  0.03192035  0.30570280  1
  O  O1  1  0.83671552  0.80703956  0.30838224  1
  O  O2  1  0.97224671  0.17145998  0.30553922  1
  O  O3  1  0.19921327  0.17145998  0.80553922  1
  O  O4  1  0.97032404  0.80703956  0.80838224  1
  O  O5  1  0.82942829  0.03192035  0.80570280  1
  O  O6  1  0.80055881  0.97284356  0.69499970  1
  O  O7  1  0.17224669  0.20305349  0.69495099  1
  O  O8  1  0.02948732  0.83351665  0.69240893  1
  O  O9  1  0.80402933  0.83351665  0.19240893  1
  O  O10  1  0.03080680  0.20305349  0.19495099  1
  O  O11  1  0.17228475  0.97284356  0.19499970  1
  O  O12  1  0.86124840  0.36400886  0.64115215  1
  O  O13  1  0.49524973  0.13447233  0.63916806  1
  O  O14  1  0.63533254  0.50457220  0.63912976  1
  O  O15  1  0.86924067  0.50457220  0.13912976  1
  O  O16  1  0.63922360  0.13447233  0.13916806  1
  O  O17  1  0.50276146  0.36400886  0.14115215  1
  O  O18  1  0.47048266  0.30383019  0.02570975  1
  O  O19  1  0.83941429  0.53387826  0.02840288  1
  O  O20  1  0.69682247  0.16180091  0.02821060  1
  O  O21  1  0.46497944  0.16180091  0.52821060  1
  O  O22  1  0.69446497  0.53387826  0.52840288  1
  O  O23  1  0.83334852  0.30383019  0.52570975  1
  O  O24  1  0.53503511  0.69725459  0.97239513  1
  O  O25  1  0.16969314  0.47206525  0.97451079  1
  O  O26  1  0.30486784  0.83866519  0.97244659  1
  O  O27  1  0.53379635  0.83866519  0.47244659  1
  O  O28  1  0.30237111  0.47206525  0.47451079  1
  O  O29  1  0.16221848  0.69725459  0.47239513  1
  O  O30  1  0.13141731  0.63851317  0.36150686  1
  O  O31  1  0.50503944  0.86860926  0.36148975  1
  O  O32  1  0.36223985  0.50061538  0.35946410  1
  O  O33  1  0.13837453  0.50061538  0.85946410  1
  O  O34  1  0.36356881  0.86860926  0.86148975  1
  O  O35  1  0.50709486  0.63851317  0.86150686  1
  O  O36  1  0.02666365  0.83290145  0.41000730  1
  O  O37  1  0.80566713  0.97325577  0.40928051  1
  O  O38  1  0.15566342  0.18090889  0.40849621  1
  O  O39  1  0.02524547  0.18090889  0.90849621  1
  O  O40  1  0.16758864  0.97325577  0.90928051  1
  O  O41  1  0.80623780  0.83290145  0.91000730  1
  O  O42  1  0.97683030  0.16274731  0.59088178  1
  O  O43  1  0.19776810  0.02777180  0.59022574  1
  O  O44  1  0.83062047  0.80311680  0.59043023  1
  O  O45  1  0.97249632  0.80311680  0.09043023  1
  O  O46  1  0.83000370  0.02777180  0.09022574  1
  O  O47  1  0.18591701  0.16274731  0.09088178  1
  O  O48  1  0.69070451  0.16413517  0.74265640  1
  O  O49  1  0.47187260  0.30370060  0.74273763  1
  O  O50  1  0.82276340  0.51629814  0.74283735  1
  O  O51  1  0.69353574  0.51629814  0.24283735  1
  O  O52  1  0.83182901  0.30370060  0.24273763  1
  O  O53  1  0.47343166  0.16413517  0.24265640  1
  O  O54  1  0.64027709  0.50371675  0.92397790  1
  O  O55  1  0.85321045  0.35772690  0.92416119  1
  O  O56  1  0.49683695  0.13624202  0.92336662  1
  O  O57  1  0.63940607  0.13624202  0.42336662  1
  O  O58  1  0.50451745  0.35772690  0.42416119  1
  O  O59  1  0.86344066  0.50371675  0.42397790  1
  O  O60  1  0.36124847  0.51155998  0.07618542  1
  O  O61  1  0.14103657  0.64338780  0.07618541  1
  O  O62  1  0.49987886  0.86179306  0.07563885  1
  O  O63  1  0.36191321  0.86179306  0.57563885  1
  O  O64  1  0.50235023  0.64338780  0.57618541  1
  O  O65  1  0.15031051  0.51155998  0.57618542  1
  O  O66  1  0.30342451  0.83522281  0.25716833  1
  O  O67  1  0.52086348  0.69293048  0.25691313  1
  O  O68  1  0.16085362  0.47077905  0.25730675  1
  O  O69  1  0.30992443  0.47077905  0.75730675  1
  O  O70  1  0.17206600  0.69293048  0.75691313  1
  O  O71  1  0.53179730  0.83522281  0.75716833  1
loop_
_geom_bond_atom_site_label_1
_geom_bond_atom_site_label_2
_geom_bond_distance
_geom_bond_site_symmetry_2
Na0 O38 2.496145 1_555
Na0 O36 2.538484 1_545
Na0 O37 2.550686 1_445
Na0 O42 2.615506 1_455
Na0 O43 2.664397 1_555
Na0 O44 2.670951 1_445
Na1 O39 2.496145 1_555
Na1 O41 2.538484 1_445
Na1 O40 2.550686 1_545
Na1 O47 2.615506 1_556
Na1 O46 2.664397 1_456
Na1 O45 2.670951 1_446
Na2 O50 2.491858 1_555
Na2 O49 2.547206 1_555
Na2 O48 2.551857 1_555
Na2 O55 2.621394 1_555
Na2 O56 2.658790 1_555
Na2 O54 2.661959 1_555
Na3 O51 2.491858 1_555
Na3 O52 2.547206 1_555
Na3 O53 2.551857 1_555
Na3 O58 2.621394 1_555
Na3 O57 2.658790 1_555
Na3 O59 2.661959 1_555
Na4 O60 2.488949 1_555
Na4 O61 2.545451 1_555
Na4 O62 2.553129 1_555
Na4 O67 2.611865 1_555
Na4 O66 2.658164 1_555
Na4 O68 2.680891 1_555
Na5 O65 2.488949 1_555
Na5 O64 2.545451 1_555
Na5 O63 2.553129 1_555
Na5 O70 2.611865 1_555
Na5 O71 2.658164 1_555
Na5 O69 2.680891 1_555
Nb0 O8 1.921562 1_545
Nb0 O42 1.978706 1_455
Nb0 O7 2.003915 1_555
Nb0 O6 2.015364 1_445
Nb0 O43 2.026313 1_555
Nb0 O44 2.037434 1_445
Nb1 O9 1.921562 1_545
Nb1 O47 1.978706 1_655
Nb1 O10 2.003915 1_655
Nb1 O11 2.015364 1_645
Nb1 O46 2.026313 1_555
Nb1 O45 2.037434 1_545
Nb2 O18 1.922980 1_556
Nb2 O55 1.977861 1_555
Nb2 O20 1.997911 1_556
Nb2 O19 2.013711 1_556
Nb2 O56 2.027488 1_555
Nb2 O54 2.043454 1_555
Nb3 O23 1.922980 1_555
Nb3 O58 1.977861 1_555
Nb3 O21 1.997911 1_555
Nb3 O22 2.013711 1_555
Nb3 O57 2.027488 1_555
Nb3 O59 2.043454 1_555
Nb4 O32 1.895272 1_555
Nb4 O67 1.948001 1_555
Nb4 O31 2.003672 1_555
Nb4 O68 2.033485 1_555
Nb4 O30 2.042272 1_555
Nb4 O66 2.077908 1_555
Nb5 O33 1.895272 1_555
Nb5 O70 1.948001 1_555
Nb5 O34 2.003672 1_555
Nb5 O69 2.033485 1_555
Nb5 O35 2.042272 1_555
Nb5 O71 2.077908 1_555
O0 P0 1.536640 1_555
O0 Ti0 1.977580 1_445
O1 Si0 1.624268 1_555
O1 Ti0 1.870233 1_555
O2 P1 1.534257 1_555
O2 Ti0 1.982615 1_545
O3 P2 1.534257 1_555
O3 Ti1 1.982615 1_445
O4 Si1 1.624268 1_555
O4 Ti1 1.870233 1_555
O5 P3 1.536640 1_555
O5 Ti1 1.977580 1_545
O6 P3 1.558095 1_565
O7 P2 1.566845 1_555
O8 Si1 1.646365 1_455
O9 Si0 1.646365 1_555
O10 P1 1.566845 1_455
O11 P0 1.558095 1_565
O12 Si2 1.628588 1_555
O12 Ti2 1.838063 1_555
O13 P4 1.527478 1_555
O13 Ti2 2.023073 1_555
O14 P5 1.535355 1_555
O14 Ti2 1.990391 1_555
O15 P6 1.535355 1_555
O15 Ti3 1.990391 1_555
O16 P7 1.527478 1_555
O16 Ti3 2.023073 1_555
O17 Si3 1.628588 1_555
O17 Ti3 1.838062 1_555
O18 Si3 1.641744 1_555
O19 P6 1.560700 1_555
O20 P7 1.571079 1_555
O21 P4 1.571079 1_555
O22 P5 1.560700 1_555
O23 Si2 1.641744 1_555
O24 P8 1.537430 1_555
O24 Ti4 1.974786 1_556
O25 Si4 1.631038 1_555
O25 Ti4 1.837705 1_556
O26 P9 1.524025 1_555
O26 Ti4 2.040147 1_556
O27 P10 1.524025 1_555
O27 Ti5 2.040147 1_555
O28 Si5 1.631038 1_555
O28 Ti5 1.837705 1_555
O29 P11 1.537430 1_555
O29 Ti5 1.974786 1_555
O30 P11 1.556529 1_555
O31 P10 1.567252 1_555
O32 Si5 1.650003 1_555
O33 Si4 1.650003 1_555
O34 P9 1.567252 1_555
O35 P8 1.556529 1_555
O36 P11 1.533661 1_555
O36 Ti0 2.032143 1_455
O37 P10 1.533951 1_555
O37 Ti0 2.037600 1_555
O38 Si5 1.610718 1_555
O38 Ti0 1.942996 1_445
O39 Si4 1.610722 1_555
O39 Ti1 1.942996 1_445
O40 P9 1.533942 1_555
O40 Ti1 2.037600 1_455
O41 P8 1.533666 1_555
O41 Ti1 2.032143 1_555
O42 Si2 1.633521 1_555
O43 P4 1.565990 1_555
O44 P5 1.560865 1_555
O45 P6 1.560869 1_555
O46 P7 1.565982 1_555
O47 Si3 1.633526 1_555
O48 P3 1.536800 1_555
O48 Ti2 2.034297 1_555
O49 P2 1.524118 1_555
O49 Ti2 2.091399 1_555
O50 Si1 1.617386 1_555
O50 Ti2 1.902591 1_555
O51 Si0 1.617389 1_555
O51 Ti3 1.902591 1_555
O52 P1 1.524109 1_555
O52 Ti3 2.091399 1_555
O53 P0 1.536805 1_555
O53 Ti3 2.034297 1_555
O54 P8 1.556875 1_555
O55 Si4 1.637410 1_655
O56 P9 1.565234 1_545
O57 P10 1.565227 1_545
O58 Si5 1.637427 1_555
O59 P11 1.556865 1_655
O60 Si3 1.615898 1_555
O60 Ti4 1.902753 1_555
O61 P6 1.534136 1_455
O61 Ti4 2.041662 1_555
O62 P7 1.528274 1_565
O62 Ti4 2.083579 1_555
O63 P4 1.528267 1_565
O63 Ti5 2.083579 1_555
O64 P5 1.534153 1_555
O64 Ti5 2.041662 1_555
O65 Si2 1.615888 1_455
O65 Ti5 1.902753 1_555
O66 P0 1.554205 1_565
O67 Si0 1.640824 1_555
O68 P1 1.562543 1_455
O69 P2 1.562547 1_555
O70 Si1 1.640815 1_455
O71 P3 1.554210 1_565
