# generated using pymatgen
data_Li3Bi5(PO4)6
_symmetry_space_group_name_H-M   'P 1'
_cell_length_a   8.74772800
_cell_length_b   8.84558178
_cell_length_c   8.85348118
_cell_angle_alpha   108.70041409
_cell_angle_beta   109.74956472
_cell_angle_gamma   109.27278973
_symmetry_Int_Tables_number   1
_chemical_formula_structural   Li3Bi5(PO4)6
_chemical_formula_sum   'Li3 Bi5 P6 O24'
_cell_volume   531.78358300
_cell_formula_units_Z   1
loop_
 _symmetry_equiv_pos_site_id
 _symmetry_equiv_pos_as_xyz
  1  'x, y, z'
loop_
 _atom_site_type_symbol
 _atom_site_label
 _atom_site_symmetry_multiplicity
 _atom_site_fract_x
 _atom_site_fract_y
 _atom_site_fract_z
 _atom_site_occupancy
  Li  Li0  1  0.50511900  0.97369200  0.77464700  1
  Li  Li1  1  0.99665200  0.28015600  0.49173900  1
  Li  Li2  1  0.70064800  0.73115800  0.71844300  1
  Bi  Bi0  1  0.83377100  0.49081000  0.98934800  1
  Bi  Bi1  1  0.51365600  0.01244100  0.35292700  1
  Bi  Bi2  1  0.34298300  0.50112300  0.98747400  1
  Bi  Bi3  1  0.14401900  0.16130800  0.16319700  1
  Bi  Bi4  1  0.00193500  0.84030000  0.51277700  1
  P  P0  1  0.74841000  0.87615000  0.12050000  1
  P  P1  1  0.25294000  0.62268700  0.37379700  1
  P  P2  1  0.12125800  0.75256300  0.88125000  1
  P  P3  1  0.62506400  0.37888500  0.25318700  1
  P  P4  1  0.36865000  0.24404100  0.62657700  1
  P  P5  1  0.87417600  0.12777500  0.74687100  1
  O  O0  1  0.92336500  0.06667900  0.26537700  1
  O  O1  1  0.92117200  0.68915800  0.84830400  1
  O  O2  1  0.33654300  0.18694500  0.42478800  1
  O  O3  1  0.84118000  0.16141200  0.58007800  1
  O  O4  1  0.74176500  0.15881600  0.81646100  1
  O  O5  1  0.25771000  0.91829400  0.08222800  1
  O  O6  1  0.08678700  0.66557600  0.34329100  1
  O  O7  1  0.30289900  0.64626600  0.22447900  1
  O  O8  1  0.58800300  0.84786400  0.17236600  1
  O  O9  1  0.16491600  0.41798000  0.32951400  1
  O  O10  1  0.15977600  0.82282400  0.75100100  1
  O  O11  1  0.80025200  0.72801400  0.14634500  1
  O  O12  1  0.42263500  0.74958700  0.56223700  1
  O  O13  1  0.57096200  0.40773100  0.75604400  1
  O  O14  1  0.65504800  0.35173800  0.08612800  1
  O  O15  1  0.15896400  0.58851600  0.85066000  1
  O  O16  1  0.41933700  0.34221000  0.18486800  1
  O  O17  1  0.23502200  0.31180300  0.65866300  1
  O  O18  1  0.75540300  0.57509100  0.41811200  1
  O  O19  1  0.85473200  0.93581900  0.69535400  1
  O  O20  1  0.65715500  0.24199500  0.31640600  1
  O  O21  1  0.07900200  0.26969000  0.91480300  1
  O  O22  1  0.67634800  0.84853200  0.92776700  1
  O  O23  1  0.33959400  0.07437200  0.65199000  1
loop_
_geom_bond_atom_site_label_1
_geom_bond_atom_site_label_2
_geom_bond_distance
_geom_bond_site_symmetry_2
Li0 O12 1.932638 1_555
Li0 O4 1.989853 1_565
Li0 O23 2.116067 1_565
Li0 O22 2.447831 1_555
Li1 O3 1.966531 1_555
Li1 O17 1.969069 1_655
Li1 O0 1.974593 1_555
Li2 O22 1.932811 1_555
Li2 O19 1.987116 1_555
Li2 O1 2.104601 1_555
Li2 O12 2.446828 1_555
Bi0 O13 2.189519 1_555
Bi0 O14 2.236828 1_556
Bi0 O11 2.287333 1_556
Bi0 O4 2.517842 1_555
Bi0 O1 2.527205 1_555
Bi0 O6 2.656291 1_656
Bi1 O20 2.194556 1_555
Bi1 O8 2.221062 1_545
Bi1 O5 2.305028 1_545
Bi1 O3 2.429810 1_555
Bi1 O2 2.608266 1_555
Bi1 O7 2.731780 1_545
Bi2 O15 2.181798 1_555
Bi2 O21 2.228901 1_555
Bi2 O7 2.289359 1_556
Bi2 O17 2.478470 1_555
Bi2 O8 2.598180 1_556
Bi2 O16 2.623438 1_556
Bi3 O9 2.180998 1_555
Bi3 O2 2.242026 1_555
Bi3 O16 2.311836 1_555
Bi3 O0 2.417414 1_455
Bi3 O21 2.635422 1_554
Bi3 O5 2.651177 1_545
Bi4 O10 2.181880 1_555
Bi4 O18 2.243805 1_455
Bi4 O6 2.283452 1_555
Bi4 O19 2.496812 1_455
Bi4 O23 2.529182 1_565
Bi4 O11 2.744601 1_455
O0 P0 1.553169 1_545
O1 P2 1.537927 1_655
O2 P4 1.585666 1_555
O3 P5 1.550117 1_555
O4 P5 1.542854 1_555
O5 P2 1.573785 1_554
O6 P1 1.579188 1_555
O7 P1 1.577727 1_555
O8 P0 1.587385 1_555
O9 P1 1.563898 1_555
O10 P2 1.553539 1_555
O11 P0 1.577799 1_555
O12 P1 1.507456 1_555
O13 P4 1.554240 1_555
O14 P3 1.545985 1_555
O15 P2 1.553105 1_555
O16 P3 1.569375 1_555
O17 P4 1.544070 1_555
O18 P3 1.545242 1_555
O19 P5 1.542839 1_565
O20 P3 1.552767 1_555
O21 P5 1.585816 1_455
O22 P0 1.507582 1_556
O23 P4 1.539821 1_555
