# generated using pymatgen
data_Na2Nb5Al3Si6(SO8)6
_symmetry_space_group_name_H-M   'P 1'
_cell_length_a   17.53721105
_cell_length_b   8.75290202
_cell_length_c   22.60742229
_cell_angle_alpha   89.97906670
_cell_angle_beta   90.00932062
_cell_angle_gamma   120.24327568
_symmetry_Int_Tables_number   1
_chemical_formula_structural   Na2Nb5Al3Si6(SO8)6
_chemical_formula_sum   'Na6 Nb15 Al9 Si18 S18 O144'
_cell_volume   2997.94998951
_cell_formula_units_Z   3
loop_
 _symmetry_equiv_pos_site_id
 _symmetry_equiv_pos_as_xyz
  1  'x, y, z'
loop_
 _atom_site_type_symbol
 _atom_site_label
 _atom_site_symmetry_multiplicity
 _atom_site_fract_x
 _atom_site_fract_y
 _atom_site_fract_z
 _atom_site_occupancy
  Na  Na0  1  0.99617308  0.98757109  0.49795887  1
  Na  Na1  1  0.50122488  0.99924272  0.99847023  1
  Na  Na2  1  0.33431279  0.32376400  0.83965027  1
  Na  Na3  1  0.83251860  0.33612043  0.83884416  1
  Na  Na4  1  0.32821453  0.32605880  0.33751007  1
  Na  Na5  1  0.83581988  0.34081715  0.34405737  1
  Nb  Nb0  1  0.49424204  0.99371142  0.36279710  1
  Nb  Nb1  1  0.00602067  0.00706194  0.86432998  1
  Nb  Nb2  1  0.49850977  0.00163413  0.63960772  1
  Nb  Nb3  1  0.00071501  0.01187198  0.14555823  1
  Nb  Nb4  1  0.32793961  0.33616497  0.69184406  1
  Nb  Nb5  1  0.82427948  0.32686127  0.68439416  1
  Nb  Nb6  1  0.33989512  0.34554874  0.19152313  1
  Nb  Nb7  1  0.83336210  0.31828211  0.18955472  1
  Nb  Nb8  1  0.16487317  0.66673393  0.01967904  1
  Nb  Nb9  1  0.66444278  0.66012805  0.02454572  1
  Nb  Nb10  1  0.16714824  0.67305729  0.52054111  1
  Nb  Nb11  1  0.67427623  0.66322774  0.52543435  1
  Nb  Nb12  1  0.16342263  0.67898480  0.30778442  1
  Nb  Nb13  1  0.16572532  0.67040344  0.80738617  1
  Nb  Nb14  1  0.66509433  0.64653652  0.81371498  1
  Al  Al0  1  0.00649378  0.00103032  0.35370275  1
  Al  Al1  1  0.50491652  0.03473169  0.85215282  1
  Al  Al2  1  0.99569235  0.00576414  0.64653075  1
  Al  Al3  1  0.49414581  0.97661607  0.14450622  1
  Al  Al4  1  0.34390251  0.34195056  0.97648382  1
  Al  Al5  1  0.83547218  0.32774999  0.97466723  1
  Al  Al6  1  0.33173461  0.33343491  0.48025944  1
  Al  Al7  1  0.82919262  0.36133467  0.47785803  1
  Al  Al8  1  0.67206772  0.66534059  0.31728186  1
  Si  Si0  1  0.14069180  0.00580421  0.25132964  1
  Si  Si1  1  0.35972938  0.72726691  0.24857602  1
  Si  Si2  1  0.99972916  0.27673166  0.25815515  1
  Si  Si3  1  0.13326393  0.27405324  0.74662489  1
  Si  Si4  1  0.64071755  0.27627488  0.75162198  1
  Si  Si5  1  0.36221662  0.00348246  0.75171192  1
  Si  Si6  1  0.69257564  0.05387816  0.57505124  1
  Si  Si7  1  0.33159693  0.61029844  0.57739098  1
  Si  Si8  1  0.84686596  0.63796075  0.58219471  1
  Si  Si9  1  0.47251643  0.62657342  0.07864390  1
  Si  Si10  1  0.83399581  0.05028541  0.07594671  1
  Si  Si11  1  0.80966038  0.65184820  0.92089896  1
  Si  Si12  1  0.01732032  0.38371811  0.91630110  1
  Si  Si13  1  0.51669239  0.36367025  0.91855844  1
  Si  Si14  1  0.17749555  0.97259532  0.91764372  1
  Si  Si15  1  0.30709574  0.97102121  0.41845561  1
  Si  Si16  1  0.67297487  0.38863703  0.41324164  1
  Si  Si17  1  0.01392042  0.66508040  0.41636670  1
  S  S0  1  0.64040411  0.98848152  0.25079322  1
  S  S1  1  0.85246292  0.71430041  0.25253749  1
  S  S2  1  0.50733715  0.29208704  0.24939782  1
  S  S3  1  0.99858020  0.71602564  0.74792405  1
  S  S4  1  0.50178112  0.72123260  0.75253490  1
  S  S5  1  0.85836543  0.00138128  0.74940139  1
  S  S6  1  0.47323987  0.33464543  0.58075714  1
  S  S7  1  0.97541591  0.32613799  0.58235256  1
  S  S8  1  0.18771279  0.04953224  0.58260969  1
  S  S9  1  0.97436440  0.61715946  0.08151801  1
  S  S10  1  0.33756513  0.04952412  0.08276272  1
  S  S11  1  0.19325255  0.33399820  0.08127773  1
  S  S12  1  0.68718099  0.32374844  0.08380227  1
  S  S13  1  0.31404534  0.66674939  0.91616626  1
  S  S14  1  0.66416128  0.95739779  0.91633935  1
  S  S15  1  0.81133587  0.95509501  0.41377401  1
  S  S16  1  0.16667830  0.37224267  0.41701713  1
  S  S17  1  0.52351180  0.65876963  0.41534451  1
  O  O0  1  0.09826552  0.03963216  0.30806708  1
  O  O1  1  0.60545943  0.03032154  0.30356192  1
  O  O2  1  0.42311444  0.80792669  0.30690848  1
  O  O3  1  0.90935173  0.78891615  0.30427021  1
  O  O4  1  0.48775666  0.17778765  0.30246754  1
  O  O5  1  0.97751400  0.14513476  0.31181920  1
  O  O6  1  0.09464827  0.15544157  0.80642195  1
  O  O7  1  0.60155178  0.16054665  0.80972549  1
  O  O8  1  0.48384126  0.79391423  0.80504778  1
  O  O9  1  0.98301170  0.78840260  0.80234049  1
  O  O10  1  0.41846108  0.02962794  0.80994870  1
  O  O11  1  0.91206522  0.02796396  0.80256445  1
  O  O12  1  0.40284846  0.97046811  0.69129903  1
  O  O13  1  0.89650072  0.97137312  0.69573912  1
  O  O14  1  0.07791701  0.18015259  0.68905267  1
  O  O15  1  0.58346509  0.19283757  0.69190156  1
  O  O16  1  0.01091970  0.82237067  0.69524453  1
  O  O17  1  0.51362368  0.82030116  0.69715340  1
  O  O18  1  0.40597258  0.84539366  0.19165167  1
  O  O19  1  0.89285190  0.81952097  0.19707271  1
  O  O20  1  0.00973746  0.18975279  0.19474776  1
  O  O21  1  0.51905087  0.21188391  0.19576368  1
  O  O22  1  0.08133820  0.97170956  0.19076318  1
  O  O23  1  0.59022920  0.96935595  0.19639060  1
  O  O24  1  0.43480210  0.35923839  0.63541188  1
  O  O25  1  0.93747245  0.35909929  0.63743195  1
  O  O26  1  0.24385089  0.12729713  0.63683439  1
  O  O27  1  0.75021310  0.13131856  0.63888629  1
  O  O28  1  0.32043775  0.49382751  0.63843913  1
  O  O29  1  0.82162496  0.50504763  0.64114954  1
  O  O30  1  0.42813462  0.49871205  0.13850941  1
  O  O31  1  0.93504679  0.50983176  0.13652614  1
  O  O32  1  0.31835392  0.12152793  0.13649122  1
  O  O33  1  0.82140407  0.14452968  0.13859136  1
  O  O34  1  0.24456888  0.35957070  0.13638112  1
  O  O35  1  0.74394703  0.35679077  0.13759743  1
  O  O36  1  0.23125239  0.30381795  0.02890267  1
  O  O37  1  0.72720476  0.29724131  0.03106310  1
  O  O38  1  0.40739354  0.52160064  0.02506187  1
  O  O39  1  0.92130008  0.53702787  0.02911441  1
  O  O40  1  0.34819176  0.15527950  0.02970158  1
  O  O41  1  0.84795833  0.18432234  0.02469335  1
  O  O42  1  0.23040434  0.15681526  0.52979755  1
  O  O43  1  0.74541637  0.18128640  0.52240499  1
  O  O44  1  0.34703438  0.51373963  0.52300857  1
  O  O45  1  0.85782840  0.54508686  0.52562152  1
  O  O46  1  0.41911763  0.30509808  0.52820463  1
  O  O47  1  0.92156981  0.29656243  0.53022272  1
  O  O48  1  0.27119883  0.69732376  0.97053050  1
  O  O49  1  0.76504506  0.69857814  0.97531585  1
  O  O50  1  0.08382071  0.47193080  0.97517035  1
  O  O51  1  0.58404899  0.47012313  0.97344682  1
  O  O52  1  0.15690468  0.83540196  0.97511624  1
  O  O53  1  0.65066941  0.84731889  0.96990699  1
  O  O54  1  0.26613402  0.83866504  0.47597772  1
  O  O55  1  0.76808696  0.84056695  0.46818044  1
  O  O56  1  0.15254991  0.45598320  0.47089220  1
  O  O57  1  0.65120198  0.47391043  0.47216297  1
  O  O58  1  0.08297938  0.69655898  0.47353065  1
  O  O59  1  0.57618411  0.69102320  0.46914882  1
  O  O60  1  0.06739139  0.63784575  0.36029512  1
  O  O61  1  0.56553332  0.63886858  0.36121672  1
  O  O62  1  0.25009566  0.87405892  0.36011501  1
  O  O63  1  0.75296905  0.86829527  0.36115600  1
  O  O64  1  0.18374893  0.48257029  0.36415684  1
  O  O65  1  0.68214873  0.50719207  0.35674775  1
  O  O66  1  0.06978470  0.50758236  0.86010956  1
  O  O67  1  0.56662387  0.49554961  0.85939503  1
  O  O68  1  0.18720211  0.87081034  0.86052990  1
  O  O69  1  0.68167474  0.87933875  0.86273477  1
  O  O70  1  0.25747962  0.63754560  0.86359022  1
  O  O71  1  0.74863054  0.63035831  0.86074309  1
  O  O72  1  0.00745398  0.84314523  0.40721649  1
  O  O73  1  0.51566005  0.82254163  0.40872450  1
  O  O74  1  0.40416987  0.98352552  0.40873624  1
  O  O75  1  0.89732285  0.96440972  0.40867885  1
  O  O76  1  0.08542846  0.19640714  0.41209289  1
  O  O77  1  0.58392303  0.19151399  0.40216649  1
  O  O78  1  0.01219367  0.19297830  0.90923398  1
  O  O79  1  0.51220145  0.17558783  0.91233404  1
  O  O80  1  0.08364356  0.96824268  0.91017879  1
  O  O81  1  0.58321422  0.96792673  0.90900405  1
  O  O82  1  0.40202198  0.82378487  0.91060278  1
  O  O83  1  0.90320682  0.82563365  0.90271354  1
  O  O84  1  0.48463103  0.17764093  0.58646625  1
  O  O85  1  0.98645517  0.16941723  0.59153900  1
  O  O86  1  0.10007947  0.02933220  0.59015415  1
  O  O87  1  0.59677502  0.02941652  0.59295152  1
  O  O88  1  0.41737976  0.80445696  0.59169266  1
  O  O89  1  0.92741838  0.83270958  0.59621311  1
  O  O90  1  0.48933299  0.82453500  0.08981665  1
  O  O91  1  0.98599742  0.79443406  0.09026571  1
  O  O92  1  0.41778400  0.03509296  0.09052053  1
  O  O93  1  0.91797528  0.02436812  0.09204578  1
  O  O94  1  0.10211494  0.17668442  0.08910283  1
  O  O95  1  0.59764314  0.16910418  0.09407650  1
  O  O96  1  0.34903570  0.17572923  0.73985996  1
  O  O97  1  0.85191605  0.16531917  0.74344167  1
  O  O98  1  0.23560795  0.30368703  0.74188670  1
  O  O99  1  0.74312880  0.31019186  0.74496016  1
  O  O100  1  0.42258793  0.53510527  0.74476763  1
  O  O101  1  0.92250390  0.53157961  0.74242731  1
  O  O102  1  0.34869677  0.52455081  0.24205543  1
  O  O103  1  0.84138832  0.53310525  0.24184998  1
  O  O104  1  0.42312646  0.30383921  0.24342634  1
  O  O105  1  0.91384411  0.30893308  0.24297087  1
  O  O106  1  0.24116483  0.17203215  0.23913008  1
  O  O107  1  0.73235769  0.15623377  0.24293879  1
  O  O108  1  0.31719448  0.50361770  0.92477001  1
  O  O109  1  0.81651734  0.47859702  0.93029512  1
  O  O110  1  0.42416468  0.35852345  0.92348122  1
  O  O111  1  0.92191739  0.35889844  0.92383158  1
  O  O112  1  0.25679105  0.16493380  0.93181192  1
  O  O113  1  0.74350604  0.13493056  0.92428742  1
  O  O114  1  0.32268553  0.16563485  0.42993875  1
  O  O115  1  0.81926277  0.12771815  0.42137939  1
  O  O116  1  0.24581142  0.35298758  0.42586599  1
  O  O117  1  0.75399140  0.35600667  0.42157035  1
  O  O118  1  0.43356838  0.50423600  0.42088615  1
  O  O119  1  0.92303397  0.48183976  0.42695081  1
  O  O120  1  0.18308208  0.49295965  0.07575793  1
  O  O121  1  0.68014299  0.48635753  0.07861915  1
  O  O122  1  0.06438478  0.63507412  0.07644829  1
  O  O123  1  0.56921860  0.64127819  0.07149095  1
  O  O124  1  0.25875246  0.86625502  0.07485556  1
  O  O125  1  0.74706730  0.85737442  0.07354137  1
  O  O126  1  0.17957253  0.87122420  0.57736649  1
  O  O127  1  0.67639568  0.85386143  0.56849905  1
  O  O128  1  0.24446661  0.63102032  0.57143871  1
  O  O129  1  0.75470328  0.64888669  0.57504797  1
  O  O130  1  0.06524343  0.48636399  0.57591386  1
  O  O131  1  0.56250043  0.49412742  0.57503092  1
  O  O132  1  0.15281225  0.83334862  0.25514338  1
  O  O133  1  0.65432936  0.83771555  0.26044949  1
  O  O134  1  0.26145895  0.68758619  0.26196743  1
  O  O135  1  0.76496741  0.69807992  0.25981712  1
  O  O136  1  0.08436090  0.47109295  0.26021491  1
  O  O137  1  0.58124356  0.47247112  0.25930277  1
  O  O138  1  0.15205520  0.47403645  0.75953430  1
  O  O139  1  0.65425060  0.47803794  0.75772819  1
  O  O140  1  0.07964175  0.70046187  0.75422035  1
  O  O141  1  0.58048492  0.70124778  0.75867796  1
  O  O142  1  0.26218486  0.83304502  0.76016283  1
  O  O143  1  0.76776923  0.84807550  0.75700011  1
loop_
_geom_bond_atom_site_label_1
_geom_bond_atom_site_label_2
_geom_bond_distance
_geom_bond_site_symmetry_2
Na0 O72 2.469739 1_655
Na0 O89 2.564673 1_555
Na0 O76 2.583771 1_665
Na0 O75 2.601030 1_555
Na0 O86 2.669602 1_665
Na0 O85 2.704462 1_565
Na1 O79 2.431091 1_565
Na1 O90 2.514595 1_556
Na1 O81 2.575242 1_555
Na1 O82 2.577001 1_555
Na1 O92 2.652252 1_566
Na1 O95 2.685157 1_566
Na2 O110 2.384085 1_555
Na2 O112 2.493396 1_555
Na2 O108 2.598059 1_555
Na2 O96 2.678521 1_555
Na2 O100 2.744667 1_555
Na2 O98 2.757678 1_555
Na3 O111 2.423584 1_555
Na3 O109 2.502598 1_555
Na3 O113 2.549223 1_555
Na3 O99 2.579691 1_555
Na3 O101 2.728972 1_555
Na3 O97 2.741800 1_555
Na4 O114 2.491626 1_555
Na4 O116 2.545259 1_555
Na4 O118 2.548963 1_555
Na4 O106 2.650028 1_555
Na4 O102 2.678296 1_555
Na4 O104 2.767670 1_555
Na5 O117 2.311061 1_555
Na5 O119 2.339623 1_555
Na5 O115 2.464001 1_555
Na5 O105 2.749360 1_555
Na5 O103 2.830731 1_555
Na5 O107 2.859502 1_555
Nb0 O74 1.854818 1_555
Nb0 O77 1.876426 1_565
Nb0 O2 1.937633 1_555
Nb0 O73 2.007356 1_555
Nb0 O4 2.156863 1_565
Nb0 O1 2.251929 1_565
Nb1 O80 1.873009 1_545
Nb1 O78 1.874598 1_555
Nb1 O83 1.908147 1_445
Nb1 O6 1.944837 1_555
Nb1 O11 2.236291 1_455
Nb1 O9 2.239119 1_445
Nb2 O88 1.924486 1_545
Nb2 O87 1.928654 1_555
Nb2 O12 1.947795 1_545
Nb2 O15 1.976717 1_555
Nb2 O84 2.062089 1_555
Nb2 O17 2.168890 1_545
Nb3 O20 1.854426 1_555
Nb3 O22 1.914964 1_545
Nb3 O93 1.933961 1_455
Nb3 O94 2.070632 1_555
Nb3 O19 2.135474 1_445
Nb3 O91 2.181327 1_445
Nb4 O98 1.875990 1_555
Nb4 O28 1.887069 1_555
Nb4 O96 1.951749 1_555
Nb4 O100 2.075607 1_555
Nb4 O26 2.085391 1_555
Nb4 O24 2.190863 1_555
Nb5 O27 1.853765 1_555
Nb5 O29 1.860773 1_555
Nb5 O99 1.926863 1_555
Nb5 O25 2.140935 1_555
Nb5 O97 2.169085 1_555
Nb5 O101 2.188850 1_555
Nb6 O30 1.880949 1_555
Nb6 O102 1.881853 1_555
Nb6 O106 1.952786 1_555
Nb6 O104 2.043683 1_555
Nb6 O34 2.137706 1_555
Nb6 O32 2.188806 1_555
Nb7 O33 1.834203 1_555
Nb7 O105 1.890199 1_555
Nb7 O107 2.018554 1_555
Nb7 O31 2.101358 1_555
Nb7 O35 2.117497 1_555
Nb7 O103 2.165210 1_555
Nb8 O52 1.849525 1_554
Nb8 O50 1.870726 1_554
Nb8 O48 2.068997 1_554
Nb8 O122 2.082813 1_555
Nb8 O124 2.102625 1_555
Nb8 O120 2.123808 1_555
Nb9 O123 1.914494 1_555
Nb9 O51 1.930558 1_554
Nb9 O125 1.946301 1_555
Nb9 O49 1.966438 1_554
Nb9 O121 2.074620 1_555
Nb9 O53 2.160051 1_554
Nb10 O54 1.895874 1_555
Nb10 O58 1.912032 1_555
Nb10 O128 1.949300 1_555
Nb10 O126 2.080218 1_555
Nb10 O56 2.108783 1_555
Nb10 O130 2.118642 1_555
Nb11 O129 1.854986 1_555
Nb11 O127 1.916289 1_555
Nb11 O57 1.919865 1_555
Nb11 O55 2.053821 1_555
Nb11 O131 2.089806 1_555
Nb11 O59 2.249074 1_555
Nb12 O132 1.878425 1_555
Nb12 O60 1.940273 1_555
Nb12 O136 1.962027 1_555
Nb12 O134 1.976013 1_555
Nb12 O62 2.002986 1_555
Nb12 O64 2.307050 1_555
Nb13 O142 1.897784 1_555
Nb13 O138 1.941181 1_555
Nb13 O66 1.966375 1_555
Nb13 O68 1.999548 1_555
Nb13 O140 2.047502 1_555
Nb13 O70 2.179842 1_555
Nb14 O67 1.869710 1_555
Nb14 O71 1.872158 1_555
Nb14 O139 1.879400 1_555
Nb14 O141 2.166548 1_555
Nb14 O143 2.190317 1_555
Nb14 O69 2.206710 1_555
Al0 O0 1.794802 1_555
Al0 O5 1.841345 1_455
Al0 O72 1.842804 1_545
Al0 O76 2.049307 1_555
Al0 O3 2.100692 1_445
Al0 O75 2.166857 1_445
Al1 O7 1.767642 1_555
Al1 O10 1.772712 1_555
Al1 O79 1.797203 1_555
Al1 O81 2.164941 1_545
Al1 O8 2.220457 1_545
Al1 O82 2.248149 1_545
Al2 O14 1.765435 1_655
Al2 O89 1.787707 1_545
Al2 O13 1.956304 1_545
Al2 O85 1.963698 1_555
Al2 O16 2.071554 1_645
Al2 O86 2.153704 1_655
Al3 O18 1.748387 1_555
Al3 O90 1.787662 1_555
Al3 O92 2.057772 1_565
Al3 O23 2.080003 1_555
Al3 O95 2.086054 1_565
Al3 O21 2.206751 1_565
Al4 O38 1.776415 1_556
Al4 O110 1.798014 1_555
Al4 O112 1.835941 1_555
Al4 O40 2.060379 1_556
Al4 O108 2.062734 1_555
Al4 O36 2.180567 1_556
Al5 O41 1.782940 1_556
Al5 O111 1.810358 1_555
Al5 O109 1.816910 1_555
Al5 O113 2.001416 1_555
Al5 O39 2.088009 1_556
Al5 O37 2.189001 1_556
Al6 O44 1.752474 1_555
Al6 O114 1.800812 1_555
Al6 O46 1.991723 1_555
Al6 O42 2.008498 1_555
Al6 O116 2.017690 1_555
Al6 O118 2.129770 1_555
Al7 O45 1.786750 1_555
Al7 O117 1.816124 1_555
Al7 O43 1.822999 1_555
Al7 O119 1.842980 1_555
Al7 O47 2.295977 1_555
Al7 O115 2.342022 1_555
Al8 O65 1.728889 1_555
Al8 O63 1.901171 1_555
Al8 O135 1.988535 1_555
Al8 O61 2.023660 1_555
Al8 O137 2.096970 1_555
Al8 O133 2.120199 1_555
O0 Si0 1.584002 1_555
O1 S0 1.469518 1_545
O2 Si1 1.637935 1_555
O3 S1 1.460662 1_555
O4 S2 1.487097 1_555
O5 Si2 1.580349 1_555
O6 Si3 1.629422 1_555
O7 Si4 1.588011 1_555
O8 S4 1.454439 1_555
O9 S3 1.471130 1_555
O10 Si5 1.590944 1_555
O11 S5 1.471272 1_555
O12 Si5 1.632373 1_565
O13 S5 1.471559 1_565
O14 Si3 1.583809 1_555
O15 Si4 1.620473 1_555
O16 S3 1.458763 1_455
O17 S4 1.476660 1_555
O18 Si1 1.592979 1_555
O19 S1 1.504836 1_555
O20 Si2 1.673545 1_455
O21 S2 1.466704 1_555
O22 Si0 1.653571 1_565
O23 S0 1.471860 1_555
O24 S6 1.474478 1_555
O25 S7 1.506810 1_555
O26 S8 1.503502 1_555
O27 Si6 1.695257 1_555
O28 Si7 1.667474 1_555
O29 Si8 1.675138 1_555
O30 Si9 1.676837 1_555
O31 S9 1.500466 1_555
O32 S10 1.483478 1_555
O33 Si10 1.708629 1_555
O34 S11 1.486205 1_555
O35 S12 1.504526 1_555
O36 S11 1.446968 1_555
O37 S12 1.460341 1_555
O38 Si9 1.599759 1_555
O39 S9 1.450600 1_555
O40 S10 1.468352 1_555
O41 Si10 1.577561 1_555
O42 S8 1.469386 1_555
O43 Si6 1.573953 1_555
O44 Si7 1.590756 1_555
O45 Si8 1.578556 1_555
O46 S6 1.460098 1_555
O47 S7 1.449572 1_555
O48 S13 1.532927 1_555
O49 Si11 1.617409 1_555
O50 Si12 1.679486 1_555
O51 Si13 1.641636 1_555
O52 Si14 1.680121 1_555
O53 S14 1.490138 1_555
O54 Si15 1.646251 1_555
O55 S15 1.525302 1_555
O56 S16 1.505258 1_555
O57 Si16 1.662908 1_555
O58 Si17 1.695997 1_555
O59 S17 1.466196 1_555
O60 Si17 1.663986 1_555
O61 S17 1.483442 1_555
O62 Si15 1.613968 1_555
O63 S15 1.502293 1_555
O64 S16 1.469127 1_555
O65 Si16 1.601506 1_555
O66 Si12 1.621812 1_555
O67 Si13 1.693893 1_555
O68 Si14 1.625907 1_555
O69 S14 1.497291 1_555
O70 S13 1.485465 1_555
O71 Si11 1.681469 1_555
O72 Si17 1.631760 1_555
O73 S17 1.514892 1_555
O74 Si15 1.664592 1_555
O75 S15 1.473124 1_555
O76 S16 1.484052 1_555
O77 Si16 1.662669 1_555
O78 Si12 1.633987 1_555
O79 Si13 1.614235 1_555
O80 Si14 1.635749 1_555
O81 S14 1.477470 1_555
O82 S13 1.466020 1_555
O83 Si11 1.631010 1_555
O84 S6 1.490478 1_555
O85 S7 1.493198 1_555
O86 S8 1.465804 1_555
O87 Si6 1.634031 1_555
O88 Si7 1.637281 1_555
O89 Si8 1.605082 1_555
O90 Si9 1.624404 1_555
O91 S9 1.473001 1_555
O92 S10 1.484841 1_555
O93 Si10 1.639904 1_555
O94 S11 1.504932 1_555
O95 S12 1.486819 1_555
O96 Si5 1.658015 1_555
O97 S5 1.501106 1_555
O98 Si3 1.682629 1_555
O99 Si4 1.673145 1_555
O100 S4 1.527978 1_555
O101 S3 1.494053 1_555
O102 Si1 1.691702 1_555
O103 S1 1.517043 1_555
O104 S2 1.537127 1_555
O105 Si2 1.700964 1_555
O106 Si0 1.647746 1_555
O107 S0 1.550060 1_545
O108 S13 1.469334 1_555
O109 Si11 1.594572 1_555
O110 Si13 1.604343 1_555
O111 Si12 1.584099 1_655
O112 Si14 1.585111 1_545
O113 S14 1.484985 1_545
O114 Si15 1.604677 1_545
O115 S15 1.456180 1_545
O116 S16 1.493264 1_555
O117 Si16 1.595105 1_555
O118 S17 1.477847 1_555
O119 Si17 1.610853 1_655
O120 S11 1.494377 1_555
O121 S12 1.493850 1_555
O122 S9 1.510204 1_455
O123 Si9 1.642845 1_555
O124 S10 1.510708 1_565
O125 Si10 1.607837 1_565
O126 S8 1.498648 1_565
O127 Si6 1.633174 1_565
O128 Si7 1.632470 1_555
O129 Si8 1.674279 1_555
O130 S7 1.498024 1_455
O131 S6 1.488126 1_555
O132 Si0 1.629195 1_565
O133 S0 1.474162 1_555
O134 Si1 1.606077 1_555
O135 S1 1.477268 1_555
O136 Si2 1.598663 1_455
O137 S2 1.470254 1_555
O138 Si3 1.636169 1_555
O139 Si4 1.664975 1_555
O140 S3 1.501583 1_455
O141 S4 1.482598 1_555
O142 Si5 1.644121 1_565
O143 S5 1.485503 1_565
