# generated using pymatgen
data_MgCr4(PbO4)4
_symmetry_space_group_name_H-M   'P 1'
_cell_length_a   6.98255132
_cell_length_b   7.37112148
_cell_length_c   7.94330360
_cell_angle_alpha   90.22149189
_cell_angle_beta   89.54429907
_cell_angle_gamma   103.46230649
_symmetry_Int_Tables_number   1
_chemical_formula_structural   MgCr4(PbO4)4
_chemical_formula_sum   'Mg1 Cr4 Pb4 O16'
_cell_volume   397.58886126
_cell_formula_units_Z   1
loop_
 _symmetry_equiv_pos_site_id
 _symmetry_equiv_pos_as_xyz
  1  'x, y, z'
loop_
 _atom_site_type_symbol
 _atom_site_label
 _atom_site_symmetry_multiplicity
 _atom_site_fract_x
 _atom_site_fract_y
 _atom_site_fract_z
 _atom_site_occupancy
  Mg  Mg0  1  0.50003000  0.00000600  0.49998800  1
  Cr  Cr0  1  0.38162900  0.67491900  0.32646600  1
  Cr  Cr1  1  0.87805800  0.20013000  0.17038000  1
  Cr  Cr2  1  0.12191800  0.79987200  0.82960800  1
  Cr  Cr3  1  0.61839300  0.32504200  0.67355600  1
  Pb  Pb0  1  0.90879800  0.71296300  0.38398600  1
  Pb  Pb1  1  0.60381000  0.77540200  0.89547300  1
  Pb  Pb2  1  0.09120200  0.28706400  0.61601300  1
  Pb  Pb3  1  0.39617700  0.22463600  0.10449400  1
  O  O0  1  0.31109300  0.88716500  0.31438600  1
  O  O1  1  0.20936100  0.61427000  0.79000200  1
  O  O2  1  0.68894200  0.11280100  0.68564000  1
  O  O3  1  0.79063500  0.38573200  0.20998400  1
  O  O4  1  0.17802900  0.52253100  0.40300500  1
  O  O5  1  0.31608400  0.96225100  0.90125200  1
  O  O6  1  0.82197600  0.47745100  0.59700900  1
  O  O7  1  0.68388700  0.03777400  0.09871900  1
  O  O8  1  0.06019100  0.24365400  0.02834000  1
  O  O9  1  0.42938500  0.24897200  0.52363600  1
  O  O10  1  0.93979400  0.75634700  0.97166100  1
  O  O11  1  0.57065300  0.75101900  0.47639100  1
  O  O12  1  0.95685900  0.12166600  0.34941200  1
  O  O13  1  0.51787500  0.38609900  0.85498600  1
  O  O14  1  0.04307900  0.87831100  0.65058800  1
  O  O15  1  0.48214000  0.61392400  0.14502400  1
loop_
_geom_bond_atom_site_label_1
_geom_bond_atom_site_label_2
_geom_bond_distance
_geom_bond_site_symmetry_2
Mg0 O9 2.015881 1_555
Mg0 O11 2.015925 1_545
Mg0 O0 2.028882 1_545
Mg0 O2 2.028987 1_555
Cr0 O15 1.702268 1_555
Cr0 O4 1.703070 1_555
Cr0 O0 1.749315 1_555
Cr0 O11 1.774843 1_555
Cr1 O3 1.650983 1_555
Cr1 O8 1.668314 1_655
Cr1 O12 1.681258 1_555
Cr1 O7 1.686998 1_555
Cr2 O1 1.651064 1_555
Cr2 O10 1.668338 1_455
Cr2 O14 1.681209 1_555
Cr2 O5 1.687018 1_555
Cr3 O13 1.702373 1_555
Cr3 O6 1.703084 1_555
Cr3 O2 1.749326 1_555
Cr3 O9 1.774710 1_555
O1 Pb2 2.733815 1_555
O3 Pb0 2.734019 1_555
O4 Pb2 2.399859 1_555
O4 Pb0 2.600407 1_455
O5 Pb3 2.479178 1_566
O5 Pb1 2.687335 1_555
O6 Pb0 2.400162 1_555
O6 Pb2 2.600134 1_655
O7 Pb1 2.479124 1_544
O7 Pb3 2.687304 1_555
O8 Pb3 2.462891 1_555
O9 Pb2 2.544198 1_555
O10 Pb1 2.463022 1_555
O11 Pb0 2.543922 1_555
O12 Pb2 2.515966 1_655
O13 Pb3 2.363712 1_556
O14 Pb0 2.515712 1_455
O15 Pb1 2.363998 1_554
