# generated using pymatgen
data_YCo5
_symmetry_space_group_name_H-M   'P 1'
_cell_length_a   4.92755542
_cell_length_b   4.92755542
_cell_length_c   3.96073800
_cell_angle_alpha   90.00000000
_cell_angle_beta   90.00000000
_cell_angle_gamma   119.99999216
_symmetry_Int_Tables_number   1
_chemical_formula_structural   YCo5
_chemical_formula_sum   'Y1 Co5'
_cell_volume   83.28558015
_cell_formula_units_Z   1
loop_
 _symmetry_equiv_pos_site_id
 _symmetry_equiv_pos_as_xyz
  1  'x, y, z'
loop_
 _atom_site_type_symbol
 _atom_site_label
 _atom_site_symmetry_multiplicity
 _atom_site_fract_x
 _atom_site_fract_y
 _atom_site_fract_z
 _atom_site_occupancy
  Y  Y0  1  0.00000000  0.00000000  0.00000000  1
  Co  Co0  1  0.66666700  0.33333300  0.00000000  1
  Co  Co1  1  0.33333300  0.66666700  0.00000000  1
  Co  Co2  1  0.50000000  0.50000000  0.50000000  1
  Co  Co3  1  0.50000000  0.00000000  0.50000000  1
  Co  Co4  1  0.00000000  0.50000000  0.50000000  1
loop_
_geom_bond_atom_site_label_1
_geom_bond_atom_site_label_2
_geom_bond_distance
_geom_bond_site_symmetry_2
Co0 Co4 2.438290 1_655
Co0 Co4 2.438290 1_654
Co0 Co3 2.438290 1_554
Co0 Co3 2.438290 1_555
Co0 Co2 2.438292 1_554
Co0 Co2 2.438292 1_555
Co0 Y0 2.844922 1_655
Co0 Co1 2.844923 1_545
Co0 Co1 2.844923 1_655
Co0 Y0 2.844927 1_555
Co0 Y0 2.844927 1_665
Co0 Co1 2.844931 1_555
Co1 Co4 2.438290 1_554
Co1 Co4 2.438290 1_555
Co1 Co3 2.438290 1_565
Co1 Co3 2.438290 1_564
Co1 Co2 2.438292 1_554
Co1 Co2 2.438292 1_555
Co1 Y0 2.844922 1_565
Co1 Y0 2.844927 1_555
Co1 Y0 2.844927 1_665
Co2 Co3 2.463778 1_555
Co2 Co4 2.463778 1_555
Co2 Co3 2.463778 1_565
Co2 Co4 2.463778 1_655
Co2 Y0 3.161023 1_666
Co2 Y0 3.161023 1_556
Co2 Y0 3.161023 1_555
Co2 Y0 3.161023 1_665
Co3 Co4 2.463778 1_655
Co3 Co4 2.463778 1_545
Co3 Y0 3.161022 1_556
Co3 Y0 3.161022 1_656
Co3 Y0 3.161022 1_555
Co3 Y0 3.161022 1_655
Co4 Y0 3.161022 1_556
Co4 Y0 3.161022 1_566
Co4 Y0 3.161022 1_555
Co4 Y0 3.161022 1_565
