# generated using pymatgen
data_MgMn5Cr2O12
_symmetry_space_group_name_H-M   'P 1'
_cell_length_a   5.17271078
_cell_length_b   5.17262968
_cell_length_c   10.29243256
_cell_angle_alpha   83.94044747
_cell_angle_beta   96.07498622
_cell_angle_gamma   59.54575624
_symmetry_Int_Tables_number   1
_chemical_formula_structural   MgMn5Cr2O12
_chemical_formula_sum   'Mg1 Mn5 Cr2 O12'
_cell_volume   231.95508744
_cell_formula_units_Z   1
loop_
 _symmetry_equiv_pos_site_id
 _symmetry_equiv_pos_as_xyz
  1  'x, y, z'
loop_
 _atom_site_type_symbol
 _atom_site_label
 _atom_site_symmetry_multiplicity
 _atom_site_fract_x
 _atom_site_fract_y
 _atom_site_fract_z
 _atom_site_occupancy
  Mg  Mg0  1  0.93038800  0.93037800  0.74999700  1
  Mn  Mn0  1  0.07425400  0.07428700  0.24999800  1
  Mn  Mn1  1  0.01267300  0.50456200  0.99008000  1
  Mn  Mn2  1  0.50455600  0.01259600  0.50993200  1
  Mn  Mn3  1  0.41508200  0.41512100  0.25000600  1
  Mn  Mn4  1  0.58435500  0.58436100  0.74999300  1
  Cr  Cr0  1  0.25742600  0.25749200  0.74998400  1
  Cr  Cr1  1  0.74470000  0.74468200  0.24998700  1
  O  O0  1  0.96032700  0.24559900  0.85725800  1
  O  O1  1  0.24558100  0.96028900  0.64274900  1
  O  O2  1  0.15072100  0.35913200  0.35620700  1
  O  O3  1  0.35905200  0.15073300  0.14380400  1
  O  O4  1  0.29929000  0.53901300  0.85224000  1
  O  O5  1  0.53903600  0.29926100  0.64776200  1
  O  O6  1  0.44377300  0.71553900  0.34684500  1
  O  O7  1  0.71550800  0.44377900  0.15316800  1
  O  O8  1  0.63919600  0.84852200  0.85773100  1
  O  O9  1  0.84853500  0.63915100  0.64227300  1
  O  O10  1  0.76124100  0.04289300  0.35569700  1
  O  O11  1  0.04288400  0.76118900  0.14428800  1
loop_
_geom_bond_atom_site_label_1
_geom_bond_atom_site_label_2
_geom_bond_distance
_geom_bond_site_symmetry_2
Mg0 O5 2.013882 1_565
Mg0 O4 2.013990 1_655
Mg0 O0 2.121596 1_565
Mg0 O1 2.121602 1_655
Mg0 O9 2.139548 1_555
Mg0 O8 2.139743 1_555
Mn0 O7 1.923753 1_455
Mn0 O6 1.923869 1_545
Mn0 O3 2.088379 1_555
Mn0 O2 2.088452 1_555
Mn0 O10 2.105594 1_455
Mn0 O11 2.105721 1_545
Mn1 O8 2.049461 1_455
Mn1 O0 2.100577 1_455
Mn1 O3 2.127852 1_556
Mn1 O4 2.214090 1_555
Mn1 O11 2.215453 1_556
Mn1 O7 2.490763 1_456
Mn2 O9 2.049405 1_545
Mn2 O1 2.100806 1_545
Mn2 O2 2.128128 1_555
Mn2 O5 2.213962 1_555
Mn2 O10 2.216313 1_555
Mn2 O6 2.489985 1_545
Mn3 O11 1.935660 1_555
Mn3 O10 1.935819 1_555
Mn3 O3 1.949214 1_555
Mn3 O2 1.949262 1_555
Mn3 O6 1.989896 1_555
Mn3 O7 1.990104 1_555
Mn4 O1 1.937426 1_555
Mn4 O0 1.937572 1_555
Mn4 O8 1.955354 1_555
Mn4 O9 1.955471 1_555
Mn4 O5 1.990657 1_555
Mn4 O4 1.990926 1_555
Cr0 O4 1.967255 1_555
Cr0 O5 1.967484 1_555
Cr0 O1 2.006160 1_545
Cr0 O0 2.006306 1_455
Cr0 O9 2.099723 1_455
Cr0 O8 2.100266 1_545
Cr1 O7 1.993049 1_555
Cr1 O6 1.993530 1_555
Cr1 O10 2.009707 1_565
Cr1 O11 2.009709 1_655
Cr1 O2 2.095532 1_655
Cr1 O3 2.095693 1_565
