# generated using pymatgen
data_KH5O3
_symmetry_space_group_name_H-M   'P 1'
_cell_length_a   7.05410499
_cell_length_b   7.05410499
_cell_length_c   8.32834635
_cell_angle_alpha   65.20445857
_cell_angle_beta   65.20445857
_cell_angle_gamma   90.45227031
_symmetry_Int_Tables_number   1
_chemical_formula_structural   KH5O3
_chemical_formula_sum   'K4 H20 O12'
_cell_volume   332.93305669
_cell_formula_units_Z   4
loop_
 _symmetry_equiv_pos_site_id
 _symmetry_equiv_pos_as_xyz
  1  'x, y, z'
loop_
 _atom_site_type_symbol
 _atom_site_label
 _atom_site_symmetry_multiplicity
 _atom_site_fract_x
 _atom_site_fract_y
 _atom_site_fract_z
 _atom_site_occupancy
  K  K0  1  0.51092712  0.75400570  0.73894241  1
  K  K1  1  0.75691957  0.50084025  0.23942719  1
  K  K2  1  0.24599430  0.48907288  0.26105759  1
  K  K3  1  0.49915975  0.24308043  0.76057281  1
  H  H0  1  0.55057718  0.90458155  0.08279012  1
  H  H1  1  0.06741841  0.89773663  0.10294567  1
  H  H2  1  0.10226337  0.93258159  0.89705433  1
  H  H3  1  0.77424177  0.93239507  0.90223851  1
  H  H4  1  0.78271497  -0.01089577  0.24391657  1
  H  H5  1  0.01556861  0.72406298  0.74528284  1
  H  H6  1  0.88360067  0.73741499  0.41739163  1
  H  H7  1  0.41873473  0.75181066  0.39698950  1
  H  H8  1  0.92554694  0.58451580  0.59865620  1
  H  H9  1  0.24818934  0.58126527  0.60301050  1
  H  H10  1  0.09541845  0.44942282  0.91720988  1
  H  H11  1  0.75458279  0.45189296  0.91767829  1
  H  H12  1  0.54810704  0.24541721  0.08232171  1
  H  H13  1  0.06760493  0.22575823  0.09776149  1
  H  H14  1  0.27593702  0.98443139  0.25471716  1
  H  H15  1  0.01089577  0.21728503  0.75608343  1
  H  H16  1  0.26258501  0.11639933  0.58260837  1
  H  H17  1  0.92248976  0.11880435  0.58264626  1
  H  H18  1  0.88119565  0.07751024  0.41735374  1
  H  H19  1  0.41548420  0.07445306  0.40134380  1
  O  O0  1  0.14917278  0.85082722  -0.00000000  1
  O  O1  1  0.62690446  0.84026197  0.99307495  1
  O  O2  1  0.91046357  0.98063831  0.26104171  1
  O  O3  1  0.00734759  0.57944863  0.76181684  1
  O  O4  1  0.59609889  0.40390111  -0.00000000  1
  O  O5  1  0.15973803  0.37309554  0.00692505  1
  O  O6  1  0.86901245  0.58334682  0.50762246  1
  O  O7  1  0.39769328  0.60230672  0.50000000  1
  O  O8  1  0.42055137  0.99265241  0.23818316  1
  O  O9  1  0.01936169  0.08953643  0.73895829  1
  O  O10  1  0.41665318  0.13098755  0.49237754  1
  O  O11  1  0.84644935  0.15355065  0.50000000  1
loop_
_geom_bond_atom_site_label_1
_geom_bond_atom_site_label_2
_geom_bond_distance
_geom_bond_site_symmetry_2
K0 O4 2.793321 1_556
K0 O1 2.836158 1_555
K0 O10 2.885098 1_565
K0 O0 2.885290 1_556
K0 O5 2.926692 1_556
K0 O11 2.957237 1_565
K0 O7 2.974745 1_555
K1 O11 2.797272 1_555
K1 O10 2.838301 1_555
K1 O1 2.876804 1_554
K1 O7 2.891719 1_555
K1 O6 2.918483 1_555
K1 O4 2.959659 1_555
K1 O0 2.977033 1_655
K2 O4 2.793321 1_555
K2 O5 2.836158 1_555
K2 O6 2.885098 1_455
K2 O0 2.885290 1_555
K2 O1 2.926692 1_554
K2 O11 2.957237 1_455
K2 O7 2.974745 1_555
K3 O11 2.797272 1_555
K3 O6 2.838301 1_555
K3 O5 2.876804 1_556
K3 O7 2.891719 1_555
K3 O10 2.918483 1_555
K3 O4 2.959659 1_556
K3 O0 2.977033 1_546
H0 O1 1.002400 1_554
H0 O8 1.609303 1_555
H0 K3 2.913763 1_564
H1 O0 1.001706 1_555
H2 O0 1.001706 1_556
H3 O1 0.996175 1_555
H4 O2 0.968241 1_545
H5 O3 0.968259 1_555
H6 O6 1.002402 1_555
H6 O2 1.609097 1_555
H6 K0 2.908448 1_555
H7 O7 1.001046 1_555
H8 O6 0.996350 1_555
H9 O7 1.001046 1_555
H10 O5 1.002400 1_556
H10 O3 1.609303 1_555
H10 K1 2.913763 1_456
H11 O4 0.995465 1_556
H11 K1 2.848323 1_556
H12 O4 0.995465 1_555
H12 K3 2.848323 1_554
H13 O5 0.996175 1_555
H14 O8 0.968259 1_555
H15 O9 0.968241 1_555
H16 O10 1.002402 1_555
H16 O9 1.609097 1_555
H16 K2 2.908448 1_555
H17 O11 0.995897 1_555
H17 K2 2.848669 1_655
H18 O11 0.995897 1_555
H18 K0 2.848669 1_545
H19 O10 0.996350 1_555
