# generated using pymatgen
data_Ba2HoMgSbO6
_symmetry_space_group_name_H-M   'P 1'
_cell_length_a   7.42000914
_cell_length_b   7.41818915
_cell_length_c   7.41818930
_cell_angle_alpha   49.67484292
_cell_angle_beta   49.66794448
_cell_angle_gamma   49.66794249
_symmetry_Int_Tables_number   1
_chemical_formula_structural   Ba2HoMgSbO6
_chemical_formula_sum   'Ba2 Ho1 Mg1 Sb1 O6'
_cell_volume   218.21178362
_cell_formula_units_Z   1
loop_
 _symmetry_equiv_pos_site_id
 _symmetry_equiv_pos_as_xyz
  1  'x, y, z'
loop_
 _atom_site_type_symbol
 _atom_site_label
 _atom_site_symmetry_multiplicity
 _atom_site_fract_x
 _atom_site_fract_y
 _atom_site_fract_z
 _atom_site_occupancy
  Ba  Ba0  1  0.82655387  0.82569472  0.82569472  1
  Ba  Ba1  1  0.27850880  0.27738108  0.27738108  1
  Ho  Ho0  1  0.00398821  0.00360821  0.00360821  1
  Mg  Mg0  1  0.59844848  0.59758273  0.59758273  1
  Sb  Sb0  1  0.44999947  0.44991920  0.44991920  1
  O  O0  1  0.24102518  0.76971093  0.76971093  1
  O  O1  1  0.24237804  0.71037078  0.24333887  1
  O  O2  1  0.77028213  0.24012972  0.76969368  1
  O  O3  1  0.24237804  0.24333887  0.71037079  1
  O  O4  1  0.70896765  0.24277809  0.24277809  1
  O  O5  1  0.77028213  0.76969368  0.24012972  1
loop_
_geom_bond_atom_site_label_1
_geom_bond_atom_site_label_2
_geom_bond_distance
_geom_bond_site_symmetry_2
Ba0 O2 2.590083 1_565
Ba0 O5 2.590084 1_556
Ba0 O0 2.592226 1_655
Ba1 O4 2.880313 1_555
Ba1 O1 2.894092 1_555
Ba1 O3 2.894092 1_555
Ba1 O5 3.134967 1_545
Ba1 O2 3.134967 1_554
Ba1 O0 3.136602 1_554
Ba1 O0 3.136602 1_545
Ba1 O5 3.138537 1_455
Ba1 O2 3.138538 1_455
Ho0 O4 2.259846 1_455
Ho0 O1 2.260033 1_545
Ho0 O3 2.260033 1_554
Ho0 O0 2.260635 1_544
Ho0 O2 2.261143 1_454
Ho0 O5 2.261143 1_445
Mg0 O2 1.906874 1_555
Mg0 O5 1.906874 1_555
Mg0 O0 1.907263 1_555
O1 Sb0 1.955938 1_555
O3 Sb0 1.955938 1_555
O4 Sb0 1.956163 1_555
