# generated using pymatgen
data_LiMnP2O7
_symmetry_space_group_name_H-M   'P 1'
_cell_length_a   8.46504200
_cell_length_b   6.63198800
_cell_length_c   9.10899188
_cell_angle_alpha   77.74222896
_cell_angle_beta   90.00000000
_cell_angle_gamma   90.00000000
_symmetry_Int_Tables_number   1
_chemical_formula_structural   LiMnP2O7
_chemical_formula_sum   'Li4 Mn4 P8 O28'
_cell_volume   499.72106097
_cell_formula_units_Z   4
loop_
 _symmetry_equiv_pos_site_id
 _symmetry_equiv_pos_as_xyz
  1  'x, y, z'
loop_
 _atom_site_type_symbol
 _atom_site_label
 _atom_site_symmetry_multiplicity
 _atom_site_fract_x
 _atom_site_fract_y
 _atom_site_fract_z
 _atom_site_occupancy
  Li  Li0  1  0.08173100  0.77589900  0.75756900  1
  Li  Li1  1  0.41826900  0.77589900  0.75756900  1
  Li  Li2  1  0.58173100  0.22410100  0.24243100  1
  Li  Li3  1  0.91826900  0.22410100  0.24243100  1
  Mn  Mn0  1  0.56640800  0.25210100  0.75091400  1
  Mn  Mn1  1  0.93359200  0.25210100  0.75091400  1
  Mn  Mn2  1  0.06640800  0.74789900  0.24908600  1
  Mn  Mn3  1  0.43359200  0.74789900  0.24908600  1
  P  P0  1  0.25000000  0.49855500  0.05303400  1
  P  P1  1  0.75000000  0.93533900  0.02864300  1
  P  P2  1  0.75000000  0.58154000  0.46684700  1
  P  P3  1  0.25000000  0.99541600  0.44694400  1
  P  P4  1  0.75000000  0.50144500  0.94696600  1
  P  P5  1  0.25000000  0.06466100  0.97135700  1
  P  P6  1  0.75000000  0.00458400  0.55305600  1
  P  P7  1  0.25000000  0.41846000  0.53315300  1
  O  O0  1  0.09998300  0.41048300  0.62600700  1
  O  O1  1  0.09600100  0.51888200  0.14442700  1
  O  O2  1  0.25000000  0.25555000  0.05372900  1
  O  O3  1  0.25000000  0.87917400  0.11395200  1
  O  O4  1  0.59600100  0.48111800  0.85557300  1
  O  O5  1  0.90399900  0.48111800  0.85557300  1
  O  O6  1  0.75000000  0.74445000  0.94627100  1
  O  O7  1  0.75000000  0.12082600  0.88604800  1
  O  O8  1  0.10046400  0.05938900  0.88216000  1
  O  O9  1  0.39953600  0.05938900  0.88216000  1
  O  O10  1  0.25000000  0.62362300  0.89471400  1
  O  O11  1  0.40399900  0.51888200  0.14442700  1
  O  O12  1  0.40001700  0.41048300  0.62600700  1
  O  O13  1  0.75000000  0.39087000  0.59725100  1
  O  O14  1  0.59561100  0.02627700  0.64393800  1
  O  O15  1  0.90438900  0.02627700  0.64393800  1
  O  O16  1  0.25000000  0.87831200  0.60740100  1
  O  O17  1  0.75000000  0.76178600  0.55952900  1
  O  O18  1  0.89953600  0.94061100  0.11784000  1
  O  O19  1  0.75000000  0.12168800  0.39259900  1
  O  O20  1  0.09561100  0.97372300  0.35606200  1
  O  O21  1  0.40438900  0.97372300  0.35606200  1
  O  O22  1  0.25000000  0.60913000  0.40274900  1
  O  O23  1  0.59998300  0.58951700  0.37399300  1
  O  O24  1  0.90001700  0.58951700  0.37399300  1
  O  O25  1  0.75000000  0.37637700  0.10528600  1
  O  O26  1  0.60046400  0.94061100  0.11784000  1
  O  O27  1  0.25000000  0.23821400  0.44047100  1
loop_
_geom_bond_atom_site_label_1
_geom_bond_atom_site_label_2
_geom_bond_distance
_geom_bond_site_symmetry_2
Li0 O16 1.991692 1_555
Li0 O10 2.018350 1_555
Li0 O15 2.313536 1_465
Li0 O8 2.398739 1_565
Li0 O5 2.478182 1_455
Li1 O16 1.991692 1_555
Li1 O10 2.018350 1_555
Li1 O14 2.313536 1_565
Li1 O9 2.398739 1_565
Li1 O4 2.478182 1_555
Li2 O19 1.991692 1_555
Li2 O25 2.018350 1_555
Li2 O21 2.313536 1_545
Li2 O26 2.398739 1_545
Li2 O11 2.478182 1_555
Li3 O19 1.991692 1_555
Li3 O25 2.018350 1_555
Li3 O20 2.313536 1_645
Li3 O18 2.398739 1_545
Li3 O1 2.478182 1_655
Mn0 O14 1.968077 1_555
Mn0 O12 1.968318 1_555
Mn0 O4 1.973148 1_555
Mn0 O7 2.057520 1_555
Mn0 O9 2.099831 1_555
Mn0 O13 2.162051 1_555
Mn1 O15 1.968077 1_555
Mn1 O0 1.968318 1_655
Mn1 O5 1.973148 1_555
Mn1 O7 2.057520 1_555
Mn1 O8 2.099831 1_655
Mn1 O13 2.162051 1_555
Mn2 O20 1.968077 1_555
Mn2 O24 1.968318 1_455
Mn2 O1 1.973148 1_555
Mn2 O3 2.057520 1_555
Mn2 O18 2.099831 1_455
Mn2 O22 2.162051 1_555
Mn3 O21 1.968077 1_555
Mn3 O23 1.968318 1_555
Mn3 O11 1.973148 1_555
Mn3 O3 2.057520 1_555
Mn3 O26 2.099831 1_555
Mn3 O22 2.162051 1_555
O0 P7 1.520472 1_555
O1 P0 1.567889 1_555
O2 P5 1.602817 1_554
O2 P0 1.610274 1_555
O3 P5 1.588056 1_564
O4 P4 1.567889 1_555
O5 P4 1.567889 1_555
O6 P1 1.602817 1_556
O6 P4 1.610274 1_555
O7 P1 1.588056 1_546
O8 P5 1.508560 1_555
O9 P5 1.508560 1_555
O10 P0 1.503270 1_556
O11 P0 1.567889 1_555
O12 P7 1.520472 1_555
O13 P2 1.540193 1_555
O14 P6 1.569907 1_555
O15 P6 1.569907 1_555
O16 P3 1.502478 1_555
O17 P6 1.598754 1_565
O17 P2 1.603191 1_555
O18 P1 1.508560 1_555
O19 P6 1.502478 1_555
O20 P3 1.569907 1_555
O21 P3 1.569907 1_555
O22 P7 1.540193 1_555
O23 P2 1.520472 1_555
O24 P2 1.520472 1_555
O25 P4 1.503270 1_554
O26 P1 1.508560 1_555
O27 P3 1.598754 1_545
O27 P7 1.603191 1_555
