# generated using pymatgen
data_V3Sb2
_symmetry_space_group_name_H-M   'P 1'
_cell_length_a   7.48424409
_cell_length_b   7.48395785
_cell_length_c   7.48433289
_cell_angle_alpha   43.15797973
_cell_angle_beta   43.15772227
_cell_angle_gamma   43.15814383
_symmetry_Int_Tables_number   1
_chemical_formula_structural   V3Sb2
_chemical_formula_sum   'V6 Sb4'
_cell_volume   177.83636168
_cell_formula_units_Z   2
loop_
 _symmetry_equiv_pos_site_id
 _symmetry_equiv_pos_as_xyz
  1  'x, y, z'
loop_
 _atom_site_type_symbol
 _atom_site_label
 _atom_site_symmetry_multiplicity
 _atom_site_fract_x
 _atom_site_fract_y
 _atom_site_fract_z
 _atom_site_occupancy
  V  V0  1  0.60282228  0.12748300  0.60281040  1
  V  V1  1  0.60282126  0.60283753  0.12743265  1
  V  V2  1  0.12745114  0.60283762  0.60281015  1
  V  V3  1  0.87254902  0.39716602  0.39718108  1
  V  V4  1  0.39717706  0.87250963  0.39718676  1
  V  V5  1  0.39717396  0.39716876  0.87255681  1
  Sb  Sb0  1  0.10972470  0.10974556  0.10972587  1
  Sb  Sb1  1  0.89027113  0.89024795  0.89027697  1
  Sb  Sb2  1  0.33110981  0.33108262  0.33111522  1
  Sb  Sb3  1  0.66890064  0.66892131  0.66890509  1
loop_
_geom_bond_atom_site_label_1
_geom_bond_atom_site_label_2
_geom_bond_distance
_geom_bond_site_symmetry_2
V0 V2 2.616910 1_555
V0 V1 2.616934 1_555
V0 V3 2.719755 1_555
V0 V5 2.719863 1_555
V0 V1 2.888157 1_546
V0 V2 2.888169 1_645
V1 V2 2.617012 1_555
V1 V4 2.719841 1_555
V1 V3 2.720166 1_555
V1 V2 2.888154 1_654
V2 V4 2.719701 1_555
V2 V5 2.720133 1_555
V3 V4 2.616882 1_555
V3 V5 2.617020 1_555
V3 V5 2.888145 1_654
V3 V4 2.888197 1_645
V4 V5 2.616875 1_555
V4 V5 2.888216 1_564
Sb0 V1 2.753765 1_455
Sb0 V2 2.753766 1_545
Sb0 V0 2.753790 1_455
Sb0 V1 2.753790 1_545
Sb0 V2 2.753807 1_554
Sb0 V0 2.753861 1_554
Sb0 V5 2.831198 1_554
Sb0 V3 2.831233 1_455
Sb0 V4 2.831369 1_545
Sb1 V5 2.753730 1_655
Sb1 V3 2.753747 1_556
Sb1 V4 2.753815 1_655
Sb1 V3 2.753825 1_565
Sb1 V5 2.753829 1_565
Sb1 V4 2.753836 1_556
Sb1 V1 2.831169 1_556
Sb1 V2 2.831227 1_655
Sb1 V0 2.831386 1_565
Sb2 V1 2.753814 1_555
Sb2 V2 2.753836 1_555
Sb2 V0 2.753898 1_555
Sb2 V4 2.769880 1_545
Sb2 V3 2.769882 1_455
Sb2 V5 2.769902 1_554
Sb3 V5 2.754019 1_555
Sb3 V3 2.754069 1_555
Sb3 V4 2.754166 1_555
Sb3 V1 2.769618 1_556
Sb3 V0 2.769645 1_565
Sb3 V2 2.769676 1_655
