# generated using pymatgen
data_MgMn2O4
_symmetry_space_group_name_H-M   'P 1'
_cell_length_a   5.72489590
_cell_length_b   5.72489641
_cell_length_c   6.17651532
_cell_angle_alpha   117.60766401
_cell_angle_beta   117.60765723
_cell_angle_gamma   89.99875776
_symmetry_Int_Tables_number   1
_chemical_formula_structural   MgMn2O4
_chemical_formula_sum   'Mg2 Mn4 O8'
_cell_volume   152.90011854
_cell_formula_units_Z   2
loop_
 _symmetry_equiv_pos_site_id
 _symmetry_equiv_pos_as_xyz
  1  'x, y, z'
loop_
 _atom_site_type_symbol
 _atom_site_label
 _atom_site_symmetry_multiplicity
 _atom_site_fract_x
 _atom_site_fract_y
 _atom_site_fract_z
 _atom_site_occupancy
  Mg  Mg0  1  0.37489726  0.62510274  0.75000002  1
  Mg  Mg1  1  0.62510274  0.37489726  0.24999998  1
  Mn  Mn0  1  -0.00000000  -0.00000000  0.50000000  1
  Mn  Mn1  1  -0.00000000  0.50000000  0.00000000  1
  Mn  Mn2  1  0.50000000  -0.00000000  0.50000000  1
  Mn  Mn3  1  -0.00000000  -0.00000000  0.00000000  1
  O  O0  1  0.75402309  0.77826750  0.50805882  1
  O  O1  1  0.77020285  0.24594779  0.99191316  1
  O  O2  1  0.22173254  0.24597689  0.99194116  1
  O  O3  1  0.24597691  0.22173250  0.49194118  1
  O  O4  1  0.24594765  0.77020288  0.49191313  1
  O  O5  1  0.22979715  0.75405221  0.00808684  1
  O  O6  1  0.75405235  0.22979712  0.50808687  1
  O  O7  1  0.77826746  0.75402311  0.00805884  1
loop_
_geom_bond_atom_site_label_1
_geom_bond_atom_site_label_2
_geom_bond_distance
_geom_bond_site_symmetry_2
Mg0 O5 1.978046 1_556
Mg0 O4 1.978047 1_555
Mg0 O7 1.978954 1_556
Mg0 O3 1.978955 1_555
Mg1 O1 1.978046 1_554
Mg1 O6 1.978047 1_555
Mg1 O2 1.978954 1_554
Mg1 O0 1.978955 1_555
Mn0 O6 1.928714 1_455
Mn0 O4 1.928714 1_545
Mn0 O3 1.928847 1_555
Mn0 O0 1.928847 1_445
Mn0 O7 2.299201 1_445
Mn0 O2 2.299201 1_555
Mn1 O2 1.928755 1_554
Mn1 O7 1.928755 1_455
Mn1 O5 1.928834 1_555
Mn1 O1 1.928834 1_454
Mn1 O6 2.299086 1_454
Mn1 O4 2.299086 1_555
Mn2 O0 1.928755 1_545
Mn2 O3 1.928755 1_555
Mn2 O4 1.928834 1_545
Mn2 O6 1.928834 1_555
Mn2 O5 2.299086 1_545
Mn2 O1 2.299086 1_555
Mn3 O1 1.928715 1_454
Mn3 O5 1.928715 1_545
Mn3 O7 1.928847 1_445
Mn3 O2 1.928847 1_554
Mn3 O3 2.299201 1_555
Mn3 O0 2.299201 1_444
