# generated using pymatgen
data_H2SO4
_symmetry_space_group_name_H-M   'P 1'
_cell_length_a   4.54894621
_cell_length_b   7.69527822
_cell_length_c   8.65137614
_cell_angle_alpha   71.84173551
_cell_angle_beta   90.00000000
_cell_angle_gamma   90.00000000
_symmetry_Int_Tables_number   1
_chemical_formula_structural   H2SO4
_chemical_formula_sum   'H8 S4 O16'
_cell_volume   287.76305362
_cell_formula_units_Z   4
loop_
 _symmetry_equiv_pos_site_id
 _symmetry_equiv_pos_as_xyz
  1  'x, y, z'
loop_
 _atom_site_type_symbol
 _atom_site_label
 _atom_site_symmetry_multiplicity
 _atom_site_fract_x
 _atom_site_fract_y
 _atom_site_fract_z
 _atom_site_occupancy
  H  H0  1  0.27594185  0.42482187  0.41548357  1
  H  H1  1  0.77594185  0.57517813  0.08451643  1
  H  H2  1  0.72405815  0.57517813  0.58451643  1
  H  H3  1  0.22405815  0.42482187  0.91548357  1
  H  H4  1  0.84061608  0.87239647  0.68374302  1
  H  H5  1  0.34061608  0.12760353  0.81625698  1
  H  H6  1  0.15938392  0.12760353  0.31625698  1
  H  H7  1  0.65938392  0.87239647  0.18374302  1
  S  S0  1  0.56382444  0.26554879  0.31958950  1
  S  S1  1  0.06382444  0.73445121  0.18041050  1
  S  S2  1  0.43617556  0.73445121  0.68041050  1
  S  S3  1  0.93617556  0.26554879  0.81958950  1
  O  O0  1  0.37434394  0.10332613  0.31038486  1
  O  O1  1  0.57076543  0.67294779  0.54278368  1
  O  O2  1  0.92923457  0.67294779  0.04278368  1
  O  O3  1  0.07076543  0.32705221  0.95721632  1
  O  O4  1  0.95851782  0.41230000  0.66900111  1
  O  O5  1  0.45851782  0.58770000  0.83099889  1
  O  O6  1  0.04148218  0.58770000  0.33099889  1
  O  O7  1  0.54148218  0.41230000  0.16900111  1
  O  O8  1  0.65315847  0.19246484  0.87243266  1
  O  O9  1  0.15315847  0.80753516  0.62756734  1
  O  O10  1  0.34684153  0.80753516  0.12756734  1
  O  O11  1  0.84684153  0.19246484  0.37243266  1
  O  O12  1  0.62565606  0.89667387  0.68961514  1
  O  O13  1  0.12565606  0.10332613  0.81038486  1
  O  O14  1  0.42923457  0.32705221  0.45721632  1
  O  O15  1  0.87434394  0.89667387  0.18961514  1
loop_
_geom_bond_atom_site_label_1
_geom_bond_atom_site_label_2
_geom_bond_distance
_geom_bond_site_symmetry_2
H0 O14 1.006655 1_555
H0 O6 1.634544 1_555
H1 O2 1.006655 1_555
H1 O7 1.634544 1_555
H2 O1 1.006655 1_555
H2 O4 1.634544 1_555
H3 O3 1.006655 1_555
H3 O5 1.634544 1_555
H4 O12 0.999786 1_555
H4 O9 1.630292 1_655
H5 O13 0.999786 1_555
H5 O8 1.630292 1_555
H6 O0 0.999786 1_555
H6 O11 1.630292 1_455
H7 O15 0.999786 1_555
H7 O10 1.630292 1_555
O0 S0 1.539354 1_555
O1 S2 1.538750 1_555
O2 S1 1.538750 1_655
O3 S3 1.538750 1_455
O4 S3 1.437326 1_555
O5 S2 1.437326 1_555
O6 S1 1.437326 1_555
O7 S0 1.437326 1_555
O8 S3 1.422152 1_555
O9 S2 1.422152 1_555
O10 S1 1.422152 1_555
O11 S0 1.422152 1_555
O12 S2 1.539354 1_555
O13 S3 1.539354 1_455
O14 S0 1.538750 1_555
O15 S1 1.539354 1_655
