# generated using pymatgen
data_Na6Mg(SbO4)2
_symmetry_space_group_name_H-M   'P 1'
_cell_length_a   6.59795885
_cell_length_b   5.92184184
_cell_length_c   8.55594810
_cell_angle_alpha   103.34105033
_cell_angle_beta   88.38041148
_cell_angle_gamma   122.60245802
_symmetry_Int_Tables_number   1
_chemical_formula_structural   Na6Mg(SbO4)2
_chemical_formula_sum   'Na6 Mg1 Sb2 O8'
_cell_volume   272.13465969
_cell_formula_units_Z   1
loop_
 _symmetry_equiv_pos_site_id
 _symmetry_equiv_pos_as_xyz
  1  'x, y, z'
loop_
 _atom_site_type_symbol
 _atom_site_label
 _atom_site_symmetry_multiplicity
 _atom_site_fract_x
 _atom_site_fract_y
 _atom_site_fract_z
 _atom_site_occupancy
  Na  Na0  1  0.75237894  0.76282980  0.41606679  1
  Na  Na1  1  0.21699488  0.52415623  0.49631010  1
  Na  Na2  1  0.63760542  0.50907143  0.94229176  1
  Na  Na3  1  0.20422394  0.65298721  0.86829766  1
  Na  Na4  1  0.15847629  0.99430656  0.62687476  1
  Na  Na5  1  0.69295539  0.30085352  0.56214901  1
  Mg  Mg0  1  0.80289868  0.23556096  0.18642762  1
  Sb  Sb0  1  0.74602258  0.02386603  0.81606316  1
  Sb  Sb1  1  0.19512982  0.97447579  0.20787715  1
  O  O0  1  0.97726919  0.23671010  0.67055513  1
  O  O1  1  0.45722607  0.95363630  0.70136701  1
  O  O2  1  0.08034874  0.72170864  0.35201790  1
  O  O3  1  0.53436824  0.26422758  0.31369130  1
  O  O4  1  0.88872386  0.37809356  0.98807849  1
  O  O5  1  0.77592197  0.71022719  0.71679452  1
  O  O6  1  0.00279309  0.13509471  0.29400643  1
  O  O7  1  0.59094891  0.86177741  0.00113123  1
loop_
_geom_bond_atom_site_label_1
_geom_bond_atom_site_label_2
_geom_bond_distance
_geom_bond_site_symmetry_2
Na0 O2 2.341245 1_655
Na0 O6 2.391696 1_665
Na0 O3 2.419769 1_555
Na0 O5 2.680704 1_555
Na0 O0 2.773694 1_565
Na1 O6 2.256242 1_555
Na1 O2 2.360432 1_555
Na1 O0 2.399659 1_455
Na1 O1 2.410959 1_555
Na2 O7 2.215761 1_556
Na2 O4 2.249903 1_555
Na2 O5 2.400796 1_555
Na3 O4 2.243035 1_455
Na3 O0 2.328562 1_455
Na3 O7 2.333831 1_556
Na3 O1 2.415020 1_555
Na4 O1 2.236749 1_555
Na4 O0 2.281739 1_465
Na4 O5 2.388447 1_455
Na4 O2 2.412841 1_555
Na5 O5 2.248981 1_555
Na5 O3 2.308522 1_555
Na5 O0 2.356340 1_555
Na5 O1 2.375926 1_545
Mg0 O4 2.001197 1_554
Mg0 O6 2.026712 1_655
Mg0 O3 2.117382 1_555
Mg0 O7 2.130438 1_545
Mg0 O2 2.496304 1_655
O0 Sb0 2.002739 1_555
O1 Sb0 1.957082 1_565
O2 Sb1 1.978021 1_555
O3 Sb1 2.008160 1_545
O4 Sb0 1.994505 1_555
O5 Sb0 1.966544 1_565
O6 Sb1 1.995642 1_545
O7 Sb0 2.006734 1_564
