# generated using pymatgen
data_EuMgFeO3
_symmetry_space_group_name_H-M   'P 1'
_cell_length_a   4.44249307
_cell_length_b   4.49225796
_cell_length_c   4.47386333
_cell_angle_alpha   97.64084187
_cell_angle_beta   82.76011911
_cell_angle_gamma   97.36822697
_symmetry_Int_Tables_number   1
_chemical_formula_structural   EuMgFeO3
_chemical_formula_sum   'Eu1 Mg1 Fe1 O3'
_cell_volume   87.21964282
_cell_formula_units_Z   1
loop_
 _symmetry_equiv_pos_site_id
 _symmetry_equiv_pos_as_xyz
  1  'x, y, z'
loop_
 _atom_site_type_symbol
 _atom_site_label
 _atom_site_symmetry_multiplicity
 _atom_site_fract_x
 _atom_site_fract_y
 _atom_site_fract_z
 _atom_site_occupancy
  Eu  Eu0  1  0.62092658  0.37434418  0.62466422  1
  Mg  Mg0  1  0.24643928  0.75495638  0.24580075  1
  Fe  Fe0  1  0.95515822  0.04546963  0.95470351  1
  O  O0  1  0.47477434  0.02469643  0.97569886  1
  O  O1  1  0.97639280  0.52436843  0.97403556  1
  O  O2  1  0.97630877  0.02616496  0.47509709  1
loop_
_geom_bond_atom_site_label_1
_geom_bond_atom_site_label_2
_geom_bond_distance
_geom_bond_site_symmetry_2
Eu0 O1 2.336676 1_555
Eu0 O2 2.339986 1_555
Eu0 O0 2.343606 1_555
Mg0 O1 1.924704 1_454
Mg0 O2 1.925925 1_465
Mg0 O0 1.929422 1_564
Fe0 O0 2.114864 1_555
Fe0 O2 2.126533 1_555
Fe0 O1 2.131936 1_555
Fe0 O0 2.336329 1_655
Fe0 O2 2.355343 1_556
Fe0 O1 2.368296 1_545
