# generated using pymatgen
data_Na6La4Hf4Si5S7O48
_symmetry_space_group_name_H-M   'P 1'
_cell_length_a   18.56883656
_cell_length_b   9.23967602
_cell_length_c   23.91295437
_cell_angle_alpha   89.96111300
_cell_angle_beta   89.51709079
_cell_angle_gamma   119.84900057
_symmetry_Int_Tables_number   1
_chemical_formula_structural   Na6La4Hf4Si5S7O48
_chemical_formula_sum   'Na18 La12 Hf12 Si15 S21 O144'
_cell_volume   3558.29395247
_cell_formula_units_Z   3
loop_
 _symmetry_equiv_pos_site_id
 _symmetry_equiv_pos_as_xyz
  1  'x, y, z'
loop_
 _atom_site_type_symbol
 _atom_site_label
 _atom_site_symmetry_multiplicity
 _atom_site_fract_x
 _atom_site_fract_y
 _atom_site_fract_z
 _atom_site_occupancy
  Na  Na0  1  0.99633239  0.62129932  0.25593835  1
  Na  Na1  1  0.49952045  0.62188824  0.25143097  1
  Na  Na2  1  -0.00133526  0.38135507  0.75009116  1
  Na  Na3  1  0.49811020  0.36130035  0.75278262  1
  Na  Na4  1  0.66408006  0.31121842  0.92335386  1
  Na  Na5  1  0.16412732  0.00944096  0.43541986  1
  Na  Na6  1  0.00467396  0.99586128  0.51108362  1
  Na  Na7  1  0.50538101  0.98889937  0.50330117  1
  Na  Na8  1  0.00682968  0.01841945  0.99478130  1
  Na  Na9  1  0.50569186  0.01993823  0.00480532  1
  Na  Na10  1  0.33034938  0.31504811  0.84334999  1
  Na  Na11  1  0.82961684  0.33093524  0.81827024  1
  Na  Na12  1  0.34590924  0.35322906  0.32633092  1
  Na  Na13  1  0.82379035  0.33942334  0.34858994  1
  Na  Na14  1  0.19201812  0.65050465  0.16317073  1
  Na  Na15  1  0.67281917  0.64589540  0.15754042  1
  Na  Na16  1  0.17452646  0.70343105  0.66161003  1
  Na  Na17  1  0.68717374  0.70184297  0.67260660  1
  La  La0  1  0.99290797  0.98898736  0.36050483  1
  La  La1  1  0.49898950  0.00754831  0.85591159  1
  La  La2  1  0.31877896  0.33255504  0.67554483  1
  La  La3  1  0.82265500  0.31000632  0.68519908  1
  La  La4  1  0.33057564  0.34787666  0.18200650  1
  La  La5  1  0.81708524  0.30593505  0.17498976  1
  La  La6  1  0.83254707  0.32006163  0.99272618  1
  La  La7  1  0.33411627  0.34877090  0.49612772  1
  La  La8  1  0.16956217  0.66341974  0.31419810  1
  La  La9  1  0.67198946  0.64357475  0.31462394  1
  La  La10  1  0.17381187  0.70130072  0.81482934  1
  La  La11  1  0.66667693  0.65901435  0.81120289  1
  Hf  Hf0  1  0.49860508  0.01771701  0.35263762  1
  Hf  Hf1  1  0.99880733  0.97831359  0.85152521  1
  Hf  Hf2  1  0.99660402  0.98106177  0.65065792  1
  Hf  Hf3  1  0.51122028  0.00044276  0.64357194  1
  Hf  Hf4  1  0.00551942  0.01876117  0.14005539  1
  Hf  Hf5  1  0.49572866  0.01177773  0.14920179  1
  Hf  Hf6  1  0.32688761  0.31929611  0.98362860  1
  Hf  Hf7  1  0.82785845  0.33693703  0.48477629  1
  Hf  Hf8  1  0.16159241  0.66350662  0.01453642  1
  Hf  Hf9  1  0.66554665  0.65942219  0.01878722  1
  Hf  Hf10  1  0.16443192  0.67070938  0.52081568  1
  Hf  Hf11  1  0.66083049  0.65691619  0.51550283  1
  Si  Si0  1  0.36048825  0.72222955  0.25186515  1
  Si  Si1  1  0.49761318  0.29266153  0.24987053  1
  Si  Si2  1  0.64291201  0.29146857  0.74946482  1
  Si  Si3  1  0.00068408  0.70398673  0.74960926  1
  Si  Si4  1  0.86074702  0.99941453  0.75225405  1
  Si  Si5  1  0.16998213  0.01875069  0.57775505  1
  Si  Si6  1  0.68494125  0.02439239  0.58147611  1
  Si  Si7  1  0.33454869  0.66262068  0.58362282  1
  Si  Si8  1  0.83179559  0.00852715  0.08399245  1
  Si  Si9  1  0.18518569  0.34650407  0.08279932  1
  Si  Si10  1  0.67015787  0.32453038  0.07814565  1
  Si  Si11  1  0.51539566  0.37652792  0.91810632  1
  Si  Si12  1  0.16281880  0.96967510  0.92031968  1
  Si  Si13  1  0.66429505  0.35705211  0.41946658  1
  Si  Si14  1  0.01720984  0.65181850  0.41612602  1
  S  S0  1  0.13934613  0.99552495  0.24735301  1
  S  S1  1  0.63679039  0.00184399  0.25189766  1
  S  S2  1  0.85982018  0.71310339  0.24281734  1
  S  S3  1  0.99946384  0.29157758  0.24480432  1
  S  S4  1  0.13720376  0.27263841  0.75206832  1
  S  S5  1  0.49749234  0.70383574  0.74485832  1
  S  S6  1  0.35699651  0.00445082  0.74234976  1
  S  S7  1  0.49440655  0.33638699  0.58595626  1
  S  S8  1  0.98350505  0.33000799  0.57987395  1
  S  S9  1  0.83094989  0.63811632  0.57908303  1
  S  S10  1  0.48530148  0.64100988  0.08001951  1
  S  S11  1  0.99477554  0.65114644  0.08751634  1
  S  S12  1  0.32995075  0.02430652  0.08017630  1
  S  S13  1  0.31098067  0.65368731  0.92335631  1
  S  S14  1  0.81840082  0.67535279  0.92007875  1
  S  S15  1  0.02135308  0.36723748  0.91600095  1
  S  S16  1  0.66728335  0.96321242  0.92063469  1
  S  S17  1  0.31775635  0.96369468  0.41915860  1
  S  S18  1  0.80954513  0.96805465  0.42295531  1
  S  S19  1  0.16891314  0.36737469  0.42065745  1
  S  S20  1  0.51973967  0.67340398  0.41524834  1
  O  O0  1  0.10264023  0.00297608  0.30219867  1
  O  O1  1  0.59254834  0.00823479  0.30352157  1
  O  O2  1  0.41456641  0.82658553  0.30735269  1
  O  O3  1  0.89822915  0.79067826  0.29742112  1
  O  O4  1  0.50048894  0.19265356  0.30700997  1
  O  O5  1  0.99771216  0.20501615  0.29722829  1
  O  O6  1  0.09314367  0.17761876  0.80376660  1
  O  O7  1  0.60255651  0.20976784  0.81150910  1
  O  O8  1  0.49174818  0.78278075  0.79696252  1
  O  O9  1  0.00380304  0.81065381  0.80675818  1
  O  O10  1  0.39313730  -0.00027566  0.79731240  1
  O  O11  1  0.91557778  0.00007937  0.80745629  1
  O  O12  1  0.40845895  0.00667968  0.69487577  1
  O  O13  1  0.91252461  0.00118791  0.69475616  1
  O  O14  1  0.09314838  0.18224014  0.70019289  1
  O  O15  1  0.58410161  0.16471057  0.69941209  1
  O  O16  1  0.00338531  0.81411963  0.69399315  1
  O  O17  1  0.49411869  0.79654949  0.69443872  1
  O  O18  1  0.41128924  0.81997793  0.19415885  1
  O  O19  1  0.91303937  0.81558589  0.19575273  1
  O  O20  1  -0.00078008  0.19215265  0.19527643  1
  O  O21  1  0.50017815  0.18899257  0.19419165  1
  O  O22  1  0.08944025  0.00276142  0.19980045  1
  O  O23  1  0.59234232  0.00298342  0.20014485  1
  O  O24  1  0.45760089  0.36636933  0.63648079  1
  O  O25  1  0.95996327  0.37256605  0.63375686  1
  O  O26  1  0.23473565  0.10806260  0.62857510  1
  O  O27  1  0.73449805  0.07468397  0.63948626  1
  O  O28  1  0.31063449  0.53647678  0.63715413  1
  O  O29  1  0.81226770  0.54235923  0.63076135  1
  O  O30  1  0.46153522  0.55071092  0.13470012  1
  O  O31  1  0.95899538  0.54893461  0.13864224  1
  O  O32  1  0.31153980  0.08384459  0.13223287  1
  O  O33  1  0.81198469  0.08497059  0.13967474  1
  O  O34  1  0.23316519  0.38743866  0.14217600  1
  O  O35  1  0.73272760  0.36541223  0.13108391  1
  O  O36  1  0.23922252  0.31500901  0.03466559  1
  O  O37  1  0.71005128  0.29825494  0.02027944  1
  O  O38  1  0.42556116  0.54018436  0.03598353  1
  O  O39  1  0.94072900  0.58087846  0.03873896  1
  O  O40  1  0.34489463  0.14057363  0.03248231  1
  O  O41  1  0.85921137  0.13907897  0.03186122  1
  O  O42  1  0.20890723  0.12115955  0.51900505  1
  O  O43  1  0.74003322  0.16573961  0.53284085  1
  O  O44  1  0.36012178  0.58606459  0.53007124  1
  O  O45  1  0.84625920  0.55174203  0.53102920  1
  O  O46  1  0.44227584  0.30534081  0.53609391  1
  O  O47  1  0.92545470  0.31385810  0.53445559  1
  O  O48  1  0.25699818  0.66335525  0.96839214  1
  O  O49  1  0.77553829  0.69432071  0.97041448  1
  O  O50  1  0.07425528  0.46461993  0.96564148  1
  O  O51  1  0.58858159  0.50228060  0.96232397  1
  O  O52  1  0.15254857  0.83615480  0.97062074  1
  O  O53  1  0.67335593  0.87290582  0.97023329  1
  O  O54  1  0.27468196  0.85844198  0.46898010  1
  O  O55  1  0.75685609  0.85014678  0.46734878  1
  O  O56  1  0.17143985  0.46825711  0.46901225  1
  O  O57  1  0.65270265  0.46909422  0.46869588  1
  O  O58  1  0.09140896  0.67856262  0.45975881  1
  O  O59  1  0.57192324  0.67997953  0.46425445  1
  O  O60  1  0.04520300  0.63348787  0.35170850  1
  O  O61  1  0.55925928  0.66183751  0.36217146  1
  O  O62  1  0.26787056  0.88962636  0.36802995  1
  O  O63  1  0.77204594  0.90945002  0.36747904  1
  O  O64  1  0.17010051  0.44775690  0.36662572  1
  O  O65  1  0.68905671  0.46296679  0.36063065  1
  O  O66  1  0.06140268  0.45840000  0.86356203  1
  O  O67  1  0.54153304  0.45354150  0.85461501  1
  O  O68  1  0.18685848  0.91160090  0.86211459  1
  O  O69  1  0.66815520  0.88274569  0.86780514  1
  O  O70  1  0.27135332  0.63309002  0.86857478  1
  O  O71  1  0.76866886  0.64848698  0.86953413  1
  O  O72  1  0.01637482  0.83218905  0.42074556  1
  O  O73  1  0.51378330  0.82828502  0.41501536  1
  O  O74  1  0.40123158  0.97673803  0.41339676  1
  O  O75  1  0.89257790  0.98045866  0.42626004  1
  O  O76  1  0.09134304  0.19941375  0.42441831  1
  O  O77  1  0.57994461  0.17358446  0.41249361  1
  O  O78  1  0.01519763  0.20061648  0.91603789  1
  O  O79  1  0.51443222  0.19653004  0.92502385  1
  O  O80  1  0.07839384  0.98388416  0.91449921  1
  O  O81  1  0.58972963  0.97428786  0.92619890  1
  O  O82  1  0.39268786  0.80590691  0.92662716  1
  O  O83  1  0.90210187  0.82943782  0.91479190  1
  O  O84  1  0.50841548  0.19314186  0.59310852  1
  O  O85  1  0.98907998  0.17509617  0.58386597  1
  O  O86  1  0.08027957  0.00859794  0.58944747  1
  O  O87  1  0.59201442  0.00999623  0.58681989  1
  O  O88  1  0.41421033  0.84781043  0.59528671  1
  O  O89  1  0.90689949  0.80683498  0.58486966  1
  O  O90  1  0.49036597  0.80646160  0.08532622  1
  O  O91  1  0.01019427  0.82436148  0.09663223  1
  O  O92  1  0.40602088  0.00787010  0.08639660  1
  O  O93  1  0.91338219  0.98318814  0.09510545  1
  O  O94  1  0.09147600  0.17520673  0.08900316  1
  O  O95  1  0.58025388  0.15464677  0.09037074  1
  O  O96  1  0.35236603  0.16164171  0.74303840  1
  O  O97  1  0.86091983  0.17638114  0.75329062  1
  O  O98  1  0.22202856  0.29603254  0.75333679  1
  O  O99  1  0.73592509  0.31893868  0.74878148  1
  O  O100  1  0.42643330  0.52848266  0.74408191  1
  O  O101  1  0.92016205  0.52050009  0.75057314  1
  O  O102  1  0.35706195  0.54040127  0.25312163  1
  O  O103  1  0.85476881  0.54700879  0.24307137  1
  O  O104  1  0.41551551  0.31313019  0.25092908  1
  O  O105  1  0.92662658  0.31712340  0.24395921  1
  O  O106  1  0.22493353  0.13325547  0.24571388  1
  O  O107  1  0.72162027  0.14848996  0.25316726  1
  O  O108  1  0.32093680  0.50519367  0.93304813  1
  O  O109  1  0.82899900  0.52761739  0.92602485  1
  O  O110  1  0.42343830  0.35332383  0.93497114  1
  O  O111  1  0.93926603  0.35404108  0.92150453  1
  O  O112  1  0.24547562  0.15339386  0.93344506  1
  O  O113  1  0.73896248  0.13889544  0.91914282  1
  O  O114  1  0.32766196  0.13214535  0.42437156  1
  O  O115  1  0.82093508  0.13733624  0.43179463  1
  O  O116  1  0.24051150  0.33677153  0.41934054  1
  O  O117  1  0.74705821  0.33898883  0.43252588  1
  O  O118  1  0.43663928  0.52253089  0.41963649  1
  O  O119  1  0.92501558  0.49351933  0.43176138  1
  O  O120  1  0.16776063  0.50064586  0.06780945  1
  O  O121  1  0.65520843  0.48582804  0.07170499  1
  O  O122  1  0.07765488  0.66525916  0.07640161  1
  O  O123  1  0.57043923  0.67070186  0.06605498  1
  O  O124  1  0.25862797  0.85458885  0.06727208  1
  O  O125  1  0.74962453  0.82836384  0.07206150  1
  O  O126  1  0.15436669  0.82625884  0.57133534  1
  O  O127  1  0.66659783  0.83682885  0.56282086  1
  O  O128  1  0.25016749  0.67282635  0.57004391  1
  O  O129  1  0.75952693  0.66377520  0.56495886  1
  O  O130  1  0.06923951  0.47061217  0.56503282  1
  O  O131  1  0.57770962  0.48956472  0.57565459  1
  O  O132  1  0.13874843  0.83417996  0.24348641  1
  O  O133  1  0.64039714  0.84515716  0.25193442  1
  O  O134  1  0.26767435  0.70315534  0.25008908  1
  O  O135  1  0.77663561  0.69637125  0.23885683  1
  O  O136  1  0.07568044  0.45932196  0.24090708  1
  O  O137  1  0.58012336  0.48248531  0.24787446  1
  O  O138  1  0.14025782  0.43586185  0.75189914  1
  O  O139  1  0.63859175  0.46429597  0.74135189  1
  O  O140  1  0.08454381  0.68379295  0.74699764  1
  O  O141  1  0.57546563  0.69702393  0.74155618  1
  O  O142  1  0.27248716  0.85610000  0.73795717  1
  O  O143  1  0.76889298  0.83514274  0.75089285  1
loop_
_geom_bond_atom_site_label_1
_geom_bond_atom_site_label_2
_geom_bond_distance
_geom_bond_site_symmetry_2
Na0 O103 2.386115 1_555
Na0 O132 2.399797 1_655
Na0 O60 2.452470 1_655
Na0 O105 2.458138 1_555
Na0 O136 2.593612 1_655
Na0 O31 2.892933 1_555
Na1 O102 2.362551 1_555
Na1 O133 2.393243 1_555
Na1 O137 2.413172 1_555
Na1 O104 2.478427 1_555
Na1 O61 2.832422 1_555
Na1 O30 2.880233 1_555
Na2 O97 2.304200 1_455
Na2 O101 2.375546 1_455
Na2 O138 2.419122 1_555
Na2 O140 2.432935 1_555
Na2 O25 2.870175 1_455
Na2 O66 2.908087 1_555
Na3 O139 2.302510 1_555
Na3 O96 2.413102 1_555
Na3 O100 2.500329 1_555
Na3 O67 2.580338 1_555
Na3 O141 2.704555 1_555
Na3 O24 2.893579 1_555
Na4 O79 2.431680 1_555
Na4 O37 2.499976 1_556
Na4 O113 2.584643 1_555
Na4 O109 2.699687 1_555
Na4 O81 2.705926 1_545
Na4 O7 2.885459 1_555
Na4 O51 2.897249 1_555
Na4 O71 3.011165 1_555
Na5 O42 2.220007 1_555
Na5 O72 2.424227 1_545
Na5 O116 2.650632 1_555
Na5 O114 2.671220 1_555
Na5 O76 2.709923 1_555
Na5 O58 2.717283 1_545
Na6 O86 2.318736 1_565
Na6 O89 2.499054 1_455
Na6 O85 2.515615 1_465
Na6 O72 2.706376 1_555
Na6 O76 2.710666 1_565
Na6 O75 2.871217 1_455
Na7 O87 2.521333 1_565
Na7 O73 2.629241 1_555
Na7 O77 2.671451 1_565
Na7 O88 2.672146 1_555
Na7 O84 2.842209 1_565
Na7 O74 2.868589 1_555
Na8 O80 2.435813 1_545
Na8 O78 2.476720 1_555
Na8 O83 2.678910 1_445
Na8 O94 2.728229 1_556
Na8 O93 2.870339 1_446
Na9 O95 2.447148 1_555
Na9 O79 2.460756 1_554
Na9 O81 2.598685 1_544
Na9 O92 2.641581 1_555
Na9 O90 2.665695 1_545
Na9 O82 2.783751 1_544
Na10 O112 2.636574 1_555
Na10 O110 2.714686 1_555
Na10 O108 2.832393 1_555
Na10 O98 2.903697 1_555
Na10 O96 2.914641 1_555
Na10 O100 3.021096 1_555
Na11 O101 2.352477 1_555
Na11 O97 2.367625 1_555
Na11 O99 2.378489 1_555
Na11 O113 2.958565 1_555
Na12 O104 2.344623 1_555
Na12 O102 2.394116 1_555
Na12 O118 2.776401 1_555
Na12 O106 2.902935 1_555
Na12 O116 2.903466 1_555
Na12 O114 3.012496 1_555
Na13 O117 2.450492 1_555
Na13 O119 2.630345 1_555
Na13 O115 2.709749 1_555
Na13 O107 2.943661 1_555
Na13 O103 3.040928 1_555
Na14 O134 2.429116 1_555
Na14 O120 2.592486 1_555
Na14 O136 2.715125 1_555
Na14 O124 2.822960 1_555
Na14 O34 2.930479 1_555
Na14 O132 3.031610 1_555
Na14 O122 3.032414 1_555
Na15 O121 2.457921 1_555
Na15 O125 2.570462 1_555
Na15 O135 2.623801 1_555
Na15 O137 2.693430 1_555
Na16 O142 2.477306 1_555
Na16 O126 2.553710 1_555
Na16 O140 2.575688 1_555
Na16 O128 2.681707 1_555
Na17 O143 2.348352 1_555
Na17 O139 2.516498 1_555
Na17 O141 2.621731 1_555
La0 O72 2.236092 1_655
La0 O3 2.359164 1_555
La0 O75 2.398705 1_555
La0 O0 2.408781 1_665
La0 O76 2.443479 1_665
La0 O5 2.469424 1_565
La1 O7 2.168626 1_555
La1 O79 2.318626 1_555
La1 O10 2.395272 1_555
La1 O8 2.459144 1_545
La1 O81 2.514151 1_545
La1 O82 2.550617 1_545
La2 O28 2.167810 1_555
La2 O26 2.193150 1_555
La2 O98 2.478154 1_555
La2 O100 2.533042 1_555
La2 O96 2.545897 1_555
La2 O24 2.602383 1_555
La3 O99 2.236825 1_555
La3 O27 2.256673 1_555
La3 O97 2.360194 1_555
La3 O101 2.459927 1_555
La3 O29 2.598743 1_555
La3 O25 2.612893 1_555
La4 O34 2.235911 1_555
La4 O102 2.333563 1_555
La4 O104 2.419559 1_555
La4 O30 2.473795 1_555
La4 O106 2.484876 1_555
La4 O32 2.577936 1_555
La5 O33 2.168324 1_555
La5 O35 2.177579 1_555
La5 O107 2.475268 1_555
La5 O103 2.564029 1_555
La5 O105 2.591448 1_555
La5 O31 2.609535 1_555
La6 O41 2.178789 1_556
La6 O37 2.273080 1_556
La6 O113 2.465348 1_555
La6 O111 2.499837 1_555
La6 O39 2.505083 1_556
La6 O109 2.519840 1_555
La7 O44 2.157375 1_555
La7 O42 2.288546 1_555
La7 O46 2.437652 1_555
La7 O116 2.503458 1_555
La7 O118 2.538182 1_555
La7 O114 2.595039 1_555
La8 O134 2.256190 1_555
La8 O60 2.354257 1_555
La8 O64 2.357792 1_555
La8 O62 2.367101 1_555
La8 O136 2.539765 1_555
La8 O132 2.566572 1_555
La9 O65 2.150667 1_555
La9 O137 2.279207 1_555
La9 O61 2.452503 1_555
La9 O135 2.508461 1_555
La9 O63 2.566077 1_555
La9 O133 2.675670 1_555
La10 O68 2.156829 1_555
La10 O140 2.276762 1_555
La10 O66 2.458479 1_555
La10 O142 2.472461 1_555
La10 O70 2.550290 1_555
La10 O138 2.677230 1_555
La11 O143 2.281832 1_555
La11 O139 2.320278 1_555
La11 O67 2.376351 1_555
La11 O71 2.401999 1_555
La11 O69 2.460501 1_555
La11 O141 2.530716 1_555
Hf0 O4 1.935199 1_555
Hf0 O2 2.003595 1_545
Hf0 O77 2.068337 1_555
Hf0 O1 2.132576 1_555
Hf0 O74 2.190235 1_545
Hf0 O73 2.421265 1_545
Hf1 O9 1.923020 1_655
Hf1 O11 1.968763 1_565
Hf1 O80 2.101487 1_655
Hf1 O6 2.125162 1_665
Hf1 O83 2.213175 1_555
Hf1 O78 2.466049 1_665
Hf2 O16 1.913732 1_655
Hf2 O13 1.961028 1_565
Hf2 O86 2.046711 1_665
Hf2 O14 2.189480 1_665
Hf2 O89 2.284595 1_555
Hf2 O85 2.456408 1_565
Hf3 O15 1.976543 1_555
Hf3 O87 1.983429 1_555
Hf3 O88 2.018771 1_545
Hf3 O17 2.127060 1_545
Hf3 O84 2.172431 1_555
Hf3 O12 2.284641 1_555
Hf4 O93 1.913697 1_445
Hf4 O94 1.948217 1_555
Hf4 O91 2.113831 1_545
Hf4 O20 2.123882 1_555
Hf4 O22 2.181256 1_555
Hf4 O19 2.235186 1_445
Hf5 O21 1.927326 1_555
Hf5 O18 1.989423 1_545
Hf5 O95 2.020643 1_555
Hf5 O23 2.211532 1_555
Hf5 O92 2.239206 1_555
Hf5 O90 2.400062 1_545
Hf6 O112 1.949743 1_555
Hf6 O36 2.010764 1_556
Hf6 O110 2.017468 1_555
Hf6 O108 2.147975 1_555
Hf6 O40 2.181077 1_556
Hf6 O38 2.325873 1_556
Hf7 O117 1.967866 1_555
Hf7 O43 1.969974 1_555
Hf7 O119 2.077461 1_555
Hf7 O45 2.147913 1_555
Hf7 O115 2.189255 1_555
Hf7 O47 2.271924 1_555
Hf8 O52 1.985723 1_554
Hf8 O120 2.017862 1_555
Hf8 O48 2.079805 1_554
Hf8 O50 2.107698 1_554
Hf8 O122 2.145791 1_555
Hf8 O124 2.197424 1_555
Hf9 O121 1.974197 1_555
Hf9 O51 1.985768 1_554
Hf9 O125 2.026652 1_555
Hf9 O123 2.134730 1_555
Hf9 O49 2.217561 1_554
Hf9 O53 2.229185 1_554
Hf10 O126 1.956000 1_555
Hf10 O128 1.980223 1_555
Hf10 O58 2.026520 1_555
Hf10 O130 2.091268 1_555
Hf10 O54 2.270639 1_555
Hf10 O56 2.300727 1_555
Hf11 O127 1.970415 1_555
Hf11 O57 2.007989 1_555
Hf11 O131 2.103827 1_555
Hf11 O55 2.118162 1_555
Hf11 O59 2.157937 1_555
Hf11 O129 2.163882 1_555
O0 S0 1.490353 1_545
O1 S1 1.494530 1_555
O2 Si0 1.661035 1_555
O3 S2 1.495150 1_555
O4 Si1 1.665026 1_555
O5 S3 1.477950 1_555
O6 S4 1.494979 1_555
O7 Si2 1.658097 1_555
O8 S5 1.473876 1_555
O9 Si3 1.669922 1_555
O10 S6 1.491198 1_555
O11 Si4 1.672012 1_545
O12 S6 1.471211 1_555
O13 Si4 1.666472 1_545
O14 S4 1.498012 1_555
O15 Si2 1.657600 1_555
O16 Si3 1.659215 1_555
O17 S5 1.498240 1_555
O18 Si0 1.654702 1_555
O19 S2 1.479251 1_555
O20 S3 1.498024 1_455
O21 Si1 1.654873 1_555
O22 S0 1.495198 1_545
O23 S1 1.496236 1_555
O24 S7 1.475994 1_555
O25 S8 1.472499 1_555
O26 Si5 1.625386 1_555
O27 Si6 1.607410 1_555
O28 Si7 1.633240 1_555
O29 S9 1.454671 1_555
O30 S10 1.490937 1_555
O31 S11 1.479240 1_555
O32 S12 1.466307 1_555
O33 Si8 1.630592 1_555
O34 Si9 1.624641 1_555
O35 Si10 1.638193 1_555
O36 Si9 1.639509 1_555
O37 Si10 1.638492 1_555
O38 S10 1.483113 1_555
O39 S11 1.470163 1_555
O40 S12 1.492673 1_555
O41 Si8 1.626113 1_555
O42 Si5 1.640657 1_555
O43 Si6 1.659130 1_555
O44 Si7 1.640445 1_555
O45 S9 1.503248 1_555
O46 S7 1.478021 1_555
O47 S8 1.491181 1_555
O48 S13 1.497877 1_555
O49 S14 1.495329 1_555
O50 S15 1.524774 1_555
O51 Si11 1.664029 1_555
O52 Si12 1.662862 1_555
O53 S16 1.486683 1_555
O54 S17 1.487602 1_555
O55 S18 1.480184 1_555
O56 S19 1.472052 1_555
O57 Si13 1.650179 1_555
O58 Si14 1.653393 1_555
O59 S20 1.508830 1_555
O60 Si14 1.657180 1_555
O61 S20 1.491112 1_555
O62 S17 1.486758 1_555
O63 S18 1.476197 1_555
O64 S19 1.484395 1_555
O65 Si13 1.639483 1_555
O66 S15 1.481311 1_555
O67 Si11 1.639927 1_555
O68 Si12 1.628933 1_555
O69 S16 1.470340 1_555
O70 S13 1.473407 1_555
O71 S14 1.471845 1_555
O72 Si14 1.678043 1_555
O73 S20 1.489203 1_555
O74 S17 1.498850 1_555
O75 S18 1.490893 1_555
O76 S19 1.504561 1_555
O77 Si13 1.648174 1_555
O78 S15 1.485945 1_555
O79 Si11 1.662413 1_555
O80 Si12 1.644000 1_555
O81 S16 1.498498 1_555
O82 S13 1.471112 1_555
O83 S14 1.500775 1_555
O84 S7 1.480485 1_555
O85 S8 1.488632 1_555
O86 Si5 1.642563 1_555
O87 Si6 1.667125 1_555
O88 Si7 1.637624 1_555
O89 S9 1.501125 1_555
O90 S10 1.489728 1_555
O91 S11 1.495437 1_455
O92 S12 1.502494 1_555
O93 Si8 1.667434 1_565
O94 Si9 1.675935 1_555
O95 Si10 1.648926 1_555
O96 S6 1.497140 1_555
O97 Si4 1.633725 1_545
O98 S4 1.480028 1_555
O99 Si2 1.615817 1_555
O100 S5 1.496273 1_555
O101 Si3 1.608241 1_655
O102 Si0 1.649535 1_555
O103 S2 1.490203 1_555
O104 Si1 1.626878 1_555
O105 S3 1.484459 1_555
O106 S0 1.460276 1_545
O107 S1 1.481337 1_555
O108 S13 1.491023 1_555
O109 S14 1.479817 1_555
O110 Si11 1.657757 1_555
O111 S15 1.472125 1_655
O112 Si12 1.658648 1_545
O113 S16 1.502074 1_545
O114 S17 1.479027 1_545
O115 S18 1.485850 1_545
O116 S19 1.490649 1_555
O117 Si13 1.658469 1_555
O118 S20 1.480273 1_555
O119 Si14 1.644929 1_655
O120 Si9 1.649717 1_555
O121 Si10 1.653516 1_555
O122 S11 1.499794 1_455
O123 S10 1.498431 1_555
O124 S12 1.499493 1_565
O125 Si8 1.631017 1_565
O126 Si5 1.660931 1_565
O127 Si6 1.653607 1_565
O128 Si7 1.650755 1_555
O129 S9 1.499876 1_555
O130 S8 1.509710 1_455
O131 S7 1.506769 1_555
O132 S0 1.488227 1_555
O133 S1 1.482208 1_565
O134 Si0 1.643783 1_555
O135 S2 1.477688 1_555
O136 S3 1.492623 1_455
O137 Si1 1.658191 1_555
O138 S4 1.480725 1_555
O139 Si2 1.649674 1_555
O140 Si3 1.658647 1_555
O141 S5 1.481663 1_555
O142 S6 1.488027 1_565
O143 Si4 1.624187 1_555
