# generated using pymatgen
data_Na3Si2Ge2PO12
_symmetry_space_group_name_H-M   'P 1'
_cell_length_a   15.07647962
_cell_length_b   8.68083325
_cell_length_c   8.88181850
_cell_angle_alpha   90.00000000
_cell_angle_beta   125.84757859
_cell_angle_gamma   90.00000000
_symmetry_Int_Tables_number   1
_chemical_formula_structural   Na3Si2Ge2PO12
_chemical_formula_sum   'Na12 Si8 Ge8 P4 O48'
_cell_volume   942.23222207
_cell_formula_units_Z   4
loop_
 _symmetry_equiv_pos_site_id
 _symmetry_equiv_pos_as_xyz
  1  'x, y, z'
loop_
 _atom_site_type_symbol
 _atom_site_label
 _atom_site_symmetry_multiplicity
 _atom_site_fract_x
 _atom_site_fract_y
 _atom_site_fract_z
 _atom_site_occupancy
  Na  Na0  1  0.24815493  0.76978179  0.99835076  1
  Na  Na1  1  0.74815493  0.73021821  0.49835076  1
  Na  Na2  1  0.74815493  0.26978179  0.99835076  1
  Na  Na3  1  0.24815493  0.23021821  0.49835076  1
  Na  Na4  1  0.50259269  0.12009675  0.75136395  1
  Na  Na5  1  0.50259269  0.87990325  0.25136395  1
  Na  Na6  1  0.00259269  0.62009675  0.75136395  1
  Na  Na7  1  0.00259269  0.37990325  0.25136395  1
  Na  Na8  1  0.81293783  0.93600315  0.23785482  1
  Na  Na9  1  0.81293783  0.06399685  0.73785482  1
  Na  Na10  1  0.31293783  0.43600315  0.23785482  1
  Na  Na11  1  0.31293783  0.56399685  0.73785482  1
  Si  Si0  1  0.35577046  0.89422032  0.75201953  1
  Si  Si1  1  0.64475400  0.88744866  0.74687437  1
  Si  Si2  1  0.64475400  0.11255134  0.24687437  1
  Si  Si3  1  0.35577046  0.10577968  0.25201953  1
  Si  Si4  1  0.85577046  0.39422032  0.75201953  1
  Si  Si5  1  0.14475400  0.38744866  0.74687437  1
  Si  Si6  1  0.14475400  0.61255134  0.24687437  1
  Si  Si7  1  0.85577046  0.60577968  0.25201953  1
  Ge  Ge0  1  0.10468256  0.74785141  0.55986980  1
  Ge  Ge1  1  0.89444527  0.73868937  0.93926476  1
  Ge  Ge2  1  0.89444527  0.26131063  0.43926476  1
  Ge  Ge3  1  0.10468256  0.25214859  0.05986980  1
  Ge  Ge4  1  0.60468256  0.24785141  0.55986980  1
  Ge  Ge5  1  0.39444527  0.23868937  0.93926476  1
  Ge  Ge6  1  0.39444527  0.76131063  0.43926476  1
  Ge  Ge7  1  0.60468256  0.75214859  0.05986980  1
  P  P0  1  0.00230692  0.96708247  0.74429789  1
  P  P1  1  0.00230692  0.03291753  0.24429789  1
  P  P2  1  0.50230692  0.46708247  0.74429789  1
  P  P3  1  0.50230692  0.53291753  0.24429789  1
  O  O0  1  0.14844567  0.57831452  0.73250718  1
  O  O1  1  0.85499787  0.58148542  0.76537350  1
  O  O2  1  0.85499787  0.41851458  0.26537350  1
  O  O3  1  0.14844567  0.42168548  0.23250718  1
  O  O4  1  0.64844567  0.07831452  0.73250718  1
  O  O5  1  0.35499787  0.08148542  0.76537350  1
  O  O6  1  0.35499787  0.91851458  0.26537350  1
  O  O7  1  0.64844567  0.92168548  0.23250718  1
  O  O8  1  0.42810400  0.56349031  0.56419164  1
  O  O9  1  0.57049126  0.56585114  0.92147794  1
  O  O10  1  0.57049126  0.43414886  0.42147794  1
  O  O11  1  0.42810400  0.43650969  0.06419164  1
  O  O12  1  0.92810400  0.06349031  0.56419164  1
  O  O13  1  0.07049126  0.06585114  0.92147794  1
  O  O14  1  0.07049126  0.93414886  0.42147794  1
  O  O15  1  0.92810400  0.93650969  0.06419164  1
  O  O16  1  0.25078392  0.81173928  0.72772584  1
  O  O17  1  0.75328555  0.81937485  0.76952351  1
  O  O18  1  0.75328555  0.18062515  0.26952351  1
  O  O19  1  0.25078392  0.18826072  0.22772584  1
  O  O20  1  0.75078392  0.31173928  0.72772584  1
  O  O21  1  0.25328555  0.31937485  0.76952351  1
  O  O22  1  0.25328555  0.68062515  0.26952351  1
  O  O23  1  0.75078392  0.68826072  0.22772584  1
  O  O24  1  0.36607012  0.86843423  0.58094004  1
  O  O25  1  0.63995716  0.86898256  0.92591486  1
  O  O26  1  0.63995716  0.13101744  0.42591486  1
  O  O27  1  0.36607012  0.13156577  0.08094004  1
  O  O28  1  0.86607012  0.36843423  0.58094004  1
  O  O29  1  0.13995716  0.36898256  0.92591486  1
  O  O30  1  0.13995716  0.63101744  0.42591486  1
  O  O31  1  0.86607012  0.63156577  0.08094004  1
  O  O32  1  0.45872520  0.80840648  0.94021256  1
  O  O33  1  0.54004069  0.81215015  0.55555514  1
  O  O34  1  0.54004069  0.18784985  0.05555514  1
  O  O35  1  0.45872520  0.19159352  0.44021256  1
  O  O36  1  0.95872520  0.30840648  0.94021256  1
  O  O37  1  0.04004069  0.31215015  0.55555514  1
  O  O38  1  0.04004069  0.68784985  0.05555514  1
  O  O39  1  0.95872520  0.69159352  0.44021256  1
  O  O40  1  0.08422117  0.86363958  0.73852918  1
  O  O41  1  0.91923270  0.86356863  0.74815275  1
  O  O42  1  0.91923270  0.13643137  0.24815275  1
  O  O43  1  0.08422117  0.13636042  0.23852918  1
  O  O44  1  0.58422117  0.36363958  0.73852918  1
  O  O45  1  0.41923270  0.36356863  0.74815275  1
  O  O46  1  0.41923270  0.63643137  0.24815275  1
  O  O47  1  0.58422117  0.63636042  0.23852918  1
loop_
_geom_bond_atom_site_label_1
_geom_bond_atom_site_label_2
_geom_bond_distance
_geom_bond_site_symmetry_2
Na0 O6 2.326346 1_556
Na0 O40 2.327539 1_555
Na0 O16 2.454243 1_555
Na0 O22 2.487506 1_556
Na0 O46 2.492496 1_556
Na0 O0 2.537745 1_555
Na1 O1 2.326346 1_555
Na1 O47 2.327539 1_555
Na1 O23 2.454243 1_555
Na1 O17 2.487506 1_555
Na1 O41 2.492496 1_555
Na1 O7 2.537745 1_555
Na2 O2 2.326346 1_556
Na2 O44 2.327539 1_555
Na2 O20 2.454243 1_555
Na2 O18 2.487506 1_556
Na2 O42 2.492496 1_556
Na2 O4 2.537745 1_555
Na3 O5 2.326346 1_555
Na3 O43 2.327539 1_555
Na3 O19 2.454243 1_555
Na3 O21 2.487506 1_555
Na3 O45 2.492496 1_555
Na3 O3 2.537745 1_555
Na4 O5 2.324584 1_555
Na4 O4 2.329451 1_555
Na4 O45 2.450584 1_555
Na4 O44 2.482239 1_555
Na4 O34 2.485484 1_556
Na4 O35 2.513817 1_555
Na4 O24 2.766087 1_545
Na4 O25 2.771961 1_545
Na5 O6 2.324584 1_555
Na5 O7 2.329451 1_555
Na5 O46 2.450584 1_555
Na5 O47 2.482239 1_555
Na5 O33 2.485484 1_555
Na5 O32 2.513817 1_554
Na5 O27 2.766087 1_565
Na5 O26 2.771961 1_565
Na6 O1 2.324584 1_455
Na6 O0 2.329451 1_555
Na6 O41 2.450584 1_455
Na6 O40 2.482239 1_555
Na6 O38 2.485484 1_556
Na6 O39 2.513817 1_455
Na6 O28 2.766087 1_455
Na6 O29 2.771961 1_555
Na7 O2 2.324584 1_455
Na7 O3 2.329451 1_555
Na7 O42 2.450584 1_455
Na7 O43 2.482239 1_555
Na7 O37 2.485484 1_555
Na7 O36 2.513817 1_454
Na7 O31 2.766087 1_455
Na7 O30 2.771961 1_555
Na8 O23 2.326492 1_555
Na8 O42 2.330677 1_565
Na8 O18 2.386122 1_565
Na8 O7 2.455597 1_555
Na8 O25 2.520520 1_554
Na8 O12 2.597327 1_565
Na8 O39 2.817073 1_555
Na8 O15 2.920737 1_555
Na9 O20 2.326492 1_555
Na9 O41 2.330677 1_545
Na9 O17 2.386122 1_545
Na9 O4 2.455597 1_555
Na9 O26 2.520520 1_555
Na9 O15 2.597327 1_546
Na9 O36 2.817073 1_555
Na9 O12 2.920737 1_555
Na10 O19 2.326492 1_555
Na10 O46 2.330677 1_555
Na10 O22 2.386122 1_555
Na10 O3 2.455597 1_555
Na10 O29 2.520520 1_554
Na10 O8 2.597327 1_555
Na10 O35 2.817073 1_555
Na10 O11 2.920737 1_555
Na11 O16 2.326492 1_555
Na11 O45 2.330677 1_555
Na11 O21 2.386122 1_555
Na11 O0 2.455597 1_555
Na11 O30 2.520520 1_555
Na11 O11 2.597327 1_556
Na11 O32 2.817073 1_555
Na11 O8 2.920737 1_555
Ge0 O30 1.862284 1_555
Ge0 O39 1.863091 1_455
Ge0 O16 1.880370 1_555
Ge0 O14 1.910457 1_555
Ge0 O0 1.940994 1_555
Ge0 O40 2.048612 1_555
Ge1 O31 1.806011 1_556
Ge1 O38 1.850514 1_656
Ge1 O1 1.877642 1_555
Ge1 O17 1.880079 1_555
Ge1 O15 1.943737 1_556
Ge1 O41 2.222398 1_555
Ge2 O28 1.806011 1_555
Ge2 O37 1.850514 1_655
Ge2 O2 1.877642 1_555
Ge2 O18 1.880079 1_555
Ge2 O12 1.943737 1_555
Ge2 O42 2.222398 1_555
Ge3 O29 1.862284 1_554
Ge3 O36 1.863091 1_454
Ge3 O19 1.880370 1_555
Ge3 O13 1.910457 1_554
Ge3 O3 1.940994 1_555
Ge3 O43 2.048612 1_555
Ge4 O26 1.862284 1_555
Ge4 O35 1.863091 1_555
Ge4 O20 1.880370 1_555
Ge4 O10 1.910457 1_555
Ge4 O4 1.940994 1_555
Ge4 O44 2.048612 1_555
Ge5 O27 1.806011 1_556
Ge5 O34 1.850514 1_556
Ge5 O5 1.877642 1_555
Ge5 O21 1.880079 1_555
Ge5 O11 1.943737 1_556
Ge5 O45 2.222398 1_555
Ge6 O24 1.806011 1_555
Ge6 O33 1.850514 1_555
Ge6 O6 1.877642 1_555
Ge6 O22 1.880079 1_555
Ge6 O8 1.943737 1_555
Ge6 O46 2.222398 1_555
Ge7 O25 1.862284 1_554
Ge7 O32 1.863091 1_554
Ge7 O23 1.880370 1_555
Ge7 O9 1.910457 1_554
Ge7 O7 1.940994 1_555
Ge7 O47 2.048612 1_555
O0 Si5 1.665213 1_555
O1 Si4 1.630476 1_555
O2 Si7 1.630476 1_555
O3 Si6 1.665213 1_555
O4 Si1 1.665213 1_545
O5 Si0 1.630476 1_545
O6 Si3 1.630476 1_565
O7 Si2 1.665213 1_565
O8 P2 1.553967 1_555
O9 P2 1.540641 1_555
O10 P3 1.540641 1_555
O11 P3 1.553967 1_555
O12 P0 1.553967 1_645
O13 P0 1.540641 1_545
O14 P1 1.540641 1_565
O15 P1 1.553967 1_665
O16 Si0 1.632342 1_555
O17 Si1 1.637538 1_555
O18 Si2 1.637538 1_555
O19 Si3 1.632342 1_555
O20 Si4 1.632342 1_555
O21 Si5 1.637538 1_555
O22 Si6 1.637538 1_555
O23 Si7 1.632342 1_555
O24 Si0 1.630782 1_555
O25 Si1 1.641456 1_555
O26 Si2 1.641456 1_555
O27 Si3 1.630782 1_555
O28 Si4 1.630782 1_555
O29 Si5 1.641456 1_555
O30 Si6 1.641456 1_555
O31 Si7 1.630782 1_555
O32 Si0 1.649034 1_555
O33 Si1 1.632483 1_555
O34 Si2 1.632483 1_555
O35 Si3 1.649034 1_555
O36 Si4 1.649034 1_555
O37 Si5 1.632483 1_555
O38 Si6 1.632483 1_555
O39 Si7 1.649034 1_555
O40 P0 1.551857 1_555
O41 P0 1.558053 1_655
O42 P1 1.558053 1_655
O43 P1 1.551857 1_555
O44 P2 1.551857 1_555
O45 P2 1.558053 1_555
O46 P3 1.558053 1_555
O47 P3 1.551857 1_555
