# generated using pymatgen
data_Zr2In2SiS5O24
_symmetry_space_group_name_H-M   'P 1'
_cell_length_a   8.94827256
_cell_length_b   9.00881433
_cell_length_c   23.26850846
_cell_angle_alpha   90.19179041
_cell_angle_beta   89.82442192
_cell_angle_gamma   119.82161368
_symmetry_Int_Tables_number   1
_chemical_formula_structural   Zr2In2SiS5O24
_chemical_formula_sum   'Zr6 In6 Si3 S15 O72'
_cell_volume   1627.34965856
_cell_formula_units_Z   3
loop_
 _symmetry_equiv_pos_site_id
 _symmetry_equiv_pos_as_xyz
  1  'x, y, z'
loop_
 _atom_site_type_symbol
 _atom_site_label
 _atom_site_symmetry_multiplicity
 _atom_site_fract_x
 _atom_site_fract_y
 _atom_site_fract_z
 _atom_site_occupancy
  Zr  Zr0  1  0.99748326  0.00601977  0.64315149  1
  Zr  Zr1  1  0.00804130  0.00832608  0.14310954  1
  Zr  Zr2  1  0.67510251  0.32283491  0.47658551  1
  Zr  Zr3  1  0.33476976  0.65925587  0.02246652  1
  Zr  Zr4  1  0.33733975  0.66761113  0.52215099  1
  Zr  Zr5  1  0.34152488  0.67533019  0.31274917  1
  In  In0  1  0.99546376  0.00115926  0.35498588  1
  In  In1  1  0.00231459  0.00039575  0.85336512  1
  In  In2  1  0.67377070  0.33642897  0.68650807  1
  In  In3  1  0.66201180  0.33528829  0.18563620  1
  In  In4  1  0.65912311  0.33054800  0.97990757  1
  In  In5  1  0.33142277  0.66637045  0.81262941  1
  Si  Si0  1  0.95729126  0.33810809  0.58468914  1
  Si  Si1  1  0.38430955  0.33437698  0.08322539  1
  Si  Si2  1  0.62625890  0.95409194  0.41696085  1
  S  S0  1  0.28809778  0.00018833  0.25097847  1
  S  S1  1  0.71292899  0.70873807  0.24997312  1
  S  S2  1  0.99692668  0.29101828  0.24932962  1
  S  S3  1  0.29269490  0.29106946  0.75007620  1
  S  S4  1  0.99967653  0.70993307  0.75077565  1
  S  S5  1  0.70796026  0.99898315  0.75125541  1
  S  S6  1  0.37757304  0.04459033  0.58395939  1
  S  S7  1  0.66645124  0.62087148  0.58406032  1
  S  S8  1  0.95758200  0.62391968  0.08324326  1
  S  S9  1  0.66658014  0.04269738  0.08308021  1
  S  S10  1  0.62568550  0.66814430  0.91534459  1
  S  S11  1  0.04023691  0.37518891  0.91648283  1
  S  S12  1  0.33346335  0.95650249  0.91590676  1
  S  S13  1  0.33387252  0.37862351  0.41639374  1
  S  S14  1  0.04656838  0.66917307  0.41628463  1
  O  O0  1  0.20924238  0.02824472  0.30271417  1
  O  O1  1  0.81811073  0.78725655  0.30162796  1
  O  O2  1  0.96764178  0.18492422  0.30074966  1
  O  O3  1  0.21672175  0.18579102  0.80236328  1
  O  O4  1  0.97230474  0.78835589  0.80336900  1
  O  O5  1  0.81618932  0.02888114  0.80304025  1
  O  O6  1  0.79464891  0.97333609  0.69985889  1
  O  O7  1  0.18020803  0.20477503  0.69911727  1
  O  O8  1  0.02590971  0.81981391  0.69962615  1
  O  O9  1  0.79098084  0.81760604  0.19854622  1
  O  O10  1  0.02487730  0.20659551  0.19800812  1
  O  O11  1  0.17816186  0.97315650  0.19949749  1
  O  O12  1  0.87833045  0.37172093  0.64156151  1
  O  O13  1  0.48059765  0.11725826  0.63616818  1
  O  O14  1  0.63088029  0.51677231  0.63621275  1
  O  O15  1  0.88882243  0.51695187  0.13503135  1
  O  O16  1  0.63421745  0.11539297  0.13533836  1
  O  O17  1  0.49410566  0.37401935  0.14126765  1
  O  O18  1  0.45411379  0.29257655  0.02546897  1
  O  O19  1  0.85196551  0.55051861  0.03142222  1
  O  O20  1  0.70582525  0.15046082  0.03163405  1
  O  O21  1  0.45416454  0.15467092  0.53275129  1
  O  O22  1  0.69486141  0.54263322  0.53239763  1
  O  O23  1  0.83430969  0.30256064  0.52807346  1
  O  O24  1  0.53898777  0.69318493  0.96684648  1
  O  O25  1  0.15233087  0.46133044  0.96752901  1
  O  O26  1  0.30771008  0.84722572  0.96710291  1
  O  O27  1  0.52531025  0.83438686  0.47159823  1
  O  O28  1  0.30315397  0.45811367  0.46762290  1
  O  O29  1  0.15227008  0.69124757  0.46755527  1
  O  O30  1  0.12436997  0.63555803  0.36427242  1
  O  O31  1  0.49983837  0.86003762  0.36041894  1
  O  O32  1  0.35770911  0.48646654  0.36447031  1
  O  O33  1  0.11662313  0.48107917  0.86444605  1
  O  O34  1  0.36091378  0.87786409  0.86344003  1
  O  O35  1  0.51686080  0.63783328  0.86377069  1
  O  O36  1  0.03301166  0.82299885  0.40838402  1
  O  O37  1  0.81257732  0.97539668  0.40931287  1
  O  O38  1  0.18385374  0.20766841  0.40830970  1
  O  O39  1  0.02649534  0.20541982  0.91000643  1
  O  O40  1  0.17701836  0.97265765  0.90987652  1
  O  O41  1  0.79497054  0.82577274  0.90976333  1
  O  O42  1  0.97694352  0.16656582  0.59485704  1
  O  O43  1  0.20239666  0.02264409  0.59265146  1
  O  O44  1  0.82133113  0.79311050  0.59316618  1
  O  O45  1  0.97544715  0.79523091  0.09365349  1
  O  O46  1  0.81658135  0.01690021  0.09318617  1
  O  O47  1  0.18933393  0.16937034  0.09518669  1
  O  O48  1  0.68602633  0.14864211  0.74366842  1
  O  O49  1  0.46426642  0.30938711  0.74087062  1
  O  O50  1  0.84497403  0.54065136  0.74461563  1
  O  O51  1  0.69404465  0.53781130  0.24338075  1
  O  O52  1  0.84420397  0.31022824  0.23963764  1
  O  O53  1  0.46204693  0.14722408  0.24338868  1
  O  O54  1  0.64733660  0.51810747  0.92309929  1
  O  O55  1  0.86869670  0.35725285  0.92609460  1
  O  O56  1  0.48866844  0.12593891  0.92220563  1
  O  O57  1  0.63252809  0.13807032  0.42444971  1
  O  O58  1  0.49093119  0.36752321  0.42512054  1
  O  O59  1  0.87278863  0.51764205  0.42401156  1
  O  O60  1  0.35313588  0.49814819  0.07120843  1
  O  O61  1  0.13342278  0.64999926  0.07311874  1
  O  O62  1  0.51342421  0.87139722  0.07307968  1
  O  O63  1  0.35572424  0.87281145  0.57431012  1
  O  O64  1  0.51650194  0.64569185  0.57535119  1
  O  O65  1  0.14569565  0.49778818  0.57036218  1
  O  O66  1  0.29900368  0.84107721  0.25764363  1
  O  O67  1  0.53745950  0.68910671  0.25794656  1
  O  O68  1  0.15193760  0.46111184  0.25722111  1
  O  O69  1  0.30635391  0.46088954  0.75676041  1
  O  O70  1  0.15639019  0.69425589  0.75691629  1
  O  O71  1  0.53868194  0.84111941  0.75700054  1
loop_
_geom_bond_atom_site_label_1
_geom_bond_atom_site_label_2
_geom_bond_distance
_geom_bond_site_symmetry_2
In0 O37 1.985331 1_545
In0 O38 2.172669 1_655
In0 O0 2.172955 1_655
In0 O1 2.174353 1_545
In0 O36 2.187468 1_645
In0 O2 2.195712 1_555
In1 O4 2.133371 1_445
In1 O40 2.153772 1_545
In1 O5 2.156387 1_455
In1 O3 2.165880 1_555
In1 O41 2.176054 1_445
In1 O39 2.187073 1_555
In2 O12 1.989245 1_555
In2 O49 2.169609 1_555
In2 O50 2.180057 1_555
In2 O14 2.189095 1_555
In2 O48 2.200791 1_555
In2 O13 2.204730 1_555
In3 O17 1.994573 1_555
In3 O52 2.160617 1_555
In3 O51 2.163810 1_555
In3 O16 2.202762 1_555
In3 O53 2.205292 1_555
In3 O15 2.208768 1_555
In4 O18 1.993139 1_556
In4 O55 2.163673 1_555
In4 O56 2.174047 1_555
In4 O54 2.192372 1_555
In4 O19 2.221981 1_556
In4 O20 2.223932 1_556
In5 O34 2.141118 1_555
In5 O70 2.145397 1_555
In5 O35 2.161952 1_555
In5 O71 2.165277 1_555
In5 O69 2.177079 1_555
In5 O33 2.177766 1_555
O0 S0 1.476852 1_555
O1 S1 1.473063 1_555
O2 S2 1.473210 1_555
O3 S3 1.484344 1_555
O4 S4 1.490376 1_555
O5 S5 1.485908 1_545
O6 S5 1.502021 1_555
O6 Zr0 2.139730 1_565
O7 S3 1.498788 1_555
O7 Zr0 2.158916 1_455
O8 S4 1.492169 1_455
O8 Zr0 2.246486 1_465
O9 S1 1.484273 1_555
O9 Zr1 2.251415 1_665
O10 S2 1.499442 1_455
O10 Zr1 2.136152 1_555
O11 S0 1.492974 1_565
O11 Zr1 2.152669 1_565
O12 Si0 1.595785 1_555
O13 S6 1.468170 1_555
O14 S7 1.470294 1_555
O15 S8 1.474046 1_555
O16 S9 1.473933 1_555
O17 Si1 1.603978 1_555
O18 Si1 1.601082 1_555
O19 S8 1.471214 1_555
O20 S9 1.471367 1_555
O21 S6 1.483187 1_555
O21 Zr2 2.220393 1_555
O22 S7 1.475523 1_555
O22 Zr2 2.296662 1_555
O23 Si0 1.644562 1_555
O23 Zr2 1.941384 1_555
O24 S10 1.501799 1_555
O24 Zr3 2.130812 1_556
O25 S11 1.498686 1_555
O25 Zr3 2.140301 1_556
O26 S12 1.490597 1_555
O26 Zr3 2.238315 1_556
O27 Si2 1.621256 1_555
O27 Zr4 1.989065 1_555
O28 S13 1.482349 1_555
O28 Zr4 2.162756 1_555
O29 S14 1.475008 1_555
O29 Zr4 2.183371 1_555
O30 S14 1.497717 1_555
O30 Zr5 2.153523 1_555
O31 Si2 1.666402 1_555
O31 Zr5 1.912796 1_555
O32 S13 1.499751 1_555
O32 Zr5 2.150363 1_555
O33 S11 1.482374 1_555
O34 S12 1.489321 1_555
O35 S10 1.484401 1_555
O36 S14 1.462178 1_555
O37 Si2 1.590063 1_555
O38 S13 1.467202 1_555
O39 S11 1.479349 1_555
O40 S12 1.484792 1_555
O41 S10 1.479386 1_555
O42 Si0 1.657751 1_555
O42 Zr0 1.914414 1_555
O43 S6 1.492386 1_555
O43 Zr0 2.116649 1_455
O44 S7 1.494673 1_555
O44 Zr0 2.122632 1_565
O45 S8 1.489426 1_555
O45 Zr1 2.127227 1_665
O46 S9 1.491142 1_555
O46 Zr1 2.105938 1_655
O47 Si1 1.658742 1_555
O47 Zr1 1.907582 1_555
O48 S5 1.467128 1_545
O49 S3 1.475263 1_555
O50 S4 1.470584 1_555
O51 S1 1.470711 1_555
O52 S2 1.478442 1_555
O53 S0 1.468950 1_555
O54 S10 1.469478 1_555
O55 S11 1.477758 1_655
O56 S12 1.473611 1_545
O57 Si2 1.638971 1_545
O57 Zr2 1.935461 1_555
O58 S13 1.472434 1_555
O58 Zr2 2.233223 1_555
O59 S14 1.484107 1_655
O59 Zr2 2.149195 1_555
O60 Si1 1.656906 1_555
O60 Zr3 1.915527 1_555
O61 S8 1.488934 1_455
O61 Zr3 2.116699 1_555
O62 S9 1.486570 1_565
O62 Zr3 2.133733 1_555
O63 S6 1.476647 1_565
O63 Zr4 2.145027 1_555
O64 S7 1.480484 1_555
O64 Zr4 2.114298 1_555
O65 Si0 1.615669 1_455
O65 Zr4 1.982454 1_555
O66 S0 1.492960 1_565
O66 Zr5 2.144611 1_555
O67 S1 1.501103 1_555
O67 Zr5 2.118109 1_555
O68 S2 1.480354 1_455
O68 Zr5 2.238803 1_555
O69 S3 1.480607 1_555
O70 S4 1.484992 1_455
O71 S5 1.480650 1_555
