# generated using pymatgen
data_Yb4MgTi2O10
_symmetry_space_group_name_H-M   'P 1'
_cell_length_a   5.45942549
_cell_length_b   5.84184048
_cell_length_c   8.58179515
_cell_angle_alpha   71.77192352
_cell_angle_beta   102.26265840
_cell_angle_gamma   78.58489728
_symmetry_Int_Tables_number   1
_chemical_formula_structural   Yb4MgTi2O10
_chemical_formula_sum   'Yb4 Mg1 Ti2 O10'
_cell_volume   243.51247852
_cell_formula_units_Z   1
loop_
 _symmetry_equiv_pos_site_id
 _symmetry_equiv_pos_as_xyz
  1  'x, y, z'
loop_
 _atom_site_type_symbol
 _atom_site_label
 _atom_site_symmetry_multiplicity
 _atom_site_fract_x
 _atom_site_fract_y
 _atom_site_fract_z
 _atom_site_occupancy
  Yb  Yb0  1  0.62090200  0.81403500  0.73165100  1
  Yb  Yb1  1  0.64650400  0.62457900  0.37896300  1
  Yb  Yb2  1  0.26178300  0.38475300  0.64522000  1
  Yb  Yb3  1  0.32519800  0.23808500  0.27384100  1
  Mg  Mg0  1  0.64908700  0.12839400  0.04408500  1
  Ti  Ti0  1  0.99793600  0.97798100  0.49489000  1
  Ti  Ti1  1  0.17806900  0.88920300  0.96640100  1
  O  O0  1  0.83985500  0.89210500  0.96132400  1
  O  O1  1  0.30809100  0.82534100  0.47064100  1
  O  O2  1  0.91171200  0.68567400  0.60829800  1
  O  O3  1  0.59629100  0.41902900  0.84002000  1
  O  O4  1  0.40137500  0.59849700  0.12888100  1
  O  O5  1  0.02193100  0.32506400  0.41288500  1
  O  O6  1  0.58049800  0.23273300  0.52883500  1
  O  O7  1  0.20506600  0.97595000  0.74192600  1
  O  O8  1  0.27554200  0.13118900  0.03391200  1
  O  O9  1  0.74890900  0.01738700  0.29179800  1
loop_
_geom_bond_atom_site_label_1
_geom_bond_atom_site_label_2
_geom_bond_distance
_geom_bond_site_symmetry_2
Mg0 O9 1.934478 1_555
Mg0 O3 1.940194 1_554
Mg0 O0 1.962910 1_544
Mg0 O8 2.019183 1_555
O0 Ti1 1.834271 1_655
O0 Yb0 2.301975 1_555
O1 Ti0 1.836763 1_455
O1 Yb1 2.396858 1_555
O1 Yb0 2.485157 1_555
O1 Yb3 2.506681 1_565
O1 Yb2 2.634248 1_555
O2 Ti0 1.886219 1_555
O2 Yb2 2.215347 1_655
O2 Yb0 2.223251 1_555
O2 Yb1 2.351747 1_555
O3 Yb0 2.245227 1_555
O3 Yb2 2.286301 1_555
O4 Ti1 1.814266 1_554
O4 Yb3 2.254176 1_555
O4 Yb1 2.342089 1_555
O5 Ti0 1.968556 1_445
O5 Yb3 2.304076 1_555
O5 Yb2 2.306149 1_555
O5 Yb1 2.314200 1_455
O6 Yb3 2.318759 1_555
O6 Yb2 2.344218 1_555
O6 Yb1 2.388639 1_555
O6 Yb0 2.453739 1_545
O6 Ti0 2.589227 1_545
O7 Ti1 1.878560 1_555
O7 Ti0 2.175758 1_455
O7 Yb0 2.311625 1_555
O7 Yb2 2.376952 1_565
O8 Ti1 1.815603 1_544
O8 Yb3 2.310264 1_555
O9 Ti0 1.886159 1_545
O9 Yb3 2.362357 1_555
O9 Yb1 2.397805 1_545
