# generated using pymatgen
data_Zr2Ta2Si3(SO8)3
_symmetry_space_group_name_H-M   'P 1'
_cell_length_a   8.99505279
_cell_length_b   8.98128598
_cell_length_c   23.11721289
_cell_angle_alpha   90.43549650
_cell_angle_beta   90.05401101
_cell_angle_gamma   119.97406688
_symmetry_Int_Tables_number   1
_chemical_formula_structural   Zr2Ta2Si3(SO8)3
_chemical_formula_sum   'Zr6 Ta6 Si9 S9 O72'
_cell_volume   1617.71766793
_cell_formula_units_Z   3
loop_
 _symmetry_equiv_pos_site_id
 _symmetry_equiv_pos_as_xyz
  1  'x, y, z'
loop_
 _atom_site_type_symbol
 _atom_site_label
 _atom_site_symmetry_multiplicity
 _atom_site_fract_x
 _atom_site_fract_y
 _atom_site_fract_z
 _atom_site_occupancy
  Zr  Zr0  1  0.98996744  0.00845928  0.35737874  1
  Zr  Zr1  1  0.01385638  0.01324293  0.85406168  1
  Zr  Zr2  1  0.66758082  0.33807977  0.69148520  1
  Zr  Zr3  1  0.67807635  0.34443552  0.18736701  1
  Zr  Zr4  1  0.32035386  0.66639415  0.02394435  1
  Zr  Zr5  1  0.34800643  0.66998894  0.52747357  1
  Ta  Ta0  1  0.98637044  0.00986903  0.64392047  1
  Ta  Ta1  1  0.01067430  0.01508613  0.13940421  1
  Ta  Ta2  1  0.65598455  0.33985587  0.97621778  1
  Ta  Ta3  1  0.67562668  0.33031707  0.48256322  1
  Ta  Ta4  1  0.33255318  0.67090055  0.31147311  1
  Ta  Ta5  1  0.34152264  0.67919572  0.80628890  1
  Si  Si0  1  0.00203560  0.28960887  0.24959709  1
  Si  Si1  1  0.28606381  0.28963683  0.74908226  1
  Si  Si2  1  0.71561773  0.00343371  0.75119425  1
  Si  Si3  1  0.95710403  0.33681672  0.58541942  1
  Si  Si4  1  0.67822930  0.62276370  0.58457538  1
  Si  Si5  1  0.94927042  0.62272806  0.08258968  1
  Si  Si6  1  0.38541010  0.33916178  0.08351136  1
  Si  Si7  1  0.33543716  0.95406568  0.91657121  1
  Si  Si8  1  0.61457704  0.95774627  0.41760111  1
  S  S0  1  0.28461364  0.99660869  0.25012421  1
  S  S1  1  0.70921428  0.71494608  0.25053300  1
  S  S2  1  0.00489357  0.71638057  0.75020590  1
  S  S3  1  0.37679180  0.04978838  0.58329044  1
  S  S4  1  0.66990373  0.04794026  0.08271864  1
  S  S5  1  0.61822487  0.66651605  0.91633418  1
  S  S6  1  0.04135093  0.38129572  0.91667402  1
  S  S7  1  0.33907316  0.38340500  0.41592150  1
  S  S8  1  0.04448269  0.66401820  0.41618848  1
  O  O0  1  0.20531952  0.02035045  0.30203680  1
  O  O1  1  0.81731692  0.79206027  0.30241635  1
  O  O2  1  0.97931802  0.17133660  0.30534134  1
  O  O3  1  0.19995944  0.17254203  0.80584405  1
  O  O4  1  0.97744130  0.79274487  0.80259349  1
  O  O5  1  0.82614086  0.01940808  0.80762130  1
  O  O6  1  0.80373109  0.96544123  0.69337242  1
  O  O7  1  0.16002315  0.18784088  0.69309830  1
  O  O8  1  0.03743627  0.82253636  0.69843326  1
  O  O9  1  0.78511851  0.82133846  0.19901375  1
  O  O10  1  0.02848193  0.18750479  0.19385893  1
  O  O11  1  0.17348514  0.96340426  0.19786437  1
  O  O12  1  0.86425051  0.36162043  0.63940086  1
  O  O13  1  0.48535662  0.12330278  0.63418074  1
  O  O14  1  0.63898484  0.50101598  0.63868128  1
  O  O15  1  0.86565162  0.50499334  0.13934535  1
  O  O16  1  0.64086012  0.12294778  0.13544788  1
  O  O17  1  0.49278496  0.35307641  0.14072884  1
  O  O18  1  0.47572956  0.30181378  0.02641192  1
  O  O19  1  0.82663487  0.52331944  0.02613015  1
  O  O20  1  0.70361515  0.15763806  0.03154280  1
  O  O21  1  0.46282117  0.16039197  0.53002467  1
  O  O22  1  0.69411392  0.52100063  0.52516525  1
  O  O23  1  0.82853070  0.29969099  0.52621093  1
  O  O24  1  0.54099545  0.68941502  0.96827552  1
  O  O25  1  0.15013965  0.45749188  0.96871159  1
  O  O26  1  0.31535804  0.83941425  0.97254861  1
  O  O27  1  0.52295714  0.83510056  0.47097560  1
  O  O28  1  0.30221173  0.45631470  0.46697229  1
  O  O29  1  0.15116401  0.69331544  0.46713170  1
  O  O30  1  0.12968439  0.63498151  0.36298443  1
  O  O31  1  0.49247734  0.85463233  0.35933291  1
  O  O32  1  0.36050206  0.49350177  0.36352071  1
  O  O33  1  0.12107707  0.48816031  0.86529133  1
  O  O34  1  0.36036743  0.85241272  0.86032165  1
  O  O35  1  0.50719450  0.63139663  0.86419748  1
  O  O36  1  0.02523412  0.81337380  0.40433816  1
  O  O37  1  0.80209827  0.97688042  0.40634417  1
  O  O38  1  0.18936709  0.20954738  0.40599122  1
  O  O39  1  0.01899633  0.20809791  0.91015197  1
  O  O40  1  0.17087644  0.97662885  0.90772936  1
  O  O41  1  0.79130235  0.81065488  0.90824157  1
  O  O42  1  0.97261870  0.16226743  0.59193887  1
  O  O43  1  0.20680257  0.03296657  0.58960704  1
  O  O44  1  0.85095822  0.81007450  0.59460815  1
  O  O45  1  0.96578227  0.81113379  0.09848381  1
  O  O46  1  0.82766831  0.02963953  0.09274048  1
  O  O47  1  0.19185967  0.16199132  0.09379237  1
  O  O48  1  0.68567615  0.16021716  0.73977768  1
  O  O49  1  0.47325746  0.31566311  0.74010854  1
  O  O50  1  0.85691070  0.54372103  0.74395658  1
  O  O51  1  0.68410121  0.54127012  0.24381444  1
  O  O52  1  0.83614944  0.30914479  0.24067938  1
  O  O53  1  0.45639774  0.14158597  0.24170854  1
  O  O54  1  0.63436492  0.50488575  0.92418475  1
  O  O55  1  0.86859123  0.36305533  0.92680430  1
  O  O56  1  0.51152707  0.14544518  0.92901143  1
  O  O57  1  0.63345646  0.14774494  0.42692084  1
  O  O58  1  0.49285208  0.36710774  0.42272164  1
  O  O59  1  0.87221228  0.50726174  0.42267129  1
  O  O60  1  0.35918123  0.49765118  0.07098670  1
  O  O61  1  0.13782168  0.64878153  0.07462050  1
  O  O62  1  0.52515836  0.87513697  0.07483890  1
  O  O63  1  0.35609656  0.87834078  0.57293822  1
  O  O64  1  0.51392829  0.64790978  0.57328095  1
  O  O65  1  0.13884909  0.49737984  0.56879396  1
  O  O66  1  0.29952775  0.83555136  0.25933242  1
  O  O67  1  0.53333749  0.69526350  0.26092778  1
  O  O68  1  0.17430424  0.47999789  0.26412763  1
  O  O69  1  0.29866751  0.47656993  0.76484545  1
  O  O70  1  0.16052824  0.69498779  0.75955270  1
  O  O71  1  0.52343657  0.82592772  0.76068899  1
loop_
_geom_bond_atom_site_label_1
_geom_bond_atom_site_label_2
_geom_bond_distance
_geom_bond_site_symmetry_2
O0 S0 1.464265 1_545
O0 Zr0 2.280471 1_455
O1 S1 1.475131 1_555
O1 Zr0 2.178604 1_565
O2 Si0 1.623311 1_655
O2 Zr0 1.939785 1_555
O3 Si1 1.623783 1_555
O3 Zr1 1.930366 1_555
O4 S2 1.468055 1_655
O4 Zr1 2.181744 1_665
O5 Si2 1.600838 1_555
O5 Zr1 2.024253 1_655
O6 Si2 1.672314 1_565
O6 Ta0 1.876305 1_565
O7 Si1 1.655205 1_555
O7 Ta0 1.939458 1_455
O8 S2 1.471819 1_555
O8 Ta0 2.330921 1_465
O9 S1 1.471257 1_555
O9 Ta1 2.357384 1_665
O10 Si0 1.660837 1_555
O10 Ta1 1.931438 1_555
O11 S0 1.497343 1_555
O11 Ta1 2.207173 1_565
O12 Si3 1.577382 1_555
O12 Zr2 2.063524 1_555
O13 S3 1.454427 1_555
O13 Zr2 2.227162 1_555
O14 Si4 1.587647 1_555
O14 Zr2 2.024938 1_555
O15 Si5 1.622812 1_555
O15 Zr3 1.937869 1_555
O16 S4 1.473735 1_555
O16 Zr3 2.192544 1_555
O17 Si6 1.603901 1_555
O17 Zr3 2.018281 1_555
O18 Si6 1.668081 1_555
O18 Ta2 1.883646 1_554
O19 Si5 1.647106 1_555
O19 Ta2 1.960377 1_554
O20 S4 1.477189 1_555
O20 Ta2 2.286700 1_554
O21 S3 1.534316 1_555
O21 Ta3 2.075434 1_555
O22 Si4 1.689301 1_555
O22 Ta3 1.902627 1_555
O23 Si3 1.710823 1_555
O23 Ta3 1.834409 1_555
O24 S5 1.451631 1_555
O24 Zr4 2.288380 1_556
O25 S6 1.479576 1_555
O25 Zr4 2.141072 1_556
O26 Si7 1.613178 1_555
O26 Zr4 1.981450 1_556
O27 Si8 1.590741 1_555
O27 Zr5 2.020611 1_555
O28 S7 1.461995 1_555
O28 Zr5 2.230890 1_555
O29 S8 1.455277 1_555
O29 Zr5 2.344191 1_555
O30 S8 1.537760 1_555
O30 Ta4 2.067302 1_555
O31 Si8 1.685297 1_555
O31 Ta4 1.900989 1_555
O32 S7 1.520031 1_555
O32 Ta4 2.116175 1_555
O33 S6 1.475661 1_555
O33 Ta5 2.318906 1_555
O34 Si7 1.661852 1_555
O34 Ta5 1.927628 1_555
O35 S5 1.492234 1_555
O35 Ta5 2.200312 1_555
O36 S8 1.463544 1_555
O36 Zr0 2.220960 1_465
O37 Si8 1.629198 1_555
O37 Zr0 1.935731 1_565
O38 S7 1.482284 1_555
O38 Zr0 2.114296 1_455
O39 S6 1.471972 1_555
O39 Zr1 2.151895 1_555
O40 Si7 1.604282 1_555
O40 Zr1 2.027120 1_565
O41 S5 1.457744 1_555
O41 Zr1 2.299271 1_665
O42 Si3 1.649836 1_555
O42 Ta0 1.877936 1_555
O43 S3 1.467005 1_555
O43 Ta0 2.269063 1_455
O44 Si4 1.636933 1_555
O44 Ta0 1.945607 1_565
O45 Si5 1.661226 1_555
O45 Ta1 1.909733 1_665
O46 S4 1.525635 1_555
O46 Ta1 2.025920 1_655
O47 Si6 1.690540 1_555
O47 Ta1 1.839707 1_555
O48 Si2 1.584122 1_555
O48 Zr2 2.027607 1_555
O49 Si1 1.594059 1_555
O49 Zr2 2.003702 1_555
O50 S2 1.459831 1_655
O50 Zr2 2.145213 1_555
O51 S1 1.467107 1_555
O51 Zr3 2.167949 1_555
O52 Si0 1.600433 1_655
O52 Zr3 2.023373 1_555
O53 S0 1.454283 1_545
O53 Zr3 2.298454 1_555
O54 S5 1.541375 1_555
O54 Ta2 1.999055 1_555
O55 S6 1.497810 1_655
O55 Ta2 2.148290 1_555
O56 Si7 1.678448 1_545
O56 Ta2 1.905089 1_555
O57 Si8 1.640716 1_545
O57 Ta3 1.957724 1_555
O58 S7 1.470294 1_555
O58 Ta3 2.295938 1_555
O59 S8 1.493155 1_655
O59 Ta3 2.190763 1_555
O60 Si6 1.583470 1_555
O60 Zr4 2.038299 1_555
O61 Si5 1.603091 1_455
O61 Zr4 1.959626 1_555
O62 S4 1.453688 1_565
O62 Zr4 2.191841 1_555
O63 S3 1.473385 1_565
O63 Zr5 2.108427 1_555
O64 Si4 1.623895 1_555
O64 Zr5 1.919400 1_555
O65 Si3 1.598066 1_455
O65 Zr5 1.991702 1_555
O66 S0 1.534342 1_555
O66 Ta4 2.047745 1_555
O67 S1 1.521086 1_555
O67 Ta4 2.070762 1_555
O68 Si0 1.667507 1_555
O68 Ta4 1.921899 1_555
O69 Si1 1.662762 1_555
O69 Ta5 1.910529 1_555
O70 S2 1.520614 1_555
O70 Ta5 2.016856 1_555
O71 Si2 1.682369 1_565
O71 Ta5 1.842587 1_555
