# generated using pymatgen
data_Ba5(TiN3)2
_symmetry_space_group_name_H-M   'P 1'
_cell_length_a   6.59859122
_cell_length_b   9.49874737
_cell_length_c   9.89137212
_cell_angle_alpha   106.35450300
_cell_angle_beta   101.72277073
_cell_angle_gamma   108.77806484
_symmetry_Int_Tables_number   1
_chemical_formula_structural   Ba5(TiN3)2
_chemical_formula_sum   'Ba10 Ti4 N12'
_cell_volume   532.95421919
_cell_formula_units_Z   2
loop_
 _symmetry_equiv_pos_site_id
 _symmetry_equiv_pos_as_xyz
  1  'x, y, z'
loop_
 _atom_site_type_symbol
 _atom_site_label
 _atom_site_symmetry_multiplicity
 _atom_site_fract_x
 _atom_site_fract_y
 _atom_site_fract_z
 _atom_site_occupancy
  Ba  Ba0  1  0.57686548  0.41071569  0.12493081  1
  Ba  Ba1  1  0.42313452  0.58928431  0.87506919  1
  Ba  Ba2  1  0.16253133  0.86460278  0.44664824  1
  Ba  Ba3  1  0.83746867  0.13539722  0.55335176  1
  Ba  Ba4  1  0.20780622  0.44617348  0.39642025  1
  Ba  Ba5  1  0.79219378  0.55382652  0.60357975  1
  Ba  Ba6  1  0.03604685  0.72409773  0.04677460  1
  Ba  Ba7  1  0.96395315  0.27590227  0.95322540  1
  Ba  Ba8  1  0.80348081  0.01550439  0.13906915  1
  Ba  Ba9  1  0.19651919  0.98449561  0.86093085  1
  Ti  Ti0  1  0.47041326  0.24257369  0.70909397  1
  Ti  Ti1  1  0.52958674  0.75742631  0.29090603  1
  Ti  Ti2  1  0.44656359  0.15334667  0.30809245  1
  Ti  Ti3  1  0.55343641  0.84665333  0.69190755  1
  N  N0  1  0.25427166  0.70116941  0.66827574  1
  N  N1  1  0.74572834  0.29883059  0.33172426  1
  N  N2  1  0.75783599  0.83518584  0.84750016  1
  N  N3  1  0.24216401  0.16481416  0.15249984  1
  N  N4  1  0.26522841  0.56682081  0.17440583  1
  N  N5  1  0.73477159  0.43317919  0.82559417  1
  N  N6  1  0.76702415  0.75514846  0.20676495  1
  N  N7  1  0.23297585  0.24485154  0.79323505  1
  N  N8  1  0.45458501  0.93674065  0.27195472  1
  N  N9  1  0.54541499  0.06325935  0.72804528  1
  N  N10  1  0.38417656  0.21906021  0.49840186  1
  N  N11  1  0.61582344  0.78093979  0.50159814  1
loop_
_geom_bond_atom_site_label_1
_geom_bond_atom_site_label_2
_geom_bond_distance
_geom_bond_site_symmetry_2
Ba0 N1 2.759614 1_555
Ba0 N3 2.773105 1_555
Ba0 N6 2.895941 1_555
Ba0 N4 2.937719 1_555
Ba0 N7 3.187142 1_554
Ba0 N5 3.371071 1_554
Ba1 N0 2.759614 1_555
Ba1 N2 2.773105 1_555
Ba1 N7 2.895941 1_555
Ba1 N5 2.937719 1_555
Ba1 N6 3.187142 1_556
Ba1 N4 3.371071 1_556
Ba2 N6 2.805270 1_455
Ba2 N8 2.887742 1_555
Ba2 N9 2.967570 1_565
Ba2 N10 3.048275 1_565
Ba2 N0 3.092652 1_555
Ba3 N7 2.805270 1_655
Ba3 N9 2.887742 1_555
Ba3 N8 2.967570 1_545
Ba3 N11 3.048275 1_545
Ba3 N1 3.092652 1_555
Ba4 N1 2.760521 1_455
Ba4 N4 2.784825 1_555
Ba4 N0 2.951358 1_555
Ba4 N10 3.064428 1_555
Ba4 N11 3.151114 1_555
Ba4 N3 3.161674 1_555
Ba5 N0 2.760521 1_655
Ba5 N5 2.784825 1_555
Ba5 N1 2.951358 1_555
Ba5 N11 3.064428 1_555
Ba5 N10 3.151114 1_555
Ba5 N2 3.161674 1_555
Ba6 N6 2.637873 1_455
Ba6 N5 2.768733 1_454
Ba6 N4 2.802398 1_555
Ba6 N8 2.836117 1_555
Ba6 N2 3.052356 1_454
Ba7 N7 2.637873 1_655
Ba7 N4 2.768733 1_656
Ba7 N5 2.802398 1_555
Ba7 N9 2.836117 1_555
Ba7 N3 3.052356 1_656
Ba8 N6 2.690215 1_545
Ba8 N3 2.739137 1_655
Ba8 N2 2.806242 1_544
Ba8 N8 2.874408 1_545
Ba8 N1 3.014405 1_555
Ba9 N7 2.690215 1_565
Ba9 N2 2.739137 1_455
Ba9 N3 2.806242 1_566
Ba9 N9 2.874408 1_565
Ba9 N0 3.014405 1_555
N0 Ti3 1.932756 1_555
N1 Ti2 1.932756 1_555
N2 Ti3 1.882841 1_555
N3 Ti2 1.882841 1_555
N4 Ti1 1.903601 1_555
N5 Ti0 1.903601 1_555
N6 Ti1 1.920783 1_555
N7 Ti0 1.920783 1_555
N8 Ti1 1.966209 1_555
N8 Ti2 2.006850 1_565
N9 Ti0 1.966209 1_555
N9 Ti3 2.006850 1_545
N10 Ti0 1.972572 1_555
N10 Ti2 1.980206 1_555
N11 Ti1 1.972572 1_555
N11 Ti3 1.980206 1_555
