# generated using pymatgen
data_MgFe8(OF)8
_symmetry_space_group_name_H-M   'P 1'
_cell_length_a   5.28164068
_cell_length_b   5.18598143
_cell_length_c   11.67461904
_cell_angle_alpha   91.15904246
_cell_angle_beta   91.61925768
_cell_angle_gamma   89.80427097
_symmetry_Int_Tables_number   1
_chemical_formula_structural   MgFe8(OF)8
_chemical_formula_sum   'Mg1 Fe8 O8 F8'
_cell_volume   319.57915326
_cell_formula_units_Z   1
loop_
 _symmetry_equiv_pos_site_id
 _symmetry_equiv_pos_as_xyz
  1  'x, y, z'
loop_
 _atom_site_type_symbol
 _atom_site_label
 _atom_site_symmetry_multiplicity
 _atom_site_fract_x
 _atom_site_fract_y
 _atom_site_fract_z
 _atom_site_occupancy
  Mg  Mg0  1  0.49385400  0.04179100  0.63195200  1
  Fe  Fe0  1  0.93075800  0.90419400  0.00450300  1
  Fe  Fe1  1  0.09090500  0.06183900  0.24934300  1
  Fe  Fe2  1  0.95761600  0.91272400  0.49116600  1
  Fe  Fe3  1  0.05701400  0.04252300  0.76389500  1
  Fe  Fe4  1  0.58435900  0.41036000  0.12646300  1
  Fe  Fe5  1  0.44312100  0.55007100  0.62632400  1
  Fe  Fe6  1  0.42525600  0.54332900  0.88218000  1
  Fe  Fe7  1  0.44810800  0.56267900  0.37180300  1
  O  O0  1  0.16848400  0.79769700  0.36677400  1
  O  O1  1  0.17316600  0.83893500  0.61892900  1
  O  O2  1  0.15298300  0.77717300  0.88687400  1
  O  O3  1  0.35898600  0.30933800  0.25120800  1
  O  O4  1  0.35416500  0.30823100  0.75029600  1
  O  O5  1  0.66633200  0.65031900  0.00518700  1
  O  O6  1  0.63895400  0.74019800  0.50265600  1
  O  O7  1  0.84479500  0.15468900  0.13130100  1
  F  F0  1  0.18381700  0.80171600  0.12904400  1
  F  F1  1  0.33708800  0.28885800  0.00391100  1
  F  F2  1  0.36703700  0.28842500  0.49227400  1
  F  F3  1  0.68358000  0.67121600  0.25328500  1
  F  F4  1  0.62550000  0.77927900  0.75400200  1
  F  F5  1  0.87736700  0.19574700  0.37989500  1
  F  F6  1  0.82221100  0.19782100  0.61544500  1
  F  F7  1  0.82843500  0.17085000  0.89358200  1
loop_
_geom_bond_atom_site_label_1
_geom_bond_atom_site_label_2
_geom_bond_distance
_geom_bond_site_symmetry_2
Mg0 O1 1.997449 1_545
Mg0 O4 2.082273 1_555
Mg0 O6 2.296475 1_545
Fe0 O5 1.922913 1_555
Fe0 O2 1.935619 1_654
Fe0 O7 2.010274 1_565
Fe1 O3 1.913700 1_555
Fe1 O7 1.934421 1_455
Fe1 O0 1.991048 1_545
Fe2 O1 1.895123 1_655
Fe2 O6 1.918098 1_555
Fe2 O0 1.938306 1_655
Fe3 O2 2.060567 1_545
Fe3 O1 2.082626 1_545
Fe3 O4 2.103529 1_555
Fe4 O7 1.907740 1_555
Fe4 O5 1.962211 1_555
Fe4 O3 1.986311 1_555
Fe5 O4 2.001087 1_555
Fe5 O1 2.065960 1_555
Fe5 O6 2.067716 1_555
Fe6 O2 1.879229 1_555
Fe6 O5 1.964844 1_556
Fe6 O4 1.972977 1_555
Fe7 O0 1.912007 1_555
Fe7 O3 1.954948 1_555
Fe7 O6 2.014872 1_555
F0 Fe1 1.997709 1_565
F0 Fe0 2.024711 1_455
F1 Fe4 2.003310 1_555
F1 Fe6 2.023756 1_554
F2 Fe7 2.074475 1_555
F2 Fe5 2.081846 1_555
F2 Mg0 2.181860 1_555
F3 Fe7 1.977776 1_555
F3 Fe4 2.043726 1_555
F4 Mg0 2.093594 1_565
F4 Fe5 2.101824 1_555
F4 Fe6 2.242207 1_555
F5 Fe2 2.015746 1_545
F5 Fe1 2.031318 1_655
F6 Mg0 1.932446 1_555
F6 Fe2 2.183395 1_545
F6 Fe3 2.262385 1_655
F7 Fe0 1.977149 1_546
F7 Fe3 2.061501 1_655
