# generated using pymatgen
data_NaMgIn(SO4)3
_symmetry_space_group_name_H-M   'P 1'
_cell_length_a   8.76595882
_cell_length_b   8.76595854
_cell_length_c   23.14475474
_cell_angle_alpha   90.00000000
_cell_angle_beta   90.00000000
_cell_angle_gamma   120.00000107
_symmetry_Int_Tables_number   1
_chemical_formula_structural   NaMgIn(SO4)3
_chemical_formula_sum   'Na6 Mg6 In6 S18 O72'
_cell_volume   1540.21748133
_cell_formula_units_Z   6
loop_
 _symmetry_equiv_pos_site_id
 _symmetry_equiv_pos_as_xyz
  1  'x, y, z'
loop_
 _atom_site_type_symbol
 _atom_site_label
 _atom_site_symmetry_multiplicity
 _atom_site_fract_x
 _atom_site_fract_y
 _atom_site_fract_z
 _atom_site_occupancy
  Na  Na0  1  0.00000000  -0.00000000  0.49791121  1
  Na  Na1  1  0.00000000  -0.00000000  0.99791121  1
  Na  Na2  1  0.66666700  0.33333300  0.83124421  1
  Na  Na3  1  0.66666700  0.33333300  0.33124421  1
  Na  Na4  1  0.33333300  0.66666700  0.16457821  1
  Na  Na5  1  0.33333300  0.66666700  0.66457821  1
  Mg  Mg0  1  0.00000000  -0.00000000  0.35130638  1
  Mg  Mg1  1  0.00000000  -0.00000000  0.85130638  1
  Mg  Mg2  1  0.66666700  0.33333300  0.68463938  1
  Mg  Mg3  1  0.66666700  0.33333300  0.18463938  1
  Mg  Mg4  1  0.33333300  0.66666700  0.01797338  1
  Mg  Mg5  1  0.33333300  0.66666700  0.51797338  1
  In  In0  1  0.00000000  0.00000000  0.65040755  1
  In  In1  1  0.00000000  0.00000000  0.15040755  1
  In  In2  1  0.66666700  0.33333300  0.98374055  1
  In  In3  1  0.66666700  0.33333300  0.48374055  1
  In  In4  1  0.33333300  0.66666700  0.31707455  1
  In  In5  1  0.33333300  0.66666700  0.81707455  1
  S  S0  1  0.29555115  0.00346730  0.25114216  1
  S  S1  1  0.70791615  0.70444885  0.25114216  1
  S  S2  1  0.99653270  0.29208385  0.25114216  1
  S  S3  1  0.29555115  0.29208385  0.75114216  1
  S  S4  1  0.99653270  0.70444885  0.75114216  1
  S  S5  1  0.70791615  0.00346730  0.75114216  1
  S  S6  1  0.96221815  0.33680030  0.58447516  1
  S  S7  1  0.37458315  0.03778185  0.58447516  1
  S  S8  1  0.66319970  0.62541685  0.58447516  1
  S  S9  1  0.96221815  0.62541685  0.08447516  1
  S  S10  1  0.66319970  0.03778185  0.08447516  1
  S  S11  1  0.37458315  0.33680030  0.08447516  1
  S  S12  1  0.62888415  0.67013430  0.91780916  1
  S  S13  1  0.04124915  0.37111585  0.91780916  1
  S  S14  1  0.32986570  0.95875085  0.91780916  1
  S  S15  1  0.62888415  0.95875085  0.41780916  1
  S  S16  1  0.32986570  0.37111585  0.41780916  1
  S  S17  1  0.04124915  0.67013430  0.41780916  1
  O  O0  1  0.21007718  0.02543438  0.30218495  1
  O  O1  1  0.81535720  0.78992282  0.30218495  1
  O  O2  1  0.97456562  0.18464280  0.30218495  1
  O  O3  1  0.21007718  0.18464280  0.80218495  1
  O  O4  1  0.97456562  0.78992282  0.80218495  1
  O  O5  1  0.81535720  0.02543438  0.80218495  1
  O  O6  1  0.77975303  0.96953450  0.69726254  1
  O  O7  1  0.18978148  0.22024697  0.69726254  1
  O  O8  1  0.03046550  0.81021852  0.69726254  1
  O  O9  1  0.77975303  0.81021852  0.19726254  1
  O  O10  1  0.03046550  0.22024697  0.19726254  1
  O  O11  1  0.18978148  0.96953450  0.19726254  1
  O  O12  1  0.87674418  0.35876738  0.63551795  1
  O  O13  1  0.48202420  0.12325582  0.63551795  1
  O  O14  1  0.64123262  0.51797580  0.63551795  1
  O  O15  1  0.87674418  0.51797580  0.13551795  1
  O  O16  1  0.64123262  0.12325582  0.13551795  1
  O  O17  1  0.48202420  0.35876738  0.13551795  1
  O  O18  1  0.44642003  0.30286750  0.03059554  1
  O  O19  1  0.85644848  0.55357997  0.03059554  1
  O  O20  1  0.69713250  0.14355152  0.03059554  1
  O  O21  1  0.44642003  0.14355152  0.53059554  1
  O  O22  1  0.69713250  0.55357997  0.53059554  1
  O  O23  1  0.85644848  0.30286750  0.53059554  1
  O  O24  1  0.54341018  0.69210138  0.96885195  1
  O  O25  1  0.14869020  0.45658982  0.96885195  1
  O  O26  1  0.30789862  0.85130980  0.96885195  1
  O  O27  1  0.54341018  0.85130980  0.46885195  1
  O  O28  1  0.30789862  0.45658982  0.46885195  1
  O  O29  1  0.14869020  0.69210138  0.46885195  1
  O  O30  1  0.11308603  0.63620150  0.36392954  1
  O  O31  1  0.52311448  0.88691397  0.36392954  1
  O  O32  1  0.36379850  0.47688552  0.36392954  1
  O  O33  1  0.11308603  0.47688552  0.86392954  1
  O  O34  1  0.36379850  0.88691397  0.86392954  1
  O  O35  1  0.52311448  0.63620150  0.86392954  1
  O  O36  1  0.02400108  0.82815268  0.41050340  1
  O  O37  1  0.80415160  0.97599892  0.41050340  1
  O  O38  1  0.17184732  0.19584841  0.41050340  1
  O  O39  1  0.02400108  0.19584841  0.91050340  1
  O  O40  1  0.17184732  0.97599892  0.91050340  1
  O  O41  1  0.80415159  0.82815268  0.91050340  1
  O  O42  1  0.97980259  0.17511242  0.58903191  1
  O  O43  1  0.19530982  0.02019741  0.58903191  1
  O  O44  1  0.82488758  0.80469018  0.58903191  1
  O  O45  1  0.97980259  0.80469018  0.08903191  1
  O  O46  1  0.82488758  0.02019741  0.08903191  1
  O  O47  1  0.19530982  0.17511242  0.08903191  1
  O  O48  1  0.69066808  0.16148568  0.74383640  1
  O  O49  1  0.47081860  0.30933192  0.74383640  1
  O  O50  1  0.83851432  0.52918141  0.74383640  1
  O  O51  1  0.69066808  0.52918141  0.24383640  1
  O  O52  1  0.83851432  0.30933192  0.24383640  1
  O  O53  1  0.47081859  0.16148568  0.24383640  1
  O  O54  1  0.64646959  0.50844542  0.92236491  1
  O  O55  1  0.86197682  0.35353041  0.92236491  1
  O  O56  1  0.49155458  0.13802318  0.92236491  1
  O  O57  1  0.64646959  0.13802318  0.42236491  1
  O  O58  1  0.49155458  0.35353041  0.42236491  1
  O  O59  1  0.86197682  0.50844542  0.42236491  1
  O  O60  1  0.35733408  0.49481968  0.07717040  1
  O  O61  1  0.13748460  0.64266592  0.07717040  1
  O  O62  1  0.50518032  0.86251541  0.07717040  1
  O  O63  1  0.35733408  0.86251541  0.57717040  1
  O  O64  1  0.50518032  0.64266592  0.57717040  1
  O  O65  1  0.13748459  0.49481968  0.57717040  1
  O  O66  1  0.31313559  0.84177942  0.25569891  1
  O  O67  1  0.52864282  0.68686441  0.25569891  1
  O  O68  1  0.15822058  0.47135718  0.25569891  1
  O  O69  1  0.31313559  0.47135718  0.75569891  1
  O  O70  1  0.15822058  0.68686441  0.75569891  1
  O  O71  1  0.52864282  0.84177942  0.75569891  1
loop_
_geom_bond_atom_site_label_1
_geom_bond_atom_site_label_2
_geom_bond_distance
_geom_bond_site_symmetry_2
Na0 O36 2.592898 1_545
Na0 O38 2.592898 1_555
Na0 O37 2.592898 1_445
Na0 O44 2.665928 1_445
Na0 O43 2.665928 1_555
Na0 O42 2.665928 1_455
Na1 O40 2.592898 1_545
Na1 O41 2.592898 1_445
Na1 O39 2.592898 1_555
Na1 O45 2.665928 1_446
Na1 O47 2.665928 1_556
Na1 O46 2.665928 1_456
Na2 O48 2.592898 1_555
Na2 O50 2.592898 1_555
Na2 O49 2.592898 1_555
Na2 O56 2.665928 1_555
Na2 O55 2.665928 1_555
Na2 O54 2.665928 1_555
Na3 O52 2.592898 1_555
Na3 O53 2.592898 1_555
Na3 O51 2.592898 1_555
Na3 O57 2.665928 1_555
Na3 O59 2.665928 1_555
Na3 O58 2.665928 1_555
Na4 O60 2.592898 1_555
Na4 O62 2.592898 1_555
Na4 O61 2.592898 1_555
Na4 O68 2.665928 1_555
Na4 O67 2.665928 1_555
Na4 O66 2.665928 1_555
Na5 O64 2.592898 1_555
Na5 O65 2.592898 1_555
Na5 O63 2.592898 1_555
Na5 O69 2.665928 1_555
Na5 O71 2.665928 1_555
Na5 O70 2.665928 1_555
Mg0 O1 2.079159 1_445
Mg0 O2 2.079159 1_455
Mg0 O0 2.079159 1_555
Mg0 O36 2.123120 1_545
Mg0 O38 2.123120 1_555
Mg0 O37 2.123120 1_445
Mg1 O4 2.079159 1_445
Mg1 O3 2.079159 1_555
Mg1 O5 2.079159 1_455
Mg1 O40 2.123120 1_545
Mg1 O41 2.123120 1_445
Mg1 O39 2.123120 1_555
Mg2 O13 2.079159 1_555
Mg2 O14 2.079159 1_555
Mg2 O12 2.079159 1_555
Mg2 O48 2.123120 1_555
Mg2 O50 2.123120 1_555
Mg2 O49 2.123120 1_555
Mg3 O16 2.079159 1_555
Mg3 O15 2.079159 1_555
Mg3 O17 2.079159 1_555
Mg3 O52 2.123120 1_555
Mg3 O53 2.123120 1_555
Mg3 O51 2.123120 1_555
Mg4 O25 2.079159 1_554
Mg4 O26 2.079159 1_554
Mg4 O24 2.079159 1_554
Mg4 O60 2.123120 1_555
Mg4 O62 2.123120 1_555
Mg4 O61 2.123120 1_555
Mg5 O28 2.079159 1_555
Mg5 O27 2.079159 1_555
Mg5 O29 2.079159 1_555
Mg5 O64 2.123120 1_555
Mg5 O65 2.123120 1_555
Mg5 O63 2.123120 1_555
In0 O7 2.111694 1_555
In0 O6 2.111694 1_445
In0 O8 2.111694 1_545
In0 O44 2.162712 1_445
In0 O43 2.162712 1_555
In0 O42 2.162712 1_455
In1 O10 2.111694 1_555
In1 O9 2.111694 1_445
In1 O11 2.111694 1_545
In1 O45 2.162712 1_445
In1 O47 2.162712 1_555
In1 O46 2.162712 1_455
In2 O19 2.111694 1_556
In2 O18 2.111694 1_556
In2 O20 2.111694 1_556
In2 O56 2.162712 1_555
In2 O55 2.162712 1_555
In2 O54 2.162712 1_555
In3 O22 2.111694 1_555
In3 O21 2.111694 1_555
In3 O23 2.111694 1_555
In3 O57 2.162712 1_555
In3 O59 2.162712 1_555
In3 O58 2.162712 1_555
In4 O31 2.111694 1_555
In4 O30 2.111694 1_555
In4 O32 2.111694 1_555
In4 O68 2.162712 1_555
In4 O67 2.162712 1_555
In4 O66 2.162712 1_555
In5 O34 2.111694 1_555
In5 O33 2.111694 1_555
In5 O35 2.111694 1_555
In5 O69 2.162712 1_555
In5 O71 2.162712 1_555
In5 O70 2.162712 1_555
O0 S0 1.462325 1_555
O1 S1 1.462325 1_555
O2 S2 1.462325 1_555
O3 S3 1.462325 1_555
O4 S4 1.462325 1_555
O5 S5 1.462325 1_555
O6 S5 1.492455 1_565
O7 S3 1.492455 1_555
O8 S4 1.492455 1_455
O9 S1 1.492455 1_555
O10 S2 1.492455 1_455
O11 S0 1.492455 1_565
O12 S6 1.462325 1_555
O13 S7 1.462325 1_555
O14 S8 1.462325 1_555
O15 S9 1.462325 1_555
O16 S10 1.462325 1_555
O17 S11 1.462325 1_555
O18 S11 1.492455 1_555
O19 S9 1.492455 1_555
O20 S10 1.492455 1_555
O21 S7 1.492455 1_555
O22 S8 1.492455 1_555
O23 S6 1.492455 1_555
O24 S12 1.462325 1_555
O25 S13 1.462325 1_555
O26 S14 1.462325 1_555
O27 S15 1.462325 1_555
O28 S16 1.462325 1_555
O29 S17 1.462325 1_555
O30 S17 1.492455 1_555
O31 S15 1.492455 1_555
O32 S16 1.492455 1_555
O33 S13 1.492455 1_555
O34 S14 1.492455 1_555
O35 S12 1.492455 1_555
O36 S17 1.476352 1_555
O37 S15 1.476361 1_555
O38 S16 1.476357 1_555
O39 S13 1.476361 1_555
O40 S14 1.476352 1_555
O41 S12 1.476357 1_555
O42 S6 1.504074 1_555
O43 S7 1.504083 1_555
O44 S8 1.504079 1_555
O45 S9 1.504083 1_555
O46 S10 1.504074 1_555
O47 S11 1.504079 1_555
O48 S5 1.476352 1_555
O49 S3 1.476361 1_555
O50 S4 1.476357 1_555
O51 S1 1.476361 1_555
O52 S2 1.476352 1_555
O53 S0 1.476357 1_555
O54 S12 1.504086 1_555
O55 S13 1.504069 1_655
O56 S14 1.504076 1_545
O57 S15 1.504069 1_545
O58 S16 1.504086 1_555
O59 S17 1.504076 1_655
O60 S11 1.476363 1_555
O61 S9 1.476346 1_455
O62 S10 1.476353 1_565
O63 S7 1.476346 1_565
O64 S8 1.476363 1_555
O65 S6 1.476353 1_455
O66 S0 1.504074 1_565
O67 S1 1.504083 1_555
O68 S2 1.504079 1_455
O69 S3 1.504083 1_555
O70 S4 1.504074 1_455
O71 S5 1.504079 1_565
