# generated using pymatgen
data_MgMn4(OF)4
_symmetry_space_group_name_H-M   'P 1'
_cell_length_a   5.33499679
_cell_length_b   5.88325194
_cell_length_c   5.52614151
_cell_angle_alpha   100.83195374
_cell_angle_beta   102.96818122
_cell_angle_gamma   79.50501195
_symmetry_Int_Tables_number   1
_chemical_formula_structural   MgMn4(OF)4
_chemical_formula_sum   'Mg1 Mn4 O4 F4'
_cell_volume   164.22932386
_cell_formula_units_Z   1
loop_
 _symmetry_equiv_pos_site_id
 _symmetry_equiv_pos_as_xyz
  1  'x, y, z'
loop_
 _atom_site_type_symbol
 _atom_site_label
 _atom_site_symmetry_multiplicity
 _atom_site_fract_x
 _atom_site_fract_y
 _atom_site_fract_z
 _atom_site_occupancy
  Mg  Mg0  1  0.42472133  0.15004713  0.20997516  1
  Mn  Mn0  1  0.05866854  0.83698704  0.65395933  1
  Mn  Mn1  1  0.94048104  0.12743226  0.22184294  1
  Mn  Mn2  1  0.83502686  0.44208984  0.82934529  1
  Mn  Mn3  1  0.47575440  0.64679753  0.27501276  1
  O  O0  1  0.09317841  0.12970214  0.94916428  1
  O  O1  1  0.24194589  0.93761148  0.38864558  1
  O  O2  1  0.64905068  0.35604102  0.10149202  1
  O  O3  1  0.73809536  0.66350637  0.56918090  1
  F  F0  1  0.24744255  0.43109539  0.39932681  1
  F  F1  1  0.19197183  0.62073713  0.94813813  1
  F  F2  1  0.75392107  0.15006783  0.50375824  1
  F  F3  1  0.65529404  0.86502785  0.08765655  1
loop_
_geom_bond_atom_site_label_1
_geom_bond_atom_site_label_2
_geom_bond_distance
_geom_bond_site_symmetry_2
Mg0 O0 2.021955 1_554
Mg0 O2 2.093782 1_555
Mg0 O1 2.197189 1_545
Mn0 O3 2.069472 1_455
Mn0 O0 2.141412 1_565
Mn0 O1 2.153296 1_555
Mn1 O0 1.870006 1_654
Mn1 O1 1.936677 1_645
Mn1 O2 1.943940 1_555
Mn2 O3 2.038661 1_555
Mn2 O2 2.154379 1_556
Mn2 O0 2.199754 1_655
Mn3 O3 1.892100 1_555
Mn3 O2 1.976265 1_555
Mn3 O1 2.011915 1_555
F0 Mg0 1.986853 1_555
F0 Mn3 2.198259 1_555
F0 Mn1 2.553791 1_455
F0 Mn0 2.682095 1_555
F1 Mn3 2.081250 1_556
F1 Mn0 2.167042 1_555
F1 Mn2 2.251821 1_455
F2 Mn1 2.001270 1_555
F2 Mg0 2.107252 1_555
F2 Mn2 2.266211 1_555
F2 Mn0 2.367064 1_645
F3 Mg0 1.994390 1_565
F3 Mn3 2.242894 1_555
F3 Mn1 2.273121 1_565
