# generated using pymatgen
data_Na3La2Zr2P5SO24
_symmetry_space_group_name_H-M   'P 1'
_cell_length_a   9.24725688
_cell_length_b   9.23779750
_cell_length_c   23.99334870
_cell_angle_alpha   90.14177229
_cell_angle_beta   89.90549689
_cell_angle_gamma   119.62503739
_symmetry_Int_Tables_number   1
_chemical_formula_structural   Na3La2Zr2P5SO24
_chemical_formula_sum   'Na9 La6 Zr6 P15 S3 O72'
_cell_volume   1781.68134462
_cell_formula_units_Z   3
loop_
 _symmetry_equiv_pos_site_id
 _symmetry_equiv_pos_as_xyz
  1  'x, y, z'
loop_
 _atom_site_type_symbol
 _atom_site_label
 _atom_site_symmetry_multiplicity
 _atom_site_fract_x
 _atom_site_fract_y
 _atom_site_fract_z
 _atom_site_occupancy
  Na  Na0  1  0.00314357  0.36346989  0.75109043  1
  Na  Na1  1  0.66899692  0.96188402  0.58348244  1
  Na  Na2  1  0.03949399  0.33209559  0.08366453  1
  Na  Na3  1  0.00740099  0.99284623  0.49943581  1
  Na  Na4  1  0.00795643  0.99506290  0.99843600  1
  Na  Na5  1  0.65843912  0.32635363  0.83357011  1
  Na  Na6  1  0.67818624  0.33621819  0.33267331  1
  Na  Na7  1  0.34642614  0.66917786  0.16721362  1
  Na  Na8  1  0.33504754  0.66738047  0.66684503  1
  La  La0  1  0.01091965  0.99572826  0.64592842  1
  La  La1  1  0.99500609  0.99021762  0.14598163  1
  La  La2  1  0.33492927  0.67534913  0.01670218  1
  La  La3  1  0.32184197  0.66433750  0.51650037  1
  La  La4  1  0.32921765  0.66528290  0.31910410  1
  La  La5  1  0.33747323  0.67901045  0.82051583  1
  Zr  Zr0  1  0.98045025  0.99120023  0.34859498  1
  Zr  Zr1  1  0.00766369  0.00612740  0.84770123  1
  Zr  Zr2  1  0.66093563  0.33747192  0.68655713  1
  Zr  Zr3  1  0.67055406  0.33952615  0.18637367  1
  Zr  Zr4  1  0.66352837  0.32669344  0.98220247  1
  Zr  Zr5  1  0.67440720  0.33799508  0.48206969  1
  P  P0  1  0.70464283  0.69707891  0.24997537  1
  P  P1  1  0.99048944  0.29059284  0.24829195  1
  P  P2  1  0.29832699  0.29316157  0.75063446  1
  P  P3  1  0.98958077  0.69631348  0.75128230  1
  P  P4  1  0.71040665  0.00877035  0.74785311  1
  P  P5  1  0.94712245  0.33478890  0.58538075  1
  P  P6  1  0.39206965  0.05625004  0.58206996  1
  P  P7  1  0.66236586  0.61545587  0.58281298  1
  P  P8  1  0.94532558  0.60973351  0.08220098  1
  P  P9  1  0.66481706  0.05330078  0.08451462  1
  P  P10  1  0.38584590  0.33596647  0.08380636  1
  P  P11  1  0.02058405  0.35258399  0.91659766  1
  P  P12  1  0.33120573  0.98202774  0.91701796  1
  P  P13  1  0.64250647  0.97749590  0.41854066  1
  P  P14  1  0.02012799  0.66971041  0.41595782  1
  S  S0  1  0.30179633  0.01234086  0.25124943  1
  S  S1  1  0.65040114  0.66845003  0.91635784  1
  S  S2  1  0.33114093  0.34932458  0.41610026  1
  O  O0  1  0.21188974  0.02696881  0.30044152  1
  O  O1  1  0.81901549  0.79339737  0.30156225  1
  O  O2  1  0.97424727  0.17299411  0.29863374  1
  O  O3  1  0.20549398  0.17809056  0.80177741  1
  O  O4  1  0.97543385  0.79374067  0.80225186  1
  O  O5  1  0.82993960  0.03015950  0.79793162  1
  O  O6  1  0.78354631  0.98720473  0.69316990  1
  O  O7  1  0.19206998  0.21878734  0.69855969  1
  O  O8  1  0.01757754  0.79642253  0.69813705  1
  O  O9  1  0.78378451  0.79832643  0.19776872  1
  O  O10  1  0.01510677  0.21864457  0.19381157  1
  O  O11  1  0.20647762  0.98928983  0.19978062  1
  O  O12  1  0.85631771  0.34423975  0.63929609  1
  O  O13  1  0.49127432  0.14881586  0.63586770  1
  O  O14  1  0.65662994  0.51477900  0.63611165  1
  O  O15  1  0.85372661  0.50985620  0.13606624  1
  O  O16  1  0.65702634  0.14812100  0.13715703  1
  O  O17  1  0.48762396  0.34329684  0.13686979  1
  O  O18  1  0.48053799  0.32911395  0.03146575  1
  O  O19  1  0.84361357  0.51500210  0.03050928  1
  O  O20  1  0.67189519  0.15361862  0.03159212  1
  O  O21  1  0.48716776  0.15687358  0.53022705  1
  O  O22  1  0.66925249  0.51973713  0.53086127  1
  O  O23  1  0.84478139  0.32906498  0.53304912  1
  O  O24  1  0.57467121  0.70039017  0.96609137  1
  O  O25  1  0.13019480  0.42847888  0.96893607  1
  O  O26  1  0.29709109  0.86998629  0.96818893  1
  O  O27  1  0.57478069  0.87239039  0.47186624  1
  O  O28  1  0.29810673  0.42352394  0.46611490  1
  O  O29  1  0.12986507  0.70504402  0.46794549  1
  O  O30  1  0.09410522  0.62973871  0.36528186  1
  O  O31  1  0.53055250  0.89732322  0.36809793  1
  O  O32  1  0.36485631  0.45639791  0.36725850  1
  O  O33  1  0.09572871  0.46055890  0.86435019  1
  O  O34  1  0.37242060  0.91134768  0.86558312  1
  O  O35  1  0.54438790  0.63474838  0.86697828  1
  O  O36  1  0.00290260  0.82744158  0.40437252  1
  O  O37  1  0.81990715  0.99803609  0.40598553  1
  O  O38  1  0.18185247  0.18232101  0.40635699  1
  O  O39  1  -0.00012567  0.17556794  0.90549503  1
  O  O40  1  0.17303290  0.99761890  0.90596335  1
  O  O41  1  0.81641775  0.81801460  0.90738016  1
  O  O42  1  0.94889333  0.16884033  0.58380352  1
  O  O43  1  0.21781142  0.03543030  0.58052199  1
  O  O44  1  0.81696017  0.79085857  0.58198114  1
  O  O45  1  0.96694197  0.78444422  0.08146477  1
  O  O46  1  0.83087561  0.05148126  0.08336592  1
  O  O47  1  0.21015732  0.18116920  0.08345843  1
  O  O48  1  0.70617850  0.17777948  0.74500711  1
  O  O49  1  0.47192670  0.30598380  0.74491448  1
  O  O50  1  0.82812139  0.52087102  0.74613691  1
  O  O51  1  0.69531183  0.52353509  0.24565067  1
  O  O52  1  0.82620571  0.30115279  0.24471663  1
  O  O53  1  0.46774779  0.16646153  0.24704017  1
  O  O54  1  0.66967474  0.51982932  0.92537224  1
  O  O55  1  0.84456849  0.33248486  0.92669689  1
  O  O56  1  0.48345583  0.15811638  0.92730832  1
  O  O57  1  0.66713696  0.15551615  0.42705391  1
  O  O58  1  0.47966499  0.33012840  0.42531090  1
  O  O59  1  0.84408532  0.51672650  0.42661924  1
  O  O60  1  0.36365006  0.49178616  0.08305471  1
  O  O61  1  0.11420519  0.61208003  0.08215885  1
  O  O62  1  0.51194312  0.87864526  0.08360408  1
  O  O63  1  0.38836840  0.88632270  0.58238442  1
  O  O64  1  0.50653223  0.63635905  0.58273645  1
  O  O65  1  0.12132812  0.48824926  0.58389526  1
  O  O66  1  0.32605310  0.86580230  0.25606394  1
  O  O67  1  0.53073608  0.67434946  0.25724661  1
  O  O68  1  0.14024950  0.46498215  0.25680363  1
  O  O69  1  0.31302458  0.46473096  0.75899088  1
  O  O70  1  0.13489966  0.65961439  0.75701141  1
  O  O71  1  0.53597416  0.86068592  0.75585956  1
loop_
_geom_bond_atom_site_label_1
_geom_bond_atom_site_label_2
_geom_bond_distance
_geom_bond_site_symmetry_2
Na0 O70 2.385825 1_555
Na0 O48 2.418246 1_455
Na0 O69 2.544242 1_555
Na0 O50 2.660058 1_455
Na0 O33 2.856322 1_555
Na0 O5 2.905956 1_455
Na0 O7 2.952969 1_555
Na0 O12 2.973390 1_455
Na1 O63 2.330556 1_555
Na1 O42 2.337125 1_565
Na1 O44 2.550726 1_555
Na1 O64 2.614114 1_555
Na1 O6 2.804312 1_555
Na1 O27 2.810536 1_555
Na2 O61 2.324231 1_555
Na2 O46 2.344645 1_455
Na2 O47 2.570950 1_555
Na2 O60 2.605753 1_555
Na2 O10 2.812772 1_555
Na2 O25 2.887890 1_554
Na3 O43 2.641522 1_565
Na3 O44 2.695111 1_455
Na3 O36 2.731137 1_555
Na3 O38 2.805257 1_565
Na3 O42 2.807723 1_465
Na3 O37 2.851544 1_455
Na4 O45 2.680516 1_456
Na4 O40 2.684582 1_555
Na4 O47 2.725892 1_566
Na4 O41 2.777828 1_455
Na4 O39 2.810861 1_565
Na4 O46 2.816558 1_466
Na5 O48 2.678699 1_555
Na5 O49 2.687770 1_555
Na5 O50 2.704084 1_555
Na5 O56 2.758831 1_555
Na5 O54 2.802589 1_555
Na5 O55 2.806068 1_555
Na6 O52 2.618700 1_555
Na6 O51 2.669234 1_555
Na6 O53 2.729059 1_555
Na6 O59 2.771037 1_555
Na6 O57 2.788239 1_555
Na6 O58 2.863325 1_555
Na7 O60 2.651174 1_555
Na7 O62 2.681848 1_555
Na7 O67 2.739470 1_555
Na7 O61 2.818430 1_555
Na7 O66 2.863072 1_555
Na7 O68 2.874860 1_555
Na8 O64 2.665545 1_555
Na8 O65 2.714524 1_555
Na8 O63 2.733410 1_555
Na8 O71 2.813624 1_555
Na8 O70 2.822629 1_555
Na8 O69 2.841847 1_555
La0 O8 2.255327 1_555
La0 O7 2.286543 1_565
La0 O6 2.353875 1_455
La0 O43 2.357281 1_565
La0 O44 2.406576 1_455
La0 O42 2.455531 1_465
La1 O9 2.254134 1_555
La1 O10 2.324923 1_665
La1 O11 2.348476 1_655
La1 O45 2.361361 1_555
La1 O46 2.396226 1_565
La1 O47 2.419492 1_665
La2 O26 2.311681 1_554
La2 O62 2.395321 1_555
La2 O61 2.405987 1_555
La2 O25 2.413363 1_554
La2 O24 2.434847 1_554
La2 O60 2.437319 1_555
La3 O29 2.306326 1_555
La3 O65 2.391674 1_555
La3 O63 2.412977 1_555
La3 O27 2.422642 1_555
La3 O64 2.440630 1_555
La3 O28 2.441984 1_555
La4 O30 2.313088 1_555
La4 O31 2.343533 1_555
La4 O68 2.347340 1_555
La4 O67 2.349375 1_555
La4 O66 2.405718 1_555
La4 O32 2.409984 1_555
La5 O34 2.276873 1_555
La5 O70 2.353511 1_555
La5 O71 2.355940 1_555
La5 O69 2.385949 1_555
La5 O33 2.391364 1_555
La5 O35 2.419458 1_555
O0 S0 1.486466 1_555
O0 Zr0 2.306299 1_445
O1 P0 1.584547 1_555
O1 Zr0 2.034556 1_555
O2 P1 1.583114 1_555
O2 Zr0 2.089495 1_545
O3 P2 1.572727 1_555
O3 Zr1 2.052612 1_555
O4 P3 1.559847 1_555
O4 Zr1 2.130668 1_665
O5 P4 1.578560 1_555
O5 Zr1 2.131833 1_655
O6 P4 1.532170 1_565
O7 P2 1.526767 1_555
O8 P3 1.521928 1_455
O9 P0 1.518380 1_555
O10 P1 1.531848 1_455
O11 S0 1.471055 1_565
O12 P5 1.566675 1_555
O12 Zr2 2.106184 1_555
O13 P6 1.569016 1_555
O13 Zr2 2.066514 1_555
O14 P7 1.568448 1_555
O14 Zr2 2.055188 1_555
O15 P8 1.571215 1_555
O15 Zr3 2.041956 1_555
O16 P9 1.557047 1_555
O16 Zr3 2.075568 1_555
O17 P10 1.565842 1_555
O17 Zr3 2.082930 1_555
O18 P10 1.548753 1_555
O18 Zr4 2.071638 1_554
O19 P8 1.540596 1_555
O19 Zr4 2.067621 1_554
O20 P9 1.555966 1_555
O20 Zr4 2.024475 1_554
O21 P6 1.542270 1_555
O21 Zr5 2.066723 1_555
O22 P7 1.545841 1_555
O22 Zr5 2.064134 1_555
O23 P5 1.558556 1_555
O23 Zr5 2.029895 1_555
O24 S1 1.483629 1_555
O25 P11 1.546987 1_555
O26 P12 1.536355 1_555
O27 P13 1.540877 1_555
O28 S2 1.484895 1_555
O29 P14 1.538471 1_555
O30 P14 1.525603 1_555
O31 P13 1.525373 1_555
O32 S2 1.465780 1_555
O33 P11 1.538615 1_555
O34 P12 1.528084 1_555
O35 S1 1.470357 1_555
O36 P14 1.567596 1_555
O36 Zr0 2.108092 1_455
O37 P13 1.583921 1_555
O37 Zr0 2.046849 1_555
O38 S2 1.494728 1_555
O38 Zr0 2.291730 1_445
O39 P11 1.571640 1_555
O39 Zr1 2.116237 1_555
O40 P12 1.562122 1_555
O40 Zr1 2.103622 1_565
O41 S1 1.488472 1_555
O41 Zr1 2.272299 1_665
O42 P5 1.541531 1_555
O43 P6 1.526033 1_555
O44 P7 1.542578 1_555
O45 P8 1.525207 1_555
O46 P9 1.544164 1_555
O47 P10 1.545166 1_555
O48 P4 1.582608 1_555
O48 Zr2 2.222696 1_555
O49 P2 1.556048 1_555
O49 Zr2 2.142733 1_555
O50 P3 1.574304 1_555
O50 Zr2 2.170205 1_555
O51 P0 1.565500 1_555
O51 Zr3 2.137530 1_555
O52 P1 1.572180 1_555
O52 Zr3 2.161131 1_555
O53 S0 1.494109 1_555
O53 Zr3 2.286947 1_555
O54 S1 1.485593 1_555
O54 Zr4 2.226480 1_555
O55 P11 1.562886 1_655
O55 Zr4 2.117452 1_555
O56 P12 1.556976 1_545
O56 Zr4 2.089512 1_555
O57 P13 1.557630 1_545
O57 Zr5 2.113241 1_555
O58 S2 1.486137 1_555
O58 Zr5 2.231834 1_555
O59 P14 1.561629 1_655
O59 Zr5 2.097822 1_555
O60 P10 1.551336 1_555
O61 P8 1.551071 1_455
O62 P9 1.532014 1_565
O63 P6 1.553157 1_565
O64 P7 1.545633 1_555
O65 P5 1.532426 1_455
O66 S0 1.482296 1_565
O67 P0 1.525165 1_555
O68 P1 1.532468 1_455
O69 P2 1.534994 1_555
O70 P3 1.546244 1_455
O71 P4 1.526061 1_565
