# generated using pymatgen
data_LiHF2
_symmetry_space_group_name_H-M   'P 1'
_cell_length_a   4.68373315
_cell_length_b   4.68373350
_cell_length_c   4.68373342
_cell_angle_alpha   36.50536070
_cell_angle_beta   36.50535358
_cell_angle_gamma   36.50534645
_symmetry_Int_Tables_number   1
_chemical_formula_structural   LiHF2
_chemical_formula_sum   'Li1 H1 F2'
_cell_volume   32.55317563
_cell_formula_units_Z   1
loop_
 _symmetry_equiv_pos_site_id
 _symmetry_equiv_pos_as_xyz
  1  'x, y, z'
loop_
 _atom_site_type_symbol
 _atom_site_label
 _atom_site_symmetry_multiplicity
 _atom_site_fract_x
 _atom_site_fract_y
 _atom_site_fract_z
 _atom_site_occupancy
  Li  Li0  1  -0.00000000  -0.00000000  0.00000000  1
  H  H0  1  0.50000000  0.50000000  0.50000000  1
  F  F0  1  0.41330188  0.41330188  0.41330188  1
  F  F1  1  0.58669812  0.58669812  0.58669812  1
loop_
_geom_bond_atom_site_label_1
_geom_bond_atom_site_label_2
_geom_bond_distance
_geom_bond_site_symmetry_2
F0 H0 1.135751 1_555
F0 Li0 1.991692 1_655
F0 Li0 1.991693 1_565
F0 Li0 1.991693 1_556
F1 H0 1.135751 1_555
F1 Li0 1.991692 1_566
F1 Li0 1.991693 1_656
F1 Li0 1.991693 1_665
