# generated using pymatgen
data_ErB3H18C2S
_symmetry_space_group_name_H-M   'P 1'
_cell_length_a   5.46555620
_cell_length_b   22.56874100
_cell_length_c   8.10943164
_cell_angle_alpha   90.00000000
_cell_angle_beta   100.05313274
_cell_angle_gamma   90.00000000
_symmetry_Int_Tables_number   1
_chemical_formula_structural   ErB3H18C2S
_chemical_formula_sum   'Er4 B12 H72 C8 S4'
_cell_volume   984.94587712
_cell_formula_units_Z   4
loop_
 _symmetry_equiv_pos_site_id
 _symmetry_equiv_pos_as_xyz
  1  'x, y, z'
loop_
 _atom_site_type_symbol
 _atom_site_label
 _atom_site_symmetry_multiplicity
 _atom_site_fract_x
 _atom_site_fract_y
 _atom_site_fract_z
 _atom_site_occupancy
  Er  Er0  1  0.68104000  0.33325500  0.11767600  1
  Er  Er1  1  0.31896000  0.83325500  0.38232400  1
  Er  Er2  1  0.31896000  0.66674500  0.88232400  1
  Er  Er3  1  0.68104000  0.16674500  0.61767600  1
  B  B0  1  0.16520300  0.16917000  0.56547200  1
  B  B1  1  0.83479700  0.66917000  0.93452800  1
  B  B2  1  0.83479700  0.83083000  0.43452800  1
  B  B3  1  0.16520300  0.33083000  0.06547200  1
  B  B4  1  0.80040900  0.08491500  0.81183000  1
  B  B5  1  0.19959100  0.58491500  0.68817000  1
  B  B6  1  0.19959100  0.91508500  0.18817000  1
  B  B7  1  0.80040900  0.41508500  0.31183000  1
  B  B8  1  0.32255800  0.75477400  0.12315400  1
  B  B9  1  0.67744200  0.25477400  0.37684600  1
  B  B10  1  0.67744200  0.24522600  0.87684600  1
  B  B11  1  0.32255800  0.74522600  0.62315400  1
  H  H0  1  0.28013900  0.19698300  0.47332400  1
  H  H1  1  0.71986100  0.69698300  0.02667600  1
  H  H2  1  0.71986100  0.80301700  0.52667600  1
  H  H3  1  0.28013900  0.30301700  0.97332400  1
  H  H4  1  0.29667400  0.13592700  0.66268600  1
  H  H5  1  0.70332600  0.63592700  0.83731400  1
  H  H6  1  0.70332600  0.86407300  0.33731400  1
  H  H7  1  0.29667400  0.36407300  0.16268600  1
  H  H8  1  0.07231500  0.20596300  0.64788300  1
  H  H9  1  0.92768500  0.70596300  0.85211700  1
  H  H10  1  0.92768500  0.79403700  0.35211700  1
  H  H11  1  0.07231500  0.29403700  0.14788300  1
  H  H12  1  0.00670800  0.13839000  0.47791400  1
  H  H13  1  0.99329200  0.63839000  0.02208600  1
  H  H14  1  0.99329200  0.86161000  0.52208600  1
  H  H15  1  0.00670800  0.36161000  0.97791400  1
  H  H16  1  0.86160500  0.04344800  0.90280500  1
  H  H17  1  0.13839500  0.54344800  0.59719500  1
  H  H18  1  0.13839500  0.95655200  0.09719500  1
  H  H19  1  0.86160500  0.45655200  0.40280500  1
  H  H20  1  0.96129200  0.12393800  0.82276300  1
  H  H21  1  0.03870800  0.62393800  0.67723700  1
  H  H22  1  0.03870800  0.87606200  0.17723700  1
  H  H23  1  0.96129200  0.37606200  0.32276300  1
  H  H24  1  0.75858700  0.06979000  0.66204800  1
  H  H25  1  0.24141300  0.56979000  0.83795200  1
  H  H26  1  0.24141300  0.93021000  0.33795200  1
  H  H27  1  0.75858700  0.43021000  0.16204800  1
  H  H28  1  0.60878100  0.10949000  0.83854200  1
  H  H29  1  0.39121900  0.60949000  0.66145800  1
  H  H30  1  0.39121900  0.89051000  0.16145800  1
  H  H31  1  0.60878100  0.39051000  0.33854200  1
  H  H32  1  0.12940200  0.77251300  0.16397400  1
  H  H33  1  0.87059800  0.27251300  0.33602600  1
  H  H34  1  0.87059800  0.22748700  0.83602600  1
  H  H35  1  0.12940200  0.72748700  0.66397400  1
  H  H36  1  0.33828900  0.70133600  0.15211400  1
  H  H37  1  0.66171100  0.20133600  0.34788600  1
  H  H38  1  0.66171100  0.29866400  0.84788600  1
  H  H39  1  0.33828900  0.79866400  0.65211400  1
  H  H40  1  0.31440700  0.76647500  0.97400300  1
  H  H41  1  0.68559300  0.26647500  0.52599700  1
  H  H42  1  0.68559300  0.23352500  0.02599700  1
  H  H43  1  0.31440700  0.73352500  0.47400300  1
  H  H44  1  0.51025300  0.77820300  0.20227200  1
  H  H45  1  0.48974700  0.27820300  0.29772800  1
  H  H46  1  0.48974700  0.22179700  0.79772800  1
  H  H47  1  0.51025300  0.72179700  0.70227200  1
  H  H48  1  0.80623300  0.01039600  0.41402700  1
  H  H49  1  0.19376700  0.51039600  0.08597300  1
  H  H50  1  0.19376700  0.98960400  0.58597300  1
  H  H51  1  0.80623300  0.48960400  0.91402700  1
  H  H52  1  0.85889700  0.06070100  0.25227600  1
  H  H53  1  0.14110300  0.56070100  0.24772400  1
  H  H54  1  0.14110300  0.93929900  0.74772400  1
  H  H55  1  0.85889700  0.43929900  0.75227600  1
  H  H56  1  0.63263600  0.00236200  0.20752400  1
  H  H57  1  0.36736400  0.50236200  0.29247600  1
  H  H58  1  0.36736400  0.99763800  0.79247600  1
  H  H59  1  0.63263600  0.49763800  0.70752400  1
  H  H60  1  0.21220100  0.14624800  0.18582500  1
  H  H61  1  0.78779900  0.64624800  0.31417500  1
  H  H62  1  0.78779900  0.85375200  0.81417500  1
  H  H63  1  0.21220100  0.35375200  0.68582500  1
  H  H64  1  0.27037100  0.08055400  0.07551400  1
  H  H65  1  0.72962900  0.58055400  0.42448600  1
  H  H66  1  0.72962900  0.91944600  0.92448600  1
  H  H67  1  0.27037100  0.41944600  0.57551400  1
  H  H68  1  0.50020200  0.13839600  0.11173500  1
  H  H69  1  0.49979800  0.63839600  0.38826500  1
  H  H70  1  0.49979800  0.86160400  0.88826500  1
  H  H71  1  0.50020200  0.36160400  0.61173500  1
  C  C0  1  0.71939600  0.03439100  0.30148900  1
  C  C1  1  0.28060400  0.53439100  0.19851100  1
  C  C2  1  0.28060400  0.96560900  0.69851100  1
  C  C3  1  0.71939600  0.46560900  0.80148900  1
  C  C4  1  0.35533400  0.11477100  0.16312000  1
  C  C5  1  0.64466600  0.61477100  0.33688000  1
  C  C6  1  0.64466600  0.88522900  0.83688000  1
  C  C7  1  0.35533400  0.38522900  0.66312000  1
  S  S0  1  0.47983200  0.08062100  0.36137700  1
  S  S1  1  0.52016800  0.58062100  0.13862300  1
  S  S2  1  0.52016800  0.91937900  0.63862300  1
  S  S3  1  0.47983200  0.41937900  0.86137700  1
loop_
_geom_bond_atom_site_label_1
_geom_bond_atom_site_label_2
_geom_bond_distance
_geom_bond_site_symmetry_2
Er0 H27 2.245859 1_555
Er0 H23 2.270727 1_555
Er0 H11 2.287762 1_655
Er0 H31 2.297972 1_555
Er0 H7 2.301725 1_555
Er0 H45 2.302548 1_555
Er0 H38 2.307939 1_554
Er0 H33 2.334000 1_555
Er0 H15 2.359376 1_654
Er0 H42 2.371883 1_555
Er0 H3 2.396180 1_554
Er0 S3 2.917071 1_554
Er1 H26 2.245859 1_555
Er1 H22 2.270727 1_555
Er1 H10 2.287762 1_455
Er1 H30 2.297972 1_555
Er1 H6 2.301725 1_555
Er1 H44 2.302548 1_555
Er1 H39 2.307939 1_555
Er1 H32 2.334000 1_555
Er1 H14 2.359376 1_455
Er1 H43 2.371883 1_555
Er1 H2 2.396180 1_555
Er1 S2 2.917071 1_555
Er2 H25 2.245859 1_555
Er2 H21 2.270727 1_555
Er2 H9 2.287762 1_455
Er2 H29 2.297972 1_555
Er2 H5 2.301725 1_555
Er2 H47 2.302548 1_555
Er2 H36 2.307939 1_556
Er2 H35 2.334000 1_555
Er2 H13 2.359376 1_456
Er2 H40 2.371883 1_555
Er2 H1 2.396180 1_556
Er2 S1 2.917071 1_556
Er3 H24 2.245859 1_555
Er3 H20 2.270727 1_555
Er3 H8 2.287762 1_655
Er3 H28 2.297972 1_555
Er3 H4 2.301725 1_555
Er3 H46 2.302548 1_555
Er3 H37 2.307939 1_555
Er3 H34 2.334000 1_555
Er3 H12 2.359376 1_655
Er3 H41 2.371883 1_555
Er3 H0 2.396180 1_555
Er3 S0 2.917071 1_555
B0 H4 1.225943 1_555
B0 H0 1.229199 1_555
B0 H8 1.229775 1_555
B0 H12 1.233854 1_555
B1 H5 1.225943 1_555
B1 H1 1.229199 1_556
B1 H9 1.229775 1_555
B1 H13 1.233854 1_556
B2 H6 1.225943 1_555
B2 H2 1.229199 1_555
B2 H10 1.229775 1_555
B2 H14 1.233854 1_555
B3 H7 1.225943 1_555
B3 H3 1.229199 1_554
B3 H11 1.229775 1_555
B3 H15 1.233854 1_554
B4 H16 1.202429 1_555
B4 H20 1.236718 1_555
B4 H28 1.237211 1_555
B4 H24 1.243867 1_555
B5 H17 1.202429 1_555
B5 H21 1.236718 1_555
B5 H29 1.237211 1_555
B5 H25 1.243867 1_555
B6 H18 1.202429 1_555
B6 H22 1.236718 1_555
B6 H30 1.237211 1_555
B6 H26 1.243867 1_555
B7 H19 1.202429 1_555
B7 H23 1.236718 1_555
B7 H31 1.237211 1_555
B7 H27 1.243867 1_555
B8 H32 1.227345 1_555
B8 H36 1.228821 1_555
B8 H44 1.230381 1_555
B8 H40 1.231207 1_554
B9 H33 1.227345 1_555
B9 H37 1.228821 1_555
B9 H45 1.230381 1_555
B9 H41 1.231207 1_555
B10 H34 1.227345 1_555
B10 H38 1.228821 1_555
B10 H46 1.230381 1_555
B10 H42 1.231207 1_556
B11 H35 1.227345 1_555
B11 H39 1.228821 1_555
B11 H47 1.230381 1_555
B11 H43 1.231207 1_555
C0 H52 1.095178 1_555
C0 H48 1.095525 1_555
C0 H56 1.096300 1_555
C0 S0 1.805783 1_555
C1 H53 1.095178 1_555
C1 H49 1.095525 1_555
C1 H57 1.096300 1_555
C1 S1 1.805783 1_555
C2 H54 1.095178 1_555
C2 H50 1.095525 1_555
C2 H58 1.096300 1_555
C2 S2 1.805783 1_555
C3 H55 1.095178 1_555
C3 H51 1.095525 1_555
C3 H59 1.096300 1_555
C3 S3 1.805783 1_555
C4 H68 1.095464 1_555
C4 H60 1.095832 1_555
C4 H64 1.096142 1_555
C4 S0 1.805534 1_555
C5 H69 1.095464 1_555
C5 H61 1.095832 1_555
C5 H65 1.096142 1_555
C5 S1 1.805534 1_555
C6 H70 1.095464 1_555
C6 H62 1.095832 1_555
C6 H66 1.096142 1_555
C6 S2 1.805534 1_555
C7 H71 1.095464 1_555
C7 H63 1.095832 1_555
C7 H67 1.096142 1_555
C7 S3 1.805534 1_555
