# generated using pymatgen
data_NaYNb3SiP5O24
_symmetry_space_group_name_H-M   'P 1'
_cell_length_a   8.90302599
_cell_length_b   8.90148928
_cell_length_c   23.14015814
_cell_angle_alpha   89.81168041
_cell_angle_beta   90.13399147
_cell_angle_gamma   120.02382586
_symmetry_Int_Tables_number   1
_chemical_formula_structural   NaYNb3SiP5O24
_chemical_formula_sum   'Na3 Y3 Nb9 Si3 P15 O72'
_cell_volume   1587.78050481
_cell_formula_units_Z   3
loop_
 _symmetry_equiv_pos_site_id
 _symmetry_equiv_pos_as_xyz
  1  'x, y, z'
loop_
 _atom_site_type_symbol
 _atom_site_label
 _atom_site_symmetry_multiplicity
 _atom_site_fract_x
 _atom_site_fract_y
 _atom_site_fract_z
 _atom_site_occupancy
  Na  Na0  1  0.00083912  0.00001712  0.99561626  1
  Na  Na1  1  0.66335646  0.33177399  0.83705425  1
  Na  Na2  1  0.66605793  0.33280104  0.33589933  1
  Y  Y0  1  0.00399829  0.00173431  0.85423718  1
  Y  Y1  1  0.66669337  0.33362595  0.97826627  1
  Y  Y2  1  0.66638940  0.33423091  0.47913242  1
  Nb  Nb0  1  0.99406350  0.99779611  0.35762863  1
  Nb  Nb1  1  0.00365432  0.00461680  0.64814263  1
  Nb  Nb2  1  0.99731610  0.00117368  0.14919295  1
  Nb  Nb3  1  0.66504636  0.33381163  0.68459201  1
  Nb  Nb4  1  0.66878484  0.33591409  0.18757247  1
  Nb  Nb5  1  0.33328329  0.66647524  0.02342661  1
  Nb  Nb6  1  0.33306686  0.66584507  0.52292189  1
  Nb  Nb7  1  0.33246682  0.66528381  0.30685169  1
  Nb  Nb8  1  0.33352148  0.66526844  0.80806094  1
  Si  Si0  1  0.71648422  0.71275222  0.25169279  1
  Si  Si1  1  0.99530843  0.28238145  0.25133022  1
  Si  Si2  1  0.29433851  0.29182576  0.75030214  1
  P  P0  1  0.28536264  0.00409928  0.25141066  1
  P  P1  1  0.99746556  0.70606640  0.74905648  1
  P  P2  1  0.70882034  0.00255642  0.74880282  1
  P  P3  1  0.95922311  0.33191262  0.58341959  1
  P  P4  1  0.37207057  0.03936403  0.58359489  1
  P  P5  1  0.66892647  0.62878980  0.58350863  1
  P  P6  1  0.95969907  0.62809496  0.08448018  1
  P  P7  1  0.66760558  0.04110173  0.08454836  1
  P  P8  1  0.37282793  0.33111165  0.08436038  1
  P  P9  1  0.61276201  0.66776997  0.91651725  1
  P  P10  1  0.05413648  0.38762964  0.91645931  1
  P  P11  1  0.33255311  0.94538905  0.91634264  1
  P  P12  1  0.61490136  0.94448084  0.41460807  1
  P  P13  1  0.32797383  0.38374852  0.41430305  1
  P  P14  1  0.05662896  0.67275021  0.41434468  1
  O  O0  1  0.20293607  0.03575542  0.30488502  1
  O  O1  1  0.84072517  0.80376954  0.30784968  1
  O  O2  1  0.96686607  0.15934700  0.30741617  1
  O  O3  1  0.22992963  0.17778433  0.80692810  1
  O  O4  1  0.95003091  0.76707486  0.80294876  1
  O  O5  1  0.81620895  0.04533932  0.80293019  1
  O  O6  1  0.79872092  0.97279680  0.69610759  1
  O  O7  1  0.16748123  0.19229346  0.69434878  1
  O  O8  1  0.02379227  0.82502552  0.69633260  1
  O  O9  1  0.80898838  0.83264888  0.19512420  1
  O  O10  1  0.02830468  0.19425995  0.19475110  1
  O  O11  1  0.17307294  0.97307478  0.19716868  1
  O  O12  1  0.87188825  0.36468491  0.63581842  1
  O  O13  1  0.49454159  0.12992005  0.63592302  1
  O  O14  1  0.63612364  0.50477993  0.63569905  1
  O  O15  1  0.86478796  0.50658491  0.13794722  1
  O  O16  1  0.64157007  0.13341960  0.13778303  1
  O  O17  1  0.49244098  0.35769219  0.13779904  1
  O  O18  1  0.44156971  0.29198442  0.03067870  1
  O  O19  1  0.85014551  0.56032689  0.03103572  1
  O  O20  1  0.70931670  0.14952082  0.03070607  1
  O  O21  1  0.43945844  0.14801659  0.53001796  1
  O  O22  1  0.70736885  0.55978882  0.52992894  1
  O  O23  1  0.85248770  0.29407721  0.52947934  1
  O  O24  1  0.51299274  0.67294123  0.97230456  1
  O  O25  1  0.15988741  0.48601564  0.97236051  1
  O  O26  1  0.32708577  0.83976744  0.97255050  1
  O  O27  1  0.52848515  0.83603235  0.47030574  1
  O  O28  1  0.30709455  0.47118694  0.46989051  1
  O  O29  1  0.16467509  0.69205027  0.47015444  1
  O  O30  1  0.15107222  0.65572554  0.36122246  1
  O  O31  1  0.50423649  0.85106714  0.36129898  1
  O  O32  1  0.34581225  0.49716123  0.36107149  1
  O  O33  1  0.15194457  0.49396160  0.86154909  1
  O  O34  1  0.34060744  0.84896215  0.86168237  1
  O  O35  1  0.50718796  0.66041553  0.86141972  1
  O  O36  1  0.04740237  0.84180589  0.40638301  1
  O  O37  1  0.79515592  0.95508061  0.40729447  1
  O  O38  1  0.16154694  0.20415484  0.40609516  1
  O  O39  1  0.04408742  0.21205091  0.91803260  1
  O  O40  1  0.16526861  0.95220546  0.91883757  1
  O  O41  1  0.78756660  0.83375871  0.91795712  1
  O  O42  1  0.98569479  0.17646953  0.59819224  1
  O  O43  1  0.18912076  0.00796426  0.59917660  1
  O  O44  1  0.81965119  0.80942012  0.59982522  1
  O  O45  1  0.99060094  0.81255150  0.09760399  1
  O  O46  1  0.82475137  0.01246297  0.09666660  1
  O  O47  1  0.18916935  0.17430127  0.09689595  1
  O  O48  1  0.68246694  0.15967107  0.73408118  1
  O  O49  1  0.48893747  0.32317989  0.73347790  1
  O  O50  1  0.84437870  0.52036214  0.73409408  1
  O  O51  1  0.69012403  0.51887758  0.23971936  1
  O  O52  1  0.82421900  0.30265555  0.23963780  1
  O  O53  1  0.46849833  0.16382514  0.24069270  1
  O  O54  1  0.62095842  0.50085777  0.91647154  1
  O  O55  1  0.87894402  0.37925654  0.91641062  1
  O  O56  1  0.49848143  0.12155398  0.91697175  1
  O  O57  1  0.63855723  0.12539924  0.41699489  1
  O  O58  1  0.48791638  0.36436257  0.41661423  1
  O  O59  1  0.87627671  0.51421408  0.41691117  1
  O  O60  1  0.35408006  0.49440003  0.07643020  1
  O  O61  1  0.14007616  0.64358124  0.07670169  1
  O  O62  1  0.50519289  0.85864574  0.07659527  1
  O  O63  1  0.35470594  0.85696051  0.57375718  1
  O  O64  1  0.50269779  0.64471450  0.57351923  1
  O  O65  1  0.14349229  0.49543952  0.57351620  1
  O  O66  1  0.30695317  0.84368910  0.26102070  1
  O  O67  1  0.52686980  0.69381909  0.26217890  1
  O  O68  1  0.16194881  0.47511210  0.26203969  1
  O  O69  1  0.31494374  0.48446014  0.75852950  1
  O  O70  1  0.16154453  0.68975323  0.75722588  1
  O  O71  1  0.52558929  0.84220322  0.75701837  1
loop_
_geom_bond_atom_site_label_1
_geom_bond_atom_site_label_2
_geom_bond_distance
_geom_bond_site_symmetry_2
Na0 O40 2.474141 1_545
Na0 O39 2.487448 1_555
Na0 O41 2.492863 1_445
Na0 O47 2.848363 1_556
Na0 O46 2.851386 1_456
Na0 O45 2.861032 1_446
Na1 O56 2.513449 1_555
Na1 O54 2.524879 1_555
Na1 O55 2.532097 1_555
Na1 O49 2.833135 1_555
Na1 O48 2.887978 1_555
Na1 O50 2.894147 1_555
Na2 O57 2.552816 1_555
Na2 O58 2.558522 1_555
Na2 O59 2.569781 1_555
Na2 O51 2.713975 1_555
Na2 O52 2.722737 1_555
Na2 O53 2.750614 1_555
Nb0 O2 1.952646 1_565
Nb0 O1 1.954410 1_555
Nb0 O37 1.983492 1_555
Nb0 O36 2.018273 1_655
Nb0 O38 2.029816 1_665
Nb0 O0 2.107366 1_665
Nb1 O7 1.904612 1_555
Nb1 O42 1.983427 1_455
Nb1 O43 1.992626 1_555
Nb1 O8 2.026186 1_545
Nb1 O44 2.026950 1_445
Nb1 O6 2.032557 1_445
Nb2 O9 1.916276 1_545
Nb2 O10 1.917717 1_655
Nb2 O46 1.998197 1_555
Nb2 O47 2.029824 1_655
Nb2 O11 2.031069 1_645
Nb2 O45 2.039649 1_545
Nb3 O49 1.898960 1_555
Nb3 O48 1.991592 1_555
Nb3 O50 1.992373 1_555
Nb3 O14 2.010455 1_555
Nb3 O13 2.028561 1_555
Nb3 O12 2.059552 1_555
Nb4 O51 1.961349 1_555
Nb4 O52 1.963167 1_555
Nb4 O15 2.004179 1_555
Nb4 O17 2.030683 1_555
Nb4 O16 2.051934 1_555
Nb4 O53 2.074017 1_555
Nb5 O26 1.959963 1_554
Nb5 O24 1.969480 1_554
Nb5 O25 1.970344 1_554
Nb5 O60 2.038429 1_555
Nb5 O62 2.041420 1_555
Nb5 O61 2.043923 1_555
Nb6 O65 1.988910 1_555
Nb6 O64 1.990368 1_555
Nb6 O63 1.999780 1_555
Nb6 O29 2.032852 1_555
Nb6 O27 2.040725 1_555
Nb6 O28 2.042911 1_555
Nb7 O68 1.917817 1_555
Nb7 O67 1.922344 1_555
Nb7 O32 1.998202 1_555
Nb7 O66 2.011740 1_555
Nb7 O30 2.017317 1_555
Nb7 O31 2.033416 1_555
Nb8 O69 1.917360 1_555
Nb8 O35 1.993637 1_555
Nb8 O33 2.000163 1_555
Nb8 O70 2.024700 1_555
Nb8 O71 2.025284 1_555
Nb8 O34 2.031510 1_555
O0 P0 1.537069 1_555
O1 Si0 1.634607 1_555
O2 Si1 1.631751 1_555
O3 Si2 1.577512 1_555
O3 Y0 2.131868 1_555
O4 P1 1.504955 1_555
O4 Y0 2.238716 1_665
O5 P2 1.503692 1_555
O5 Y0 2.234402 1_655
O6 P2 1.554522 1_565
O7 Si2 1.654180 1_555
O8 P1 1.552160 1_455
O9 Si0 1.626981 1_555
O10 Si1 1.629382 1_455
O11 P0 1.539894 1_565
O12 P3 1.547127 1_555
O13 P4 1.557427 1_555
O14 P5 1.559687 1_555
O15 P6 1.579919 1_555
O16 P7 1.563686 1_555
O17 P8 1.569324 1_555
O18 P8 1.502877 1_555
O18 Y1 2.211437 1_554
O19 P6 1.501714 1_555
O19 Y1 2.222493 1_554
O20 P7 1.502408 1_555
O20 Y1 2.215696 1_554
O21 P4 1.499111 1_555
O21 Y2 2.205208 1_555
O22 P5 1.499654 1_555
O22 Y2 2.196926 1_555
O23 P3 1.500450 1_555
O23 Y2 2.193407 1_555
O24 P9 1.582488 1_555
O25 P10 1.582192 1_555
O26 P11 1.588867 1_555
O27 P12 1.561469 1_555
O28 P13 1.564422 1_555
O29 P14 1.566187 1_555
O30 P14 1.540976 1_555
O31 P12 1.537882 1_555
O32 P13 1.547252 1_555
O33 P10 1.562410 1_555
O34 P11 1.552704 1_555
O35 P9 1.564179 1_555
O36 P14 1.557904 1_555
O37 P12 1.569267 1_555
O38 P13 1.554815 1_555
O39 P10 1.520439 1_555
O39 Y0 2.271248 1_555
O40 P11 1.521841 1_555
O40 Y0 2.260441 1_565
O41 P9 1.518297 1_555
O41 Y0 2.288741 1_665
O42 P3 1.552355 1_555
O43 P4 1.551657 1_555
O44 P5 1.539802 1_555
O45 P6 1.553933 1_555
O46 P7 1.567049 1_555
O47 P8 1.556174 1_555
O48 P2 1.565861 1_555
O49 Si2 1.658202 1_555
O50 P1 1.567471 1_555
O51 Si0 1.645500 1_555
O52 Si1 1.642802 1_555
O53 P0 1.556002 1_555
O54 P9 1.523594 1_555
O54 Y1 2.239719 1_555
O55 P10 1.523815 1_655
O55 Y1 2.241726 1_555
O56 P11 1.524268 1_545
O56 Y1 2.235332 1_555
O57 P12 1.517250 1_545
O57 Y2 2.267021 1_555
O58 P13 1.518494 1_555
O58 Y2 2.258932 1_555
O59 P14 1.518407 1_655
O59 Y2 2.265638 1_555
O60 P8 1.554063 1_555
O61 P6 1.552410 1_455
O62 P7 1.553408 1_565
O63 P4 1.569418 1_565
O64 P5 1.572217 1_555
O65 P3 1.572451 1_455
O66 P0 1.548435 1_565
O67 Si0 1.629123 1_555
O68 Si1 1.630868 1_455
O69 Si2 1.642376 1_555
O70 P1 1.549698 1_455
O71 P2 1.550555 1_565
