# generated using pymatgen
data_MgTi3Zn2O8
_symmetry_space_group_name_H-M   'P 1'
_cell_length_a   5.90153267
_cell_length_b   5.88047188
_cell_length_c   6.14849725
_cell_angle_alpha   61.43183133
_cell_angle_beta   63.68553325
_cell_angle_gamma   60.11797953
_symmetry_Int_Tables_number   1
_chemical_formula_structural   MgTi3Zn2O8
_chemical_formula_sum   'Mg1 Ti3 Zn2 O8'
_cell_volume   156.48195141
_cell_formula_units_Z   1
loop_
 _symmetry_equiv_pos_site_id
 _symmetry_equiv_pos_as_xyz
  1  'x, y, z'
loop_
 _atom_site_type_symbol
 _atom_site_label
 _atom_site_symmetry_multiplicity
 _atom_site_fract_x
 _atom_site_fract_y
 _atom_site_fract_z
 _atom_site_occupancy
  Mg  Mg0  1  0.12500000  0.12500000  0.62500000  1
  Ti  Ti0  1  0.62500000  0.12500000  0.62500000  1
  Ti  Ti1  1  0.62500000  0.62500000  0.12500000  1
  Ti  Ti2  1  0.62500000  0.62500000  0.62500000  1
  Zn  Zn0  1  0.93486900  0.97991200  0.10530700  1
  Zn  Zn1  1  0.31513100  0.27008800  0.14469300  1
  O  O0  1  0.40728400  0.35903600  0.36122500  1
  O  O1  1  0.39580500  0.40625300  0.79168900  1
  O  O2  1  0.40728400  0.87245500  0.36122500  1
  O  O3  1  0.86927800  0.36862800  0.39346600  1
  O  O4  1  0.38072200  0.88137200  0.85653400  1
  O  O5  1  0.85419500  0.84374700  0.45831100  1
  O  O6  1  0.84271600  0.37754500  0.88877500  1
  O  O7  1  0.84271600  0.89096400  0.88877500  1
loop_
_geom_bond_atom_site_label_1
_geom_bond_atom_site_label_2
_geom_bond_distance
_geom_bond_site_symmetry_2
Mg0 O4 2.038731 1_545
Mg0 O3 2.038731 1_455
Mg0 O6 2.248106 1_455
Mg0 O2 2.248106 1_545
Mg0 O0 2.248106 1_555
Mg0 O7 2.248106 1_445
O0 Zn1 1.983237 1_555
O0 Ti0 2.031259 1_555
O0 Ti1 2.093257 1_555
O1 Zn1 1.838530 1_556
O1 Ti0 1.943795 1_555
O1 Ti2 1.943796 1_555
O2 Zn1 1.983237 1_565
O2 Ti2 2.031259 1_555
O2 Ti1 2.093257 1_555
O3 Ti2 2.108356 1_555
O3 Ti0 2.108357 1_555
O3 Ti1 2.154037 1_555
O3 Zn1 2.314929 1_655
O4 Ti2 2.108356 1_555
O4 Ti0 2.108357 1_565
O4 Ti1 2.154037 1_556
O4 Zn0 2.314929 1_456
O5 Zn0 1.838530 1_555
O5 Ti0 1.943795 1_565
O5 Ti2 1.943796 1_555
O6 Zn0 1.983237 1_546
O6 Ti2 2.031259 1_555
O6 Ti1 2.093257 1_556
O7 Zn0 1.983237 1_556
O7 Ti0 2.031259 1_565
O7 Ti1 2.093257 1_556
