# generated using pymatgen
data_MgTe4MoW3(SeS)2
_symmetry_space_group_name_H-M   'P 1'
_cell_length_a   6.77854394
_cell_length_b   6.77875085
_cell_length_c   93.06087573
_cell_angle_alpha   90.01124271
_cell_angle_beta   90.00000000
_cell_angle_gamma   119.99899995
_symmetry_Int_Tables_number   1
_chemical_formula_structural   MgTe4MoW3(SeS)2
_chemical_formula_sum   'Mg8 Te32 Mo8 W24 Se16 S16'
_cell_volume   3703.29424053
_cell_formula_units_Z   8
loop_
 _symmetry_equiv_pos_site_id
 _symmetry_equiv_pos_as_xyz
  1  'x, y, z'
loop_
 _atom_site_type_symbol
 _atom_site_label
 _atom_site_symmetry_multiplicity
 _atom_site_fract_x
 _atom_site_fract_y
 _atom_site_fract_z
 _atom_site_occupancy
  Mg  Mg0_0  1  0.00000675  0.00001350  0.18990514  1
  Mg  Mg0_1  1  0.00000675  0.00001350  0.68990514  1
  Mg  Mg0_2  1  0.00000675  0.50001349  0.18990514  1
  Mg  Mg0_3  1  0.00000675  0.50001349  0.68990514  1
  Mg  Mg0_4  1  0.50000675  0.00001350  0.18990514  1
  Mg  Mg0_5  1  0.50000675  0.00001350  0.68990514  1
  Mg  Mg0_6  1  0.50000675  0.50001349  0.18990514  1
  Mg  Mg0_7  1  0.50000675  0.50001349  0.68990514  1
  Te  Te0_0  1  0.16671595  0.33343190  0.15800576  1
  Te  Te0_1  1  0.16671595  0.33343190  0.65800576  1
  Te  Te0_2  1  0.16671595  0.83343190  0.15800576  1
  Te  Te0_3  1  0.16671595  0.83343190  0.65800576  1
  Te  Te0_4  1  0.66671595  0.33343190  0.15800576  1
  Te  Te0_5  1  0.66671595  0.33343190  0.65800576  1
  Te  Te0_6  1  0.66671595  0.83343190  0.15800576  1
  Te  Te0_7  1  0.66671595  0.83343190  0.65800576  1
  Te  Te1_0  1  0.16676254  0.33352509  0.34902763  1
  Te  Te1_1  1  0.16676254  0.33352509  0.84902763  1
  Te  Te1_2  1  0.16676255  0.83352509  0.34902763  1
  Te  Te1_3  1  0.16676255  0.83352510  0.84902763  1
  Te  Te1_4  1  0.66676254  0.33352509  0.34902763  1
  Te  Te1_5  1  0.66676254  0.33352509  0.84902763  1
  Te  Te1_6  1  0.66676254  0.83352509  0.34902763  1
  Te  Te1_7  1  0.66676254  0.83352510  0.84902763  1
  Te  Te2_0  1  0.16663860  0.33327821  0.11748521  1
  Te  Te2_1  1  0.16663860  0.33327821  0.61748521  1
  Te  Te2_2  1  0.16663860  0.83327821  0.11748521  1
  Te  Te2_3  1  0.16663860  0.83327821  0.61748521  1
  Te  Te2_4  1  0.66663860  0.33327821  0.11748521  1
  Te  Te2_5  1  0.66663860  0.33327821  0.61748521  1
  Te  Te2_6  1  0.66663860  0.83327821  0.11748521  1
  Te  Te2_7  1  0.66663860  0.83327821  0.61748521  1
  Te  Te3_0  1  0.16667639  0.33335328  0.30847111  1
  Te  Te3_1  1  0.16667639  0.33335328  0.80847110  1
  Te  Te3_2  1  0.16667639  0.83335328  0.30847111  1
  Te  Te3_3  1  0.16667639  0.83335328  0.80847111  1
  Te  Te3_4  1  0.66667639  0.33335328  0.30847111  1
  Te  Te3_5  1  0.66667639  0.33335328  0.80847110  1
  Te  Te3_6  1  0.66667639  0.83335328  0.30847111  1
  Te  Te3_7  1  0.66667639  0.83335328  0.80847111  1
  Mo  Mo0_0  1  0.33334574  0.16669148  0.13763916  1
  Mo  Mo0_1  1  0.33334574  0.16669148  0.63763916  1
  Mo  Mo0_2  1  0.33334574  0.66669147  0.13763916  1
  Mo  Mo0_3  1  0.33334574  0.66669148  0.63763916  1
  Mo  Mo0_4  1  0.83334574  0.16669148  0.13763916  1
  Mo  Mo0_5  1  0.83334574  0.16669148  0.63763916  1
  Mo  Mo0_6  1  0.83334574  0.66669147  0.13763916  1
  Mo  Mo0_7  1  0.83334574  0.66669148  0.63763916  1
  W  W0_0  1  0.16660598  0.33321246  0.04685318  1
  W  W0_1  1  0.16660598  0.33321246  0.54685318  1
  W  W0_2  1  0.16660598  0.83321246  0.04685318  1
  W  W0_3  1  0.16660598  0.83321246  0.54685318  1
  W  W0_4  1  0.66660598  0.33321246  0.04685318  1
  W  W0_5  1  0.66660598  0.33321246  0.54685318  1
  W  W0_6  1  0.66660598  0.83321246  0.04685318  1
  W  W0_7  1  0.66660598  0.83321246  0.54685318  1
  W  W1_0  1  0.16665600  0.33331200  0.23940633  1
  W  W1_1  1  0.16665600  0.33331200  0.73940633  1
  W  W1_2  1  0.16665600  0.83331200  0.23940633  1
  W  W1_3  1  0.16665600  0.83331200  0.73940633  1
  W  W1_4  1  0.66665600  0.33331200  0.23940633  1
  W  W1_5  1  0.66665600  0.33331200  0.73940633  1
  W  W1_6  1  0.66665600  0.83331200  0.23940633  1
  W  W1_7  1  0.66665600  0.83331200  0.73940633  1
  W  W2_0  1  0.33338595  0.16677190  0.32874984  1
  W  W2_1  1  0.33338595  0.16677190  0.82874984  1
  W  W2_2  1  0.33338595  0.66677190  0.32874984  1
  W  W2_3  1  0.33338595  0.66677190  0.82874984  1
  W  W2_4  1  0.83338595  0.16677190  0.32874984  1
  W  W2_5  1  0.83338595  0.16677190  0.82874984  1
  W  W2_6  1  0.83338595  0.66677190  0.32874984  1
  W  W2_7  1  0.83338595  0.66677190  0.82874984  1
  Se  Se0_0  1  0.33324306  0.16648562  0.02902807  1
  Se  Se0_1  1  0.33324306  0.16648562  0.52902807  1
  Se  Se0_2  1  0.33324306  0.66648562  0.02902807  1
  Se  Se0_3  1  0.33324306  0.66648562  0.52902807  1
  Se  Se0_4  1  0.83324306  0.16648562  0.02902807  1
  Se  Se0_5  1  0.83324306  0.16648562  0.52902807  1
  Se  Se0_6  1  0.83324306  0.66648562  0.02902807  1
  Se  Se0_7  1  0.83324306  0.66648562  0.52902807  1
  Se  Se1_0  1  0.33329993  0.16659985  0.06467089  1
  Se  Se1_1  1  0.33329993  0.16659985  0.56467089  1
  Se  Se1_2  1  0.33329993  0.66659985  0.06467089  1
  Se  Se1_3  1  0.33329993  0.66659985  0.56467089  1
  Se  Se1_4  1  0.83329993  0.16659985  0.06467089  1
  Se  Se1_5  1  0.83329993  0.16659985  0.56467089  1
  Se  Se1_6  1  0.83329993  0.66659985  0.06467089  1
  Se  Se1_7  1  0.83329993  0.66659985  0.56467089  1
  S  S0_0  1  0.33330276  0.16660552  0.22315896  1
  S  S0_1  1  0.33330276  0.16660552  0.72315896  1
  S  S0_2  1  0.33330276  0.66660552  0.22315896  1
  S  S0_3  1  0.33330276  0.66660552  0.72315896  1
  S  S0_4  1  0.83330276  0.16660552  0.22315896  1
  S  S0_5  1  0.83330276  0.16660552  0.72315896  1
  S  S0_6  1  0.83330276  0.66660552  0.22315896  1
  S  S0_7  1  0.83330276  0.66660552  0.72315896  1
  S  S1_0  1  0.33336034  0.16672017  0.25554873  1
  S  S1_1  1  0.33336034  0.16672016  0.75554873  1
  S  S1_2  1  0.33336034  0.66672016  0.25554873  1
  S  S1_3  1  0.33336034  0.66672016  0.75554873  1
  S  S1_4  1  0.83336034  0.16672017  0.25554873  1
  S  S1_5  1  0.83336034  0.16672016  0.75554873  1
  S  S1_6  1  0.83336033  0.66672016  0.25554873  1
  S  S1_7  1  0.83336033  0.66672016  0.75554873  1
loop_
_geom_bond_atom_site_label_1
_geom_bond_atom_site_label_2
_geom_bond_distance
_geom_bond_site_symmetry_2
Mg0_0 Mg0_4 3.389272 1_455
Mg0_0 Mg0_4 3.389272 1_555
Mg0_0 Mg0_6 3.389375 1_555
Mg0_0 Mg0_6 3.389375 1_445
Mg0_0 Mg0_2 3.389375 1_555
Mg0_0 Mg0_2 3.389375 1_545
Mg0_0 Te0_6 3.555184 1_445
Mg0_0 Te0_2 3.555184 1_545
Mg0_0 Te0_0 3.556184 1_555
Mg0_1 Mg0_5 3.389272 1_455
Mg0_1 Mg0_5 3.389272 1_555
Mg0_1 Mg0_7 3.389375 1_555
Mg0_1 Mg0_7 3.389375 1_445
Mg0_1 Mg0_3 3.389375 1_555
Mg0_1 Mg0_3 3.389375 1_545
Mg0_1 Te0_7 3.555184 1_445
Mg0_1 Te0_3 3.555184 1_545
Mg0_1 Te0_1 3.556184 1_555
Mg0_2 Mg0_6 3.389272 1_455
Mg0_2 Mg0_6 3.389272 1_555
Mg0_2 Mg0_4 3.389375 1_455
Mg0_2 Mg0_4 3.389375 1_565
Mg0_2 Te0_4 3.555184 1_455
Mg0_2 Te0_0 3.555184 1_555
Mg0_2 Te0_2 3.556184 1_555
Mg0_3 Mg0_7 3.389272 1_455
Mg0_3 Mg0_7 3.389272 1_555
Mg0_3 Mg0_5 3.389375 1_455
Mg0_3 Mg0_5 3.389375 1_565
Mg0_3 Te0_5 3.555184 1_455
Mg0_3 Te0_1 3.555184 1_555
Mg0_3 Te0_3 3.556184 1_555
Mg0_4 Mg0_6 3.389375 1_555
Mg0_4 Mg0_6 3.389375 1_545
Mg0_4 Te0_2 3.555184 1_545
Mg0_4 Te0_6 3.555184 1_545
Mg0_4 Te0_4 3.556184 1_555
Mg0_5 Mg0_7 3.389375 1_555
Mg0_5 Mg0_7 3.389375 1_545
Mg0_5 Te0_3 3.555184 1_545
Mg0_5 Te0_7 3.555184 1_545
Mg0_5 Te0_5 3.556184 1_555
Mg0_6 Te0_0 3.555184 1_555
Mg0_6 Te0_4 3.555184 1_555
Mg0_6 Te0_6 3.556184 1_555
Mg0_7 Te0_1 3.555184 1_555
Mg0_7 Te0_5 3.555184 1_555
Mg0_7 Te0_7 3.556184 1_555
Te1_0 W2_2 2.718470 1_555
Te1_0 W2_4 2.718514 1_455
Te1_0 W2_0 2.718514 1_555
Te1_1 W2_3 2.718470 1_555
Te1_1 W2_5 2.718514 1_455
Te1_1 W2_1 2.718514 1_555
Te1_2 W2_0 2.718470 1_565
Te1_2 W2_6 2.718514 1_455
Te1_2 W2_2 2.718514 1_555
Te1_3 W2_1 2.718470 1_565
Te1_3 W2_7 2.718514 1_455
Te1_3 W2_3 2.718514 1_555
Te1_4 W2_6 2.718470 1_555
Te1_4 W2_0 2.718514 1_555
Te1_4 W2_4 2.718514 1_555
Te1_5 W2_7 2.718470 1_555
Te1_5 W2_1 2.718514 1_555
Te1_5 W2_5 2.718514 1_555
Te1_6 W2_4 2.718470 1_565
Te1_6 W2_2 2.718514 1_555
Te1_6 W2_6 2.718514 1_555
Te1_7 W2_5 2.718470 1_565
Te1_7 W2_3 2.718514 1_555
Te1_7 W2_7 2.718514 1_555
Te3_0 W2_4 2.718519 1_455
Te3_0 W2_0 2.718521 1_555
Te3_0 W2_2 2.718642 1_555
Te3_1 W2_5 2.718519 1_455
Te3_1 W2_1 2.718521 1_555
Te3_1 W2_3 2.718642 1_555
Te3_2 W2_6 2.718519 1_455
Te3_2 W2_2 2.718521 1_555
Te3_2 W2_0 2.718642 1_565
Te3_3 W2_7 2.718519 1_455
Te3_3 W2_3 2.718521 1_555
Te3_3 W2_1 2.718642 1_565
Te3_4 W2_0 2.718519 1_555
Te3_4 W2_4 2.718521 1_555
Te3_4 W2_6 2.718642 1_555
Te3_5 W2_1 2.718519 1_555
Te3_5 W2_5 2.718521 1_555
Te3_5 W2_7 2.718642 1_555
Te3_6 W2_2 2.718519 1_555
Te3_6 W2_6 2.718521 1_555
Te3_6 W2_4 2.718642 1_565
Te3_7 W2_3 2.718519 1_555
Te3_7 W2_7 2.718521 1_555
Te3_7 W2_5 2.718642 1_565
Mo0_0 Te2_4 2.710480 1_555
Mo0_0 Te2_0 2.710484 1_555
Mo0_0 Te2_2 2.710573 1_545
Mo0_0 Te0_4 2.724230 1_555
Mo0_0 Te0_0 2.724230 1_555
Mo0_0 Te0_2 2.724269 1_545
Mo0_1 Te2_5 2.710480 1_555
Mo0_1 Te2_1 2.710484 1_555
Mo0_1 Te2_3 2.710573 1_545
Mo0_1 Te0_5 2.724230 1_555
Mo0_1 Te0_1 2.724230 1_555
Mo0_1 Te0_3 2.724269 1_545
Mo0_2 Te2_6 2.710480 1_555
Mo0_2 Te2_2 2.710484 1_555
Mo0_2 Te2_0 2.710573 1_555
Mo0_2 Te0_6 2.724230 1_555
Mo0_2 Te0_2 2.724230 1_555
Mo0_2 Te0_0 2.724269 1_555
Mo0_3 Te2_7 2.710480 1_555
Mo0_3 Te2_3 2.710484 1_555
Mo0_3 Te2_1 2.710573 1_555
Mo0_3 Te0_7 2.724230 1_555
Mo0_3 Te0_3 2.724230 1_555
Mo0_3 Te0_1 2.724269 1_555
Mo0_4 Te2_0 2.710480 1_655
Mo0_4 Te2_4 2.710484 1_555
Mo0_4 Te2_6 2.710573 1_545
Mo0_4 Te0_0 2.724230 1_655
Mo0_4 Te0_4 2.724230 1_555
Mo0_4 Te0_6 2.724269 1_545
Mo0_5 Te2_1 2.710480 1_655
Mo0_5 Te2_5 2.710484 1_555
Mo0_5 Te2_7 2.710573 1_545
Mo0_5 Te0_1 2.724230 1_655
Mo0_5 Te0_5 2.724230 1_555
Mo0_5 Te0_7 2.724269 1_545
Mo0_6 Te2_2 2.710480 1_655
Mo0_6 Te2_6 2.710484 1_555
Mo0_6 Te2_4 2.710573 1_555
Mo0_6 Te0_2 2.724230 1_655
Mo0_6 Te0_6 2.724230 1_555
Mo0_6 Te0_4 2.724269 1_555
Mo0_7 Te2_3 2.710480 1_655
Mo0_7 Te2_7 2.710484 1_555
Mo0_7 Te2_5 2.710573 1_555
Mo0_7 Te0_3 2.724230 1_655
Mo0_7 Te0_7 2.724230 1_555
Mo0_7 Te0_5 2.724269 1_555
Se0_0 W0_4 2.565299 1_555
Se0_0 W0_0 2.565304 1_555
Se0_0 W0_2 2.565373 1_545
Se0_1 W0_5 2.565299 1_555
Se0_1 W0_1 2.565304 1_555
Se0_1 W0_3 2.565373 1_545
Se0_2 W0_6 2.565299 1_555
Se0_2 W0_2 2.565304 1_555
Se0_2 W0_0 2.565373 1_555
Se0_3 W0_7 2.565299 1_555
Se0_3 W0_3 2.565304 1_555
Se0_3 W0_1 2.565373 1_555
Se0_4 W0_0 2.565299 1_655
Se0_4 W0_4 2.565304 1_555
Se0_4 W0_6 2.565373 1_545
Se0_5 W0_1 2.565299 1_655
Se0_5 W0_5 2.565304 1_555
Se0_5 W0_7 2.565373 1_545
Se0_6 W0_2 2.565299 1_655
Se0_6 W0_6 2.565304 1_555
Se0_6 W0_4 2.565373 1_555
Se0_7 W0_3 2.565299 1_655
Se0_7 W0_7 2.565304 1_555
Se0_7 W0_5 2.565373 1_555
Se1_0 W0_2 2.564866 1_545
Se1_0 W0_4 2.564886 1_555
Se1_0 W0_0 2.564889 1_555
Se1_1 W0_3 2.564866 1_545
Se1_1 W0_5 2.564886 1_555
Se1_1 W0_1 2.564889 1_555
Se1_2 W0_0 2.564866 1_555
Se1_2 W0_6 2.564886 1_555
Se1_2 W0_2 2.564889 1_555
Se1_3 W0_1 2.564866 1_555
Se1_3 W0_7 2.564886 1_555
Se1_3 W0_3 2.564889 1_555
Se1_4 W0_6 2.564866 1_545
Se1_4 W0_0 2.564886 1_655
Se1_4 W0_4 2.564889 1_555
Se1_5 W0_7 2.564866 1_545
Se1_5 W0_1 2.564886 1_655
Se1_5 W0_5 2.564889 1_555
Se1_6 W0_4 2.564866 1_555
Se1_6 W0_2 2.564886 1_655
Se1_6 W0_6 2.564889 1_555
Se1_7 W0_5 2.564866 1_555
Se1_7 W0_3 2.564886 1_655
Se1_7 W0_7 2.564889 1_555
S0_0 W1_4 2.472862 1_555
S0_0 W1_0 2.472862 1_555
S0_0 W1_2 2.473038 1_545
S0_1 W1_5 2.472862 1_555
S0_1 W1_1 2.472862 1_555
S0_1 W1_3 2.473038 1_545
S0_2 W1_6 2.472862 1_555
S0_2 W1_2 2.472862 1_555
S0_2 W1_0 2.473038 1_555
S0_3 W1_7 2.472862 1_555
S0_3 W1_3 2.472862 1_555
S0_3 W1_1 2.473038 1_555
S0_4 W1_0 2.472862 1_655
S0_4 W1_4 2.472862 1_555
S0_4 W1_6 2.473038 1_545
S0_5 W1_1 2.472862 1_655
S0_5 W1_5 2.472862 1_555
S0_5 W1_7 2.473038 1_545
S0_6 W1_2 2.472862 1_655
S0_6 W1_6 2.472862 1_555
S0_6 W1_4 2.473038 1_555
S0_7 W1_3 2.472862 1_655
S0_7 W1_7 2.472862 1_555
S0_7 W1_5 2.473038 1_555
S1_0 W1_4 2.466904 1_555
S1_0 W1_0 2.466907 1_555
S1_0 W1_2 2.467070 1_545
S1_1 W1_5 2.466904 1_555
S1_1 W1_1 2.466907 1_555
S1_1 W1_3 2.467070 1_545
S1_2 W1_6 2.466904 1_555
S1_2 W1_2 2.466907 1_555
S1_2 W1_0 2.467070 1_555
S1_3 W1_7 2.466904 1_555
S1_3 W1_3 2.466907 1_555
S1_3 W1_1 2.467070 1_555
S1_4 W1_0 2.466904 1_655
S1_4 W1_4 2.466907 1_555
S1_4 W1_6 2.467070 1_545
S1_5 W1_1 2.466904 1_655
S1_5 W1_5 2.466907 1_555
S1_5 W1_7 2.467070 1_545
S1_6 W1_2 2.466904 1_655
S1_6 W1_6 2.466907 1_555
S1_6 W1_4 2.467070 1_555
S1_7 W1_3 2.466904 1_655
S1_7 W1_7 2.466907 1_555
S1_7 W1_5 2.467070 1_555
