# generated using pymatgen
data_Na14Ti2Zn6Si5S7O48
_symmetry_space_group_name_H-M   'P 1'
_cell_length_a   18.15707587
_cell_length_b   9.08989071
_cell_length_c   22.16885042
_cell_angle_alpha   89.96794564
_cell_angle_beta   89.94536322
_cell_angle_gamma   120.14728922
_symmetry_Int_Tables_number   1
_chemical_formula_structural   Na14Ti2Zn6Si5S7O48
_chemical_formula_sum   'Na42 Ti6 Zn18 Si15 S21 O144'
_cell_volume   3163.96285525
_cell_formula_units_Z   3
loop_
 _symmetry_equiv_pos_site_id
 _symmetry_equiv_pos_as_xyz
  1  'x, y, z'
loop_
 _atom_site_type_symbol
 _atom_site_label
 _atom_site_symmetry_multiplicity
 _atom_site_fract_x
 _atom_site_fract_y
 _atom_site_fract_z
 _atom_site_occupancy
  Na  Na0  1  0.81335246  0.00635973  0.24908691  1
  Na  Na1  1  0.68932533  0.36153404  0.24570365  1
  Na  Na2  1  0.49975564  0.63686709  0.24586956  1
  Na  Na3  1  0.31074839  0.61764525  0.74946512  1
  Na  Na4  1  -0.00000355  0.36453343  0.74328010  1
  Na  Na5  1  0.18241661  0.00237037  0.74350764  1
  Na  Na6  1  0.15282499  0.33023748  0.57585567  1
  Na  Na7  1  0.66950108  0.36531966  0.58427917  1
  Na  Na8  1  0.01372003  0.69040787  0.57221498  1
  Na  Na9  1  0.51996493  0.68295631  0.59217611  1
  Na  Na10  1  0.32425731  0.97831577  0.58476339  1
  Na  Na11  1  0.82738474  0.96526376  0.59254759  1
  Na  Na12  1  0.16399269  0.96714844  0.07853972  1
  Na  Na13  1  0.65922495  0.98179378  0.06997994  1
  Na  Na14  1  0.32232949  0.68664886  0.08698861  1
  Na  Na15  1  0.82642002  0.67309947  0.07990037  1
  Na  Na16  1  0.01889317  0.35724810  0.08724030  1
  Na  Na17  1  0.51310444  0.33510102  0.06831761  1
  Na  Na18  1  0.48378152  0.66740183  0.91872051  1
  Na  Na19  1  0.97730902  0.66140684  0.91299184  1
  Na  Na20  1  0.35436883  0.04386370  0.92088400  1
  Na  Na21  1  0.85099192  0.04466796  0.91090462  1
  Na  Na22  1  0.16657546  0.29056929  0.91332767  1
  Na  Na23  1  0.66252789  0.28965396  0.92412550  1
  Na  Na24  1  0.47814297  0.30033168  0.42568786  1
  Na  Na25  1  0.98475880  0.30268050  0.42352287  1
  Na  Na26  1  0.16038421  0.03166963  0.42850742  1
  Na  Na27  1  0.67048922  0.04835334  0.41974854  1
  Na  Na28  1  0.34766818  0.65629289  0.41784272  1
  Na  Na29  1  0.85522302  0.66315860  0.42396568  1
  Na  Na30  1  0.00266861  0.98695726  0.49863371  1
  Na  Na31  1  0.50506909  0.01103399  0.49962620  1
  Na  Na32  1  0.00387891  0.99864432  0.99322829  1
  Na  Na33  1  0.50253937  0.01780727  0.99218803  1
  Na  Na34  1  0.33934057  0.33346038  0.82898634  1
  Na  Na35  1  0.82649951  0.33195219  0.82440302  1
  Na  Na36  1  0.31747077  0.32052527  0.33030585  1
  Na  Na37  1  0.84170102  0.34573973  0.33080454  1
  Na  Na38  1  0.16841285  0.67198242  0.16128519  1
  Na  Na39  1  0.66784366  0.66173318  0.16370197  1
  Na  Na40  1  0.16161498  0.67243871  0.66678929  1
  Na  Na41  1  0.67180508  0.66768856  0.66296157  1
  Ti  Ti0  1  0.00620588  0.98228717  0.65134409  1
  Ti  Ti1  1  0.51033532  0.02704031  0.64535205  1
  Ti  Ti2  1  0.00960165  0.99494916  0.14478137  1
  Ti  Ti3  1  0.50539651  0.00983933  0.14668788  1
  Ti  Ti4  1  0.15959326  0.64318296  0.31968488  1
  Ti  Ti5  1  0.66078955  0.67737526  0.82036133  1
  Zn  Zn0  1  0.00873025  0.00590993  0.35448529  1
  Zn  Zn1  1  0.50562708  0.00558264  0.33655723  1
  Zn  Zn2  1  0.00703267  0.98874851  0.82488719  1
  Zn  Zn3  1  0.50813520  0.01115617  0.85363232  1
  Zn  Zn4  1  0.32744717  0.31370644  0.67835904  1
  Zn  Zn5  1  0.83034040  0.34955466  0.67995744  1
  Zn  Zn6  1  0.31621585  0.30843026  0.17175201  1
  Zn  Zn7  1  0.82840133  0.33934488  0.17785873  1
  Zn  Zn8  1  0.33126944  0.30630654  0.98977122  1
  Zn  Zn9  1  0.82415787  0.33628115  0.98876181  1
  Zn  Zn10  1  0.32416209  0.31583927  0.49200158  1
  Zn  Zn11  1  0.83329196  0.35515584  0.49583824  1
  Zn  Zn12  1  0.16561338  0.66594364  0.02335024  1
  Zn  Zn13  1  0.65916742  0.64887535  0.00884027  1
  Zn  Zn14  1  0.15788764  0.66726261  0.51036061  1
  Zn  Zn15  1  0.66661512  0.67213296  0.52581548  1
  Zn  Zn16  1  0.66505155  0.68115961  0.31430460  1
  Zn  Zn17  1  0.15688864  0.64850366  0.80833491  1
  Si  Si0  1  0.65126584  0.00321005  0.25100158  1
  Si  Si1  1  0.15178360  0.29628396  0.74972182  1
  Si  Si2  1  0.99413360  0.68427500  0.75390534  1
  Si  Si3  1  0.47647274  0.33326157  0.58217367  1
  Si  Si4  1  0.18174193  0.02102521  0.58405501  1
  Si  Si5  1  0.69055260  0.04964800  0.58314942  1
  Si  Si6  1  0.83703191  0.64431164  0.58258733  1
  Si  Si7  1  0.97568439  0.61892126  0.08224678  1
  Si  Si8  1  0.33730807  0.03357709  0.08446600  1
  Si  Si9  1  0.18730740  0.33473660  0.08103854  1
  Si  Si10  1  0.68248245  0.34179583  0.08560966  1
  Si  Si11  1  0.51384089  0.36680582  0.91681887  1
  Si  Si12  1  0.66924380  0.96734174  0.92279497  1
  Si  Si13  1  0.16876607  0.37133069  0.42265361  1
  Si  Si14  1  0.01395736  0.66198683  0.41655809  1
  S  S0  1  0.14923609  0.99469228  0.25125402  1
  S  S1  1  0.34984866  0.70205274  0.25190325  1
  S  S2  1  0.85546876  0.71522283  0.25192053  1
  S  S3  1  0.00414520  0.29223038  0.25192846  1
  S  S4  1  0.49858364  0.29513411  0.25096931  1
  S  S5  1  0.64730578  0.30436070  0.75229563  1
  S  S6  1  0.50447532  0.71594289  0.75221626  1
  S  S7  1  0.35823803  0.99905725  0.75175417  1
  S  S8  1  0.84784453  0.98848404  0.75284090  1
  S  S9  1  0.98265223  0.32602489  0.58490265  1
  S  S10  1  0.33944627  0.64387078  0.58564148  1
  S  S11  1  0.48168000  0.63730212  0.08852934  1
  S  S12  1  0.83888546  0.03346572  0.08709242  1
  S  S13  1  0.31158344  0.66472323  0.91543696  1
  S  S14  1  0.81232880  0.67277627  0.91524535  1
  S  S15  1  0.01726879  0.36718184  0.91800432  1
  S  S16  1  0.16654382  0.95715787  0.91589224  1
  S  S17  1  0.31538598  0.95517194  0.41136618  1
  S  S18  1  0.81269163  0.96171540  0.41472494  1
  S  S19  1  0.66252870  0.37488622  0.41193412  1
  S  S20  1  0.51737589  0.66850168  0.41534851  1
  O  O0  1  0.10712842  0.00596681  0.30627729  1
  O  O1  1  0.61295947  0.03343902  0.31340463  1
  O  O2  1  0.39874897  0.78835096  0.30812611  1
  O  O3  1  0.89911390  0.80567440  0.30724022  1
  O  O4  1  0.48820511  0.20121576  0.30811619  1
  O  O5  1  0.99715661  0.19328815  0.30683461  1
  O  O6  1  0.11169996  0.19345956  0.81314360  1
  O  O7  1  0.60477569  0.20921196  0.80730340  1
  O  O8  1  0.49722450  0.80009075  0.80734135  1
  O  O9  1  0.98099711  0.76076912  0.81672590  1
  O  O10  1  0.40258351  0.00003681  0.80736192  1
  O  O11  1  0.89868275  0.00477296  0.80860261  1
  O  O12  1  0.40607506  0.98947783  0.69751410  1
  O  O13  1  0.89259876  0.97596027  0.69838400  1
  O  O14  1  0.08473455  0.18281248  0.69417380  1
  O  O15  1  0.59220008  0.20684576  0.69753490  1
  O  O16  1  0.00394677  0.82152850  0.69847557  1
  O  O17  1  0.51264978  0.81872663  0.69698816  1
  O  O18  1  0.39598523  0.80660321  0.19800629  1
  O  O19  1  0.90230362  0.81985315  0.19748426  1
  O  O20  1  0.01197615  0.20560893  0.19667683  1
  O  O21  1  0.50283730  0.19438267  0.19893519  1
  O  O22  1  0.09515854  0.98352180  0.19654722  1
  O  O23  1  0.58307900  0.98489918  0.19561382  1
  O  O24  1  0.43294245  0.38012944  0.63629707  1
  O  O25  1  0.94100261  0.34184576  0.63927265  1
  O  O26  1  0.24032035  0.10013559  0.64340083  1
  O  O27  1  0.75590178  0.13446676  0.63771036  1
  O  O28  1  0.32771020  0.54171232  0.64002463  1
  O  O29  1  0.81187397  0.50735698  0.63525844  1
  O  O30  1  0.44025002  0.54023024  0.14336209  1
  O  O31  1  0.93369965  0.48711405  0.13738669  1
  O  O32  1  0.32030433  0.12287179  0.14087640  1
  O  O33  1  0.82711729  0.11048851  0.14179335  1
  O  O34  1  0.25051444  0.39400093  0.13824636  1
  O  O35  1  0.73868336  0.37610417  0.14589833  1
  O  O36  1  0.22132323  0.27689391  0.02218102  1
  O  O37  1  0.71477226  0.28259535  0.02641087  1
  O  O38  1  0.43268831  0.55556791  0.03304831  1
  O  O39  1  0.91659789  0.56076567  0.02105059  1
  O  O40  1  0.36752083  0.15189726  0.02311876  1
  O  O41  1  0.85288904  0.13809529  0.03240149  1
  O  O42  1  0.21599282  0.14248891  0.52404571  1
  O  O43  1  0.71990917  0.16298829  0.52013309  1
  O  O44  1  0.35397413  0.56859701  0.53054391  1
  O  O45  1  0.86592018  0.58523522  0.52053808  1
  O  O46  1  0.41874305  0.27757437  0.51993365  1
  O  O47  1  0.93391802  0.31298930  0.52890103  1
  O  O48  1  0.27126508  0.68437869  0.97046804  1
  O  O49  1  0.77420529  0.68208334  0.97330274  1
  O  O50  1  0.06921014  0.45346006  0.97165624  1
  O  O51  1  0.56885714  0.43836785  0.97781398  1
  O  O52  1  0.16425689  0.86507749  0.97159752  1
  O  O53  1  0.65873870  0.85351727  0.98208003  1
  O  O54  1  0.28024937  0.86647155  0.46933959  1
  O  O55  1  0.76803952  0.85400034  0.46735425  1
  O  O56  1  0.16058169  0.46647143  0.48176989  1
  O  O57  1  0.65876525  0.46249347  0.46693128  1
  O  O58  1  0.07019772  0.70361142  0.47699355  1
  O  O59  1  0.57081090  0.68707441  0.46813594  1
  O  O60  1  0.07738237  0.64916115  0.36064499  1
  O  O61  1  0.55694137  0.65402726  0.35813066  1
  O  O62  1  0.25972837  0.85333757  0.35998665  1
  O  O63  1  0.76525517  0.88165715  0.35752671  1
  O  O64  1  0.17613954  0.49832556  0.36245463  1
  O  O65  1  0.66554618  0.47010158  0.35611321  1
  O  O66  1  0.05866654  0.46193933  0.86169909  1
  O  O67  1  0.57707829  0.50645684  0.86168186  1
  O  O68  1  0.16957095  0.86777584  0.86098865  1
  O  O69  1  0.67698224  0.85535051  0.86316599  1
  O  O70  1  0.26233202  0.65286694  0.86024911  1
  O  O71  1  0.75716177  0.66396854  0.86354541  1
  O  O72  1  0.00237459  0.82688153  0.40768637  1
  O  O73  1  0.50641141  0.82199905  0.41426538  1
  O  O74  1  0.40259985  0.97602476  0.40628089  1
  O  O75  1  0.89951062  0.98181078  0.41324332  1
  O  O76  1  0.08192597  0.18734789  0.41579950  1
  O  O77  1  0.58270709  0.20143797  0.41289511  1
  O  O78  1  0.00547487  0.19205233  0.91671392  1
  O  O79  1  0.50212644  0.17834233  0.90856897  1
  O  O80  1  0.08903874  0.97537073  0.91731057  1
  O  O81  1  0.58271051  0.97874321  0.91561956  1
  O  O82  1  0.39961763  0.81751283  0.91336488  1
  O  O83  1  0.89752077  0.82780926  0.91227638  1
  O  O84  1  0.48552836  0.15632784  0.59566792  1
  O  O85  1  0.98896918  0.16789172  0.58651630  1
  O  O86  1  0.08597712  0.00366844  0.59245017  1
  O  O87  1  0.59213327  0.03268922  0.59654859  1
  O  O88  1  0.42005168  0.81795552  0.59099785  1
  O  O89  1  0.92035998  0.83668938  0.59545664  1
  O  O90  1  0.48741248  0.81056199  0.08983542  1
  O  O91  1  0.98595593  0.81545088  0.09716024  1
  O  O92  1  0.41996258  0.00489128  0.09772817  1
  O  O93  1  0.91896482  0.01938989  0.09223504  1
  O  O94  1  0.09081316  0.15400098  0.09556571  1
  O  O95  1  0.58505834  0.16664538  0.09527261  1
  O  O96  1  0.34855064  0.15067444  0.75023875  1
  O  O97  1  0.83956924  0.14092571  0.75066983  1
  O  O98  1  0.24747568  0.31839229  0.74349463  1
  O  O99  1  0.73009192  0.31635922  0.74724343  1
  O  O100  1  0.42746032  0.54703335  0.74878134  1
  O  O101  1  0.91725347  0.49065392  0.74403015  1
  O  O102  1  0.34584855  0.53541316  0.25015034  1
  O  O103  1  0.84635194  0.54456716  0.25118454  1
  O  O104  1  0.42901671  0.33204141  0.24596707  1
  O  O105  1  0.92740300  0.30751397  0.24875557  1
  O  O106  1  0.23298480  0.14905000  0.24664110  1
  O  O107  1  0.74713041  0.16889252  0.24312325  1
  O  O108  1  0.31914738  0.50891054  0.91790639  1
  O  O109  1  0.81795793  0.51533378  0.91144202  1
  O  O110  1  0.42399224  0.36768888  0.91548024  1
  O  O111  1  0.93203430  0.35461314  0.92083339  1
  O  O112  1  0.24508217  0.13011647  0.91456686  1
  O  O113  1  0.75657268  0.15353855  0.92030277  1
  O  O114  1  0.32122084  0.12379081  0.40869499  1
  O  O115  1  0.82046435  0.13165907  0.41821579  1
  O  O116  1  0.25619186  0.36047048  0.41932789  1
  O  O117  1  0.73925112  0.35604339  0.41089884  1
  O  O118  1  0.43218948  0.51205417  0.41884533  1
  O  O119  1  0.92459461  0.48144438  0.41476466  1
  O  O120  1  0.16289518  0.48219566  0.07442241  1
  O  O121  1  0.67000442  0.50705119  0.07882669  1
  O  O122  1  0.07427195  0.66683691  0.07666803  1
  O  O123  1  0.56942024  0.66593027  0.08650241  1
  O  O124  1  0.25458732  0.84442298  0.07808695  1
  O  O125  1  0.76491672  0.85969198  0.08183716  1
  O  O126  1  0.17103084  0.83164990  0.57760073  1
  O  O127  1  0.66489364  0.85087533  0.57751475  1
  O  O128  1  0.26587102  0.67004968  0.58025664  1
  O  O129  1  0.75577988  0.67326718  0.57597450  1
  O  O130  1  0.07002403  0.47742383  0.58299297  1
  O  O131  1  0.57530134  0.48403594  0.57658462  1
  O  O132  1  0.15501263  0.83758397  0.25034966  1
  O  O133  1  0.65329585  0.82319493  0.24894296  1
  O  O134  1  0.26367972  0.68421923  0.25343483  1
  O  O135  1  0.76811517  0.69667984  0.24851075  1
  O  O136  1  0.08340163  0.46628545  0.25430580  1
  O  O137  1  0.58244132  0.45945242  0.24968751  1
  O  O138  1  0.15857652  0.48342632  0.74787241  1
  O  O139  1  0.65289473  0.47291195  0.75112650  1
  O  O140  1  0.08763377  0.69569780  0.75001425  1
  O  O141  1  0.58357735  0.70081666  0.75506083  1
  O  O142  1  0.27259492  0.84167734  0.74834577  1
  O  O143  1  0.76206102  0.82943124  0.75586529  1
loop_
_geom_bond_atom_site_label_1
_geom_bond_atom_site_label_2
_geom_bond_distance
_geom_bond_site_symmetry_2
Na0 O107 2.330319 1_555
Na0 O105 2.467383 1_555
Na0 O135 2.505281 1_545
Na0 O133 2.521452 1_545
Na0 O33 2.524820 1_555
Na0 O63 2.612533 1_545
Na1 O35 2.364919 1_555
Na1 O107 2.453010 1_555
Na1 O103 2.479524 1_555
Na1 O137 2.510208 1_555
Na1 O135 2.637050 1_555
Na1 O65 2.753180 1_555
Na2 O104 2.398436 1_555
Na2 O133 2.429617 1_555
Na2 O102 2.465672 1_555
Na2 O30 2.481275 1_555
Na2 O61 2.671845 1_555
Na2 O137 2.700726 1_555
Na2 O23 2.953589 1_555
Na3 O98 2.366105 1_555
Na3 O138 2.395446 1_555
Na3 O142 2.458569 1_555
Na3 O100 2.503833 1_555
Na3 O28 2.582929 1_555
Na3 O70 2.680764 1_555
Na4 O101 2.302534 1_455
Na4 O25 2.507914 1_455
Na4 O138 2.518738 1_555
Na4 O97 2.587436 1_455
Na4 O140 2.608743 1_555
Na4 O66 2.805537 1_555
Na4 O14 2.971957 1_555
Na5 O26 2.423852 1_555
Na5 O140 2.435918 1_545
Na5 O98 2.497765 1_555
Na5 O96 2.618284 1_555
Na5 O142 2.688601 1_545
Na5 O68 2.835997 1_545
Na6 O56 2.392732 1_555
Na6 O130 2.468904 1_555
Na6 O85 2.583280 1_455
Na6 O86 2.607543 1_555
Na6 O128 2.719563 1_555
Na6 O42 2.740984 1_555
Na6 O14 2.920625 1_555
Na7 O129 2.432656 1_555
Na7 O131 2.444036 1_555
Na7 O29 2.506304 1_555
Na7 O87 2.630853 1_555
Na7 O57 2.785174 1_555
Na7 O43 2.816687 1_555
Na7 O15 2.882240 1_555
Na7 O84 2.907710 1_555
Na8 O58 2.322513 1_555
Na8 O126 2.477586 1_555
Na8 O86 2.506166 1_565
Na8 O130 2.615011 1_555
Na8 O45 2.618833 1_455
Na8 O89 2.677720 1_455
Na9 O127 2.307264 1_555
Na9 O131 2.494657 1_555
Na9 O24 2.579877 1_555
Na9 O88 2.652119 1_555
Na9 O17 2.665886 1_555
Na9 O87 2.765695 1_565
Na9 O59 2.894065 1_555
Na9 O44 2.982205 1_555
Na10 O126 2.412134 1_555
Na10 O128 2.449971 1_555
Na10 O84 2.548269 1_565
Na10 O26 2.632807 1_565
Na10 O54 2.722210 1_555
Na10 O46 2.777012 1_565
Na10 O88 2.777782 1_555
Na10 O12 2.884606 1_555
Na11 O129 2.325084 1_555
Na11 O89 2.490353 1_555
Na11 O85 2.566944 1_565
Na11 O13 2.608915 1_555
Na11 O127 2.611079 1_555
Na11 O27 2.656492 1_565
Na12 O122 2.375043 1_555
Na12 O124 2.406980 1_555
Na12 O52 2.547233 1_554
Na12 O94 2.656949 1_565
Na12 O36 2.760729 1_565
Na12 O32 2.818318 1_565
Na12 O91 2.835692 1_455
Na12 O22 2.934142 1_555
Na13 O53 2.269165 1_554
Na13 O123 2.516294 1_555
Na13 O37 2.579050 1_565
Na13 O125 2.669040 1_555
Na13 O95 2.687681 1_565
Na13 O90 2.732720 1_555
Na14 O124 2.319617 1_555
Na14 O92 2.533399 1_565
Na14 O120 2.551449 1_555
Na14 O34 2.564669 1_555
Na14 O90 2.620394 1_555
Na14 O48 2.741905 1_554
Na14 O18 2.753038 1_555
Na15 O125 2.455234 1_555
Na15 O121 2.457449 1_555
Na15 O91 2.539569 1_555
Na15 O49 2.563549 1_554
Na15 O39 2.665043 1_555
Na15 O93 2.737814 1_565
Na15 O35 2.763678 1_555
Na15 O19 2.938937 1_555
Na16 O120 2.285281 1_555
Na16 O122 2.478282 1_555
Na16 O31 2.618107 1_455
Na16 O93 2.671738 1_455
Na16 O50 2.712143 1_554
Na16 O94 2.752442 1_555
Na16 O20 2.761047 1_555
Na16 O41 2.917189 1_455
Na17 O51 2.229559 1_554
Na17 O121 2.478363 1_555
Na17 O40 2.519918 1_555
Na17 O95 2.533486 1_555
Na17 O123 2.676725 1_555
Na17 O92 2.681705 1_555
Na18 O110 2.373912 1_555
Na18 O81 2.476675 1_555
Na18 O82 2.511147 1_555
Na18 O108 2.585736 1_555
Na18 O8 2.703854 1_555
Na18 O38 2.713516 1_556
Na19 O9 2.304662 1_555
Na19 O111 2.485852 1_555
Na19 O109 2.505408 1_555
Na19 O80 2.540614 1_655
Na19 O83 2.566713 1_555
Na19 O39 2.601966 1_556
Na20 O79 2.338929 1_555
Na20 O40 2.434346 1_556
Na20 O112 2.476885 1_555
Na20 O110 2.557052 1_555
Na20 O82 2.575689 1_545
Na20 O10 2.757875 1_555
Na21 O113 2.380238 1_555
Na21 O78 2.430130 1_655
Na21 O111 2.447127 1_555
Na21 O83 2.504618 1_545
Na21 O11 2.517415 1_555
Na21 O41 2.819646 1_556
Na21 O69 2.934455 1_545
Na22 O6 2.414048 1_555
Na22 O108 2.470190 1_555
Na22 O80 2.479239 1_545
Na22 O112 2.499637 1_555
Na22 O78 2.594659 1_555
Na22 O36 2.637286 1_556
Na23 O81 2.451547 1_545
Na23 O37 2.472008 1_556
Na23 O109 2.536648 1_555
Na23 O113 2.564340 1_555
Na23 O79 2.582106 1_555
Na23 O7 2.752909 1_555
Na23 O51 2.905840 1_555
Na24 O46 2.311363 1_555
Na24 O118 2.456804 1_555
Na24 O77 2.491316 1_555
Na24 O114 2.499078 1_555
Na24 O74 2.588005 1_545
Na24 O4 2.793854 1_555
Na25 O119 2.377928 1_555
Na25 O76 2.469510 1_655
Na25 O47 2.530093 1_555
Na25 O75 2.534068 1_545
Na25 O115 2.583070 1_555
Na25 O5 2.820958 1_555
Na26 O42 2.346243 1_555
Na26 O76 2.477191 1_555
Na26 O72 2.558994 1_545
Na26 O116 2.603187 1_555
Na26 O114 2.638798 1_555
Na26 O58 2.795974 1_545
Na26 O0 2.847961 1_555
Na27 O43 2.431184 1_555
Na27 O117 2.431297 1_555
Na27 O115 2.432790 1_555
Na27 O1 2.555432 1_555
Na27 O77 2.593805 1_555
Na27 O73 2.639630 1_545
Na28 O116 2.346095 1_555
Na28 O118 2.468966 1_555
Na28 O73 2.494281 1_555
Na28 O74 2.567928 1_555
Na28 O44 2.642126 1_555
Na28 O2 2.662957 1_555
Na29 O45 2.293506 1_555
Na29 O72 2.342512 1_655
Na29 O117 2.531546 1_555
Na29 O119 2.538929 1_555
Na29 O75 2.598508 1_555
Na29 O3 2.822174 1_555
Na30 O76 2.473720 1_565
Na30 O72 2.485521 1_555
Na30 O86 2.532250 1_565
Na30 O89 2.578110 1_455
Na30 O85 2.641232 1_465
Na30 O75 2.648173 1_455
Na31 O77 2.493998 1_555
Na31 O73 2.565109 1_545
Na31 O88 2.614383 1_545
Na31 O87 2.617039 1_555
Na31 O84 2.622163 1_555
Na31 O74 2.694159 1_545
Na32 O80 2.364779 1_555
Na32 O78 2.431917 1_565
Na32 O83 2.521694 1_455
Na32 O94 2.721074 1_566
Na32 O93 2.741562 1_466
Na32 O91 2.763591 1_456
Na33 O79 2.360888 1_555
Na33 O81 2.375187 1_545
Na33 O82 2.540236 1_545
Na33 O95 2.696597 1_556
Na33 O92 2.748135 1_556
Na33 O90 2.790148 1_546
Na34 O110 2.379472 1_555
Na34 O96 2.473450 1_555
Na34 O98 2.483909 1_555
Na34 O100 2.522112 1_555
Na34 O112 2.599503 1_555
Na34 O108 2.674550 1_555
Na35 O101 2.361126 1_555
Na35 O99 2.401454 1_555
Na35 O97 2.481858 1_555
Na35 O113 2.585482 1_555
Na35 O109 2.605485 1_555
Na35 O111 2.809997 1_555
Na36 O116 2.380546 1_555
Na36 O106 2.414497 1_555
Na36 O102 2.494375 1_555
Na36 O114 2.518259 1_555
Na36 O104 2.718152 1_555
Na36 O118 2.755262 1_555
Na37 O119 2.322594 1_555
Na37 O103 2.496378 1_555
Na37 O105 2.527666 1_555
Na37 O107 2.558954 1_555
Na37 O117 2.605900 1_555
Na37 O115 2.632724 1_555
Na38 O124 2.415529 1_555
Na38 O122 2.523639 1_555
Na38 O120 2.554359 1_555
Na38 O132 2.567859 1_555
Na38 O134 2.644134 1_555
Na38 O136 2.687335 1_555
Na39 O121 2.361587 1_555
Na39 O133 2.487233 1_555
Na39 O123 2.489646 1_555
Na39 O135 2.525219 1_555
Na39 O125 2.538261 1_555
Na39 O137 2.558425 1_555
Na40 O140 2.352469 1_555
Na40 O126 2.404295 1_555
Na40 O138 2.467213 1_555
Na40 O130 2.531283 1_555
Na40 O142 2.567555 1_555
Na40 O128 2.701530 1_555
Na41 O129 2.441875 1_555
Na41 O139 2.541047 1_555
Na41 O127 2.565832 1_555
Na41 O131 2.568212 1_555
Na41 O143 2.584322 1_555
Na41 O141 2.702707 1_555
O0 S0 1.469703 1_545
O0 Zn0 2.080771 1_555
O1 Si0 1.632063 1_555
O1 Zn1 1.904686 1_555
O2 S1 1.503597 1_555
O2 Zn1 2.053537 1_565
O3 S2 1.468510 1_555
O3 Zn0 2.176820 1_665
O4 S4 1.485280 1_555
O4 Zn1 2.055250 1_555
O5 S3 1.480005 1_655
O5 Zn0 2.102151 1_655
O6 Si1 1.641156 1_555
O6 Zn2 1.894332 1_545
O7 S5 1.468880 1_555
O7 Zn3 2.048507 1_555
O8 S6 1.482469 1_555
O8 Zn3 2.096203 1_565
O9 Si2 1.626931 1_555
O9 Zn2 1.888716 1_655
O10 S7 1.470647 1_545
O10 Zn3 2.131832 1_555
O11 S8 1.505726 1_545
O11 Zn2 2.076299 1_645
O12 S7 1.510619 1_555
O12 Ti1 2.093705 1_565
O13 S8 1.490615 1_555
O13 Ti0 2.285276 1_655
O14 Si1 1.674935 1_555
O14 Ti0 1.910755 1_545
O15 S5 1.540537 1_555
O15 Ti1 1.945297 1_555
O16 Si2 1.694953 1_455
O16 Ti0 1.779532 1_555
O17 S6 1.501011 1_555
O17 Ti1 2.230528 1_565
O18 S1 1.493221 1_555
O18 Ti3 2.227261 1_565
O19 S2 1.506128 1_555
O19 Ti2 2.138415 1_655
O20 S3 1.501226 1_555
O20 Ti2 2.216258 1_545
O21 S4 1.499132 1_555
O21 Ti3 2.058649 1_555
O22 S0 1.532167 1_555
O22 Ti2 1.976448 1_555
O23 Si0 1.692444 1_565
O23 Ti3 1.881787 1_565
O24 Si3 1.607120 1_555
O24 Zn4 1.933240 1_555
O25 S9 1.467332 1_555
O25 Zn5 2.234666 1_555
O26 Si4 1.617015 1_555
O26 Zn4 1.947109 1_555
O27 Si5 1.596947 1_555
O27 Zn5 1.968921 1_555
O28 S10 1.469939 1_555
O28 Zn4 2.237358 1_555
O29 Si6 1.596255 1_555
O29 Zn5 1.906308 1_555
O30 S11 1.467116 1_555
O30 Zn6 2.266518 1_555
O31 Si7 1.609352 1_555
O31 Zn7 1.918454 1_555
O32 Si8 1.603165 1_555
O32 Zn6 1.856330 1_555
O33 S12 1.468705 1_555
O33 Zn7 2.218227 1_555
O34 Si9 1.611915 1_555
O34 Zn6 1.874283 1_555
O35 Si10 1.615021 1_555
O35 Zn7 1.953465 1_555
O36 Si9 1.638853 1_555
O36 Zn8 2.008451 1_554
O37 Si10 1.634579 1_555
O37 Zn9 1.975422 1_554
O38 S11 1.481664 1_555
O38 Zn8 2.293478 1_554
O39 Si7 1.644642 1_555
O39 Zn9 2.014226 1_554
O40 Si8 1.646687 1_555
O40 Zn8 1.969138 1_554
O41 S12 1.481354 1_555
O41 Zn9 2.323021 1_554
O42 Si4 1.637884 1_555
O42 Zn10 1.931979 1_555
O43 Si5 1.656055 1_555
O43 Zn11 1.991056 1_555
O44 S10 1.487046 1_555
O44 Zn10 2.248477 1_555
O45 Si6 1.654701 1_555
O45 Zn11 1.944767 1_555
O46 Si3 1.652079 1_555
O46 Zn10 2.013790 1_555
O47 S9 1.495086 1_555
O47 Zn11 2.174397 1_555
O48 S13 1.478546 1_555
O48 Zn12 2.180604 1_556
O49 S14 1.483272 1_555
O49 Zn13 2.106646 1_556
O50 S15 1.476292 1_555
O50 Zn12 2.172134 1_556
O51 Si11 1.612545 1_555
O51 Zn13 1.917124 1_556
O52 S16 1.480257 1_555
O52 Zn12 2.153112 1_556
O53 Si12 1.622958 1_555
O53 Zn13 1.955904 1_556
O54 S17 1.479679 1_555
O54 Zn14 2.235028 1_555
O55 S18 1.475404 1_555
O55 Zn15 2.176941 1_555
O56 Si13 1.617867 1_555
O56 Zn14 1.956089 1_555
O57 S19 1.476794 1_555
O57 Zn15 2.255218 1_555
O58 Si14 1.611223 1_555
O58 Zn14 1.929197 1_555
O59 S20 1.475517 1_555
O59 Zn15 2.218286 1_555
O60 Si14 1.734512 1_555
O60 Ti4 1.770484 1_555
O61 S20 1.495247 1_555
O61 Zn16 2.089934 1_555
O62 S17 1.496415 1_555
O62 Ti4 2.066273 1_555
O63 S18 1.500945 1_555
O63 Zn16 2.055364 1_555
O64 Si13 1.724586 1_555
O64 Ti4 1.766226 1_555
O65 S19 1.494824 1_555
O65 Zn16 2.134264 1_555
O66 S15 1.487161 1_555
O66 Zn17 2.100454 1_555
O67 Si11 1.719133 1_555
O67 Ti5 1.785198 1_555
O68 S16 1.480007 1_555
O68 Zn17 2.220437 1_555
O69 Si12 1.717061 1_555
O69 Ti5 1.768784 1_555
O70 S13 1.487811 1_555
O70 Zn17 2.218006 1_555
O71 S14 1.498368 1_555
O71 Ti5 2.051961 1_555
O72 Si14 1.626627 1_555
O72 Zn0 1.965081 1_565
O73 S20 1.505318 1_555
O73 Zn1 2.402778 1_565
O74 S17 1.501467 1_555
O74 Zn1 2.334513 1_565
O75 S18 1.493345 1_555
O75 Zn0 2.288203 1_665
O76 Si13 1.630396 1_555
O76 Zn0 2.034267 1_555
O77 S19 1.513751 1_555
O77 Zn1 2.344644 1_555
O78 S15 1.496161 1_555
O79 Si11 1.627227 1_555
O79 Zn3 1.993238 1_555
O80 S16 1.497574 1_555
O80 Zn2 2.572424 1_555
O81 Si12 1.633617 1_555
O81 Zn3 2.052442 1_565
O82 S13 1.501978 1_555
O82 Zn3 2.289736 1_565
O83 S14 1.480920 1_555
O84 Si3 1.722892 1_555
O84 Ti1 1.824379 1_555
O85 S9 1.498714 1_555
O85 Ti0 2.353353 1_645
O86 Si4 1.675345 1_555
O86 Ti0 1.885111 1_545
O87 Si5 1.740009 1_555
O87 Ti1 1.816399 1_555
O88 S10 1.527879 1_555
O88 Ti1 2.151335 1_565
O89 Si6 1.665029 1_555
O89 Ti0 1.910394 1_655
O90 S11 1.525590 1_555
O90 Ti3 2.094167 1_565
O91 Si7 1.732500 1_555
O91 Ti2 1.805599 1_655
O92 Si8 1.673483 1_555
O92 Ti3 1.876053 1_555
O93 S12 1.526653 1_555
O93 Ti2 2.117844 1_645
O94 Si9 1.726138 1_555
O94 Ti2 1.819006 1_545
O95 Si10 1.697011 1_555
O95 Ti3 1.829523 1_555
O96 S7 1.474758 1_545
O96 Zn4 2.334756 1_555
O97 S8 1.467674 1_545
O97 Zn5 2.529475 1_555
O98 Si1 1.651393 1_555
O98 Zn4 2.062410 1_555
O99 S5 1.455646 1_555
O99 Zn5 2.252091 1_555
O100 S6 1.470496 1_555
O100 Zn4 2.524627 1_555
O101 Si2 1.620916 1_555
O101 Zn5 2.031315 1_555
O102 S1 1.480127 1_555
O102 Zn6 2.541235 1_555
O103 S2 1.475169 1_555
O103 Zn7 2.371124 1_555
O104 S4 1.464998 1_555
O104 Zn6 2.552076 1_555
O105 S3 1.469854 1_655
O105 Zn7 2.512482 1_555
O106 S0 1.465576 1_545
O106 Zn6 2.220893 1_555
O107 Si0 1.641473 1_555
O107 Zn7 2.090067 1_555
O108 S13 1.491017 1_555
O108 Zn8 2.526423 1_555
O109 S14 1.487530 1_555
O109 Zn9 2.404380 1_555
O110 Si11 1.635732 1_555
O110 Zn8 2.215471 1_555
O111 S15 1.494754 1_655
O111 Zn9 2.407970 1_555
O112 S16 1.501359 1_545
O112 Zn8 2.298688 1_555
O113 Si12 1.638892 1_545
O113 Zn9 2.127755 1_555
O114 S17 1.483497 1_545
O114 Zn10 2.524120 1_555
O115 S18 1.481010 1_545
O115 Zn11 2.583029 1_555
O116 Si13 1.640791 1_555
O116 Zn10 2.188442 1_555
O117 S19 1.486631 1_555
O117 Zn11 2.545843 1_555
O118 S20 1.486945 1_555
O118 Zn10 2.476971 1_555
O119 Si14 1.628829 1_655
O119 Zn11 2.318804 1_555
O120 Si9 1.615953 1_555
O120 Zn12 1.997260 1_555
O121 Si10 1.634646 1_555
O121 Zn13 2.088305 1_555
O122 Si7 1.620404 1_455
O122 Zn12 2.039013 1_555
O123 S11 1.480257 1_555
O123 Zn13 2.427413 1_555
O124 Si8 1.624477 1_565
O124 Zn12 2.021810 1_555
O125 S12 1.477178 1_565
O125 Zn13 2.508242 1_555
O126 Si4 1.638772 1_565
O126 Zn14 2.038813 1_555
O127 Si5 1.628527 1_565
O127 Zn15 2.001846 1_555
O128 S10 1.474829 1_555
O128 Zn14 2.490337 1_555
O129 Si6 1.630238 1_555
O129 Zn15 1.960696 1_555
O130 S9 1.489732 1_455
O130 Zn14 2.311348 1_555
O131 Si3 1.625675 1_555
O131 Zn15 2.021360 1_555
O132 S0 1.483693 1_555
O132 Ti4 2.374227 1_555
O133 Si0 1.655790 1_565
O133 Zn16 2.021718 1_555
O134 S1 1.490123 1_555
O134 Ti4 2.270225 1_555
O135 S2 1.510465 1_555
O135 Zn16 2.319185 1_555
O136 S3 1.513328 1_555
O136 Ti4 2.090973 1_555
O137 S4 1.505199 1_555
O137 Zn16 2.309616 1_555
O138 Si1 1.643111 1_555
O138 Zn17 2.024238 1_555
O139 S5 1.483954 1_555
O139 Ti5 2.359353 1_555
O140 Si2 1.650159 1_455
O140 Zn17 1.995286 1_555
O141 S6 1.511374 1_555
O141 Ti5 2.100023 1_555
O142 S7 1.495399 1_555
O142 Zn17 2.356323 1_555
O143 S8 1.502855 1_555
O143 Ti5 2.185369 1_555
