# generated using pymatgen
data_CsBa2MgNb3O10
_symmetry_space_group_name_H-M   'P 1'
_cell_length_a   4.16345750
_cell_length_b   4.22861835
_cell_length_c   15.43973171
_cell_angle_alpha   90.00000000
_cell_angle_beta   90.00000000
_cell_angle_gamma   90.00000000
_symmetry_Int_Tables_number   1
_chemical_formula_structural   CsBa2MgNb3O10
_chemical_formula_sum   'Cs1 Ba2 Mg1 Nb3 O10'
_cell_volume   271.82686436
_cell_formula_units_Z   1
loop_
 _symmetry_equiv_pos_site_id
 _symmetry_equiv_pos_as_xyz
  1  'x, y, z'
loop_
 _atom_site_type_symbol
 _atom_site_label
 _atom_site_symmetry_multiplicity
 _atom_site_fract_x
 _atom_site_fract_y
 _atom_site_fract_z
 _atom_site_occupancy
  Cs  Cs0  1  0.50000000  0.73272227  0.50000000  1
  Ba  Ba0  1  0.50000000  0.50005463  0.86253991  1
  Ba  Ba1  1  0.50000000  0.50005463  0.13746009  1
  Mg  Mg0  1  0.00000000  0.21150603  0.50000000  1
  Nb  Nb0  1  0.00000000  0.01634399  0.27056186  1
  Nb  Nb1  1  0.00000000  0.01634399  0.72943814  1
  Nb  Nb2  1  0.00000000  0.99592610  0.00000000  1
  O  O0  1  0.00000000  0.97707414  0.39348357  1
  O  O1  1  0.50000000  0.99517438  0.25909233  1
  O  O2  1  0.50000000  0.99517438  0.74090767  1
  O  O3  1  0.00000000  0.47327347  0.74155988  1
  O  O4  1  0.00000000  0.97410319  0.13040338  1
  O  O5  1  0.00000000  0.47327347  0.25844012  1
  O  O6  1  0.00000000  0.97707414  0.60651643  1
  O  O7  1  0.00000000  0.97410319  0.86959662  1
  O  O8  1  0.00000000  0.48099616  0.00000000  1
  O  O9  1  0.50000000  0.99013484  0.00000000  1
loop_
_geom_bond_atom_site_label_1
_geom_bond_atom_site_label_2
_geom_bond_distance
_geom_bond_site_symmetry_2
Cs0 O0 2.847087 1_655
Cs0 O0 2.847087 1_555
Cs0 O6 2.847087 1_655
Cs0 O6 2.847087 1_555
Cs0 Mg0 2.903890 1_665
Cs0 Mg0 2.903890 1_565
Cs0 Mg0 3.031719 1_555
Cs0 Mg0 3.031719 1_655
Ba0 O3 2.799190 1_655
Ba0 O3 2.799190 1_555
Ba0 O2 2.812514 1_555
Ba0 O2 2.843372 1_545
Ba0 O7 2.892018 1_555
Ba0 O7 2.892018 1_655
Ba0 O9 2.966318 1_556
Ba0 O8 2.973961 1_556
Ba0 O8 2.973961 1_656
Ba0 O9 3.025524 1_546
Ba0 O7 3.048254 1_545
Ba0 O7 3.048254 1_645
Ba1 O5 2.799190 1_555
Ba1 O5 2.799190 1_655
Ba1 O1 2.812514 1_555
Ba1 O1 2.843372 1_545
Ba1 O4 2.892018 1_655
Ba1 O4 2.892018 1_555
Ba1 O9 2.966318 1_555
Ba1 O8 2.973961 1_555
Ba1 O8 2.973961 1_655
Ba1 O9 3.025524 1_545
Ba1 O4 3.048254 1_645
Ba1 O4 3.048254 1_545
Mg0 O6 1.920256 1_545
Mg0 O0 1.920256 1_545
Nb0 O0 1.905129 1_545
Nb0 O5 1.941223 1_555
Nb0 O1 2.091164 1_545
Nb0 O1 2.091164 1_445
Nb0 O4 2.171369 1_545
Nb0 O5 2.304052 1_545
Nb1 O6 1.905129 1_545
Nb1 O3 1.941223 1_555
Nb1 O2 2.091164 1_445
Nb1 O2 2.091164 1_545
Nb1 O7 2.171369 1_545
Nb1 O3 2.304052 1_545
Nb2 O7 2.015507 1_554
Nb2 O4 2.015507 1_555
Nb2 O8 2.051176 1_565
Nb2 O9 2.081873 1_555
Nb2 O9 2.081873 1_455
Nb2 O8 2.177442 1_555
