# generated using pymatgen
data_EuAl2
_symmetry_space_group_name_H-M   'P 1'
_cell_length_a   5.69521693
_cell_length_b   5.69521019
_cell_length_c   5.69507122
_cell_angle_alpha   60.00092584
_cell_angle_beta   60.00096546
_cell_angle_gamma   59.99925951
_symmetry_Int_Tables_number   1
_chemical_formula_structural   EuAl2
_chemical_formula_sum   'Eu2 Al4'
_cell_volume   130.61948469
_cell_formula_units_Z   2
loop_
 _symmetry_equiv_pos_site_id
 _symmetry_equiv_pos_as_xyz
  1  'x, y, z'
loop_
 _atom_site_type_symbol
 _atom_site_label
 _atom_site_symmetry_multiplicity
 _atom_site_fract_x
 _atom_site_fract_y
 _atom_site_fract_z
 _atom_site_occupancy
  Eu  Eu0  1  0.87500932  0.87500699  0.87499162  1
  Eu  Eu1  1  0.12499073  0.12499307  0.12500844  1
  Al  Al0  1  0.49999981  0.49999980  0.49999980  1
  Al  Al1  1  0.49999978  0.49999978  0.00000158  1
  Al  Al2  1  0.00000158  0.49999978  0.49999978  1
  Al  Al3  1  0.49999978  0.00000158  0.49999978  1
loop_
_geom_bond_atom_site_label_1
_geom_bond_atom_site_label_2
_geom_bond_distance
_geom_bond_site_symmetry_2
Eu0 Eu1 3.487480 1_666
Eu0 Eu1 3.487483 1_665
Eu0 Eu1 3.487651 1_656
Eu0 Eu1 3.487678 1_566
Al0 Al1 2.847526 1_555
Al0 Al1 2.847546 1_556
Al0 Al3 2.847595 1_555
Al0 Al2 2.847598 1_555
Al0 Al3 2.847615 1_565
Al0 Al2 2.847618 1_655
Al0 Eu1 3.339054 1_655
Al0 Eu0 3.339056 1_455
Al0 Eu1 3.339063 1_565
Al0 Eu0 3.339064 1_545
Al0 Eu1 3.339217 1_556
Al0 Eu0 3.339218 1_554
Al1 Al3 2.847600 1_555
Al1 Al2 2.847603 1_555
Al1 Al3 2.847620 1_564
Al1 Al2 2.847624 1_654
Al1 Eu1 3.339052 1_655
Al1 Eu0 3.339057 1_454
Al1 Eu1 3.339060 1_565
Al1 Eu0 3.339065 1_544
Al1 Eu0 3.339208 1_554
Al1 Eu1 3.339211 1_555
Al2 Al3 2.847565 1_555
Al2 Al3 2.847585 1_465
Al2 Eu0 3.339065 1_455
Al2 Eu1 3.339067 1_555
Al2 Eu1 3.339071 1_556
Al2 Eu0 3.339076 1_454
Al2 Eu1 3.339101 1_565
Al2 Eu0 3.339106 1_445
Al3 Eu0 3.339072 1_545
Al3 Eu1 3.339075 1_555
Al3 Eu1 3.339078 1_556
Al3 Eu0 3.339083 1_544
Al3 Eu1 3.339100 1_655
Al3 Eu0 3.339105 1_445
