# generated using pymatgen
data_TmAsS
_symmetry_space_group_name_H-M   'P 1'
_cell_length_a   3.78984500
_cell_length_b   3.80088100
_cell_length_c   8.41531700
_cell_angle_alpha   90.00000000
_cell_angle_beta   90.00000000
_cell_angle_gamma   90.00000000
_symmetry_Int_Tables_number   1
_chemical_formula_structural   TmAsS
_chemical_formula_sum   'Tm2 As2 S2'
_cell_volume   121.22053632
_cell_formula_units_Z   2
loop_
 _symmetry_equiv_pos_site_id
 _symmetry_equiv_pos_as_xyz
  1  'x, y, z'
loop_
 _atom_site_type_symbol
 _atom_site_label
 _atom_site_symmetry_multiplicity
 _atom_site_fract_x
 _atom_site_fract_y
 _atom_site_fract_z
 _atom_site_occupancy
  Tm  Tm0  1  0.25000000  0.25000000  0.70838800  1
  Tm  Tm1  1  0.75000000  0.75000000  0.29161200  1
  As  As0  1  0.75000000  0.25000000  0.00285200  1
  As  As1  1  0.25000000  0.75000000  0.99714800  1
  S  S0  1  0.25000000  0.25000000  0.37482200  1
  S  S1  1  0.75000000  0.75000000  0.62517800  1
loop_
_geom_bond_atom_site_label_1
_geom_bond_atom_site_label_2
_geom_bond_distance
_geom_bond_site_symmetry_2
As0 As1 2.684159 1_554
As0 As1 2.684159 1_654
As0 As1 2.684159 1_544
As0 As1 2.684159 1_644
As0 Tm1 3.084900 1_545
As0 Tm1 3.084900 1_555
As0 Tm0 3.119496 1_654
As0 Tm0 3.119496 1_554
As1 Tm0 3.084900 1_555
As1 Tm0 3.084900 1_565
As1 Tm1 3.119496 1_456
As1 Tm1 3.119496 1_556
S0 Tm1 2.773579 1_555
S0 Tm1 2.773579 1_545
S0 Tm1 2.773579 1_455
S0 Tm1 2.773579 1_445
S0 Tm0 2.807064 1_555
S1 Tm0 2.773579 1_565
S1 Tm0 2.773579 1_555
S1 Tm0 2.773579 1_655
S1 Tm0 2.773579 1_665
S1 Tm1 2.807064 1_555
