# generated using pymatgen
data_MgZn(CoO2)4
_symmetry_space_group_name_H-M   'P 1'
_cell_length_a   3.03852787
_cell_length_b   7.78892693
_cell_length_c   8.16304689
_cell_angle_alpha   60.79878323
_cell_angle_beta   70.75075253
_cell_angle_gamma   81.08995582
_symmetry_Int_Tables_number   1
_chemical_formula_structural   MgZn(CoO2)4
_chemical_formula_sum   'Mg1 Zn1 Co4 O8'
_cell_volume   159.20879380
_cell_formula_units_Z   1
loop_
 _symmetry_equiv_pos_site_id
 _symmetry_equiv_pos_as_xyz
  1  'x, y, z'
loop_
 _atom_site_type_symbol
 _atom_site_label
 _atom_site_symmetry_multiplicity
 _atom_site_fract_x
 _atom_site_fract_y
 _atom_site_fract_z
 _atom_site_occupancy
  Mg  Mg0  1  0.15407500  0.33693800  0.63795400  1
  Zn  Zn0  1  0.33112300  0.04604200  0.11955200  1
  Co  Co0  1  0.92868900  0.18246300  0.40111500  1
  Co  Co1  1  0.94864400  0.63347200  0.17008000  1
  Co  Co2  1  0.75856000  0.43755200  0.92947500  1
  Co  Co3  1  0.40999100  0.79983400  0.60502300  1
  O  O0  1  0.94339900  0.60641900  0.66497100  1
  O  O1  1  0.48465800  0.27297100  0.85912400  1
  O  O2  1  0.41999500  0.78782800  0.13353200  1
  O  O3  1  0.80615200  0.42267400  0.42784500  1
  O  O4  1  0.29522800  0.07394500  0.59574400  1
  O  O5  1  0.60379800  0.23985100  0.19267700  1
  O  O6  1  0.02484600  0.92363900  0.41188500  1
  O  O7  1  0.14537900  0.59604700  0.94795600  1
loop_
_geom_bond_atom_site_label_1
_geom_bond_atom_site_label_2
_geom_bond_distance
_geom_bond_site_symmetry_2
Mg0 O3 2.089139 1_455
Mg0 O3 2.089254 1_555
Mg0 O1 2.158695 1_455
Mg0 O1 2.163281 1_555
Mg0 O0 2.192367 1_455
Mg0 O4 2.194963 1_555
Co0 O3 1.953412 1_555
Co0 O6 1.954159 1_645
Co0 O4 2.010919 1_655
Co0 O4 2.029954 1_555
Co0 O5 2.073192 1_555
Co0 O5 2.131526 1_655
Co1 O7 1.864704 1_654
Co1 O2 1.866137 1_555
Co1 O2 1.867445 1_655
Co1 O3 1.886583 1_555
Co2 O0 1.834550 1_555
Co2 O5 1.881066 1_556
Co2 O7 1.917379 1_655
Co2 O1 2.007409 1_555
Co2 O7 2.074140 1_555
Co2 O1 2.418166 1_655
Co3 O0 2.000959 1_455
Co3 O6 2.009576 1_655
Co3 O6 2.041712 1_555
Co3 O0 2.045281 1_555
Co3 O4 2.077182 1_565
Co3 O7 2.361786 1_555
O1 Zn0 1.948392 1_556
O2 Zn0 1.938824 1_565
O5 Zn0 2.216831 1_555
O6 Zn0 2.014992 1_565
