# generated using pymatgen
data_Sm4MgTi2Mn2O12
_symmetry_space_group_name_H-M   'P 1'
_cell_length_a   5.47843083
_cell_length_b   5.97728561
_cell_length_c   8.35658745
_cell_angle_alpha   89.00713327
_cell_angle_beta   90.63466792
_cell_angle_gamma   88.29622921
_symmetry_Int_Tables_number   1
_chemical_formula_structural   Sm4MgTi2Mn2O12
_chemical_formula_sum   'Sm4 Mg1 Ti2 Mn2 O12'
_cell_volume   273.46558936
_cell_formula_units_Z   1
loop_
 _symmetry_equiv_pos_site_id
 _symmetry_equiv_pos_as_xyz
  1  'x, y, z'
loop_
 _atom_site_type_symbol
 _atom_site_label
 _atom_site_symmetry_multiplicity
 _atom_site_fract_x
 _atom_site_fract_y
 _atom_site_fract_z
 _atom_site_occupancy
  Sm  Sm0  1  0.05035200  0.94610900  0.73646300  1
  Sm  Sm1  1  0.45466300  0.41754200  0.73037600  1
  Sm  Sm2  1  0.94405600  0.09053700  0.28370800  1
  Sm  Sm3  1  0.52197200  0.61104600  0.28440400  1
  Mg  Mg0  1  0.39812200  0.19395700  0.09876000  1
  Ti  Ti0  1  0.49270800  0.01322900  0.50826800  1
  Ti  Ti1  1  0.99223200  0.51254600  0.00661400  1
  Mn  Mn0  1  0.97323700  0.51645100  0.53085800  1
  Mn  Mn1  1  0.60489200  0.82237700  0.91724500  1
  O  O0  1  0.82407900  0.58678900  0.78125300  1
  O  O1  1  0.62878400  0.05518100  0.73595900  1
  O  O2  1  0.17963800  0.41980700  0.21191800  1
  O  O3  1  0.36419400  0.97658600  0.27677600  1
  O  O4  1  0.79187300  0.82668800  0.46246400  1
  O  O5  1  0.71299400  0.33688600  0.09366500  1
  O  O6  1  0.18793800  0.20640400  0.55391000  1
  O  O7  1  0.27041900  0.68858900  0.91721600  1
  O  O8  1  0.18516700  0.22407100  0.90870900  1
  O  O9  1  0.30256900  0.71238200  0.55849000  1
  O  O10  1  0.81879300  0.79628700  0.11526900  1
  O  O11  1  0.67631700  0.31737200  0.45434100  1
loop_
_geom_bond_atom_site_label_1
_geom_bond_atom_site_label_2
_geom_bond_distance
_geom_bond_site_symmetry_2
Mg0 O5 1.948160 1_555
Mg0 O8 1.962743 1_554
Mg0 O3 1.972099 1_545
Mg0 O2 2.030400 1_555
Mn0 O11 2.142261 1_555
Mn0 O4 2.143295 1_555
Mn0 O6 2.169815 1_655
Mn0 O9 2.192233 1_655
Mn0 O0 2.295817 1_555
Mn1 O10 2.018203 1_556
Mn1 O7 2.020960 1_555
Mn1 O1 2.047118 1_565
Mn1 O0 2.168293 1_555
O0 Ti1 2.121436 1_556
O0 Sm1 2.327575 1_555
O0 Sm0 2.535815 1_655
O1 Ti0 2.057959 1_555
O1 Sm1 2.340096 1_555
O1 Sm0 2.380998 1_645
O2 Ti1 2.049140 1_455
O2 Sm3 2.305906 1_555
O2 Sm2 2.454885 1_455
O3 Ti0 2.068712 1_565
O3 Sm3 2.325254 1_555
O3 Sm2 2.382474 1_465
O4 Ti0 1.998987 1_565
O4 Sm2 2.331927 1_565
O4 Sm3 2.488551 1_555
O4 Sm0 2.793275 1_655
O5 Ti1 2.016324 1_555
O5 Sm2 2.460960 1_555
O5 Sm3 2.519268 1_555
O6 Ti0 2.044803 1_555
O6 Sm0 2.308464 1_545
O6 Sm1 2.455393 1_555
O6 Sm2 2.721321 1_455
O7 Ti1 2.020236 1_456
O7 Sm0 2.423459 1_555
O7 Sm1 2.471187 1_555
O8 Ti1 2.172431 1_456
O8 Sm0 2.347354 1_545
O8 Sm1 2.414237 1_555
O9 Ti0 2.142385 1_565
O9 Sm1 2.379446 1_555
O9 Sm0 2.464883 1_555
O9 Sm3 2.668983 1_555
O10 Ti1 2.140173 1_555
O10 Sm2 2.383653 1_565
O10 Sm3 2.443694 1_555
O11 Ti0 2.147143 1_555
O11 Sm3 2.368910 1_555
O11 Sm2 2.453185 1_555
O11 Sm1 2.687128 1_555
