# generated using pymatgen
data_Na10La4Ta4Si9(SO16)3
_symmetry_space_group_name_H-M   'P 1'
_cell_length_a   18.95297792
_cell_length_b   9.37819123
_cell_length_c   22.97242015
_cell_angle_alpha   90.24317042
_cell_angle_beta   88.45853387
_cell_angle_gamma   119.84458013
_symmetry_Int_Tables_number   1
_chemical_formula_structural   Na10La4Ta4Si9(SO16)3
_chemical_formula_sum   'Na30 La12 Ta12 Si27 S9 O144'
_cell_volume   3540.22294171
_cell_formula_units_Z   3
loop_
 _symmetry_equiv_pos_site_id
 _symmetry_equiv_pos_as_xyz
  1  'x, y, z'
loop_
 _atom_site_type_symbol
 _atom_site_label
 _atom_site_symmetry_multiplicity
 _atom_site_fract_x
 _atom_site_fract_y
 _atom_site_fract_z
 _atom_site_occupancy
  Na  Na0  1  0.18036226  0.35115648  0.24087793  1
  Na  Na1  1  0.68038374  0.35206604  0.24020005  1
  Na  Na2  1  0.18000062  0.01068875  0.73993780  1
  Na  Na3  1  0.67811643  0.00696826  0.74024766  1
  Na  Na4  1  0.65556737  0.34863519  0.58099820  1
  Na  Na5  1  0.01925098  0.69954759  0.57374450  1
  Na  Na6  1  0.51391833  0.67363133  0.58088738  1
  Na  Na7  1  0.32296002  0.98295036  0.58689040  1
  Na  Na8  1  0.15562606  0.96891161  0.08153826  1
  Na  Na9  1  0.65565425  0.96879376  0.08107614  1
  Na  Na10  1  0.32254168  0.66838201  0.08498449  1
  Na  Na11  1  0.82291791  0.66954990  0.08467207  1
  Na  Na12  1  0.01921802  0.35920192  0.08092947  1
  Na  Na13  1  0.51914548  0.35953552  0.08074940  1
  Na  Na14  1  0.49316372  0.68429520  0.91158497  1
  Na  Na15  1  0.99307760  0.68408336  0.91297183  1
  Na  Na16  1  0.34814590  0.65907122  0.40783205  1
  Na  Na17  1  0.84757064  0.67324127  0.40641597  1
  Na  Na18  1  0.02348041  0.03842110  0.49633905  1
  Na  Na19  1  0.52034905  0.01621317  0.49426736  1
  Na  Na20  1  0.01650935  0.03982868  0.99189250  1
  Na  Na21  1  0.51684794  0.04039560  0.99122708  1
  Na  Na22  1  0.34816051  0.33500663  0.83140184  1
  Na  Na23  1  0.84620073  0.33157174  0.83420959  1
  Na  Na24  1  0.35198281  0.33978885  0.33457995  1
  Na  Na25  1  0.85492208  0.33889843  0.32968025  1
  Na  Na26  1  0.16718168  0.68270019  0.16411063  1
  Na  Na27  1  0.66738203  0.68297996  0.16282849  1
  Na  Na28  1  0.17974086  0.65233451  0.66639360  1
  Na  Na29  1  0.67501004  0.67030135  0.66026078  1
  La  La0  1  0.00363170  0.99739347  0.35255045  1
  La  La1  1  0.50134010  0.99581609  0.35224039  1
  La  La2  1  0.99570356  0.01285975  0.85073171  1
  La  La3  1  0.49649267  0.01447094  0.85037571  1
  La  La4  1  0.33969566  0.34253769  0.68516070  1
  La  La5  1  0.83782354  0.33390634  0.68728072  1
  La  La6  1  0.34091915  0.34259831  0.18665568  1
  La  La7  1  0.84074339  0.34247469  0.18589096  1
  La  La8  1  0.16747993  0.66516247  0.00921334  1
  La  La9  1  0.66757461  0.66520523  0.00870310  1
  La  La10  1  0.16504305  0.66379419  0.51376151  1
  La  La11  1  0.66564540  0.67621859  0.51465887  1
  Ta  Ta0  1  0.99306427  0.97711017  0.64811837  1
  Ta  Ta1  1  0.48955556  0.97937653  0.64284938  1
  Ta  Ta2  1  0.99058593  0.99982288  0.14451434  1
  Ta  Ta3  1  0.49003900  0.99979936  0.14403813  1
  Ta  Ta4  1  0.33423732  0.32280879  0.98319582  1
  Ta  Ta5  1  0.83406838  0.32263977  0.98329044  1
  Ta  Ta6  1  0.33477250  0.34065466  0.48451925  1
  Ta  Ta7  1  0.82711545  0.34338928  0.47847146  1
  Ta  Ta8  1  0.15948070  0.63570900  0.31485402  1
  Ta  Ta9  1  0.65834118  0.64059200  0.31370503  1
  Ta  Ta10  1  0.16141889  0.68313800  0.81513398  1
  Ta  Ta11  1  0.65970258  0.68245666  0.81356818  1
  Si  Si0  1  0.34309262  0.71333024  0.25423784  1
  Si  Si1  1  0.84369446  0.71332173  0.25481213  1
  Si  Si2  1  0.00538552  0.30008487  0.25036441  1
  Si  Si3  1  0.50520338  0.29989122  0.25044963  1
  Si  Si4  1  0.00505651  0.70619540  0.75514007  1
  Si  Si5  1  0.50365868  0.71122239  0.75347963  1
  Si  Si6  1  0.34248589  0.97569499  0.74963331  1
  Si  Si7  1  0.84275573  0.97453402  0.75060574  1
  Si  Si8  1  0.47855466  0.31576762  0.57978944  1
  Si  Si9  1  0.18031552  0.04823598  0.58662995  1
  Si  Si10  1  0.67965820  0.04672427  0.58779924  1
  Si  Si11  1  0.33591846  0.63675932  0.58334315  1
  Si  Si12  1  0.83790067  0.63701032  0.58298603  1
  Si  Si13  1  0.47990251  0.64163091  0.07825373  1
  Si  Si14  1  0.97988906  0.64197007  0.07822104  1
  Si  Si15  1  0.33649351  0.03748236  0.08302454  1
  Si  Si16  1  0.83667595  0.03721913  0.08310579  1
  Si  Si17  1  0.18141734  0.31658274  0.08703850  1
  Si  Si18  1  0.68132400  0.31677605  0.08710888  1
  Si  Si19  1  0.01058782  0.37646572  0.92111273  1
  Si  Si20  1  0.51080639  0.37720217  0.92101982  1
  Si  Si21  1  0.17477470  0.98585353  0.92006474  1
  Si  Si22  1  0.67467159  0.98512600  0.91975902  1
  Si  Si23  1  0.17709225  0.36264838  0.41811705  1
  Si  Si24  1  0.67149194  0.36927941  0.41953281  1
  Si  Si25  1  0.01170239  0.64310459  0.42061372  1
  Si  Si26  1  0.51066314  0.64374336  0.42029990  1
  S  S0  1  0.14298289  0.97310002  0.24437164  1
  S  S1  1  0.64347823  0.97342094  0.24540331  1
  S  S2  1  0.14117099  0.30770198  0.74624290  1
  S  S3  1  0.64482169  0.31542737  0.74625144  1
  S  S4  1  0.97752479  0.30743348  0.58024073  1
  S  S5  1  0.31287785  0.64037440  0.91520316  1
  S  S6  1  0.81320468  0.64017794  0.91558931  1
  S  S7  1  0.30955145  0.97603682  0.41558640  1
  S  S8  1  0.81157534  0.98107118  0.41372496  1
  O  O0  1  0.10651203  0.99402914  0.29875371  1
  O  O1  1  0.60662587  0.99415381  0.29948377  1
  O  O2  1  0.39041046  0.77978562  0.31319976  1
  O  O3  1  0.89071096  0.78058504  0.31382311  1
  O  O4  1  0.50924687  0.20800005  0.30639781  1
  O  O5  1  0.00770106  0.20537986  0.30611045  1
  O  O6  1  0.10932074  0.21810384  0.80169603  1
  O  O7  1  0.60917654  0.21590486  0.79949963  1
  O  O8  1  0.50724791  0.79877605  0.81356213  1
  O  O9  1  0.00343602  0.79079411  0.81453501  1
  O  O10  1  0.39594978  0.00728579  0.80469737  1
  O  O11  1  0.89486117  0.00975208  0.80673343  1
  O  O12  1  0.39848590  0.96494793  0.69039496  1
  O  O13  1  0.90355649  0.96948861  0.69355368  1
  O  O14  1  0.08716901  0.21143238  0.69715982  1
  O  O15  1  0.59475761  0.22985648  0.69445538  1
  O  O16  1  0.01391625  0.83529139  0.69734835  1
  O  O17  1  0.51304016  0.83884783  0.69593131  1
  O  O18  1  0.40299765  0.83971778  0.19617206  1
  O  O19  1  0.90340195  0.83919852  0.19670651  1
  O  O20  1  0.01470189  0.19748549  0.19133767  1
  O  O21  1  0.51494495  0.19744820  0.19152553  1
  O  O22  1  0.09276158  0.96245052  0.19322720  1
  O  O23  1  0.59383851  0.96070130  0.19389062  1
  O  O24  1  0.44595305  0.36579195  0.63637946  1
  O  O25  1  0.94335080  0.32883732  0.63591586  1
  O  O26  1  0.23012790  0.10513032  0.64544812  1
  O  O27  1  0.72458493  0.11831923  0.64741907  1
  O  O28  1  0.31942237  0.53359034  0.64111598  1
  O  O29  1  0.82984628  0.52617666  0.63710498  1
  O  O30  1  0.44510898  0.52049984  0.13317982  1
  O  O31  1  0.94513715  0.52065743  0.13310366  1
  O  O32  1  0.31071839  0.10547061  0.13784306  1
  O  O33  1  0.81060207  0.10514847  0.13783737  1
  O  O34  1  0.22981907  0.35266467  0.14619607  1
  O  O35  1  0.72952631  0.35252622  0.14638948  1
  O  O36  1  0.24161189  0.30129442  0.03262424  1
  O  O37  1  0.74163386  0.30138529  0.03284126  1
  O  O38  1  0.41606752  0.53791408  0.02298558  1
  O  O39  1  0.91613664  0.53776369  0.02294938  1
  O  O40  1  0.35227505  0.17011214  0.02647101  1
  O  O41  1  0.85228979  0.17011889  0.02660868  1
  O  O42  1  0.24016291  0.17671340  0.53136340  1
  O  O43  1  0.74107686  0.17894101  0.53141242  1
  O  O44  1  0.34891810  0.53355693  0.52615077  1
  O  O45  1  0.85051649  0.53496454  0.52368410  1
  O  O46  1  0.41261232  0.29830183  0.52702531  1
  O  O47  1  0.92570271  0.29567755  0.53076956  1
  O  O48  1  0.28567870  0.66085459  0.97397100  1
  O  O49  1  0.78594111  0.66038773  0.97441722  1
  O  O50  1  0.05127607  0.44507594  0.98284575  1
  O  O51  1  0.55134825  0.44449172  0.98292617  1
  O  O52  1  0.16352842  0.88778013  0.97943200  1
  O  O53  1  0.66416274  0.88834818  0.97939006  1
  O  O54  1  0.27834176  0.89753840  0.47318564  1
  O  O55  1  0.78076268  0.89297255  0.46977084  1
  O  O56  1  0.17152936  0.46056638  0.47282728  1
  O  O57  1  0.67205866  0.45568098  0.47910693  1
  O  O58  1  0.05500726  0.67205831  0.48162052  1
  O  O59  1  0.55480350  0.67433322  0.48120366  1
  O  O60  1  0.07452285  0.63757697  0.36579551  1
  O  O61  1  0.57437303  0.64187463  0.36462653  1
  O  O62  1  0.25478405  0.87319467  0.36827396  1
  O  O63  1  0.75734077  0.88716245  0.36533252  1
  O  O64  1  0.18111023  0.49039574  0.35866509  1
  O  O65  1  0.67994449  0.49905175  0.36250963  1
  O  O66  1  0.07512950  0.51380870  0.86677480  1
  O  O67  1  0.57488545  0.51439722  0.86674103  1
  O  O68  1  0.18148041  0.86528861  0.86243133  1
  O  O69  1  0.68087683  0.86529811  0.86201096  1
  O  O70  1  0.25918365  0.64141782  0.86927994  1
  O  O71  1  0.76041442  0.64112492  0.86956448  1
  O  O72  1  0.98375396  0.77832590  0.41296921  1
  O  O73  1  0.48536089  0.78371224  0.41337435  1
  O  O74  1  0.39109709  0.99452745  0.40909341  1
  O  O75  1  0.89380180  0.00631584  0.40627303  1
  O  O76  1  0.10254409  0.17947032  0.41517991  1
  O  O77  1  0.60080774  0.18369039  0.41541818  1
  O  O78  1  0.99165626  0.19082166  0.91663055  1
  O  O79  1  0.49172609  0.19149633  0.91642913  1
  O  O80  1  0.09368044  0.99676536  0.91185871  1
  O  O81  1  0.59369918  0.99731472  0.91247036  1
  O  O82  1  0.39800536  0.77461264  0.90818310  1
  O  O83  1  0.89876184  0.77485488  0.90911691  1
  O  O84  1  0.47349188  0.13270774  0.58825952  1
  O  O85  1  0.98292173  0.15255330  0.58386755  1
  O  O86  1  0.08908895  0.03975252  0.59489057  1
  O  O87  1  0.59203086  0.05586983  0.59142222  1
  O  O88  1  0.43166941  0.80696681  0.58904529  1
  O  O89  1  0.92895072  0.81376076  0.59099904  1
  O  O90  1  0.47501737  0.81516240  0.09031600  1
  O  O91  1  0.97477490  0.81502321  0.09022523  1
  O  O92  1  0.42900821  0.05193251  0.09094618  1
  O  O93  1  0.92895945  0.05133166  0.09123161  1
  O  O94  1  0.09257506  0.13607763  0.09237656  1
  O  O95  1  0.59263350  0.13600587  0.09253123  1
  O  O96  1  0.31502412  0.11241906  0.74489448  1
  O  O97  1  0.81444560  0.10981733  0.74466267  1
  O  O98  1  0.22279337  0.32836551  0.73885547  1
  O  O99  1  0.72713629  0.33823550  0.74101481  1
  O  O100  1  0.43135940  0.52603459  0.75188258  1
  O  O101  1  0.93455679  0.52059790  0.74950407  1
  O  O102  1  0.31678996  0.52272821  0.24581810  1
  O  O103  1  0.81726937  0.52207112  0.24681051  1
  O  O104  1  0.43261209  0.33899207  0.25116253  1
  O  O105  1  0.93272991  0.33922113  0.25058200  1
  O  O106  1  0.22460002  0.11917701  0.24015120  1
  O  O107  1  0.72534063  0.11822254  0.24113229  1
  O  O108  1  0.31226571  0.47936023  0.91422716  1
  O  O109  1  0.81300867  0.47928866  0.91488590  1
  O  O110  1  0.42497992  0.38807747  0.92135058  1
  O  O111  1  0.92502958  0.38788206  0.92122660  1
  O  O112  1  0.26227213  0.16206058  0.92451801  1
  O  O113  1  0.76230197  0.16208350  0.92444368  1
  O  O114  1  0.31425575  0.14026510  0.41598577  1
  O  O115  1  0.81458864  0.14492973  0.41840359  1
  O  O116  1  0.26725359  0.37185473  0.42128121  1
  O  O117  1  0.76423095  0.37580520  0.42120300  1
  O  O118  1  0.42303608  0.46511916  0.42366989  1
  O  O119  1  0.92286465  0.46109815  0.42618546  1
  O  O120  1  0.16201041  0.46451619  0.07676601  1
  O  O121  1  0.66207264  0.46490183  0.07694558  1
  O  O122  1  0.07499550  0.69101484  0.07396519  1
  O  O123  1  0.57503665  0.69072475  0.07392852  1
  O  O124  1  0.27210391  0.84540310  0.07467044  1
  O  O125  1  0.77187584  0.84525493  0.07475113  1
  O  O126  1  0.15922084  0.85926409  0.57676317  1
  O  O127  1  0.65315831  0.85533301  0.58173288  1
  O  O128  1  0.27461550  0.70747632  0.57668996  1
  O  O129  1  0.76225250  0.66628369  0.57860720  1
  O  O130  1  0.05963156  0.45164372  0.57535746  1
  O  O131  1  0.57281250  0.45722746  0.57319410  1
  O  O132  1  0.14715898  0.81829947  0.24850657  1
  O  O133  1  0.64780839  0.81772340  0.25002529  1
  O  O134  1  0.25421373  0.71550219  0.26109581  1
  O  O135  1  0.75441805  0.71414429  0.26167876  1
  O  O136  1  0.09634849  0.48378014  0.25522756  1
  O  O137  1  0.59663586  0.48428481  0.25526070  1
  O  O138  1  0.14477367  0.47109992  0.75010195  1
  O  O139  1  0.64824608  0.47796293  0.75288299  1
  O  O140  1  0.09765152  0.71238267  0.75692501  1
  O  O141  1  0.59619761  0.71132844  0.75587260  1
  O  O142  1  0.25413565  0.79360486  0.75999179  1
  O  O143  1  0.75443107  0.79464344  0.76001316  1
loop_
_geom_bond_atom_site_label_1
_geom_bond_atom_site_label_2
_geom_bond_distance
_geom_bond_site_symmetry_2
Na0 O102 2.271800 1_555
Na0 O34 2.342465 1_555
Na0 O136 2.475989 1_555
Na0 O106 2.692710 1_555
Na1 O103 2.279933 1_555
Na1 O35 2.323763 1_555
Na1 O137 2.470303 1_555
Na1 O107 2.719753 1_555
Na2 O96 2.248752 1_555
Na2 O26 2.338093 1_555
Na2 O140 2.458730 1_545
Na2 O98 2.669991 1_555
Na2 O16 2.927474 1_545
Na3 O97 2.269282 1_555
Na3 O27 2.327270 1_555
Na3 O141 2.433219 1_545
Na3 O99 2.764533 1_555
Na4 O131 2.266229 1_555
Na4 O87 2.396906 1_555
Na4 O57 2.500522 1_555
Na4 O129 2.639321 1_555
Na4 O15 2.819155 1_555
Na5 O58 2.257562 1_555
Na5 O126 2.310863 1_555
Na5 O89 2.453148 1_455
Na5 O86 2.825871 1_565
Na6 O127 2.322746 1_555
Na6 O59 2.396681 1_555
Na6 O88 2.439505 1_555
Na6 O131 2.763511 1_555
Na6 O24 2.803670 1_555
Na7 O128 2.284529 1_555
Na7 O84 2.475801 1_565
Na7 O126 2.735710 1_555
Na7 O54 2.757999 1_555
Na7 O26 2.843287 1_565
Na7 O12 2.856270 1_555
Na7 O46 2.903810 1_565
Na8 O122 2.281273 1_555
Na8 O94 2.406876 1_565
Na8 O52 2.486502 1_554
Na8 O22 2.787726 1_555
Na8 O32 2.897808 1_565
Na9 O123 2.281702 1_555
Na9 O95 2.408074 1_565
Na9 O53 2.477462 1_554
Na9 O23 2.800840 1_555
Na10 O124 2.306750 1_555
Na10 O90 2.513862 1_555
Na10 O48 2.653700 1_554
Na10 O120 2.680715 1_555
Na10 O34 2.925046 1_555
Na10 O38 2.945462 1_555
Na10 O18 3.027761 1_555
Na11 O125 2.303185 1_555
Na11 O91 2.504273 1_555
Na11 O49 2.635798 1_554
Na11 O121 2.685376 1_555
Na12 O50 2.355733 1_554
Na12 O120 2.373900 1_555
Na12 O93 2.527210 1_455
Na12 O122 2.747261 1_555
Na12 O31 2.776803 1_455
Na12 O20 2.938066 1_555
Na13 O51 2.348358 1_554
Na13 O121 2.376128 1_555
Na13 O92 2.524753 1_555
Na13 O123 2.741197 1_555
Na13 O30 2.774954 1_555
Na13 O21 2.948639 1_555
Na14 O82 2.346243 1_555
Na14 O110 2.419537 1_555
Na14 O8 2.448992 1_555
Na14 O81 2.585143 1_555
Na14 O67 2.890582 1_555
Na14 O38 2.898451 1_556
Na15 O83 2.334866 1_555
Na15 O111 2.416863 1_555
Na15 O9 2.439969 1_655
Na15 O80 2.582288 1_655
Na15 O39 2.869150 1_556
Na15 O66 2.909151 1_655
Na16 O73 2.266449 1_555
Na16 O116 2.360652 1_555
Na16 O2 2.381991 1_555
Na17 O72 2.267994 1_555
Na17 O3 2.304735 1_555
Na17 O117 2.446439 1_555
Na18 O76 2.317126 1_555
Na18 O85 2.548949 1_455
Na18 O86 2.609158 1_555
Na18 O72 2.897365 1_445
Na18 O89 2.906882 1_445
Na19 O77 2.359028 1_555
Na19 O87 2.572656 1_555
Na19 O73 2.690753 1_545
Na19 O84 2.736241 1_555
Na19 O88 2.823641 1_545
Na20 O78 2.438194 1_455
Na20 O80 2.473789 1_545
Na20 O94 2.662307 1_556
Na20 O93 2.818716 1_456
Na20 O91 2.908228 1_446
Na21 O79 2.433819 1_555
Na21 O81 2.448643 1_545
Na21 O95 2.676426 1_556
Na21 O92 2.828967 1_556
Na21 O90 2.923838 1_546
Na22 O110 2.463571 1_555
Na22 O100 2.468627 1_555
Na22 O108 2.596334 1_555
Na22 O112 2.659051 1_555
Na22 O96 2.725499 1_555
Na23 O111 2.423520 1_555
Na23 O109 2.555887 1_555
Na23 O101 2.575395 1_555
Na23 O113 2.585907 1_555
Na23 O97 2.775505 1_555
Na24 O104 2.421000 1_555
Na24 O118 2.436413 1_555
Na24 O114 2.477072 1_555
Na24 O116 2.634342 1_555
Na24 O102 2.964453 1_555
Na25 O105 2.308231 1_555
Na25 O119 2.559235 1_555
Na25 O115 2.571232 1_555
Na25 O117 2.808261 1_555
Na25 O103 2.899195 1_555
Na26 O132 2.437179 1_555
Na26 O136 2.655769 1_555
Na26 O124 2.700203 1_555
Na26 O134 2.732455 1_555
Na26 O122 2.771081 1_555
Na26 O120 2.828190 1_555
Na27 O133 2.480332 1_555
Na27 O125 2.672633 1_555
Na27 O137 2.678161 1_555
Na27 O123 2.749438 1_555
Na27 O135 2.771153 1_555
Na27 O121 2.803027 1_555
Na28 O138 2.421561 1_555
Na28 O128 2.575169 1_555
Na28 O142 2.578038 1_555
Na28 O140 2.784068 1_555
Na28 O126 2.997510 1_555
Na28 O130 3.009398 1_555
Na29 O129 2.479635 1_555
Na29 O139 2.664982 1_555
Na29 O127 2.686828 1_555
Na29 O143 2.700499 1_555
Na29 O141 2.755346 1_555
Na29 O131 2.840334 1_555
La0 O5 2.193671 1_565
La0 O0 2.293822 1_555
La0 O3 2.293915 1_455
La0 O76 2.332030 1_565
La0 O72 2.348380 1_455
La0 O75 2.428465 1_465
La1 O4 2.191738 1_565
La1 O2 2.275029 1_555
La1 O1 2.313371 1_555
La1 O73 2.328520 1_555
La1 O77 2.363115 1_565
La1 O74 2.428957 1_555
La2 O11 2.173391 1_555
La2 O78 2.276577 1_555
La2 O9 2.309230 1_645
La2 O6 2.318067 1_655
La2 O80 2.421567 1_645
La2 O83 2.442928 1_545
La3 O10 2.171658 1_555
La3 O79 2.277585 1_555
La3 O8 2.288055 1_545
La3 O7 2.316186 1_555
La3 O81 2.427616 1_545
La3 O82 2.453703 1_545
La4 O24 2.191495 1_555
La4 O28 2.259030 1_555
La4 O100 2.339708 1_555
La4 O26 2.363192 1_555
La4 O96 2.396931 1_555
La4 O98 2.451435 1_555
La5 O29 2.213861 1_555
La5 O27 2.302972 1_555
La5 O25 2.315601 1_555
La5 O101 2.322680 1_555
La5 O97 2.327187 1_555
La5 O99 2.423099 1_555
La6 O30 2.190875 1_555
La6 O32 2.297152 1_555
La6 O104 2.326955 1_555
La6 O34 2.368663 1_555
La6 O102 2.371919 1_555
La6 O106 2.457493 1_555
La7 O31 2.185183 1_555
La7 O33 2.290468 1_555
La7 O105 2.332742 1_555
La7 O35 2.361560 1_555
La7 O103 2.384450 1_555
La7 O107 2.472321 1_555
La8 O52 2.236711 1_554
La8 O50 2.239285 1_554
La8 O122 2.371413 1_555
La8 O48 2.380733 1_554
La8 O120 2.404528 1_555
La8 O124 2.419335 1_555
La9 O53 2.232919 1_554
La9 O51 2.238119 1_554
La9 O123 2.377360 1_555
La9 O49 2.379232 1_554
La9 O121 2.412152 1_555
La9 O125 2.424564 1_555
La10 O56 2.177991 1_555
La10 O58 2.268196 1_555
La10 O54 2.347307 1_555
La10 O126 2.374349 1_555
La10 O130 2.422340 1_555
La10 O128 2.424904 1_555
La11 O59 2.248121 1_555
La11 O57 2.278149 1_555
La11 O131 2.328395 1_555
La11 O55 2.332010 1_555
La11 O127 2.367689 1_555
La11 O129 2.415571 1_555
O0 S0 1.470898 1_555
O1 S1 1.468177 1_555
O2 Si0 1.590362 1_555
O3 Si1 1.589957 1_555
O4 Si3 1.575076 1_555
O5 Si2 1.575507 1_555
O6 S2 1.468373 1_555
O7 S3 1.470204 1_555
O8 Si5 1.588624 1_555
O9 Si4 1.582694 1_555
O10 Si6 1.575324 1_545
O11 Si7 1.577062 1_545
O12 Si6 1.736711 1_555
O12 Ta1 1.964148 1_555
O13 Si7 1.737925 1_555
O13 Ta0 1.938332 1_555
O14 S2 1.505918 1_555
O14 Ta0 2.337846 1_445
O15 S3 1.501639 1_555
O15 Ta1 2.518112 1_545
O16 Si4 1.748094 1_555
O16 Ta0 1.940122 1_455
O17 Si5 1.732308 1_555
O17 Ta1 2.012129 1_555
O18 Si0 1.750950 1_555
O18 Ta3 1.963066 1_555
O19 Si1 1.748837 1_555
O19 Ta2 1.966834 1_555
O20 Si2 1.714889 1_555
O20 Ta2 1.992091 1_445
O21 Si3 1.715070 1_555
O21 Ta3 1.997088 1_545
O22 S0 1.503646 1_555
O22 Ta2 2.433255 1_455
O23 S1 1.498913 1_555
O23 Ta3 2.481743 1_555
O24 Si8 1.591237 1_555
O25 S4 1.475900 1_555
O26 Si9 1.600899 1_555
O27 Si10 1.592987 1_555
O28 Si11 1.575687 1_555
O29 Si12 1.578665 1_555
O30 Si13 1.593500 1_555
O31 Si14 1.593559 1_555
O32 Si15 1.581507 1_555
O33 Si16 1.582405 1_555
O34 Si17 1.599099 1_555
O35 Si18 1.599933 1_555
O36 Si17 1.723153 1_555
O36 Ta4 1.988488 1_554
O37 Si18 1.722665 1_555
O37 Ta5 1.987894 1_554
O38 Si13 1.709605 1_555
O38 Ta4 2.063258 1_554
O39 Si14 1.709961 1_555
O39 Ta5 2.063240 1_554
O40 Si15 1.716665 1_555
O40 Ta4 1.916634 1_554
O41 Si16 1.717974 1_555
O41 Ta5 1.917740 1_554
O42 Si9 1.710410 1_555
O42 Ta6 1.975725 1_555
O43 Si10 1.751101 1_555
O43 Ta7 1.980622 1_555
O44 Si11 1.712532 1_555
O44 Ta6 1.943106 1_555
O45 Si12 1.740137 1_555
O45 Ta7 1.928528 1_555
O46 Si8 1.712933 1_555
O46 Ta6 1.987905 1_555
O47 S4 1.489840 1_555
O47 Ta7 2.468291 1_555
O48 S5 1.477885 1_555
O49 S6 1.478849 1_555
O50 Si19 1.605337 1_555
O51 Si20 1.606141 1_555
O52 Si21 1.597259 1_555
O53 Si22 1.598720 1_555
O54 S7 1.474935 1_555
O55 S8 1.472987 1_555
O56 Si23 1.585380 1_555
O57 Si24 1.585043 1_555
O58 Si25 1.596352 1_555
O59 Si26 1.600118 1_555
O60 Si25 1.728109 1_555
O60 Ta8 1.972073 1_555
O61 Si26 1.741220 1_555
O61 Ta9 1.954490 1_555
O62 S7 1.498117 1_555
O62 Ta8 2.412684 1_555
O63 S8 1.490042 1_555
O63 Ta9 2.460166 1_555
O64 Si23 1.795515 1_555
O64 Ta8 1.904736 1_555
O65 Si24 1.740980 1_555
O65 Ta9 1.940331 1_555
O66 Si19 1.754103 1_555
O66 Ta10 1.982548 1_555
O67 Si20 1.749888 1_555
O67 Ta11 1.987288 1_555
O68 Si21 1.780106 1_555
O68 Ta10 1.898218 1_555
O69 Si22 1.774002 1_555
O69 Ta11 1.913812 1_555
O70 S5 1.488776 1_555
O70 Ta10 2.446087 1_555
O71 S6 1.478130 1_555
O71 Ta11 2.514201 1_555
O72 Si25 1.610919 1_655
O73 Si26 1.615782 1_555
O74 S7 1.470394 1_555
O75 S8 1.460427 1_545
O76 Si23 1.593840 1_555
O77 Si24 1.586713 1_555
O78 Si19 1.596609 1_655
O79 Si20 1.596453 1_555
O80 Si21 1.606426 1_555
O81 Si22 1.607761 1_555
O82 S5 1.476520 1_555
O83 S6 1.482223 1_555
O84 Si8 1.682927 1_555
O84 Ta1 2.050538 1_545
O85 S4 1.508811 1_555
O85 Ta0 2.296375 1_545
O86 Si9 1.696289 1_555
O86 Ta0 1.993677 1_445
O87 Si10 1.704938 1_555
O87 Ta1 2.044393 1_545
O88 Si11 1.728105 1_555
O88 Ta1 1.906866 1_555
O89 Si12 1.710829 1_555
O89 Ta0 1.939360 1_555
O90 Si13 1.696640 1_555
O90 Ta3 2.027937 1_555
O91 Si14 1.694302 1_555
O91 Ta2 2.033134 1_555
O92 Si15 1.704832 1_555
O92 Ta3 1.925724 1_545
O93 Si16 1.702494 1_555
O93 Ta2 1.933737 1_545
O94 Si17 1.693982 1_555
O94 Ta2 2.057641 1_445
O95 Si18 1.693918 1_555
O95 Ta3 2.056602 1_545
O96 Si6 1.611001 1_545
O97 Si7 1.612179 1_545
O98 S2 1.465367 1_555
O99 S3 1.467018 1_555
O100 Si5 1.590217 1_555
O101 Si4 1.588816 1_655
O102 Si0 1.611348 1_555
O103 Si1 1.615444 1_555
O104 Si3 1.590122 1_555
O105 Si2 1.591736 1_655
O106 S0 1.470671 1_545
O107 S1 1.468636 1_545
O108 S5 1.504358 1_555
O108 Ta4 2.345834 1_555
O109 S6 1.507024 1_555
O109 Ta5 2.328913 1_555
O110 Si20 1.679571 1_555
O110 Ta4 2.044301 1_555
O111 Si19 1.677370 1_655
O111 Ta5 2.050505 1_555
O112 Si21 1.664778 1_545
O112 Ta4 1.996290 1_555
O113 Si22 1.670001 1_545
O113 Ta5 1.997007 1_555
O114 S7 1.497794 1_545
O114 Ta6 2.332832 1_555
O115 S8 1.512557 1_545
O115 Ta7 2.231716 1_555
O116 Si23 1.671110 1_555
O116 Ta6 2.076038 1_555
O117 Si24 1.729509 1_555
O117 Ta7 1.921480 1_555
O118 Si26 1.671999 1_555
O118 Ta6 2.014823 1_555
O119 Si25 1.701368 1_655
O119 Ta7 1.963338 1_555
O120 Si17 1.622053 1_555
O121 Si18 1.621480 1_555
O122 Si14 1.623581 1_455
O123 Si13 1.624016 1_555
O124 Si15 1.610187 1_565
O125 Si16 1.611001 1_565
O126 Si9 1.627335 1_565
O127 Si10 1.611752 1_565
O128 Si11 1.609498 1_555
O129 Si12 1.594021 1_555
O130 S4 1.469862 1_455
O131 Si8 1.613282 1_555
O132 S0 1.496263 1_555
O132 Ta8 2.397734 1_555
O133 S1 1.507029 1_555
O133 Ta9 2.303422 1_555
O134 Si0 1.697848 1_555
O134 Ta8 1.964715 1_555
O135 Si1 1.699003 1_555
O135 Ta9 1.964643 1_555
O136 Si2 1.733550 1_555
O136 Ta8 1.926875 1_555
O137 Si3 1.741177 1_555
O137 Ta9 1.918492 1_555
O138 S2 1.501910 1_555
O138 Ta10 2.379372 1_555
O139 S3 1.500325 1_555
O139 Ta11 2.290773 1_555
O140 Si4 1.728410 1_555
O140 Ta10 1.934933 1_555
O141 Si5 1.755733 1_555
O141 Ta11 1.921439 1_555
O142 Si6 1.706659 1_555
O142 Ta10 1.960949 1_555
O143 Si7 1.693496 1_555
O143 Ta11 1.963682 1_555
