# generated using pymatgen
data_Ho6(Ga3Co)7
_symmetry_space_group_name_H-M   'P 1'
_cell_length_a   16.66509100
_cell_length_b   16.66509100
_cell_length_c   4.13139500
_cell_angle_alpha   90.00000000
_cell_angle_beta   90.00000000
_cell_angle_gamma   90.00000000
_symmetry_Int_Tables_number   1
_chemical_formula_structural   Ho6(Ga3Co)7
_chemical_formula_sum   'Ho12 Ga42 Co14'
_cell_volume   1147.39274243
_cell_formula_units_Z   2
loop_
 _symmetry_equiv_pos_site_id
 _symmetry_equiv_pos_as_xyz
  1  'x, y, z'
loop_
 _atom_site_type_symbol
 _atom_site_label
 _atom_site_symmetry_multiplicity
 _atom_site_fract_x
 _atom_site_fract_y
 _atom_site_fract_z
 _atom_site_occupancy
  Ho  Ho0  1  0.60669900  0.10669900  0.50000000  1
  Ho  Ho1  1  0.10669900  0.39330100  0.50000000  1
  Ho  Ho2  1  0.89330100  0.60669900  0.50000000  1
  Ho  Ho3  1  0.39330100  0.89330100  0.50000000  1
  Ho  Ho4  1  0.15753600  0.08767500  0.00000000  1
  Ho  Ho5  1  0.08767500  0.84246400  0.00000000  1
  Ho  Ho6  1  0.91232500  0.15753600  0.00000000  1
  Ho  Ho7  1  0.84246400  0.91232500  0.00000000  1
  Ho  Ho8  1  0.34246400  0.58767500  0.00000000  1
  Ho  Ho9  1  0.65753600  0.41232500  0.00000000  1
  Ho  Ho10  1  0.58767500  0.65753600  0.00000000  1
  Ho  Ho11  1  0.41232500  0.34246400  0.00000000  1
  Ga  Ga0  1  0.50000000  0.00000000  0.00000000  1
  Ga  Ga1  1  0.00000000  0.50000000  0.00000000  1
  Ga  Ga2  1  0.82049100  0.32049100  0.00000000  1
  Ga  Ga3  1  0.32049100  0.17950900  0.00000000  1
  Ga  Ga4  1  0.67950900  0.82049100  0.00000000  1
  Ga  Ga5  1  0.17950900  0.67950900  0.00000000  1
  Ga  Ga6  1  0.92441300  0.42441300  0.50000000  1
  Ga  Ga7  1  0.42441300  0.07558700  0.50000000  1
  Ga  Ga8  1  0.57558700  0.92441300  0.50000000  1
  Ga  Ga9  1  0.07558700  0.57558700  0.50000000  1
  Ga  Ga10  1  0.07547400  0.25984400  0.00000000  1
  Ga  Ga11  1  0.25984400  0.92452600  0.00000000  1
  Ga  Ga12  1  0.74015600  0.07547400  0.00000000  1
  Ga  Ga13  1  0.92452600  0.74015600  0.00000000  1
  Ga  Ga14  1  0.42452600  0.75984400  0.00000000  1
  Ga  Ga15  1  0.57547400  0.24015600  0.00000000  1
  Ga  Ga16  1  0.75984400  0.57547400  0.00000000  1
  Ga  Ga17  1  0.24015600  0.42452600  0.00000000  1
  Ga  Ga18  1  0.03132900  0.10970200  0.50000000  1
  Ga  Ga19  1  0.10970200  0.96867100  0.50000000  1
  Ga  Ga20  1  0.89029800  0.03132900  0.50000000  1
  Ga  Ga21  1  0.96867100  0.89029800  0.50000000  1
  Ga  Ga22  1  0.46867100  0.60970200  0.50000000  1
  Ga  Ga23  1  0.53132900  0.39029800  0.50000000  1
  Ga  Ga24  1  0.60970200  0.53132900  0.50000000  1
  Ga  Ga25  1  0.39029800  0.46867100  0.50000000  1
  Ga  Ga26  1  0.17859200  0.21044900  0.50000000  1
  Ga  Ga27  1  0.21044900  0.82140800  0.50000000  1
  Ga  Ga28  1  0.78955100  0.17859200  0.50000000  1
  Ga  Ga29  1  0.82140800  0.78955100  0.50000000  1
  Ga  Ga30  1  0.32140800  0.71044900  0.50000000  1
  Ga  Ga31  1  0.67859200  0.28955100  0.50000000  1
  Ga  Ga32  1  0.71044900  0.67859200  0.50000000  1
  Ga  Ga33  1  0.28955100  0.32140800  0.50000000  1
  Ga  Ga34  1  0.27085600  0.04136300  0.50000000  1
  Ga  Ga35  1  0.04136300  0.72914400  0.50000000  1
  Ga  Ga36  1  0.95863700  0.27085600  0.50000000  1
  Ga  Ga37  1  0.72914400  0.95863700  0.50000000  1
  Ga  Ga38  1  0.22914400  0.54136300  0.50000000  1
  Ga  Ga39  1  0.77085600  0.45863700  0.50000000  1
  Ga  Ga40  1  0.54136300  0.77085600  0.50000000  1
  Ga  Ga41  1  0.45863700  0.22914400  0.50000000  1
  Co  Co0  1  0.71889700  0.21889700  0.00000000  1
  Co  Co1  1  0.21889700  0.28110300  0.00000000  1
  Co  Co2  1  0.78110300  0.71889700  0.00000000  1
  Co  Co3  1  0.28110300  0.78110300  0.00000000  1
  Co  Co4  1  0.46380200  0.14857500  0.00000000  1
  Co  Co5  1  0.14857500  0.53619800  0.00000000  1
  Co  Co6  1  0.85142500  0.46380200  0.00000000  1
  Co  Co7  1  0.53619800  0.85142500  0.00000000  1
  Co  Co8  1  0.03619800  0.64857500  0.00000000  1
  Co  Co9  1  0.96380200  0.35142500  0.00000000  1
  Co  Co10  1  0.64857500  0.96380200  0.00000000  1
  Co  Co11  1  0.35142500  0.03619800  0.00000000  1
  Co  Co12  1  0.00000000  0.00000000  0.00000000  1
  Co  Co13  1  0.50000000  0.50000000  0.00000000  1
loop_
_geom_bond_atom_site_label_1
_geom_bond_atom_site_label_2
_geom_bond_distance
_geom_bond_site_symmetry_2
Ga0 Ga7 2.727749 1_554
Ga0 Ga7 2.727749 1_555
Ga0 Ga8 2.727749 1_544
Ga0 Ga8 2.727749 1_545
Ga0 Ho0 3.254340 1_555
Ga0 Ho0 3.254340 1_554
Ga0 Ho3 3.254340 1_544
Ga0 Ho3 3.254340 1_545
Ga1 Ga9 2.727749 1_555
Ga1 Ga9 2.727749 1_554
Ga1 Ga6 2.727749 1_455
Ga1 Ga6 2.727749 1_454
Ga1 Ho2 3.254340 1_454
Ga1 Ho1 3.254340 1_555
Ga1 Ho1 3.254340 1_554
Ga1 Ho2 3.254340 1_455
Ga2 Ho6 3.117210 1_555
Ga2 Ho9 3.117210 1_555
Ga3 Ho4 3.117210 1_555
Ga3 Ho11 3.117210 1_555
Ga4 Ho10 3.117210 1_555
Ga4 Ho7 3.117210 1_555
Ga5 Ho8 3.117210 1_555
Ga5 Ho5 3.117210 1_555
Ga6 Ho2 3.081742 1_555
Ga6 Ho1 3.081742 1_655
Ga7 Ho0 3.081742 1_555
Ga7 Ho3 3.081742 1_545
Ga8 Ho0 3.081742 1_565
Ga8 Ho3 3.081742 1_555
Ga9 Ho2 3.081742 1_455
Ga9 Ho1 3.081742 1_555
Ga10 Ga26 2.810313 1_555
Ga10 Ga26 2.810313 1_554
Ga10 Ga36 2.844641 1_455
Ga10 Ga36 2.844641 1_454
Ga10 Ho1 3.079674 1_555
Ga10 Ho1 3.079674 1_554
Ga10 Ho4 3.178463 1_555
Ga10 Ho6 3.209254 1_455
Ga11 Ga27 2.810313 1_554
Ga11 Ga27 2.810313 1_555
Ga11 Ga34 2.844641 1_565
Ga11 Ga34 2.844641 1_564
Ga11 Ho3 3.079674 1_555
Ga11 Ho3 3.079674 1_554
Ga11 Ho5 3.178463 1_555
Ga11 Ho4 3.209254 1_565
Ga12 Ga28 2.810313 1_555
Ga12 Ga28 2.810313 1_554
Ga12 Ga37 2.844641 1_545
Ga12 Ga37 2.844641 1_544
Ga12 Ho0 3.079674 1_555
Ga12 Ho0 3.079674 1_554
Ga12 Ho6 3.178463 1_555
Ga12 Ho7 3.209254 1_545
Ga13 Ga29 2.810313 1_554
Ga13 Ga29 2.810313 1_555
Ga13 Ga35 2.844641 1_654
Ga13 Ga35 2.844641 1_655
Ga13 Ho2 3.079674 1_555
Ga13 Ho2 3.079674 1_554
Ga13 Ho7 3.178463 1_555
Ga13 Ho5 3.209254 1_655
Ga14 Ga30 2.810313 1_554
Ga14 Ga30 2.810313 1_555
Ga14 Ga40 2.844641 1_554
Ga14 Ga40 2.844641 1_555
Ga14 Ho3 3.079674 1_554
Ga14 Ho3 3.079674 1_555
Ga14 Ho8 3.178463 1_555
Ga14 Ho10 3.209254 1_555
Ga15 Ga31 2.810313 1_555
Ga15 Ga31 2.810313 1_554
Ga15 Ga41 2.844641 1_554
Ga15 Ga41 2.844641 1_555
Ga15 Ho0 3.079674 1_555
Ga15 Ho0 3.079674 1_554
Ga15 Ho9 3.178463 1_555
Ga15 Ho11 3.209254 1_555
Ga16 Ga32 2.810313 1_554
Ga16 Ga32 2.810313 1_555
Ga16 Ga39 2.844641 1_555
Ga16 Ga39 2.844641 1_554
Ga16 Ho2 3.079674 1_554
Ga16 Ho2 3.079674 1_555
Ga16 Ho10 3.178463 1_555
Ga16 Ho9 3.209254 1_555
Ga17 Ga33 2.810313 1_554
Ga17 Ga33 2.810313 1_555
Ga17 Ga38 2.844641 1_554
Ga17 Ga38 2.844641 1_555
Ga17 Ho1 3.079674 1_554
Ga17 Ho1 3.079674 1_555
Ga17 Ho11 3.178463 1_555
Ga17 Ho8 3.209254 1_555
Ga18 Ga20 2.688822 1_455
Ga18 Ga19 2.688822 1_545
Ga18 Ga36 2.946223 1_455
Ga18 Ho4 2.970778 1_555
Ga18 Ho4 2.970778 1_556
Ga18 Ho6 2.972490 1_455
Ga18 Ho6 2.972490 1_456
Ga18 Ga26 2.973509 1_555
Ga19 Ga21 2.688822 1_455
Ga19 Ga34 2.946223 1_565
Ga19 Ho5 2.970778 1_556
Ga19 Ho5 2.970778 1_555
Ga19 Ho4 2.972490 1_565
Ga19 Ho4 2.972490 1_566
Ga19 Ga27 2.973509 1_555
Ga20 Ga21 2.688822 1_545
Ga20 Ga37 2.946223 1_545
Ga20 Ho6 2.970778 1_556
Ga20 Ho6 2.970778 1_555
Ga20 Ho7 2.972490 1_546
Ga20 Ho7 2.972490 1_545
Ga20 Ga28 2.973509 1_555
Ga21 Ga35 2.946223 1_655
Ga21 Ho7 2.970778 1_555
Ga21 Ho7 2.970778 1_556
Ga21 Ho5 2.972490 1_655
Ga21 Ho5 2.972490 1_656
Ga21 Ga29 2.973509 1_555
Ga22 Ga25 2.688822 1_555
Ga22 Ga24 2.688822 1_555
Ga22 Ga40 2.946223 1_555
Ga22 Ho8 2.970778 1_556
Ga22 Ho8 2.970778 1_555
Ga22 Ho10 2.972490 1_555
Ga22 Ho10 2.972490 1_556
Ga22 Ga30 2.973509 1_555
Ga23 Ga25 2.688822 1_555
Ga23 Ga24 2.688822 1_555
Ga23 Ga41 2.946223 1_555
Ga23 Ho9 2.970778 1_556
Ga23 Ho9 2.970778 1_555
Ga23 Ho11 2.972490 1_555
Ga23 Ho11 2.972490 1_556
Ga23 Ga31 2.973509 1_555
Ga24 Ga39 2.946223 1_555
Ga24 Ho10 2.970778 1_555
Ga24 Ho10 2.970778 1_556
Ga24 Ho9 2.972490 1_556
Ga24 Ho9 2.972490 1_555
Ga24 Ga32 2.973509 1_555
Ga25 Ga38 2.946223 1_555
Ga25 Ho11 2.970778 1_556
Ga25 Ho11 2.970778 1_555
Ga25 Ho8 2.972490 1_556
Ga25 Ho8 2.972490 1_555
Ga25 Ga33 2.973509 1_555
Ga26 Ga33 2.615081 1_555
Ga26 Ho4 2.928569 1_556
Ga26 Ho4 2.928569 1_555
Ga26 Ho1 3.274318 1_555
Ga27 Ga30 2.615081 1_555
Ga27 Ho5 2.928569 1_555
Ga27 Ho5 2.928569 1_556
Ga27 Ho3 3.274318 1_555
Ga28 Ga31 2.615081 1_555
Ga28 Ho6 2.928569 1_555
Ga28 Ho6 2.928569 1_556
Ga28 Ho0 3.274318 1_555
Ga29 Ga32 2.615081 1_555
Ga29 Ho7 2.928569 1_555
Ga29 Ho7 2.928569 1_556
Ga29 Ho2 3.274318 1_555
Ga30 Ho8 2.928569 1_556
Ga30 Ho8 2.928569 1_555
Ga30 Ho3 3.274318 1_555
Ga31 Ho9 2.928569 1_556
Ga31 Ho9 2.928569 1_555
Ga31 Ho0 3.274318 1_555
Ga32 Ho10 2.928569 1_556
Ga32 Ho10 2.928569 1_555
Ga32 Ho2 3.274318 1_555
Ga33 Ho11 2.928569 1_555
Ga33 Ho11 2.928569 1_556
Ga33 Ho1 3.274318 1_555
Ga34 Ga7 2.621829 1_555
Ga34 Ho4 2.903301 1_555
Ga34 Ho4 2.903301 1_556
Ga34 Ho3 3.201916 1_545
Ga35 Ga9 2.621829 1_555
Ga35 Ho5 2.903301 1_556
Ga35 Ho5 2.903301 1_555
Ga35 Ho2 3.201916 1_455
Ga36 Ga6 2.621829 1_555
Ga36 Ho6 2.903301 1_556
Ga36 Ho6 2.903301 1_555
Ga36 Ho1 3.201916 1_655
Ga37 Ga8 2.621829 1_555
Ga37 Ho7 2.903301 1_555
Ga37 Ho7 2.903301 1_556
Ga37 Ho0 3.201916 1_565
Ga38 Ga9 2.621829 1_555
Ga38 Ho8 2.903301 1_556
Ga38 Ho8 2.903301 1_555
Ga38 Ho1 3.201916 1_555
Ga39 Ga6 2.621829 1_555
Ga39 Ho9 2.903301 1_556
Ga39 Ho9 2.903301 1_555
Ga39 Ho2 3.201916 1_555
Ga40 Ga8 2.621829 1_555
Ga40 Ho10 2.903301 1_555
Ga40 Ho10 2.903301 1_556
Ga40 Ho3 3.201916 1_555
Ga41 Ga7 2.621829 1_555
Ga41 Ho11 2.903301 1_556
Ga41 Ho11 2.903301 1_555
Ga41 Ho0 3.201916 1_555
Co0 Ga2 2.394367 1_555
Co0 Ga12 2.416272 1_555
Co0 Ga15 2.416272 1_555
Co0 Ga28 2.470763 1_555
Co0 Ga28 2.470763 1_554
Co0 Ga31 2.470763 1_555
Co0 Ga31 2.470763 1_554
Co0 Ho0 3.355493 1_554
Co0 Ho0 3.355493 1_555
Co1 Ga3 2.394367 1_555
Co1 Ga17 2.416272 1_555
Co1 Ga10 2.416272 1_555
Co1 Ga26 2.470763 1_555
Co1 Ga26 2.470763 1_554
Co1 Ga33 2.470763 1_554
Co1 Ga33 2.470763 1_555
Co1 Ho1 3.355493 1_555
Co1 Ho1 3.355493 1_554
Co2 Ga4 2.394367 1_555
Co2 Ga13 2.416272 1_555
Co2 Ga16 2.416272 1_555
Co2 Ga29 2.470763 1_555
Co2 Ga29 2.470763 1_554
Co2 Ga32 2.470763 1_555
Co2 Ga32 2.470763 1_554
Co2 Ho2 3.355493 1_554
Co2 Ho2 3.355493 1_555
Co3 Ga5 2.394367 1_555
Co3 Ga14 2.416272 1_555
Co3 Ga11 2.416272 1_555
Co3 Ga27 2.470763 1_555
Co3 Ga27 2.470763 1_554
Co3 Ga30 2.470763 1_554
Co3 Ga30 2.470763 1_555
Co3 Ho3 3.355493 1_555
Co3 Ho3 3.355493 1_554
Co4 Ga15 2.406806 1_555
Co4 Ga3 2.443295 1_555
Co4 Ga41 2.465224 1_555
Co4 Ga41 2.465224 1_554
Co4 Ga7 2.485459 1_555
Co4 Ga7 2.485459 1_554
Co4 Ga0 2.548442 1_555
Co4 Ho0 3.228800 1_555
Co4 Ho0 3.228800 1_554
Co5 Ga17 2.406806 1_555
Co5 Ga5 2.443295 1_555
Co5 Ga38 2.465224 1_555
Co5 Ga38 2.465224 1_554
Co5 Ga9 2.485459 1_555
Co5 Ga9 2.485459 1_554
Co5 Ga1 2.548442 1_555
Co5 Co8 2.648501 1_555
Co5 Ho1 3.228800 1_554
Co5 Ho1 3.228800 1_555
Co6 Ga16 2.406806 1_555
Co6 Ga2 2.443295 1_555
Co6 Ga39 2.465224 1_555
Co6 Ga39 2.465224 1_554
Co6 Ga6 2.485459 1_555
Co6 Ga6 2.485459 1_554
Co6 Ga1 2.548442 1_655
Co6 Co9 2.648501 1_555
Co6 Ho2 3.228800 1_554
Co6 Ho2 3.228800 1_555
Co7 Ga14 2.406806 1_555
Co7 Ga4 2.443295 1_555
Co7 Ga40 2.465224 1_555
Co7 Ga40 2.465224 1_554
Co7 Ga8 2.485459 1_554
Co7 Ga8 2.485459 1_555
Co7 Ga0 2.548442 1_565
Co7 Ho3 3.228800 1_554
Co7 Ho3 3.228800 1_555
Co8 Ga13 2.406806 1_455
Co8 Ga5 2.443295 1_555
Co8 Ga35 2.465224 1_554
Co8 Ga35 2.465224 1_555
Co8 Ga9 2.485459 1_555
Co8 Ga9 2.485459 1_554
Co8 Ga1 2.548442 1_555
Co8 Ho2 3.228800 1_454
Co8 Ho2 3.228800 1_455
Co9 Ga10 2.406806 1_655
Co9 Ga2 2.443295 1_555
Co9 Ga36 2.465224 1_554
Co9 Ga36 2.465224 1_555
Co9 Ga6 2.485459 1_555
Co9 Ga6 2.485459 1_554
Co9 Ga1 2.548442 1_655
Co9 Ho1 3.228800 1_655
Co9 Ho1 3.228800 1_654
Co10 Ga12 2.406806 1_565
Co10 Ga4 2.443295 1_555
Co10 Ga37 2.465224 1_554
Co10 Ga37 2.465224 1_555
Co10 Ga8 2.485459 1_554
Co10 Ga8 2.485459 1_555
Co10 Ga0 2.548442 1_565
Co10 Co7 2.648501 1_555
Co10 Ho0 3.228800 1_564
Co10 Ho0 3.228800 1_565
Co11 Ga11 2.406806 1_545
Co11 Ga3 2.443295 1_555
Co11 Ga34 2.465224 1_554
Co11 Ga34 2.465224 1_555
Co11 Ga7 2.485459 1_554
Co11 Ga7 2.485459 1_555
Co11 Ga0 2.548442 1_555
Co11 Co4 2.648501 1_555
Co11 Ho3 3.228800 1_545
Co11 Ho3 3.228800 1_544
Co12 Ga18 2.807488 1_554
Co12 Ga18 2.807488 1_555
Co12 Ga19 2.807488 1_544
Co12 Ga19 2.807488 1_545
Co12 Ga20 2.807488 1_455
Co12 Ga20 2.807488 1_454
Co12 Ga21 2.807488 1_444
Co12 Ga21 2.807488 1_445
Co12 Ho4 3.004550 1_555
Co12 Ho6 3.004550 1_455
Co12 Ho5 3.004550 1_545
Co12 Ho7 3.004550 1_445
Co13 Ga24 2.807488 1_555
Co13 Ga24 2.807488 1_554
Co13 Ga23 2.807488 1_555
Co13 Ga23 2.807488 1_554
Co13 Ga22 2.807488 1_555
Co13 Ga22 2.807488 1_554
Co13 Ga25 2.807488 1_554
Co13 Ga25 2.807488 1_555
Co13 Ho10 3.004550 1_555
Co13 Ho8 3.004550 1_555
Co13 Ho11 3.004550 1_555
Co13 Ho9 3.004550 1_555
