# generated using pymatgen
data_Na9NbZn5P6(SO12)3
_symmetry_space_group_name_H-M   'P 1'
_cell_length_a   9.00468352
_cell_length_b   9.00468321
_cell_length_c   22.17215639
_cell_angle_alpha   90.24486390
_cell_angle_beta   89.75513610
_cell_angle_gamma   120.17275072
_symmetry_Int_Tables_number   1
_chemical_formula_structural   Na9NbZn5P6(SO12)3
_chemical_formula_sum   'Na18 Nb2 Zn10 P12 S6 O72'
_cell_volume   1554.21660528
_cell_formula_units_Z   2
loop_
 _symmetry_equiv_pos_site_id
 _symmetry_equiv_pos_as_xyz
  1  'x, y, z'
loop_
 _atom_site_type_symbol
 _atom_site_label
 _atom_site_symmetry_multiplicity
 _atom_site_fract_x
 _atom_site_fract_y
 _atom_site_fract_z
 _atom_site_occupancy
  Na  Na0  1  0.36314965  0.35312873  0.24798365  1
  Na  Na1  1  0.64687127  0.63685035  0.74798365  1
  Na  Na2  1  0.03279016  0.70152434  0.58554065  1
  Na  Na3  1  0.66635269  0.96621799  0.58501317  1
  Na  Na4  1  0.29847566  0.96720984  0.08554065  1
  Na  Na5  1  0.03378201  0.33364731  0.08501317  1
  Na  Na6  1  0.96197591  0.67052113  0.91402945  1
  Na  Na7  1  0.70657020  0.03476398  0.91382988  1
  Na  Na8  1  0.32946518  0.29233164  0.91292294  1
  Na  Na9  1  0.96523602  0.29342980  0.41382988  1
  Na  Na10  1  0.32947887  0.03802409  0.41402945  1
  Na  Na11  1  0.70766836  0.67053482  0.41292294  1
  Na  Na12  1  0.01163355  0.01286030  0.49858289  1
  Na  Na13  1  0.98713970  0.98836645  0.99858289  1
  Na  Na14  1  0.66651107  0.32319864  0.82781863  1
  Na  Na15  1  0.67680136  0.33348893  0.32781863  1
  Na  Na16  1  0.34721735  0.67838303  0.16370553  1
  Na  Na17  1  0.32161697  0.65278265  0.66370553  1
  Nb  Nb0  1  0.33328033  0.67079663  0.31250993  1
  Nb  Nb1  1  0.32920337  0.66671967  0.81250993  1
  Zn  Zn0  1  0.99684512  0.99751215  0.34336114  1
  Zn  Zn1  1  0.00248785  0.00315488  0.84336114  1
  Zn  Zn2  1  0.00827397  0.00801745  0.66302526  1
  Zn  Zn3  1  0.99198255  0.99172603  0.16302526  1
  Zn  Zn4  1  0.66361777  0.32391464  0.68871151  1
  Zn  Zn5  1  0.67608536  0.33638223  0.18871151  1
  Zn  Zn6  1  0.66733495  0.33654533  0.98140676  1
  Zn  Zn7  1  0.66345467  0.33266505  0.48140676  1
  Zn  Zn8  1  0.33829298  0.66821362  0.00975495  1
  Zn  Zn9  1  0.33178638  0.66170702  0.50975495  1
  P  P0  1  0.29648052  0.00226356  0.24941033  1
  P  P1  1  0.70580483  0.70284087  0.25176461  1
  P  P2  1  0.99679616  0.29373270  0.25062472  1
  P  P3  1  0.29715913  0.29419517  0.75176461  1
  P  P4  1  0.99773644  0.70351948  0.74941033  1
  P  P5  1  0.70626730  0.00320384  0.75062472  1
  P  P6  1  0.62829086  0.66848442  0.91720085  1
  P  P7  1  0.03935256  0.37141704  0.91980636  1
  P  P8  1  0.33169743  0.96025693  0.91981626  1
  P  P9  1  0.62858296  0.96064744  0.41980636  1
  P  P10  1  0.33151558  0.37170914  0.41720085  1
  P  P11  1  0.03974307  0.66830257  0.41981626  1
  S  S0  1  0.96072682  0.33308585  0.58262984  1
  S  S1  1  0.37090937  0.03981329  0.58259095  1
  S  S2  1  0.66554288  0.62883676  0.58339758  1
  S  S3  1  0.96018671  0.62909063  0.08259095  1
  S  S4  1  0.66691415  0.03927318  0.08262984  1
  S  S5  1  0.37116324  0.33445712  0.08339758  1
  O  O0  1  0.21552886  0.02988952  0.30625912  1
  O  O1  1  0.80463106  0.77760959  0.31037563  1
  O  O2  1  0.97782330  0.19286989  0.30813460  1
  O  O3  1  0.22239041  0.19536894  0.81037563  1
  O  O4  1  0.97011048  0.78447114  0.80625912  1
  O  O5  1  0.80713011  0.02217670  0.80813460  1
  O  O6  1  0.77435263  0.95604448  0.69373256  1
  O  O7  1  0.18631777  0.22299115  0.69592255  1
  O  O8  1  0.03513311  0.81043631  0.69165350  1
  O  O9  1  0.77700885  0.81368223  0.19592255  1
  O  O10  1  0.04395552  0.22564737  0.19373256  1
  O  O11  1  0.18956369  0.96486689  0.19165350  1
  O  O12  1  0.87417191  0.35899424  0.63480256  1
  O  O13  1  0.48170037  0.12694634  0.63442124  1
  O  O14  1  0.64822813  0.52874113  0.63785145  1
  O  O15  1  0.87305366  0.51829963  0.13442124  1
  O  O16  1  0.64100576  0.12582809  0.13480256  1
  O  O17  1  0.47125887  0.35177187  0.13785145  1
  O  O18  1  0.45237804  0.31126036  0.02778186  1
  O  O19  1  0.86547705  0.55258562  0.02516371  1
  O  O20  1  0.69276261  0.14081020  0.02581494  1
  O  O21  1  0.44741438  0.13452295  0.52516371  1
  O  O22  1  0.68873964  0.54762196  0.52778186  1
  O  O23  1  0.85918980  0.30723739  0.52581494  1
  O  O24  1  0.54737888  0.70148287  0.97217370  1
  O  O25  1  0.14502247  0.44902900  0.97724576  1
  O  O26  1  0.30123393  0.85376316  0.97712498  1
  O  O27  1  0.55097100  0.85497753  0.47724576  1
  O  O28  1  0.29851713  0.45262112  0.47217370  1
  O  O29  1  0.14623684  0.69876607  0.47712498  1
  O  O30  1  0.14207629  0.64601177  0.36516878  1
  O  O31  1  0.50439863  0.85745402  0.36535788  1
  O  O32  1  0.35513505  0.48892347  0.36028903  1
  O  O33  1  0.14254598  0.49560137  0.86535788  1
  O  O34  1  0.35398823  0.85792371  0.86516878  1
  O  O35  1  0.51107653  0.64486495  0.86028903  1
  O  O36  1  0.02098687  0.82734412  0.41147864  1
  O  O37  1  0.80727833  0.98070823  0.41159637  1
  O  O38  1  0.17333783  0.19080501  0.41025458  1
  O  O39  1  0.01929177  0.19272167  0.91159637  1
  O  O40  1  0.17265588  0.97901313  0.91147864  1
  O  O41  1  0.80919499  0.82666217  0.91025458  1
  O  O42  1  0.97387031  0.17492637  0.58821828  1
  O  O43  1  0.19425553  0.01445966  0.58734901  1
  O  O44  1  0.82523730  0.80438894  0.58600597  1
  O  O45  1  0.98554034  0.80574447  0.08734901  1
  O  O46  1  0.82507363  0.02612969  0.08821828  1
  O  O47  1  0.19561106  0.17476270  0.08600597  1
  O  O48  1  0.67621293  0.15398963  0.74442459  1
  O  O49  1  0.48448104  0.33555342  0.74544750  1
  O  O50  1  0.83877224  0.52356998  0.74384289  1
  O  O51  1  0.66444658  0.51551896  0.24544750  1
  O  O52  1  0.84601037  0.32378707  0.24442459  1
  O  O53  1  0.47643002  0.16122776  0.24384289  1
  O  O54  1  0.63639224  0.50022123  0.91868969  1
  O  O55  1  0.86336811  0.36319350  0.91918460  1
  O  O56  1  0.50020590  0.13642519  0.91957525  1
  O  O57  1  0.63680650  0.13663189  0.41918460  1
  O  O58  1  0.49977877  0.36360776  0.41868969  1
  O  O59  1  0.86357481  0.49979410  0.41957525  1
  O  O60  1  0.34690494  0.48657564  0.07968898  1
  O  O61  1  0.13614740  0.64540942  0.08028540  1
  O  O62  1  0.50800811  0.86650421  0.07861308  1
  O  O63  1  0.35459058  0.86385260  0.58028540  1
  O  O64  1  0.51342436  0.65309506  0.57968898  1
  O  O65  1  0.13349579  0.49199189  0.57861308  1
  O  O66  1  0.31588495  0.83696730  0.25896662  1
  O  O67  1  0.51717712  0.68329506  0.25949857  1
  O  O68  1  0.16908925  0.47946573  0.25883525  1
  O  O69  1  0.31670494  0.48282288  0.75949857  1
  O  O70  1  0.16303270  0.68411505  0.75896662  1
  O  O71  1  0.52053427  0.83091075  0.75883525  1
loop_
_geom_bond_atom_site_label_1
_geom_bond_atom_site_label_2
_geom_bond_distance
_geom_bond_site_symmetry_2
Na0 O51 2.348118 1_555
Na0 O53 2.409284 1_555
Na0 O68 2.529438 1_555
Na0 O67 2.584445 1_555
Na0 O17 2.627153 1_555
Na0 O10 2.779748 1_555
Na0 O32 2.786024 1_555
Na0 O0 2.834900 1_555
Na1 O49 2.348118 1_555
Na1 O50 2.409284 1_555
Na1 O71 2.529438 1_555
Na1 O69 2.584445 1_555
Na1 O14 2.627153 1_555
Na1 O6 2.779748 1_555
Na1 O35 2.786024 1_555
Na1 O4 2.834900 1_555
Na2 O43 2.436624 1_565
Na2 O44 2.467987 1_455
Na2 O65 2.474280 1_555
Na2 O63 2.507540 1_555
Na2 O8 2.541179 1_555
Na2 O29 2.612755 1_555
Na2 O12 2.886774 1_455
Na2 O22 2.976829 1_455
Na3 O64 2.440448 1_555
Na3 O42 2.444217 1_565
Na3 O63 2.478341 1_555
Na3 O44 2.503431 1_555
Na3 O27 2.597470 1_555
Na3 O6 2.622281 1_555
Na3 O13 2.906785 1_565
Na3 O23 2.970285 1_565
Na4 O45 2.436624 1_455
Na4 O47 2.467987 1_565
Na4 O62 2.474280 1_555
Na4 O61 2.507540 1_555
Na4 O11 2.541179 1_555
Na4 O26 2.612755 1_554
Na4 O16 2.886774 1_565
Na4 O18 2.976829 1_565
Na5 O60 2.440448 1_555
Na5 O46 2.444217 1_455
Na5 O61 2.478341 1_555
Na5 O47 2.503431 1_555
Na5 O25 2.597470 1_554
Na5 O10 2.622281 1_555
Na5 O15 2.906785 1_455
Na5 O20 2.970285 1_455
Na6 O41 2.413067 1_555
Na6 O55 2.447792 1_555
Na6 O40 2.453935 1_655
Na6 O54 2.537133 1_555
Na6 O4 2.590721 1_555
Na6 O19 2.651608 1_556
Na7 O39 2.434828 1_655
Na7 O56 2.452397 1_555
Na7 O41 2.471948 1_545
Na7 O5 2.531307 1_555
Na7 O55 2.560250 1_555
Na7 O20 2.681194 1_556
Na7 O24 2.903053 1_545
Na7 O34 2.951652 1_545
Na8 O40 2.439221 1_545
Na8 O54 2.441184 1_555
Na8 O3 2.452997 1_555
Na8 O39 2.467491 1_555
Na8 O56 2.555359 1_555
Na8 O18 2.751421 1_556
Na9 O37 2.434828 1_545
Na9 O59 2.452397 1_555
Na9 O38 2.471948 1_655
Na9 O2 2.531307 1_555
Na9 O57 2.560250 1_555
Na9 O23 2.681194 1_555
Na9 O28 2.903053 1_655
Na9 O30 2.951652 1_655
Na10 O38 2.413067 1_555
Na10 O57 2.447792 1_555
Na10 O36 2.453935 1_545
Na10 O58 2.537133 1_555
Na10 O0 2.590721 1_555
Na10 O21 2.651608 1_555
Na11 O36 2.439221 1_655
Na11 O58 2.441184 1_555
Na11 O1 2.452997 1_555
Na11 O37 2.467491 1_555
Na11 O59 2.555359 1_555
Na11 O22 2.751421 1_555
Na12 O38 2.486013 1_555
Na12 O43 2.565465 1_555
Na12 O36 2.576830 1_545
Na12 O42 2.581359 1_455
Na12 O37 2.584533 1_445
Na12 O44 2.633324 1_445
Na13 O41 2.486013 1_555
Na13 O45 2.565465 1_556
Na13 O40 2.576830 1_655
Na13 O46 2.581359 1_566
Na13 O39 2.584533 1_665
Na13 O47 2.633324 1_666
Na14 O48 2.420011 1_555
Na14 O49 2.499053 1_555
Na14 O50 2.513758 1_555
Na14 O56 2.584875 1_555
Na14 O55 2.599702 1_555
Na14 O54 2.660149 1_555
Na15 O52 2.420011 1_555
Na15 O51 2.499053 1_555
Na15 O53 2.513758 1_555
Na15 O59 2.584875 1_555
Na15 O57 2.599702 1_555
Na15 O58 2.660150 1_555
Na16 O62 2.462511 1_555
Na16 O60 2.533948 1_555
Na16 O61 2.565078 1_555
Na16 O67 2.610408 1_555
Na16 O66 2.637056 1_555
Na16 O68 2.710226 1_555
Na17 O65 2.462511 1_555
Na17 O64 2.533949 1_555
Na17 O63 2.565078 1_555
Na17 O69 2.610408 1_555
Na17 O70 2.637056 1_555
Na17 O71 2.710226 1_555
Nb0 O66 1.981223 1_555
Nb0 O67 1.983291 1_555
Nb0 O31 1.991869 1_555
Nb0 O30 1.994029 1_555
Nb0 O68 2.001873 1_555
Nb0 O32 2.045401 1_555
Nb1 O70 1.981223 1_555
Nb1 O69 1.983291 1_555
Nb1 O33 1.991869 1_555
Nb1 O34 1.994029 1_555
Nb1 O71 2.001873 1_555
Nb1 O35 2.045401 1_555
O0 P0 1.534193 1_555
O0 Zn0 2.012581 1_445
O1 P1 1.527788 1_555
O1 Zn0 2.001227 1_555
O2 P2 1.527111 1_555
O2 Zn0 2.012387 1_545
O3 P3 1.527788 1_555
O3 Zn1 2.001227 1_555
O4 P4 1.534193 1_555
O4 Zn1 2.012581 1_665
O5 P5 1.527111 1_555
O5 Zn1 2.012388 1_655
O6 P5 1.548520 1_565
O6 Zn2 2.029527 1_665
O7 P3 1.516827 1_555
O7 Zn2 1.930759 1_555
O8 P4 1.536609 1_455
O8 Zn2 2.017501 1_565
O9 P1 1.516827 1_555
O9 Zn3 1.930759 1_555
O10 P2 1.548520 1_455
O10 Zn3 2.029526 1_445
O11 P0 1.536609 1_565
O11 Zn3 2.017501 1_455
O12 S0 1.474043 1_555
O12 Zn4 2.122502 1_555
O13 S1 1.465189 1_555
O13 Zn4 2.087150 1_555
O14 S2 1.469983 1_555
O14 Zn4 2.229059 1_555
O15 S3 1.465189 1_555
O15 Zn5 2.087150 1_555
O16 S4 1.474043 1_555
O16 Zn5 2.122502 1_555
O17 S5 1.469983 1_555
O17 Zn5 2.229059 1_555
O18 S5 1.497558 1_555
O18 Zn6 2.097072 1_554
O19 S3 1.494779 1_555
O19 Zn6 2.102080 1_554
O20 S4 1.506791 1_555
O20 Zn6 2.133276 1_554
O21 S1 1.494779 1_555
O21 Zn7 2.102080 1_555
O22 S2 1.497558 1_555
O22 Zn7 2.097072 1_555
O23 S0 1.506791 1_555
O23 Zn7 2.133276 1_555
O24 P6 1.520429 1_555
O24 Zn8 1.936639 1_556
O25 P7 1.532987 1_555
O25 Zn8 1.997381 1_556
O26 P8 1.533754 1_555
O26 Zn8 1.999816 1_556
O27 P9 1.532987 1_555
O27 Zn9 1.997381 1_555
O28 P10 1.520429 1_555
O28 Zn9 1.936639 1_555
O29 P11 1.533754 1_555
O29 Zn9 1.999816 1_555
O30 P11 1.591168 1_555
O31 P9 1.590214 1_555
O32 P10 1.592164 1_555
O33 P7 1.590214 1_555
O34 P8 1.591168 1_555
O35 P6 1.592164 1_555
O36 P11 1.536011 1_555
O36 Zn0 2.243592 1_455
O37 P9 1.536407 1_555
O37 Zn0 2.223934 1_555
O38 P10 1.540601 1_555
O38 Zn0 2.229912 1_445
O39 P7 1.536407 1_555
O39 Zn1 2.223934 1_555
O40 P8 1.536011 1_555
O40 Zn1 2.243592 1_565
O41 P6 1.540601 1_555
O41 Zn1 2.229912 1_665
O42 S0 1.492885 1_555
O42 Zn2 2.366361 1_655
O43 S1 1.492424 1_555
O43 Zn2 2.345747 1_555
O44 S2 1.511615 1_555
O44 Zn2 2.440128 1_665
O45 S3 1.492424 1_555
O45 Zn3 2.345747 1_555
O46 S4 1.492885 1_555
O46 Zn3 2.366361 1_545
O47 S5 1.511615 1_555
O47 Zn3 2.440128 1_445
O48 P5 1.518877 1_555
O48 Zn4 2.017881 1_555
O49 P3 1.539638 1_555
O49 Zn4 2.084923 1_555
O50 P4 1.535612 1_555
O50 Zn4 2.088385 1_555
O51 P1 1.539638 1_555
O51 Zn5 2.084923 1_555
O52 P2 1.518877 1_555
O52 Zn5 2.017881 1_555
O53 P0 1.535612 1_555
O53 Zn5 2.088385 1_555
O54 P6 1.553598 1_555
O54 Zn6 2.148765 1_555
O55 P7 1.548908 1_655
O55 Zn6 2.152461 1_555
O56 P8 1.548963 1_545
O56 Zn6 2.159173 1_555
O57 P9 1.548908 1_545
O57 Zn7 2.152461 1_555
O58 P10 1.553598 1_555
O58 Zn7 2.148765 1_555
O59 P11 1.548963 1_655
O59 Zn7 2.159173 1_555
O60 S5 1.494209 1_555
O60 Zn8 2.288166 1_555
O61 S3 1.516601 1_455
O61 Zn8 2.324585 1_555
O62 S4 1.495960 1_565
O62 Zn8 2.260144 1_555
O63 S1 1.516601 1_565
O63 Zn9 2.324585 1_555
O64 S2 1.494209 1_555
O64 Zn9 2.288166 1_555
O65 S0 1.495960 1_455
O65 Zn9 2.260144 1_555
O66 P0 1.598539 1_565
O67 P1 1.625625 1_555
O68 P2 1.621358 1_455
O69 P3 1.625625 1_555
O70 P4 1.598539 1_455
O71 P5 1.621358 1_565
