# generated using pymatgen
data_Mn2P
_symmetry_space_group_name_H-M   'P 1'
_cell_length_a   6.16014565
_cell_length_b   6.17502228
_cell_length_c   3.41256157
_cell_angle_alpha   90.00000052
_cell_angle_beta   89.99999948
_cell_angle_gamma   120.06772415
_symmetry_Int_Tables_number   1
_chemical_formula_structural   Mn2P
_chemical_formula_sum   'Mn6 P3'
_cell_volume   112.34244078
_cell_formula_units_Z   3
loop_
 _symmetry_equiv_pos_site_id
 _symmetry_equiv_pos_as_xyz
  1  'x, y, z'
loop_
 _atom_site_type_symbol
 _atom_site_label
 _atom_site_symmetry_multiplicity
 _atom_site_fract_x
 _atom_site_fract_y
 _atom_site_fract_z
 _atom_site_occupancy
  Mn  Mn0  1  0.25123474  0.25390671  -0.00000002  1
  Mn  Mn1  1  0.74881010  0.00264209  -0.00000003  1
  Mn  Mn2  1  0.57980257  0.59761951  0.50000005  1
  Mn  Mn3  1  -0.00001417  0.73672955  -0.00000004  1
  Mn  Mn4  1  0.42043798  0.01764856  0.50000006  1
  Mn  Mn5  1  -0.00019366  0.39691776  0.49999999  1
  P  P0  1  0.33658218  0.67197519  -0.00000000  1
  P  P1  1  0.00003833  -0.01279486  0.49999998  1
  P  P2  1  0.66330193  0.33535549  0.00000001  1
loop_
_geom_bond_atom_site_label_1
_geom_bond_atom_site_label_2
_geom_bond_distance
_geom_bond_site_symmetry_2
Mn0 P2 2.327468 1_555
Mn0 P1 2.337623 1_554
Mn0 P1 2.337623 1_555
Mn0 P0 2.362399 1_555
Mn1 P0 2.328521 1_545
Mn1 P1 2.337387 1_654
Mn1 P1 2.337387 1_655
Mn1 P2 2.362815 1_555
Mn2 P0 2.460969 1_556
Mn2 P0 2.460969 1_555
Mn2 P1 2.499683 1_665
Mn2 P2 2.575543 1_556
Mn2 P2 2.575543 1_555
Mn3 P0 2.300004 1_555
Mn3 P2 2.300767 1_455
Mn3 P1 2.302857 1_564
Mn3 P1 2.302857 1_565
Mn4 P2 2.461179 1_556
Mn4 P2 2.461180 1_555
Mn4 P1 2.500834 1_555
Mn4 P0 2.574803 1_546
Mn4 P0 2.574804 1_545
Mn5 P1 2.530701 1_555
Mn5 P2 2.561886 1_455
Mn5 P2 2.561886 1_456
Mn5 P0 2.563063 1_555
Mn5 P0 2.563063 1_556
