# generated using pymatgen
data_NaMgV4O10
_symmetry_space_group_name_H-M   'P 1'
_cell_length_a   3.75463509
_cell_length_b   6.32916424
_cell_length_c   8.97465031
_cell_angle_alpha   78.93821885
_cell_angle_beta   89.35706776
_cell_angle_gamma   72.88972465
_symmetry_Int_Tables_number   1
_chemical_formula_structural   NaMgV4O10
_chemical_formula_sum   'Na1 Mg1 V4 O10'
_cell_volume   199.81189456
_cell_formula_units_Z   1
loop_
 _symmetry_equiv_pos_site_id
 _symmetry_equiv_pos_as_xyz
  1  'x, y, z'
loop_
 _atom_site_type_symbol
 _atom_site_label
 _atom_site_symmetry_multiplicity
 _atom_site_fract_x
 _atom_site_fract_y
 _atom_site_fract_z
 _atom_site_occupancy
  Na  Na0  1  0.50000000  0.00000000  0.50000000  1
  Mg  Mg0  1  0.00000000  0.50000000  0.50000000  1
  V  V0  1  0.08224000  0.82257200  0.15520500  1
  V  V1  1  0.21312300  0.57679500  0.84718700  1
  V  V2  1  0.78687700  0.42320500  0.15281300  1
  V  V3  1  0.91776000  0.17742800  0.84479500  1
  O  O0  1  0.06464900  0.87417500  0.90266500  1
  O  O1  1  0.08593600  0.76318700  0.35353000  1
  O  O2  1  0.14023900  0.66426600  0.65226500  1
  O  O3  1  0.61689700  0.75138500  0.13738800  1
  O  O4  1  0.75026700  0.50155400  0.89415600  1
  O  O5  1  0.24973300  0.49844600  0.10584400  1
  O  O6  1  0.38310300  0.24861500  0.86261200  1
  O  O7  1  0.85976100  0.33573400  0.34773500  1
  O  O8  1  0.91406400  0.23681300  0.64647000  1
  O  O9  1  0.93535100  0.12582500  0.09733500  1
loop_
_geom_bond_atom_site_label_1
_geom_bond_atom_site_label_2
_geom_bond_distance
_geom_bond_site_symmetry_2
Na0 O1 2.750495 1_645
Na0 O8 2.750495 1_455
Na0 O2 2.848684 1_645
Na0 O7 2.848684 1_455
Na0 O8 2.926507 1_555
Na0 O1 2.926507 1_545
Na0 O2 2.956431 1_545
Na0 O7 2.956431 1_555
Mg0 O1 2.018240 1_555
Mg0 O8 2.018240 1_455
Mg0 O2 2.027067 1_555
Mg0 O7 2.027067 1_455
O0 V3 1.805215 1_465
O0 V1 1.958877 1_555
O0 V0 2.225866 1_556
O1 V0 1.746502 1_555
O2 V1 1.729621 1_555
O3 V0 1.935620 1_555
O3 V0 1.943805 1_655
O3 V2 1.962767 1_555
O4 V1 1.953998 1_655
O4 V1 1.961832 1_555
O4 V3 2.093685 1_555
O4 V2 2.275701 1_556
O5 V2 1.953998 1_455
O5 V2 1.961832 1_555
O5 V0 2.093685 1_555
O5 V1 2.275701 1_554
O6 V3 1.935620 1_555
O6 V3 1.943805 1_455
O6 V1 1.962767 1_555
O7 V2 1.729621 1_555
O8 V3 1.746502 1_555
O9 V0 1.805215 1_645
O9 V2 1.958877 1_555
O9 V3 2.225866 1_554
