# generated using pymatgen
data_MgMoP2O7
_symmetry_space_group_name_H-M   'P 1'
_cell_length_a   5.25939689
_cell_length_b   5.98957288
_cell_length_c   5.01931328
_cell_angle_alpha   88.09672554
_cell_angle_beta   97.08136453
_cell_angle_gamma   74.28599762
_symmetry_Int_Tables_number   1
_chemical_formula_structural   MgMoP2O7
_chemical_formula_sum   'Mg1 Mo1 P2 O7'
_cell_volume   150.67805249
_cell_formula_units_Z   1
loop_
 _symmetry_equiv_pos_site_id
 _symmetry_equiv_pos_as_xyz
  1  'x, y, z'
loop_
 _atom_site_type_symbol
 _atom_site_label
 _atom_site_symmetry_multiplicity
 _atom_site_fract_x
 _atom_site_fract_y
 _atom_site_fract_z
 _atom_site_occupancy
  Mg  Mg0  1  0.72732216  0.79487399  0.55580819  1
  Mo  Mo0  1  0.14857114  0.10959160  0.97590522  1
  P  P0  1  0.24397718  0.66879744  0.58004115  1
  P  P1  1  0.68203280  0.24744275  0.40280872  1
  O  O0  1  0.51114844  0.50624124  0.47165304  1
  O  O1  1  0.09588259  0.55047371  0.75645574  1
  O  O2  1  0.04818825  0.78652379  0.33373881  1
  O  O3  1  0.39163016  0.83130189  0.73343866  1
  O  O4  1  0.79814248  0.11125928  0.67979640  1
  O  O5  1  0.87481638  0.31217189  0.23751973  1
  O  O6  1  0.50224943  0.10529042  0.27283134  1
loop_
_geom_bond_atom_site_label_1
_geom_bond_atom_site_label_2
_geom_bond_distance
_geom_bond_site_symmetry_2
Mg0 O3 2.037651 1_555
Mg0 O2 2.124746 1_655
Mg0 O4 2.126177 1_565
Mg0 O1 2.190500 1_655
Mg0 O6 2.256852 1_565
Mg0 O0 2.335495 1_555
Mo0 O5 2.212516 1_456
Mo0 O4 2.218005 1_455
Mo0 O6 2.229331 1_556
Mo0 O3 2.292984 1_545
Mo0 O1 2.756536 1_555
Mo0 O2 2.793801 1_546
O0 P1 1.639349 1_555
O0 P0 1.643478 1_555
O1 P0 1.523279 1_555
O2 P0 1.523428 1_555
O3 P0 1.566856 1_555
O4 P1 1.554568 1_555
O5 P1 1.505198 1_555
O6 P1 1.538023 1_555
