# generated using pymatgen
data_Na4MgZr3Si3(SO8)3
_symmetry_space_group_name_H-M   'P 1'
_cell_length_a   9.07012483
_cell_length_b   9.07129016
_cell_length_c   23.21095005
_cell_angle_alpha   89.75687896
_cell_angle_beta   90.14390818
_cell_angle_gamma   120.13798709
_symmetry_Int_Tables_number   1
_chemical_formula_structural   Na4MgZr3Si3(SO8)3
_chemical_formula_sum   'Na12 Mg3 Zr9 Si9 S9 O72'
_cell_volume   1651.56767511
_cell_formula_units_Z   3
loop_
 _symmetry_equiv_pos_site_id
 _symmetry_equiv_pos_as_xyz
  1  'x, y, z'
loop_
 _atom_site_type_symbol
 _atom_site_label
 _atom_site_symmetry_multiplicity
 _atom_site_fract_x
 _atom_site_fract_y
 _atom_site_fract_z
 _atom_site_occupancy
  Na  Na0  1  0.63058826  0.00944686  0.23785085  1
  Na  Na1  1  0.37832528  0.35342429  0.25143985  1
  Na  Na2  1  0.99180565  0.64769049  0.24633055  1
  Na  Na3  1  0.99088050  0.35015184  0.75634577  1
  Na  Na4  1  0.38341361  0.01907968  0.75666985  1
  Na  Na5  1  0.70098718  0.67757699  0.40193838  1
  Na  Na6  1  0.00865170  0.02385576  0.48544780  1
  Na  Na7  1  0.00253525  0.01498309  0.00047555  1
  Na  Na8  1  0.65664838  0.32471006  0.83483303  1
  Na  Na9  1  0.64198350  0.31537064  0.32215030  1
  Na  Na10  1  0.35408198  0.69143353  0.16198103  1
  Na  Na11  1  0.35736289  0.66464668  0.67306013  1
  Mg  Mg0  1  0.00770953  0.00586090  0.35169754  1
  Mg  Mg1  1  0.66057843  0.33151722  0.68816007  1
  Mg  Mg2  1  0.64819827  0.31749446  0.18333477  1
  Zr  Zr0  1  0.01057450  0.02409203  0.85572789  1
  Zr  Zr1  1  0.99277588  0.00720807  0.64953172  1
  Zr  Zr2  1  0.99000139  0.98866410  0.14898456  1
  Zr  Zr3  1  0.66607812  0.31008491  0.97938337  1
  Zr  Zr4  1  0.65517372  0.32107347  0.47703855  1
  Zr  Zr5  1  0.33200003  0.67682283  0.01944114  1
  Zr  Zr6  1  0.34238191  0.66207680  0.51621533  1
  Zr  Zr7  1  0.35184025  0.67988043  0.31440444  1
  Zr  Zr8  1  0.34127587  0.66828510  0.81685594  1
  Si  Si0  1  0.28998205  0.00201654  0.25257076  1
  Si  Si1  1  0.70974535  0.70056552  0.25424802  1
  Si  Si2  1  0.30057713  0.29949959  0.74851633  1
  Si  Si3  1  0.70226758  0.00051708  0.74935529  1
  Si  Si4  1  0.66995026  0.03655420  0.08856404  1
  Si  Si5  1  0.04221703  0.38224157  0.91703356  1
  Si  Si6  1  0.32671510  0.95854748  0.91430672  1
  Si  Si7  1  0.63878474  0.96324717  0.41619752  1
  Si  Si8  1  0.32273009  0.36346415  0.41535593  1
  S  S0  1  -0.00067410  0.29137762  0.25118370  1
  S  S1  1  0.99637090  0.70759265  0.74870163  1
  S  S2  1  0.95692704  0.33734319  0.58532117  1
  S  S3  1  0.37231468  0.03799996  0.58537206  1
  S  S4  1  0.66939035  0.62262379  0.58404026  1
  S  S5  1  0.95395335  0.62011834  0.08500342  1
  S  S6  1  0.37630778  0.33541177  0.08456187  1
  S  S7  1  0.62768012  0.66582822  0.91875625  1
  S  S8  1  0.04141334  0.66551418  0.41861773  1
  O  O0  1  0.20407352  0.04052315  0.30598407  1
  O  O1  1  0.81649388  0.78170768  0.31251119  1
  O  O2  1  0.96754077  0.18390284  0.30210152  1
  O  O3  1  0.20610929  0.17309228  0.80396114  1
  O  O4  1  0.97221995  0.78353428  0.80045789  1
  O  O5  1  0.82570014  0.02147164  0.80353418  1
  O  O6  1  0.79256374  0.96796738  0.69193872  1
  O  O7  1  0.16883592  0.19881680  0.69315962  1
  O  O8  1  0.02397456  0.81883437  0.69670387  1
  O  O9  1  0.79802636  0.83340654  0.19878526  1
  O  O10  1  0.03235292  0.21568151  0.19890007  1
  O  O11  1  0.17091175  0.97172632  0.19432503  1
  O  O12  1  0.87752205  0.35245705  0.63808124  1
  O  O13  1  0.47338232  0.11767076  0.63716856  1
  O  O14  1  0.65067707  0.51861790  0.63476719  1
  O  O15  1  0.87561100  0.52620847  0.13831397  1
  O  O16  1  0.64766964  0.11854325  0.14662494  1
  O  O17  1  0.47332035  0.35747952  0.13802131  1
  O  O18  1  0.46563434  0.31999946  0.03327227  1
  O  O19  1  0.85086951  0.53636648  0.03329453  1
  O  O20  1  0.68628159  0.15293176  0.03060229  1
  O  O21  1  0.45977449  0.14522713  0.53322286  1
  O  O22  1  0.68412184  0.54319673  0.53031611  1
  O  O23  1  0.85279256  0.32015025  0.53374850  1
  O  O24  1  0.54525486  0.69099092  0.96924037  1
  O  O25  1  0.16475617  0.47568433  0.97158426  1
  O  O26  1  0.31711119  0.84383250  0.96992486  1
  O  O27  1  0.52581401  0.84012158  0.47121657  1
  O  O28  1  0.31037843  0.46904759  0.47217288  1
  O  O29  1  0.14811208  0.68037356  0.46974158  1
  O  O30  1  0.11265340  0.63582676  0.36570849  1
  O  O31  1  0.51981912  0.88293561  0.35842877  1
  O  O32  1  0.36222057  0.48902549  0.35944403  1
  O  O33  1  0.12989207  0.48358246  0.85607467  1
  O  O34  1  0.35846055  0.87585715  0.85548170  1
  O  O35  1  0.52193641  0.64099308  0.86530278  1
  O  O36  1  0.02138718  0.81509266  0.41576845  1
  O  O37  1  0.81348753  0.96223422  0.41409549  1
  O  O38  1  0.16389444  0.17777153  0.41345382  1
  O  O39  1  0.01520260  0.18906221  0.91341647  1
  O  O40  1  0.15055520  0.96340389  0.91045961  1
  O  O41  1  0.79688278  0.81849188  0.91099531  1
  O  O42  1  0.97535720  0.18079844  0.58690564  1
  O  O43  1  0.20001673  0.02039493  0.58785803  1
  O  O44  1  0.82331830  0.79619906  0.58752544  1
  O  O45  1  0.97811522  0.79658871  0.08680595  1
  O  O46  1  0.84460624  0.02193198  0.08778830  1
  O  O47  1  0.20397632  0.17917569  0.08763969  1
  O  O48  1  0.69664669  0.17591407  0.74262882  1
  O  O49  1  0.48208431  0.31171857  0.74194360  1
  O  O50  1  0.85200779  0.53398323  0.73954075  1
  O  O51  1  0.69008760  0.51480748  0.24220824  1
  O  O52  1  0.85261501  0.31838960  0.24269359  1
  O  O53  1  0.48491935  0.16004217  0.24545406  1
  O  O54  1  0.64174628  0.51235137  0.92484583  1
  O  O55  1  0.85627036  0.37008233  0.92200811  1
  O  O56  1  0.49240803  0.15102054  0.92100320  1
  O  O57  1  0.65597907  0.15104997  0.42596103  1
  O  O58  1  0.51030756  0.37146416  0.42639586  1
  O  O59  1  0.86702288  0.51143334  0.42734435  1
  O  O60  1  0.35523588  0.48742953  0.07802156  1
  O  O61  1  0.12810014  0.63845900  0.07989561  1
  O  O62  1  0.50175080  0.84393176  0.07897826  1
  O  O63  1  0.35254098  0.86561764  0.57796928  1
  O  O64  1  0.51370757  0.64316629  0.58022264  1
  O  O65  1  0.13092320  0.49016867  0.57933556  1
  O  O66  1  0.29488810  0.81871597  0.25633456  1
  O  O67  1  0.51452801  0.68010858  0.25462234  1
  O  O68  1  0.15623053  0.46385352  0.25726829  1
  O  O69  1  0.29775445  0.47856578  0.75320160  1
  O  O70  1  0.15694176  0.69699616  0.75229973  1
  O  O71  1  0.50706359  0.83787428  0.75265596  1
loop_
_geom_bond_atom_site_label_1
_geom_bond_atom_site_label_2
_geom_bond_distance
_geom_bond_site_symmetry_2
Na0 O16 2.305830 1_555
Na0 O53 2.336384 1_555
Na0 O52 2.501282 1_555
Na0 O67 2.649367 1_545
Na0 O66 2.675598 1_545
Na0 O9 2.851885 1_545
Na1 O53 2.395243 1_555
Na1 O51 2.455313 1_555
Na1 O67 2.576587 1_555
Na1 O68 2.666186 1_555
Na1 O0 2.762633 1_555
Na1 O17 2.766372 1_555
Na1 O32 2.833251 1_555
Na2 O51 2.374536 1_555
Na2 O66 2.394791 1_655
Na2 O52 2.595934 1_555
Na2 O15 2.730372 1_555
Na2 O68 2.749822 1_655
Na2 O11 2.814434 1_655
Na2 O1 2.887090 1_555
Na2 O30 2.998574 1_655
Na3 O48 2.342225 1_555
Na3 O69 2.419499 1_655
Na3 O50 2.573095 1_555
Na3 O33 2.624830 1_655
Na3 O70 2.723284 1_655
Na3 O5 2.798011 1_555
Na3 O12 2.932526 1_555
Na3 O7 2.982417 1_655
Na4 O49 2.360703 1_555
Na4 O71 2.412775 1_545
Na4 O48 2.478672 1_555
Na4 O34 2.584849 1_545
Na4 O70 2.596347 1_545
Na4 O3 2.832136 1_555
Na4 O13 2.901180 1_555
Na5 O37 2.268813 1_555
Na5 O1 2.301932 1_555
Na5 O58 2.488624 1_555
Na5 O36 2.542211 1_655
Na5 O59 2.674750 1_555
Na5 O32 2.839235 1_555
Na6 O38 2.177691 1_555
Na6 O37 2.277784 1_445
Na6 O36 2.542040 1_545
Na6 O42 2.850876 1_455
Na6 O43 2.949123 1_555
Na6 O44 3.032614 1_445
Na7 O46 2.503865 1_455
Na7 O39 2.526272 1_554
Na7 O47 2.631389 1_555
Na7 O40 2.653294 1_544
Na7 O45 2.741725 1_445
Na7 O41 2.764655 1_444
Na8 O56 2.516607 1_555
Na8 O55 2.604269 1_555
Na8 O49 2.639504 1_555
Na8 O48 2.655912 1_555
Na8 O54 2.746508 1_555
Na8 O50 2.870886 1_555
Na9 O53 2.275258 1_555
Na9 O51 2.467655 1_555
Na9 O52 2.648893 1_555
Na9 O58 2.859227 1_555
Na9 O57 2.863897 1_555
Na10 O62 2.355647 1_555
Na10 O67 2.623860 1_555
Na10 O61 2.657311 1_555
Na10 O66 2.658478 1_555
Na10 O60 2.696785 1_555
Na10 O68 2.938532 1_555
Na11 O71 2.365513 1_555
Na11 O69 2.379875 1_555
Na11 O64 2.643601 1_555
Na11 O70 2.707485 1_555
Na11 O65 2.863280 1_555
Na11 O63 2.870962 1_555
Mg0 O0 1.959882 1_555
Mg0 O38 2.069736 1_555
Mg0 O1 2.106257 1_445
Mg0 O2 2.153922 1_455
Mg0 O37 2.159958 1_445
Mg0 O36 2.326905 1_545
Mg1 O49 1.981916 1_555
Mg1 O48 2.035748 1_555
Mg1 O14 2.135232 1_555
Mg1 O50 2.148525 1_555
Mg1 O13 2.179153 1_555
Mg1 O12 2.212093 1_555
Mg2 O16 1.996870 1_555
Mg2 O53 2.044842 1_555
Mg2 O17 2.078414 1_555
Mg2 O51 2.133225 1_555
Mg2 O15 2.236887 1_555
Mg2 O52 2.303933 1_555
O0 Si0 1.596261 1_555
O1 Si1 1.610684 1_555
O2 S0 1.462900 1_655
O3 Si2 1.646700 1_555
O3 Zr0 2.001451 1_555
O4 S1 1.457936 1_555
O4 Zr0 2.405796 1_665
O5 Si3 1.628557 1_555
O5 Zr0 2.056696 1_655
O6 Si3 1.669031 1_565
O6 Zr1 1.936528 1_565
O7 Si2 1.679061 1_555
O7 Zr1 1.953524 1_455
O8 S1 1.508347 1_455
O8 Zr1 2.160325 1_465
O9 Si1 1.665418 1_555
O9 Zr2 1.971130 1_555
O10 S0 1.499800 1_555
O10 Zr2 2.225852 1_445
O11 Si0 1.663560 1_565
O11 Zr2 2.016619 1_455
O12 S2 1.463621 1_555
O13 S3 1.464449 1_555
O14 S4 1.461517 1_555
O15 S5 1.466074 1_555
O16 Si4 1.603421 1_555
O17 S6 1.474369 1_555
O18 S6 1.487691 1_555
O18 Zr3 2.248221 1_554
O19 S5 1.476720 1_555
O19 Zr3 2.268258 1_554
O20 Si4 1.666827 1_555
O20 Zr3 1.930298 1_554
O21 S3 1.503515 1_555
O21 Zr4 2.131030 1_555
O22 S4 1.482261 1_555
O22 Zr4 2.268576 1_555
O23 S2 1.482343 1_555
O23 Zr4 2.224549 1_555
O24 S7 1.470417 1_555
O24 Zr5 2.208158 1_556
O25 Si5 1.616481 1_555
O25 Zr5 2.023239 1_556
O26 Si6 1.629465 1_555
O26 Zr5 1.955573 1_556
O27 Si7 1.665383 1_555
O27 Zr6 1.940001 1_555
O28 Si8 1.669811 1_555
O28 Zr6 1.923194 1_555
O29 S8 1.492462 1_555
O29 Zr6 2.139761 1_555
O30 S8 1.476393 1_555
O30 Zr7 2.328655 1_555
O31 Si7 1.644576 1_555
O31 Zr7 1.987059 1_555
O32 Si8 1.640105 1_555
O32 Zr7 2.060820 1_555
O33 Si5 1.655290 1_555
O33 Zr8 2.020378 1_555
O34 Si6 1.654507 1_555
O34 Zr8 2.022987 1_555
O35 S7 1.513081 1_555
O35 Zr8 2.099188 1_555
O36 S8 1.457782 1_555
O37 Si7 1.590082 1_555
O38 Si8 1.574274 1_555
O39 Si5 1.645576 1_555
O39 Zr0 1.996956 1_555
O40 Si6 1.622586 1_555
O40 Zr0 2.053474 1_565
O41 S7 1.473308 1_555
O41 Zr0 2.289748 1_665
O42 S2 1.511216 1_555
O42 Zr1 2.201552 1_555
O43 S3 1.490243 1_555
O43 Zr1 2.320143 1_455
O44 S4 1.492657 1_555
O44 Zr1 2.270595 1_565
O45 S5 1.503537 1_555
O45 Zr2 2.227625 1_555
O46 Si4 1.654877 1_555
O46 Zr2 2.057759 1_545
O47 S6 1.494024 1_555
O47 Zr2 2.325006 1_445
O48 Si3 1.624133 1_555
O49 Si2 1.601162 1_555
O50 S1 1.473311 1_555
O51 Si1 1.628306 1_555
O52 S0 1.481653 1_655
O53 Si0 1.631783 1_555
O54 S7 1.466687 1_555
O54 Zr3 2.324476 1_555
O55 Si5 1.638307 1_655
O55 Zr3 2.026866 1_555
O56 Si6 1.642381 1_545
O56 Zr3 2.030513 1_555
O57 Si7 1.647508 1_545
O57 Zr4 1.952246 1_555
O58 Si8 1.685085 1_555
O58 Zr4 1.976853 1_555
O59 S8 1.508545 1_655
O59 Zr4 2.160280 1_555
O60 S6 1.491289 1_555
O60 Zr5 2.277545 1_555
O61 S5 1.507828 1_455
O61 Zr5 2.207480 1_555
O62 Si4 1.659781 1_565
O62 Zr5 2.059508 1_555
O63 S3 1.492462 1_565
O63 Zr6 2.307184 1_555
O64 S4 1.516561 1_555
O64 Zr6 2.214793 1_555
O65 S2 1.494759 1_455
O65 Zr6 2.290890 1_555
O66 Si0 1.687445 1_565
O66 Zr7 2.074865 1_555
O67 Si1 1.685174 1_555
O67 Zr7 2.027319 1_555
O68 S0 1.502716 1_555
O68 Zr7 2.294712 1_555
O69 Si2 1.641434 1_555
O69 Zr8 2.153384 1_555
O70 S1 1.509042 1_455
O70 Zr8 2.351552 1_555
O71 Si3 1.641344 1_565
O71 Zr8 2.125368 1_555
