# generated using pymatgen
data_RbIn5S8
_symmetry_space_group_name_H-M   'P 1'
_cell_length_a   9.75765081
_cell_length_b   9.75765081
_cell_length_c   9.32184814
_cell_angle_alpha   77.60639825
_cell_angle_beta   77.60639825
_cell_angle_gamma   22.98657797
_symmetry_Int_Tables_number   1
_chemical_formula_structural   RbIn5S8
_chemical_formula_sum   'Rb1 In5 S8'
_cell_volume   338.18659986
_cell_formula_units_Z   1
loop_
 _symmetry_equiv_pos_site_id
 _symmetry_equiv_pos_as_xyz
  1  'x, y, z'
loop_
 _atom_site_type_symbol
 _atom_site_label
 _atom_site_symmetry_multiplicity
 _atom_site_fract_x
 _atom_site_fract_y
 _atom_site_fract_z
 _atom_site_occupancy
  Rb  Rb0  1  0.50000000  0.50000000  0.50000000  1
  In  In0  1  0.28870610  0.28870610  0.33871713  1
  In  In1  1  0.35232551  0.35232551  0.91942506  1
  In  In2  1  0.64767449  0.64767449  0.08057494  1
  In  In3  1  0.71129390  0.71129390  0.66128287  1
  In  In4  1  -0.00000000  -0.00000000  0.00000000  1
  S  S0  1  0.16556630  0.16556630  0.52055794  1
  S  S1  1  0.07351690  0.07351690  0.20675269  1
  S  S2  1  0.92648310  0.92648310  0.79324731  1
  S  S3  1  0.41629460  0.41629460  0.13033134  1
  S  S4  1  0.58370540  0.58370540  0.86966866  1
  S  S5  1  0.23661830  0.23661830  0.84689685  1
  S  S6  1  0.76338170  0.76338170  0.15310315  1
  S  S7  1  0.83443370  0.83443370  0.47944206  1
loop_
_geom_bond_atom_site_label_1
_geom_bond_atom_site_label_2
_geom_bond_distance
_geom_bond_site_symmetry_2
Rb0 S1 3.397918 1_565
Rb0 S1 3.397918 1_655
Rb0 S2 3.397918 1_545
Rb0 S2 3.397918 1_455
Rb0 S0 3.756058 1_565
Rb0 S0 3.756058 1_655
Rb0 S7 3.756058 1_545
Rb0 S7 3.756058 1_455
In0 S0 2.582720 1_555
In0 S7 2.601574 1_545
In0 S7 2.601574 1_455
In0 S6 2.715789 1_455
In0 S6 2.715789 1_545
In0 S3 2.766019 1_555
In1 S5 2.451294 1_555
In1 S3 2.532865 1_556
In1 S2 2.538528 1_455
In1 S2 2.538528 1_545
In1 S6 3.129755 1_456
In1 S6 3.129755 1_546
In2 S6 2.451294 1_555
In2 S4 2.532865 1_554
In2 S1 2.538528 1_565
In2 S1 2.538528 1_655
In2 S5 3.129755 1_564
In2 S5 3.129755 1_654
In3 S7 2.582720 1_555
In3 S0 2.601574 1_565
In3 S0 2.601574 1_655
In3 S5 2.715789 1_565
In3 S5 2.715789 1_655
In3 S4 2.766019 1_555
In4 S2 2.622622 1_444
In4 S1 2.622622 1_555
In4 S4 2.639455 1_454
In4 S4 2.639455 1_544
In4 S3 2.639455 1_455
In4 S3 2.639455 1_545
