# generated using pymatgen
data_Sr2Cu(ClO)2
_symmetry_space_group_name_H-M   'P 1'
_cell_length_a   8.51377152
_cell_length_b   8.51377152
_cell_length_c   8.51377152
_cell_angle_alpha   152.89888020
_cell_angle_beta   152.89888020
_cell_angle_gamma   38.70207142
_symmetry_Int_Tables_number   1
_chemical_formula_structural   Sr2Cu(ClO)2
_chemical_formula_sum   'Sr2 Cu1 Cl2 O2'
_cell_volume   127.85791715
_cell_formula_units_Z   1
loop_
 _symmetry_equiv_pos_site_id
 _symmetry_equiv_pos_as_xyz
  1  'x, y, z'
loop_
 _atom_site_type_symbol
 _atom_site_label
 _atom_site_symmetry_multiplicity
 _atom_site_fract_x
 _atom_site_fract_y
 _atom_site_fract_z
 _atom_site_occupancy
  Sr  Sr0  1  0.60645900  0.60645900  0.00000000  1
  Sr  Sr1  1  0.39354100  0.39354100  0.00000000  1
  Cu  Cu0  1  0.00000000  0.00000000  0.00000000  1
  Cl  Cl0  1  0.18240900  0.18240900  0.00000000  1
  Cl  Cl1  1  0.81759100  0.81759100  0.00000000  1
  O  O0  1  0.00000000  0.50000000  0.50000000  1
  O  O1  1  0.50000000  0.00000000  0.50000000  1
loop_
_geom_bond_atom_site_label_1
_geom_bond_atom_site_label_2
_geom_bond_distance
_geom_bond_site_symmetry_2
Cu0 O0 1.994805 1_555
Cu0 O1 1.994805 1_454
Cu0 O0 1.994805 1_544
Cu0 O1 1.994805 1_555
Cl0 Cu0 2.930509 1_555
Cl0 Sr0 3.073652 1_444
Cl0 Sr0 3.073652 1_455
Cl0 Sr0 3.073652 1_545
Cl0 Sr0 3.073652 1_556
Cl0 Sr1 3.391961 1_555
Cl1 Cu0 2.930509 1_665
Cl1 Sr1 3.073652 1_666
Cl1 Sr1 3.073652 1_655
Cl1 Sr1 3.073652 1_565
Cl1 Sr1 3.073652 1_554
Cl1 Sr0 3.391961 1_555
O0 Sr0 2.627635 1_455
O0 Sr0 2.627635 1_556
O0 Sr1 2.627635 1_556
O0 Sr1 2.627635 1_455
O1 Sr0 2.627635 1_556
O1 Sr0 2.627635 1_545
O1 Sr1 2.627635 1_556
O1 Sr1 2.627635 1_545
