# generated using pymatgen
data_LiV3O8
_symmetry_space_group_name_H-M   'P 1'
_cell_length_a   3.55714582
_cell_length_b   6.65795358
_cell_length_c   11.71823736
_cell_angle_alpha   75.55705767
_cell_angle_beta   90.00000000
_cell_angle_gamma   90.00000000
_symmetry_Int_Tables_number   1
_chemical_formula_structural   LiV3O8
_chemical_formula_sum   'Li2 V6 O16'
_cell_volume   268.75585436
_cell_formula_units_Z   2
loop_
 _symmetry_equiv_pos_site_id
 _symmetry_equiv_pos_as_xyz
  1  'x, y, z'
loop_
 _atom_site_type_symbol
 _atom_site_label
 _atom_site_symmetry_multiplicity
 _atom_site_fract_x
 _atom_site_fract_y
 _atom_site_fract_z
 _atom_site_occupancy
  Li  Li0  1  0.25000000  0.81607461  0.68217140  1
  Li  Li1  1  0.75000000  0.18392539  0.31782860  1
  V  V0  1  0.25000000  0.30343420  0.53853138  1
  V  V1  1  0.75000000  0.69656580  0.46146862  1
  V  V2  1  0.25000000  0.13012649  0.08093455  1
  V  V3  1  0.75000000  0.86987351  0.91906545  1
  V  V4  1  0.25000000  0.27084216  0.80696891  1
  V  V5  1  0.75000000  0.72915784  0.19303109  1
  O  O0  1  0.25000000  0.60714514  0.45819065  1
  O  O1  1  0.75000000  0.39285486  0.54180935  1
  O  O2  1  0.25000000  0.94917382  0.92863410  1
  O  O3  1  0.75000000  0.05082618  0.07136590  1
  O  O4  1  0.25000000  0.12476453  0.67450555  1
  O  O5  1  0.75000000  0.87523547  0.32549445  1
  O  O6  1  0.25000000  0.23600649  0.19100533  1
  O  O7  1  0.75000000  0.76399351  0.80899467  1
  O  O8  1  0.25000000  0.17467644  0.43747766  1
  O  O9  1  0.75000000  0.82532356  0.56252234  1
  O  O10  1  0.25000000  0.33340248  0.95148121  1
  O  O11  1  0.75000000  0.66659752  0.04851879  1
  O  O12  1  0.25000000  0.49994192  0.71855017  1
  O  O13  1  0.75000000  0.50005808  0.28144983  1
  O  O14  1  0.25000000  0.81734530  0.17514032  1
  O  O15  1  0.75000000  0.18265470  0.82485968  1
loop_
_geom_bond_atom_site_label_1
_geom_bond_atom_site_label_2
_geom_bond_distance
_geom_bond_site_symmetry_2
Li0 O4 2.034699 1_565
Li0 O12 2.040665 1_555
Li0 O9 2.256072 1_455
Li0 O9 2.256072 1_555
Li0 O7 2.288040 1_455
Li0 O7 2.288040 1_555
Li1 O5 2.034699 1_545
Li1 O13 2.040665 1_555
Li1 O8 2.256072 1_555
Li1 O8 2.256072 1_655
Li1 O6 2.288040 1_655
Li1 O6 2.288040 1_555
O0 V1 1.879004 1_455
O0 V1 1.879004 1_555
O0 V0 2.006381 1_555
O1 V0 1.879004 1_655
O1 V0 1.879004 1_555
O1 V1 2.006381 1_555
O2 V3 1.866597 1_555
O2 V3 1.866597 1_455
O2 V4 2.257474 1_565
O2 V2 2.389388 1_566
O3 V2 1.866597 1_555
O3 V2 1.866597 1_655
O3 V5 2.257474 1_545
O3 V3 2.389388 1_544
O4 V0 1.734484 1_555
O4 V4 2.026924 1_555
O5 V1 1.734484 1_555
O5 V5 2.026924 1_555
O6 V2 1.616846 1_555
O7 V3 1.616846 1_555
O8 V0 1.625900 1_555
O9 V1 1.625900 1_555
O10 V2 1.763164 1_556
O10 V4 1.842023 1_555
O11 V3 1.763164 1_554
O11 V5 1.842023 1_555
O12 V4 1.616111 1_555
O13 V5 1.616111 1_555
O14 V5 1.868318 1_555
O14 V5 1.868318 1_455
O14 V2 2.099671 1_565
O15 V4 1.868318 1_555
O15 V4 1.868318 1_655
O15 V3 2.099671 1_545
