# generated using pymatgen
data_SrIn2Pd
_symmetry_space_group_name_H-M   'P 1'
_cell_length_a   5.91485085
_cell_length_b   5.91485085
_cell_length_c   7.97875727
_cell_angle_alpha   90.00000000
_cell_angle_beta   90.00000000
_cell_angle_gamma   134.72913150
_symmetry_Int_Tables_number   1
_chemical_formula_structural   SrIn2Pd
_chemical_formula_sum   'Sr2 In4 Pd2'
_cell_volume   198.31306327
_cell_formula_units_Z   2
loop_
 _symmetry_equiv_pos_site_id
 _symmetry_equiv_pos_as_xyz
  1  'x, y, z'
loop_
 _atom_site_type_symbol
 _atom_site_label
 _atom_site_symmetry_multiplicity
 _atom_site_fract_x
 _atom_site_fract_y
 _atom_site_fract_z
 _atom_site_occupancy
  Sr  Sr0  1  0.94054473  0.05945527  0.75000000  1
  Sr  Sr1  1  0.05945527  0.94054473  0.25000000  1
  In  In0  1  0.65433991  0.34566009  0.94555468  1
  In  In1  1  0.34566009  0.65433991  0.05444532  1
  In  In2  1  0.34566009  0.65433991  0.44555468  1
  In  In3  1  0.65433991  0.34566009  0.55444532  1
  Pd  Pd0  1  0.21967938  0.78032062  0.75000000  1
  Pd  Pd1  1  0.78032062  0.21967938  0.25000000  1
loop_
_geom_bond_atom_site_label_1
_geom_bond_atom_site_label_2
_geom_bond_distance
_geom_bond_site_symmetry_2
In0 Pd1 2.791515 1_556
In0 Pd0 2.850535 1_655
In0 Pd0 2.850535 1_545
In0 Sr1 3.486533 1_656
In0 Sr1 3.486533 1_546
In0 Sr0 3.492797 1_555
In0 Sr0 3.614644 1_565
In0 Sr0 3.614644 1_455
In1 Pd0 2.791515 1_554
In1 Pd1 2.850535 1_455
In1 Pd1 2.850535 1_565
In1 Sr0 3.486533 1_564
In1 Sr0 3.486533 1_454
In1 Sr1 3.492797 1_555
In1 Sr1 3.614644 1_655
In1 Sr1 3.614644 1_545
In2 Pd0 2.791515 1_555
In2 Pd1 2.850535 1_455
In2 Pd1 2.850535 1_565
In2 Sr0 3.486533 1_455
In2 Sr0 3.486533 1_565
In2 Sr1 3.492797 1_555
In2 Sr1 3.614644 1_655
In2 Sr1 3.614644 1_545
In3 Pd1 2.791515 1_555
In3 Pd0 2.850535 1_655
In3 Pd0 2.850535 1_545
In3 Sr1 3.486533 1_545
In3 Sr1 3.486533 1_655
In3 Sr0 3.492797 1_555
In3 Sr0 3.614644 1_565
In3 Sr0 3.614644 1_455
Pd0 Sr0 3.047728 1_465
Pd0 Sr0 3.316251 1_565
Pd0 Sr0 3.316251 1_455
Pd1 Sr1 3.047728 1_645
Pd1 Sr1 3.316251 1_545
Pd1 Sr1 3.316251 1_655
