# generated using pymatgen
data_B5Pb2BrO9
_symmetry_space_group_name_H-M   'P 1'
_cell_length_a   6.61706000
_cell_length_b   11.60022900
_cell_length_c   11.68033100
_cell_angle_alpha   90.00000000
_cell_angle_beta   90.00000000
_cell_angle_gamma   90.00000000
_symmetry_Int_Tables_number   1
_chemical_formula_structural   B5Pb2BrO9
_chemical_formula_sum   'B20 Pb8 Br4 O36'
_cell_volume   896.57533143
_cell_formula_units_Z   4
loop_
 _symmetry_equiv_pos_site_id
 _symmetry_equiv_pos_as_xyz
  1  'x, y, z'
loop_
 _atom_site_type_symbol
 _atom_site_label
 _atom_site_symmetry_multiplicity
 _atom_site_fract_x
 _atom_site_fract_y
 _atom_site_fract_z
 _atom_site_occupancy
  B  B0  1  0.51797400  0.00580200  0.74938100  1
  B  B1  1  0.51797400  0.99419800  0.25061900  1
  B  B2  1  0.01797400  0.49419800  0.24938100  1
  B  B3  1  0.01797400  0.50580200  0.75061900  1
  B  B4  1  0.18274000  0.26698900  0.95788300  1
  B  B5  1  0.18274000  0.73301100  0.04211700  1
  B  B6  1  0.68274000  0.23301100  0.45788300  1
  B  B7  1  0.68274000  0.76698900  0.54211700  1
  B  B8  1  0.96194100  0.28364400  0.78720500  1
  B  B9  1  0.96194100  0.71635600  0.21279500  1
  B  B10  1  0.46194100  0.21635600  0.28720500  1
  B  B11  1  0.46194100  0.78364400  0.71279500  1
  B  B12  1  0.64598100  0.20151700  0.68103600  1
  B  B13  1  0.64598100  0.79848300  0.31896400  1
  B  B14  1  0.14598100  0.29848300  0.18103600  1
  B  B15  1  0.14598100  0.70151700  0.81896400  1
  B  B16  1  0.29491400  0.17933400  0.77080100  1
  B  B17  1  0.29491400  0.82066600  0.22919900  1
  B  B18  1  0.79491400  0.32066600  0.27080100  1
  B  B19  1  0.79491400  0.67933400  0.72919900  1
  Pb  Pb0  1  0.16399100  0.26299000  0.52735600  1
  Pb  Pb1  1  0.16399100  0.73701000  0.47264400  1
  Pb  Pb2  1  0.66399100  0.23701000  0.02735600  1
  Pb  Pb3  1  0.66399100  0.76299000  0.97264400  1
  Pb  Pb4  1  0.49777700  0.45751300  0.75648400  1
  Pb  Pb5  1  0.49777700  0.54248700  0.24351600  1
  Pb  Pb6  1  0.99777700  0.04248700  0.25648400  1
  Pb  Pb7  1  0.99777700  0.95751300  0.74351600  1
  Br  Br0  1  0.14531100  0.00000000  0.50000000  1
  Br  Br1  1  0.64531100  0.50000000  0.00000000  1
  Br  Br2  1  0.39550000  0.50000000  0.50000000  1
  Br  Br3  1  0.89550000  0.00000000  0.00000000  1
  O  O0  1  0.05704400  0.39028600  0.73648800  1
  O  O1  1  0.05704400  0.60971400  0.26351200  1
  O  O2  1  0.55704400  0.10971400  0.23648800  1
  O  O3  1  0.55704400  0.89028600  0.76351200  1
  O  O4  1  0.99119300  0.28745500  0.91593400  1
  O  O5  1  0.99119300  0.71254500  0.08406600  1
  O  O6  1  0.49119300  0.21254500  0.41593400  1
  O  O7  1  0.49119300  0.78745500  0.58406600  1
  O  O8  1  0.42620900  0.22992500  0.68101900  1
  O  O9  1  0.42620900  0.77007500  0.31898100  1
  O  O10  1  0.92620900  0.27007500  0.18101900  1
  O  O11  1  0.92620900  0.72992500  0.81898100  1
  O  O12  1  0.33572300  0.23631100  0.88201600  1
  O  O13  1  0.33572300  0.76368900  0.11798400  1
  O  O14  1  0.83572300  0.26368900  0.38201600  1
  O  O15  1  0.83572300  0.73631100  0.61798400  1
  O  O16  1  0.33516000  0.05261900  0.78130600  1
  O  O17  1  0.33516000  0.94738100  0.21869400  1
  O  O18  1  0.83516000  0.44738100  0.28130600  1
  O  O19  1  0.83516000  0.55261900  0.71869400  1
  O  O20  1  0.73998100  0.22449500  0.56947500  1
  O  O21  1  0.73998100  0.77550500  0.43052500  1
  O  O22  1  0.23998100  0.27550500  0.06947500  1
  O  O23  1  0.23998100  0.72449500  0.93052500  1
  O  O24  1  0.74586500  0.27392400  0.76833200  1
  O  O25  1  0.74586500  0.72607600  0.23166800  1
  O  O26  1  0.24586500  0.22607600  0.26833200  1
  O  O27  1  0.24586500  0.77392400  0.73166800  1
  O  O28  1  0.67054200  0.07543500  0.70864900  1
  O  O29  1  0.67054200  0.92456500  0.29135100  1
  O  O30  1  0.17054200  0.42456500  0.20864900  1
  O  O31  1  0.17054200  0.57543500  0.79135100  1
  O  O32  1  0.08072900  0.18741900  0.73783800  1
  O  O33  1  0.08072900  0.81258100  0.26216200  1
  O  O34  1  0.58072900  0.31258100  0.23783800  1
  O  O35  1  0.58072900  0.68741900  0.76216200  1
loop_
_geom_bond_atom_site_label_1
_geom_bond_atom_site_label_2
_geom_bond_distance
_geom_bond_site_symmetry_2
B0 O3 1.374668 1_545
B0 O16 1.377442 1_555
B0 O28 1.377686 1_555
B1 O2 1.374668 1_565
B1 O17 1.377442 1_555
B1 O29 1.377686 1_555
B2 O1 1.374668 1_555
B2 O18 1.377442 1_455
B2 O30 1.377686 1_555
B3 O0 1.374668 1_555
B3 O19 1.377442 1_455
B3 O31 1.377686 1_555
B4 O22 1.360940 1_556
B4 O4 1.379472 1_455
B4 O12 1.391638 1_555
B5 O23 1.360940 1_554
B5 O5 1.379472 1_455
B5 O13 1.391638 1_555
B6 O20 1.360940 1_555
B6 O6 1.379472 1_555
B6 O14 1.391638 1_555
B7 O21 1.360940 1_555
B7 O7 1.379472 1_555
B7 O15 1.391638 1_555
B8 O24 1.451069 1_555
B8 O32 1.481994 1_655
B8 O0 1.509071 1_655
B8 O4 1.516649 1_555
B9 O25 1.451069 1_555
B9 O33 1.481994 1_655
B9 O1 1.509071 1_655
B9 O5 1.516649 1_555
B10 O26 1.451069 1_555
B10 O34 1.481994 1_555
B10 O2 1.509071 1_555
B10 O6 1.516649 1_555
B11 O27 1.451069 1_555
B11 O35 1.481994 1_555
B11 O3 1.509071 1_555
B11 O7 1.516649 1_555
B12 O20 1.468308 1_555
B12 O24 1.477164 1_555
B12 O8 1.491115 1_555
B12 O28 1.506512 1_555
B13 O21 1.468308 1_555
B13 O25 1.477164 1_555
B13 O9 1.491115 1_555
B13 O29 1.506512 1_555
B14 O22 1.468308 1_555
B14 O26 1.477164 1_555
B14 O10 1.491115 1_455
B14 O30 1.506512 1_555
B15 O23 1.468308 1_555
B15 O27 1.477164 1_555
B15 O11 1.491115 1_455
B15 O31 1.506512 1_555
B16 O32 1.471633 1_555
B16 O12 1.482310 1_555
B16 O8 1.482883 1_555
B16 O16 1.498883 1_555
B17 O33 1.471633 1_555
B17 O13 1.482310 1_555
B17 O9 1.482883 1_555
B17 O17 1.498883 1_555
B18 O34 1.471633 1_555
B18 O14 1.482310 1_555
B18 O10 1.482883 1_555
B18 O18 1.498883 1_555
B19 O35 1.471633 1_555
B19 O15 1.482310 1_555
B19 O11 1.482883 1_555
B19 O19 1.498883 1_555
Br0 Pb6 3.047338 1_455
Br0 Pb7 3.047338 1_445
Br0 Pb0 3.069921 1_555
Br0 Pb1 3.069921 1_545
Br1 Pb5 3.047338 1_555
Br1 Pb4 3.047338 1_554
Br1 Pb2 3.069921 1_555
Br1 Pb3 3.069921 1_554
Br2 Pb4 3.110604 1_555
Br2 Pb5 3.110604 1_555
Br2 Pb0 3.163523 1_555
Br2 Pb1 3.163523 1_555
Br3 Pb6 3.110604 1_555
Br3 Pb7 3.110604 1_544
Br3 Pb3 3.163523 1_544
Br3 Pb2 3.163523 1_555
O4 Pb2 2.593051 1_556
O5 Pb3 2.593051 1_554
O6 Pb0 2.593051 1_555
O7 Pb1 2.593051 1_555
O8 Pb0 2.525701 1_555
O8 Pb4 2.823335 1_555
O9 Pb1 2.525701 1_555
O9 Pb5 2.823335 1_555
O10 Pb2 2.525701 1_555
O10 Pb6 2.823335 1_555
O11 Pb3 2.525701 1_555
O11 Pb7 2.823335 1_555
O12 Pb2 2.756863 1_556
O13 Pb3 2.756863 1_554
O14 Pb0 2.756863 1_655
O15 Pb1 2.756863 1_655
O16 Pb7 2.529028 1_445
O17 Pb6 2.529028 1_465
O18 Pb5 2.529028 1_555
O19 Pb4 2.529028 1_555
O24 Pb4 2.692500 1_555
O25 Pb5 2.692500 1_555
O26 Pb6 2.692500 1_455
O27 Pb7 2.692500 1_455
O28 Pb7 2.593403 1_545
O29 Pb6 2.593403 1_565
O30 Pb5 2.593403 1_555
O31 Pb4 2.593403 1_555
O32 Pb0 2.667633 1_555
O32 Pb7 2.723669 1_445
O33 Pb1 2.667633 1_555
O33 Pb6 2.723669 1_465
O34 Pb2 2.667633 1_555
O34 Pb5 2.723669 1_555
O35 Pb3 2.667633 1_555
O35 Pb4 2.723669 1_555
