# generated using pymatgen
data_MgMnCo3O8
_symmetry_space_group_name_H-M   'P 1'
_cell_length_a   5.62430609
_cell_length_b   5.92132188
_cell_length_c   5.78306630
_cell_angle_alpha   71.60271055
_cell_angle_beta   60.94908181
_cell_angle_gamma   61.63898055
_symmetry_Int_Tables_number   1
_chemical_formula_structural   MgMnCo3O8
_chemical_formula_sum   'Mg1 Mn1 Co3 O8'
_cell_volume   147.25027049
_cell_formula_units_Z   1
loop_
 _symmetry_equiv_pos_site_id
 _symmetry_equiv_pos_as_xyz
  1  'x, y, z'
loop_
 _atom_site_type_symbol
 _atom_site_label
 _atom_site_symmetry_multiplicity
 _atom_site_fract_x
 _atom_site_fract_y
 _atom_site_fract_z
 _atom_site_occupancy
  Mg  Mg0  1  0.75613105  0.99050366  0.49708754  1
  Mn  Mn0  1  0.02613130  0.98661057  0.96130061  1
  Co  Co0  1  0.49125757  0.99132979  0.02628774  1
  Co  Co1  1  0.01028865  0.48888364  0.99744191  1
  Co  Co2  1  0.50337989  0.48885933  0.99741254  1
  O  O0  1  0.31447756  0.13808987  0.77465271  1
  O  O1  1  0.77251225  0.13808969  0.77472184  1
  O  O2  1  0.26123087  0.67213908  0.80505033  1
  O  O3  1  0.74013880  0.69200321  0.82743259  1
  O  O4  1  0.25957930  0.29950639  0.18156364  1
  O  O5  1  0.77199369  0.28819608  0.16806282  1
  O  O6  1  0.21011688  0.83997011  0.21327275  1
  O  O7  1  0.73692919  0.83998556  0.21321298  1
loop_
_geom_bond_atom_site_label_1
_geom_bond_atom_site_label_2
_geom_bond_distance
_geom_bond_site_symmetry_2
Mg0 O1 2.110899 1_565
Mg0 O0 2.112182 1_565
Mg0 O5 2.145495 1_565
Mg0 O3 2.152821 1_555
Mg0 O7 2.165242 1_555
Mg0 O6 2.167763 1_655
Mn0 O2 1.895987 1_555
Mn0 O0 1.915858 1_565
Mn0 O1 1.916191 1_465
Mn0 O6 1.939127 1_556
Mn0 O7 1.940057 1_456
Mn0 O5 1.981106 1_466
Co0 O4 1.863632 1_565
Co0 O7 1.882435 1_555
Co0 O6 1.883326 1_555
Co0 O1 1.909706 1_564
Co0 O0 1.909838 1_564
Co0 O3 1.946656 1_554
Co1 O4 1.886684 1_556
Co1 O2 1.890835 1_555
Co1 O5 1.915899 1_456
Co1 O3 1.920940 1_455
Co1 O7 2.231732 1_456
Co1 O0 2.252536 1_555
Co2 O4 1.886859 1_556
Co2 O2 1.890838 1_555
Co2 O5 1.915866 1_556
Co2 O3 1.921078 1_555
Co2 O6 2.232024 1_556
Co2 O1 2.252125 1_555
