# generated using pymatgen
data_FeH10N2OF5
_symmetry_space_group_name_H-M   'P 1'
_cell_length_a   7.86547600
_cell_length_b   8.23153400
_cell_length_c   10.74952600
_cell_angle_alpha   90.00000000
_cell_angle_beta   90.00000000
_cell_angle_gamma   90.00000000
_symmetry_Int_Tables_number   1
_chemical_formula_structural   FeH10N2OF5
_chemical_formula_sum   'Fe4 H40 N8 O4 F20'
_cell_volume   695.97734194
_cell_formula_units_Z   4
loop_
 _symmetry_equiv_pos_site_id
 _symmetry_equiv_pos_as_xyz
  1  'x, y, z'
loop_
 _atom_site_type_symbol
 _atom_site_label
 _atom_site_symmetry_multiplicity
 _atom_site_fract_x
 _atom_site_fract_y
 _atom_site_fract_z
 _atom_site_occupancy
  Fe  Fe0  1  0.75000000  0.79996300  0.00000000  1
  Fe  Fe1  1  0.25000000  0.70003700  0.50000000  1
  Fe  Fe2  1  0.25000000  0.20003700  0.00000000  1
  Fe  Fe3  1  0.75000000  0.29996300  0.50000000  1
  H  H0  1  0.64757900  0.61585000  0.52090600  1
  H  H1  1  0.14757900  0.88415000  0.97909400  1
  H  H2  1  0.85242100  0.61585000  0.47909400  1
  H  H3  1  0.35242100  0.88415000  0.02090600  1
  H  H4  1  0.35242100  0.38415000  0.47909400  1
  H  H5  1  0.85242100  0.11585000  0.02090600  1
  H  H6  1  0.14757900  0.38415000  0.52090600  1
  H  H7  1  0.64757900  0.11585000  0.97909400  1
  H  H8  1  0.90188900  0.50569600  0.88086700  1
  H  H9  1  0.40188900  0.99430400  0.61913300  1
  H  H10  1  0.59811100  0.50569600  0.11913300  1
  H  H11  1  0.09811100  0.99430400  0.38086700  1
  H  H12  1  0.09811100  0.49430400  0.11913300  1
  H  H13  1  0.59811100  0.00569600  0.38086700  1
  H  H14  1  0.40188900  0.49430400  0.88086700  1
  H  H15  1  0.90188900  0.00569600  0.61913300  1
  H  H16  1  0.04330900  0.37118800  0.81668300  1
  H  H17  1  0.54330900  0.12881200  0.68331700  1
  H  H18  1  0.97467000  0.43994200  0.24335400  1
  H  H19  1  0.45669100  0.37118800  0.18331700  1
  H  H20  1  0.95669100  0.62881200  0.18331700  1
  H  H21  1  0.45669100  0.87118800  0.31668300  1
  H  H22  1  0.54330900  0.62881200  0.81668300  1
  H  H23  1  0.04330900  0.87118800  0.68331700  1
  H  H24  1  0.86606000  0.42147400  0.74003100  1
  H  H25  1  0.36606000  0.07852600  0.75996900  1
  H  H26  1  0.63394000  0.42147400  0.25996900  1
  H  H27  1  0.13394000  0.07852600  0.24003100  1
  H  H28  1  0.13394000  0.57852600  0.25996900  1
  H  H29  1  0.63394000  0.92147400  0.24003100  1
  H  H30  1  0.36606000  0.57852600  0.74003100  1
  H  H31  1  0.86606000  0.92147400  0.75996900  1
  H  H32  1  0.02533000  0.56005800  0.75664600  1
  H  H33  1  0.52533000  0.93994200  0.74335400  1
  H  H34  1  0.47467000  0.56005800  0.24335400  1
  H  H35  1  0.97467000  0.93994200  0.25664600  1
  H  H36  1  0.02533000  0.06005800  0.74335400  1
  H  H37  1  0.52533000  0.43994200  0.75664600  1
  H  H38  1  0.47467000  0.06005800  0.25664600  1
  H  H39  1  0.95669100  0.12881200  0.31668300  1
  N  N0  1  0.95893200  0.96594500  0.70093700  1
  N  N1  1  0.95893200  0.46594500  0.79906300  1
  N  N2  1  0.45893200  0.03405500  0.70093700  1
  N  N3  1  0.54106800  0.46594500  0.20093700  1
  N  N4  1  0.45893200  0.53405500  0.79906300  1
  N  N5  1  0.04106800  0.03405500  0.29906300  1
  N  N6  1  0.04106800  0.53405500  0.20093700  1
  N  N7  1  0.54106800  0.96594500  0.29906300  1
  O  O0  1  0.75000000  0.04784800  0.00000000  1
  O  O1  1  0.25000000  0.45215200  0.50000000  1
  O  O2  1  0.25000000  0.95215200  0.00000000  1
  O  O3  1  0.75000000  0.54784800  0.50000000  1
  F  F0  1  0.98395900  0.29473700  0.55691300  1
  F  F1  1  0.48395900  0.20526300  0.94308700  1
  F  F2  1  0.51604100  0.29473700  0.44308700  1
  F  F3  1  0.01604100  0.20526300  0.05691300  1
  F  F4  1  0.01604100  0.70526300  0.44308700  1
  F  F5  1  0.51604100  0.79473700  0.05691300  1
  F  F6  1  0.67230500  0.80494400  0.82285100  1
  F  F7  1  0.98395900  0.79473700  0.94308700  1
  F  F8  1  0.75000000  0.06213100  0.50000000  1
  F  F9  1  0.25000000  0.43786900  0.00000000  1
  F  F10  1  0.25000000  0.93786900  0.50000000  1
  F  F11  1  0.75000000  0.56213100  0.00000000  1
  F  F12  1  0.32769500  0.19505600  0.17714900  1
  F  F13  1  0.67230500  0.30494400  0.67714900  1
  F  F14  1  0.17230500  0.19505600  0.82285100  1
  F  F15  1  0.82769500  0.30494400  0.32285100  1
  F  F16  1  0.17230500  0.69505600  0.67714900  1
  F  F17  1  0.82769500  0.80494400  0.17714900  1
  F  F18  1  0.32769500  0.69505600  0.32285100  1
  F  F19  1  0.48395900  0.70526300  0.55691300  1
loop_
_geom_bond_atom_site_label_1
_geom_bond_atom_site_label_2
_geom_bond_distance
_geom_bond_site_symmetry_2
Fe0 O0 2.040474 1_565
Fe1 O1 2.040474 1_555
Fe2 O2 2.040474 1_545
Fe3 O3 2.040474 1_555
H0 O3 1.006385 1_555
H1 O2 1.006385 1_556
H2 O3 1.006385 1_555
H3 O2 1.006385 1_555
H4 O1 1.006385 1_555
H5 O0 1.006385 1_555
H6 O1 1.006385 1_555
H7 O0 1.006385 1_556
H8 N1 1.040018 1_555
H9 N2 1.040018 1_565
H10 N3 1.040018 1_555
H11 N5 1.040018 1_565
H12 N6 1.040018 1_555
H13 N7 1.040018 1_545
H14 N4 1.040018 1_555
H15 N0 1.040018 1_545
H16 N1 1.041499 1_455
H17 N2 1.041499 1_555
H18 N6 1.039615 1_655
H19 N3 1.041499 1_555
H20 N6 1.041499 1_655
H21 N7 1.041499 1_555
H22 N4 1.041499 1_555
H23 N0 1.041499 1_455
H24 N1 1.034544 1_555
H25 N2 1.034544 1_555
H26 N3 1.034544 1_555
H27 N5 1.034544 1_555
H28 N6 1.034544 1_555
H29 N7 1.034544 1_555
H30 N4 1.034544 1_555
H31 N0 1.034544 1_555
H32 N1 1.039615 1_455
H33 N2 1.039615 1_565
H34 N3 1.039615 1_555
H35 N5 1.039615 1_665
H36 N0 1.039615 1_445
H37 N4 1.039615 1_555
H38 N7 1.039615 1_545
H39 N5 1.041499 1_655
F0 H6 1.532239 1_655
F0 Fe3 1.939708 1_555
F1 H7 1.532239 1_555
F1 Fe2 1.939708 1_556
F2 H4 1.532239 1_555
F2 Fe3 1.939708 1_555
F3 H5 1.532239 1_455
F3 Fe2 1.939708 1_555
F4 H2 1.532239 1_455
F4 Fe1 1.939708 1_555
F5 H3 1.532239 1_555
F5 Fe0 1.939708 1_555
F6 Fe0 2.000342 1_556
F7 H1 1.532239 1_655
F7 Fe0 1.939708 1_556
F8 Fe3 1.957722 1_555
F9 Fe2 1.957722 1_555
F10 Fe1 1.957722 1_555
F11 Fe0 1.957722 1_555
F12 Fe2 2.000342 1_555
F13 Fe3 2.000342 1_555
F14 Fe2 2.000342 1_556
F15 Fe3 2.000342 1_555
F16 Fe1 2.000342 1_555
F17 Fe0 2.000342 1_555
F18 Fe1 2.000342 1_555
F19 H0 1.532239 1_555
F19 Fe1 1.939708 1_555
