# generated using pymatgen
data_SiGe2(SO6)2
_symmetry_space_group_name_H-M   'P 1'
_cell_length_a   8.39324087
_cell_length_b   8.39572150
_cell_length_c   21.80781686
_cell_angle_alpha   89.96723801
_cell_angle_beta   90.00000000
_cell_angle_gamma   119.99022666
_symmetry_Int_Tables_number   1
_chemical_formula_structural   SiGe2(SO6)2
_chemical_formula_sum   'Si6 Ge12 S12 O72'
_cell_volume   1330.98512267
_cell_formula_units_Z   6
loop_
 _symmetry_equiv_pos_site_id
 _symmetry_equiv_pos_as_xyz
  1  'x, y, z'
loop_
 _atom_site_type_symbol
 _atom_site_label
 _atom_site_symmetry_multiplicity
 _atom_site_fract_x
 _atom_site_fract_y
 _atom_site_fract_z
 _atom_site_occupancy
  Si  Si0  1  0.99951648  0.29605494  0.25006144  1
  Si  Si1  1  0.29653846  0.29605494  0.75006144  1
  Si  Si2  1  0.95788403  0.33802011  0.58427830  1
  Si  Si3  1  0.38013708  0.33802011  0.08427830  1
  Si  Si4  1  0.33327782  0.94815774  0.91673377  1
  Si  Si5  1  0.61487892  0.94815774  0.41673377  1
  Ge  Ge0  1  0.98341989  0.00756303  0.35502177  1
  Ge  Ge1  1  0.02414314  0.00756303  0.85502177  1
  Ge  Ge2  1  0.00756761  0.02322340  0.64552062  1
  Ge  Ge3  1  0.01565578  0.02322340  0.14552062  1
  Ge  Ge4  1  0.67038532  0.33747389  0.68764143  1
  Ge  Ge5  1  0.66708957  0.33747389  0.18764143  1
  Ge  Ge6  1  0.64452671  0.31800643  0.97776397  1
  Ge  Ge7  1  0.67348072  0.31800643  0.47776397  1
  Ge  Ge8  1  0.33016779  0.66523146  0.02161914  1
  Ge  Ge9  1  0.33506266  0.66523146  0.52161914  1
  Ge  Ge10  1  0.33263917  0.66873886  0.31198735  1
  Ge  Ge11  1  0.33609869  0.66873886  0.81198735  1
  S  S0  1  0.28612872  0.99974984  0.25085968  1
  S  S1  1  0.71392003  0.71348006  0.24915540  1
  S  S2  1  0.99956003  0.71348006  0.74915540  1
  S  S3  1  0.71362112  0.99974984  0.75085968  1
  S  S4  1  0.37612666  0.04335848  0.58345967  1
  S  S5  1  0.66991654  0.62374615  0.58293583  1
  S  S6  1  0.95383061  0.62374615  0.08293583  1
  S  S7  1  0.66723282  0.04335848  0.08345967  1
  S  S8  1  0.62780081  0.66989232  0.91619924  1
  S  S9  1  0.03924960  0.37536695  0.91716910  1
  S  S10  1  0.33611635  0.37536695  0.41716910  1
  S  S11  1  0.04209051  0.66989232  0.41619924  1
  O  O0  1  0.20595270  0.03342402  0.30643784  1
  O  O1  1  0.83062034  0.78819293  0.30502033  1
  O  O2  1  0.96074239  0.16527905  0.30930870  1
  O  O3  1  0.20453666  0.16527905  0.80930870  1
  O  O4  1  0.95757259  0.78819293  0.80502033  1
  O  O5  1  0.82747132  0.03342402  0.80643784  1
  O  O6  1  0.78818858  0.95740081  0.69489663  1
  O  O7  1  0.16556621  0.20463895  0.69096794  1
  O  O8  1  0.03350884  0.82748385  0.69341437  1
  O  O9  1  0.79397501  0.82748385  0.19341437  1
  O  O10  1  0.03907274  0.20463895  0.19096794  1
  O  O11  1  0.16921223  0.95740081  0.19489663  1
  O  O12  1  0.86407128  0.37341494  0.64456934  1
  O  O13  1  0.49201157  0.12189513  0.63848931  1
  O  O14  1  0.62812945  0.50678135  0.63850603  1
  O  O15  1  0.87865289  0.50678135  0.13850603  1
  O  O16  1  0.62988457  0.12189513  0.13848931  1
  O  O17  1  0.50934466  0.37341494  0.14456934  1
  O  O18  1  0.46862613  0.29780689  0.02446190  1
  O  O19  1  0.84123868  0.54322348  0.02715184  1
  O  O20  1  0.71176522  0.16200649  0.02818449  1
  O  O21  1  0.45024227  0.16200649  0.52818449  1
  O  O22  1  0.70198579  0.54322348  0.52715184  1
  O  O23  1  0.82918177  0.29780689  0.52446190  1
  O  O24  1  0.54887560  0.70525912  0.97154328  1
  O  O25  1  0.15810160  0.44998041  0.97204012  1
  O  O26  1  0.29659030  0.82071868  0.97744103  1
  O  O27  1  0.52412737  0.82071868  0.47744103  1
  O  O28  1  0.29187781  0.44998041  0.47204012  1
  O  O29  1  0.15638252  0.70525912  0.47154328  1
  O  O30  1  0.11682966  0.62544196  0.36138843  1
  O  O31  1  0.48800867  0.85805317  0.35572990  1
  O  O32  1  0.37214437  0.48977912  0.36179495  1
  O  O33  1  0.11763376  0.48977912  0.86179495  1
  O  O34  1  0.37004350  0.85805317  0.85572990  1
  O  O35  1  0.50861129  0.62544196  0.86138843  1
  O  O36  1  0.03070430  0.83757232  0.40688016  1
  O  O37  1  0.81493063  0.96543232  0.40999918  1
  O  O38  1  0.17445339  0.19009305  0.40923845  1
  O  O39  1  0.01563966  0.19009305  0.90923845  1
  O  O40  1  0.15050169  0.96543232  0.90999918  1
  O  O41  1  0.80686802  0.83757232  0.90688016  1
  O  O42  1  0.96943833  0.15210849  0.59072627  1
  O  O43  1  0.19040339  0.01885941  0.59085497  1
  O  O44  1  0.83603504  0.80445482  0.59218899  1
  O  O45  1  0.96841979  0.80445482  0.09218899  1
  O  O46  1  0.82845602  0.01885941  0.09085497  1
  O  O47  1  0.18267015  0.15210849  0.09072627  1
  O  O48  1  0.69592649  0.16419181  0.74330908  1
  O  O49  1  0.49491144  0.31257065  0.73784999  1
  O  O50  1  0.83489171  0.53047312  0.74353699  1
  O  O51  1  0.69558242  0.53047312  0.24353699  1
  O  O52  1  0.81766021  0.31257065  0.23784999  1
  O  O53  1  0.46826632  0.16419181  0.24330908  1
  O  O54  1  0.65107022  0.50771301  0.92388786  1
  O  O55  1  0.85991010  0.36417047  0.92648901  1
  O  O56  1  0.51619756  0.14816946  0.92340247  1
  O  O57  1  0.63197291  0.14816946  0.42340247  1
  O  O58  1  0.50426138  0.36417047  0.42648901  1
  O  O59  1  0.85664379  0.50771301  0.42388786  1
  O  O60  1  0.35780648  0.51684961  0.07188170  1
  O  O61  1  0.13678282  0.64066923  0.07683835  1
  O  O62  1  0.50155047  0.86267465  0.07603659  1
  O  O63  1  0.36112318  0.86267465  0.57603659  1
  O  O64  1  0.50388541  0.64066923  0.57683835  1
  O  O65  1  0.15904212  0.51684961  0.57188170  1
  O  O66  1  0.30446359  0.83491579  0.25651702  1
  O  O67  1  0.53177620  0.69587916  0.25642297  1
  O  O68  1  0.18217853  0.49435865  0.26218681  1
  O  O69  1  0.31217912  0.49435865  0.76218681  1
  O  O70  1  0.16410196  0.69587916  0.75642297  1
  O  O71  1  0.53045120  0.83491579  0.75651702  1
loop_
_geom_bond_atom_site_label_1
_geom_bond_atom_site_label_2
_geom_bond_distance
_geom_bond_site_symmetry_2
Ge0 O2 1.741792 1_555
Ge0 O37 1.749826 1_545
Ge0 O38 1.965432 1_655
Ge0 O1 1.966433 1_545
Ge0 O36 2.009419 1_645
Ge0 O0 2.062182 1_655
Ge1 O3 1.741792 1_555
Ge1 O40 1.749826 1_545
Ge1 O39 1.965432 1_555
Ge1 O4 1.966433 1_445
Ge1 O41 2.009419 1_445
Ge1 O5 2.062182 1_455
Ge2 O7 1.744493 1_555
Ge2 O42 1.745260 1_455
Ge2 O43 1.957995 1_555
Ge2 O6 1.958906 1_445
Ge2 O44 2.039085 1_445
Ge2 O8 2.048103 1_545
Ge3 O10 1.744493 1_555
Ge3 O47 1.745260 1_555
Ge3 O46 1.957995 1_455
Ge3 O11 1.958906 1_545
Ge3 O45 2.039085 1_445
Ge3 O9 2.048103 1_445
Ge4 O49 1.761711 1_555
Ge4 O12 1.767874 1_555
Ge4 O50 1.945126 1_555
Ge4 O14 1.948530 1_555
Ge4 O48 1.986458 1_555
Ge4 O13 1.989864 1_555
Ge5 O52 1.761711 1_555
Ge5 O17 1.767874 1_555
Ge5 O51 1.945126 1_555
Ge5 O15 1.948530 1_555
Ge5 O53 1.986458 1_555
Ge5 O16 1.989864 1_555
Ge6 O18 1.730619 1_556
Ge6 O56 1.750804 1_555
Ge6 O54 1.957201 1_555
Ge6 O55 1.991896 1_555
Ge6 O20 1.995045 1_556
Ge6 O19 2.083911 1_556
Ge7 O23 1.730619 1_555
Ge7 O57 1.750804 1_555
Ge7 O59 1.957201 1_555
Ge7 O58 1.991896 1_555
Ge7 O21 1.995045 1_555
Ge7 O22 2.083911 1_555
Ge8 O26 1.754455 1_554
Ge8 O60 1.759142 1_555
Ge8 O61 1.947379 1_555
Ge8 O62 1.960568 1_555
Ge8 O25 1.978311 1_554
Ge8 O24 2.014458 1_554
Ge9 O27 1.754455 1_555
Ge9 O65 1.759142 1_555
Ge9 O64 1.947379 1_555
Ge9 O63 1.960568 1_555
Ge9 O28 1.978311 1_555
Ge9 O29 2.014458 1_555
Ge10 O31 1.751134 1_555
Ge10 O68 1.752486 1_555
Ge10 O66 1.947740 1_555
Ge10 O30 1.978647 1_555
Ge10 O67 1.983122 1_555
Ge10 O32 2.010830 1_555
Ge11 O34 1.751134 1_555
Ge11 O69 1.752486 1_555
Ge11 O71 1.947740 1_555
Ge11 O35 1.978647 1_555
Ge11 O70 1.983122 1_555
Ge11 O33 2.010830 1_555
O0 S0 1.480675 1_545
O1 S1 1.491228 1_555
O2 Si0 1.619256 1_555
O3 Si1 1.619256 1_555
O4 S2 1.491228 1_555
O5 S3 1.480675 1_545
O6 S3 1.493496 1_555
O7 Si1 1.617377 1_555
O8 S2 1.483575 1_455
O9 S1 1.483575 1_555
O10 Si0 1.617377 1_455
O11 S0 1.493496 1_555
O12 Si2 1.634442 1_555
O13 S4 1.476739 1_555
O14 S5 1.486702 1_555
O15 S6 1.486702 1_555
O16 S7 1.476739 1_555
O17 Si3 1.634442 1_555
O18 Si3 1.618152 1_555
O19 S6 1.480635 1_555
O20 S7 1.487100 1_555
O21 S4 1.487100 1_555
O22 S5 1.480635 1_555
O23 Si2 1.618152 1_555
O24 S8 1.476729 1_555
O25 S9 1.481744 1_555
O26 Si4 1.631350 1_555
O27 Si5 1.631350 1_555
O28 S10 1.481744 1_555
O29 S11 1.476729 1_555
O30 S11 1.481918 1_555
O31 Si5 1.634591 1_555
O32 S10 1.476720 1_555
O33 S9 1.476720 1_555
O34 Si4 1.634591 1_555
O35 S8 1.481918 1_555
O36 S11 1.471901 1_555
O37 Si5 1.618162 1_555
O38 S10 1.476797 1_555
O39 S9 1.476800 1_555
O40 Si4 1.618153 1_555
O41 S8 1.471906 1_555
O42 Si2 1.617573 1_555
O43 S4 1.475691 1_555
O44 S5 1.473826 1_555
O45 S6 1.473830 1_555
O46 S7 1.475683 1_555
O47 Si3 1.617577 1_555
O48 S3 1.469685 1_545
O49 Si1 1.622190 1_555
O50 S2 1.470799 1_555
O51 S1 1.470803 1_555
O52 Si0 1.622182 1_555
O53 S0 1.469689 1_545
O54 S8 1.478458 1_555
O55 S9 1.474590 1_655
O56 Si4 1.618962 1_545
O57 Si5 1.618954 1_545
O58 S10 1.474607 1_555
O59 S11 1.478448 1_655
O60 Si3 1.625816 1_555
O61 S6 1.475699 1_455
O62 S7 1.467172 1_565
O63 S4 1.467165 1_565
O64 S5 1.475716 1_555
O65 Si2 1.625807 1_455
O66 S0 1.472003 1_555
O67 S1 1.469096 1_555
O68 Si0 1.625131 1_455
O69 Si1 1.625135 1_555
O70 S2 1.469088 1_455
O71 S3 1.472008 1_555
