# generated using pymatgen
data_La2NiO4
_symmetry_space_group_name_H-M   'P 1'
_cell_length_a   5.60789200
_cell_length_b   5.60789200
_cell_length_c   12.42322900
_cell_angle_alpha   90.00000000
_cell_angle_beta   90.00000000
_cell_angle_gamma   90.00000000
_symmetry_Int_Tables_number   1
_chemical_formula_structural   La2NiO4
_chemical_formula_sum   'La8 Ni4 O16'
_cell_volume   390.69132938
_cell_formula_units_Z   4
loop_
 _symmetry_equiv_pos_site_id
 _symmetry_equiv_pos_as_xyz
  1  'x, y, z'
loop_
 _atom_site_type_symbol
 _atom_site_label
 _atom_site_symmetry_multiplicity
 _atom_site_fract_x
 _atom_site_fract_y
 _atom_site_fract_z
 _atom_site_occupancy
  La  La0  1  0.01280300  0.01280300  0.63701700  1
  La  La1  1  0.48719700  0.48719700  0.63701700  1
  La  La2  1  0.51280300  0.51280300  0.36298300  1
  La  La3  1  0.01280300  0.48719700  0.13701700  1
  La  La4  1  0.48719700  0.01280300  0.13701700  1
  La  La5  1  0.98719700  0.51280300  0.86298300  1
  La  La6  1  0.51280300  0.98719700  0.86298300  1
  La  La7  1  0.98719700  0.98719700  0.36298300  1
  Ni  Ni0  1  0.50000000  0.00000000  0.50000000  1
  Ni  Ni1  1  0.00000000  0.00000000  0.00000000  1
  Ni  Ni2  1  0.50000000  0.50000000  0.00000000  1
  Ni  Ni3  1  0.00000000  0.50000000  0.50000000  1
  O  O0  1  0.75000000  0.25000000  0.50000000  1
  O  O1  1  0.25000000  0.75000000  0.00000000  1
  O  O2  1  0.25000000  0.75000000  0.50000000  1
  O  O3  1  0.75000000  0.25000000  0.00000000  1
  O  O4  1  0.25000000  0.25000000  0.97520200  1
  O  O5  1  0.25000000  0.25000000  0.47520200  1
  O  O6  1  0.75000000  0.75000000  0.52479800  1
  O  O7  1  0.75000000  0.75000000  0.02479800  1
  O  O8  1  0.95352900  0.95352900  0.82066900  1
  O  O9  1  0.54647100  0.54647100  0.82066900  1
  O  O10  1  0.45352900  0.45352900  0.17933100  1
  O  O11  1  0.95352900  0.54647100  0.32066900  1
  O  O12  1  0.54647100  0.95352900  0.32066900  1
  O  O13  1  0.04647100  0.45352900  0.67933100  1
  O  O14  1  0.45352900  0.04647100  0.67933100  1
  O  O15  1  0.04647100  0.04647100  0.17933100  1
loop_
_geom_bond_atom_site_label_1
_geom_bond_atom_site_label_2
_geom_bond_distance
_geom_bond_site_symmetry_2
La0 O8 2.329476 1_445
La0 O6 2.507504 1_445
La0 O13 2.533873 1_555
La0 O14 2.533873 1_555
La0 O0 2.615116 1_455
La0 O2 2.615116 1_545
La0 O5 2.753161 1_555
La0 O14 3.185697 1_455
La0 O13 3.185697 1_545
La1 O9 2.329476 1_555
La1 O6 2.507504 1_555
La1 O14 2.533873 1_555
La1 O13 2.533873 1_555
La1 O0 2.615116 1_555
La1 O2 2.615116 1_555
La1 O5 2.753161 1_555
La1 O13 3.185697 1_655
La1 O14 3.185697 1_565
La2 O10 2.329476 1_555
La2 O5 2.507504 1_555
La2 O11 2.533873 1_555
La2 O12 2.533873 1_555
La2 O2 2.615116 1_555
La2 O0 2.615116 1_555
La2 O6 2.753161 1_555
La2 O12 3.185697 1_545
La2 O11 3.185697 1_455
La3 O11 2.329476 1_455
La3 O7 2.507504 1_455
La3 O10 2.533873 1_555
La3 O15 2.533873 1_555
La3 O3 2.615116 1_455
La3 O1 2.615116 1_555
La3 O4 2.753161 1_554
La3 O15 3.185697 1_565
La3 O10 3.185697 1_455
La4 O12 2.329476 1_545
La4 O7 2.507504 1_545
La4 O10 2.533873 1_555
La4 O15 2.533873 1_555
La4 O1 2.615116 1_545
La4 O3 2.615116 1_555
La4 O4 2.753161 1_554
La4 O15 3.185697 1_655
La4 O10 3.185697 1_545
La5 O13 2.329476 1_655
La5 O4 2.507504 1_655
La5 O8 2.533873 1_555
La5 O9 2.533873 1_555
La5 O1 2.615116 1_656
La5 O3 2.615116 1_556
La5 O7 2.753161 1_556
La5 O9 3.185697 1_655
La5 O8 3.185697 1_545
La6 O14 2.329476 1_565
La6 O4 2.507504 1_565
La6 O8 2.533873 1_555
La6 O9 2.533873 1_555
La6 O1 2.615116 1_556
La6 O3 2.615116 1_566
La6 O7 2.753161 1_556
La6 O9 3.185697 1_565
La6 O8 3.185697 1_455
La7 O15 2.329476 1_665
La7 O5 2.507504 1_665
La7 O12 2.533873 1_555
La7 O11 2.533873 1_555
La7 O2 2.615116 1_655
La7 O0 2.615116 1_565
La7 O6 2.753161 1_555
La7 O12 3.185697 1_655
La7 O11 3.185697 1_565
Ni0 O0 1.982689 1_555
Ni0 O2 1.982689 1_545
Ni0 O6 2.006481 1_545
Ni0 O5 2.006481 1_555
Ni0 O12 2.258148 1_545
Ni0 O14 2.258148 1_555
Ni1 O3 1.982689 1_455
Ni1 O1 1.982689 1_545
Ni1 O7 2.006481 1_445
Ni1 O4 2.006481 1_554
Ni1 O15 2.258148 1_555
Ni1 O8 2.258148 1_444
Ni2 O3 1.982689 1_555
Ni2 O1 1.982689 1_555
Ni2 O7 2.006481 1_555
Ni2 O4 2.006481 1_554
Ni2 O9 2.258148 1_554
Ni2 O10 2.258148 1_555
Ni3 O0 1.982689 1_455
Ni3 O2 1.982689 1_555
Ni3 O6 2.006481 1_455
Ni3 O5 2.006481 1_555
Ni3 O11 2.258148 1_455
Ni3 O13 2.258148 1_555
