# generated using pymatgen
data_YMgAg(WO4)2
_symmetry_space_group_name_H-M   'P 1'
_cell_length_a   5.45057972
_cell_length_b   6.23360497
_cell_length_c   6.36260160
_cell_angle_alpha   105.96383345
_cell_angle_beta   117.79167388
_cell_angle_gamma   90.91605249
_symmetry_Int_Tables_number   1
_chemical_formula_structural   YMgAg(WO4)2
_chemical_formula_sum   'Y1 Mg1 Ag1 W2 O8'
_cell_volume   181.20598461
_cell_formula_units_Z   1
loop_
 _symmetry_equiv_pos_site_id
 _symmetry_equiv_pos_as_xyz
  1  'x, y, z'
loop_
 _atom_site_type_symbol
 _atom_site_label
 _atom_site_symmetry_multiplicity
 _atom_site_fract_x
 _atom_site_fract_y
 _atom_site_fract_z
 _atom_site_occupancy
  Y  Y0  1  0.62381500  0.72430700  0.09966700  1
  Mg  Mg0  1  0.62732700  0.22456100  0.09832600  1
  Ag  Ag0  1  0.13005900  0.22905600  0.10371300  1
  W  W0  1  0.89701400  0.38950500  0.63016100  1
  W  W1  1  0.35042400  0.05499000  0.56842200  1
  O  O0  1  0.14446600  0.64193700  0.86486600  1
  O  O1  1  0.64732700  0.50540700  0.34449200  1
  O  O2  1  0.19130800  0.18252600  0.79634200  1
  O  O3  1  0.60141000  0.06632300  0.39305300  1
  O  O4  1  0.60069100  0.94005000  0.85388300  1
  O  O5  1  0.10380400  0.80261200  0.33298700  1
  O  O6  1  0.05611300  0.26216400  0.40200900  1
  O  O7  1  0.64724100  0.37901500  0.80713100  1
loop_
_geom_bond_atom_site_label_1
_geom_bond_atom_site_label_2
_geom_bond_distance
_geom_bond_site_symmetry_2
Mg0 O4 1.961979 1_544
Mg0 O1 1.963755 1_555
Mg0 O6 2.184683 1_655
Mg0 O2 2.203055 1_554
Mg0 O7 2.353062 1_554
Mg0 O3 2.401966 1_555
Ag0 O6 2.075512 1_555
Ag0 O2 2.078501 1_554
O0 W0 1.812909 1_455
O0 Y0 2.284112 1_556
O1 W0 2.030978 1_555
O1 Y0 2.300764 1_555
O2 W1 2.011935 1_555
O2 W0 2.142588 1_455
O3 W1 2.141304 1_555
O3 W0 2.210945 1_555
O3 Y0 2.465085 1_545
O4 W1 2.027231 1_565
O4 Y0 2.290969 1_556
O5 W1 1.812251 1_565
O5 Y0 2.285937 1_455
O6 W0 2.012817 1_455
O6 W1 2.144006 1_555
O7 W0 2.143058 1_555
O7 W1 2.218247 1_555
O7 Y0 2.477964 1_556
