# generated using pymatgen
data_Al2B2Ru3
_symmetry_space_group_name_H-M   'P 1'
_cell_length_a   9.04175511
_cell_length_b   9.04175511
_cell_length_c   2.94262100
_cell_angle_alpha   90.00000000
_cell_angle_beta   90.00000000
_cell_angle_gamma   160.65096110
_symmetry_Int_Tables_number   1
_chemical_formula_structural   Al2B2Ru3
_chemical_formula_sum   'Al2 B2 Ru3'
_cell_volume   79.70584411
_cell_formula_units_Z   1
loop_
 _symmetry_equiv_pos_site_id
 _symmetry_equiv_pos_as_xyz
  1  'x, y, z'
loop_
 _atom_site_type_symbol
 _atom_site_label
 _atom_site_symmetry_multiplicity
 _atom_site_fract_x
 _atom_site_fract_y
 _atom_site_fract_z
 _atom_site_occupancy
  Al  Al0  1  0.42096500  0.57903500  0.50000000  1
  Al  Al1  1  0.57903500  0.42096500  0.50000000  1
  B  B0  1  0.27764200  0.72235800  0.50000000  1
  B  B1  1  0.72235800  0.27764200  0.50000000  1
  Ru  Ru0  1  0.17495200  0.82504800  0.00000000  1
  Ru  Ru1  1  0.00000000  0.00000000  0.00000000  1
  Ru  Ru2  1  0.82504800  0.17495200  0.00000000  1
loop_
_geom_bond_atom_site_label_1
_geom_bond_atom_site_label_2
_geom_bond_distance
_geom_bond_site_symmetry_2
Al0 Ru1 2.541372 1_666
Al0 Ru1 2.541372 1_665
Al0 Ru1 2.541372 1_556
Al0 Ru1 2.541372 1_555
Al0 B0 2.554923 1_555
Al0 Ru2 2.719769 1_565
Al0 Ru2 2.719769 1_566
Al0 Ru2 2.719769 1_456
Al0 Ru2 2.719769 1_455
Al1 Ru1 2.541372 1_666
Al1 Ru1 2.541372 1_665
Al1 Ru1 2.541372 1_556
Al1 Ru1 2.541372 1_555
Al1 B1 2.554923 1_555
Al1 Ru0 2.719769 1_655
Al1 Ru0 2.719769 1_656
Al1 Ru0 2.719769 1_546
Al1 Ru0 2.719769 1_545
B0 B1 1.811088 1_565
B0 B1 1.811088 1_455
B0 Ru2 2.277655 1_455
B0 Ru2 2.277655 1_456
B0 Ru2 2.277655 1_565
B0 Ru2 2.277655 1_566
B0 Ru0 2.348574 1_556
B0 Ru0 2.348574 1_555
B1 Ru0 2.277655 1_546
B1 Ru0 2.277655 1_655
B1 Ru0 2.277655 1_545
B1 Ru0 2.277655 1_656
B1 Ru2 2.348574 1_555
B1 Ru2 2.348574 1_556
