# generated using pymatgen
data_Na2SO4
_symmetry_space_group_name_H-M   'P 1'
_cell_length_a   4.97515421
_cell_length_b   4.97515421
_cell_length_c   8.35554300
_cell_angle_alpha   90.00000000
_cell_angle_beta   90.00000000
_cell_angle_gamma   120.00000286
_symmetry_Int_Tables_number   1
_chemical_formula_structural   Na2SO4
_chemical_formula_sum   'Na4 S2 O8'
_cell_volume   179.10940534
_cell_formula_units_Z   2
loop_
 _symmetry_equiv_pos_site_id
 _symmetry_equiv_pos_as_xyz
  1  'x, y, z'
loop_
 _atom_site_type_symbol
 _atom_site_label
 _atom_site_symmetry_multiplicity
 _atom_site_fract_x
 _atom_site_fract_y
 _atom_site_fract_z
 _atom_site_occupancy
  Na  Na0  1  0.00000000  0.00000000  0.00000000  1
  Na  Na1  1  0.00000000  0.00000000  0.50000000  1
  Na  Na2  1  0.33333300  0.66666700  0.04886100  1
  Na  Na3  1  0.66666700  0.33333300  0.95113900  1
  S  S0  1  0.66666700  0.33333300  0.27963400  1
  S  S1  1  0.33333300  0.66666700  0.72036600  1
  O  O0  1  0.84726900  0.15273100  0.77032100  1
  O  O1  1  0.84726900  0.69453800  0.77032100  1
  O  O2  1  0.30546200  0.15273100  0.77032100  1
  O  O3  1  0.69453800  0.84726900  0.22967900  1
  O  O4  1  0.15273100  0.30546200  0.22967900  1
  O  O5  1  0.15273100  0.84726900  0.22967900  1
  O  O6  1  0.66666700  0.33333300  0.45262800  1
  O  O7  1  0.33333300  0.66666700  0.54737200  1
loop_
_geom_bond_atom_site_label_1
_geom_bond_atom_site_label_2
_geom_bond_distance
_geom_bond_site_symmetry_2
Na0 O3 2.327032 1_445
Na0 O4 2.327032 1_555
Na0 O2 2.327032 1_554
Na0 O1 2.327032 1_444
Na0 O0 2.327032 1_454
Na0 O5 2.327032 1_545
Na1 O3 2.614152 1_445
Na1 O1 2.614152 1_445
Na1 O2 2.614152 1_555
Na1 O4 2.614152 1_555
Na1 O5 2.614152 1_545
Na1 O0 2.614152 1_455
Na1 O7 2.899548 1_545
Na1 O6 2.899548 1_455
Na1 O6 2.899552 1_555
Na1 O6 2.899552 1_445
Na1 O7 2.899552 1_555
Na1 O7 2.899552 1_445
Na2 O5 2.169019 1_555
Na2 O3 2.169022 1_555
Na2 O4 2.169022 1_555
Na2 S1 2.744754 1_554
Na3 O0 2.169019 1_555
Na3 O2 2.169022 1_555
Na3 O1 2.169022 1_555
Na3 S0 2.744754 1_556
O6 S0 1.445459 1_555
O7 S1 1.445459 1_555
