# generated using pymatgen
data_Na6Y3TaSi2(PO6)4
_symmetry_space_group_name_H-M   'P 1'
_cell_length_a   16.16486691
_cell_length_b   9.24550386
_cell_length_c   9.31015234
_cell_angle_alpha   89.96072235
_cell_angle_beta   125.42245834
_cell_angle_gamma   90.13573384
_symmetry_Int_Tables_number   1
_chemical_formula_structural   Na6Y3TaSi2(PO6)4
_chemical_formula_sum   'Na12 Y6 Ta2 Si4 P8 O48'
_cell_volume   1133.86880486
_cell_formula_units_Z   2
loop_
 _symmetry_equiv_pos_site_id
 _symmetry_equiv_pos_as_xyz
  1  'x, y, z'
loop_
 _atom_site_type_symbol
 _atom_site_label
 _atom_site_symmetry_multiplicity
 _atom_site_fract_x
 _atom_site_fract_y
 _atom_site_fract_z
 _atom_site_occupancy
  Na  Na0  1  0.25155695  0.75296747  0.00008734  1
  Na  Na1  1  0.74836421  0.75949205  0.49522139  1
  Na  Na2  1  0.75155695  0.25296747  0.00008734  1
  Na  Na3  1  0.24836421  0.25949205  0.49522139  1
  Na  Na4  1  0.50023610  0.08375767  0.73882983  1
  Na  Na5  1  0.50526100  0.88100401  0.24512394  1
  Na  Na6  1  0.00023610  0.58375767  0.73882983  1
  Na  Na7  1  0.00526100  0.38100401  0.24512394  1
  Na  Na8  1  0.19033701  0.93177424  0.29576006  1
  Na  Na9  1  0.80731754  0.08243094  0.71327266  1
  Na  Na10  1  0.69033701  0.43177424  0.29576006  1
  Na  Na11  1  0.30731754  0.58243094  0.71327266  1
  Y  Y0  1  0.10243937  0.76244488  0.56108304  1
  Y  Y1  1  0.89778026  0.24144995  0.44108242  1
  Y  Y2  1  0.10751945  0.25213662  0.05509620  1
  Y  Y3  1  0.60243937  0.26244488  0.56108304  1
  Y  Y4  1  0.39778026  0.74144995  0.44108242  1
  Y  Y5  1  0.60751945  0.75213662  0.05509620  1
  Ta  Ta0  1  0.89632665  0.74557892  0.94828821  1
  Ta  Ta1  1  0.39632665  0.24557892  0.94828821  1
  Si  Si0  1  0.35273882  0.90801113  0.75605379  1
  Si  Si1  1  0.65111336  0.10791714  0.25381086  1
  Si  Si2  1  0.85273882  0.40801113  0.75605379  1
  Si  Si3  1  0.15111336  0.60791714  0.25381086  1
  P  P0  1  0.99687862  0.94068411  0.76690210  1
  P  P1  1  0.99236811  0.04744533  0.23505019  1
  P  P2  1  0.49687862  0.44068411  0.76690210  1
  P  P3  1  0.49236811  0.54744533  0.23505019  1
  P  P4  1  0.65159564  0.89345968  0.73648482  1
  P  P5  1  0.35716584  0.09574104  0.25597248  1
  P  P6  1  0.15159564  0.39345968  0.73648482  1
  P  P7  1  0.85716584  0.59574104  0.25597248  1
  O  O0  1  0.16147040  0.56032187  0.74214179  1
  O  O1  1  0.84721263  0.58908566  0.77688193  1
  O  O2  1  0.85347544  0.43071185  0.22930623  1
  O  O3  1  0.15543575  0.43187015  0.25283217  1
  O  O4  1  0.66147040  0.06032187  0.74214179  1
  O  O5  1  0.34721263  0.08908566  0.77688193  1
  O  O6  1  0.35347544  0.93071185  0.22930623  1
  O  O7  1  0.65543575  0.93187015  0.25283217  1
  O  O8  1  0.43431941  0.54339500  0.60672004  1
  O  O9  1  0.56526200  0.52563258  0.93781584  1
  O  O10  1  0.54561873  0.45506778  0.40097211  1
  O  O11  1  0.43473237  0.44327599  0.07008763  1
  O  O12  1  0.93431941  0.04339500  0.60672004  1
  O  O13  1  0.06526200  0.02563258  0.93781584  1
  O  O14  1  0.04561873  0.95506778  0.40097211  1
  O  O15  1  0.93473237  0.94327599  0.07008763  1
  O  O16  1  0.26153730  0.83108742  0.75298869  1
  O  O17  1  0.75085670  0.82997473  0.76787978  1
  O  O18  1  0.73217596  0.19433854  0.23390622  1
  O  O19  1  0.26457354  0.14746487  0.24926134  1
  O  O20  1  0.76153730  0.33108742  0.75298869  1
  O  O21  1  0.25085670  0.32997473  0.76787978  1
  O  O22  1  0.23217596  0.69433854  0.23390622  1
  O  O23  1  0.76457354  0.64746487  0.24926134  1
  O  O24  1  0.35154292  0.88639227  0.57825484  1
  O  O25  1  0.64270098  0.84970748  0.88571044  1
  O  O26  1  0.66196896  0.15912251  0.43022222  1
  O  O27  1  0.35893523  0.16736819  0.10033124  1
  O  O28  1  0.85154292  0.38639227  0.57825484  1
  O  O29  1  0.14270098  0.34970748  0.88571044  1
  O  O30  1  0.16196896  0.65912251  0.43022222  1
  O  O31  1  0.85893523  0.66736819  0.10033124  1
  O  O32  1  0.46105174  0.85325437  0.92680121  1
  O  O33  1  0.55882496  0.83851808  0.55766878  1
  O  O34  1  0.53106187  0.16919014  0.08624283  1
  O  O35  1  0.45477269  0.13988529  0.43102867  1
  O  O36  1  0.96105174  0.35325437  0.92680121  1
  O  O37  1  0.05882496  0.33851808  0.55766878  1
  O  O38  1  0.03106187  0.66919014  0.08624283  1
  O  O39  1  0.95477269  0.63988529  0.43102867  1
  O  O40  1  0.05796100  0.82514490  0.74735993  1
  O  O41  1  0.91294988  0.85494830  0.77218246  1
  O  O42  1  0.91601136  0.15336152  0.22503501  1
  O  O43  1  0.07654923  0.13458533  0.24024927  1
  O  O44  1  0.55796100  0.32514490  0.74735993  1
  O  O45  1  0.41294988  0.35494830  0.77218246  1
  O  O46  1  0.41601136  0.65336152  0.22503501  1
  O  O47  1  0.57654923  0.63458533  0.24024927  1
loop_
_geom_bond_atom_site_label_1
_geom_bond_atom_site_label_2
_geom_bond_distance
_geom_bond_site_symmetry_2
Na0 O46 2.419983 1_555
Na0 O6 2.425987 1_555
Na0 O22 2.432894 1_555
Na0 O16 2.503499 1_554
Na0 O0 2.645728 1_554
Na0 O40 2.692056 1_554
Na1 O7 2.442517 1_555
Na1 O41 2.558452 1_555
Na1 O17 2.598805 1_555
Na1 O47 2.651114 1_555
Na1 O1 2.657242 1_555
Na1 O23 2.661815 1_555
Na2 O42 2.419983 1_555
Na2 O2 2.425987 1_555
Na2 O18 2.432894 1_555
Na2 O20 2.503499 1_554
Na2 O4 2.645728 1_554
Na2 O44 2.692056 1_554
Na3 O3 2.442517 1_555
Na3 O45 2.558452 1_555
Na3 O21 2.598805 1_555
Na3 O43 2.651114 1_555
Na3 O5 2.657242 1_555
Na3 O19 2.661815 1_555
Na4 O44 2.400454 1_555
Na4 O35 2.565141 1_555
Na4 O4 2.598147 1_555
Na4 O24 2.675728 1_545
Na4 O5 2.695012 1_555
Na4 O25 2.867922 1_545
Na5 O6 2.416488 1_555
Na5 O7 2.431466 1_555
Na5 O46 2.493870 1_555
Na5 O33 2.539805 1_555
Na5 O47 2.567820 1_555
Na5 O32 2.627685 1_554
Na6 O40 2.400454 1_555
Na6 O39 2.565141 1_455
Na6 O0 2.598147 1_555
Na6 O28 2.675728 1_455
Na6 O1 2.695012 1_455
Na6 O29 2.867922 1_555
Na7 O2 2.416488 1_455
Na7 O3 2.431466 1_555
Na7 O42 2.493870 1_455
Na7 O37 2.539805 1_555
Na7 O43 2.567820 1_555
Na7 O36 2.627685 1_454
Na8 O24 2.437790 1_555
Na8 O22 2.463379 1_555
Na8 O43 2.465642 1_565
Na8 O19 2.488747 1_565
Na8 O13 2.853135 1_564
Na9 O26 2.407407 1_555
Na9 O20 2.509181 1_555
Na9 O4 2.530709 1_555
Na9 O41 2.563146 1_545
Na9 O17 2.658114 1_545
Na9 O12 2.773780 1_555
Na10 O28 2.437790 1_555
Na10 O18 2.463379 1_555
Na10 O47 2.465642 1_555
Na10 O23 2.488747 1_555
Na10 O9 2.853135 1_554
Na11 O30 2.407407 1_555
Na11 O16 2.509181 1_555
Na11 O0 2.530709 1_555
Na11 O45 2.563146 1_555
Na11 O21 2.658114 1_555
Na11 O8 2.773780 1_555
O0 P6 1.548371 1_555
O0 Y0 2.320292 1_555
O1 Si2 1.693963 1_555
O1 Ta0 1.949209 1_555
O2 P7 1.541465 1_555
O2 Y1 2.413835 1_555
O3 Si3 1.629566 1_555
O3 Y2 2.257331 1_555
O4 P4 1.548371 1_545
O4 Y3 2.320292 1_555
O5 Si0 1.693963 1_545
O5 Ta1 1.949209 1_555
O6 P5 1.541465 1_565
O6 Y4 2.413835 1_555
O7 Si1 1.629566 1_565
O7 Y5 2.257331 1_555
O8 P2 1.550113 1_555
O8 Y4 2.241732 1_555
O9 P2 1.526237 1_555
O9 Y5 2.275092 1_556
O10 P3 1.522155 1_555
O10 Y3 2.157373 1_555
O11 P3 1.579058 1_555
O11 Ta1 2.047826 1_554
O12 P0 1.550113 1_545
O12 Y1 2.241732 1_555
O13 P0 1.526237 1_445
O13 Y2 2.275092 1_556
O14 P1 1.522155 1_465
O14 Y0 2.157373 1_555
O15 P1 1.579058 1_565
O15 Ta0 2.047826 1_554
O16 Si0 1.620603 1_555
O16 Y0 2.208266 1_555
O17 P4 1.570053 1_555
O17 Ta0 2.094758 1_555
O18 Si1 1.632833 1_555
O18 Y1 2.255321 1_555
O19 P5 1.538757 1_555
O19 Y2 2.310608 1_555
O20 Si2 1.620603 1_555
O20 Y3 2.208266 1_555
O21 P6 1.570053 1_555
O21 Ta1 2.094758 1_555
O22 Si3 1.632833 1_555
O22 Y4 2.255321 1_555
O23 P7 1.538757 1_555
O23 Y5 2.310608 1_555
O24 Si0 1.656442 1_555
O24 Y4 2.258089 1_555
O25 P4 1.531341 1_555
O25 Y5 2.158564 1_556
O26 Si1 1.618342 1_555
O26 Y3 2.165146 1_555
O27 P5 1.608021 1_555
O27 Ta1 1.969847 1_554
O28 Si2 1.656442 1_555
O28 Y1 2.258089 1_555
O29 P6 1.531341 1_555
O29 Y2 2.158564 1_556
O30 Si3 1.618342 1_555
O30 Y0 2.165146 1_555
O31 P7 1.608021 1_555
O31 Ta0 1.969847 1_554
O32 Si0 1.620364 1_555
O32 Y5 2.153396 1_556
O33 P4 1.543368 1_555
O33 Y4 2.339937 1_555
O34 Si1 1.736451 1_555
O34 Ta1 1.911900 1_554
O35 P5 1.526189 1_555
O35 Y3 2.255344 1_555
O36 Si2 1.620364 1_555
O36 Y2 2.153396 1_656
O37 P6 1.543368 1_555
O37 Y1 2.339937 1_455
O38 Si3 1.736451 1_555
O38 Ta0 1.911900 1_454
O39 P7 1.526189 1_555
O39 Y0 2.255344 1_655
O40 P0 1.537088 1_455
O40 Y0 2.304223 1_555
O41 P0 1.594847 1_555
O41 Ta0 2.071238 1_555
O42 P1 1.537303 1_555
O42 Y1 2.342335 1_555
O43 P1 1.556162 1_455
O43 Y2 2.323475 1_555
O44 P2 1.537088 1_555
O44 Y3 2.304223 1_555
O45 P2 1.594847 1_555
O45 Ta1 2.071238 1_555
O46 P3 1.537303 1_555
O46 Y4 2.342335 1_555
O47 P3 1.556162 1_555
O47 Y5 2.323475 1_555
