# generated using pymatgen
data_ZrAl2
_symmetry_space_group_name_H-M   'P 1'
_cell_length_a   5.27563406
_cell_length_b   5.27563177
_cell_length_c   8.73866071
_cell_angle_alpha   90.00000000
_cell_angle_beta   90.00000000
_cell_angle_gamma   119.99999070
_symmetry_Int_Tables_number   1
_chemical_formula_structural   ZrAl2
_chemical_formula_sum   'Zr4 Al8'
_cell_volume   210.63216353
_cell_formula_units_Z   4
loop_
 _symmetry_equiv_pos_site_id
 _symmetry_equiv_pos_as_xyz
  1  'x, y, z'
loop_
 _atom_site_type_symbol
 _atom_site_label
 _atom_site_symmetry_multiplicity
 _atom_site_fract_x
 _atom_site_fract_y
 _atom_site_fract_z
 _atom_site_occupancy
  Zr  Zr0  1  0.33333300  0.66666700  0.43491308  1
  Zr  Zr1  1  0.66666700  0.33333300  0.93491208  1
  Zr  Zr2  1  0.66666700  0.33333300  0.56508792  1
  Zr  Zr3  1  0.33333300  0.66666700  0.06508792  1
  Al  Al0  1  0.17066050  0.34132000  0.75000000  1
  Al  Al1  1  0.82933950  0.17066050  0.25000000  1
  Al  Al2  1  0.34132000  0.17066050  0.25000000  1
  Al  Al3  1  0.65868000  0.82933950  0.75000000  1
  Al  Al4  1  -0.00000000  -0.00000000  0.00000000  1
  Al  Al5  1  -0.00000000  -0.00000000  0.50000000  1
  Al  Al6  1  0.82933950  0.65868000  0.25000000  1
  Al  Al7  1  0.17066050  0.82933950  0.75000000  1
loop_
_geom_bond_atom_site_label_1
_geom_bond_atom_site_label_2
_geom_bond_distance
_geom_bond_site_symmetry_2
Zr0 Zr3 3.231777 1_555
Zr0 Zr2 3.251375 1_565
Zr0 Zr2 3.251377 1_455
Zr0 Zr2 3.251384 1_555
Zr1 Zr2 3.231768 1_555
Zr1 Zr3 3.251378 1_546
Zr1 Zr3 3.251380 1_656
Zr1 Zr3 3.251387 1_556
Al0 Al7 2.574611 1_555
Al0 Al3 2.574612 1_555
Al0 Al5 2.684138 1_555
Al0 Al4 2.684138 1_556
Al0 Al7 2.701021 1_545
Al0 Al3 2.701022 1_445
Al0 Zr2 3.093621 1_555
Al0 Zr1 3.093621 1_555
Al0 Zr2 3.093621 1_455
Al0 Zr1 3.093621 1_455
Al0 Zr0 3.129052 1_555
Al0 Zr3 3.129060 1_556
Al1 Al6 2.574611 1_555
Al1 Al2 2.574612 1_555
Al1 Al4 2.684140 1_655
Al1 Al5 2.684140 1_655
Al1 Al6 2.701021 1_545
Al1 Al2 2.701022 1_655
Al1 Zr3 3.093621 1_545
Al1 Zr3 3.093621 1_655
Al1 Zr0 3.093625 1_545
Al1 Zr0 3.093625 1_655
Al1 Zr2 3.129056 1_555
Al1 Zr1 3.129056 1_554
Al2 Al6 2.574612 1_555
Al2 Al4 2.684138 1_555
Al2 Al5 2.684138 1_555
Al2 Al6 2.701022 1_445
Al2 Zr3 3.093620 1_545
Al2 Zr3 3.093620 1_555
Al2 Zr0 3.093625 1_545
Al2 Zr0 3.093625 1_555
Al2 Zr2 3.129060 1_555
Al2 Zr1 3.129060 1_554
Al3 Al7 2.574612 1_555
Al3 Al5 2.684138 1_665
Al3 Al4 2.684138 1_666
Al3 Al7 2.701022 1_655
Al3 Zr1 3.093620 1_565
Al3 Zr2 3.093620 1_565
Al3 Zr2 3.093620 1_555
Al3 Zr1 3.093620 1_555
Al3 Zr0 3.129053 1_555
Al3 Zr3 3.129060 1_556
Al4 Al6 2.684138 1_445
Al4 Al7 2.684140 1_544
Al4 Zr3 3.098536 1_545
Al4 Zr1 3.098536 1_454
Al4 Zr3 3.098541 1_555
Al4 Zr1 3.098541 1_444
Al4 Zr1 3.098542 1_554
Al4 Zr3 3.098542 1_445
Al5 Al6 2.684138 1_445
Al5 Al7 2.684140 1_545
Al5 Zr0 3.098535 1_545
Al5 Zr2 3.098536 1_455
Al5 Zr0 3.098539 1_555
Al5 Zr0 3.098540 1_445
Al5 Zr2 3.098541 1_445
Al5 Zr2 3.098542 1_555
Al6 Zr3 3.093621 1_555
Al6 Zr3 3.093621 1_655
Al6 Zr0 3.093626 1_555
Al6 Zr0 3.093626 1_655
Al6 Zr1 3.129060 1_554
Al6 Zr2 3.129060 1_555
Al7 Zr1 3.093621 1_565
Al7 Zr2 3.093621 1_565
Al7 Zr1 3.093621 1_455
Al7 Zr2 3.093621 1_455
Al7 Zr0 3.129048 1_555
Al7 Zr3 3.129056 1_556
