# generated using pymatgen
data_Cr2CdSe4
_symmetry_space_group_name_H-M   'P 1'
_cell_length_a   7.65257927
_cell_length_b   7.65257300
_cell_length_c   7.65258990
_cell_angle_alpha   59.99993508
_cell_angle_beta   59.99991011
_cell_angle_gamma   59.99999979
_symmetry_Int_Tables_number   1
_chemical_formula_structural   Cr2CdSe4
_chemical_formula_sum   'Cr4 Cd2 Se8'
_cell_volume   316.88979339
_cell_formula_units_Z   2
loop_
 _symmetry_equiv_pos_site_id
 _symmetry_equiv_pos_as_xyz
  1  'x, y, z'
loop_
 _atom_site_type_symbol
 _atom_site_label
 _atom_site_symmetry_multiplicity
 _atom_site_fract_x
 _atom_site_fract_y
 _atom_site_fract_z
 _atom_site_occupancy
  Cr  Cr0  1  0.62499793  0.62499751  0.62499722  1
  Cr  Cr1  1  0.12500760  0.62499720  0.62499761  1
  Cr  Cr2  1  0.62499769  0.12500813  0.62499738  1
  Cr  Cr3  1  0.62499783  0.62499742  0.12500776  1
  Cd  Cd0  1  0.00000116  0.00000061  0.00000003  1
  Cd  Cd1  1  0.24999885  0.24999957  0.24999997  1
  Se  Se0  1  0.86016732  0.86016381  0.41951237  1
  Se  Se1  1  0.38979884  0.83058671  0.38980468  1
  Se  Se2  1  0.86016938  0.41951183  0.86016278  1
  Se  Se3  1  0.38979992  0.38980330  0.83058516  1
  Se  Se4  1  0.83058700  0.38980095  0.38980297  1
  Se  Se5  1  0.38980314  0.38980590  0.38980888  1
  Se  Se6  1  0.41951123  0.86016650  0.86016447  1
  Se  Se7  1  0.86016410  0.86016154  0.86015873  1
loop_
_geom_bond_atom_site_label_1
_geom_bond_atom_site_label_2
_geom_bond_distance
_geom_bond_site_symmetry_2
Cr0 Se0 2.555189 1_555
Cr0 Se6 2.555195 1_555
Cr0 Se2 2.555202 1_555
Cr0 Se4 2.555438 1_555
Cr0 Se3 2.555443 1_555
Cr0 Se1 2.555445 1_555
Cr1 Se2 2.555119 1_455
Cr1 Se7 2.555136 1_455
Cr1 Se0 2.555136 1_455
Cr1 Se1 2.555376 1_555
Cr1 Se3 2.555378 1_555
Cr1 Se5 2.555379 1_555
Cr2 Se6 2.555144 1_545
Cr2 Se7 2.555152 1_545
Cr2 Se0 2.555156 1_545
Cr2 Se4 2.555384 1_555
Cr2 Se3 2.555394 1_555
Cr2 Se5 2.555398 1_555
Cr3 Se7 2.555161 1_554
Cr3 Se6 2.555161 1_554
Cr3 Se2 2.555163 1_554
Cr3 Se4 2.555403 1_555
Cr3 Se5 2.555410 1_555
Cr3 Se1 2.555412 1_555
Cd0 Se6 2.621225 1_544
Cd0 Se2 2.621231 1_454
Cd0 Se0 2.621242 1_445
Cd0 Se7 2.621274 1_444
Cd1 Se4 2.620612 1_455
Cd1 Se1 2.620617 1_545
Cd1 Se3 2.620632 1_554
Cd1 Se5 2.620663 1_555
