# generated using pymatgen
data_NiH2SeO5
_symmetry_space_group_name_H-M   'P 1'
_cell_length_a   6.87914286
_cell_length_b   8.03799464
_cell_length_c   7.50520968
_cell_angle_alpha   89.99999851
_cell_angle_beta   117.38279182
_cell_angle_gamma   89.99999859
_symmetry_Int_Tables_number   1
_chemical_formula_structural   NiH2SeO5
_chemical_formula_sum   'Ni4 H8 Se4 O20'
_cell_volume   368.49799086
_cell_formula_units_Z   4
loop_
 _symmetry_equiv_pos_site_id
 _symmetry_equiv_pos_as_xyz
  1  'x, y, z'
loop_
 _atom_site_type_symbol
 _atom_site_label
 _atom_site_symmetry_multiplicity
 _atom_site_fract_x
 _atom_site_fract_y
 _atom_site_fract_z
 _atom_site_occupancy
  Ni  Ni0  1  -0.00000000  0.50000000  0.00000000  1
  Ni  Ni1  1  -0.00000000  -0.00000000  0.50000000  1
  Ni  Ni2  1  0.50000000  -0.00000000  0.00000000  1
  Ni  Ni3  1  0.50000000  0.50000000  0.50000000  1
  H  H0  1  0.33090374  0.69686358  0.19983688  1
  H  H1  1  0.83090374  0.19686358  0.19983688  1
  H  H2  1  0.66909626  0.19686358  0.30016312  1
  H  H3  1  0.16909626  0.69686358  0.30016312  1
  H  H4  1  0.66909626  0.30313642  0.80016312  1
  H  H5  1  0.16909626  0.80313642  0.80016312  1
  H  H6  1  0.33090374  0.80313642  0.69983688  1
  H  H7  1  0.83090374  0.30313642  0.69983688  1
  Se  Se0  1  0.75000000  0.83401080  0.75000000  1
  Se  Se1  1  0.25000000  0.33401080  0.75000000  1
  Se  Se2  1  0.25000000  0.16598920  0.25000000  1
  Se  Se3  1  0.75000000  0.66598920  0.25000000  1
  O  O0  1  0.25000000  0.87662472  0.75000000  1
  O  O1  1  0.75000000  0.37662472  0.75000000  1
  O  O2  1  0.75000000  0.12337528  0.25000000  1
  O  O3  1  0.25000000  0.62337528  0.25000000  1
  O  O4  1  0.75793980  0.94826985  0.57142738  1
  O  O5  1  0.25793980  0.44826985  0.57142738  1
  O  O6  1  0.74206020  0.94826985  0.92857262  1
  O  O7  1  0.24206020  0.44826985  0.92857262  1
  O  O8  1  0.24206020  0.05173015  0.42857262  1
  O  O9  1  0.74206020  0.55173015  0.42857262  1
  O  O10  1  0.25793980  0.05173015  0.07142738  1
  O  O11  1  0.75793980  0.55173015  0.07142738  1
  O  O12  1  0.47363620  0.21520672  0.84815737  1
  O  O13  1  0.97363620  0.71520672  0.84815737  1
  O  O14  1  0.52636380  0.71520672  0.65184263  1
  O  O15  1  0.02636380  0.21520672  0.65184263  1
  O  O16  1  0.52636380  0.78479328  0.15184263  1
  O  O17  1  0.02636380  0.28479328  0.15184263  1
  O  O18  1  0.47363620  0.28479328  0.34815737  1
  O  O19  1  0.97363620  0.78479328  0.34815737  1
loop_
_geom_bond_atom_site_label_1
_geom_bond_atom_site_label_2
_geom_bond_distance
_geom_bond_site_symmetry_2
Ni0 O11 2.013500 1_455
Ni0 O7 2.013500 1_554
Ni0 O13 2.033175 1_454
Ni0 O17 2.033175 1_555
Ni0 O3 2.119755 1_555
Ni0 O1 2.119755 1_454
Ni1 O4 2.013500 1_445
Ni1 O8 2.013500 1_555
Ni1 O19 2.033175 1_445
Ni1 O15 2.033175 1_555
Ni1 O0 2.119755 1_545
Ni1 O2 2.119755 1_455
Ni2 O10 2.013500 1_555
Ni2 O6 2.013500 1_544
Ni2 O12 2.033175 1_554
Ni2 O16 2.033175 1_545
Ni2 O0 2.119755 1_544
Ni2 O2 2.119755 1_555
Ni3 O9 2.013500 1_555
Ni3 O5 2.013500 1_555
Ni3 O14 2.033175 1_555
Ni3 O18 2.033175 1_555
Ni3 O1 2.119755 1_555
Ni3 O3 2.119755 1_555
H0 O3 0.996571 1_555
H0 O16 1.697866 1_555
H1 O2 0.996571 1_555
H1 O17 1.697866 1_655
H2 O2 0.996571 1_555
H2 O18 1.697866 1_555
H3 O3 0.996571 1_555
H3 O19 1.697866 1_455
H4 O1 0.996571 1_555
H4 O12 1.697866 1_555
H5 O0 0.996571 1_555
H5 O13 1.697866 1_455
H6 O0 0.996571 1_555
H6 O14 1.697866 1_555
H7 O1 0.996571 1_555
H7 O15 1.697866 1_655
O4 Se0 1.646209 1_555
O5 Se1 1.646209 1_555
O6 Se0 1.646209 1_555
O7 Se1 1.646209 1_555
O8 Se2 1.646209 1_555
O9 Se3 1.646209 1_555
O10 Se2 1.646209 1_555
O11 Se3 1.646209 1_555
O12 Se1 1.666993 1_555
O13 Se0 1.666993 1_555
O14 Se0 1.666993 1_555
O15 Se1 1.666993 1_555
O16 Se3 1.666993 1_555
O17 Se2 1.666993 1_555
O18 Se2 1.666993 1_555
O19 Se3 1.666993 1_555
