# generated using pymatgen
data_Na2In2Si(SO6)2
_symmetry_space_group_name_H-M   'P 1'
_cell_length_a   9.08122622
_cell_length_b   9.08122590
_cell_length_c   23.15174246
_cell_angle_alpha   90.29389087
_cell_angle_beta   89.70610912
_cell_angle_gamma   119.95482995
_symmetry_Int_Tables_number   1
_chemical_formula_structural   Na2In2Si(SO6)2
_chemical_formula_sum   'Na12 In12 Si6 S12 O72'
_cell_volume   1654.21959885
_cell_formula_units_Z   6
loop_
 _symmetry_equiv_pos_site_id
 _symmetry_equiv_pos_as_xyz
  1  'x, y, z'
loop_
 _atom_site_type_symbol
 _atom_site_label
 _atom_site_symmetry_multiplicity
 _atom_site_fract_x
 _atom_site_fract_y
 _atom_site_fract_z
 _atom_site_occupancy
  Na  Na0  1  0.00033312  0.62269578  0.25097947  1
  Na  Na1  1  0.37730422  0.99966688  0.75097947  1
  Na  Na2  1  0.65924430  0.96965466  0.59250834  1
  Na  Na3  1  0.03034534  0.34075570  0.09250834  1
  Na  Na4  1  0.98193122  0.67695267  0.92471192  1
  Na  Na5  1  0.32304733  0.01806878  0.42471192  1
  Na  Na6  1  0.01268311  0.98753184  0.50109354  1
  Na  Na7  1  0.01246816  0.98731689  0.00109354  1
  Na  Na8  1  0.65958521  0.30505411  0.83467423  1
  Na  Na9  1  0.69494589  0.34041479  0.33467423  1
  Na  Na10  1  0.32920913  0.66050568  0.16687913  1
  Na  Na11  1  0.33949432  0.67079087  0.66687913  1
  In  In0  1  0.99349293  0.00108373  0.34986199  1
  In  In1  1  0.99891627  0.00650707  0.84986199  1
  In  In2  1  0.00692660  0.00061995  0.64999851  1
  In  In3  1  0.99938005  0.99307340  0.14999851  1
  In  In4  1  0.66859220  0.32435129  0.68371708  1
  In  In5  1  0.67564871  0.33140780  0.18371708  1
  In  In6  1  0.66005201  0.33048552  0.98319713  1
  In  In7  1  0.66951448  0.33994799  0.48319713  1
  In  In8  1  0.32704722  0.68343064  0.01647283  1
  In  In9  1  0.31656936  0.67295278  0.51647283  1
  In  In10  1  0.31277588  0.64421442  0.31660689  1
  In  In11  1  0.35578558  0.68722412  0.81660689  1
  Si  Si0  1  0.99890076  0.29077504  0.24763373  1
  Si  Si1  1  0.70922496  0.00109924  0.74763373  1
  Si  Si2  1  0.36755666  0.03798170  0.58208185  1
  Si  Si3  1  0.96201830  0.63244334  0.08208185  1
  Si  Si4  1  0.33267955  0.97388784  0.91351063  1
  Si  Si5  1  0.02611216  0.66732045  0.41351063  1
  S  S0  1  0.30311628  0.00311232  0.25082469  1
  S  S1  1  0.69676452  0.70074627  0.25063409  1
  S  S2  1  0.29925373  0.30323548  0.75063409  1
  S  S3  1  0.99688768  0.69688372  0.75082469  1
  S  S4  1  0.96594824  0.33495745  0.58296755  1
  S  S5  1  0.66416617  0.62864353  0.58395357  1
  S  S6  1  0.66504255  0.03405176  0.08296755  1
  S  S7  1  0.37135647  0.33583383  0.08395357  1
  S  S8  1  0.62665098  0.66467484  0.91824098  1
  S  S9  1  0.04412251  0.37516843  0.91686861  1
  S  S10  1  0.62483157  0.95587749  0.41686861  1
  S  S11  1  0.33532516  0.37334902  0.41824098  1
  O  O0  1  0.22939653  0.02616220  0.30510127  1
  O  O1  1  0.80963747  0.77498360  0.30151379  1
  O  O2  1  0.97725405  0.17899135  0.30469879  1
  O  O3  1  0.22501640  0.19036253  0.80151379  1
  O  O4  1  0.97383780  0.77060347  0.80510127  1
  O  O5  1  0.82100865  0.02274595  0.80469879  1
  O  O6  1  0.79211208  0.98106854  0.68678333  1
  O  O7  1  0.19870015  0.22580075  0.69759536  1
  O  O8  1  0.03418793  0.81315023  0.70084125  1
  O  O9  1  0.77419925  0.80129985  0.19759536  1
  O  O10  1  0.01893146  0.20788792  0.18678333  1
  O  O11  1  0.18684977  0.96581207  0.20084125  1
  O  O12  1  0.89375766  0.36800601  0.63555147  1
  O  O13  1  0.48422976  0.12066170  0.64004026  1
  O  O14  1  0.64886379  0.53031723  0.63648397  1
  O  O15  1  0.87933830  0.51577024  0.14004026  1
  O  O16  1  0.63199399  0.10624234  0.13555147  1
  O  O17  1  0.46968277  0.35113621  0.13648397  1
  O  O18  1  0.44684177  0.30840619  0.03126469  1
  O  O19  1  0.85455692  0.54543576  0.02226156  1
  O  O20  1  0.68854856  0.13919112  0.03127175  1
  O  O21  1  0.45456424  0.14544308  0.52226156  1
  O  O22  1  0.69159381  0.55315823  0.53126469  1
  O  O23  1  0.86080888  0.31145144  0.53127175  1
  O  O24  1  0.54090521  0.67939952  0.97054725  1
  O  O25  1  0.14096413  0.44722560  0.97136546  1
  O  O26  1  0.28598100  0.84360817  0.96789985  1
  O  O27  1  0.55277440  0.85903587  0.47136546  1
  O  O28  1  0.32060048  0.45909479  0.47054725  1
  O  O29  1  0.15639183  0.71401900  0.46789985  1
  O  O30  1  0.10508120  0.64216308  0.35268876  1
  O  O31  1  0.51800129  0.86721505  0.36603168  1
  O  O32  1  0.36280467  0.47432522  0.36533347  1
  O  O33  1  0.13278495  0.48199871  0.86603168  1
  O  O34  1  0.35783692  0.89491880  0.85268876  1
  O  O35  1  0.52567478  0.63719533  0.86533347  1
  O  O36  1  0.02216115  0.84917268  0.40962683  1
  O  O37  1  0.79874487  0.98253630  0.41279285  1
  O  O38  1  0.17952090  0.20237329  0.41479480  1
  O  O39  1  0.01746370  0.20125513  0.91279285  1
  O  O40  1  0.15082732  0.97783885  0.90962683  1
  O  O41  1  0.79762671  0.82047910  0.91479480  1
  O  O42  1  0.96965382  0.17311078  0.58728981  1
  O  O43  1  0.17675236  0.01537461  0.58757824  1
  O  O44  1  0.81256306  0.80538370  0.58700133  1
  O  O45  1  0.98462539  0.82324764  0.08757824  1
  O  O46  1  0.82688922  0.03034618  0.08728981  1
  O  O47  1  0.19461630  0.18743694  0.08700133  1
  O  O48  1  0.67885248  0.16757931  0.74790332  1
  O  O49  1  0.47273128  0.32382537  0.74500263  1
  O  O50  1  0.84031282  0.53160253  0.74233936  1
  O  O51  1  0.67617463  0.52726872  0.24500263  1
  O  O52  1  0.83242069  0.32114752  0.24790332  1
  O  O53  1  0.46839747  0.15968718  0.24233936  1
  O  O54  1  0.65542161  0.51683411  0.92083413  1
  O  O55  1  0.87644569  0.36953406  0.91961207  1
  O  O56  1  0.50394070  0.15986253  0.92156652  1
  O  O57  1  0.63046594  0.12355431  0.41961207  1
  O  O58  1  0.48316589  0.34457839  0.42083413  1
  O  O59  1  0.84013747  0.49605930  0.42156652  1
  O  O60  1  0.35703375  0.49258326  0.07913865  1
  O  O61  1  0.14678782  0.63438299  0.08024930  1
  O  O62  1  0.52004160  0.85884598  0.07772443  1
  O  O63  1  0.36561701  0.85321218  0.58024930  1
  O  O64  1  0.50741674  0.64296625  0.57913865  1
  O  O65  1  0.14115402  0.47995840  0.57772443  1
  O  O66  1  0.32571819  0.85149072  0.25460473  1
  O  O67  1  0.53057061  0.69052298  0.25831113  1
  O  O68  1  0.16808881  0.48599007  0.24893912  1
  O  O69  1  0.30947702  0.46942939  0.75831113  1
  O  O70  1  0.14850928  0.67428181  0.75460473  1
  O  O71  1  0.51400993  0.83191119  0.74893912  1
loop_
_geom_bond_atom_site_label_1
_geom_bond_atom_site_label_2
_geom_bond_distance
_geom_bond_site_symmetry_2
Na0 O52 2.378729 1_455
Na0 O68 2.398253 1_555
Na0 O30 2.516291 1_555
Na0 O51 2.625114 1_455
Na0 O66 2.631556 1_555
Na0 O15 2.772173 1_455
Na0 O1 2.938473 1_455
Na0 O11 2.944779 1_555
Na1 O48 2.378729 1_565
Na1 O71 2.398253 1_555
Na1 O34 2.516291 1_555
Na1 O49 2.625114 1_565
Na1 O70 2.631556 1_555
Na1 O13 2.772173 1_565
Na1 O3 2.938473 1_565
Na1 O8 2.944779 1_555
Na2 O63 2.344741 1_555
Na2 O6 2.475946 1_555
Na2 O42 2.484382 1_565
Na2 O44 2.500132 1_555
Na2 O64 2.590060 1_555
Na2 O13 2.785797 1_565
Na2 O27 2.973064 1_555
Na3 O61 2.344741 1_555
Na3 O10 2.475946 1_555
Na3 O46 2.484382 1_455
Na3 O47 2.500132 1_555
Na3 O60 2.590061 1_555
Na3 O15 2.785797 1_455
Na3 O25 2.973064 1_554
Na4 O40 2.399926 1_655
Na4 O55 2.460184 1_555
Na4 O19 2.546811 1_556
Na4 O54 2.571002 1_555
Na4 O41 2.595844 1_555
Na4 O26 2.598817 1_655
Na4 O4 2.913040 1_555
Na5 O36 2.399926 1_545
Na5 O57 2.460184 1_555
Na5 O21 2.546811 1_555
Na5 O58 2.571001 1_555
Na5 O38 2.595844 1_555
Na5 O29 2.598817 1_545
Na5 O0 2.913040 1_555
Na6 O43 2.437657 1_565
Na6 O36 2.479768 1_555
Na6 O44 2.643729 1_455
Na6 O38 2.674109 1_565
Na6 O42 2.755070 1_465
Na6 O37 2.812048 1_455
Na7 O45 2.437657 1_455
Na7 O40 2.479768 1_554
Na7 O47 2.643729 1_565
Na7 O41 2.674109 1_454
Na7 O46 2.755070 1_465
Na7 O39 2.812048 1_564
Na8 O48 2.411160 1_555
Na8 O56 2.433149 1_555
Na8 O55 2.639040 1_555
Na8 O49 2.747186 1_555
Na8 O54 2.777001 1_555
Na8 O50 2.851887 1_555
Na9 O52 2.411160 1_555
Na9 O59 2.433149 1_555
Na9 O57 2.639040 1_555
Na9 O51 2.747186 1_555
Na9 O58 2.777001 1_555
Na9 O53 2.851887 1_555
Na10 O68 2.438965 1_555
Na10 O61 2.541641 1_555
Na10 O60 2.619811 1_555
Na10 O66 2.674350 1_555
Na10 O62 2.718865 1_555
Na10 O67 2.726721 1_555
Na11 O71 2.438965 1_555
Na11 O63 2.541641 1_555
Na11 O64 2.619811 1_555
Na11 O70 2.674350 1_555
Na11 O65 2.718865 1_555
Na11 O69 2.726721 1_555
In0 O2 1.995522 1_555
In0 O36 2.065759 1_645
In0 O1 2.197404 1_545
In0 O37 2.226540 1_545
In0 O0 2.282018 1_655
In0 O38 2.317175 1_655
In1 O5 1.995522 1_555
In1 O40 2.065759 1_645
In1 O3 2.197404 1_655
In1 O39 2.226540 1_655
In1 O4 2.282018 1_545
In1 O41 2.317175 1_545
In2 O6 2.049625 1_445
In2 O43 2.063395 1_555
In2 O8 2.188525 1_545
In2 O7 2.206597 1_555
In2 O42 2.287770 1_455
In2 O44 2.293654 1_445
In3 O10 2.049624 1_665
In3 O45 2.063395 1_555
In3 O11 2.188526 1_655
In3 O9 2.206597 1_555
In3 O46 2.287770 1_565
In3 O47 2.293654 1_665
In4 O13 2.037805 1_555
In4 O48 2.097478 1_555
In4 O12 2.180228 1_555
In4 O50 2.209218 1_555
In4 O14 2.254778 1_555
In4 O49 2.267714 1_555
In5 O15 2.037805 1_555
In5 O52 2.097478 1_555
In5 O16 2.180227 1_555
In5 O53 2.209218 1_555
In5 O17 2.254778 1_555
In5 O51 2.267714 1_555
In6 O56 2.061797 1_555
In6 O19 2.074449 1_556
In6 O18 2.149427 1_556
In6 O20 2.189821 1_556
In6 O54 2.246531 1_555
In6 O55 2.331162 1_555
In7 O59 2.061797 1_555
In7 O21 2.074449 1_555
In7 O22 2.149426 1_555
In7 O23 2.189821 1_555
In7 O58 2.246531 1_555
In7 O57 2.331162 1_555
In8 O26 2.020492 1_554
In8 O61 2.076550 1_555
In8 O62 2.198746 1_555
In8 O25 2.218705 1_554
In8 O24 2.225533 1_554
In8 O60 2.384100 1_555
In9 O29 2.020492 1_555
In9 O63 2.076550 1_555
In9 O65 2.198746 1_555
In9 O27 2.218705 1_555
In9 O28 2.225533 1_555
In9 O64 2.384100 1_555
In10 O30 2.050497 1_555
In10 O68 2.087580 1_555
In10 O32 2.140643 1_555
In10 O67 2.249018 1_555
In10 O31 2.261168 1_555
In10 O66 2.328637 1_555
In11 O34 2.050496 1_555
In11 O71 2.087580 1_555
In11 O35 2.140644 1_555
In11 O69 2.249018 1_555
In11 O33 2.261168 1_555
In11 O70 2.328637 1_555
O0 S0 1.483122 1_555
O1 S1 1.485563 1_555
O2 Si0 1.620618 1_555
O3 S2 1.485563 1_555
O4 S3 1.483122 1_555
O5 Si1 1.620618 1_555
O6 Si1 1.645477 1_565
O7 S2 1.482418 1_555
O8 S3 1.489972 1_455
O9 S1 1.482418 1_555
O10 Si0 1.645477 1_455
O11 S0 1.489972 1_565
O12 S4 1.478679 1_555
O13 Si2 1.642162 1_555
O14 S5 1.476884 1_555
O15 Si3 1.642162 1_555
O16 S6 1.478679 1_555
O17 S7 1.476884 1_555
O18 S7 1.476066 1_555
O19 Si3 1.651467 1_555
O20 S6 1.481624 1_555
O21 Si2 1.651466 1_555
O22 S5 1.476066 1_555
O23 S4 1.481624 1_555
O24 S8 1.477613 1_555
O25 S9 1.490541 1_555
O26 Si4 1.635215 1_555
O27 S10 1.490541 1_555
O28 S11 1.477613 1_555
O29 Si5 1.635215 1_555
O30 Si5 1.642945 1_555
O31 S10 1.482111 1_555
O32 S11 1.477630 1_555
O33 S9 1.482111 1_555
O34 Si4 1.642945 1_555
O35 S8 1.477630 1_555
O36 Si5 1.672531 1_555
O37 S10 1.476050 1_555
O38 S11 1.491676 1_555
O39 S9 1.476050 1_555
O40 Si4 1.672531 1_555
O41 S8 1.491676 1_555
O42 S4 1.490736 1_555
O43 Si2 1.644226 1_555
O44 S5 1.495647 1_555
O45 Si3 1.644226 1_555
O46 S6 1.490736 1_555
O47 S7 1.495647 1_555
O48 Si1 1.666762 1_555
O49 S2 1.495924 1_555
O50 S3 1.477090 1_555
O51 S1 1.495924 1_555
O52 Si0 1.666762 1_555
O53 S0 1.477090 1_555
O54 S8 1.491865 1_555
O55 S9 1.498845 1_655
O56 Si4 1.637870 1_545
O57 S10 1.498845 1_545
O58 S11 1.491865 1_555
O59 Si5 1.637870 1_655
O60 S7 1.497432 1_555
O61 Si3 1.669531 1_455
O62 S6 1.479057 1_565
O63 Si2 1.669531 1_565
O64 S5 1.497432 1_555
O65 S4 1.479057 1_455
O66 S0 1.493090 1_565
O67 S1 1.474964 1_555
O68 Si0 1.668593 1_455
O69 S2 1.474964 1_555
O70 S3 1.493090 1_455
O71 Si1 1.668593 1_565
