# generated using pymatgen
data_VBiO4
_symmetry_space_group_name_H-M   'P 1'
_cell_length_a   6.83464338
_cell_length_b   6.83464338
_cell_length_c   6.83464338
_cell_angle_alpha   135.98642934
_cell_angle_beta   135.98642934
_cell_angle_gamma   64.00131637
_symmetry_Int_Tables_number   1
_chemical_formula_structural   VBiO4
_chemical_formula_sum   'V2 Bi2 O8'
_cell_volume   152.06536936
_cell_formula_units_Z   2
loop_
 _symmetry_equiv_pos_site_id
 _symmetry_equiv_pos_as_xyz
  1  'x, y, z'
loop_
 _atom_site_type_symbol
 _atom_site_label
 _atom_site_symmetry_multiplicity
 _atom_site_fract_x
 _atom_site_fract_y
 _atom_site_fract_z
 _atom_site_occupancy
  V  V0  1  0.50000000  0.50000000  -0.00000000  1
  V  V1  1  0.25000000  0.75000000  0.50000000  1
  Bi  Bi0  1  -0.00000000  -0.00000000  -0.00000000  1
  Bi  Bi1  1  0.75000000  0.25000000  0.50000000  1
  O  O0  1  0.17085109  0.56190276  0.89100626  1
  O  O1  1  0.31190276  0.92089651  0.89105167  1
  O  O2  1  0.02984483  0.42085109  0.10894833  1
  O  O3  1  0.67089651  0.27984483  0.10899374  1
  O  O4  1  0.07910349  0.97015517  0.39100626  1
  O  O5  1  0.72015517  0.82914891  0.39105167  1
  O  O6  1  0.57914891  0.68809724  0.60899374  1
  O  O7  1  0.43809724  0.32910349  0.60894833  1
loop_
_geom_bond_atom_site_label_1
_geom_bond_atom_site_label_2
_geom_bond_distance
_geom_bond_site_symmetry_2
Bi0 O3 2.421065 1_455
Bi0 O7 2.421065 1_555
Bi0 O5 2.421065 1_444
Bi0 O0 2.421065 1_544
Bi0 O2 2.466738 1_555
Bi0 O6 2.466738 1_444
Bi0 O1 2.466738 1_544
Bi0 O4 2.466738 1_545
Bi1 O4 2.421065 1_645
Bi1 O1 2.421065 1_544
Bi1 O2 2.421065 1_656
Bi1 O6 2.421065 1_555
Bi1 O0 2.466738 1_655
Bi1 O5 2.466738 1_545
Bi1 O7 2.466738 1_555
Bi1 O3 2.466738 1_555
O0 V0 1.732971 1_556
O1 V1 1.732971 1_555
O2 V1 1.732971 1_555
O3 V0 1.732971 1_555
O4 V1 1.732971 1_555
O5 V0 1.732971 1_555
O6 V1 1.732971 1_555
O7 V0 1.732971 1_556
