# generated using pymatgen
data_CsBiF6
_symmetry_space_group_name_H-M   'P 1'
_cell_length_a   5.31948387
_cell_length_b   5.31948359
_cell_length_c   5.31948352
_cell_angle_alpha   95.99922849
_cell_angle_beta   95.99921890
_cell_angle_gamma   95.99922624
_symmetry_Int_Tables_number   1
_chemical_formula_structural   CsBiF6
_chemical_formula_sum   'Cs1 Bi1 F6'
_cell_volume   147.86318644
_cell_formula_units_Z   1
loop_
 _symmetry_equiv_pos_site_id
 _symmetry_equiv_pos_as_xyz
  1  'x, y, z'
loop_
 _atom_site_type_symbol
 _atom_site_label
 _atom_site_symmetry_multiplicity
 _atom_site_fract_x
 _atom_site_fract_y
 _atom_site_fract_z
 _atom_site_occupancy
  Cs  Cs0  1  0.50000000  0.50000000  0.50000000  1
  Bi  Bi0  1  -0.00000000  0.00000000  0.00000000  1
  F  F0  1  0.19519143  0.92078006  0.32407008  1
  F  F1  1  0.92078006  0.32407008  0.19519143  1
  F  F2  1  0.67592992  0.80480857  0.07921994  1
  F  F3  1  0.07921994  0.67592992  0.80480857  1
  F  F4  1  0.80480857  0.07921994  0.67592992  1
  F  F5  1  0.32407008  0.19519143  0.92078006  1
loop_
_geom_bond_atom_site_label_1
_geom_bond_atom_site_label_2
_geom_bond_distance
_geom_bond_site_symmetry_2
Cs0 F3 3.065010 1_555
Cs0 F1 3.065010 1_555
Cs0 F2 3.065010 1_555
Cs0 F5 3.065010 1_555
Cs0 F0 3.065010 1_555
Cs0 F4 3.065010 1_555
Cs0 F2 3.321765 1_556
Cs0 F5 3.321765 1_554
Cs0 F4 3.321765 1_565
Cs0 F0 3.321765 1_545
Cs0 F1 3.321765 1_455
Cs0 F3 3.321765 1_655
Bi0 F1 2.024014 1_455
Bi0 F3 2.024014 1_544
Bi0 F2 2.024014 1_445
Bi0 F5 2.024014 1_554
Bi0 F0 2.024014 1_545
Bi0 F4 2.024014 1_454
