# generated using pymatgen
data_MgMn6(O5F)2
_symmetry_space_group_name_H-M   'P 1'
_cell_length_a   4.96875530
_cell_length_b   5.01743642
_cell_length_c   8.75824284
_cell_angle_alpha   90.00269705
_cell_angle_beta   90.06804246
_cell_angle_gamma   99.75030067
_symmetry_Int_Tables_number   1
_chemical_formula_structural   MgMn6(O5F)2
_chemical_formula_sum   'Mg1 Mn6 O10 F2'
_cell_volume   215.19247970
_cell_formula_units_Z   1
loop_
 _symmetry_equiv_pos_site_id
 _symmetry_equiv_pos_as_xyz
  1  'x, y, z'
loop_
 _atom_site_type_symbol
 _atom_site_label
 _atom_site_symmetry_multiplicity
 _atom_site_fract_x
 _atom_site_fract_y
 _atom_site_fract_z
 _atom_site_occupancy
  Mg  Mg0  1  0.49044874  0.96671988  0.49828223  1
  Mn  Mn0  1  0.99526033  0.00006784  0.00896651  1
  Mn  Mn1  1  0.99328015  0.01296184  0.32390208  1
  Mn  Mn2  1  0.99658827  0.01204892  0.68100312  1
  Mn  Mn3  1  0.46067456  0.52802795  0.83847940  1
  Mn  Mn4  1  0.53033909  0.47495724  0.16810037  1
  Mn  Mn5  1  0.57023952  0.47003446  0.50632617  1
  O  O0  1  0.12757537  0.82232222  0.16828425  1
  O  O1  1  0.13130919  0.81927138  0.84091451  1
  O  O2  1  0.32905984  0.28567892  0.00243283  1
  O  O3  1  0.36401504  0.24489512  0.34484029  1
  O  O4  1  0.36346559  0.25551502  0.66334285  1
  O  O5  1  0.64974348  0.73311180  0.00759591  1
  O  O6  1  0.65805391  0.73106593  0.34160549  1
  O  O7  1  0.64179112  0.74199739  0.66456410  1
  O  O8  1  0.85461186  0.20317484  0.17367785  1
  O  O9  1  0.85616794  0.19115520  0.50284795  1
  F  F0  1  0.13043679  0.76924681  0.48856253  1
  F  F1  1  0.84305020  0.22385822  0.85484356  1
loop_
_geom_bond_atom_site_label_1
_geom_bond_atom_site_label_2
_geom_bond_distance
_geom_bond_site_symmetry_2
Mg0 O9 1.969392 1_565
Mg0 O7 2.059724 1_555
Mg0 O6 2.076200 1_555
Mg0 O3 2.108053 1_565
Mg0 O4 2.213423 1_565
Mn0 O0 1.836056 1_645
Mn0 O1 1.912097 1_644
Mn0 O8 1.962505 1_555
Mn0 O5 1.990646 1_545
Mn0 O2 2.000726 1_655
Mn1 O8 1.826838 1_555
Mn1 O0 1.853652 1_645
Mn1 O9 1.982044 1_555
Mn1 O6 2.000409 1_545
Mn1 O3 2.013517 1_655
Mn2 O1 1.887429 1_645
Mn2 O9 1.984672 1_555
Mn2 O4 2.021301 1_655
Mn2 O7 2.038331 1_545
Mn3 O2 1.923861 1_556
Mn3 O5 1.950474 1_556
Mn3 O7 1.989653 1_555
Mn3 O4 2.056700 1_555
Mn3 O1 2.371535 1_555
Mn4 O2 1.918886 1_555
Mn4 O5 1.935895 1_555
Mn4 O6 2.021004 1_555
Mn4 O3 2.022775 1_555
Mn4 O8 2.280793 1_555
Mn5 O4 1.932397 1_555
Mn5 O7 1.934793 1_555
Mn5 O6 1.948105 1_555
Mn5 O3 1.982600 1_555
Mn5 O9 2.156548 1_555
F0 Mg0 1.894230 1_555
F0 Mn1 2.078363 1_465
F0 Mn2 2.245892 1_465
F1 Mn0 1.984999 1_556
F1 Mn2 2.075273 1_555
F1 Mn3 2.634561 1_555
