# generated using pymatgen
data_MgCrGaO4
_symmetry_space_group_name_H-M   'P 1'
_cell_length_a   5.20286814
_cell_length_b   6.01816119
_cell_length_c   5.21121910
_cell_angle_alpha   77.43921380
_cell_angle_beta   104.57667116
_cell_angle_gamma   149.81697069
_symmetry_Int_Tables_number   1
_chemical_formula_structural   MgCrGaO4
_chemical_formula_sum   'Mg1 Cr1 Ga1 O4'
_cell_volume   79.39642627
_cell_formula_units_Z   1
loop_
 _symmetry_equiv_pos_site_id
 _symmetry_equiv_pos_as_xyz
  1  'x, y, z'
loop_
 _atom_site_type_symbol
 _atom_site_label
 _atom_site_symmetry_multiplicity
 _atom_site_fract_x
 _atom_site_fract_y
 _atom_site_fract_z
 _atom_site_occupancy
  Mg  Mg0  1  0.79685059  0.49998305  0.70328582  1
  Cr  Cr0  1  0.58503038  0.99971623  0.41768723  1
  Ga  Ga0  1  0.47046459  0.49913601  0.03111869  1
  O  O0  1  0.15361703  0.00004178  0.84896525  1
  O  O1  1  0.19121502  0.49969314  0.68730478  1
  O  O2  1  0.81784902  0.99927485  0.18443347  1
  O  O3  1  0.81515037  0.49968994  0.31072276  1
loop_
_geom_bond_atom_site_label_1
_geom_bond_atom_site_label_2
_geom_bond_distance
_geom_bond_site_symmetry_2
Mg0 O0 1.924933 1_665
Mg0 O0 1.925146 1_555
Mg0 O3 2.072194 1_555
Mg0 O1 2.075860 1_655
Cr0 O2 1.921705 1_555
Cr0 O3 2.043527 1_565
Cr0 O1 2.043687 1_665
Cr0 O3 2.043903 1_455
Cr0 O1 2.044056 1_555
Ga0 O2 1.969280 1_445
Ga0 O2 1.969416 1_555
Ga0 O3 2.003921 1_555
Ga0 O1 2.004144 1_554
Ga0 O0 2.128959 1_554
Ga0 O0 2.133410 1_664
