# generated using pymatgen
data_Y4RuI5
_symmetry_space_group_name_H-M   'P 1'
_cell_length_a   12.43559600
_cell_length_b   12.43559600
_cell_length_c   18.35522000
_cell_angle_alpha   90.00000000
_cell_angle_beta   90.00000000
_cell_angle_gamma   90.00000000
_symmetry_Int_Tables_number   1
_chemical_formula_structural   Y4RuI5
_chemical_formula_sum   'Y32 Ru8 I40'
_cell_volume   2838.52552044
_cell_formula_units_Z   8
loop_
 _symmetry_equiv_pos_site_id
 _symmetry_equiv_pos_as_xyz
  1  'x, y, z'
loop_
 _atom_site_type_symbol
 _atom_site_label
 _atom_site_symmetry_multiplicity
 _atom_site_fract_x
 _atom_site_fract_y
 _atom_site_fract_z
 _atom_site_occupancy
  Y  Y0  1  0.88737200  0.11262800  0.21795500  1
  Y  Y1  1  0.38737200  0.38737200  0.71795500  1
  Y  Y2  1  0.61262800  0.61262800  0.71795500  1
  Y  Y3  1  0.88737200  0.88737200  0.78204500  1
  Y  Y4  1  0.11262800  0.11262800  0.78204500  1
  Y  Y5  1  0.11262800  0.88737200  0.21795500  1
  Y  Y6  1  0.61262800  0.38737200  0.28204500  1
  Y  Y7  1  0.38737200  0.61262800  0.28204500  1
  Y  Y8  1  0.37760400  0.62239600  0.58448800  1
  Y  Y9  1  0.87760400  0.87760400  0.08448800  1
  Y  Y10  1  0.12239600  0.12239600  0.08448800  1
  Y  Y11  1  0.37760400  0.37760400  0.41551200  1
  Y  Y12  1  0.62239600  0.62239600  0.41551200  1
  Y  Y13  1  0.62239600  0.37760400  0.58448800  1
  Y  Y14  1  0.12239600  0.87760400  0.91551200  1
  Y  Y15  1  0.87760400  0.12239600  0.91551200  1
  Y  Y16  1  0.68002500  0.11484700  0.07526000  1
  Y  Y17  1  0.38515300  0.18002500  0.57526000  1
  Y  Y18  1  0.61484700  0.81997500  0.57526000  1
  Y  Y19  1  0.68002500  0.88515300  0.92474000  1
  Y  Y20  1  0.31997500  0.11484700  0.92474000  1
  Y  Y21  1  0.31997500  0.88515300  0.07526000  1
  Y  Y22  1  0.61484700  0.18002500  0.42474000  1
  Y  Y23  1  0.38515300  0.81997500  0.42474000  1
  Y  Y24  1  0.81997500  0.38515300  0.42474000  1
  Y  Y25  1  0.11484700  0.31997500  0.92474000  1
  Y  Y26  1  0.88515300  0.68002500  0.92474000  1
  Y  Y27  1  0.81997500  0.61484700  0.57526000  1
  Y  Y28  1  0.18002500  0.38515300  0.57526000  1
  Y  Y29  1  0.18002500  0.61484700  0.42474000  1
  Y  Y30  1  0.88515300  0.31997500  0.07526000  1
  Y  Y31  1  0.11484700  0.68002500  0.07526000  1
  Ru  Ru0  1  0.89583100  0.10416900  0.07036400  1
  Ru  Ru1  1  0.39583100  0.39583100  0.57036400  1
  Ru  Ru2  1  0.60416900  0.60416900  0.57036400  1
  Ru  Ru3  1  0.89583100  0.89583100  0.92963600  1
  Ru  Ru4  1  0.10416900  0.10416900  0.92963600  1
  Ru  Ru5  1  0.10416900  0.89583100  0.07036400  1
  Ru  Ru6  1  0.60416900  0.39583100  0.42963600  1
  Ru  Ru7  1  0.39583100  0.60416900  0.42963600  1
  I  I0  1  0.60558700  0.87250900  0.08864100  1
  I  I1  1  0.62749100  0.10558700  0.58864100  1
  I  I2  1  0.37250900  0.89441300  0.58864100  1
  I  I3  1  0.60558700  0.12749100  0.91135900  1
  I  I4  1  0.39441300  0.87250900  0.91135900  1
  I  I5  1  0.39441300  0.12749100  0.08864100  1
  I  I6  1  0.37250900  0.10558700  0.41135900  1
  I  I7  1  0.62749100  0.89441300  0.41135900  1
  I  I8  1  0.89441300  0.62749100  0.41135900  1
  I  I9  1  0.87250900  0.39441300  0.91135900  1
  I  I10  1  0.12749100  0.60558700  0.91135900  1
  I  I11  1  0.89441300  0.37250900  0.58864100  1
  I  I12  1  0.10558700  0.62749100  0.58864100  1
  I  I13  1  0.10558700  0.37250900  0.41135900  1
  I  I14  1  0.12749100  0.39441300  0.08864100  1
  I  I15  1  0.87250900  0.60558700  0.08864100  1
  I  I16  1  0.63800500  0.36199500  0.09048100  1
  I  I17  1  0.13800500  0.13800500  0.59048100  1
  I  I18  1  0.86199500  0.86199500  0.59048100  1
  I  I19  1  0.63800500  0.63800500  0.90951900  1
  I  I20  1  0.36199500  0.36199500  0.90951900  1
  I  I21  1  0.36199500  0.63800500  0.09048100  1
  I  I22  1  0.86199500  0.13800500  0.40951900  1
  I  I23  1  0.13800500  0.86199500  0.40951900  1
  I  I24  1  0.36971700  0.63028300  0.76094900  1
  I  I25  1  0.86971700  0.86971700  0.26094900  1
  I  I26  1  0.13028300  0.13028300  0.26094900  1
  I  I27  1  0.36971700  0.36971700  0.23905100  1
  I  I28  1  0.63028300  0.63028300  0.23905100  1
  I  I29  1  0.63028300  0.36971700  0.76094900  1
  I  I30  1  0.13028300  0.86971700  0.73905100  1
  I  I31  1  0.86971700  0.13028300  0.73905100  1
  I  I32  1  0.62988800  0.12988800  0.25000000  1
  I  I33  1  0.37011200  0.12988800  0.75000000  1
  I  I34  1  0.62988800  0.87011200  0.75000000  1
  I  I35  1  0.37011200  0.87011200  0.25000000  1
  I  I36  1  0.87011200  0.37011200  0.25000000  1
  I  I37  1  0.12988800  0.37011200  0.75000000  1
  I  I38  1  0.87011200  0.62988800  0.75000000  1
  I  I39  1  0.12988800  0.62988800  0.25000000  1
loop_
_geom_bond_atom_site_label_1
_geom_bond_atom_site_label_2
_geom_bond_distance
_geom_bond_site_symmetry_2
Ru0 Y30 2.688462 1_555
Ru0 Y16 2.688462 1_555
Ru0 Y0 2.713147 1_555
Ru0 Y10 2.838438 1_655
Ru0 Y9 2.838438 1_545
Ru0 Y15 2.860361 1_554
Ru1 Y28 2.688462 1_555
Ru1 Y17 2.688462 1_555
Ru1 Y1 2.713147 1_555
Ru1 Y13 2.838438 1_555
Ru1 Y8 2.838438 1_555
Ru1 Y11 2.860361 1_555
Ru2 Y18 2.688462 1_555
Ru2 Y27 2.688462 1_555
Ru2 Y2 2.713147 1_555
Ru2 Y13 2.838438 1_555
Ru2 Y8 2.838438 1_555
Ru2 Y12 2.860361 1_555
Ru3 Y26 2.688462 1_555
Ru3 Y19 2.688462 1_555
Ru3 Y3 2.713147 1_555
Ru3 Y14 2.838438 1_655
Ru3 Y15 2.838438 1_565
Ru3 Y9 2.860361 1_556
Ru4 Y20 2.688462 1_555
Ru4 Y25 2.688462 1_555
Ru4 Y4 2.713147 1_555
Ru4 Y14 2.838438 1_545
Ru4 Y15 2.838438 1_455
Ru4 Y10 2.860361 1_556
Ru5 Y21 2.688462 1_555
Ru5 Y31 2.688462 1_555
Ru5 Y5 2.713147 1_555
Ru5 Y10 2.838438 1_565
Ru5 Y9 2.838438 1_455
Ru5 Y14 2.860361 1_554
Ru6 Y22 2.688462 1_555
Ru6 Y24 2.688462 1_555
Ru6 Y6 2.713147 1_555
Ru6 Y11 2.838438 1_555
Ru6 Y12 2.838438 1_555
Ru6 Y13 2.860361 1_555
Ru7 Y29 2.688462 1_555
Ru7 Y23 2.688462 1_555
Ru7 Y7 2.713147 1_555
Ru7 Y11 2.838438 1_555
Ru7 Y12 2.838438 1_555
Ru7 Y8 2.860361 1_555
I0 Y19 3.151557 1_554
I0 Y16 3.162135 1_565
I0 Y9 3.384145 1_555
I0 Y21 3.563708 1_555
I1 Y22 3.151557 1_555
I1 Y17 3.162135 1_555
I1 Y13 3.384145 1_555
I1 Y18 3.563708 1_545
I2 Y23 3.151557 1_555
I2 Y18 3.162135 1_555
I2 Y8 3.384145 1_555
I2 Y17 3.563708 1_565
I3 Y16 3.151557 1_556
I3 Y19 3.162135 1_545
I3 Y15 3.384145 1_555
I3 Y20 3.563708 1_555
I4 Y21 3.151557 1_556
I4 Y20 3.162135 1_565
I4 Y14 3.384145 1_555
I4 Y19 3.563708 1_555
I5 Y20 3.151557 1_554
I5 Y21 3.162135 1_545
I5 Y10 3.384145 1_555
I5 Y16 3.563708 1_555
I6 Y17 3.151557 1_555
I6 Y22 3.162135 1_555
I6 Y11 3.384145 1_555
I6 Y23 3.563708 1_545
I7 Y18 3.151557 1_555
I7 Y23 3.162135 1_555
I7 Y12 3.384145 1_555
I7 Y22 3.563708 1_565
I8 Y27 3.151557 1_555
I8 Y24 3.162135 1_555
I8 Y12 3.384145 1_555
I8 Y29 3.563708 1_655
I9 Y30 3.151557 1_556
I9 Y25 3.162135 1_655
I9 Y15 3.384145 1_555
I9 Y26 3.563708 1_555
I10 Y31 3.151557 1_556
I10 Y26 3.162135 1_455
I10 Y14 3.384145 1_555
I10 Y25 3.563708 1_555
I11 Y24 3.151557 1_555
I11 Y27 3.162135 1_555
I11 Y13 3.384145 1_555
I11 Y28 3.563708 1_655
I12 Y29 3.151557 1_555
I12 Y28 3.162135 1_555
I12 Y8 3.384145 1_555
I12 Y27 3.563708 1_455
I13 Y28 3.151557 1_555
I13 Y29 3.162135 1_555
I13 Y11 3.384145 1_555
I13 Y24 3.563708 1_455
I14 Y25 3.151557 1_554
I14 Y30 3.162135 1_455
I14 Y10 3.384145 1_555
I14 Y31 3.563708 1_555
I15 Y26 3.151557 1_554
I15 Y31 3.162135 1_655
I15 Y9 3.384145 1_555
I15 Y30 3.563708 1_555
I16 Y30 3.130031 1_555
I16 Y16 3.130031 1_555
I16 Y6 3.544409 1_555
I17 Y17 3.130031 1_555
I17 Y28 3.130031 1_555
I17 Y4 3.544409 1_555
I18 Y18 3.130031 1_555
I18 Y27 3.130031 1_555
I18 Y3 3.544409 1_555
I19 Y19 3.130031 1_555
I19 Y26 3.130031 1_555
I19 Y2 3.544409 1_555
I20 Y20 3.130031 1_555
I20 Y25 3.130031 1_555
I20 Y1 3.544409 1_555
I21 Y21 3.130031 1_555
I21 Y31 3.130031 1_555
I21 Y7 3.544409 1_555
I22 Y22 3.130031 1_555
I22 Y24 3.130031 1_555
I22 Y0 3.544409 1_555
I23 Y29 3.130031 1_555
I23 Y23 3.130031 1_555
I23 Y5 3.544409 1_555
I24 Y2 3.129836 1_555
I24 Y1 3.129836 1_555
I24 Y8 3.241949 1_555
I25 Y5 3.129836 1_655
I25 Y0 3.129836 1_565
I25 Y9 3.241949 1_555
I26 Y0 3.129836 1_455
I26 Y5 3.129836 1_545
I26 Y10 3.241949 1_555
I27 Y6 3.129836 1_555
I27 Y7 3.129836 1_555
I27 Y11 3.241949 1_555
I28 Y7 3.129836 1_555
I28 Y6 3.129836 1_555
I28 Y12 3.241949 1_555
I29 Y2 3.129836 1_555
I29 Y1 3.129836 1_555
I29 Y13 3.241949 1_555
I30 Y3 3.129836 1_455
I30 Y4 3.129836 1_565
I30 Y14 3.241949 1_555
I31 Y4 3.129836 1_655
I31 Y3 3.129836 1_545
I31 Y15 3.241949 1_555
I32 Y0 3.262611 1_555
I32 Y6 3.262611 1_555
I32 Y16 3.272778 1_555
I32 Y22 3.272778 1_555
I33 Y4 3.262611 1_555
I33 Y1 3.262611 1_555
I33 Y20 3.272778 1_555
I33 Y17 3.272778 1_555
I34 Y3 3.262611 1_555
I34 Y2 3.262611 1_555
I34 Y18 3.272778 1_555
I34 Y19 3.272778 1_555
I35 Y5 3.262611 1_555
I35 Y7 3.262611 1_555
I35 Y23 3.272778 1_555
I35 Y21 3.272778 1_555
I36 Y0 3.262611 1_555
I36 Y6 3.262611 1_555
I36 Y30 3.272778 1_555
I36 Y24 3.272778 1_555
I37 Y4 3.262611 1_555
I37 Y1 3.262611 1_555
I37 Y28 3.272778 1_555
I37 Y25 3.272778 1_555
I38 Y2 3.262611 1_555
I38 Y3 3.262611 1_555
I38 Y27 3.272778 1_555
I38 Y26 3.272778 1_555
I39 Y7 3.262611 1_555
I39 Y5 3.262611 1_555
I39 Y29 3.272778 1_555
I39 Y31 3.272778 1_555
