# generated using pymatgen
data_Ba5Cr3O13
_symmetry_space_group_name_H-M   'P 1'
_cell_length_a   7.93062859
_cell_length_b   10.42728337
_cell_length_c   10.43095707
_cell_angle_alpha   60.10714758
_cell_angle_beta   90.00000000
_cell_angle_gamma   90.00000000
_symmetry_Int_Tables_number   1
_chemical_formula_structural   Ba5Cr3O13
_chemical_formula_sum   'Ba10 Cr6 O26'
_cell_volume   747.82756359
_cell_formula_units_Z   2
loop_
 _symmetry_equiv_pos_site_id
 _symmetry_equiv_pos_as_xyz
  1  'x, y, z'
loop_
 _atom_site_type_symbol
 _atom_site_label
 _atom_site_symmetry_multiplicity
 _atom_site_fract_x
 _atom_site_fract_y
 _atom_site_fract_z
 _atom_site_occupancy
  Ba  Ba0  1  0.49669676  0.33328501  0.33328932  1
  Ba  Ba1  1  0.99669676  0.66671499  0.66671068  1
  Ba  Ba2  1  -0.00048519  0.33304350  0.33305792  1
  Ba  Ba3  1  0.49951481  0.66695650  0.66694208  1
  Ba  Ba4  1  0.24877828  0.22194089  0.75895348  1
  Ba  Ba5  1  0.24872379  0.75985535  0.01854555  1
  Ba  Ba6  1  0.24917812  0.01819803  0.22398394  1
  Ba  Ba7  1  0.74877828  0.77805911  0.24104652  1
  Ba  Ba8  1  0.74872379  0.24014465  0.98145445  1
  Ba  Ba9  1  0.74917812  0.98180197  0.77601606  1
  Cr  Cr0  1  0.24975704  0.40870201  0.96259688  1
  Cr  Cr1  1  0.25026676  0.96271110  0.62894770  1
  Cr  Cr2  1  0.24997270  0.62799199  0.40889136  1
  Cr  Cr3  1  0.74975704  0.59129799  0.03740312  1
  Cr  Cr4  1  0.75026676  0.03728890  0.37105230  1
  Cr  Cr5  1  0.74997270  0.37200801  0.59110864  1
  O  O0  1  0.24966448  0.33237112  0.14874197  1
  O  O1  1  0.24910225  0.14845490  0.51517503  1
  O  O2  1  0.24916132  0.51692573  0.33357532  1
  O  O3  1  0.74966448  0.66762888  0.85125803  1
  O  O4  1  0.74910225  0.85154510  0.48482497  1
  O  O5  1  0.74916132  0.48307427  0.66642468  1
  O  O6  1  0.24790287  0.59488401  0.87293552  1
  O  O7  1  0.24888680  0.87328848  0.53148949  1
  O  O8  1  0.24860215  0.53229019  0.59517787  1
  O  O9  1  0.74790287  0.40511599  0.12706448  1
  O  O10  1  0.74888680  0.12671152  0.46851051  1
  O  O11  1  0.74860215  0.46770981  0.40482213  1
  O  O12  1  0.42273895  0.36068876  0.90377254  1
  O  O13  1  0.42130061  0.90218598  0.73849193  1
  O  O14  1  0.42270066  0.73520557  0.36041502  1
  O  O15  1  0.92273895  0.63931124  0.09622746  1
  O  O16  1  0.92130061  0.09781402  0.26150807  1
  O  O17  1  0.92270066  0.26479443  0.63958498  1
  O  O18  1  0.57786038  0.64703117  0.09073737  1
  O  O19  1  0.58021372  0.08997687  0.25949393  1
  O  O20  1  0.57841801  0.26247362  0.64808622  1
  O  O21  1  0.07786038  0.35296883  0.90926263  1
  O  O22  1  0.08021372  0.91002313  0.74050607  1
  O  O23  1  0.07841801  0.73752638  0.35191378  1
  O  O24  1  0.27955954  0.00106075  0.00067365  1
  O  O25  1  0.77955954  0.99893925  -0.00067365  1
loop_
_geom_bond_atom_site_label_1
_geom_bond_atom_site_label_2
_geom_bond_distance
_geom_bond_site_symmetry_2
Ba0 O1 2.743157 1_555
Ba0 O2 2.743402 1_555
Ba0 O9 2.747964 1_555
Ba0 O11 2.748642 1_555
Ba0 O0 2.749941 1_555
Ba0 O10 2.756982 1_555
Ba0 O18 3.044344 1_555
Ba0 O20 3.054634 1_555
Ba0 O19 3.068287 1_555
Ba1 O4 2.743157 1_555
Ba1 O5 2.743402 1_555
Ba1 O6 2.747964 1_655
Ba1 O8 2.748642 1_655
Ba1 O3 2.749941 1_555
Ba1 O7 2.756982 1_655
Ba1 O21 3.044344 1_655
Ba1 O23 3.054634 1_655
Ba1 O22 3.068287 1_655
Ba2 O11 2.745827 1_455
Ba2 O10 2.746978 1_455
Ba2 O9 2.748445 1_455
Ba2 O1 2.754419 1_555
Ba2 O2 2.757999 1_555
Ba2 O0 2.765046 1_555
Ba2 O16 2.963562 1_455
Ba2 O15 2.967912 1_455
Ba2 O17 2.971984 1_455
Ba3 O8 2.745827 1_555
Ba3 O7 2.746978 1_555
Ba3 O6 2.748445 1_555
Ba3 O4 2.754419 1_555
Ba3 O5 2.757999 1_555
Ba3 O3 2.765046 1_555
Ba3 O13 2.963562 1_555
Ba3 O12 2.967912 1_555
Ba3 O14 2.971984 1_555
Ba4 O24 2.435815 1_556
Ba4 O20 2.804127 1_555
Ba4 O8 2.807192 1_555
Ba4 O17 2.807639 1_455
Ba4 O21 2.880524 1_555
Ba4 O12 2.908055 1_555
Ba4 O1 2.999228 1_555
Ba5 O24 2.439881 1_565
Ba5 O6 2.805409 1_554
Ba5 O18 2.807404 1_555
Ba5 O15 2.811564 1_455
Ba5 O22 2.850000 1_554
Ba5 O13 2.878882 1_554
Ba5 O2 2.986278 1_555
Ba6 O24 2.435304 1_555
Ba6 O7 2.782217 1_545
Ba6 O19 2.804644 1_555
Ba6 O16 2.815620 1_455
Ba6 O23 2.878741 1_545
Ba6 O14 2.905292 1_545
Ba6 O0 2.963982 1_555
Ba7 O25 2.435815 1_555
Ba7 O23 2.804127 1_655
Ba7 O11 2.807192 1_555
Ba7 O14 2.807639 1_555
Ba7 O18 2.880524 1_555
Ba7 O15 2.908055 1_555
Ba7 O4 2.999228 1_555
Ba8 O25 2.439881 1_546
Ba8 O9 2.805409 1_556
Ba8 O21 2.807404 1_655
Ba8 O12 2.811564 1_555
Ba8 O19 2.850000 1_556
Ba8 O16 2.878882 1_556
Ba8 O5 2.986278 1_555
Ba9 O25 2.435304 1_556
Ba9 O10 2.782217 1_565
Ba9 O22 2.804644 1_655
Ba9 O13 2.815620 1_555
Ba9 O20 2.878741 1_565
Ba9 O17 2.905292 1_565
Ba9 O3 2.963982 1_555
Cr0 O12 1.677895 1_555
Cr0 O21 1.681647 1_555
Cr0 O6 1.683464 1_555
Cr0 O0 1.692090 1_556
Cr1 O13 1.680770 1_555
Cr1 O22 1.684488 1_555
Cr1 O7 1.687548 1_555
Cr1 O1 1.693700 1_565
Cr2 O14 1.678837 1_555
Cr2 O23 1.682906 1_555
Cr2 O8 1.684921 1_555
Cr2 O2 1.692740 1_555
Cr3 O15 1.677895 1_555
Cr3 O18 1.681647 1_555
Cr3 O9 1.683464 1_555
Cr3 O3 1.692090 1_554
Cr4 O16 1.680770 1_555
Cr4 O19 1.684488 1_555
Cr4 O10 1.687548 1_555
Cr4 O4 1.693700 1_545
Cr5 O17 1.678837 1_555
Cr5 O20 1.682906 1_555
Cr5 O11 1.684921 1_555
Cr5 O5 1.692740 1_555
