# generated using pymatgen
data_Na6MgGe7(PO4)12
_symmetry_space_group_name_H-M   'P 1'
_cell_length_a   16.88144185
_cell_length_b   8.43980429
_cell_length_c   21.75471314
_cell_angle_alpha   90.04116557
_cell_angle_beta   89.94922762
_cell_angle_gamma   119.97874651
_symmetry_Int_Tables_number   1
_chemical_formula_structural   Na6MgGe7(PO4)12
_chemical_formula_sum   'Na18 Mg3 Ge21 P36 O144'
_cell_volume   2684.84169626
_cell_formula_units_Z   3
loop_
 _symmetry_equiv_pos_site_id
 _symmetry_equiv_pos_as_xyz
  1  'x, y, z'
loop_
 _atom_site_type_symbol
 _atom_site_label
 _atom_site_symmetry_multiplicity
 _atom_site_fract_x
 _atom_site_fract_y
 _atom_site_fract_z
 _atom_site_occupancy
  Na  Na0  1  0.68540273  0.36581227  0.24774714  1
  Na  Na1  1  0.99718645  0.62810050  0.24760169  1
  Na  Na2  1  0.99588680  0.36477749  0.74574293  1
  Na  Na3  1  0.49601224  0.36493690  0.74576349  1
  Na  Na4  1  0.18563054  0.00474502  0.74590359  1
  Na  Na5  1  0.68575447  0.00484613  0.74598053  1
  Na  Na6  1  0.99984624  0.99973931  0.50000998  1
  Na  Na7  1  0.49991577  0.99973523  0.49994933  1
  Na  Na8  1  0.99902960  0.99874542  0.00085708  1
  Na  Na9  1  0.50071062  0.00106454  0.00086163  1
  Na  Na10  1  0.33288550  0.34136736  0.83319759  1
  Na  Na11  1  0.83278472  0.34113914  0.83380645  1
  Na  Na12  1  0.33327254  0.33421608  0.33463115  1
  Na  Na13  1  0.83296687  0.32311056  0.33370186  1
  Na  Na14  1  0.16913962  0.66549487  0.16575271  1
  Na  Na15  1  0.66809643  0.67693345  0.16502410  1
  Na  Na16  1  0.17052534  0.66539174  0.66184587  1
  Na  Na17  1  0.67062460  0.66540631  0.66190896  1
  Mg  Mg0  1  0.33286172  0.33830682  0.68387829  1
  Mg  Mg1  1  0.83290447  0.33836001  0.68390823  1
  Mg  Mg2  1  0.83300269  0.32583081  0.18558850  1
  Ge  Ge0  1  0.00183142  0.00335613  0.35555486  1
  Ge  Ge1  1  0.49781070  0.99669978  0.35489387  1
  Ge  Ge2  1  0.99970184  -0.00063903  0.85567601  1
  Ge  Ge3  1  0.50014753  -0.00049319  0.85571411  1
  Ge  Ge4  1  0.99906899  0.99838960  0.64267326  1
  Ge  Ge5  1  0.49903990  0.99842176  0.64267253  1
  Ge  Ge6  1  0.99834108  0.00088042  0.14509363  1
  Ge  Ge7  1  0.50078757  0.99916935  0.14578755  1
  Ge  Ge8  1  0.33329851  0.33548369  0.18639572  1
  Ge  Ge9  1  0.33351021  0.33316211  0.98046966  1
  Ge  Ge10  1  0.83341168  0.33283703  0.98245696  1
  Ge  Ge11  1  0.33345766  0.33402534  0.48180992  1
  Ge  Ge12  1  0.83350067  0.33445269  0.48157233  1
  Ge  Ge13  1  0.16655531  0.66717320  0.02081682  1
  Ge  Ge14  1  0.66742669  0.66649273  0.02040367  1
  Ge  Ge15  1  0.16695373  0.66683217  0.51934306  1
  Ge  Ge16  1  0.66677788  0.66699577  0.51933963  1
  Ge  Ge17  1  0.16997380  0.66556900  0.31436761  1
  Ge  Ge18  1  0.66573779  0.67244964  0.31547914  1
  Ge  Ge19  1  0.16854386  0.66556730  0.81564358  1
  Ge  Ge20  1  0.66886668  0.66597090  0.81576081  1
  P  P0  1  0.14526502  0.00463310  0.24995718  1
  P  P1  1  0.64109776  0.99304451  0.25165252  1
  P  P2  1  0.35705328  0.71389579  0.24957072  1
  P  P3  1  0.85604693  0.72036862  0.25169933  1
  P  P4  1  0.00185060  0.28524137  0.25166017  1
  P  P5  1  0.49741032  0.28540080  0.25032488  1
  P  P6  1  0.14325910  0.28813354  0.75165135  1
  P  P7  1  0.64315791  0.28847809  0.75161451  1
  P  P8  1  0.99888950  0.71493629  0.75187330  1
  P  P9  1  0.49871663  0.71442569  0.75188718  1
  P  P10  1  0.35667293  0.99221404  0.75137580  1
  P  P11  1  0.85666573  0.99222445  0.75122127  1
  P  P12  1  0.47977422  0.33530347  0.58335434  1
  P  P13  1  0.97983495  0.33533085  0.58324147  1
  P  P14  1  0.18799039  0.04066844  0.58345779  1
  P  P15  1  0.68800176  0.04074524  0.58333366  1
  P  P16  1  0.33219814  0.62316309  0.58271593  1
  P  P17  1  0.83220148  0.62344170  0.58238032  1
  P  P18  1  0.47676056  0.62029457  0.08319380  1
  P  P19  1  0.97984368  0.62562894  0.08359640  1
  P  P20  1  0.33363172  0.04687412  0.08352983  1
  P  P21  1  0.83259378  0.04124814  0.08256558  1
  P  P22  1  0.18988610  0.33361001  0.08314080  1
  P  P23  1  0.68727806  0.33351314  0.08367855  1
  P  P24  1  0.31072098  0.66635301  0.91796347  1
  P  P25  1  0.81127026  0.66530733  0.91748763  1
  P  P26  1  0.02201763  0.37811592  0.91737365  1
  P  P27  1  0.52210219  0.37839723  0.91721743  1
  P  P28  1  0.16715342  0.95628609  0.91717692  1
  P  P29  1  0.66705080  0.95587578  0.91750530  1
  P  P30  1  0.31037042  0.95537812  0.41664195  1
  P  P31  1  0.81103242  0.95645996  0.41726128  1
  P  P32  1  0.16757377  0.37866139  0.41722706  1
  P  P33  1  0.66671499  0.37814039  0.41630701  1
  P  P34  1  0.02244165  0.66597698  0.41635890  1
  P  P35  1  0.52180650  0.66517100  0.41723099  1
  O  O0  1  0.10493819  0.03954407  0.30842929  1
  O  O1  1  0.59802597  0.03529060  0.30835758  1
  O  O2  1  0.41532078  0.79178338  0.30803618  1
  O  O3  1  0.91942274  0.80303070  0.30848317  1
  O  O4  1  0.47949250  0.16723925  0.30821449  1
  O  O5  1  0.98514759  0.16732841  0.30946372  1
  O  O6  1  0.10029521  0.16537360  0.80944189  1
  O  O7  1  0.60047435  0.16572916  0.80942743  1
  O  O8  1  0.48389781  0.80021423  0.81026146  1
  O  O9  1  0.98415332  0.80036088  0.81019574  1
  O  O10  1  0.41796300  0.03478662  0.80930009  1
  O  O11  1  0.91791902  0.03520298  0.80907721  1
  O  O12  1  0.39738838  0.95630992  0.69313775  1
  O  O13  1  0.89735547  0.95626364  0.69308761  1
  O  O14  1  0.07990994  0.20879173  0.69438065  1
  O  O15  1  0.57992659  0.20888637  0.69440023  1
  O  O16  1  0.02336902  0.84071127  0.69450907  1
  O  O17  1  0.52333853  0.84087575  0.69452113  1
  O  O18  1  0.39668878  0.83342122  0.19155804  1
  O  O19  1  0.89656000  0.83637287  0.19278404  1
  O  O20  1  0.02195230  0.20632198  0.19288965  1
  O  O21  1  0.52119461  0.20727906  0.19270266  1
  O  O22  1  0.08221424  0.95664227  0.19265200  1
  O  O23  1  0.58154435  0.95541732  0.19279426  1
  O  O24  1  0.44543629  0.37104803  0.64283763  1
  O  O25  1  0.94546042  0.37125652  0.64291877  1
  O  O26  1  0.24041418  0.10837648  0.64288383  1
  O  O27  1  0.74051066  0.10866973  0.64294259  1
  O  O28  1  0.31311327  0.51461246  0.64028503  1
  O  O29  1  0.81299136  0.51437048  0.64036178  1
  O  O30  1  0.43666109  0.50052744  0.14117958  1
  O  O31  1  0.94495978  0.51870440  0.14233192  1
  O  O32  1  0.31403454  0.12814112  0.14137411  1
  O  O33  1  0.81301460  0.11255037  0.13977704  1
  O  O34  1  0.24974424  0.37341114  0.14113436  1
  O  O35  1  0.74080087  0.37170529  0.14245820  1
  O  O36  1  0.23005791  0.29390035  0.02500953  1
  O  O37  1  0.72842882  0.29449597  0.02509388  1
  O  O38  1  0.41679273  0.54008136  0.02513522  1
  O  O39  1  0.91939148  0.54305838  0.02501842  1
  O  O40  1  0.35300816  0.16568566  0.02507774  1
  O  O41  1  0.85271646  0.16033628  0.02328686  1
  O  O42  1  0.22944684  0.16352350  0.52549699  1
  O  O43  1  0.72930986  0.16359576  0.52556066  1
  O  O44  1  0.35274905  0.54397763  0.52368236  1
  O  O45  1  0.85264175  0.54399401  0.52373481  1
  O  O46  1  0.41836827  0.29548896  0.52547972  1
  O  O47  1  0.91845816  0.29557034  0.52556166  1
  O  O48  1  0.26925980  0.70550182  0.97488884  1
  O  O49  1  0.76968507  0.70524494  0.97370804  1
  O  O50  1  0.08431388  0.46224315  0.97349180  1
  O  O51  1  0.58330078  0.46348129  0.97343310  1
  O  O52  1  0.14859428  0.83388695  0.97346654  1
  O  O53  1  0.64700954  0.83136556  0.97347723  1
  O  O54  1  0.26984070  0.83400468  0.47347669  1
  O  O55  1  0.76950803  0.83422586  0.47376382  1
  O  O56  1  0.14750098  0.46062759  0.47386461  1
  O  O57  1  0.64759726  0.46242662  0.47275409  1
  O  O58  1  0.08362203  0.70482858  0.47287671  1
  O  O59  1  0.58292242  0.70527346  0.47378530  1
  O  O60  1  0.06219429  0.62955238  0.35614663  1
  O  O61  1  0.56150096  0.62552025  0.35856974  1
  O  O62  1  0.25112055  0.87513679  0.35794704  1
  O  O63  1  0.75172318  0.87706205  0.35853100  1
  O  O64  1  0.18689566  0.49629382  0.35844531  1
  O  O65  1  0.68512214  0.49440132  0.35613730  1
  O  O66  1  0.06139682  0.49446901  0.85723387  1
  O  O67  1  0.56108205  0.49410619  0.85706676  1
  O  O68  1  0.18595354  0.87796461  0.85698638  1
  O  O69  1  0.68550796  0.87729529  0.85703967  1
  O  O70  1  0.25152350  0.62645860  0.85924590  1
  O  O71  1  0.75192804  0.62591882  0.85869020  1
  O  O72  1  0.01363455  0.83981727  0.40953733  1
  O  O73  1  0.51291564  0.83825199  0.41008850  1
  O  O74  1  0.40594204  0.97253436  0.40955157  1
  O  O75  1  0.90625685  0.97351146  0.41033461  1
  O  O76  1  0.08099824  0.18769534  0.41068191  1
  O  O77  1  0.57969004  0.18722005  0.40937376  1
  O  O78  1  0.01336805  0.18741299  0.91036550  1
  O  O79  1  0.51291417  0.18718190  0.91054782  1
  O  O80  1  0.08077119  0.97408227  0.91074126  1
  O  O81  1  0.58028262  0.97321058  0.91083211  1
  O  O82  1  0.40589147  0.83917096  0.91106204  1
  O  O83  1  0.90623659  0.83886969  0.91047357  1
  O  O84  1  0.48906762  0.16050287  0.58772650  1
  O  O85  1  0.98911966  0.16068297  0.58776670  1
  O  O86  1  0.09151471  0.02292769  0.58802921  1
  O  O87  1  0.59152155  0.02298286  0.58806563  1
  O  O88  1  0.41983414  0.81683080  0.58739131  1
  O  O89  1  0.91961794  0.81635109  0.58729653  1
  O  O90  1  0.48540533  0.81076706  0.08992191  1
  O  O91  1  0.99037779  0.81974144  0.08801125  1
  O  O92  1  0.41941224  0.02744724  0.09055169  1
  O  O93  1  0.92015305  0.02280658  0.08702928  1
  O  O94  1  0.09477667  0.16230429  0.09017621  1
  O  O95  1  0.59031749  0.15786795  0.08799970  1
  O  O96  1  0.34430839  0.15893642  0.74749891  1
  O  O97  1  0.84425802  0.15918407  0.74732044  1
  O  O98  1  0.23631056  0.30651593  0.74758206  1
  O  O99  1  0.73650548  0.30667244  0.74745991  1
  O  O100  1  0.41813165  0.52422158  0.74799161  1
  O  O101  1  0.91794587  0.52380684  0.74794049  1
  O  O102  1  0.34691023  0.52167071  0.24252768  1
  O  O103  1  0.84454259  0.52951315  0.24732437  1
  O  O104  1  0.41226590  0.30588120  0.24275929  1
  O  O105  1  0.92011551  0.31249071  0.24776207  1
  O  O106  1  0.24060988  0.17563884  0.24254060  1
  O  O107  1  0.73424784  0.16269152  0.24756557  1
  O  O108  1  0.31997837  0.49388838  0.92412318  1
  O  O109  1  0.82052313  0.49320294  0.92397418  1
  O  O110  1  0.42658371  0.36038740  0.92337777  1
  O  O111  1  0.92691989  0.36085983  0.92340956  1
  O  O112  1  0.25368408  0.14703159  0.92333264  1
  O  O113  1  0.75325480  0.14646555  0.92353719  1
  O  O114  1  0.32037027  0.14672008  0.42351346  1
  O  O115  1  0.82032528  0.14738027  0.42400818  1
  O  O116  1  0.25340178  0.35915172  0.42365017  1
  O  O117  1  0.75302152  0.35983047  0.42288055  1
  O  O118  1  0.42650591  0.49255769  0.42348890  1
  O  O119  1  0.92702548  0.49362408  0.42298431  1
  O  O120  1  0.18102507  0.50666311  0.07609105  1
  O  O121  1  0.67576909  0.50344894  0.07395781  1
  O  O122  1  0.07618498  0.64546418  0.07413954  1
  O  O123  1  0.57203870  0.63965424  0.07602329  1
  O  O124  1  0.24767974  0.85576402  0.07637277  1
  O  O125  1  0.74694187  0.84833162  0.07354601  1
  O  O126  1  0.17671969  0.84844791  0.57370085  1
  O  O127  1  0.67675012  0.84872254  0.57392644  1
  O  O128  1  0.24759516  0.64708945  0.57332809  1
  O  O129  1  0.74759713  0.64673513  0.57326735  1
  O  O130  1  0.07565366  0.50551335  0.57385119  1
  O  O131  1  0.57565765  0.50518146  0.57377142  1
  O  O132  1  0.15317068  0.82782838  0.25659604  1
  O  O133  1  0.64780661  0.81752665  0.25785731  1
  O  O134  1  0.26123576  0.69540572  0.25646925  1
  O  O135  1  0.75855780  0.69779054  0.25770988  1
  O  O136  1  0.08964185  0.48049955  0.25710660  1
  O  O137  1  0.58590147  0.47603125  0.25703274  1
  O  O138  1  0.14857536  0.47845105  0.75830662  1
  O  O139  1  0.64854534  0.47848288  0.75829886  1
  O  O140  1  0.08842006  0.69984108  0.75769045  1
  O  O141  1  0.58843683  0.69992569  0.75771346  1
  O  O142  1  0.25933130  0.81884694  0.75775450  1
  O  O143  1  0.75932227  0.81911309  0.75761075  1
loop_
_geom_bond_atom_site_label_1
_geom_bond_atom_site_label_2
_geom_bond_distance
_geom_bond_site_symmetry_2
Na0 O107 2.243080 1_555
Na0 O137 2.299620 1_555
Na0 O103 2.327427 1_555
Na0 O135 2.442137 1_555
Na0 O35 2.464445 1_555
Na0 O65 2.596038 1_555
Na0 O21 2.684307 1_555
Na0 O1 2.754211 1_555
Na1 O103 2.278117 1_555
Na1 O105 2.307510 1_555
Na1 O132 2.319101 1_655
Na1 O136 2.444302 1_655
Na1 O31 2.461999 1_555
Na1 O60 2.602239 1_655
Na1 O22 2.683678 1_655
Na1 O3 2.754673 1_555
Na2 O97 2.263927 1_555
Na2 O138 2.273480 1_655
Na2 O101 2.302080 1_555
Na2 O25 2.404472 1_555
Na2 O140 2.467722 1_655
Na2 O14 2.618175 1_655
Na2 O66 2.663674 1_655
Na2 O11 2.776929 1_555
Na3 O96 2.265621 1_555
Na3 O139 2.271138 1_555
Na3 O100 2.303087 1_555
Na3 O24 2.406836 1_555
Na3 O141 2.467093 1_555
Na3 O15 2.617151 1_555
Na3 O67 2.657501 1_555
Na3 O10 2.782796 1_555
Na4 O98 2.245499 1_555
Na4 O140 2.271734 1_545
Na4 O96 2.320907 1_555
Na4 O26 2.415344 1_555
Na4 O142 2.455190 1_545
Na4 O16 2.623622 1_545
Na4 O68 2.644680 1_545
Na4 O6 2.787338 1_555
Na5 O99 2.245654 1_555
Na5 O141 2.271993 1_545
Na5 O97 2.318237 1_555
Na5 O27 2.415896 1_555
Na5 O143 2.451588 1_545
Na5 O17 2.626258 1_545
Na5 O69 2.644894 1_545
Na5 O7 2.787245 1_555
Na6 O89 2.395924 1_555
Na6 O85 2.400849 1_565
Na6 O86 2.408669 1_665
Na6 O76 2.448988 1_665
Na6 O75 2.450787 1_555
Na6 O72 2.461518 1_655
Na7 O88 2.396523 1_555
Na7 O84 2.401041 1_565
Na7 O87 2.409592 1_565
Na7 O73 2.453886 1_555
Na7 O77 2.463790 1_565
Na7 O74 2.465310 1_555
Na8 O93 2.365129 1_565
Na8 O91 2.383633 1_555
Na8 O83 2.455617 1_554
Na8 O94 2.462867 1_665
Na8 O80 2.464245 1_654
Na8 O78 2.467388 1_664
Na9 O95 2.373610 1_555
Na9 O90 2.447232 1_545
Na9 O81 2.450700 1_544
Na9 O92 2.457700 1_555
Na9 O79 2.459757 1_554
Na9 O82 2.462018 1_544
Na10 O100 2.380856 1_555
Na10 O98 2.395599 1_555
Na10 O108 2.427567 1_555
Na10 O110 2.475453 1_555
Na10 O112 2.476124 1_555
Na10 O96 2.485067 1_555
Na11 O101 2.391108 1_555
Na11 O99 2.405620 1_555
Na11 O109 2.408080 1_555
Na11 O111 2.468500 1_555
Na11 O113 2.471451 1_555
Na11 O97 2.495634 1_555
Na12 O116 2.427141 1_555
Na12 O118 2.428903 1_555
Na12 O114 2.439175 1_555
Na12 O104 2.478576 1_555
Na12 O106 2.482193 1_555
Na12 O102 2.492082 1_555
Na13 O115 2.406649 1_555
Na13 O105 2.407176 1_555
Na13 O107 2.422554 1_555
Na13 O119 2.466312 1_555
Na13 O117 2.468551 1_555
Na13 O103 2.503534 1_555
Na14 O120 2.430280 1_555
Na14 O134 2.447063 1_555
Na14 O124 2.447370 1_555
Na14 O136 2.468641 1_555
Na14 O122 2.490595 1_555
Na14 O132 2.493924 1_555
Na15 O125 2.428963 1_555
Na15 O123 2.443807 1_555
Na15 O133 2.450594 1_555
Na15 O135 2.482953 1_555
Na15 O121 2.504063 1_555
Na15 O137 2.540778 1_555
Na16 O128 2.370823 1_555
Na16 O130 2.427414 1_555
Na16 O126 2.432561 1_555
Na16 O142 2.517837 1_555
Na16 O138 2.539548 1_555
Na16 O140 2.598065 1_555
Na17 O129 2.373113 1_555
Na17 O131 2.431141 1_555
Na17 O127 2.431445 1_555
Na17 O143 2.513950 1_555
Na17 O139 2.537834 1_555
Na17 O141 2.598410 1_555
Mg0 O28 1.929499 1_555
Mg0 O24 1.989382 1_555
Mg0 O26 1.992525 1_555
Mg0 O98 2.051518 1_555
Mg0 O100 2.054921 1_555
Mg0 O96 2.130846 1_555
Mg1 O29 1.928415 1_555
Mg1 O25 1.988162 1_555
Mg1 O27 1.990795 1_555
Mg1 O99 2.047646 1_555
Mg1 O101 2.050861 1_555
Mg1 O97 2.125956 1_555
Mg2 O33 1.933465 1_555
Mg2 O31 2.007954 1_555
Mg2 O35 2.014530 1_555
Mg2 O105 2.043027 1_555
Mg2 O107 2.048831 1_555
Mg2 O103 2.111704 1_555
Ge0 O5 1.841713 1_455
Ge0 O3 1.868684 1_445
Ge0 O76 1.888675 1_555
Ge0 O72 1.897759 1_545
Ge0 O0 1.907878 1_555
Ge0 O75 1.917733 1_445
Ge1 O1 1.854696 1_565
Ge1 O74 1.881930 1_555
Ge1 O2 1.887462 1_555
Ge1 O73 1.907542 1_555
Ge1 O4 1.909441 1_565
Ge1 O77 1.918282 1_565
Ge2 O9 1.850982 1_545
Ge2 O11 1.856222 1_555
Ge2 O6 1.865405 1_655
Ge2 O83 1.899615 1_545
Ge2 O78 1.902511 1_655
Ge2 O80 1.910129 1_645
Ge3 O8 1.849073 1_545
Ge3 O10 1.857098 1_555
Ge3 O7 1.864149 1_555
Ge3 O81 1.902733 1_545
Ge3 O79 1.906541 1_555
Ge3 O82 1.913100 1_545
Ge4 O89 1.884560 1_555
Ge4 O85 1.887788 1_565
Ge4 O86 1.888294 1_665
Ge4 O13 1.914349 1_555
Ge4 O16 1.938923 1_655
Ge4 O14 1.964461 1_665
Ge5 O88 1.880235 1_555
Ge5 O84 1.887128 1_565
Ge5 O87 1.888195 1_565
Ge5 O12 1.914173 1_555
Ge5 O17 1.938187 1_555
Ge5 O15 1.965195 1_565
Ge6 O20 1.885172 1_655
Ge6 O19 1.889758 1_545
Ge6 O93 1.902484 1_555
Ge6 O91 1.920810 1_545
Ge6 O94 1.927723 1_655
Ge6 O22 1.935474 1_645
Ge7 O23 1.883284 1_555
Ge7 O18 1.891757 1_555
Ge7 O95 1.906496 1_565
Ge7 O21 1.907529 1_565
Ge7 O90 1.912584 1_555
Ge7 O92 1.928477 1_565
Ge8 O34 1.875016 1_555
Ge8 O30 1.876837 1_555
Ge8 O32 1.885918 1_555
Ge8 O106 1.910392 1_555
Ge8 O102 1.910525 1_555
Ge8 O104 1.918127 1_555
Ge9 O40 1.874958 1_556
Ge9 O38 1.875335 1_556
Ge9 O36 1.875580 1_556
Ge9 O110 1.923610 1_555
Ge9 O108 1.925466 1_555
Ge9 O112 1.927009 1_555
Ge10 O41 1.868494 1_556
Ge10 O37 1.878930 1_556
Ge10 O39 1.881061 1_556
Ge10 O109 1.948109 1_555
Ge10 O113 1.954803 1_555
Ge10 O111 1.954892 1_555
Ge11 O44 1.870074 1_555
Ge11 O42 1.879085 1_555
Ge11 O46 1.879298 1_555
Ge11 O116 1.939611 1_555
Ge11 O118 1.940590 1_555
Ge11 O114 1.950583 1_555
Ge12 O45 1.870933 1_555
Ge12 O43 1.884975 1_555
Ge12 O47 1.885116 1_555
Ge12 O115 1.938349 1_555
Ge12 O119 1.949662 1_555
Ge12 O117 1.953517 1_555
Ge13 O122 1.850526 1_555
Ge13 O48 1.883056 1_554
Ge13 O52 1.887259 1_554
Ge13 O50 1.891866 1_554
Ge13 O120 1.916849 1_555
Ge13 O124 1.921312 1_555
Ge14 O125 1.853413 1_555
Ge14 O121 1.861984 1_555
Ge14 O49 1.884691 1_554
Ge14 O51 1.888124 1_554
Ge14 O53 1.891877 1_554
Ge14 O123 1.934123 1_555
Ge15 O128 1.868182 1_555
Ge15 O126 1.876235 1_555
Ge15 O130 1.880781 1_555
Ge15 O56 1.882124 1_555
Ge15 O54 1.884935 1_555
Ge15 O58 1.886126 1_555
Ge16 O129 1.871712 1_555
Ge16 O127 1.878990 1_555
Ge16 O131 1.879674 1_555
Ge16 O55 1.880290 1_555
Ge16 O59 1.884247 1_555
Ge16 O57 1.884729 1_555
Ge17 O64 1.858073 1_555
Ge17 O62 1.866078 1_555
Ge17 O134 1.905983 1_555
Ge17 O60 1.916694 1_555
Ge17 O136 1.927142 1_555
Ge17 O132 1.981588 1_555
Ge18 O61 1.852881 1_555
Ge18 O63 1.860474 1_555
Ge18 O133 1.880291 1_555
Ge18 O65 1.908236 1_555
Ge18 O135 1.934540 1_555
Ge18 O137 1.987063 1_555
Ge19 O70 1.853609 1_555
Ge19 O66 1.887938 1_555
Ge19 O68 1.892176 1_555
Ge19 O142 1.904198 1_555
Ge19 O138 1.905090 1_555
Ge19 O140 1.974150 1_555
Ge20 O71 1.851776 1_555
Ge20 O69 1.887794 1_555
Ge20 O67 1.893049 1_555
Ge20 O143 1.905040 1_555
Ge20 O139 1.907789 1_555
Ge20 O141 1.978067 1_555
O0 P0 1.538423 1_555
O1 P1 1.560275 1_545
O2 P2 1.540202 1_555
O3 P3 1.553235 1_555
O4 P5 1.540037 1_555
O5 P4 1.540099 1_655
O6 P6 1.558643 1_555
O7 P7 1.558376 1_555
O8 P9 1.542280 1_555
O9 P8 1.539112 1_555
O10 P10 1.554892 1_545
O11 P11 1.552999 1_545
O12 P10 1.541256 1_555
O13 P11 1.539356 1_555
O14 P6 1.558802 1_555
O15 P7 1.557067 1_555
O16 P8 1.554848 1_455
O17 P9 1.557838 1_555
O18 P2 1.543982 1_555
O19 P3 1.549224 1_555
O20 P4 1.554779 1_555
O21 P5 1.558786 1_555
O22 P0 1.556252 1_565
O23 P1 1.560047 1_555
O24 P12 1.508127 1_555
O25 P13 1.512644 1_555
O26 P14 1.508856 1_555
O27 P15 1.512993 1_555
O28 P16 1.489156 1_555
O29 P17 1.498741 1_555
O30 P18 1.545243 1_555
O31 P19 1.504361 1_555
O32 P20 1.545378 1_555
O33 P21 1.489103 1_555
O34 P22 1.545342 1_555
O35 P23 1.505274 1_555
O36 P22 1.548066 1_555
O37 P23 1.562624 1_555
O38 P18 1.547441 1_555
O39 P19 1.562488 1_555
O40 P20 1.550093 1_555
O41 P21 1.564771 1_555
O42 P14 1.558826 1_555
O43 P15 1.555217 1_555
O44 P16 1.563970 1_555
O45 P17 1.557430 1_555
O46 P12 1.557655 1_555
O47 P13 1.554008 1_555
O48 P24 1.536774 1_555
O49 P25 1.528619 1_555
O50 P26 1.534715 1_555
O51 P27 1.529115 1_555
O52 P28 1.530540 1_555
O53 P29 1.532065 1_555
O54 P30 1.531699 1_555
O55 P31 1.531069 1_555
O56 P32 1.530959 1_555
O57 P33 1.531543 1_555
O58 P34 1.532707 1_555
O59 P35 1.531465 1_555
O60 P34 1.569945 1_555
O61 P35 1.552924 1_555
O62 P30 1.553580 1_555
O63 P31 1.553850 1_555
O64 P32 1.550734 1_555
O65 P33 1.571363 1_555
O66 P26 1.570310 1_555
O67 P27 1.567522 1_555
O68 P28 1.568422 1_555
O69 P29 1.572185 1_555
O70 P24 1.552140 1_555
O71 P25 1.555339 1_555
O72 P34 1.554055 1_555
O73 P35 1.549191 1_555
O74 P30 1.553675 1_555
O75 P31 1.547891 1_555
O76 P32 1.549174 1_555
O77 P33 1.552984 1_555
O78 P26 1.549150 1_555
O79 P27 1.548895 1_555
O80 P28 1.545299 1_555
O81 P29 1.550034 1_555
O82 P24 1.545699 1_555
O83 P25 1.546671 1_555
O84 P12 1.562578 1_555
O85 P13 1.561421 1_555
O86 P14 1.562319 1_555
O87 P15 1.562541 1_555
O88 P16 1.566564 1_555
O89 P17 1.561690 1_555
O90 P18 1.546671 1_555
O91 P19 1.559948 1_555
O92 P20 1.544316 1_555
O93 P21 1.564833 1_555
O94 P22 1.540022 1_555
O95 P23 1.568640 1_555
O96 P10 1.524580 1_545
O97 P11 1.527030 1_545
O98 P6 1.501891 1_555
O99 P7 1.507636 1_555
O100 P9 1.500794 1_555
O101 P8 1.507908 1_555
O102 P2 1.551407 1_555
O103 P3 1.525969 1_555
O104 P5 1.540039 1_555
O105 P4 1.510399 1_655
O106 P0 1.542096 1_555
O107 P1 1.510161 1_545
O108 P24 1.545542 1_555
O109 P25 1.543121 1_555
O110 P27 1.547867 1_555
O111 P26 1.543282 1_655
O112 P28 1.547038 1_545
O113 P29 1.543723 1_545
O114 P30 1.544659 1_545
O115 P31 1.545840 1_545
O116 P32 1.544267 1_555
O117 P33 1.546779 1_555
O118 P35 1.544924 1_555
O119 P34 1.545834 1_655
O120 P22 1.548469 1_555
O121 P23 1.555137 1_555
O122 P19 1.562955 1_455
O123 P18 1.541117 1_555
O124 P20 1.546727 1_565
O125 P21 1.558044 1_565
O126 P14 1.550558 1_565
O127 P15 1.548023 1_565
O128 P16 1.552771 1_555
O129 P17 1.548867 1_555
O130 P13 1.548942 1_455
O131 P12 1.549095 1_555
O132 P0 1.569932 1_565
O133 P1 1.547055 1_555
O134 P2 1.552626 1_555
O135 P3 1.564664 1_555
O136 P4 1.576540 1_555
O137 P5 1.561910 1_555
O138 P6 1.569923 1_555
O139 P7 1.566812 1_555
O140 P8 1.584103 1_455
O141 P9 1.584510 1_555
O142 P10 1.567648 1_555
O143 P11 1.566804 1_555
