# generated using pymatgen
data_CaMnSn
_symmetry_space_group_name_H-M   'P 1'
_cell_length_a   4.52888200
_cell_length_b   4.52888200
_cell_length_c   7.35261300
_cell_angle_alpha   90.00000000
_cell_angle_beta   90.00000000
_cell_angle_gamma   90.00000000
_symmetry_Int_Tables_number   1
_chemical_formula_structural   CaMnSn
_chemical_formula_sum   'Ca2 Mn2 Sn2'
_cell_volume   150.80777010
_cell_formula_units_Z   2
loop_
 _symmetry_equiv_pos_site_id
 _symmetry_equiv_pos_as_xyz
  1  'x, y, z'
loop_
 _atom_site_type_symbol
 _atom_site_label
 _atom_site_symmetry_multiplicity
 _atom_site_fract_x
 _atom_site_fract_y
 _atom_site_fract_z
 _atom_site_occupancy
  Ca  Ca0  1  0.00000000  0.50000000  0.67646000  1
  Ca  Ca1  1  0.50000000  0.00000000  0.32354000  1
  Mn  Mn0  1  0.50000000  0.50000000  0.00000000  1
  Mn  Mn1  1  0.00000000  0.00000000  0.00000000  1
  Sn  Sn0  1  0.50000000  0.00000000  0.78175100  1
  Sn  Sn1  1  0.00000000  0.50000000  0.21824900  1
loop_
_geom_bond_atom_site_label_1
_geom_bond_atom_site_label_2
_geom_bond_distance
_geom_bond_site_symmetry_2
Ca0 Mn0 3.284310 1_556
Ca0 Mn1 3.284310 1_556
Ca0 Mn0 3.284310 1_456
Ca0 Mn1 3.284310 1_566
Ca0 Sn0 3.294650 1_565
Ca0 Sn0 3.294650 1_555
Ca0 Sn0 3.294650 1_455
Ca0 Sn0 3.294650 1_465
Ca0 Sn1 3.369048 1_555
Ca1 Mn1 3.284310 1_655
Ca1 Mn0 3.284310 1_555
Ca1 Mn1 3.284310 1_555
Ca1 Mn0 3.284310 1_545
Ca1 Sn1 3.294650 1_655
Ca1 Sn1 3.294650 1_645
Ca1 Sn1 3.294650 1_545
Ca1 Sn1 3.294650 1_555
Ca1 Sn0 3.369048 1_555
Mn0 Sn1 2.775384 1_655
Mn0 Sn1 2.775384 1_555
Mn0 Sn0 2.775384 1_554
Mn0 Sn0 2.775384 1_564
Mn1 Sn1 2.775384 1_545
Mn1 Sn1 2.775384 1_555
Mn1 Sn0 2.775384 1_554
Mn1 Sn0 2.775384 1_454
