# generated using pymatgen
data_Rb2PdBr6
_symmetry_space_group_name_H-M   'P 1'
_cell_length_a   7.41108072
_cell_length_b   7.41108082
_cell_length_c   7.41108040
_cell_angle_alpha   60.00000187
_cell_angle_beta   60.00000145
_cell_angle_gamma   60.00000677
_symmetry_Int_Tables_number   1
_chemical_formula_structural   Rb2PdBr6
_chemical_formula_sum   'Rb2 Pd1 Br6'
_cell_volume   287.82575545
_cell_formula_units_Z   1
loop_
 _symmetry_equiv_pos_site_id
 _symmetry_equiv_pos_as_xyz
  1  'x, y, z'
loop_
 _atom_site_type_symbol
 _atom_site_label
 _atom_site_symmetry_multiplicity
 _atom_site_fract_x
 _atom_site_fract_y
 _atom_site_fract_z
 _atom_site_occupancy
  Rb  Rb0  1  0.25000000  0.25000000  0.25000000  1
  Rb  Rb1  1  0.75000000  0.75000000  0.75000000  1
  Pd  Pd0  1  0.00000000  -0.00000000  0.00000000  1
  Br  Br0  1  0.76260387  0.23739613  0.23739613  1
  Br  Br1  1  0.76260387  0.76260387  0.23739613  1
  Br  Br2  1  0.23739613  0.23739613  0.76260387  1
  Br  Br3  1  0.76260387  0.23739613  0.76260387  1
  Br  Br4  1  0.23739613  0.76260387  0.23739613  1
  Br  Br5  1  0.23739613  0.76260387  0.76260387  1
loop_
_geom_bond_atom_site_label_1
_geom_bond_atom_site_label_2
_geom_bond_distance
_geom_bond_site_symmetry_2
Br0 Pd0 2.488114 1_655
Br0 Rb0 3.707894 1_655
Br0 Rb0 3.707894 1_555
Br0 Rb1 3.707894 1_545
Br0 Rb1 3.707894 1_554
Br1 Pd0 2.488113 1_665
Br1 Rb1 3.707894 1_555
Br1 Rb1 3.707894 1_554
Br1 Rb0 3.707895 1_565
Br1 Rb0 3.707895 1_655
Br2 Pd0 2.488113 1_556
Br2 Rb0 3.707894 1_555
Br2 Rb0 3.707894 1_556
Br2 Rb1 3.707895 1_545
Br2 Rb1 3.707895 1_455
Br3 Pd0 2.488114 1_656
Br3 Rb0 3.707894 1_655
Br3 Rb0 3.707894 1_556
Br3 Rb1 3.707894 1_545
Br3 Rb1 3.707894 1_555
Br4 Pd0 2.488114 1_565
Br4 Rb1 3.707894 1_455
Br4 Rb1 3.707894 1_554
Br4 Rb0 3.707894 1_565
Br4 Rb0 3.707894 1_555
Br5 Pd0 2.488114 1_566
Br5 Rb1 3.707894 1_455
Br5 Rb1 3.707894 1_555
Br5 Rb0 3.707894 1_565
Br5 Rb0 3.707894 1_556
