# generated using pymatgen
data_Na4LaYSi2SO12
_symmetry_space_group_name_H-M   'P 1'
_cell_length_a   9.64861570
_cell_length_b   9.63943729
_cell_length_c   23.77578741
_cell_angle_alpha   90.00972000
_cell_angle_beta   90.00323288
_cell_angle_gamma   119.85794123
_symmetry_Int_Tables_number   1
_chemical_formula_structural   Na4LaYSi2SO12
_chemical_formula_sum   'Na24 La6 Y6 Si12 S6 O72'
_cell_volume   1917.79474917
_cell_formula_units_Z   6
loop_
 _symmetry_equiv_pos_site_id
 _symmetry_equiv_pos_as_xyz
  1  'x, y, z'
loop_
 _atom_site_type_symbol
 _atom_site_label
 _atom_site_symmetry_multiplicity
 _atom_site_fract_x
 _atom_site_fract_y
 _atom_site_fract_z
 _atom_site_occupancy
  Na  Na0  1  0.66027616  0.99906411  0.25945079  1
  Na  Na1  1  0.36474148  0.38831896  0.23930826  1
  Na  Na2  1  0.98333372  0.61106285  0.25690635  1
  Na  Na3  1  0.61434304  0.63043408  0.73418034  1
  Na  Na4  1  0.99522437  0.33688142  0.75554937  1
  Na  Na5  1  0.39280601  0.02391126  0.75240333  1
  Na  Na6  1  0.33018989  0.33211534  0.59269461  1
  Na  Na7  1  0.03340897  0.72352702  0.57212842  1
  Na  Na8  1  0.65266516  0.94505588  0.59004276  1
  Na  Na9  1  0.27743936  0.96835593  0.07200410  1
  Na  Na10  1  0.66811648  0.67229368  0.09392278  1
  Na  Na11  1  0.05602805  0.34836835  0.09124683  1
  Na  Na12  1  0.99320770  0.66738590  0.92534786  1
  Na  Na13  1  0.69969908  0.05504597  0.90320327  1
  Na  Na14  1  0.31489356  0.27647889  0.92252036  1
  Na  Na15  1  0.94477757  0.30030305  0.40367226  1
  Na  Na16  1  0.33172899  0.00573261  0.42343271  1
  Na  Na17  1  0.72244963  0.68487320  0.42135422  1
  Na  Na18  1  0.98500743  0.96113828  0.50036668  1
  Na  Na19  1  0.03849432  0.01612124  0.99974241  1
  Na  Na20  1  0.65149246  0.29466894  0.83318022  1
  Na  Na21  1  0.70194200  0.34764737  0.33412812  1
  Na  Na22  1  0.31718645  0.62899738  0.16775325  1
  Na  Na23  1  0.37079506  0.68201363  0.66663046  1
  La  La0  1  0.00955192  0.01574405  0.84313036  1
  La  La1  1  0.99761719  0.99993093  0.15835693  1
  La  La2  1  0.66676435  0.33611028  0.98863301  1
  La  La3  1  0.31887709  0.65735301  0.01554141  1
  La  La4  1  0.34326420  0.68237599  0.51332916  1
  La  La5  1  0.33055768  0.66635687  0.81716588  1
  Y  Y0  1  0.98582641  0.99152905  0.34689808  1
  Y  Y1  1  0.00040737  0.00304328  0.64980362  1
  Y  Y2  1  0.65444112  0.32587311  0.67966728  1
  Y  Y3  1  0.67466749  0.34708737  0.18412398  1
  Y  Y4  1  0.66267995  0.33350731  0.48491921  1
  Y  Y5  1  0.33222099  0.66884033  0.32137271  1
  Si  Si0  1  0.68345665  0.68761518  0.25067894  1
  Si  Si1  1  0.00159596  0.31160169  0.25177090  1
  Si  Si2  1  0.31189091  0.30990012  0.74565519  1
  Si  Si3  1  0.69533115  0.00518594  0.74702565  1
  Si  Si4  1  0.35886228  0.03243436  0.58244161  1
  Si  Si5  1  0.67177454  0.63649632  0.58404726  1
  Si  Si6  1  0.97437947  0.64472127  0.08452173  1
  Si  Si7  1  0.36087167  0.33163170  0.08621047  1
  Si  Si8  1  0.01706188  0.35238163  0.91497085  1
  Si  Si9  1  0.33281025  0.97756838  0.91670699  1
  Si  Si10  1  0.64481329  0.98087801  0.41492209  1
  Si  Si11  1  0.02356114  0.66701294  0.41643200  1
  S  S0  1  0.31016926  0.00038265  0.25309646  1
  S  S1  1  0.99286671  0.69213013  0.74583640  1
  S  S2  1  0.95963115  0.32808218  0.58416503  1
  S  S3  1  0.66531244  0.03021970  0.08698932  1
  S  S4  1  0.64449936  0.66895567  0.91656140  1
  S  S5  1  0.33261927  0.35850125  0.41501370  1
  O  O0  1  0.22537081  0.02195173  0.30142565  1
  O  O1  1  0.80687438  0.78469662  0.30267074  1
  O  O2  1  0.98724919  0.19590680  0.30490033  1
  O  O3  1  0.23649515  0.20836986  0.80399699  1
  O  O4  1  0.97153520  0.75986307  0.79919722  1
  O  O5  1  0.78770155  0.01769233  0.80675576  1
  O  O6  1  0.79487514  0.98658533  0.69413508  1
  O  O7  1  0.19514189  0.20704424  0.69299015  1
  O  O8  1  0.00615502  0.79825397  0.69818852  1
  O  O9  1  0.75795311  0.79207620  0.19277720  1
  O  O10  1  0.03291037  0.23915725  0.19344368  1
  O  O11  1  0.21564895  0.97479210  0.20094183  1
  O  O12  1  0.88143461  0.34637743  0.63497327  1
  O  O13  1  0.46975077  0.12185792  0.63749463  1
  O  O14  1  0.66439189  0.53491358  0.64016748  1
  O  O15  1  0.87119305  0.52867091  0.13739611  1
  O  O16  1  0.65568616  0.12084466  0.13594486  1
  O  O17  1  0.46800740  0.33120525  0.14012967  1
  O  O18  1  0.43911805  0.31535946  0.02668304  1
  O  O19  1  0.88055490  0.56440584  0.02522034  1
  O  O20  1  0.67826065  0.11758223  0.03411310  1
  O  O21  1  0.45071673  0.13830060  0.52610710  1
  O  O22  1  0.68783024  0.54661675  0.52751536  1
  O  O23  1  0.86307556  0.31462235  0.53338266  1
  O  O24  1  0.56446881  0.68392255  0.96786025  1
  O  O25  1  0.12705937  0.44233670  0.97074327  1
  O  O26  1  0.32780005  0.87842334  0.97417878  1
  O  O27  1  0.56889795  0.87022467  0.47161869  1
  O  O28  1  0.30384740  0.42590041  0.46695039  1
  O  O29  1  0.12641343  0.68888436  0.47442421  1
  O  O30  1  0.11671765  0.64237400  0.36281867  1
  O  O31  1  0.52767742  0.88529870  0.36145703  1
  O  O32  1  0.35173557  0.46461253  0.36657663  1
  O  O33  1  0.10954095  0.45674869  0.85839057  1
  O  O34  1  0.34849577  0.88654002  0.86027281  1
  O  O35  1  0.54791124  0.65750761  0.86613940  1
  O  O36  1  0.01512757  0.83428318  0.41099250  1
  O  O37  1  0.82696706  0.00741786  0.40908827  1
  O  O38  1  0.19620337  0.19483471  0.40614062  1
  O  O39  1  0.99255030  0.17023784  0.91501579  1
  O  O40  1  0.16266698  0.98079045  0.91669294  1
  O  O41  1  0.80659980  0.80991590  0.91304717  1
  O  O42  1  0.96895356  0.17798378  0.58759104  1
  O  O43  1  0.18209509  0.02115877  0.58520166  1
  O  O44  1  0.83009215  0.81853570  0.58533001  1
  O  O45  1  0.99041831  0.82338134  0.08767560  1
  O  O46  1  0.81137127  0.01475301  0.09025713  1
  O  O47  1  0.17698973  0.17739322  0.08738545  1
  O  O48  1  0.69103587  0.17458366  0.74402153  1
  O  O49  1  0.49354065  0.33554662  0.74236407  1
  O  O50  1  0.85450121  0.52949784  0.73900561  1
  O  O51  1  0.66439214  0.50758789  0.24847940  1
  O  O52  1  0.83078734  0.31411676  0.24995368  1
  O  O53  1  0.47208266  0.14228184  0.24821970  1
  O  O54  1  0.65669918  0.52166369  0.91834011  1
  O  O55  1  0.84057389  0.34075690  0.91634497  1
  O  O56  1  0.48817444  0.16043340  0.91580169  1
  O  O57  1  0.65630237  0.15744720  0.41942707  1
  O  O58  1  0.48254226  0.34974822  0.41956989  1
  O  O59  1  0.84197867  0.50880804  0.41881423  1
  O  O60  1  0.36065799  0.50384780  0.08865815  1
  O  O61  1  0.15442093  0.66347990  0.08691882  1
  O  O62  1  0.52121837  0.86915592  0.08603434  1
  O  O63  1  0.33365980  0.84940360  0.58200498  1
  O  O64  1  0.50306409  0.64422955  0.58408404  1
  O  O65  1  0.12325415  0.46788419  0.58003736  1
  O  O66  1  0.32648315  0.85479496  0.26035720  1
  O  O67  1  0.50510707  0.66855623  0.25854383  1
  O  O68  1  0.15471167  0.49485607  0.25757679  1
  O  O69  1  0.32289451  0.48678299  0.74551977  1
  O  O70  1  0.14201005  0.68198740  0.74703928  1
  O  O71  1  0.51274587  0.84869745  0.74532644  1
loop_
_geom_bond_atom_site_label_1
_geom_bond_atom_site_label_2
_geom_bond_distance
_geom_bond_site_symmetry_2
Na0 O52 2.646885 1_565
Na0 O31 2.706601 1_555
Na0 O67 2.764530 1_555
Na0 O53 2.787550 1_565
Na0 O66 2.801316 1_555
Na0 O2 2.959647 1_565
Na0 O9 3.041967 1_555
Na1 O67 2.386900 1_555
Na1 O51 2.533492 1_555
Na1 O17 2.720711 1_555
Na1 O68 2.724357 1_555
Na2 O68 2.415284 1_655
Na2 O52 2.488346 1_555
Na2 O51 2.729225 1_555
Na2 O30 2.775081 1_655
Na2 O66 2.956908 1_655
Na2 O15 3.003095 1_555
Na3 O69 2.453754 1_555
Na3 O49 2.485509 1_555
Na3 O14 2.553312 1_555
Na3 O71 2.740641 1_555
Na3 O50 2.928155 1_555
Na4 O48 2.562163 1_555
Na4 O33 2.694455 1_655
Na4 O69 2.755314 1_655
Na4 O50 2.820647 1_555
Na4 O70 2.902122 1_655
Na4 O5 2.970776 1_555
Na5 O71 2.483189 1_545
Na5 O48 2.503608 1_555
Na5 O49 2.668090 1_555
Na5 O34 2.819825 1_545
Na5 O13 2.865280 1_555
Na5 O70 2.965402 1_545
Na6 O43 2.606400 1_555
Na6 O64 2.622842 1_555
Na6 O7 2.697194 1_555
Na6 O65 2.896869 1_555
Na7 O43 2.507455 1_565
Na7 O63 2.533739 1_555
Na7 O44 2.564077 1_455
Na7 O29 2.571269 1_555
Na8 O64 2.518840 1_555
Na8 O44 2.551365 1_555
Na8 O63 2.744921 1_555
Na8 O42 2.745057 1_565
Na8 O6 2.760500 1_555
Na8 O27 2.918881 1_555
Na9 O45 2.430621 1_455
Na9 O61 2.588142 1_555
Na9 O26 2.610782 1_554
Na9 O47 2.660387 1_565
Na10 O9 2.571176 1_555
Na10 O60 2.579979 1_555
Na10 O45 2.702653 1_555
Na10 O46 2.876169 1_565
Na10 O62 2.885016 1_555
Na11 O47 2.449907 1_555
Na11 O60 2.550106 1_555
Na11 O10 2.613255 1_555
Na11 O61 2.695757 1_555
Na11 O46 2.890673 1_455
Na11 O25 2.980230 1_554
Na12 O19 2.594622 1_556
Na12 O40 2.631417 1_655
Na12 O55 2.740561 1_555
Na12 O41 2.770951 1_555
Na12 O54 2.828701 1_555
Na13 O55 2.408830 1_555
Na13 O39 2.484285 1_555
Na13 O5 2.532462 1_555
Na13 O56 2.711357 1_555
Na14 O56 2.436041 1_555
Na14 O40 2.476281 1_545
Na14 O18 2.694894 1_556
Na14 O39 2.753578 1_455
Na14 O3 2.906702 1_555
Na14 O54 2.951494 1_555
Na15 O57 2.442892 1_555
Na15 O37 2.466605 1_555
Na15 O2 2.665599 1_555
Na15 O59 2.671655 1_555
Na16 O36 2.668952 1_545
Na16 O57 2.719395 1_555
Na16 O21 2.729131 1_555
Na16 O38 2.752314 1_555
Na16 O58 2.884084 1_555
Na16 O29 2.949517 1_545
Na17 O36 2.461734 1_655
Na17 O59 2.482538 1_555
Na17 O37 2.765362 1_565
Na17 O22 2.795816 1_555
Na17 O58 2.889630 1_555
Na17 O1 2.961873 1_555
Na18 O44 2.481909 1_555
Na18 O36 2.539318 1_655
Na18 O43 2.631152 1_665
Na18 O37 2.812716 1_565
Na19 O40 2.420051 1_545
Na19 O47 2.544537 1_556
Na19 O39 2.667983 1_455
Na19 O45 2.679783 1_446
Na20 O56 2.446884 1_555
Na20 O48 2.533406 1_555
Na20 O55 2.574438 1_555
Na20 O49 2.781727 1_555
Na20 O54 2.962926 1_555
Na21 O52 2.460766 1_555
Na21 O59 2.490324 1_555
Na21 O57 2.620269 1_555
Na21 O51 2.685547 1_555
Na21 O53 2.938729 1_555
Na21 O58 2.941363 1_555
Na22 O60 2.381359 1_555
Na22 O68 2.583290 1_555
Na22 O61 2.605798 1_555
Na22 O67 2.720934 1_555
Na22 O62 2.910988 1_555
Na23 O71 2.401222 1_555
Na23 O64 2.464966 1_555
Na23 O69 2.531511 1_555
Na23 O63 2.712357 1_555
Na23 O70 2.920224 1_555
La0 O3 2.249581 1_555
La0 O5 2.317340 1_455
La0 O39 2.325570 1_455
La0 O40 2.418811 1_545
La0 O4 2.531344 1_445
La0 O41 2.582131 1_445
La1 O10 2.312351 1_665
La1 O9 2.327867 1_555
La1 O45 2.367803 1_555
La1 O47 2.412956 1_665
La1 O11 2.452929 1_655
La1 O46 2.475206 1_565
La2 O18 2.290360 1_556
La2 O19 2.309506 1_556
La2 O55 2.386192 1_555
La2 O20 2.419147 1_556
La2 O56 2.434877 1_555
La2 O54 2.485100 1_555
La3 O25 2.243921 1_554
La3 O26 2.309485 1_554
La3 O61 2.344124 1_555
La3 O60 2.443121 1_555
La3 O24 2.522298 1_554
La3 O62 2.611246 1_555
La4 O27 2.253341 1_555
La4 O29 2.316855 1_555
La4 O63 2.326940 1_555
La4 O64 2.430414 1_555
La4 O28 2.556474 1_555
La4 O65 2.632104 1_555
La5 O34 2.284428 1_555
La5 O33 2.302477 1_555
La5 O69 2.403136 1_555
La5 O35 2.437013 1_555
La5 O71 2.453928 1_555
La5 O70 2.526832 1_555
O0 S0 1.484054 1_555
O0 Y0 2.433588 1_445
O1 Si0 1.646719 1_555
O1 Y0 2.152544 1_555
O2 Si1 1.644795 1_655
O2 Y0 2.202778 1_545
O3 Si2 1.644027 1_555
O4 S1 1.487209 1_555
O5 Si3 1.648770 1_555
O6 Si3 1.645451 1_565
O6 Y1 2.180790 1_665
O7 Si2 1.645354 1_555
O7 Y1 2.184434 1_555
O8 S1 1.488662 1_455
O8 Y1 2.309356 1_565
O9 Si0 1.644901 1_555
O10 Si1 1.646783 1_555
O11 S0 1.485256 1_565
O12 S2 1.480591 1_555
O12 Y2 2.352535 1_555
O13 Si4 1.637747 1_555
O13 Y2 2.134976 1_555
O14 Si5 1.635626 1_555
O14 Y2 2.181645 1_555
O15 Si6 1.647625 1_555
O15 Y3 2.142375 1_555
O16 S3 1.485600 1_555
O16 Y3 2.388149 1_555
O17 Si7 1.648063 1_555
O17 Y3 2.188442 1_555
O18 Si7 1.647922 1_555
O19 Si6 1.645741 1_555
O20 S3 1.483540 1_555
O21 Si4 1.649519 1_555
O21 Y4 2.202593 1_555
O22 Si5 1.647566 1_555
O22 Y4 2.192587 1_555
O23 S2 1.490645 1_555
O23 Y4 2.334460 1_555
O24 S4 1.488506 1_555
O25 Si8 1.649175 1_555
O26 Si9 1.654480 1_555
O27 Si10 1.647430 1_555
O28 S5 1.484363 1_555
O29 Si11 1.649792 1_555
O30 Si11 1.643700 1_555
O30 Y5 2.198128 1_555
O31 Si10 1.644601 1_555
O31 Y5 2.213490 1_555
O32 S5 1.489655 1_555
O32 Y5 2.331498 1_555
O33 Si8 1.650681 1_555
O34 Si9 1.650768 1_555
O35 S4 1.488388 1_555
O36 Si11 1.659476 1_555
O36 Y0 2.264319 1_455
O37 Si10 1.651045 1_545
O37 Y0 2.189314 1_545
O38 S5 1.482625 1_555
O38 Y0 2.445961 1_445
O39 Si8 1.650813 1_655
O40 Si9 1.657329 1_555
O41 S4 1.477664 1_555
O42 S2 1.495916 1_555
O42 Y1 2.373620 1_655
O43 Si4 1.655441 1_555
O43 Y1 2.271210 1_555
O44 Si5 1.656660 1_555
O44 Y1 2.302642 1_665
O45 Si6 1.652293 1_555
O46 S3 1.491137 1_555
O47 Si7 1.653056 1_555
O48 Si3 1.655475 1_555
O48 Y2 2.259640 1_555
O49 Si2 1.645503 1_555
O49 Y2 2.187530 1_555
O50 S1 1.477260 1_555
O50 Y2 2.407353 1_555
O51 Si0 1.652325 1_555
O51 Y3 2.212828 1_555
O52 Si1 1.660829 1_655
O52 Y3 2.301382 1_555
O53 S0 1.482354 1_555
O53 Y3 2.489897 1_555
O54 S4 1.482545 1_555
O55 Si8 1.650268 1_655
O56 Si9 1.650380 1_545
O57 Si10 1.653097 1_545
O57 Y4 2.281175 1_555
O58 S5 1.494279 1_555
O58 Y4 2.393788 1_555
O59 Si11 1.654722 1_655
O59 Y4 2.325715 1_555
O60 Si7 1.662103 1_555
O61 Si6 1.655553 1_455
O62 S3 1.481434 1_565
O63 Si4 1.656759 1_565
O64 Si5 1.666189 1_555
O65 S2 1.483165 1_455
O66 S0 1.498030 1_565
O66 Y5 2.328155 1_555
O67 Si0 1.647794 1_555
O67 Y5 2.240287 1_555
O68 Si1 1.650289 1_555
O68 Y5 2.277181 1_555
O69 Si2 1.654762 1_555
O70 S1 1.490389 1_455
O71 Si3 1.653663 1_565
