# generated using pymatgen
data_Na3MgVH6O7
_symmetry_space_group_name_H-M   'P 1'
_cell_length_a   5.97242732
_cell_length_b   5.86074908
_cell_length_c   5.88740079
_cell_angle_alpha   105.28910648
_cell_angle_beta   88.89413191
_cell_angle_gamma   103.98959702
_symmetry_Int_Tables_number   1
_chemical_formula_structural   Na3MgVH6O7
_chemical_formula_sum   'Na3 Mg1 V1 H6 O7'
_cell_volume   192.66900536
_cell_formula_units_Z   1
loop_
 _symmetry_equiv_pos_site_id
 _symmetry_equiv_pos_as_xyz
  1  'x, y, z'
loop_
 _atom_site_type_symbol
 _atom_site_label
 _atom_site_symmetry_multiplicity
 _atom_site_fract_x
 _atom_site_fract_y
 _atom_site_fract_z
 _atom_site_occupancy
  Na  Na0  1  0.69388312  0.49542309  0.24646965  1
  Na  Na1  1  0.46885583  0.21032798  0.80434617  1
  Na  Na2  1  0.20921690  0.50041724  0.46329488  1
  Mg  Mg0  1  0.21443810  0.93497948  0.32194549  1
  V  V0  1  0.00464183  0.99340817  0.94109638  1
  H  H0  1  0.90315002  0.49152299  0.79887177  1
  H  H1  1  0.50296610  0.74357138  0.87842536  1
  H  H2  1  0.62160351  0.91300081  0.49068559  1
  H  H3  1  0.92235129  0.22977829  0.63058775  1
  H  H4  1  0.24600831  0.61728596  0.92746855  1
  H  H5  1  0.63313533  0.98932710  0.14990571  1
  O  O0  1  0.24980868  0.19442668  0.16052002  1
  O  O1  1  0.01009724  0.69802001  0.04889705  1
  O  O2  1  0.69654613  0.05403037  0.01590293  1
  O  O3  1  0.07044743  0.00652284  0.62559362  1
  O  O4  1  0.84511788  0.36859724  0.63914509  1
  O  O5  1  0.38625157  0.58533402  0.83292987  1
  O  O6  1  0.49449674  0.82561434  0.37550213  1
loop_
_geom_bond_atom_site_label_1
_geom_bond_atom_site_label_2
_geom_bond_distance
_geom_bond_site_symmetry_2
Na0 O1 2.426712 1_655
Na0 O6 2.458453 1_555
Na0 O2 2.588831 1_555
Na0 O0 2.778687 1_555
Na0 O4 2.832730 1_555
Na1 O5 2.329827 1_555
Na1 O2 2.347123 1_556
Na1 O0 2.460804 1_556
Na1 O4 2.497972 1_555
Na1 O3 2.501132 1_555
Na2 O0 2.227098 1_555
Na2 O5 2.316171 1_555
Na2 O6 2.391250 1_555
Mg0 O3 1.957273 1_565
Mg0 O0 1.964431 1_565
Mg0 O6 1.988273 1_555
Mg0 O1 2.020190 1_555
H0 O4 1.028604 1_555
H0 O1 1.662064 1_656
H1 O5 0.990631 1_555
H2 O6 0.973231 1_555
H2 Na1 2.507067 1_565
H3 O4 1.017919 1_555
H3 O3 1.741688 1_655
H4 O5 1.024349 1_555
H4 O1 1.680830 1_556
H5 O2 0.993197 1_565
O0 V0 1.907127 1_544
O1 V0 2.002104 1_554
O2 V0 1.976961 1_644
O3 V0 1.908705 1_545
