# generated using pymatgen
data_MgTi8(NiO3)8
_symmetry_space_group_name_H-M   'P 1'
_cell_length_a   5.63239008
_cell_length_b   11.16739199
_cell_length_c   11.16012376
_cell_angle_alpha   54.43262701
_cell_angle_beta   54.24557917
_cell_angle_gamma   53.88674038
_symmetry_Int_Tables_number   1
_chemical_formula_structural   MgTi8(NiO3)8
_chemical_formula_sum   'Mg1 Ti8 Ni8 O24'
_cell_volume   429.00542771
_cell_formula_units_Z   1
loop_
 _symmetry_equiv_pos_site_id
 _symmetry_equiv_pos_as_xyz
  1  'x, y, z'
loop_
 _atom_site_type_symbol
 _atom_site_label
 _atom_site_symmetry_multiplicity
 _atom_site_fract_x
 _atom_site_fract_y
 _atom_site_fract_z
 _atom_site_occupancy
  Mg  Mg0  1  0.70969100  0.33604700  0.83693300  1
  Ti  Ti0  1  0.36562000  0.17226000  0.17545400  1
  Ti  Ti1  1  0.14743300  0.06488500  0.57479600  1
  Ti  Ti2  1  0.19224400  0.58876500  0.06791200  1
  Ti  Ti3  1  0.12880800  0.57149100  0.58407500  1
  Ti  Ti4  1  0.84581100  0.42996100  0.43134300  1
  Ti  Ti5  1  0.97818200  0.49299000  0.98451200  1
  Ti  Ti6  1  0.88464200  0.92781200  0.41395700  1
  Ti  Ti7  1  0.82427500  0.92606000  0.93550500  1
  Ni  Ni0  1  0.13554700  0.07676700  0.07875000  1
  Ni  Ni1  1  0.35270700  0.68001000  0.18809000  1
  Ni  Ni2  1  0.35091000  0.16477000  0.66324600  1
  Ni  Ni3  1  0.63924800  0.32414100  0.33461400  1
  Ni  Ni4  1  0.34841500  0.68183000  0.66841700  1
  Ni  Ni5  1  0.49862000  0.25725800  0.75775600  1
  Ni  Ni6  1  0.66002400  0.82138900  0.32753000  1
  Ni  Ni7  1  0.63796500  0.83665800  0.81777700  1
  O  O0  1  0.06779400  0.38113000  0.20369200  1
  O  O1  1  0.43339100  0.02974900  0.37731000  1
  O  O2  1  0.72221300  0.20507600  0.05369000  1
  O  O3  1  0.22686200  0.28027600  0.46825200  1
  O  O4  1  0.56755100  0.48448400  0.12334200  1
  O  O5  1  0.10216800  0.37487100  0.70375100  1
  O  O6  1  0.03997400  0.87441700  0.23608900  1
  O  O7  1  0.94462800  0.11825800  0.28826100  1
  O  O8  1  0.44936600  0.03198500  0.87298100  1
  O  O9  1  0.44569300  0.52403900  0.39176600  1
  O  O10  1  0.78037700  0.21530800  0.52099800  1
  O  O11  1  0.77474800  0.71454800  0.02382400  1
  O  O12  1  0.24515700  0.28695900  0.98126900  1
  O  O13  1  0.23816000  0.78231400  0.47078800  1
  O  O14  1  0.58009200  0.47178100  0.61868500  1
  O  O15  1  0.56021800  0.97445300  0.11984500  1
  O  O16  1  0.05015900  0.88663500  0.71356200  1
  O  O17  1  0.93805400  0.11632600  0.78084200  1
  O  O18  1  0.94552600  0.61257300  0.28275700  1
  O  O19  1  0.37851500  0.53509700  0.88903000  1
  O  O20  1  0.77271600  0.71136400  0.53524600  1
  O  O21  1  0.23210300  0.78945400  0.96476300  1
  O  O22  1  0.55621100  0.97018100  0.60880300  1
  O  O23  1  0.95059400  0.62087300  0.78098900  1
loop_
_geom_bond_atom_site_label_1
_geom_bond_atom_site_label_2
_geom_bond_distance
_geom_bond_site_symmetry_2
Mg0 O5 1.955565 1_655
Mg0 O2 1.989414 1_556
Mg0 O19 2.026595 1_555
Mg0 O17 2.278731 1_555
Mg0 O14 2.289430 1_555
Mg0 O12 2.340759 1_555
Ni0 O2 1.978321 1_455
Ni0 O6 2.047611 1_545
Ni0 O8 2.048994 1_554
Ni0 O7 2.138406 1_455
Ni0 O15 2.165164 1_545
Ni0 O12 2.242120 1_554
Ni1 O6 1.960975 1_555
Ni1 O9 2.045727 1_555
Ni1 O11 2.079830 1_555
Ni1 O4 2.110271 1_555
Ni1 O18 2.285128 1_455
Ni1 O21 2.371342 1_554
Ni2 O22 2.044839 1_545
Ni2 O5 2.071504 1_555
Ni2 O3 2.082472 1_555
Ni2 O8 2.120127 1_555
Ni2 O17 2.124365 1_455
Ni2 O10 2.183866 1_555
Ni3 O7 2.048050 1_555
Ni3 O4 2.068227 1_555
Ni3 O10 2.070790 1_555
Ni3 O3 2.074205 1_555
Ni3 O9 2.133947 1_555
Ni3 O0 2.230155 1_655
Ni4 O16 2.032069 1_555
Ni4 O20 2.058411 1_555
Ni4 O19 2.059766 1_555
Ni4 O13 2.099851 1_555
Ni4 O14 2.138501 1_555
Ni4 O23 2.139109 1_455
Ni5 O5 2.066211 1_555
Ni5 O17 2.085923 1_555
Ni5 O14 2.120551 1_555
Ni5 O12 2.147799 1_555
Ni5 O8 2.168359 1_555
Ni5 O10 2.320087 1_555
Ni6 O6 2.051947 1_655
Ni6 O18 2.066325 1_555
Ni6 O13 2.088909 1_555
Ni6 O15 2.095477 1_555
Ni6 O1 2.127474 1_565
Ni6 O20 2.184732 1_555
Ni7 O21 2.055903 1_555
Ni7 O22 2.067519 1_555
Ni7 O8 2.081637 1_565
Ni7 O23 2.092940 1_555
Ni7 O16 2.161231 1_655
Ni7 O11 2.219211 1_556
O0 Ti0 1.994756 1_555
O0 Ti2 2.179728 1_555
O0 Ti5 2.223385 1_454
O0 Ti4 2.326195 1_455
O1 Ti1 1.928284 1_555
O1 Ti0 1.967596 1_555
O1 Ti6 2.277195 1_545
O2 Ti0 1.764545 1_555
O3 Ti4 1.890329 1_455
O3 Ti1 2.172405 1_555
O4 Ti5 1.912809 1_554
O4 Ti2 1.998910 1_555
O5 Ti3 1.835803 1_555
O6 Ti6 1.947769 1_455
O7 Ti6 1.851391 1_545
O7 Ti0 2.210201 1_655
O8 Ti7 2.040209 1_545
O9 Ti3 1.950436 1_555
O9 Ti4 2.051865 1_555
O10 Ti1 1.907883 1_655
O10 Ti4 2.168729 1_555
O11 Ti7 2.091780 1_554
O11 Ti2 2.097444 1_655
O11 Ti5 2.227257 1_554
O12 Ti5 1.873837 1_455
O12 Ti0 2.064501 1_556
O13 Ti6 1.862889 1_455
O13 Ti3 2.203927 1_555
O14 Ti4 1.866692 1_555
O14 Ti3 2.271693 1_555
O15 Ti7 1.872599 1_554
O15 Ti0 2.100477 1_565
O16 Ti1 1.835419 1_565
O16 Ti7 2.207546 1_455
O17 Ti7 1.987608 1_545
O17 Ti1 2.139513 1_655
O18 Ti4 1.884600 1_555
O18 Ti2 2.040354 1_655
O19 Ti2 1.910065 1_556
O19 Ti5 2.073619 1_455
O20 Ti3 1.831285 1_655
O20 Ti6 2.250573 1_555
O21 Ti2 1.920469 1_556
O21 Ti7 1.968926 1_455
O22 Ti6 1.959252 1_555
O22 Ti1 2.060946 1_565
O23 Ti5 1.897371 1_555
O23 Ti3 2.078590 1_655
