# generated using pymatgen
data_Sr4MgFe4O11
_symmetry_space_group_name_H-M   'P 1'
_cell_length_a   5.57739380
_cell_length_b   7.05776807
_cell_length_c   6.94044819
_cell_angle_alpha   106.19069972
_cell_angle_beta   89.86429599
_cell_angle_gamma   90.03838718
_symmetry_Int_Tables_number   1
_chemical_formula_structural   Sr4MgFe4O11
_chemical_formula_sum   'Sr4 Mg1 Fe4 O11'
_cell_volume   262.36719886
_cell_formula_units_Z   1
loop_
 _symmetry_equiv_pos_site_id
 _symmetry_equiv_pos_as_xyz
  1  'x, y, z'
loop_
 _atom_site_type_symbol
 _atom_site_label
 _atom_site_symmetry_multiplicity
 _atom_site_fract_x
 _atom_site_fract_y
 _atom_site_fract_z
 _atom_site_occupancy
  Sr  Sr0  1  0.00069500  0.67351500  0.19577800  1
  Sr  Sr1  1  0.99985000  0.32642800  0.80415700  1
  Sr  Sr2  1  0.50002500  0.99990700  0.00003100  1
  Sr  Sr3  1  0.50007100  0.49980000  0.49977900  1
  Mg  Mg0  1  0.99975100  0.99997400  0.50000600  1
  Fe  Fe0  1  0.49987100  0.99995900  0.50004100  1
  Fe  Fe1  1  0.50010400  0.49995400  0.99994800  1
  Fe  Fe2  1  0.99999900  0.26740200  0.26582700  1
  Fe  Fe3  1  0.99996500  0.73259000  0.73415000  1
  O  O0  1  0.23762800  0.91341000  0.66074200  1
  O  O1  1  0.23909000  0.08966600  0.34180000  1
  O  O2  1  0.75628700  0.65018700  0.89615000  1
  O  O3  1  0.75561700  0.35068500  0.10555800  1
  O  O4  1  0.76198400  0.08702800  0.33957300  1
  O  O5  1  0.76058900  0.91023100  0.65825600  1
  O  O6  1  0.24393700  0.34979800  0.10396400  1
  O  O7  1  0.24456700  0.64924200  0.89427400  1
  O  O8  1  0.00001600  0.50008500  0.49992400  1
  O  O9  1  0.49729400  0.71683200  0.26856300  1
  O  O10  1  0.50265200  0.28330300  0.73147300  1
loop_
_geom_bond_atom_site_label_1
_geom_bond_atom_site_label_2
_geom_bond_distance
_geom_bond_site_symmetry_2
Mg0 O4 1.940496 1_565
Mg0 O0 1.940666 1_655
Mg0 O5 1.940790 1_555
Mg0 O1 1.941093 1_665
Mg0 Sr1 2.655624 1_565
Mg0 Sr0 2.655940 1_655
Fe0 O5 2.029264 1_555
Fe0 O1 2.029561 1_565
Fe0 O0 2.031604 1_555
Fe0 O4 2.031729 1_565
Fe0 O9 2.187237 1_555
Fe0 O10 2.188179 1_565
Fe1 O2 2.025803 1_555
Fe1 O6 2.026159 1_556
Fe1 O3 2.028701 1_556
Fe1 O7 2.029104 1_555
Fe1 O10 2.054578 1_555
Fe1 O9 2.056053 1_556
Fe2 O6 1.951230 1_655
Fe2 O3 1.952813 1_555
Fe2 O8 1.961811 1_655
Fe2 O4 2.000686 1_555
Fe2 O1 2.001067 1_655
Fe3 O2 1.950869 1_555
Fe3 O7 1.953224 1_655
Fe3 O8 1.961583 1_655
Fe3 O0 2.000603 1_655
Fe3 O5 2.001418 1_555
O0 Sr2 2.696868 1_556
O0 Sr1 3.102823 1_465
O0 Sr3 3.176702 1_555
O1 Sr2 2.700507 1_545
O1 Sr0 3.124533 1_545
O1 Sr3 3.151477 1_555
O2 Sr0 2.456021 1_656
O2 Sr1 2.580848 1_555
O2 Sr2 2.768086 1_556
O2 Sr3 3.020739 1_555
O3 Sr1 2.459232 1_554
O3 Sr0 2.579946 1_655
O3 Sr2 2.772499 1_545
O3 Sr3 3.000470 1_555
O4 Sr2 2.696890 1_545
O4 Sr0 3.108171 1_645
O4 Sr3 3.169990 1_555
O5 Sr2 2.699436 1_556
O5 Sr1 3.126815 1_565
O5 Sr3 3.152329 1_555
O6 Sr1 2.456005 1_454
O6 Sr0 2.579665 1_555
O6 Sr2 2.768578 1_545
O6 Sr3 3.017118 1_555
O7 Sr0 2.458696 1_556
O7 Sr1 2.578790 1_455
O7 Sr2 2.771488 1_556
O7 Sr3 3.002129 1_555
O8 Sr0 2.719388 1_555
O8 Sr1 2.721004 1_455
O8 Sr3 2.788392 1_455
O8 Sr3 2.789003 1_555
O9 Sr3 2.508522 1_555
O9 Sr0 2.817697 1_555
O9 Sr0 2.853059 1_655
O9 Sr2 3.088942 1_555
O10 Sr3 2.508225 1_555
O10 Sr1 2.820798 1_555
O10 Sr1 2.849592 1_455
O10 Sr2 3.090928 1_546
