# generated using pymatgen
data_Sr2MgVO4
_symmetry_space_group_name_H-M   'P 1'
_cell_length_a   3.90285136
_cell_length_b   3.90285101
_cell_length_c   7.76346985
_cell_angle_alpha   91.70595956
_cell_angle_beta   91.70595501
_cell_angle_gamma   89.44934079
_symmetry_Int_Tables_number   1
_chemical_formula_structural   Sr2MgVO4
_chemical_formula_sum   'Sr2 Mg1 V1 O4'
_cell_volume   118.14578342
_cell_formula_units_Z   1
loop_
 _symmetry_equiv_pos_site_id
 _symmetry_equiv_pos_as_xyz
  1  'x, y, z'
loop_
 _atom_site_type_symbol
 _atom_site_label
 _atom_site_symmetry_multiplicity
 _atom_site_fract_x
 _atom_site_fract_y
 _atom_site_fract_z
 _atom_site_occupancy
  Sr  Sr0  1  0.85189591  0.85189691  0.35295606  1
  Sr  Sr1  1  0.35542714  0.35542514  0.68009145  1
  Mg  Mg0  1  0.34389199  0.34389199  0.10629468  1
  V  V0  1  0.83327913  0.83327913  0.93366458  1
  O  O0  1  0.89836721  0.89836921  0.66069296  1
  O  O1  1  0.36349226  0.36349226  0.36716164  1
  O  O2  1  0.34703374  0.83994663  0.02827231  1
  O  O3  1  0.83994763  0.34703274  0.02827231  1
loop_
_geom_bond_atom_site_label_1
_geom_bond_atom_site_label_2
_geom_bond_distance
_geom_bond_site_symmetry_2
Mg0 O1 2.023595 1_555
Mg0 O3 2.040705 1_455
Mg0 O2 2.040709 1_545
Mg0 O2 2.045966 1_555
Mg0 O3 2.045969 1_555
O0 V0 2.164590 1_555
O0 Sr0 2.392207 1_555
O0 Sr1 2.532972 1_665
O0 Sr1 2.761389 1_565
O0 Sr1 2.761411 1_655
O0 Sr1 3.021175 1_555
O1 Sr1 2.431706 1_555
O1 Sr0 2.715510 1_555
O1 Sr0 2.749294 1_545
O1 Sr0 2.749299 1_455
O1 Sr0 2.834793 1_445
O2 V0 2.054867 1_554
O2 V0 2.114895 1_454
O3 V0 2.054871 1_554
O3 V0 2.114891 1_544
