# generated using pymatgen
data_Bi2SO2
_symmetry_space_group_name_H-M   'P 1'
_cell_length_a   3.84260289
_cell_length_b   3.87729595
_cell_length_c   11.96368844
_cell_angle_alpha   90.00000000
_cell_angle_beta   90.00000000
_cell_angle_gamma   90.00000000
_symmetry_Int_Tables_number   1
_chemical_formula_structural   Bi2SO2
_chemical_formula_sum   'Bi4 S2 O4'
_cell_volume   178.24590086
_cell_formula_units_Z   2
loop_
 _symmetry_equiv_pos_site_id
 _symmetry_equiv_pos_as_xyz
  1  'x, y, z'
loop_
 _atom_site_type_symbol
 _atom_site_label
 _atom_site_symmetry_multiplicity
 _atom_site_fract_x
 _atom_site_fract_y
 _atom_site_fract_z
 _atom_site_occupancy
  Bi  Bi0  1  0.50000000  0.41933740  0.85612083  1
  Bi  Bi1  1  0.50000000  0.58066260  0.14387917  1
  Bi  Bi2  1  0.00000000  0.91933740  0.64387917  1
  Bi  Bi3  1  0.00000000  0.08066260  0.35612083  1
  S  S0  1  -0.00000000  -0.00000000  0.00000000  1
  S  S1  1  0.50000000  0.50000000  0.50000000  1
  O  O0  1  0.00000000  0.44099725  0.74910853  1
  O  O1  1  0.00000000  0.55900275  0.25089147  1
  O  O2  1  0.50000000  0.94099725  0.75089147  1
  O  O3  1  0.50000000  0.05900275  0.24910853  1
loop_
_geom_bond_atom_site_label_1
_geom_bond_atom_site_label_2
_geom_bond_distance
_geom_bond_site_symmetry_2
Bi0 O2 2.241583 1_545
Bi0 O0 2.310308 1_655
Bi0 O0 2.310308 1_555
Bi0 O2 2.382423 1_555
Bi0 S0 3.049245 1_556
Bi0 S0 3.049245 1_656
Bi1 O3 2.241583 1_565
Bi1 O1 2.310308 1_555
Bi1 O1 2.310308 1_655
Bi1 O3 2.382423 1_555
Bi1 S0 3.049245 1_565
Bi1 S0 3.049245 1_665
Bi2 O0 2.241583 1_555
Bi2 O2 2.310308 1_455
Bi2 O2 2.310308 1_555
Bi2 O0 2.382423 1_565
Bi2 S1 3.049245 1_555
Bi2 S1 3.049245 1_455
Bi3 O1 2.241583 1_555
Bi3 O3 2.310308 1_455
Bi3 O3 2.310308 1_555
Bi3 O1 2.382423 1_545
Bi3 S1 3.049245 1_555
Bi3 S1 3.049245 1_455
