# generated using pymatgen
data_MgTe4Mo(WS)2
_symmetry_space_group_name_H-M   'P 1'
_cell_length_a   6.81814800
_cell_length_b   6.81762039
_cell_length_c   63.52628200
_cell_angle_alpha   90.00076539
_cell_angle_beta   90.00005705
_cell_angle_gamma   120.00484804
_symmetry_Int_Tables_number   1
_chemical_formula_structural   MgTe4Mo(WS)2
_chemical_formula_sum   'Mg8 Te32 Mo8 W16 S16'
_cell_volume   2557.18466596
_cell_formula_units_Z   8
loop_
 _symmetry_equiv_pos_site_id
 _symmetry_equiv_pos_as_xyz
  1  'x, y, z'
loop_
 _atom_site_type_symbol
 _atom_site_label
 _atom_site_symmetry_multiplicity
 _atom_site_fract_x
 _atom_site_fract_y
 _atom_site_fract_z
 _atom_site_occupancy
  Mg  Mg0_0  1  0.34020400  0.18789200  0.42496450  1
  Mg  Mg0_1  1  0.34020400  0.18789200  0.92496450  1
  Mg  Mg0_2  1  0.34020400  0.68789200  0.42496450  1
  Mg  Mg0_3  1  0.34020400  0.68789200  0.92496450  1
  Mg  Mg0_4  1  0.84020400  0.18789200  0.42496450  1
  Mg  Mg0_5  1  0.84020400  0.18789200  0.92496450  1
  Mg  Mg0_6  1  0.84020400  0.68789200  0.42496450  1
  Mg  Mg0_7  1  0.84020400  0.68789200  0.92496450  1
  Te  Te0_0  1  0.33332250  0.16664350  0.02841500  1
  Te  Te0_1  1  0.33332250  0.16664350  0.52841500  1
  Te  Te0_2  1  0.33332250  0.66664350  0.02841500  1
  Te  Te0_3  1  0.33332250  0.66664350  0.52841500  1
  Te  Te0_4  1  0.83332250  0.16664350  0.02841500  1
  Te  Te0_5  1  0.83332250  0.16664350  0.52841500  1
  Te  Te0_6  1  0.83332250  0.66664350  0.02841500  1
  Te  Te0_7  1  0.83332250  0.66664350  0.52841500  1
  Te  Te1_0  1  0.33331850  0.16663600  0.25958400  1
  Te  Te1_1  1  0.33331850  0.16663600  0.75958400  1
  Te  Te1_2  1  0.33331850  0.66663600  0.25958400  1
  Te  Te1_3  1  0.33331850  0.66663600  0.75958400  1
  Te  Te1_4  1  0.83331850  0.16663600  0.25958400  1
  Te  Te1_5  1  0.83331850  0.16663600  0.75958400  1
  Te  Te1_6  1  0.83331850  0.66663600  0.25958400  1
  Te  Te1_7  1  0.83331850  0.66663600  0.75958400  1
  Te  Te2_0  1  0.33332450  0.16664850  0.08726850  1
  Te  Te2_1  1  0.33332450  0.16664850  0.58726850  1
  Te  Te2_2  1  0.33332450  0.66664850  0.08726850  1
  Te  Te2_3  1  0.33332450  0.66664850  0.58726850  1
  Te  Te2_4  1  0.83332450  0.16664850  0.08726850  1
  Te  Te2_5  1  0.83332450  0.16664850  0.58726850  1
  Te  Te2_6  1  0.83332450  0.66664850  0.08726850  1
  Te  Te2_7  1  0.83332450  0.66664850  0.58726850  1
  Te  Te3_0  1  0.33332350  0.16664650  0.31871800  1
  Te  Te3_1  1  0.33332350  0.16664650  0.81871800  1
  Te  Te3_2  1  0.33332350  0.66664650  0.31871800  1
  Te  Te3_3  1  0.33332350  0.66664650  0.81871800  1
  Te  Te3_4  1  0.83332350  0.16664650  0.31871800  1
  Te  Te3_5  1  0.83332350  0.16664650  0.81871800  1
  Te  Te3_6  1  0.83332350  0.66664650  0.31871800  1
  Te  Te3_7  1  0.83332350  0.66664650  0.81871800  1
  Mo  Mo0_0  1  0.16665600  0.33331050  0.05779400  1
  Mo  Mo0_1  1  0.16665600  0.33331050  0.55779400  1
  Mo  Mo0_2  1  0.16665600  0.83331050  0.05779400  1
  Mo  Mo0_3  1  0.16665600  0.83331050  0.55779400  1
  Mo  Mo0_4  1  0.66665600  0.33331050  0.05779400  1
  Mo  Mo0_5  1  0.66665600  0.33331050  0.55779400  1
  Mo  Mo0_6  1  0.66665600  0.83331050  0.05779400  1
  Mo  Mo0_7  1  0.66665600  0.83331050  0.55779400  1
  W  W0_0  1  0.16665500  0.33330900  0.28918300  1
  W  W0_1  1  0.16665500  0.33330900  0.78918300  1
  W  W0_2  1  0.16665500  0.83330900  0.28918300  1
  W  W0_3  1  0.16665500  0.83330900  0.78918300  1
  W  W0_4  1  0.66665500  0.33330900  0.28918300  1
  W  W0_5  1  0.66665500  0.33330900  0.78918300  1
  W  W0_6  1  0.66665500  0.83330900  0.28918300  1
  W  W0_7  1  0.66665500  0.83330900  0.78918300  1
  W  W1_0  1  0.33334450  0.16665050  0.17348400  1
  W  W1_1  1  0.33334450  0.16665050  0.67348400  1
  W  W1_2  1  0.33334450  0.66665050  0.17348400  1
  W  W1_3  1  0.33334450  0.66665050  0.67348400  1
  W  W1_4  1  0.83334450  0.16665050  0.17348400  1
  W  W1_5  1  0.83334450  0.16665050  0.67348400  1
  W  W1_6  1  0.83334450  0.66665050  0.17348400  1
  W  W1_7  1  0.83334450  0.66665050  0.67348400  1
  S  S0_0  1  0.16667700  0.33337900  0.19711400  1
  S  S0_1  1  0.16667700  0.33337900  0.69711400  1
  S  S0_2  1  0.16667700  0.83337900  0.19711400  1
  S  S0_3  1  0.16667700  0.83337900  0.69711400  1
  S  S0_4  1  0.66667700  0.33337900  0.19711400  1
  S  S0_5  1  0.66667700  0.33337900  0.69711400  1
  S  S0_6  1  0.66667700  0.83337900  0.19711400  1
  S  S0_7  1  0.66667700  0.83337900  0.69711400  1
  S  S1_0  1  0.16667600  0.33337650  0.14986100  1
  S  S1_1  1  0.16667600  0.33337650  0.64986100  1
  S  S1_2  1  0.16667600  0.83337650  0.14986100  1
  S  S1_3  1  0.16667600  0.83337650  0.64986100  1
  S  S1_4  1  0.66667600  0.33337650  0.14986100  1
  S  S1_5  1  0.66667600  0.33337650  0.64986100  1
  S  S1_6  1  0.66667600  0.83337650  0.14986100  1
  S  S1_7  1  0.66667600  0.83337650  0.64986100  1
loop_
_geom_bond_atom_site_label_1
_geom_bond_atom_site_label_2
_geom_bond_distance
_geom_bond_site_symmetry_2
Mg0_0 Mg0_6 3.408692 1_555
Mg0_0 Mg0_6 3.408692 1_445
Mg0_0 Mg0_2 3.408810 1_555
Mg0_0 Mg0_2 3.408810 1_545
Mg0_0 Mg0_4 3.409074 1_455
Mg0_0 Mg0_4 3.409074 1_555
Mg0_1 Mg0_7 3.408692 1_555
Mg0_1 Mg0_7 3.408692 1_445
Mg0_1 Mg0_3 3.408810 1_545
Mg0_1 Mg0_3 3.408810 1_555
Mg0_1 Mg0_5 3.409074 1_455
Mg0_1 Mg0_5 3.409074 1_555
Mg0_2 Mg0_4 3.408692 1_565
Mg0_2 Mg0_4 3.408692 1_455
Mg0_2 Mg0_6 3.409074 1_555
Mg0_2 Mg0_6 3.409074 1_455
Mg0_3 Mg0_5 3.408692 1_565
Mg0_3 Mg0_5 3.408692 1_455
Mg0_3 Mg0_7 3.409074 1_455
Mg0_3 Mg0_7 3.409074 1_555
Mg0_4 Mg0_6 3.408810 1_545
Mg0_4 Mg0_6 3.408810 1_555
Mg0_5 Mg0_7 3.408810 1_545
Mg0_5 Mg0_7 3.408810 1_555
Te1_0 W0_2 2.721857 1_545
Te1_0 W0_4 2.721974 1_555
Te1_0 W0_0 2.722025 1_555
Te1_1 W0_3 2.721857 1_545
Te1_1 W0_5 2.721974 1_555
Te1_1 W0_1 2.722025 1_555
Te1_2 W0_0 2.721857 1_555
Te1_2 W0_6 2.721974 1_555
Te1_2 W0_2 2.722025 1_555
Te1_3 W0_1 2.721857 1_555
Te1_3 W0_7 2.721974 1_555
Te1_3 W0_3 2.722025 1_555
Te1_4 W0_6 2.721857 1_545
Te1_4 W0_0 2.721974 1_655
Te1_4 W0_4 2.722025 1_555
Te1_5 W0_7 2.721857 1_545
Te1_5 W0_1 2.721974 1_655
Te1_5 W0_5 2.722025 1_555
Te1_6 W0_4 2.721857 1_555
Te1_6 W0_2 2.721974 1_655
Te1_6 W0_6 2.722025 1_555
Te1_7 W0_5 2.721857 1_555
Te1_7 W0_3 2.721974 1_655
Te1_7 W0_7 2.722025 1_555
Te3_0 W0_2 2.719051 1_545
Te3_0 W0_4 2.719169 1_555
Te3_0 W0_0 2.719214 1_555
Te3_1 W0_3 2.719051 1_545
Te3_1 W0_5 2.719169 1_555
Te3_1 W0_1 2.719214 1_555
Te3_2 W0_0 2.719051 1_555
Te3_2 W0_6 2.719169 1_555
Te3_2 W0_2 2.719214 1_555
Te3_3 W0_1 2.719051 1_555
Te3_3 W0_7 2.719169 1_555
Te3_3 W0_3 2.719214 1_555
Te3_4 W0_6 2.719051 1_545
Te3_4 W0_0 2.719169 1_655
Te3_4 W0_4 2.719214 1_555
Te3_5 W0_7 2.719051 1_545
Te3_5 W0_1 2.719169 1_655
Te3_5 W0_5 2.719214 1_555
Te3_6 W0_4 2.719051 1_555
Te3_6 W0_2 2.719169 1_655
Te3_6 W0_6 2.719214 1_555
Te3_7 W0_5 2.719051 1_555
Te3_7 W0_3 2.719169 1_655
Te3_7 W0_7 2.719214 1_555
Mo0_0 Te0_2 2.712246 1_555
Mo0_0 Te0_4 2.712325 1_455
Mo0_0 Te0_0 2.712377 1_555
Mo0_0 Te2_2 2.716403 1_555
Mo0_0 Te2_4 2.716519 1_455
Mo0_0 Te2_0 2.716562 1_555
Mo0_1 Te0_3 2.712246 1_555
Mo0_1 Te0_5 2.712325 1_455
Mo0_1 Te0_1 2.712377 1_555
Mo0_1 Te2_3 2.716403 1_555
Mo0_1 Te2_5 2.716519 1_455
Mo0_1 Te2_1 2.716562 1_555
Mo0_2 Te0_0 2.712246 1_565
Mo0_2 Te0_6 2.712325 1_455
Mo0_2 Te0_2 2.712377 1_555
Mo0_2 Te2_0 2.716403 1_565
Mo0_2 Te2_6 2.716519 1_455
Mo0_2 Te2_2 2.716562 1_555
Mo0_3 Te0_1 2.712246 1_565
Mo0_3 Te0_7 2.712325 1_455
Mo0_3 Te0_3 2.712377 1_555
Mo0_3 Te2_1 2.716403 1_565
Mo0_3 Te2_7 2.716519 1_455
Mo0_3 Te2_3 2.716562 1_555
Mo0_4 Te0_6 2.712246 1_555
Mo0_4 Te0_0 2.712325 1_555
Mo0_4 Te0_4 2.712377 1_555
Mo0_4 Te2_6 2.716403 1_555
Mo0_4 Te2_0 2.716519 1_555
Mo0_4 Te2_4 2.716562 1_555
Mo0_5 Te0_7 2.712246 1_555
Mo0_5 Te0_1 2.712325 1_555
Mo0_5 Te0_5 2.712377 1_555
Mo0_5 Te2_7 2.716403 1_555
Mo0_5 Te2_1 2.716519 1_555
Mo0_5 Te2_5 2.716562 1_555
Mo0_6 Te0_4 2.712246 1_565
Mo0_6 Te0_2 2.712325 1_555
Mo0_6 Te0_6 2.712377 1_555
Mo0_6 Te2_4 2.716403 1_565
Mo0_6 Te2_2 2.716519 1_555
Mo0_6 Te2_6 2.716562 1_555
Mo0_7 Te0_5 2.712246 1_565
Mo0_7 Te0_3 2.712325 1_555
Mo0_7 Te0_7 2.712377 1_555
Mo0_7 Te2_5 2.716403 1_565
Mo0_7 Te2_3 2.716519 1_555
Mo0_7 Te2_7 2.716562 1_555
S0_0 W1_2 2.474871 1_555
S0_0 W1_4 2.475249 1_455
S0_0 W1_0 2.475603 1_555
S0_1 W1_3 2.474871 1_555
S0_1 W1_5 2.475249 1_455
S0_1 W1_1 2.475603 1_555
S0_2 W1_0 2.474871 1_565
S0_2 W1_6 2.475249 1_455
S0_2 W1_2 2.475603 1_555
S0_3 W1_1 2.474871 1_565
S0_3 W1_7 2.475249 1_455
S0_3 W1_3 2.475603 1_555
S0_4 W1_6 2.474871 1_555
S0_4 W1_0 2.475249 1_555
S0_4 W1_4 2.475603 1_555
S0_5 W1_7 2.474871 1_555
S0_5 W1_1 2.475249 1_555
S0_5 W1_5 2.475603 1_555
S0_6 W1_4 2.474871 1_565
S0_6 W1_2 2.475249 1_555
S0_6 W1_6 2.475603 1_555
S0_7 W1_5 2.474871 1_565
S0_7 W1_3 2.475249 1_555
S0_7 W1_7 2.475603 1_555
S1_0 W1_2 2.474575 1_555
S1_0 W1_4 2.474996 1_455
S1_0 W1_0 2.475344 1_555
S1_1 W1_3 2.474575 1_555
S1_1 W1_5 2.474996 1_455
S1_1 W1_1 2.475344 1_555
S1_2 W1_0 2.474575 1_565
S1_2 W1_6 2.474996 1_455
S1_2 W1_2 2.475344 1_555
S1_3 W1_1 2.474575 1_565
S1_3 W1_7 2.474996 1_455
S1_3 W1_3 2.475344 1_555
S1_4 W1_6 2.474575 1_555
S1_4 W1_0 2.474996 1_555
S1_4 W1_4 2.475344 1_555
S1_5 W1_7 2.474575 1_555
S1_5 W1_1 2.474996 1_555
S1_5 W1_5 2.475344 1_555
S1_6 W1_4 2.474575 1_565
S1_6 W1_2 2.474996 1_555
S1_6 W1_6 2.475344 1_555
S1_7 W1_5 2.474575 1_565
S1_7 W1_3 2.474996 1_555
S1_7 W1_7 2.475344 1_555
