# generated using pymatgen
data_Na3Y2Ga2P3(SO8)3
_symmetry_space_group_name_H-M   'P 1'
_cell_length_a   8.88392386
_cell_length_b   8.86740737
_cell_length_c   23.09165458
_cell_angle_alpha   88.72448940
_cell_angle_beta   91.29817383
_cell_angle_gamma   119.93990081
_symmetry_Int_Tables_number   1
_chemical_formula_structural   Na3Y2Ga2P3(SO8)3
_chemical_formula_sum   'Na9 Y6 Ga6 P9 S9 O72'
_cell_volume   1575.80932456
_cell_formula_units_Z   3
loop_
 _symmetry_equiv_pos_site_id
 _symmetry_equiv_pos_as_xyz
  1  'x, y, z'
loop_
 _atom_site_type_symbol
 _atom_site_label
 _atom_site_symmetry_multiplicity
 _atom_site_fract_x
 _atom_site_fract_y
 _atom_site_fract_z
 _atom_site_occupancy
  Na  Na0  1  0.36703655  0.36659196  0.25183693  1
  Na  Na1  1  0.68659952  0.01753330  0.91968203  1
  Na  Na2  1  0.97451320  0.30552824  0.41549514  1
  Na  Na3  1  0.00732176  0.99430099  0.49421758  1
  Na  Na4  1  0.00686304  0.98823322  0.00607800  1
  Na  Na5  1  0.65726791  0.33712410  0.83753853  1
  Na  Na6  1  0.66619007  0.33369391  0.33294925  1
  Na  Na7  1  0.33461210  0.69155196  0.17197822  1
  Na  Na8  1  0.33289879  0.66806054  0.66697426  1
  Y  Y0  1  0.00206245  0.99393269  0.85397764  1
  Y  Y1  1  0.99201101  0.00888561  0.64376137  1
  Y  Y2  1  0.67212637  0.32654227  0.68459611  1
  Y  Y3  1  0.33763040  0.67028904  0.02543665  1
  Y  Y4  1  0.32397082  0.66377127  0.51179182  1
  Y  Y5  1  0.34681378  0.67595306  0.82077057  1
  Ga  Ga0  1  0.01967238  0.00594104  0.34465688  1
  Ga  Ga1  1  0.99731332  0.00746551  0.15404738  1
  Ga  Ga2  1  0.66979211  0.31076552  0.18672011  1
  Ga  Ga3  1  0.66114023  0.32804969  0.98936784  1
  Ga  Ga4  1  0.66826575  0.34809568  0.47713570  1
  Ga  Ga5  1  0.30662939  0.65929504  0.31672897  1
  P  P0  1  0.28947770  0.99677175  0.24795687  1
  P  P1  1  0.99941893  0.28965176  0.25154103  1
  P  P2  1  0.69482726  0.99473925  0.75239958  1
  P  P3  1  0.95213470  0.33411563  0.57441356  1
  P  P4  1  0.68602738  0.05429467  0.08740065  1
  P  P5  1  0.63328570  0.65006744  0.92357793  1
  P  P6  1  0.34801108  0.98272571  0.92269061  1
  P  P7  1  0.33510274  0.36716710  0.41043121  1
  P  P8  1  0.02656795  0.67110499  0.41104248  1
  S  S0  1  0.71100880  0.71217160  0.24913580  1
  S  S1  1  0.30098039  0.30424016  0.74940906  1
  S  S2  1  0.00259608  0.70052429  0.74917808  1
  S  S3  1  0.37658202  0.04578395  0.57691801  1
  S  S4  1  0.66824327  0.62475261  0.57798784  1
  S  S5  1  0.93981198  0.61905729  0.08896077  1
  S  S6  1  0.37605481  0.31671021  0.08969676  1
  S  S7  1  0.02462359  0.36973176  0.92044531  1
  S  S8  1  0.63199670  0.96394825  0.41125413  1
  O  O0  1  0.21755299  0.04463403  0.30103993  1
  O  O1  1  0.82039583  0.79400001  0.30111611  1
  O  O2  1  0.96984486  0.17719911  0.30736446  1
  O  O3  1  0.21632762  0.20071547  0.80174046  1
  O  O4  1  0.99634358  0.78948250  0.80151962  1
  O  O5  1  0.78803217  0.00092608  0.81018401  1
  O  O6  1  0.79670171  0.99106529  0.69974850  1
  O  O7  1  0.20311013  0.21530962  0.69633237  1
  O  O8  1  0.01615158  0.80175150  0.69609113  1
  O  O9  1  0.78889045  0.81791286  0.19559240  1
  O  O10  1  0.04153734  0.20953476  0.19949503  1
  O  O11  1  0.17010128  0.96345276  0.19403218  1
  O  O12  1  0.86700185  0.34368980  0.62997733  1
  O  O13  1  0.46597312  0.12273628  0.63216693  1
  O  O14  1  0.65164016  0.53044598  0.63271926  1
  O  O15  1  0.85487253  0.51271131  0.14133632  1
  O  O16  1  0.65526836  0.14028113  0.13920243  1
  O  O17  1  0.48492072  0.34417157  0.14282275  1
  O  O18  1  0.45710699  0.29948558  0.03646533  1
  O  O19  1  0.83944252  0.53881068  0.03458263  1
  O  O20  1  0.70725161  0.15828029  0.02945370  1
  O  O21  1  0.46842152  0.15471215  0.52576592  1
  O  O22  1  0.67610889  0.53207814  0.52653796  1
  O  O23  1  0.84591714  0.32506299  0.51832195  1
  O  O24  1  0.53924008  0.68318713  0.97235994  1
  O  O25  1  0.13429004  0.45211059  0.97138887  1
  O  O26  1  0.31707279  0.86144001  0.97447607  1
  O  O27  1  0.56174999  0.86529350  0.46565819  1
  O  O28  1  0.29282158  0.44370861  0.46258365  1
  O  O29  1  0.13561829  0.71054680  0.46658273  1
  O  O30  1  0.11304013  0.62373516  0.36141239  1
  O  O31  1  0.51525168  0.87520542  0.36098392  1
  O  O32  1  0.36638397  0.48638844  0.35552573  1
  O  O33  1  0.10319944  0.46847764  0.86655760  1
  O  O34  1  0.37710026  0.90252027  0.86774140  1
  O  O35  1  0.53005680  0.62033768  0.86613330  1
  O  O36  1  0.00331668  0.82964745  0.39837143  1
  O  O37  1  0.80993101  0.98809243  0.40531773  1
  O  O38  1  0.16900289  0.18419163  0.40281650  1
  O  O39  1  0.99936665  0.19038705  0.91716891  1
  O  O40  1  0.19468682  0.01449686  0.91741650  1
  O  O41  1  0.81221874  0.81983974  0.91893983  1
  O  O42  1  0.96801061  0.16810849  0.57470479  1
  O  O43  1  0.20000013  0.02442672  0.57770539  1
  O  O44  1  0.83054178  0.79593576  0.57862267  1
  O  O45  1  0.95888183  0.79539704  0.09215774  1
  O  O46  1  0.85503173  0.04133225  0.09481856  1
  O  O47  1  0.20192918  0.15658785  0.09384069  1
  O  O48  1  0.67546772  0.15771410  0.75166632  1
  O  O49  1  0.47762400  0.32823302  0.74827687  1
  O  O50  1  0.84129005  0.52970440  0.74906770  1
  O  O51  1  0.68716297  0.53192939  0.24485192  1
  O  O52  1  0.83778711  0.31265287  0.24344102  1
  O  O53  1  0.47386270  0.16456323  0.23999563  1
  O  O54  1  0.65601175  0.49081967  0.93413906  1
  O  O55  1  0.85053665  0.35253662  0.92531081  1
  O  O56  1  0.52086020  0.15805980  0.93017097  1
  O  O57  1  0.65240023  0.14274426  0.41560580  1
  O  O58  1  0.49831692  0.34777804  0.42121752  1
  O  O59  1  0.84676082  0.50004033  0.41869319  1
  O  O60  1  0.35320155  0.47113317  0.08560479  1
  O  O61  1  0.11488140  0.63514379  0.08595904  1
  O  O62  1  0.52569421  0.87011285  0.08416682  1
  O  O63  1  0.36420181  0.87331895  0.57510717  1
  O  O64  1  0.51669158  0.65058894  0.57456612  1
  O  O65  1  0.13519192  0.49520726  0.57476497  1
  O  O66  1  0.30967415  0.83327648  0.25868556  1
  O  O67  1  0.53301941  0.69009902  0.25387207  1
  O  O68  1  0.16831840  0.47339566  0.25878962  1
  O  O69  1  0.30903009  0.47420780  0.75085427  1
  O  O70  1  0.15469823  0.67587798  0.75184556  1
  O  O71  1  0.51414209  0.83048890  0.74960726  1
loop_
_geom_bond_atom_site_label_1
_geom_bond_atom_site_label_2
_geom_bond_distance
_geom_bond_site_symmetry_2
Na0 O68 2.393299 1_555
Na0 O53 2.432170 1_555
Na0 O51 2.472238 1_555
Na0 O67 2.487232 1_555
Na0 O32 2.642231 1_555
Na0 O0 2.710096 1_555
Na0 O10 2.767503 1_555
Na0 O17 2.796920 1_555
Na1 O56 2.374973 1_555
Na1 O39 2.413607 1_555
Na1 O41 2.504767 1_545
Na1 O55 2.579264 1_555
Na1 O34 2.672963 1_545
Na1 O5 2.734821 1_555
Na1 O20 2.812078 1_556
Na1 O24 2.832103 1_545
Na2 O37 2.453986 1_545
Na2 O38 2.474142 1_655
Na2 O57 2.479823 1_555
Na2 O59 2.496402 1_555
Na2 O28 2.672387 1_655
Na2 O23 2.704053 1_555
Na2 O30 2.735425 1_655
Na2 O2 2.757885 1_555
Na3 O43 2.476907 1_565
Na3 O44 2.566692 1_455
Na3 O42 2.577959 1_465
Na3 O38 2.630214 1_565
Na3 O37 2.652900 1_455
Na3 O36 2.668316 1_555
Na4 O45 2.493232 1_455
Na4 O41 2.582125 1_454
Na4 O47 2.594614 1_565
Na4 O40 2.603032 1_564
Na4 O46 2.653743 1_465
Na4 O39 2.716974 1_464
Na5 O49 2.556243 1_555
Na5 O56 2.571146 1_555
Na5 O55 2.587485 1_555
Na5 O48 2.626948 1_555
Na5 O50 2.640414 1_555
Na5 O54 2.642933 1_555
Na6 O57 2.486912 1_555
Na6 O59 2.508708 1_555
Na6 O58 2.594086 1_555
Na6 O51 2.606563 1_555
Na6 O52 2.659826 1_555
Na6 O53 2.682385 1_555
Na7 O66 2.459138 1_555
Na7 O67 2.560024 1_555
Na7 O62 2.613509 1_555
Na7 O61 2.626816 1_555
Na7 O68 2.655579 1_555
Na7 O60 2.887256 1_555
Na8 O71 2.444648 1_555
Na8 O69 2.501611 1_555
Na8 O70 2.570630 1_555
Na8 O63 2.690708 1_555
Na8 O65 2.693823 1_555
Na8 O64 2.769203 1_555
Ga0 O0 1.919722 1_555
Ga0 O36 1.923151 1_545
Ga0 O2 1.959396 1_455
Ga0 O38 1.995661 1_555
Ga0 O1 2.087927 1_445
Ga0 O37 2.296341 1_445
Ga1 O10 1.956711 1_655
Ga1 O46 1.959796 1_555
Ga1 O11 1.969493 1_645
Ga1 O9 2.018941 1_545
Ga1 O47 2.149207 1_655
Ga1 O45 2.269785 1_545
Ga2 O16 1.838141 1_555
Ga2 O52 1.957216 1_555
Ga2 O53 1.999367 1_555
Ga2 O15 2.015940 1_555
Ga2 O17 2.051710 1_555
Ga2 O51 2.340421 1_555
Ga3 O54 1.921676 1_555
Ga3 O20 1.956339 1_556
Ga3 O56 1.957869 1_555
Ga3 O19 2.036902 1_556
Ga3 O18 2.037472 1_556
Ga3 O55 2.190891 1_555
Ga4 O23 1.918898 1_555
Ga4 O58 1.963271 1_555
Ga4 O22 1.983341 1_555
Ga4 O59 2.008611 1_555
Ga4 O21 2.078294 1_555
Ga4 O57 2.281302 1_555
Ga5 O30 1.909580 1_555
Ga5 O68 2.004761 1_555
Ga5 O66 2.011277 1_555
Ga5 O32 2.040823 1_555
Ga5 O31 2.145745 1_555
Ga5 O67 2.406799 1_555
O0 P0 1.555727 1_545
O1 S0 1.481111 1_555
O2 P1 1.556160 1_555
O3 S1 1.473512 1_555
O3 Y0 2.227590 1_545
O4 S2 1.474925 1_655
O4 Y0 2.181682 1_655
O5 P2 1.541735 1_545
O5 Y0 2.160953 1_645
O6 P2 1.542528 1_555
O6 Y1 2.127410 1_565
O7 S1 1.479983 1_555
O7 Y1 2.215966 1_455
O8 S2 1.474034 1_555
O8 Y1 2.272101 1_465
O9 S0 1.492038 1_555
O10 P1 1.553332 1_455
O11 P0 1.551239 1_555
O12 P3 1.529173 1_555
O12 Y2 2.106830 1_555
O13 S3 1.475081 1_555
O13 Y2 2.186123 1_555
O14 S4 1.468550 1_555
O14 Y2 2.226998 1_555
O15 S5 1.483814 1_555
O16 P4 1.533070 1_555
O17 S6 1.491342 1_555
O18 S6 1.486943 1_555
O19 S5 1.494613 1_555
O20 P4 1.568194 1_555
O21 S3 1.483271 1_555
O22 S4 1.481975 1_555
O23 P3 1.564667 1_555
O24 P5 1.534766 1_555
O24 Y3 2.147552 1_556
O25 S7 1.463758 1_555
O25 Y3 2.254038 1_556
O26 P6 1.524716 1_555
O26 Y3 2.121712 1_556
O27 S8 1.474666 1_555
O27 Y4 2.244925 1_555
O28 P7 1.537346 1_555
O28 Y4 2.172810 1_555
O29 P8 1.526823 1_555
O29 Y4 2.157824 1_555
O30 P8 1.569529 1_555
O31 S8 1.487912 1_555
O32 P7 1.570148 1_555
O33 S7 1.477548 1_555
O33 Y5 2.286747 1_555
O34 P6 1.555999 1_555
O34 Y5 2.197583 1_555
O35 P5 1.545714 1_555
O35 Y5 2.166031 1_555
O36 P8 1.540631 1_555
O37 S8 1.494693 1_555
O38 P7 1.565890 1_555
O39 S7 1.494522 1_655
O39 Y0 2.306711 1_645
O40 P6 1.524330 1_545
O40 Y0 2.166666 1_545
O41 P5 1.554520 1_555
O41 Y0 2.211457 1_655
O42 P3 1.547138 1_555
O42 Y1 2.183256 1_555
O43 S3 1.483822 1_555
O43 Y1 2.371507 1_455
O44 S4 1.482792 1_555
O44 Y1 2.282722 1_565
O45 S5 1.489758 1_555
O46 P4 1.567340 1_555
O47 S6 1.492103 1_555
O48 P2 1.537936 1_545
O48 Y2 2.140049 1_555
O49 S1 1.475452 1_555
O49 Y2 2.300074 1_555
O50 S2 1.476918 1_655
O50 Y2 2.244091 1_555
O51 S0 1.509067 1_555
O52 P1 1.554650 1_555
O53 P0 1.580975 1_545
O54 P5 1.536660 1_555
O55 S7 1.483068 1_655
O56 P6 1.556257 1_545
O57 S8 1.508653 1_545
O58 P7 1.557119 1_555
O59 P8 1.570362 1_655
O60 S6 1.481922 1_555
O60 Y3 2.279072 1_555
O61 S5 1.492351 1_455
O61 Y3 2.335941 1_555
O62 P4 1.542840 1_565
O62 Y3 2.195353 1_555
O63 S3 1.478986 1_565
O63 Y4 2.269892 1_555
O64 S4 1.474355 1_555
O64 Y4 2.264070 1_555
O65 P3 1.538309 1_455
O65 Y4 2.161693 1_555
O66 P0 1.561114 1_555
O67 S0 1.499519 1_555
O68 P1 1.579436 1_455
O69 S1 1.473886 1_555
O69 Y5 2.328996 1_555
O70 S2 1.472373 1_555
O70 Y5 2.306937 1_555
O71 P2 1.538811 1_555
O71 Y5 2.182898 1_555
