# generated using pymatgen
data_MgFe6O11F
_symmetry_space_group_name_H-M   'P 1'
_cell_length_a   8.10578058
_cell_length_b   5.66452923
_cell_length_c   5.88372833
_cell_angle_alpha   67.39854001
_cell_angle_beta   62.73725150
_cell_angle_gamma   65.52446599
_symmetry_Int_Tables_number   1
_chemical_formula_structural   MgFe6O11F
_chemical_formula_sum   'Mg1 Fe6 O11 F1'
_cell_volume   212.15151658
_cell_formula_units_Z   1
loop_
 _symmetry_equiv_pos_site_id
 _symmetry_equiv_pos_as_xyz
  1  'x, y, z'
loop_
 _atom_site_type_symbol
 _atom_site_label
 _atom_site_symmetry_multiplicity
 _atom_site_fract_x
 _atom_site_fract_y
 _atom_site_fract_z
 _atom_site_occupancy
  Mg  Mg0  1  0.32396142  0.66583478  0.18670911  1
  Fe  Fe0  1  0.79187610  0.66294578  0.64632602  1
  Fe  Fe1  1  0.66884234  0.33530747  0.34731864  1
  Fe  Fe2  1  0.34012551  0.65997403  0.66730904  1
  Fe  Fe3  1  0.11130588  0.29933448  0.30594023  1
  Fe  Fe4  1  0.54747899  0.03912273  0.02855625  1
  Fe  Fe5  1  0.98213641  0.01159391  0.99159957  1
  O  O0  1  0.68768035  0.03961285  0.65316941  1
  O  O1  1  0.35004984  0.39476517  0.00943482  1
  O  O2  1  0.94724609  0.25038714  0.19105690  1
  O  O3  1  0.62123530  0.58647196  0.54046937  1
  O  O4  1  0.07031767  0.75886267  0.79605379  1
  O  O5  1  0.39693358  0.40569729  0.48635025  1
  O  O6  1  0.70136040  0.09668061  0.15607235  1
  O  O7  1  0.31567149  0.95195353  0.33382920  1
  O  O8  1  0.63465763  0.64331833  0.03260660  1
  O  O9  1  0.96863864  0.30242789  0.67969694  1
  O  O10  1  0.01921454  0.69657783  0.30458337  1
  F  F0  1  0.28978582  0.93722457  0.86910614  1
loop_
_geom_bond_atom_site_label_1
_geom_bond_atom_site_label_2
_geom_bond_distance
_geom_bond_site_symmetry_2
Mg0 O5 1.966149 1_555
Mg0 O1 2.061610 1_555
Mg0 O7 2.077348 1_555
Mg0 O10 2.186350 1_555
Mg0 O8 2.216221 1_555
Fe0 O9 1.945999 1_555
Fe0 O0 1.951682 1_565
Fe0 O3 1.995460 1_555
Fe0 O8 2.017814 1_556
Fe0 O10 2.019144 1_655
Fe1 O5 1.885912 1_555
Fe1 O2 1.925861 1_555
Fe1 O6 1.940337 1_555
Fe1 O0 1.946843 1_555
Fe1 O3 1.962310 1_555
Fe1 O8 2.033676 1_555
Fe2 O4 1.861150 1_555
Fe2 O5 1.897447 1_555
Fe2 O3 1.953764 1_555
Fe2 O1 2.009777 1_556
Fe2 O7 2.053026 1_555
Fe3 O2 1.890850 1_455
Fe3 O9 1.963823 1_455
Fe3 O7 1.985688 1_545
Fe3 O1 2.032166 1_555
Fe3 O10 2.054385 1_555
Fe4 O6 1.899313 1_555
Fe4 O0 1.966749 1_554
Fe4 O1 1.987824 1_555
Fe4 O7 1.998920 1_545
Fe4 O8 2.046521 1_545
Fe5 O4 1.883840 1_645
Fe5 O6 1.944316 1_556
Fe5 O9 1.950531 1_555
Fe5 O2 1.971286 1_556
Fe5 O10 2.050010 1_646
F0 Mg0 1.960947 1_556
F0 Fe2 2.121578 1_555
F0 Fe5 2.152198 1_465
