# generated using pymatgen
data_MgFe8(OF)8
_symmetry_space_group_name_H-M   'P 1'
_cell_length_a   9.89355483
_cell_length_b   9.89772241
_cell_length_c   3.14732200
_cell_angle_alpha   90.00000000
_cell_angle_beta   90.00000000
_cell_angle_gamma   88.47254761
_symmetry_Int_Tables_number   1
_chemical_formula_structural   MgFe8(OF)8
_chemical_formula_sum   'Mg1 Fe8 O8 F8'
_cell_volume   308.08777496
_cell_formula_units_Z   1
loop_
 _symmetry_equiv_pos_site_id
 _symmetry_equiv_pos_as_xyz
  1  'x, y, z'
loop_
 _atom_site_type_symbol
 _atom_site_label
 _atom_site_symmetry_multiplicity
 _atom_site_fract_x
 _atom_site_fract_y
 _atom_site_fract_z
 _atom_site_occupancy
  Mg  Mg0  1  0.74859100  0.01473200  0.50000000  1
  Fe  Fe0  1  0.06299700  0.00438500  0.00000000  1
  Fe  Fe1  1  0.01831700  0.49553200  0.00000000  1
  Fe  Fe2  1  0.23267800  0.26129000  0.50000000  1
  Fe  Fe3  1  0.21883800  0.72833500  0.50000000  1
  Fe  Fe4  1  0.50121500  0.49921100  0.00000000  1
  Fe  Fe5  1  0.46718200  0.98980400  0.00000000  1
  Fe  Fe6  1  0.78059000  0.39509200  0.50000000  1
  Fe  Fe7  1  0.73052500  0.69964500  0.50000000  1
  O  O0  1  0.11101100  0.41164500  0.50000000  1
  O  O1  1  0.11217500  0.90201400  0.50000000  1
  O  O2  1  0.16683800  0.15820300  0.00000000  1
  O  O3  1  0.13305700  0.65425500  0.00000000  1
  O  O4  1  0.59709900  0.40827700  0.50000000  1
  O  O5  1  0.63575600  0.66061100  0.00000000  1
  O  O6  1  0.87544600  0.34776400  0.00000000  1
  O  O7  1  0.88092200  0.57630900  0.50000000  1
  F  F0  1  0.34713300  0.34028000  0.00000000  1
  F  F1  1  0.33497100  0.83167600  0.00000000  1
  F  F2  1  0.39498800  0.10325800  0.50000000  1
  F  F3  1  0.37949200  0.60262500  0.50000000  1
  F  F4  1  0.58706500  0.89604000  0.50000000  1
  F  F5  1  0.66231500  0.09971500  0.00000000  1
  F  F6  1  0.81528700  0.87822900  0.00000000  1
  F  F7  1  0.92773600  0.08273800  0.50000000  1
loop_
_geom_bond_atom_site_label_1
_geom_bond_atom_site_label_2
_geom_bond_distance
_geom_bond_site_symmetry_2
Fe0 O2 1.859219 1_555
Fe0 O1 1.927046 1_545
Fe0 O1 1.927046 1_544
Fe1 O3 1.962588 1_555
Fe1 O0 1.991537 1_555
Fe1 O0 1.991537 1_554
Fe1 O6 2.060899 1_455
Fe1 O7 2.214825 1_455
Fe1 O7 2.214825 1_454
Fe2 O0 1.888940 1_555
Fe2 O2 1.994297 1_556
Fe2 O2 1.994297 1_555
Fe3 O3 1.940994 1_555
Fe3 O3 1.940994 1_556
Fe3 O1 1.992975 1_555
Fe4 O4 2.034912 1_554
Fe4 O4 2.034912 1_555
Fe4 O5 2.106452 1_555
Fe6 O4 1.816590 1_555
Fe6 O6 1.884972 1_555
Fe6 O6 1.884972 1_556
Fe6 O7 2.073013 1_555
Fe7 O5 1.877254 1_556
Fe7 O5 1.877254 1_555
Fe7 O7 1.899318 1_555
F0 Fe2 2.101691 1_555
F0 Fe2 2.101691 1_554
F0 Fe4 2.219503 1_555
F1 Fe5 2.066316 1_555
F1 Fe3 2.214812 1_554
F1 Fe3 2.214812 1_555
F2 Fe5 2.050560 1_546
F2 Fe5 2.050560 1_545
F2 Fe2 2.211639 1_555
F3 Fe3 1.992241 1_555
F3 Fe4 2.215547 1_555
F3 Fe4 2.215547 1_556
F4 Mg0 2.008485 1_565
F4 Fe5 2.164662 1_555
F4 Fe5 2.164662 1_556
F4 Fe7 2.376134 1_555
F5 Mg0 1.968308 1_554
F5 Mg0 1.968308 1_555
F5 Fe5 2.241089 1_545
F6 Mg0 2.165568 1_565
F6 Mg0 2.165568 1_564
F6 Fe7 2.526460 1_555
F6 Fe7 2.526460 1_554
F7 Mg0 1.912591 1_555
F7 Fe0 2.193928 1_656
F7 Fe0 2.193928 1_655
