# generated using pymatgen
data_Na7Sc3NbSi3(PO8)3
_symmetry_space_group_name_H-M   'P 1'
_cell_length_a   9.13357641
_cell_length_b   9.11168921
_cell_length_c   22.70574850
_cell_angle_alpha   90.00912416
_cell_angle_beta   90.03224983
_cell_angle_gamma   120.00796251
_symmetry_Int_Tables_number   1
_chemical_formula_structural   Na7Sc3NbSi3(PO8)3
_chemical_formula_sum   'Na21 Sc9 Nb3 Si9 P9 O72'
_cell_volume   1636.33131814
_cell_formula_units_Z   3
loop_
 _symmetry_equiv_pos_site_id
 _symmetry_equiv_pos_as_xyz
  1  'x, y, z'
loop_
 _atom_site_type_symbol
 _atom_site_label
 _atom_site_symmetry_multiplicity
 _atom_site_fract_x
 _atom_site_fract_y
 _atom_site_fract_z
 _atom_site_occupancy
  Na  Na0  1  0.63275347  0.99855643  0.25152545  1
  Na  Na1  1  0.36603714  0.36774184  0.25147289  1
  Na  Na2  1  0.00169464  0.63487754  0.25251250  1
  Na  Na3  1  0.63846003  0.63094643  0.74721923  1
  Na  Na4  1  0.99458398  0.35766140  0.74610384  1
  Na  Na5  1  0.29909305  0.33878160  0.58371451  1
  Na  Na6  1  0.03420849  0.69812257  0.58293280  1
  Na  Na7  1  0.66636292  0.96252811  0.58185326  1
  Na  Na8  1  0.30196893  0.96731934  0.08374972  1
  Na  Na9  1  0.66258480  0.69992636  0.08396600  1
  Na  Na10  1  0.03777741  0.33265331  0.08233908  1
  Na  Na11  1  0.32557248  0.29791332  0.91465560  1
  Na  Na12  1  0.97424052  0.30085717  0.41674223  1
  Na  Na13  1  0.32883526  0.02718326  0.41675242  1
  Na  Na14  1  0.69782865  0.67258160  0.41673431  1
  Na  Na15  1  0.99778827  0.99971870  0.49976376  1
  Na  Na16  1  0.99439495  0.99886435  0.99746468  1
  Na  Na17  1  0.66336361  0.32715346  0.82997171  1
  Na  Na18  1  0.66583146  0.33270723  0.33410991  1
  Na  Na19  1  0.33642184  0.66701880  0.16626097  1
  Na  Na20  1  0.33363505  0.66893409  0.66201559  1
  Sc  Sc0  1  0.99957095  0.99993097  0.35364834  1
  Sc  Sc1  1  -0.00025279  0.00253583  0.85162684  1
  Sc  Sc2  1  0.00016811  0.00473035  0.64845753  1
  Sc  Sc3  1  0.00129738  0.00449192  0.14776792  1
  Sc  Sc4  1  0.66057643  0.33103425  0.68395611  1
  Sc  Sc5  1  0.66159120  0.33075573  0.18242002  1
  Sc  Sc6  1  0.33508712  0.66382576  0.01673544  1
  Sc  Sc7  1  0.33306581  0.66292776  0.51645111  1
  Sc  Sc8  1  0.33382456  0.66677850  0.32034648  1
  Nb  Nb0  1  0.66954564  0.32757880  0.97948038  1
  Nb  Nb1  1  0.67260200  0.33758748  0.48096093  1
  Nb  Nb2  1  0.32701637  0.66408520  0.81385070  1
  Si  Si0  1  0.29569577  0.28789263  0.75127068  1
  Si  Si1  1  0.96108352  0.33471217  0.58561242  1
  Si  Si2  1  0.66647092  0.62836457  0.58504773  1
  Si  Si3  1  0.66505245  0.03772139  0.08460711  1
  Si  Si4  1  0.37472434  0.33418994  0.08319303  1
  Si  Si5  1  0.03871913  0.37256302  0.91813162  1
  Si  Si6  1  0.62625989  0.95992801  0.41700862  1
  Si  Si7  1  0.33350391  0.37220141  0.41665854  1
  Si  Si8  1  0.04197099  0.66819491  0.41690664  1
  P  P0  1  0.29305736  0.99927784  0.24950272  1
  P  P1  1  0.70680174  0.70666050  0.24938050  1
  P  P2  1  0.00033149  0.29497475  0.24972445  1
  P  P3  1  0.00144264  0.71067370  0.75051342  1
  P  P4  1  0.70650888  0.99953386  0.75096538  1
  P  P5  1  0.37638869  0.04224929  0.58318012  1
  P  P6  1  0.95668603  0.62248027  0.08325733  1
  P  P7  1  0.62654096  0.66861714  0.91709385  1
  P  P8  1  0.33209778  0.95578545  0.91782496  1
  O  O0  1  0.21128031  0.02993577  0.30413935  1
  O  O1  1  0.81857676  0.78885823  0.30420706  1
  O  O2  1  0.96936490  0.18187363  0.30419365  1
  O  O3  1  0.20512670  0.18104317  0.81000314  1
  O  O4  1  0.97073569  0.79339573  0.80409296  1
  O  O5  1  0.82122455  0.02683375  0.80411565  1
  O  O6  1  0.77724170  0.95814531  0.69490599  1
  O  O7  1  0.17368000  0.21784088  0.69312880  1
  O  O8  1  0.03369824  0.81535774  0.69400455  1
  O  O9  1  0.79091200  0.81853544  0.19404916  1
  O  O10  1  0.02861567  0.21042468  0.19444148  1
  O  O11  1  0.18110662  0.97093154  0.19416803  1
  O  O12  1  0.87135622  0.36462210  0.64220534  1
  O  O13  1  0.49123331  0.12628178  0.63641782  1
  O  O14  1  0.63230639  0.50644788  0.64148824  1
  O  O15  1  0.87852849  0.51221661  0.13863978  1
  O  O16  1  0.63320538  0.12628946  0.14127502  1
  O  O17  1  0.49481078  0.37009304  0.14056617  1
  O  O18  1  0.47461574  0.30616478  0.02563000  1
  O  O19  1  0.83517826  0.52994043  0.02942437  1
  O  O20  1  0.69671553  0.17156170  0.02770635  1
  O  O21  1  0.46240500  0.15790977  0.52737943  1
  O  O22  1  0.69323419  0.52780520  0.52681139  1
  O  O23  1  0.83337862  0.30392399  0.52694770  1
  O  O24  1  0.54408251  0.69194091  0.97231946  1
  O  O25  1  0.15684405  0.46011796  0.97482390  1
  O  O26  1  0.31084376  0.85361283  0.97328344  1
  O  O27  1  0.54531431  0.84356899  0.47494928  1
  O  O28  1  0.29678619  0.45321628  0.47441271  1
  O  O29  1  0.15689185  0.70310012  0.47505519  1
  O  O30  1  0.11511520  0.62305836  0.35795035  1
  O  O31  1  0.50826067  0.88427589  0.35790278  1
  O  O32  1  0.37695756  0.49146106  0.35789730  1
  O  O33  1  0.13809087  0.50042310  0.86017526  1
  O  O34  1  0.36152637  0.86739948  0.86346043  1
  O  O35  1  0.50581592  0.63673980  0.86229668  1
  O  O36  1  0.01422616  0.83052191  0.40978591  1
  O  O37  1  0.81532293  0.98506530  0.40971791  1
  O  O38  1  0.16844060  0.18361128  0.40959965  1
  O  O39  1  0.02547086  0.19000102  0.90999001  1
  O  O40  1  0.18110089  0.98450596  0.91025827  1
  O  O41  1  0.80261224  0.82092829  0.90903806  1
  O  O42  1  0.97259359  0.16071299  0.58673921  1
  O  O43  1  0.20035223  0.02844907  0.58788450  1
  O  O44  1  0.84179927  0.81116219  0.58733835  1
  O  O45  1  0.97013406  0.79851159  0.08760695  1
  O  O46  1  0.83696231  0.02475936  0.08717935  1
  O  O47  1  0.19044797  0.16014606  0.08716459  1
  O  O48  1  0.69154410  0.15950799  0.74497899  1
  O  O49  1  0.48996334  0.32930844  0.74723848  1
  O  O50  1  0.84830053  0.52757570  0.74608284  1
  O  O51  1  0.69028480  0.52777029  0.24448181  1
  O  O52  1  0.84023472  0.31388031  0.24402023  1
  O  O53  1  0.47221019  0.16123288  0.24467842  1
  O  O54  1  0.63141384  0.49801839  0.92294446  1
  O  O55  1  0.85195867  0.36162076  0.92401146  1
  O  O56  1  0.49607114  0.13986204  0.92324972  1
  O  O57  1  0.64333778  0.15042598  0.42463963  1
  O  O58  1  0.50449841  0.35245796  0.42506484  1
  O  O59  1  0.84995665  0.49430133  0.42437148  1
  O  O60  1  0.35520049  0.50192959  0.07719104  1
  O  O61  1  0.13324504  0.64260442  0.07585759  1
  O  O62  1  0.49554317  0.85485005  0.07658634  1
  O  O63  1  0.35802388  0.86542110  0.57733667  1
  O  O64  1  0.49905117  0.64701440  0.57882106  1
  O  O65  1  0.14508307  0.50457984  0.57875222  1
  O  O66  1  0.31097793  0.83810073  0.25357844  1
  O  O67  1  0.52812779  0.68890240  0.25352660  1
  O  O68  1  0.16222349  0.47324236  0.25361717  1
  O  O69  1  0.31373380  0.48696153  0.76113622  1
  O  O70  1  0.16422885  0.68906276  0.75951608  1
  O  O71  1  0.52743149  0.83468204  0.76077188  1
loop_
_geom_bond_atom_site_label_1
_geom_bond_atom_site_label_2
_geom_bond_distance
_geom_bond_site_symmetry_2
Na0 O67 2.485794 1_555
Na0 O52 2.535670 1_565
Na0 O66 2.545484 1_555
Na0 O53 2.558362 1_565
Na0 O31 2.651573 1_555
Na0 O16 2.759952 1_565
Na0 O2 2.920799 1_565
Na0 O9 2.975221 1_555
Na1 O68 2.486324 1_555
Na1 O53 2.515950 1_555
Na1 O67 2.534522 1_555
Na1 O51 2.569692 1_555
Na1 O32 2.646949 1_555
Na1 O17 2.775500 1_555
Na1 O0 2.924599 1_555
Na1 O10 2.967440 1_555
Na2 O66 2.485374 1_555
Na2 O51 2.509685 1_455
Na2 O52 2.540030 1_455
Na2 O68 2.545446 1_555
Na2 O30 2.631557 1_555
Na2 O15 2.817446 1_455
Na2 O1 2.914166 1_455
Na2 O11 2.966659 1_555
Na3 O49 2.380091 1_555
Na3 O50 2.523258 1_555
Na3 O71 2.540147 1_555
Na3 O69 2.593612 1_555
Na3 O14 2.643592 1_555
Na3 O6 2.851113 1_555
Na3 O35 2.892299 1_555
Na3 O4 2.927576 1_555
Na4 O48 2.433679 1_555
Na4 O50 2.500225 1_555
Na4 O69 2.562282 1_655
Na4 O12 2.627656 1_555
Na4 O70 2.632674 1_655
Na4 O7 2.798557 1_655
Na4 O33 2.899705 1_655
Na4 O5 2.925447 1_555
Na5 O64 2.470916 1_555
Na5 O43 2.503470 1_555
Na5 O65 2.529634 1_555
Na5 O42 2.586662 1_455
Na5 O28 2.696223 1_555
Na5 O7 2.727610 1_555
Na5 O14 2.943032 1_555
Na5 O21 3.006244 1_555
Na6 O65 2.435328 1_555
Na6 O44 2.443347 1_455
Na6 O63 2.564788 1_555
Na6 O43 2.608777 1_565
Na6 O29 2.685092 1_555
Na6 O8 2.739626 1_555
Na6 O12 2.956392 1_455
Na6 O22 2.981907 1_455
Na7 O42 2.458436 1_565
Na7 O64 2.492059 1_555
Na7 O63 2.496360 1_555
Na7 O44 2.587586 1_555
Na7 O27 2.662079 1_555
Na7 O6 2.766581 1_555
Na7 O13 2.951049 1_565
Na7 O23 2.968944 1_565
Na8 O47 2.433229 1_565
Na8 O62 2.452571 1_555
Na8 O61 2.569003 1_555
Na8 O45 2.626194 1_455
Na8 O26 2.730303 1_554
Na8 O11 2.746784 1_555
Na8 O16 2.927238 1_565
Na8 O18 2.982336 1_565
Na9 O60 2.468552 1_555
Na9 O45 2.485997 1_555
Na9 O62 2.549991 1_555
Na9 O46 2.566500 1_565
Na9 O9 2.741932 1_555
Na9 O24 2.742476 1_554
Na9 O17 2.903253 1_555
Na9 O19 2.976816 1_555
Na10 O46 2.469849 1_455
Na10 O61 2.508997 1_555
Na10 O60 2.515093 1_555
Na10 O47 2.572802 1_555
Na10 O25 2.689167 1_554
Na10 O10 2.763002 1_555
Na10 O15 2.967904 1_455
Na10 O20 2.969640 1_455
Na11 O39 2.407277 1_555
Na11 O54 2.463308 1_555
Na11 O40 2.477234 1_545
Na11 O56 2.603843 1_555
Na11 O3 2.610570 1_555
Na11 O18 2.846342 1_556
Na11 O35 2.928229 1_555
Na11 O25 2.950541 1_555
Na12 O38 2.491861 1_655
Na12 O37 2.496748 1_545
Na12 O59 2.535112 1_555
Na12 O57 2.627245 1_555
Na12 O2 2.767422 1_555
Na12 O23 2.820834 1_555
Na12 O28 2.867945 1_655
Na12 O30 2.877722 1_655
Na13 O38 2.508477 1_555
Na13 O57 2.513444 1_555
Na13 O36 2.518353 1_545
Na13 O58 2.576250 1_555
Na13 O0 2.777658 1_555
Na13 O21 2.785448 1_555
Na13 O31 2.881498 1_545
Na13 O29 2.881611 1_545
Na14 O37 2.495589 1_555
Na14 O36 2.507567 1_655
Na14 O58 2.551597 1_555
Na14 O59 2.618580 1_555
Na14 O1 2.775283 1_555
Na14 O22 2.816851 1_555
Na14 O32 2.873051 1_555
Na14 O27 2.878745 1_555
Na15 O42 2.538125 1_565
Na15 O44 2.547832 1_555
Na15 O37 2.597880 1_555
Na15 O36 2.608457 1_655
Na15 O38 2.611625 1_665
Na15 O43 2.646910 1_665
Na16 O39 2.562393 1_665
Na16 O46 2.572027 1_566
Na16 O47 2.622414 1_666
Na16 O41 2.623454 1_555
Na16 O40 2.659466 1_655
Na16 O45 2.677312 1_556
Na17 O49 2.462783 1_555
Na17 O48 2.552785 1_555
Na17 O50 2.595294 1_555
Na17 O55 2.660752 1_555
Na17 O56 2.670077 1_555
Na17 O54 2.723868 1_555
Na18 O57 2.585785 1_555
Na18 O59 2.591295 1_555
Na18 O58 2.595638 1_555
Na18 O53 2.631193 1_555
Na18 O51 2.637233 1_555
Na18 O52 2.651039 1_555
Na19 O60 2.576770 1_555
Na19 O67 2.584268 1_555
Na19 O62 2.589138 1_555
Na19 O66 2.603196 1_555
Na19 O68 2.603441 1_555
Na19 O61 2.699880 1_555
Na20 O64 2.489126 1_555
Na20 O65 2.489673 1_555
Na20 O63 2.560144 1_555
Na20 O69 2.747305 1_555
Na20 O70 2.759766 1_555
Na20 O71 2.786143 1_555
Nb0 O20 1.906453 1_556
Nb0 O55 1.985918 1_555
Nb0 O18 1.990132 1_556
Nb0 O19 2.044927 1_556
Nb0 O56 2.086244 1_555
Nb0 O54 2.173036 1_555
Nb1 O23 1.946705 1_555
Nb1 O22 1.948293 1_555
Nb1 O59 2.000819 1_555
Nb1 O57 2.039130 1_555
Nb1 O58 2.047558 1_555
Nb1 O21 2.082293 1_555
Nb2 O33 1.932981 1_555
Nb2 O69 1.963512 1_555
Nb2 O70 2.030023 1_555
Nb2 O34 2.053035 1_555
Nb2 O35 2.084251 1_555
Nb2 O71 2.092008 1_555
O0 P0 1.544200 1_545
O0 Sc0 2.133366 1_445
O1 P1 1.544792 1_555
O1 Sc0 2.123437 1_555
O2 P2 1.543002 1_655
O2 Sc0 2.131449 1_545
O3 Si0 1.614509 1_555
O3 Sc1 2.002051 1_555
O4 P3 1.529165 1_655
O4 Sc1 2.088163 1_665
O5 P4 1.534236 1_545
O5 Sc1 2.056854 1_655
O6 P4 1.557003 1_555
O6 Sc2 2.139230 1_665
O7 Si0 1.636694 1_555
O7 Sc2 2.056794 1_555
O8 P3 1.537089 1_555
O8 Sc2 2.160892 1_565
O9 P1 1.557522 1_555
O9 Sc3 2.100911 1_665
O10 P2 1.560449 1_555
O10 Sc3 2.058391 1_555
O11 P0 1.557276 1_555
O11 Sc3 2.097881 1_565
O12 Si1 1.619124 1_555
O12 Sc4 2.027670 1_555
O13 P5 1.530581 1_555
O13 Sc4 2.036957 1_555
O14 Si2 1.621074 1_555
O14 Sc4 1.991003 1_555
O15 P6 1.544129 1_555
O15 Sc5 2.091362 1_555
O16 Si3 1.620592 1_555
O16 Sc5 1.981649 1_555
O17 Si4 1.626781 1_555
O17 Sc5 1.973991 1_555
O18 Si4 1.685280 1_555
O19 P6 1.580771 1_555
O20 Si3 1.699470 1_555
O21 P5 1.583201 1_555
O22 Si2 1.694633 1_555
O23 Si1 1.698331 1_555
O24 P7 1.531607 1_555
O24 Sc6 2.059034 1_556
O25 Si5 1.610790 1_555
O25 Sc6 1.994085 1_556
O26 P8 1.519840 1_555
O26 Sc6 2.096698 1_556
O27 Si6 1.618316 1_555
O27 Sc7 2.041132 1_555
O28 Si7 1.620133 1_555
O28 Sc7 2.009449 1_555
O29 Si8 1.615703 1_555
O29 Sc7 2.047970 1_555
O30 Si8 1.638013 1_555
O30 Sc8 2.020934 1_555
O31 Si6 1.640968 1_555
O31 Sc8 2.008162 1_555
O32 Si7 1.639559 1_555
O32 Sc8 2.015813 1_555
O33 Si5 1.690247 1_555
O34 P8 1.568795 1_555
O35 P7 1.589420 1_555
O36 Si8 1.628787 1_555
O36 Sc0 2.057292 1_455
O37 Si6 1.632942 1_555
O37 Sc0 2.060477 1_555
O38 Si7 1.630882 1_555
O38 Sc0 2.051603 1_445
O39 Si5 1.616917 1_555
O39 Sc1 2.080024 1_555
O40 P8 1.536482 1_555
O40 Sc1 2.193793 1_565
O41 P7 1.521088 1_555
O41 Sc1 2.168550 1_665
O42 Si1 1.640733 1_555
O42 Sc2 2.098931 1_655
O43 P5 1.552531 1_555
O43 Sc2 2.211115 1_555
O44 Si2 1.635025 1_555
O44 Sc2 2.138706 1_665
O45 P6 1.549307 1_555
O45 Sc3 2.221231 1_665
O46 Si3 1.633440 1_555
O46 Sc3 2.110589 1_655
O47 Si4 1.638990 1_555
O47 Sc3 2.107638 1_555
O48 P4 1.536613 1_545
O48 Sc4 2.210171 1_555
O49 Si0 1.621598 1_555
O49 Sc4 2.114520 1_555
O50 P3 1.554215 1_655
O50 Sc4 2.249882 1_555
O51 P1 1.563960 1_555
O51 Sc5 2.192061 1_555
O52 P2 1.560893 1_655
O52 Sc5 2.211490 1_555
O53 P0 1.565931 1_545
O53 Sc5 2.169607 1_555
O54 P7 1.582776 1_555
O55 Si5 1.663621 1_655
O56 P8 1.599531 1_545
O57 Si6 1.672205 1_545
O58 Si7 1.669937 1_555
O59 Si8 1.684026 1_655
O60 Si4 1.630645 1_555
O60 Sc6 2.089380 1_555
O61 P6 1.538482 1_455
O61 Sc6 2.210071 1_555
O62 Si3 1.620439 1_565
O62 Sc6 2.114153 1_555
O63 P5 1.539903 1_565
O63 Sc7 2.223850 1_555
O64 Si2 1.626903 1_555
O64 Sc7 2.131296 1_555
O65 Si1 1.625670 1_455
O65 Sc7 2.134541 1_555
O66 P0 1.559676 1_555
O66 Sc8 2.259404 1_555
O67 P1 1.560226 1_555
O67 Sc8 2.266564 1_555
O68 P2 1.558866 1_555
O68 Sc8 2.256948 1_555
O69 Si0 1.751659 1_555
O70 P3 1.607392 1_555
O71 P4 1.588761 1_555
