# generated using pymatgen
data_Na14Mg2Zr6Si9(SO16)3
_symmetry_space_group_name_H-M   'P 1'
_cell_length_a   18.43037803
_cell_length_b   9.23267013
_cell_length_c   22.89600781
_cell_angle_alpha   90.08080964
_cell_angle_beta   90.07172076
_cell_angle_gamma   120.01854653
_symmetry_Int_Tables_number   1
_chemical_formula_structural   Na14Mg2Zr6Si9(SO16)3
_chemical_formula_sum   'Na42 Mg6 Zr18 Si27 S9 O144'
_cell_volume   3373.41073481
_cell_formula_units_Z   3
loop_
 _symmetry_equiv_pos_site_id
 _symmetry_equiv_pos_as_xyz
  1  'x, y, z'
loop_
 _atom_site_type_symbol
 _atom_site_label
 _atom_site_symmetry_multiplicity
 _atom_site_fract_x
 _atom_site_fract_y
 _atom_site_fract_z
 _atom_site_occupancy
  Na  Na0  1  0.31291991  0.00282663  0.24495226  1
  Na  Na1  1  0.81741462  0.01685259  0.24688749  1
  Na  Na2  1  0.18722984  0.36471941  0.25094795  1
  Na  Na3  1  0.69451267  0.36608694  0.24889440  1
  Na  Na4  1  0.99162365  0.61987539  0.25255637  1
  Na  Na5  1  0.49533053  0.63588479  0.24753309  1
  Na  Na6  1  0.31754623  0.61708883  0.74061305  1
  Na  Na7  1  0.81346475  0.62411427  0.74092761  1
  Na  Na8  1  0.99295792  0.34847851  0.74222408  1
  Na  Na9  1  0.49307643  0.36760648  0.74921904  1
  Na  Na10  1  0.19492631  0.02646584  0.74448315  1
  Na  Na11  1  0.68917573  0.00953481  0.74747589  1
  Na  Na12  1  0.15483868  0.33736780  0.58652132  1
  Na  Na13  1  0.65792521  0.35466403  0.57836322  1
  Na  Na14  1  0.01021057  0.69190110  0.57981295  1
  Na  Na15  1  0.51570989  0.69394565  0.57343491  1
  Na  Na16  1  0.32956522  0.96534609  0.58432111  1
  Na  Na17  1  0.82918897  0.95180908  0.57383077  1
  Na  Na18  1  0.15758923  0.96309035  0.08415644  1
  Na  Na19  1  0.65632888  0.97331422  0.08926022  1
  Na  Na20  1  0.33237114  0.70525413  0.08459285  1
  Na  Na21  1  0.82939823  0.69373257  0.08737043  1
  Na  Na22  1  0.01314853  0.33209112  0.07849939  1
  Na  Na23  1  0.51307131  0.33125034  0.08368398  1
  Na  Na24  1  0.98512065  0.67002132  0.91867818  1
  Na  Na25  1  0.34907512  0.03735906  0.91459357  1
  Na  Na26  1  0.16326410  0.29226645  0.91586466  1
  Na  Na27  1  0.48788121  0.30473390  0.41854353  1
  Na  Na28  1  0.66923297  0.03280898  0.41537285  1
  Na  Na29  1  0.84736387  0.66948440  0.41978329  1
  Na  Na30  1  0.99843148  0.99650937  0.49628524  1
  Na  Na31  1  0.49254625  0.98367186  0.49332626  1
  Na  Na32  1  0.98974533  0.99934967  0.99499547  1
  Na  Na33  1  0.50691645  0.01393045  0.00254513  1
  Na  Na34  1  0.33737886  0.33664371  0.82400020  1
  Na  Na35  1  0.82840035  0.32214958  0.82995785  1
  Na  Na36  1  0.32860994  0.33480150  0.33092062  1
  Na  Na37  1  0.83627381  0.32969218  0.32881403  1
  Na  Na38  1  0.17195485  0.67735975  0.16961271  1
  Na  Na39  1  0.67079515  0.67832972  0.16787490  1
  Na  Na40  1  0.16968738  0.66202303  0.66189099  1
  Na  Na41  1  0.67400729  0.66766305  0.66431051  1
  Mg  Mg0  1  0.32721020  0.33301457  0.68722445  1
  Mg  Mg1  1  0.83348017  0.33462610  0.68187243  1
  Mg  Mg2  1  0.33380220  0.33035439  0.18377526  1
  Mg  Mg3  1  0.82639773  0.31998820  0.18881596  1
  Mg  Mg4  1  0.16569101  0.67772347  0.01408411  1
  Mg  Mg5  1  0.67303277  0.66416905  0.50933155  1
  Zr  Zr0  1  0.99757577  0.99641207  0.35031401  1
  Zr  Zr1  1  0.49762942  0.97918407  0.35589774  1
  Zr  Zr2  1  0.99654750  0.01458900  0.85571797  1
  Zr  Zr3  1  0.50421378  0.00965996  0.84784434  1
  Zr  Zr4  1  0.99690548  0.00892588  0.64433979  1
  Zr  Zr5  1  0.49664927  0.98955007  0.65292441  1
  Zr  Zr6  1  0.99622249  0.00286561  0.15440769  1
  Zr  Zr7  1  0.49815792  0.98680366  0.14626777  1
  Zr  Zr8  1  0.34230698  0.32996522  0.98127959  1
  Zr  Zr9  1  0.82916852  0.32191204  0.98001694  1
  Zr  Zr10  1  0.32914577  0.33628927  0.47979744  1
  Zr  Zr11  1  0.84277749  0.34727322  0.47739845  1
  Zr  Zr12  1  0.66813096  0.65603699  0.01987100  1
  Zr  Zr13  1  0.16801553  0.67942426  0.51911242  1
  Zr  Zr14  1  0.16636830  0.67965237  0.31325632  1
  Zr  Zr15  1  0.67125080  0.67667551  0.32009001  1
  Zr  Zr16  1  0.16544726  0.66882064  0.81627602  1
  Zr  Zr17  1  0.66631964  0.65305659  0.81300896  1
  Si  Si0  1  0.14934451  0.00763388  0.24788895  1
  Si  Si1  1  0.64733076  0.99783005  0.25080608  1
  Si  Si2  1  0.35123476  0.69858166  0.24809052  1
  Si  Si3  1  0.84929327  0.69721570  0.25008714  1
  Si  Si4  1  0.99989664  0.29902237  0.25023191  1
  Si  Si5  1  0.14720357  0.29406588  0.75156313  1
  Si  Si6  1  0.65091203  0.29491997  0.74632581  1
  Si  Si7  1  0.49957447  0.70203660  0.75134533  1
  Si  Si8  1  0.35091937  0.00120898  0.75097611  1
  Si  Si9  1  0.85108992  0.00336093  0.74853946  1
  Si  Si10  1  0.97898823  0.33789547  0.58663937  1
  Si  Si11  1  0.18929032  0.04484148  0.58769419  1
  Si  Si12  1  0.33504530  0.62692164  0.58596864  1
  Si  Si13  1  0.82850169  0.62262851  0.58672198  1
  Si  Si14  1  0.47862786  0.62154091  0.08595479  1
  Si  Si15  1  0.32909948  0.03023546  0.08610553  1
  Si  Si16  1  0.83555011  0.04312423  0.08536708  1
  Si  Si17  1  0.68905431  0.33278403  0.08715614  1
  Si  Si18  1  0.81407241  0.66291233  0.91672113  1
  Si  Si19  1  0.02173897  0.38096244  0.92160704  1
  Si  Si20  1  0.52030871  0.36758177  0.91619998  1
  Si  Si21  1  0.16576839  0.96207007  0.91914330  1
  Si  Si22  1  0.31440891  0.96511608  0.41684793  1
  Si  Si23  1  0.81693458  0.96582438  0.42074819  1
  Si  Si24  1  0.66479507  0.37073749  0.41887336  1
  Si  Si25  1  0.02137161  0.67421788  0.41590115  1
  Si  Si26  1  0.52139230  0.66118660  0.42113264  1
  S  S0  1  0.49971215  0.29186476  0.24987324  1
  S  S1  1  -0.00003524  0.70804489  0.75074837  1
  S  S2  1  0.47946429  0.33395170  0.58497454  1
  S  S3  1  0.68604693  0.04001472  0.58448246  1
  S  S4  1  0.98034116  0.62566050  0.08392871  1
  S  S5  1  0.18703862  0.33439159  0.08280586  1
  S  S6  1  0.31269760  0.66668816  0.91859665  1
  S  S7  1  0.66492074  0.95644759  0.91654932  1
  S  S8  1  0.16590158  0.37470704  0.41637410  1
  O  O0  1  0.09937656  0.03184166  0.30225774  1
  O  O1  1  0.59942357  0.02263220  0.30700450  1
  O  O2  1  0.41414933  0.80071482  0.30245188  1
  O  O3  1  0.90959113  0.79479939  0.30634170  1
  O  O4  1  0.48900030  0.18910585  0.30241890  1
  O  O5  1  0.98588595  0.17038872  0.30330276  1
  O  O6  1  0.10056578  0.17580404  0.80867785  1
  O  O7  1  0.60102868  0.17258070  0.80239758  1
  O  O8  1  0.48545325  0.80193159  0.80579990  1
  O  O9  1  0.99046104  0.78979003  0.80380935  1
  O  O10  1  0.40952512  0.02174849  0.80871306  1
  O  O11  1  0.91366139  0.02808178  0.80368118  1
  O  O12  1  0.39528905  0.96562770  0.69386315  1
  O  O13  1  0.89370585  0.96385603  0.69178847  1
  O  O14  1  0.08616015  0.20554161  0.69427364  1
  O  O15  1  0.58919636  0.20754336  0.68931820  1
  O  O16  1  0.01379182  0.81145869  0.69813212  1
  O  O17  1  0.51726186  0.82439746  0.69312930  1
  O  O18  1  0.39269636  0.82075739  0.18996910  1
  O  O19  1  0.89415355  0.82257591  0.19243192  1
  O  O20  1  0.01833235  0.21470682  0.19071291  1
  O  O21  1  0.51130991  0.21165015  0.19668803  1
  O  O22  1  0.09022858  0.97206876  0.18804097  1
  O  O23  1  0.58714131  0.97015394  0.19278030  1
  O  O24  1  0.43868088  0.35171948  0.63738219  1
  O  O25  1  0.94220495  0.37210668  0.64560165  1
  O  O26  1  0.24642028  0.11885176  0.64518492  1
  O  O27  1  0.73646755  0.11872831  0.63734686  1
  O  O28  1  0.32014616  0.51920668  0.64446793  1
  O  O29  1  0.81572904  0.51024579  0.64434765  1
  O  O30  1  0.43978847  0.50813795  0.14312291  1
  O  O31  1  0.94064738  0.52694204  0.13583767  1
  O  O32  1  0.31299338  0.11811246  0.14159823  1
  O  O33  1  0.82023258  0.12272960  0.14305364  1
  O  O34  1  0.23791301  0.35693417  0.13498885  1
  O  O35  1  0.74689037  0.37302808  0.14375554  1
  O  O36  1  0.22671003  0.31174299  0.02898504  1
  O  O37  1  0.73393000  0.30189960  0.02955093  1
  O  O38  1  0.41562420  0.53333409  0.02924124  1
  O  O39  1  0.92816187  0.54782678  0.03012496  1
  O  O40  1  0.34522563  0.15108416  0.02673758  1
  O  O41  1  0.85269605  0.16679417  0.02838315  1
  O  O42  1  0.23445954  0.16697848  0.53089356  1
  O  O43  1  0.72482411  0.14144170  0.53145636  1
  O  O44  1  0.35241534  0.53723455  0.52966656  1
  O  O45  1  0.84462348  0.53439851  0.52823646  1
  O  O46  1  0.42711255  0.30644212  0.53143731  1
  O  O47  1  0.91678008  0.30193153  0.53085940  1
  O  O48  1  0.27310298  0.69100721  0.97051592  1
  O  O49  1  0.77050597  0.69187513  0.97457145  1
  O  O50  1  0.08063863  0.46230278  0.97815890  1
  O  O51  1  0.57510215  0.46064861  0.97429024  1
  O  O52  1  0.15109337  0.84974955  0.97629630  1
  O  O53  1  0.65614999  0.85901726  0.96997562  1
  O  O54  1  0.27101214  0.84969284  0.47490408  1
  O  O55  1  0.77590029  0.84938740  0.47726288  1
  O  O56  1  0.15790347  0.45657422  0.47002111  1
  O  O57  1  0.64487507  0.44606158  0.47639628  1
  O  O58  1  0.07590509  0.68776862  0.47426088  1
  O  O59  1  0.57797976  0.69456315  0.47881489  1
  O  O60  1  0.06486006  0.64584991  0.35810180  1
  O  O61  1  0.56361084  0.63331371  0.36108950  1
  O  O62  1  0.25779143  0.87364236  0.35866294  1
  O  O63  1  0.75744521  0.87741495  0.36141359  1
  O  O64  1  0.17673176  0.47618721  0.36354822  1
  O  O65  1  0.68182961  0.49081714  0.36031392  1
  O  O66  1  0.06727339  0.49662443  0.86238496  1
  O  O67  1  0.56363238  0.47855315  0.85789278  1
  O  O68  1  0.18485824  0.87613869  0.86105094  1
  O  O69  1  0.67504671  0.87693864  0.86362516  1
  O  O70  1  0.26075304  0.64352672  0.86492396  1
  O  O71  1  0.75726067  0.64151652  0.85877715  1
  O  O72  1  0.00974264  0.83796873  0.41271258  1
  O  O73  1  0.51372992  0.83141172  0.41307874  1
  O  O74  1  0.40985837  0.99552140  0.41063884  1
  O  O75  1  0.90867169  0.98119216  0.41121001  1
  O  O76  1  0.09161320  0.20745302  0.41232212  1
  O  O77  1  0.58190271  0.18382314  0.40844481  1
  O  O78  1  0.01401285  0.19576111  0.91329617  1
  O  O79  1  0.50416161  0.17404539  0.91354724  1
  O  O80  1  0.08196631  0.97864178  0.90946479  1
  O  O81  1  0.58943890  0.97541968  0.91258111  1
  O  O82  1  0.39667017  0.81735609  0.91231416  1
  O  O83  1  0.90974298  0.82381130  0.91060458  1
  O  O84  1  0.48863822  0.18007871  0.58795549  1
  O  O85  1  0.98890878  0.16767989  0.58789037  1
  O  O86  1  0.09410616  0.01937277  0.59151827  1
  O  O87  1  0.60047996  0.02632203  0.58832640  1
  O  O88  1  0.42048681  0.82139921  0.58724165  1
  O  O89  1  0.91744680  0.80887974  0.59011344  1
  O  O90  1  0.48774954  0.81053780  0.08744803  1
  O  O91  1  0.99012170  0.79809706  0.08656656  1
  O  O92  1  0.41784695  0.02476769  0.08819163  1
  O  O93  1  0.92095106  0.01936467  0.08639241  1
  O  O94  1  0.10187294  0.17800785  0.08600936  1
  O  O95  1  0.59350925  0.16803330  0.08995743  1
  O  O96  1  0.34559498  0.16920468  0.74683175  1
  O  O97  1  0.84316105  0.17025585  0.74406524  1
  O  O98  1  0.23983915  0.31617348  0.74847181  1
  O  O99  1  0.74248709  0.31338654  0.74494733  1
  O  O100  1  0.41868718  0.51842030  0.74480501  1
  O  O101  1  0.92595051  0.54017567  0.74664383  1
  O  O102  1  0.34358566  0.51609148  0.24316976  1
  O  O103  1  0.84493595  0.51971044  0.24486357  1
  O  O104  1  0.42416485  0.30854306  0.24513327  1
  O  O105  1  0.91916467  0.32095113  0.24335823  1
  O  O106  1  0.24226006  0.17064460  0.24431174  1
  O  O107  1  0.73930742  0.16139492  0.24778968  1
  O  O108  1  0.31706776  0.51030045  0.92246640  1
  O  O109  1  0.82650829  0.49894907  0.92367454  1
  O  O110  1  0.42484881  0.34430328  0.92029757  1
  O  O111  1  0.92990367  0.36874893  0.92391657  1
  O  O112  1  0.24801899  0.15532226  0.92360689  1
  O  O113  1  0.74145133  0.12667422  0.92038210  1
  O  O114  1  0.32598440  0.15298262  0.42412079  1
  O  O115  1  0.81727453  0.14341803  0.42371819  1
  O  O116  1  0.24332020  0.36001125  0.42046137  1
  O  O117  1  0.74810708  0.34926831  0.42425487  1
  O  O118  1  0.42843235  0.49070124  0.42441903  1
  O  O119  1  0.92644671  0.51009170  0.41967851  1
  O  O120  1  0.17625972  0.48301269  0.07763148  1
  O  O121  1  0.67598839  0.49783203  0.07790012  1
  O  O122  1  0.06496031  0.64277067  0.07815984  1
  O  O123  1  0.57406899  0.65326985  0.07503175  1
  O  O124  1  0.24874173  0.83951335  0.07708075  1
  O  O125  1  0.75192005  0.85548387  0.07559435  1
  O  O126  1  0.17670913  0.85419322  0.57826973  1
  O  O127  1  0.67355711  0.86845358  0.58034794  1
  O  O128  1  0.25175474  0.64832754  0.57680613  1
  O  O129  1  0.74680123  0.64994105  0.58043511  1
  O  O130  1  0.07512560  0.49680860  0.57639252  1
  O  O131  1  0.56355782  0.48482392  0.57990769  1
  O  O132  1  0.15488237  0.83337925  0.25288376  1
  O  O133  1  0.65016839  0.82094261  0.25437377  1
  O  O134  1  0.25861939  0.68309141  0.25514304  1
  O  O135  1  0.75653916  0.68287664  0.25359986  1
  O  O136  1  0.08766551  0.47926780  0.25574179  1
  O  O137  1  0.57635978  0.46042495  0.25391209  1
  O  O138  1  0.15371671  0.48091613  0.75809074  1
  O  O139  1  0.65517564  0.47744986  0.75273098  1
  O  O140  1  0.07774854  0.69257931  0.75569998  1
  O  O141  1  0.58684891  0.69653127  0.75724735  1
  O  O142  1  0.25855403  0.82889122  0.75603927  1
  O  O143  1  0.75832228  0.83446800  0.75643852  1
loop_
_geom_bond_atom_site_label_1
_geom_bond_atom_site_label_2
_geom_bond_distance
_geom_bond_site_symmetry_2
Na0 O106 2.473005 1_555
Na0 O104 2.525916 1_555
Na0 O132 2.531218 1_545
Na0 O32 2.595850 1_555
Na0 O134 2.610924 1_545
Na0 O62 2.834798 1_545
Na1 O107 2.403290 1_555
Na1 O105 2.477705 1_555
Na1 O33 2.562472 1_555
Na1 O133 2.688120 1_545
Na1 O135 2.707508 1_545
Na1 O63 2.889277 1_545
Na2 O106 2.465837 1_555
Na2 O102 2.502289 1_555
Na2 O136 2.537664 1_555
Na2 O134 2.551433 1_555
Na2 O64 2.817119 1_555
Na2 O34 2.828357 1_555
Na2 O0 2.912594 1_555
Na2 O20 3.029886 1_555
Na3 O103 2.402672 1_555
Na3 O107 2.411390 1_555
Na3 O135 2.554673 1_555
Na3 O35 2.583650 1_555
Na3 O137 2.722473 1_555
Na3 O65 2.855043 1_555
Na4 O103 2.385790 1_555
Na4 O105 2.398871 1_555
Na4 O132 2.646637 1_655
Na4 O136 2.668884 1_655
Na4 O60 2.717633 1_655
Na4 O31 2.818020 1_555
Na4 O3 2.975357 1_555
Na5 O102 2.441089 1_555
Na5 O133 2.491401 1_555
Na5 O104 2.624956 1_555
Na5 O30 2.632816 1_555
Na5 O137 2.701219 1_555
Na5 O61 2.892408 1_555
Na5 O2 2.900552 1_555
Na5 O23 2.958128 1_555
Na6 O28 2.388068 1_555
Na6 O98 2.413103 1_555
Na6 O100 2.452079 1_555
Na6 O138 2.657812 1_555
Na6 O142 2.693913 1_555
Na7 O29 2.456500 1_555
Na7 O99 2.489191 1_555
Na7 O139 2.543199 1_555
Na7 O101 2.553986 1_555
Na7 O143 2.627675 1_555
Na7 O71 2.924357 1_555
Na7 O13 2.943575 1_555
Na8 O97 2.405523 1_555
Na8 O25 2.452965 1_555
Na8 O138 2.603218 1_655
Na8 O101 2.618137 1_555
Na8 O140 2.767482 1_655
Na8 O14 2.857689 1_655
Na8 O11 2.925340 1_555
Na9 O100 2.395597 1_555
Na9 O96 2.400876 1_555
Na9 O139 2.632122 1_555
Na9 O141 2.643741 1_555
Na9 O24 2.725569 1_555
Na9 O67 2.753777 1_555
Na10 O98 2.373132 1_555
Na10 O96 2.405940 1_555
Na10 O26 2.449105 1_555
Na10 O142 2.629374 1_545
Na10 O140 2.752318 1_545
Na10 O68 2.972875 1_545
Na11 O97 2.459582 1_555
Na11 O99 2.466062 1_555
Na11 O143 2.517940 1_545
Na11 O141 2.551042 1_545
Na11 O27 2.695843 1_555
Na11 O69 2.886283 1_545
Na11 O7 2.988868 1_555
Na11 O17 3.012362 1_545
Na12 O128 2.520779 1_555
Na12 O130 2.557954 1_555
Na12 O86 2.568831 1_555
Na12 O85 2.648453 1_455
Na12 O14 2.764949 1_555
Na12 O56 2.876790 1_555
Na12 O42 2.925612 1_555
Na12 O28 2.954126 1_555
Na13 O129 2.376736 1_555
Na13 O57 2.535285 1_555
Na13 O131 2.561557 1_555
Na13 O87 2.674699 1_555
Na13 O84 2.711407 1_555
Na13 O15 2.863488 1_555
Na13 O29 2.933825 1_555
Na13 O43 2.995837 1_555
Na14 O89 2.448033 1_455
Na14 O130 2.614954 1_555
Na14 O86 2.631151 1_565
Na14 O126 2.657585 1_555
Na14 O58 2.713164 1_555
Na14 O45 2.892848 1_455
Na14 O16 2.912028 1_555
Na14 O25 2.978592 1_455
Na15 O59 2.451579 1_555
Na15 O131 2.496300 1_555
Na15 O127 2.528356 1_555
Na15 O88 2.575136 1_555
Na15 O87 2.678218 1_565
Na15 O44 2.790466 1_555
Na15 O17 2.986291 1_555
Na16 O126 2.472820 1_555
Na16 O128 2.539933 1_555
Na16 O84 2.591528 1_565
Na16 O88 2.609034 1_555
Na16 O54 2.722787 1_555
Na16 O12 2.783336 1_555
Na16 O26 2.910606 1_565
Na16 O46 2.994526 1_565
Na17 O55 2.409733 1_555
Na17 O129 2.421484 1_555
Na17 O127 2.575788 1_555
Na17 O89 2.583387 1_555
Na17 O85 2.620464 1_565
Na17 O13 2.929019 1_555
Na17 O47 2.969030 1_565
Na18 O124 2.463395 1_555
Na18 O122 2.574137 1_555
Na18 O94 2.651822 1_565
Na18 O52 2.659839 1_554
Na18 O91 2.673253 1_455
Na18 O22 2.704702 1_555
Na18 O32 2.804501 1_565
Na19 O125 2.510656 1_555
Na19 O123 2.578677 1_555
Na19 O95 2.579789 1_565
Na19 O23 2.686119 1_555
Na19 O90 2.690942 1_555
Na19 O33 2.891647 1_565
Na19 O53 2.925935 1_554
Na19 O37 2.965339 1_565
Na20 O124 2.419376 1_555
Na20 O90 2.522693 1_555
Na20 O92 2.557335 1_565
Na20 O120 2.569985 1_555
Na20 O18 2.644649 1_555
Na20 O48 2.807254 1_554
Na21 O121 2.488608 1_555
Na21 O125 2.544768 1_555
Na21 O93 2.609773 1_565
Na21 O91 2.616814 1_555
Na21 O19 2.681426 1_555
Na21 O49 2.796908 1_554
Na21 O35 2.873484 1_555
Na22 O93 2.519891 1_455
Na22 O122 2.529649 1_555
Na22 O120 2.605425 1_555
Na22 O50 2.605620 1_554
Na22 O94 2.656102 1_555
Na22 O41 2.803879 1_455
Na22 O20 2.809899 1_555
Na23 O92 2.475900 1_555
Na23 O95 2.593190 1_555
Na23 O121 2.603781 1_555
Na23 O123 2.607752 1_555
Na23 O51 2.767082 1_554
Na23 O21 2.808401 1_555
Na23 O30 2.923833 1_555
Na23 O40 2.978531 1_555
Na24 O83 2.440086 1_555
Na24 O111 2.440494 1_555
Na24 O80 2.502660 1_655
Na24 O109 2.536715 1_555
Na24 O39 2.777723 1_556
Na24 O9 2.837164 1_555
Na24 O52 2.959044 1_655
Na24 O66 2.990162 1_655
Na25 O110 2.457043 1_555
Na25 O79 2.480761 1_555
Na25 O82 2.584688 1_545
Na25 O112 2.593766 1_555
Na25 O10 2.702853 1_555
Na25 O40 2.787063 1_556
Na25 O68 2.890787 1_545
Na26 O78 2.431286 1_555
Na26 O112 2.458889 1_555
Na26 O80 2.511612 1_545
Na26 O108 2.529635 1_555
Na26 O6 2.693804 1_555
Na26 O36 2.808650 1_556
Na27 O118 2.459387 1_555
Na27 O74 2.478127 1_545
Na27 O77 2.497643 1_555
Na27 O114 2.588640 1_555
Na27 O46 2.821473 1_555
Na27 O57 2.834991 1_555
Na27 O4 2.867652 1_555
Na27 O61 2.942952 1_555
Na28 O115 2.394604 1_555
Na28 O73 2.518205 1_545
Na28 O117 2.537547 1_555
Na28 O77 2.608653 1_555
Na28 O1 2.773259 1_555
Na28 O43 2.842063 1_555
Na28 O63 2.926045 1_545
Na29 O75 2.519139 1_555
Na29 O119 2.536963 1_555
Na29 O117 2.586020 1_555
Na29 O72 2.597350 1_655
Na29 O45 2.769494 1_555
Na29 O3 2.844027 1_555
Na29 O55 2.900467 1_555
Na29 O65 2.971640 1_555
Na30 O72 2.479084 1_655
Na30 O75 2.511584 1_555
Na30 O76 2.666525 1_665
Na30 O85 2.682627 1_565
Na30 O89 2.697283 1_555
Na30 O86 2.743154 1_665
Na31 O73 2.459293 1_555
Na31 O74 2.465539 1_555
Na31 O88 2.580222 1_555
Na31 O77 2.622433 1_565
Na31 O87 2.836612 1_565
Na31 O84 2.847410 1_565
Na32 O83 2.475316 1_555
Na32 O78 2.487512 1_665
Na32 O93 2.502157 1_566
Na32 O80 2.663235 1_655
Na32 O91 2.805746 1_556
Na32 O94 2.811186 1_666
Na33 O95 2.507773 1_555
Na33 O79 2.534454 1_554
Na33 O92 2.592689 1_555
Na33 O90 2.603519 1_545
Na33 O81 2.688739 1_544
Na33 O82 2.824829 1_544
Na34 O96 2.400356 1_555
Na34 O100 2.418502 1_555
Na34 O98 2.430894 1_555
Na34 O110 2.709562 1_555
Na34 O112 2.824462 1_555
Na34 O108 2.895839 1_555
Na35 O99 2.483120 1_555
Na35 O97 2.506688 1_555
Na35 O113 2.690099 1_555
Na35 O109 2.705028 1_555
Na35 O101 2.705828 1_555
Na35 O111 2.737662 1_555
Na36 O106 2.516412 1_555
Na36 O102 2.542253 1_555
Na36 O116 2.664756 1_555
Na36 O114 2.702398 1_555
Na36 O118 2.714987 1_555
Na36 O104 2.729989 1_555
Na37 O107 2.500971 1_555
Na37 O105 2.509797 1_555
Na37 O103 2.554985 1_555
Na37 O119 2.660128 1_555
Na37 O115 2.685490 1_555
Na37 O117 2.783866 1_555
Na38 O132 2.501252 1_555
Na38 O134 2.509242 1_555
Na38 O124 2.574727 1_555
Na38 O136 2.611923 1_555
Na38 O122 2.780772 1_555
Na38 O120 2.791668 1_555
Na39 O135 2.505422 1_555
Na39 O133 2.509158 1_555
Na39 O125 2.635464 1_555
Na39 O121 2.679658 1_555
Na39 O123 2.706795 1_555
Na39 O137 2.733779 1_555
Na40 O128 2.509361 1_555
Na40 O130 2.553302 1_555
Na40 O126 2.571151 1_555
Na40 O142 2.675790 1_555
Na40 O138 2.693237 1_555
Na40 O140 2.837214 1_555
Na41 O129 2.395809 1_555
Na41 O139 2.589409 1_555
Na41 O143 2.612293 1_555
Na41 O127 2.675410 1_555
Na41 O131 2.696412 1_555
Na41 O141 2.759468 1_555
Mg0 O26 2.024471 1_555
Mg0 O28 2.039313 1_555
Mg0 O98 2.083130 1_555
Mg0 O100 2.147372 1_555
Mg0 O96 2.186820 1_555
Mg0 O24 2.281298 1_555
Mg1 O29 2.002064 1_555
Mg1 O25 2.033702 1_555
Mg1 O99 2.148099 1_555
Mg1 O27 2.152479 1_555
Mg1 O97 2.153819 1_555
Mg1 O101 2.335589 1_555
Mg2 O32 2.039927 1_555
Mg2 O30 2.043774 1_555
Mg2 O106 2.112898 1_555
Mg2 O102 2.122726 1_555
Mg2 O34 2.204760 1_555
Mg2 O104 2.262363 1_555
Mg3 O35 2.041346 1_555
Mg3 O107 2.050122 1_555
Mg3 O33 2.053013 1_555
Mg3 O105 2.112385 1_555
Mg3 O103 2.127342 1_555
Mg3 O31 2.354441 1_555
Mg4 O52 1.942767 1_554
Mg4 O50 1.990538 1_554
Mg4 O124 2.086943 1_555
Mg4 O48 2.165980 1_554
Mg4 O122 2.260925 1_555
Mg4 O120 2.396595 1_555
Mg5 O55 1.954722 1_555
Mg5 O57 1.960135 1_555
Mg5 O59 2.031092 1_555
Mg5 O129 2.165599 1_555
Mg5 O131 2.469180 1_555
Mg5 O127 2.484825 1_555
O0 Si0 1.629629 1_555
O0 Zr0 2.056694 1_445
O1 Si1 1.640729 1_545
O1 Zr1 2.046312 1_545
O2 Si2 1.637664 1_555
O2 Zr1 2.008160 1_555
O3 Si3 1.642265 1_555
O3 Zr0 2.019541 1_555
O4 S0 1.484218 1_555
O4 Zr1 2.365496 1_545
O5 Si4 1.628390 1_555
O5 Zr0 2.033629 1_545
O6 Si5 1.645870 1_555
O6 Zr2 2.050688 1_455
O7 Si6 1.654468 1_555
O7 Zr3 1.962847 1_555
O8 Si7 1.646390 1_555
O8 Zr3 2.013701 1_565
O9 S1 1.485413 1_655
O9 Zr2 2.343619 1_565
O10 Si8 1.655581 1_555
O10 Zr3 2.012952 1_555
O11 Si9 1.645647 1_555
O11 Zr2 1.988702 1_555
O12 Si8 1.660380 1_565
O12 Zr5 2.002332 1_555
O13 Si9 1.651105 1_565
O13 Zr4 2.045867 1_565
O14 Si5 1.651530 1_555
O14 Zr4 2.076056 1_455
O15 Si6 1.650286 1_555
O15 Zr5 2.052149 1_545
O16 S1 1.479333 1_555
O16 Zr4 2.347497 1_465
O17 Si7 1.672138 1_555
O17 Zr5 1.974688 1_555
O18 Si2 1.664797 1_555
O18 Zr7 2.038900 1_555
O19 Si3 1.677900 1_555
O19 Zr6 1.985602 1_565
O20 Si4 1.685628 1_455
O20 Zr6 1.969651 1_455
O21 S0 1.494501 1_555
O21 Zr7 2.278159 1_545
O22 Si0 1.676185 1_565
O22 Zr6 2.041037 1_465
O23 Si1 1.665135 1_555
O23 Zr7 2.023778 1_555
O24 S2 1.468602 1_555
O25 Si10 1.611583 1_555
O26 Si11 1.606969 1_555
O27 S3 1.475028 1_555
O28 Si12 1.609304 1_555
O29 Si13 1.622674 1_555
O30 Si14 1.605687 1_555
O31 S4 1.454833 1_555
O32 Si15 1.612366 1_555
O33 Si16 1.603175 1_555
O34 S5 1.466702 1_555
O35 Si17 1.597668 1_555
O36 S5 1.500448 1_555
O36 Zr8 2.325525 1_554
O37 Si17 1.656073 1_555
O37 Zr9 2.020515 1_554
O38 Si14 1.656734 1_555
O38 Zr8 2.002296 1_554
O39 S4 1.503951 1_555
O39 Zr9 2.275061 1_554
O40 Si15 1.689497 1_555
O40 Zr8 1.976711 1_554
O41 Si16 1.658326 1_555
O41 Zr9 2.022384 1_554
O42 Si11 1.650308 1_555
O42 Zr10 2.034311 1_555
O43 S3 1.482377 1_555
O43 Zr11 2.397725 1_555
O44 Si12 1.647172 1_555
O44 Zr10 2.031337 1_555
O45 Si13 1.668863 1_555
O45 Zr11 2.067915 1_555
O46 S2 1.499663 1_555
O46 Zr10 2.286342 1_555
O47 Si10 1.634036 1_555
O47 Zr11 2.025410 1_555
O48 S6 1.470174 1_555
O49 Si18 1.639247 1_555
O49 Zr12 2.031374 1_556
O50 Si19 1.611514 1_555
O51 Si20 1.628599 1_555
O51 Zr12 2.044160 1_556
O52 Si21 1.607796 1_555
O53 S7 1.479781 1_555
O53 Zr12 2.298992 1_556
O54 Si22 1.641983 1_555
O54 Zr13 2.030451 1_555
O55 Si23 1.610860 1_555
O56 S8 1.486972 1_555
O56 Zr13 2.267309 1_555
O57 Si24 1.614659 1_555
O58 Si25 1.637565 1_555
O58 Zr13 2.017218 1_555
O59 Si26 1.612678 1_555
O60 Si25 1.635253 1_555
O60 Zr14 2.018224 1_555
O61 Si26 1.662418 1_555
O61 Zr15 2.046503 1_555
O62 Si22 1.639653 1_555
O62 Zr14 2.024500 1_555
O63 Si23 1.676804 1_555
O63 Zr15 1.974632 1_555
O64 S8 1.482316 1_555
O64 Zr14 2.292556 1_555
O65 Si24 1.668039 1_555
O65 Zr15 2.041936 1_555
O66 Si19 1.671372 1_555
O66 Zr16 2.011776 1_555
O67 Si20 1.630184 1_555
O67 Zr17 2.047509 1_555
O68 Si21 1.673272 1_555
O68 Zr16 2.037430 1_555
O69 S7 1.475526 1_555
O69 Zr17 2.302536 1_555
O70 S6 1.504629 1_555
O70 Zr16 2.187880 1_555
O71 Si18 1.638379 1_555
O71 Zr17 2.023190 1_555
O72 Si25 1.631399 1_555
O72 Zr0 2.136506 1_455
O73 Si26 1.657347 1_555
O73 Zr1 2.018081 1_555
O74 Si22 1.643264 1_555
O74 Zr1 2.111665 1_555
O75 Si23 1.639342 1_555
O75 Zr0 2.103436 1_555
O76 S8 1.466834 1_555
O76 Zr0 2.328766 1_445
O77 Si24 1.651999 1_555
O77 Zr1 2.117147 1_545
O78 Si19 1.653980 1_555
O78 Zr2 2.023234 1_455
O79 Si20 1.659126 1_555
O79 Zr3 2.135769 1_555
O80 Si21 1.641247 1_555
O80 Zr2 2.149885 1_465
O81 S7 1.489230 1_555
O81 Zr3 2.292688 1_565
O82 S6 1.482566 1_555
O82 Zr3 2.398629 1_565
O83 Si18 1.647976 1_555
O83 Zr2 2.105466 1_565
O84 S2 1.513968 1_555
O84 Zr5 2.365509 1_545
O85 Si10 1.670813 1_555
O85 Zr4 2.015328 1_555
O86 Si11 1.651714 1_555
O86 Zr4 2.124641 1_455
O87 S3 1.520413 1_555
O87 Zr5 2.307223 1_545
O88 Si12 1.695656 1_555
O88 Zr5 2.109478 1_555
O89 Si13 1.682000 1_555
O89 Zr4 2.092857 1_565
O90 Si14 1.667503 1_555
O90 Zr7 2.044445 1_555
O91 S4 1.511067 1_555
O91 Zr6 2.403780 1_565
O92 Si15 1.662109 1_555
O92 Zr7 2.144145 1_545
O93 Si16 1.694535 1_555
O93 Zr6 2.139994 1_555
O94 S5 1.512224 1_555
O94 Zr6 2.392313 1_455
O95 Si17 1.655061 1_555
O95 Zr7 2.149398 1_545
O96 Si8 1.605325 1_555
O97 Si9 1.622308 1_555
O98 Si5 1.616552 1_555
O99 Si6 1.609609 1_555
O100 Si7 1.608983 1_555
O101 S1 1.468208 1_655
O102 Si2 1.622691 1_555
O103 Si3 1.604466 1_555
O104 S0 1.479312 1_555
O105 Si4 1.606420 1_555
O106 Si0 1.620587 1_555
O107 Si1 1.611860 1_545
O108 S6 1.488563 1_555
O108 Zr8 2.362521 1_555
O109 Si18 1.648415 1_555
O109 Zr9 2.103376 1_555
O110 Si20 1.665077 1_555
O110 Zr8 2.021299 1_555
O111 Si19 1.639983 1_655
O111 Zr9 2.118497 1_555
O112 Si21 1.668760 1_545
O112 Zr8 2.132615 1_555
O113 S7 1.499506 1_545
O113 Zr9 2.190642 1_555
O114 Si22 1.646394 1_545
O114 Zr10 2.094697 1_555
O115 Si23 1.637854 1_545
O115 Zr11 2.093038 1_555
O116 S8 1.502161 1_555
O116 Zr10 2.176656 1_555
O117 Si24 1.648111 1_555
O117 Zr11 2.133578 1_555
O118 Si26 1.649537 1_555
O118 Zr10 2.095067 1_555
O119 Si25 1.647010 1_655
O119 Zr11 2.018791 1_555
O120 S5 1.486438 1_555
O121 Si17 1.671201 1_555
O121 Zr12 2.033812 1_555
O122 S4 1.492885 1_455
O123 Si14 1.651735 1_555
O123 Zr12 2.135964 1_555
O124 Si15 1.650956 1_565
O125 Si16 1.659327 1_565
O125 Zr12 2.132270 1_555
O126 Si11 1.670040 1_565
O126 Zr13 2.049027 1_555
O127 S3 1.485128 1_565
O128 Si12 1.656017 1_555
O128 Zr13 2.156058 1_555
O129 Si13 1.652614 1_555
O130 Si10 1.657726 1_455
O130 Zr13 2.148811 1_555
O131 S2 1.482121 1_555
O132 Si0 1.666324 1_565
O132 Zr14 2.067705 1_555
O133 Si1 1.662044 1_555
O133 Zr15 2.170504 1_555
O134 Si2 1.648229 1_555
O134 Zr14 2.148006 1_555
O135 Si3 1.649331 1_555
O135 Zr15 2.169771 1_555
O136 Si4 1.645422 1_455
O136 Zr14 2.136395 1_555
O137 S0 1.491863 1_555
O137 Zr15 2.414921 1_555
O138 Si5 1.674765 1_555
O138 Zr16 2.109204 1_555
O139 Si6 1.653627 1_555
O139 Zr17 2.058008 1_555
O140 S1 1.514219 1_555
O140 Zr16 2.221313 1_555
O141 Si7 1.639939 1_555
O141 Zr17 2.126356 1_555
O142 Si8 1.653379 1_565
O142 Zr16 2.122527 1_555
O143 Si9 1.649686 1_565
O143 Zr17 2.127945 1_555
