# generated using pymatgen
data_RbSr2Nb3O10
_symmetry_space_group_name_H-M   'P 1'
_cell_length_a   3.98608200
_cell_length_b   3.98608200
_cell_length_c   15.44041900
_cell_angle_alpha   90.00000000
_cell_angle_beta   90.00000000
_cell_angle_gamma   90.00000000
_symmetry_Int_Tables_number   1
_chemical_formula_structural   RbSr2Nb3O10
_chemical_formula_sum   'Rb1 Sr2 Nb3 O10'
_cell_volume   245.33049696
_cell_formula_units_Z   1
loop_
 _symmetry_equiv_pos_site_id
 _symmetry_equiv_pos_as_xyz
  1  'x, y, z'
loop_
 _atom_site_type_symbol
 _atom_site_label
 _atom_site_symmetry_multiplicity
 _atom_site_fract_x
 _atom_site_fract_y
 _atom_site_fract_z
 _atom_site_occupancy
  Rb  Rb0  1  0.50000000  0.50000000  0.50000000  1
  Sr  Sr0  1  0.50000000  0.50000000  0.14741400  1
  Sr  Sr1  1  0.50000000  0.50000000  0.85258600  1
  Nb  Nb0  1  0.00000000  0.00000000  0.00000000  1
  Nb  Nb1  1  0.00000000  0.00000000  0.28739200  1
  Nb  Nb2  1  0.00000000  0.00000000  0.71260800  1
  O  O0  1  0.00000000  0.00000000  0.59649100  1
  O  O1  1  0.00000000  0.00000000  0.40350900  1
  O  O2  1  0.50000000  0.00000000  0.73933600  1
  O  O3  1  0.00000000  0.50000000  0.73933600  1
  O  O4  1  0.50000000  0.00000000  0.26066400  1
  O  O5  1  0.00000000  0.50000000  0.26066400  1
  O  O6  1  0.00000000  0.50000000  0.00000000  1
  O  O7  1  0.50000000  0.00000000  0.00000000  1
  O  O8  1  0.00000000  0.00000000  0.12874100  1
  O  O9  1  0.00000000  0.00000000  0.87125900  1
loop_
_geom_bond_atom_site_label_1
_geom_bond_atom_site_label_2
_geom_bond_distance
_geom_bond_site_symmetry_2
Nb0 O8 1.987815 1_555
Nb0 O9 1.987815 1_554
Nb0 O7 1.993041 1_555
Nb0 O7 1.993041 1_455
Nb0 O6 1.993041 1_555
Nb0 O6 1.993041 1_545
Nb1 O1 1.792895 1_555
Nb1 O5 2.035320 1_545
Nb1 O4 2.035320 1_455
Nb1 O4 2.035320 1_555
Nb1 O5 2.035320 1_555
Nb1 O8 2.449638 1_555
Nb2 O0 1.792895 1_555
Nb2 O3 2.035320 1_555
Nb2 O2 2.035320 1_455
Nb2 O3 2.035320 1_545
Nb2 O2 2.035320 1_555
Nb2 O9 2.449638 1_555
O0 Rb0 3.188120 1_455
O0 Rb0 3.188120 1_555
O0 Rb0 3.188120 1_545
O0 Rb0 3.188120 1_445
O1 Rb0 3.188120 1_455
O1 Rb0 3.188120 1_445
O1 Rb0 3.188120 1_555
O1 Rb0 3.188120 1_545
O2 Sr1 2.651398 1_555
O2 Sr1 2.651398 1_545
O3 Sr1 2.651398 1_555
O3 Sr1 2.651398 1_455
O4 Sr0 2.651398 1_545
O4 Sr0 2.651398 1_555
O5 Sr0 2.651398 1_555
O5 Sr0 2.651398 1_455
O6 Sr0 3.025392 1_455
O6 Sr0 3.025392 1_555
O6 Sr1 3.025392 1_454
O6 Sr1 3.025392 1_554
O7 Sr0 3.025392 1_555
O7 Sr1 3.025392 1_554
O7 Sr0 3.025392 1_545
O7 Sr1 3.025392 1_544
O8 Sr0 2.833294 1_455
O8 Sr0 2.833294 1_555
O8 Sr0 2.833294 1_445
O8 Sr0 2.833294 1_545
O9 Sr1 2.833294 1_455
O9 Sr1 2.833294 1_545
O9 Sr1 2.833294 1_555
O9 Sr1 2.833294 1_445
