# generated using pymatgen
data_MgV2(CoO4)2
_symmetry_space_group_name_H-M   'P 1'
_cell_length_a   5.12988489
_cell_length_b   5.32256644
_cell_length_c   6.35162000
_cell_angle_alpha   90.00000000
_cell_angle_beta   90.00000000
_cell_angle_gamma   67.42189747
_symmetry_Int_Tables_number   1
_chemical_formula_structural   MgV2(CoO4)2
_chemical_formula_sum   'Mg1 V2 Co2 O8'
_cell_volume   160.13375044
_cell_formula_units_Z   1
loop_
 _symmetry_equiv_pos_site_id
 _symmetry_equiv_pos_as_xyz
  1  'x, y, z'
loop_
 _atom_site_type_symbol
 _atom_site_label
 _atom_site_symmetry_multiplicity
 _atom_site_fract_x
 _atom_site_fract_y
 _atom_site_fract_z
 _atom_site_occupancy
  Mg  Mg0  1  0.57405400  0.84537700  0.25000000  1
  V  V0  1  0.33504100  0.37726200  0.25000000  1
  V  V1  1  0.64654800  0.63910600  0.75000000  1
  Co  Co0  1  0.99360400  0.01115200  0.98872500  1
  Co  Co1  1  0.99360400  0.01115200  0.51127500  1
  O  O0  1  0.23862900  0.22897900  0.04399200  1
  O  O1  1  0.23862900  0.22897900  0.45600800  1
  O  O2  1  0.23494200  0.74493200  0.25000000  1
  O  O3  1  0.27663100  0.78572600  0.75000000  1
  O  O4  1  0.71147400  0.19194700  0.25000000  1
  O  O5  1  0.77305600  0.28152600  0.75000000  1
  O  O6  1  0.76689400  0.75193000  0.97509300  1
  O  O7  1  0.76689400  0.75193000  0.52490700  1
loop_
_geom_bond_atom_site_label_1
_geom_bond_atom_site_label_2
_geom_bond_distance
_geom_bond_site_symmetry_2
Mg0 O6 1.974096 1_554
Mg0 O7 1.974096 1_555
Mg0 O2 2.006543 1_555
Mg0 O4 2.213187 1_565
Mg0 O1 2.478688 1_565
Mg0 O0 2.478688 1_565
Co0 O0 2.041176 1_656
Co0 O5 2.097592 1_555
Co0 O6 2.120345 1_545
Co0 O3 2.123458 1_645
Co0 O4 2.169153 1_556
Co0 O2 2.224293 1_646
Co1 O1 2.041176 1_655
Co1 O5 2.097592 1_555
Co1 O7 2.120345 1_545
Co1 O3 2.123458 1_645
Co1 O4 2.169153 1_555
Co1 O2 2.224293 1_645
O0 V0 1.696878 1_555
O1 V0 1.696878 1_555
O2 V0 1.822550 1_555
O3 V1 1.752957 1_555
O4 V0 1.799801 1_555
O5 V1 1.759274 1_555
O6 V1 1.752281 1_555
O7 V1 1.752281 1_555
