# generated using pymatgen
data_Co4NiO8
_symmetry_space_group_name_H-M   'P 1'
_cell_length_a   5.64124235
_cell_length_b   5.62878239
_cell_length_c   5.80836191
_cell_angle_alpha   89.87780838
_cell_angle_beta   62.51025176
_cell_angle_gamma   59.83364116
_symmetry_Int_Tables_number   1
_chemical_formula_structural   Co4NiO8
_chemical_formula_sum   'Co4 Ni1 O8'
_cell_volume   134.95296097
_cell_formula_units_Z   1
loop_
 _symmetry_equiv_pos_site_id
 _symmetry_equiv_pos_as_xyz
  1  'x, y, z'
loop_
 _atom_site_type_symbol
 _atom_site_label
 _atom_site_symmetry_multiplicity
 _atom_site_fract_x
 _atom_site_fract_y
 _atom_site_fract_z
 _atom_site_occupancy
  Co  Co0  1  0.00000000  0.50000000  0.50000000  1
  Co  Co1  1  0.00000000  0.00000000  0.00000000  1
  Co  Co2  1  0.50000000  0.00000000  0.00000000  1
  Co  Co3  1  0.00000000  0.50000000  0.00000000  1
  Ni  Ni0  1  0.50000000  0.50000000  0.00000000  1
  O  O0  1  0.46070500  0.26898600  0.80673300  1
  O  O1  1  0.95412600  0.27954800  0.79635900  1
  O  O2  1  0.47309300  0.76172600  0.79656100  1
  O  O3  1  0.95536700  0.76817200  0.79580800  1
  O  O4  1  0.04463300  0.23182800  0.20419200  1
  O  O5  1  0.52690700  0.23827400  0.20343900  1
  O  O6  1  0.04587400  0.72045200  0.20364100  1
  O  O7  1  0.53929500  0.73101400  0.19326700  1
loop_
_geom_bond_atom_site_label_1
_geom_bond_atom_site_label_2
_geom_bond_distance
_geom_bond_site_symmetry_2
Co0 O6 2.114759 1_555
Co0 O1 2.114759 1_455
Co0 O3 2.126903 1_455
Co0 O4 2.126903 1_555
Co0 O2 2.203583 1_455
Co0 O5 2.203583 1_555
Co1 O4 1.945591 1_555
Co1 O3 1.945591 1_444
Co1 O1 1.951251 1_454
Co1 O6 1.951251 1_545
Co1 O2 1.953395 1_544
Co1 O5 1.953395 1_455
Co2 O7 1.867309 1_545
Co2 O0 1.867309 1_554
Co2 O3 1.879725 1_544
Co2 O4 1.879725 1_555
Co2 O5 1.896067 1_555
Co2 O2 1.896067 1_544
Co3 O1 1.901943 1_454
Co3 O6 1.901943 1_555
Co3 O7 1.903137 1_455
Co3 O0 1.903137 1_554
Co3 O4 1.906475 1_555
Co3 O3 1.906475 1_454
Ni0 O1 1.875044 1_554
Ni0 O6 1.875044 1_555
Ni0 O5 1.876982 1_555
Ni0 O2 1.876982 1_554
Ni0 O0 1.877708 1_554
Ni0 O7 1.877708 1_555
