# generated using pymatgen
data_NaMg3Nb(SO4)6
_symmetry_space_group_name_H-M   'P 1'
_cell_length_a   8.70373010
_cell_length_b   8.70372982
_cell_length_c   22.61884670
_cell_angle_alpha   90.00000000
_cell_angle_beta   90.00000000
_cell_angle_gamma   120.00000107
_symmetry_Int_Tables_number   1
_chemical_formula_structural   NaMg3Nb(SO4)6
_chemical_formula_sum   'Na3 Mg9 Nb3 S18 O72'
_cell_volume   1483.92482597
_cell_formula_units_Z   3
loop_
 _symmetry_equiv_pos_site_id
 _symmetry_equiv_pos_as_xyz
  1  'x, y, z'
loop_
 _atom_site_type_symbol
 _atom_site_label
 _atom_site_symmetry_multiplicity
 _atom_site_fract_x
 _atom_site_fract_y
 _atom_site_fract_z
 _atom_site_occupancy
  Na  Na0  1  -0.00000000  0.00000000  0.00291858  1
  Na  Na1  1  0.66666700  0.33333300  0.83615114  1
  Na  Na2  1  0.66666700  0.33333300  0.32457288  1
  Mg  Mg0  1  -0.00000000  0.00000000  0.34684525  1
  Mg  Mg1  1  -0.00000000  0.00000000  0.85616471  1
  Mg  Mg2  1  -0.00000000  0.00000000  0.15688700  1
  Mg  Mg3  1  0.66666700  0.33333300  0.68548487  1
  Mg  Mg4  1  0.66666700  0.33333300  0.19011772  1
  Mg  Mg5  1  0.66666700  0.33333300  0.98226619  1
  Mg  Mg6  1  0.66666700  0.33333300  0.47939576  1
  Mg  Mg7  1  0.33333300  0.66666700  0.30292450  1
  Mg  Mg8  1  0.33333300  0.66666700  0.81246256  1
  Nb  Nb0  1  -0.00000000  0.00000000  0.64722260  1
  Nb  Nb1  1  0.33333300  0.66666700  0.02501505  1
  Nb  Nb2  1  0.33333300  0.66666700  0.51469553  1
  S  S0  1  0.29453490  0.00346229  0.25100601  1
  S  S1  1  0.70892739  0.70546510  0.25100601  1
  S  S2  1  0.99653771  0.29107261  0.25100601  1
  S  S3  1  0.29406893  0.29130250  0.75237959  1
  S  S4  1  0.99723357  0.70593107  0.75237959  1
  S  S5  1  0.70869750  0.00276643  0.75237959  1
  S  S6  1  0.95561214  0.33569759  0.58367385  1
  S  S7  1  0.38008644  0.04438786  0.58367385  1
  S  S8  1  0.66430241  0.61991356  0.58367385  1
  S  S9  1  0.94961687  0.62624653  0.08252329  1
  S  S10  1  0.67663066  0.05038313  0.08252329  1
  S  S11  1  0.37375347  0.32336934  0.08252329  1
  S  S12  1  0.62328192  0.66481805  0.91542503  1
  S  S13  1  0.04153512  0.37671808  0.91542503  1
  S  S14  1  0.33518195  0.95846488  0.91542503  1
  S  S15  1  0.62823927  0.96314006  0.41274934  1
  S  S16  1  0.33489979  0.37176073  0.41274934  1
  S  S17  1  0.03685994  0.66510021  0.41274934  1
  O  O0  1  0.21384421  0.03320461  0.30436808  1
  O  O1  1  0.81936040  0.78615579  0.30436808  1
  O  O2  1  0.96679539  0.18063960  0.30436808  1
  O  O3  1  0.20792727  0.17653481  0.80308022  1
  O  O4  1  0.96860753  0.79207273  0.80308022  1
  O  O5  1  0.82346519  0.03139247  0.80308022  1
  O  O6  1  0.80455075  0.98256664  0.69651830  1
  O  O7  1  0.17801588  0.19544925  0.69651830  1
  O  O8  1  0.01743336  0.82198412  0.69651830  1
  O  O9  1  0.78944494  0.81050011  0.19699206  1
  O  O10  1  0.02105517  0.21055506  0.19699206  1
  O  O11  1  0.18949989  0.97894483  0.19699206  1
  O  O12  1  0.87979592  0.36438456  0.63697623  1
  O  O13  1  0.48458964  0.12020408  0.63697623  1
  O  O14  1  0.63561544  0.51541036  0.63697623  1
  O  O15  1  0.88037027  0.51700664  0.13456715  1
  O  O16  1  0.63663737  0.11962973  0.13456715  1
  O  O17  1  0.48299336  0.36336263  0.13456715  1
  O  O18  1  0.45396606  0.30392479  0.02826568  1
  O  O19  1  0.84995973  0.54603394  0.02826568  1
  O  O20  1  0.69607521  0.15004027  0.02826568  1
  O  O21  1  0.45194129  0.15225397  0.53105322  1
  O  O22  1  0.70031369  0.54805871  0.53105322  1
  O  O23  1  0.84774603  0.29968631  0.53105322  1
  O  O24  1  0.53200758  0.68634980  0.96970178  1
  O  O25  1  0.15434122  0.46799242  0.96970178  1
  O  O26  1  0.31365020  0.84565878  0.96970178  1
  O  O27  1  0.52841241  0.84358343  0.47098408  1
  O  O28  1  0.31517002  0.47158759  0.47098408  1
  O  O29  1  0.15641657  0.68482998  0.47098408  1
  O  O30  1  0.12719516  0.63632968  0.36441359  1
  O  O31  1  0.50913352  0.87280484  0.36441359  1
  O  O32  1  0.36367032  0.49086648  0.36441359  1
  O  O33  1  0.12536029  0.48337347  0.86270234  1
  O  O34  1  0.35801218  0.87463971  0.86270234  1
  O  O35  1  0.51662653  0.64198782  0.86270234  1
  O  O36  1  0.03046817  0.82786264  0.41272795  1
  O  O37  1  0.79739447  0.96953183  0.41272795  1
  O  O38  1  0.17213736  0.20260553  0.41272795  1
  O  O39  1  0.02998345  0.20139142  0.91333391  1
  O  O40  1  0.17140798  0.97001655  0.91333391  1
  O  O41  1  0.79860858  0.82859202  0.91333391  1
  O  O42  1  0.98085369  0.17566839  0.59370361  1
  O  O43  1  0.19481470  0.01914631  0.59370361  1
  O  O44  1  0.82433161  0.80518530  0.59370361  1
  O  O45  1  0.98450720  0.80844546  0.08802898  1
  O  O46  1  0.82393826  0.01549280  0.08802898  1
  O  O47  1  0.19155454  0.17606174  0.08802898  1
  O  O48  1  0.69376783  0.16161617  0.74234077  1
  O  O49  1  0.46784933  0.30623217  0.74234077  1
  O  O50  1  0.83838383  0.53215067  0.74234077  1
  O  O51  1  0.68984347  0.52629885  0.24516272  1
  O  O52  1  0.83645638  0.31015653  0.24516272  1
  O  O53  1  0.47370115  0.16354362  0.24516272  1
  O  O54  1  0.64097880  0.50630496  0.92302232  1
  O  O55  1  0.86532716  0.35902120  0.92302232  1
  O  O56  1  0.49369504  0.13467284  0.92302232  1
  O  O57  1  0.63978833  0.13359297  0.42542679  1
  O  O58  1  0.49380564  0.36021167  0.42542679  1
  O  O59  1  0.86640703  0.50619436  0.42542679  1
  O  O60  1  0.35508468  0.49274189  0.07182251  1
  O  O61  1  0.13765621  0.64491532  0.07182251  1
  O  O62  1  0.50725811  0.86234379  0.07182251  1
  O  O63  1  0.35092051  0.86147841  0.57529331  1
  O  O64  1  0.51055690  0.64907949  0.57529331  1
  O  O65  1  0.13852159  0.48944310  0.57529331  1
  O  O66  1  0.31099763  0.84513842  0.25819258  1
  O  O67  1  0.53413979  0.68900237  0.25819258  1
  O  O68  1  0.15486158  0.46586021  0.25819258  1
  O  O69  1  0.30254288  0.46203392  0.75474523  1
  O  O70  1  0.15949004  0.69745712  0.75474523  1
  O  O71  1  0.53796608  0.84050996  0.75474523  1
loop_
_geom_bond_atom_site_label_1
_geom_bond_atom_site_label_2
_geom_bond_distance
_geom_bond_site_symmetry_2
Na0 O45 2.505805 1_445
Na0 O47 2.505805 1_555
Na0 O46 2.505805 1_455
Na0 O39 2.605584 1_554
Na0 O41 2.605584 1_444
Na0 O40 2.605585 1_544
Na1 O56 2.552266 1_555
Na1 O54 2.552266 1_555
Na1 O55 2.552266 1_555
Na1 O48 2.672886 1_555
Na1 O50 2.672886 1_555
Na1 O49 2.672886 1_555
Na2 O51 2.397687 1_555
Na2 O53 2.397687 1_555
Na2 O52 2.397687 1_555
Na2 O57 2.806103 1_555
Na2 O59 2.806103 1_555
Na2 O58 2.806103 1_555
Mg0 O1 1.983166 1_445
Mg0 O2 1.983166 1_455
Mg0 O0 1.983166 1_555
Mg0 O38 2.221040 1_555
Mg0 O36 2.221040 1_545
Mg0 O37 2.221040 1_445
Mg1 O4 2.072933 1_445
Mg1 O3 2.072933 1_555
Mg1 O5 2.072933 1_455
Mg1 O39 2.086931 1_555
Mg1 O41 2.086931 1_445
Mg1 O40 2.086931 1_545
Mg2 O10 1.969544 1_555
Mg2 O9 1.969544 1_445
Mg2 O11 1.969544 1_545
Mg2 O45 2.235805 1_445
Mg2 O47 2.235805 1_555
Mg2 O46 2.235805 1_455
Mg3 O13 2.053449 1_555
Mg3 O14 2.053449 1_555
Mg3 O12 2.053449 1_555
Mg3 O48 2.072624 1_555
Mg3 O50 2.072624 1_555
Mg3 O49 2.072624 1_555
Mg4 O51 2.018131 1_555
Mg4 O53 2.018131 1_555
Mg4 O52 2.018131 1_555
Mg4 O16 2.149555 1_555
Mg4 O15 2.149555 1_555
Mg4 O17 2.149555 1_555
Mg5 O19 2.025212 1_556
Mg5 O20 2.025212 1_556
Mg5 O18 2.025212 1_556
Mg5 O56 2.109219 1_555
Mg5 O54 2.109219 1_555
Mg5 O55 2.109219 1_555
Mg6 O57 2.039729 1_555
Mg6 O59 2.039729 1_555
Mg6 O58 2.039729 1_555
Mg6 O22 2.096789 1_555
Mg6 O21 2.096789 1_555
Mg6 O23 2.096789 1_555
Mg7 O68 1.943303 1_555
Mg7 O66 1.943303 1_555
Mg7 O67 1.943303 1_555
Mg7 O31 2.179306 1_555
Mg7 O32 2.179306 1_555
Mg7 O30 2.179306 1_555
Mg8 O34 2.055541 1_555
Mg8 O33 2.055541 1_555
Mg8 O35 2.055541 1_555
Mg8 O69 2.114487 1_555
Mg8 O71 2.114487 1_555
Mg8 O70 2.114487 1_555
Nb0 O8 1.975353 1_545
Nb0 O7 1.975353 1_555
Nb0 O6 1.975353 1_445
Nb0 O44 2.021315 1_445
Nb0 O42 2.021315 1_455
Nb0 O43 2.021316 1_555
Nb1 O62 1.932596 1_555
Nb1 O60 1.932596 1_555
Nb1 O61 1.932596 1_555
Nb1 O25 2.070890 1_554
Nb1 O26 2.070890 1_554
Nb1 O24 2.070890 1_554
Nb2 O28 1.901850 1_555
Nb2 O27 1.901850 1_555
Nb2 O29 1.901850 1_555
Nb2 O63 2.125459 1_555
Nb2 O65 2.125459 1_555
Nb2 O64 2.125459 1_555
O0 S0 1.482862 1_555
O1 S1 1.482862 1_555
O2 S2 1.482862 1_555
O3 S3 1.458128 1_555
O4 S4 1.458128 1_555
O5 S5 1.458128 1_555
O6 S5 1.571652 1_565
O7 S3 1.571652 1_555
O8 S4 1.571652 1_455
O9 S1 1.476090 1_555
O10 S2 1.476090 1_455
O11 S0 1.476090 1_565
O12 S6 1.454687 1_555
O13 S7 1.454687 1_555
O14 S8 1.454687 1_555
O15 S9 1.442203 1_555
O16 S10 1.442203 1_555
O17 S11 1.442203 1_555
O18 S11 1.462989 1_555
O19 S9 1.462989 1_555
O20 S10 1.462989 1_555
O21 S7 1.449832 1_555
O22 S8 1.449832 1_555
O23 S6 1.449832 1_555
O24 S12 1.523912 1_555
O25 S13 1.523912 1_555
O26 S14 1.523912 1_555
O27 S15 1.633598 1_555
O28 S16 1.633598 1_555
O29 S17 1.633598 1_555
O30 S17 1.439823 1_555
O31 S15 1.439823 1_555
O32 S16 1.439823 1_555
O33 S13 1.462492 1_555
O34 S14 1.462492 1_555
O35 S12 1.462492 1_555
O36 S17 1.445260 1_555
O37 S15 1.445268 1_555
O38 S16 1.445264 1_555
O39 S13 1.479048 1_555
O40 S14 1.479039 1_555
O41 S12 1.479044 1_555
O42 S6 1.531590 1_555
O43 S7 1.531599 1_555
O44 S8 1.531596 1_555
O45 S9 1.463198 1_555
O46 S10 1.463190 1_555
O47 S11 1.463195 1_555
O48 S5 1.469573 1_555
O49 S3 1.469582 1_555
O50 S4 1.469578 1_555
O51 S1 1.489232 1_555
O52 S2 1.489223 1_555
O53 S0 1.489228 1_555
O54 S12 1.472824 1_555
O55 S13 1.472806 1_655
O56 S14 1.472814 1_545
O57 S15 1.464308 1_545
O58 S16 1.464325 1_555
O59 S17 1.464316 1_655
O60 S11 1.580413 1_555
O61 S9 1.580396 1_455
O62 S10 1.580404 1_565
O63 S7 1.493549 1_565
O64 S8 1.493566 1_555
O65 S6 1.493555 1_455
O66 S0 1.464005 1_565
O67 S1 1.464014 1_555
O68 S2 1.464010 1_455
O69 S3 1.451516 1_555
O70 S4 1.451508 1_455
O71 S5 1.451512 1_565
