# generated using pymatgen
data_CrP2O7
_symmetry_space_group_name_H-M   'P 1'
_cell_length_a   6.84570616
_cell_length_b   8.07370500
_cell_length_c   9.35024948
_cell_angle_alpha   90.00000000
_cell_angle_beta   108.37152075
_cell_angle_gamma   90.00000000
_symmetry_Int_Tables_number   1
_chemical_formula_structural   CrP2O7
_chemical_formula_sum   'Cr4 P8 O28'
_cell_volume   490.45091290
_cell_formula_units_Z   4
loop_
 _symmetry_equiv_pos_site_id
 _symmetry_equiv_pos_as_xyz
  1  'x, y, z'
loop_
 _atom_site_type_symbol
 _atom_site_label
 _atom_site_symmetry_multiplicity
 _atom_site_fract_x
 _atom_site_fract_y
 _atom_site_fract_z
 _atom_site_occupancy
  Cr  Cr0  1  0.27966900  0.22821000  0.99534400  1
  Cr  Cr1  1  0.27966900  0.27179000  0.49534400  1
  Cr  Cr2  1  0.72034200  0.72810700  0.50462500  1
  Cr  Cr3  1  0.72034200  0.77189300  0.00462500  1
  P  P0  1  0.06831300  0.46911000  0.70664800  1
  P  P1  1  0.06831300  0.03089000  0.20664800  1
  P  P2  1  0.93175100  0.96921000  0.79337800  1
  P  P3  1  0.93175100  0.53079000  0.29337800  1
  P  P4  1  0.46748800  0.58728400  0.70518900  1
  P  P5  1  0.53249000  0.08739300  0.79478000  1
  P  P6  1  0.46748800  0.91271600  0.20518900  1
  P  P7  1  0.53249000  0.41260700  0.29478000  1
  O  O0  1  0.11224500  0.39832000  0.86413600  1
  O  O1  1  0.11224500  0.10168000  0.36413600  1
  O  O2  1  0.88774000  0.89833500  0.63587100  1
  O  O3  1  0.88774000  0.60166500  0.13587100  1
  O  O4  1  0.13947300  0.05489400  0.84400300  1
  O  O5  1  0.13947300  0.44510600  0.34400300  1
  O  O6  1  0.86053400  0.55484700  0.65600700  1
  O  O7  1  0.86053400  0.94515300  0.15600700  1
  O  O8  1  0.08572300  0.33362700  0.59316000  1
  O  O9  1  0.08572300  0.16637300  0.09316000  1
  O  O10  1  0.91430300  0.83366400  0.90686700  1
  O  O11  1  0.91430300  0.66633600  0.40686700  1
  O  O12  1  0.23504700  0.61352700  0.70744300  1
  O  O13  1  0.23504700  0.88647300  0.20744300  1
  O  O14  1  0.76494700  0.11359300  0.79256100  1
  O  O15  1  0.76494700  0.38640700  0.29256100  1
  O  O16  1  0.48278900  0.22663900  0.88999800  1
  O  O17  1  0.51719000  0.72660200  0.60999700  1
  O  O18  1  0.48278900  0.27336100  0.38999800  1
  O  O19  1  0.51719000  0.77339800  0.10999700  1
  O  O20  1  0.39446300  0.09457000  0.62837900  1
  O  O21  1  0.60552000  0.59456900  0.87162600  1
  O  O22  1  0.39446300  0.40543000  0.12837900  1
  O  O23  1  0.60552000  0.90543100  0.37162600  1
  O  O24  1  0.52443700  0.91715700  0.86158100  1
  O  O25  1  0.47553500  0.41711300  0.63840700  1
  O  O26  1  0.52443700  0.58284300  0.36158100  1
  O  O27  1  0.47553500  0.08288700  0.13840700  1
loop_
_geom_bond_atom_site_label_1
_geom_bond_atom_site_label_2
_geom_bond_distance
_geom_bond_site_symmetry_2
Cr0 O22 1.896295 1_556
Cr0 O9 1.901049 1_556
Cr0 O16 1.940945 1_555
Cr0 O0 1.954139 1_555
Cr0 O27 1.957866 1_556
Cr0 O4 2.006365 1_555
Cr1 O20 1.896295 1_555
Cr1 O8 1.901049 1_555
Cr1 O18 1.940945 1_555
Cr1 O1 1.954139 1_555
Cr1 O25 1.957866 1_555
Cr1 O5 2.006365 1_555
Cr2 O23 1.896791 1_555
Cr2 O11 1.900616 1_555
Cr2 O17 1.941312 1_555
Cr2 O2 1.954897 1_555
Cr2 O26 1.957623 1_555
Cr2 O6 2.006255 1_555
Cr3 O21 1.896791 1_554
Cr3 O10 1.900616 1_554
Cr3 O19 1.941312 1_555
Cr3 O3 1.954897 1_555
Cr3 O24 1.957623 1_554
Cr3 O7 2.006255 1_555
O0 P0 1.518668 1_555
O1 P1 1.518668 1_555
O2 P2 1.519029 1_555
O3 P3 1.519029 1_555
O4 P2 1.516717 1_445
O5 P3 1.516717 1_455
O6 P0 1.517242 1_655
O7 P1 1.517242 1_665
O8 P0 1.554495 1_555
O9 P1 1.554495 1_555
O10 P2 1.554935 1_555
O11 P3 1.554935 1_555
O12 P4 1.611976 1_555
O12 P0 1.630042 1_555
O13 P6 1.611976 1_555
O13 P1 1.630042 1_565
O14 P5 1.611933 1_555
O14 P2 1.630137 1_545
O15 P7 1.611933 1_555
O15 P3 1.630137 1_555
O16 P5 1.537290 1_555
O17 P4 1.537560 1_555
O18 P7 1.537290 1_555
O19 P6 1.537560 1_555
O20 P5 1.546047 1_555
O21 P4 1.546363 1_555
O22 P7 1.546047 1_555
O23 P6 1.546363 1_555
O24 P5 1.517877 1_565
O25 P4 1.517319 1_555
O26 P7 1.517877 1_555
O27 P6 1.517319 1_545
