# generated using pymatgen
data_Rb2CuCl4
_symmetry_space_group_name_H-M   'P 1'
_cell_length_a   8.61040034
_cell_length_b   8.61040034
_cell_length_c   7.14770802
_cell_angle_alpha   90.00000000
_cell_angle_beta   90.00000000
_cell_angle_gamma   131.03683388
_symmetry_Int_Tables_number   1
_chemical_formula_structural   Rb2CuCl4
_chemical_formula_sum   'Rb4 Cu2 Cl8'
_cell_volume   399.71504651
_cell_formula_units_Z   2
loop_
 _symmetry_equiv_pos_site_id
 _symmetry_equiv_pos_as_xyz
  1  'x, y, z'
loop_
 _atom_site_type_symbol
 _atom_site_label
 _atom_site_symmetry_multiplicity
 _atom_site_fract_x
 _atom_site_fract_y
 _atom_site_fract_z
 _atom_site_occupancy
  Rb  Rb0  1  0.13903692  0.86096308  0.50000000  1
  Rb  Rb1  1  0.63903692  0.36096308  -0.00000000  1
  Rb  Rb2  1  0.36096308  0.63903692  0.00000000  1
  Rb  Rb3  1  0.86096308  0.13903692  0.50000000  1
  Cu  Cu0  1  0.00000000  0.00000000  0.00000000  1
  Cu  Cu1  1  0.50000000  0.50000000  0.50000000  1
  Cl  Cl0  1  0.84955180  0.15044820  0.00000000  1
  Cl  Cl1  1  0.65044820  0.34955180  0.50000000  1
  Cl  Cl2  1  0.15044820  0.84955180  0.00000000  1
  Cl  Cl3  1  0.22563022  0.22563022  0.77506854  1
  Cl  Cl4  1  0.34955180  0.65044820  0.50000000  1
  Cl  Cl5  1  0.27436978  0.27436978  0.27506854  1
  Cl  Cl6  1  0.72563022  0.72563022  0.72493146  1
  Cl  Cl7  1  0.77436978  0.77436978  0.22493146  1
loop_
_geom_bond_atom_site_label_1
_geom_bond_atom_site_label_2
_geom_bond_distance
_geom_bond_site_symmetry_2
Cl0 Cu0 2.357908 1_655
Cl0 Rb1 3.299306 1_555
Cl0 Rb2 3.572635 1_655
Cl0 Rb2 3.572635 1_545
Cl0 Rb3 3.578326 1_554
Cl0 Rb3 3.578326 1_555
Cl1 Cu1 2.357908 1_555
Cl1 Rb3 3.299306 1_555
Cl1 Rb0 3.572635 1_545
Cl1 Rb0 3.572635 1_655
Cl1 Rb1 3.578326 1_555
Cl1 Rb1 3.578326 1_556
Cl2 Cu0 2.357908 1_565
Cl2 Rb2 3.299306 1_555
Cl2 Rb1 3.572635 1_565
Cl2 Rb1 3.572635 1_455
Cl2 Rb0 3.578326 1_555
Cl2 Rb0 3.578326 1_554
Cl3 Cu0 2.275408 1_556
Cl3 Cu1 2.774762 1_555
Cl3 Rb2 3.341688 1_556
Cl3 Rb1 3.341688 1_556
Cl3 Rb3 3.347618 1_455
Cl3 Rb0 3.347618 1_545
Cl4 Cu1 2.357908 1_555
Cl4 Rb0 3.299306 1_555
Cl4 Rb3 3.572635 1_455
Cl4 Rb3 3.572635 1_565
Cl4 Rb2 3.578326 1_555
Cl4 Rb2 3.578326 1_556
Cl5 Cu1 2.275408 1_555
Cl5 Cu0 2.774762 1_555
Cl5 Rb0 3.341688 1_545
Cl5 Rb3 3.341688 1_455
Cl5 Rb1 3.347618 1_555
Cl5 Rb2 3.347618 1_555
Cl6 Cu1 2.275408 1_555
Cl6 Cu0 2.774762 1_666
Cl6 Rb3 3.341688 1_565
Cl6 Rb0 3.341688 1_655
Cl6 Rb2 3.347618 1_556
Cl6 Rb1 3.347618 1_556
Cl7 Cu0 2.275408 1_665
Cl7 Cu1 2.774762 1_555
Cl7 Rb2 3.341688 1_555
Cl7 Rb1 3.341688 1_555
Cl7 Rb0 3.347618 1_655
Cl7 Rb3 3.347618 1_565
