# generated using pymatgen
data_CsAgBr2
_symmetry_space_group_name_H-M   'P 1'
_cell_length_a   4.64000459
_cell_length_b   5.90784708
_cell_length_c   10.30776918
_cell_angle_alpha   90.00000000
_cell_angle_beta   103.00716701
_cell_angle_gamma   90.00000000
_symmetry_Int_Tables_number   1
_chemical_formula_structural   CsAgBr2
_chemical_formula_sum   'Cs2 Ag2 Br4'
_cell_volume   275.31110414
_cell_formula_units_Z   2
loop_
 _symmetry_equiv_pos_site_id
 _symmetry_equiv_pos_as_xyz
  1  'x, y, z'
loop_
 _atom_site_type_symbol
 _atom_site_label
 _atom_site_symmetry_multiplicity
 _atom_site_fract_x
 _atom_site_fract_y
 _atom_site_fract_z
 _atom_site_occupancy
  Cs  Cs0  1  0.58552057  0.75000000  0.17104114  1
  Cs  Cs1  1  0.41447943  0.25000000  0.82895886  1
  Ag  Ag0  1  0.20120866  0.25000000  0.40241832  1
  Ag  Ag1  1  0.79879134  0.75000000  0.59758168  1
  Br  Br0  1  0.93080071  0.75000000  0.86160142  1
  Br  Br1  1  0.06919929  0.25000000  0.13839858  1
  Br  Br2  1  0.77457915  0.25000000  0.54915829  1
  Br  Br3  1  0.22542085  0.75000000  0.45084171  1
loop_
_geom_bond_atom_site_label_1
_geom_bond_atom_site_label_2
_geom_bond_distance
_geom_bond_site_symmetry_2
Ag0 Br1 2.651627 1_555
Ag0 Br2 2.748517 1_455
Ag0 Br2 2.748521 1_555
Ag0 Br3 2.993690 1_555
Ag0 Br3 2.993690 1_545
Ag1 Br0 2.651627 1_555
Ag1 Br3 2.748517 1_655
Ag1 Br3 2.748521 1_555
Ag1 Br2 2.993690 1_555
Ag1 Br2 2.993690 1_565
Br0 Cs1 3.770352 1_665
Br0 Cs1 3.770352 1_655
Br0 Cs1 3.770352 1_555
Br0 Cs1 3.770352 1_565
Br0 Cs0 3.878245 1_556
Br0 Cs0 3.878246 1_656
Br1 Cs0 3.770352 1_455
Br1 Cs0 3.770352 1_445
Br1 Cs0 3.770352 1_555
Br1 Cs0 3.770352 1_545
Br1 Cs1 3.878245 1_554
Br1 Cs1 3.878246 1_454
Br2 Cs1 3.644060 1_555
Br2 Cs1 3.644061 1_655
Br3 Cs0 3.644060 1_555
Br3 Cs0 3.644061 1_455
