# generated using pymatgen
data_MgTe2Mo3W(Se2S)2
_symmetry_space_group_name_H-M   'P 1'
_cell_length_a   3.34221400
_cell_length_b   3.34193668
_cell_length_c   44.63005100
_cell_angle_alpha   90.00030146
_cell_angle_beta   90.00000000
_cell_angle_gamma   120.00274508
_symmetry_Int_Tables_number   1
_chemical_formula_structural   MgTe2Mo3W(Se2S)2
_chemical_formula_sum   'Mg1 Te2 Mo3 W1 Se4 S2'
_cell_volume   431.69644451
_cell_formula_units_Z   1
loop_
 _symmetry_equiv_pos_site_id
 _symmetry_equiv_pos_as_xyz
  1  'x, y, z'
loop_
 _atom_site_type_symbol
 _atom_site_label
 _atom_site_symmetry_multiplicity
 _atom_site_fract_x
 _atom_site_fract_y
 _atom_site_fract_z
 _atom_site_occupancy
  Mg  Mg0  1  0.00002700  0.00005500  0.38616800  1
  Te  Te0  1  0.33337100  0.66674400  0.70014700  1
  Te  Te1  1  0.33336000  0.66672000  0.61513900  1
  Mo  Mo0  1  0.33335600  0.66671300  0.09376600  1
  Mo  Mo1  1  0.33328700  0.66657500  0.47529600  1
  Mo  Mo2  1  0.66666400  0.33332700  0.65765800  1
  W  W0  1  0.66668300  0.33336500  0.27455900  1
  Se  Se0  1  0.33335900  0.66672000  0.31226900  1
  Se  Se1  1  0.66666600  0.33333100  0.05638700  1
  Se  Se2  1  0.66669700  0.33339300  0.13113700  1
  Se  Se3  1  0.33336100  0.66672300  0.23705300  1
  S  S0  1  0.66658000  0.33315900  0.44043100  1
  S  S1  1  0.66658800  0.33317400  0.50894500  1
loop_
_geom_bond_atom_site_label_1
_geom_bond_atom_site_label_2
_geom_bond_distance
_geom_bond_site_symmetry_2
Mg0 S0 3.096266 1_455
Mg0 S0 3.096270 1_555
Mg0 S0 3.096802 1_445
Mo0 Se2 2.550400 1_565
Mo0 Se2 2.550487 1_455
Mo0 Se2 2.550491 1_555
Mo0 Se1 2.550513 1_565
Mo0 Se1 2.550780 1_455
Mo0 Se1 2.550785 1_555
Mo1 S1 2.444816 1_565
Mo1 S1 2.445181 1_455
Mo1 S1 2.445188 1_555
Mo1 S0 2.478502 1_565
Mo1 S0 2.478893 1_455
Mo1 S0 2.478897 1_555
Mo2 Te0 2.705116 1_545
Mo2 Te0 2.705474 1_655
Mo2 Te0 2.705480 1_555
Mo2 Te1 2.706088 1_545
Mo2 Te1 2.706398 1_655
Mo2 Te1 2.706400 1_555
Se0 W0 2.560259 1_565
Se0 W0 2.560435 1_455
Se0 W0 2.560442 1_555
Se3 W0 2.554261 1_565
Se3 W0 2.554472 1_455
Se3 W0 2.554477 1_555
