# generated using pymatgen
data_YAlGe
_symmetry_space_group_name_H-M   'P 1'
_cell_length_a   4.03337650
_cell_length_b   5.60962713
_cell_length_c   5.75335027
_cell_angle_alpha   90.00000000
_cell_angle_beta   90.00000000
_cell_angle_gamma   111.06977998
_symmetry_Int_Tables_number   1
_chemical_formula_structural   YAlGe
_chemical_formula_sum   'Y2 Al2 Ge2'
_cell_volume   121.47080422
_cell_formula_units_Z   2
loop_
 _symmetry_equiv_pos_site_id
 _symmetry_equiv_pos_as_xyz
  1  'x, y, z'
loop_
 _atom_site_type_symbol
 _atom_site_label
 _atom_site_symmetry_multiplicity
 _atom_site_fract_x
 _atom_site_fract_y
 _atom_site_fract_z
 _atom_site_occupancy
  Y  Y0  1  0.69054438  0.38108876  0.25000000  1
  Y  Y1  1  0.30945562  0.61891124  0.75000000  1
  Al  Al0  1  0.00000000  -0.00000000  0.50000000  1
  Al  Al1  1  0.00000000  -0.00000000  -0.00000000  1
  Ge  Ge0  1  0.60449506  0.20898811  0.75000000  1
  Ge  Ge1  1  0.39550494  0.79101189  0.25000000  1
loop_
_geom_bond_atom_site_label_1
_geom_bond_atom_site_label_2
_geom_bond_distance
_geom_bond_site_symmetry_2
Al0 Ge1 2.707876 1_545
Al0 Ge0 2.707876 1_455
Al0 Ge1 2.707882 1_445
Al0 Ge0 2.707882 1_555
Al0 Y0 3.180446 1_455
Al0 Y1 3.180446 1_545
Al0 Y0 3.180447 1_555
Al0 Y1 3.180447 1_445
Al1 Ge1 2.707876 1_545
Al1 Ge0 2.707876 1_454
Al1 Ge1 2.707882 1_445
Al1 Ge0 2.707882 1_554
Al1 Y0 3.180446 1_455
Al1 Y1 3.180446 1_544
Al1 Y1 3.180447 1_444
Al1 Y0 3.180447 1_555
Ge0 Y1 2.944721 1_655
Ge0 Y1 2.944726 1_555
Ge0 Y0 3.014438 1_556
Ge0 Y0 3.014438 1_555
Ge0 Y1 3.088808 1_545
Ge1 Y0 2.944721 1_455
Ge1 Y0 2.944726 1_555
Ge1 Y1 3.014438 1_554
Ge1 Y1 3.014438 1_555
Ge1 Y0 3.088808 1_565
