# generated using pymatgen
data_Mn2Ge
_symmetry_space_group_name_H-M   'P 1'
_cell_length_a   4.18681512
_cell_length_b   4.18681512
_cell_length_c   5.10608800
_cell_angle_alpha   90.00000000
_cell_angle_beta   90.00000000
_cell_angle_gamma   119.99998608
_symmetry_Int_Tables_number   1
_chemical_formula_structural   Mn2Ge
_chemical_formula_sum   'Mn4 Ge2'
_cell_volume   77.51514353
_cell_formula_units_Z   2
loop_
 _symmetry_equiv_pos_site_id
 _symmetry_equiv_pos_as_xyz
  1  'x, y, z'
loop_
 _atom_site_type_symbol
 _atom_site_label
 _atom_site_symmetry_multiplicity
 _atom_site_fract_x
 _atom_site_fract_y
 _atom_site_fract_z
 _atom_site_occupancy
  Mn  Mn0  1  0.00000000  0.00000000  0.00000000  1
  Mn  Mn1  1  0.00000000  0.00000000  0.50000000  1
  Mn  Mn2  1  0.33333300  0.66666700  0.75000000  1
  Mn  Mn3  1  0.66666700  0.33333300  0.25000000  1
  Ge  Ge0  1  0.33333300  0.66666700  0.25000000  1
  Ge  Ge1  1  0.66666700  0.33333300  0.75000000  1
loop_
_geom_bond_atom_site_label_1
_geom_bond_atom_site_label_2
_geom_bond_distance
_geom_bond_site_symmetry_2
Mn0 Mn1 2.553044 1_555
Mn0 Mn1 2.553044 1_554
Mn0 Mn3 2.733612 1_455
Mn0 Mn2 2.733612 1_544
Mn0 Mn3 2.733616 1_445
Mn0 Mn2 2.733616 1_554
Mn0 Mn2 2.733616 1_444
Mn0 Mn3 2.733616 1_555
Mn1 Mn3 2.733612 1_455
Mn1 Mn2 2.733612 1_545
Mn1 Mn3 2.733616 1_445
Mn1 Mn2 2.733616 1_445
Mn1 Mn2 2.733616 1_555
Mn1 Mn3 2.733616 1_555
Ge0 Mn3 2.417257 1_455
Ge0 Mn3 2.417257 1_565
Ge0 Mn3 2.417264 1_555
Ge0 Mn2 2.553044 1_555
Ge0 Mn2 2.553044 1_554
Ge0 Mn1 2.733612 1_565
Ge0 Mn0 2.733612 1_565
Ge0 Mn1 2.733616 1_665
Ge0 Mn1 2.733616 1_555
Ge0 Mn0 2.733616 1_665
Ge0 Mn0 2.733616 1_555
Ge1 Mn2 2.417257 1_545
Ge1 Mn2 2.417257 1_655
Ge1 Mn2 2.417264 1_555
Ge1 Mn3 2.553044 1_556
Ge1 Mn3 2.553044 1_555
Ge1 Mn0 2.733612 1_656
Ge1 Mn1 2.733612 1_655
Ge1 Mn0 2.733616 1_556
Ge1 Mn1 2.733616 1_665
Ge1 Mn1 2.733616 1_555
Ge1 Mn0 2.733616 1_666
