# generated using pymatgen
data_BaMgTi(BO3)2
_symmetry_space_group_name_H-M   'P 1'
_cell_length_a   7.21385967
_cell_length_b   7.21386021
_cell_length_c   7.21386016
_cell_angle_alpha   41.87713230
_cell_angle_beta   41.87713407
_cell_angle_gamma   41.87713526
_symmetry_Int_Tables_number   1
_chemical_formula_structural   BaMgTi(BO3)2
_chemical_formula_sum   'Ba1 Mg1 Ti1 B2 O6'
_cell_volume   151.28207519
_cell_formula_units_Z   1
loop_
 _symmetry_equiv_pos_site_id
 _symmetry_equiv_pos_as_xyz
  1  'x, y, z'
loop_
 _atom_site_type_symbol
 _atom_site_label
 _atom_site_symmetry_multiplicity
 _atom_site_fract_x
 _atom_site_fract_y
 _atom_site_fract_z
 _atom_site_occupancy
  Ba  Ba0  1  0.95768418  0.95768418  0.95768418  1
  Mg  Mg0  1  0.12797973  0.12797973  0.12797973  1
  Ti  Ti0  1  0.50037053  0.50037053  0.50037053  1
  B  B0  1  0.24382923  0.24382923  0.24382923  1
  B  B1  1  0.76872699  0.76872699  0.76872699  1
  O  O0  1  0.36932286  0.93340295  0.41616080  1
  O  O1  1  0.41616080  0.36932286  0.93340295  1
  O  O2  1  0.04313462  0.50062085  0.76376725  1
  O  O3  1  0.76376725  0.04313462  0.50062085  1
  O  O4  1  0.50062085  0.76376725  0.04313462  1
  O  O5  1  0.93340295  0.41616080  0.36932286  1
loop_
_geom_bond_atom_site_label_1
_geom_bond_atom_site_label_2
_geom_bond_distance
_geom_bond_site_symmetry_2
Ba0 O1 2.660627 1_565
Ba0 O5 2.660627 1_556
Ba0 O0 2.660627 1_655
Ba0 O0 2.885149 1_556
Ba0 O5 2.885149 1_565
Ba0 O1 2.885149 1_655
Mg0 O3 1.982655 1_455
Mg0 O2 1.982655 1_554
Mg0 O4 1.982655 1_545
B0 O1 1.375181 1_554
B0 O5 1.375181 1_455
B0 O0 1.375181 1_545
B1 O3 1.398833 1_565
B1 O4 1.398833 1_556
B1 O2 1.398833 1_655
O0 Ti0 2.157005 1_555
O1 Ti0 2.157005 1_555
O2 Ti0 2.270070 1_555
O3 Ti0 2.270071 1_555
O4 Ti0 2.270071 1_555
O5 Ti0 2.157005 1_555
