# generated using pymatgen
data_Na4MgSiSn(PO6)2
_symmetry_space_group_name_H-M   'P 1'
_cell_length_a   9.08512493
_cell_length_b   9.08110221
_cell_length_c   22.08633797
_cell_angle_alpha   90.19846693
_cell_angle_beta   90.00000000
_cell_angle_gamma   120.01465462
_symmetry_Int_Tables_number   1
_chemical_formula_structural   Na4MgSiSn(PO6)2
_chemical_formula_sum   'Na24 Mg6 Si6 Sn6 P12 O72'
_cell_volume   1577.81538510
_cell_formula_units_Z   6
loop_
 _symmetry_equiv_pos_site_id
 _symmetry_equiv_pos_as_xyz
  1  'x, y, z'
loop_
 _atom_site_type_symbol
 _atom_site_label
 _atom_site_symmetry_multiplicity
 _atom_site_fract_x
 _atom_site_fract_y
 _atom_site_fract_z
 _atom_site_occupancy
  Na  Na0  1  0.63250628  0.01060308  0.24956820  1
  Na  Na1  1  0.37115233  0.35470123  0.24947970  1
  Na  Na2  1  0.99312163  0.63169682  0.24367917  1
  Na  Na3  1  0.63857519  0.63169682  0.74367917  1
  Na  Na4  1  0.98354890  0.35470123  0.74947970  1
  Na  Na5  1  0.37809680  0.01060308  0.74956820  1
  Na  Na6  1  0.31087738  0.34855104  0.58287679  1
  Na  Na7  1  0.03198877  0.69295689  0.58028399  1
  Na  Na8  1  0.65404803  0.95215402  0.57982271  1
  Na  Na9  1  0.29810699  0.95215402  0.07982271  1
  Na  Na10  1  0.66096912  0.69295689  0.08028399  1
  Na  Na11  1  0.03767466  0.34855104  0.08287679  1
  Na  Na12  1  0.97760650  0.68272284  0.91809365  1
  Na  Na13  1  0.70175642  0.02861931  0.91047751  1
  Na  Na14  1  0.32224559  0.28964318  0.91439345  1
  Na  Na15  1  0.96739660  0.28964318  0.41439345  1
  Na  Na16  1  0.32686189  0.02861931  0.41047751  1
  Na  Na17  1  0.70511534  0.68272284  0.41809365  1
  Na  Na18  1  0.99084254  0.99548046  0.49524641  1
  Na  Na19  1  0.00463791  0.99548046  0.99524641  1
  Na  Na20  1  0.66476608  0.32508556  0.82867697  1
  Na  Na21  1  0.66032048  0.32508556  0.32867697  1
  Na  Na22  1  0.32636937  0.66935007  0.16202836  1
  Na  Na23  1  0.34297969  0.66935007  0.66202836  1
  Mg  Mg0  1  0.00112591  0.00091714  0.35077349  1
  Mg  Mg1  1  0.99979124  0.00091714  0.85077349  1
  Mg  Mg2  1  0.66619267  0.33192806  0.68419712  1
  Mg  Mg3  1  0.66573639  0.33192806  0.18419712  1
  Mg  Mg4  1  0.32863557  0.66943519  0.01762797  1
  Mg  Mg5  1  0.34079861  0.66943519  0.51762797  1
  Si  Si0  1  0.29839880  0.00107584  0.25300379  1
  Si  Si1  1  0.70267704  0.00107584  0.75300379  1
  Si  Si2  1  0.66576740  0.62788120  0.58633615  1
  Si  Si3  1  0.96211480  0.62788120  0.08633615  1
  Si  Si4  1  0.33270123  0.96627642  0.91983789  1
  Si  Si5  1  0.63357419  0.96627642  0.41983789  1
  Sn  Sn0  1  0.99364273  0.99524634  0.65092271  1
  Sn  Sn1  1  0.00160361  0.99524634  0.15092271  1
  Sn  Sn2  1  0.66722131  0.33348175  0.98442349  1
  Sn  Sn3  1  0.66626144  0.33348175  0.48442349  1
  Sn  Sn4  1  0.33543914  0.67366145  0.31766321  1
  Sn  Sn5  1  0.33822130  0.67366145  0.81766321  1
  P  P0  1  0.70327309  0.70453413  0.25219521  1
  P  P1  1  0.00195824  0.29444217  0.25219705  1
  P  P2  1  0.29248393  0.29444217  0.75219705  1
  P  P3  1  0.00126103  0.70453413  0.75219521  1
  P  P4  1  0.96354372  0.33382068  0.58526122  1
  P  P5  1  0.36848720  0.03817634  0.58571898  1
  P  P6  1  0.66969013  0.03817634  0.08571898  1
  P  P7  1  0.37027796  0.33382068  0.08526122  1
  P  P8  1  0.62594310  0.66392001  0.91913622  1
  P  P9  1  0.04084819  0.37349865  0.91835708  1
  P  P10  1  0.33264945  0.37349865  0.41835708  1
  P  P11  1  0.03797591  0.66392001  0.41913622  1
  O  O0  1  0.20979876  0.03069205  0.31075659  1
  O  O1  1  0.81449074  0.79158589  0.30694358  1
  O  O2  1  0.97477592  0.18247960  0.30663357  1
  O  O3  1  0.20770367  0.18247960  0.80663357  1
  O  O4  1  0.97709515  0.79158589  0.80694358  1
  O  O5  1  0.82089330  0.03069205  0.81075659  1
  O  O6  1  0.77972582  0.95710007  0.69054480  1
  O  O7  1  0.18086390  0.21775921  0.69283059  1
  O  O8  1  0.04488873  0.82024228  0.69367044  1
  O  O9  1  0.77535355  0.82024228  0.19367044  1
  O  O10  1  0.03689531  0.21775921  0.19283059  1
  O  O11  1  0.17737425  0.95710007  0.19054480  1
  O  O12  1  0.87766733  0.35800805  0.64048372  1
  O  O13  1  0.48284492  0.12221190  0.64023027  1
  O  O14  1  0.63953398  0.51028881  0.64369934  1
  O  O15  1  0.87075583  0.51028881  0.14369934  1
  O  O16  1  0.63936797  0.12221190  0.14023027  1
  O  O17  1  0.48034172  0.35800805  0.14048372  1
  O  O18  1  0.44363445  0.29162759  0.02675179  1
  O  O19  1  0.84039103  0.55025586  0.02362429  1
  O  O20  1  0.70760794  0.15077922  0.02678952  1
  O  O21  1  0.44317228  0.15077922  0.52678952  1
  O  O22  1  0.70986583  0.55025586  0.52362429  1
  O  O23  1  0.84799414  0.29162759  0.52675179  1
  O  O24  1  0.53932962  0.68740833  0.97390116  1
  O  O25  1  0.15263278  0.45807367  0.97301380  1
  O  O26  1  0.30337386  0.84833086  0.97725216  1
  O  O27  1  0.54495600  0.84833086  0.47725216  1
  O  O28  1  0.30543989  0.45807367  0.47301380  1
  O  O29  1  0.14807771  0.68740833  0.47390116  1
  O  O30  1  0.11158289  0.62316351  0.36019047  1
  O  O31  1  0.51216175  0.89094808  0.35726511  1
  O  O32  1  0.36850211  0.48603762  0.35935256  1
  O  O33  1  0.11753451  0.48603762  0.85935256  1
  O  O34  1  0.37878533  0.89094808  0.85726511  1
  O  O35  1  0.51157962  0.62316351  0.86019047  1
  O  O36  1  0.01837666  0.82174401  0.41208749  1
  O  O37  1  0.82193682  0.98973011  0.41216898  1
  O  O38  1  0.17760587  0.19445361  0.41181155  1
  O  O39  1  0.01684774  0.19445361  0.91181155  1
  O  O40  1  0.16779329  0.98973011  0.91216898  1
  O  O41  1  0.80336735  0.82174401  0.91208749  1
  O  O42  1  0.98472718  0.17166296  0.58852842  1
  O  O43  1  0.19065868  0.02952798  0.59020388  1
  O  O44  1  0.84612291  0.81883037  0.58652534  1
  O  O45  1  0.97270746  0.81883037  0.08652534  1
  O  O46  1  0.83886930  0.02952798  0.09020388  1
  O  O47  1  0.18693578  0.17166296  0.08852842  1
  O  O48  1  0.67839534  0.16585149  0.74576226  1
  O  O49  1  0.47130573  0.31832587  0.74566809  1
  O  O50  1  0.84333467  0.52780742  0.74474755  1
  O  O51  1  0.68447375  0.52780742  0.24474755  1
  O  O52  1  0.84702114  0.31832587  0.24566809  1
  O  O53  1  0.48745715  0.16585149  0.24576226  1
  O  O54  1  0.64284773  0.49925686  0.92120001  1
  O  O55  1  0.86101168  0.36089403  0.92137172  1
  O  O56  1  0.51214246  0.15806673  0.92226814  1
  O  O57  1  0.64592527  0.15806673  0.42226814  1
  O  O58  1  0.49988335  0.36089403  0.42137172  1
  O  O59  1  0.85641013  0.49925686  0.42120001  1
  O  O60  1  0.35397771  0.49278511  0.07741638  1
  O  O61  1  0.15002877  0.64936490  0.08061326  1
  O  O62  1  0.51788006  0.85803516  0.07834199  1
  O  O63  1  0.34015410  0.85803516  0.57834199  1
  O  O64  1  0.49933513  0.64936490  0.58061326  1
  O  O65  1  0.13880640  0.49278511  0.57741638  1
  O  O66  1  0.30764614  0.82013019  0.25347694  1
  O  O67  1  0.51995878  0.68323936  0.25552185  1
  O  O68  1  0.17030687  0.47344142  0.25607390  1
  O  O69  1  0.30313354  0.47344142  0.75607390  1
  O  O70  1  0.16327958  0.68323936  0.75552185  1
  O  O71  1  0.51248304  0.82013019  0.75347694  1
loop_
_geom_bond_atom_site_label_1
_geom_bond_atom_site_label_2
_geom_bond_distance
_geom_bond_site_symmetry_2
Na0 O53 2.364476 1_555
Na0 O52 2.483500 1_555
Na0 O66 2.569785 1_545
Na0 O16 2.610842 1_555
Na0 O67 2.619564 1_545
Na0 O31 2.619797 1_545
Na0 O9 2.902835 1_545
Na0 O2 2.970659 1_555
Na1 O53 2.424102 1_555
Na1 O51 2.471718 1_555
Na1 O68 2.545747 1_555
Na1 O67 2.590119 1_555
Na1 O17 2.598242 1_555
Na1 O32 2.705654 1_555
Na1 O0 2.889716 1_555
Na1 O10 2.923176 1_555
Na2 O52 2.466573 1_555
Na2 O15 2.466668 1_555
Na2 O51 2.471260 1_555
Na2 O66 2.499164 1_655
Na2 O68 2.654951 1_655
Na2 O30 2.805534 1_655
Na2 O11 2.826082 1_655
Na3 O49 2.466573 1_555
Na3 O14 2.466670 1_555
Na3 O50 2.471268 1_555
Na3 O71 2.499172 1_555
Na3 O69 2.654959 1_555
Na3 O35 2.805537 1_555
Na3 O6 2.826082 1_555
Na4 O48 2.424095 1_555
Na4 O50 2.471711 1_555
Na4 O69 2.545738 1_655
Na4 O70 2.590118 1_655
Na4 O12 2.598239 1_555
Na4 O33 2.705652 1_655
Na4 O5 2.889716 1_555
Na4 O7 2.923176 1_655
Na5 O48 2.364483 1_555
Na5 O49 2.483498 1_555
Na5 O71 2.569777 1_545
Na5 O13 2.610843 1_555
Na5 O70 2.619566 1_545
Na5 O34 2.619795 1_545
Na5 O8 2.902835 1_545
Na5 O3 2.970659 1_555
Na6 O64 2.391239 1_555
Na6 O65 2.494714 1_555
Na6 O43 2.539650 1_555
Na6 O42 2.572056 1_455
Na6 O28 2.635390 1_555
Na6 O7 2.705521 1_555
Na6 O21 2.889441 1_555
Na6 O14 2.911390 1_555
Na7 O63 2.426747 1_555
Na7 O65 2.452379 1_555
Na7 O44 2.471234 1_455
Na7 O29 2.586096 1_555
Na7 O43 2.656177 1_565
Na7 O8 2.732346 1_555
Na7 O22 2.829229 1_455
Na7 O12 2.957539 1_455
Na8 O64 2.381247 1_555
Na8 O27 2.460416 1_555
Na8 O63 2.534851 1_555
Na8 O44 2.578334 1_555
Na8 O42 2.653711 1_565
Na8 O6 2.689583 1_555
Na8 O23 2.927958 1_565
Na8 O13 2.995502 1_565
Na9 O61 2.381247 1_555
Na9 O26 2.460412 1_554
Na9 O62 2.534833 1_555
Na9 O45 2.578342 1_455
Na9 O47 2.653718 1_565
Na9 O11 2.689587 1_555
Na9 O18 2.927958 1_565
Na9 O16 2.995502 1_565
Na10 O62 2.426762 1_555
Na10 O60 2.452393 1_555
Na10 O45 2.471226 1_555
Na10 O24 2.586104 1_554
Na10 O46 2.656177 1_565
Na10 O9 2.732344 1_555
Na10 O19 2.829229 1_555
Na10 O17 2.957539 1_555
Na11 O61 2.391242 1_555
Na11 O60 2.494698 1_555
Na11 O46 2.539651 1_455
Na11 O47 2.572048 1_555
Na11 O25 2.635386 1_554
Na11 O10 2.705519 1_555
Na11 O20 2.889441 1_455
Na11 O15 2.911390 1_455
Na12 O40 2.441016 1_655
Na12 O41 2.473412 1_555
Na12 O55 2.563779 1_555
Na12 O19 2.636825 1_556
Na12 O54 2.638493 1_555
Na12 O4 2.650524 1_555
Na12 O26 2.874330 1_655
Na12 O33 2.957210 1_655
Na13 O5 2.450034 1_555
Na13 O41 2.473524 1_545
Na13 O39 2.479974 1_655
Na13 O56 2.537926 1_555
Na13 O55 2.623619 1_555
Na13 O20 2.784603 1_556
Na13 O34 2.806027 1_545
Na14 O40 2.358976 1_545
Na14 O39 2.459460 1_555
Na14 O56 2.549146 1_555
Na14 O54 2.565352 1_555
Na14 O3 2.581716 1_555
Na14 O18 2.711943 1_556
Na14 O35 2.894515 1_555
Na14 O25 2.955427 1_555
Na15 O37 2.358977 1_545
Na15 O38 2.459469 1_655
Na15 O57 2.549130 1_555
Na15 O59 2.565338 1_555
Na15 O2 2.581718 1_555
Na15 O23 2.711935 1_555
Na15 O30 2.894515 1_655
Na15 O28 2.955427 1_655
Na16 O0 2.450030 1_555
Na16 O36 2.473517 1_545
Na16 O38 2.479966 1_555
Na16 O57 2.537943 1_555
Na16 O58 2.623620 1_555
Na16 O21 2.784606 1_555
Na16 O31 2.806027 1_545
Na17 O37 2.441014 1_555
Na17 O36 2.473420 1_655
Na17 O58 2.563776 1_555
Na17 O22 2.636829 1_555
Na17 O59 2.638508 1_555
Na17 O1 2.650526 1_555
Na17 O27 2.874330 1_555
Na17 O32 2.957210 1_555
Na18 O37 2.375594 1_555
Na18 O44 2.505734 1_555
Na18 O36 2.509964 1_655
Na18 O38 2.548632 1_665
Na18 O42 2.621760 1_565
Na18 O43 2.687674 1_665
Na19 O40 2.375594 1_555
Na19 O45 2.505734 1_456
Na19 O41 2.509964 1_455
Na19 O39 2.548632 1_565
Na19 O47 2.621760 1_566
Na19 O46 2.687674 1_466
Na20 O48 2.370799 1_555
Na20 O49 2.519020 1_555
Na20 O56 2.532518 1_555
Na20 O50 2.548113 1_555
Na20 O55 2.625125 1_555
Na20 O54 2.647622 1_555
Na21 O53 2.370799 1_555
Na21 O52 2.519020 1_555
Na21 O57 2.532518 1_555
Na21 O51 2.548113 1_555
Na21 O58 2.625125 1_555
Na21 O59 2.647622 1_555
Na22 O61 2.353683 1_555
Na22 O66 2.489394 1_555
Na22 O62 2.533552 1_555
Na22 O60 2.551021 1_555
Na22 O68 2.644209 1_555
Na22 O67 2.673840 1_555
Na23 O64 2.353683 1_555
Na23 O71 2.489394 1_555
Na23 O63 2.533552 1_555
Na23 O65 2.551021 1_555
Na23 O69 2.644209 1_555
Na23 O70 2.673840 1_555
Mg0 O0 1.984240 1_555
Mg0 O2 2.032790 1_455
Mg0 O1 2.046551 1_445
Mg0 O37 2.082017 1_445
Mg0 O38 2.154395 1_555
Mg0 O36 2.185459 1_545
Mg1 O5 1.984240 1_555
Mg1 O3 2.032790 1_655
Mg1 O4 2.046551 1_545
Mg1 O40 2.082017 1_645
Mg1 O39 2.154395 1_655
Mg1 O41 2.185459 1_545
Mg2 O14 1.970955 1_555
Mg2 O13 2.039132 1_555
Mg2 O12 2.055692 1_555
Mg2 O48 2.077794 1_555
Mg2 O50 2.159203 1_555
Mg2 O49 2.185362 1_555
Mg3 O15 1.970955 1_555
Mg3 O16 2.039132 1_555
Mg3 O17 2.055692 1_555
Mg3 O53 2.077794 1_555
Mg3 O51 2.159203 1_555
Mg3 O52 2.185362 1_555
Mg4 O26 1.967276 1_554
Mg4 O25 2.031811 1_554
Mg4 O61 2.075413 1_555
Mg4 O24 2.076526 1_554
Mg4 O62 2.173852 1_555
Mg4 O60 2.180438 1_555
Mg5 O27 1.967276 1_555
Mg5 O28 2.031811 1_555
Mg5 O64 2.075413 1_555
Mg5 O29 2.076526 1_555
Mg5 O63 2.173852 1_555
Mg5 O65 2.180438 1_555
O0 Si0 1.600467 1_555
O1 P0 1.517330 1_555
O2 P1 1.515769 1_655
O3 P2 1.515769 1_555
O4 P3 1.517330 1_655
O5 Si1 1.600467 1_555
O6 Si1 1.681761 1_565
O6 Sn0 1.997855 1_555
O7 P2 1.587353 1_555
O7 Sn0 2.093196 1_445
O8 P3 1.588945 1_555
O8 Sn0 2.093907 1_455
O9 P0 1.588945 1_555
O9 Sn1 2.093907 1_655
O10 P1 1.587353 1_555
O10 Sn1 2.093196 1_545
O11 Si0 1.681761 1_565
O11 Sn1 1.997855 1_555
O12 P4 1.521223 1_555
O13 P5 1.520437 1_555
O14 Si2 1.599075 1_555
O15 Si3 1.599075 1_555
O16 P6 1.520437 1_555
O17 P7 1.521223 1_555
O18 P7 1.585227 1_555
O18 Sn2 2.091590 1_554
O19 Si3 1.688681 1_555
O19 Sn2 1.997432 1_554
O20 P6 1.585906 1_555
O20 Sn2 2.093495 1_554
O21 P5 1.585906 1_555
O21 Sn3 2.093495 1_555
O22 Si2 1.688681 1_555
O22 Sn3 1.997432 1_555
O23 P4 1.585227 1_555
O23 Sn3 2.091590 1_555
O24 P8 1.514549 1_555
O25 P9 1.513855 1_555
O26 Si4 1.596904 1_555
O27 Si5 1.596904 1_555
O28 P10 1.513855 1_555
O29 P11 1.514549 1_555
O30 P11 1.588519 1_555
O30 Sn4 2.073318 1_555
O31 Si5 1.683197 1_555
O31 Sn4 2.013681 1_555
O32 P10 1.589039 1_555
O32 Sn4 2.089012 1_555
O33 P9 1.589039 1_555
O33 Sn5 2.089012 1_555
O34 Si4 1.683197 1_555
O34 Sn5 2.013681 1_555
O35 P8 1.588519 1_555
O35 Sn5 2.073318 1_555
O36 P11 1.538476 1_555
O37 Si5 1.624254 1_555
O38 P10 1.534847 1_555
O39 P9 1.534851 1_555
O40 Si4 1.624245 1_555
O41 P8 1.538482 1_555
O42 P4 1.579549 1_555
O42 Sn0 2.148795 1_545
O43 P5 1.580898 1_555
O43 Sn0 2.131798 1_445
O44 Si2 1.687934 1_555
O44 Sn0 2.054722 1_555
O45 Si3 1.687938 1_555
O45 Sn1 2.054722 1_655
O46 P6 1.580889 1_555
O46 Sn1 2.131798 1_645
O47 P7 1.579554 1_555
O47 Sn1 2.148795 1_545
O48 Si1 1.626405 1_555
O49 P2 1.534574 1_555
O50 P3 1.534855 1_655
O51 P0 1.534859 1_555
O52 P1 1.534565 1_655
O53 Si0 1.626411 1_555
O54 P8 1.578570 1_555
O54 Sn2 2.147849 1_555
O55 P9 1.581112 1_655
O55 Sn2 2.159846 1_555
O56 Si4 1.689005 1_545
O56 Sn2 2.036322 1_555
O57 Si5 1.688996 1_545
O57 Sn3 2.036322 1_555
O58 P10 1.581130 1_555
O58 Sn3 2.159846 1_555
O59 P11 1.578559 1_655
O59 Sn3 2.147849 1_555
O60 P7 1.533446 1_555
O61 Si3 1.623452 1_455
O62 P6 1.531603 1_565
O63 P5 1.531596 1_565
O64 Si2 1.623470 1_555
O65 P4 1.533436 1_455
O66 Si0 1.686848 1_565
O66 Sn4 2.047360 1_555
O67 P0 1.579353 1_555
O67 Sn4 2.134589 1_555
O68 P1 1.581347 1_555
O68 Sn4 2.158914 1_555
O69 P2 1.581351 1_555
O69 Sn5 2.158914 1_555
O70 P3 1.579344 1_555
O70 Sn5 2.134589 1_555
O71 Si1 1.686853 1_565
O71 Sn5 2.047360 1_555
