# generated using pymatgen
data_MgTi2O4
_symmetry_space_group_name_H-M   'P 1'
_cell_length_a   2.96490500
_cell_length_b   5.12754300
_cell_length_c   5.12754300
_cell_angle_alpha   90.00000000
_cell_angle_beta   90.00000000
_cell_angle_gamma   90.00000000
_symmetry_Int_Tables_number   1
_chemical_formula_structural   MgTi2O4
_chemical_formula_sum   'Mg1 Ti2 O4'
_cell_volume   77.95238454
_cell_formula_units_Z   1
loop_
 _symmetry_equiv_pos_site_id
 _symmetry_equiv_pos_as_xyz
  1  'x, y, z'
loop_
 _atom_site_type_symbol
 _atom_site_label
 _atom_site_symmetry_multiplicity
 _atom_site_fract_x
 _atom_site_fract_y
 _atom_site_fract_z
 _atom_site_occupancy
  Mg  Mg0  1  0.25000000  0.50000000  0.00000000  1
  Ti  Ti0  1  0.52339000  0.50000000  0.50000000  1
  Ti  Ti1  1  0.97661000  0.00000000  0.00000000  1
  O  O0  1  0.50111100  0.21101300  0.80557600  1
  O  O1  1  0.50111100  0.78898700  0.19442400  1
  O  O2  1  0.99888900  0.30557600  0.28898700  1
  O  O3  1  0.99888900  0.69442400  0.71101300  1
loop_
_geom_bond_atom_site_label_1
_geom_bond_atom_site_label_2
_geom_bond_distance
_geom_bond_site_symmetry_2
Mg0 O1 1.934907 1_555
Mg0 O3 1.934907 1_454
Mg0 O2 1.934907 1_455
Mg0 O0 1.934907 1_554
O0 Ti1 2.037666 1_556
O0 Ti1 2.140758 1_456
O0 Ti0 2.157570 1_555
O1 Ti1 2.037666 1_565
O1 Ti1 2.140758 1_465
O1 Ti0 2.157570 1_555
O2 Ti0 2.037666 1_555
O2 Ti0 2.140758 1_655
O2 Ti1 2.157570 1_555
O3 Ti0 2.037666 1_555
O3 Ti0 2.140758 1_655
O3 Ti1 2.157570 1_566
