# generated using pymatgen
data_Na6Ta4Ga4Si7S5O48
_symmetry_space_group_name_H-M   'P 1'
_cell_length_a   17.64696311
_cell_length_b   8.77193652
_cell_length_c   22.53877326
_cell_angle_alpha   89.87175223
_cell_angle_beta   90.28793975
_cell_angle_gamma   119.81127664
_symmetry_Int_Tables_number   1
_chemical_formula_structural   Na6Ta4Ga4Si7S5O48
_chemical_formula_sum   'Na18 Ta12 Ga12 Si21 S15 O144'
_cell_volume   3027.21747489
_cell_formula_units_Z   3
loop_
 _symmetry_equiv_pos_site_id
 _symmetry_equiv_pos_as_xyz
  1  'x, y, z'
loop_
 _atom_site_type_symbol
 _atom_site_label
 _atom_site_symmetry_multiplicity
 _atom_site_fract_x
 _atom_site_fract_y
 _atom_site_fract_z
 _atom_site_occupancy
  Na  Na0  1  0.00001198  0.61983614  0.25130412  1
  Na  Na1  1  0.50124561  0.64154106  0.25571095  1
  Na  Na2  1  -0.00002540  0.36143299  0.75073762  1
  Na  Na3  1  0.50006601  0.37965572  0.74887901  1
  Na  Na4  1  0.33273879  0.97016038  0.58172304  1
  Na  Na5  1  0.83177126  0.69415647  0.08366697  1
  Na  Na6  1  0.00011513  0.98660505  0.50047775  1
  Na  Na7  1  0.50196979  0.00482426  0.49913208  1
  Na  Na8  1  0.99748894  0.99790278  0.00183924  1
  Na  Na9  1  0.50148988  0.01531905  0.00188049  1
  Na  Na10  1  0.33200001  0.34779963  0.82543020  1
  Na  Na11  1  0.83007530  0.33347006  0.83243972  1
  Na  Na12  1  0.33157499  0.32957105  0.33380044  1
  Na  Na13  1  0.82866031  0.31506899  0.32772475  1
  Na  Na14  1  0.16924147  0.66225501  0.17386634  1
  Na  Na15  1  0.66923367  0.66886804  0.16857073  1
  Na  Na16  1  0.16870915  0.66924537  0.66476515  1
  Na  Na17  1  0.66912625  0.67587746  0.66922041  1
  Ta  Ta0  1  0.99517416  0.00528981  0.35654862  1
  Ta  Ta1  1  0.50076779  0.98606857  0.35707518  1
  Ta  Ta2  1  0.99588825  0.01383865  0.85305930  1
  Ta  Ta3  1  0.49632619  0.98626182  0.85571682  1
  Ta  Ta4  1  0.99857791  0.00323839  0.64449347  1
  Ta  Ta5  1  0.49940289  0.99607847  0.14715481  1
  Ta  Ta6  1  0.34139145  0.33313658  0.97574847  1
  Ta  Ta7  1  0.83509892  0.35248671  0.98030570  1
  Ta  Ta8  1  0.33562272  0.31621765  0.48007444  1
  Ta  Ta9  1  0.83582756  0.35173440  0.47209756  1
  Ta  Ta10  1  0.16754375  0.66580211  0.02418984  1
  Ta  Ta11  1  0.66600556  0.65362761  0.52073712  1
  Ga  Ga0  1  0.50484351  0.99874286  0.64654018  1
  Ga  Ga1  1  0.00092183  0.00310117  0.15039947  1
  Ga  Ga2  1  0.33248658  0.34005787  0.68539645  1
  Ga  Ga3  1  0.82578253  0.32199408  0.68363231  1
  Ga  Ga4  1  0.32705892  0.32628401  0.18759858  1
  Ga  Ga5  1  0.83204312  0.32504702  0.18685650  1
  Ga  Ga6  1  0.67098344  0.63678695  0.01418679  1
  Ga  Ga7  1  0.17011140  0.70488789  0.51417009  1
  Ga  Ga8  1  0.16736781  0.66085601  0.31298328  1
  Ga  Ga9  1  0.66711108  0.68547536  0.32171204  1
  Ga  Ga10  1  0.16566364  0.63294048  0.81593445  1
  Ga  Ga11  1  0.66652120  0.67209265  0.81243169  1
  Si  Si0  1  0.65153691  0.00114713  0.25062894  1
  Si  Si1  1  0.34854809  0.69901853  0.24920799  1
  Si  Si2  1  0.00100688  0.29412787  0.24523689  1
  Si  Si3  1  0.15086933  0.29379292  0.74911827  1
  Si  Si4  1  0.50080949  0.70762005  0.74526237  1
  Si  Si5  1  0.84638798  0.99824623  0.74691874  1
  Si  Si6  1  0.47994607  0.32960331  0.59101868  1
  Si  Si7  1  0.19010267  0.04480527  0.58671604  1
  Si  Si8  1  0.83197984  0.61528265  0.58797782  1
  Si  Si9  1  0.97905751  0.63145518  0.09016343  1
  Si  Si10  1  0.33350805  0.04936924  0.08820416  1
  Si  Si11  1  0.68924159  0.33389612  0.08672938  1
  Si  Si12  1  0.30822465  0.66493477  0.91703812  1
  Si  Si13  1  0.80773148  0.67105413  0.91413636  1
  Si  Si14  1  0.02213605  0.38389098  0.91552401  1
  Si  Si15  1  0.53034215  0.38679159  0.91293041  1
  Si  Si16  1  0.30662762  0.94155256  0.41397132  1
  Si  Si17  1  0.80736235  0.95203010  0.41759009  1
  Si  Si18  1  0.66415683  0.38376639  0.41045629  1
  Si  Si19  1  0.03003279  0.67173727  0.41279857  1
  Si  Si20  1  0.52196880  0.65876676  0.41638109  1
  S  S0  1  0.14523606  0.00382084  0.24921868  1
  S  S1  1  0.85247932  0.71182083  0.24937054  1
  S  S2  1  0.50004863  0.28981726  0.24964229  1
  S  S3  1  0.64536945  0.28659211  0.74934283  1
  S  S4  1  0.00168120  0.71304349  0.75056363  1
  S  S5  1  0.35119040  0.99179730  0.75044757  1
  S  S6  1  0.98006303  0.34033924  0.58343555  1
  S  S7  1  0.68887170  0.04542912  0.58333473  1
  S  S8  1  0.33138583  0.62141934  0.58291310  1
  S  S9  1  0.48038880  0.62186864  0.08360707  1
  S  S10  1  0.83124542  0.04133240  0.08275962  1
  S  S11  1  0.18908988  0.32866927  0.08318146  1
  S  S12  1  0.16648887  0.95226441  0.91548468  1
  S  S13  1  0.66795639  0.95404234  0.91763571  1
  S  S14  1  0.16782271  0.38140213  0.41797267  1
  O  O0  1  0.10226517  0.02685357  0.30225913  1
  O  O1  1  0.59783946  0.02531874  0.30652992  1
  O  O2  1  0.41769213  0.79459143  0.30483350  1
  O  O3  1  0.91278130  0.80295444  0.30242590  1
  O  O4  1  0.48568228  0.17953228  0.30248978  1
  O  O5  1  0.98938619  0.16734742  0.30468100  1
  O  O6  1  0.09825833  0.16778822  0.80742662  1
  O  O7  1  0.60147216  0.17687979  0.80307504  1
  O  O8  1  0.48913748  0.81024572  0.80529158  1
  O  O9  1  0.98789236  0.79627530  0.80393226  1
  O  O10  1  0.41165643  0.02035753  0.80379432  1
  O  O11  1  0.91596812  0.04125938  0.80512033  1
  O  O12  1  0.39046442  0.96558778  0.69633281  1
  O  O13  1  0.90108066  0.97469542  0.69214878  1
  O  O14  1  0.08052960  0.19362866  0.69422609  1
  O  O15  1  0.59023060  0.20898371  0.69554394  1
  O  O16  1  0.01250096  0.82077273  0.69652204  1
  O  O17  1  0.51599108  0.83837935  0.69000346  1
  O  O18  1  0.40023904  0.82698517  0.19115421  1
  O  O19  1  0.89404017  0.81613236  0.19440116  1
  O  O20  1  0.01707230  0.19724260  0.18887045  1
  O  O21  1  0.51040489  0.20118712  0.19512563  1
  O  O22  1  0.09088056  0.97237293  0.19456327  1
  O  O23  1  0.58162183  0.96594353  0.19366670  1
  O  O24  1  0.43606052  0.36157675  0.64830359  1
  O  O25  1  0.94133537  0.36213099  0.63910293  1
  O  O26  1  0.25542807  0.13332459  0.64217061  1
  O  O27  1  0.74070444  0.11740166  0.63877516  1
  O  O28  1  0.31897721  0.51898685  0.63757478  1
  O  O29  1  0.81766390  0.49511649  0.64574893  1
  O  O30  1  0.44008489  0.51742704  0.13751633  1
  O  O31  1  0.93742913  0.50982216  0.14711293  1
  O  O32  1  0.31663360  0.14211517  0.14391463  1
  O  O33  1  0.81932503  0.11964474  0.13672447  1
  O  O34  1  0.24170727  0.36395371  0.13752035  1
  O  O35  1  0.75670074  0.37871694  0.14104417  1
  O  O36  1  0.23225928  0.31079293  0.02987406  1
  O  O37  1  0.73402612  0.30274475  0.02608603  1
  O  O38  1  0.42240591  0.53664289  0.02987582  1
  O  O39  1  0.91632710  0.53840175  0.02943246  1
  O  O40  1  0.34470135  0.16750960  0.02792091  1
  O  O41  1  0.84588574  0.15303219  0.02894794  1
  O  O42  1  0.23336557  0.16546605  0.52645525  1
  O  O43  1  0.73271571  0.15597725  0.53104586  1
  O  O44  1  0.34577479  0.53882198  0.52967479  1
  O  O45  1  0.84678554  0.52427105  0.52878732  1
  O  O46  1  0.41609202  0.29389548  0.53050264  1
  O  O47  1  0.92307494  0.30756791  0.53118733  1
  O  O48  1  0.26565392  0.70135308  0.97555079  1
  O  O49  1  0.77793420  0.71383020  0.97760087  1
  O  O50  1  0.08550698  0.47887350  0.97288962  1
  O  O51  1  0.57807383  0.46148519  0.97563977  1
  O  O52  1  0.15436484  0.84765827  0.97040983  1
  O  O53  1  0.64996919  0.84607516  0.97169410  1
  O  O54  1  0.27666298  0.84114265  0.47796597  1
  O  O55  1  0.76630508  0.83100523  0.47629899  1
  O  O56  1  0.14985057  0.45306473  0.47143066  1
  O  O57  1  0.65107160  0.46546216  0.47305580  1
  O  O58  1  0.07873386  0.69862099  0.47556016  1
  O  O59  1  0.58443898  0.69482586  0.47430467  1
  O  O60  1  0.06402025  0.63022550  0.35247963  1
  O  O61  1  0.55567772  0.62093544  0.35465469  1
  O  O62  1  0.24505270  0.86049623  0.35731975  1
  O  O63  1  0.75549383  0.88562614  0.35649595  1
  O  O64  1  0.18154874  0.48081047  0.36306186  1
  O  O65  1  0.68544728  0.50727677  0.35376199  1
  O  O66  1  0.05858162  0.49655745  0.85485098  1
  O  O67  1  0.56309482  0.49700702  0.85279647  1
  O  O68  1  0.18322931  0.87871866  0.86241878  1
  O  O69  1  0.68144526  0.88180696  0.86331485  1
  O  O70  1  0.25449832  0.63473679  0.85709900  1
  O  O71  1  0.74662458  0.63373464  0.85762997  1
  O  O72  1  0.01416355  0.84154651  0.40432064  1
  O  O73  1  0.51266319  0.83659702  0.41285485  1
  O  O74  1  0.40695900  0.98046812  0.40503694  1
  O  O75  1  0.90752746  0.97718513  0.41053899  1
  O  O76  1  0.08885130  0.19677667  0.41016937  1
  O  O77  1  0.57894411  0.18821417  0.40731751  1
  O  O78  1  0.01589961  0.18869849  0.91155582  1
  O  O79  1  0.51287935  0.18498527  0.90533365  1
  O  O80  1  0.08793649  0.97161721  0.91106426  1
  O  O81  1  0.58909490  0.98099995  0.91025613  1
  O  O82  1  0.40811197  0.83566713  0.91064871  1
  O  O83  1  0.91047374  0.83291025  0.90540931  1
  O  O84  1  0.48510844  0.14563798  0.59413911  1
  O  O85  1  0.98536236  0.17191028  0.58799977  1
  O  O86  1  0.09238702  0.02464361  0.59284508  1
  O  O87  1  0.60167043  0.03194510  0.58722006  1
  O  O88  1  0.41015705  0.80199774  0.58716582  1
  O  O89  1  0.91961587  0.81135512  0.59247545  1
  O  O90  1  0.48388003  0.79672525  0.08649643  1
  O  O91  1  0.98591715  0.82661858  0.09327882  1
  O  O92  1  0.41950812  0.02615581  0.09085032  1
  O  O93  1  0.90999218  0.01810159  0.08652636  1
  O  O94  1  0.10100894  0.17316649  0.08646799  1
  O  O95  1  0.59178862  0.15886008  0.09169709  1
  O  O96  1  0.34902908  0.15761331  0.74962616  1
  O  O97  1  0.84907417  0.18869517  0.73981714  1
  O  O98  1  0.24387902  0.30715089  0.74332691  1
  O  O99  1  0.73189045  0.29818130  0.74617657  1
  O  O100  1  0.41357848  0.51356773  0.74405286  1
  O  O101  1  0.92398700  0.53503480  0.74541866  1
  O  O102  1  0.34954363  0.51159712  0.23961789  1
  O  O103  1  0.85055127  0.54106923  0.24815314  1
  O  O104  1  0.42115856  0.31008374  0.24340646  1
  O  O105  1  0.91373231  0.31367590  0.24361661  1
  O  O106  1  0.23213911  0.16573949  0.24552678  1
  O  O107  1  0.74313742  0.17766195  0.24247891  1
  O  O108  1  0.31979476  0.49305099  0.92866808  1
  O  O109  1  0.81944129  0.49341885  0.92271568  1
  O  O110  1  0.42774694  0.35489657  0.92375871  1
  O  O111  1  0.92263185  0.34534975  0.92625453  1
  O  O112  1  0.24472367  0.13363339  0.92464680  1
  O  O113  1  0.74558487  0.13295428  0.92437938  1
  O  O114  1  0.31852647  0.14346328  0.42302845  1
  O  O115  1  0.82422654  0.14945779  0.43024481  1
  O  O116  1  0.24550484  0.35783429  0.42458471  1
  O  O117  1  0.74928693  0.35574599  0.42365296  1
  O  O118  1  0.42198703  0.49656278  0.42736392  1
  O  O119  1  0.92898212  0.50159224  0.42301529  1
  O  O120  1  0.17981662  0.49136669  0.07728147  1
  O  O121  1  0.68147960  0.51335978  0.07961669  1
  O  O122  1  0.07427972  0.65008143  0.07427315  1
  O  O123  1  0.56783701  0.64712700  0.07565561  1
  O  O124  1  0.24747943  0.85526834  0.07651779  1
  O  O125  1  0.75197664  0.86440921  0.07630909  1
  O  O126  1  0.18166198  0.84958285  0.58013385  1
  O  O127  1  0.67913962  0.86803135  0.57799369  1
  O  O128  1  0.25229553  0.64009678  0.57699483  1
  O  O129  1  0.74818720  0.64431037  0.57942835  1
  O  O130  1  0.06861266  0.48865648  0.57725151  1
  O  O131  1  0.57436490  0.50360433  0.57862050  1
  O  O132  1  0.15338559  0.84491829  0.25345921  1
  O  O133  1  0.65012454  0.81255586  0.25462461  1
  O  O134  1  0.25553629  0.68564489  0.25581563  1
  O  O135  1  0.76760845  0.69663904  0.25486696  1
  O  O136  1  0.08626491  0.48823442  0.25420465  1
  O  O137  1  0.57839033  0.46283092  0.25160344  1
  O  O138  1  0.14890146  0.48015036  0.75234707  1
  O  O139  1  0.65312336  0.46159256  0.75448477  1
  O  O140  1  0.08174257  0.69922420  0.75504673  1
  O  O141  1  0.58626385  0.68491085  0.75455535  1
  O  O142  1  0.26410098  0.83800219  0.75891025  1
  O  O143  1  0.75531172  0.82508381  0.75633727  1
loop_
_geom_bond_atom_site_label_1
_geom_bond_atom_site_label_2
_geom_bond_distance
_geom_bond_site_symmetry_2
Na0 O136 2.323674 1_555
Na0 O105 2.344041 1_455
Na0 O103 2.371785 1_455
Na0 O132 2.431449 1_555
Na0 O60 2.521304 1_555
Na0 O31 2.567115 1_455
Na1 O133 2.288066 1_555
Na1 O102 2.357036 1_555
Na1 O61 2.465332 1_555
Na1 O104 2.538100 1_555
Na1 O137 2.538353 1_555
Na1 O2 2.682087 1_555
Na1 O23 2.837950 1_555
Na1 O30 2.874480 1_555
Na2 O138 2.295804 1_555
Na2 O97 2.330428 1_455
Na2 O101 2.481824 1_455
Na2 O140 2.572958 1_555
Na2 O66 2.598122 1_555
Na2 O25 2.716933 1_455
Na2 O11 2.729664 1_455
Na2 O14 2.813705 1_555
Na3 O141 2.334504 1_555
Na3 O100 2.345515 1_555
Na3 O96 2.395117 1_555
Na3 O139 2.427896 1_555
Na3 O24 2.497457 1_555
Na3 O67 2.574636 1_555
Na4 O126 2.328788 1_555
Na4 O84 2.357278 1_565
Na4 O88 2.461461 1_555
Na4 O128 2.514465 1_555
Na4 O54 2.569820 1_555
Na4 O46 2.722108 1_565
Na4 O12 2.779527 1_555
Na4 O26 2.781177 1_565
Na5 O121 2.318119 1_555
Na5 O91 2.376782 1_555
Na5 O93 2.466626 1_565
Na5 O125 2.515597 1_555
Na5 O49 2.604940 1_554
Na5 O19 2.719698 1_555
Na5 O35 2.727684 1_555
Na5 O39 2.764106 1_555
Na6 O89 2.554350 1_455
Na6 O86 2.554537 1_565
Na6 O75 2.572707 1_455
Na6 O72 2.590174 1_555
Na6 O85 2.653595 1_465
Na6 O76 2.671854 1_565
Na7 O73 2.507599 1_545
Na7 O77 2.560475 1_555
Na7 O84 2.565796 1_555
Na7 O87 2.577742 1_555
Na7 O88 2.622563 1_545
Na7 O74 2.639066 1_545
Na8 O91 2.496387 1_555
Na8 O93 2.522290 1_565
Na8 O78 2.549142 1_664
Na8 O94 2.554355 1_665
Na8 O83 2.635745 1_554
Na8 O80 2.680966 1_654
Na9 O95 2.491323 1_555
Na9 O92 2.507972 1_555
Na9 O79 2.585168 1_554
Na9 O90 2.609144 1_545
Na9 O82 2.612556 1_544
Na9 O81 2.691261 1_544
Na10 O98 2.322168 1_555
Na10 O100 2.341838 1_555
Na10 O96 2.511776 1_555
Na10 O108 2.715739 1_555
Na10 O110 2.762014 1_555
Na10 O112 2.835669 1_555
Na11 O99 2.512701 1_555
Na11 O109 2.534215 1_555
Na11 O97 2.554510 1_555
Na11 O101 2.612139 1_555
Na11 O111 2.635658 1_555
Na11 O113 2.649164 1_555
Na12 O114 2.525635 1_555
Na12 O106 2.563825 1_555
Na12 O102 2.577663 1_555
Na12 O118 2.606654 1_555
Na12 O116 2.638782 1_555
Na12 O104 2.642328 1_555
Na13 O107 2.365290 1_555
Na13 O105 2.427868 1_555
Na13 O103 2.554488 1_555
Na13 O117 2.700889 1_555
Na13 O115 2.707314 1_555
Na13 O119 2.742527 1_555
Na14 O134 2.331405 1_555
Na14 O136 2.354754 1_555
Na14 O132 2.515463 1_555
Na14 O124 2.697505 1_555
Na14 O120 2.705115 1_555
Na14 O122 2.764727 1_555
Na15 O133 2.429887 1_555
Na15 O121 2.497375 1_555
Na15 O135 2.530585 1_555
Na15 O137 2.544206 1_555
Na15 O125 2.631100 1_555
Na15 O123 2.692320 1_555
Na16 O126 2.413407 1_555
Na16 O138 2.487164 1_555
Na16 O128 2.561473 1_555
Na16 O130 2.591701 1_555
Na16 O140 2.645764 1_555
Na16 O142 2.651054 1_555
Na17 O143 2.425656 1_555
Na17 O141 2.447024 1_555
Na17 O129 2.556171 1_555
Na17 O131 2.591666 1_555
Na17 O139 2.601465 1_555
Na17 O127 2.606154 1_555
Ga0 O17 1.801159 1_555
Ga0 O84 1.900474 1_565
Ga0 O15 2.029999 1_565
Ga0 O87 2.078092 1_565
Ga0 O88 2.163780 1_555
Ga0 O12 2.203589 1_555
Ga1 O20 1.804107 1_555
Ga1 O91 1.929275 1_445
Ga1 O22 1.997999 1_545
Ga1 O19 2.041249 1_445
Ga1 O94 2.194877 1_555
Ga1 O93 2.202394 1_455
Ga2 O26 1.905158 1_555
Ga2 O24 1.935693 1_555
Ga2 O98 1.950177 1_555
Ga2 O100 1.984075 1_555
Ga2 O28 2.010961 1_555
Ga2 O96 2.278618 1_555
Ga3 O29 1.806952 1_555
Ga3 O97 1.898893 1_555
Ga3 O27 1.952157 1_555
Ga3 O99 2.110495 1_555
Ga3 O25 2.143491 1_555
Ga3 O101 2.280842 1_555
Ga4 O32 1.822890 1_555
Ga4 O102 1.880705 1_555
Ga4 O34 2.031721 1_555
Ga4 O106 2.040098 1_555
Ga4 O104 2.138387 1_555
Ga4 O30 2.180079 1_555
Ga5 O35 1.913621 1_555
Ga5 O107 1.923629 1_555
Ga5 O105 1.961770 1_555
Ga5 O31 1.975165 1_555
Ga5 O33 2.044007 1_555
Ga5 O103 2.235607 1_555
Ga6 O51 1.814519 1_554
Ga6 O49 1.855730 1_554
Ga6 O121 1.889659 1_555
Ga6 O53 2.256246 1_554
Ga6 O125 2.268244 1_555
Ga6 O123 2.330433 1_555
Ga7 O58 1.805145 1_555
Ga7 O54 1.845664 1_555
Ga7 O126 1.900295 1_555
Ga7 O56 2.270710 1_555
Ga7 O128 2.286206 1_555
Ga7 O130 2.337289 1_555
Ga8 O62 1.884615 1_555
Ga8 O60 1.928421 1_555
Ga8 O134 1.952135 1_555
Ga8 O136 1.982793 1_555
Ga8 O64 2.052586 1_555
Ga8 O132 2.202439 1_555
Ga9 O63 1.844160 1_555
Ga9 O65 1.888240 1_555
Ga9 O61 1.909091 1_555
Ga9 O133 1.984692 1_555
Ga9 O135 2.297428 1_555
Ga9 O137 2.389798 1_555
Ga10 O70 1.810942 1_555
Ga10 O66 1.880328 1_555
Ga10 O138 1.883605 1_555
Ga10 O142 2.193247 1_555
Ga10 O68 2.276894 1_555
Ga10 O140 2.290579 1_555
Ga11 O71 1.898977 1_555
Ga11 O67 1.934164 1_555
Ga11 O143 1.943229 1_555
Ga11 O141 1.964505 1_555
Ga11 O69 2.072060 1_555
Ga11 O139 2.178263 1_555
O0 S0 1.485771 1_555
O0 Ta0 2.184321 1_455
O1 Si0 1.656295 1_555
O1 Ta1 1.944802 1_545
O2 Si1 1.654011 1_555
O2 Ta1 1.974840 1_555
O3 S1 1.532015 1_555
O3 Ta0 2.044081 1_565
O4 S2 1.474089 1_555
O4 Ta1 2.213825 1_545
O5 Si2 1.686189 1_655
O5 Ta0 1.879795 1_555
O6 Si3 1.672190 1_555
O6 Ta2 1.931791 1_455
O7 S3 1.501963 1_555
O7 Ta3 2.138905 1_545
O8 Si4 1.695883 1_555
O8 Ta3 1.871730 1_555
O9 S4 1.490858 1_655
O9 Ta2 2.151341 1_565
O10 S5 1.539381 1_545
O10 Ta3 2.028965 1_545
O11 Si5 1.701831 1_545
O11 Ta2 1.880214 1_555
O12 S5 1.479528 1_555
O13 Si5 1.646037 1_555
O13 Ta4 1.940525 1_565
O14 Si3 1.657853 1_555
O14 Ta4 1.930734 1_455
O15 S3 1.487869 1_555
O16 S4 1.493604 1_555
O16 Ta4 2.092144 1_465
O17 Si4 1.621734 1_555
O18 Si1 1.670785 1_555
O18 Ta5 1.917261 1_555
O19 S1 1.498978 1_555
O20 Si2 1.632382 1_555
O21 S2 1.515073 1_555
O21 Ta5 2.025609 1_545
O22 S0 1.496738 1_565
O23 Si0 1.694969 1_565
O23 Ta5 1.907571 1_555
O24 Si6 1.604086 1_555
O25 S6 1.489096 1_555
O26 Si7 1.610561 1_555
O27 S7 1.488122 1_555
O28 S8 1.474881 1_555
O29 Si8 1.613305 1_555
O30 S9 1.475589 1_555
O31 Si9 1.596757 1_555
O32 Si10 1.605122 1_555
O33 S10 1.464764 1_555
O34 S11 1.470531 1_555
O35 Si11 1.610131 1_555
O36 S11 1.475576 1_555
O36 Ta6 2.209699 1_554
O37 Si11 1.671745 1_555
O37 Ta7 1.918089 1_554
O38 S9 1.517729 1_555
O38 Ta6 2.042945 1_554
O39 Si9 1.690172 1_555
O39 Ta7 1.899515 1_554
O40 Si10 1.658895 1_555
O40 Ta6 1.890245 1_554
O41 S10 1.497977 1_555
O41 Ta7 2.149362 1_554
O42 Si7 1.657828 1_555
O42 Ta8 1.933373 1_555
O43 S7 1.478501 1_555
O43 Ta9 2.220865 1_555
O44 S8 1.489676 1_555
O44 Ta8 2.180532 1_555
O45 Si8 1.643492 1_555
O45 Ta9 1.917226 1_555
O46 Si6 1.692266 1_555
O46 Ta8 1.898930 1_555
O47 S6 1.477476 1_555
O47 Ta9 2.205566 1_555
O48 Si12 1.629764 1_555
O48 Ta10 1.943532 1_556
O49 Si13 1.633866 1_555
O50 Si14 1.637186 1_555
O50 Ta10 1.937221 1_556
O51 Si15 1.606211 1_555
O52 S12 1.490855 1_555
O52 Ta10 2.103690 1_556
O53 S13 1.477179 1_555
O54 Si16 1.635451 1_555
O55 Si17 1.625263 1_555
O55 Ta11 1.956921 1_555
O56 S14 1.467290 1_555
O57 Si18 1.652241 1_555
O57 Ta11 1.876532 1_555
O58 Si19 1.607169 1_555
O59 Si20 1.631082 1_555
O59 Ta11 1.948868 1_555
O60 Si19 1.602552 1_555
O61 Si20 1.614370 1_555
O62 Si16 1.593287 1_555
O63 Si17 1.591855 1_555
O64 S14 1.462512 1_555
O65 Si18 1.594268 1_555
O66 Si14 1.622104 1_555
O67 Si15 1.597541 1_555
O68 S12 1.459620 1_555
O69 S13 1.453792 1_555
O70 Si12 1.591592 1_555
O71 Si13 1.590312 1_555
O72 Si19 1.657305 1_555
O72 Ta0 1.950063 1_465
O73 Si20 1.649435 1_555
O73 Ta1 1.899313 1_555
O74 Si16 1.641412 1_555
O74 Ta1 1.961719 1_555
O75 Si17 1.677274 1_555
O75 Ta0 1.890048 1_565
O76 S14 1.533182 1_555
O76 Ta0 2.059833 1_455
O77 Si18 1.625877 1_555
O77 Ta1 1.972513 1_545
O78 Si14 1.662835 1_555
O78 Ta2 1.918728 1_455
O79 Si15 1.648157 1_555
O79 Ta3 1.968193 1_545
O80 S12 1.480825 1_555
O80 Ta2 2.249357 1_465
O81 S13 1.531347 1_555
O81 Ta3 2.061040 1_555
O82 Si12 1.657582 1_555
O82 Ta3 1.915376 1_555
O83 Si13 1.668717 1_555
O83 Ta2 1.952929 1_565
O84 Si6 1.662220 1_555
O85 S6 1.529308 1_555
O85 Ta4 2.048537 1_555
O86 Si7 1.650127 1_555
O86 Ta4 1.959642 1_455
O87 S7 1.486611 1_555
O88 S8 1.503537 1_555
O89 Si8 1.647617 1_555
O89 Ta4 1.951860 1_565
O90 S9 1.505697 1_555
O90 Ta5 2.129044 1_555
O91 Si9 1.656742 1_555
O92 Si10 1.629281 1_555
O92 Ta5 2.004558 1_545
O93 S10 1.503375 1_555
O94 S11 1.474706 1_555
O95 Si11 1.644164 1_555
O95 Ta5 1.989244 1_545
O96 S5 1.473934 1_545
O97 Si5 1.654971 1_545
O98 Si3 1.592363 1_555
O99 S3 1.481006 1_555
O100 Si4 1.631667 1_555
O101 S4 1.483926 1_655
O102 Si1 1.667415 1_555
O103 S1 1.481515 1_555
O104 S2 1.494490 1_555
O105 Si2 1.632401 1_655
O106 S0 1.486989 1_555
O107 Si0 1.599153 1_555
O108 Si12 1.639360 1_555
O108 Ta6 1.939026 1_555
O109 Si13 1.681219 1_555
O109 Ta7 1.902191 1_555
O110 Si15 1.707693 1_555
O110 Ta6 1.859987 1_555
O111 Si14 1.633946 1_655
O111 Ta7 1.997379 1_555
O112 S12 1.514769 1_545
O112 Ta6 2.078510 1_555
O113 S13 1.491339 1_545
O113 Ta7 2.181479 1_555
O114 Si16 1.689419 1_545
O114 Ta8 1.894946 1_555
O115 Si17 1.630349 1_545
O115 Ta9 1.929887 1_555
O116 S14 1.491235 1_555
O116 Ta8 2.186716 1_555
O117 Si18 1.663754 1_555
O117 Ta9 1.887385 1_555
O118 Si20 1.644839 1_555
O118 Ta8 1.961979 1_555
O119 Si19 1.678340 1_655
O119 Ta9 1.875460 1_555
O120 S11 1.520667 1_555
O120 Ta10 2.034410 1_555
O121 Si11 1.654012 1_555
O122 Si9 1.646649 1_455
O122 Ta10 1.947896 1_555
O123 S9 1.457840 1_555
O124 Si10 1.643478 1_565
O124 Ta10 1.950400 1_555
O125 S10 1.492282 1_565
O126 Si7 1.650477 1_565
O127 S7 1.483377 1_565
O127 Ta11 2.197885 1_555
O128 S8 1.489301 1_555
O129 Si8 1.630878 1_555
O129 Ta11 1.989443 1_555
O130 S6 1.460781 1_455
O131 Si6 1.630374 1_555
O131 Ta11 1.986610 1_555
O132 S0 1.473536 1_565
O133 Si0 1.644334 1_565
O134 Si1 1.594045 1_555
O135 S1 1.442117 1_555
O136 Si2 1.629418 1_555
O137 S2 1.459470 1_555
O138 Si3 1.654025 1_555
O139 S3 1.476635 1_555
O140 S4 1.479804 1_555
O141 Si4 1.628794 1_555
O142 S5 1.469228 1_555
O143 Si5 1.584328 1_555
