# generated using pymatgen
data_Na6ZnSi6Sn7(SO8)6
_symmetry_space_group_name_H-M   'P 1'
_cell_length_a   17.76041160
_cell_length_b   8.86165827
_cell_length_c   22.99178660
_cell_angle_alpha   89.92655190
_cell_angle_beta   90.16509875
_cell_angle_gamma   119.92148845
_symmetry_Int_Tables_number   1
_chemical_formula_structural   Na6ZnSi6Sn7(SO8)6
_chemical_formula_sum   'Na18 Zn3 Si18 Sn21 S18 O144'
_cell_volume   3136.26396814
_cell_formula_units_Z   3
loop_
 _symmetry_equiv_pos_site_id
 _symmetry_equiv_pos_as_xyz
  1  'x, y, z'
loop_
 _atom_site_type_symbol
 _atom_site_label
 _atom_site_symmetry_multiplicity
 _atom_site_fract_x
 _atom_site_fract_y
 _atom_site_fract_z
 _atom_site_occupancy
  Na  Na0  1  0.68646438  0.37596487  0.25225470  1
  Na  Na1  1  0.99687823  0.64253126  0.25267605  1
  Na  Na2  1  0.99721954  0.35693806  0.75147191  1
  Na  Na3  1  0.49472208  0.36139589  0.74790140  1
  Na  Na4  1  0.19098472  0.01448730  0.75276766  1
  Na  Na5  1  0.68470184  0.00592008  0.74984295  1
  Na  Na6  1  0.99799387  0.99804290  0.49230103  1
  Na  Na7  1  0.50587399  0.00324586  0.49727899  1
  Na  Na8  1  0.00870502  0.01420972  0.99839626  1
  Na  Na9  1  0.50164252  0.99087456  0.99828866  1
  Na  Na10  1  0.33077726  0.33365371  0.82725384  1
  Na  Na11  1  0.82985671  0.32542100  0.83095233  1
  Na  Na12  1  0.33325768  0.33331240  0.33230977  1
  Na  Na13  1  0.83385482  0.33386226  0.33753037  1
  Na  Na14  1  0.16942058  0.66604514  0.16603329  1
  Na  Na15  1  0.66382338  0.66572977  0.17035490  1
  Na  Na16  1  0.17419395  0.66555479  0.66885772  1
  Na  Na17  1  0.66946622  0.66634263  0.66828690  1
  Zn  Zn0  1  0.33366638  0.33824740  0.69277273  1
  Zn  Zn1  1  0.82587853  0.32326084  0.68750363  1
  Zn  Zn2  1  0.83548739  0.34204584  0.18669217  1
  Si  Si0  1  0.14859757  0.00264539  0.25189155  1
  Si  Si1  1  0.85403048  0.71285276  0.24839101  1
  Si  Si2  1  0.49808555  0.28935094  0.24980807  1
  Si  Si3  1  0.14787372  0.29618620  0.74866118  1
  Si  Si4  1  0.64954733  0.29727248  0.75018206  1
  Si  Si5  1  0.49683317  0.70454118  0.74946758  1
  Si  Si6  1  0.35365649  0.99430271  0.75116973  1
  Si  Si7  1  0.85658384  0.00051386  0.75022967  1
  Si  Si8  1  0.47716335  0.62208503  0.08378320  1
  Si  Si9  1  0.18480069  0.33471342  0.08530031  1
  Si  Si10  1  0.02066149  0.37668566  0.91583113  1
  Si  Si11  1  0.16781468  0.95886464  0.91741193  1
  Si  Si12  1  0.66331732  0.95933197  0.91578145  1
  Si  Si13  1  0.81276539  0.95542541  0.41555466  1
  Si  Si14  1  0.16617358  0.37370994  0.41540073  1
  Si  Si15  1  0.66538795  0.37440302  0.41769848  1
  Si  Si16  1  0.02130264  0.66708220  0.41791582  1
  Si  Si17  1  0.52144112  0.66820118  0.41507529  1
  Sn  Sn0  1  0.00072957  0.98953702  0.35659708  1
  Sn  Sn1  1  0.50480428  0.00995173  0.35515708  1
  Sn  Sn2  1  0.00835824  0.02212397  0.85489375  1
  Sn  Sn3  1  0.50448033  0.99759077  0.84782979  1
  Sn  Sn4  1  0.99736841  0.00465869  0.64981844  1
  Sn  Sn5  1  0.50035838  0.00225145  0.65407301  1
  Sn  Sn6  1  0.00556456  0.99969812  0.15139039  1
  Sn  Sn7  1  0.49870988  0.99589058  0.14854417  1
  Sn  Sn8  1  0.33288212  0.33412379  0.18643944  1
  Sn  Sn9  1  0.32571956  0.33128081  0.98387882  1
  Sn  Sn10  1  0.83463800  0.32430033  0.97785234  1
  Sn  Sn11  1  0.33530234  0.34678219  0.47872644  1
  Sn  Sn12  1  0.83239295  0.33115946  0.47530026  1
  Sn  Sn13  1  0.16223722  0.65592129  0.01696572  1
  Sn  Sn14  1  0.66010541  0.67179405  0.01913292  1
  Sn  Sn15  1  0.16217110  0.65673562  0.51505339  1
  Sn  Sn16  1  0.66664606  0.67016852  0.51040486  1
  Sn  Sn17  1  0.16373159  0.66396831  0.31752865  1
  Sn  Sn18  1  0.66779378  0.66133332  0.31688927  1
  Sn  Sn19  1  0.16984163  0.66779642  0.81646630  1
  Sn  Sn20  1  0.66973465  0.67716877  0.81099027  1
  S  S0  1  0.64683432  0.99806844  0.24886332  1
  S  S1  1  0.35375086  0.70991897  0.25160610  1
  S  S2  1  0.99932469  0.29060122  0.24984897  1
  S  S3  1  0.99799114  0.70922744  0.75019189  1
  S  S4  1  0.47975801  0.33381028  0.58355511  1
  S  S5  1  0.97906458  0.33442933  0.58448979  1
  S  S6  1  0.18721645  0.03896747  0.58373008  1
  S  S7  1  0.68591525  0.03822493  0.58355822  1
  S  S8  1  0.33329839  0.62933582  0.58417074  1
  S  S9  1  0.83362211  0.62512953  0.58444035  1
  S  S10  1  0.97743299  0.62277781  0.08337147  1
  S  S11  1  0.33304428  0.03894719  0.08271340  1
  S  S12  1  0.83397604  0.04195530  0.08507847  1
  S  S13  1  0.68859872  0.33552993  0.08227282  1
  S  S14  1  0.31559762  0.66966522  0.91762016  1
  S  S15  1  0.81110229  0.66640485  0.91837178  1
  S  S16  1  0.51953817  0.37252725  0.91716683  1
  S  S17  1  0.31290496  0.95934234  0.41800767  1
  O  O0  1  0.10431551  0.03721536  0.30722634  1
  O  O1  1  0.60776887  0.03274259  0.30069188  1
  O  O2  1  0.40814359  0.79030860  0.30331734  1
  O  O3  1  0.91854704  0.79327600  0.30393167  1
  O  O4  1  0.48023755  0.16078512  0.30562289  1
  O  O5  1  0.98620884  0.18734903  0.30213700  1
  O  O6  1  0.10746645  0.16734564  0.80469334  1
  O  O7  1  0.60917102  0.17484159  0.80754210  1
  O  O8  1  0.47966277  0.78224946  0.80842188  1
  O  O9  1  0.98444530  0.78709476  0.80243648  1
  O  O10  1  0.41591975  0.03959460  0.80917613  1
  O  O11  1  0.91706962  0.03337423  0.80764061  1
  O  O12  1  0.39122467  0.95427002  0.69141872  1
  O  O13  1  0.89216450  0.95472316  0.69081531  1
  O  O14  1  0.08350258  0.21520230  0.69095697  1
  O  O15  1  0.58597730  0.22318565  0.69209360  1
  O  O16  1  0.01762140  0.82107629  0.69656130  1
  O  O17  1  0.52620606  0.83311999  0.69174082  1
  O  O18  1  0.39099831  0.81490812  0.19735854  1
  O  O19  1  0.89571207  0.83121178  0.18886707  1
  O  O20  1  0.01548286  0.21830075  0.19605939  1
  O  O21  1  0.52160057  0.20416780  0.19195026  1
  O  O22  1  0.08664976  0.94546752  0.19322412  1
  O  O23  1  0.59183385  0.96756160  0.19567680  1
  O  O24  1  0.44033769  0.35881878  0.63557170  1
  O  O25  1  0.94157725  0.36053833  0.63767895  1
  O  O26  1  0.23825622  0.11524847  0.63623427  1
  O  O27  1  0.73734302  0.11367144  0.63674729  1
  O  O28  1  0.31792442  0.52103236  0.63495609  1
  O  O29  1  0.82249270  0.52156495  0.63687290  1
  O  O30  1  0.43654196  0.50547529  0.14138618  1
  O  O31  1  0.93970108  0.51712841  0.13594768  1
  O  O32  1  0.31816771  0.11322707  0.13557284  1
  O  O33  1  0.81844450  0.12202261  0.13606746  1
  O  O34  1  0.24632116  0.37073663  0.14189046  1
  O  O35  1  0.73874801  0.36156851  0.13578631  1
  O  O36  1  0.22221588  0.29215735  0.02665361  1
  O  O37  1  0.72917454  0.30711772  0.02979033  1
  O  O38  1  0.42131894  0.54106201  0.02370904  1
  O  O39  1  0.92244914  0.54071491  0.03038109  1
  O  O40  1  0.35038447  0.14685394  0.02996140  1
  O  O41  1  0.84732077  0.14727645  0.03087964  1
  O  O42  1  0.22629438  0.14664427  0.53033422  1
  O  O43  1  0.72666003  0.14852006  0.53159797  1
  O  O44  1  0.34742387  0.55242305  0.53013464  1
  O  O45  1  0.84826279  0.54820873  0.53125847  1
  O  O46  1  0.42391234  0.30206974  0.53006051  1
  O  O47  1  0.92630924  0.30854433  0.53197029  1
  O  O48  1  0.27623277  0.69736615  0.97025037  1
  O  O49  1  0.77105321  0.69408229  0.97169105  1
  O  O50  1  0.07893212  0.45284377  0.97392345  1
  O  O51  1  0.57632675  0.45031399  0.96990833  1
  O  O52  1  0.15342348  0.84211808  0.97606405  1
  O  O53  1  0.64910465  0.84302331  0.97389128  1
  O  O54  1  0.27500738  0.85240702  0.47115769  1
  O  O55  1  0.77667656  0.84430387  0.47653737  1
  O  O56  1  0.15172148  0.45483237  0.47572624  1
  O  O57  1  0.64540781  0.44918532  0.47694460  1
  O  O58  1  0.08296356  0.71129658  0.47585056  1
  O  O59  1  0.57569450  0.70924620  0.47619830  1
  O  O60  1  0.05770302  0.62674187  0.35747765  1
  O  O61  1  0.56115940  0.63199191  0.35712028  1
  O  O62  1  0.26030082  0.88663463  0.36463538  1
  O  O63  1  0.75116055  0.87915882  0.35800963  1
  O  O64  1  0.19086536  0.50274973  0.35837803  1
  O  O65  1  0.68457336  0.47904465  0.35633841  1
  O  O66  1  0.06018995  0.48941240  0.85585254  1
  O  O67  1  0.55927624  0.47968293  0.86433611  1
  O  O68  1  0.18490485  0.88026472  0.85732488  1
  O  O69  1  0.68444202  0.87768271  0.85860380  1
  O  O70  1  0.26158082  0.63502901  0.86461321  1
  O  O71  1  0.75654778  0.63128748  0.86567840  1
  O  O72  1  0.01349916  0.83914925  0.41544594  1
  O  O73  1  0.50456643  0.83432014  0.40838944  1
  O  O74  1  0.39861115  0.97297220  0.41213518  1
  O  O75  1  0.90883558  0.97989704  0.40980852  1
  O  O76  1  0.07945353  0.18888454  0.40999446  1
  O  O77  1  0.57821910  0.18180569  0.41404133  1
  O  O78  1  0.00671636  0.18073159  0.91492109  1
  O  O79  1  0.51040687  0.19784068  0.91284557  1
  O  O80  1  0.07720157  0.96586734  0.91205183  1
  O  O81  1  0.57616104  0.97786698  0.91312132  1
  O  O82  1  0.40112849  0.82900643  0.91252433  1
  O  O83  1  0.89757758  0.82017201  0.91212623  1
  O  O84  1  0.48838724  0.17264766  0.58634901  1
  O  O85  1  0.98916351  0.17506595  0.58660237  1
  O  O86  1  0.09704134  0.01669829  0.58792985  1
  O  O87  1  0.59739330  0.02242008  0.58710678  1
  O  O88  1  0.41281408  0.80595055  0.58714360  1
  O  O89  1  0.91582674  0.80451840  0.58832209  1
  O  O90  1  0.48984383  0.82240611  0.09020397  1
  O  O91  1  0.98482091  0.79709802  0.08619123  1
  O  O92  1  0.41256711  0.02144456  0.08847453  1
  O  O93  1  0.91233455  0.02520138  0.08892417  1
  O  O94  1  0.08619337  0.16010431  0.09065585  1
  O  O95  1  0.60013347  0.17817637  0.08610115  1
  O  O96  1  0.34412966  0.16459693  0.74438373  1
  O  O97  1  0.85045566  0.17695380  0.74408789  1
  O  O98  1  0.23860738  0.30383644  0.74254374  1
  O  O99  1  0.74211501  0.30860855  0.74431413  1
  O  O100  1  0.41791137  0.51117829  0.74414456  1
  O  O101  1  0.92339885  0.53468203  0.74246968  1
  O  O102  1  0.34603702  0.53737262  0.24618104  1
  O  O103  1  0.84368252  0.51663255  0.24237187  1
  O  O104  1  0.41228145  0.30750616  0.24354852  1
  O  O105  1  0.92300621  0.31470054  0.24259749  1
  O  O106  1  0.24355284  0.17380966  0.24404350  1
  O  O107  1  0.73188875  0.15837494  0.24174972  1
  O  O108  1  0.32420044  0.51138765  0.92192717  1
  O  O109  1  0.81922077  0.50779514  0.92558304  1
  O  O110  1  0.43401426  0.36064544  0.92423706  1
  O  O111  1  0.92601612  0.36688504  0.92160406  1
  O  O112  1  0.25724561  0.15356538  0.92256691  1
  O  O113  1  0.75001648  0.15224093  0.92321277  1
  O  O114  1  0.32107898  0.13315175  0.42512166  1
  O  O115  1  0.82074638  0.14577666  0.42329223  1
  O  O116  1  0.25245577  0.35176681  0.42306767  1
  O  O117  1  0.75122811  0.35579215  0.42376306  1
  O  O118  1  0.42623649  0.48961263  0.42249430  1
  O  O119  1  0.92775793  0.49294477  0.42450783  1
  O  O120  1  0.17915233  0.51614440  0.07913983  1
  O  O121  1  0.68062387  0.49549817  0.07429236  1
  O  O122  1  0.06557249  0.64278122  0.07804073  1
  O  O123  1  0.57524533  0.64121800  0.08014324  1
  O  O124  1  0.25514383  0.86382539  0.07642273  1
  O  O125  1  0.75519593  0.86390769  0.07767169  1
  O  O126  1  0.17909472  0.86116379  0.57704454  1
  O  O127  1  0.67684586  0.86081888  0.57801704  1
  O  O128  1  0.25380870  0.65040568  0.57662084  1
  O  O129  1  0.75540606  0.64639618  0.57906493  1
  O  O130  1  0.06890150  0.49329335  0.57993485  1
  O  O131  1  0.56778208  0.49228051  0.57709810  1
  O  O132  1  0.15522866  0.81902872  0.25666666  1
  O  O133  1  0.65364723  0.84110429  0.25392008  1
  O  O134  1  0.26671587  0.69521015  0.25589904  1
  O  O135  1  0.75599797  0.68650572  0.25239891  1
  O  O136  1  0.07914618  0.47010565  0.25345322  1
  O  O137  1  0.58777294  0.47719642  0.25420610  1
  O  O138  1  0.14757873  0.48083913  0.75555572  1
  O  O139  1  0.64995868  0.48071957  0.75883103  1
  O  O140  1  0.07928145  0.69610747  0.75422008  1
  O  O141  1  0.58633706  0.69170744  0.75519756  1
  O  O142  1  0.25407720  0.82489538  0.75548598  1
  O  O143  1  0.75904780  0.83233440  0.75366511  1
loop_
_geom_bond_atom_site_label_1
_geom_bond_atom_site_label_2
_geom_bond_distance
_geom_bond_site_symmetry_2
Na0 O137 2.334159 1_555
Na0 O135 2.389081 1_555
Na0 O103 2.435720 1_555
Na0 O107 2.445688 1_555
Na0 O65 2.568850 1_555
Na0 O35 2.860529 1_555
Na0 O1 2.864243 1_555
Na0 O21 2.889379 1_555
Na1 O103 2.381667 1_555
Na1 O132 2.444326 1_655
Na1 O105 2.532249 1_555
Na1 O136 2.587838 1_655
Na1 O3 2.641244 1_555
Na1 O60 2.669748 1_655
Na1 O22 2.711141 1_655
Na1 O31 2.887046 1_555
Na2 O97 2.284213 1_555
Na2 O138 2.327945 1_655
Na2 O101 2.510088 1_555
Na2 O140 2.606078 1_655
Na2 O66 2.659019 1_655
Na2 O14 2.792611 1_655
Na2 O25 2.799821 1_555
Na2 O11 2.800851 1_555
Na3 O100 2.331459 1_555
Na3 O96 2.355241 1_555
Na3 O139 2.423002 1_555
Na3 O141 2.547913 1_555
Na3 O24 2.750885 1_555
Na3 O15 2.787393 1_555
Na3 O10 2.845190 1_555
Na3 O67 2.893159 1_555
Na4 O98 2.276255 1_555
Na4 O96 2.365895 1_555
Na4 O142 2.441261 1_545
Na4 O140 2.512613 1_545
Na4 O68 2.659222 1_545
Na4 O6 2.734828 1_555
Na4 O26 2.817768 1_555
Na4 O16 2.967475 1_545
Na5 O99 2.349896 1_555
Na5 O141 2.442905 1_545
Na5 O143 2.478458 1_545
Na5 O97 2.555672 1_555
Na5 O69 2.744449 1_545
Na5 O27 2.768446 1_555
Na5 O17 2.781484 1_545
Na5 O7 2.796215 1_555
Na6 O72 2.361546 1_655
Na6 O75 2.420748 1_555
Na6 O76 2.470005 1_665
Na6 O85 2.728093 1_565
Na6 O89 2.730701 1_555
Na6 O86 2.764877 1_665
Na7 O77 2.407361 1_555
Na7 O73 2.528073 1_545
Na7 O87 2.577277 1_555
Na7 O74 2.646383 1_545
Na7 O84 2.649617 1_555
Na7 O88 2.680494 1_545
Na8 O78 2.430362 1_555
Na8 O80 2.478012 1_545
Na8 O94 2.506033 1_556
Na8 O91 2.671512 1_446
Na8 O83 2.717874 1_445
Na8 O93 2.731040 1_456
Na9 O81 2.401446 1_555
Na9 O90 2.533986 1_556
Na9 O82 2.562235 1_555
Na9 O79 2.637224 1_565
Na9 O95 2.642490 1_566
Na9 O92 2.706216 1_566
Na10 O98 2.468649 1_555
Na10 O100 2.470136 1_555
Na10 O96 2.509034 1_555
Na10 O112 2.642535 1_555
Na10 O108 2.725101 1_555
Na10 O110 2.816277 1_555
Na11 O99 2.483902 1_555
Na11 O97 2.518856 1_555
Na11 O113 2.589119 1_555
Na11 O111 2.598305 1_555
Na11 O101 2.697011 1_555
Na11 O109 2.774405 1_555
Na12 O106 2.529180 1_555
Na12 O104 2.554364 1_555
Na12 O118 2.578878 1_555
Na12 O116 2.587027 1_555
Na12 O102 2.612827 1_555
Na12 O114 2.712338 1_555
Na13 O115 2.515438 1_555
Na13 O119 2.531863 1_555
Na13 O117 2.534643 1_555
Na13 O103 2.674240 1_555
Na13 O105 2.754823 1_555
Na13 O107 2.779159 1_555
Na14 O120 2.454309 1_555
Na14 O132 2.568055 1_555
Na14 O134 2.618611 1_555
Na14 O136 2.618721 1_555
Na14 O124 2.642233 1_555
Na14 O122 2.671601 1_555
Na15 O135 2.440193 1_555
Na15 O137 2.467367 1_555
Na15 O133 2.535593 1_555
Na15 O123 2.542741 1_555
Na15 O125 2.725034 1_555
Na15 O121 2.775650 1_555
Na16 O142 2.442554 1_555
Na16 O138 2.470102 1_555
Na16 O128 2.592702 1_555
Na16 O130 2.673081 1_555
Na16 O140 2.691191 1_555
Na16 O126 2.703625 1_555
Na17 O143 2.490590 1_555
Na17 O141 2.563680 1_555
Na17 O139 2.566402 1_555
Na17 O129 2.618620 1_555
Na17 O127 2.657412 1_555
Na17 O131 2.691440 1_555
O0 Si0 1.605651 1_555
O0 Sn0 2.021625 1_545
O1 S0 1.488009 1_545
O1 Sn1 2.144094 1_555
O2 S1 1.470809 1_555
O2 Sn1 2.194741 1_565
O3 Si1 1.621962 1_555
O3 Sn0 2.020929 1_655
O4 Si2 1.638176 1_555
O4 Sn1 1.961900 1_555
O5 S2 1.457016 1_555
O5 Sn0 2.269509 1_645
O6 Si3 1.631683 1_555
O6 Sn2 1.958232 1_555
O7 Si4 1.629787 1_555
O7 Sn3 1.968497 1_545
O8 Si5 1.618258 1_555
O8 Sn3 1.954424 1_555
O9 S3 1.465026 1_555
O9 Sn2 2.256966 1_665
O10 Si6 1.647028 1_545
O10 Sn3 1.994357 1_545
O11 Si7 1.631532 1_555
O11 Sn2 1.992434 1_655
O12 Si6 1.643470 1_555
O12 Sn5 1.965041 1_565
O13 Si7 1.640815 1_565
O13 Sn4 1.938990 1_565
O14 Si3 1.660555 1_555
O14 Sn4 1.965881 1_455
O15 Si4 1.656361 1_555
O15 Sn5 1.984002 1_555
O16 S3 1.509639 1_455
O16 Sn4 2.123222 1_465
O17 Si5 1.655026 1_555
O17 Sn5 1.971783 1_565
O18 S1 1.498874 1_555
O18 Sn7 2.106739 1_555
O19 Si1 1.657900 1_555
O19 Sn6 1.969390 1_655
O20 S2 1.486551 1_455
O20 Sn6 2.121816 1_545
O21 Si2 1.683479 1_555
O21 Sn7 1.954891 1_545
O22 Si0 1.650369 1_565
O22 Sn6 1.977687 1_555
O23 S0 1.501055 1_555
O23 Sn7 2.091887 1_555
O24 S4 1.459413 1_555
O24 Zn0 2.240824 1_555
O25 S5 1.466773 1_555
O25 Zn1 2.231428 1_555
O26 S6 1.456155 1_555
O26 Zn0 2.262644 1_555
O27 S7 1.470787 1_555
O27 Zn1 2.089353 1_555
O28 S8 1.447963 1_555
O28 Zn0 2.216536 1_555
O29 S9 1.467030 1_555
O29 Zn1 2.132279 1_555
O30 Si8 1.612635 1_555
O30 Sn8 1.996546 1_555
O31 S10 1.470616 1_555
O31 Zn2 2.082575 1_555
O32 S11 1.468854 1_555
O32 Sn8 2.182124 1_555
O33 S12 1.467354 1_555
O33 Zn2 2.159404 1_555
O34 Si9 1.622816 1_555
O34 Sn8 2.001383 1_555
O35 S13 1.466197 1_555
O35 Zn2 2.153186 1_555
O36 Si9 1.630467 1_555
O36 Sn9 1.959687 1_554
O37 S13 1.491833 1_555
O37 Sn10 2.164596 1_554
O38 Si8 1.640484 1_555
O38 Sn9 2.005959 1_554
O39 S10 1.501257 1_555
O39 Sn10 2.140103 1_554
O40 S11 1.478395 1_555
O40 Sn9 2.166247 1_554
O41 S12 1.502709 1_555
O41 Sn10 2.084250 1_554
O42 S6 1.496855 1_555
O42 Sn11 2.209967 1_555
O43 S7 1.484101 1_555
O43 Sn12 2.190400 1_555
O44 S8 1.498518 1_555
O44 Sn11 2.092107 1_555
O45 S9 1.485986 1_555
O45 Sn12 2.213070 1_555
O46 S4 1.513654 1_555
O46 Sn11 2.153342 1_555
O47 S5 1.472542 1_555
O47 Sn12 2.200072 1_555
O48 S14 1.479916 1_555
O48 Sn13 2.158068 1_556
O49 S15 1.499590 1_555
O49 Sn14 2.176040 1_556
O50 Si10 1.614936 1_555
O50 Sn13 1.935669 1_556
O51 S16 1.504782 1_555
O51 Sn14 2.104647 1_556
O52 Si11 1.639746 1_555
O52 Sn13 1.970849 1_556
O53 Si12 1.627858 1_555
O53 Sn14 1.926948 1_556
O54 S17 1.486541 1_555
O54 Sn15 2.140520 1_555
O55 Si13 1.648746 1_555
O55 Sn16 1.950311 1_555
O56 Si14 1.641677 1_555
O56 Sn15 1.930069 1_555
O57 Si15 1.631045 1_555
O57 Sn16 1.958125 1_555
O58 Si16 1.640721 1_555
O58 Sn15 1.922314 1_555
O59 Si17 1.636936 1_555
O59 Sn16 1.974285 1_555
O60 Si16 1.647326 1_555
O60 Sn17 1.971807 1_555
O61 Si17 1.615060 1_555
O61 Sn18 2.007028 1_555
O62 S17 1.479433 1_555
O62 Sn17 2.150975 1_555
O63 Si13 1.631142 1_555
O63 Sn18 1.989343 1_555
O64 Si14 1.648628 1_555
O64 Sn17 1.958625 1_555
O65 Si15 1.628029 1_555
O65 Sn18 1.998967 1_555
O66 Si10 1.641599 1_555
O66 Sn19 2.011665 1_555
O67 S16 1.486145 1_555
O67 Sn20 2.235826 1_555
O68 Si11 1.643667 1_555
O68 Sn19 1.999914 1_555
O69 Si12 1.633585 1_555
O69 Sn20 1.991047 1_555
O70 S14 1.483351 1_555
O70 Sn19 2.103617 1_555
O71 S15 1.482159 1_555
O71 Sn20 2.176347 1_555
O72 Si16 1.599376 1_555
O72 Sn0 1.988300 1_555
O73 Si17 1.649179 1_555
O73 Sn1 1.977092 1_565
O74 S17 1.472266 1_555
O74 Sn1 2.185689 1_565
O75 Si13 1.614883 1_555
O75 Sn0 2.009947 1_655
O76 Si14 1.597812 1_555
O76 Sn0 2.028404 1_545
O77 Si15 1.637191 1_555
O77 Sn1 1.966320 1_555
O78 Si10 1.627312 1_555
O78 Sn2 1.981722 1_555
O79 S16 1.477282 1_555
O79 Sn3 2.283454 1_545
O80 Si11 1.645429 1_555
O80 Sn2 2.016849 1_565
O81 Si12 1.637035 1_555
O81 Sn3 2.028568 1_555
O82 S14 1.475072 1_555
O82 Sn3 2.255654 1_555
O83 S15 1.465994 1_555
O83 Sn2 2.302505 1_665
O84 S4 1.511736 1_555
O84 Sn5 2.249928 1_555
O85 S5 1.510423 1_555
O85 Sn4 2.151002 1_555
O86 S6 1.516167 1_555
O86 Sn4 2.235071 1_455
O87 S7 1.509662 1_555
O87 Sn5 2.253859 1_555
O88 S8 1.497761 1_555
O88 Sn5 2.259713 1_565
O89 S9 1.533241 1_555
O89 Sn4 2.162001 1_565
O90 Si8 1.680895 1_555
O90 Sn7 1.987472 1_555
O91 S10 1.485166 1_555
O91 Sn6 2.224876 1_655
O92 S11 1.501255 1_555
O92 Sn7 2.152227 1_545
O93 S12 1.473777 1_555
O93 Sn6 2.283473 1_645
O94 Si9 1.665473 1_555
O94 Sn6 1.999209 1_545
O95 S13 1.495176 1_555
O95 Sn7 2.240847 1_545
O96 Si6 1.607575 1_545
O96 Zn0 2.022364 1_555
O97 Si7 1.626528 1_555
O97 Zn1 2.030031 1_555
O98 Si3 1.585402 1_555
O98 Zn0 1.936341 1_555
O99 Si4 1.602387 1_555
O99 Zn1 1.937572 1_555
O100 Si5 1.587223 1_555
O100 Zn0 1.920724 1_555
O101 S3 1.460871 1_555
O101 Zn1 2.205285 1_555
O102 S1 1.470958 1_555
O102 Sn8 2.184032 1_555
O103 Si1 1.660765 1_555
O103 Zn2 1.957804 1_555
O104 Si2 1.616226 1_555
O104 Sn8 2.022040 1_555
O105 S2 1.482576 1_555
O105 Zn2 2.119057 1_555
O106 Si0 1.620636 1_555
O106 Sn8 2.011998 1_555
O107 S0 1.478753 1_545
O107 Zn2 2.158130 1_555
O108 S14 1.487882 1_555
O108 Sn9 2.147988 1_555
O109 S15 1.491738 1_555
O109 Sn10 2.144899 1_555
O110 S16 1.478687 1_555
O110 Sn9 2.272088 1_555
O111 Si10 1.645094 1_655
O111 Sn10 1.961786 1_555
O112 Si11 1.667103 1_545
O112 Sn9 2.007843 1_555
O113 Si12 1.641879 1_545
O113 Sn10 1.967150 1_555
O114 S17 1.482432 1_545
O114 Sn11 2.166517 1_555
O115 Si13 1.630711 1_545
O115 Sn12 1.958576 1_555
O116 Si14 1.647054 1_555
O116 Sn11 1.964281 1_555
O117 Si15 1.618786 1_555
O117 Sn12 1.957832 1_555
O118 Si17 1.650486 1_555
O118 Sn11 1.962246 1_555
O119 Si16 1.614826 1_655
O119 Sn12 1.967875 1_555
O120 Si9 1.665929 1_555
O120 Sn13 2.008031 1_555
O121 S13 1.504247 1_555
O121 Sn14 2.177634 1_555
O122 S10 1.490343 1_455
O122 Sn13 2.178730 1_555
O123 Si8 1.666249 1_555
O123 Sn14 1.978989 1_555
O124 S11 1.483527 1_565
O124 Sn13 2.224060 1_555
O125 S12 1.507670 1_565
O125 Sn14 2.164817 1_555
O126 S6 1.516844 1_565
O126 Sn15 2.205566 1_555
O127 S7 1.503821 1_565
O127 Sn16 2.236847 1_555
O128 S8 1.523011 1_555
O128 Sn15 2.175624 1_555
O129 S9 1.496881 1_555
O129 Sn16 2.310325 1_555
O130 S5 1.516025 1_455
O130 Sn15 2.163849 1_555
O131 S4 1.499588 1_555
O131 Sn16 2.273175 1_555
O132 Si0 1.692388 1_565
O132 Sn17 2.017404 1_555
O133 S0 1.459571 1_555
O133 Sn18 2.255735 1_555
O134 S1 1.488624 1_555
O134 Sn17 2.222300 1_555
O135 Si1 1.640046 1_555
O135 Sn18 2.089565 1_555
O136 S2 1.515557 1_455
O136 Sn17 2.190329 1_555
O137 Si2 1.634846 1_555
O137 Sn18 2.107173 1_555
O138 Si3 1.646802 1_555
O138 Sn19 2.052229 1_555
O139 Si4 1.634409 1_555
O139 Sn20 1.996264 1_555
O140 S3 1.507703 1_455
O140 Sn19 2.255308 1_555
O141 Si5 1.654180 1_555
O141 Sn20 2.008729 1_555
O142 Si6 1.656285 1_555
O142 Sn19 2.017748 1_555
O143 Si7 1.628830 1_565
O143 Sn20 1.993854 1_555
