# generated using pymatgen
data_Na9Mg5TaP6(SO12)3
_symmetry_space_group_name_H-M   'P 1'
_cell_length_a   8.97379639
_cell_length_b   8.97379608
_cell_length_c   22.19893834
_cell_angle_alpha   90.19572772
_cell_angle_beta   89.80427227
_cell_angle_gamma   120.24080641
_symmetry_Int_Tables_number   1
_chemical_formula_structural   Na9Mg5TaP6(SO12)3
_chemical_formula_sum   'Na18 Mg10 Ta2 P12 S6 O72'
_cell_volume   1544.37557625
_cell_formula_units_Z   2
loop_
 _symmetry_equiv_pos_site_id
 _symmetry_equiv_pos_as_xyz
  1  'x, y, z'
loop_
 _atom_site_type_symbol
 _atom_site_label
 _atom_site_symmetry_multiplicity
 _atom_site_fract_x
 _atom_site_fract_y
 _atom_site_fract_z
 _atom_site_occupancy
  Na  Na0  1  0.36180490  0.35150308  0.24881613  1
  Na  Na1  1  0.64849692  0.63819510  0.74881613  1
  Na  Na2  1  0.03187612  0.70043664  0.58598049  1
  Na  Na3  1  0.66598993  0.96745209  0.58553741  1
  Na  Na4  1  0.29956336  0.96812388  0.08598049  1
  Na  Na5  1  0.03254791  0.33401007  0.08553741  1
  Na  Na6  1  0.96327256  0.66980453  0.91321038  1
  Na  Na7  1  0.70443799  0.03336293  0.91289907  1
  Na  Na8  1  0.33012460  0.29441791  0.91186590  1
  Na  Na9  1  0.96663707  0.29556201  0.41289907  1
  Na  Na10  1  0.33019547  0.03672744  0.41321038  1
  Na  Na11  1  0.70558209  0.66987540  0.41186590  1
  Na  Na12  1  0.01161430  0.01278546  0.49730853  1
  Na  Na13  1  0.98721454  0.98838570  0.99730853  1
  Na  Na14  1  0.66613368  0.32261658  0.82670486  1
  Na  Na15  1  0.67738342  0.33386632  0.32670486  1
  Na  Na16  1  0.34686933  0.67857541  0.16599271  1
  Na  Na17  1  0.32142459  0.65313067  0.66599271  1
  Mg  Mg0  1  0.99769388  0.99801559  0.34675205  1
  Mg  Mg1  1  0.00198441  0.00230612  0.84675205  1
  Mg  Mg2  1  0.00851673  0.00887082  0.65821140  1
  Mg  Mg3  1  0.99112918  0.99148327  0.15821140  1
  Mg  Mg4  1  0.66371752  0.32530510  0.68931637  1
  Mg  Mg5  1  0.67469490  0.33628248  0.18931637  1
  Mg  Mg6  1  0.66726119  0.33612430  0.97996349  1
  Mg  Mg7  1  0.66387570  0.33273881  0.47996349  1
  Mg  Mg8  1  0.33905330  0.66823078  0.01389517  1
  Mg  Mg9  1  0.33176922  0.66094670  0.51389517  1
  Ta  Ta0  1  0.33326436  0.67086138  0.31267966  1
  Ta  Ta1  1  0.32913862  0.66673564  0.81267966  1
  P  P0  1  0.29565787  0.00183292  0.24933512  1
  P  P1  1  0.70574008  0.70311154  0.25196963  1
  P  P2  1  0.99662647  0.29363561  0.25053426  1
  P  P3  1  0.29688846  0.29425992  0.75196963  1
  P  P4  1  0.99816708  0.70434213  0.74933512  1
  P  P5  1  0.70636439  0.00337353  0.75053426  1
  P  P6  1  0.62741330  0.66882760  0.91720411  1
  P  P7  1  0.04051582  0.37200732  0.91983657  1
  P  P8  1  0.33109279  0.95898262  0.91976823  1
  P  P9  1  0.62799268  0.95948418  0.41983657  1
  P  P10  1  0.33117240  0.37258670  0.41720411  1
  P  P11  1  0.04101738  0.66890721  0.41976823  1
  S  S0  1  0.95962823  0.33280340  0.58273798  1
  S  S1  1  0.37175460  0.04029583  0.58255126  1
  S  S2  1  0.66566123  0.62781005  0.58348709  1
  S  S3  1  0.95970417  0.62824540  0.08255126  1
  S  S4  1  0.66719660  0.04037177  0.08273798  1
  S  S5  1  0.37218995  0.33433877  0.08348709  1
  O  O0  1  0.21289577  0.02783288  0.30592603  1
  O  O1  1  0.80488424  0.77989967  0.31027315  1
  O  O2  1  0.97995165  0.19150477  0.30772093  1
  O  O3  1  0.22010033  0.19511576  0.81027315  1
  O  O4  1  0.97216712  0.78710423  0.80592603  1
  O  O5  1  0.80849523  0.02004835  0.80772093  1
  O  O6  1  0.77509783  0.95699274  0.69367478  1
  O  O7  1  0.18503465  0.22034364  0.69664975  1
  O  O8  1  0.03435374  0.81134754  0.69178702  1
  O  O9  1  0.77965636  0.81496535  0.19664975  1
  O  O10  1  0.04300726  0.22490217  0.19367478  1
  O  O11  1  0.18865246  0.96564626  0.19178702  1
  O  O12  1  0.87304466  0.35796674  0.63470614  1
  O  O13  1  0.48262706  0.12759277  0.63419363  1
  O  O14  1  0.64796756  0.52688973  0.63740781  1
  O  O15  1  0.87240723  0.51737294  0.13419363  1
  O  O16  1  0.64203326  0.12695534  0.13470614  1
  O  O17  1  0.47311027  0.35203244  0.13740781  1
  O  O18  1  0.45468561  0.31137070  0.02844162  1
  O  O19  1  0.86294157  0.54977421  0.02591454  1
  O  O20  1  0.69256666  0.14293734  0.02655600  1
  O  O21  1  0.45022579  0.13705843  0.52591454  1
  O  O22  1  0.68862930  0.54531439  0.52844162  1
  O  O23  1  0.85706266  0.30743334  0.52655600  1
  O  O24  1  0.54251209  0.70026170  0.97106625  1
  O  O25  1  0.14873444  0.45221265  0.97640268  1
  O  O26  1  0.30157947  0.85039389  0.97627791  1
  O  O27  1  0.54778735  0.85126556  0.47640268  1
  O  O28  1  0.29973830  0.45748791  0.47106625  1
  O  O29  1  0.14960611  0.69842053  0.47627791  1
  O  O30  1  0.14136939  0.64426554  0.36489234  1
  O  O31  1  0.50310993  0.85830672  0.36510104  1
  O  O32  1  0.35692881  0.49046521  0.36004672  1
  O  O33  1  0.14169328  0.49689007  0.86510104  1
  O  O34  1  0.35573446  0.85863061  0.86489234  1
  O  O35  1  0.50953479  0.64307119  0.86004672  1
  O  O36  1  0.02241960  0.82832964  0.41104765  1
  O  O37  1  0.80709024  0.97971772  0.41119439  1
  O  O38  1  0.17212552  0.19122372  0.41005512  1
  O  O39  1  0.02028228  0.19290976  0.91119439  1
  O  O40  1  0.17167036  0.97758040  0.91104765  1
  O  O41  1  0.80877628  0.82787448  0.91005512  1
  O  O42  1  0.97371213  0.17485336  0.58847746  1
  O  O43  1  0.19459658  0.01453042  0.58748641  1
  O  O44  1  0.82543206  0.80453532  0.58650308  1
  O  O45  1  0.98546958  0.80540342  0.08748641  1
  O  O46  1  0.82514664  0.02628787  0.08847746  1
  O  O47  1  0.19546468  0.17456794  0.08650308  1
  O  O48  1  0.67723676  0.15360156  0.74396009  1
  O  O49  1  0.48425502  0.33553388  0.74494189  1
  O  O50  1  0.83868653  0.52438411  0.74323101  1
  O  O51  1  0.66446612  0.51574498  0.24494189  1
  O  O52  1  0.84639844  0.32276324  0.24396009  1
  O  O53  1  0.47561589  0.16131347  0.24323101  1
  O  O54  1  0.63777483  0.50184951  0.91983419  1
  O  O55  1  0.86327283  0.36149550  0.92038215  1
  O  O56  1  0.49869006  0.13669979  0.92066172  1
  O  O57  1  0.63850450  0.13672717  0.42038215  1
  O  O58  1  0.49815049  0.36222517  0.41983419  1
  O  O59  1  0.86330021  0.50130994  0.42066172  1
  O  O60  1  0.34779299  0.48666218  0.07912062  1
  O  O61  1  0.13663262  0.64567479  0.07954896  1
  O  O62  1  0.50805197  0.86665791  0.07816145  1
  O  O63  1  0.35432521  0.86336738  0.57954896  1
  O  O64  1  0.51333782  0.65220701  0.57912062  1
  O  O65  1  0.13334209  0.49194803  0.57816145  1
  O  O66  1  0.31492629  0.83531105  0.25923375  1
  O  O67  1  0.51547957  0.68318000  0.25987468  1
  O  O68  1  0.17073167  0.48067880  0.25935615  1
  O  O69  1  0.31682000  0.48452043  0.75987468  1
  O  O70  1  0.16468895  0.68507371  0.75923375  1
  O  O71  1  0.51932120  0.82926833  0.75935615  1
loop_
_geom_bond_atom_site_label_1
_geom_bond_atom_site_label_2
_geom_bond_distance
_geom_bond_site_symmetry_2
Na0 O51 2.350226 1_555
Na0 O53 2.392662 1_555
Na0 O68 2.517139 1_555
Na0 O67 2.585320 1_555
Na0 O17 2.663187 1_555
Na0 O32 2.772564 1_555
Na0 O10 2.777414 1_555
Na0 O0 2.816628 1_555
Na1 O49 2.350225 1_555
Na1 O50 2.392662 1_555
Na1 O71 2.517139 1_555
Na1 O69 2.585320 1_555
Na1 O14 2.663187 1_555
Na1 O35 2.772564 1_555
Na1 O6 2.777414 1_555
Na1 O4 2.816628 1_555
Na2 O43 2.435552 1_565
Na2 O44 2.459236 1_455
Na2 O65 2.464191 1_555
Na2 O63 2.503621 1_555
Na2 O8 2.543624 1_555
Na2 O29 2.654893 1_555
Na2 O12 2.871650 1_455
Na2 O22 2.958519 1_455
Na3 O42 2.432546 1_565
Na3 O64 2.448445 1_555
Na3 O63 2.466302 1_555
Na3 O44 2.508482 1_555
Na3 O6 2.615378 1_555
Na3 O27 2.639676 1_555
Na3 O13 2.880703 1_565
Na3 O23 2.950447 1_565
Na4 O45 2.435552 1_455
Na4 O47 2.459236 1_565
Na4 O62 2.464191 1_555
Na4 O61 2.503621 1_555
Na4 O11 2.543624 1_555
Na4 O26 2.654893 1_554
Na4 O16 2.871650 1_565
Na4 O18 2.958519 1_565
Na5 O46 2.432546 1_455
Na5 O60 2.448445 1_555
Na5 O61 2.466302 1_555
Na5 O47 2.508482 1_555
Na5 O10 2.615378 1_555
Na5 O25 2.639676 1_554
Na5 O15 2.880703 1_455
Na5 O20 2.950447 1_455
Na6 O41 2.433398 1_555
Na6 O40 2.434228 1_655
Na6 O55 2.446729 1_555
Na6 O54 2.527714 1_555
Na6 O4 2.591833 1_555
Na6 O19 2.693804 1_556
Na6 O33 2.931109 1_655
Na6 O26 2.976725 1_655
Na7 O39 2.448839 1_655
Na7 O41 2.453357 1_545
Na7 O56 2.453555 1_555
Na7 O5 2.536397 1_555
Na7 O55 2.549615 1_555
Na7 O20 2.725949 1_556
Na7 O24 2.890057 1_545
Na7 O34 2.907802 1_545
Na8 O54 2.437806 1_555
Na8 O3 2.443426 1_555
Na8 O39 2.451524 1_555
Na8 O40 2.456369 1_545
Na8 O56 2.547521 1_555
Na8 O18 2.795600 1_556
Na8 O35 2.939801 1_555
Na8 O25 2.999847 1_555
Na9 O37 2.448839 1_545
Na9 O38 2.453358 1_655
Na9 O59 2.453555 1_555
Na9 O2 2.536397 1_555
Na9 O57 2.549615 1_555
Na9 O23 2.725949 1_555
Na9 O28 2.890057 1_655
Na9 O30 2.907802 1_655
Na10 O38 2.433398 1_555
Na10 O36 2.434228 1_545
Na10 O57 2.446729 1_555
Na10 O58 2.527714 1_555
Na10 O0 2.591833 1_555
Na10 O21 2.693804 1_555
Na10 O31 2.931109 1_545
Na10 O29 2.976725 1_545
Na11 O58 2.437806 1_555
Na11 O1 2.443426 1_555
Na11 O37 2.451524 1_555
Na11 O36 2.456369 1_655
Na11 O59 2.547521 1_555
Na11 O22 2.795600 1_555
Na11 O32 2.939801 1_555
Na11 O27 2.999847 1_555
Na12 O38 2.463617 1_555
Na12 O36 2.560255 1_545
Na12 O37 2.565634 1_445
Na12 O43 2.588498 1_555
Na12 O42 2.607738 1_455
Na12 O44 2.657442 1_445
Na13 O41 2.463617 1_555
Na13 O40 2.560255 1_655
Na13 O39 2.565634 1_665
Na13 O45 2.588498 1_556
Na13 O46 2.607738 1_566
Na13 O47 2.657442 1_666
Na14 O48 2.411693 1_555
Na14 O49 2.486761 1_555
Na14 O50 2.507798 1_555
Na14 O56 2.620850 1_555
Na14 O55 2.640897 1_555
Na14 O54 2.704019 1_555
Na15 O52 2.411693 1_555
Na15 O51 2.486761 1_555
Na15 O53 2.507798 1_555
Na15 O59 2.620850 1_555
Na15 O57 2.640897 1_555
Na15 O58 2.704019 1_555
Na16 O62 2.507308 1_555
Na16 O67 2.567581 1_555
Na16 O60 2.583907 1_555
Na16 O66 2.593627 1_555
Na16 O61 2.605516 1_555
Na16 O68 2.668900 1_555
Na17 O65 2.507308 1_555
Na17 O69 2.567581 1_555
Na17 O64 2.583907 1_555
Na17 O70 2.593627 1_555
Na17 O63 2.605516 1_555
Na17 O71 2.668900 1_555
Mg0 O1 2.016951 1_555
Mg0 O2 2.020053 1_565
Mg0 O0 2.022776 1_665
Mg0 O38 2.166970 1_665
Mg0 O37 2.168185 1_555
Mg0 O36 2.182301 1_655
Mg1 O3 2.016951 1_555
Mg1 O5 2.020054 1_455
Mg1 O4 2.022776 1_445
Mg1 O41 2.166970 1_445
Mg1 O39 2.168185 1_555
Mg1 O40 2.182301 1_545
Mg2 O7 1.951630 1_555
Mg2 O8 2.043364 1_545
Mg2 O6 2.057441 1_445
Mg2 O43 2.270049 1_555
Mg2 O42 2.280385 1_455
Mg2 O44 2.357757 1_445
Mg3 O9 1.951630 1_555
Mg3 O11 2.043364 1_655
Mg3 O10 2.057441 1_665
Mg3 O45 2.270049 1_555
Mg3 O46 2.280385 1_565
Mg3 O47 2.357757 1_665
Mg4 O48 2.015539 1_555
Mg4 O49 2.064303 1_555
Mg4 O50 2.064493 1_555
Mg4 O13 2.092999 1_555
Mg4 O12 2.125195 1_555
Mg4 O14 2.212036 1_555
Mg5 O52 2.015539 1_555
Mg5 O51 2.064303 1_555
Mg5 O53 2.064493 1_555
Mg5 O15 2.092999 1_555
Mg5 O16 2.125195 1_555
Mg5 O17 2.212036 1_555
Mg6 O18 2.099340 1_556
Mg6 O19 2.099433 1_556
Mg6 O54 2.115607 1_555
Mg6 O55 2.116120 1_555
Mg6 O56 2.120059 1_555
Mg6 O20 2.130069 1_556
Mg7 O22 2.099340 1_555
Mg7 O21 2.099433 1_555
Mg7 O58 2.115607 1_555
Mg7 O57 2.116120 1_555
Mg7 O59 2.120059 1_555
Mg7 O23 2.130069 1_555
Mg8 O24 1.944603 1_554
Mg8 O25 2.007797 1_554
Mg8 O26 2.011866 1_554
Mg8 O62 2.187075 1_555
Mg8 O60 2.214293 1_555
Mg8 O61 2.253508 1_555
Mg9 O28 1.944603 1_555
Mg9 O27 2.007797 1_555
Mg9 O29 2.011866 1_555
Mg9 O65 2.187075 1_555
Mg9 O64 2.214293 1_555
Mg9 O63 2.253508 1_555
O0 P0 1.533094 1_555
O1 P1 1.525054 1_555
O2 P2 1.530512 1_555
O3 P3 1.525054 1_555
O4 P4 1.533094 1_555
O5 P5 1.530512 1_555
O6 P5 1.548080 1_565
O7 P3 1.512549 1_555
O8 P4 1.533298 1_455
O9 P1 1.512549 1_555
O10 P2 1.548080 1_455
O11 P0 1.533298 1_565
O12 S0 1.467786 1_555
O13 S1 1.460966 1_555
O14 S2 1.462677 1_555
O15 S3 1.460966 1_555
O16 S4 1.467786 1_555
O17 S5 1.462677 1_555
O18 S5 1.493145 1_555
O19 S3 1.488661 1_555
O20 S4 1.499755 1_555
O21 S1 1.488661 1_555
O22 S2 1.493145 1_555
O23 S0 1.499755 1_555
O24 P6 1.515799 1_555
O25 P7 1.528411 1_555
O26 P8 1.529537 1_555
O27 P9 1.528411 1_555
O28 P10 1.515799 1_555
O29 P11 1.529537 1_555
O30 P11 1.592198 1_555
O30 Ta0 1.984955 1_555
O31 P9 1.591706 1_555
O31 Ta0 1.980663 1_555
O32 P10 1.594751 1_555
O32 Ta0 2.032441 1_555
O33 P7 1.591706 1_555
O33 Ta1 1.980663 1_555
O34 P8 1.592198 1_555
O34 Ta1 1.984955 1_555
O35 P6 1.594751 1_555
O35 Ta1 2.032441 1_555
O36 P11 1.534479 1_555
O37 P9 1.535255 1_555
O38 P10 1.539825 1_555
O39 P7 1.535255 1_555
O40 P8 1.534479 1_555
O41 P6 1.539825 1_555
O42 S0 1.490989 1_555
O43 S1 1.490501 1_555
O44 S2 1.511559 1_555
O45 S3 1.490501 1_555
O46 S4 1.490989 1_555
O47 S5 1.511559 1_555
O48 P5 1.504520 1_555
O49 P3 1.536199 1_555
O50 P4 1.531771 1_555
O51 P1 1.536199 1_555
O52 P2 1.504520 1_555
O53 P0 1.531771 1_555
O54 P6 1.548649 1_555
O55 P7 1.545192 1_655
O56 P8 1.545878 1_545
O57 P9 1.545192 1_545
O58 P10 1.548649 1_555
O59 P11 1.545878 1_655
O60 S5 1.492744 1_555
O61 S3 1.516236 1_455
O62 S4 1.495798 1_565
O63 S1 1.516236 1_565
O64 S2 1.492744 1_555
O65 S0 1.495798 1_455
O66 P0 1.604364 1_565
O66 Ta0 1.967344 1_555
O67 P1 1.633532 1_555
O67 Ta0 1.966158 1_555
O68 P2 1.629433 1_455
O68 Ta0 1.982899 1_555
O69 P3 1.633532 1_555
O69 Ta1 1.966158 1_555
O70 P4 1.604364 1_455
O70 Ta1 1.967344 1_555
O71 P5 1.629433 1_565
O71 Ta1 1.982899 1_555
