# generated using pymatgen
data_MgBe2(CoO2)4
_symmetry_space_group_name_H-M   'P 1'
_cell_length_a   5.95538059
_cell_length_b   5.95538059
_cell_length_c   5.95538059
_cell_angle_alpha   60.00000000
_cell_angle_beta   90.00000000
_cell_angle_gamma   120.00000000
_symmetry_Int_Tables_number   1
_chemical_formula_structural   MgBe2(CoO2)4
_chemical_formula_sum   'Mg1 Be2 Co4 O8'
_cell_volume   149.35286763
_cell_formula_units_Z   1
loop_
 _symmetry_equiv_pos_site_id
 _symmetry_equiv_pos_as_xyz
  1  'x, y, z'
loop_
 _atom_site_type_symbol
 _atom_site_label
 _atom_site_symmetry_multiplicity
 _atom_site_fract_x
 _atom_site_fract_y
 _atom_site_fract_z
 _atom_site_occupancy
  Mg  Mg0  1  0.75000000  0.50000000  0.75000000  1
  Be  Be0  1  0.00000000  0.00000000  0.00000000  1
  Be  Be1  1  0.25000000  0.50000000  0.25000000  1
  Co  Co0  1  0.60147700  0.20295400  0.19557000  1
  Co  Co1  1  0.60147700  0.20295400  0.60147700  1
  Co  Co2  1  0.60147700  0.79704600  0.60147700  1
  Co  Co3  1  0.19557000  0.79704600  0.60147700  1
  O  O0  1  0.89017300  0.26011600  0.36994300  1
  O  O1  1  0.87902100  0.24195500  0.87902100  1
  O  O2  1  0.87902100  0.75804500  0.36293400  1
  O  O3  1  0.36994300  0.26011600  0.36994300  1
  O  O4  1  0.36994300  0.73988400  0.36994300  1
  O  O5  1  0.36293400  0.24195500  0.87902100  1
  O  O6  1  0.87902100  0.75804500  0.87902100  1
  O  O7  1  0.36994300  0.73988400  0.89017300  1
loop_
_geom_bond_atom_site_label_1
_geom_bond_atom_site_label_2
_geom_bond_distance
_geom_bond_site_symmetry_2
Mg0 O6 1.882127 1_555
Mg0 O1 1.882127 1_555
Mg0 O5 1.882127 1_555
Mg0 O2 1.882127 1_555
Be0 O1 1.764784 1_454
Be0 O2 1.764784 1_445
Be0 O5 1.764784 1_554
Be0 O6 1.764784 1_444
Be1 O0 1.749676 1_455
Be1 O7 1.749676 1_554
Be1 O3 1.749676 1_555
Be1 O4 1.749676 1_555
Co0 O0 1.979516 1_555
Co0 O3 1.979516 1_555
Co0 O4 1.979521 1_545
Co0 Mg0 2.166605 1_554
Co0 O6 2.349051 1_554
Co0 O1 2.349055 1_554
Co0 O5 2.349055 1_554
Co1 O0 1.979512 1_555
Co1 O3 1.979512 1_555
Co1 O7 1.979520 1_545
Co1 Mg0 2.166601 1_555
Co1 O1 2.349037 1_555
Co1 O5 2.349037 1_555
Co1 O2 2.349050 1_555
Co2 O7 1.979512 1_555
Co2 O4 1.979512 1_555
Co2 O0 1.979520 1_565
Co2 Mg0 2.166601 1_555
Co2 O6 2.349037 1_555
Co2 O2 2.349037 1_555
Co2 O5 2.349050 1_555
Co3 O7 1.979516 1_555
Co3 O4 1.979516 1_555
Co3 O3 1.979521 1_565
Co3 Mg0 2.166605 1_455
Co3 O1 2.349051 1_455
Co3 O6 2.349055 1_455
Co3 O2 2.349055 1_455
