# generated using pymatgen
data_YbCuBi
_symmetry_space_group_name_H-M   'P 1'
_cell_length_a   4.59588597
_cell_length_b   4.59588597
_cell_length_c   8.01039900
_cell_angle_alpha   90.00000000
_cell_angle_beta   90.00000000
_cell_angle_gamma   119.99999964
_symmetry_Int_Tables_number   1
_chemical_formula_structural   YbCuBi
_chemical_formula_sum   'Yb2 Cu2 Bi2'
_cell_volume   146.52889435
_cell_formula_units_Z   2
loop_
 _symmetry_equiv_pos_site_id
 _symmetry_equiv_pos_as_xyz
  1  'x, y, z'
loop_
 _atom_site_type_symbol
 _atom_site_label
 _atom_site_symmetry_multiplicity
 _atom_site_fract_x
 _atom_site_fract_y
 _atom_site_fract_z
 _atom_site_occupancy
  Yb  Yb0  1  0.00000000  0.00000000  0.00000000  1
  Yb  Yb1  1  0.00000000  0.00000000  0.50000000  1
  Cu  Cu0  1  0.66666700  0.33333300  0.25000000  1
  Cu  Cu1  1  0.33333300  0.66666700  0.75000000  1
  Bi  Bi0  1  0.33333300  0.66666700  0.25000000  1
  Bi  Bi1  1  0.66666700  0.33333300  0.75000000  1
loop_
_geom_bond_atom_site_label_1
_geom_bond_atom_site_label_2
_geom_bond_distance
_geom_bond_site_symmetry_2
Cu0 Yb0 3.324322 1_655
Cu0 Yb1 3.324322 1_655
Cu0 Yb0 3.324325 1_665
Cu0 Yb1 3.324325 1_555
Cu0 Yb1 3.324325 1_665
Cu0 Yb0 3.324325 1_555
Cu1 Yb0 3.324322 1_566
Cu1 Yb1 3.324322 1_565
Cu1 Yb0 3.324325 1_556
Cu1 Yb0 3.324325 1_666
Cu1 Yb1 3.324325 1_555
Cu1 Yb1 3.324325 1_665
Bi0 Cu0 2.653433 1_455
Bi0 Cu0 2.653433 1_565
Bi0 Cu0 2.653441 1_555
Bi0 Yb1 3.324322 1_565
Bi0 Yb0 3.324322 1_565
Bi0 Yb0 3.324325 1_665
Bi0 Yb1 3.324325 1_555
Bi0 Yb1 3.324325 1_665
Bi0 Yb0 3.324325 1_555
Bi1 Cu1 2.653433 1_545
Bi1 Cu1 2.653433 1_655
Bi1 Cu1 2.653441 1_555
Bi1 Yb1 3.324322 1_655
Bi1 Yb0 3.324322 1_656
Bi1 Yb0 3.324325 1_556
Bi1 Yb0 3.324325 1_666
Bi1 Yb1 3.324325 1_555
Bi1 Yb1 3.324325 1_665
