# generated using pymatgen
data_Na5Ta2Ga2Si3(PO8)3
_symmetry_space_group_name_H-M   'P 1'
_cell_length_a   8.87107538
_cell_length_b   8.87886487
_cell_length_c   22.19487832
_cell_angle_alpha   89.29107440
_cell_angle_beta   90.66352975
_cell_angle_gamma   119.66621556
_symmetry_Int_Tables_number   1
_chemical_formula_structural   Na5Ta2Ga2Si3(PO8)3
_chemical_formula_sum   'Na15 Ta6 Ga6 Si9 P9 O72'
_cell_volume   1518.88965021
_cell_formula_units_Z   3
loop_
 _symmetry_equiv_pos_site_id
 _symmetry_equiv_pos_as_xyz
  1  'x, y, z'
loop_
 _atom_site_type_symbol
 _atom_site_label
 _atom_site_symmetry_multiplicity
 _atom_site_fract_x
 _atom_site_fract_y
 _atom_site_fract_z
 _atom_site_occupancy
  Na  Na0  1  0.98995193  0.62552128  0.24517887  1
  Na  Na1  1  0.37271176  0.01010916  0.74556834  1
  Na  Na2  1  0.03867303  0.69750143  0.57835001  1
  Na  Na3  1  0.64904055  0.95704957  0.58066144  1
  Na  Na4  1  0.30090926  0.96049482  0.07808258  1
  Na  Na5  1  0.04052514  0.35016553  0.08195196  1
  Na  Na6  1  0.97380520  0.67517235  0.91558016  1
  Na  Na7  1  0.96982590  0.29440135  0.41007083  1
  Na  Na8  1  0.32876444  0.02735535  0.41492265  1
  Na  Na9  1  0.99437743  0.99084433  0.49275868  1
  Na  Na10  1  0.99375503  0.00197160  0.99108142  1
  Na  Na11  1  0.67070896  0.32993939  0.82584669  1
  Na  Na12  1  0.65960539  0.32944254  0.32459411  1
  Na  Na13  1  0.35216056  0.66051627  0.16044055  1
  Na  Na14  1  0.33750984  0.64559042  0.66014825  1
  Ta  Ta0  1  0.99684047  -0.00039579  0.64604873  1
  Ta  Ta1  1  0.99980158  0.00230592  0.14543682  1
  Ta  Ta2  1  0.65821943  0.32998245  0.97776298  1
  Ta  Ta3  1  0.66684405  0.33952587  0.47866206  1
  Ta  Ta4  1  0.33432042  0.66730157  0.31149369  1
  Ta  Ta5  1  0.33898819  0.66975119  0.81142206  1
  Ga  Ga0  1  0.98480371  0.99055578  0.35228958  1
  Ga  Ga1  1  0.00442009  0.00980913  0.85244348  1
  Ga  Ga2  1  0.66687073  0.33001796  0.68537068  1
  Ga  Ga3  1  0.67002542  0.33297073  0.18479748  1
  Ga  Ga4  1  0.33073660  0.66423399  0.01847049  1
  Ga  Ga5  1  0.34200713  0.67505539  0.51901674  1
  Si  Si0  1  0.99149864  0.28636186  0.25239360  1
  Si  Si1  1  0.71750216  0.01115117  0.75250500  1
  Si  Si2  1  0.37676603  0.04264047  0.58561150  1
  Si  Si3  1  0.65481729  0.61338677  0.58700898  1
  Si  Si4  1  0.95669721  0.62174519  0.08432672  1
  Si  Si5  1  0.38640629  0.34500986  0.08618598  1
  Si  Si6  1  0.32783869  0.95673416  0.91718781  1
  Si  Si7  1  0.62913629  0.95393632  0.41942452  1
  Si  Si8  1  0.04531912  0.67344098  0.41756340  1
  P  P0  1  0.29517589  0.00944314  0.25277635  1
  P  P1  1  0.71074497  0.70887741  0.25107152  1
  P  P2  1  0.28926349  0.28755062  0.75214000  1
  P  P3  1  0.99069369  0.70266708  0.75317637  1
  P  P4  1  0.95866846  0.33741610  0.58434297  1
  P  P5  1  0.66218933  0.04276238  0.08441847  1
  P  P6  1  0.62236924  0.67243351  0.91918548  1
  P  P7  1  0.04630635  0.37269303  0.91849213  1
  P  P8  1  0.33328044  0.38278516  0.41865947  1
  O  O0  1  0.20756941  0.02477540  0.30902699  1
  O  O1  1  0.82710404  0.79073860  0.30610755  1
  O  O2  1  0.97659970  0.17683702  0.31235389  1
  O  O3  1  0.20790050  0.17022983  0.80678876  1
  O  O4  1  0.97533848  0.78922681  0.80962738  1
  O  O5  1  0.83424073  0.02840258  0.80961414  1
  O  O6  1  0.80225667  0.97926725  0.69047327  1
  O  O7  1  0.17217355  0.19762864  0.69513288  1
  O  O8  1  0.02820893  0.82694219  0.69625466  1
  O  O9  1  0.80167387  0.82563056  0.19430723  1
  O  O10  1  0.01838001  0.19350551  0.19162755  1
  O  O11  1  0.17291386  0.97372226  0.19560775  1
  O  O12  1  0.87447646  0.36747371  0.63851371  1
  O  O13  1  0.49797573  0.12394714  0.64402838  1
  O  O14  1  0.64093756  0.50119960  0.64481499  1
  O  O15  1  0.87675196  0.50096202  0.14323052  1
  O  O16  1  0.63072332  0.12294041  0.13958972  1
  O  O17  1  0.49930188  0.36213828  0.14423750  1
  O  O18  1  0.47011664  0.29788300  0.02671942  1
  O  O19  1  0.83698643  0.52868494  0.02346936  1
  O  O20  1  0.69977275  0.16412582  0.02794107  1
  O  O21  1  0.47091340  0.16363143  0.52455684  1
  O  O22  1  0.70179444  0.53087530  0.52716573  1
  O  O23  1  0.84118379  0.30115131  0.52618777  1
  O  O24  1  0.53318757  0.69097693  0.97398187  1
  O  O25  1  0.14579993  0.45274123  0.97694644  1
  O  O26  1  0.29498111  0.83629587  0.97647720  1
  O  O27  1  0.54630440  0.84927349  0.48058997  1
  O  O28  1  0.30116042  0.46666381  0.47247940  1
  O  O29  1  0.16193206  0.70213503  0.47717832  1
  O  O30  1  0.13522403  0.63437349  0.35797429  1
  O  O31  1  0.49701430  0.85775005  0.36115288  1
  O  O32  1  0.36076583  0.49439899  0.36059765  1
  O  O33  1  0.13911958  0.49574678  0.86358002  1
  O  O34  1  0.35456827  0.85888162  0.85757731  1
  O  O35  1  0.50788169  0.64240353  0.86141949  1
  O  O36  1  0.03296855  0.84750797  0.40858227  1
  O  O37  1  0.82512274  0.99061814  0.41277346  1
  O  O38  1  0.18046282  0.19785327  0.41222106  1
  O  O39  1  0.02218563  0.19220192  0.91197955  1
  O  O40  1  0.15355652  0.97227023  0.90948957  1
  O  O41  1  0.80678006  0.82353818  0.91274411  1
  O  O42  1  0.96658050  0.16538624  0.58917046  1
  O  O43  1  0.18183700  0.02446945  0.58987833  1
  O  O44  1  0.83664025  0.81113111  0.59132223  1
  O  O45  1  0.97642709  0.81730656  0.08980374  1
  O  O46  1  0.83434377  0.03401416  0.08907642  1
  O  O47  1  0.18879598  0.16341461  0.09103905  1
  O  O48  1  0.68082470  0.17215683  0.74644670  1
  O  O49  1  0.46981382  0.30935057  0.74520648  1
  O  O50  1  0.83752498  0.52370364  0.74485398  1
  O  O51  1  0.69047875  0.52901972  0.24468147  1
  O  O52  1  0.82630387  0.31758669  0.24646914  1
  O  O53  1  0.47471028  0.16224103  0.24474795  1
  O  O54  1  0.63884035  0.50220977  0.92220761  1
  O  O55  1  0.86492760  0.36741525  0.92059734  1
  O  O56  1  0.50718399  0.14683454  0.92138284  1
  O  O57  1  0.63822635  0.14796805  0.42141055  1
  O  O58  1  0.50168213  0.36757716  0.42239633  1
  O  O59  1  0.85621997  0.49186308  0.42180840  1
  O  O60  1  0.34955801  0.50376464  0.07677047  1
  O  O61  1  0.15324076  0.65215480  0.07831944  1
  O  O62  1  0.50583458  0.86329802  0.07569714  1
  O  O63  1  0.34511001  0.84641874  0.57999007  1
  O  O64  1  0.49309196  0.64567162  0.57906479  1
  O  O65  1  0.13771633  0.49388388  0.57598875  1
  O  O66  1  0.30127493  0.83351652  0.25508943  1
  O  O67  1  0.53146273  0.69967387  0.25537159  1
  O  O68  1  0.17038716  0.48391348  0.25495934  1
  O  O69  1  0.29813397  0.46697101  0.75703149  1
  O  O70  1  0.16545185  0.69388349  0.75575547  1
  O  O71  1  0.51885791  0.83015957  0.75675252  1
loop_
_geom_bond_atom_site_label_1
_geom_bond_atom_site_label_2
_geom_bond_distance
_geom_bond_site_symmetry_2
Na0 O51 2.353367 1_555
Na0 O52 2.377741 1_555
Na0 O66 2.456316 1_655
Na0 O68 2.483435 1_655
Na0 O15 2.502283 1_555
Na0 O30 2.786444 1_655
Na0 O1 2.873975 1_555
Na0 O11 2.897067 1_655
Na1 O49 2.352745 1_555
Na1 O48 2.376544 1_555
Na1 O70 2.489723 1_545
Na1 O13 2.495049 1_555
Na1 O71 2.515650 1_545
Na1 O34 2.778828 1_545
Na1 O3 2.855954 1_555
Na1 O8 2.868672 1_545
Na2 O63 2.362266 1_555
Na2 O65 2.370444 1_555
Na2 O44 2.474268 1_455
Na2 O29 2.499919 1_555
Na2 O43 2.543139 1_565
Na2 O22 2.827837 1_455
Na2 O12 2.866077 1_455
Na2 O8 2.891918 1_555
Na3 O63 2.369035 1_555
Na3 O64 2.402875 1_555
Na3 O27 2.412861 1_555
Na3 O42 2.496140 1_565
Na3 O44 2.573281 1_555
Na3 O6 2.737939 1_555
Na3 O13 2.833872 1_565
Na3 O23 2.915966 1_565
Na4 O62 2.368271 1_555
Na4 O61 2.379251 1_555
Na4 O47 2.472086 1_565
Na4 O26 2.511127 1_554
Na4 O45 2.521183 1_455
Na4 O18 2.833815 1_565
Na4 O16 2.878048 1_565
Na4 O11 2.883624 1_555
Na5 O61 2.353369 1_555
Na5 O60 2.385615 1_555
Na5 O46 2.482617 1_455
Na5 O25 2.507828 1_554
Na5 O47 2.581605 1_555
Na5 O10 2.748758 1_555
Na5 O15 2.787398 1_455
Na5 O20 2.885388 1_455
Na6 O40 2.313394 1_655
Na6 O55 2.407159 1_555
Na6 O41 2.421287 1_555
Na6 O4 2.546357 1_555
Na6 O54 2.587884 1_555
Na6 O19 2.706738 1_556
Na6 O26 2.813373 1_655
Na6 O33 2.901386 1_655
Na7 O37 2.344560 1_545
Na7 O38 2.410655 1_655
Na7 O2 2.432715 1_555
Na7 O59 2.433891 1_555
Na7 O57 2.574904 1_555
Na7 O23 2.843858 1_555
Na7 O30 2.858363 1_655
Na7 O28 2.899203 1_655
Na8 O36 2.303135 1_545
Na8 O57 2.405928 1_555
Na8 O38 2.448151 1_555
Na8 O0 2.568844 1_555
Na8 O58 2.631589 1_555
Na8 O21 2.732517 1_555
Na8 O29 2.855872 1_545
Na8 O31 2.868861 1_545
Na9 O37 2.311135 1_555
Na9 O36 2.394222 1_655
Na9 O38 2.506419 1_665
Na9 O43 2.634856 1_665
Na9 O44 2.657828 1_555
Na9 O42 2.741167 1_565
Na10 O39 2.348180 1_655
Na10 O41 2.384177 1_545
Na10 O40 2.408307 1_645
Na10 O45 2.680005 1_546
Na10 O46 2.701137 1_556
Na10 O47 2.739534 1_656
Na11 O48 2.294660 1_555
Na11 O50 2.417863 1_555
Na11 O49 2.454507 1_555
Na11 O55 2.620614 1_555
Na11 O56 2.625832 1_555
Na11 O54 2.741645 1_555
Na12 O52 2.328644 1_555
Na12 O53 2.371124 1_555
Na12 O51 2.411216 1_555
Na12 O57 2.621248 1_555
Na12 O59 2.697648 1_555
Na12 O58 2.710619 1_555
Na13 O60 2.327521 1_555
Na13 O62 2.486710 1_555
Na13 O61 2.498145 1_555
Na13 O67 2.546243 1_555
Na13 O68 2.637021 1_555
Na13 O66 2.786472 1_555
Na14 O64 2.280374 1_555
Na14 O65 2.463155 1_555
Na14 O63 2.480839 1_555
Na14 O69 2.577922 1_555
Na14 O71 2.695964 1_555
Na14 O70 2.786002 1_555
Ga0 O2 1.899456 1_565
Ga0 O1 1.926200 1_555
Ga0 O36 1.960181 1_655
Ga0 O37 1.963047 1_555
Ga0 O0 2.088526 1_665
Ga0 O38 2.239294 1_665
Ga1 O5 1.849212 1_455
Ga1 O3 1.943055 1_555
Ga1 O40 1.962593 1_545
Ga1 O39 2.046705 1_555
Ga1 O4 2.084620 1_445
Ga1 O41 2.174785 1_445
Ga2 O14 1.865670 1_555
Ga2 O13 1.931467 1_555
Ga2 O48 1.984518 1_555
Ga2 O12 2.003369 1_555
Ga2 O50 2.103570 1_555
Ga2 O49 2.140902 1_555
Ga3 O17 1.876724 1_555
Ga3 O15 1.932997 1_555
Ga3 O52 1.988246 1_555
Ga3 O16 2.000130 1_555
Ga3 O53 2.115185 1_555
Ga3 O51 2.137407 1_555
Ga4 O26 1.934116 1_554
Ga4 O24 1.967226 1_554
Ga4 O60 1.979164 1_555
Ga4 O25 2.006322 1_554
Ga4 O61 2.032988 1_555
Ga4 O62 2.107637 1_555
Ga5 O27 1.905989 1_555
Ga5 O29 1.952513 1_555
Ga5 O64 1.984147 1_555
Ga5 O28 1.999161 1_555
Ga5 O63 2.038577 1_555
Ga5 O65 2.141926 1_555
O0 P0 1.520728 1_555
O1 P1 1.528392 1_555
O2 Si0 1.605932 1_555
O3 P2 1.523806 1_555
O4 P3 1.520019 1_555
O5 Si1 1.587431 1_555
O6 Si1 1.668921 1_565
O6 Ta0 1.926375 1_565
O7 P2 1.578259 1_555
O7 Ta0 1.999627 1_455
O8 P3 1.592525 1_455
O8 Ta0 2.010520 1_465
O9 P1 1.573546 1_555
O9 Ta1 1.999810 1_565
O10 Si0 1.668880 1_455
O10 Ta1 1.929340 1_455
O11 P0 1.588864 1_565
O11 Ta1 2.000483 1_465
O12 P4 1.516789 1_555
O13 Si2 1.606509 1_555
O14 Si3 1.582427 1_555
O15 Si4 1.611257 1_555
O16 P5 1.519982 1_555
O17 Si5 1.584433 1_555
O18 Si5 1.677054 1_555
O18 Ta2 1.899978 1_554
O19 Si4 1.661545 1_555
O19 Ta2 1.973344 1_554
O20 P5 1.569783 1_555
O20 Ta2 2.008001 1_554
O21 Si2 1.670307 1_555
O21 Ta3 1.952506 1_555
O22 Si3 1.677395 1_555
O22 Ta3 1.912493 1_555
O23 P4 1.582042 1_555
O23 Ta3 2.023763 1_555
O24 P6 1.512722 1_555
O25 P7 1.530587 1_555
O26 Si6 1.620384 1_555
O27 Si7 1.600758 1_555
O28 P8 1.517463 1_555
O29 Si8 1.612924 1_555
O30 Si8 1.677871 1_555
O30 Ta4 1.947507 1_555
O31 Si7 1.666484 1_555
O31 Ta4 1.936651 1_555
O32 P8 1.561637 1_555
O32 Ta4 1.977065 1_555
O33 P7 1.567430 1_555
O33 Ta5 2.040200 1_555
O34 Si6 1.673670 1_555
O34 Ta5 1.923015 1_555
O35 P6 1.567365 1_555
O35 Ta5 1.962172 1_555
O36 Si8 1.612406 1_555
O37 Si7 1.610857 1_555
O38 P8 1.533685 1_555
O39 P7 1.516719 1_555
O40 Si6 1.625720 1_555
O41 P6 1.524701 1_555
O42 P4 1.565678 1_555
O42 Ta0 2.041982 1_555
O43 Si2 1.659060 1_555
O43 Ta0 1.994537 1_455
O44 Si3 1.700210 1_555
O44 Ta0 1.987852 1_565
O45 Si4 1.662607 1_555
O45 Ta1 1.993197 1_565
O46 P5 1.569272 1_555
O46 Ta1 2.038691 1_555
O47 Si5 1.698977 1_555
O47 Ta1 1.986190 1_455
O48 Si1 1.619324 1_555
O49 P2 1.524663 1_555
O50 P3 1.506476 1_555
O51 P1 1.524284 1_555
O52 Si0 1.624354 1_555
O53 P0 1.506849 1_555
O54 P6 1.589349 1_555
O54 Ta2 2.024109 1_555
O55 P7 1.587573 1_655
O55 Ta2 2.126728 1_555
O56 Si6 1.652587 1_545
O56 Ta2 1.964733 1_555
O57 Si7 1.685438 1_545
O57 Ta3 2.047063 1_555
O58 P8 1.566332 1_555
O58 Ta3 2.019758 1_555
O59 Si8 1.656766 1_655
O59 Ta3 2.000399 1_555
O60 Si5 1.607677 1_555
O61 Si4 1.633751 1_455
O62 P5 1.521177 1_565
O63 Si2 1.627893 1_565
O64 Si3 1.603604 1_555
O65 P4 1.517692 1_455
O66 P0 1.589688 1_565
O66 Ta4 2.050653 1_555
O67 P1 1.555607 1_555
O67 Ta4 2.058329 1_555
O68 Si0 1.686183 1_455
O68 Ta4 2.001227 1_555
O69 P2 1.560697 1_555
O69 Ta5 2.056218 1_555
O70 P3 1.590687 1_455
O70 Ta5 2.053835 1_555
O71 Si1 1.701037 1_565
O71 Ta5 1.949180 1_555
