# generated using pymatgen
data_CaClF
_symmetry_space_group_name_H-M   'P 1'
_cell_length_a   3.87646669
_cell_length_b   3.87646669
_cell_length_c   6.84262114
_cell_angle_alpha   90.00000000
_cell_angle_beta   90.00000000
_cell_angle_gamma   90.00000000
_symmetry_Int_Tables_number   1
_chemical_formula_structural   CaClF
_chemical_formula_sum   'Ca2 Cl2 F2'
_cell_volume   102.82402681
_cell_formula_units_Z   2
loop_
 _symmetry_equiv_pos_site_id
 _symmetry_equiv_pos_as_xyz
  1  'x, y, z'
loop_
 _atom_site_type_symbol
 _atom_site_label
 _atom_site_symmetry_multiplicity
 _atom_site_fract_x
 _atom_site_fract_y
 _atom_site_fract_z
 _atom_site_occupancy
  Ca  Ca0  1  0.75000000  0.75000000  0.80483219  1
  Ca  Ca1  1  0.25000000  0.25000000  0.19516781  1
  Cl  Cl0  1  0.25000000  0.25000000  0.64509582  1
  Cl  Cl1  1  0.75000000  0.75000000  0.35490418  1
  F  F0  1  0.25000000  0.75000000  0.00000000  1
  F  F1  1  0.75000000  0.25000000  0.00000000  1
loop_
_geom_bond_atom_site_label_1
_geom_bond_atom_site_label_2
_geom_bond_distance
_geom_bond_site_symmetry_2
Ca0 F0 2.353763 1_656
Ca0 F1 2.353763 1_566
Ca0 F0 2.353763 1_556
Ca0 F1 2.353763 1_556
Ca0 Cl0 2.950963 1_655
Ca0 Cl0 2.950963 1_565
Ca0 Cl0 2.950963 1_665
Ca0 Cl0 2.950963 1_555
Ca0 Cl1 3.078687 1_555
Ca1 F0 2.353763 1_545
Ca1 F1 2.353763 1_455
Ca1 F0 2.353763 1_555
Ca1 F1 2.353763 1_555
Ca1 Cl1 2.950963 1_545
Ca1 Cl1 2.950963 1_445
Ca1 Cl1 2.950963 1_455
Ca1 Cl1 2.950963 1_555
Ca1 Cl0 3.078687 1_555
