# generated using pymatgen
data_MgTiO2
_symmetry_space_group_name_H-M   'P 1'
_cell_length_a   7.37819902
_cell_length_b   7.37820078
_cell_length_c   7.37820059
_cell_angle_alpha   23.46209575
_cell_angle_beta   23.46209797
_cell_angle_gamma   23.46209824
_symmetry_Int_Tables_number   1
_chemical_formula_structural   MgTiO2
_chemical_formula_sum   'Mg1 Ti1 O2'
_cell_volume   55.90904424
_cell_formula_units_Z   1
loop_
 _symmetry_equiv_pos_site_id
 _symmetry_equiv_pos_as_xyz
  1  'x, y, z'
loop_
 _atom_site_type_symbol
 _atom_site_label
 _atom_site_symmetry_multiplicity
 _atom_site_fract_x
 _atom_site_fract_y
 _atom_site_fract_z
 _atom_site_occupancy
  Mg  Mg0  1  0.83302100  0.83302100  0.83302100  1
  Ti  Ti0  1  0.00013500  0.00013500  0.00013500  1
  O  O0  1  0.61882100  0.61882100  0.61882100  1
  O  O1  1  0.38135600  0.38135600  0.38135600  1
loop_
_geom_bond_atom_site_label_1
_geom_bond_atom_site_label_2
_geom_bond_distance
_geom_bond_site_symmetry_2
O0 Ti0 2.016488 1_656
O0 Ti0 2.016488 1_665
O0 Ti0 2.016489 1_566
O1 Ti0 2.015465 1_565
O1 Ti0 2.015465 1_556
O1 Ti0 2.015466 1_655
