# generated using pymatgen
data_MgWBr4O
_symmetry_space_group_name_H-M   'P 1'
_cell_length_a   3.97398433
_cell_length_b   7.25856860
_cell_length_c   7.60307333
_cell_angle_alpha   85.87337026
_cell_angle_beta   74.81734584
_cell_angle_gamma   74.10164566
_symmetry_Int_Tables_number   1
_chemical_formula_structural   MgWBr4O
_chemical_formula_sum   'Mg1 W1 Br4 O1'
_cell_volume   203.56286957
_cell_formula_units_Z   1
loop_
 _symmetry_equiv_pos_site_id
 _symmetry_equiv_pos_as_xyz
  1  'x, y, z'
loop_
 _atom_site_type_symbol
 _atom_site_label
 _atom_site_symmetry_multiplicity
 _atom_site_fract_x
 _atom_site_fract_y
 _atom_site_fract_z
 _atom_site_occupancy
  Mg  Mg0  1  0.71674600  0.67700200  0.92459400  1
  W  W0  1  0.99994500  0.02285600  0.01216900  1
  Br  Br0  1  0.27102600  0.79596000  0.69821800  1
  Br  Br1  1  0.76728400  0.19366600  0.30781800  1
  Br  Br2  1  0.09470900  0.67051100  0.17430300  1
  Br  Br3  1  0.95149400  0.32788800  0.80345300  1
  O  O0  1  0.53903200  0.96952400  0.98685100  1
loop_
_geom_bond_atom_site_label_1
_geom_bond_atom_site_label_2
_geom_bond_distance
_geom_bond_site_symmetry_2
Mg0 O0 2.092652 1_555
Br0 Mg0 2.718536 1_555
Br0 Mg0 2.720689 1_455
Br0 W0 2.795984 1_466
Br1 W0 2.475742 1_555
Br2 Mg0 2.702746 1_454
Br2 Mg0 2.703707 1_554
Br2 W0 2.732045 1_465
Br3 Mg0 2.594380 1_555
Br3 W0 2.622652 1_556
O0 W0 2.028996 1_466
O0 W0 2.031199 1_566
