# generated using pymatgen
data_Li3P7
_symmetry_space_group_name_H-M   'P 1'
_cell_length_a   7.61936257
_cell_length_b   9.79844322
_cell_length_c   10.48708764
_cell_angle_alpha   90.00000000
_cell_angle_beta   90.00000000
_cell_angle_gamma   90.00000000
_symmetry_Int_Tables_number   1
_chemical_formula_structural   Li3P7
_chemical_formula_sum   'Li12 P28'
_cell_volume   782.94385133
_cell_formula_units_Z   4
loop_
 _symmetry_equiv_pos_site_id
 _symmetry_equiv_pos_as_xyz
  1  'x, y, z'
loop_
 _atom_site_type_symbol
 _atom_site_label
 _atom_site_symmetry_multiplicity
 _atom_site_fract_x
 _atom_site_fract_y
 _atom_site_fract_z
 _atom_site_occupancy
  Li  Li0  1  0.84906872  0.30786659  0.81610327  1
  Li  Li1  1  0.34906872  0.19213341  0.18389673  1
  Li  Li2  1  0.15093128  0.80786659  0.68389673  1
  Li  Li3  1  0.65093128  0.69213341  0.31610327  1
  Li  Li4  1  0.56739219  0.02463171  0.01428946  1
  Li  Li5  1  0.06739219  0.47536829  0.98571054  1
  Li  Li6  1  0.43260781  0.52463171  0.48571054  1
  Li  Li7  1  0.93260781  0.97536829  0.51428946  1
  Li  Li8  1  0.40352555  0.30233545  0.69253438  1
  Li  Li9  1  0.90352555  0.19766455  0.30746462  1
  Li  Li10  1  0.59647445  0.80233545  0.80746562  1
  Li  Li11  1  0.09647445  0.69766455  0.19253538  1
  P  P0  1  0.28344093  0.87433132  0.31972397  1
  P  P1  1  0.78344093  0.62566868  0.68027603  1
  P  P2  1  0.71655907  0.37433132  0.18027603  1
  P  P3  1  0.21655907  0.12566868  0.81972397  1
  P  P4  1  0.63773727  0.04771267  0.38890208  1
  P  P5  1  0.13773727  0.45228733  0.61109792  1
  P  P6  1  0.36226273  0.54771267  0.11109792  1
  P  P7  1  0.86226273  0.95228733  0.88890208  1
  P  P8  1  0.53470942  0.94273653  0.56658074  1
  P  P9  1  0.03470942  0.55726347  0.43341926  1
  P  P10  1  0.46529058  0.44273653  0.93341926  1
  P  P11  1  0.96529058  0.05726347  0.06658074  1
  P  P12  1  0.40726522  0.13291758  0.49627593  1
  P  P13  1  0.90726522  0.36708242  0.50372407  1
  P  P14  1  0.59273478  0.63291758  0.00372407  1
  P  P15  1  0.09273478  0.86708242  0.99627593  1
  P  P16  1  0.31365041  0.92871936  0.88263992  1
  P  P17  1  0.81365041  0.57128064  0.11736008  1
  P  P18  1  0.68634959  0.42871936  0.61736008  1
  P  P19  1  0.18634959  0.07128064  0.38263992  1
  P  P20  1  0.12533899  0.21918635  0.99579649  1
  P  P21  1  0.62533899  0.28081365  0.00420351  1
  P  P22  1  0.87466101  0.71918635  0.50420351  1
  P  P23  1  0.37466101  0.78081365  0.49579749  1
  P  P24  1  0.96578081  0.07039687  0.73459587  1
  P  P25  1  0.46578081  0.42960313  0.26540413  1
  P  P26  1  0.03421919  0.57039687  0.76540413  1
  P  P27  1  0.53421919  0.92960313  0.23459587  1
loop_
_geom_bond_atom_site_label_1
_geom_bond_atom_site_label_2
_geom_bond_distance
_geom_bond_site_symmetry_2
Li0 P21 2.620579 1_556
Li0 P24 2.633553 1_555
Li0 P18 2.698786 1_555
Li0 P20 2.955886 1_655
Li0 P26 2.981615 1_655
Li1 P20 2.620579 1_554
Li1 P25 2.633553 1_555
Li1 P19 2.698786 1_555
Li1 P21 2.955886 1_555
Li1 P27 2.981615 1_545
Li2 P23 2.620572 1_555
Li2 P26 2.633553 1_555
Li2 P16 2.698786 1_555
Li2 P22 2.955886 1_455
Li2 P24 2.981615 1_465
Li3 P22 2.620579 1_555
Li3 P27 2.633553 1_555
Li3 P17 2.698786 1_555
Li3 P23 2.955892 1_555
Li3 P25 2.981615 1_555
Li4 P27 2.503740 1_545
Li4 P21 2.550912 1_555
Li4 P16 2.554832 1_544
Li4 P7 2.698027 1_544
Li4 P11 3.097476 1_555
Li5 P26 2.503740 1_555
Li5 P20 2.550912 1_555
Li5 P17 2.554832 1_456
Li5 P6 2.698027 1_556
Li5 P10 3.097476 1_555
Li6 P25 2.503740 1_555
Li6 P23 2.550912 1_555
Li6 P18 2.554832 1_555
Li6 P5 2.698027 1_555
Li6 P9 3.097476 1_555
Li7 P24 2.503740 1_565
Li7 P22 2.550912 1_555
Li7 P19 2.554832 1_665
Li7 P4 2.698027 1_565
Li7 P8 3.097476 1_555
Li8 P18 2.607455 1_555
Li8 P3 2.608660 1_555
Li8 P5 2.643743 1_555
Li8 P12 2.644356 1_555
Li8 P10 2.914729 1_555
Li9 P19 2.607458 1_655
Li9 P2 2.608654 1_555
Li9 P4 2.643747 1_555
Li9 P13 2.644364 1_555
Li9 P11 2.914720 1_555
Li10 P16 2.607455 1_555
Li10 P1 2.608660 1_555
Li10 P7 2.643743 1_555
Li10 P14 2.644356 1_556
Li10 P8 2.914729 1_555
Li11 P17 2.607458 1_455
Li11 P0 2.608654 1_555
Li11 P6 2.643747 1_555
Li11 P15 2.644364 1_554
Li11 P9 2.914720 1_555
P0 P19 2.169499 1_565
P0 P23 2.175383 1_555
P0 P27 2.177463 1_555
P1 P18 2.169499 1_555
P1 P22 2.175374 1_555
P1 P26 2.177463 1_655
P2 P21 2.175374 1_555
P2 P25 2.177463 1_555
P4 P8 2.268538 1_545
P5 P9 2.268538 1_555
P10 P21 2.134342 1_556
P10 P14 2.226899 1_556
P10 P6 2.268538 1_556
P11 P20 2.134342 1_654
P11 P15 2.226899 1_644
P11 P7 2.268538 1_544
P12 P19 2.149002 1_555
P12 P8 2.226899 1_545
P12 P4 2.246930 1_555
P13 P18 2.149002 1_555
P13 P9 2.226899 1_655
P13 P5 2.246930 1_655
P14 P17 2.149002 1_555
P14 P6 2.246930 1_555
P15 P16 2.149002 1_555
P15 P7 2.246930 1_455
P16 P3 2.169499 1_565
P17 P2 2.169499 1_555
P20 P3 2.175374 1_555
P22 P9 2.134342 1_655
P23 P8 2.134338 1_555
P24 P7 2.140112 1_545
P24 P3 2.177463 1_655
P25 P6 2.140112 1_555
P26 P5 2.140112 1_555
P27 P4 2.140112 1_565
