# generated using pymatgen
data_Na14Ga8Si7S5O48
_symmetry_space_group_name_H-M   'P 1'
_cell_length_a   17.76457666
_cell_length_b   8.90137803
_cell_length_c   22.01297383
_cell_angle_alpha   89.74189980
_cell_angle_beta   89.52260654
_cell_angle_gamma   120.03502023
_symmetry_Int_Tables_number   1
_chemical_formula_structural   Na14Ga8Si7S5O48
_chemical_formula_sum   'Na42 Ga24 Si21 S15 O144'
_cell_volume   3013.22255110
_cell_formula_units_Z   3
loop_
 _symmetry_equiv_pos_site_id
 _symmetry_equiv_pos_as_xyz
  1  'x, y, z'
loop_
 _atom_site_type_symbol
 _atom_site_label
 _atom_site_symmetry_multiplicity
 _atom_site_fract_x
 _atom_site_fract_y
 _atom_site_fract_z
 _atom_site_occupancy
  Na  Na0  1  0.81386724  0.99509296  0.24471535  1
  Na  Na1  1  0.18543393  0.36665314  0.25391549  1
  Na  Na2  1  0.68644978  0.36722199  0.25270133  1
  Na  Na3  1  0.99895137  0.63941702  0.24495145  1
  Na  Na4  1  0.49997450  0.64030501  0.24625736  1
  Na  Na5  1  0.31324964  0.63347921  0.75156528  1
  Na  Na6  1  0.99913457  0.35858784  0.74912268  1
  Na  Na7  1  0.50109437  0.36087643  0.74964847  1
  Na  Na8  1  0.18404417  0.00237185  0.75569101  1
  Na  Na9  1  0.68653355  0.00515735  0.75644212  1
  Na  Na10  1  0.14554638  0.33412546  0.58293458  1
  Na  Na11  1  0.64707916  0.33533268  0.58397267  1
  Na  Na12  1  0.33613458  0.97112854  0.58129546  1
  Na  Na13  1  0.83630037  0.97137364  0.58305168  1
  Na  Na14  1  0.14490288  0.95691587  0.08482080  1
  Na  Na15  1  0.65152211  0.96109964  0.08462544  1
  Na  Na16  1  0.33632662  0.70101649  0.08306647  1
  Na  Na17  1  0.83627655  0.70796783  0.08142444  1
  Na  Na18  1  0.48575430  0.67562454  0.92191781  1
  Na  Na19  1  0.98158489  0.67340326  0.92231892  1
  Na  Na20  1  0.34732743  0.02663564  0.91517160  1
  Na  Na21  1  0.84549670  0.02546919  0.91892314  1
  Na  Na22  1  0.16837859  0.29771340  0.91262552  1
  Na  Na23  1  0.67146513  0.30232686  0.91284431  1
  Na  Na24  1  0.48349703  0.29077693  0.41870687  1
  Na  Na25  1  0.98375101  0.29126921  0.41888352  1
  Na  Na26  1  0.16894779  0.03776469  0.40918861  1
  Na  Na27  1  0.66889865  0.03925460  0.41003069  1
  Na  Na28  1  0.34616193  0.66757638  0.41176754  1
  Na  Na29  1  0.84695802  0.66846835  0.41264105  1
  Na  Na30  1  0.99882398  0.00434699  0.49864613  1
  Na  Na31  1  0.49950591  0.00498823  0.49854326  1
  Na  Na32  1  0.99485530  0.99358999  0.00222163  1
  Na  Na33  1  0.50093236  0.99533323  0.99991075  1
  Na  Na34  1  0.32847135  0.32747128  0.83462716  1
  Na  Na35  1  0.82629968  0.33310963  0.83386855  1
  Na  Na36  1  0.32654714  0.31948279  0.32992325  1
  Na  Na37  1  0.82780862  0.32875010  0.33066417  1
  Na  Na38  1  0.16577699  0.67289140  0.16858884  1
  Na  Na39  1  0.66601291  0.67163395  0.16436512  1
  Na  Na40  1  0.16140439  0.65997632  0.66777905  1
  Na  Na41  1  0.66789743  0.66052892  0.66993360  1
  Ga  Ga0  1  0.00195655  0.00237162  0.34815506  1
  Ga  Ga1  1  0.49953325  0.00301562  0.34846467  1
  Ga  Ga2  1  0.99929742  0.99674918  0.85042281  1
  Ga  Ga3  1  0.50303659  0.00480717  0.85122690  1
  Ga  Ga4  1  0.99692176  0.02616474  0.65344357  1
  Ga  Ga5  1  0.49865331  0.02998582  0.65349431  1
  Ga  Ga6  1  0.99135017  0.97028628  0.14642163  1
  Ga  Ga7  1  0.49844252  0.96823574  0.15174396  1
  Ga  Ga8  1  0.33568379  0.32601467  0.68702197  1
  Ga  Ga9  1  0.83626089  0.33084945  0.68912887  1
  Ga  Ga10  1  0.33492682  0.34105807  0.18833314  1
  Ga  Ga11  1  0.83432657  0.33218378  0.18268298  1
  Ga  Ga12  1  0.33259656  0.34406681  0.98083840  1
  Ga  Ga13  1  0.83359399  0.33315669  0.98440384  1
  Ga  Ga14  1  0.33151907  0.31886322  0.47973972  1
  Ga  Ga15  1  0.83168216  0.31952464  0.48040592  1
  Ga  Ga16  1  0.16195159  0.67387582  0.01425887  1
  Ga  Ga17  1  0.67347542  0.70051424  0.01993188  1
  Ga  Ga18  1  0.16155406  0.64834147  0.51243223  1
  Ga  Ga19  1  0.66275690  0.64928411  0.51358608  1
  Ga  Ga20  1  0.18698804  0.69718408  0.31191031  1
  Ga  Ga21  1  0.68207136  0.68487588  0.31484332  1
  Ga  Ga22  1  0.18013220  0.67776728  0.81662884  1
  Ga  Ga23  1  0.68799701  0.67863864  0.81462482  1
  Si  Si0  1  0.14651909  0.99933605  0.24828795  1
  Si  Si1  1  0.64712018  0.99904571  0.25166873  1
  Si  Si2  1  0.35465635  0.71131837  0.25021680  1
  Si  Si3  1  0.85455260  0.70452791  0.25120992  1
  Si  Si4  1  0.14735612  0.29532476  0.75001297  1
  Si  Si5  1  0.64971199  0.30095975  0.75010336  1
  Si  Si6  1  0.35437090  0.99903430  0.75089632  1
  Si  Si7  1  0.85408843  0.99715746  0.75030095  1
  Si  Si8  1  0.48055340  0.34426821  0.58266195  1
  Si  Si9  1  0.98022834  0.34397746  0.58295225  1
  Si  Si10  1  0.47937530  0.61586063  0.08286794  1
  Si  Si11  1  0.98137952  0.61678905  0.08250045  1
  Si  Si12  1  0.83934775  0.05102437  0.08412302  1
  Si  Si13  1  0.31247056  0.66745243  0.91854465  1
  Si  Si14  1  0.81319484  0.66347852  0.91945238  1
  Si  Si15  1  0.16670732  0.96185274  0.91576476  1
  Si  Si16  1  0.66593806  0.95920519  0.91417554  1
  Si  Si17  1  0.31211433  0.95630573  0.41945507  1
  Si  Si18  1  0.81261454  0.95730099  0.41871469  1
  Si  Si19  1  0.16670044  0.37262239  0.41552680  1
  Si  Si20  1  0.66635312  0.37135462  0.41629466  1
  S  S0  1  0.00053132  0.29059177  0.24997285  1
  S  S1  1  0.49853565  0.28700827  0.24906421  1
  S  S2  1  0.99851314  0.71083445  0.74867430  1
  S  S3  1  0.49929881  0.71152560  0.74822501  1
  S  S4  1  0.18418842  0.03627375  0.58408674  1
  S  S5  1  0.68422858  0.03587345  0.58388483  1
  S  S6  1  0.33669718  0.62556392  0.58369315  1
  S  S7  1  0.83662181  0.62438474  0.58343904  1
  S  S8  1  0.33655321  0.04880451  0.08349661  1
  S  S9  1  0.18601608  0.33403245  0.08330905  1
  S  S10  1  0.68293478  0.33163390  0.08414953  1
  S  S11  1  0.02291632  0.37891601  0.91539752  1
  S  S12  1  0.52251101  0.37912224  0.91721004  1
  S  S13  1  0.02153521  0.66583954  0.41696928  1
  S  S14  1  0.52177981  0.66591407  0.41713937  1
  O  O0  1  0.10723337  0.04437343  0.30964495  1
  O  O1  1  0.60402712  0.04009475  0.31089385  1
  O  O2  1  0.41576198  0.79384734  0.31028554  1
  O  O3  1  0.91508467  0.78961148  0.31165975  1
  O  O4  1  0.48446115  0.18634142  0.30670890  1
  O  O5  1  0.98367051  0.18358054  0.30691234  1
  O  O6  1  0.10591483  0.16674967  0.80876139  1
  O  O7  1  0.60611111  0.16832066  0.80826712  1
  O  O8  1  0.48194160  0.78326537  0.80446014  1
  O  O9  1  0.98549688  0.78433398  0.80545361  1
  O  O10  1  0.41695270  0.03772909  0.80928850  1
  O  O11  1  0.91807075  0.04031718  0.80861166  1
  O  O12  1  0.39177452  0.95069864  0.68981879  1
  O  O13  1  0.89188512  0.95789032  0.68793328  1
  O  O14  1  0.09054429  0.21290042  0.68833842  1
  O  O15  1  0.59012933  0.21668672  0.68862142  1
  O  O16  1  0.01535115  0.82510287  0.69510155  1
  O  O17  1  0.51410052  0.82418111  0.69446678  1
  O  O18  1  0.39380038  0.82899221  0.18875527  1
  O  O19  1  0.89304719  0.83166647  0.19237453  1
  O  O20  1  0.01656200  0.21077456  0.19717286  1
  O  O21  1  0.51473309  0.20578700  0.19625807  1
  O  O22  1  0.08534587  0.96936340  0.18898627  1
  O  O23  1  0.58868493  0.96491129  0.19066546  1
  O  O24  1  0.43507928  0.36689232  0.64402038  1
  O  O25  1  0.93480651  0.36777751  0.64386512  1
  O  O26  1  0.23983892  0.11765018  0.63830508  1
  O  O27  1  0.73982493  0.11718449  0.63743689  1
  O  O28  1  0.31983718  0.51348210  0.63855359  1
  O  O29  1  0.81899695  0.50931173  0.63668263  1
  O  O30  1  0.43299324  0.50148493  0.14425653  1
  O  O31  1  0.93730406  0.50768867  0.14494972  1
  O  O32  1  0.31877584  0.12802521  0.13662063  1
  O  O33  1  0.81397138  0.12821315  0.14365882  1
  O  O34  1  0.24218021  0.36612074  0.13723733  1
  O  O35  1  0.73817702  0.36254135  0.13869138  1
  O  O36  1  0.22480610  0.29894661  0.02788140  1
  O  O37  1  0.72146559  0.29583992  0.02914298  1
  O  O38  1  0.41538771  0.53524325  0.02384939  1
  O  O39  1  0.91924855  0.53817547  0.02316645  1
  O  O40  1  0.34628633  0.14821597  0.02645713  1
  O  O41  1  0.84892421  0.15955833  0.02153194  1
  O  O42  1  0.22325066  0.15049456  0.52908452  1
  O  O43  1  0.72253091  0.14963086  0.52841105  1
  O  O44  1  0.34612006  0.54310573  0.52800316  1
  O  O45  1  0.84641747  0.54508243  0.52664783  1
  O  O46  1  0.41680231  0.30080109  0.52394437  1
  O  O47  1  0.91731319  0.30054420  0.52366648  1
  O  O48  1  0.26604712  0.69936952  0.97830368  1
  O  O49  1  0.76898576  0.70040340  0.97885459  1
  O  O50  1  0.07809267  0.45668869  0.96937112  1
  O  O51  1  0.57684105  0.45774040  0.97019724  1
  O  O52  1  0.14544674  0.83990524  0.97593231  1
  O  O53  1  0.64157699  0.83626947  0.97470202  1
  O  O54  1  0.26800005  0.83519541  0.48120392  1
  O  O55  1  0.76694130  0.83419121  0.47955905  1
  O  O56  1  0.14487355  0.44696355  0.47723046  1
  O  O57  1  0.64435612  0.44754016  0.47718450  1
  O  O58  1  0.07676216  0.69807609  0.47122486  1
  O  O59  1  0.57709298  0.69756136  0.47101336  1
  O  O60  1  0.05856026  0.63186995  0.36224910  1
  O  O61  1  0.55883587  0.63223910  0.36210644  1
  O  O62  1  0.24665077  0.87841645  0.36300473  1
  O  O63  1  0.75032573  0.88184778  0.35974583  1
  O  O64  1  0.18401195  0.49910367  0.35693343  1
  O  O65  1  0.68348898  0.49644684  0.35714744  1
  O  O66  1  0.06238947  0.48791824  0.85993152  1
  O  O67  1  0.55750797  0.48319410  0.86083257  1
  O  O68  1  0.18477557  0.87441759  0.85571333  1
  O  O69  1  0.68117584  0.86678201  0.85454478  1
  O  O70  1  0.25185993  0.61942135  0.85811805  1
  O  O71  1  0.74948263  0.61080974  0.86125591  1
  O  O72  1  0.01258354  0.82268288  0.41344245  1
  O  O73  1  0.51243453  0.82212987  0.41337299  1
  O  O74  1  0.40836346  0.97337882  0.41190806  1
  O  O75  1  0.90877142  0.97437179  0.41160620  1
  O  O76  1  0.08081794  0.17672186  0.41082279  1
  O  O77  1  0.58022256  0.17652781  0.41103434  1
  O  O78  1  0.01412979  0.20419910  0.91162497  1
  O  O79  1  0.51197476  0.20119515  0.91274385  1
  O  O80  1  0.08075870  0.98461568  0.91007420  1
  O  O81  1  0.57871133  0.98162854  0.90971197  1
  O  O82  1  0.40807709  0.84329251  0.91103539  1
  O  O83  1  0.90902314  0.84211574  0.91050564  1
  O  O84  1  0.48875014  0.16286556  0.58656871  1
  O  O85  1  0.98997629  0.16426217  0.58645159  1
  O  O86  1  0.09717126  0.01845261  0.59022102  1
  O  O87  1  0.59674069  0.01806440  0.58990698  1
  O  O88  1  0.41502658  0.79975571  0.58795712  1
  O  O89  1  0.91489904  0.79900792  0.58785240  1
  O  O90  1  0.48860364  0.81484504  0.08628815  1
  O  O91  1  0.99308773  0.81469534  0.08564437  1
  O  O92  1  0.41490147  0.03133981  0.08799075  1
  O  O93  1  0.92480104  0.02673951  0.08957873  1
  O  O94  1  0.10033011  0.17911115  0.08954884  1
  O  O95  1  0.59571979  0.17152891  0.09102619  1
  O  O96  1  0.34514195  0.17396188  0.74515049  1
  O  O97  1  0.84678364  0.17570246  0.74525126  1
  O  O98  1  0.24628439  0.32130054  0.74069726  1
  O  O99  1  0.74420978  0.31218837  0.74005457  1
  O  O100  1  0.41846628  0.53604530  0.74379986  1
  O  O101  1  0.92079463  0.53529776  0.74428906  1
  O  O102  1  0.34681369  0.51781090  0.24609328  1
  O  O103  1  0.84469503  0.51150112  0.24451514  1
  O  O104  1  0.42039151  0.30656006  0.24495983  1
  O  O105  1  0.92099125  0.30617047  0.24656206  1
  O  O106  1  0.24325668  0.17542078  0.24005845  1
  O  O107  1  0.74395057  0.17219799  0.24553471  1
  O  O108  1  0.32358002  0.49433725  0.92193538  1
  O  O109  1  0.82583550  0.49218398  0.92465318  1
  O  O110  1  0.43210970  0.35375112  0.92306464  1
  O  O111  1  0.93580549  0.36061194  0.92001030  1
  O  O112  1  0.25651237  0.15264770  0.92454843  1
  O  O113  1  0.75364736  0.15115481  0.92140968  1
  O  O114  1  0.32447802  0.15293078  0.42280611  1
  O  O115  1  0.82378896  0.15284898  0.42258202  1
  O  O116  1  0.25678885  0.36105238  0.42543479  1
  O  O117  1  0.75647710  0.36083733  0.42534886  1
  O  O118  1  0.43304015  0.51045877  0.42382060  1
  O  O119  1  0.93270679  0.51071221  0.42403316  1
  O  O120  1  0.18135043  0.49490237  0.07646330  1
  O  O121  1  0.67640015  0.48782593  0.07721654  1
  O  O122  1  0.08140833  0.64473034  0.07755003  1
  O  O123  1  0.57687479  0.64234553  0.07749678  1
  O  O124  1  0.25772525  0.86971372  0.08025854  1
  O  O125  1  0.75112192  0.85310510  0.08114352  1
  O  O126  1  0.17987882  0.86741770  0.57775592  1
  O  O127  1  0.67928192  0.86633654  0.57700105  1
  O  O128  1  0.25750860  0.64529376  0.58105291  1
  O  O129  1  0.75749020  0.64549296  0.58034457  1
  O  O130  1  0.08012609  0.51367996  0.57740842  1
  O  O131  1  0.57998704  0.51305954  0.57746619  1
  O  O132  1  0.14698731  0.81526976  0.25676715  1
  O  O133  1  0.65055615  0.81710671  0.25805883  1
  O  O134  1  0.25483487  0.67502966  0.25173258  1
  O  O135  1  0.75633393  0.68135934  0.25393686  1
  O  O136  1  0.07719387  0.46633171  0.25642447  1
  O  O137  1  0.57635840  0.46335495  0.25460055  1
  O  O138  1  0.15196010  0.48432857  0.75627273  1
  O  O139  1  0.64833379  0.48299636  0.75722509  1
  O  O140  1  0.07659707  0.68938394  0.75353313  1
  O  O141  1  0.57460028  0.68751532  0.75348424  1
  O  O142  1  0.25606060  0.82856270  0.75325672  1
  O  O143  1  0.75456538  0.83427148  0.75194159  1
loop_
_geom_bond_atom_site_label_1
_geom_bond_atom_site_label_2
_geom_bond_distance
_geom_bond_site_symmetry_2
Na0 O107 2.447096 1_565
Na0 O105 2.453125 1_565
Na0 O135 2.453349 1_555
Na0 O33 2.515303 1_565
Na0 O133 2.528522 1_555
Na0 O19 2.731064 1_555
Na0 O63 2.737236 1_555
Na0 O5 2.968474 1_565
Na1 O134 2.380591 1_555
Na1 O106 2.407406 1_555
Na1 O102 2.487383 1_555
Na1 O136 2.488812 1_555
Na1 O64 2.566362 1_555
Na1 O34 2.752241 1_555
Na1 O0 2.759512 1_555
Na1 O20 2.897620 1_555
Na2 O107 2.420096 1_555
Na2 O135 2.426343 1_555
Na2 O103 2.441271 1_555
Na2 O137 2.496626 1_555
Na2 O65 2.587367 1_555
Na2 O35 2.673118 1_555
Na2 O1 2.816190 1_555
Na2 O21 2.933463 1_555
Na3 O132 2.308235 1_655
Na3 O103 2.383874 1_555
Na3 O31 2.489591 1_555
Na3 O136 2.552563 1_655
Na3 O105 2.569871 1_555
Na3 O60 2.812141 1_655
Na3 O22 2.814715 1_655
Na3 O3 2.852823 1_555
Na4 O133 2.345403 1_555
Na4 O102 2.371121 1_555
Na4 O137 2.548926 1_555
Na4 O30 2.565533 1_555
Na4 O104 2.573351 1_555
Na4 O23 2.776257 1_555
Na4 O61 2.778472 1_555
Na4 O2 2.849836 1_555
Na5 O142 2.411432 1_555
Na5 O100 2.427732 1_555
Na5 O98 2.428121 1_555
Na5 O138 2.483696 1_555
Na5 O70 2.554345 1_555
Na5 O28 2.736349 1_555
Na5 O12 2.785202 1_555
Na5 O8 2.861164 1_555
Na6 O97 2.361527 1_555
Na6 O138 2.369583 1_655
Na6 O140 2.553807 1_655
Na6 O101 2.571891 1_555
Na6 O25 2.610981 1_555
Na6 O66 2.704411 1_655
Na6 O11 2.768731 1_555
Na6 O14 2.862953 1_655
Na7 O139 2.283344 1_555
Na7 O96 2.417653 1_555
Na7 O141 2.523763 1_555
Na7 O24 2.625233 1_555
Na7 O100 2.625817 1_555
Na7 O67 2.674435 1_555
Na7 O10 2.803749 1_555
Na7 O15 2.822415 1_555
Na8 O142 2.452397 1_545
Na8 O140 2.467137 1_545
Na8 O68 2.477497 1_545
Na8 O96 2.487334 1_555
Na8 O98 2.496815 1_555
Na8 O6 2.730092 1_555
Na8 O26 2.761843 1_555
Na8 O16 2.932783 1_545
Na9 O143 2.371476 1_545
Na9 O99 2.414744 1_555
Na9 O69 2.458668 1_545
Na9 O97 2.475504 1_555
Na9 O141 2.515606 1_545
Na9 O7 2.741699 1_555
Na9 O27 2.782687 1_555
Na10 O85 2.396282 1_455
Na10 O130 2.404156 1_555
Na10 O128 2.472308 1_555
Na10 O86 2.497247 1_555
Na10 O14 2.527225 1_555
Na10 O56 2.532727 1_555
Na10 O42 2.869034 1_555
Na10 O28 2.960870 1_555
Na11 O131 2.414987 1_555
Na11 O84 2.438253 1_555
Na11 O129 2.459740 1_555
Na11 O87 2.501803 1_555
Na11 O15 2.513018 1_555
Na11 O57 2.560266 1_555
Na11 O43 2.869459 1_555
Na11 O29 2.900415 1_555
Na12 O84 2.377323 1_565
Na12 O126 2.449993 1_555
Na12 O128 2.511574 1_555
Na12 O54 2.527063 1_555
Na12 O88 2.540520 1_555
Na12 O12 2.632938 1_555
Na12 O46 2.825892 1_565
Na12 O26 2.900815 1_565
Na13 O85 2.391384 1_565
Na13 O127 2.463544 1_555
Na13 O129 2.513098 1_555
Na13 O89 2.541722 1_555
Na13 O13 2.544391 1_555
Na13 O55 2.600971 1_555
Na13 O47 2.842222 1_565
Na13 O27 2.874315 1_565
Na14 O91 2.336147 1_455
Na14 O122 2.426793 1_555
Na14 O94 2.473439 1_565
Na14 O124 2.486828 1_555
Na14 O22 2.543359 1_555
Na14 O52 2.619643 1_554
Na14 O36 2.909456 1_565
Na14 O32 2.919836 1_565
Na15 O125 2.400343 1_555
Na15 O123 2.464673 1_555
Na15 O90 2.509670 1_555
Na15 O95 2.523870 1_565
Na15 O23 2.586732 1_555
Na15 O53 2.637398 1_554
Na15 O33 2.830569 1_565
Na15 O37 2.854743 1_565
Na16 O90 2.368427 1_555
Na16 O120 2.432976 1_555
Na16 O124 2.511580 1_555
Na16 O92 2.549998 1_565
Na16 O18 2.579145 1_555
Na16 O48 2.628151 1_554
Na16 O38 2.812601 1_555
Na16 O34 2.837156 1_555
Na17 O125 2.431863 1_555
Na17 O91 2.455006 1_555
Na17 O93 2.469624 1_565
Na17 O121 2.519831 1_555
Na17 O49 2.548967 1_554
Na17 O19 2.673604 1_555
Na17 O39 2.884013 1_555
Na17 O35 2.940199 1_555
Na18 O81 2.387834 1_555
Na18 O108 2.500000 1_555
Na18 O82 2.500588 1_555
Na18 O110 2.526533 1_555
Na18 O38 2.554033 1_556
Na18 O53 2.676465 1_555
Na18 O8 2.766495 1_555
Na18 O67 2.923152 1_555
Na19 O109 2.406042 1_555
Na19 O83 2.434027 1_555
Na19 O80 2.439327 1_655
Na19 O111 2.480200 1_555
Na19 O39 2.490781 1_556
Na19 O9 2.739221 1_555
Na19 O52 2.795919 1_655
Na20 O82 2.366264 1_545
Na20 O112 2.389881 1_555
Na20 O110 2.528998 1_555
Na20 O79 2.533630 1_555
Na20 O10 2.607650 1_555
Na20 O40 2.686241 1_556
Na20 O68 2.837212 1_545
Na20 O48 2.867373 1_545
Na21 O113 2.396549 1_555
Na21 O83 2.411365 1_545
Na21 O41 2.546371 1_556
Na21 O111 2.585390 1_555
Na21 O78 2.598029 1_655
Na21 O11 2.711190 1_555
Na21 O49 2.821189 1_545
Na21 O69 2.912726 1_545
Na22 O80 2.419409 1_545
Na22 O108 2.426692 1_555
Na22 O78 2.433046 1_555
Na22 O112 2.493037 1_555
Na22 O6 2.566920 1_555
Na22 O36 2.733782 1_556
Na22 O70 2.743638 1_555
Na22 O50 2.896537 1_555
Na23 O109 2.412553 1_555
Na23 O113 2.438570 1_555
Na23 O81 2.482704 1_545
Na23 O79 2.506936 1_555
Na23 O7 2.598683 1_555
Na23 O71 2.624216 1_555
Na23 O37 2.726575 1_556
Na23 O51 2.939657 1_555
Na24 O77 2.400269 1_555
Na24 O74 2.453217 1_545
Na24 O114 2.453300 1_555
Na24 O118 2.528815 1_555
Na24 O46 2.615390 1_555
Na24 O4 2.641706 1_555
Na24 O57 2.802822 1_555
Na24 O61 2.906529 1_555
Na25 O76 2.408550 1_655
Na25 O75 2.450153 1_545
Na25 O115 2.467800 1_555
Na25 O119 2.534574 1_555
Na25 O47 2.602693 1_555
Na25 O5 2.648429 1_555
Na25 O56 2.805220 1_655
Na25 O60 2.901241 1_655
Na26 O76 2.433170 1_555
Na26 O114 2.440436 1_555
Na26 O72 2.461788 1_545
Na26 O0 2.471926 1_555
Na26 O116 2.523370 1_555
Na26 O62 2.626877 1_545
Na26 O42 2.828513 1_555
Na26 O58 2.942455 1_545
Na27 O115 2.428961 1_555
Na27 O77 2.429344 1_555
Na27 O73 2.466602 1_545
Na27 O1 2.478089 1_555
Na27 O117 2.507487 1_555
Na27 O63 2.701310 1_545
Na27 O43 2.791263 1_555
Na27 O59 2.945148 1_545
Na28 O74 2.370599 1_555
Na28 O116 2.388299 1_555
Na28 O2 2.514485 1_555
Na28 O73 2.559861 1_555
Na28 O118 2.563701 1_555
Na28 O44 2.783538 1_555
Na28 O64 2.784470 1_555
Na28 O54 2.923963 1_555
Na29 O75 2.372055 1_555
Na29 O117 2.395790 1_555
Na29 O3 2.489161 1_555
Na29 O72 2.549413 1_655
Na29 O119 2.549460 1_555
Na29 O45 2.732912 1_555
Na29 O65 2.809720 1_555
Na29 O55 2.906952 1_555
Na30 O76 2.429496 1_655
Na30 O75 2.435129 1_545
Na30 O85 2.455728 1_555
Na30 O72 2.570569 1_645
Na30 O89 2.571119 1_545
Na30 O86 2.640659 1_655
Na31 O77 2.415375 1_555
Na31 O74 2.436789 1_545
Na31 O84 2.460346 1_555
Na31 O73 2.571331 1_545
Na31 O88 2.576340 1_545
Na31 O87 2.626945 1_555
Na32 O93 2.380449 1_565
Na32 O91 2.414890 1_555
Na32 O83 2.497359 1_554
Na32 O80 2.553752 1_654
Na32 O78 2.630850 1_664
Na32 O94 2.631421 1_665
Na33 O90 2.420293 1_556
Na33 O81 2.447772 1_555
Na33 O82 2.494586 1_555
Na33 O92 2.577663 1_566
Na33 O79 2.584644 1_565
Na33 O95 2.599811 1_566
Na34 O112 2.431589 1_555
Na34 O108 2.461639 1_555
Na34 O96 2.500802 1_555
Na34 O98 2.526064 1_555
Na34 O110 2.620487 1_555
Na34 O100 2.634833 1_555
Na35 O113 2.416679 1_555
Na35 O109 2.456774 1_555
Na35 O99 2.491551 1_555
Na35 O97 2.534591 1_555
Na35 O101 2.614181 1_555
Na35 O111 2.651197 1_555
Na36 O106 2.432934 1_555
Na36 O102 2.444352 1_555
Na36 O114 2.509317 1_555
Na36 O104 2.536225 1_555
Na36 O116 2.552587 1_555
Na36 O118 2.760166 1_555
Na37 O107 2.380072 1_555
Na37 O103 2.409730 1_555
Na37 O117 2.520961 1_555
Na37 O115 2.531387 1_555
Na37 O105 2.548210 1_555
Na37 O119 2.718953 1_555
Na38 O134 2.423124 1_555
Na38 O132 2.433149 1_555
Na38 O122 2.450264 1_555
Na38 O124 2.563180 1_555
Na38 O136 2.572228 1_555
Na38 O120 2.675385 1_555
Na39 O125 2.394500 1_555
Na39 O123 2.423583 1_555
Na39 O133 2.525184 1_555
Na39 O135 2.526842 1_555
Na39 O121 2.591502 1_555
Na39 O137 2.622520 1_555
Na40 O130 2.434536 1_555
Na40 O138 2.443760 1_555
Na40 O142 2.484367 1_555
Na40 O140 2.500707 1_555
Na40 O128 2.597643 1_555
Na40 O126 2.606513 1_555
Na41 O143 2.389348 1_555
Na41 O139 2.392099 1_555
Na41 O131 2.515963 1_555
Na41 O141 2.557149 1_555
Na41 O129 2.569749 1_555
Na41 O127 2.677769 1_555
Ga0 O0 1.904422 1_555
Ga0 O3 1.929324 1_445
Ga0 O5 2.011917 1_455
Ga0 O76 2.036965 1_555
Ga0 O75 2.073323 1_445
Ga0 O72 2.223850 1_545
Ga1 O1 1.896677 1_555
Ga1 O2 1.910182 1_545
Ga1 O4 2.001869 1_555
Ga1 O77 2.042802 1_555
Ga1 O74 2.043130 1_545
Ga1 O73 2.245158 1_545
Ga2 O11 1.912786 1_565
Ga2 O6 1.951322 1_665
Ga2 O83 1.988522 1_555
Ga2 O80 2.004228 1_655
Ga2 O9 2.042539 1_555
Ga2 O78 2.199008 1_665
Ga3 O7 1.912172 1_555
Ga3 O10 1.935575 1_555
Ga3 O81 1.952274 1_545
Ga3 O82 2.040612 1_545
Ga3 O8 2.091429 1_545
Ga3 O79 2.159160 1_555
Ga4 O13 1.806793 1_545
Ga4 O14 1.839681 1_655
Ga4 O85 1.959476 1_555
Ga4 O16 2.174397 1_645
Ga4 O86 2.279276 1_655
Ga4 O89 2.325587 1_545
Ga5 O15 1.824711 1_555
Ga5 O12 1.835911 1_545
Ga5 O84 1.948675 1_555
Ga5 O17 2.176529 1_545
Ga5 O87 2.269931 1_555
Ga5 O88 2.345801 1_545
Ga6 O19 1.843267 1_555
Ga6 O22 1.925080 1_655
Ga6 O91 1.941095 1_555
Ga6 O93 1.956924 1_565
Ga6 O20 2.258607 1_665
Ga6 O94 2.259823 1_665
Ga7 O18 1.820660 1_555
Ga7 O23 1.837140 1_555
Ga7 O90 1.937520 1_555
Ga7 O95 2.203776 1_565
Ga7 O21 2.219458 1_565
Ga7 O92 2.312925 1_565
Ga8 O24 1.863351 1_555
Ga8 O96 1.926940 1_555
Ga8 O98 1.954890 1_555
Ga8 O26 2.091920 1_555
Ga8 O28 2.112211 1_555
Ga8 O100 2.125898 1_555
Ga9 O25 1.886119 1_555
Ga9 O99 1.911593 1_555
Ga9 O97 1.927521 1_555
Ga9 O101 2.087084 1_555
Ga9 O29 2.104169 1_555
Ga9 O27 2.153421 1_555
Ga10 O30 1.866690 1_555
Ga10 O106 1.916424 1_555
Ga10 O102 1.956158 1_555
Ga10 O34 2.103820 1_555
Ga10 O104 2.109024 1_555
Ga10 O32 2.110520 1_555
Ga11 O33 1.878079 1_555
Ga11 O31 1.891857 1_555
Ga11 O103 2.040527 1_555
Ga11 O107 2.043602 1_555
Ga11 O35 2.101309 1_555
Ga11 O105 2.188878 1_555
Ga12 O38 1.867533 1_556
Ga12 O108 1.923131 1_555
Ga12 O112 2.001745 1_555
Ga12 O36 2.023283 1_556
Ga12 O40 2.125918 1_556
Ga12 O110 2.135176 1_555
Ga13 O41 1.882444 1_556
Ga13 O39 1.905177 1_556
Ga13 O109 1.983521 1_555
Ga13 O113 2.077093 1_555
Ga13 O37 2.085660 1_556
Ga13 O111 2.208101 1_555
Ga14 O46 1.880162 1_555
Ga14 O114 1.897974 1_555
Ga14 O116 1.963139 1_555
Ga14 O42 2.046999 1_555
Ga14 O118 2.131066 1_555
Ga14 O44 2.164651 1_555
Ga15 O47 1.878677 1_555
Ga15 O115 1.911231 1_555
Ga15 O117 1.975789 1_555
Ga15 O43 2.044386 1_555
Ga15 O119 2.131518 1_555
Ga15 O45 2.152342 1_555
Ga16 O52 1.846238 1_554
Ga16 O122 1.909857 1_555
Ga16 O48 1.910873 1_554
Ga16 O50 2.022823 1_554
Ga16 O120 2.251566 1_555
Ga16 O124 2.266998 1_555
Ga17 O53 1.859223 1_554
Ga17 O49 1.916390 1_554
Ga17 O125 1.932636 1_555
Ga17 O123 1.971569 1_555
Ga17 O51 2.270356 1_554
Ga17 O121 2.292415 1_555
Ga18 O56 1.840131 1_555
Ga18 O54 1.906380 1_555
Ga18 O130 1.946640 1_555
Ga18 O58 1.993598 1_555
Ga18 O128 2.297161 1_555
Ga18 O126 2.318214 1_555
Ga19 O57 1.844867 1_555
Ga19 O55 1.900490 1_555
Ga19 O131 1.942955 1_555
Ga19 O59 2.013341 1_555
Ga19 O129 2.256210 1_555
Ga19 O127 2.287157 1_555
Ga20 O62 1.820836 1_555
Ga20 O134 1.860123 1_555
Ga20 O132 1.958028 1_555
Ga20 O64 1.995986 1_555
Ga20 O60 2.322767 1_555
Ga20 O136 2.359830 1_555
Ga21 O63 1.851686 1_555
Ga21 O135 1.884460 1_555
Ga21 O65 1.926060 1_555
Ga21 O133 1.979751 1_555
Ga21 O61 2.241764 1_555
Ga21 O137 2.351929 1_555
Ga22 O70 1.845282 1_555
Ga22 O68 1.918684 1_555
Ga22 O142 1.925221 1_555
Ga22 O138 2.037050 1_555
Ga22 O66 2.133836 1_555
Ga22 O140 2.356764 1_555
Ga23 O71 1.812330 1_555
Ga23 O143 1.880745 1_555
Ga23 O69 1.950967 1_555
Ga23 O139 1.982946 1_555
Ga23 O67 2.311375 1_555
Ga23 O141 2.465604 1_555
O0 Si0 1.655680 1_545
O1 Si1 1.639180 1_545
O2 Si2 1.643427 1_555
O3 Si3 1.648722 1_555
O4 S1 1.495271 1_555
O5 S0 1.505146 1_655
O6 Si4 1.628381 1_555
O7 Si5 1.639398 1_555
O8 S3 1.494369 1_555
O9 S2 1.482465 1_555
O10 Si6 1.628278 1_545
O11 Si7 1.636683 1_545
O12 Si6 1.646455 1_555
O13 Si7 1.637607 1_555
O14 Si4 1.640306 1_555
O15 Si5 1.659195 1_555
O16 S2 1.481061 1_455
O17 S3 1.481647 1_555
O18 Si2 1.628988 1_555
O19 Si3 1.619600 1_555
O20 S0 1.463304 1_555
O21 S1 1.472062 1_555
O22 Si0 1.640962 1_555
O23 Si1 1.638404 1_555
O24 Si8 1.632363 1_555
O25 Si9 1.627748 1_555
O26 S4 1.495690 1_555
O27 S5 1.483394 1_555
O28 S6 1.492468 1_555
O29 S7 1.477484 1_555
O30 Si10 1.634277 1_555
O31 Si11 1.629358 1_555
O32 S8 1.479443 1_555
O33 Si12 1.643536 1_555
O34 S9 1.491248 1_555
O35 S10 1.494186 1_555
O36 S9 1.505308 1_555
O37 S10 1.498063 1_555
O38 Si10 1.646621 1_555
O39 Si11 1.634908 1_555
O40 S8 1.490873 1_555
O41 Si12 1.637145 1_555
O42 S4 1.499945 1_555
O43 S5 1.504928 1_555
O44 S6 1.482324 1_555
O45 S7 1.489539 1_555
O46 Si8 1.641102 1_555
O47 Si9 1.642589 1_555
O48 Si13 1.646555 1_555
O49 Si14 1.637024 1_555
O50 S11 1.482963 1_555
O51 S12 1.460044 1_555
O52 Si15 1.625875 1_555
O53 Si16 1.631918 1_555
O54 Si17 1.657491 1_555
O55 Si18 1.652782 1_555
O56 Si19 1.639924 1_555
O57 Si20 1.635213 1_555
O58 S13 1.487305 1_555
O59 S14 1.482107 1_555
O60 S13 1.471111 1_555
O61 S14 1.475903 1_555
O62 Si17 1.613061 1_555
O63 Si18 1.627372 1_555
O64 Si19 1.630784 1_555
O65 Si20 1.633637 1_555
O66 S11 1.489253 1_555
O67 S12 1.478212 1_555
O68 Si15 1.645749 1_555
O69 Si16 1.643135 1_555
O70 Si13 1.636958 1_555
O71 Si14 1.624918 1_555
O72 S13 1.483897 1_555
O73 S14 1.482670 1_555
O74 Si17 1.645938 1_555
O75 Si18 1.643462 1_555
O76 Si19 1.649295 1_555
O77 Si20 1.646370 1_555
O78 S11 1.486050 1_555
O79 S12 1.502685 1_555
O80 Si15 1.643364 1_555
O81 Si16 1.662096 1_555
O82 Si13 1.641226 1_555
O83 Si14 1.657421 1_555
O84 Si8 1.694194 1_555
O85 Si9 1.694529 1_555
O86 S4 1.477775 1_555
O87 S5 1.485912 1_555
O88 S6 1.480838 1_555
O89 S7 1.482927 1_555
O90 Si10 1.697217 1_555
O91 Si11 1.669121 1_555
O92 S8 1.479826 1_555
O93 Si12 1.642226 1_555
O94 S9 1.459811 1_555
O95 S10 1.496059 1_555
O96 Si6 1.649713 1_545
O97 Si7 1.661374 1_545
O98 Si4 1.664579 1_555
O99 Si5 1.643973 1_555
O100 S3 1.506550 1_555
O101 S2 1.483565 1_555
O102 Si2 1.660116 1_555
O103 Si3 1.645029 1_555
O104 S1 1.486387 1_555
O105 S0 1.489714 1_655
O106 Si0 1.654880 1_545
O107 Si1 1.641015 1_545
O108 Si13 1.650072 1_555
O109 Si14 1.652280 1_555
O110 S12 1.509928 1_555
O111 S11 1.475264 1_655
O112 Si15 1.662127 1_545
O113 Si16 1.647423 1_545
O114 Si17 1.653364 1_545
O115 Si18 1.652943 1_545
O116 Si19 1.670333 1_555
O117 Si20 1.663409 1_555
O118 S14 1.494035 1_555
O119 S13 1.494555 1_655
O120 S9 1.482287 1_555
O121 S10 1.459356 1_555
O122 Si11 1.668968 1_455
O123 Si10 1.630056 1_555
O124 S8 1.508421 1_565
O125 Si12 1.674257 1_565
O126 S4 1.473539 1_565
O127 S5 1.475680 1_565
O128 S6 1.503915 1_555
O129 S7 1.510607 1_555
O130 Si9 1.660500 1_455
O131 Si8 1.651962 1_555
O132 Si0 1.652368 1_555
O133 Si1 1.656311 1_555
O134 Si2 1.635697 1_555
O135 Si3 1.651797 1_555
O136 S0 1.481401 1_555
O137 S1 1.490730 1_555
O138 Si4 1.649442 1_555
O139 Si5 1.640956 1_555
O140 S2 1.496478 1_455
O141 S3 1.461875 1_555
O142 Si6 1.643235 1_555
O143 Si7 1.631455 1_555
