# generated using pymatgen
data_La3W(ClO2)3
_symmetry_space_group_name_H-M   'P 1'
_cell_length_a   9.43426127
_cell_length_b   9.43426127
_cell_length_c   5.44421610
_cell_angle_alpha   90.00000000
_cell_angle_beta   90.00000000
_cell_angle_gamma   120.00000345
_symmetry_Int_Tables_number   1
_chemical_formula_structural   La3W(ClO2)3
_chemical_formula_sum   'La6 W2 Cl6 O12'
_cell_volume   419.64472756
_cell_formula_units_Z   2
loop_
 _symmetry_equiv_pos_site_id
 _symmetry_equiv_pos_as_xyz
  1  'x, y, z'
loop_
 _atom_site_type_symbol
 _atom_site_label
 _atom_site_symmetry_multiplicity
 _atom_site_fract_x
 _atom_site_fract_y
 _atom_site_fract_z
 _atom_site_occupancy
  La  La0  1  0.09027529  0.68510771  0.75000000  1
  La  La1  1  0.40516858  0.09027529  0.25000000  1
  La  La2  1  0.90972471  0.31489229  0.25000000  1
  La  La3  1  0.59483142  0.90972471  0.75000000  1
  La  La4  1  0.31489229  0.40516858  0.75000000  1
  La  La5  1  0.68510771  0.59483142  0.25000000  1
  W  W0  1  0.33333300  0.66666700  0.25000000  1
  W  W1  1  0.66666700  0.33333300  0.75000000  1
  Cl  Cl0  1  0.80688759  0.75897027  0.75000000  1
  Cl  Cl1  1  0.75897027  0.95208268  0.25000000  1
  Cl  Cl2  1  0.04791732  0.80688759  0.25000000  1
  Cl  Cl3  1  0.19311241  0.24102973  0.25000000  1
  Cl  Cl4  1  0.24102973  0.04791732  0.75000000  1
  Cl  Cl5  1  0.95208268  0.19311241  0.75000000  1
  O  O0  1  0.36375191  0.83723058  0.47832828  1
  O  O1  1  0.52652133  0.36375191  0.97832828  1
  O  O2  1  0.83723058  0.47347867  0.97832828  1
  O  O3  1  0.16276942  0.52652133  0.47832828  1
  O  O4  1  0.47347867  0.63624809  0.47832828  1
  O  O5  1  0.63624809  0.16276942  0.97832828  1
  O  O6  1  0.63624809  0.16276942  0.52167172  1
  O  O7  1  0.47347867  0.63624809  0.02167172  1
  O  O8  1  0.83723058  0.47347867  0.52167172  1
  O  O9  1  0.52652133  0.36375191  0.52167172  1
  O  O10  1  0.36375191  0.83723058  0.02167172  1
  O  O11  1  0.16276942  0.52652133  0.02167172  1
loop_
_geom_bond_atom_site_label_1
_geom_bond_atom_site_label_2
_geom_bond_distance
_geom_bond_site_symmetry_2
La0 O3 2.432493 1_555
La0 O11 2.432493 1_556
La0 O2 2.542491 1_455
La0 O8 2.542491 1_455
La0 O0 2.683490 1_555
La0 O10 2.683490 1_556
La1 O5 2.432486 1_554
La1 O6 2.432486 1_555
La1 O0 2.542488 1_545
La1 O10 2.542488 1_545
La1 O1 2.683490 1_554
La1 O9 2.683490 1_555
La2 O2 2.432493 1_554
La2 O8 2.432493 1_555
La2 O11 2.542491 1_655
La2 O3 2.542491 1_655
La2 O6 2.683490 1_555
La2 O5 2.683490 1_554
La3 O0 2.432486 1_555
La3 O10 2.432486 1_556
La3 O6 2.542488 1_565
La3 O5 2.542488 1_565
La3 O7 2.683490 1_556
La3 O4 2.683490 1_555
La4 O4 2.432488 1_555
La4 O7 2.432488 1_556
La4 O1 2.542497 1_555
La4 O9 2.542497 1_555
La4 O11 2.683483 1_556
La4 O3 2.683483 1_555
La5 O1 2.432488 1_554
La5 O9 2.432488 1_555
La5 O4 2.542497 1_555
La5 O7 2.542497 1_555
La5 O2 2.683483 1_554
La5 O8 2.683483 1_555
Cl0 La3 2.978346 1_555
Cl0 La5 3.057562 1_555
Cl0 La5 3.057562 1_556
Cl0 La0 3.081641 1_655
Cl1 La2 2.978337 1_565
Cl1 La3 3.057563 1_554
Cl1 La3 3.057563 1_555
Cl1 La5 3.081650 1_555
Cl2 La5 2.978338 1_455
Cl2 La0 3.057559 1_555
Cl2 La0 3.057559 1_554
Cl2 La1 3.081647 1_565
Cl3 La1 2.978346 1_555
Cl3 La4 3.057562 1_555
Cl3 La4 3.057562 1_554
Cl3 La2 3.081641 1_455
Cl4 La0 2.978337 1_545
Cl4 La1 3.057563 1_556
Cl4 La1 3.057563 1_555
Cl4 La4 3.081650 1_555
Cl5 La4 2.978338 1_655
Cl5 La2 3.057559 1_555
Cl5 La2 3.057559 1_556
Cl5 La3 3.081647 1_545
O0 W0 1.937814 1_555
O1 W1 1.937821 1_555
O2 W1 1.937816 1_555
O3 W0 1.937816 1_555
O4 W0 1.937821 1_555
O5 W1 1.937814 1_555
O6 W1 1.937814 1_555
O7 W0 1.937821 1_555
O8 W1 1.937816 1_555
O9 W1 1.937821 1_555
O10 W0 1.937814 1_555
O11 W0 1.937816 1_555
