# generated using pymatgen
data_Ce4Bi3
_symmetry_space_group_name_H-M   'P 1'
_cell_length_a   8.48760220
_cell_length_b   8.48761771
_cell_length_c   8.48763473
_cell_angle_alpha   109.47122069
_cell_angle_beta   109.47131855
_cell_angle_gamma   109.47123731
_symmetry_Int_Tables_number   1
_chemical_formula_structural   Ce4Bi3
_chemical_formula_sum   'Ce8 Bi6'
_cell_volume   470.69003422
_cell_formula_units_Z   2
loop_
 _symmetry_equiv_pos_site_id
 _symmetry_equiv_pos_as_xyz
  1  'x, y, z'
loop_
 _atom_site_type_symbol
 _atom_site_label
 _atom_site_symmetry_multiplicity
 _atom_site_fract_x
 _atom_site_fract_y
 _atom_site_fract_z
 _atom_site_occupancy
  Ce  Ce0  1  0.64478385  0.64472229  0.64477342  1
  Ce  Ce1  1  0.85525904  0.50004790  -0.00000352  1
  Ce  Ce2  1  0.50004639  0.00003288  0.85526853  1
  Ce  Ce3  1  0.49995361  -0.00001350  0.35522315  1
  Ce  Ce4  1  0.35521615  0.49993843  -0.00001043  1
  Ce  Ce5  1  0.00007598  0.35527912  0.50003925  1
  Ce  Ce6  1  0.14474096  0.14478886  0.14473644  1
  Ce  Ce7  1  -0.00007598  0.85520214  0.49996227  1
  Bi  Bi0  1  0.75002205  0.87496243  0.12497656  1
  Bi  Bi1  1  0.37500153  0.25005216  0.62501123  1
  Bi  Bi2  1  0.24997795  0.62494039  0.37495452  1
  Bi  Bi3  1  0.87504767  0.12502147  0.75005378  1
  Bi  Bi4  1  0.62499847  0.37505164  0.25000971  1
  Bi  Bi5  1  0.12495233  0.74997379  0.87500611  1
loop_
_geom_bond_atom_site_label_1
_geom_bond_atom_site_label_2
_geom_bond_distance
_geom_bond_site_symmetry_2
Ce0 Ce1 3.758890 1_556
Ce0 Ce7 3.759245 1_655
Ce0 Ce2 3.759905 1_565
Ce1 Ce7 3.759368 1_655
Ce1 Ce2 3.759660 1_554
Ce2 Ce7 3.760317 1_545
Ce3 Ce6 3.759666 1_555
Ce3 Ce4 3.759908 1_545
Ce3 Ce5 3.760319 1_655
Ce4 Ce6 3.758884 1_555
Ce4 Ce5 3.759241 1_554
Ce5 Ce6 3.759383 1_555
Bi0 Ce7 3.278623 1_655
Bi0 Ce6 3.278916 1_665
Bi0 Ce2 3.279090 1_564
Bi0 Ce4 3.279366 1_555
Bi0 Ce1 3.510730 1_555
Bi0 Ce0 3.511139 1_554
Bi0 Ce5 3.511964 1_665
Bi0 Ce3 3.512027 1_565
Bi1 Ce0 3.278462 1_555
Bi1 Ce4 3.278660 1_556
Bi1 Ce3 3.279119 1_555
Bi1 Ce7 3.279645 1_545
Bi1 Ce5 3.510745 1_555
Bi1 Ce1 3.511459 1_556
Bi1 Ce6 3.511625 1_555
Bi1 Ce2 3.511772 1_555
Bi2 Ce5 3.278625 1_555
Bi2 Ce1 3.278912 1_455
Bi2 Ce3 3.279085 1_565
Bi2 Ce0 3.279366 1_555
Bi2 Ce6 3.510731 1_555
Bi2 Ce4 3.511140 1_555
Bi2 Ce7 3.511956 1_555
Bi2 Ce2 3.512022 1_565
Bi3 Ce6 3.278266 1_656
Bi3 Ce7 3.278893 1_645
Bi3 Ce1 3.279151 1_556
Bi3 Ce3 3.279664 1_555
Bi3 Ce4 3.510820 1_656
Bi3 Ce2 3.511265 1_555
Bi3 Ce5 3.511696 1_655
Bi3 Ce0 3.511760 1_545
Bi4 Ce4 3.278455 1_555
Bi4 Ce0 3.278657 1_555
Bi4 Ce2 3.279129 1_554
Bi4 Ce5 3.279648 1_655
Bi4 Ce7 3.510735 1_655
Bi4 Ce6 3.511457 1_555
Bi4 Ce1 3.511615 1_555
Bi4 Ce3 3.511785 1_555
Bi5 Ce1 3.278273 1_456
Bi5 Ce5 3.278884 1_555
Bi5 Ce6 3.279148 1_566
Bi5 Ce2 3.279669 1_565
Bi5 Ce0 3.510820 1_455
Bi5 Ce3 3.511270 1_566
Bi5 Ce7 3.511698 1_555
Bi5 Ce4 3.511760 1_556
