# generated using pymatgen
data_SmIn2Rh
_symmetry_space_group_name_H-M   'P 1'
_cell_length_a   5.54590988
_cell_length_b   5.54590988
_cell_length_c   7.92247964
_cell_angle_alpha   90.00001737
_cell_angle_beta   89.99998263
_cell_angle_gamma   133.18361604
_symmetry_Int_Tables_number   1
_chemical_formula_structural   SmIn2Rh
_chemical_formula_sum   'Sm2 In4 Rh2'
_cell_volume   177.67739288
_cell_formula_units_Z   2
loop_
 _symmetry_equiv_pos_site_id
 _symmetry_equiv_pos_as_xyz
  1  'x, y, z'
loop_
 _atom_site_type_symbol
 _atom_site_label
 _atom_site_symmetry_multiplicity
 _atom_site_fract_x
 _atom_site_fract_y
 _atom_site_fract_z
 _atom_site_occupancy
  Sm  Sm0  1  0.06747076  0.93252924  0.25000000  1
  Sm  Sm1  1  0.93252768  0.06747232  0.75000000  1
  In  In0  1  0.64531706  0.35468294  0.55073366  1
  In  In1  1  0.35468354  0.64531646  0.44924325  1
  In  In2  1  0.64531706  0.35468294  0.94926634  1
  In  In3  1  0.35468354  0.64531646  0.05075675  1
  Rh  Rh0  1  0.21506868  0.78493132  0.75000000  1
  Rh  Rh1  1  0.78493169  0.21506831  0.25000000  1
loop_
_geom_bond_atom_site_label_1
_geom_bond_atom_site_label_2
_geom_bond_distance
_geom_bond_site_symmetry_2
In0 Rh1 2.774199 1_555
In0 Rh0 2.801920 1_655
In0 Rh0 2.801920 1_545
In0 In1 3.065663 1_555
In0 In2 3.157367 1_555
In0 In1 3.169011 1_655
In0 In1 3.169011 1_545
In0 Sm1 3.322513 1_555
In0 Sm0 3.340491 1_545
In0 Sm0 3.340491 1_655
In0 Sm1 3.469594 1_455
In0 Sm1 3.469594 1_565
In1 Rh0 2.774357 1_555
In1 Rh1 2.801818 1_565
In1 Rh1 2.801818 1_455
In1 In3 3.157001 1_555
In1 Sm0 3.322446 1_555
In1 Sm1 3.340616 1_565
In1 Sm1 3.340616 1_455
In1 Sm0 3.469497 1_655
In1 Sm0 3.469497 1_545
In2 Rh1 2.774200 1_556
In2 Rh0 2.801920 1_655
In2 Rh0 2.801920 1_545
In2 In3 3.065662 1_556
In2 In3 3.169011 1_656
In2 In3 3.169011 1_546
In2 Sm1 3.322512 1_555
In2 Sm0 3.340490 1_656
In2 Sm0 3.340490 1_546
In2 Sm1 3.469595 1_565
In2 Sm1 3.469595 1_455
In3 Rh0 2.774358 1_554
In3 Rh1 2.801817 1_565
In3 Rh1 2.801817 1_455
In3 Sm0 3.322445 1_555
In3 Sm1 3.340616 1_564
In3 Sm1 3.340616 1_454
In3 Sm0 3.469498 1_655
In3 Sm0 3.469498 1_545
Rh0 Sm1 2.875968 1_465
Rh0 Sm1 3.123141 1_565
Rh0 Sm1 3.123141 1_455
Rh1 Sm0 2.875948 1_645
Rh1 Sm0 3.123155 1_655
Rh1 Sm0 3.123155 1_545
