# generated using pymatgen
data_Li2PWCO7
_symmetry_space_group_name_H-M   'P 1'
_cell_length_a   6.68968600
_cell_length_b   4.99824800
_cell_length_c   8.81461586
_cell_angle_alpha   84.60875953
_cell_angle_beta   90.00000000
_cell_angle_gamma   90.00000000
_symmetry_Int_Tables_number   1
_chemical_formula_structural   Li2PWCO7
_chemical_formula_sum   'Li4 P2 W2 C2 O14'
_cell_volume   293.42795843
_cell_formula_units_Z   2
loop_
 _symmetry_equiv_pos_site_id
 _symmetry_equiv_pos_as_xyz
  1  'x, y, z'
loop_
 _atom_site_type_symbol
 _atom_site_label
 _atom_site_symmetry_multiplicity
 _atom_site_fract_x
 _atom_site_fract_y
 _atom_site_fract_z
 _atom_site_occupancy
  Li  Li0  1  0.98018700  0.25735200  0.77852100  1
  Li  Li1  1  0.01981300  0.74264800  0.22147900  1
  Li  Li2  1  0.48018700  0.74264800  0.22147900  1
  Li  Li3  1  0.51981300  0.25735200  0.77852100  1
  P  P0  1  0.25000000  0.23012300  0.40764000  1
  P  P1  1  0.75000000  0.76987700  0.59236000  1
  W  W0  1  0.75000000  0.29016200  0.34390300  1
  W  W1  1  0.25000000  0.70983800  0.65609700  1
  C  C0  1  0.75000000  0.20972100  0.05508400  1
  C  C1  1  0.25000000  0.79027900  0.94491600  1
  O  O0  1  0.93442700  0.65623000  0.68193300  1
  O  O1  1  0.75000000  0.44795600  0.10577200  1
  O  O2  1  0.25000000  0.99292800  0.83465000  1
  O  O3  1  0.75000000  0.00707200  0.16535000  1
  O  O4  1  0.56557300  0.65623000  0.68193300  1
  O  O5  1  0.75000000  0.68134200  0.42785800  1
  O  O6  1  0.25000000  0.55204400  0.89422800  1
  O  O7  1  0.43442700  0.34377000  0.31806700  1
  O  O8  1  0.06557300  0.34377000  0.31806700  1
  O  O9  1  0.25000000  0.91606400  0.42214500  1
  O  O10  1  0.75000000  0.17179000  0.91524800  1
  O  O11  1  0.25000000  0.82821000  0.08475200  1
  O  O12  1  0.75000000  0.08393600  0.57785500  1
  O  O13  1  0.25000000  0.31865800  0.57214200  1
loop_
_geom_bond_atom_site_label_1
_geom_bond_atom_site_label_2
_geom_bond_distance
_geom_bond_site_symmetry_2
Li0 O10 1.977312 1_555
Li0 O0 2.115280 1_555
Li0 O2 2.264195 1_645
Li0 O12 2.557197 1_555
Li0 O13 2.560538 1_655
Li0 O6 2.598072 1_655
Li1 O11 1.977312 1_555
Li1 O8 2.115280 1_555
Li1 O3 2.264195 1_465
Li1 O9 2.557197 1_555
Li1 O5 2.560538 1_455
Li1 O1 2.598072 1_455
Li2 O11 1.977312 1_555
Li2 O7 2.115280 1_555
Li2 O3 2.264195 1_565
Li2 O9 2.557197 1_555
Li2 O5 2.560538 1_555
Li2 O1 2.598072 1_555
Li3 O10 1.977312 1_555
Li3 O4 2.115280 1_555
Li3 O2 2.264195 1_545
Li3 O12 2.557197 1_555
Li3 O13 2.560538 1_555
Li3 O6 2.598072 1_555
C0 O10 1.264579 1_554
C0 O1 1.310536 1_555
C0 O3 1.336279 1_555
C1 O11 1.264579 1_556
C1 O6 1.310536 1_555
C1 O2 1.336279 1_555
O0 P1 1.544001 1_555
O0 W1 2.137491 1_655
O1 W0 2.171840 1_555
O2 W1 2.213064 1_555
O3 W0 2.213064 1_555
O4 P1 1.544001 1_555
O4 W1 2.137491 1_555
O5 P1 1.555302 1_555
O5 W0 2.154624 1_555
O6 W1 2.171840 1_555
O7 P0 1.544001 1_555
O7 W0 2.137491 1_555
O8 P0 1.544001 1_555
O8 W0 2.137491 1_455
O9 P0 1.562924 1_565
O9 W1 2.217139 1_555
O12 P1 1.562924 1_545
O12 W0 2.217139 1_555
O13 P0 1.555302 1_555
O13 W1 2.154624 1_555
