# generated using pymatgen
data_MgFe2(CoO2)4
_symmetry_space_group_name_H-M   'P 1'
_cell_length_a   5.81962458
_cell_length_b   5.85790152
_cell_length_c   6.18958008
_cell_angle_alpha   62.59284748
_cell_angle_beta   89.34218975
_cell_angle_gamma   119.70086211
_symmetry_Int_Tables_number   1
_chemical_formula_structural   MgFe2(CoO2)4
_chemical_formula_sum   'Mg1 Fe2 Co4 O8'
_cell_volume   154.66347111
_cell_formula_units_Z   1
loop_
 _symmetry_equiv_pos_site_id
 _symmetry_equiv_pos_as_xyz
  1  'x, y, z'
loop_
 _atom_site_type_symbol
 _atom_site_label
 _atom_site_symmetry_multiplicity
 _atom_site_fract_x
 _atom_site_fract_y
 _atom_site_fract_z
 _atom_site_occupancy
  Mg  Mg0  1  0.00000000  0.00000000  0.50000000  1
  Fe  Fe0  1  0.50000000  0.00000000  0.00000000  1
  Fe  Fe1  1  0.50000000  0.50000000  0.50000000  1
  Co  Co0  1  0.50000000  0.00000000  0.50000000  1
  Co  Co1  1  0.18820800  0.32669100  0.03655900  1
  Co  Co2  1  0.81179200  0.67330900  0.96344100  1
  Co  Co3  1  0.00000000  0.50000000  0.50000000  1
  O  O0  1  0.71461700  0.44142300  0.32119100  1
  O  O1  1  0.73274100  0.99847100  0.73550100  1
  O  O2  1  0.73782600  0.51209200  0.73027700  1
  O  O3  1  0.26148700  0.01653200  0.72392300  1
  O  O4  1  0.73851300  0.98346800  0.27607700  1
  O  O5  1  0.26217400  0.48790800  0.26972300  1
  O  O6  1  0.26725900  0.00152900  0.26449900  1
  O  O7  1  0.28538300  0.55857700  0.67880900  1
loop_
_geom_bond_atom_site_label_1
_geom_bond_atom_site_label_2
_geom_bond_distance
_geom_bond_site_symmetry_2
Mg0 O3 2.066893 1_555
Mg0 O4 2.066893 1_445
Mg0 O5 2.099216 1_555
Mg0 O2 2.099216 1_445
Mg0 O6 2.113304 1_555
Mg0 O1 2.113304 1_445
Fe0 O1 2.118840 1_544
Fe0 O6 2.118840 1_555
Fe0 O3 2.211650 1_554
Fe0 O4 2.211650 1_545
Fe0 O5 2.218920 1_545
Fe0 O2 2.218920 1_554
Fe1 O0 1.909241 1_555
Fe1 O7 1.909241 1_555
Fe1 O2 1.998314 1_555
Fe1 O5 1.998314 1_555
Fe1 O4 2.077286 1_555
Fe1 O3 2.077286 1_555
Co0 O7 1.898545 1_545
Co0 O0 1.898545 1_555
Co0 O1 2.001185 1_545
Co0 O6 2.001185 1_555
Co0 O4 2.017336 1_545
Co0 O3 2.017336 1_555
Co1 O7 1.873263 1_554
Co1 O5 2.006523 1_555
Co1 O6 2.059007 1_555
Co1 O4 2.245423 1_445
Co2 O0 1.873263 1_556
Co2 O2 2.006523 1_555
Co2 O1 2.059007 1_555
Co2 O3 2.245423 1_665
Co3 O7 1.981937 1_555
Co3 O0 1.981937 1_455
Co3 O2 2.124755 1_455
Co3 O5 2.124755 1_555
Co3 O6 2.156966 1_565
Co3 O1 2.156966 1_445
