# generated using pymatgen
data_CsMgNb(PO4)2
_symmetry_space_group_name_H-M   'P 1'
_cell_length_a   5.17254253
_cell_length_b   5.22934352
_cell_length_c   10.38715336
_cell_angle_alpha   81.09087341
_cell_angle_beta   81.07911692
_cell_angle_gamma   61.64047809
_symmetry_Int_Tables_number   1
_chemical_formula_structural   CsMgNb(PO4)2
_chemical_formula_sum   'Cs1 Mg1 Nb1 P2 O8'
_cell_volume   243.18345853
_cell_formula_units_Z   1
loop_
 _symmetry_equiv_pos_site_id
 _symmetry_equiv_pos_as_xyz
  1  'x, y, z'
loop_
 _atom_site_type_symbol
 _atom_site_label
 _atom_site_symmetry_multiplicity
 _atom_site_fract_x
 _atom_site_fract_y
 _atom_site_fract_z
 _atom_site_occupancy
  Cs  Cs0  1  0.92524184  0.95136752  0.91795891  1
  Mg  Mg0  1  0.12960788  0.11763199  0.25654945  1
  Nb  Nb0  1  0.99578288  0.99559047  0.52710550  1
  P  P0  1  0.39301717  0.38796658  0.32206601  1
  P  P1  1  0.62292298  0.61927420  0.68748846  1
  O  O0  1  0.72272354  0.30008804  0.66057325  1
  O  O1  1  0.79502698  0.74257833  0.58157317  1
  O  O2  1  0.65810674  0.63389116  0.82843777  1
  O  O3  1  0.28685730  0.80207101  0.66393951  1
  O  O4  1  0.35456503  0.33548721  0.18320720  1
  O  O5  1  0.23210750  0.24106637  0.41790353  1
  O  O6  1  0.72752070  0.24121788  0.34413112  1
  O  O7  1  0.25651946  0.71926923  0.33763714  1
loop_
_geom_bond_atom_site_label_1
_geom_bond_atom_site_label_2
_geom_bond_distance
_geom_bond_site_symmetry_2
Cs0 O2 2.930212 1_555
Cs0 O3 2.964822 1_655
Cs0 O0 3.018964 1_565
Cs0 O2 3.193450 1_565
Cs0 O2 3.375948 1_655
Cs0 O4 3.728025 1_566
Mg0 O7 1.951628 1_545
Mg0 O6 1.972121 1_455
Mg0 O4 1.986908 1_555
Mg0 O5 2.107732 1_555
Nb0 O1 2.010007 1_555
Nb0 O3 2.020340 1_655
Nb0 O0 2.095769 1_565
Nb0 O5 2.244640 1_665
Nb0 O6 2.357130 1_565
Nb0 O7 2.446693 1_655
O0 P1 1.553018 1_555
O1 P1 1.562192 1_555
O2 P1 1.520840 1_555
O3 P1 1.573590 1_555
O4 P0 1.568014 1_555
O5 P0 1.545129 1_555
O6 P0 1.562771 1_555
O7 P0 1.554191 1_555
