# generated using pymatgen
data_NaScSiSn(SO6)2
_symmetry_space_group_name_H-M   'P 1'
_cell_length_a   8.86262427
_cell_length_b   8.84053494
_cell_length_c   23.19020152
_cell_angle_alpha   90.39159619
_cell_angle_beta   90.00000000
_cell_angle_gamma   120.08268885
_symmetry_Int_Tables_number   1
_chemical_formula_structural   NaScSiSn(SO6)2
_chemical_formula_sum   'Na6 Sc6 Si6 Sn6 S12 O72'
_cell_volume   1572.17186472
_cell_formula_units_Z   6
loop_
 _symmetry_equiv_pos_site_id
 _symmetry_equiv_pos_as_xyz
  1  'x, y, z'
loop_
 _atom_site_type_symbol
 _atom_site_label
 _atom_site_symmetry_multiplicity
 _atom_site_fract_x
 _atom_site_fract_y
 _atom_site_fract_z
 _atom_site_occupancy
  Na  Na0  1  0.01830269  0.01072213  0.50169520  1
  Na  Na1  1  0.99241944  0.01072213  0.00169520  1
  Na  Na2  1  0.67968640  0.32836427  0.83461422  1
  Na  Na3  1  0.64867887  0.32836427  0.33461422  1
  Na  Na4  1  0.33838898  0.68445090  0.16818862  1
  Na  Na5  1  0.34606092  0.68445090  0.66818862  1
  Sc  Sc0  1  0.99650220  0.99843281  0.64697804  1
  Sc  Sc1  1  0.00193062  0.99843281  0.14697804  1
  Sc  Sc2  1  0.68105824  0.32377604  0.97952074  1
  Sc  Sc3  1  0.64271880  0.32377604  0.47952074  1
  Sc  Sc4  1  0.33493612  0.66752939  0.31331667  1
  Sc  Sc5  1  0.33259227  0.66752939  0.81331667  1
  Si  Si0  1  0.29254401  0.99720000  0.24807320  1
  Si  Si1  1  0.70465599  0.99720000  0.74807320  1
  Si  Si2  1  0.36729645  0.03509888  0.58151583  1
  Si  Si3  1  0.66780343  0.03509888  0.08151583  1
  Si  Si4  1  0.04658613  0.37905760  0.91556842  1
  Si  Si5  1  0.33247047  0.37905760  0.41556842  1
  Sn  Sn0  1  0.01837889  0.01279039  0.35156488  1
  Sn  Sn1  1  0.99441150  0.01279039  0.85156488  1
  Sn  Sn2  1  0.66142235  0.31399651  0.68426032  1
  Sn  Sn3  1  0.65257516  0.31399651  0.18426032  1
  Sn  Sn4  1  0.33421210  0.66652299  0.01758536  1
  Sn  Sn5  1  0.33230988  0.66652299  0.51758536  1
  S  S0  1  0.71209580  0.70851130  0.24949820  1
  S  S1  1  0.99739395  0.29159326  0.24943660  1
  S  S2  1  0.29419931  0.29159326  0.74943660  1
  S  S3  1  0.99641550  0.70851130  0.74949820  1
  S  S4  1  0.95853735  0.33579215  0.58234620  1
  S  S5  1  0.66570756  0.62101718  0.58406253  1
  S  S6  1  0.95531062  0.62101718  0.08406253  1
  S  S7  1  0.37725580  0.33579215  0.08234620  1
  S  S8  1  0.62693988  0.66623650  0.91594818  1
  S  S9  1  0.32793493  0.95829898  0.91519911  1
  S  S10  1  0.63036305  0.95829898  0.41519911  1
  S  S11  1  0.03929562  0.66623650  0.41594818  1
  O  O0  1  0.21297805  0.03577301  0.30719071  1
  O  O1  1  0.81664240  0.78662404  0.30359774  1
  O  O2  1  0.95925216  0.18196907  0.30245253  1
  O  O3  1  0.22271691  0.18196907  0.80245253  1
  O  O4  1  0.96998164  0.78662404  0.80359774  1
  O  O5  1  0.82279496  0.03577301  0.80719071  1
  O  O6  1  0.80104346  0.97443579  0.69253116  1
  O  O7  1  0.18764246  0.20735002  0.69825193  1
  O  O8  1  0.02470481  0.81666526  0.69856079  1
  O  O9  1  0.79196045  0.81666526  0.19856079  1
  O  O10  1  0.01970756  0.20735002  0.19825193  1
  O  O11  1  0.17339233  0.97443579  0.19253116  1
  O  O12  1  0.88642700  0.37229105  0.63614241  1
  O  O13  1  0.48738810  0.11480998  0.64009996  1
  O  O14  1  0.63924139  0.51535986  0.63743813  1
  O  O15  1  0.87611947  0.51535986  0.13743813  1
  O  O16  1  0.62742288  0.11480998  0.14009996  1
  O  O17  1  0.48586506  0.37229105  0.13614241  1
  O  O18  1  0.46107998  0.31371903  0.03112930  1
  O  O19  1  0.84845111  0.54052401  0.03231390  1
  O  O20  1  0.69208000  0.15462685  0.02619714  1
  O  O21  1  0.46254785  0.15462685  0.52619714  1
  O  O22  1  0.69207389  0.54052401  0.53231390  1
  O  O23  1  0.85264005  0.31371903  0.53112930  1
  O  O24  1  0.55591049  0.70517271  0.96912149  1
  O  O25  1  0.16368346  0.46177267  0.97547214  1
  O  O26  1  0.29831826  0.85391802  0.96861495  1
  O  O27  1  0.55559877  0.85391802  0.46861495  1
  O  O28  1  0.29808822  0.46177267  0.47547214  1
  O  O29  1  0.14926122  0.70517271  0.46912149  1
  O  O30  1  0.12372074  0.64527299  0.36471386  1
  O  O31  1  0.51940986  0.87894404  0.36441276  1
  O  O32  1  0.35507697  0.49628488  0.36005274  1
  O  O33  1  0.14120691  0.49628488  0.86005274  1
  O  O34  1  0.35953319  0.87894404  0.86441276  1
  O  O35  1  0.52155125  0.64527299  0.86471386  1
  O  O36  1  0.01492311  0.82221585  0.41084974  1
  O  O37  1  0.80354764  0.96886677  0.40811081  1
  O  O38  1  0.15220891  0.18318217  0.41369499  1
  O  O39  1  0.03097325  0.18318217  0.91369499  1
  O  O40  1  0.16531913  0.96886677  0.90811081  1
  O  O41  1  0.80729275  0.82221585  0.91084974  1
  O  O42  1  0.97474909  0.17925319  0.58920827  1
  O  O43  1  0.17668411  0.01396443  0.58978294  1
  O  O44  1  0.82021736  0.79607060  0.58969520  1
  O  O45  1  0.97585324  0.79607060  0.08969520  1
  O  O46  1  0.83728032  0.01396443  0.08978294  1
  O  O47  1  0.20450410  0.17925319  0.08920827  1
  O  O48  1  0.69374263  0.18057269  0.74616301  1
  O  O49  1  0.47381670  0.31705357  0.74402421  1
  O  O50  1  0.83430402  0.53323853  0.74278069  1
  O  O51  1  0.69893550  0.53323853  0.24278069  1
  O  O52  1  0.84323787  0.31705357  0.24402421  1
  O  O53  1  0.48683106  0.18057269  0.24616301  1
  O  O54  1  0.63905200  0.50805710  0.92343994  1
  O  O55  1  0.85417484  0.35859668  0.92115221  1
  O  O56  1  0.47901512  0.13557092  0.92242268  1
  O  O57  1  0.65655679  0.13557092  0.42242268  1
  O  O58  1  0.50442284  0.35859668  0.42115221  1
  O  O59  1  0.86900610  0.50805710  0.42343994  1
  O  O60  1  0.35735600  0.49368378  0.07863705  1
  O  O61  1  0.13090770  0.63729024  0.07915422  1
  O  O62  1  0.48592515  0.83989810  0.07508121  1
  O  O63  1  0.35397195  0.83989810  0.57508121  1
  O  O64  1  0.50638154  0.63729024  0.57915422  1
  O  O65  1  0.13632679  0.49368378  0.57863705  1
  O  O66  1  0.31554239  0.82775274  0.25604628  1
  O  O67  1  0.53697032  0.68644893  0.25571798  1
  O  O68  1  0.15501923  0.46337915  0.25637263  1
  O  O69  1  0.30835892  0.46337915  0.75637263  1
  O  O70  1  0.14947762  0.68644893  0.75571798  1
  O  O71  1  0.51220934  0.82775274  0.75604628  1
loop_
_geom_bond_atom_site_label_1
_geom_bond_atom_site_label_2
_geom_bond_distance
_geom_bond_site_symmetry_2
Na0 O43 2.470407 1_555
Na0 O38 2.475113 1_555
Na0 O42 2.650032 1_455
Na0 O36 2.668027 1_545
Na0 O44 2.749693 1_445
Na0 O37 2.784311 1_445
Na1 O46 2.470407 1_555
Na1 O39 2.475113 1_654
Na1 O47 2.650032 1_655
Na1 O41 2.668026 1_544
Na1 O45 2.749693 1_545
Na1 O40 2.784311 1_644
Na2 O48 2.461011 1_555
Na2 O55 2.463446 1_555
Na2 O56 2.687579 1_555
Na2 O50 2.694100 1_555
Na2 O54 2.724923 1_555
Na2 O49 2.750738 1_555
Na3 O53 2.461011 1_555
Na3 O58 2.463446 1_555
Na3 O57 2.687579 1_555
Na3 O51 2.694100 1_555
Na3 O59 2.724923 1_555
Na3 O52 2.750738 1_555
Na4 O66 2.453359 1_555
Na4 O62 2.549405 1_555
Na4 O61 2.652899 1_555
Na4 O67 2.680722 1_555
Na4 O60 2.724256 1_555
Na4 O68 2.741041 1_555
Na5 O71 2.453359 1_555
Na5 O63 2.549405 1_555
Na5 O64 2.652899 1_555
Na5 O70 2.680722 1_555
Na5 O65 2.724256 1_555
Na5 O69 2.741041 1_555
O0 Si0 1.651578 1_545
O0 Sn0 1.930346 1_555
O1 S0 1.502020 1_555
O1 Sn0 2.194899 1_665
O2 S1 1.500969 1_555
O2 Sn0 2.148868 1_655
O3 S2 1.500969 1_555
O3 Sn1 2.148868 1_455
O4 S3 1.502020 1_555
O4 Sn1 2.194899 1_565
O5 Si1 1.651578 1_545
O5 Sn1 1.930346 1_555
O6 Si1 1.611851 1_555
O6 Sc0 1.948433 1_555
O7 S2 1.462280 1_555
O7 Sc0 2.127938 1_445
O8 S3 1.465445 1_455
O8 Sc0 2.122388 1_455
O9 S0 1.465445 1_555
O9 Sc1 2.122388 1_655
O10 S1 1.462280 1_455
O10 Sc1 2.127938 1_545
O11 Si0 1.611851 1_555
O11 Sc1 1.948433 1_555
O12 S4 1.506699 1_555
O12 Sn2 2.113034 1_555
O13 Si2 1.646248 1_555
O13 Sn2 1.944506 1_555
O14 S5 1.501928 1_555
O14 Sn2 2.182625 1_555
O15 S6 1.501928 1_555
O15 Sn3 2.182625 1_555
O16 Si3 1.646248 1_555
O16 Sn3 1.944506 1_555
O17 S7 1.506699 1_555
O17 Sn3 2.113034 1_555
O18 S7 1.463847 1_555
O18 Sc2 2.251407 1_554
O19 S6 1.468385 1_555
O19 Sc2 2.118863 1_554
O20 Si3 1.612205 1_555
O20 Sc2 1.893647 1_554
O21 Si2 1.612205 1_555
O21 Sc3 1.893647 1_555
O22 S5 1.468385 1_555
O22 Sc3 2.118863 1_555
O23 S4 1.463847 1_555
O23 Sc3 2.251407 1_555
O24 S8 1.498908 1_555
O24 Sn4 2.138374 1_556
O25 Si4 1.663396 1_555
O25 Sn4 1.935899 1_556
O26 S9 1.492538 1_555
O26 Sn4 2.165518 1_556
O27 S10 1.492538 1_555
O27 Sn5 2.165518 1_555
O28 Si5 1.663396 1_555
O28 Sn5 1.935899 1_555
O29 S11 1.498908 1_555
O29 Sn5 2.138374 1_555
O30 S11 1.463509 1_555
O30 Sc4 2.144162 1_555
O31 S10 1.464010 1_555
O31 Sc4 2.115809 1_555
O32 Si5 1.606767 1_555
O32 Sc4 1.947237 1_555
O33 Si4 1.606767 1_555
O33 Sc5 1.947237 1_555
O34 S9 1.464010 1_555
O34 Sc5 2.115809 1_555
O35 S8 1.463509 1_555
O35 Sc5 2.144162 1_555
O36 S11 1.504309 1_555
O36 Sn0 2.170140 1_565
O37 S10 1.499344 1_555
O37 Sn0 2.182018 1_665
O38 Si5 1.666846 1_555
O38 Sn0 1.982685 1_555
O39 Si4 1.666849 1_555
O39 Sn1 1.982685 1_455
O40 S9 1.499335 1_555
O40 Sn1 2.182018 1_465
O41 S8 1.504314 1_555
O41 Sn1 2.170140 1_565
O42 S4 1.470869 1_555
O42 Sc0 2.173828 1_545
O43 Si2 1.615411 1_555
O43 Sc0 2.027515 1_445
O44 S5 1.469673 1_555
O44 Sc0 2.138123 1_555
O45 S6 1.469677 1_555
O45 Sc1 2.138123 1_655
O46 Si3 1.615402 1_555
O46 Sc1 2.027515 1_645
O47 S7 1.470874 1_555
O47 Sc1 2.173828 1_545
O48 Si1 1.672571 1_545
O48 Sn2 1.973824 1_555
O49 S2 1.497227 1_555
O49 Sn2 2.174991 1_555
O50 S3 1.501449 1_555
O50 Sn2 2.221016 1_555
O51 S0 1.501453 1_555
O51 Sn3 2.221016 1_555
O52 S1 1.497218 1_555
O52 Sn3 2.174991 1_555
O53 Si0 1.672575 1_545
O53 Sn3 1.973824 1_555
O54 S8 1.466632 1_555
O54 Sc2 2.262974 1_555
O55 Si4 1.627428 1_655
O55 Sc2 1.952723 1_555
O56 S9 1.472994 1_545
O56 Sc2 2.170510 1_555
O57 S10 1.472987 1_545
O57 Sc3 2.170510 1_555
O58 Si5 1.627445 1_555
O58 Sc3 1.952723 1_555
O59 S11 1.466622 1_655
O59 Sc3 2.262974 1_555
O60 S7 1.495100 1_555
O60 Sn4 2.173727 1_555
O61 S6 1.493770 1_455
O61 Sn4 2.211366 1_555
O62 Si3 1.675229 1_565
O62 Sn4 1.959843 1_555
O63 Si2 1.675221 1_565
O63 Sn5 1.959843 1_555
O64 S5 1.493787 1_555
O64 Sn5 2.211366 1_555
O65 S4 1.495090 1_455
O65 Sn5 2.173727 1_555
O66 Si0 1.621614 1_555
O66 Sc4 2.017317 1_555
O67 S0 1.471285 1_555
O67 Sc4 2.172795 1_555
O68 S1 1.467515 1_455
O68 Sc4 2.150835 1_555
O69 S2 1.467518 1_555
O69 Sc5 2.150835 1_555
O70 S3 1.471276 1_455
O70 Sc5 2.172795 1_555
O71 Si1 1.621619 1_555
O71 Sc5 2.017317 1_555
