# generated using pymatgen
data_MgV4(OF)6
_symmetry_space_group_name_H-M   'P 1'
_cell_length_a   5.10306193
_cell_length_b   9.45632511
_cell_length_c   5.32523268
_cell_angle_alpha   103.97721226
_cell_angle_beta   120.08788739
_cell_angle_gamma   74.38018457
_symmetry_Int_Tables_number   1
_chemical_formula_structural   MgV4(OF)6
_chemical_formula_sum   'Mg1 V4 O6 F6'
_cell_volume   212.38072052
_cell_formula_units_Z   1
loop_
 _symmetry_equiv_pos_site_id
 _symmetry_equiv_pos_as_xyz
  1  'x, y, z'
loop_
 _atom_site_type_symbol
 _atom_site_label
 _atom_site_symmetry_multiplicity
 _atom_site_fract_x
 _atom_site_fract_y
 _atom_site_fract_z
 _atom_site_occupancy
  Mg  Mg0  1  0.59982700  0.19200700  0.40359800  1
  V  V0  1  0.95493000  0.98112300  0.97580800  1
  V  V1  1  0.71469000  0.75361900  0.25394500  1
  V  V2  1  0.52565500  0.50941400  0.52785000  1
  V  V3  1  0.26536300  0.26364700  0.74158400  1
  O  O0  1  0.38093600  0.87244100  0.19653800  1
  O  O1  1  0.79203600  0.86558200  0.02432800  1
  O  O2  1  0.31346800  0.36707700  0.51549500  1
  O  O3  1  0.70256300  0.62300400  0.47233700  1
  O  O4  1  0.61278200  0.12121400  0.74291500  1
  O  O5  1  0.89405500  0.35268200  0.69362400  1
  F  F0  1  0.11696300  0.62984100  0.30319700  1
  F  F1  1  0.98035100  0.11909500  0.34986700  1
  F  F2  1  0.49903600  0.36239400  0.13585000  1
  F  F3  1  0.26318500  0.12471700  0.01469000  1
  F  F4  1  0.53615900  0.61248500  0.89525400  1
  F  F5  1  0.97300300  0.87822700  0.61561900  1
loop_
_geom_bond_atom_site_label_1
_geom_bond_atom_site_label_2
_geom_bond_distance
_geom_bond_site_symmetry_2
Mg0 O4 2.039191 1_555
Mg0 O2 2.079663 1_555
Mg0 O5 2.172119 1_555
O0 V1 1.694135 1_555
O0 V0 1.995544 1_454
O1 V0 1.671024 1_554
O1 V1 2.026388 1_555
O2 V3 1.860356 1_555
O2 V2 1.912876 1_555
O3 V2 1.731862 1_555
O3 V1 1.920721 1_555
O4 V3 1.914016 1_555
O4 V0 1.928351 1_545
O5 V3 1.767474 1_655
O5 V2 1.994446 1_555
F0 V2 1.988765 1_555
F0 V1 1.991845 1_455
F1 Mg0 2.017126 1_555
F1 V0 2.064837 1_544
F1 V3 2.233026 1_655
F2 V3 1.960691 1_554
F2 V2 2.173556 1_555
F2 Mg0 2.195856 1_555
F3 Mg0 2.007491 1_555
F3 V3 2.188222 1_554
F3 V0 2.247000 1_444
F4 V2 1.944886 1_555
F4 V1 1.984488 1_556
F5 V0 1.965149 1_555
F5 V1 2.007514 1_555
