# generated using pymatgen
data_Fe3W3N
_symmetry_space_group_name_H-M   'P 1'
_cell_length_a   7.80221905
_cell_length_b   7.80221905
_cell_length_c   7.80221905
_cell_angle_alpha   60.00000000
_cell_angle_beta   60.00000000
_cell_angle_gamma   60.00000000
_symmetry_Int_Tables_number   1
_chemical_formula_structural   Fe3W3N
_chemical_formula_sum   'Fe12 W12 N4'
_cell_volume   335.84541207
_cell_formula_units_Z   4
loop_
 _symmetry_equiv_pos_site_id
 _symmetry_equiv_pos_as_xyz
  1  'x, y, z'
loop_
 _atom_site_type_symbol
 _atom_site_label
 _atom_site_symmetry_multiplicity
 _atom_site_fract_x
 _atom_site_fract_y
 _atom_site_fract_z
 _atom_site_occupancy
  Fe  Fe0  1  0.62500000  0.12500000  0.12500000  1
  Fe  Fe1  1  0.12500000  0.12500000  0.62500000  1
  Fe  Fe2  1  0.12500000  0.12500000  0.12500000  1
  Fe  Fe3  1  0.12500000  0.62500000  0.12500000  1
  Fe  Fe4  1  0.92181700  0.23455000  0.92181700  1
  Fe  Fe5  1  0.32818300  0.32818300  0.32818300  1
  Fe  Fe6  1  0.01545000  0.32818300  0.32818300  1
  Fe  Fe7  1  0.32818300  0.32818300  0.01545000  1
  Fe  Fe8  1  0.32818300  0.01545000  0.32818300  1
  Fe  Fe9  1  0.92181700  0.92181700  0.92181700  1
  Fe  Fe10  1  0.92181700  0.92181700  0.23455000  1
  Fe  Fe11  1  0.23455000  0.92181700  0.92181700  1
  W  W0  1  0.95322300  0.54677700  0.54677700  1
  W  W1  1  0.70322300  0.29677700  0.29677700  1
  W  W2  1  0.54677700  0.54677700  0.95322300  1
  W  W3  1  0.95322300  0.54677700  0.95322300  1
  W  W4  1  0.54677700  0.95322300  0.54677700  1
  W  W5  1  0.95322300  0.95322300  0.54677700  1
  W  W6  1  0.70322300  0.70322300  0.29677700  1
  W  W7  1  0.29677700  0.29677700  0.70322300  1
  W  W8  1  0.29677700  0.70322300  0.70322300  1
  W  W9  1  0.29677700  0.70322300  0.29677700  1
  W  W10  1  0.70322300  0.29677700  0.70322300  1
  W  W11  1  0.54677700  0.95322300  0.95322300  1
  N  N0  1  0.12500000  0.62500000  0.62500000  1
  N  N1  1  0.62500000  0.62500000  0.12500000  1
  N  N2  1  0.62500000  0.62500000  0.62500000  1
  N  N3  1  0.62500000  0.12500000  0.62500000  1
loop_
_geom_bond_atom_site_label_1
_geom_bond_atom_site_label_2
_geom_bond_distance
_geom_bond_site_symmetry_2
Fe0 Fe9 2.357949 1_544
Fe0 Fe5 2.357949 1_555
Fe0 Fe8 2.357953 1_555
Fe0 Fe4 2.357953 1_554
Fe0 Fe7 2.357953 1_555
Fe0 Fe10 2.357953 1_545
Fe0 W6 2.719772 1_545
Fe0 W2 2.719772 1_554
Fe0 W11 2.719772 1_544
Fe0 W4 2.719772 1_545
Fe0 W10 2.719772 1_554
Fe0 W1 2.719772 1_555
Fe1 Fe9 2.357949 1_445
Fe1 Fe5 2.357949 1_555
Fe1 Fe8 2.357953 1_555
Fe1 Fe6 2.357953 1_555
Fe1 Fe11 2.357953 1_545
Fe1 Fe4 2.357953 1_455
Fe1 W5 2.719772 1_445
Fe1 W0 2.719772 1_455
Fe1 W4 2.719772 1_545
Fe1 W8 2.719772 1_545
Fe1 W10 2.719772 1_455
Fe1 W7 2.719772 1_555
Fe2 Fe8 2.357946 1_555
Fe2 Fe7 2.357946 1_555
Fe2 Fe6 2.357946 1_555
Fe2 Fe4 2.357946 1_454
Fe2 W3 2.719772 1_454
Fe2 W5 2.719772 1_445
Fe2 W9 2.719772 1_545
Fe2 W11 2.719772 1_544
Fe2 W1 2.719772 1_455
Fe2 W7 2.719772 1_554
Fe3 Fe5 2.357949 1_555
Fe3 Fe9 2.357949 1_454
Fe3 Fe7 2.357953 1_555
Fe3 Fe6 2.357953 1_555
Fe3 W3 2.719772 1_454
Fe3 W2 2.719772 1_554
Fe3 W8 2.719772 1_554
Fe3 W0 2.719772 1_455
Fe3 W6 2.719772 1_455
Fe3 W9 2.719772 1_555
Fe4 Fe9 2.440011 1_545
Fe4 W1 2.702956 1_556
Fe4 W7 2.702956 1_655
Fe4 W10 2.702963 1_555
Fe4 W3 2.703402 1_555
Fe4 W2 2.703407 1_555
Fe4 W0 2.703407 1_555
Fe5 Fe8 2.440011 1_555
Fe5 Fe7 2.440011 1_555
Fe5 Fe6 2.440011 1_555
Fe5 W0 2.702959 1_455
Fe5 W4 2.702959 1_545
Fe5 W2 2.702959 1_554
Fe5 W9 2.703410 1_555
Fe5 W7 2.703410 1_555
Fe5 W1 2.703410 1_555
Fe6 Fe8 2.440011 1_555
Fe6 Fe7 2.440011 1_555
Fe6 W3 2.702956 1_454
Fe6 W5 2.702956 1_445
Fe6 W0 2.702963 1_455
Fe6 W1 2.703402 1_455
Fe6 W10 2.703407 1_455
Fe6 W6 2.703407 1_455
Fe7 Fe8 2.440011 1_555
Fe7 W3 2.702956 1_454
Fe7 W11 2.702956 1_544
Fe7 W2 2.702963 1_554
Fe7 W7 2.703402 1_554
Fe7 W8 2.703407 1_554
Fe7 W10 2.703407 1_554
Fe8 W11 2.702956 1_544
Fe8 W5 2.702956 1_445
Fe8 W4 2.702963 1_545
Fe8 W9 2.703402 1_545
Fe8 W6 2.703407 1_545
Fe8 W8 2.703407 1_545
Fe9 W8 2.702959 1_655
Fe9 W6 2.702959 1_556
Fe9 W10 2.702959 1_565
Fe9 W3 2.703410 1_555
Fe9 W11 2.703410 1_555
Fe9 W5 2.703410 1_555
Fe10 Fe2 2.357946 1_665
Fe10 Fe3 2.357953 1_655
Fe10 Fe9 2.440011 1_554
Fe10 Fe4 2.440011 1_564
Fe10 Fe11 2.440011 1_654
Fe10 W1 2.702956 1_565
Fe10 W9 2.702956 1_655
Fe10 W6 2.702963 1_555
Fe10 W5 2.703402 1_555
Fe10 W4 2.703407 1_555
Fe10 W0 2.703407 1_555
Fe11 Fe2 2.357946 1_566
Fe11 Fe3 2.357953 1_556
Fe11 Fe4 2.440011 1_465
Fe11 Fe9 2.440011 1_455
Fe11 W9 2.702956 1_556
Fe11 W7 2.702956 1_565
Fe11 W8 2.702963 1_555
Fe11 W11 2.703402 1_555
Fe11 W4 2.703407 1_555
Fe11 W2 2.703407 1_555
N0 W7 2.132986 1_555
N0 W9 2.132986 1_555
N0 W0 2.132986 1_455
N0 W5 2.132986 1_455
N0 W3 2.132986 1_455
N0 W8 2.132986 1_555
N1 W1 2.132986 1_555
N1 W9 2.132986 1_555
N1 W11 2.132986 1_554
N1 W6 2.132986 1_555
N1 W2 2.132986 1_554
N1 W3 2.132986 1_554
N2 W8 2.132986 1_555
N2 W6 2.132986 1_555
N2 W10 2.132986 1_555
N2 W2 2.132986 1_555
N2 W0 2.132986 1_555
N2 W4 2.132986 1_555
N3 W7 2.132986 1_555
N3 W1 2.132986 1_555
N3 W4 2.132986 1_545
N3 W11 2.132986 1_545
N3 W5 2.132986 1_545
N3 W10 2.132986 1_555
