# generated using pymatgen
data_Sr2PbO4
_symmetry_space_group_name_H-M   'P 1'
_cell_length_a   3.52291340
_cell_length_b   6.18357867
_cell_length_c   10.11937897
_cell_angle_alpha   90.00000000
_cell_angle_beta   90.00000000
_cell_angle_gamma   90.00000000
_symmetry_Int_Tables_number   1
_chemical_formula_structural   Sr2PbO4
_chemical_formula_sum   'Sr4 Pb2 O8'
_cell_volume   220.44269837
_cell_formula_units_Z   2
loop_
 _symmetry_equiv_pos_site_id
 _symmetry_equiv_pos_as_xyz
  1  'x, y, z'
loop_
 _atom_site_type_symbol
 _atom_site_label
 _atom_site_symmetry_multiplicity
 _atom_site_fract_x
 _atom_site_fract_y
 _atom_site_fract_z
 _atom_site_occupancy
  Sr  Sr0  1  0.50000000  0.42628995  0.81892324  1
  Sr  Sr1  1  0.50000000  0.57371005  0.18107676  1
  Sr  Sr2  1  0.50000000  0.92628995  0.68107676  1
  Sr  Sr3  1  0.50000000  0.07371005  0.31892324  1
  Pb  Pb0  1  0.00000000  0.50000000  0.50000000  1
  Pb  Pb1  1  0.00000000  -0.00000000  -0.00000000  1
  O  O0  1  0.00000000  0.13414677  0.80695333  1
  O  O1  1  0.00000000  0.86585323  0.19304667  1
  O  O2  1  0.00000000  0.63414677  0.69304667  1
  O  O3  1  0.00000000  0.36585323  0.30695333  1
  O  O4  1  0.50000000  0.27541925  0.55123530  1
  O  O5  1  0.50000000  0.72458075  0.44876470  1
  O  O6  1  0.50000000  0.22458075  0.05123530  1
  O  O7  1  0.50000000  0.77541925  0.94876470  1
loop_
_geom_bond_atom_site_label_1
_geom_bond_atom_site_label_2
_geom_bond_distance
_geom_bond_site_symmetry_2
O0 Pb1 2.122332 1_556
O0 Sr2 2.525326 1_545
O0 Sr2 2.525326 1_445
O0 Sr0 2.526026 1_555
O0 Sr0 2.526026 1_455
O1 Pb1 2.122332 1_565
O1 Sr3 2.525326 1_465
O1 Sr3 2.525326 1_565
O1 Sr1 2.526026 1_555
O1 Sr1 2.526026 1_455
O2 Pb0 2.122332 1_555
O2 Sr0 2.525326 1_555
O2 Sr0 2.525326 1_455
O2 Sr2 2.526026 1_555
O2 Sr2 2.526026 1_455
O3 Pb0 2.122332 1_555
O3 Sr1 2.525326 1_555
O3 Sr1 2.525326 1_455
O3 Sr3 2.526026 1_555
O3 Sr3 2.526026 1_455
O4 Pb0 2.302187 1_655
O4 Pb0 2.302187 1_555
O4 Sr2 2.527268 1_545
O4 Sr3 2.661246 1_555
O4 Sr0 2.864984 1_555
O5 Pb0 2.302187 1_655
O5 Pb0 2.302187 1_555
O5 Sr3 2.527268 1_565
O5 Sr2 2.661246 1_555
O5 Sr1 2.864984 1_555
O6 Pb1 2.302187 1_555
O6 Pb1 2.302187 1_655
O6 Sr1 2.527268 1_555
O6 Sr0 2.661246 1_554
O6 Sr3 2.864984 1_555
O7 Pb1 2.302187 1_566
O7 Pb1 2.302187 1_666
O7 Sr0 2.527268 1_555
O7 Sr1 2.661246 1_556
O7 Sr2 2.864984 1_555
