# generated using pymatgen
data_Na10Hf5Zn3(PO4)12
_symmetry_space_group_name_H-M   'P 1'
_cell_length_a   17.94492666
_cell_length_b   8.97966100
_cell_length_c   22.64446456
_cell_angle_alpha   89.98481798
_cell_angle_beta   89.98213270
_cell_angle_gamma   120.03617202
_symmetry_Int_Tables_number   1
_chemical_formula_structural   Na10Hf5Zn3(PO4)12
_chemical_formula_sum   'Na30 Hf15 Zn9 P36 O144'
_cell_volume   3158.89966487
_cell_formula_units_Z   3
loop_
 _symmetry_equiv_pos_site_id
 _symmetry_equiv_pos_as_xyz
  1  'x, y, z'
loop_
 _atom_site_type_symbol
 _atom_site_label
 _atom_site_symmetry_multiplicity
 _atom_site_fract_x
 _atom_site_fract_y
 _atom_site_fract_z
 _atom_site_occupancy
  Na  Na0  1  0.32123303  0.01252001  0.24844740  1
  Na  Na1  1  0.68629112  0.35791628  0.24823785  1
  Na  Na2  1  0.31796752  0.62463718  0.74800876  1
  Na  Na3  1  0.81785042  0.62431618  0.74796993  1
  Na  Na4  1  0.15464097  0.34929416  0.57892446  1
  Na  Na5  1  0.65446979  0.34838477  0.57814927  1
  Na  Na6  1  0.01933901  0.69046152  0.57922035  1
  Na  Na7  1  0.51954459  0.69119171  0.57919137  1
  Na  Na8  1  0.32571793  0.96033859  0.57909138  1
  Na  Na9  1  0.82561691  0.96178897  0.57905947  1
  Na  Na10  1  0.15449280  0.96061805  0.07901455  1
  Na  Na11  1  0.65509626  0.96178808  0.07948578  1
  Na  Na12  1  0.32557063  0.68957545  0.07950944  1
  Na  Na13  1  0.82586536  0.69072688  0.07903990  1
  Na  Na14  1  0.01903158  0.34853276  0.07924673  1
  Na  Na15  1  0.51914581  0.34801469  0.07978628  1
  Na  Na16  1  0.65949064  0.02716491  0.41130924  1
  Na  Na17  1  0.35345663  0.67969061  0.41053448  1
  Na  Na18  1  0.00016659  0.99916907  0.49383838  1
  Na  Na19  1  0.49950076  0.01365663  0.48863345  1
  Na  Na20  1  0.99998785  0.99970249  0.99526562  1
  Na  Na21  1  0.50000054  0.99964487  0.99551704  1
  Na  Na22  1  0.33371813  0.32099901  0.82817656  1
  Na  Na23  1  0.83363099  0.32109134  0.82816518  1
  Na  Na24  1  0.33513229  0.33845858  0.32375834  1
  Na  Na25  1  0.84299256  0.34057520  0.32438501  1
  Na  Na26  1  0.16236973  0.65480283  0.16420082  1
  Na  Na27  1  0.66572268  0.67731498  0.16410584  1
  Na  Na28  1  0.16171473  0.66747615  0.66497026  1
  Na  Na29  1  0.66179449  0.66766454  0.66499039  1
  Hf  Hf0  1  0.00015403  0.99959170  0.35175946  1
  Hf  Hf1  1  0.00070600  0.00214949  0.85362814  1
  Hf  Hf2  1  0.50072950  0.00233969  0.85356060  1
  Hf  Hf3  1  0.00127504  0.00293839  0.65034528  1
  Hf  Hf4  1  0.50140753  0.00206696  0.64972164  1
  Hf  Hf5  1  0.99989347  0.00000860  0.15026122  1
  Hf  Hf6  1  0.50006755  0.99733473  0.15108232  1
  Hf  Hf7  1  0.33314006  0.33410173  0.97851694  1
  Hf  Hf8  1  0.83341300  0.33434096  0.97860023  1
  Hf  Hf9  1  0.33261888  0.32462407  0.47915173  1
  Hf  Hf10  1  0.83595541  0.34024573  0.47879291  1
  Hf  Hf11  1  0.16408401  0.66125988  0.31390494  1
  Hf  Hf12  1  0.66506106  0.66809422  0.31495819  1
  Hf  Hf13  1  0.16418223  0.66759167  0.81598368  1
  Hf  Hf14  1  0.66406393  0.66731885  0.81602944  1
  Zn  Zn0  1  0.49929215  0.00688001  0.34778094  1
  Zn  Zn1  1  0.33373012  0.32447511  0.68534372  1
  Zn  Zn2  1  0.83372974  0.32414130  0.68513833  1
  Zn  Zn3  1  0.33439295  0.34549032  0.18416308  1
  Zn  Zn4  1  0.83726656  0.32936313  0.18463409  1
  Zn  Zn5  1  0.16652128  0.66682959  0.00967195  1
  Zn  Zn6  1  0.66651884  0.66691676  0.00963966  1
  Zn  Zn7  1  0.16478017  0.66609933  0.50932880  1
  Zn  Zn8  1  0.66718343  0.66378965  0.50921759  1
  P  P0  1  0.14862632  0.00144530  0.25011945  1
  P  P1  1  0.64896027  0.00243133  0.25227374  1
  P  P2  1  0.35233612  0.70142613  0.25311055  1
  P  P3  1  0.85209308  0.70274644  0.25034267  1
  P  P4  1  0.99816658  0.29272810  0.25022342  1
  P  P5  1  0.49885568  0.29459524  0.25052828  1
  P  P6  1  0.14867951  0.29649915  0.75044190  1
  P  P7  1  0.64858354  0.29625257  0.75031914  1
  P  P8  1  0.99964189  0.70527772  0.74989756  1
  P  P9  1  0.49964744  0.70529841  0.74990006  1
  P  P10  1  0.35265635  0.00157763  0.75032116  1
  P  P11  1  0.85249222  0.00154417  0.75043869  1
  P  P12  1  0.47992907  0.33535456  0.58554017  1
  P  P13  1  0.97976386  0.33533188  0.58505455  1
  P  P14  1  0.18719908  0.03991089  0.58537907  1
  P  P15  1  0.68767127  0.04088376  0.58378468  1
  P  P16  1  0.33295577  0.62584593  0.58515660  1
  P  P17  1  0.83293975  0.62701812  0.58682839  1
  P  P18  1  0.47966941  0.62445191  0.08440907  1
  P  P19  1  0.97926529  0.62451330  0.08488159  1
  P  P20  1  0.33282983  0.04018657  0.08606189  1
  P  P21  1  0.83285432  0.04100349  0.08439247  1
  P  P22  1  0.18734441  0.33371538  0.08447675  1
  P  P23  1  0.68719055  0.33430856  0.08607849  1
  P  P24  1  0.31325828  0.66730001  0.91764295  1
  P  P25  1  0.81320994  0.66709343  0.91765288  1
  P  P26  1  0.02001387  0.37284957  0.91935795  1
  P  P27  1  0.52000696  0.37281085  0.91944733  1
  P  P28  1  0.16624190  0.96003279  0.91926977  1
  P  P29  1  0.66621968  0.96019944  0.91926095  1
  P  P30  1  0.31394315  0.95767304  0.41737900  1
  P  P31  1  0.81389923  0.95992575  0.41955586  1
  P  P32  1  0.16583110  0.37228493  0.41966040  1
  P  P33  1  0.66534708  0.36987004  0.41813087  1
  P  P34  1  0.02093091  0.67016615  0.41888189  1
  P  P35  1  0.51912244  0.66741744  0.41965398  1
  O  O0  1  0.09826457  0.01596714  0.30280853  1
  O  O1  1  0.60698636  0.02666950  0.30744622  1
  O  O2  1  0.40360807  0.78615687  0.30916715  1
  O  O3  1  0.90973979  0.80362952  0.30302077  1
  O  O4  1  0.48495381  0.17976235  0.30340270  1
  O  O5  1  0.99220618  0.17917574  0.30315128  1
  O  O6  1  0.09821022  0.18050806  0.80262957  1
  O  O7  1  0.59820807  0.18060075  0.80265052  1
  O  O8  1  0.49039524  0.80517024  0.80195471  1
  O  O9  1  0.99046020  0.80532389  0.80193478  1
  O  O10  1  0.41022756  0.01510577  0.80313100  1
  O  O11  1  0.91026019  0.01527917  0.80311735  1
  O  O12  1  0.39477500  0.97134848  0.69353957  1
  O  O13  1  0.89456763  0.97132437  0.69362487  1
  O  O14  1  0.09419709  0.21263429  0.69303057  1
  O  O15  1  0.59402910  0.21226989  0.69298342  1
  O  O16  1  0.01261982  0.81500189  0.69246653  1
  O  O17  1  0.51264858  0.81482653  0.69246171  1
  O  O18  1  0.39620987  0.82088229  0.19695850  1
  O  O19  1  0.89444176  0.81239959  0.19331294  1
  O  O20  1  0.01124050  0.20905822  0.19290901  1
  O  O21  1  0.51560520  0.21187268  0.19351307  1
  O  O22  1  0.09384230  0.97716838  0.19310376  1
  O  O23  1  0.59172205  0.97548665  0.19554961  1
  O  O24  1  0.43941824  0.36784405  0.63894904  1
  O  O25  1  0.93951271  0.36773318  0.63871715  1
  O  O26  1  0.24342804  0.12171256  0.63888098  1
  O  O27  1  0.74476257  0.12520800  0.63683736  1
  O  O28  1  0.31916568  0.51857434  0.64061301  1
  O  O29  1  0.81895306  0.52139167  0.64263125  1
  O  O30  1  0.43985905  0.51194030  0.13819867  1
  O  O31  1  0.93874761  0.51275396  0.13889377  1
  O  O32  1  0.31841996  0.11607540  0.14233292  1
  O  O33  1  0.81629763  0.12000046  0.13839387  1
  O  O34  1  0.24306038  0.36424962  0.13846850  1
  O  O35  1  0.73986297  0.36363418  0.14221967  1
  O  O36  1  0.22941892  0.30108089  0.02918279  1
  O  O37  1  0.73191782  0.30325133  0.03185385  1
  O  O38  1  0.42082751  0.54093842  0.02916380  1
  O  O39  1  0.92089590  0.54090906  0.02949527  1
  O  O40  1  0.34855138  0.16096869  0.03194272  1
  O  O41  1  0.84977961  0.15895275  0.02928890  1
  O  O42  1  0.22915488  0.15689770  0.52967164  1
  O  O43  1  0.72783563  0.15351627  0.52684423  1
  O  O44  1  0.34820220  0.53996784  0.52945698  1
  O  O45  1  0.84885531  0.53763465  0.53239609  1
  O  O46  1  0.42079886  0.30042852  0.52999421  1
  O  O47  1  0.92101766  0.30151804  0.52953947  1
  O  O48  1  0.27657839  0.69493482  0.97476730  1
  O  O49  1  0.77658805  0.69477450  0.97476324  1
  O  O50  1  0.06946679  0.44326800  0.97700515  1
  O  O51  1  0.56953351  0.44334557  0.97706182  1
  O  O52  1  0.15174941  0.86084233  0.97693159  1
  O  O53  1  0.65172972  0.86100797  0.97689391  1
  O  O54  1  0.27416876  0.85232930  0.47436486  1
  O  O55  1  0.77888359  0.86252218  0.47763893  1
  O  O56  1  0.15161482  0.44220633  0.47756772  1
  O  O57  1  0.65533111  0.44852269  0.47574765  1
  O  O58  1  0.06877622  0.69712137  0.47734407  1
  O  O59  1  0.57191474  0.69570283  0.47628872  1
  O  O60  1  0.06767414  0.64545292  0.36541187  1
  O  O61  1  0.56587513  0.64341160  0.36558382  1
  O  O62  1  0.25696973  0.86818908  0.36211074  1
  O  O63  1  0.75293187  0.86683711  0.36650397  1
  O  O64  1  0.18037502  0.49335509  0.36643831  1
  O  O65  1  0.67712309  0.48355872  0.36296687  1
  O  O66  1  0.06709531  0.48952152  0.86531341  1
  O  O67  1  0.56694616  0.48964923  0.86538370  1
  O  O68  1  0.17760520  0.86613667  0.86522027  1
  O  O69  1  0.67773214  0.86640327  0.86519951  1
  O  O70  1  0.25755998  0.64523049  0.86198633  1
  O  O71  1  0.75752895  0.64502814  0.86198779  1
  O  O72  1  0.00888405  0.82760996  0.40914989  1
  O  O73  1  0.50788621  0.82575943  0.41284132  1
  O  O74  1  0.40303819  0.97444633  0.41165516  1
  O  O75  1  0.90483615  0.98505587  0.40930885  1
  O  O76  1  0.08794462  0.19002974  0.40948337  1
  O  O77  1  0.58879094  0.18505402  0.41228769  1
  O  O78  1  0.00872704  0.19139534  0.90938439  1
  O  O79  1  0.50870458  0.19138059  0.90942979  1
  O  O80  1  0.08697029  0.98309156  0.90907222  1
  O  O81  1  0.58691059  0.98311847  0.90902690  1
  O  O82  1  0.40468526  0.82650223  0.90882605  1
  O  O83  1  0.90470723  0.82627138  0.90881066  1
  O  O84  1  0.48652188  0.16643165  0.58977195  1
  O  O85  1  0.98654643  0.16635579  0.58954577  1
  O  O86  1  0.09603522  0.02680331  0.58919298  1
  O  O87  1  0.59660397  0.02777013  0.58891478  1
  O  O88  1  0.41726228  0.80889954  0.58896427  1
  O  O89  1  0.91750100  0.80968894  0.58924452  1
  O  O90  1  0.48628197  0.80686712  0.08934965  1
  O  O91  1  0.98659817  0.80767223  0.08928868  1
  O  O92  1  0.41712163  0.02538810  0.08938281  1
  O  O93  1  0.91720403  0.02649257  0.08916646  1
  O  O94  1  0.09573395  0.16519183  0.08905936  1
  O  O95  1  0.59591079  0.16486139  0.08912292  1
  O  O96  1  0.34326623  0.15939026  0.74709396  1
  O  O97  1  0.84316085  0.15933351  0.74697058  1
  O  O98  1  0.23913369  0.32159605  0.74742774  1
  O  O99  1  0.73904849  0.32118025  0.74745953  1
  O  O100  1  0.41711629  0.53123775  0.74670478  1
  O  O101  1  0.91720637  0.53119237  0.74676016  1
  O  O102  1  0.33955241  0.52235529  0.24561213  1
  O  O103  1  0.83972685  0.52253661  0.24779750  1
  O  O104  1  0.41916029  0.31212022  0.24347980  1
  O  O105  1  0.91873471  0.31028484  0.24763598  1
  O  O106  1  0.23921517  0.15569826  0.24777300  1
  O  O107  1  0.73696246  0.16499438  0.24490918  1
  O  O108  1  0.32186832  0.50275269  0.92144875  1
  O  O109  1  0.82178277  0.50260078  0.92151880  1
  O  O110  1  0.42915364  0.35526724  0.92219730  1
  O  O111  1  0.92921865  0.35585081  0.92196695  1
  O  O112  1  0.24885023  0.14110085  0.92207653  1
  O  O113  1  0.74861496  0.14163855  0.92221038  1
  O  O114  1  0.32058713  0.13833440  0.42193996  1
  O  O115  1  0.81841995  0.13858625  0.42256726  1
  O  O116  1  0.25114854  0.36466477  0.42303655  1
  O  O117  1  0.74912678  0.35368102  0.42197468  1
  O  O118  1  0.42741333  0.50398650  0.42307735  1
  O  O119  1  0.92997409  0.50436747  0.42185574  1
  O  O120  1  0.17322636  0.48935885  0.07766949  1
  O  O121  1  0.67356058  0.48977528  0.07799814  1
  O  O122  1  0.07129869  0.65297607  0.07806331  1
  O  O123  1  0.57184030  0.65424010  0.07749490  1
  O  O124  1  0.25501564  0.85698055  0.07805393  1
  O  O125  1  0.75522429  0.85669771  0.07740800  1
  O  O126  1  0.17304944  0.85691035  0.57830121  1
  O  O127  1  0.67301262  0.85691373  0.57794675  1
  O  O128  1  0.25509696  0.65322414  0.57825832  1
  O  O129  1  0.75511225  0.65313536  0.57877275  1
  O  O130  1  0.07156858  0.48985388  0.57793000  1
  O  O131  1  0.57154475  0.48955079  0.57806889  1
  O  O132  1  0.15556688  0.83492201  0.25584549  1
  O  O133  1  0.65572163  0.83514461  0.25604954  1
  O  O134  1  0.26342936  0.69925406  0.25570957  1
  O  O135  1  0.76138459  0.68678647  0.25662248  1
  O  O136  1  0.08247603  0.47109944  0.25629892  1
  O  O137  1  0.58520031  0.47194899  0.25562607  1
  O  O138  1  0.15655186  0.47757583  0.75600811  1
  O  O139  1  0.65658883  0.47754519  0.75605103  1
  O  O140  1  0.08233260  0.69156482  0.75575003  1
  O  O141  1  0.58227215  0.69141218  0.75579801  1
  O  O142  1  0.26491278  0.82901115  0.75608799  1
  O  O143  1  0.76483381  0.82892554  0.75612360  1
loop_
_geom_bond_atom_site_label_1
_geom_bond_atom_site_label_2
_geom_bond_distance
_geom_bond_site_symmetry_2
Na0 O104 2.367569 1_555
Na0 O106 2.390357 1_555
Na0 O134 2.468735 1_545
Na0 O132 2.581205 1_545
Na0 O32 2.585940 1_555
Na0 O4 2.832284 1_555
Na0 O62 2.852092 1_545
Na0 O18 2.906697 1_545
Na1 O107 2.326069 1_555
Na1 O103 2.385752 1_555
Na1 O137 2.495365 1_555
Na1 O135 2.567020 1_555
Na1 O35 2.576699 1_555
Na1 O65 2.869939 1_555
Na1 O1 2.903349 1_555
Na1 O21 2.935837 1_555
Na2 O100 2.315973 1_555
Na2 O98 2.356404 1_555
Na2 O142 2.461118 1_555
Na2 O138 2.517375 1_555
Na2 O28 2.616003 1_555
Na2 O70 2.840742 1_555
Na2 O8 2.945543 1_555
Na2 O12 2.969020 1_555
Na3 O101 2.317630 1_555
Na3 O99 2.357110 1_555
Na3 O143 2.462710 1_555
Na3 O139 2.515187 1_555
Na3 O29 2.562005 1_555
Na3 O71 2.841205 1_555
Na3 O9 2.948359 1_555
Na3 O13 2.970131 1_555
Na4 O130 2.387363 1_555
Na4 O128 2.402723 1_555
Na4 O56 2.451787 1_555
Na4 O86 2.548871 1_555
Na4 O85 2.625654 1_455
Na4 O14 2.832467 1_555
Na4 O42 2.886070 1_555
Na4 O28 2.913672 1_555
Na5 O131 2.389489 1_555
Na5 O129 2.408944 1_555
Na5 O57 2.484097 1_555
Na5 O87 2.536345 1_555
Na5 O84 2.625183 1_555
Na5 O15 2.846330 1_555
Na5 O43 2.907129 1_555
Na5 O29 2.944677 1_555
Na6 O126 2.390705 1_555
Na6 O130 2.411332 1_555
Na6 O58 2.461318 1_555
Na6 O89 2.548719 1_455
Na6 O86 2.627980 1_565
Na6 O16 2.824475 1_555
Na6 O25 2.847169 1_455
Na6 O45 2.857758 1_455
Na7 O127 2.386811 1_555
Na7 O131 2.416893 1_555
Na7 O59 2.504998 1_555
Na7 O88 2.545007 1_555
Na7 O87 2.629054 1_565
Na7 O17 2.822348 1_555
Na7 O24 2.854189 1_555
Na7 O44 2.896446 1_555
Na8 O128 2.390201 1_555
Na8 O126 2.412731 1_555
Na8 O84 2.542586 1_565
Na8 O54 2.554350 1_555
Na8 O88 2.614255 1_555
Na8 O12 2.853318 1_555
Na8 O46 2.873013 1_565
Na8 O26 2.873234 1_565
Na9 O129 2.402522 1_555
Na9 O127 2.409366 1_555
Na9 O55 2.454837 1_555
Na9 O85 2.541759 1_565
Na9 O89 2.625240 1_555
Na9 O27 2.846345 1_565
Na9 O13 2.857374 1_555
Na9 O47 2.874614 1_565
Na10 O122 2.394183 1_555
Na10 O124 2.408541 1_555
Na10 O52 2.470977 1_554
Na10 O94 2.545053 1_565
Na10 O91 2.621960 1_455
Na10 O22 2.835741 1_555
Na10 O36 2.882703 1_565
Na10 O32 2.924149 1_565
Na11 O123 2.393864 1_555
Na11 O125 2.412178 1_555
Na11 O53 2.483156 1_554
Na11 O95 2.537678 1_565
Na11 O90 2.634905 1_555
Na11 O33 2.838127 1_565
Na11 O37 2.869017 1_565
Na11 O23 2.890374 1_555
Na12 O124 2.401912 1_555
Na12 O120 2.405719 1_555
Na12 O90 2.536900 1_555
Na12 O48 2.538585 1_554
Na12 O92 2.623600 1_565
Na12 O34 2.859269 1_555
Na12 O38 2.878671 1_555
Na12 O18 2.928809 1_555
Na13 O125 2.391819 1_555
Na13 O121 2.406113 1_555
Na13 O49 2.528317 1_554
Na13 O91 2.538572 1_555
Na13 O93 2.623553 1_565
Na13 O19 2.839284 1_555
Na13 O39 2.876275 1_555
Na13 O35 2.917897 1_555
Na14 O120 2.398705 1_555
Na14 O122 2.405642 1_555
Na14 O50 2.475856 1_554
Na14 O93 2.541941 1_455
Na14 O94 2.631133 1_555
Na14 O20 2.834690 1_555
Na14 O31 2.863771 1_455
Na14 O41 2.868719 1_455
Na15 O121 2.401878 1_555
Na15 O123 2.419730 1_555
Na15 O51 2.486779 1_554
Na15 O92 2.545932 1_555
Na15 O95 2.629689 1_555
Na15 O30 2.834995 1_555
Na15 O21 2.837449 1_555
Na15 O40 2.867408 1_555
Na16 O77 2.328292 1_555
Na16 O73 2.397427 1_545
Na16 O115 2.518690 1_555
Na16 O1 2.533074 1_555
Na16 O117 2.553739 1_555
Na16 O43 2.871699 1_555
Na16 O63 2.886202 1_545
Na16 O59 2.967736 1_545
Na17 O74 2.332461 1_555
Na17 O73 2.400860 1_555
Na17 O2 2.475691 1_555
Na17 O116 2.500614 1_555
Na17 O118 2.535259 1_555
Na17 O64 2.871203 1_555
Na17 O44 2.952049 1_555
Na17 O54 2.953785 1_555
Na18 O72 2.513573 1_555
Na18 O76 2.522115 1_565
Na18 O75 2.528153 1_455
Na18 O89 2.689286 1_455
Na18 O86 2.694218 1_565
Na18 O85 2.716477 1_465
Na19 O77 2.335174 1_555
Na19 O74 2.356045 1_545
Na19 O73 2.463859 1_545
Na19 O84 2.739088 1_555
Na19 O87 2.826757 1_555
Na19 O88 2.828344 1_545
Na20 O78 2.548996 1_665
Na20 O80 2.549413 1_655
Na20 O83 2.553330 1_555
Na20 O94 2.668196 1_666
Na20 O93 2.672469 1_566
Na20 O91 2.673426 1_556
Na21 O79 2.552978 1_565
Na21 O81 2.553452 1_555
Na21 O82 2.556949 1_555
Na21 O95 2.665316 1_566
Na21 O92 2.669411 1_566
Na21 O90 2.672652 1_556
Na22 O96 2.399294 1_555
Na22 O98 2.497077 1_555
Na22 O100 2.524955 1_555
Na22 O112 2.642621 1_555
Na22 O110 2.652459 1_555
Na22 O108 2.742055 1_555
Na23 O97 2.401970 1_555
Na23 O99 2.494780 1_555
Na23 O101 2.523991 1_555
Na23 O113 2.644701 1_555
Na23 O111 2.649175 1_555
Na23 O109 2.742075 1_555
Na24 O102 2.394124 1_555
Na24 O106 2.406667 1_555
Na24 O104 2.447406 1_555
Na24 O118 2.747672 1_555
Na24 O116 2.780979 1_555
Na24 O114 2.787184 1_555
Na25 O105 2.304493 1_555
Na25 O103 2.403204 1_555
Na25 O107 2.519017 1_555
Na25 O119 2.678959 1_555
Na25 O115 2.761133 1_555
Na25 O117 2.816181 1_555
Na26 O120 2.524990 1_555
Na26 O122 2.539852 1_555
Na26 O136 2.598981 1_555
Na26 O124 2.615323 1_555
Na26 O134 2.649552 1_555
Na26 O132 2.671486 1_555
Na27 O123 2.525973 1_555
Na27 O125 2.536712 1_555
Na27 O133 2.575185 1_555
Na27 O121 2.626107 1_555
Na27 O137 2.666863 1_555
Na27 O135 2.683145 1_555
Na28 O126 2.537374 1_555
Na28 O130 2.542886 1_555
Na28 O140 2.570724 1_555
Na28 O128 2.625406 1_555
Na28 O138 2.646901 1_555
Na28 O142 2.665630 1_555
Na29 O131 2.542768 1_555
Na29 O127 2.543429 1_555
Na29 O141 2.571621 1_555
Na29 O129 2.617199 1_555
Na29 O139 2.648314 1_555
Na29 O143 2.664215 1_555
Hf0 O5 2.015388 1_465
Hf0 O0 2.022255 1_565
Hf0 O3 2.022609 1_455
Hf0 O72 2.083190 1_555
Hf0 O75 2.101436 1_455
Hf0 O76 2.102445 1_565
Hf1 O11 2.036929 1_455
Hf1 O6 2.037794 1_555
Hf1 O9 2.050305 1_445
Hf1 O78 2.063739 1_555
Hf1 O80 2.065962 1_545
Hf1 O83 2.073000 1_445
Hf2 O10 2.035239 1_555
Hf2 O7 2.036134 1_555
Hf2 O8 2.051157 1_545
Hf2 O79 2.064138 1_555
Hf2 O81 2.065759 1_545
Hf2 O82 2.074372 1_545
Hf3 O14 2.029565 1_555
Hf3 O16 2.035295 1_545
Hf3 O13 2.040157 1_445
Hf3 O86 2.118640 1_555
Hf3 O85 2.122769 1_455
Hf3 O89 2.139300 1_445
Hf4 O17 2.035467 1_545
Hf4 O15 2.036263 1_555
Hf4 O12 2.047539 1_545
Hf4 O87 2.114509 1_555
Hf4 O84 2.118133 1_555
Hf4 O88 2.135930 1_545
Hf5 O20 2.028890 1_655
Hf5 O22 2.042692 1_645
Hf5 O19 2.043513 1_545
Hf5 O94 2.126571 1_655
Hf5 O93 2.127609 1_555
Hf5 O91 2.129581 1_545
Hf6 O23 2.020277 1_555
Hf6 O18 2.026052 1_555
Hf6 O21 2.043442 1_565
Hf6 O90 2.125674 1_555
Hf6 O95 2.144023 1_565
Hf6 O92 2.146504 1_565
Hf7 O110 2.074089 1_555
Hf7 O112 2.074367 1_555
Hf7 O108 2.076096 1_555
Hf7 O36 2.077145 1_556
Hf7 O38 2.077856 1_556
Hf7 O40 2.094456 1_556
Hf8 O111 2.074544 1_555
Hf8 O113 2.075265 1_555
Hf8 O109 2.076534 1_555
Hf8 O39 2.078590 1_556
Hf8 O37 2.082974 1_556
Hf8 O41 2.084814 1_556
Hf9 O114 2.040364 1_555
Hf9 O46 2.054706 1_555
Hf9 O42 2.054910 1_555
Hf9 O118 2.086832 1_555
Hf9 O116 2.099639 1_555
Hf9 O44 2.138950 1_555
Hf10 O119 2.046764 1_555
Hf10 O45 2.063782 1_555
Hf10 O117 2.070525 1_555
Hf10 O47 2.074546 1_555
Hf10 O115 2.104805 1_555
Hf10 O43 2.121504 1_555
Hf11 O60 2.031370 1_555
Hf11 O64 2.052888 1_555
Hf11 O136 2.064223 1_555
Hf11 O62 2.079478 1_555
Hf11 O134 2.102520 1_555
Hf11 O132 2.102693 1_555
Hf12 O61 2.033467 1_555
Hf12 O63 2.053988 1_555
Hf12 O133 2.075680 1_555
Hf12 O65 2.081546 1_555
Hf12 O137 2.106341 1_555
Hf12 O135 2.113989 1_555
Hf13 O66 2.012192 1_555
Hf13 O68 2.012715 1_555
Hf13 O70 2.066665 1_555
Hf13 O140 2.093247 1_555
Hf13 O138 2.131211 1_555
Hf13 O142 2.140672 1_555
Hf14 O67 2.011464 1_555
Hf14 O69 2.014463 1_555
Hf14 O71 2.067188 1_555
Hf14 O141 2.092922 1_555
Hf14 O139 2.130519 1_555
Hf14 O143 2.141602 1_555
O0 P0 1.540993 1_555
O1 P1 1.529465 1_555
O1 Zn0 2.062916 1_555
O2 P2 1.528780 1_555
O2 Zn0 2.058182 1_565
O3 P3 1.541720 1_555
O4 P5 1.516813 1_555
O4 Zn0 1.971118 1_555
O5 P4 1.541979 1_555
O6 P6 1.534922 1_555
O7 P7 1.535843 1_555
O8 P9 1.539738 1_555
O9 P8 1.539928 1_555
O10 P10 1.545103 1_555
O11 P11 1.544557 1_555
O12 P10 1.582138 1_565
O13 P11 1.582260 1_565
O14 P6 1.573961 1_555
O15 P7 1.573218 1_555
O16 P8 1.576620 1_455
O17 P9 1.575720 1_555
O18 P2 1.593891 1_555
O19 P3 1.569840 1_555
O20 P4 1.575039 1_455
O21 P5 1.591473 1_555
O22 P0 1.570766 1_565
O23 P1 1.586081 1_565
O24 P12 1.512691 1_555
O24 Zn1 2.027680 1_555
O25 P13 1.514272 1_555
O25 Zn2 2.028866 1_555
O26 P14 1.511531 1_555
O26 Zn1 2.023949 1_555
O27 P15 1.513553 1_555
O27 Zn2 2.020709 1_555
O28 P16 1.525330 1_555
O28 Zn1 2.141821 1_555
O29 P17 1.523228 1_555
O29 Zn2 2.145590 1_555
O30 P18 1.513593 1_555
O30 Zn3 2.016262 1_555
O31 P19 1.516584 1_555
O31 Zn4 2.024040 1_555
O32 P20 1.526946 1_555
O32 Zn3 2.152520 1_555
O33 P21 1.515921 1_555
O33 Zn4 2.016307 1_555
O34 P22 1.515290 1_555
O34 Zn3 2.015582 1_555
O35 P23 1.526655 1_555
O35 Zn4 2.147489 1_555
O36 P22 1.563586 1_555
O37 P23 1.566316 1_555
O38 P18 1.565548 1_555
O39 P19 1.564557 1_555
O40 P20 1.565414 1_555
O41 P21 1.564622 1_555
O42 P14 1.571185 1_555
O43 P15 1.572862 1_555
O44 P16 1.572228 1_555
O45 P17 1.573168 1_555
O46 P12 1.572973 1_555
O47 P13 1.569852 1_555
O48 P24 1.526846 1_555
O48 Zn5 2.022092 1_556
O49 P25 1.526202 1_555
O49 Zn6 2.022852 1_556
O50 P26 1.526700 1_555
O50 Zn5 2.027804 1_556
O51 P27 1.526691 1_555
O51 Zn6 2.026667 1_556
O52 P28 1.527469 1_555
O52 Zn5 2.028998 1_556
O53 P29 1.526920 1_555
O53 Zn6 2.029867 1_556
O54 P30 1.546706 1_555
O54 Zn7 1.997181 1_555
O55 P31 1.529194 1_555
O55 Zn8 2.032551 1_555
O56 P32 1.529489 1_555
O56 Zn7 2.034821 1_555
O57 P33 1.536488 1_555
O57 Zn8 1.986338 1_555
O58 P34 1.530080 1_555
O58 Zn7 2.012776 1_555
O59 P35 1.538425 1_555
O59 Zn8 2.012947 1_555
O60 P34 1.550720 1_555
O61 P35 1.558854 1_555
O62 P30 1.560818 1_555
O63 P31 1.557150 1_555
O64 P32 1.554858 1_555
O65 P33 1.558991 1_555
O66 P26 1.556181 1_555
O67 P27 1.556599 1_555
O68 P28 1.556595 1_555
O69 P29 1.557339 1_555
O70 P24 1.558619 1_555
O71 P25 1.558602 1_555
O72 P34 1.549174 1_555
O73 P35 1.540469 1_555
O73 Zn0 2.255975 1_565
O74 P30 1.534421 1_555
O74 Zn0 2.157536 1_565
O75 P31 1.548809 1_555
O76 P32 1.547740 1_555
O77 P33 1.541704 1_555
O77 Zn0 2.168691 1_555
O78 P26 1.554609 1_555
O79 P27 1.554432 1_555
O80 P28 1.553969 1_555
O81 P29 1.554011 1_555
O82 P24 1.557863 1_555
O83 P25 1.558600 1_555
O84 P12 1.582295 1_555
O85 P13 1.585027 1_555
O86 P14 1.582631 1_555
O87 P15 1.582778 1_555
O88 P16 1.583920 1_555
O89 P17 1.582583 1_555
O90 P18 1.585954 1_555
O91 P19 1.586116 1_555
O92 P20 1.585116 1_555
O93 P21 1.586614 1_555
O94 P22 1.585145 1_555
O95 P23 1.583609 1_555
O96 P10 1.510272 1_555
O96 Zn1 2.105959 1_555
O97 P11 1.509724 1_555
O97 Zn2 2.104526 1_555
O98 P6 1.524441 1_555
O98 Zn1 2.193915 1_555
O99 P7 1.525067 1_555
O99 Zn2 2.198250 1_555
O100 P9 1.524595 1_555
O100 Zn1 2.199624 1_555
O101 P8 1.523866 1_555
O101 Zn2 2.205083 1_555
O102 P2 1.515913 1_555
O102 Zn3 2.078744 1_555
O103 P3 1.520452 1_555
O103 Zn4 2.231893 1_555
O104 P5 1.523462 1_555
O104 Zn3 2.159911 1_555
O105 P4 1.511642 1_555
O105 Zn4 2.110410 1_555
O106 P0 1.519800 1_555
O106 Zn3 2.231503 1_555
O107 P1 1.531178 1_555
O107 Zn4 2.149205 1_555
O108 P24 1.563018 1_555
O109 P25 1.562223 1_555
O110 P27 1.558707 1_555
O111 P26 1.559619 1_655
O112 P28 1.559615 1_545
O113 P29 1.560013 1_545
O114 P30 1.569438 1_545
O115 P31 1.566785 1_545
O116 P32 1.568273 1_555
O117 P33 1.583620 1_555
O118 P35 1.565293 1_555
O119 P34 1.566009 1_655
O120 P22 1.547800 1_555
O120 Zn5 2.261810 1_555
O121 P23 1.544004 1_555
O121 Zn6 2.267678 1_555
O122 P19 1.547247 1_455
O122 Zn5 2.262569 1_555
O123 P18 1.545538 1_555
O123 Zn6 2.250599 1_555
O124 P20 1.545890 1_565
O124 Zn5 2.263526 1_555
O125 P21 1.548195 1_565
O125 Zn6 2.253933 1_555
O126 P14 1.540453 1_565
O126 Zn7 2.268084 1_555
O127 P15 1.542999 1_565
O127 Zn8 2.293570 1_555
O128 P16 1.543019 1_555
O128 Zn7 2.294671 1_555
O129 P17 1.538449 1_555
O129 Zn8 2.265434 1_555
O130 P13 1.541648 1_455
O130 Zn7 2.250039 1_555
O131 P12 1.539322 1_555
O131 Zn8 2.265637 1_555
O132 P0 1.566737 1_565
O133 P1 1.568748 1_565
O134 P2 1.586825 1_555
O135 P3 1.567374 1_555
O136 P4 1.564508 1_455
O137 P5 1.574900 1_555
O138 P6 1.565218 1_555
O139 P7 1.566429 1_555
O140 P8 1.554881 1_455
O141 P9 1.554660 1_555
O142 P10 1.566742 1_565
O143 P11 1.566039 1_565
