# generated using pymatgen
data_MgZn2(NiO2)4
_symmetry_space_group_name_H-M   'P 1'
_cell_length_a   6.24496673
_cell_length_b   5.84864355
_cell_length_c   5.85074879
_cell_angle_alpha   59.87032730
_cell_angle_beta   61.83354084
_cell_angle_gamma   61.98039920
_symmetry_Int_Tables_number   1
_chemical_formula_structural   MgZn2(NiO2)4
_chemical_formula_sum   'Mg1 Zn2 Ni4 O8'
_cell_volume   155.15453664
_cell_formula_units_Z   1
loop_
 _symmetry_equiv_pos_site_id
 _symmetry_equiv_pos_as_xyz
  1  'x, y, z'
loop_
 _atom_site_type_symbol
 _atom_site_label
 _atom_site_symmetry_multiplicity
 _atom_site_fract_x
 _atom_site_fract_y
 _atom_site_fract_z
 _atom_site_occupancy
  Mg  Mg0  1  0.62523800  0.12412800  0.12309300  1
  Zn  Zn0  1  0.08806600  0.97128200  0.97244500  1
  Zn  Zn1  1  0.12389500  0.62563500  0.62668900  1
  Ni  Ni0  1  0.16557800  0.27984500  0.28421800  1
  Ni  Ni1  1  0.62362800  0.12537400  0.62441200  1
  Ni  Ni2  1  0.62358400  0.62508300  0.12449700  1
  Ni  Ni3  1  0.62346700  0.62436400  0.62399900  1
  O  O0  1  0.39144300  0.36897800  0.36938900  1
  O  O1  1  0.38591100  0.37080400  0.87364600  1
  O  O2  1  0.38692900  0.87282800  0.37114500  1
  O  O3  1  0.80242200  0.39831200  0.39496100  1
  O  O4  1  0.44524100  0.85097800  0.85197600  1
  O  O5  1  0.86045400  0.38061200  0.87581900  1
  O  O6  1  0.86015500  0.87703500  0.38047600  1
  O  O7  1  0.85857400  0.87974100  0.87823500  1
loop_
_geom_bond_atom_site_label_1
_geom_bond_atom_site_label_2
_geom_bond_distance
_geom_bond_site_symmetry_2
Mg0 O7 2.084878 1_544
Mg0 O2 2.087088 1_545
Mg0 O1 2.089203 1_554
Mg0 O0 2.092834 1_555
Mg0 O5 2.094349 1_554
Mg0 O6 2.101744 1_545
Ni0 O3 1.905338 1_455
Ni0 O0 2.030977 1_555
Ni0 O2 2.047643 1_545
Ni0 O1 2.056951 1_554
Ni1 O3 1.924912 1_555
Ni1 O4 1.929672 1_545
Ni1 O0 2.079906 1_555
Ni1 O7 2.087303 1_545
Ni1 O6 2.098447 1_545
Ni1 O1 2.108606 1_555
Ni2 O3 1.918385 1_555
Ni2 O4 1.925461 1_554
Ni2 O0 2.079151 1_555
Ni2 O7 2.085884 1_554
Ni2 O5 2.102111 1_554
Ni2 O2 2.107113 1_555
Ni3 O4 1.939535 1_555
Ni3 O3 1.941439 1_555
Ni3 O6 2.085417 1_555
Ni3 O5 2.088302 1_555
Ni3 O2 2.090542 1_555
Ni3 O1 2.092921 1_555
O0 Zn1 2.201986 1_555
O1 Zn1 2.182939 1_555
O2 Zn1 2.183227 1_555
O4 Zn0 1.872505 1_555
O5 Zn0 2.067393 1_645
O5 Zn1 2.176940 1_655
O6 Zn0 2.058404 1_654
O6 Zn1 2.188156 1_655
O7 Zn0 2.099381 1_655
O7 Zn1 2.167984 1_655
