# generated using pymatgen
data_Na3CaHf(PO4)3
_symmetry_space_group_name_H-M   'P 1'
_cell_length_a   9.21882487
_cell_length_b   9.22871673
_cell_length_c   22.75541181
_cell_angle_alpha   90.00000001
_cell_angle_beta   89.97798187
_cell_angle_gamma   120.03550352
_symmetry_Int_Tables_number   1
_chemical_formula_structural   Na3CaHf(PO4)3
_chemical_formula_sum   'Na18 Ca6 Hf6 P18 O72'
_cell_volume   1676.01031102
_cell_formula_units_Z   6
loop_
 _symmetry_equiv_pos_site_id
 _symmetry_equiv_pos_as_xyz
  1  'x, y, z'
loop_
 _atom_site_type_symbol
 _atom_site_label
 _atom_site_symmetry_multiplicity
 _atom_site_fract_x
 _atom_site_fract_y
 _atom_site_fract_z
 _atom_site_occupancy
  Na  Na0  1  0.98384161  0.96996806  0.49505352  1
  Na  Na1  1  0.98384161  0.01387354  0.99505352  1
  Na  Na2  1  0.66735837  0.33778344  0.82836991  1
  Na  Na3  1  0.66735837  0.32957392  0.32836991  1
  Na  Na4  1  0.32904357  0.66304295  0.16171519  1
  Na  Na5  1  0.32904357  0.66600163  0.66171519  1
  Na  Na6  1  0.36978548  0.35568851  0.24579645  1
  Na  Na7  1  0.98671062  0.63866045  0.24630416  1
  Na  Na8  1  0.98671062  0.34805018  0.74630416  1
  Na  Na9  1  0.36978548  0.01409697  0.74579645  1
  Na  Na10  1  0.31635951  0.34575317  0.57970726  1
  Na  Na11  1  0.65428526  0.96579890  0.57893667  1
  Na  Na12  1  0.31635951  0.97060534  0.07970726  1
  Na  Na13  1  0.65428526  0.68848536  0.07893667  1
  Na  Na14  1  0.98444900  0.68161821  0.91189817  1
  Na  Na15  1  0.31934280  0.29709793  0.91295905  1
  Na  Na16  1  0.98444900  0.30283179  0.41189817  1
  Na  Na17  1  0.31934280  0.02224587  0.41295905  1
  Ca  Ca0  1  0.98743988  0.99377516  0.35024547  1
  Ca  Ca1  1  0.98743988  0.99366472  0.85024547  1
  Ca  Ca2  1  0.67230516  0.34702468  0.68376328  1
  Ca  Ca3  1  0.67230516  0.32527948  0.18376328  1
  Ca  Ca4  1  0.32913731  0.66240890  0.01725582  1
  Ca  Ca5  1  0.32913731  0.66672941  0.51725582  1
  Hf  Hf0  1  0.99603524  0.99178748  0.64941577  1
  Hf  Hf1  1  0.99603524  0.00424775  0.14941577  1
  Hf  Hf2  1  0.67059145  0.32736475  0.98257274  1
  Hf  Hf3  1  0.67059145  0.34322570  0.48257274  1
  Hf  Hf4  1  0.34226380  0.67230035  0.31606043  1
  Hf  Hf5  1  0.34226380  0.66996445  0.81606043  1
  P  P0  1  0.29097770  0.99128742  0.25200278  1
  P  P1  1  0.69713917  0.70506995  0.24842531  1
  P  P2  1  0.01277972  0.30702867  0.25396754  1
  P  P3  1  0.29097770  0.29969028  0.75200278  1
  P  P4  1  0.01277972  0.70575104  0.75396754  1
  P  P5  1  0.69713917  0.99206922  0.74842531  1
  P  P6  1  0.96110667  0.32138059  0.58538482  1
  P  P7  1  0.36684729  0.04321110  0.58562434  1
  P  P8  1  0.67411447  0.63638592  0.58365280  1
  P  P9  1  0.96110667  0.63972508  0.08538482  1
  P  P10  1  0.67411447  0.03772755  0.08365280  1
  P  P11  1  0.36684729  0.32363519  0.08562434  1
  P  P12  1  0.62758776  0.65491596  0.92096418  1
  P  P13  1  0.03334003  0.37503174  0.91542394  1
  P  P14  1  0.34328368  0.97037406  0.91797340  1
  P  P15  1  0.62758776  0.97267280  0.42096418  1
  P  P16  1  0.34328368  0.37291062  0.41797340  1
  P  P17  1  0.03334003  0.65830929  0.41542394  1
  O  O0  1  0.21393608  0.01275279  0.30794555  1
  O  O1  1  0.80756715  0.78167463  0.30098543  1
  O  O2  1  0.99370474  0.21810181  0.31151239  1
  O  O3  1  0.21393608  0.20118329  0.80794555  1
  O  O4  1  0.99370474  0.77560293  0.81151239  1
  O  O5  1  0.80756715  0.02589252  0.80098543  1
  O  O6  1  0.78518206  0.97006595  0.69180275  1
  O  O7  1  0.17006959  0.20385633  0.69762767  1
  O  O8  1  0.02804937  0.82563407  0.70103093  1
  O  O9  1  0.78518206  0.81511612  0.19180275  1
  O  O10  1  0.02804937  0.20241530  0.20103093  1
  O  O11  1  0.17006959  0.96621326  0.19762767  1
  O  O12  1  0.88641010  0.34005744  0.64200053  1
  O  O13  1  0.46477481  0.12030736  0.64155676  1
  O  O14  1  0.63981963  0.53056085  0.63742505  1
  O  O15  1  0.88641010  0.54635167  0.14200053  1
  O  O16  1  0.63981963  0.10925779  0.13742505  1
  O  O17  1  0.46477481  0.34446645  0.14155676  1
  O  O18  1  0.46256871  0.29810120  0.03136192  1
  O  O19  1  0.84509322  0.53988520  0.03078158  1
  O  O20  1  0.69485582  0.15135617  0.02837085  1
  O  O21  1  0.46256871  0.16446650  0.53136192  1
  O  O22  1  0.69485582  0.54349865  0.52837085  1
  O  O23  1  0.84509322  0.30520702  0.53078158  1
  O  O24  1  0.55726615  0.67472347  0.97826884  1
  O  O25  1  0.13978046  0.45703808  0.96849054  1
  O  O26  1  0.31609016  0.87082273  0.97375339  1
  O  O27  1  0.55726615  0.88254369  0.47826884  1
  O  O28  1  0.31609016  0.44526843  0.47375339  1
  O  O29  1  0.13978046  0.68274338  0.46849054  1
  O  O30  1  0.12316350  0.63308235  0.35931413  1
  O  O31  1  0.50687584  0.87008246  0.36773138  1
  O  O32  1  0.36118104  0.48748866  0.36312452  1
  O  O33  1  0.12316350  0.49008216  0.85931413  1
  O  O34  1  0.36118104  0.87369338  0.86312452  1
  O  O35  1  0.50687584  0.63679439  0.86773138  1
  O  O36  1  0.00964570  0.80966550  0.41003327  1
  O  O37  1  0.80820979  0.01172914  0.41361740  1
  O  O38  1  0.19278711  0.19439990  0.41112886  1
  O  O39  1  0.00964570  0.19998019  0.91003327  1
  O  O40  1  0.19278711  0.99838721  0.91112886  1
  O  O41  1  0.80820979  0.79648065  0.91361740  1
  O  O42  1  0.96141514  0.14873913  0.58656286  1
  O  O43  1  0.19209147  0.03714237  0.58865402  1
  O  O44  1  0.84024472  0.81128271  0.58801496  1
  O  O45  1  0.96141514  0.81267601  0.08656286  1
  O  O46  1  0.84024472  0.02896200  0.08801496  1
  O  O47  1  0.19209147  0.15494910  0.08865402  1
  O  O48  1  0.66504525  0.13998103  0.74271042  1
  O  O49  1  0.46387666  0.31841320  0.74499614  1
  O  O50  1  0.87199527  0.52435921  0.74710427  1
  O  O51  1  0.66504525  0.52506322  0.24271042  1
  O  O52  1  0.87199527  0.34763506  0.24710427  1
  O  O53  1  0.46387666  0.14546246  0.24499614  1
  O  O54  1  0.62779364  0.48241013  0.92129466  1
  O  O55  1  0.86047667  0.37285479  0.92034392  1
  O  O56  1  0.50711230  0.14764101  0.92099033  1
  O  O57  1  0.62779364  0.14538250  0.42129466  1
  O  O58  1  0.50711230  0.35947029  0.42099033  1
  O  O59  1  0.86047667  0.48762088  0.42034392  1
  O  O60  1  0.34711161  0.47680820  0.07841789  1
  O  O61  1  0.14304108  0.68026847  0.07956011  1
  O  O62  1  0.52627347  0.85831696  0.07699034  1
  O  O63  1  0.34711160  0.87030440  0.57841789  1
  O  O64  1  0.52627347  0.66795751  0.57699034  1
  O  O65  1  0.14304108  0.46277361  0.57956011  1
  O  O66  1  0.29702170  0.82287723  0.25483056  1
  O  O67  1  0.52149380  0.69453133  0.25462646  1
  O  O68  1  0.18655069  0.47879417  0.25356630  1
  O  O69  1  0.29702170  0.47414546  0.75483056  1
  O  O70  1  0.18655069  0.70775752  0.75356630  1
  O  O71  1  0.52149380  0.82696347  0.75462646  1
loop_
_geom_bond_atom_site_label_1
_geom_bond_atom_site_label_2
_geom_bond_distance
_geom_bond_site_symmetry_2
Na0 O36 2.517950 1_655
Na0 O44 2.535551 1_555
Na0 O37 2.613636 1_565
Na0 O43 2.723652 1_665
Na0 O42 2.727987 1_565
Na0 O38 2.765984 1_665
Na1 O39 2.517950 1_655
Na1 O46 2.535551 1_556
Na1 O41 2.613636 1_545
Na1 O47 2.723652 1_656
Na1 O45 2.727987 1_546
Na1 O40 2.765984 1_645
Na2 O50 2.586292 1_555
Na2 O49 2.610985 1_555
Na2 O54 2.621555 1_555
Na2 O55 2.660937 1_555
Na2 O48 2.663321 1_555
Na2 O56 2.665738 1_555
Na3 O52 2.586292 1_555
Na3 O53 2.610985 1_555
Na3 O57 2.621555 1_555
Na3 O59 2.660937 1_555
Na3 O51 2.663321 1_555
Na3 O58 2.665738 1_555
Na4 O61 2.595347 1_555
Na4 O68 2.597554 1_555
Na4 O60 2.619318 1_555
Na4 O62 2.643429 1_555
Na4 O66 2.681052 1_555
Na4 O67 2.681204 1_555
Na5 O65 2.595347 1_555
Na5 O70 2.597554 1_555
Na5 O63 2.619318 1_555
Na5 O64 2.643429 1_555
Na5 O69 2.681052 1_555
Na5 O71 2.681204 1_555
Na6 O51 2.365973 1_555
Na6 O68 2.469085 1_555
Na6 O53 2.490272 1_555
Na6 O17 2.548179 1_555
Na6 O67 2.719762 1_555
Na6 O10 2.916326 1_555
Na6 O32 2.951323 1_555
Na7 O52 2.342819 1_555
Na7 O66 2.498665 1_655
Na7 O15 2.535194 1_555
Na7 O51 2.605240 1_555
Na7 O11 2.846997 1_655
Na7 O1 2.863237 1_555
Na7 O30 2.874966 1_655
Na7 O68 2.884307 1_655
Na8 O50 2.342810 1_555
Na8 O69 2.498664 1_655
Na8 O12 2.535193 1_555
Na8 O48 2.605242 1_555
Na8 O7 2.846997 1_655
Na8 O5 2.863237 1_555
Na8 O33 2.874968 1_655
Na8 O70 2.884314 1_655
Na9 O48 2.365974 1_555
Na9 O70 2.469078 1_545
Na9 O49 2.490263 1_555
Na9 O13 2.548177 1_555
Na9 O71 2.719754 1_545
Na9 O8 2.916326 1_545
Na9 O34 2.951319 1_545
Na10 O65 2.333801 1_555
Na10 O43 2.489773 1_555
Na10 O28 2.580462 1_555
Na10 O64 2.613433 1_555
Na10 O42 2.842718 1_455
Na10 O21 2.842964 1_555
Na10 O14 2.904736 1_555
Na10 O7 2.993852 1_555
Na11 O64 2.388040 1_555
Na11 O27 2.439552 1_555
Na11 O42 2.472287 1_565
Na11 O63 2.509485 1_555
Na11 O44 2.731764 1_555
Na11 O6 2.829975 1_555
Na11 O23 2.930707 1_565
Na12 O61 2.333786 1_555
Na12 O47 2.489782 1_565
Na12 O26 2.580456 1_554
Na12 O62 2.613419 1_555
Na12 O45 2.842718 1_455
Na12 O18 2.842964 1_565
Na12 O16 2.904736 1_565
Na12 O11 2.993854 1_555
Na13 O62 2.388057 1_555
Na13 O24 2.439554 1_554
Na13 O45 2.472286 1_555
Na13 O60 2.509481 1_555
Na13 O46 2.731771 1_565
Na13 O9 2.829977 1_555
Na13 O19 2.930707 1_555
Na14 O41 2.342854 1_555
Na14 O4 2.429706 1_555
Na14 O55 2.490465 1_555
Na14 O40 2.571860 1_655
Na14 O54 2.860846 1_555
Na15 O40 2.396401 1_545
Na15 O54 2.485701 1_555
Na15 O39 2.529331 1_555
Na15 O3 2.564918 1_555
Na15 O56 2.706040 1_555
Na15 O35 2.906724 1_555
Na15 O25 2.993338 1_555
Na15 O18 2.998876 1_556
Na16 O37 2.342861 1_555
Na16 O2 2.429709 1_555
Na16 O59 2.490448 1_555
Na16 O38 2.571867 1_655
Na16 O57 2.860844 1_555
Na17 O38 2.396393 1_555
Na17 O57 2.485703 1_555
Na17 O36 2.529332 1_545
Na17 O0 2.564917 1_555
Na17 O58 2.706024 1_555
Na17 O31 2.906724 1_545
Na17 O29 2.993338 1_545
Na17 O21 2.998872 1_555
Ca0 O1 2.142375 1_555
Ca0 O2 2.224043 1_565
Ca0 O0 2.224727 1_665
Ca0 O37 2.260370 1_565
Ca0 O36 2.264552 1_655
Ca0 O38 2.329035 1_665
Ca1 O5 2.142376 1_565
Ca1 O4 2.224043 1_555
Ca1 O3 2.224727 1_665
Ca1 O41 2.260370 1_555
Ca1 O39 2.264552 1_665
Ca1 O40 2.329035 1_655
Ca2 O14 2.139756 1_555
Ca2 O12 2.220076 1_555
Ca2 O13 2.225893 1_555
Ca2 O50 2.265133 1_555
Ca2 O49 2.278881 1_555
Ca2 O48 2.307945 1_555
Ca3 O16 2.139756 1_555
Ca3 O15 2.220076 1_555
Ca3 O17 2.225893 1_555
Ca3 O52 2.265133 1_555
Ca3 O53 2.278881 1_555
Ca3 O51 2.307945 1_555
Ca4 O25 2.135475 1_554
Ca4 O26 2.219352 1_554
Ca4 O24 2.232089 1_554
Ca4 O62 2.265363 1_555
Ca4 O60 2.276545 1_555
Ca4 O61 2.293829 1_555
Ca5 O29 2.135476 1_555
Ca5 O28 2.219352 1_555
Ca5 O27 2.232089 1_555
Ca5 O64 2.265363 1_555
Ca5 O63 2.276545 1_555
Ca5 O65 2.293829 1_555
Hf0 O8 2.066682 1_655
Hf0 O6 2.087443 1_555
Hf0 O44 2.096745 1_555
Hf0 O7 2.113288 1_665
Hf0 O43 2.143458 1_665
Hf0 O42 2.169939 1_565
Hf1 O10 2.066683 1_655
Hf1 O9 2.087443 1_545
Hf1 O46 2.096746 1_555
Hf1 O11 2.113288 1_645
Hf1 O47 2.143458 1_655
Hf1 O45 2.169939 1_545
Hf2 O20 2.034330 1_556
Hf2 O18 2.112602 1_556
Hf2 O19 2.116803 1_556
Hf2 O56 2.117857 1_555
Hf2 O55 2.123240 1_555
Hf2 O54 2.170945 1_555
Hf3 O22 2.034330 1_555
Hf3 O21 2.112602 1_555
Hf3 O23 2.116804 1_555
Hf3 O58 2.117857 1_555
Hf3 O59 2.123240 1_555
Hf3 O57 2.170945 1_555
Hf4 O31 2.060463 1_555
Hf4 O32 2.093864 1_555
Hf4 O67 2.094112 1_555
Hf4 O30 2.108596 1_555
Hf4 O66 2.151046 1_555
Hf4 O68 2.169649 1_555
Hf5 O35 2.060463 1_555
Hf5 O34 2.093864 1_555
Hf5 O71 2.094112 1_555
Hf5 O33 2.108596 1_555
Hf5 O69 2.151046 1_555
Hf5 O70 2.169649 1_555
O0 P0 1.518011 1_545
O1 P1 1.499032 1_555
O2 P2 1.508134 1_655
O3 P3 1.518011 1_555
O4 P4 1.508134 1_655
O5 P5 1.499032 1_545
O6 P5 1.588822 1_555
O7 P3 1.603055 1_555
O8 P4 1.593384 1_555
O9 P1 1.588822 1_555
O10 P2 1.593384 1_555
O11 P0 1.603055 1_555
O12 P6 1.510559 1_555
O13 P7 1.516258 1_555
O14 P8 1.497192 1_555
O15 P9 1.510559 1_555
O16 P10 1.497192 1_555
O17 P11 1.516258 1_555
O18 P11 1.601936 1_555
O19 P9 1.597246 1_555
O20 P10 1.586752 1_555
O21 P7 1.601936 1_555
O22 P8 1.586752 1_555
O23 P6 1.597246 1_555
O24 P12 1.507336 1_555
O25 P13 1.500433 1_555
O26 P14 1.512355 1_555
O27 P15 1.507335 1_555
O28 P16 1.512355 1_555
O29 P17 1.500433 1_555
O30 P17 1.600718 1_555
O31 P15 1.596371 1_555
O32 P16 1.590063 1_555
O33 P13 1.600718 1_555
O34 P14 1.590063 1_555
O35 P12 1.596371 1_555
O36 P17 1.522937 1_555
O37 P15 1.526259 1_545
O38 P16 1.541176 1_555
O39 P13 1.522947 1_555
O40 P14 1.541170 1_555
O41 P12 1.526256 1_555
O42 P6 1.594910 1_555
O43 P7 1.585225 1_555
O44 P8 1.576745 1_555
O45 P9 1.594919 1_555
O46 P10 1.576740 1_555
O47 P11 1.585221 1_555
O48 P5 1.540165 1_545
O49 P3 1.523145 1_555
O50 P4 1.528512 1_655
O51 P1 1.540174 1_555
O52 P2 1.528506 1_655
O53 P0 1.523141 1_545
O54 P12 1.592976 1_555
O55 P13 1.587546 1_655
O56 P14 1.577564 1_545
O57 P15 1.592957 1_545
O58 P16 1.577574 1_555
O59 P17 1.587555 1_655
O60 P11 1.521748 1_555
O61 P9 1.530437 1_455
O62 P10 1.537233 1_565
O63 P7 1.521730 1_565
O64 P8 1.537245 1_555
O65 P6 1.530443 1_455
O66 P0 1.584143 1_555
O67 P1 1.579080 1_555
O68 P2 1.592803 1_555
O69 P3 1.584152 1_555
O70 P4 1.592799 1_555
O71 P5 1.579076 1_555
