# generated using pymatgen
data_Sm2MgTi2(ClO3)2
_symmetry_space_group_name_H-M   'P 1'
_cell_length_a   4.16917022
_cell_length_b   5.30243704
_cell_length_c   10.22330160
_cell_angle_alpha   76.51687490
_cell_angle_beta   78.21699983
_cell_angle_gamma   66.81775407
_symmetry_Int_Tables_number   1
_chemical_formula_structural   Sm2MgTi2(ClO3)2
_chemical_formula_sum   'Sm2 Mg1 Ti2 Cl2 O6'
_cell_volume   200.42588053
_cell_formula_units_Z   1
loop_
 _symmetry_equiv_pos_site_id
 _symmetry_equiv_pos_as_xyz
  1  'x, y, z'
loop_
 _atom_site_type_symbol
 _atom_site_label
 _atom_site_symmetry_multiplicity
 _atom_site_fract_x
 _atom_site_fract_y
 _atom_site_fract_z
 _atom_site_occupancy
  Sm  Sm0  1  0.19500800  0.80558200  0.80458500  1
  Sm  Sm1  1  0.78055100  0.22509600  0.21371700  1
  Mg  Mg0  1  0.92107400  0.54271200  0.61558300  1
  Ti  Ti0  1  0.64379900  0.16779800  0.54559300  1
  Ti  Ti1  1  0.35455900  0.84918700  0.44144000  1
  Cl  Cl0  1  0.88611700  0.32438800  0.90355000  1
  Cl  Cl1  1  0.11357400  0.67731900  0.09549700  1
  O  O0  1  0.13674400  0.14941100  0.57760700  1
  O  O1  1  0.69798800  0.88237300  0.72191200  1
  O  O2  1  0.85701700  0.84675500  0.43881600  1
  O  O3  1  0.41068200  0.54317800  0.63594400  1
  O  O4  1  0.33923500  0.05966400  0.26190800  1
  O  O5  1  0.58032000  0.45153700  0.38759800  1
loop_
_geom_bond_atom_site_label_1
_geom_bond_atom_site_label_2
_geom_bond_distance
_geom_bond_site_symmetry_2
Mg0 O0 2.016677 1_655
Mg0 O3 2.094407 1_555
Mg0 O3 2.094712 1_655
Mg0 O2 2.106116 1_555
Mg0 O1 2.114617 1_555
Cl0 Sm0 2.868150 1_645
Cl0 Mg0 2.897710 1_555
Cl0 Sm1 3.059356 1_556
Cl0 Sm0 3.167749 1_555
Cl0 Sm0 3.169125 1_655
Cl1 Sm0 2.872135 1_554
Cl1 Sm1 3.098623 1_465
Cl1 Sm1 3.116811 1_555
Cl1 Sm1 3.118130 1_455
O0 Ti0 2.107707 1_455
O0 Ti0 2.109604 1_555
O0 Ti1 2.162330 1_545
O0 Sm0 2.583824 1_545
O1 Ti0 2.053232 1_565
O1 Sm0 2.250445 1_655
O1 Sm0 2.250668 1_555
O2 Ti0 2.039245 1_565
O2 Ti1 2.084503 1_555
O2 Ti1 2.085116 1_655
O2 Sm1 2.658054 1_565
O3 Ti0 2.174220 1_555
O3 Ti1 2.242348 1_555
O3 Sm0 2.284151 1_555
O4 Ti1 1.911782 1_545
O4 Sm1 2.257454 1_455
O4 Sm1 2.257534 1_555
O5 Ti0 1.915840 1_555
O5 Ti1 2.098059 1_555
O5 Sm1 2.213283 1_555
