# generated using pymatgen
data_Na2Y2Al2SiS5O24
_symmetry_space_group_name_H-M   'P 1'
_cell_length_a   8.77391544
_cell_length_b   8.74064159
_cell_length_c   23.25874769
_cell_angle_alpha   89.56888443
_cell_angle_beta   90.49052538
_cell_angle_gamma   119.71889235
_symmetry_Int_Tables_number   1
_chemical_formula_structural   Na2Y2Al2SiS5O24
_chemical_formula_sum   'Na6 Y6 Al6 Si3 S15 O72'
_cell_volume   1549.02326199
_cell_formula_units_Z   3
loop_
 _symmetry_equiv_pos_site_id
 _symmetry_equiv_pos_as_xyz
  1  'x, y, z'
loop_
 _atom_site_type_symbol
 _atom_site_label
 _atom_site_symmetry_multiplicity
 _atom_site_fract_x
 _atom_site_fract_y
 _atom_site_fract_z
 _atom_site_occupancy
  Na  Na0  1  0.98881535  0.98556571  0.50189584  1
  Na  Na1  1  0.99931972  -0.00003791  0.00071788  1
  Na  Na2  1  0.67136583  0.32305527  0.83693501  1
  Na  Na3  1  0.63513471  0.30821910  0.32193790  1
  Na  Na4  1  0.32895509  0.68001604  0.17180752  1
  Na  Na5  1  0.38772343  0.69301933  0.67085516  1
  Y  Y0  1  0.01302948  0.00159150  0.34005636  1
  Y  Y1  1  0.97627925  0.98480845  0.64763951  1
  Y  Y2  1  0.66784374  0.32980200  0.69092271  1
  Y  Y3  1  0.66279359  0.34209783  0.47594030  1
  Y  Y4  1  0.34968698  0.66938775  0.52138316  1
  Y  Y5  1  0.34807423  0.67530667  0.82268284  1
  Al  Al0  1  0.99718820  0.00022357  0.84234508  1
  Al  Al1  1  0.00512261  0.99018602  0.15822820  1
  Al  Al2  1  0.65874059  0.32416739  0.17986082  1
  Al  Al3  1  0.66801493  0.33209176  0.98929363  1
  Al  Al4  1  0.33384809  0.66466186  0.01828436  1
  Al  Al5  1  0.33129739  0.68761125  0.31252045  1
  Si  Si0  1  0.31093060  0.00305221  0.24369285  1
  Si  Si1  1  0.70744744  0.00582935  0.75921304  1
  Si  Si2  1  0.67050054  0.63361255  0.58400111  1
  S  S0  1  0.70317445  0.69422960  0.23997850  1
  S  S1  1  0.99445082  0.29492820  0.23942819  1
  S  S2  1  0.28582252  0.28280859  0.75845891  1
  S  S3  1  0.99715364  0.70998722  0.76088332  1
  S  S4  1  0.96531796  0.33605500  0.58132877  1
  S  S5  1  0.36602129  0.03808518  0.58208141  1
  S  S6  1  0.95322179  0.61751245  0.08289771  1
  S  S7  1  0.66402803  0.04222000  0.08209378  1
  S  S8  1  0.38223961  0.33969820  0.08191966  1
  S  S9  1  0.62990380  0.65512453  0.92908329  1
  S  S10  1  0.03066542  0.37307818  0.92797912  1
  S  S11  1  0.34059558  0.97090981  0.92789871  1
  S  S12  1  0.62216689  0.95719417  0.40607153  1
  S  S13  1  0.33335483  0.39020916  0.40340450  1
  S  S14  1  0.04373274  0.65996794  0.40839053  1
  O  O0  1  0.24680433  0.05498584  0.30228091  1
  O  O1  1  0.80717337  0.75967828  0.29347060  1
  O  O2  1  0.94555932  0.18869289  0.29293516  1
  O  O3  1  0.19275035  0.17601046  0.81175468  1
  O  O4  1  0.00400333  0.81418543  0.81362711  1
  O  O5  1  0.81580856  -0.00102176  0.81737732  1
  O  O6  1  0.79260593  0.99393632  0.69955254  1
  O  O7  1  0.19775796  0.19610461  0.70559663  1
  O  O8  1  0.02457119  0.81106516  0.70833451  1
  O  O9  1  0.79312730  0.82464863  0.19174417  1
  O  O10  1  0.01994430  0.19447604  0.19150941  1
  O  O11  1  0.16646959  0.96248536  0.19161817  1
  O  O12  1  0.87037512  0.32813036  0.63390472  1
  O  O13  1  0.46861526  0.12247134  0.63432145  1
  O  O14  1  0.67677783  0.53762686  0.64294138  1
  O  O15  1  0.87018511  0.50178146  0.13338192  1
  O  O16  1  0.63194742  0.12489917  0.13248168  1
  O  O17  1  0.49711848  0.37455835  0.13310454  1
  O  O18  1  0.46625423  0.30781989  0.03142949  1
  O  O19  1  0.84190814  0.53358524  0.03110686  1
  O  O20  1  0.69384959  0.15636736  0.03048276  1
  O  O21  1  0.46147920  0.12407658  0.52836272  1
  O  O22  1  0.65762946  0.52944425  0.52421809  1
  O  O23  1  0.86261288  0.31950482  0.52824965  1
  O  O24  1  0.52876610  0.68342301  0.97583675  1
  O  O25  1  0.15443551  0.47292343  0.97689739  1
  O  O26  1  0.31279420  0.84442746  0.97637680  1
  O  O27  1  0.54086392  0.87038891  0.46039595  1
  O  O28  1  0.33109686  0.47289285  0.45748977  1
  O  O29  1  0.13387970  0.66707115  0.46204141  1
  O  O30  1  0.14640550  0.66396685  0.35682049  1
  O  O31  1  0.51756064  0.85090959  0.35571352  1
  O  O32  1  0.33476799  0.49548834  0.35209229  1
  O  O33  1  0.09336158  0.47568517  0.87452725  1
  O  O34  1  0.38008871  0.90749415  0.87458882  1
  O  O35  1  0.52986633  0.61661075  0.87475735  1
  O  O36  1  0.01724592  0.81494249  0.40684204  1
  O  O37  1  0.79850089  0.97628106  0.40404712  1
  O  O38  1  0.17244329  0.21547771  0.40324764  1
  O  O39  1  0.01914927  0.19933540  0.92349335  1
  O  O40  1  0.18154672  0.98721379  0.92090841  1
  O  O41  1  0.80500796  0.81135897  0.92462231  1
  O  O42  1  0.00505184  0.19126842  0.58021200  1
  O  O43  1  0.20209782  0.04337167  0.58156271  1
  O  O44  1  0.84376229  0.82465022  0.57604033  1
  O  O45  1  0.96878889  0.79466012  0.09042414  1
  O  O46  1  0.82115280  0.02192005  0.09045474  1
  O  O47  1  0.20493551  0.18435854  0.08990516  1
  O  O48  1  0.69663278  0.18437717  0.76329985  1
  O  O49  1  0.46357207  0.30674586  0.76167794  1
  O  O50  1  0.82664448  0.54764383  0.76213835  1
  O  O51  1  0.69336873  0.52367210  0.22648031  1
  O  O52  1  0.84721485  0.32630968  0.22504320  1
  O  O53  1  0.50256811  0.17197068  0.22828836  1
  O  O54  1  0.64554567  0.49502147  0.94092440  1
  O  O55  1  0.85252693  0.35118571  0.93949416  1
  O  O56  1  0.49682160  0.14715912  0.93994384  1
  O  O57  1  0.63165555  0.13042168  0.40267296  1
  O  O58  1  0.49109916  0.37019258  0.40080875  1
  O  O59  1  0.87180342  0.49617428  0.40450013  1
  O  O60  1  0.36464643  0.50161709  0.07196793  1
  O  O61  1  0.13277252  0.63841367  0.07467827  1
  O  O62  1  0.50342859  0.86401567  0.07304786  1
  O  O63  1  0.32944491  0.85446820  0.58292002  1
  O  O64  1  0.49663448  0.65495052  0.58834373  1
  O  O65  1  0.12979482  0.50547132  0.58123702  1
  O  O66  1  0.32452400  0.82236611  0.25593938  1
  O  O67  1  0.52698402  0.67171812  0.24715663  1
  O  O68  1  0.15728852  0.46439576  0.24737508  1
  O  O69  1  0.29066357  0.45302691  0.76224441  1
  O  O70  1  0.14036930  0.67018893  0.76582269  1
  O  O71  1  0.51113586  0.83058455  0.75879889  1
loop_
_geom_bond_atom_site_label_1
_geom_bond_atom_site_label_2
_geom_bond_distance
_geom_bond_site_symmetry_2
Na0 O44 2.190475 1_555
Na0 O43 2.491550 1_665
Na0 O42 2.522277 1_665
Na0 O36 2.757183 1_655
Na0 O37 2.788839 1_555
Na0 O38 2.946582 1_665
Na1 O39 2.439442 1_654
Na1 O41 2.441791 1_544
Na1 O40 2.499004 1_644
Na1 O45 2.668670 1_545
Na1 O46 2.682560 1_555
Na1 O47 2.694199 1_655
Na2 O48 2.180780 1_555
Na2 O50 2.464480 1_555
Na2 O49 2.469722 1_555
Na2 O55 2.798834 1_555
Na2 O56 2.849928 1_555
Na2 O54 2.926133 1_555
Na3 O57 2.419131 1_555
Na3 O58 2.447253 1_555
Na3 O53 2.477461 1_555
Na3 O59 2.700966 1_555
Na3 O51 2.781974 1_555
Na3 O52 2.888101 1_555
Na3 O0 3.037818 1_555
Na4 O66 2.337648 1_555
Na4 O68 2.467936 1_555
Na4 O67 2.483218 1_555
Na4 O61 2.742957 1_555
Na4 O62 2.787448 1_555
Na4 O60 2.910840 1_555
Na5 O64 2.250135 1_555
Na5 O71 2.347416 1_555
Na5 O63 2.662712 1_555
Na5 O69 2.799357 1_555
Na5 O65 2.906170 1_555
Na5 O70 3.045461 1_555
Al0 O5 1.684350 1_555
Al0 O3 1.789318 1_655
Al0 O4 1.790904 1_645
Al0 O40 2.469209 1_645
Al0 O39 2.517741 1_655
Al0 O41 2.545250 1_545
Al1 O11 1.727420 1_555
Al1 O9 1.870933 1_455
Al1 O10 1.895630 1_565
Al1 O45 2.236336 1_455
Al1 O47 2.352924 1_565
Al1 O46 2.358165 1_465
Al2 O53 1.764231 1_555
Al2 O52 1.943999 1_555
Al2 O51 1.950997 1_555
Al2 O16 1.980338 1_555
Al2 O17 1.993284 1_555
Al2 O15 2.043040 1_555
Al3 O54 1.892896 1_555
Al3 O20 1.909872 1_556
Al3 O19 1.926540 1_556
Al3 O55 1.936899 1_555
Al3 O56 1.943595 1_555
Al3 O18 1.947664 1_556
Al4 O25 1.896286 1_554
Al4 O24 1.916974 1_554
Al4 O26 1.927363 1_554
Al4 O60 2.003066 1_555
Al4 O62 2.074327 1_555
Al4 O61 2.125869 1_555
Al5 O66 1.779734 1_555
Al5 O31 1.843372 1_555
Al5 O30 1.851752 1_555
Al5 O32 1.922234 1_555
Al5 O68 2.341972 1_555
Al5 O67 2.358554 1_555
O0 Si0 1.629476 1_555
O0 Y0 2.066987 1_555
O1 S0 1.476998 1_555
O1 Y0 2.263106 1_665
O2 S1 1.480491 1_555
O2 Y0 2.268896 1_655
O3 S2 1.522809 1_555
O4 S3 1.516345 1_455
O5 Si1 1.664592 1_555
O6 Si1 1.609820 1_565
O6 Y1 2.055127 1_555
O7 S2 1.449214 1_555
O7 Y1 2.332051 1_445
O8 S3 1.452687 1_455
O8 Y1 2.252578 1_455
O9 S0 1.511572 1_555
O10 S1 1.508920 1_455
O11 Si0 1.653425 1_565
O12 S4 1.467325 1_555
O12 Y2 2.232268 1_555
O13 S5 1.472105 1_555
O13 Y2 2.220009 1_555
O14 Si2 1.616611 1_555
O14 Y2 2.093116 1_555
O15 S6 1.482856 1_555
O16 S7 1.481567 1_555
O17 S8 1.485419 1_555
O18 S8 1.491131 1_555
O19 S6 1.491921 1_555
O20 S7 1.494459 1_555
O21 S5 1.485635 1_555
O21 Y3 2.214177 1_555
O22 Si2 1.640001 1_555
O22 Y3 2.011596 1_555
O23 S4 1.487101 1_555
O23 Y3 2.212706 1_555
O24 S9 1.506420 1_555
O25 S10 1.513136 1_555
O26 S11 1.507194 1_555
O27 S12 1.464715 1_555
O27 Y4 2.234654 1_555
O28 S13 1.460636 1_555
O28 Y4 2.222908 1_555
O29 S14 1.456762 1_555
O29 Y4 2.325577 1_555
O30 S14 1.496022 1_555
O31 S12 1.493267 1_555
O32 S13 1.497896 1_555
O33 S10 1.469124 1_555
O33 Y5 2.375117 1_555
O34 S11 1.474058 1_555
O34 Y5 2.262960 1_555
O35 S9 1.474699 1_555
O35 Y5 2.245712 1_555
O36 S14 1.483718 1_555
O36 Y0 2.257556 1_565
O37 S12 1.472720 1_555
O37 Y0 2.331769 1_665
O38 S13 1.479160 1_555
O38 Y0 2.241669 1_555
O39 S10 1.475594 1_555
O40 S11 1.478868 1_555
O41 S9 1.468468 1_555
O42 S4 1.470326 1_455
O42 Y1 2.300497 1_445
O43 S5 1.461654 1_555
O43 Y1 2.363114 1_445
O44 Si2 1.617660 1_555
O44 Y1 2.114929 1_555
O45 S6 1.496923 1_555
O46 S7 1.485684 1_555
O47 S8 1.484923 1_555
O48 Si1 1.613317 1_555
O48 Y2 2.189113 1_555
O49 S2 1.468441 1_555
O49 Y2 2.376651 1_555
O50 S3 1.465547 1_555
O50 Y2 2.384950 1_555
O51 S0 1.485871 1_555
O52 S1 1.482756 1_555
O53 Si0 1.635967 1_555
O54 S9 1.495657 1_555
O55 S10 1.503692 1_655
O56 S11 1.495608 1_545
O57 S12 1.476166 1_545
O57 Y3 2.437233 1_555
O58 S13 1.480367 1_555
O58 Y3 2.387159 1_555
O59 S14 1.480450 1_655
O59 Y3 2.346787 1_555
O60 S8 1.513760 1_555
O61 S6 1.506973 1_455
O62 S7 1.509862 1_565
O63 S5 1.472460 1_565
O63 Y4 2.240795 1_555
O64 Si2 1.630064 1_555
O64 Y4 2.056152 1_555
O65 S4 1.468529 1_455
O65 Y4 2.233450 1_555
O66 Si0 1.664029 1_565
O67 S0 1.469242 1_555
O68 S1 1.473376 1_455
O69 S2 1.470512 1_555
O69 Y5 2.250149 1_555
O70 S3 1.464060 1_455
O70 Y5 2.225058 1_555
O71 Si1 1.642303 1_565
O71 Y5 2.043899 1_555
