# generated using pymatgen
data_KMgNiIO6
_symmetry_space_group_name_H-M   'P 1'
_cell_length_a   5.30070295
_cell_length_b   5.30068353
_cell_length_c   5.20091251
_cell_angle_alpha   90.08710763
_cell_angle_beta   90.08656390
_cell_angle_gamma   119.80956545
_symmetry_Int_Tables_number   1
_chemical_formula_structural   KMgNiIO6
_chemical_formula_sum   'K1 Mg1 Ni1 I1 O6'
_cell_volume   126.79546843
_cell_formula_units_Z   1
loop_
 _symmetry_equiv_pos_site_id
 _symmetry_equiv_pos_as_xyz
  1  'x, y, z'
loop_
 _atom_site_type_symbol
 _atom_site_label
 _atom_site_symmetry_multiplicity
 _atom_site_fract_x
 _atom_site_fract_y
 _atom_site_fract_z
 _atom_site_occupancy
  K  K0  1  0.00116700  0.99881900  0.00002500  1
  Mg  Mg0  1  0.33670700  0.66329500  0.99999300  1
  Ni  Ni0  1  0.33269100  0.66730900  0.50000000  1
  I  I0  1  0.66698700  0.33301500  0.49999800  1
  O  O0  1  0.40321200  0.01567900  0.71813400  1
  O  O1  1  0.98670200  0.38818500  0.71895800  1
  O  O2  1  0.61156600  0.59767900  0.71902300  1
  O  O3  1  0.98432600  0.59676700  0.28186400  1
  O  O4  1  0.61179200  0.01329500  0.28103700  1
  O  O5  1  0.40235000  0.38845700  0.28097100  1
loop_
_geom_bond_atom_site_label_1
_geom_bond_atom_site_label_2
_geom_bond_distance
_geom_bond_site_symmetry_2
K0 O3 2.553261 1_455
K0 O0 2.553344 1_564
K0 O2 2.556862 1_454
K0 O5 2.556872 1_565
K0 O4 2.562830 1_465
K0 O1 2.562934 1_464
Mg0 O2 2.210830 1_555
Mg0 O5 2.210853 1_556
Mg0 O4 2.236139 1_566
Mg0 O1 2.236158 1_455
Mg0 O3 2.262156 1_456
Mg0 O0 2.262162 1_565
Ni0 O3 2.035353 1_455
Ni0 O0 2.035385 1_565
Ni0 O5 2.039016 1_555
Ni0 O2 2.039028 1_555
Ni0 O4 2.040312 1_565
Ni0 O1 2.040340 1_455
I0 O3 1.934844 1_555
I0 O0 1.934878 1_555
I0 O4 1.937713 1_555
I0 O1 1.937740 1_555
I0 O5 1.938506 1_555
I0 O2 1.938544 1_555
