# generated using pymatgen
data_LaMgNb2CuClO7
_symmetry_space_group_name_H-M   'P 1'
_cell_length_a   4.07292203
_cell_length_b   4.07286002
_cell_length_c   11.76625700
_cell_angle_alpha   89.99965152
_cell_angle_beta   89.99932583
_cell_angle_gamma   89.98731103
_symmetry_Int_Tables_number   1
_chemical_formula_structural   LaMgNb2CuClO7
_chemical_formula_sum   'La1 Mg1 Nb2 Cu1 Cl1 O7'
_cell_volume   195.18385877
_cell_formula_units_Z   1
loop_
 _symmetry_equiv_pos_site_id
 _symmetry_equiv_pos_as_xyz
  1  'x, y, z'
loop_
 _atom_site_type_symbol
 _atom_site_label
 _atom_site_symmetry_multiplicity
 _atom_site_fract_x
 _atom_site_fract_y
 _atom_site_fract_z
 _atom_site_occupancy
  La  La0  1  0.99998000  0.99997600  0.02905800  1
  Mg  Mg0  1  0.99999600  0.99997700  0.71086700  1
  Nb  Nb0  1  0.49999700  0.49999800  0.81951700  1
  Nb  Nb1  1  0.49999800  0.49999400  0.19278900  1
  Cu  Cu0  1  0.50000700  0.50000800  0.50111100  1
  Cl  Cl0  1  0.00000600  0.00000500  0.51674400  1
  O  O0  1  0.99999800  0.50000400  0.15083300  1
  O  O1  1  0.50000600  0.50000900  0.65996600  1
  O  O2  1  0.00001300  0.50002200  0.82266700  1
  O  O3  1  0.49999400  0.49999500  0.34443200  1
  O  O4  1  0.49999700  0.99999800  0.15083000  1
  O  O5  1  0.50001100  0.00000700  0.82267200  1
  O  O6  1  0.49999600  0.50000900  0.99518100  1
loop_
_geom_bond_atom_site_label_1
_geom_bond_atom_site_label_2
_geom_bond_distance
_geom_bond_site_symmetry_2
La0 O0 2.489893 1_555
La0 O4 2.489928 1_555
La0 O4 2.490069 1_655
La0 O0 2.490094 1_565
La0 O6 2.907057 1_654
La0 O6 2.907157 1_564
La0 O6 2.907604 1_554
La0 O6 2.907873 1_664
La0 O2 3.169182 1_654
La0 O5 3.169204 1_564
La0 O5 3.169330 1_664
La0 O2 3.169403 1_664
Mg0 O2 2.424195 1_655
Mg0 O5 2.424350 1_565
Mg0 O5 2.424478 1_665
Mg0 O2 2.424517 1_665
Nb0 O1 1.877318 1_555
Nb0 O5 2.036731 1_555
Nb0 O2 2.036733 1_555
Nb0 O5 2.036805 1_565
Nb0 O2 2.036864 1_655
Nb0 O6 2.066908 1_555
Nb1 O3 1.784271 1_555
Nb1 O4 2.095408 1_545
Nb1 O4 2.095433 1_555
Nb1 O0 2.095437 1_555
Nb1 O0 2.095448 1_455
Nb1 O6 2.325107 1_554
Cu0 O3 1.843525 1_555
Cu0 O1 1.869129 1_555
Cl0 Mg0 2.284101 1_445
Cl0 Cu0 2.885512 1_545
Cl0 Cu0 2.885525 1_455
Cl0 Cu0 2.886146 1_445
Cl0 Cu0 2.886164 1_555
