# generated using pymatgen
data_Na14Hf4Si11Sn4SO48
_symmetry_space_group_name_H-M   'P 1'
_cell_length_a   18.25166333
_cell_length_b   9.11955136
_cell_length_c   22.74013254
_cell_angle_alpha   90.01430567
_cell_angle_beta   90.10172624
_cell_angle_gamma   120.00871242
_symmetry_Int_Tables_number   1
_chemical_formula_structural   Na14Hf4Si11Sn4SO48
_chemical_formula_sum   'Na42 Hf12 Si33 Sn12 S3 O144'
_cell_volume   3277.63322030
_cell_formula_units_Z   3
loop_
 _symmetry_equiv_pos_site_id
 _symmetry_equiv_pos_as_xyz
  1  'x, y, z'
loop_
 _atom_site_type_symbol
 _atom_site_label
 _atom_site_symmetry_multiplicity
 _atom_site_fract_x
 _atom_site_fract_y
 _atom_site_fract_z
 _atom_site_occupancy
  Na  Na0  1  0.32105170  0.00016388  0.25003314  1
  Na  Na1  1  0.82090136  0.99991508  0.25004777  1
  Na  Na2  1  0.32026703  0.64179230  0.75037272  1
  Na  Na3  1  0.81720595  0.63304708  0.74955604  1
  Na  Na4  1  0.50029512  0.36466150  0.75021838  1
  Na  Na5  1  0.68433080  0.00190447  0.74952919  1
  Na  Na6  1  0.15085999  0.33506958  0.58084800  1
  Na  Na7  1  0.65038569  0.33277796  0.58415432  1
  Na  Na8  1  0.01653018  0.69728791  0.58365537  1
  Na  Na9  1  0.51686392  0.70087512  0.58338715  1
  Na  Na10  1  0.33313076  0.96527779  0.58345529  1
  Na  Na11  1  0.83261484  0.96833510  0.58364767  1
  Na  Na12  1  0.15158928  0.96894379  0.08162467  1
  Na  Na13  1  0.65151169  0.96877139  0.08161173  1
  Na  Na14  1  0.33280925  0.69851738  0.08372029  1
  Na  Na15  1  0.83243844  0.69772913  0.08395181  1
  Na  Na16  1  0.01656251  0.33457157  0.08386313  1
  Na  Na17  1  0.51639358  0.33404608  0.08380155  1
  Na  Na18  1  0.48315366  0.66658720  0.91658694  1
  Na  Na19  1  0.98356642  0.66442856  0.91617507  1
  Na  Na20  1  0.35006346  0.03308176  0.91653576  1
  Na  Na21  1  0.84891712  0.03325200  0.91626116  1
  Na  Na22  1  0.16776219  0.30421926  0.91912078  1
  Na  Na23  1  0.66613487  0.29942917  0.91609313  1
  Na  Na24  1  0.48316713  0.30183918  0.41638766  1
  Na  Na25  1  0.98351470  0.30181894  0.41624651  1
  Na  Na26  1  0.16717410  0.03157400  0.41871612  1
  Na  Na27  1  0.66711988  0.03087230  0.41849765  1
  Na  Na28  1  0.34941486  0.66555067  0.41636922  1
  Na  Na29  1  0.84927846  0.66520071  0.41614230  1
  Na  Na30  1  0.99989405  0.99922154  0.49989881  1
  Na  Na31  1  0.49970334  0.99947273  0.50068822  1
  Na  Na32  1  0.00003552  0.00095375  0.00024105  1
  Na  Na33  1  0.49978558  0.00013771  0.99922638  1
  Na  Na34  1  0.33376948  0.32802649  0.83416305  1
  Na  Na35  1  0.83692873  0.33427259  0.83147402  1
  Na  Na36  1  0.33779773  0.34624699  0.33255833  1
  Na  Na37  1  0.83773779  0.34626964  0.33232115  1
  Na  Na38  1  0.16466277  0.65375945  0.16773201  1
  Na  Na39  1  0.66464588  0.65362055  0.16782381  1
  Na  Na40  1  0.16420200  0.67528617  0.66723270  1
  Na  Na41  1  0.66688726  0.66671365  0.66667649  1
  Hf  Hf0  1  0.83767598  0.33601517  0.68717736  1
  Hf  Hf1  1  0.33938620  0.34794451  0.18599949  1
  Hf  Hf2  1  0.83930851  0.34805997  0.18579526  1
  Hf  Hf3  1  0.83285684  0.33307353  0.98226510  1
  Hf  Hf4  1  0.83375963  0.33241038  0.48223150  1
  Hf  Hf5  1  0.16684784  0.66554457  0.01776338  1
  Hf  Hf6  1  0.66660985  0.66637367  0.01809639  1
  Hf  Hf7  1  0.66618994  0.66674284  0.51770182  1
  Hf  Hf8  1  0.16562355  0.65212515  0.31438162  1
  Hf  Hf9  1  0.66493159  0.65216629  0.31436760  1
  Hf  Hf10  1  0.16520407  0.67833414  0.81509974  1
  Hf  Hf11  1  0.66670538  0.66671788  0.81411195  1
  Si  Si0  1  0.35363854  0.70629947  0.25029229  1
  Si  Si1  1  0.85344599  0.70615995  0.25034359  1
  Si  Si2  1  0.00060082  0.29384037  0.24972355  1
  Si  Si3  1  0.50059765  0.29368949  0.24966737  1
  Si  Si4  1  0.64600894  0.29085552  0.74995284  1
  Si  Si5  1  0.00219662  0.70992036  0.74965345  1
  Si  Si6  1  0.49793355  0.70526775  0.74919508  1
  Si  Si7  1  0.35195385  0.99959841  0.74917155  1
  Si  Si8  1  0.85547547  0.00329826  0.75025090  1
  Si  Si9  1  0.48021208  0.33229177  0.58296761  1
  Si  Si10  1  0.98147080  0.33417971  0.58347554  1
  Si  Si11  1  0.18706889  0.04173444  0.58333030  1
  Si  Si12  1  0.68642791  0.04109773  0.58454853  1
  Si  Si13  1  0.33268728  0.62401396  0.58424381  1
  Si  Si14  1  0.83263289  0.62448236  0.58393968  1
  Si  Si15  1  0.48075813  0.62917362  0.08297696  1
  Si  Si16  1  0.98130869  0.63013528  0.08313568  1
  Si  Si17  1  0.33222356  0.04274685  0.08441927  1
  Si  Si18  1  0.83242395  0.04154247  0.08493612  1
  Si  Si19  1  0.18716896  0.33104842  0.08422961  1
  Si  Si20  1  0.68653540  0.33081738  0.08456947  1
  Si  Si21  1  0.31281429  0.66558336  0.91511466  1
  Si  Si22  1  0.81302251  0.66570438  0.91661903  1
  Si  Si23  1  0.02071480  0.37287298  0.91551065  1
  Si  Si24  1  0.51903251  0.37188156  0.91643449  1
  Si  Si25  1  0.16700860  0.96385629  0.91765243  1
  Si  Si26  1  0.66575991  0.96025587  0.91600016  1
  Si  Si27  1  0.31093798  0.95839365  0.41618038  1
  Si  Si28  1  0.81167271  0.95834754  0.41512605  1
  Si  Si29  1  0.16691003  0.37106962  0.41774450  1
  Si  Si30  1  0.66613447  0.36984495  0.41690401  1
  Si  Si31  1  0.02164173  0.66873833  0.41573646  1
  Si  Si32  1  0.52026337  0.66754234  0.41584703  1
  Sn  Sn0  1  0.99510417  0.99696924  0.35253803  1
  Sn  Sn1  1  0.49455145  0.99678054  0.35265004  1
  Sn  Sn2  1  0.99571926  0.99326510  0.85268585  1
  Sn  Sn3  1  0.49866175  0.99921447  0.85087512  1
  Sn  Sn4  1  0.99694754  0.99038551  0.64711975  1
  Sn  Sn5  1  0.49949596  0.99984895  0.64852206  1
  Sn  Sn6  1  0.99656735  0.00322753  0.14764329  1
  Sn  Sn7  1  0.49631307  0.00294167  0.14747447  1
  Sn  Sn8  1  0.33595626  0.32965131  0.68287524  1
  Sn  Sn9  1  0.33331469  0.33488370  0.98267827  1
  Sn  Sn10  1  0.33335517  0.33307157  0.48203051  1
  Sn  Sn11  1  0.16631545  0.66675153  0.51768082  1
  S  S0  1  0.14611993  0.00000214  0.25005064  1
  S  S1  1  0.64601104  0.00005470  0.25002007  1
  S  S2  1  0.14622699  0.29293108  0.74987091  1
  O  O0  1  0.10735748  0.02709956  0.30353106  1
  O  O1  1  0.60727959  0.02702166  0.30352659  1
  O  O2  1  0.41210832  0.78847881  0.30943200  1
  O  O3  1  0.91223696  0.78860902  0.30941586  1
  O  O4  1  0.48173473  0.17287173  0.30837447  1
  O  O5  1  0.98198470  0.17300587  0.30845073  1
  O  O6  1  0.10805862  0.18796264  0.80324983  1
  O  O7  1  0.60549171  0.17101463  0.80848047  1
  O  O8  1  0.47825418  0.78440338  0.80791238  1
  O  O9  1  0.98251285  0.79177070  0.80848737  1
  O  O10  1  0.41277592  0.04258242  0.80788295  1
  O  O11  1  0.91298752  0.03584483  0.80942002  1
  O  O12  1  0.39308874  0.96173128  0.69081566  1
  O  O13  1  0.89571596  0.96267973  0.69174495  1
  O  O14  1  0.09482841  0.21505678  0.69624973  1
  O  O15  1  0.58542504  0.21244746  0.69143755  1
  O  O16  1  0.01903612  0.82678037  0.69059868  1
  O  O17  1  0.51888301  0.82529132  0.69102152  1
  O  O18  1  0.39518150  0.82668802  0.19153549  1
  O  O19  1  0.89528323  0.82681722  0.19158447  1
  O  O20  1  0.01813129  0.21189800  0.19063078  1
  O  O21  1  0.51793849  0.21145143  0.19060206  1
  O  O22  1  0.09374239  0.97277221  0.19649566  1
  O  O23  1  0.59368871  0.97288149  0.19646232  1
  O  O24  1  0.44269711  0.37678055  0.64159042  1
  O  O25  1  0.93650473  0.37033459  0.63827693  1
  O  O26  1  0.24904247  0.12504054  0.64010870  1
  O  O27  1  0.74718634  0.12754476  0.64129853  1
  O  O28  1  0.31182390  0.50260323  0.64287323  1
  O  O29  1  0.81610727  0.50625809  0.64117835  1
  O  O30  1  0.43640541  0.50230889  0.13801689  1
  O  O31  1  0.93675178  0.50355863  0.13835884  1
  O  O32  1  0.31474314  0.12684852  0.14178159  1
  O  O33  1  0.81512316  0.12633074  0.14223797  1
  O  O34  1  0.25040078  0.36589585  0.13885579  1
  O  O35  1  0.74982603  0.36520803  0.13929498  1
  O  O36  1  0.22435649  0.29015217  0.02405717  1
  O  O37  1  0.72758013  0.29572377  0.02560194  1
  O  O38  1  0.42054456  0.55294664  0.02425079  1
  O  O39  1  0.92036596  0.54730318  0.02544026  1
  O  O40  1  0.35311898  0.16126407  0.02514739  1
  O  O41  1  0.85053144  0.16125090  0.02673974  1
  O  O42  1  0.22497458  0.15972167  0.52433194  1
  O  O43  1  0.72902288  0.16014404  0.52613589  1
  O  O44  1  0.35312877  0.54516855  0.52578430  1
  O  O45  1  0.85065001  0.54054685  0.52587906  1
  O  O46  1  0.41912013  0.29127277  0.52509397  1
  O  O47  1  0.92135966  0.29446003  0.52513946  1
  O  O48  1  0.27051319  0.70126264  0.97322527  1
  O  O49  1  0.77051141  0.70177038  0.97403856  1
  O  O50  1  0.07955989  0.45510949  0.97450528  1
  O  O51  1  0.57944732  0.45775962  0.97407767  1
  O  O52  1  0.14715944  0.84134187  0.97496607  1
  O  O53  1  0.64891553  0.83982460  0.97380600  1
  O  O54  1  0.27283091  0.83924840  0.47525212  1
  O  O55  1  0.76976449  0.83839400  0.47320131  1
  O  O56  1  0.14495210  0.44751102  0.47627774  1
  O  O57  1  0.64680545  0.45295210  0.47447871  1
  O  O58  1  0.07945596  0.70970251  0.47594757  1
  O  O59  1  0.57888618  0.70337055  0.47478723  1
  O  O60  1  0.06767449  0.63415446  0.36124247  1
  O  O61  1  0.56628470  0.63315650  0.36111849  1
  O  O62  1  0.25150030  0.87428481  0.35860718  1
  O  O63  1  0.75187166  0.87364297  0.35777914  1
  O  O64  1  0.18572492  0.49746720  0.36245431  1
  O  O65  1  0.68480242  0.49648444  0.36166252  1
  O  O66  1  0.06688466  0.49928765  0.86083689  1
  O  O67  1  0.56243074  0.49315353  0.85921695  1
  O  O68  1  0.18539763  0.87484567  0.86211115  1
  O  O69  1  0.68339447  0.87374077  0.85885670  1
  O  O70  1  0.25213360  0.62918209  0.85790653  1
  O  O71  1  0.75339678  0.63292407  0.85906012  1
  O  O72  1  0.01408682  0.84170994  0.40982798  1
  O  O73  1  0.51340994  0.84119588  0.41005590  1
  O  O74  1  0.40583408  0.97723823  0.41315678  1
  O  O75  1  0.90656419  0.97663091  0.41305900  1
  O  O76  1  0.08260001  0.18233409  0.40919427  1
  O  O77  1  0.58158988  0.18118898  0.40904353  1
  O  O78  1  0.01424013  0.18586898  0.90984005  1
  O  O79  1  0.51114766  0.18445374  0.91171512  1
  O  O80  1  0.08249792  0.98295697  0.90940009  1
  O  O81  1  0.57995949  0.97595158  0.91138198  1
  O  O82  1  0.40689554  0.83723899  0.91116261  1
  O  O83  1  0.90725951  0.83739579  0.91347066  1
  O  O84  1  0.48769071  0.16062060  0.58792202  1
  O  O85  1  0.99178011  0.16491405  0.59095386  1
  O  O86  1  0.09376258  0.02816916  0.58982115  1
  O  O87  1  0.59195933  0.02324026  0.58822798  1
  O  O88  1  0.41812169  0.81170147  0.58905073  1
  O  O89  1  0.91863436  0.81406945  0.58643932  1
  O  O90  1  0.49095476  0.81799419  0.09111759  1
  O  O91  1  0.99104102  0.81875975  0.09095476  1
  O  O92  1  0.41770656  0.02366312  0.08709947  1
  O  O93  1  0.91830696  0.02378052  0.08699472  1
  O  O94  1  0.09314016  0.15835689  0.09004191  1
  O  O95  1  0.59275029  0.15750125  0.09005097  1
  O  O96  1  0.34722346  0.17613206  0.74464248  1
  O  O97  1  0.84062487  0.16363165  0.74517822  1
  O  O98  1  0.23282282  0.31208132  0.74506646  1
  O  O99  1  0.73919098  0.30965857  0.74450336  1
  O  O100  1  0.41015949  0.51706355  0.74451386  1
  O  O101  1  0.91368193  0.52977262  0.74428025  1
  O  O102  1  0.34236210  0.51844893  0.24507398  1
  O  O103  1  0.84241668  0.51843706  0.24506825  1
  O  O104  1  0.41069315  0.29407485  0.24442752  1
  O  O105  1  0.91077995  0.29423525  0.24447332  1
  O  O106  1  0.23133299  0.15111477  0.24458313  1
  O  O107  1  0.73137083  0.15111617  0.24456620  1
  O  O108  1  0.32148205  0.49488314  0.92152332  1
  O  O109  1  0.82241620  0.49753687  0.92230419  1
  O  O110  1  0.42535154  0.35587603  0.92187129  1
  O  O111  1  0.92699725  0.35341604  0.92244985  1
  O  O112  1  0.25247244  0.15045637  0.92190877  1
  O  O113  1  0.75080338  0.14656732  0.92247872  1
  O  O114  1  0.32092736  0.14768734  0.42173413  1
  O  O115  1  0.82206331  0.14656889  0.42201755  1
  O  O116  1  0.25246658  0.35574309  0.42208012  1
  O  O117  1  0.75089874  0.35322614  0.42251782  1
  O  O118  1  0.42592438  0.49761189  0.42163872  1
  O  O119  1  0.92757952  0.50065336  0.42237107  1
  O  O120  1  0.17734218  0.49965340  0.07768840  1
  O  O121  1  0.67680177  0.49919423  0.07783572  1
  O  O122  1  0.07419410  0.64633499  0.07751427  1
  O  O123  1  0.57365740  0.64577627  0.07750091  1
  O  O124  1  0.24865218  0.85394678  0.07748127  1
  O  O125  1  0.74880431  0.85318832  0.07791367  1
  O  O126  1  0.17792046  0.85337941  0.57824203  1
  O  O127  1  0.67746334  0.85355964  0.57764588  1
  O  O128  1  0.24754550  0.64177636  0.57841837  1
  O  O129  1  0.74886597  0.64506314  0.57750069  1
  O  O130  1  0.07525927  0.50486489  0.57808164  1
  O  O131  1  0.57334837  0.50145565  0.57708280  1
  O  O132  1  0.15593009  0.84895805  0.25554188  1
  O  O133  1  0.65583537  0.84898350  0.25546429  1
  O  O134  1  0.26359474  0.70606170  0.25573420  1
  O  O135  1  0.76338278  0.70569403  0.25573826  1
  O  O136  1  0.08344477  0.48166543  0.25516378  1
  O  O137  1  0.58316822  0.48162846  0.25495652  1
  O  O138  1  0.15662271  0.46272969  0.75530502  1
  O  O139  1  0.65426330  0.47794016  0.75566457  1
  O  O140  1  0.08478563  0.68751533  0.75533238  1
  O  O141  1  0.58206208  0.68612117  0.75524277  1
  O  O142  1  0.26226760  0.82242552  0.75554140  1
  O  O143  1  0.76197137  0.83016311  0.75567565  1
loop_
_geom_bond_atom_site_label_1
_geom_bond_atom_site_label_2
_geom_bond_distance
_geom_bond_site_symmetry_2
Na0 O104 2.343445 1_555
Na0 O134 2.344645 1_545
Na0 O132 2.616177 1_545
Na0 O106 2.616491 1_555
Na0 O32 2.746126 1_555
Na0 O62 2.753193 1_545
Na0 O4 2.864703 1_555
Na0 O18 2.872159 1_545
Na1 O135 2.345489 1_555
Na1 O105 2.346918 1_565
Na1 O133 2.615295 1_555
Na1 O107 2.615388 1_565
Na1 O33 2.733622 1_565
Na1 O63 2.734267 1_555
Na1 O5 2.870946 1_565
Na1 O19 2.872528 1_555
Na2 O142 2.364869 1_555
Na2 O100 2.422987 1_555
Na2 O138 2.592818 1_555
Na2 O98 2.608009 1_555
Na2 O70 2.721614 1_555
Na2 O28 2.722548 1_555
Na2 O8 2.820075 1_555
Na2 O12 2.871085 1_555
Na3 O101 2.379395 1_555
Na3 O143 2.465794 1_555
Na3 O99 2.556768 1_555
Na3 O139 2.580387 1_555
Na3 O29 2.717797 1_555
Na3 O71 2.750659 1_555
Na3 O13 2.918593 1_555
Na3 O9 2.934353 1_555
Na4 O96 2.443650 1_555
Na4 O139 2.464650 1_555
Na4 O141 2.541142 1_555
Na4 O100 2.634636 1_555
Na4 O24 2.706742 1_555
Na4 O67 2.731704 1_555
Na4 O10 2.866120 1_555
Na4 O15 2.879517 1_555
Na5 O99 2.466203 1_555
Na5 O97 2.472898 1_555
Na5 O141 2.533478 1_545
Na5 O143 2.588441 1_545
Na5 O27 2.717160 1_555
Na5 O69 2.743866 1_545
Na5 O7 2.910606 1_555
Na5 O17 2.933023 1_545
Na6 O128 2.450260 1_555
Na6 O86 2.458555 1_555
Na6 O85 2.527210 1_455
Na6 O130 2.538219 1_555
Na6 O56 2.613162 1_555
Na6 O14 2.832276 1_555
Na6 O42 2.864868 1_555
Na6 O28 2.906744 1_555
Na7 O87 2.470560 1_555
Na7 O129 2.499023 1_555
Na7 O131 2.555759 1_555
Na7 O84 2.574412 1_555
Na7 O15 2.696656 1_555
Na7 O57 2.738245 1_555
Na7 O29 2.920916 1_555
Na7 O43 2.923197 1_555
Na8 O130 2.475129 1_555
Na8 O89 2.496898 1_455
Na8 O126 2.554498 1_555
Na8 O86 2.618469 1_565
Na8 O58 2.685322 1_555
Na8 O16 2.693502 1_555
Na8 O25 2.866816 1_455
Na8 O45 2.931180 1_455
Na9 O88 2.471587 1_555
Na9 O131 2.503299 1_555
Na9 O127 2.542982 1_555
Na9 O87 2.549931 1_565
Na9 O17 2.689987 1_555
Na9 O59 2.713846 1_555
Na9 O24 2.885502 1_555
Na9 O44 2.898874 1_555
Na10 O84 2.472634 1_565
Na10 O126 2.487486 1_555
Na10 O128 2.558588 1_555
Na10 O88 2.560576 1_555
Na10 O12 2.680475 1_555
Na10 O54 2.703751 1_555
Na10 O26 2.894942 1_565
Na10 O46 2.899148 1_565
Na11 O127 2.483325 1_555
Na11 O85 2.543522 1_565
Na11 O129 2.557109 1_555
Na11 O89 2.580137 1_555
Na11 O13 2.724148 1_555
Na11 O55 2.767068 1_555
Na11 O47 2.903475 1_565
Na11 O27 2.920387 1_565
Na12 O94 2.449949 1_565
Na12 O124 2.471036 1_555
Na12 O91 2.548590 1_455
Na12 O122 2.549938 1_555
Na12 O52 2.673419 1_554
Na12 O22 2.825960 1_555
Na12 O36 2.859181 1_565
Na12 O32 2.916809 1_565
Na13 O95 2.448738 1_565
Na13 O125 2.478742 1_555
Na13 O90 2.548876 1_555
Na13 O123 2.552842 1_555
Na13 O53 2.708767 1_554
Na13 O23 2.825876 1_555
Na13 O37 2.882280 1_565
Na13 O33 2.928319 1_565
Na14 O120 2.492088 1_555
Na14 O90 2.529678 1_555
Na14 O124 2.562363 1_555
Na14 O92 2.569605 1_565
Na14 O18 2.707554 1_555
Na14 O48 2.761392 1_554
Na14 O38 2.878988 1_555
Na14 O34 2.912128 1_555
Na15 O121 2.494117 1_555
Na15 O91 2.534879 1_555
Na15 O125 2.553993 1_555
Na15 O93 2.576932 1_565
Na15 O19 2.707417 1_555
Na15 O49 2.749138 1_554
Na15 O39 2.904567 1_555
Na15 O35 2.913442 1_555
Na16 O93 2.484078 1_455
Na16 O122 2.494007 1_555
Na16 O120 2.545591 1_555
Na16 O94 2.608012 1_555
Na16 O20 2.679603 1_555
Na16 O50 2.731648 1_554
Na16 O31 2.878105 1_455
Na16 O41 2.926198 1_455
Na17 O92 2.482505 1_555
Na17 O123 2.494665 1_555
Na17 O121 2.539524 1_555
Na17 O95 2.607359 1_555
Na17 O21 2.679881 1_555
Na17 O51 2.745152 1_554
Na17 O30 2.872664 1_555
Na17 O40 2.903518 1_555
Na18 O81 2.471874 1_555
Na18 O110 2.483325 1_555
Na18 O82 2.557445 1_555
Na18 O108 2.559520 1_555
Na18 O38 2.683391 1_556
Na18 O8 2.714082 1_555
Na18 O53 2.923389 1_555
Na18 O67 2.931211 1_555
Na19 O111 2.490477 1_555
Na19 O80 2.544976 1_655
Na19 O109 2.551608 1_555
Na19 O83 2.574646 1_555
Na19 O9 2.714658 1_555
Na19 O39 2.724762 1_556
Na19 O66 2.908744 1_655
Na19 O52 2.910632 1_655
Na20 O82 2.476707 1_545
Na20 O112 2.498234 1_555
Na20 O79 2.550124 1_555
Na20 O110 2.553750 1_555
Na20 O10 2.708013 1_555
Na20 O40 2.720767 1_556
Na20 O68 2.880011 1_545
Na20 O48 2.922450 1_545
Na21 O113 2.479205 1_555
Na21 O83 2.496153 1_545
Na21 O111 2.532334 1_555
Na21 O78 2.619955 1_655
Na21 O11 2.693207 1_555
Na21 O41 2.763865 1_556
Na21 O69 2.921671 1_545
Na21 O49 2.931547 1_545
Na22 O108 2.453099 1_555
Na22 O78 2.456333 1_555
Na22 O80 2.547963 1_545
Na22 O112 2.555199 1_555
Na22 O36 2.627097 1_556
Na22 O6 2.843779 1_555
Na22 O50 2.879835 1_555
Na22 O70 2.921710 1_555
Na23 O79 2.478590 1_555
Na23 O109 2.502777 1_555
Na23 O113 2.550807 1_555
Na23 O81 2.558480 1_545
Na23 O7 2.697659 1_555
Na23 O37 2.736459 1_556
Na23 O51 2.935714 1_555
Na23 O71 2.938112 1_555
Na24 O118 2.481824 1_555
Na24 O77 2.538401 1_555
Na24 O74 2.565285 1_545
Na24 O114 2.568449 1_555
Na24 O46 2.717395 1_555
Na24 O4 2.717465 1_555
Na24 O57 2.903872 1_555
Na24 O61 2.904145 1_555
Na25 O119 2.490322 1_555
Na25 O76 2.540803 1_655
Na25 O115 2.556058 1_555
Na25 O75 2.570169 1_545
Na25 O5 2.712023 1_555
Na25 O47 2.712400 1_555
Na25 O56 2.894761 1_655
Na25 O60 2.908866 1_655
Na26 O72 2.450403 1_545
Na26 O114 2.455196 1_555
Na26 O76 2.538046 1_555
Na26 O116 2.562218 1_555
Na26 O42 2.646379 1_555
Na26 O0 2.828370 1_555
Na26 O58 2.860370 1_545
Na26 O62 2.917099 1_545
Na27 O73 2.458334 1_545
Na27 O115 2.476218 1_555
Na27 O117 2.547848 1_555
Na27 O77 2.549853 1_555
Na27 O43 2.704446 1_555
Na27 O1 2.825055 1_555
Na27 O59 2.889688 1_545
Na27 O63 2.929225 1_545
Na28 O116 2.476011 1_555
Na28 O74 2.493559 1_555
Na28 O118 2.539421 1_555
Na28 O73 2.598349 1_555
Na28 O2 2.684717 1_555
Na28 O44 2.734179 1_555
Na28 O64 2.860752 1_555
Na28 O54 2.911402 1_555
Na29 O75 2.488851 1_555
Na29 O117 2.496154 1_555
Na29 O119 2.541407 1_555
Na29 O72 2.611193 1_655
Na29 O3 2.682334 1_555
Na29 O45 2.747678 1_555
Na29 O65 2.877445 1_555
Na29 O55 2.929650 1_555
Na30 O89 2.535864 1_555
Na30 O75 2.545694 1_555
Na30 O72 2.588102 1_655
Na30 O86 2.592532 1_665
Na30 O76 2.610181 1_665
Na30 O85 2.610735 1_565
Na31 O84 2.542689 1_565
Na31 O87 2.543190 1_565
Na31 O74 2.564879 1_555
Na31 O88 2.578548 1_555
Na31 O73 2.599086 1_555
Na31 O77 2.618861 1_565
Na32 O83 2.538860 1_444
Na32 O93 2.545820 1_455
Na32 O94 2.581584 1_555
Na32 O78 2.589075 1_554
Na32 O91 2.602502 1_445
Na32 O80 2.611016 1_544
Na33 O79 2.546174 1_555
Na33 O81 2.552116 1_545
Na33 O82 2.561012 1_545
Na33 O92 2.571994 1_556
Na33 O95 2.598967 1_556
Na33 O90 2.624264 1_546
Na34 O110 2.529780 1_555
Na34 O112 2.532608 1_555
Na34 O96 2.542405 1_555
Na34 O108 2.579471 1_555
Na34 O100 2.584478 1_555
Na34 O98 2.690597 1_555
Na35 O97 2.526082 1_555
Na35 O101 2.566313 1_555
Na35 O111 2.591043 1_555
Na35 O99 2.594362 1_555
Na35 O109 2.635927 1_555
Na35 O113 2.646818 1_555
Na36 O102 2.510405 1_555
Na36 O118 2.522343 1_555
Na36 O104 2.579752 1_555
Na36 O116 2.592954 1_555
Na36 O114 2.632929 1_555
Na36 O106 2.733211 1_555
Na37 O103 2.505461 1_555
Na37 O119 2.557672 1_555
Na37 O105 2.575830 1_555
Na37 O117 2.614405 1_555
Na37 O115 2.653626 1_555
Na37 O107 2.728926 1_555
Na38 O136 2.509665 1_555
Na38 O120 2.558689 1_555
Na38 O134 2.572527 1_555
Na38 O122 2.610755 1_555
Na38 O124 2.666183 1_555
Na38 O132 2.732150 1_555
Na39 O137 2.505297 1_555
Na39 O121 2.555924 1_555
Na39 O135 2.569160 1_555
Na39 O123 2.617389 1_555
Na39 O125 2.658699 1_555
Na39 O133 2.730906 1_555
Na40 O140 2.509767 1_555
Na40 O126 2.528313 1_555
Na40 O142 2.573007 1_555
Na40 O130 2.573673 1_555
Na40 O128 2.638536 1_555
Na40 O138 2.742703 1_555
Na41 O129 2.587677 1_555
Na41 O127 2.591080 1_555
Na41 O139 2.591978 1_555
Na41 O143 2.593859 1_555
Na41 O131 2.597948 1_555
Na41 O141 2.601819 1_555
Hf0 O25 2.007675 1_555
Hf0 O29 2.066447 1_555
Hf0 O101 2.067223 1_555
Hf0 O27 2.069476 1_555
Hf0 O97 2.073478 1_555
Hf0 O99 2.136474 1_555
Hf1 O30 1.955016 1_555
Hf1 O34 2.018357 1_555
Hf1 O102 2.034595 1_555
Hf1 O104 2.081882 1_555
Hf1 O32 2.090235 1_555
Hf1 O106 2.314247 1_555
Hf2 O31 1.955118 1_555
Hf2 O35 2.014789 1_555
Hf2 O103 2.035849 1_555
Hf2 O105 2.087510 1_555
Hf2 O33 2.090296 1_555
Hf2 O107 2.316093 1_555
Hf3 O41 2.021751 1_556
Hf3 O37 2.032610 1_556
Hf3 O39 2.050384 1_556
Hf3 O113 2.104245 1_555
Hf3 O109 2.104988 1_555
Hf3 O111 2.127543 1_555
Hf4 O45 2.023782 1_555
Hf4 O43 2.030449 1_555
Hf4 O47 2.043590 1_555
Hf4 O115 2.104449 1_555
Hf4 O117 2.108820 1_555
Hf4 O119 2.126166 1_555
Hf5 O48 2.025409 1_554
Hf5 O50 2.030749 1_554
Hf5 O52 2.054823 1_554
Hf5 O122 2.109168 1_555
Hf5 O124 2.109755 1_555
Hf5 O120 2.114786 1_555
Hf6 O49 2.024550 1_554
Hf6 O51 2.029345 1_554
Hf6 O53 2.032579 1_554
Hf6 O123 2.104250 1_555
Hf6 O125 2.106758 1_555
Hf6 O121 2.118561 1_555
Hf7 O55 2.023782 1_555
Hf7 O59 2.032242 1_555
Hf7 O57 2.049471 1_555
Hf7 O131 2.102644 1_555
Hf7 O127 2.109556 1_555
Hf7 O129 2.111044 1_555
Hf8 O64 1.958531 1_555
Hf8 O60 2.017967 1_555
Hf8 O136 2.034492 1_555
Hf8 O134 2.084951 1_555
Hf8 O62 2.095190 1_555
Hf8 O132 2.315546 1_555
Hf9 O65 1.954054 1_555
Hf9 O61 2.024018 1_555
Hf9 O137 2.035013 1_555
Hf9 O63 2.087956 1_555
Hf9 O135 2.091914 1_555
Hf9 O133 2.311240 1_555
Hf10 O68 1.956342 1_555
Hf10 O66 2.011138 1_555
Hf10 O140 2.030877 1_555
Hf10 O70 2.090916 1_555
Hf10 O142 2.092930 1_555
Hf10 O138 2.330086 1_555
Hf11 O69 2.028591 1_555
Hf11 O71 2.031120 1_555
Hf11 O67 2.043047 1_555
Hf11 O139 2.094901 1_555
Hf11 O143 2.104203 1_555
Hf11 O141 2.115722 1_555
O0 S0 1.489429 1_555
O0 Sn0 2.227154 1_445
O1 S1 1.489119 1_555
O1 Sn1 2.235590 1_545
O2 Si0 1.644242 1_555
O2 Sn1 1.993307 1_555
O3 Si1 1.645779 1_555
O3 Sn0 1.994704 1_555
O4 Si3 1.654594 1_555
O4 Sn1 2.005738 1_545
O5 Si2 1.655611 1_655
O5 Sn0 2.006025 1_545
O6 S2 1.487151 1_555
O6 Sn2 2.233405 1_445
O7 Si4 1.645740 1_555
O7 Sn3 2.034123 1_545
O8 Si6 1.641098 1_555
O8 Sn3 2.049078 1_555
O9 Si5 1.656996 1_655
O9 Sn2 2.000004 1_555
O10 Si7 1.651576 1_545
O10 Sn3 2.045564 1_545
O11 Si8 1.638139 1_555
O11 Sn2 1.995062 1_545
O12 Si7 1.645161 1_555
O12 Sn5 2.036940 1_555
O13 Si8 1.649862 1_565
O13 Sn4 2.011776 1_555
O14 S2 1.483351 1_555
O14 Sn4 2.228944 1_445
O15 Si4 1.645610 1_555
O15 Sn5 2.030557 1_545
O16 Si5 1.645651 1_555
O16 Sn4 1.991773 1_455
O17 Si6 1.636506 1_555
O17 Sn5 2.038703 1_555
O18 Si0 1.654447 1_555
O18 Sn7 2.008545 1_565
O19 Si1 1.656247 1_555
O19 Sn6 2.009117 1_565
O20 Si2 1.645212 1_555
O20 Sn6 1.995085 1_455
O21 Si3 1.644727 1_555
O21 Sn7 1.995080 1_555
O22 S0 1.488949 1_565
O22 Sn6 2.223246 1_465
O23 S1 1.488519 1_565
O23 Sn7 2.226043 1_565
O24 Si9 1.640551 1_555
O24 Sn8 2.007669 1_555
O25 Si10 1.615351 1_555
O26 Si11 1.630470 1_555
O26 Sn8 1.994199 1_555
O27 Si12 1.623759 1_555
O28 Si13 1.652048 1_555
O28 Sn8 2.050207 1_555
O29 Si14 1.620002 1_555
O30 Si15 1.621077 1_555
O31 Si16 1.623628 1_555
O32 Si17 1.623978 1_555
O33 Si18 1.625030 1_555
O34 Si19 1.613642 1_555
O35 Si20 1.616714 1_555
O36 Si19 1.651771 1_555
O36 Sn9 2.049878 1_554
O37 Si20 1.644654 1_555
O38 Si15 1.644564 1_555
O38 Sn9 2.051812 1_554
O39 Si16 1.638006 1_555
O40 Si17 1.649416 1_555
O40 Sn9 2.035256 1_554
O41 Si18 1.641268 1_555
O42 Si11 1.641883 1_555
O42 Sn10 2.053533 1_555
O43 Si12 1.645476 1_555
O44 Si13 1.641058 1_555
O44 Sn10 2.039845 1_555
O45 Si14 1.640147 1_555
O46 Si9 1.640899 1_555
O46 Sn10 2.036220 1_555
O47 Si10 1.640660 1_555
O48 Si21 1.644037 1_555
O49 Si22 1.635167 1_555
O50 Si23 1.644507 1_555
O51 Si24 1.636465 1_555
O52 Si25 1.635765 1_555
O53 Si26 1.641064 1_555
O54 Si27 1.648309 1_555
O54 Sn11 2.033071 1_555
O55 Si28 1.641088 1_555
O56 Si29 1.642915 1_555
O56 Sn11 2.062508 1_555
O57 Si30 1.637564 1_555
O58 Si31 1.651685 1_555
O58 Sn11 2.045313 1_555
O59 Si32 1.641038 1_555
O60 Si31 1.615406 1_555
O61 Si32 1.618558 1_555
O62 Si27 1.625240 1_555
O63 Si28 1.624722 1_555
O64 Si29 1.622884 1_555
O65 Si30 1.623747 1_555
O66 Si23 1.617908 1_555
O67 Si24 1.634507 1_555
O68 Si25 1.624895 1_555
O69 Si26 1.633901 1_555
O70 Si21 1.629760 1_555
O71 Si22 1.629797 1_555
O72 Si31 1.656182 1_555
O72 Sn0 2.076545 1_455
O73 Si32 1.655023 1_555
O73 Sn1 2.079323 1_555
O74 Si27 1.654335 1_555
O74 Sn1 2.065494 1_555
O75 Si28 1.655604 1_555
O75 Sn0 2.061106 1_555
O76 Si29 1.648543 1_555
O76 Sn0 2.087841 1_445
O77 Si30 1.648146 1_555
O77 Sn1 2.077444 1_545
O78 Si23 1.654451 1_555
O78 Sn2 2.071720 1_445
O79 Si24 1.645478 1_555
O79 Sn3 2.105327 1_545
O80 Si25 1.646962 1_555
O80 Sn2 2.079055 1_455
O81 Si26 1.645452 1_555
O81 Sn3 2.108954 1_555
O82 Si21 1.648955 1_555
O82 Sn3 2.097893 1_555
O83 Si22 1.649775 1_555
O83 Sn2 2.061845 1_555
O84 Si9 1.641981 1_555
O84 Sn5 2.100248 1_545
O85 Si10 1.654586 1_555
O85 Sn4 2.079468 1_545
O86 Si11 1.651500 1_555
O86 Sn4 2.082850 1_445
O87 Si12 1.651082 1_555
O87 Sn5 2.102785 1_545
O88 Si13 1.643994 1_555
O88 Sn5 2.102743 1_555
O89 Si14 1.655717 1_555
O89 Sn4 2.055608 1_555
O90 Si15 1.647184 1_555
O90 Sn7 2.080913 1_565
O91 Si16 1.648106 1_555
O91 Sn6 2.081034 1_565
O92 Si17 1.655149 1_555
O92 Sn7 2.059939 1_555
O93 Si18 1.655061 1_555
O93 Sn6 2.058740 1_555
O94 Si19 1.655415 1_555
O94 Sn6 2.082987 1_455
O95 Si20 1.654809 1_555
O95 Sn7 2.077852 1_555
O96 Si7 1.657995 1_545
O96 Sn8 2.064750 1_555
O97 Si8 1.618983 1_555
O98 S2 1.504991 1_555
O98 Sn8 2.297146 1_555
O99 Si4 1.626740 1_555
O100 Si6 1.665110 1_555
O100 Sn8 2.096834 1_555
O101 Si5 1.633491 1_655
O102 Si0 1.624294 1_555
O103 Si1 1.625048 1_555
O104 Si3 1.646772 1_555
O105 Si2 1.645310 1_655
O106 S0 1.479988 1_555
O107 S1 1.481342 1_555
O108 Si21 1.648023 1_555
O108 Sn9 2.103521 1_555
O109 Si22 1.631289 1_555
O110 Si24 1.646585 1_555
O110 Sn9 2.111207 1_555
O111 Si23 1.636943 1_655
O112 Si25 1.637863 1_545
O112 Sn9 2.103533 1_555
O113 Si26 1.636744 1_545
O114 Si27 1.647483 1_545
O114 Sn10 2.098536 1_555
O115 Si28 1.637384 1_545
O116 Si29 1.638740 1_555
O116 Sn10 2.092656 1_555
O117 Si30 1.632970 1_555
O118 Si32 1.647880 1_555
O118 Sn10 2.113182 1_555
O119 Si31 1.639676 1_655
O120 Si19 1.641457 1_555
O121 Si20 1.638817 1_555
O122 Si16 1.631720 1_455
O123 Si15 1.630136 1_555
O124 Si17 1.639528 1_565
O125 Si18 1.637694 1_565
O126 Si11 1.644613 1_565
O126 Sn11 2.115500 1_555
O127 Si12 1.642036 1_565
O128 Si13 1.646119 1_555
O128 Sn11 2.118546 1_555
O129 Si14 1.637194 1_555
O130 Si10 1.644327 1_455
O130 Sn11 2.093571 1_555
O131 Si9 1.632562 1_555
O132 S0 1.480453 1_565
O133 S1 1.480759 1_565
O134 Si0 1.647241 1_555
O135 Si1 1.646477 1_555
O136 Si2 1.626079 1_555
O137 Si3 1.624437 1_555
O138 S2 1.467998 1_555
O139 Si4 1.641083 1_555
O140 Si5 1.624204 1_555
O141 Si6 1.635408 1_555
O142 Si7 1.632952 1_555
O143 Si8 1.651134 1_565
