# generated using pymatgen
data_KTcCl3
_symmetry_space_group_name_H-M   'P 1'
_cell_length_a   8.32995358
_cell_length_b   8.32995358
_cell_length_c   9.06021125
_cell_angle_alpha   86.36834409
_cell_angle_beta   86.36834409
_cell_angle_gamma   118.29012383
_symmetry_Int_Tables_number   1
_chemical_formula_structural   KTcCl3
_chemical_formula_sum   'K4 Tc4 Cl12'
_cell_volume   549.34371819
_cell_formula_units_Z   4
loop_
 _symmetry_equiv_pos_site_id
 _symmetry_equiv_pos_as_xyz
  1  'x, y, z'
loop_
 _atom_site_type_symbol
 _atom_site_label
 _atom_site_symmetry_multiplicity
 _atom_site_fract_x
 _atom_site_fract_y
 _atom_site_fract_z
 _atom_site_occupancy
  K  K0  1  0.44738400  0.11473600  0.60383500  1
  K  K1  1  0.11473600  0.44738400  0.10383500  1
  K  K2  1  0.50611500  0.17128300  0.10676700  1
  K  K3  1  0.17128300  0.50611500  0.60676700  1
  Tc  Tc0  1  0.77590300  0.67962500  0.79098900  1
  Tc  Tc1  1  0.67962500  0.77590300  0.29098900  1
  Tc  Tc2  1  0.95492000  0.85570600  0.93211300  1
  Tc  Tc3  1  0.85570600  0.95492000  0.43211300  1
  Cl  Cl0  1  0.48805100  0.51544400  0.94327400  1
  Cl  Cl1  1  0.51544400  0.48805100  0.44327400  1
  Cl  Cl2  1  0.12527900  0.14898100  0.78816900  1
  Cl  Cl3  1  0.14898100  0.12527900  0.28816900  1
  Cl  Cl4  1  0.80035700  0.40090600  0.82126100  1
  Cl  Cl5  1  0.40090600  0.80035700  0.32126100  1
  Cl  Cl6  1  0.66214200  0.86933700  0.66737600  1
  Cl  Cl7  1  0.86933700  0.66214200  0.16737600  1
  Cl  Cl8  1  0.76919100  0.97297200  0.05670100  1
  Cl  Cl9  1  0.97297200  0.76919100  0.55670100  1
  Cl  Cl10  1  0.82405000  0.22921800  0.39591400  1
  Cl  Cl11  1  0.22921800  0.82405000  0.89591400  1
loop_
_geom_bond_atom_site_label_1
_geom_bond_atom_site_label_2
_geom_bond_distance
_geom_bond_site_symmetry_2
Tc0 Tc2 2.101382 1_555
Tc1 Tc3 2.101382 1_555
Cl0 Tc0 2.399370 1_555
Cl0 K1 3.123966 1_556
Cl0 K2 3.214777 1_556
Cl1 Tc1 2.399370 1_555
Cl1 K0 3.123966 1_555
Cl1 K3 3.214777 1_555
Cl2 Tc2 2.399707 1_445
Cl2 K3 3.149345 1_555
Cl2 K0 3.207478 1_555
Cl3 Tc3 2.399707 1_445
Cl3 K2 3.149345 1_555
Cl3 K1 3.207478 1_555
Cl4 Tc0 2.425237 1_555
Cl4 K2 3.237832 1_556
Cl4 K3 3.247830 1_655
Cl4 K0 3.590708 1_555
Cl4 K1 3.684593 1_656
Cl5 Tc1 2.425237 1_555
Cl5 K3 3.237832 1_555
Cl5 K2 3.247830 1_565
Cl5 K1 3.590708 1_555
Cl5 K0 3.684593 1_565
Cl6 Tc3 2.435976 1_555
Cl6 Tc0 2.445265 1_555
Cl6 K0 3.340343 1_565
Cl7 Tc2 2.435976 1_554
Cl7 Tc1 2.445265 1_555
Cl7 K1 3.340343 1_655
Cl8 Tc1 2.440140 1_555
Cl8 Tc2 2.443939 1_554
Cl8 K2 3.337248 1_565
Cl8 K1 3.697562 1_665
Cl9 Tc0 2.440140 1_555
Cl9 Tc3 2.443939 1_555
Cl9 K3 3.337248 1_655
Cl9 K0 3.697562 1_665
Cl10 Tc3 2.425890 1_545
Cl10 K0 3.238862 1_555
Cl10 K1 3.252174 1_655
Cl10 K3 3.502899 1_655
Cl11 Tc2 2.425890 1_455
Cl11 K1 3.238862 1_556
Cl11 K0 3.252174 1_565
Cl11 K2 3.502899 1_566
