# generated using pymatgen
data_MgTe2Mo2W2(Se2S)2
_symmetry_space_group_name_H-M   'P 1'
_cell_length_a   6.66844800
_cell_length_b   6.66841985
_cell_length_c   91.53811025
_cell_angle_alpha   89.99228218
_cell_angle_beta   90.00000000
_cell_angle_gamma   120.00010263
_symmetry_Int_Tables_number   1
_chemical_formula_structural   MgTe2Mo2W2(Se2S)2
_chemical_formula_sum   'Mg8 Te16 Mo16 W16 Se32 S16'
_cell_volume   3525.16804083
_cell_formula_units_Z   8
loop_
 _symmetry_equiv_pos_site_id
 _symmetry_equiv_pos_as_xyz
  1  'x, y, z'
loop_
 _atom_site_type_symbol
 _atom_site_label
 _atom_site_symmetry_multiplicity
 _atom_site_fract_x
 _atom_site_fract_y
 _atom_site_fract_z
 _atom_site_occupancy
  Mg  Mg0_0  1  0.49997750  0.49995550  0.18974100  1
  Mg  Mg0_1  1  0.49997750  0.49995550  0.68974100  1
  Mg  Mg0_2  1  0.49997750  0.99995550  0.18974100  1
  Mg  Mg0_3  1  0.49997750  0.99995550  0.68974100  1
  Mg  Mg0_4  1  0.99997750  0.49995550  0.18974100  1
  Mg  Mg0_5  1  0.99997750  0.49995550  0.68974100  1
  Mg  Mg0_6  1  0.99997750  0.99995550  0.18974100  1
  Mg  Mg0_7  1  0.99997750  0.99995550  0.68974100  1
  Te  Te0_0  1  0.33335650  0.16671300  0.02598650  1
  Te  Te0_1  1  0.33335650  0.16671300  0.52598650  1
  Te  Te0_2  1  0.33335650  0.66671300  0.02598650  1
  Te  Te0_3  1  0.33335650  0.66671300  0.52598650  1
  Te  Te0_4  1  0.83335650  0.16671300  0.02598650  1
  Te  Te0_5  1  0.83335650  0.16671300  0.52598650  1
  Te  Te0_6  1  0.83335650  0.66671300  0.02598650  1
  Te  Te0_7  1  0.83335650  0.66671300  0.52598650  1
  Te  Te1_0  1  0.33331650  0.16663250  0.06751750  1
  Te  Te1_1  1  0.33331650  0.16663250  0.56751750  1
  Te  Te1_2  1  0.33331650  0.66663250  0.06751750  1
  Te  Te1_3  1  0.33331650  0.66663250  0.56751750  1
  Te  Te1_4  1  0.83331650  0.16663250  0.06751750  1
  Te  Te1_5  1  0.83331650  0.16663250  0.56751750  1
  Te  Te1_6  1  0.83331650  0.66663250  0.06751750  1
  Te  Te1_7  1  0.83331650  0.66663250  0.56751750  1
  Mo  Mo0_0  1  0.16667050  0.33334050  0.04675350  1
  Mo  Mo0_1  1  0.16667050  0.33334050  0.54675350  1
  Mo  Mo0_2  1  0.16667050  0.83334050  0.04675350  1
  Mo  Mo0_3  1  0.16667050  0.83334050  0.54675350  1
  Mo  Mo0_4  1  0.66667050  0.33334050  0.04675350  1
  Mo  Mo0_5  1  0.66667050  0.33334050  0.54675350  1
  Mo  Mo0_6  1  0.66667050  0.83334050  0.04675350  1
  Mo  Mo0_7  1  0.66667050  0.83334050  0.54675350  1
  Mo  Mo1_0  1  0.16667600  0.33335100  0.23834800  1
  Mo  Mo1_1  1  0.16667600  0.33335100  0.73834800  1
  Mo  Mo1_2  1  0.16667600  0.83335100  0.23834800  1
  Mo  Mo1_3  1  0.16667600  0.83335100  0.73834800  1
  Mo  Mo1_4  1  0.66667600  0.33335100  0.23834800  1
  Mo  Mo1_5  1  0.66667600  0.33335100  0.73834800  1
  Mo  Mo1_6  1  0.66667600  0.83335100  0.23834800  1
  Mo  Mo1_7  1  0.66667600  0.83335100  0.73834800  1
  W  W0_0  1  0.33329550  0.16659150  0.13693450  1
  W  W0_1  1  0.33329550  0.16659150  0.63693450  1
  W  W0_2  1  0.33329550  0.66659150  0.13693450  1
  W  W0_3  1  0.33329550  0.66659150  0.63693450  1
  W  W0_4  1  0.83329550  0.16659150  0.13693450  1
  W  W0_5  1  0.83329550  0.16659150  0.63693450  1
  W  W0_6  1  0.83329550  0.66659150  0.13693450  1
  W  W0_7  1  0.83329550  0.66659150  0.63693450  1
  W  W1_0  1  0.33336100  0.16672300  0.32876100  1
  W  W1_1  1  0.33336100  0.16672300  0.82876100  1
  W  W1_2  1  0.33336100  0.66672300  0.32876100  1
  W  W1_3  1  0.33336100  0.66672300  0.82876100  1
  W  W1_4  1  0.83336100  0.16672300  0.32876100  1
  W  W1_5  1  0.83336100  0.16672300  0.82876100  1
  W  W1_6  1  0.83336100  0.66672300  0.32876100  1
  W  W1_7  1  0.83336100  0.66672300  0.82876100  1
  Se  Se0_0  1  0.16661300  0.33322650  0.15539200  1
  Se  Se0_1  1  0.16661300  0.33322650  0.65539200  1
  Se  Se0_2  1  0.16661300  0.83322650  0.15539200  1
  Se  Se0_3  1  0.16661300  0.83322650  0.65539200  1
  Se  Se0_4  1  0.66661300  0.33322650  0.15539200  1
  Se  Se0_5  1  0.66661300  0.33322650  0.65539200  1
  Se  Se0_6  1  0.66661300  0.83322650  0.15539200  1
  Se  Se0_7  1  0.66661300  0.83322650  0.65539200  1
  Se  Se1_0  1  0.33336200  0.16672400  0.21980650  1
  Se  Se1_1  1  0.33336200  0.16672400  0.71980650  1
  Se  Se1_2  1  0.33336200  0.66672400  0.21980650  1
  Se  Se1_3  1  0.33336200  0.66672400  0.71980650  1
  Se  Se1_4  1  0.83336200  0.16672400  0.21980650  1
  Se  Se1_5  1  0.83336200  0.16672400  0.71980650  1
  Se  Se1_6  1  0.83336200  0.66672400  0.21980650  1
  Se  Se1_7  1  0.83336200  0.66672400  0.71980650  1
  Se  Se2_0  1  0.33332050  0.16664050  0.25654000  1
  Se  Se2_1  1  0.33332050  0.16664050  0.75654000  1
  Se  Se2_2  1  0.33332050  0.66664050  0.25654000  1
  Se  Se2_3  1  0.33332050  0.66664050  0.75654000  1
  Se  Se2_4  1  0.83332050  0.16664050  0.25654000  1
  Se  Se2_5  1  0.83332050  0.16664050  0.75654000  1
  Se  Se2_6  1  0.83332050  0.66664050  0.25654000  1
  Se  Se2_7  1  0.83332050  0.66664050  0.75654000  1
  Se  Se3_0  1  0.16665650  0.33331350  0.11860250  1
  Se  Se3_1  1  0.16665650  0.33331350  0.61860250  1
  Se  Se3_2  1  0.16665650  0.83331350  0.11860250  1
  Se  Se3_3  1  0.16665650  0.83331350  0.61860250  1
  Se  Se3_4  1  0.66665650  0.33331350  0.11860250  1
  Se  Se3_5  1  0.66665650  0.33331350  0.61860250  1
  Se  Se3_6  1  0.66665650  0.83331350  0.11860250  1
  Se  Se3_7  1  0.66665650  0.83331350  0.61860250  1
  S  S0_0  1  0.16667600  0.33335150  0.34541000  1
  S  S0_1  1  0.16667600  0.33335150  0.84541000  1
  S  S0_2  1  0.16667600  0.83335150  0.34541000  1
  S  S0_3  1  0.16667600  0.83335150  0.84541000  1
  S  S0_4  1  0.66667600  0.33335150  0.34541000  1
  S  S0_5  1  0.66667600  0.33335150  0.84541000  1
  S  S0_6  1  0.66667600  0.83335150  0.34541000  1
  S  S0_7  1  0.66667600  0.83335150  0.84541000  1
  S  S1_0  1  0.16671800  0.33343600  0.31208200  1
  S  S1_1  1  0.16671800  0.33343600  0.81208200  1
  S  S1_2  1  0.16671800  0.83343600  0.31208200  1
  S  S1_3  1  0.16671800  0.83343600  0.81208200  1
  S  S1_4  1  0.66671800  0.33343600  0.31208200  1
  S  S1_5  1  0.66671800  0.33343600  0.81208200  1
  S  S1_6  1  0.66671800  0.83343600  0.31208200  1
  S  S1_7  1  0.66671800  0.83343600  0.81208200  1
loop_
_geom_bond_atom_site_label_1
_geom_bond_atom_site_label_2
_geom_bond_distance
_geom_bond_site_symmetry_2
Mg0_0 Mg0_2 3.334210 1_545
Mg0_0 Mg0_2 3.334210 1_555
Mg0_0 Mg0_6 3.334212 1_445
Mg0_0 Mg0_6 3.334212 1_555
Mg0_0 Mg0_4 3.334224 1_555
Mg0_0 Mg0_4 3.334224 1_455
Mg0_0 Se1_0 3.357976 1_555
Mg0_0 Se1_2 3.358853 1_555
Mg0_0 Se1_6 3.358855 1_555
Mg0_1 Mg0_3 3.334210 1_545
Mg0_1 Mg0_3 3.334210 1_555
Mg0_1 Mg0_7 3.334212 1_445
Mg0_1 Mg0_7 3.334212 1_555
Mg0_1 Mg0_5 3.334224 1_455
Mg0_1 Mg0_5 3.334224 1_555
Mg0_1 Se1_1 3.357976 1_555
Mg0_1 Se1_3 3.358853 1_555
Mg0_1 Se1_7 3.358855 1_555
Mg0_2 Mg0_4 3.334212 1_565
Mg0_2 Mg0_4 3.334212 1_455
Mg0_2 Mg0_6 3.334224 1_455
Mg0_2 Mg0_6 3.334224 1_555
Mg0_2 Se1_2 3.357976 1_555
Mg0_2 Se1_0 3.358853 1_565
Mg0_2 Se1_4 3.358855 1_565
Mg0_3 Mg0_5 3.334212 1_455
Mg0_3 Mg0_5 3.334212 1_565
Mg0_3 Mg0_7 3.334224 1_555
Mg0_3 Mg0_7 3.334224 1_455
Mg0_3 Se1_3 3.357976 1_555
Mg0_3 Se1_1 3.358853 1_565
Mg0_3 Se1_5 3.358855 1_565
Mg0_4 Mg0_6 3.334210 1_545
Mg0_4 Mg0_6 3.334210 1_555
Mg0_4 Se1_4 3.357976 1_555
Mg0_4 Se1_6 3.358853 1_555
Mg0_4 Se1_2 3.358855 1_655
Mg0_5 Mg0_7 3.334210 1_545
Mg0_5 Mg0_7 3.334210 1_555
Mg0_5 Se1_5 3.357976 1_555
Mg0_5 Se1_7 3.358853 1_555
Mg0_5 Se1_3 3.358855 1_655
Mg0_6 Se1_6 3.357976 1_555
Mg0_6 Se1_4 3.358853 1_565
Mg0_6 Se1_0 3.358855 1_665
Mg0_7 Se1_7 3.357976 1_555
Mg0_7 Se1_5 3.358853 1_565
Mg0_7 Se1_1 3.358855 1_665
Mo0_0 Te1_0 2.705219 1_555
Mo0_0 Te1_4 2.705220 1_455
Mo0_0 Te1_2 2.705275 1_555
Mo0_0 Te0_2 2.705378 1_555
Mo0_0 Te0_0 2.705456 1_555
Mo0_0 Te0_4 2.705459 1_455
Mo0_1 Te1_1 2.705219 1_555
Mo0_1 Te1_5 2.705220 1_455
Mo0_1 Te1_3 2.705275 1_555
Mo0_1 Te0_3 2.705378 1_555
Mo0_1 Te0_1 2.705456 1_555
Mo0_1 Te0_5 2.705459 1_455
Mo0_2 Te1_2 2.705219 1_555
Mo0_2 Te1_6 2.705220 1_455
Mo0_2 Te1_0 2.705275 1_565
Mo0_2 Te0_0 2.705378 1_565
Mo0_2 Te0_2 2.705456 1_555
Mo0_2 Te0_6 2.705459 1_455
Mo0_3 Te1_3 2.705219 1_555
Mo0_3 Te1_7 2.705220 1_455
Mo0_3 Te1_1 2.705275 1_565
Mo0_3 Te0_1 2.705378 1_565
Mo0_3 Te0_3 2.705456 1_555
Mo0_3 Te0_7 2.705459 1_455
Mo0_4 Te1_4 2.705219 1_555
Mo0_4 Te1_0 2.705220 1_555
Mo0_4 Te1_6 2.705275 1_555
Mo0_4 Te0_6 2.705378 1_555
Mo0_4 Te0_4 2.705456 1_555
Mo0_4 Te0_0 2.705459 1_555
Mo0_5 Te1_5 2.705219 1_555
Mo0_5 Te1_1 2.705220 1_555
Mo0_5 Te1_7 2.705275 1_555
Mo0_5 Te0_7 2.705378 1_555
Mo0_5 Te0_5 2.705456 1_555
Mo0_5 Te0_1 2.705459 1_555
Mo0_6 Te1_6 2.705219 1_555
Mo0_6 Te1_2 2.705220 1_555
Mo0_6 Te1_4 2.705275 1_565
Mo0_6 Te0_4 2.705378 1_565
Mo0_6 Te0_6 2.705456 1_555
Mo0_6 Te0_2 2.705459 1_555
Mo0_7 Te1_7 2.705219 1_555
Mo0_7 Te1_3 2.705220 1_555
Mo0_7 Te1_5 2.705275 1_565
Mo0_7 Te0_5 2.705378 1_565
Mo0_7 Te0_7 2.705456 1_555
Mo0_7 Te0_3 2.705459 1_555
Mo1_0 Se2_0 2.545339 1_555
Mo1_0 Se2_2 2.545341 1_555
Mo1_0 Se2_4 2.545342 1_455
Mo1_0 Se1_2 2.566355 1_555
Mo1_0 Se1_0 2.566398 1_555
Mo1_0 Se1_4 2.566403 1_455
Mo1_1 Se2_1 2.545339 1_555
Mo1_1 Se2_3 2.545341 1_555
Mo1_1 Se2_5 2.545342 1_455
Mo1_1 Se1_3 2.566355 1_555
Mo1_1 Se1_1 2.566398 1_555
Mo1_1 Se1_5 2.566403 1_455
Mo1_2 Se2_2 2.545339 1_555
Mo1_2 Se2_0 2.545341 1_565
Mo1_2 Se2_6 2.545342 1_455
Mo1_2 Se1_0 2.566355 1_565
Mo1_2 Se1_2 2.566398 1_555
Mo1_2 Se1_6 2.566403 1_455
Mo1_3 Se2_3 2.545339 1_555
Mo1_3 Se2_1 2.545341 1_565
Mo1_3 Se2_7 2.545342 1_455
Mo1_3 Se1_1 2.566355 1_565
Mo1_3 Se1_3 2.566398 1_555
Mo1_3 Se1_7 2.566403 1_455
Mo1_4 Se2_4 2.545339 1_555
Mo1_4 Se2_6 2.545341 1_555
Mo1_4 Se2_0 2.545342 1_555
Mo1_4 Se1_6 2.566355 1_555
Mo1_4 Se1_4 2.566398 1_555
Mo1_4 Se1_0 2.566403 1_555
Mo1_5 Se2_5 2.545339 1_555
Mo1_5 Se2_7 2.545341 1_555
Mo1_5 Se2_1 2.545342 1_555
Mo1_5 Se1_7 2.566355 1_555
Mo1_5 Se1_5 2.566398 1_555
Mo1_5 Se1_1 2.566403 1_555
Mo1_6 Se2_6 2.545339 1_555
Mo1_6 Se2_4 2.545341 1_565
Mo1_6 Se2_2 2.545342 1_555
Mo1_6 Se1_4 2.566355 1_565
Mo1_6 Se1_6 2.566398 1_555
Mo1_6 Se1_2 2.566403 1_555
Mo1_7 Se2_7 2.545339 1_555
Mo1_7 Se2_5 2.545341 1_565
Mo1_7 Se2_3 2.545342 1_555
Mo1_7 Se1_5 2.566355 1_565
Mo1_7 Se1_7 2.566398 1_555
Mo1_7 Se1_3 2.566403 1_555
Se0_0 W0_2 2.561243 1_555
Se0_0 W0_0 2.561338 1_555
Se0_0 W0_4 2.561339 1_455
Se0_1 W0_3 2.561243 1_555
Se0_1 W0_1 2.561338 1_555
Se0_1 W0_5 2.561339 1_455
Se0_2 W0_0 2.561243 1_565
Se0_2 W0_2 2.561338 1_555
Se0_2 W0_6 2.561339 1_455
Se0_3 W0_1 2.561243 1_565
Se0_3 W0_3 2.561338 1_555
Se0_3 W0_7 2.561339 1_455
Se0_4 W0_6 2.561243 1_555
Se0_4 W0_4 2.561338 1_555
Se0_4 W0_0 2.561339 1_555
Se0_5 W0_7 2.561243 1_555
Se0_5 W0_5 2.561338 1_555
Se0_5 W0_1 2.561339 1_555
Se0_6 W0_4 2.561243 1_565
Se0_6 W0_6 2.561338 1_555
Se0_6 W0_2 2.561339 1_555
Se0_7 W0_5 2.561243 1_565
Se0_7 W0_7 2.561338 1_555
Se0_7 W0_3 2.561339 1_555
Se3_0 W0_2 2.553695 1_555
Se3_0 W0_0 2.553767 1_555
Se3_0 W0_4 2.553768 1_455
Se3_1 W0_3 2.553695 1_555
Se3_1 W0_1 2.553767 1_555
Se3_1 W0_5 2.553768 1_455
Se3_2 W0_0 2.553695 1_565
Se3_2 W0_2 2.553767 1_555
Se3_2 W0_6 2.553768 1_455
Se3_3 W0_1 2.553695 1_565
Se3_3 W0_3 2.553767 1_555
Se3_3 W0_7 2.553768 1_455
Se3_4 W0_6 2.553695 1_555
Se3_4 W0_4 2.553767 1_555
Se3_4 W0_0 2.553768 1_555
Se3_5 W0_7 2.553695 1_555
Se3_5 W0_5 2.553767 1_555
Se3_5 W0_1 2.553768 1_555
Se3_6 W0_4 2.553695 1_565
Se3_6 W0_6 2.553767 1_555
Se3_6 W0_2 2.553768 1_555
Se3_7 W0_5 2.553695 1_565
Se3_7 W0_7 2.553767 1_555
Se3_7 W0_3 2.553768 1_555
S0_0 W1_2 2.455242 1_555
S0_0 W1_0 2.455263 1_555
S0_0 W1_4 2.455271 1_455
S0_1 W1_3 2.455242 1_555
S0_1 W1_1 2.455263 1_555
S0_1 W1_5 2.455271 1_455
S0_2 W1_0 2.455242 1_565
S0_2 W1_2 2.455263 1_555
S0_2 W1_6 2.455271 1_455
S0_3 W1_1 2.455242 1_565
S0_3 W1_3 2.455263 1_555
S0_3 W1_7 2.455271 1_455
S0_4 W1_6 2.455242 1_555
S0_4 W1_4 2.455263 1_555
S0_4 W1_0 2.455271 1_555
S0_5 W1_7 2.455242 1_555
S0_5 W1_5 2.455263 1_555
S0_5 W1_1 2.455271 1_555
S0_6 W1_4 2.455242 1_565
S0_6 W1_6 2.455263 1_555
S0_6 W1_2 2.455271 1_555
S0_7 W1_5 2.455242 1_565
S0_7 W1_7 2.455263 1_555
S0_7 W1_3 2.455271 1_555
S1_0 W1_2 2.456937 1_555
S1_0 W1_0 2.456975 1_555
S1_0 W1_4 2.456981 1_455
S1_1 W1_3 2.456937 1_555
S1_1 W1_1 2.456975 1_555
S1_1 W1_5 2.456981 1_455
S1_2 W1_0 2.456937 1_565
S1_2 W1_2 2.456975 1_555
S1_2 W1_6 2.456981 1_455
S1_3 W1_1 2.456937 1_565
S1_3 W1_3 2.456975 1_555
S1_3 W1_7 2.456981 1_455
S1_4 W1_6 2.456937 1_555
S1_4 W1_4 2.456975 1_555
S1_4 W1_0 2.456981 1_555
S1_5 W1_7 2.456937 1_555
S1_5 W1_5 2.456975 1_555
S1_5 W1_1 2.456981 1_555
S1_6 W1_4 2.456937 1_565
S1_6 W1_6 2.456975 1_555
S1_6 W1_2 2.456981 1_555
S1_7 W1_5 2.456937 1_565
S1_7 W1_7 2.456975 1_555
S1_7 W1_3 2.456981 1_555
