# generated using pymatgen
data_MgFe4(PO3)12
_symmetry_space_group_name_H-M   'P 1'
_cell_length_a   8.72154487
_cell_length_b   8.69328044
_cell_length_c   8.86698076
_cell_angle_alpha   90.97460934
_cell_angle_beta   91.86873392
_cell_angle_gamma   90.61734035
_symmetry_Int_Tables_number   1
_chemical_formula_structural   MgFe4(PO3)12
_chemical_formula_sum   'Mg1 Fe4 P12 O36'
_cell_volume   671.78622610
_cell_formula_units_Z   1
loop_
 _symmetry_equiv_pos_site_id
 _symmetry_equiv_pos_as_xyz
  1  'x, y, z'
loop_
 _atom_site_type_symbol
 _atom_site_label
 _atom_site_symmetry_multiplicity
 _atom_site_fract_x
 _atom_site_fract_y
 _atom_site_fract_z
 _atom_site_occupancy
  Mg  Mg0  1  0.48095700  0.59077000  0.94843000  1
  Fe  Fe0  1  0.86537400  0.64850000  0.35907800  1
  Fe  Fe1  1  0.64944400  0.34024200  0.81908100  1
  Fe  Fe2  1  0.36897200  0.86067100  0.63590200  1
  Fe  Fe3  1  0.12701900  0.14184000  0.15229900  1
  P  P0  1  0.69373300  0.98588200  0.81988200  1
  P  P1  1  0.70507000  0.31089200  0.43261400  1
  P  P2  1  0.81457400  0.69748400  0.95612400  1
  P  P3  1  0.82166200  0.01386700  0.30542000  1
  P  P4  1  0.03087000  0.68191200  0.69050500  1
  P  P5  1  0.16889400  0.50813300  0.21559800  1
  P  P6  1  0.20029100  0.18273400  0.55235700  1
  P  P7  1  0.29138000  0.79415500  0.06628900  1
  P  P8  1  0.30495200  0.49313900  0.66655200  1
  P  P9  1  0.44550900  0.33228000  0.19619200  1
  P  P10  1  0.54390300  0.82785100  0.31077200  1
  P  P11  1  0.97403900  0.17743300  0.80895800  1
  O  O0  1  0.64195200  0.69437800  0.35883300  1
  O  O1  1  0.96300400  0.70518600  0.85756000  1
  O  O2  1  0.89763900  0.88008200  0.38155300  1
  O  O3  1  0.90034500  0.63274400  0.58343800  1
  O  O4  1  0.04768700  0.20389500  0.64798600  1
  O  O5  1  0.08805400  0.37103700  0.14352500  1
  O  O6  1  0.09336100  0.12662500  0.92479700  1
  O  O7  1  0.09118400  0.59797100  0.33656700  1
  O  O8  1  0.12689900  0.81775700  0.65421200  1
  O  O9  1  0.13797000  0.53474700  0.72809900  1
  O  O10  1  0.15104900  0.14770700  0.39082600  1
  O  O11  1  0.19531600  0.91527400  0.13286400  1
  O  O12  1  0.21536300  0.62340200  0.08162200  1
  O  O13  1  0.26591100  0.35799000  0.54986100  1
  O  O14  1  0.31504600  0.08999600  0.63762600  1
  O  O15  1  0.34577900  0.78481300  0.90604900  1
  O  O16  1  0.33691500  0.45884100  0.27641500  1
  O  O17  1  0.34989700  0.19628000  0.14148100  1
  O  O18  1  0.39917700  0.43314100  0.80114400  1
  O  O19  1  0.42749100  0.89502000  0.40897900  1
  O  O20  1  0.37588500  0.62501600  0.58818500  1
  O  O21  1  0.45658700  0.76642300  0.15442600  1
  O  O22  1  0.54939400  0.27638400  0.33299500  1
  O  O23  1  0.88304500  0.31665600  0.84837900  1
  O  O24  1  0.53769000  0.41669200  0.08259700  1
  O  O25  1  0.60589800  0.89887600  0.69803500  1
  O  O26  1  0.90500300  0.08783600  0.17849000  1
  O  O27  1  0.65270100  0.96123300  0.24317400  1
  O  O28  1  0.65812800  0.34311900  0.58951900  1
  O  O29  1  0.69351100  0.59091300  0.88078000  1
  O  O30  1  0.74542700  0.86752300  0.95268400  1
  O  O31  1  0.78196900  0.14253100  0.43014500  1
  O  O32  1  0.80555600  0.42291400  0.35275200  1
  O  O33  1  0.86042800  0.66720200  0.11702300  1
  O  O34  1  0.86042400  0.03430600  0.76007400  1
  O  O35  1  0.62042000  0.12144900  0.89561700  1
loop_
_geom_bond_atom_site_label_1
_geom_bond_atom_site_label_2
_geom_bond_distance
_geom_bond_site_symmetry_2
Mg0 O29 1.966951 1_555
Mg0 O18 1.987304 1_555
Mg0 O24 1.997298 1_556
Mg0 O15 2.100530 1_555
Mg0 O21 2.377113 1_556
Mg0 O12 2.649926 1_556
Fe0 O0 1.993127 1_555
Fe0 O3 2.009995 1_555
Fe0 O32 2.023232 1_555
Fe0 O2 2.035286 1_555
Fe0 O7 2.037811 1_655
Fe0 O33 2.154267 1_555
Fe1 O28 2.039965 1_555
Fe1 O35 2.046237 1_555
Fe1 O23 2.058316 1_555
Fe1 O29 2.263494 1_555
Fe1 O18 2.336978 1_555
Fe1 O24 2.638369 1_556
Fe2 O14 2.053158 1_565
Fe2 O20 2.086700 1_555
Fe2 O19 2.117172 1_555
Fe2 O25 2.142060 1_555
Fe2 O8 2.151827 1_555
Fe2 O15 2.509212 1_555
Fe3 O17 2.001393 1_555
Fe3 O26 2.009261 1_455
Fe3 O5 2.027223 1_555
Fe3 O6 2.030875 1_554
Fe3 O11 2.069846 1_545
Fe3 O10 2.118254 1_555
O0 P10 1.507861 1_555
O1 P2 1.586833 1_555
O1 P4 1.623273 1_655
O2 P3 1.503858 1_565
O3 P4 1.511661 1_655
O4 P11 1.603299 1_455
O4 P6 1.611777 1_555
O5 P5 1.500840 1_555
O6 P11 1.512856 1_455
O7 P5 1.500048 1_555
O8 P4 1.486207 1_555
O9 P8 1.614330 1_555
O9 P4 1.624900 1_555
O10 P6 1.506934 1_555
O11 P7 1.479593 1_555
O12 P5 1.625666 1_555
O12 P7 1.628811 1_555
O13 P8 1.579223 1_555
O13 P6 1.622471 1_555
O14 P6 1.487300 1_555
O15 P7 1.513725 1_556
O16 P5 1.609871 1_555
O16 P9 1.628891 1_555
O17 P9 1.503784 1_555
O18 P8 1.529082 1_555
O19 P10 1.477569 1_555
O20 P8 1.489888 1_555
O21 P10 1.638344 1_555
O21 P7 1.638722 1_555
O22 P9 1.576808 1_555
O22 P1 1.617925 1_555
O23 P11 1.497074 1_555
O24 P9 1.504868 1_555
O25 P0 1.493977 1_555
O26 P3 1.508788 1_555
O27 P3 1.615342 1_565
O27 P10 1.625172 1_555
O28 P1 1.485970 1_555
O29 P2 1.526869 1_555
O30 P2 1.602882 1_555
O30 P0 1.632538 1_555
O31 P3 1.607867 1_555
O31 P1 1.616620 1_555
O32 P1 1.504469 1_555
O33 P2 1.497501 1_554
O34 P0 1.617615 1_545
O34 P11 1.626338 1_555
O35 P0 1.505336 1_545
