# generated using pymatgen
data_MgCr4(WO6)2
_symmetry_space_group_name_H-M   'P 1'
_cell_length_a   4.82428780
_cell_length_b   4.83122039
_cell_length_c   9.49875202
_cell_angle_alpha   89.99934091
_cell_angle_beta   89.99375615
_cell_angle_gamma   94.14342035
_symmetry_Int_Tables_number   1
_chemical_formula_structural   MgCr4(WO6)2
_chemical_formula_sum   'Mg1 Cr4 W2 O12'
_cell_volume   220.81064644
_cell_formula_units_Z   1
loop_
 _symmetry_equiv_pos_site_id
 _symmetry_equiv_pos_as_xyz
  1  'x, y, z'
loop_
 _atom_site_type_symbol
 _atom_site_label
 _atom_site_symmetry_multiplicity
 _atom_site_fract_x
 _atom_site_fract_y
 _atom_site_fract_z
 _atom_site_occupancy
  Mg  Mg0  1  0.30586100  0.69048900  0.00023800  1
  Cr  Cr0  1  0.00244900  0.99856700  0.34020300  1
  Cr  Cr1  1  0.54252100  0.45888700  0.19052800  1
  Cr  Cr2  1  0.54191100  0.45811500  0.80978300  1
  Cr  Cr3  1  0.00272800  0.99740500  0.65958800  1
  W  W0  1  0.95768600  0.04175200  0.99984400  1
  W  W1  1  0.49704500  0.50346900  0.50009100  1
  O  O0  1  0.30560200  0.29581100  0.99988300  1
  O  O1  1  0.21073200  0.79021100  0.49992400  1
  O  O2  1  0.79587600  0.20426700  0.49997300  1
  O  O3  1  0.70252500  0.69451000  0.99998600  1
  O  O4  1  0.69947200  0.69046200  0.66282400  1
  O  O5  1  0.30980500  0.30057600  0.66266500  1
  O  O6  1  0.70013500  0.69061200  0.33750500  1
  O  O7  1  0.16073700  0.83928100  0.16263200  1
  O  O8  1  0.80675900  0.19314500  0.17259500  1
  O  O9  1  0.80720300  0.19296900  0.82705400  1
  O  O10  1  0.30939600  0.30171700  0.33726100  1
  O  O11  1  0.16100300  0.83831300  0.83742100  1
loop_
_geom_bond_atom_site_label_1
_geom_bond_atom_site_label_2
_geom_bond_distance
_geom_bond_site_symmetry_2
Mg0 O7 1.859800 1_555
Mg0 O11 1.860803 1_554
Mg0 O0 1.906690 1_554
Mg0 O3 1.912317 1_554
Cr0 O10 2.006277 1_565
Cr0 O6 2.006919 1_455
Cr0 O7 2.026070 1_555
Cr0 O2 2.103979 1_465
Cr0 O8 2.106695 1_465
Cr0 O1 2.114506 1_555
Cr1 O8 1.881165 1_555
Cr1 O6 1.912545 1_555
Cr1 O10 1.913188 1_555
Cr1 O3 2.245021 1_554
Cr1 O0 2.253168 1_554
Cr2 O9 1.882226 1_555
Cr2 O4 1.913864 1_555
Cr2 O5 1.913937 1_555
Cr2 O3 2.245292 1_555
Cr2 O0 2.246207 1_555
Cr3 O4 2.006689 1_455
Cr3 O5 2.006799 1_565
Cr3 O11 2.027860 1_555
Cr3 O2 2.106591 1_465
Cr3 O9 2.107440 1_465
Cr3 O1 2.110430 1_555
O0 W0 2.006496 1_455
O1 W1 2.025704 1_555
O2 W1 2.113998 1_555
O3 W0 2.007790 1_565
O4 W1 2.008001 1_555
O5 W1 2.008283 1_555
O6 W1 2.008501 1_555
O7 W0 2.108593 1_464
O8 W0 1.958177 1_554
O9 W0 1.957413 1_555
O10 W1 2.008639 1_555
O11 W0 2.108884 1_465
