# generated using pymatgen
data_Sr2YMgSbO6
_symmetry_space_group_name_H-M   'P 1'
_cell_length_a   7.49552880
_cell_length_b   6.18899629
_cell_length_c   6.18899589
_cell_angle_alpha   59.99999609
_cell_angle_beta   65.61626074
_cell_angle_gamma   65.61625365
_symmetry_Int_Tables_number   1
_chemical_formula_structural   Sr2YMgSbO6
_chemical_formula_sum   'Sr2 Y1 Mg1 Sb1 O6'
_cell_volume   218.57032321
_cell_formula_units_Z   1
loop_
 _symmetry_equiv_pos_site_id
 _symmetry_equiv_pos_as_xyz
  1  'x, y, z'
loop_
 _atom_site_type_symbol
 _atom_site_label
 _atom_site_symmetry_multiplicity
 _atom_site_fract_x
 _atom_site_fract_y
 _atom_site_fract_z
 _atom_site_occupancy
  Sr  Sr0  1  0.52052956  0.15982348  0.15982348  1
  Sr  Sr1  1  0.86553591  0.71148803  0.71148803  1
  Y  Y0  1  0.01308783  0.99563739  0.99563739  1
  Mg  Mg0  1  0.78885066  0.40371611  0.40371611  1
  Sb  Sb0  1  0.34490554  0.55169815  0.55169815  1
  O  O0  1  0.18267607  0.75800500  0.75800500  1
  O  O1  1  0.18267607  0.75800500  0.30131393  1
  O  O2  1  0.77510410  0.23134688  0.76220215  1
  O  O3  1  0.18267607  0.30131393  0.75800500  1
  O  O4  1  0.77510410  0.23134688  0.23134688  1
  O  O5  1  0.77510410  0.76220215  0.23134688  1
loop_
_geom_bond_atom_site_label_1
_geom_bond_atom_site_label_2
_geom_bond_distance
_geom_bond_site_symmetry_2
Mg0 O4 1.899020 1_555
Mg0 O2 1.899025 1_555
Mg0 O5 1.899025 1_555
O0 Sb0 1.950787 1_555
O0 Y0 2.239980 1_555
O0 Sr1 2.651330 1_455
O1 Sb0 1.950787 1_555
O1 Y0 2.239980 1_554
O1 Sr1 2.651330 1_455
O2 Y0 2.295438 1_645
O2 Sr0 2.371460 1_556
O2 Sr1 3.153271 1_545
O2 Sr1 3.153271 1_555
O3 Sb0 1.950788 1_555
O3 Y0 2.239980 1_545
O3 Sr1 2.651330 1_455
O4 Y0 2.295438 1_644
O4 Sr0 2.371460 1_555
O4 Sr1 3.153271 1_545
O4 Sr1 3.153271 1_554
O5 Y0 2.295439 1_654
O5 Sr0 2.371460 1_565
O5 Sr1 3.153271 1_554
O5 Sr1 3.153271 1_555
