# generated using pymatgen
data_EuGa2
_symmetry_space_group_name_H-M   'P 1'
_cell_length_a   4.55739514
_cell_length_b   5.84611557
_cell_length_c   5.84607333
_cell_angle_alpha   80.49494708
_cell_angle_beta   67.05902664
_cell_angle_gamma   67.05921001
_symmetry_Int_Tables_number   1
_chemical_formula_structural   EuGa2
_chemical_formula_sum   'Eu2 Ga4'
_cell_volume   132.07716170
_cell_formula_units_Z   2
loop_
 _symmetry_equiv_pos_site_id
 _symmetry_equiv_pos_as_xyz
  1  'x, y, z'
loop_
 _atom_site_type_symbol
 _atom_site_label
 _atom_site_symmetry_multiplicity
 _atom_site_fract_x
 _atom_site_fract_y
 _atom_site_fract_z
 _atom_site_occupancy
  Eu  Eu0  1  0.04440744  0.20559311  0.70559301  1
  Eu  Eu1  1  0.95559256  0.79440689  0.29440699  1
  Ga  Ga0  1  0.33899882  0.59922386  0.72277750  1
  Ga  Ga1  1  0.66100118  0.40077614  0.27722250  1
  Ga  Ga2  1  0.33899925  0.22277750  0.09922301  1
  Ga  Ga3  1  0.66100075  0.77722250  0.90077699  1
loop_
_geom_bond_atom_site_label_1
_geom_bond_atom_site_label_2
_geom_bond_distance
_geom_bond_site_symmetry_2
Eu0 Ga2 3.114167 1_556
Eu0 Ga2 3.114174 1_456
Eu0 Ga0 3.114182 1_555
Eu0 Ga0 3.114189 1_455
Eu0 Ga2 3.264378 1_555
Eu0 Ga0 3.264402 1_545
Eu0 Ga1 3.267380 1_456
Eu0 Ga3 3.267403 1_455
Eu0 Ga1 3.397032 1_555
Eu0 Ga1 3.397032 1_455
Eu0 Ga3 3.397044 1_445
Eu0 Ga3 3.397044 1_545
Eu1 Ga3 3.114167 1_554
Eu1 Ga3 3.114174 1_654
Eu1 Ga1 3.114182 1_555
Eu1 Ga1 3.114189 1_655
Eu1 Ga3 3.264378 1_555
Eu1 Ga1 3.264402 1_565
Eu1 Ga0 3.267380 1_654
Eu1 Ga2 3.267403 1_655
Eu1 Ga0 3.397032 1_555
Eu1 Ga0 3.397032 1_655
Eu1 Ga2 3.397044 1_665
Eu1 Ga2 3.397044 1_565
Ga0 Ga1 2.641055 1_555
Ga0 Ga3 2.656634 1_455
Ga0 Ga3 2.656641 1_555
Ga0 Ga2 2.843752 1_556
Ga1 Ga2 2.656634 1_655
Ga1 Ga2 2.656641 1_555
Ga1 Ga3 2.843752 1_554
Ga2 Ga3 2.641066 1_544
