# generated using pymatgen
data_KTiF4
_symmetry_space_group_name_H-M   'P 1'
_cell_length_a   7.71064927
_cell_length_b   7.92727462
_cell_length_c   12.04598340
_cell_angle_alpha   90.00000000
_cell_angle_beta   90.00000000
_cell_angle_gamma   90.00000000
_symmetry_Int_Tables_number   1
_chemical_formula_structural   KTiF4
_chemical_formula_sum   'K8 Ti8 F32'
_cell_volume   736.30392045
_cell_formula_units_Z   8
loop_
 _symmetry_equiv_pos_site_id
 _symmetry_equiv_pos_as_xyz
  1  'x, y, z'
loop_
 _atom_site_type_symbol
 _atom_site_label
 _atom_site_symmetry_multiplicity
 _atom_site_fract_x
 _atom_site_fract_y
 _atom_site_fract_z
 _atom_site_occupancy
  K  K0  1  0.25000000  0.87775875  0.98819038  1
  K  K1  1  0.75000000  0.12224125  0.01180962  1
  K  K2  1  0.75000000  0.37775875  0.51180962  1
  K  K3  1  0.25000000  0.62224125  0.48819038  1
  K  K4  1  0.25000000  0.37568714  0.96973676  1
  K  K5  1  0.75000000  0.62431286  0.03026324  1
  K  K6  1  0.75000000  0.87568714  0.53026324  1
  K  K7  1  0.25000000  0.12431286  0.46973676  1
  Ti  Ti0  1  0.50094376  0.62732778  0.75318789  1
  Ti  Ti1  1  0.00094376  0.37267222  0.24681211  1
  Ti  Ti2  1  0.49905624  0.12732778  0.74681211  1
  Ti  Ti3  1  0.99905624  0.87267222  0.25318789  1
  Ti  Ti4  1  0.49905624  0.37267222  0.24681211  1
  Ti  Ti5  1  0.99905624  0.62732778  0.75318789  1
  Ti  Ti6  1  0.50094376  0.87267222  0.25318789  1
  Ti  Ti7  1  0.00094376  0.12732778  0.74681211  1
  F  F0  1  0.25000000  0.82309252  0.21366505  1
  F  F1  1  0.75000000  0.17690748  0.78633495  1
  F  F2  1  0.75000000  0.32309252  0.28633495  1
  F  F3  1  0.25000000  0.67690748  0.71366505  1
  F  F4  1  0.25000000  0.42158293  0.20410455  1
  F  F5  1  0.75000000  0.57841707  0.79589545  1
  F  F6  1  0.75000000  0.92158293  0.29589545  1
  F  F7  1  0.25000000  0.07841707  0.70410455  1
  F  F8  1  0.55483846  0.87729575  0.74677667  1
  F  F9  1  0.05483846  0.12270425  0.25322333  1
  F  F10  1  0.44516154  0.37729575  0.75322333  1
  F  F11  1  0.94516154  0.62270425  0.24677667  1
  F  F12  1  0.44516154  0.12270425  0.25322333  1
  F  F13  1  0.94516154  0.87729575  0.74677667  1
  F  F14  1  0.55483846  0.62270425  0.24677667  1
  F  F15  1  0.05483846  0.37729575  0.75322333  1
  F  F16  1  0.05366359  0.11475229  0.90057792  1
  F  F17  1  0.55366359  0.88524771  0.09942208  1
  F  F18  1  0.94633641  0.61475229  0.59942208  1
  F  F19  1  0.44633641  0.38524771  0.40057792  1
  F  F20  1  0.94633641  0.88524771  0.09942208  1
  F  F21  1  0.44633641  0.11475229  0.90057792  1
  F  F22  1  0.05366359  0.38524771  0.40057792  1
  F  F23  1  0.55366359  0.61475229  0.59942208  1
  F  F24  1  0.05038619  0.63792781  0.90725399  1
  F  F25  1  0.55038619  0.36207219  0.09274601  1
  F  F26  1  0.94961381  0.13792781  0.59274601  1
  F  F27  1  0.44961381  0.86207219  0.40725399  1
  F  F28  1  0.94961381  0.36207219  0.09274601  1
  F  F29  1  0.44961381  0.63792781  0.90725399  1
  F  F30  1  0.05038619  0.86207219  0.40725399  1
  F  F31  1  0.55038619  0.13792781  0.59274601  1
loop_
_geom_bond_atom_site_label_1
_geom_bond_atom_site_label_2
_geom_bond_distance
_geom_bond_site_symmetry_2
F0 Ti6 2.031041 1_555
F0 Ti3 2.031041 1_455
F0 K0 2.750418 1_554
F1 Ti7 2.031041 1_655
F1 Ti2 2.031041 1_555
F1 K1 2.750418 1_556
F2 Ti1 2.031041 1_655
F2 Ti4 2.031041 1_555
F2 K2 2.750418 1_555
F3 Ti0 2.031041 1_555
F3 Ti5 2.031041 1_455
F3 K3 2.750418 1_555
F4 Ti4 2.025556 1_555
F4 Ti1 2.025556 1_555
F4 K4 2.846538 1_554
F5 Ti0 2.025556 1_555
F5 Ti5 2.025556 1_555
F5 K5 2.846538 1_556
F6 Ti6 2.025556 1_555
F6 Ti3 2.025556 1_555
F6 K6 2.846538 1_555
F7 Ti7 2.025556 1_555
F7 Ti2 2.025556 1_555
F7 K7 2.846538 1_555
F8 Ti0 2.026143 1_555
F8 Ti2 2.028204 1_565
F8 K6 3.011134 1_555
F9 Ti1 2.026143 1_555
F9 Ti3 2.028204 1_445
F9 K7 3.011134 1_555
F10 Ti2 2.026143 1_555
F10 Ti0 2.028204 1_555
F10 K4 3.011134 1_555
F11 Ti3 2.026143 1_555
F11 Ti1 2.028204 1_655
F11 K5 3.011134 1_555
F12 Ti4 2.026143 1_555
F12 Ti6 2.028204 1_545
F12 K7 3.011134 1_555
F13 Ti5 2.026143 1_555
F13 Ti7 2.028204 1_665
F13 K6 3.011134 1_555
F14 Ti6 2.026143 1_555
F14 Ti4 2.028204 1_555
F14 K5 3.011134 1_555
F15 Ti7 2.026143 1_555
F15 Ti5 2.028204 1_455
F15 K4 3.011134 1_555
F16 Ti7 1.898961 1_555
F16 K0 2.633481 1_545
F16 K4 2.695287 1_555
F16 K1 2.698370 1_456
F17 Ti6 1.898961 1_555
F17 K1 2.633481 1_565
F17 K5 2.695287 1_555
F17 K0 2.698370 1_554
F18 Ti5 1.898961 1_555
F18 K2 2.633481 1_555
F18 K6 2.695287 1_555
F18 K3 2.698370 1_655
F19 Ti4 1.898961 1_555
F19 K3 2.633481 1_555
F19 K7 2.695287 1_555
F19 K2 2.698370 1_555
F20 Ti3 1.898961 1_555
F20 K1 2.633481 1_565
F20 K5 2.695287 1_555
F20 K0 2.698370 1_654
F21 Ti2 1.898961 1_555
F21 K0 2.633481 1_545
F21 K4 2.695287 1_555
F21 K1 2.698370 1_556
F22 Ti1 1.898961 1_555
F22 K3 2.633481 1_555
F22 K7 2.695287 1_555
F22 K2 2.698370 1_455
F23 Ti0 1.898961 1_555
F23 K2 2.633481 1_555
F23 K6 2.695287 1_555
F23 K3 2.698370 1_555
F24 Ti5 1.899471 1_455
F24 K0 2.633271 1_555
F24 K4 2.693906 1_555
F24 K5 2.751716 1_456
F25 Ti4 1.899471 1_555
F25 K1 2.633271 1_555
F25 K5 2.693906 1_555
F25 K4 2.751716 1_554
F26 Ti7 1.899471 1_655
F26 K2 2.633271 1_555
F26 K6 2.693906 1_545
F26 K7 2.751716 1_655
F27 Ti6 1.899471 1_555
F27 K3 2.633271 1_555
F27 K7 2.693906 1_565
F27 K6 2.751716 1_555
F28 Ti1 1.899471 1_655
F28 K1 2.633271 1_555
F28 K5 2.693906 1_555
F28 K4 2.751716 1_654
F29 Ti0 1.899471 1_555
F29 K0 2.633271 1_555
F29 K4 2.693906 1_555
F29 K5 2.751716 1_556
F30 Ti3 1.899471 1_455
F30 K3 2.633271 1_555
F30 K7 2.693906 1_565
F30 K6 2.751716 1_455
F31 Ti2 1.899471 1_555
F31 K2 2.633271 1_555
F31 K6 2.693906 1_545
F31 K7 2.751716 1_555
