# generated using pymatgen
data_MgTiMn3O8
_symmetry_space_group_name_H-M   'P 1'
_cell_length_a   10.59993655
_cell_length_b   10.54410976
_cell_length_c   14.99615846
_cell_angle_alpha   19.25955778
_cell_angle_beta   19.06991820
_cell_angle_gamma   33.05710666
_symmetry_Int_Tables_number   1
_chemical_formula_structural   MgTiMn3O8
_chemical_formula_sum   'Mg1 Ti1 Mn3 O8'
_cell_volume   156.22049279
_cell_formula_units_Z   1
loop_
 _symmetry_equiv_pos_site_id
 _symmetry_equiv_pos_as_xyz
  1  'x, y, z'
loop_
 _atom_site_type_symbol
 _atom_site_label
 _atom_site_symmetry_multiplicity
 _atom_site_fract_x
 _atom_site_fract_y
 _atom_site_fract_z
 _atom_site_occupancy
  Mg  Mg0  1  0.00000100  0.49999500  0.50000400  1
  Ti  Ti0  1  0.99999900  0.99998800  0.00001300  1
  Mn  Mn0  1  0.00000300  0.50001400  0.99997600  1
  Mn  Mn1  1  0.49999900  0.00000400  0.00000000  1
  Mn  Mn2  1  0.50000000  0.50000500  0.99999800  1
  O  O0  1  0.99962600  0.94555300  0.30069600  1
  O  O1  1  0.99959900  0.48987600  0.27426000  1
  O  O2  1  0.54514300  0.04940200  0.20032900  1
  O  O3  1  0.00037300  0.05444500  0.69930800  1
  O  O4  1  0.45494400  0.50395100  0.29086700  1
  O  O5  1  0.00040100  0.51011800  0.72574700  1
  O  O6  1  0.45486900  0.95060300  0.79965900  1
  O  O7  1  0.54504600  0.49604700  0.70914200  1
loop_
_geom_bond_atom_site_label_1
_geom_bond_atom_site_label_2
_geom_bond_distance
_geom_bond_site_symmetry_2
Mg0 O3 2.117553 1_555
Mg0 O0 2.117570 1_455
Mg0 O2 2.142631 1_456
Mg0 O6 2.142697 1_554
Mg0 O4 2.143576 1_555
Mg0 O7 2.143634 1_455
Mn0 O4 2.170501 1_456
Mn0 O7 2.170692 1_555
Mn0 O2 2.172728 1_565
Mn0 O6 2.172936 1_446
Mn0 O0 2.177799 1_446
Mn0 O3 2.177909 1_565
Mn1 O7 1.945642 1_554
Mn1 O4 1.945685 1_545
Mn1 O3 1.950014 1_654
Mn1 O0 1.950015 1_445
Mn1 O1 1.985173 1_554
Mn1 O5 1.985183 1_545
Mn2 O6 1.945450 1_555
Mn2 O2 1.945511 1_556
Mn2 O0 1.948960 1_555
Mn2 O3 1.948971 1_556
Mn2 O1 1.986303 1_456
Mn2 O5 1.986329 1_655
O1 Ti0 2.020918 1_555
O2 Ti0 1.977007 1_545
O4 Ti0 1.976414 1_446
O5 Ti0 2.020929 1_446
O6 Ti0 1.976923 1_456
O7 Ti0 1.976325 1_555
