# generated using pymatgen
data_SmSi3Rh5
_symmetry_space_group_name_H-M   'P 1'
_cell_length_a   15.70726207
_cell_length_b   15.70726207
_cell_length_c   3.90425300
_cell_angle_alpha   90.00000000
_cell_angle_beta   90.00000000
_cell_angle_gamma   120.00000031
_symmetry_Int_Tables_number   1
_chemical_formula_structural   SmSi3Rh5
_chemical_formula_sum   'Sm6 Si18 Rh30'
_cell_volume   834.19880404
_cell_formula_units_Z   6
loop_
 _symmetry_equiv_pos_site_id
 _symmetry_equiv_pos_as_xyz
  1  'x, y, z'
loop_
 _atom_site_type_symbol
 _atom_site_label
 _atom_site_symmetry_multiplicity
 _atom_site_fract_x
 _atom_site_fract_y
 _atom_site_fract_z
 _atom_site_occupancy
  Sm  Sm0  1  0.60599000  0.89967900  0.25000000  1
  Sm  Sm1  1  0.70631100  0.60599000  0.75000000  1
  Sm  Sm2  1  0.89967900  0.29368900  0.75000000  1
  Sm  Sm3  1  0.10032100  0.70631100  0.25000000  1
  Sm  Sm4  1  0.29368900  0.39401000  0.25000000  1
  Sm  Sm5  1  0.39401000  0.10032100  0.75000000  1
  Si  Si0  1  0.44069300  0.75936200  0.75000000  1
  Si  Si1  1  0.68133100  0.44069300  0.25000000  1
  Si  Si2  1  0.75936200  0.31866900  0.25000000  1
  Si  Si3  1  0.24063800  0.68133100  0.75000000  1
  Si  Si4  1  0.31866900  0.55930700  0.75000000  1
  Si  Si5  1  0.55930700  0.24063800  0.25000000  1
  Si  Si6  1  0.87988900  0.12925600  0.25000000  1
  Si  Si7  1  0.12011100  0.87074400  0.75000000  1
  Si  Si8  1  0.12925600  0.24936800  0.75000000  1
  Si  Si9  1  0.24936800  0.12011100  0.25000000  1
  Si  Si10  1  0.37063200  0.93714100  0.25000000  1
  Si  Si11  1  0.43349000  0.37063200  0.75000000  1
  Si  Si12  1  0.93714100  0.56651000  0.75000000  1
  Si  Si13  1  0.06285900  0.43349000  0.25000000  1
  Si  Si14  1  0.56651000  0.62936800  0.25000000  1
  Si  Si15  1  0.62936800  0.06285900  0.75000000  1
  Si  Si16  1  0.75063200  0.87988900  0.75000000  1
  Si  Si17  1  0.87074400  0.75063200  0.25000000  1
  Rh  Rh0  1  0.46324900  0.92494600  0.75000000  1
  Rh  Rh1  1  0.15246000  0.41456000  0.75000000  1
  Rh  Rh2  1  0.26210000  0.84754000  0.75000000  1
  Rh  Rh3  1  0.73790000  0.15246000  0.25000000  1
  Rh  Rh4  1  0.84754000  0.58544000  0.25000000  1
  Rh  Rh5  1  0.41456000  0.26210000  0.25000000  1
  Rh  Rh6  1  0.65201700  0.22354900  0.75000000  1
  Rh  Rh7  1  0.42846800  0.65201700  0.25000000  1
  Rh  Rh8  1  0.22354900  0.57153200  0.25000000  1
  Rh  Rh9  1  0.77645100  0.42846800  0.75000000  1
  Rh  Rh10  1  0.57153200  0.34798300  0.75000000  1
  Rh  Rh11  1  0.34798300  0.77645100  0.25000000  1
  Rh  Rh12  1  0.14286800  0.02955100  0.75000000  1
  Rh  Rh13  1  0.11331700  0.14286800  0.25000000  1
  Rh  Rh14  1  0.02955100  0.88668300  0.25000000  1
  Rh  Rh15  1  0.97044900  0.11331700  0.75000000  1
  Rh  Rh16  1  0.88668300  0.85713200  0.75000000  1
  Rh  Rh17  1  0.85713200  0.97044900  0.25000000  1
  Rh  Rh18  1  0.92494600  0.46169700  0.25000000  1
  Rh  Rh19  1  0.07505400  0.53830300  0.75000000  1
  Rh  Rh20  1  0.46169700  0.53675100  0.75000000  1
  Rh  Rh21  1  0.53675100  0.07505400  0.25000000  1
  Rh  Rh22  1  0.72895200  0.77281800  0.25000000  1
  Rh  Rh23  1  0.95613400  0.72895200  0.75000000  1
  Rh  Rh24  1  0.77281800  0.04386600  0.75000000  1
  Rh  Rh25  1  0.22718200  0.95613400  0.25000000  1
  Rh  Rh26  1  0.04386600  0.27104800  0.25000000  1
  Rh  Rh27  1  0.27104800  0.22718200  0.75000000  1
  Rh  Rh28  1  0.58544000  0.73790000  0.75000000  1
  Rh  Rh29  1  0.53830300  0.46324900  0.25000000  1
loop_
_geom_bond_atom_site_label_1
_geom_bond_atom_site_label_2
_geom_bond_distance
_geom_bond_site_symmetry_2
Si0 Sm0 3.112415 1_556
Si0 Sm0 3.112415 1_555
Si1 Sm1 3.112415 1_555
Si1 Sm1 3.112415 1_554
Si2 Sm2 3.112415 1_555
Si2 Sm2 3.112415 1_554
Si3 Sm3 3.112415 1_556
Si3 Sm3 3.112415 1_555
Si4 Sm4 3.112415 1_556
Si4 Sm4 3.112415 1_555
Si5 Sm5 3.112415 1_554
Si5 Sm5 3.112415 1_555
Si6 Sm2 3.126561 1_554
Si6 Sm2 3.126561 1_555
Si7 Sm3 3.126561 1_555
Si7 Sm3 3.126561 1_556
Si8 Sm4 3.126557 1_556
Si8 Sm4 3.126557 1_555
Si9 Sm5 3.126549 1_555
Si9 Sm5 3.126549 1_554
Si10 Sm5 3.094186 1_564
Si10 Sm5 3.094186 1_565
Si11 Sm4 3.094174 1_556
Si11 Sm4 3.094174 1_555
Si12 Sm3 3.094182 1_656
Si12 Sm3 3.094182 1_655
Si13 Sm2 3.094182 1_455
Si13 Sm2 3.094182 1_454
Si14 Sm1 3.094174 1_554
Si14 Sm1 3.094174 1_555
Si15 Sm0 3.094186 1_546
Si15 Sm0 3.094186 1_545
Si16 Sm0 3.126549 1_556
Si16 Sm0 3.126549 1_555
Si17 Sm1 3.126557 1_555
Si17 Sm1 3.126557 1_554
Rh0 Si15 2.418385 1_565
Rh0 Si0 2.443069 1_555
Rh0 Si10 2.498494 1_556
Rh0 Si10 2.498494 1_555
Rh0 Sm0 3.144044 1_556
Rh0 Sm0 3.144044 1_555
Rh0 Sm5 3.430274 1_565
Rh1 Si8 2.433040 1_555
Rh1 Si4 2.459522 1_555
Rh1 Si13 2.509664 1_556
Rh1 Si13 2.509664 1_555
Rh1 Sm4 3.090627 1_556
Rh1 Sm4 3.090627 1_555
Rh1 Sm2 3.439644 1_455
Rh2 Si7 2.433055 1_555
Rh2 Si3 2.459522 1_555
Rh2 Si10 2.509671 1_556
Rh2 Si10 2.509671 1_555
Rh2 Sm3 3.090627 1_556
Rh2 Sm3 3.090627 1_555
Rh2 Sm5 3.439644 1_565
Rh3 Si6 2.433055 1_555
Rh3 Si2 2.459522 1_555
Rh3 Si15 2.509671 1_554
Rh3 Si15 2.509671 1_555
Rh3 Sm2 3.090627 1_555
Rh3 Sm2 3.090627 1_554
Rh3 Sm0 3.439644 1_545
Rh4 Si17 2.433040 1_555
Rh4 Si1 2.459522 1_555
Rh4 Si12 2.509664 1_555
Rh4 Si12 2.509664 1_554
Rh4 Sm1 3.090627 1_554
Rh4 Sm1 3.090627 1_555
Rh4 Sm3 3.439644 1_655
Rh5 Si9 2.433046 1_555
Rh5 Si5 2.459522 1_555
Rh5 Si11 2.509674 1_554
Rh5 Si11 2.509674 1_555
Rh5 Sm5 3.090627 1_555
Rh5 Sm5 3.090627 1_554
Rh5 Sm4 3.439644 1_555
Rh6 Si15 2.366266 1_555
Rh6 Si2 2.523257 1_556
Rh6 Si2 2.523257 1_555
Rh6 Si5 2.528697 1_555
Rh6 Si5 2.528697 1_556
Rh6 Sm2 3.472871 1_555
Rh6 Sm5 3.510813 1_555
Rh7 Si14 2.366281 1_555
Rh7 Si0 2.523257 1_555
Rh7 Si0 2.523257 1_554
Rh7 Si4 2.528697 1_555
Rh7 Si4 2.528697 1_554
Rh7 Sm0 3.472871 1_555
Rh7 Sm4 3.510813 1_555
Rh8 Si13 2.366272 1_555
Rh8 Si4 2.523257 1_554
Rh8 Si4 2.523257 1_555
Rh8 Si3 2.528697 1_554
Rh8 Si3 2.528697 1_555
Rh8 Sm4 3.472871 1_555
Rh8 Sm3 3.510813 1_555
Rh9 Si12 2.366272 1_555
Rh9 Si1 2.523257 1_555
Rh9 Si1 2.523257 1_556
Rh9 Si2 2.528697 1_555
Rh9 Si2 2.528697 1_556
Rh9 Sm1 3.472871 1_555
Rh9 Sm2 3.510813 1_555
Rh10 Si11 2.366281 1_555
Rh10 Si5 2.523257 1_556
Rh10 Si5 2.523257 1_555
Rh10 Si1 2.528697 1_555
Rh10 Si1 2.528697 1_556
Rh10 Sm5 3.472871 1_555
Rh10 Sm1 3.510813 1_555
Rh11 Si10 2.366266 1_555
Rh11 Si3 2.523257 1_554
Rh11 Si3 2.523257 1_555
Rh11 Si0 2.528697 1_555
Rh11 Si0 2.528697 1_554
Rh11 Sm3 3.472871 1_555
Rh11 Sm0 3.510813 1_555
Rh12 Si7 2.336297 1_545
Rh12 Si9 2.500598 1_556
Rh12 Si9 2.500598 1_555
Rh12 Sm5 3.523030 1_555
Rh13 Si9 2.336313 1_555
Rh13 Si8 2.500602 1_554
Rh13 Si8 2.500602 1_555
Rh13 Sm4 3.523030 1_555
Rh14 Si17 2.336303 1_455
Rh14 Si7 2.500592 1_555
Rh14 Si7 2.500592 1_554
Rh14 Sm3 3.523030 1_555
Rh15 Si8 2.336303 1_655
Rh15 Si6 2.500592 1_555
Rh15 Si6 2.500592 1_556
Rh15 Sm2 3.523030 1_555
Rh16 Si16 2.336313 1_555
Rh16 Si17 2.500602 1_556
Rh16 Si17 2.500602 1_555
Rh16 Sm1 3.523030 1_555
Rh17 Si6 2.336297 1_565
Rh17 Si16 2.500598 1_554
Rh17 Si16 2.500598 1_555
Rh17 Sm0 3.523030 1_555
Rh18 Si13 2.418395 1_655
Rh18 Si2 2.443069 1_555
Rh18 Si12 2.498504 1_555
Rh18 Si12 2.498504 1_554
Rh18 Sm2 3.144044 1_555
Rh18 Sm2 3.144044 1_554
Rh18 Sm3 3.430274 1_655
Rh19 Si12 2.418395 1_455
Rh19 Si3 2.443069 1_555
Rh19 Si13 2.498504 1_555
Rh19 Si13 2.498504 1_556
Rh19 Sm3 3.144044 1_555
Rh19 Sm3 3.144044 1_556
Rh19 Sm2 3.430274 1_455
Rh20 Si11 2.418380 1_555
Rh20 Si4 2.443069 1_555
Rh20 Si14 2.498500 1_555
Rh20 Si14 2.498500 1_556
Rh20 Sm4 3.144044 1_556
Rh20 Sm4 3.144044 1_555
Rh20 Sm1 3.430274 1_555
Rh21 Si10 2.418385 1_545
Rh21 Si5 2.443069 1_555
Rh21 Si15 2.498494 1_554
Rh21 Si15 2.498494 1_555
Rh21 Sm5 3.144044 1_555
Rh21 Sm5 3.144044 1_554
Rh21 Sm0 3.430274 1_545
Rh22 Si14 2.416214 1_555
Rh22 Si17 2.420294 1_555
Rh22 Si16 2.486459 1_555
Rh22 Si16 2.486459 1_554
Rh22 Sm1 3.141963 1_554
Rh22 Sm1 3.141963 1_555
Rh22 Sm0 3.398452 1_555
Rh23 Si12 2.416208 1_555
Rh23 Si7 2.420285 1_655
Rh23 Si17 2.486450 1_556
Rh23 Si17 2.486450 1_555
Rh23 Sm3 3.141963 1_656
Rh23 Sm3 3.141963 1_655
Rh23 Sm1 3.398452 1_555
Rh24 Si15 2.416223 1_555
Rh24 Si16 2.420279 1_545
Rh24 Si6 2.486456 1_556
Rh24 Si6 2.486456 1_555
Rh24 Sm0 3.141963 1_546
Rh24 Sm0 3.141963 1_545
Rh24 Sm2 3.398452 1_555
Rh25 Si10 2.416223 1_555
Rh25 Si9 2.420279 1_565
Rh25 Si7 2.486456 1_554
Rh25 Si7 2.486456 1_555
Rh25 Sm5 3.141963 1_565
Rh25 Sm5 3.141963 1_564
Rh25 Sm3 3.398452 1_555
Rh26 Si13 2.416208 1_555
Rh26 Si6 2.420285 1_455
Rh26 Si8 2.486450 1_555
Rh26 Si8 2.486450 1_554
Rh26 Sm2 3.141963 1_454
Rh26 Sm2 3.141963 1_455
Rh26 Sm4 3.398452 1_555
Rh27 Si11 2.416214 1_555
Rh27 Si8 2.420294 1_555
Rh27 Si9 2.486459 1_555
Rh27 Si9 2.486459 1_556
Rh27 Sm4 3.141963 1_556
Rh27 Sm4 3.141963 1_555
Rh27 Sm5 3.398452 1_555
Rh28 Si16 2.433046 1_555
Rh28 Si0 2.459522 1_555
Rh28 Si14 2.509674 1_555
Rh28 Si14 2.509674 1_556
Rh28 Sm0 3.090627 1_556
Rh28 Sm0 3.090627 1_555
Rh28 Sm1 3.439644 1_555
Rh29 Si14 2.418380 1_555
Rh29 Si1 2.443069 1_555
Rh29 Si11 2.498500 1_554
Rh29 Si11 2.498500 1_555
Rh29 Sm1 3.144044 1_554
Rh29 Sm1 3.144044 1_555
Rh29 Sm4 3.430274 1_555
