# generated using pymatgen
data_KLi6BiO6
_symmetry_space_group_name_H-M   'P 1'
_cell_length_a   5.42058258
_cell_length_b   5.42058258
_cell_length_c   5.42058324
_cell_angle_alpha   101.50414810
_cell_angle_beta   101.50414810
_cell_angle_gamma   101.50414774
_symmetry_Int_Tables_number   1
_chemical_formula_structural   KLi6BiO6
_chemical_formula_sum   'K1 Li6 Bi1 O6'
_cell_volume   148.11446344
_cell_formula_units_Z   1
loop_
 _symmetry_equiv_pos_site_id
 _symmetry_equiv_pos_as_xyz
  1  'x, y, z'
loop_
 _atom_site_type_symbol
 _atom_site_label
 _atom_site_symmetry_multiplicity
 _atom_site_fract_x
 _atom_site_fract_y
 _atom_site_fract_z
 _atom_site_occupancy
  K  K0  1  0.50000000  0.50000000  0.50000000  1
  Li  Li0  1  0.00000000  0.34484014  0.65515986  1
  Li  Li1  1  0.65515986  -0.00000000  0.34484014  1
  Li  Li2  1  0.65515986  0.34484014  0.00000000  1
  Li  Li3  1  0.34484014  0.00000000  0.65515986  1
  Li  Li4  1  -0.00000000  0.65515986  0.34484014  1
  Li  Li5  1  0.34484014  0.65515986  0.00000000  1
  Bi  Bi0  1  -0.00000000  0.00000000  0.00000000  1
  O  O0  1  0.28061654  0.90760052  0.28061654  1
  O  O1  1  0.90760052  0.28061654  0.28061654  1
  O  O2  1  0.71938346  0.71938346  0.09239948  1
  O  O3  1  0.71938346  0.09239948  0.71938346  1
  O  O4  1  0.09239948  0.71938346  0.71938346  1
  O  O5  1  0.28061654  0.28061654  0.90760052  1
loop_
_geom_bond_atom_site_label_1
_geom_bond_atom_site_label_2
_geom_bond_distance
_geom_bond_site_symmetry_2
K0 Li0 3.007090 1_655
K0 Li4 3.007090 1_555
K0 Li3 3.007090 1_565
K0 Li1 3.007090 1_555
K0 Li3 3.007090 1_555
K0 Li4 3.007090 1_655
K0 Li1 3.007090 1_565
K0 Li0 3.007090 1_555
K0 Li5 3.007090 1_555
K0 Li5 3.007090 1_556
K0 Li2 3.007090 1_555
K0 Li2 3.007090 1_556
K0 O0 3.040047 1_555
K0 O1 3.040047 1_555
K0 O3 3.040047 1_555
K0 O4 3.040047 1_555
K0 O2 3.040047 1_555
K0 O5 3.040047 1_555
K0 O0 3.086970 1_545
K0 O1 3.086970 1_455
K0 O3 3.086970 1_565
K0 O4 3.086970 1_655
K0 O5 3.086970 1_554
K0 O2 3.086970 1_556
Li0 O4 1.933097 1_555
Li0 O1 1.933097 1_455
Li0 O3 1.969366 1_455
Li0 O5 1.969366 1_555
Li1 O0 1.933097 1_545
Li1 O3 1.933097 1_555
Li1 O1 1.969366 1_555
Li1 O2 1.969366 1_545
Li2 O2 1.933097 1_555
Li2 O5 1.933097 1_554
Li2 O3 1.969366 1_554
Li2 O1 1.969366 1_555
Li3 O3 1.933097 1_555
Li3 O0 1.933097 1_545
Li3 O4 1.969366 1_545
Li3 O5 1.969366 1_555
Li4 O1 1.933097 1_455
Li4 O4 1.933097 1_555
Li4 O0 1.969366 1_555
Li4 O2 1.969366 1_455
Li5 O2 1.933097 1_555
Li5 O5 1.933097 1_554
Li5 O0 1.969366 1_555
Li5 O4 1.969366 1_554
Bi0 O5 2.136177 1_554
Bi0 O2 2.136177 1_445
Bi0 O1 2.136177 1_455
Bi0 O0 2.136177 1_545
Bi0 O3 2.136177 1_454
Bi0 O4 2.136177 1_544
