# generated using pymatgen
data_Nb3GaSi3(SO8)3
_symmetry_space_group_name_H-M   'P 1'
_cell_length_a   8.82647011
_cell_length_b   8.85926995
_cell_length_c   22.77920536
_cell_angle_alpha   89.76396992
_cell_angle_beta   89.30054821
_cell_angle_gamma   119.85045450
_symmetry_Int_Tables_number   1
_chemical_formula_structural   Nb3GaSi3(SO8)3
_chemical_formula_sum   'Nb9 Ga3 Si9 S9 O72'
_cell_volume   1544.70052188
_cell_formula_units_Z   3
loop_
 _symmetry_equiv_pos_site_id
 _symmetry_equiv_pos_as_xyz
  1  'x, y, z'
loop_
 _atom_site_type_symbol
 _atom_site_label
 _atom_site_symmetry_multiplicity
 _atom_site_fract_x
 _atom_site_fract_y
 _atom_site_fract_z
 _atom_site_occupancy
  Nb  Nb0  1  0.00929359  0.98703311  0.85600751  1
  Nb  Nb1  1  0.01457705  0.01573957  0.64629179  1
  Nb  Nb2  1  0.99767233  0.99485502  0.13960145  1
  Nb  Nb3  1  0.67739422  0.33930772  0.97398046  1
  Nb  Nb4  1  0.66942892  0.32228531  0.47412299  1
  Nb  Nb5  1  0.34399272  0.68949059  0.02463875  1
  Nb  Nb6  1  0.33535347  0.65237917  0.52306650  1
  Nb  Nb7  1  0.34460663  0.67046240  0.31114921  1
  Nb  Nb8  1  0.34063370  0.66945163  0.80661198  1
  Ga  Ga0  1  0.00433916  0.01529405  0.35845744  1
  Ga  Ga1  1  0.68418697  0.34950261  0.69482186  1
  Ga  Ga2  1  0.67675658  0.32600714  0.18223801  1
  Si  Si0  1  0.30187031  0.28893643  0.74991192  1
  Si  Si1  1  0.99627656  0.70596971  0.74780643  1
  Si  Si2  1  0.94286902  0.33194286  0.58690331  1
  Si  Si3  1  0.94698482  0.60638217  0.08529008  1
  Si  Si4  1  0.66589241  0.05683509  0.08597098  1
  Si  Si5  1  0.61712515  0.66862724  0.91558840  1
  Si  Si6  1  0.33987095  0.95576498  0.91527674  1
  Si  Si7  1  0.62618698  0.94737330  0.41558506  1
  Si  Si8  1  0.33023926  0.37099619  0.41541184  1
  S  S0  1  0.28862382  0.00647541  0.25080062  1
  S  S1  1  0.71885824  0.70864477  0.25049357  1
  S  S2  1  0.99559810  0.28646435  0.25052023  1
  S  S3  1  0.71641122  0.00617307  0.74969594  1
  S  S4  1  0.38294515  0.04552112  0.58386977  1
  S  S5  1  0.67047331  0.61973824  0.58399729  1
  S  S6  1  0.38463640  0.33673818  0.08521929  1
  S  S7  1  0.05226194  0.38013023  0.91625366  1
  S  S8  1  0.04918735  0.67269282  0.41589153  1
  O  O0  1  0.20248203  0.02656738  0.30380916  1
  O  O1  1  0.82268237  0.79005281  0.30237740  1
  O  O2  1  0.96844827  0.17725242  0.30309779  1
  O  O3  1  0.19123295  0.16533917  0.80601883  1
  O  O4  1  0.97207076  0.80635468  0.80590572  1
  O  O5  1  0.82030556  0.02962651  0.80226302  1
  O  O6  1  0.79657462  0.97213590  0.69634924  1
  O  O7  1  0.16600379  0.19792235  0.69268397  1
  O  O8  1  0.02720846  0.83847689  0.69172498  1
  O  O9  1  0.79801504  0.82459214  0.19733852  1
  O  O10  1  0.03076068  0.20811156  0.19792275  1
  O  O11  1  0.17721044  0.97533771  0.19812789  1
  O  O12  1  0.84908767  0.35983231  0.64170152  1
  O  O13  1  0.48494600  0.11906942  0.63509821  1
  O  O14  1  0.62865306  0.51157701  0.63600741  1
  O  O15  1  0.86413261  0.50485882  0.14550450  1
  O  O16  1  0.62309555  0.12511350  0.14495821  1
  O  O17  1  0.48646563  0.36467598  0.13836930  1
  O  O18  1  0.45575018  0.29819805  0.03229942  1
  O  O19  1  0.82768633  0.52871177  0.02732497  1
  O  O20  1  0.69975172  0.17318978  0.02731941  1
  O  O21  1  0.46178683  0.15784892  0.52950478  1
  O  O22  1  0.69369249  0.53994832  0.53015015  1
  O  O23  1  0.82923538  0.30999672  0.52649292  1
  O  O24  1  0.51910719  0.68688921  0.97423137  1
  O  O25  1  0.15284569  0.45637369  0.96939906  1
  O  O26  1  0.30185550  0.83337946  0.97454190  1
  O  O27  1  0.52045236  0.82983906  0.47285316  1
  O  O28  1  0.30193954  0.47157194  0.47231191  1
  O  O29  1  0.15508523  0.69733809  0.46845401  1
  O  O30  1  0.12727854  0.63558715  0.36284500  1
  O  O31  1  0.49314919  0.85813417  0.35841501  1
  O  O32  1  0.36089658  0.50609900  0.35906117  1
  O  O33  1  0.12750050  0.49043216  0.86326685  1
  O  O34  1  0.36495941  0.85944023  0.85939719  1
  O  O35  1  0.49555542  0.63550158  0.85887231  1
  O  O36  1  0.02828937  0.82352061  0.40612785  1
  O  O37  1  0.80995389  0.96395634  0.40301374  1
  O  O38  1  0.16814344  0.18540011  0.40437012  1
  O  O39  1  0.02376174  0.20393236  0.90824602  1
  O  O40  1  0.16677872  0.97675474  0.90908328  1
  O  O41  1  0.80551448  0.84307559  0.90573088  1
  O  O42  1  0.96982054  0.16200981  0.59353272  1
  O  O43  1  0.20440657  0.02778307  0.58901088  1
  O  O44  1  0.82117119  0.79669754  0.59006431  1
  O  O45  1  0.97968659  0.80965491  0.09686274  1
  O  O46  1  0.83903980  0.03014407  0.09717172  1
  O  O47  1  0.20503694  0.17527287  0.09489862  1
  O  O48  1  0.68975007  0.15261718  0.74154081  1
  O  O49  1  0.47955964  0.29685285  0.73404705  1
  O  O50  1  0.82831265  0.52195235  0.74385910  1
  O  O51  1  0.68619989  0.53256578  0.24123449  1
  O  O52  1  0.84182555  0.30761008  0.24334295  1
  O  O53  1  0.46257452  0.15953279  0.24222289  1
  O  O54  1  0.64160916  0.49981036  0.92799622  1
  O  O55  1  0.87455197  0.36473214  0.92287697  1
  O  O56  1  0.50552221  0.14593365  0.92885736  1
  O  O57  1  0.63871131  0.13865339  0.42579624  1
  O  O58  1  0.50884509  0.36801026  0.43004278  1
  O  O59  1  0.87297515  0.51353713  0.42446084  1
  O  O60  1  0.35298399  0.48266887  0.07616287  1
  O  O61  1  0.13962072  0.63144373  0.07298080  1
  O  O62  1  0.50467331  0.85799322  0.07566286  1
  O  O63  1  0.35657061  0.86894264  0.57234528  1
  O  O64  1  0.50941097  0.64149738  0.57440961  1
  O  O65  1  0.13842756  0.50261712  0.57175003  1
  O  O66  1  0.30350100  0.84435726  0.25856557  1
  O  O67  1  0.53969318  0.69787053  0.25725856  1
  O  O68  1  0.15509974  0.46379074  0.25889201  1
  O  O69  1  0.30938362  0.47538109  0.76021005  1
  O  O70  1  0.17405750  0.69812051  0.76078781  1
  O  O71  1  0.54208742  0.84271664  0.75511033  1
loop_
_geom_bond_atom_site_label_1
_geom_bond_atom_site_label_2
_geom_bond_distance
_geom_bond_site_symmetry_2
Nb0 O4 1.863685 1_455
Nb0 O40 1.889011 1_555
Nb0 O3 1.945788 1_565
Nb0 O41 1.949208 1_455
Nb0 O39 2.214270 1_565
Nb0 O5 2.257521 1_465
Nb1 O7 1.846421 1_555
Nb1 O8 1.927031 1_545
Nb1 O42 1.946274 1_455
Nb1 O43 2.070946 1_555
Nb1 O6 2.086818 1_445
Nb1 O44 2.257553 1_445
Nb2 O45 1.850047 1_555
Nb2 O46 1.859749 1_565
Nb2 O47 1.992619 1_665
Nb2 O9 2.095595 1_555
Nb2 O11 2.154290 1_655
Nb2 O10 2.213721 1_665
Nb3 O54 1.913581 1_555
Nb3 O56 1.938610 1_555
Nb3 O19 1.972874 1_556
Nb3 O20 1.990300 1_556
Nb3 O55 1.998090 1_555
Nb3 O18 2.224405 1_556
Nb4 O57 1.874820 1_555
Nb4 O23 1.901956 1_555
Nb4 O58 1.945327 1_555
Nb4 O59 2.069453 1_555
Nb4 O21 2.084051 1_555
Nb4 O22 2.238082 1_555
Nb5 O26 1.880403 1_554
Nb5 O62 1.880894 1_555
Nb5 O24 1.923628 1_554
Nb5 O61 1.937643 1_555
Nb5 O60 2.206902 1_555
Nb5 O25 2.302109 1_554
Nb6 O28 1.882230 1_555
Nb6 O65 1.912188 1_555
Nb6 O27 1.957512 1_555
Nb6 O64 1.981865 1_555
Nb6 O63 2.154380 1_555
Nb6 O29 2.216548 1_555
Nb7 O31 1.876639 1_555
Nb7 O32 1.879181 1_555
Nb7 O67 2.015111 1_555
Nb7 O66 2.119343 1_555
Nb7 O30 2.124542 1_555
Nb7 O68 2.141281 1_555
Nb8 O69 1.923382 1_555
Nb8 O70 1.929470 1_555
Nb8 O35 1.955418 1_555
Nb8 O34 1.997030 1_555
Nb8 O71 2.027667 1_555
Nb8 O33 2.161856 1_555
Ga0 O38 1.826522 1_555
Ga0 O37 1.832379 1_445
Ga0 O2 2.048579 1_455
Ga0 O0 2.095284 1_555
Ga0 O36 2.111468 1_545
Ga0 O1 2.251807 1_445
Ga1 O50 1.820489 1_555
Ga1 O49 1.842986 1_555
Ga1 O12 1.847841 1_555
Ga1 O48 2.061229 1_555
Ga1 O14 2.190364 1_555
Ga1 O13 2.370341 1_555
Ga2 O15 1.814572 1_555
Ga2 O16 1.815540 1_555
Ga2 O52 2.090652 1_555
Ga2 O17 2.132591 1_555
Ga2 O53 2.181950 1_555
Ga2 O51 2.243413 1_555
O0 S0 1.477126 1_555
O1 S1 1.460239 1_555
O2 S2 1.476691 1_555
O3 Si0 1.636955 1_555
O4 Si1 1.667347 1_555
O5 S3 1.468719 1_555
O6 S3 1.504225 1_565
O7 Si0 1.694675 1_555
O8 Si1 1.656708 1_455
O9 S1 1.504684 1_555
O10 S2 1.491950 1_455
O11 S0 1.498085 1_565
O12 Si2 1.576482 1_555
O13 S4 1.429970 1_555
O14 S5 1.444282 1_555
O15 Si3 1.592394 1_555
O16 Si4 1.592432 1_555
O17 S6 1.463729 1_555
O18 S6 1.470372 1_555
O19 Si3 1.626611 1_555
O20 Si4 1.615278 1_555
O21 S4 1.512486 1_555
O22 S5 1.480351 1_555
O23 Si2 1.667096 1_555
O24 Si5 1.634636 1_555
O25 S7 1.464933 1_555
O26 Si6 1.650888 1_555
O27 Si7 1.627483 1_555
O28 Si8 1.661165 1_555
O29 S8 1.476911 1_555
O30 S8 1.500593 1_555
O31 Si7 1.679740 1_555
O32 Si8 1.676293 1_555
O33 S7 1.475626 1_555
O34 Si6 1.608636 1_555
O35 Si5 1.621771 1_555
O36 S8 1.453580 1_555
O37 Si7 1.576582 1_555
O38 Si8 1.576123 1_555
O39 S7 1.464853 1_555
O40 Si6 1.636000 1_555
O41 Si5 1.622865 1_555
O42 Si2 1.643591 1_555
O43 S4 1.506846 1_555
O44 S5 1.475312 1_555
O45 Si3 1.698288 1_555
O46 Si4 1.680900 1_555
O47 S6 1.529480 1_555
O48 S3 1.440871 1_555
O49 Si0 1.572183 1_555
O50 Si1 1.569144 1_555
O51 S1 1.455174 1_555
O52 S2 1.470470 1_555
O53 S0 1.467038 1_555
O54 Si5 1.638031 1_555
O55 S7 1.510885 1_655
O56 Si6 1.623286 1_545
O57 Si7 1.659937 1_545
O58 Si8 1.628271 1_555
O59 S8 1.500829 1_655
O60 S6 1.466565 1_555
O61 Si3 1.622025 1_455
O62 Si4 1.642995 1_565
O63 S4 1.487505 1_565
O64 S5 1.544628 1_555
O65 Si2 1.663689 1_455
O66 S0 1.515770 1_565
O67 S1 1.541860 1_555
O68 S2 1.514496 1_455
O69 Si0 1.637767 1_555
O70 Si1 1.635353 1_455
O71 S3 1.501844 1_565
