# generated using pymatgen
data_CeTl5Co2(NO2)12
_symmetry_space_group_name_H-M   'P 1'
_cell_length_a   10.75854400
_cell_length_b   10.75854400
_cell_length_c   10.75854400
_cell_angle_alpha   90.00000000
_cell_angle_beta   90.00000000
_cell_angle_gamma   90.00000000
_symmetry_Int_Tables_number   1
_chemical_formula_structural   CeTl5Co2(NO2)12
_chemical_formula_sum   'Ce2 Tl10 Co4 N24 O48'
_cell_volume   1245.26132787
_cell_formula_units_Z   2
loop_
 _symmetry_equiv_pos_site_id
 _symmetry_equiv_pos_as_xyz
  1  'x, y, z'
loop_
 _atom_site_type_symbol
 _atom_site_label
 _atom_site_symmetry_multiplicity
 _atom_site_fract_x
 _atom_site_fract_y
 _atom_site_fract_z
 _atom_site_occupancy
  Ce  Ce0  1  0.75000000  0.75000000  0.75000000  1
  Ce  Ce1  1  0.25000000  0.25000000  0.25000000  1
  Tl  Tl0  1  0.75000000  0.25000000  0.25000000  1
  Tl  Tl1  1  0.25000000  0.75000000  0.25000000  1
  Tl  Tl2  1  0.25000000  0.25000000  0.75000000  1
  Tl  Tl3  1  0.75000000  0.75000000  0.25000000  1
  Tl  Tl4  1  0.75000000  0.25000000  0.75000000  1
  Tl  Tl5  1  0.25000000  0.75000000  0.75000000  1
  Tl  Tl6  1  0.50000000  0.00000000  0.50000000  1
  Tl  Tl7  1  0.00000000  0.50000000  0.50000000  1
  Tl  Tl8  1  0.50000000  0.50000000  0.00000000  1
  Tl  Tl9  1  0.00000000  0.00000000  0.00000000  1
  Co  Co0  1  0.00000000  0.50000000  0.00000000  1
  Co  Co1  1  0.50000000  0.00000000  0.00000000  1
  Co  Co2  1  0.00000000  0.00000000  0.50000000  1
  Co  Co3  1  0.50000000  0.50000000  0.50000000  1
  N  N0  1  0.49340300  0.31479100  0.49987700  1
  N  N1  1  0.81479100  0.99987700  0.50659700  1
  N  N2  1  0.81479100  0.50012300  0.99340300  1
  N  N3  1  0.68520900  0.99987700  0.99340300  1
  N  N4  1  0.50012300  0.99340300  0.81479100  1
  N  N5  1  0.99340300  0.68520900  0.99987700  1
  N  N6  1  0.99340300  0.81479100  0.50012300  1
  N  N7  1  0.99987700  0.50659700  0.81479100  1
  N  N8  1  0.50659700  0.81479100  0.99987700  1
  N  N9  1  0.99987700  0.99340300  0.68520900  1
  N  N10  1  0.50012300  0.50659700  0.68520900  1
  N  N11  1  0.50659700  0.68520900  0.50012300  1
  N  N12  1  0.68520900  0.50012300  0.50659700  1
  N  N13  1  0.18520900  0.00012300  0.49340300  1
  N  N14  1  0.18520900  0.49987700  0.00659700  1
  N  N15  1  0.31479100  0.00012300  0.00659700  1
  N  N16  1  0.31479100  0.49987700  0.49340300  1
  N  N17  1  0.49987700  0.00659700  0.18520900  1
  N  N18  1  0.49987700  0.49340300  0.31479100  1
  N  N19  1  0.00012300  0.00659700  0.31479100  1
  N  N20  1  0.49340300  0.18520900  0.00012300  1
  N  N21  1  0.00012300  0.49340300  0.18520900  1
  N  N22  1  0.00659700  0.18520900  0.49987700  1
  N  N23  1  0.00659700  0.31479100  0.00012300  1
  O  O0  1  0.75710600  0.10026800  0.49270100  1
  O  O1  1  0.60026800  0.99270100  0.24289400  1
  O  O2  1  0.25710600  0.89973200  0.99270100  1
  O  O3  1  0.24289400  0.60026800  0.99270100  1
  O  O4  1  0.24289400  0.89973200  0.50729900  1
  O  O5  1  0.74289400  0.39973200  0.49270100  1
  O  O6  1  0.49270100  0.74289400  0.39973200  1
  O  O7  1  0.39973200  0.49270100  0.74289400  1
  O  O8  1  0.10026800  0.00729900  0.74289400  1
  O  O9  1  0.49270100  0.75710600  0.10026800  1
  O  O10  1  0.10026800  0.49270100  0.75710600  1
  O  O11  1  0.00729900  0.75710600  0.39973200  1
  O  O12  1  0.00729900  0.74289400  0.10026800  1
  O  O13  1  0.39973200  0.00729900  0.75710600  1
  O  O14  1  0.74289400  0.10026800  0.00729900  1
  O  O15  1  0.75710600  0.39973200  0.00729900  1
  O  O16  1  0.25251600  0.40428700  0.46251100  1
  O  O17  1  0.46251100  0.25251600  0.40428700  1
  O  O18  1  0.40428700  0.46251100  0.25251600  1
  O  O19  1  0.09571300  0.03748900  0.25251600  1
  O  O20  1  0.46251100  0.24748400  0.09571300  1
  O  O21  1  0.09571300  0.46251100  0.24748400  1
  O  O22  1  0.03748900  0.24748400  0.40428700  1
  O  O23  1  0.03748900  0.25251600  0.09571300  1
  O  O24  1  0.40428700  0.03748900  0.24748400  1
  O  O25  1  0.25251600  0.09571300  0.03748900  1
  O  O26  1  0.24748400  0.40428700  0.03748900  1
  O  O27  1  0.24748400  0.09571300  0.46251100  1
  O  O28  1  0.74748400  0.59571300  0.53748900  1
  O  O29  1  0.53748900  0.74748400  0.59571300  1
  O  O30  1  0.59571300  0.53748900  0.74748400  1
  O  O31  1  0.90428700  0.96251100  0.74748400  1
  O  O32  1  0.53748900  0.75251600  0.90428700  1
  O  O33  1  0.90428700  0.53748900  0.75251600  1
  O  O34  1  0.96251100  0.75251600  0.59571300  1
  O  O35  1  0.96251100  0.74748400  0.90428700  1
  O  O36  1  0.59571300  0.96251100  0.75251600  1
  O  O37  1  0.74748400  0.90428700  0.96251100  1
  O  O38  1  0.75251600  0.59571300  0.96251100  1
  O  O39  1  0.75251600  0.90428700  0.53748900  1
  O  O40  1  0.25710600  0.60026800  0.50729900  1
  O  O41  1  0.50729900  0.25710600  0.60026800  1
  O  O42  1  0.99270100  0.25710600  0.89973200  1
  O  O43  1  0.89973200  0.99270100  0.25710600  1
  O  O44  1  0.50729900  0.24289400  0.89973200  1
  O  O45  1  0.89973200  0.50729900  0.24289400  1
  O  O46  1  0.99270100  0.24289400  0.60026800  1
  O  O47  1  0.60026800  0.50729900  0.25710600  1
loop_
_geom_bond_atom_site_label_1
_geom_bond_atom_site_label_2
_geom_bond_distance
_geom_bond_site_symmetry_2
Ce0 O36 2.825459 1_555
Ce0 O33 2.825459 1_555
Ce0 O37 2.825459 1_555
Ce0 O34 2.825459 1_555
Ce0 O31 2.825459 1_555
Ce0 O28 2.825459 1_555
Ce0 O38 2.825459 1_555
Ce0 O35 2.825459 1_555
Ce0 O39 2.825459 1_555
Ce0 O32 2.825459 1_555
Ce0 O29 2.825459 1_555
Ce0 O30 2.825459 1_555
Ce1 O27 2.825459 1_555
Ce1 O24 2.825459 1_555
Ce1 O18 2.825459 1_555
Ce1 O22 2.825459 1_555
Ce1 O19 2.825459 1_555
Ce1 O21 2.825459 1_555
Ce1 O25 2.825459 1_555
Ce1 O17 2.825459 1_555
Ce1 O20 2.825459 1_555
Ce1 O23 2.825459 1_555
Ce1 O26 2.825459 1_555
Ce1 O16 2.825459 1_555
Co0 N5 1.993843 1_454
Co0 N2 1.993843 1_454
Co0 N7 1.993843 1_454
Co0 N23 1.993843 1_555
Co0 N21 1.993843 1_555
Co0 N14 1.993843 1_555
Co1 N8 1.993843 1_544
Co1 N3 1.993843 1_544
Co1 N4 1.993843 1_544
Co1 N20 1.993843 1_555
Co1 N15 1.993843 1_555
Co1 N17 1.993843 1_555
Co2 N9 1.993843 1_445
Co2 N6 1.993843 1_445
Co2 N1 1.993843 1_445
Co2 N22 1.993843 1_555
Co2 N19 1.993843 1_555
Co2 N13 1.993843 1_555
Co3 N11 1.993843 1_555
Co3 N10 1.993843 1_555
Co3 N12 1.993843 1_555
Co3 N16 1.993843 1_555
Co3 N0 1.993843 1_555
Co3 N18 1.993843 1_555
N0 O41 1.254605 1_555
N0 O17 1.271601 1_555
N1 O0 1.254605 1_565
N1 O39 1.271601 1_555
N2 O15 1.254605 1_556
N2 O38 1.271601 1_555
N3 O14 1.254605 1_566
N3 O37 1.271601 1_555
N4 O13 1.254605 1_565
N4 O36 1.271601 1_555
N5 O12 1.254605 1_656
N5 O35 1.271601 1_555
N6 O11 1.254605 1_655
N6 O34 1.271601 1_555
N7 O10 1.254605 1_655
N7 O33 1.271601 1_555
N8 O9 1.254605 1_556
N8 O32 1.271601 1_555
N9 O8 1.254605 1_665
N9 O31 1.271601 1_555
N10 O7 1.254605 1_555
N10 O30 1.271601 1_555
N11 O6 1.254605 1_555
N11 O29 1.271601 1_555
N12 O5 1.254605 1_555
N12 O28 1.271601 1_555
N13 O4 1.254605 1_545
N13 O27 1.271601 1_555
N14 O3 1.254605 1_554
N14 O26 1.271601 1_555
N15 O2 1.254605 1_544
N15 O25 1.271601 1_555
N16 O40 1.254605 1_555
N16 O16 1.271601 1_555
N17 O1 1.254605 1_545
N17 O24 1.271601 1_555
N18 O47 1.254605 1_555
N18 O18 1.271601 1_555
N19 O43 1.254605 1_445
N19 O19 1.271601 1_555
N20 O44 1.254605 1_554
N20 O20 1.271601 1_555
N21 O45 1.254605 1_455
N21 O21 1.271601 1_555
N22 O46 1.254605 1_455
N22 O22 1.271601 1_555
N23 O42 1.254605 1_454
N23 O23 1.271601 1_555
