# generated using pymatgen
data_AcBr3
_symmetry_space_group_name_H-M   'P 1'
_cell_length_a   8.16826350
_cell_length_b   8.16826457
_cell_length_c   4.72345121
_cell_angle_alpha   90.00000000
_cell_angle_beta   90.00000000
_cell_angle_gamma   120.00000034
_symmetry_Int_Tables_number   1
_chemical_formula_structural   AcBr3
_chemical_formula_sum   'Ac2 Br6'
_cell_volume   272.92894665
_cell_formula_units_Z   2
loop_
 _symmetry_equiv_pos_site_id
 _symmetry_equiv_pos_as_xyz
  1  'x, y, z'
loop_
 _atom_site_type_symbol
 _atom_site_label
 _atom_site_symmetry_multiplicity
 _atom_site_fract_x
 _atom_site_fract_y
 _atom_site_fract_z
 _atom_site_occupancy
  Ac  Ac0  1  0.66666700  0.33333300  0.75000000  1
  Ac  Ac1  1  0.33333300  0.66666700  0.25000000  1
  Br  Br0  1  0.61441198  0.69981969  0.75000000  1
  Br  Br1  1  0.91459428  0.61441198  0.25000000  1
  Br  Br2  1  0.38558802  0.30018031  0.25000000  1
  Br  Br3  1  0.08540572  0.38558802  0.75000000  1
  Br  Br4  1  0.30018031  0.91459428  0.75000000  1
  Br  Br5  1  0.69981969  0.08540572  0.25000000  1
loop_
_geom_bond_atom_site_label_1
_geom_bond_atom_site_label_2
_geom_bond_distance
_geom_bond_site_symmetry_2
Ac0 Br2 3.209459 1_555
Ac0 Br2 3.209459 1_556
Ac0 Br1 3.209461 1_555
Ac0 Br1 3.209461 1_556
Ac0 Br5 3.209464 1_555
Ac0 Br5 3.209464 1_556
Ac0 Br3 3.228185 1_655
Ac0 Br4 3.228195 1_545
Ac0 Br0 3.228210 1_555
Ac1 Br0 3.209459 1_555
Ac1 Br0 3.209459 1_554
Ac1 Br3 3.209461 1_554
Ac1 Br3 3.209461 1_555
Ac1 Br4 3.209464 1_555
Ac1 Br4 3.209464 1_554
Ac1 Br1 3.228185 1_455
Ac1 Br5 3.228195 1_565
Ac1 Br2 3.228210 1_555
