# generated using pymatgen
data_Na21Nb4Zn8Si3(P5O24)3
_symmetry_space_group_name_H-M   'P 1'
_cell_length_a   9.08205309
_cell_length_b   9.06740190
_cell_length_c   22.08457409
_cell_angle_alpha   89.79327399
_cell_angle_beta   90.05727550
_cell_angle_gamma   119.82021581
_symmetry_Int_Tables_number   1
_chemical_formula_structural   Na21Nb4Zn8Si3(P5O24)3
_chemical_formula_sum   'Na21 Nb4 Zn8 Si3 P15 O72'
_cell_volume   1577.85642938
_cell_formula_units_Z   1
loop_
 _symmetry_equiv_pos_site_id
 _symmetry_equiv_pos_as_xyz
  1  'x, y, z'
loop_
 _atom_site_type_symbol
 _atom_site_label
 _atom_site_symmetry_multiplicity
 _atom_site_fract_x
 _atom_site_fract_y
 _atom_site_fract_z
 _atom_site_occupancy
  Na  Na0  1  0.64957383  0.01485021  0.24397731  1
  Na  Na1  1  0.98707589  0.63245126  0.24388105  1
  Na  Na2  1  0.64695781  0.63412065  0.74642939  1
  Na  Na3  1  0.98528939  0.35060766  0.74726553  1
  Na  Na4  1  0.36707724  0.01358153  0.74687820  1
  Na  Na5  1  0.29477908  0.33500709  0.58512430  1
  Na  Na6  1  0.04351816  0.70768476  0.58257517  1
  Na  Na7  1  0.66322111  0.95585002  0.58297572  1
  Na  Na8  1  0.29339724  0.95960567  0.08467980  1
  Na  Na9  1  0.66553424  0.70401165  0.08441765  1
  Na  Na10  1  0.04343132  0.33650891  0.08230083  1
  Na  Na11  1  0.97429933  0.67906227  0.91501283  1
  Na  Na12  1  0.97468427  0.29002906  0.41003129  1
  Na  Na13  1  0.31368538  0.02161605  0.41207314  1
  Na  Na14  1  0.71332678  0.69050133  0.41260710  1
  Na  Na15  1  0.99558574  0.99472580  0.49711559  1
  Na  Na16  1  0.00187794  0.01612763  0.99484835  1
  Na  Na17  1  0.65839811  0.32282386  0.83106182  1
  Na  Na18  1  0.65626218  0.33442964  0.32232080  1
  Na  Na19  1  0.33346881  0.65462363  0.15944658  1
  Na  Na20  1  0.33493309  0.66820751  0.66073527  1
  Nb  Nb0  1  0.66568616  0.32930255  0.97900609  1
  Nb  Nb1  1  0.66967740  0.33295880  0.47969735  1
  Nb  Nb2  1  0.33162023  0.66667539  0.31388844  1
  Nb  Nb3  1  0.33112532  0.66392289  0.81844690  1
  Zn  Zn0  1  0.99569977  0.99537080  0.34644757  1
  Zn  Zn1  1  0.00047691  0.01266519  0.85105470  1
  Zn  Zn2  1  0.99931570  0.00101602  0.65520659  1
  Zn  Zn3  1  0.00257292  0.00323315  0.15334166  1
  Zn  Zn4  1  0.66657902  0.33266005  0.68119542  1
  Zn  Zn5  1  0.66036719  0.33411416  0.18148576  1
  Zn  Zn6  1  0.33186633  0.66053142  0.01262621  1
  Zn  Zn7  1  0.33612081  0.67249465  0.51166404  1
  Si  Si0  1  0.03632768  0.36201484  0.92178478  1
  Si  Si1  1  0.62995988  0.95985021  0.41960465  1
  Si  Si2  1  0.04035585  0.67055640  0.41993459  1
  P  P0  1  0.29736225  0.00314796  0.25102199  1
  P  P1  1  0.70239542  0.70128284  0.25002864  1
  P  P2  1  0.00165104  0.29600478  0.25014470  1
  P  P3  1  0.29605155  0.29598433  0.74948569  1
  P  P4  1  0.00211420  0.70616310  0.75113662  1
  P  P5  1  0.70255685  0.99795571  0.74897147  1
  P  P6  1  0.96323210  0.33372614  0.58586287  1
  P  P7  1  0.37188527  0.03888439  0.58583459  1
  P  P8  1  0.66486157  0.62663453  0.58536199  1
  P  P9  1  0.96045846  0.62732071  0.08503298  1
  P  P10  1  0.66493761  0.03743769  0.08558697  1
  P  P11  1  0.37503705  0.33477115  0.08445315  1
  P  P12  1  0.63041401  0.66779670  0.91993289  1
  P  P13  1  0.33255433  0.96089415  0.91935441  1
  P  P14  1  0.33387384  0.37478961  0.41978511  1
  O  O0  1  0.21593833  0.02077541  0.30948151  1
  O  O1  1  0.80711850  0.78087507  0.30799911  1
  O  O2  1  0.97598437  0.18982716  0.30781330  1
  O  O3  1  0.21119862  0.17730453  0.80247587  1
  O  O4  1  0.97519042  0.78715528  0.80705186  1
  O  O5  1  0.81831799  0.02714728  0.80236094  1
  O  O6  1  0.76743061  0.95614805  0.68966657  1
  O  O7  1  0.18872601  0.23519367  0.69032049  1
  O  O8  1  0.04146368  0.81553294  0.69256763  1
  O  O9  1  0.77307741  0.81641572  0.19335095  1
  O  O10  1  0.03114641  0.22192676  0.19213633  1
  O  O11  1  0.18480840  0.96085594  0.19416696  1
  O  O12  1  0.88035884  0.36082584  0.64173848  1
  O  O13  1  0.47964912  0.12247001  0.64204500  1
  O  O14  1  0.64177257  0.51978407  0.64209936  1
  O  O15  1  0.87939810  0.51699637  0.14158842  1
  O  O16  1  0.63768668  0.11726371  0.14263581  1
  O  O17  1  0.48741861  0.36365120  0.13953107  1
  O  O18  1  0.47612497  0.31549220  0.02781749  1
  O  O19  1  0.84073413  0.52635189  0.02798608  1
  O  O20  1  0.68264231  0.16135536  0.02963969  1
  O  O21  1  0.47347288  0.15732466  0.52860040  1
  O  O22  1  0.68198406  0.52491040  0.52824966  1
  O  O23  1  0.84248258  0.31648839  0.52852933  1
  O  O24  1  0.55074735  0.69192318  0.97684665  1
  O  O25  1  0.13891681  0.45557060  0.98122454  1
  O  O26  1  0.31073460  0.85621963  0.97614985  1
  O  O27  1  0.55457082  0.84679492  0.47945335  1
  O  O28  1  0.30388666  0.44819850  0.47768822  1
  O  O29  1  0.14805810  0.69687126  0.48019150  1
  O  O30  1  0.13222968  0.62989215  0.36102959  1
  O  O31  1  0.49785510  0.86368481  0.36093891  1
  O  O32  1  0.36669435  0.49934699  0.36496742  1
  O  O33  1  0.13772283  0.50026938  0.86177368  1
  O  O34  1  0.36247790  0.86835749  0.86201438  1
  O  O35  1  0.50953078  0.64371233  0.86297291  1
  O  O36  1  0.01287000  0.83133245  0.41121400  1
  O  O37  1  0.82120658  0.99740269  0.41080859  1
  O  O38  1  0.18552068  0.19716307  0.41039657  1
  O  O39  1  0.00946993  0.17778629  0.91204588  1
  O  O40  1  0.17407938  0.97194422  0.90868355  1
  O  O41  1  0.80984490  0.80984076  0.91007297  1
  O  O42  1  0.96708270  0.16558376  0.58335840  1
  O  O43  1  0.19858686  0.03269149  0.58364144  1
  O  O44  1  0.83094153  0.79966159  0.58306000  1
  O  O45  1  0.96571596  0.80056844  0.08363969  1
  O  O46  1  0.83164706  0.03170981  0.08336695  1
  O  O47  1  0.20173731  0.16879897  0.08370574  1
  O  O48  1  0.67419288  0.15328176  0.74510785  1
  O  O49  1  0.47972521  0.32710431  0.74524962  1
  O  O50  1  0.84962471  0.52256385  0.74645884  1
  O  O51  1  0.68629611  0.52537250  0.24510821  1
  O  O52  1  0.84709009  0.32513636  0.24744430  1
  O  O53  1  0.48152552  0.14661490  0.24705839  1
  O  O54  1  0.63606563  0.49536343  0.92137079  1
  O  O55  1  0.85119969  0.36702241  0.92194577  1
  O  O56  1  0.49938305  0.13938826  0.92125460  1
  O  O57  1  0.63189036  0.14693628  0.42298552  1
  O  O58  1  0.50427700  0.36656181  0.42252561  1
  O  O59  1  0.84945925  0.49095094  0.42295221  1
  O  O60  1  0.35655624  0.49453805  0.07906839  1
  O  O61  1  0.13981651  0.65018534  0.07988091  1
  O  O62  1  0.50636490  0.86109131  0.07807488  1
  O  O63  1  0.35411482  0.86139745  0.58142864  1
  O  O64  1  0.50405453  0.64218883  0.58017215  1
  O  O65  1  0.14022806  0.49089160  0.57953664  1
  O  O66  1  0.30996647  0.82890397  0.25733882  1
  O  O67  1  0.52010701  0.68667228  0.25856656  1
  O  O68  1  0.16635852  0.48112047  0.25715825  1
  O  O69  1  0.31559856  0.48196303  0.75889559  1
  O  O70  1  0.17090331  0.68939703  0.75746118  1
  O  O71  1  0.51816841  0.83273661  0.75738869  1
loop_
_geom_bond_atom_site_label_1
_geom_bond_atom_site_label_2
_geom_bond_distance
_geom_bond_site_symmetry_2
Na0 O53 2.361313 1_555
Na0 O16 2.442795 1_555
Na0 O52 2.474114 1_555
Na0 O67 2.618251 1_545
Na0 O66 2.696131 1_545
Na0 O9 2.787448 1_545
Na0 O31 2.924501 1_545
Na0 O2 2.936472 1_555
Na1 O51 2.401607 1_555
Na1 O52 2.421277 1_555
Na1 O15 2.479966 1_555
Na1 O66 2.582208 1_655
Na1 O68 2.615015 1_655
Na1 O11 2.821246 1_655
Na1 O30 2.907763 1_655
Na1 O1 2.948481 1_555
Na2 O49 2.419205 1_555
Na2 O50 2.502566 1_555
Na2 O14 2.520775 1_555
Na2 O71 2.601695 1_555
Na2 O69 2.627813 1_555
Na2 O6 2.844926 1_555
Na2 O35 2.881993 1_555
Na2 O4 2.914763 1_555
Na3 O50 2.420728 1_555
Na3 O48 2.481741 1_555
Na3 O12 2.535726 1_555
Na3 O69 2.632674 1_655
Na3 O70 2.680139 1_655
Na3 O5 2.817225 1_555
Na3 O7 2.833307 1_655
Na3 O33 2.881421 1_655
Na4 O48 2.423193 1_555
Na4 O49 2.497283 1_555
Na4 O13 2.522802 1_555
Na4 O70 2.580081 1_545
Na4 O71 2.619220 1_545
Na4 O3 2.796881 1_555
Na4 O34 2.850010 1_545
Na4 O8 2.852281 1_545
Na5 O43 2.428454 1_555
Na5 O65 2.440272 1_555
Na5 O64 2.472976 1_555
Na5 O7 2.503291 1_555
Na5 O28 2.566756 1_555
Na5 O42 2.583029 1_455
Na6 O63 2.447471 1_555
Na6 O44 2.454480 1_455
Na6 O29 2.474287 1_555
Na6 O65 2.521582 1_555
Na6 O43 2.557590 1_565
Na6 O8 2.625400 1_555
Na7 O42 2.452136 1_565
Na7 O64 2.468702 1_555
Na7 O27 2.493954 1_555
Na7 O63 2.494895 1_555
Na7 O6 2.537829 1_555
Na7 O44 2.543908 1_555
Na8 O47 2.421070 1_565
Na8 O61 2.436830 1_555
Na8 O62 2.506018 1_555
Na8 O45 2.582364 1_455
Na8 O26 2.610019 1_554
Na8 O11 2.614467 1_555
Na9 O45 2.413592 1_555
Na9 O62 2.486742 1_555
Na9 O60 2.489197 1_555
Na9 O24 2.574075 1_554
Na9 O46 2.578140 1_565
Na9 O9 2.608315 1_555
Na10 O25 2.440436 1_554
Na10 O46 2.459891 1_455
Na10 O60 2.468304 1_555
Na10 O61 2.526174 1_555
Na10 O47 2.560199 1_555
Na10 O10 2.615881 1_555
Na11 O41 2.325746 1_555
Na11 O40 2.360043 1_655
Na11 O55 2.475881 1_555
Na11 O4 2.573081 1_555
Na11 O54 2.672225 1_555
Na11 O19 2.815007 1_556
Na11 O33 2.936654 1_655
Na11 O26 2.977490 1_655
Na12 O37 2.303235 1_545
Na12 O2 2.438689 1_555
Na12 O38 2.445244 1_655
Na12 O59 2.599824 1_555
Na12 O57 2.727533 1_555
Na12 O30 2.882495 1_655
Na12 O23 2.940244 1_555
Na12 O28 2.995068 1_655
Na13 O38 2.394193 1_555
Na13 O36 2.398590 1_545
Na13 O0 2.431231 1_555
Na13 O57 2.536862 1_555
Na13 O58 2.729878 1_555
Na13 O21 2.912422 1_555
Na13 O31 2.919138 1_545
Na13 O29 2.960364 1_545
Na14 O36 2.361645 1_655
Na14 O37 2.448081 1_555
Na14 O1 2.455662 1_555
Na14 O58 2.594248 1_555
Na14 O59 2.660092 1_555
Na14 O27 2.884130 1_555
Na14 O22 2.899424 1_555
Na14 O32 2.932839 1_555
Na15 O36 2.463902 1_655
Na15 O37 2.484686 1_555
Na15 O44 2.513555 1_555
Na15 O42 2.552632 1_565
Na15 O43 2.556477 1_665
Na15 O38 2.616271 1_665
Na16 O39 2.319002 1_555
Na16 O46 2.541087 1_456
Na16 O47 2.564257 1_556
Na16 O41 2.611502 1_445
Na16 O40 2.619561 1_545
Na16 O45 2.666191 1_446
Na17 O48 2.495635 1_555
Na17 O49 2.506427 1_555
Na17 O56 2.532301 1_555
Na17 O55 2.560500 1_555
Na17 O50 2.577041 1_555
Na17 O54 2.608724 1_555
Na18 O51 2.343002 1_555
Na18 O53 2.347043 1_555
Na18 O52 2.428414 1_555
Na18 O58 2.701526 1_555
Na18 O57 2.735151 1_555
Na18 O59 2.751418 1_555
Na19 O60 2.371515 1_555
Na19 O61 2.471124 1_555
Na19 O62 2.501522 1_555
Na19 O68 2.653758 1_555
Na19 O67 2.693837 1_555
Na19 O66 2.752764 1_555
Na20 O63 2.416911 1_555
Na20 O64 2.439121 1_555
Na20 O65 2.472751 1_555
Na20 O71 2.664215 1_555
Na20 O70 2.667084 1_555
Na20 O69 2.694740 1_555
Nb0 O20 1.952894 1_556
Nb0 O18 1.982414 1_556
Nb0 O55 1.992907 1_555
Nb0 O19 2.018749 1_556
Nb0 O56 2.073292 1_555
Nb0 O54 2.085215 1_555
Nb1 O23 1.969006 1_555
Nb1 O59 1.988349 1_555
Nb1 O57 1.992533 1_555
Nb1 O22 2.002830 1_555
Nb1 O21 2.011708 1_555
Nb1 O58 2.095758 1_555
Nb2 O30 1.968491 1_555
Nb2 O31 1.969294 1_555
Nb2 O66 2.009016 1_555
Nb2 O32 2.035582 1_555
Nb2 O67 2.037124 1_555
Nb2 O68 2.037920 1_555
Nb3 O33 1.898326 1_555
Nb3 O35 1.979065 1_555
Nb3 O34 1.982519 1_555
Nb3 O69 2.062915 1_555
Nb3 O70 2.076755 1_555
Nb3 O71 2.109651 1_555
O0 P0 1.536286 1_555
O0 Zn0 2.064962 1_445
O1 P1 1.544683 1_555
O1 Zn0 2.033009 1_555
O2 P2 1.540065 1_655
O2 Zn0 2.042500 1_545
O3 P3 1.513064 1_555
O3 Zn1 2.047746 1_555
O4 P4 1.519787 1_655
O4 Zn1 2.173734 1_665
O5 P5 1.512825 1_545
O5 Zn1 2.030305 1_655
O6 P5 1.559964 1_555
O6 Zn2 2.080560 1_565
O7 P3 1.558697 1_555
O7 Zn2 2.108481 1_455
O8 P4 1.556741 1_555
O8 Zn2 2.070166 1_465
O9 P1 1.547371 1_555
O9 Zn3 2.115624 1_665
O10 P2 1.532963 1_555
O10 Zn3 2.057578 1_555
O11 P0 1.542599 1_565
O11 Zn3 2.080104 1_565
O12 P6 1.528918 1_555
O12 Zn4 2.025541 1_555
O13 P7 1.529692 1_555
O13 Zn4 2.013227 1_555
O14 P8 1.530497 1_555
O14 Zn4 2.011060 1_555
O15 P9 1.537229 1_555
O15 Zn5 2.048299 1_555
O16 P10 1.535538 1_555
O16 Zn5 2.062471 1_555
O17 P11 1.524424 1_555
O17 Zn5 1.952205 1_555
O18 P11 1.612876 1_555
O19 P9 1.619645 1_555
O20 P10 1.620397 1_555
O21 P7 1.615348 1_555
O22 P8 1.617801 1_555
O23 P6 1.630486 1_555
O24 P12 1.520667 1_555
O24 Zn6 2.023824 1_556
O25 Si0 1.590729 1_555
O25 Zn6 1.942550 1_556
O26 P13 1.522573 1_555
O26 Zn6 2.040164 1_556
O27 Si1 1.600189 1_555
O27 Zn7 1.953510 1_555
O28 P14 1.529577 1_555
O28 Zn7 2.050221 1_555
O29 Si2 1.597554 1_555
O29 Zn7 1.954788 1_555
O30 Si2 1.684078 1_555
O31 Si1 1.686111 1_555
O32 P14 1.576727 1_555
O33 Si0 1.737335 1_555
O34 P13 1.617600 1_555
O35 P12 1.611267 1_555
O36 Si2 1.607625 1_555
O36 Zn0 2.120716 1_455
O37 Si1 1.607026 1_555
O37 Zn0 2.136788 1_555
O38 P14 1.515260 1_555
O38 Zn0 2.278392 1_445
O39 Si0 1.579075 1_555
O39 Zn1 1.988809 1_555
O40 P13 1.509858 1_555
O40 Zn1 2.193989 1_565
O41 P12 1.507683 1_555
O41 Zn1 2.213381 1_665
O42 P6 1.543493 1_555
O42 Zn2 2.290532 1_555
O43 P7 1.547464 1_555
O43 Zn2 2.311113 1_455
O44 P8 1.544395 1_555
O44 Zn2 2.334498 1_565
O45 P9 1.547911 1_555
O45 Zn3 2.294808 1_665
O46 P10 1.541385 1_555
O46 Zn3 2.292511 1_655
O47 P11 1.544891 1_555
O47 Zn3 2.275707 1_555
O48 P5 1.554724 1_545
O48 Zn4 2.176612 1_555
O49 P3 1.550167 1_555
O49 Zn4 2.191525 1_555
O50 P4 1.551790 1_655
O50 Zn4 2.229847 1_555
O51 P1 1.531874 1_555
O51 Zn5 2.155911 1_555
O52 P2 1.553153 1_655
O52 Zn5 2.266239 1_555
O53 P0 1.527400 1_555
O53 Zn5 2.205963 1_555
O54 P12 1.589874 1_555
O55 Si0 1.704384 1_655
O56 P13 1.574285 1_545
O57 Si1 1.689655 1_545
O58 P14 1.587116 1_555
O59 Si2 1.689316 1_655
O60 P11 1.543212 1_555
O60 Zn6 2.188121 1_555
O61 P9 1.540680 1_455
O61 Zn6 2.258005 1_555
O62 P10 1.539333 1_565
O62 Zn6 2.248547 1_555
O63 P7 1.538923 1_565
O63 Zn7 2.252677 1_555
O64 P8 1.539602 1_555
O64 Zn7 2.258318 1_555
O65 P6 1.534622 1_455
O65 Zn7 2.279783 1_555
O66 P0 1.645305 1_565
O67 P1 1.605076 1_555
O68 P2 1.607260 1_555
O69 P3 1.619620 1_555
O70 P4 1.619802 1_555
O71 P5 1.608336 1_555
