# generated using pymatgen
data_NaSc2Sn2P3(SO8)3
_symmetry_space_group_name_H-M   'P 1'
_cell_length_a   8.77231331
_cell_length_b   8.77602641
_cell_length_c   22.96191296
_cell_angle_alpha   90.13845040
_cell_angle_beta   90.02633789
_cell_angle_gamma   120.00501573
_symmetry_Int_Tables_number   1
_chemical_formula_structural   NaSc2Sn2P3(SO8)3
_chemical_formula_sum   'Na3 Sc6 Sn6 P9 S9 O72'
_cell_volume   1530.82916630
_cell_formula_units_Z   3
loop_
 _symmetry_equiv_pos_site_id
 _symmetry_equiv_pos_as_xyz
  1  'x, y, z'
loop_
 _atom_site_type_symbol
 _atom_site_label
 _atom_site_symmetry_multiplicity
 _atom_site_fract_x
 _atom_site_fract_y
 _atom_site_fract_z
 _atom_site_occupancy
  Na  Na0  1  0.67901469  0.33551856  0.83454931  1
  Na  Na1  1  0.66275320  0.34059613  0.33044152  1
  Na  Na2  1  0.34429358  0.67403281  0.16861415  1
  Sc  Sc0  1  0.67495420  0.33374796  0.68849648  1
  Sc  Sc1  1  0.65075183  0.32743280  0.18575684  1
  Sc  Sc2  1  0.66713510  0.32421204  0.98447053  1
  Sc  Sc3  1  0.66585462  0.34024363  0.47727731  1
  Sc  Sc4  1  0.33450271  0.66592261  0.31199318  1
  Sc  Sc5  1  0.32523145  0.66695496  0.80943192  1
  Sn  Sn0  1  0.00777083  0.99490505  0.35363602  1
  Sn  Sn1  1  0.99404991  0.00205005  0.85409150  1
  Sn  Sn2  1  0.99548191  0.99440044  0.64840631  1
  Sn  Sn3  1  0.99902022  0.99905855  0.14573270  1
  Sn  Sn4  1  0.33396293  0.65996636  0.01888148  1
  Sn  Sn5  1  0.32782571  0.66235161  0.51565921  1
  P  P0  1  0.28963455  0.99843353  0.24929521  1
  P  P1  1  0.71237729  0.71132491  0.24995287  1
  P  P2  1  0.99761932  0.71333239  0.75085267  1
  P  P3  1  0.70920191  0.99915824  0.75013543  1
  P  P4  1  0.66515775  0.03795979  0.08399356  1
  P  P5  1  0.37231392  0.33192228  0.08296376  1
  P  P6  1  0.04247923  0.37671505  0.91507220  1
  P  P7  1  0.32964484  0.37395438  0.41527669  1
  P  P8  1  0.04349364  0.66640159  0.41585452  1
  S  S0  1  0.99790905  0.28896755  0.25058209  1
  S  S1  1  0.29086156  0.28869552  0.74981692  1
  S  S2  1  0.96119687  0.33245124  0.58328167  1
  S  S3  1  0.37315776  0.03893887  0.58326900  1
  S  S4  1  0.66375087  0.62648457  0.58313337  1
  S  S5  1  0.95980216  0.62512914  0.08361342  1
  S  S6  1  0.62463446  0.66513421  0.91522624  1
  S  S7  1  0.33136158  0.95741035  0.91564156  1
  S  S8  1  0.62711682  0.95836844  0.41627329  1
  O  O0  1  0.21338411  0.03798369  0.30460657  1
  O  O1  1  0.82351893  0.79533264  0.30598893  1
  O  O2  1  0.96812117  0.18004153  0.30377028  1
  O  O3  1  0.21404339  0.17540318  0.80206548  1
  O  O4  1  0.96338009  0.79604158  0.80539970  1
  O  O5  1  0.83078825  0.04321794  0.80399525  1
  O  O6  1  0.79020146  0.96853048  0.69415959  1
  O  O7  1  0.18115988  0.21177174  0.69623273  1
  O  O8  1  0.03487417  0.82612823  0.69491999  1
  O  O9  1  0.79357743  0.82695527  0.19506307  1
  O  O10  1  0.03005651  0.21139265  0.19753677  1
  O  O11  1  0.17462830  0.96727651  0.19446023  1
  O  O12  1  0.88132301  0.36082573  0.63560415  1
  O  O13  1  0.48033964  0.11931621  0.63570908  1
  O  O14  1  0.63624072  0.51965689  0.63533142  1
  O  O15  1  0.88336256  0.51832188  0.13579684  1
  O  O16  1  0.63464019  0.12091471  0.13786988  1
  O  O17  1  0.48678522  0.36753214  0.13727210  1
  O  O18  1  0.45778612  0.30832467  0.02833346  1
  O  O19  1  0.85561278  0.54642131  0.03057599  1
  O  O20  1  0.69393675  0.14790399  0.02900637  1
  O  O21  1  0.45261181  0.14678220  0.53139053  1
  O  O22  1  0.69314265  0.54658250  0.53132868  1
  O  O23  1  0.85229620  0.30273999  0.53159185  1
  O  O24  1  0.55149273  0.70127939  0.96906857  1
  O  O25  1  0.15493202  0.45572889  0.97125118  1
  O  O26  1  0.30116335  0.85065488  0.96941032  1
  O  O27  1  0.55317295  0.85098082  0.47094642  1
  O  O28  1  0.29872028  0.45009628  0.47309395  1
  O  O29  1  0.15458156  0.70474946  0.47320888  1
  O  O30  1  0.13005868  0.63742566  0.36342166  1
  O  O31  1  0.51549138  0.87806236  0.36560851  1
  O  O32  1  0.36469522  0.49274935  0.36336505  1
  O  O33  1  0.13251733  0.49078246  0.86205075  1
  O  O34  1  0.36045166  0.87584973  0.86430428  1
  O  O35  1  0.51635060  0.64136439  0.86383790  1
  O  O36  1  0.02075673  0.82931003  0.41116518  1
  O  O37  1  0.80365447  0.97768594  0.40958992  1
  O  O38  1  0.16182481  0.19241934  0.40876716  1
  O  O39  1  0.02873519  0.19319393  0.90911136  1
  O  O40  1  0.17060381  0.97313460  0.90884914  1
  O  O41  1  0.80284993  0.82567431  0.91042691  1
  O  O42  1  0.98234640  0.17411337  0.59097150  1
  O  O43  1  0.19402681  0.02049691  0.59045183  1
  O  O44  1  0.82440488  0.80515838  0.58910082  1
  O  O45  1  0.97881032  0.80245090  0.08893149  1
  O  O46  1  0.82877191  0.01667227  0.09070782  1
  O  O47  1  0.18860671  0.16775300  0.09098663  1
  O  O48  1  0.69178373  0.16461907  0.74258587  1
  O  O49  1  0.46503616  0.30454293  0.74244338  1
  O  O50  1  0.83086547  0.53200650  0.74332107  1
  O  O51  1  0.70005233  0.53136241  0.24431595  1
  O  O52  1  0.84128149  0.30702781  0.24431253  1
  O  O53  1  0.47280011  0.16310496  0.24464085  1
  O  O54  1  0.64360636  0.50904445  0.92243133  1
  O  O55  1  0.85897762  0.35602002  0.92213561  1
  O  O56  1  0.48700139  0.13441076  0.92192940  1
  O  O57  1  0.64419115  0.13300648  0.42488786  1
  O  O58  1  0.49140560  0.35088926  0.42433881  1
  O  O59  1  0.86136999  0.50122612  0.42480161  1
  O  O60  1  0.35210393  0.49938513  0.07819222  1
  O  O61  1  0.14055993  0.64694350  0.07745485  1
  O  O62  1  0.49559289  0.85237329  0.07592588  1
  O  O63  1  0.35442972  0.86029914  0.57613503  1
  O  O64  1  0.50633899  0.64843847  0.57554927  1
  O  O65  1  0.13939267  0.49208638  0.57735899  1
  O  O66  1  0.30434888  0.83292118  0.25566211  1
  O  O67  1  0.53000776  0.69367822  0.25571712  1
  O  O68  1  0.15746662  0.46284406  0.25601379  1
  O  O69  1  0.30707262  0.46074553  0.75723404  1
  O  O70  1  0.15940207  0.69494453  0.75817336  1
  O  O71  1  0.53243196  0.83605285  0.75946299  1
loop_
_geom_bond_atom_site_label_1
_geom_bond_atom_site_label_2
_geom_bond_distance
_geom_bond_site_symmetry_2
Na0 O55 2.506114 1_555
Na0 O50 2.618908 1_555
Na0 O48 2.621838 1_555
Na0 O54 2.635622 1_555
Na0 O56 2.650433 1_555
Na0 O49 2.748363 1_555
Na1 O51 2.507900 1_555
Na1 O53 2.543743 1_555
Na1 O52 2.629104 1_555
Na1 O58 2.655928 1_555
Na1 O59 2.691232 1_555
Na1 O57 2.787716 1_555
Na2 O67 2.529516 1_555
Na2 O66 2.556985 1_555
Na2 O62 2.584942 1_555
Na2 O60 2.598950 1_555
Na2 O68 2.670503 1_555
Na2 O61 2.683527 1_555
O0 P0 1.552992 1_545
O0 Sn0 1.996406 1_545
O1 P1 1.557256 1_555
O1 Sn0 2.008689 1_655
O2 S0 1.493245 1_555
O2 Sn0 2.155393 1_645
O3 S1 1.489429 1_555
O3 Sn1 2.130827 1_455
O4 P2 1.549146 1_555
O4 Sn1 2.023495 1_565
O5 P3 1.549392 1_545
O5 Sn1 2.005714 1_555
O6 P3 1.555426 1_555
O6 Sn2 1.998020 1_555
O7 S1 1.496945 1_555
O7 Sn2 2.092548 1_445
O8 P2 1.555364 1_455
O8 Sn2 1.989629 1_455
O9 P1 1.552341 1_555
O9 Sn3 2.024839 1_555
O10 S0 1.488261 1_455
O10 Sn3 2.107866 1_445
O11 P0 1.548944 1_555
O11 Sn3 2.032843 1_455
O12 S2 1.473164 1_555
O12 Sc0 2.093312 1_555
O13 S3 1.470732 1_555
O13 Sc0 2.167722 1_555
O14 S4 1.467366 1_555
O14 Sc0 2.197943 1_555
O15 S5 1.463402 1_555
O15 Sc1 2.208794 1_555
O16 P4 1.524131 1_555
O16 Sc1 2.061042 1_555
O17 P5 1.531079 1_555
O17 Sc1 1.984656 1_555
O18 P5 1.527593 1_555
O18 Sc2 2.037835 1_554
O19 S5 1.469392 1_555
O19 Sc2 2.102628 1_554
O20 P4 1.533446 1_555
O20 Sc2 1.966317 1_554
O21 S3 1.465271 1_555
O21 Sc3 2.182116 1_555
O22 S4 1.466377 1_555
O22 Sc3 2.105264 1_555
O23 S2 1.462075 1_555
O23 Sc3 2.208435 1_555
O24 S6 1.497728 1_555
O24 Sn4 2.095986 1_556
O25 P6 1.558321 1_555
O25 Sn4 2.012181 1_556
O26 S7 1.493292 1_555
O26 Sn4 2.159677 1_556
O27 S8 1.509976 1_555
O27 Sn5 2.106995 1_555
O28 P7 1.568429 1_555
O28 Sn5 2.001406 1_555
O29 P8 1.570342 1_555
O29 Sn5 1.991021 1_555
O30 P8 1.511068 1_555
O30 Sc4 2.056282 1_555
O31 S8 1.453868 1_555
O31 Sc4 2.129152 1_555
O32 P7 1.512622 1_555
O32 Sc4 2.045060 1_555
O33 P6 1.524529 1_555
O33 Sc5 2.026066 1_555
O34 S7 1.464895 1_555
O34 Sc5 2.113253 1_555
O35 S6 1.462109 1_555
O35 Sc5 2.190425 1_555
O36 P8 1.543150 1_555
O36 Sn0 2.011135 1_555
O37 S8 1.479307 1_555
O37 Sn0 2.147591 1_655
O38 P7 1.542941 1_555
O38 Sn0 2.019515 1_545
O39 P6 1.559476 1_555
O39 Sn1 1.995378 1_455
O40 S7 1.492186 1_555
O40 Sn1 2.106389 1_465
O41 S6 1.496397 1_555
O41 Sn1 2.073052 1_565
O42 S2 1.501842 1_555
O42 Sn2 2.105154 1_545
O43 S3 1.506212 1_555
O43 Sn2 2.112227 1_445
O44 S4 1.500760 1_555
O44 Sn2 2.087885 1_555
O45 S5 1.484571 1_555
O45 Sn3 2.095859 1_555
O46 P4 1.544927 1_555
O46 Sn3 2.020106 1_545
O47 P5 1.544712 1_555
O47 Sn3 2.021465 1_445
O48 P3 1.544364 1_545
O48 Sc0 1.998834 1_555
O49 S1 1.473211 1_555
O49 Sc0 2.126667 1_555
O50 P2 1.540233 1_555
O50 Sc0 2.022495 1_555
O51 P1 1.533305 1_555
O51 Sc1 2.100423 1_555
O52 S0 1.466771 1_555
O52 Sc1 2.220779 1_555
O53 P0 1.536281 1_545
O53 Sc1 2.025973 1_555
O54 S6 1.469911 1_555
O54 Sc2 2.246965 1_555
O55 P6 1.535745 1_655
O55 Sc2 2.119689 1_555
O56 S7 1.474942 1_545
O56 Sc2 2.165103 1_555
O57 S8 1.476287 1_545
O57 Sc3 2.105827 1_555
O58 P7 1.544374 1_555
O58 Sc3 1.992499 1_555
O59 P8 1.543192 1_655
O59 Sc3 1.994030 1_555
O60 P5 1.569931 1_555
O60 Sn4 2.024715 1_555
O61 S5 1.505890 1_455
O61 Sn4 2.123512 1_555
O62 P4 1.573168 1_565
O62 Sn4 2.042153 1_555
O63 S3 1.500929 1_565
O63 Sn5 2.140837 1_555
O64 S4 1.496753 1_555
O64 Sn5 2.132698 1_555
O65 S2 1.495181 1_455
O65 Sn5 2.124703 1_555
O66 P0 1.528541 1_555
O66 Sc4 2.070640 1_555
O67 P1 1.534070 1_555
O67 Sc4 2.063057 1_555
O68 S0 1.471713 1_455
O68 Sc4 2.111698 1_555
O69 S1 1.453635 1_555
O69 Sc5 2.106647 1_555
O70 P2 1.515724 1_455
O70 Sc5 1.979655 1_555
O71 P3 1.510370 1_555
O71 Sc5 2.033445 1_555
