# generated using pymatgen
data_Ce3Ni2B2N3
_symmetry_space_group_name_H-M   'P 1'
_cell_length_a   10.42179809
_cell_length_b   10.42179809
_cell_length_c   10.42179809
_cell_angle_alpha   160.23902383
_cell_angle_beta   160.23902383
_cell_angle_gamma   28.08836128
_symmetry_Int_Tables_number   1
_chemical_formula_structural   Ce3Ni2B2N3
_chemical_formula_sum   'Ce3 Ni2 B2 N3'
_cell_volume   129.33339701
_cell_formula_units_Z   1
loop_
 _symmetry_equiv_pos_site_id
 _symmetry_equiv_pos_as_xyz
  1  'x, y, z'
loop_
 _atom_site_type_symbol
 _atom_site_label
 _atom_site_symmetry_multiplicity
 _atom_site_fract_x
 _atom_site_fract_y
 _atom_site_fract_z
 _atom_site_occupancy
  Ce  Ce0  1  0.62688400  0.62688400  0.00000000  1
  Ce  Ce1  1  0.37311600  0.37311600  0.00000000  1
  Ce  Ce2  1  0.00000000  0.00000000  0.00000000  1
  Ni  Ni0  1  0.75000000  0.25000000  0.50000000  1
  Ni  Ni1  1  0.25000000  0.75000000  0.50000000  1
  B  B0  1  0.80828500  0.80828500  0.00000000  1
  B  B1  1  0.19171500  0.19171500  0.00000000  1
  N  N0  1  0.88083600  0.88083600  0.00000000  1
  N  N1  1  0.50000000  0.50000000  0.00000000  1
  N  N2  1  0.11916400  0.11916400  0.00000000  1
loop_
_geom_bond_atom_site_label_1
_geom_bond_atom_site_label_2
_geom_bond_distance
_geom_bond_site_symmetry_2
Ce0 N2 2.533871 1_565
Ce0 N2 2.533871 1_666
Ce0 N2 2.533871 1_655
Ce0 N2 2.533871 1_554
Ce0 N1 2.565665 1_555
Ce1 N0 2.533871 1_455
Ce1 N0 2.533871 1_556
Ce1 N0 2.533871 1_545
Ce1 N0 2.533871 1_444
Ce1 N1 2.565665 1_555
Ce2 N2 2.409563 1_555
Ce2 N0 2.409563 1_445
Ce2 N1 2.529058 1_444
Ce2 N1 2.529058 1_545
Ce2 N1 2.529058 1_455
Ce2 N1 2.529058 1_556
B0 N0 1.467022 1_555
B0 Ni1 2.141742 1_554
B0 Ni0 2.141742 1_554
B0 Ni1 2.141742 1_655
B0 Ni0 2.141742 1_565
B1 N2 1.467022 1_555
B1 Ni0 2.141742 1_454
B1 Ni1 2.141742 1_544
B1 Ni1 2.141742 1_555
B1 Ni0 2.141742 1_555
