# generated using pymatgen
data_Y2Mg
_symmetry_space_group_name_H-M   'P 1'
_cell_length_a   13.12613948
_cell_length_b   5.22709431
_cell_length_c   5.22052361
_cell_angle_alpha   90.00000000
_cell_angle_beta   90.00000000
_cell_angle_gamma   90.00002140
_symmetry_Int_Tables_number   1
_chemical_formula_structural   Y2Mg
_chemical_formula_sum   'Y8 Mg4'
_cell_volume   358.18831582
_cell_formula_units_Z   4
loop_
 _symmetry_equiv_pos_site_id
 _symmetry_equiv_pos_as_xyz
  1  'x, y, z'
loop_
 _atom_site_type_symbol
 _atom_site_label
 _atom_site_symmetry_multiplicity
 _atom_site_fract_x
 _atom_site_fract_y
 _atom_site_fract_z
 _atom_site_occupancy
  Y  Y0  1  0.15763089  0.24942351  0.75000000  1
  Y  Y1  1  0.34255564  0.74943279  0.75000000  1
  Y  Y2  1  0.15763089  0.75057649  0.25000000  1
  Y  Y3  1  0.34255564  0.25056721  0.25000000  1
  Y  Y4  1  0.65745483  0.74943671  0.75000000  1
  Y  Y5  1  0.84235892  0.24942858  0.75000000  1
  Y  Y6  1  0.65745483  0.25056329  0.25000000  1
  Y  Y7  1  0.84235892  0.75057042  0.25000000  1
  Mg  Mg0  1  -0.00008635  0.74652535  0.75000000  1
  Mg  Mg1  1  -0.00008635  0.25347465  0.25000000  1
  Mg  Mg2  1  0.50008708  0.24653353  0.75000000  1
  Mg  Mg3  1  0.50008708  0.75346647  0.25000000  1
loop_
_geom_bond_atom_site_label_1
_geom_bond_atom_site_label_2
_geom_bond_distance
_geom_bond_site_symmetry_2
Y0 Y3 3.564480 1_556
Y0 Y3 3.564480 1_555
Y0 Y1 3.566847 1_545
Y0 Y1 3.566917 1_555
Y0 Y2 3.689530 1_546
Y0 Y2 3.689530 1_545
Y0 Y2 3.698058 1_555
Y0 Y2 3.698058 1_556
Y1 Y2 3.564480 1_555
Y1 Y2 3.564480 1_556
Y1 Y3 3.689598 1_555
Y1 Y3 3.689598 1_556
Y1 Y3 3.697989 1_566
Y1 Y3 3.697989 1_565
Y2 Y3 3.566846 1_565
Y2 Y3 3.566918 1_555
Y4 Y7 3.564296 1_556
Y4 Y7 3.564296 1_555
Y4 Y5 3.566666 1_565
Y4 Y5 3.566729 1_555
Y4 Y6 3.689627 1_556
Y4 Y6 3.689627 1_555
Y4 Y6 3.697960 1_565
Y4 Y6 3.697960 1_566
Y5 Y6 3.564296 1_555
Y5 Y6 3.564296 1_556
Y5 Y7 3.689571 1_545
Y5 Y7 3.689571 1_546
Y5 Y7 3.698017 1_556
Y5 Y7 3.698017 1_555
Y6 Y7 3.566671 1_545
Y6 Y7 3.566724 1_555
Mg0 Y5 3.320920 1_455
Mg0 Y0 3.322271 1_555
Mg0 Y7 3.330299 1_456
Mg0 Y7 3.330299 1_455
Mg0 Y2 3.331624 1_556
Mg0 Y2 3.331624 1_555
Mg0 Y5 3.344722 1_465
Mg0 Y0 3.346019 1_565
Mg1 Y7 3.320917 1_455
Mg1 Y2 3.322269 1_555
Mg1 Y5 3.330299 1_454
Mg1 Y5 3.330299 1_455
Mg1 Y0 3.331624 1_554
Mg1 Y0 3.331624 1_555
Mg1 Y7 3.344725 1_445
Mg1 Y2 3.346020 1_545
Mg2 Y4 3.319393 1_545
Mg2 Y1 3.320746 1_545
Mg2 Y6 3.328775 1_555
Mg2 Y6 3.328775 1_556
Mg2 Y3 3.330109 1_556
Mg2 Y3 3.330109 1_555
Mg2 Y4 3.343203 1_555
Mg2 Y1 3.344516 1_555
Mg3 Y6 3.319392 1_565
Mg3 Y3 3.320747 1_565
Mg3 Y4 3.328775 1_554
Mg3 Y4 3.328775 1_555
Mg3 Y1 3.330109 1_554
Mg3 Y1 3.330109 1_555
Mg3 Y6 3.343205 1_555
Mg3 Y3 3.344515 1_555
