# generated using pymatgen
data_MgFe6(O5F)2
_symmetry_space_group_name_H-M   'P 1'
_cell_length_a   7.93807234
_cell_length_b   5.74932776
_cell_length_c   5.86547377
_cell_angle_alpha   68.23665544
_cell_angle_beta   65.20688846
_cell_angle_gamma   66.51276241
_symmetry_Int_Tables_number   1
_chemical_formula_structural   MgFe6(O5F)2
_chemical_formula_sum   'Mg1 Fe6 O10 F2'
_cell_volume   216.11423823
_cell_formula_units_Z   1
loop_
 _symmetry_equiv_pos_site_id
 _symmetry_equiv_pos_as_xyz
  1  'x, y, z'
loop_
 _atom_site_type_symbol
 _atom_site_label
 _atom_site_symmetry_multiplicity
 _atom_site_fract_x
 _atom_site_fract_y
 _atom_site_fract_z
 _atom_site_occupancy
  Mg  Mg0  1  0.50374334  0.99661471  0.49605608  1
  Fe  Fe0  1  0.87999175  0.67707999  0.68030675  1
  Fe  Fe1  1  0.68474003  0.38250617  0.34074475  1
  Fe  Fe2  1  0.32176467  0.61128966  0.65100839  1
  Fe  Fe3  1  0.12782187  0.31885258  0.31302952  1
  Fe  Fe4  1  0.50309038  0.99761895  0.99595271  1
  Fe  Fe5  1  0.00376844  0.99763406  0.99628778  1
  O  O0  1  0.68256573  0.02927073  0.63591101  1
  O  O1  1  0.32854737  0.34976755  0.97564303  1
  O  O2  1  0.95964797  0.22851908  0.20823553  1
  O  O3  1  0.59233898  0.60609959  0.56190145  1
  O  O4  1  0.04749976  0.76715180  0.78406658  1
  O  O5  1  0.41330427  0.38750710  0.43047021  1
  O  O6  1  0.32370382  0.96636651  0.35663607  1
  O  O7  1  0.67731471  0.64594645  0.01790302  1
  O  O8  1  0.00038275  0.30183120  0.68658269  1
  O  O9  1  0.00722418  0.69296397  0.30533940  1
  F  F0  1  0.31090151  0.92206249  0.87033144  1
  F  F1  1  0.69646346  0.07329842  0.12216457  1
loop_
_geom_bond_atom_site_label_1
_geom_bond_atom_site_label_2
_geom_bond_distance
_geom_bond_site_symmetry_2
Mg0 O3 2.002714 1_555
Mg0 O5 2.004629 1_565
Mg0 O6 2.006305 1_555
Mg0 O0 2.006591 1_565
Fe0 O7 1.958658 1_556
Fe0 O4 1.966704 1_655
Fe0 O8 1.973915 1_655
Fe0 O9 1.981713 1_655
Fe0 O0 2.011409 1_565
Fe1 O3 1.886861 1_555
Fe1 O2 1.922978 1_555
Fe1 O7 1.943946 1_555
Fe1 O5 1.982733 1_555
Fe1 O0 2.125480 1_555
Fe2 O5 1.886073 1_555
Fe2 O4 1.921070 1_555
Fe2 O1 1.946219 1_555
Fe2 O3 1.976425 1_555
Fe2 O6 2.130247 1_555
Fe3 O1 1.951150 1_554
Fe3 O9 1.966675 1_555
Fe3 O8 1.973490 1_555
Fe3 O2 1.976683 1_455
Fe3 O6 2.006884 1_545
Fe4 O7 1.935123 1_556
Fe4 O1 1.938188 1_565
Fe4 O0 1.980140 1_565
Fe4 O6 1.982717 1_556
Fe5 O2 1.979447 1_466
Fe5 O4 1.979901 1_555
Fe5 O9 2.000954 1_556
Fe5 O8 2.001734 1_565
F0 Mg0 2.086428 1_555
F0 Fe5 2.135810 1_555
F0 Fe4 2.183456 1_555
F0 Fe2 2.518607 1_555
F1 Mg0 2.085921 1_545
F1 Fe5 2.137020 1_644
F1 Fe4 2.194966 1_544
F1 Fe1 2.504181 1_555
