# generated using pymatgen
data_KCuCl3
_symmetry_space_group_name_H-M   'P 1'
_cell_length_a   4.05982934
_cell_length_b   8.71618051
_cell_length_c   13.76344897
_cell_angle_alpha   90.00000000
_cell_angle_beta   90.00000000
_cell_angle_gamma   97.11185592
_symmetry_Int_Tables_number   1
_chemical_formula_structural   KCuCl3
_chemical_formula_sum   'K4 Cu4 Cl12'
_cell_volume   483.28914132
_cell_formula_units_Z   4
loop_
 _symmetry_equiv_pos_site_id
 _symmetry_equiv_pos_as_xyz
  1  'x, y, z'
loop_
 _atom_site_type_symbol
 _atom_site_label
 _atom_site_symmetry_multiplicity
 _atom_site_fract_x
 _atom_site_fract_y
 _atom_site_fract_z
 _atom_site_occupancy
  K  K0  1  0.21682053  0.44187620  0.83079487  1
  K  K1  1  0.78317947  0.05812380  0.33079487  1
  K  K2  1  0.78317947  0.55812380  0.16920513  1
  K  K3  1  0.21682053  0.94187620  0.66920513  1
  Cu  Cu0  1  0.76231713  0.34332700  0.54972304  1
  Cu  Cu1  1  0.23768287  0.15667300  0.04972304  1
  Cu  Cu2  1  0.23768287  0.65667300  0.45027696  1
  Cu  Cu3  1  0.76231713  0.84332700  0.95027696  1
  Cl  Cl0  1  0.67610485  0.32033486  0.99236416  1
  Cl  Cl1  1  0.82377736  0.96505423  0.09914197  1
  Cl  Cl2  1  0.82377736  0.46505423  0.40085803  1
  Cl  Cl3  1  0.17622264  0.03494577  0.90085803  1
  Cl  Cl4  1  0.72602233  0.73651745  0.80082954  1
  Cl  Cl5  1  0.27397767  0.76348255  0.30082954  1
  Cl  Cl6  1  0.27397767  0.26348255  0.19917046  1
  Cl  Cl7  1  0.32389515  0.17966514  0.49236416  1
  Cl  Cl8  1  0.32389515  0.67966514  0.00763584  1
  Cl  Cl9  1  0.67610485  0.82033486  0.50763584  1
  Cl  Cl10  1  0.72602233  0.23651745  0.69917046  1
  Cl  Cl11  1  0.17622264  0.53494577  0.59914197  1
loop_
_geom_bond_atom_site_label_1
_geom_bond_atom_site_label_2
_geom_bond_distance
_geom_bond_site_symmetry_2
Cl0 Cu1 2.279817 1_556
Cl0 Cu1 2.943038 1_656
Cl0 K0 3.167532 1_555
Cl0 K2 3.191499 1_556
Cl0 K0 3.210992 1_655
Cl1 Cu3 2.306598 1_554
Cl1 Cu1 2.319678 1_665
Cl1 K1 3.299071 1_565
Cl1 K2 3.659598 1_555
Cl2 Cu0 2.306598 1_555
Cl2 Cu2 2.319678 1_655
Cl2 K2 3.299071 1_555
Cl2 K1 3.659598 1_555
Cl3 Cu1 2.306598 1_556
Cl3 Cu3 2.319678 1_445
Cl3 K3 3.299071 1_545
Cl3 K0 3.659598 1_555
Cl4 Cu3 2.255070 1_555
Cl4 K3 3.094021 1_655
Cl4 K0 3.118412 1_555
Cl4 K3 3.416969 1_555
Cl4 K0 3.464511 1_655
Cl5 Cu2 2.255070 1_555
Cl5 K2 3.094021 1_455
Cl5 K1 3.118412 1_565
Cl5 K2 3.416969 1_555
Cl5 K1 3.464511 1_465
Cl6 Cu1 2.255070 1_555
Cl6 K1 3.094021 1_455
Cl6 K2 3.118412 1_555
Cl6 K1 3.416969 1_555
Cl6 K2 3.464511 1_455
Cl7 Cu0 2.279817 1_555
Cl7 Cu0 2.943038 1_455
Cl7 K1 3.167532 1_555
Cl7 K3 3.191499 1_545
Cl7 K1 3.210992 1_455
Cl8 Cu3 2.279817 1_554
Cl8 Cu3 2.943038 1_454
Cl8 K2 3.167532 1_555
Cl8 K0 3.191499 1_554
Cl8 K2 3.210992 1_455
Cl9 Cu2 2.279817 1_555
Cl9 Cu2 2.943038 1_655
Cl9 K3 3.167532 1_555
Cl9 K1 3.191499 1_565
Cl9 K3 3.210992 1_655
Cl10 Cu0 2.255070 1_555
Cl10 K0 3.094021 1_655
Cl10 K3 3.118412 1_545
Cl10 K0 3.416969 1_555
Cl10 K3 3.464511 1_645
Cl11 Cu2 2.306598 1_555
Cl11 Cu0 2.319678 1_455
Cl11 K0 3.299071 1_555
Cl11 K3 3.659598 1_555
