# generated using pymatgen
data_LiGaI3
_symmetry_space_group_name_H-M   'P 1'
_cell_length_a   11.46892782
_cell_length_b   7.20519827
_cell_length_c   8.49154513
_cell_angle_alpha   87.90341096
_cell_angle_beta   90.00000000
_cell_angle_gamma   90.00000000
_symmetry_Int_Tables_number   1
_chemical_formula_structural   LiGaI3
_chemical_formula_sum   'Li4 Ga4 I12'
_cell_volume   701.23672351
_cell_formula_units_Z   4
loop_
 _symmetry_equiv_pos_site_id
 _symmetry_equiv_pos_as_xyz
  1  'x, y, z'
loop_
 _atom_site_type_symbol
 _atom_site_label
 _atom_site_symmetry_multiplicity
 _atom_site_fract_x
 _atom_site_fract_y
 _atom_site_fract_z
 _atom_site_occupancy
  Li  Li0  1  0.50000000  0.00000000  0.50000000  1
  Li  Li1  1  0.50000000  0.50000000  -0.00000000  1
  Li  Li2  1  0.00000000  0.00000000  0.50000000  1
  Li  Li3  1  0.00000000  0.50000000  -0.00000000  1
  Ga  Ga0  1  0.25000000  0.03249051  0.96936717  1
  Ga  Ga1  1  0.75000000  0.86790360  0.75986173  1
  Ga  Ga2  1  0.75000000  0.96750949  0.03063283  1
  Ga  Ga3  1  0.25000000  0.13209640  0.24013827  1
  I  I0  1  0.75000000  0.32663962  0.06483306  1
  I  I1  1  0.57033794  0.66456083  0.68365767  1
  I  I2  1  0.07033794  0.33543917  0.31634233  1
  I  I3  1  0.42966206  0.33543917  0.31634233  1
  I  I4  1  0.07092418  0.17718678  0.81378073  1
  I  I5  1  0.57092418  0.82281322  0.18621927  1
  I  I6  1  0.92907582  0.82281322  0.18621927  1
  I  I7  1  0.42907582  0.17718678  0.81378073  1
  I  I8  1  0.25000000  0.67336038  0.93516694  1
  I  I9  1  0.75000000  0.13924318  0.54705522  1
  I  I10  1  0.25000000  0.86075682  0.45294478  1
  I  I11  1  0.92966206  0.66456083  0.68365767  1
loop_
_geom_bond_atom_site_label_1
_geom_bond_atom_site_label_2
_geom_bond_distance
_geom_bond_site_symmetry_2
Ga0 Ga3 2.433603 1_556
Ga0 I8 2.614387 1_545
Ga0 I7 2.636242 1_555
Ga0 I4 2.636242 1_555
Ga1 Ga2 2.433603 1_556
Ga1 I9 2.613273 1_565
Ga1 I1 2.623066 1_555
Ga1 I11 2.623066 1_555
Ga2 I0 2.614387 1_565
Ga2 I5 2.636242 1_555
Ga2 I6 2.636242 1_555
Ga3 I10 2.613273 1_545
Ga3 I2 2.623066 1_555
Ga3 I3 2.623066 1_555
I0 Li1 3.167654 1_555
I0 Li3 3.167654 1_655
I1 Li0 2.940844 1_565
I1 Li1 3.006568 1_556
I2 Li2 2.940844 1_555
I2 Li3 3.006568 1_555
I3 Li0 2.940844 1_555
I3 Li1 3.006568 1_555
I4 Li3 2.973418 1_556
I4 Li2 3.104819 1_555
I5 Li1 2.973418 1_555
I5 Li0 3.104819 1_565
I6 Li3 2.973418 1_655
I6 Li2 3.104819 1_665
I7 Li1 2.973418 1_556
I7 Li0 3.104819 1_555
I8 Li3 3.167654 1_556
I8 Li1 3.167654 1_556
I9 Li2 3.068643 1_655
I9 Li0 3.068643 1_555
I10 Li0 3.068643 1_565
I10 Li2 3.068643 1_565
I11 Li2 2.940844 1_665
I11 Li3 3.006568 1_656
