# generated using pymatgen
data_MgTl2Cu2H2(SeO5)2
_symmetry_space_group_name_H-M   'P 1'
_cell_length_a   10.38791600
_cell_length_b   6.01041871
_cell_length_c   5.63926037
_cell_angle_alpha   90.00000000
_cell_angle_beta   105.19630533
_cell_angle_gamma   90.00000000
_symmetry_Int_Tables_number   1
_chemical_formula_structural   MgTl2Cu2H2(SeO5)2
_chemical_formula_sum   'Mg1 Tl2 Cu2 H2 Se2 O10'
_cell_volume   339.77987205
_cell_formula_units_Z   1
loop_
 _symmetry_equiv_pos_site_id
 _symmetry_equiv_pos_as_xyz
  1  'x, y, z'
loop_
 _atom_site_type_symbol
 _atom_site_label
 _atom_site_symmetry_multiplicity
 _atom_site_fract_x
 _atom_site_fract_y
 _atom_site_fract_z
 _atom_site_occupancy
  Mg  Mg0  1  0.27357142  0.25000000  0.08548681  1
  Tl  Tl0  1  0.66330596  0.25000000  0.92674031  1
  Tl  Tl1  1  0.38194864  0.75000000  0.48093863  1
  Cu  Cu0  1  0.98925153  0.48926948  0.91953873  1
  Cu  Cu1  1  0.98925153  0.01073052  0.91953873  1
  H  H0  1  0.85546037  0.25000000  0.56283469  1
  H  H1  1  0.04271006  0.75000000  0.25378103  1
  Se  Se0  1  0.24176842  0.25000000  0.60291008  1
  Se  Se1  1  0.78153571  0.75000000  0.42287776  1
  O  O0  1  0.87377720  0.25000000  0.74327722  1
  O  O1  1  0.07366085  0.75000000  0.10383710  1
  O  O2  1  0.29594335  0.46322644  0.81452723  1
  O  O3  1  0.80727129  0.97973346  0.27414571  1
  O  O4  1  0.80727129  0.52026654  0.27414571  1
  O  O5  1  0.29594335  0.03677356  0.81452723  1
  O  O6  1  0.36396217  0.25000000  0.43835538  1
  O  O7  1  0.63349312  0.75000000  0.48624307  1
  O  O8  1  0.08854600  0.25000000  0.09825751  1
  O  O9  1  0.90561373  0.75000000  0.70859307  1
loop_
_geom_bond_atom_site_label_1
_geom_bond_atom_site_label_2
_geom_bond_distance
_geom_bond_site_symmetry_2
Mg0 O8 1.942150 1_555
Mg0 O6 1.965168 1_555
Mg0 O5 2.053641 1_554
Mg0 O2 2.053641 1_554
Cu0 O8 1.898112 1_656
Cu0 O1 1.956284 1_656
Cu0 O0 1.967225 1_555
Cu0 O9 2.020870 1_555
Cu1 O8 1.898112 1_656
Cu1 O1 1.956284 1_646
Cu1 O0 1.967225 1_555
Cu1 O9 2.020870 1_545
H0 O0 0.984954 1_555
H1 O1 0.980250 1_555
O0 Tl0 2.652623 1_555
O2 Se0 1.741031 1_555
O3 Se1 1.673050 1_555
O3 Tl0 2.679061 1_564
O4 Se1 1.673050 1_555
O4 Tl0 2.679061 1_554
O5 Se0 1.741031 1_555
O6 Se0 1.757801 1_555
O7 Se1 1.667565 1_555
O7 Tl1 2.605342 1_555
O9 Se1 1.780057 1_555
