# generated using pymatgen
data_Li2GeAu
_symmetry_space_group_name_H-M   'P 1'
_cell_length_a   4.36163289
_cell_length_b   4.36163284
_cell_length_c   4.36163315
_cell_angle_alpha   59.99999002
_cell_angle_beta   59.99999038
_cell_angle_gamma   59.99998876
_symmetry_Int_Tables_number   1
_chemical_formula_structural   Li2GeAu
_chemical_formula_sum   'Li2 Ge1 Au1'
_cell_volume   58.67218334
_cell_formula_units_Z   1
loop_
 _symmetry_equiv_pos_site_id
 _symmetry_equiv_pos_as_xyz
  1  'x, y, z'
loop_
 _atom_site_type_symbol
 _atom_site_label
 _atom_site_symmetry_multiplicity
 _atom_site_fract_x
 _atom_site_fract_y
 _atom_site_fract_z
 _atom_site_occupancy
  Li  Li0  1  0.25000000  0.25000000  0.25000000  1
  Li  Li1  1  0.50000000  0.50000000  0.50000000  1
  Ge  Ge0  1  0.00000000  0.00000000  0.00000000  1
  Au  Au0  1  0.75000000  0.75000000  0.75000000  1
loop_
_geom_bond_atom_site_label_1
_geom_bond_atom_site_label_2
_geom_bond_distance
_geom_bond_site_symmetry_2
Ge0 Li0 2.670943 1_545
Ge0 Li0 2.670943 1_455
Ge0 Li0 2.670944 1_554
Ge0 Li0 2.670944 1_555
Au0 Ge0 2.670943 1_656
Au0 Li1 2.670943 1_565
Au0 Ge0 2.670943 1_566
Au0 Li1 2.670943 1_655
Au0 Ge0 2.670944 1_665
Au0 Li1 2.670944 1_556
Au0 Ge0 2.670944 1_666
Au0 Li1 2.670944 1_555
Au0 Li0 3.084140 1_665
Au0 Li0 3.084140 1_556
Au0 Li0 3.084140 1_656
Au0 Li0 3.084140 1_655
Au0 Li0 3.084140 1_566
Au0 Li0 3.084140 1_565
