# generated using pymatgen
data_Na4Hf3MgSi3(SO8)3
_symmetry_space_group_name_H-M   'P 1'
_cell_length_a   9.00405382
_cell_length_b   9.01304415
_cell_length_c   23.06527662
_cell_angle_alpha   89.76655824
_cell_angle_beta   90.11826501
_cell_angle_gamma   120.10179773
_symmetry_Int_Tables_number   1
_chemical_formula_structural   Na4Hf3MgSi3(SO8)3
_chemical_formula_sum   'Na12 Hf9 Mg3 Si9 S9 O72'
_cell_volume   1619.38036509
_cell_formula_units_Z   3
loop_
 _symmetry_equiv_pos_site_id
 _symmetry_equiv_pos_as_xyz
  1  'x, y, z'
loop_
 _atom_site_type_symbol
 _atom_site_label
 _atom_site_symmetry_multiplicity
 _atom_site_fract_x
 _atom_site_fract_y
 _atom_site_fract_z
 _atom_site_occupancy
  Na  Na0  1  0.63055847  0.00650518  0.24155894  1
  Na  Na1  1  0.37707368  0.35561934  0.25118312  1
  Na  Na2  1  0.99307862  0.64585415  0.24727487  1
  Na  Na3  1  0.99288508  0.35245788  0.75502269  1
  Na  Na4  1  0.38086050  0.01547023  0.75533986  1
  Na  Na5  1  0.69943383  0.67778412  0.40608333  1
  Na  Na6  1  0.00644820  0.01836239  0.48888562  1
  Na  Na7  1  0.00201818  0.01088315  0.00024856  1
  Na  Na8  1  0.65893977  0.32525280  0.83469217  1
  Na  Na9  1  0.64698855  0.31989936  0.32520129  1
  Na  Na10  1  0.34920167  0.68603566  0.16299060  1
  Na  Na11  1  0.35061323  0.66499689  0.67154981  1
  Hf  Hf0  1  0.01127935  0.02343030  0.85614393  1
  Hf  Hf1  1  0.99421011  0.00758446  0.65035363  1
  Hf  Hf2  1  0.98950430  0.98784806  0.14795167  1
  Hf  Hf3  1  0.66727100  0.31200274  0.97922421  1
  Hf  Hf4  1  0.65632829  0.32179678  0.47668482  1
  Hf  Hf5  1  0.33063416  0.67520812  0.01946126  1
  Hf  Hf6  1  0.34148203  0.66199187  0.51574448  1
  Hf  Hf7  1  0.35203225  0.67911017  0.31384328  1
  Hf  Hf8  1  0.34110818  0.66797030  0.81727400  1
  Mg  Mg0  1  0.00795812  0.00642741  0.35157415  1
  Mg  Mg1  1  0.65941194  0.33045818  0.68875388  1
  Mg  Mg2  1  0.64927301  0.31865861  0.18352162  1
  Si  Si0  1  0.28960686  0.00224192  0.25172514  1
  Si  Si1  1  0.71239274  0.70323306  0.25337236  1
  Si  Si2  1  0.29902421  0.29854008  0.74917972  1
  Si  Si3  1  0.70378325  0.99856305  0.75010723  1
  Si  Si4  1  0.66892586  0.03819829  0.08747594  1
  Si  Si5  1  0.04349721  0.38254036  0.91740362  1
  Si  Si6  1  0.32837346  0.95769408  0.91517771  1
  Si  Si7  1  0.63574759  0.96185837  0.41646597  1
  Si  Si8  1  0.32209779  0.36383256  0.41563023  1
  S  S0  1  0.99921262  0.29005629  0.25066256  1
  S  S1  1  0.99656897  0.70955159  0.74950681  1
  S  S2  1  0.95674748  0.33600939  0.58467688  1
  S  S3  1  0.37367175  0.03965353  0.58452087  1
  S  S4  1  0.66905329  0.62334368  0.58374103  1
  S  S5  1  0.95423446  0.62068036  0.08440580  1
  S  S6  1  0.37646552  0.33487629  0.08395129  1
  S  S7  1  0.62595720  0.66629408  0.91837123  1
  S  S8  1  0.04308654  0.66571971  0.41824537  1
  O  O0  1  0.20360952  0.03860350  0.30608762  1
  O  O1  1  0.81996577  0.78496598  0.31184569  1
  O  O2  1  0.96704252  0.18294508  0.30217948  1
  O  O3  1  0.20333348  0.16849335  0.80390548  1
  O  O4  1  0.97120676  0.78611460  0.80096653  1
  O  O5  1  0.82949685  0.02389436  0.80433047  1
  O  O6  1  0.79531172  0.96659702  0.69237810  1
  O  O7  1  0.16731206  0.19940871  0.69318187  1
  O  O8  1  0.02748590  0.82160680  0.69671475  1
  O  O9  1  0.79695757  0.83479823  0.19697542  1
  O  O10  1  0.03406684  0.21452854  0.19838029  1
  O  O11  1  0.16809130  0.96820122  0.19333831  1
  O  O12  1  0.87849093  0.35654044  0.63741552  1
  O  O13  1  0.47713973  0.11828131  0.63638858  1
  O  O14  1  0.64559774  0.51786024  0.63504976  1
  O  O15  1  0.87962996  0.52386713  0.13756468  1
  O  O16  1  0.64300896  0.12091595  0.14507340  1
  O  O17  1  0.47681291  0.36154179  0.13706024  1
  O  O18  1  0.46282208  0.31510174  0.03202005  1
  O  O19  1  0.84857755  0.54064623  0.03210637  1
  O  O20  1  0.69143773  0.15706809  0.02920192  1
  O  O21  1  0.45987474  0.14885507  0.53237072  1
  O  O22  1  0.68892340  0.54391868  0.53033368  1
  O  O23  1  0.85110770  0.31432628  0.53272506  1
  O  O24  1  0.54397034  0.69345137  0.96901723  1
  O  O25  1  0.16699994  0.47214988  0.97255633  1
  O  O26  1  0.31057385  0.83945945  0.97105720  1
  O  O27  1  0.52673313  0.83860919  0.47237078  1
  O  O28  1  0.30980063  0.46980384  0.47277030  1
  O  O29  1  0.15107703  0.68434252  0.47009698  1
  O  O30  1  0.11464183  0.63336424  0.36555099  1
  O  O31  1  0.51144322  0.87893855  0.35942845  1
  O  O32  1  0.36559039  0.49372859  0.35993615  1
  O  O33  1  0.12977895  0.48876975  0.85657495  1
  O  O34  1  0.36249579  0.87430032  0.85640523  1
  O  O35  1  0.51842295  0.63892881  0.86483379  1
  O  O36  1  0.02122387  0.81458688  0.41467662  1
  O  O37  1  0.81309277  0.96406596  0.41366629  1
  O  O38  1  0.16144964  0.17775471  0.41410211  1
  O  O39  1  0.01757822  0.18917027  0.91208849  1
  O  O40  1  0.15281585  0.96565365  0.90953691  1
  O  O41  1  0.79569948  0.81927789  0.90956240  1
  O  O42  1  0.97561748  0.17900822  0.58838829  1
  O  O43  1  0.19985146  0.02131875  0.58863078  1
  O  O44  1  0.82386312  0.79793232  0.58846343  1
  O  O45  1  0.97798702  0.79782692  0.08791220  1
  O  O46  1  0.84449291  0.02251326  0.08851387  1
  O  O47  1  0.20316293  0.17872752  0.08891552  1
  O  O48  1  0.69671914  0.17405599  0.74193086  1
  O  O49  1  0.48058464  0.30879935  0.74197748  1
  O  O50  1  0.85037625  0.53549043  0.73997525  1
  O  O51  1  0.69130083  0.51577354  0.24179803  1
  O  O52  1  0.85193450  0.31720586  0.24234519  1
  O  O53  1  0.48503075  0.16278082  0.24546815  1
  O  O54  1  0.64060872  0.51191841  0.92493315  1
  O  O55  1  0.85527774  0.36819844  0.92284936  1
  O  O56  1  0.49569114  0.15067113  0.92264160  1
  O  O57  1  0.64972102  0.14939748  0.42640676  1
  O  O58  1  0.51137568  0.37229691  0.42737975  1
  O  O59  1  0.86772964  0.50991295  0.42782499  1
  O  O60  1  0.35528774  0.48778913  0.07637178  1
  O  O61  1  0.12950568  0.64045090  0.07754223  1
  O  O62  1  0.50016695  0.84477999  0.07666777  1
  O  O63  1  0.35275773  0.86598869  0.57636885  1
  O  O64  1  0.51276807  0.64387604  0.57805563  1
  O  O65  1  0.13176222  0.48958919  0.57768574  1
  O  O66  1  0.29659555  0.81848284  0.25658981  1
  O  O67  1  0.51599279  0.68353327  0.25508450  1
  O  O68  1  0.15740438  0.46449744  0.25724821  1
  O  O69  1  0.29740665  0.47924883  0.75448582  1
  O  O70  1  0.15704283  0.69683687  0.75349641  1
  O  O71  1  0.50818657  0.83313447  0.75370884  1
loop_
_geom_bond_atom_site_label_1
_geom_bond_atom_site_label_2
_geom_bond_distance
_geom_bond_site_symmetry_2
Na0 O53 2.358365 1_555
Na0 O16 2.427960 1_555
Na0 O52 2.493332 1_555
Na0 O67 2.572352 1_545
Na0 O66 2.631008 1_545
Na0 O9 2.835934 1_545
Na0 O31 2.934821 1_545
Na0 O2 2.971691 1_555
Na1 O53 2.383316 1_555
Na1 O51 2.457416 1_555
Na1 O67 2.569274 1_555
Na1 O68 2.616087 1_555
Na1 O17 2.774664 1_555
Na1 O0 2.776594 1_555
Na1 O32 2.829834 1_555
Na1 O10 2.948986 1_555
Na2 O51 2.361799 1_555
Na2 O66 2.381337 1_655
Na2 O52 2.574549 1_555
Na2 O68 2.708404 1_655
Na2 O15 2.746115 1_555
Na2 O11 2.803233 1_655
Na2 O1 2.864433 1_555
Na2 O30 2.960047 1_655
Na3 O48 2.342536 1_555
Na3 O69 2.383536 1_655
Na3 O50 2.570059 1_555
Na3 O33 2.647217 1_655
Na3 O70 2.686553 1_655
Na3 O5 2.799434 1_555
Na3 O12 2.906264 1_555
Na3 O7 2.932993 1_655
Na4 O49 2.346094 1_555
Na4 O71 2.430449 1_545
Na4 O48 2.479823 1_555
Na4 O70 2.550677 1_545
Na4 O34 2.616616 1_545
Na4 O3 2.818414 1_555
Na4 O13 2.884630 1_555
Na5 O37 2.256083 1_555
Na5 O1 2.403466 1_555
Na5 O58 2.450587 1_555
Na5 O36 2.524025 1_655
Na5 O59 2.669738 1_555
Na5 O32 2.814227 1_555
Na6 O38 2.228349 1_555
Na6 O37 2.328178 1_445
Na6 O36 2.567556 1_545
Na6 O42 2.806006 1_455
Na6 O43 2.874654 1_555
Na6 O44 2.937226 1_445
Na7 O46 2.516006 1_455
Na7 O39 2.546640 1_554
Na7 O40 2.638436 1_544
Na7 O47 2.648184 1_555
Na7 O45 2.715902 1_445
Na7 O41 2.757534 1_444
Na8 O56 2.533368 1_555
Na8 O55 2.591304 1_555
Na8 O49 2.631279 1_555
Na8 O48 2.653728 1_555
Na8 O54 2.738368 1_555
Na8 O50 2.835503 1_555
Na9 O53 2.335130 1_555
Na9 O51 2.499109 1_555
Na9 O52 2.667969 1_555
Na9 O57 2.796380 1_555
Na9 O58 2.804960 1_555
Na10 O62 2.428219 1_555
Na10 O67 2.605460 1_555
Na10 O66 2.627284 1_555
Na10 O61 2.672372 1_555
Na10 O60 2.704623 1_555
Na10 O68 2.866563 1_555
Na11 O71 2.399213 1_555
Na11 O69 2.421741 1_555
Na11 O64 2.667111 1_555
Na11 O70 2.685593 1_555
Na11 O65 2.820471 1_555
Na11 O63 2.834507 1_555
Hf0 O39 1.957093 1_555
Hf0 O3 1.969631 1_555
Hf0 O40 2.016407 1_545
Hf0 O5 2.026341 1_455
Hf0 O41 2.253975 1_445
Hf0 O4 2.360320 1_445
Hf1 O6 1.903665 1_545
Hf1 O7 1.923237 1_655
Hf1 O8 2.128571 1_645
Hf1 O42 2.167585 1_555
Hf1 O44 2.250936 1_545
Hf1 O43 2.291309 1_655
Hf2 O9 1.945162 1_555
Hf2 O11 1.997525 1_655
Hf2 O46 2.019968 1_565
Hf2 O45 2.168482 1_555
Hf2 O10 2.209805 1_665
Hf2 O47 2.277455 1_665
Hf3 O20 1.901802 1_556
Hf3 O55 1.989132 1_555
Hf3 O56 1.989521 1_555
Hf3 O18 2.221172 1_556
Hf3 O19 2.244395 1_556
Hf3 O54 2.299275 1_555
Hf4 O57 1.919503 1_555
Hf4 O58 1.946653 1_555
Hf4 O21 2.106101 1_555
Hf4 O59 2.126968 1_555
Hf4 O23 2.204431 1_555
Hf4 O22 2.248257 1_555
Hf5 O26 1.929924 1_554
Hf5 O25 1.998886 1_554
Hf5 O62 2.018662 1_555
Hf5 O61 2.147081 1_555
Hf5 O24 2.182075 1_554
Hf5 O60 2.232185 1_555
Hf6 O28 1.892502 1_555
Hf6 O27 1.909879 1_555
Hf6 O29 2.103709 1_555
Hf6 O64 2.170806 1_555
Hf6 O65 2.251947 1_555
Hf6 O63 2.275805 1_555
Hf7 O31 1.955929 1_555
Hf7 O67 1.991650 1_555
Hf7 O32 2.031384 1_555
Hf7 O66 2.045418 1_555
Hf7 O68 2.264414 1_555
Hf7 O30 2.298636 1_555
Hf8 O33 1.990864 1_555
Hf8 O34 1.990929 1_555
Hf8 O35 2.056811 1_555
Hf8 O71 2.091350 1_555
Hf8 O69 2.119386 1_555
Hf8 O70 2.323310 1_555
Mg0 O0 1.944469 1_555
Mg0 O38 2.060044 1_555
Mg0 O1 2.075695 1_445
Mg0 O2 2.129862 1_455
Mg0 O37 2.146948 1_445
Mg0 O36 2.303973 1_545
Mg1 O49 1.956711 1_555
Mg1 O48 2.015832 1_555
Mg1 O50 2.142294 1_555
Mg1 O14 2.143790 1_555
Mg1 O13 2.161456 1_555
Mg1 O12 2.211518 1_555
Mg2 O16 1.969247 1_555
Mg2 O53 2.027468 1_555
Mg2 O17 2.073863 1_555
Mg2 O51 2.109333 1_555
Mg2 O15 2.234191 1_555
Mg2 O52 2.276935 1_555
O0 Si0 1.594089 1_555
O1 Si1 1.608362 1_555
O2 S0 1.462674 1_555
O3 Si2 1.639805 1_555
O4 S1 1.450177 1_555
O5 Si3 1.623218 1_545
O6 Si3 1.667638 1_555
O7 Si2 1.677264 1_555
O8 S1 1.513135 1_455
O9 Si1 1.662483 1_555
O10 S0 1.496208 1_455
O11 Si0 1.662962 1_565
O12 S2 1.465131 1_555
O13 S3 1.463368 1_555
O14 S4 1.462702 1_555
O15 S5 1.456965 1_555
O16 Si4 1.599706 1_555
O17 S6 1.467890 1_555
O18 S6 1.488524 1_555
O19 S5 1.481401 1_555
O20 Si4 1.663465 1_555
O21 S3 1.498651 1_555
O22 S4 1.482734 1_555
O23 S2 1.479720 1_555
O24 S7 1.468543 1_555
O25 Si5 1.615182 1_555
O26 Si6 1.625069 1_555
O27 Si7 1.661324 1_555
O28 Si8 1.666871 1_555
O29 S8 1.495699 1_555
O30 S8 1.473757 1_555
O31 Si7 1.644659 1_555
O32 Si8 1.644433 1_555
O33 Si5 1.654144 1_555
O34 Si6 1.654893 1_555
O35 S7 1.510364 1_555
O36 S8 1.452509 1_555
O37 Si7 1.588384 1_555
O38 Si8 1.572637 1_555
O39 Si5 1.643369 1_555
O40 Si6 1.622839 1_555
O41 S7 1.470899 1_555
O42 S2 1.509539 1_555
O43 S3 1.492263 1_555
O44 S4 1.493853 1_555
O45 S5 1.503319 1_555
O46 Si4 1.656357 1_555
O47 S6 1.491747 1_555
O48 Si3 1.624778 1_545
O49 Si2 1.599381 1_555
O50 S1 1.473917 1_555
O51 Si1 1.625924 1_555
O52 S0 1.476240 1_555
O53 Si0 1.629772 1_555
O54 S7 1.469222 1_555
O55 Si5 1.638788 1_655
O56 Si6 1.642397 1_545
O57 Si7 1.647794 1_545
O58 Si8 1.688680 1_555
O59 S8 1.512838 1_655
O60 S6 1.492615 1_555
O61 S5 1.505357 1_455
O62 Si4 1.659820 1_565
O63 S3 1.492452 1_565
O64 S4 1.513907 1_555
O65 S2 1.495512 1_455
O66 Si0 1.691934 1_565
O67 Si1 1.686887 1_555
O68 S0 1.509491 1_455
O69 Si2 1.641157 1_555
O70 S1 1.508257 1_455
O71 Si3 1.642352 1_555
