# generated using pymatgen
data_VO2
_symmetry_space_group_name_H-M   'P 1'
_cell_length_a   5.91991451
_cell_length_b   5.92048988
_cell_length_c   5.93223418
_cell_angle_alpha   120.02863964
_cell_angle_beta   120.02885015
_cell_angle_gamma   89.84004883
_symmetry_Int_Tables_number   1
_chemical_formula_structural   VO2
_chemical_formula_sum   'V4 O8'
_cell_volume   147.09659814
_cell_formula_units_Z   4
loop_
 _symmetry_equiv_pos_site_id
 _symmetry_equiv_pos_as_xyz
  1  'x, y, z'
loop_
 _atom_site_type_symbol
 _atom_site_label
 _atom_site_symmetry_multiplicity
 _atom_site_fract_x
 _atom_site_fract_y
 _atom_site_fract_z
 _atom_site_occupancy
  V  V0  1  0.49998600  0.49997000  0.00001100  1
  V  V1  1  0.99996400  0.00001200  0.49992500  1
  V  V2  1  0.99995500  0.49993600  0.99996900  1
  V  V3  1  0.00008200  0.50010500  0.50009600  1
  O  O0  1  0.76069200  0.73437200  0.03311000  1
  O  O1  1  0.20136500  0.73788300  0.46661600  1
  O  O2  1  0.23928200  0.26556200  0.96683900  1
  O  O3  1  0.22781800  0.70125700  0.96694300  1
  O  O4  1  0.79863700  0.26215700  0.53338800  1
  O  O5  1  0.23436400  0.27107200  0.53295600  1
  O  O6  1  0.76563800  0.72894900  0.46704100  1
  O  O7  1  0.77222400  0.29873100  0.03311100  1
loop_
_geom_bond_atom_site_label_1
_geom_bond_atom_site_label_2
_geom_bond_distance
_geom_bond_site_symmetry_2
O0 V0 1.944827 1_555
O0 V1 1.968763 1_565
O0 V2 1.991478 1_554
O1 V1 1.946177 1_465
O1 V2 1.967777 1_454
O1 V3 1.991776 1_555
O2 V0 1.944559 1_556
O2 V1 1.969096 1_455
O2 V2 1.991522 1_455
O3 V2 1.945732 1_455
O3 V3 1.968925 1_555
O3 V0 1.990374 1_556
O4 V1 1.945966 1_555
O4 V2 1.967525 1_555
O4 V3 1.992323 1_655
O5 V3 1.945183 1_555
O5 V0 1.969544 1_556
O5 V1 1.991200 1_455
O6 V3 1.945090 1_655
O6 V0 1.969456 1_555
O6 V1 1.991499 1_565
O7 V2 1.945212 1_554
O7 V3 1.969408 1_655
O7 V0 1.990504 1_555
