# generated using pymatgen
data_Na18Mg4Nb8Si15(SO24)3
_symmetry_space_group_name_H-M   'P 1'
_cell_length_a   9.09127069
_cell_length_b   9.07756303
_cell_length_c   22.59022323
_cell_angle_alpha   89.91297935
_cell_angle_beta   90.14309323
_cell_angle_gamma   120.09374744
_symmetry_Int_Tables_number   1
_chemical_formula_structural   Na18Mg4Nb8Si15(SO24)3
_chemical_formula_sum   'Na18 Mg4 Nb8 Si15 S3 O72'
_cell_volume   1612.99345288
_cell_formula_units_Z   1
loop_
 _symmetry_equiv_pos_site_id
 _symmetry_equiv_pos_as_xyz
  1  'x, y, z'
loop_
 _atom_site_type_symbol
 _atom_site_label
 _atom_site_symmetry_multiplicity
 _atom_site_fract_x
 _atom_site_fract_y
 _atom_site_fract_z
 _atom_site_occupancy
  Na  Na0  1  0.64875463  0.63168586  0.74697352  1
  Na  Na1  1  0.97844180  0.36104747  0.74715561  1
  Na  Na2  1  0.02744029  0.68894151  0.58629001  1
  Na  Na3  1  0.65981558  0.97584423  0.58680568  1
  Na  Na4  1  0.31972924  0.97452777  0.08706088  1
  Na  Na5  1  0.66374169  0.68961233  0.08688816  1
  Na  Na6  1  0.96432366  0.68147126  0.91017767  1
  Na  Na7  1  0.71701863  0.03521796  0.91076559  1
  Na  Na8  1  0.32215272  0.28967080  0.91432649  1
  Na  Na9  1  0.96609497  0.28844691  0.41389355  1
  Na  Na10  1  0.31813783  0.03463019  0.40972860  1
  Na  Na11  1  0.71136762  0.67816816  0.41360539  1
  Na  Na12  1  0.00997260  0.01009725  0.49465201  1
  Na  Na13  1  0.99731253  0.00675372  0.99318814  1
  Na  Na14  1  0.66887202  0.32561623  0.82492187  1
  Na  Na15  1  0.65450510  0.32404106  0.32303116  1
  Na  Na16  1  0.32468818  0.65932142  0.16823192  1
  Na  Na17  1  0.33398627  0.67089375  0.66624271  1
  Mg  Mg0  1  0.00781681  0.00198166  0.35285577  1
  Mg  Mg1  1  0.99028478  0.99277744  0.85315746  1
  Mg  Mg2  1  0.67130730  0.32865021  0.68339948  1
  Mg  Mg3  1  0.65620413  0.32279520  0.18307937  1
  Nb  Nb0  1  0.99169802  0.98659120  0.64529616  1
  Nb  Nb1  1  0.01075518  0.00089655  0.14497955  1
  Nb  Nb2  1  0.66988485  0.33360690  0.98190676  1
  Nb  Nb3  1  0.66331956  0.33009059  0.48140349  1
  Nb  Nb4  1  0.32928197  0.66272501  0.02041723  1
  Nb  Nb5  1  0.33335658  0.66298814  0.51993077  1
  Nb  Nb6  1  0.33123087  0.67580907  0.31352915  1
  Nb  Nb7  1  0.33652638  0.68283178  0.81361474  1
  Si  Si0  1  0.30131644  0.01065319  0.25443046  1
  Si  Si1  1  0.99710466  0.70526962  0.75380014  1
  Si  Si2  1  0.70890474  0.00524071  0.75321781  1
  Si  Si3  1  0.96009201  0.33337959  0.58572371  1
  Si  Si4  1  0.37557549  0.04502881  0.58557547  1
  Si  Si5  1  0.65812954  0.61471482  0.58673868  1
  Si  Si6  1  0.95515082  0.61480877  0.08772125  1
  Si  Si7  1  0.66948652  0.04393376  0.08572461  1
  Si  Si8  1  0.38086379  0.33735287  0.08528897  1
  Si  Si9  1  0.62192986  0.66451696  0.91672669  1
  Si  Si10  1  0.04317005  0.37607249  0.91513694  1
  Si  Si11  1  0.33385489  0.96374782  0.91872124  1
  Si  Si12  1  0.62605643  0.95882563  0.41680845  1
  Si  Si13  1  0.33399332  0.37790069  0.41457139  1
  Si  Si14  1  0.03970661  0.66545030  0.41731429  1
  S  S0  1  0.70901030  0.70930185  0.25117746  1
  S  S1  1  0.00059552  0.28893078  0.25131078  1
  S  S2  1  0.28812795  0.28738734  0.75125303  1
  O  O0  1  0.20346889  0.01722217  0.31192670  1
  O  O1  1  0.80765419  0.79460566  0.30496395  1
  O  O2  1  0.98021940  0.19091098  0.30586285  1
  O  O3  1  0.21222493  0.19197700  0.80577324  1
  O  O4  1  0.97562861  0.79537178  0.81092470  1
  O  O5  1  0.82305367  0.03167110  0.81057089  1
  O  O6  1  0.80679060  0.97139025  0.69357392  1
  O  O7  1  0.17723844  0.20283183  0.69838603  1
  O  O8  1  0.02732280  0.82916872  0.69278152  1
  O  O9  1  0.79197005  0.81777865  0.19668125  1
  O  O10  1  0.02070647  0.19762767  0.19856503  1
  O  O11  1  0.16977503  0.97970999  0.19416921  1
  O  O12  1  0.89084598  0.38232468  0.64234871  1
  O  O13  1  0.50450594  0.12309858  0.63858130  1
  O  O14  1  0.63310552  0.51367759  0.64604532  1
  O  O15  1  0.86901263  0.50390352  0.14346695  1
  O  O16  1  0.61457787  0.11833906  0.13834227  1
  O  O17  1  0.50351080  0.38529257  0.13978821  1
  O  O18  1  0.46173238  0.29604097  0.02460480  1
  O  O19  1  0.83485598  0.53551253  0.02600941  1
  O  O20  1  0.69787165  0.16265204  0.02434141  1
  O  O21  1  0.46695148  0.16200079  0.52415297  1
  O  O22  1  0.69772857  0.53142229  0.52677743  1
  O  O23  1  0.83448946  0.29984317  0.52599508  1
  O  O24  1  0.52217413  0.68706761  0.97349044  1
  O  O25  1  0.16680822  0.47975583  0.97141202  1
  O  O26  1  0.30876969  0.83925608  0.97452291  1
  O  O27  1  0.53135083  0.83902357  0.47442736  1
  O  O28  1  0.31259441  0.47993540  0.47159810  1
  O  O29  1  0.16403636  0.69224623  0.47396113  1
  O  O30  1  0.13810420  0.63063983  0.36122197  1
  O  O31  1  0.49250779  0.86244184  0.36062418  1
  O  O32  1  0.37041455  0.50879028  0.35892180  1
  O  O33  1  0.13563154  0.50339150  0.85764500  1
  O  O34  1  0.36966667  0.86717391  0.86126182  1
  O  O35  1  0.49478669  0.62971711  0.85885335  1
  O  O36  1  0.01676611  0.82904980  0.41372335  1
  O  O37  1  0.81003944  0.97755319  0.40998039  1
  O  O38  1  0.16514768  0.19397383  0.41369381  1
  O  O39  1  0.02823422  0.19292966  0.91335635  1
  O  O40  1  0.16957612  0.98344843  0.91321889  1
  O  O41  1  0.80710917  0.83140294  0.91624111  1
  O  O42  1  0.97223833  0.15856074  0.59034087  1
  O  O43  1  0.18152495  0.01682326  0.58965569  1
  O  O44  1  0.83570717  0.81034699  0.58866146  1
  O  O45  1  0.97362360  0.81170688  0.09213495  1
  O  O46  1  0.83246216  0.01170049  0.09266221  1
  O  O47  1  0.18878327  0.16202916  0.09126772  1
  O  O48  1  0.68714296  0.16790542  0.74452827  1
  O  O49  1  0.46193991  0.31562452  0.74438586  1
  O  O50  1  0.83126717  0.51900381  0.74608044  1
  O  O51  1  0.69191380  0.54082707  0.24514162  1
  O  O52  1  0.85385949  0.31340199  0.24373281  1
  O  O53  1  0.48784079  0.16856136  0.24591121  1
  O  O54  1  0.63218879  0.48832061  0.92319063  1
  O  O55  1  0.85791093  0.36702014  0.92274967  1
  O  O56  1  0.51266435  0.14642143  0.92216691  1
  O  O57  1  0.63439033  0.14397288  0.42222648  1
  O  O58  1  0.50929479  0.36702956  0.42311258  1
  O  O59  1  0.85569148  0.48751906  0.42271928  1
  O  O60  1  0.35303104  0.50052795  0.07316382  1
  O  O61  1  0.15247704  0.66181705  0.07526755  1
  O  O62  1  0.50456877  0.85041470  0.07263715  1
  O  O63  1  0.34724090  0.85136437  0.57347606  1
  O  O64  1  0.50633716  0.66010069  0.57531422  1
  O  O65  1  0.14750113  0.50226123  0.57275626  1
  O  O66  1  0.30523659  0.82179834  0.25632788  1
  O  O67  1  0.53589774  0.69548886  0.25418837  1
  O  O68  1  0.16297912  0.45976242  0.25395204  1
  O  O69  1  0.29986016  0.46107726  0.75323843  1
  O  O70  1  0.17184442  0.68372800  0.75540305  1
  O  O71  1  0.52389777  0.81579954  0.75540312  1
loop_
_geom_bond_atom_site_label_1
_geom_bond_atom_site_label_2
_geom_bond_distance
_geom_bond_site_symmetry_2
Na0 O50 2.345663 1_555
Na0 O71 2.454082 1_555
Na0 O14 2.493810 1_555
Na0 O49 2.496578 1_555
Na0 O69 2.748593 1_555
Na0 O35 2.887873 1_555
Na0 O6 2.929656 1_555
Na0 O4 2.946675 1_555
Na1 O48 2.331110 1_555
Na1 O50 2.402181 1_555
Na1 O12 2.533873 1_555
Na1 O70 2.557607 1_655
Na1 O69 2.592216 1_655
Na1 O33 2.842876 1_655
Na2 O65 2.452484 1_555
Na2 O44 2.486545 1_455
Na2 O63 2.532724 1_555
Na2 O43 2.577951 1_565
Na2 O8 2.723645 1_555
Na2 O12 2.724654 1_455
Na2 O29 2.821396 1_555
Na2 O22 2.919671 1_455
Na3 O42 2.469763 1_565
Na3 O64 2.493830 1_555
Na3 O63 2.493871 1_555
Na3 O13 2.655970 1_565
Na3 O44 2.687813 1_555
Na3 O6 2.764448 1_555
Na3 O27 2.809170 1_555
Na3 O23 2.893778 1_565
Na4 O62 2.470179 1_555
Na4 O61 2.472392 1_555
Na4 O47 2.521164 1_565
Na4 O16 2.590640 1_565
Na4 O45 2.726878 1_455
Na4 O11 2.792192 1_555
Na4 O26 2.804703 1_554
Na4 O18 2.897127 1_565
Na5 O45 2.458995 1_555
Na5 O60 2.481230 1_555
Na5 O46 2.533969 1_565
Na5 O62 2.538292 1_555
Na5 O17 2.672924 1_555
Na5 O9 2.738324 1_555
Na5 O24 2.858860 1_554
Na5 O19 2.909808 1_555
Na6 O41 2.422042 1_555
Na6 O40 2.423073 1_655
Na6 O4 2.448338 1_555
Na6 O55 2.528650 1_555
Na6 O54 2.640412 1_555
Na6 O19 2.903231 1_556
Na7 O41 2.372253 1_545
Na7 O39 2.448584 1_655
Na7 O5 2.468935 1_555
Na7 O56 2.533932 1_555
Na7 O55 2.630148 1_555
Na7 O20 2.857355 1_556
Na7 O34 2.950673 1_545
Na8 O39 2.357606 1_555
Na8 O40 2.405207 1_545
Na8 O54 2.477427 1_555
Na8 O3 2.627602 1_555
Na8 O56 2.641675 1_555
Na8 O18 2.780430 1_556
Na9 O38 2.359375 1_655
Na9 O37 2.443377 1_545
Na9 O59 2.476646 1_555
Na9 O2 2.622648 1_555
Na9 O57 2.623990 1_555
Na9 O23 2.827600 1_555
Na9 O30 2.938863 1_655
Na9 O28 3.023111 1_655
Na10 O0 2.411929 1_555
Na10 O36 2.422959 1_545
Na10 O38 2.460351 1_555
Na10 O57 2.542884 1_555
Na10 O58 2.637735 1_555
Na10 O21 2.876053 1_555
Na10 O31 2.947120 1_545
Na11 O37 2.398355 1_555
Na11 O36 2.402312 1_655
Na11 O58 2.488965 1_555
Na11 O1 2.642293 1_555
Na11 O59 2.652127 1_555
Na11 O22 2.855093 1_555
Na11 O32 2.950489 1_555
Na11 O27 3.018630 1_555
Na12 O38 2.400667 1_555
Na12 O36 2.481651 1_545
Na12 O37 2.548644 1_445
Na12 O43 2.632553 1_555
Na12 O42 2.661351 1_455
Na12 O44 2.726203 1_445
Na13 O39 2.388380 1_655
Na13 O41 2.403841 1_545
Na13 O40 2.471534 1_645
Na13 O46 2.717053 1_556
Na13 O47 2.730493 1_656
Na13 O45 2.790247 1_546
Na14 O48 2.371347 1_555
Na14 O50 2.416213 1_555
Na14 O49 2.582569 1_555
Na14 O56 2.678948 1_555
Na14 O55 2.704540 1_555
Na14 O54 2.779974 1_555
Na15 O53 2.274339 1_555
Na15 O51 2.530918 1_555
Na15 O52 2.587535 1_555
Na15 O57 2.723571 1_555
Na15 O58 2.746046 1_555
Na15 O59 2.808312 1_555
Na16 O66 2.537587 1_555
Na16 O68 2.554508 1_555
Na16 O61 2.623173 1_555
Na16 O67 2.629909 1_555
Na16 O60 2.672277 1_555
Na16 O62 2.740133 1_555
Na17 O70 2.535950 1_555
Na17 O71 2.545815 1_555
Na17 O64 2.618145 1_555
Na17 O63 2.623512 1_555
Na17 O69 2.642944 1_555
Na17 O65 2.658377 1_555
Mg0 O0 1.949085 1_555
Mg0 O38 2.114164 1_555
Mg0 O36 2.117195 1_545
Mg0 O2 2.134441 1_455
Mg0 O37 2.135018 1_445
Mg0 O1 2.141647 1_445
Mg1 O5 1.972707 1_565
Mg1 O4 1.975906 1_555
Mg1 O41 2.123459 1_555
Mg1 O40 2.152200 1_655
Mg1 O39 2.155464 1_665
Mg1 O3 2.198359 1_665
Mg2 O13 1.991677 1_555
Mg2 O12 2.028197 1_555
Mg2 O14 2.057412 1_555
Mg2 O48 2.064069 1_555
Mg2 O50 2.140743 1_555
Mg2 O49 2.306929 1_555
Mg3 O16 1.977019 1_555
Mg3 O17 1.996647 1_555
Mg3 O15 2.015221 1_555
Mg3 O53 2.042901 1_555
Mg3 O52 2.292300 1_555
Mg3 O51 2.313011 1_555
Nb0 O8 1.937887 1_655
Nb0 O6 1.952037 1_555
Nb0 O44 1.982284 1_555
Nb0 O43 2.041642 1_665
Nb0 O42 2.068670 1_565
Nb0 O7 2.193935 1_665
Nb1 O11 1.905766 1_545
Nb1 O47 1.965097 1_555
Nb1 O45 1.977694 1_445
Nb1 O46 2.045302 1_455
Nb1 O10 2.122907 1_555
Nb1 O9 2.184842 1_445
Nb2 O20 1.944774 1_556
Nb2 O19 1.960263 1_556
Nb2 O18 1.997174 1_556
Nb2 O55 2.071269 1_555
Nb2 O56 2.076831 1_555
Nb2 O54 2.079412 1_555
Nb3 O21 1.928811 1_555
Nb3 O22 1.979742 1_555
Nb3 O23 1.982811 1_555
Nb3 O58 2.065796 1_555
Nb3 O57 2.066437 1_555
Nb3 O59 2.087534 1_555
Nb4 O25 1.924349 1_554
Nb4 O24 1.966677 1_554
Nb4 O60 1.986563 1_555
Nb4 O26 1.992796 1_554
Nb4 O62 2.026783 1_555
Nb4 O61 2.028718 1_555
Nb5 O28 1.918035 1_555
Nb5 O29 1.979817 1_555
Nb5 O65 1.985017 1_555
Nb5 O27 1.992474 1_555
Nb5 O64 2.017553 1_555
Nb5 O63 2.047491 1_555
Nb6 O31 1.912716 1_555
Nb6 O30 1.922958 1_555
Nb6 O66 1.946578 1_555
Nb6 O32 2.003025 1_555
Nb6 O67 2.229224 1_555
Nb6 O68 2.233087 1_555
Nb7 O34 1.883552 1_555
Nb7 O70 1.993287 1_555
Nb7 O33 1.999760 1_555
Nb7 O71 2.008067 1_555
Nb7 O35 2.008432 1_555
Nb7 O69 2.314447 1_555
O0 Si0 1.594080 1_555
O1 S0 1.476896 1_555
O2 S1 1.475538 1_655
O3 S2 1.464531 1_555
O4 Si1 1.592790 1_555
O5 Si2 1.599273 1_555
O6 Si2 1.727203 1_565
O7 S2 1.500848 1_555
O8 Si1 1.711084 1_455
O9 S0 1.519939 1_555
O10 S1 1.515312 1_555
O11 Si0 1.737346 1_565
O12 Si3 1.586267 1_555
O13 Si4 1.572413 1_555
O14 Si5 1.573669 1_555
O15 Si6 1.556633 1_555
O16 Si7 1.569005 1_555
O17 Si8 1.567335 1_555
O18 Si8 1.686273 1_555
O19 Si6 1.692226 1_555
O20 Si7 1.693859 1_555
O21 Si4 1.691023 1_555
O22 Si5 1.677668 1_555
O23 Si3 1.691772 1_555
O24 Si9 1.643615 1_555
O25 Si10 1.643464 1_555
O26 Si11 1.629967 1_555
O27 Si12 1.637230 1_555
O28 Si13 1.655566 1_555
O29 Si14 1.640830 1_555
O30 Si14 1.672149 1_555
O31 Si12 1.667604 1_555
O32 Si13 1.644616 1_555
O33 Si10 1.660043 1_555
O34 Si11 1.688542 1_555
O35 Si9 1.665121 1_555
O36 Si14 1.601783 1_555
O37 Si12 1.602020 1_555
O38 Si13 1.604394 1_555
O39 Si10 1.599289 1_555
O40 Si11 1.595253 1_555
O41 Si9 1.603668 1_555
O42 Si3 1.648208 1_555
O43 Si4 1.653512 1_555
O44 Si5 1.699024 1_555
O45 Si6 1.712373 1_555
O46 Si7 1.654974 1_555
O47 Si8 1.677506 1_555
O48 Si2 1.596843 1_555
O49 S2 1.477034 1_555
O50 Si1 1.614174 1_555
O51 S0 1.464166 1_555
O52 S1 1.467710 1_655
O53 Si0 1.590746 1_555
O54 Si9 1.654396 1_555
O55 Si10 1.653967 1_655
O56 Si11 1.641608 1_545
O57 Si12 1.648728 1_545
O58 Si13 1.656204 1_555
O59 Si14 1.647149 1_655
O60 Si8 1.645414 1_555
O61 Si6 1.647408 1_455
O62 Si7 1.667142 1_565
O63 Si4 1.666914 1_565
O64 Si5 1.645830 1_555
O65 Si3 1.649443 1_455
O66 Si0 1.732950 1_565
O67 S0 1.516525 1_555
O68 S1 1.513859 1_555
O69 S2 1.526714 1_555
O70 Si1 1.695416 1_455
O71 Si2 1.699473 1_565
