# generated using pymatgen
data_Pu2Si4Tc3
_symmetry_space_group_name_H-M   'P 1'
_cell_length_a   8.05329515
_cell_length_b   5.63247534
_cell_length_c   6.80731432
_cell_angle_alpha   76.40549802
_cell_angle_beta   90.00000000
_cell_angle_gamma   90.00000000
_symmetry_Int_Tables_number   1
_chemical_formula_structural   Pu2Si4Tc3
_chemical_formula_sum   'Pu4 Si8 Tc6'
_cell_volume   300.12877717
_cell_formula_units_Z   2
loop_
 _symmetry_equiv_pos_site_id
 _symmetry_equiv_pos_as_xyz
  1  'x, y, z'
loop_
 _atom_site_type_symbol
 _atom_site_label
 _atom_site_symmetry_multiplicity
 _atom_site_fract_x
 _atom_site_fract_y
 _atom_site_fract_z
 _atom_site_occupancy
  Pu  Pu0  1  0.56283500  0.07748685  0.25640694  1
  Pu  Pu1  1  0.06283500  0.42251315  0.74359306  1
  Pu  Pu2  1  0.43716500  0.92251315  0.74359306  1
  Pu  Pu3  1  0.93716500  0.57748685  0.25640694  1
  Si  Si0  1  0.74777863  0.21990201  0.58743153  1
  Si  Si1  1  0.24777863  0.28009799  0.41256847  1
  Si  Si2  1  0.25222137  0.78009799  0.41256847  1
  Si  Si3  1  0.75222137  0.71990201  0.58743153  1
  Si  Si4  1  0.09342263  0.87833924  0.87467439  1
  Si  Si5  1  0.59342263  0.62166076  0.12532561  1
  Si  Si6  1  0.40657737  0.37833924  0.87467439  1
  Si  Si7  1  0.90657737  0.12166076  0.12532561  1
  Tc  Tc0  1  0.50000000  0.50000000  0.50000000  1
  Tc  Tc1  1  0.00000000  -0.00000000  0.50000000  1
  Tc  Tc2  1  0.79499798  0.88663685  0.88991387  1
  Tc  Tc3  1  0.29499798  0.61336315  0.11008613  1
  Tc  Tc4  1  0.70500202  0.38663685  0.88991387  1
  Tc  Tc5  1  0.20500202  0.11336315  0.11008613  1
loop_
_geom_bond_atom_site_label_1
_geom_bond_atom_site_label_2
_geom_bond_distance
_geom_bond_site_symmetry_2
Pu0 Si7 2.901209 1_555
Pu0 Tc4 2.919739 1_554
Pu0 Si5 2.919856 1_545
Pu0 Si0 2.964669 1_555
Pu0 Si5 2.994278 1_555
Pu0 Si6 3.022843 1_554
Pu0 Tc5 3.040186 1_555
Pu0 Si3 3.054005 1_545
Pu0 Si2 3.058766 1_545
Pu0 Si1 3.072506 1_555
Pu0 Tc0 3.244113 1_555
Pu0 Tc0 3.324174 1_545
Pu1 Si6 2.901209 1_555
Pu1 Tc5 2.919739 1_556
Pu1 Si4 2.919856 1_555
Pu1 Si1 2.964669 1_555
Pu1 Si4 2.994278 1_545
Pu1 Si7 3.022843 1_456
Pu1 Tc4 3.040186 1_455
Pu1 Si2 3.054005 1_555
Pu1 Si3 3.058766 1_455
Pu1 Si0 3.072506 1_455
Pu1 Tc1 3.244113 1_555
Pu1 Tc1 3.324174 1_565
Pu2 Si4 2.901209 1_555
Pu2 Tc3 2.919739 1_556
Pu2 Si6 2.919856 1_565
Pu2 Si2 2.964669 1_555
Pu2 Si6 2.994278 1_555
Pu2 Si5 3.022843 1_556
Pu2 Tc2 3.040186 1_555
Pu2 Si1 3.054005 1_565
Pu2 Si0 3.058766 1_565
Pu2 Si3 3.072506 1_555
Pu2 Tc0 3.244113 1_555
Pu2 Tc0 3.324174 1_565
Pu3 Si5 2.901209 1_555
Pu3 Tc2 2.919739 1_554
Pu3 Si7 2.919856 1_555
Pu3 Si3 2.964669 1_555
Pu3 Si7 2.994278 1_565
Pu3 Si4 3.022843 1_654
Pu3 Tc3 3.040186 1_655
Pu3 Si0 3.054005 1_555
Pu3 Si1 3.058766 1_655
Pu3 Si2 3.072506 1_655
Pu3 Tc1 3.244113 1_665
Pu3 Tc1 3.324174 1_655
Si0 Tc2 2.467997 1_545
Si0 Tc4 2.479830 1_555
Si0 Tc1 2.522046 1_655
Si0 Tc0 2.526568 1_555
Si0 Si3 2.816465 1_545
Si0 Si3 2.816465 1_555
Si1 Tc3 2.467997 1_555
Si1 Tc5 2.479830 1_555
Si1 Tc0 2.522046 1_555
Si1 Tc1 2.526568 1_555
Si1 Si2 2.816465 1_555
Si1 Si2 2.816465 1_545
Si2 Tc5 2.467997 1_565
Si2 Tc3 2.479830 1_555
Si2 Tc1 2.522046 1_565
Si2 Tc0 2.526568 1_555
Si3 Tc4 2.467997 1_555
Si3 Tc2 2.479830 1_555
Si3 Tc0 2.522046 1_555
Si3 Tc1 2.526568 1_665
Si4 Tc2 2.406467 1_455
Si4 Tc5 2.474900 1_566
Si4 Tc3 2.511266 1_556
Si4 Tc1 2.592139 1_565
Si5 Tc3 2.406467 1_555
Si5 Tc4 2.474900 1_554
Si5 Tc2 2.511266 1_554
Si5 Tc0 2.592139 1_555
Si6 Tc4 2.406467 1_555
Si6 Tc3 2.474900 1_556
Si6 Tc5 2.511266 1_556
Si6 Tc0 2.592139 1_555
Si7 Tc5 2.406467 1_655
Si7 Tc2 2.474900 1_544
Si7 Tc4 2.511266 1_554
Si7 Tc1 2.592139 1_655
