# generated using pymatgen
data_Na7Ga2Si3Sn2(PO8)3
_symmetry_space_group_name_H-M   'P 1'
_cell_length_a   8.96002878
_cell_length_b   8.93932086
_cell_length_c   22.18497884
_cell_angle_alpha   89.61530556
_cell_angle_beta   90.00326489
_cell_angle_gamma   119.98386637
_symmetry_Int_Tables_number   1
_chemical_formula_structural   Na7Ga2Si3Sn2(PO8)3
_chemical_formula_sum   'Na21 Ga6 Si9 Sn6 P9 O72'
_cell_volume   1539.08010473
_cell_formula_units_Z   3
loop_
 _symmetry_equiv_pos_site_id
 _symmetry_equiv_pos_as_xyz
  1  'x, y, z'
loop_
 _atom_site_type_symbol
 _atom_site_label
 _atom_site_symmetry_multiplicity
 _atom_site_fract_x
 _atom_site_fract_y
 _atom_site_fract_z
 _atom_site_occupancy
  Na  Na0  1  0.63227979  0.00277125  0.25210890  1
  Na  Na1  1  0.36789877  0.37039021  0.24768815  1
  Na  Na2  1  0.99965468  0.62711704  0.24973913  1
  Na  Na3  1  0.63044627  0.63277565  0.74975074  1
  Na  Na4  1  0.99626767  0.36601000  0.74964506  1
  Na  Na5  1  0.37244706  0.00117346  0.74857528  1
  Na  Na6  1  0.03371151  0.69774241  0.58295321  1
  Na  Na7  1  0.66498933  0.97005105  0.58253968  1
  Na  Na8  1  0.66476591  0.69276355  0.08210083  1
  Na  Na9  1  0.03345536  0.33545430  0.08532753  1
  Na  Na10  1  0.96180897  0.66546340  0.91836184  1
  Na  Na11  1  0.70296219  0.03382640  0.91661041  1
  Na  Na12  1  0.33803838  0.30054420  0.91764386  1
  Na  Na13  1  0.96458841  0.30069671  0.41609883  1
  Na  Na14  1  0.33474331  0.02844042  0.41866169  1
  Na  Na15  1  0.99919301  0.99980266  0.50028917  1
  Na  Na16  1  0.00850586  0.99726026  0.99949915  1
  Na  Na17  1  0.66627091  0.33307921  0.83344593  1
  Na  Na18  1  0.67196038  0.33971666  0.33292024  1
  Na  Na19  1  0.32805227  0.66821235  0.16713496  1
  Na  Na20  1  0.33323197  0.66175836  0.66674931  1
  Ga  Ga0  1  0.99119623  0.99736632  0.84971726  1
  Ga  Ga1  1  0.66939307  0.32359337  0.68200011  1
  Ga  Ga2  1  0.67399508  0.33680550  0.18075935  1
  Ga  Ga3  1  0.66402407  0.34491621  0.98515381  1
  Ga  Ga4  1  0.32549654  0.66281294  0.31833253  1
  Ga  Ga5  1  0.34324905  0.67046905  0.81710313  1
  Si  Si0  1  0.99989942  0.29978876  0.24940907  1
  Si  Si1  1  0.70420090  0.00037867  0.75165592  1
  Si  Si2  1  0.96025097  0.33424180  0.58473344  1
  Si  Si3  1  0.37397702  0.04433312  0.58488332  1
  Si  Si4  1  0.95781123  0.62412572  0.08295973  1
  Si  Si5  1  0.38024169  0.32971177  0.08336998  1
  Si  Si6  1  0.62990879  0.66663877  0.91504364  1
  Si  Si7  1  0.62171792  0.95238181  0.41482617  1
  Si  Si8  1  0.03920020  0.66631516  0.41519050  1
  Sn  Sn0  1  0.99171509  0.99530278  0.35247339  1
  Sn  Sn1  1  0.00257235  0.00510432  0.64872451  1
  Sn  Sn2  1  0.00754279  0.00285307  0.14650164  1
  Sn  Sn3  1  0.66559586  0.33223721  0.48078556  1
  Sn  Sn4  1  0.33556913  0.67006431  0.01906028  1
  Sn  Sn5  1  0.33319484  0.66652536  0.51932528  1
  P  P0  1  0.29656505  0.00038652  0.25069866  1
  P  P1  1  0.70336610  0.70363466  0.24906312  1
  P  P2  1  0.29194538  0.29306764  0.75312228  1
  P  P3  1  0.00004868  0.70631126  0.75224421  1
  P  P4  1  0.66392523  0.61771704  0.58647905  1
  P  P5  1  0.66338705  0.04769234  0.08328364  1
  P  P6  1  0.04206669  0.37427669  0.91470030  1
  P  P7  1  0.33310634  0.95957332  0.91412594  1
  P  P8  1  0.33678388  0.38009804  0.41415593  1
  O  O0  1  0.21649795  0.03730076  0.30728938  1
  O  O1  1  0.82734206  0.78510491  0.30322857  1
  O  O2  1  0.95922418  0.17333371  0.30866998  1
  O  O3  1  0.20999182  0.17364549  0.80886173  1
  O  O4  1  0.97024284  0.79317266  0.80737165  1
  O  O5  1  0.83185826  0.04170354  0.80935096  1
  O  O6  1  0.78348093  0.95373030  0.69208597  1
  O  O7  1  0.17549489  0.21388823  0.69692687  1
  O  O8  1  0.03985118  0.82173715  0.69449028  1
  O  O9  1  0.78375334  0.82135022  0.19203859  1
  O  O10  1  0.04037916  0.21336823  0.19075580  1
  O  O11  1  0.17219689  0.95766684  0.19646097  1
  O  O12  1  0.87911958  0.37647958  0.64369159  1
  O  O13  1  0.49387518  0.12795075  0.64387404  1
  O  O14  1  0.63924219  0.51121485  0.64405973  1
  O  O15  1  0.87963263  0.50560885  0.14327901  1
  O  O16  1  0.63793155  0.12415206  0.14107626  1
  O  O17  1  0.49823843  0.36668442  0.14342406  1
  O  O18  1  0.45852008  0.29988880  0.02161151  1
  O  O19  1  0.84197946  0.54311161  0.02246623  1
  O  O20  1  0.69779597  0.15990790  0.02570495  1
  O  O21  1  0.44948479  0.15484626  0.52245983  1
  O  O22  1  0.70147539  0.54291711  0.52965328  1
  O  O23  1  0.84246302  0.29492526  0.52400213  1
  O  O24  1  0.55111393  0.71316722  0.97497062  1
  O  O25  1  0.15442253  0.45198039  0.97232779  1
  O  O26  1  0.29009717  0.83913805  0.97019680  1
  O  O27  1  0.54649720  0.84352874  0.47767160  1
  O  O28  1  0.29679783  0.45490111  0.47066228  1
  O  O29  1  0.15661609  0.70593220  0.47614321  1
  O  O30  1  0.12088447  0.62580740  0.35642352  1
  O  O31  1  0.50127992  0.86624697  0.35602401  1
  O  O32  1  0.36323156  0.48515482  0.35683607  1
  O  O33  1  0.12532944  0.49462437  0.85933026  1
  O  O34  1  0.36406313  0.87601010  0.85808344  1
  O  O35  1  0.50188590  0.62583026  0.85758923  1
  O  O36  1  0.03456801  0.84727080  0.41055629  1
  O  O37  1  0.82027897  0.98812304  0.41319471  1
  O  O38  1  0.17309767  0.19540102  0.41052452  1
  O  O39  1  0.03005444  0.19484661  0.90988958  1
  O  O40  1  0.17183278  0.98137786  0.90859804  1
  O  O41  1  0.82296327  0.84049464  0.90957154  1
  O  O42  1  0.96708042  0.15476447  0.58855644  1
  O  O43  1  0.17516073  0.00686520  0.58920880  1
  O  O44  1  0.82906502  0.80123274  0.58971031  1
  O  O45  1  0.96432317  0.81128046  0.08825564  1
  O  O46  1  0.82749825  0.02612744  0.08755421  1
  O  O47  1  0.18038572  0.16759834  0.08589392  1
  O  O48  1  0.68815492  0.17583738  0.74536584  1
  O  O49  1  0.47364668  0.31458076  0.74594589  1
  O  O50  1  0.83362961  0.52860778  0.74619025  1
  O  O51  1  0.68561561  0.52341358  0.24420879  1
  O  O52  1  0.82295721  0.31137833  0.24374517  1
  O  O53  1  0.47400760  0.16462072  0.24354744  1
  O  O54  1  0.64698382  0.49180439  0.92075807  1
  O  O55  1  0.85938578  0.35149403  0.92138015  1
  O  O56  1  0.49985678  0.13689899  0.92100090  1
  O  O57  1  0.63646954  0.14509021  0.41829147  1
  O  O58  1  0.49522148  0.35533870  0.42009187  1
  O  O59  1  0.84924178  0.49289574  0.42068936  1
  O  O60  1  0.36163571  0.50687284  0.07930112  1
  O  O61  1  0.14836601  0.63979989  0.07776851  1
  O  O62  1  0.50587876  0.86156050  0.07906024  1
  O  O63  1  0.36133110  0.85301852  0.58132149  1
  O  O64  1  0.50610631  0.64388188  0.58066901  1
  O  O65  1  0.15028820  0.50765875  0.57947182  1
  O  O66  1  0.31421830  0.83751343  0.25581322  1
  O  O67  1  0.52641016  0.69142837  0.25580773  1
  O  O68  1  0.17643768  0.48855239  0.25539537  1
  O  O69  1  0.30425055  0.47276018  0.75763353  1
  O  O70  1  0.16158404  0.68510368  0.75784886  1
  O  O71  1  0.51113733  0.82668924  0.75702912  1
loop_
_geom_bond_atom_site_label_1
_geom_bond_atom_site_label_2
_geom_bond_distance
_geom_bond_site_symmetry_2
Na0 O52 2.417887 1_555
Na0 O67 2.451702 1_545
Na0 O66 2.470048 1_545
Na0 O53 2.487469 1_555
Na0 O31 2.590862 1_545
Na0 O16 2.675212 1_555
Na0 O2 2.835801 1_555
Na0 O9 2.911599 1_545
Na1 O68 2.429310 1_555
Na1 O53 2.458888 1_555
Na1 O51 2.467294 1_555
Na1 O67 2.493722 1_555
Na1 O17 2.599113 1_555
Na1 O32 2.644598 1_555
Na1 O10 2.843160 1_555
Na1 O0 2.892178 1_555
Na2 O68 2.453166 1_655
Na2 O52 2.455461 1_555
Na2 O51 2.487203 1_555
Na2 O66 2.490867 1_655
Na2 O15 2.604058 1_555
Na2 O30 2.606484 1_655
Na2 O11 2.811731 1_655
Na2 O1 2.826415 1_555
Na3 O50 2.425513 1_555
Na3 O71 2.455542 1_555
Na3 O49 2.465916 1_555
Na3 O69 2.537126 1_555
Na3 O14 2.608595 1_555
Na3 O35 2.642182 1_555
Na3 O6 2.786989 1_555
Na3 O4 2.936044 1_555
Na4 O48 2.414895 1_555
Na4 O69 2.434590 1_655
Na4 O70 2.479443 1_655
Na4 O50 2.521450 1_555
Na4 O12 2.594356 1_555
Na4 O33 2.699766 1_655
Na4 O7 2.828467 1_655
Na4 O5 2.830069 1_555
Na5 O71 2.438373 1_545
Na5 O48 2.455349 1_555
Na5 O49 2.476588 1_555
Na5 O70 2.500340 1_545
Na5 O13 2.568268 1_555
Na5 O34 2.653148 1_545
Na5 O8 2.853256 1_545
Na5 O3 2.925013 1_555
Na6 O65 2.400030 1_555
Na6 O43 2.401297 1_565
Na6 O44 2.436801 1_455
Na6 O63 2.543967 1_555
Na6 O29 2.598143 1_555
Na6 O8 2.707471 1_555
Na6 O12 2.820320 1_455
Na6 O22 2.842339 1_455
Na7 O42 2.367800 1_565
Na7 O63 2.377651 1_555
Na7 O64 2.526392 1_555
Na7 O27 2.579502 1_555
Na7 O44 2.584236 1_555
Na7 O6 2.684121 1_555
Na7 O23 2.825421 1_565
Na7 O13 2.895452 1_565
Na8 O45 2.346238 1_555
Na8 O60 2.373264 1_555
Na8 O62 2.540451 1_555
Na8 O46 2.585171 1_565
Na8 O24 2.626484 1_554
Na8 O9 2.686810 1_555
Na8 O17 2.858974 1_555
Na8 O19 2.865026 1_555
Na9 O61 2.384152 1_555
Na9 O46 2.439655 1_455
Na9 O47 2.441127 1_555
Na9 O60 2.550716 1_555
Na9 O10 2.588218 1_555
Na9 O25 2.716824 1_554
Na9 O15 2.826304 1_455
Na9 O20 2.927027 1_455
Na10 O41 2.444451 1_555
Na10 O54 2.447834 1_555
Na10 O55 2.479337 1_555
Na10 O40 2.498707 1_655
Na10 O19 2.544740 1_556
Na10 O4 2.692226 1_555
Na10 O26 2.800732 1_655
Na10 O33 2.908192 1_655
Na11 O56 2.418149 1_555
Na11 O41 2.455262 1_545
Na11 O55 2.462835 1_555
Na11 O39 2.542465 1_655
Na11 O5 2.630173 1_555
Na11 O20 2.686802 1_556
Na11 O24 2.792196 1_545
Na11 O34 2.939242 1_545
Na12 O54 2.421101 1_555
Na12 O39 2.435868 1_555
Na12 O40 2.481771 1_545
Na12 O56 2.523147 1_555
Na12 O18 2.547801 1_556
Na12 O3 2.676358 1_555
Na12 O35 2.840276 1_555
Na12 O25 2.873922 1_555
Na13 O59 2.409912 1_555
Na13 O37 2.423799 1_545
Na13 O38 2.480101 1_655
Na13 O57 2.547980 1_555
Na13 O23 2.621581 1_555
Na13 O2 2.638268 1_555
Na13 O30 2.835632 1_655
Na13 O28 2.854204 1_655
Na14 O36 2.353546 1_545
Na14 O57 2.361859 1_555
Na14 O58 2.531697 1_555
Na14 O21 2.551478 1_555
Na14 O38 2.552427 1_555
Na14 O0 2.704541 1_555
Na14 O29 2.799459 1_545
Na14 O31 2.906812 1_545
Na15 O37 2.479752 1_555
Na15 O42 2.504230 1_565
Na15 O43 2.506628 1_665
Na15 O36 2.528073 1_655
Na15 O44 2.580422 1_555
Na15 O38 2.584850 1_665
Na16 O47 2.461493 1_566
Na16 O45 2.469054 1_456
Na16 O41 2.533063 1_455
Na16 O40 2.537799 1_555
Na16 O39 2.592522 1_565
Na16 O46 2.634111 1_466
Na17 O54 2.465197 1_555
Na17 O48 2.478911 1_555
Na17 O50 2.527068 1_555
Na17 O56 2.532332 1_555
Na17 O49 2.548138 1_555
Na17 O55 2.558517 1_555
Na18 O59 2.459885 1_555
Na18 O57 2.473466 1_555
Na18 O52 2.481545 1_555
Na18 O51 2.518060 1_555
Na18 O58 2.547986 1_555
Na18 O53 2.606436 1_555
Na19 O68 2.456861 1_555
Na19 O61 2.486955 1_555
Na19 O66 2.530560 1_555
Na19 O60 2.537572 1_555
Na19 O62 2.558588 1_555
Na19 O67 2.590008 1_555
Na20 O63 2.470772 1_555
Na20 O65 2.472270 1_555
Na20 O64 2.514671 1_555
Na20 O71 2.533059 1_555
Na20 O69 2.550102 1_555
Na20 O70 2.611577 1_555
Ga0 O5 1.886257 1_565
Ga0 O41 1.965794 1_555
Ga0 O4 1.982467 1_555
Ga0 O3 2.010279 1_665
Ga0 O39 2.106399 1_665
Ga0 O40 2.138879 1_655
Ga1 O13 1.875624 1_555
Ga1 O12 1.893102 1_555
Ga1 O48 1.986461 1_555
Ga1 O14 2.007082 1_555
Ga1 O50 2.211649 1_555
Ga1 O49 2.225460 1_555
Ga2 O15 1.888824 1_555
Ga2 O17 1.911710 1_555
Ga2 O16 1.975260 1_555
Ga2 O52 2.020994 1_555
Ga2 O51 2.152413 1_555
Ga2 O53 2.176031 1_555
Ga3 O18 1.860555 1_556
Ga3 O19 1.887472 1_556
Ga3 O54 1.990882 1_555
Ga3 O20 2.028867 1_556
Ga3 O56 2.224520 1_555
Ga3 O55 2.228344 1_555
Ga4 O30 1.890736 1_555
Ga4 O31 1.909047 1_555
Ga4 O32 1.970945 1_555
Ga4 O68 2.027175 1_555
Ga4 O66 2.121675 1_555
Ga4 O67 2.182992 1_555
Ga5 O35 1.883687 1_555
Ga5 O71 1.965912 1_555
Ga5 O34 1.979210 1_555
Ga5 O33 2.018347 1_555
Ga5 O69 2.097705 1_555
Ga5 O70 2.145913 1_555
O0 P0 1.562701 1_555
O0 Sn0 2.107513 1_445
O1 P1 1.552842 1_555
O1 Sn0 2.038312 1_555
O2 Si0 1.645429 1_555
O2 Sn0 2.001045 1_545
O3 P2 1.551402 1_555
O4 P3 1.545973 1_655
O5 Si1 1.633074 1_555
O6 Si1 1.651845 1_565
O6 Sn1 2.020672 1_665
O7 P2 1.554817 1_555
O7 Sn1 2.040544 1_555
O8 P3 1.564610 1_555
O8 Sn1 2.086671 1_565
O9 P1 1.565639 1_555
O9 Sn2 2.097665 1_665
O10 Si0 1.647775 1_455
O10 Sn2 2.015746 1_555
O11 P0 1.554384 1_565
O11 Sn2 2.039009 1_565
O12 Si2 1.631843 1_555
O13 Si3 1.623546 1_555
O14 P4 1.536356 1_555
O15 Si4 1.625780 1_555
O16 P5 1.526650 1_555
O17 Si5 1.630501 1_555
O18 Si5 1.622379 1_555
O19 Si4 1.632283 1_555
O20 P5 1.551369 1_555
O21 Si3 1.632553 1_555
O21 Sn3 2.007564 1_555
O22 P4 1.544618 1_555
O22 Sn3 2.061032 1_555
O23 Si2 1.639539 1_555
O23 Sn3 2.016360 1_555
O24 Si6 1.655293 1_555
O24 Sn4 2.021495 1_556
O25 P6 1.563097 1_555
O25 Sn4 2.091448 1_556
O26 P7 1.556388 1_555
O26 Sn4 2.054000 1_556
O27 Si7 1.634429 1_555
O27 Sn5 1.992039 1_555
O28 P8 1.548472 1_555
O28 Sn5 2.064322 1_555
O29 Si8 1.641535 1_555
O29 Sn5 2.024207 1_555
O30 Si8 1.624158 1_555
O31 Si7 1.625423 1_555
O32 P8 1.522090 1_555
O33 P6 1.550175 1_555
O34 P7 1.549306 1_555
O35 Si6 1.631375 1_555
O36 Si8 1.641299 1_555
O36 Sn0 2.010938 1_455
O37 Si7 1.643269 1_555
O37 Sn0 2.019617 1_555
O38 P8 1.570022 1_555
O38 Sn0 2.150466 1_445
O39 P6 1.557396 1_555
O40 P7 1.556369 1_555
O41 Si6 1.653093 1_555
O42 Si2 1.637485 1_555
O42 Sn1 2.018410 1_655
O43 Si3 1.642558 1_555
O43 Sn1 2.027449 1_555
O44 P4 1.568805 1_555
O44 Sn1 2.156915 1_665
O45 Si4 1.649645 1_555
O45 Sn2 2.029598 1_665
O46 P5 1.578417 1_555
O46 Sn2 2.165064 1_655
O47 Si5 1.647739 1_555
O47 Sn2 2.017222 1_555
O48 Si1 1.650070 1_555
O49 P2 1.549048 1_555
O50 P3 1.549272 1_655
O51 P1 1.542275 1_555
O52 Si0 1.644389 1_555
O53 P0 1.540200 1_555
O54 Si6 1.648778 1_555
O55 P6 1.552116 1_655
O56 P7 1.550587 1_545
O57 Si7 1.662891 1_545
O57 Sn3 2.093761 1_555
O58 P8 1.547659 1_555
O58 Sn3 2.120658 1_555
O59 Si8 1.635625 1_655
O59 Sn3 2.039656 1_555
O60 Si5 1.675116 1_555
O60 Sn4 2.069570 1_555
O61 Si4 1.645819 1_455
O61 Sn4 2.031004 1_555
O62 P5 1.556930 1_565
O62 Sn4 2.109562 1_555
O63 Si3 1.658937 1_565
O63 Sn5 2.084516 1_555
O64 P4 1.549532 1_555
O64 Sn5 2.145428 1_555
O65 Si2 1.635666 1_455
O65 Sn5 2.032653 1_555
O66 P0 1.544578 1_565
O67 P1 1.541132 1_555
O68 Si0 1.643843 1_455
O69 P2 1.558077 1_555
O70 P3 1.555692 1_555
O71 Si1 1.652374 1_565
