# generated using pymatgen
data_LuB2Ru
_symmetry_space_group_name_H-M   'P 1'
_cell_length_a   5.23437906
_cell_length_b   5.79218908
_cell_length_c   6.26149198
_cell_angle_alpha   90.00000000
_cell_angle_beta   90.00000000
_cell_angle_gamma   90.00000000
_symmetry_Int_Tables_number   1
_chemical_formula_structural   LuB2Ru
_chemical_formula_sum   'Lu4 B8 Ru4'
_cell_volume   189.83912745
_cell_formula_units_Z   4
loop_
 _symmetry_equiv_pos_site_id
 _symmetry_equiv_pos_as_xyz
  1  'x, y, z'
loop_
 _atom_site_type_symbol
 _atom_site_label
 _atom_site_symmetry_multiplicity
 _atom_site_fract_x
 _atom_site_fract_y
 _atom_site_fract_z
 _atom_site_occupancy
  Lu  Lu0  1  0.25000000  0.51051138  0.66618476  1
  Lu  Lu1  1  0.75000000  0.48948862  0.33381524  1
  Lu  Lu2  1  0.25000000  0.01051138  0.83381524  1
  Lu  Lu3  1  0.75000000  0.98948862  0.16618476  1
  B  B0  1  0.91682449  0.13580448  0.53611630  1
  B  B1  1  0.41682449  0.86419552  0.46388370  1
  B  B2  1  0.58317551  0.63580448  0.96388370  1
  B  B3  1  0.08317551  0.36419552  0.03611630  1
  B  B4  1  0.08317551  0.86419552  0.46388370  1
  B  B5  1  0.91682449  0.63580448  0.96388370  1
  B  B6  1  0.41682449  0.36419552  0.03611630  1
  B  B7  1  0.58317551  0.13580448  0.53611630  1
  Ru  Ru0  1  0.75000000  0.81937719  0.68112952  1
  Ru  Ru1  1  0.75000000  0.31937719  0.81887048  1
  Ru  Ru2  1  0.25000000  0.18062281  0.31887048  1
  Ru  Ru3  1  0.25000000  0.68062281  0.18112952  1
loop_
_geom_bond_atom_site_label_1
_geom_bond_atom_site_label_2
_geom_bond_distance
_geom_bond_site_symmetry_2
Lu0 Ru2 2.894894 1_555
Lu1 Ru0 2.894894 1_555
Lu2 Ru3 2.894894 1_546
Lu3 Ru1 2.894894 1_564
B0 B7 1.746445 1_555
B0 B4 1.854116 1_645
B0 Ru0 2.223997 1_545
B0 Ru2 2.226922 1_655
B0 Ru1 2.242240 1_555
B0 Lu1 2.562001 1_555
B0 Lu3 2.616507 1_545
B0 Lu2 2.653815 1_655
B0 Lu0 2.900901 1_655
B1 B4 1.746445 1_555
B1 B7 1.854116 1_565
B1 Ru2 2.223997 1_565
B1 Ru0 2.226922 1_555
B1 Ru3 2.242240 1_555
B1 Lu0 2.562001 1_555
B1 Lu2 2.616507 1_565
B1 Lu3 2.653815 1_555
B1 Lu1 2.900901 1_555
B2 B5 1.746445 1_555
B2 B6 1.854116 1_556
B2 Ru1 2.223997 1_555
B2 Ru3 2.226922 1_556
B2 Ru0 2.242240 1_555
B2 Lu3 2.562001 1_556
B2 Lu1 2.616507 1_556
B2 Lu0 2.653815 1_555
B2 Lu2 2.900901 1_565
B3 B6 1.746445 1_555
B3 B5 1.854116 1_454
B3 Ru3 2.223997 1_555
B3 Ru1 2.226922 1_454
B3 Ru2 2.242240 1_555
B3 Lu2 2.562001 1_554
B3 Lu0 2.616507 1_554
B3 Lu1 2.653815 1_455
B3 Lu3 2.900901 1_445
B4 Ru2 2.223997 1_565
B4 Ru0 2.226922 1_455
B4 Ru3 2.242240 1_555
B4 Lu0 2.562001 1_555
B4 Lu2 2.616507 1_565
B4 Lu3 2.653815 1_455
B4 Lu1 2.900901 1_455
B5 Ru1 2.223997 1_555
B5 Ru3 2.226922 1_656
B5 Ru0 2.242240 1_555
B5 Lu3 2.562001 1_556
B5 Lu1 2.616507 1_556
B5 Lu0 2.653815 1_655
B5 Lu2 2.900901 1_665
B6 Ru3 2.223997 1_555
B6 Ru1 2.226922 1_554
B6 Ru2 2.242240 1_555
B6 Lu2 2.562001 1_554
B6 Lu0 2.616507 1_554
B6 Lu1 2.653815 1_555
B6 Lu3 2.900901 1_545
B7 Ru0 2.223997 1_545
B7 Ru2 2.226922 1_555
B7 Ru1 2.242240 1_555
B7 Lu1 2.562001 1_555
B7 Lu3 2.616507 1_545
B7 Lu2 2.653815 1_555
B7 Lu0 2.900901 1_555
