# generated using pymatgen
data_MgSn3P2(SO6)4
_symmetry_space_group_name_H-M   'P 1'
_cell_length_a   8.74822202
_cell_length_b   8.75582073
_cell_length_c   22.57943056
_cell_angle_alpha   89.82518593
_cell_angle_beta   89.88818786
_cell_angle_gamma   120.04709445
_symmetry_Int_Tables_number   1
_chemical_formula_structural   MgSn3P2(SO6)4
_chemical_formula_sum   'Mg3 Sn9 P6 S12 O72'
_cell_volume   1497.09187152
_cell_formula_units_Z   3
loop_
 _symmetry_equiv_pos_site_id
 _symmetry_equiv_pos_as_xyz
  1  'x, y, z'
loop_
 _atom_site_type_symbol
 _atom_site_label
 _atom_site_symmetry_multiplicity
 _atom_site_fract_x
 _atom_site_fract_y
 _atom_site_fract_z
 _atom_site_occupancy
  Mg  Mg0  1  0.99432179  0.99923570  0.35369807  1
  Mg  Mg1  1  0.67235169  0.33458761  0.68684933  1
  Mg  Mg2  1  0.66206588  0.33436909  0.18651467  1
  Sn  Sn0  1  0.00069426  0.00035744  0.85826174  1
  Sn  Sn1  1  0.99912354  0.00417261  0.64590081  1
  Sn  Sn2  1  0.00521123  0.00453726  0.14655221  1
  Sn  Sn3  1  0.66095217  0.33209673  0.97892255  1
  Sn  Sn4  1  0.67055804  0.32742381  0.47905124  1
  Sn  Sn5  1  0.33367063  0.66218481  0.01990625  1
  Sn  Sn6  1  0.33278280  0.66567207  0.51942181  1
  Sn  Sn7  1  0.33821340  0.67223552  0.31132582  1
  Sn  Sn8  1  0.33312513  0.66682695  0.81685051  1
  P  P0  1  0.95664389  0.33598020  0.58501621  1
  P  P1  1  0.37967518  0.33532594  0.08508032  1
  P  P2  1  0.62295241  0.66533297  0.91685176  1
  P  P3  1  0.04061461  0.37657865  0.91721329  1
  P  P4  1  0.33482648  0.95656256  0.91740983  1
  P  P5  1  0.62766683  0.95626490  0.41642065  1
  S  S0  1  0.29223488  0.00471291  0.25168613  1
  S  S1  1  0.71337217  0.70782851  0.25110140  1
  S  S2  1  0.99569134  0.28929941  0.25165170  1
  S  S3  1  0.29489248  0.29238987  0.75038648  1
  S  S4  1  0.99772407  0.70670737  0.75018422  1
  S  S5  1  0.70782350  0.00204986  0.75061237  1
  S  S6  1  0.37790868  0.04359781  0.58491704  1
  S  S7  1  0.66577805  0.62089411  0.58439391  1
  S  S8  1  0.95621615  0.62205140  0.08454175  1
  S  S9  1  0.66539987  0.04332609  0.08463845  1
  S  S10  1  0.33103055  0.37188213  0.41645812  1
  S  S11  1  0.04235364  0.67055068  0.41613307  1
  O  O0  1  0.20703971  0.02828102  0.30353640  1
  O  O1  1  0.82126306  0.79182834  0.30290681  1
  O  O2  1  0.97167347  0.18008396  0.30336372  1
  O  O3  1  0.21074039  0.17804791  0.80301819  1
  O  O4  1  0.96786572  0.79020465  0.80279814  1
  O  O5  1  0.82189787  0.03222731  0.80288771  1
  O  O6  1  0.78508398  0.96252440  0.69689575  1
  O  O7  1  0.17867478  0.21423893  0.69683321  1
  O  O8  1  0.03624694  0.82398384  0.69604100  1
  O  O9  1  0.78623160  0.82254974  0.19604530  1
  O  O10  1  0.03653446  0.21702929  0.19693916  1
  O  O11  1  0.17870806  0.96258453  0.19701434  1
  O  O12  1  0.87363006  0.36641924  0.63852895  1
  O  O13  1  0.48644277  0.12291020  0.63667641  1
  O  O14  1  0.63462179  0.51193297  0.63653985  1
  O  O15  1  0.87774784  0.51222692  0.13668415  1
  O  O16  1  0.63640150  0.12284443  0.13668796  1
  O  O17  1  0.49308966  0.36558199  0.13854395  1
  O  O18  1  0.45456356  0.29757833  0.02768546  1
  O  O19  1  0.84909297  0.54900122  0.02974319  1
  O  O20  1  0.70239876  0.15230975  0.02974796  1
  O  O21  1  0.44914329  0.15263147  0.52997609  1
  O  O22  1  0.69972705  0.54744120  0.52930181  1
  O  O23  1  0.84448479  0.29883115  0.52787615  1
  O  O24  1  0.54524859  0.70464871  0.97141342  1
  O  O25  1  0.15762858  0.45563750  0.97146462  1
  O  O26  1  0.29734816  0.83926793  0.97231991  1
  O  O27  1  0.53981138  0.83982082  0.47305346  1
  O  O28  1  0.30003256  0.45215011  0.47037073  1
  O  O29  1  0.15189120  0.69921401  0.47025102  1
  O  O30  1  0.11875504  0.62892463  0.36385853  1
  O  O31  1  0.50267789  0.87473331  0.36230267  1
  O  O32  1  0.36956298  0.48860921  0.36381815  1
  O  O33  1  0.11914410  0.48958849  0.86034656  1
  O  O34  1  0.36954389  0.87930737  0.86050644  1
  O  O35  1  0.50996416  0.63021089  0.86033753  1
  O  O36  1  0.02550746  0.82469755  0.40835338  1
  O  O37  1  0.80565230  0.97537096  0.40802091  1
  O  O38  1  0.17757176  0.20027763  0.40860979  1
  O  O39  1  0.02452346  0.19558251  0.90805988  1
  O  O40  1  0.17064360  0.97420967  0.90830700  1
  O  O41  1  0.80471698  0.82999563  0.90804221  1
  O  O42  1  0.97833110  0.16972066  0.59075806  1
  O  O43  1  0.19785818  0.02250362  0.59070995  1
  O  O44  1  0.82549030  0.80012908  0.59041358  1
  O  O45  1  0.97518610  0.80075310  0.09060884  1
  O  O46  1  0.82430105  0.02244547  0.09062987  1
  O  O47  1  0.19112805  0.16883138  0.09072636  1
  O  O48  1  0.69043727  0.15588917  0.74162837  1
  O  O49  1  0.46603144  0.30885049  0.74104998  1
  O  O50  1  0.84285799  0.53584927  0.74171880  1
  O  O51  1  0.69154957  0.53449376  0.24162963  1
  O  O52  1  0.84398178  0.31083652  0.24116253  1
  O  O53  1  0.46637798  0.15543413  0.24167087  1
  O  O54  1  0.64384070  0.50399673  0.92406624  1
  O  O55  1  0.85849233  0.35714464  0.92539699  1
  O  O56  1  0.49775533  0.13816482  0.92407070  1
  O  O57  1  0.63711483  0.13747947  0.42442753  1
  O  O58  1  0.49510641  0.36149546  0.42514737  1
  O  O59  1  0.86643487  0.50844018  0.42409282  1
  O  O60  1  0.35614320  0.49751856  0.07537989  1
  O  O61  1  0.13429175  0.64394087  0.07606060  1
  O  O62  1  0.50804222  0.86670022  0.07606062  1
  O  O63  1  0.35711684  0.86652665  0.57624978  1
  O  O64  1  0.50931155  0.64242375  0.57620018  1
  O  O65  1  0.14334994  0.49900548  0.57442661  1
  O  O66  1  0.30591009  0.83932006  0.25682543  1
  O  O67  1  0.53328027  0.69175424  0.25665984  1
  O  O68  1  0.16122056  0.46958747  0.25794998  1
  O  O69  1  0.30685368  0.46713727  0.75694990  1
  O  O70  1  0.16034357  0.69409201  0.75668337  1
  O  O71  1  0.53245750  0.83896076  0.75698574  1
loop_
_geom_bond_atom_site_label_1
_geom_bond_atom_site_label_2
_geom_bond_distance
_geom_bond_site_symmetry_2
Mg0 O37 1.979278 1_555
Mg0 O2 2.035291 1_565
Mg0 O1 2.042408 1_555
Mg0 O0 2.080038 1_665
Mg0 O36 2.083314 1_655
Mg0 O38 2.097854 1_665
Mg1 O12 1.966663 1_555
Mg1 O48 2.059101 1_555
Mg1 O50 2.062401 1_555
Mg1 O14 2.077141 1_555
Mg1 O13 2.089259 1_555
Mg1 O49 2.094919 1_555
Mg2 O17 1.960132 1_555
Mg2 O53 2.056734 1_555
Mg2 O51 2.060965 1_555
Mg2 O15 2.071168 1_555
Mg2 O16 2.084136 1_555
Mg2 O52 2.105275 1_555
O0 S0 1.456299 1_555
O1 S1 1.454120 1_555
O2 S2 1.453607 1_555
O3 S3 1.485868 1_555
O3 Sn0 2.114073 1_555
O4 S4 1.486395 1_555
O4 Sn0 2.126714 1_665
O5 S5 1.483703 1_555
O5 Sn0 2.128454 1_655
O6 S5 1.510400 1_565
O6 Sn1 2.066433 1_565
O7 S3 1.509051 1_555
O7 Sn1 2.073551 1_455
O8 S4 1.518797 1_455
O8 Sn1 2.092842 1_465
O9 S1 1.519461 1_555
O9 Sn2 2.093245 1_665
O10 S2 1.511194 1_455
O10 Sn2 2.081986 1_555
O11 S0 1.512286 1_565
O11 Sn2 2.073495 1_565
O12 P0 1.500253 1_555
O13 S6 1.448656 1_555
O14 S7 1.449934 1_555
O15 S8 1.452909 1_555
O16 S9 1.452940 1_555
O17 P1 1.501759 1_555
O18 P1 1.560146 1_555
O18 Sn3 2.001829 1_554
O19 S8 1.492444 1_555
O19 Sn3 2.126730 1_554
O20 S9 1.494443 1_555
O20 Sn3 2.118658 1_554
O21 S6 1.494210 1_555
O21 Sn4 2.104339 1_555
O22 S7 1.497986 1_555
O22 Sn4 2.141455 1_555
O23 P0 1.555964 1_555
O23 Sn4 1.994866 1_555
O24 P2 1.527089 1_555
O24 Sn5 2.015817 1_556
O25 P3 1.525796 1_555
O25 Sn5 2.016998 1_556
O26 P4 1.533912 1_555
O26 Sn5 2.035703 1_556
O27 P5 1.571263 1_555
O27 Sn6 1.979569 1_555
O28 S10 1.498042 1_555
O28 Sn6 2.069171 1_555
O29 S11 1.496669 1_555
O29 Sn6 2.072059 1_555
O30 S11 1.488704 1_555
O30 Sn7 2.120367 1_555
O31 P5 1.557958 1_555
O31 Sn7 2.000719 1_555
O32 S10 1.488938 1_555
O32 Sn7 2.120437 1_555
O33 P3 1.551716 1_555
O33 Sn8 1.987818 1_555
O34 P4 1.552466 1_555
O34 Sn8 1.988275 1_555
O35 P2 1.550109 1_555
O35 Sn8 1.990208 1_555
O36 S11 1.439467 1_555
O37 P5 1.492041 1_555
O38 S10 1.440085 1_555
O39 P3 1.533863 1_555
O39 Sn0 1.971157 1_555
O40 P4 1.533723 1_555
O40 Sn0 1.971190 1_565
O41 P2 1.532283 1_555
O41 Sn0 1.961895 1_665
O42 P0 1.564451 1_555
O42 Sn1 1.984521 1_555
O43 S6 1.496644 1_555
O43 Sn1 2.076594 1_455
O44 S7 1.496571 1_555
O44 Sn1 2.090999 1_565
O45 S8 1.495291 1_555
O45 Sn2 2.096191 1_665
O46 S9 1.496398 1_555
O46 Sn2 2.092569 1_655
O47 P1 1.565941 1_555
O47 Sn2 1.985321 1_555
O48 S5 1.443012 1_555
O49 S3 1.445407 1_555
O50 S4 1.443306 1_555
O51 S1 1.448292 1_555
O52 S2 1.450748 1_555
O53 S0 1.448135 1_555
O54 P2 1.520747 1_555
O54 Sn3 2.009224 1_555
O55 P3 1.526007 1_655
O55 Sn3 2.026292 1_555
O56 P4 1.521586 1_545
O56 Sn3 2.011856 1_555
O57 P5 1.558061 1_545
O57 Sn4 1.974696 1_555
O58 S10 1.496253 1_555
O58 Sn4 2.095206 1_555
O59 S11 1.491741 1_655
O59 Sn4 2.061118 1_555
O60 P1 1.548602 1_555
O60 Sn5 1.990003 1_555
O61 S8 1.483205 1_455
O61 Sn5 2.094411 1_555
O62 S9 1.481599 1_565
O62 Sn5 2.104078 1_555
O63 S6 1.481458 1_565
O63 Sn6 2.103458 1_555
O64 S7 1.484104 1_555
O64 Sn6 2.095438 1_555
O65 P0 1.556960 1_455
O65 Sn6 1.994365 1_555
O66 S0 1.515731 1_565
O66 Sn7 2.034417 1_555
O67 S1 1.514852 1_555
O67 Sn7 2.040418 1_555
O68 S2 1.523836 1_455
O68 Sn7 2.065754 1_555
O69 S3 1.488321 1_555
O69 Sn8 2.133643 1_555
O70 S4 1.488522 1_455
O70 Sn8 2.134184 1_555
O71 S5 1.489116 1_565
O71 Sn8 2.118009 1_555
