# generated using pymatgen
data_Li3AsS3
_symmetry_space_group_name_H-M   'P 1'
_cell_length_a   6.64129102
_cell_length_b   8.04813258
_cell_length_c   9.81699727
_cell_angle_alpha   90.00000000
_cell_angle_beta   90.00000000
_cell_angle_gamma   90.00000000
_symmetry_Int_Tables_number   1
_chemical_formula_structural   Li3AsS3
_chemical_formula_sum   'Li12 As4 S12'
_cell_volume   524.71841211
_cell_formula_units_Z   4
loop_
 _symmetry_equiv_pos_site_id
 _symmetry_equiv_pos_as_xyz
  1  'x, y, z'
loop_
 _atom_site_type_symbol
 _atom_site_label
 _atom_site_symmetry_multiplicity
 _atom_site_fract_x
 _atom_site_fract_y
 _atom_site_fract_z
 _atom_site_occupancy
  Li  Li0  1  0.11847095  0.75156063  0.11121248  1
  Li  Li1  1  0.88152905  0.24843937  0.61121248  1
  Li  Li2  1  0.38152905  0.25156063  0.11121248  1
  Li  Li3  1  0.61847095  0.74843937  0.61121248  1
  Li  Li4  1  0.35351391  0.07924493  0.80992521  1
  Li  Li5  1  0.64648609  0.92075507  0.30992521  1
  Li  Li6  1  0.45061105  0.56700871  0.27932364  1
  Li  Li7  1  0.54938895  0.43299129  0.77932364  1
  Li  Li8  1  0.04938895  0.06700871  0.27932364  1
  Li  Li9  1  0.95061105  0.93299129  0.77932364  1
  Li  Li10  1  0.14648609  0.57924493  0.80992521  1
  Li  Li11  1  0.85351391  0.42075507  0.30992521  1
  As  As0  1  0.09845039  0.75415178  0.49954637  1
  As  As1  1  0.90154961  0.24584822  0.99954637  1
  As  As2  1  0.40154961  0.25415178  0.49954637  1
  As  As3  1  0.59845039  0.74584822  0.99954637  1
  S  S0  1  0.79162814  0.66004133  0.82486996  1
  S  S1  1  0.20837186  0.33995867  0.32486996  1
  S  S2  1  0.70837186  0.16004133  0.82486996  1
  S  S3  1  0.29162814  0.83995867  0.32486996  1
  S  S4  1  0.21808225  0.31641554  0.68616324  1
  S  S5  1  0.78191775  0.68358446  0.18616324  1
  S  S6  1  0.35971523  0.54317617  0.00965710  1
  S  S7  1  0.64028477  0.45682383  0.50965710  1
  S  S8  1  0.14028477  0.04317617  0.00965710  1
  S  S9  1  0.85971523  0.95682383  0.50965710  1
  S  S10  1  0.28191775  0.81641554  0.68616324  1
  S  S11  1  0.71808225  0.18358446  0.18616324  1
loop_
_geom_bond_atom_site_label_1
_geom_bond_atom_site_label_2
_geom_bond_distance
_geom_bond_site_symmetry_2
Li0 S5 2.415900 1_455
Li0 S3 2.495600 1_555
Li0 S6 2.524597 1_555
Li0 S8 2.554047 1_565
Li1 S4 2.415900 1_655
Li1 S2 2.495600 1_555
Li1 S7 2.524597 1_555
Li1 S9 2.554047 1_545
Li2 S11 2.415900 1_555
Li2 S1 2.495600 1_555
Li2 S8 2.524597 1_555
Li2 S6 2.554047 1_555
Li3 S10 2.415900 1_555
Li3 S0 2.495600 1_555
Li3 S9 2.524597 1_555
Li3 S7 2.554047 1_555
Li4 S4 2.434870 1_555
Li4 S8 2.436034 1_556
Li4 S2 2.449177 1_555
Li4 S10 2.485293 1_545
Li5 S5 2.434870 1_555
Li5 S9 2.436034 1_555
Li5 S3 2.449177 1_555
Li5 S11 2.485293 1_565
Li6 S1 2.475324 1_555
Li6 S3 2.477983 1_555
Li6 S5 2.560860 1_555
Li6 S6 2.722036 1_555
Li6 S7 2.736078 1_555
Li7 S0 2.475324 1_555
Li7 S2 2.477983 1_555
Li7 S4 2.560860 1_555
Li7 S7 2.722036 1_555
Li7 S6 2.736078 1_556
Li8 S3 2.475324 1_545
Li8 S1 2.477983 1_555
Li8 S11 2.560860 1_455
Li8 S8 2.722036 1_555
Li8 S9 2.736078 1_445
Li9 S2 2.475324 1_565
Li9 S0 2.477983 1_555
Li9 S10 2.560860 1_655
Li9 S9 2.722036 1_555
Li9 S8 2.736078 1_666
Li10 S10 2.434870 1_555
Li10 S6 2.436034 1_556
Li10 S0 2.449177 1_455
Li10 S4 2.485293 1_555
Li11 S11 2.434870 1_555
Li11 S7 2.436034 1_555
Li11 S1 2.449177 1_655
Li11 S5 2.485293 1_555
As0 S3 2.250200 1_555
As0 S10 2.256555 1_555
As0 S9 2.276902 1_455
As1 S2 2.250200 1_555
As1 S11 2.256555 1_556
As1 S8 2.276902 1_656
As2 S1 2.250200 1_555
As2 S4 2.256555 1_555
As2 S7 2.276902 1_555
As3 S0 2.250200 1_555
As3 S5 2.256555 1_556
As3 S6 2.276902 1_556
