# generated using pymatgen
data_NaSn2(PO4)3
_symmetry_space_group_name_H-M   'P 1'
_cell_length_a   9.05838663
_cell_length_b   9.05838663
_cell_length_c   9.05838702
_cell_angle_alpha   57.79778676
_cell_angle_beta   57.79778676
_cell_angle_gamma   57.79777937
_symmetry_Int_Tables_number   1
_chemical_formula_structural   NaSn2(PO4)3
_chemical_formula_sum   'Na2 Sn4 P6 O24'
_cell_volume   498.99949615
_cell_formula_units_Z   2
loop_
 _symmetry_equiv_pos_site_id
 _symmetry_equiv_pos_as_xyz
  1  'x, y, z'
loop_
 _atom_site_type_symbol
 _atom_site_label
 _atom_site_symmetry_multiplicity
 _atom_site_fract_x
 _atom_site_fract_y
 _atom_site_fract_z
 _atom_site_occupancy
  Na  Na0  1  0.50000000  0.50000000  0.50000000  1
  Na  Na1  1  0.00000000  0.00000000  0.00000000  1
  Sn  Sn0  1  0.85420000  0.85420000  0.85420000  1
  Sn  Sn1  1  0.64580000  0.64580000  0.64580000  1
  Sn  Sn2  1  0.35420000  0.35420000  0.35420000  1
  Sn  Sn3  1  0.14580000  0.14580000  0.14580000  1
  P  P0  1  0.95717700  0.25000000  0.54282300  1
  P  P1  1  0.54282300  0.95717700  0.25000000  1
  P  P2  1  0.04282300  0.75000000  0.45717700  1
  P  P3  1  0.45717700  0.04282300  0.75000000  1
  P  P4  1  0.25000000  0.54282300  0.95717700  1
  P  P5  1  0.75000000  0.45717700  0.04282300  1
  O  O0  1  0.91900300  0.27401900  0.06381500  1
  O  O1  1  0.06381500  0.91900300  0.27401900  1
  O  O2  1  0.27401900  0.06381500  0.91900300  1
  O  O3  1  0.58099700  0.43618500  0.22598100  1
  O  O4  1  0.22598100  0.58099700  0.43618500  1
  O  O5  1  0.43618500  0.22598100  0.58099700  1
  O  O6  1  0.08099700  0.72598100  0.93618500  1
  O  O7  1  0.93618500  0.08099700  0.72598100  1
  O  O8  1  0.72598100  0.93618500  0.08099700  1
  O  O9  1  0.41900300  0.56381500  0.77401900  1
  O  O10  1  0.77401900  0.41900300  0.56381500  1
  O  O11  1  0.56381500  0.77401900  0.41900300  1
  O  O12  1  0.48598900  0.88070100  0.71269000  1
  O  O13  1  0.88070100  0.71269000  0.48598900  1
  O  O14  1  0.71269000  0.48598900  0.88070100  1
  O  O15  1  0.61929900  0.01401100  0.78731000  1
  O  O16  1  0.01401100  0.78731000  0.61929900  1
  O  O17  1  0.78731000  0.61929900  0.01401100  1
  O  O18  1  0.51401100  0.11929900  0.28731000  1
  O  O19  1  0.11929900  0.28731000  0.51401100  1
  O  O20  1  0.28731000  0.51401100  0.11929900  1
  O  O21  1  0.38070100  0.98598900  0.21269000  1
  O  O22  1  0.98598900  0.21269000  0.38070100  1
  O  O23  1  0.21269000  0.38070100  0.98598900  1
loop_
_geom_bond_atom_site_label_1
_geom_bond_atom_site_label_2
_geom_bond_distance
_geom_bond_site_symmetry_2
Na0 O10 2.483918 1_555
Na0 O4 2.483918 1_555
Na0 O11 2.483918 1_555
Na0 O5 2.483918 1_555
Na0 O9 2.483918 1_555
Na0 O3 2.483918 1_555
Na1 O0 2.483918 1_455
Na1 O6 2.483918 1_544
Na1 O2 2.483918 1_554
Na1 O8 2.483918 1_445
Na1 O1 2.483918 1_545
Na1 O7 2.483918 1_454
O0 P5 1.548990 1_555
O0 Sn3 2.069970 1_655
O1 P2 1.548990 1_555
O1 Sn3 2.069970 1_565
O2 P3 1.548990 1_555
O2 Sn3 2.069970 1_556
O3 P5 1.548990 1_555
O3 Sn2 2.069970 1_555
O4 P2 1.548990 1_555
O4 Sn2 2.069970 1_555
O5 P3 1.548990 1_555
O5 Sn2 2.069970 1_555
O6 P4 1.548990 1_555
O6 Sn0 2.069970 1_455
O7 P0 1.548990 1_555
O7 Sn0 2.069970 1_545
O8 P1 1.548990 1_555
O8 Sn0 2.069970 1_554
O9 P4 1.548990 1_555
O9 Sn1 2.069970 1_555
O10 P0 1.548990 1_555
O10 Sn1 2.069970 1_555
O11 P1 1.548990 1_555
O11 Sn1 2.069970 1_555
O12 P3 1.538016 1_565
O12 Sn1 2.036327 1_555
O13 P2 1.538016 1_655
O13 Sn1 2.036327 1_555
O14 P5 1.538016 1_556
O14 Sn1 2.036327 1_555
O15 P3 1.538016 1_555
O15 Sn0 2.036327 1_545
O16 P2 1.538016 1_555
O16 Sn0 2.036327 1_455
O17 P5 1.538016 1_555
O17 Sn0 2.036327 1_554
O18 P1 1.538016 1_545
O18 Sn2 2.036327 1_555
O19 P0 1.538016 1_455
O19 Sn2 2.036327 1_555
O20 P4 1.538016 1_554
O20 Sn2 2.036327 1_555
O21 P1 1.538016 1_555
O21 Sn3 2.036327 1_565
O22 P0 1.538016 1_555
O22 Sn3 2.036327 1_655
O23 P4 1.538016 1_555
O23 Sn3 2.036327 1_556
