# generated using pymatgen
data_Na3TiAlSi2SO12
_symmetry_space_group_name_H-M   'P 1'
_cell_length_a   8.82987784
_cell_length_b   8.82987756
_cell_length_c   21.83858313
_cell_angle_alpha   90.07428994
_cell_angle_beta   89.92571007
_cell_angle_gamma   120.15284859
_symmetry_Int_Tables_number   1
_chemical_formula_structural   Na3TiAlSi2SO12
_chemical_formula_sum   'Na18 Ti6 Al6 Si12 S6 O72'
_cell_volume   1472.28882651
_cell_formula_units_Z   6
loop_
 _symmetry_equiv_pos_site_id
 _symmetry_equiv_pos_as_xyz
  1  'x, y, z'
loop_
 _atom_site_type_symbol
 _atom_site_label
 _atom_site_symmetry_multiplicity
 _atom_site_fract_x
 _atom_site_fract_y
 _atom_site_fract_z
 _atom_site_occupancy
  Na  Na0  1  0.62921964  0.00151615  0.24554196  1
  Na  Na1  1  0.00127125  0.64017964  0.24830125  1
  Na  Na2  1  0.99848385  0.37078036  0.74554196  1
  Na  Na3  1  0.35982036  0.99872875  0.74830125  1
  Na  Na4  1  0.29588664  0.33484915  0.57887496  1
  Na  Na5  1  0.66793825  0.97351264  0.58163425  1
  Na  Na6  1  0.66515085  0.70411336  0.07887496  1
  Na  Na7  1  0.02648736  0.33206175  0.08163425  1
  Na  Na8  1  0.96255264  0.66818315  0.91220896  1
  Na  Na9  1  0.33460425  0.30684664  0.91496825  1
  Na  Na10  1  0.33181685  0.03744736  0.41220896  1
  Na  Na11  1  0.69315336  0.66539575  0.41496825  1
  Na  Na12  1  0.00220793  0.01407031  0.49741838  1
  Na  Na13  1  0.98592969  0.99779207  0.99741838  1
  Na  Na14  1  0.66887493  0.34740331  0.83075138  1
  Na  Na15  1  0.65259669  0.33112507  0.33075138  1
  Na  Na16  1  0.33554093  0.68073731  0.16408538  1
  Na  Na17  1  0.31926269  0.66445907  0.66408538  1
  Ti  Ti0  1  0.02418919  0.00986221  0.64626793  1
  Ti  Ti1  1  0.99013779  0.97581081  0.14626793  1
  Ti  Ti2  1  0.69085619  0.34319521  0.97960093  1
  Ti  Ti3  1  0.65680479  0.30914381  0.47960093  1
  Ti  Ti4  1  0.35752219  0.67652921  0.31293493  1
  Ti  Ti5  1  0.32347079  0.64247781  0.81293493  1
  Al  Al0  1  0.00431442  0.00847260  0.35220641  1
  Al  Al1  1  0.99152740  0.99568558  0.85220641  1
  Al  Al2  1  0.67098142  0.34180560  0.68553941  1
  Al  Al3  1  0.65819440  0.32901858  0.18553941  1
  Al  Al4  1  0.33764742  0.67513960  0.01887341  1
  Al  Al5  1  0.32486040  0.66235258  0.51887341  1
  Si  Si0  1  0.29275350  0.00861210  0.25263052  1
  Si  Si1  1  0.71296683  0.70139586  0.25222205  1
  Si  Si2  1  0.29860414  0.28703317  0.75222205  1
  Si  Si3  1  0.99138790  0.70724650  0.75263052  1
  Si  Si4  1  0.95942050  0.34194510  0.58596352  1
  Si  Si5  1  0.37963383  0.03472886  0.58555505  1
  Si  Si6  1  0.96527114  0.62036617  0.08555505  1
  Si  Si7  1  0.65805490  0.04057950  0.08596352  1
  Si  Si8  1  0.62608650  0.67527910  0.91929752  1
  Si  Si9  1  0.04629983  0.36806286  0.91888905  1
  Si  Si10  1  0.63193714  0.95370017  0.41888905  1
  Si  Si11  1  0.32472090  0.37391350  0.41929752  1
  S  S0  1  0.00239272  0.28909562  0.25039528  1
  S  S1  1  0.71090438  -0.00239272  0.75039528  1
  S  S2  1  0.66905972  0.62242862  0.58372828  1
  S  S3  1  0.37757138  0.33094028  0.08372828  1
  S  S4  1  0.33572572  0.95576262  0.91706228  1
  S  S5  1  0.04423738  0.66427428  0.41706228  1
  O  O0  1  0.19764042  0.02905891  0.31278151  1
  O  O1  1  0.83753189  0.79968838  0.31056139  1
  O  O2  1  0.97177730  0.17440923  0.30394978  1
  O  O3  1  0.20031162  0.16246811  0.81056139  1
  O  O4  1  0.97094109  0.80235958  0.81278151  1
  O  O5  1  0.82559077  0.02822270  0.80394978  1
  O  O6  1  0.78560112  0.96974664  0.69363270  1
  O  O7  1  0.16926787  0.20596806  0.69079098  1
  O  O8  1  0.02837672  0.84127212  0.69353762  1
  O  O9  1  0.79403194  0.83073213  0.19079098  1
  O  O10  1  0.03025336  0.21439888  0.19363270  1
  O  O11  1  0.15872788  0.97162328  0.19353762  1
  O  O12  1  0.86430742  0.36239191  0.64611451  1
  O  O13  1  0.50419889  0.13302138  0.64389439  1
  O  O14  1  0.63844430  0.50774223  0.63728278  1
  O  O15  1  0.86697862  0.49580111  0.14389439  1
  O  O16  1  0.63760809  0.13569258  0.14611451  1
  O  O17  1  0.49225777  0.36155570  0.13728278  1
  O  O18  1  0.45226812  0.30307964  0.02696570  1
  O  O19  1  0.83593487  0.53930106  0.02412398  1
  O  O20  1  0.69504372  0.17460512  0.02687062  1
  O  O21  1  0.46069894  0.16406513  0.52412398  1
  O  O22  1  0.69692036  0.54773188  0.52696570  1
  O  O23  1  0.82539488  0.30495628  0.52687062  1
  O  O24  1  0.53097342  0.69572591  0.97944851  1
  O  O25  1  0.17086489  0.46635538  0.97722839  1
  O  O26  1  0.30511030  0.84107623  0.97061678  1
  O  O27  1  0.53364462  0.82913511  0.47722839  1
  O  O28  1  0.30427409  0.46902658  0.47944851  1
  O  O29  1  0.15892377  0.69488970  0.47061678  1
  O  O30  1  0.11893412  0.63641364  0.36029970  1
  O  O31  1  0.50260087  0.87263506  0.35745798  1
  O  O32  1  0.36170972  0.50793912  0.36020462  1
  O  O33  1  0.12736494  0.49739913  0.85745798  1
  O  O34  1  0.36358636  0.88106588  0.86029970  1
  O  O35  1  0.49206088  0.63829028  0.86020462  1
  O  O36  1  0.02761861  0.82411181  0.41379077  1
  O  O37  1  0.82005727  0.96801966  0.40799673  1
  O  O38  1  0.16105755  0.17592796  0.41033164  1
  O  O39  1  0.03198034  0.17994273  0.90799673  1
  O  O40  1  0.17588819  0.97238139  0.91379077  1
  O  O41  1  0.82407204  0.83894245  0.91033164  1
  O  O42  1  0.96803819  0.15657058  0.58929117  1
  O  O43  1  0.18738825  0.02580889  0.58825079  1
  O  O44  1  0.82206763  0.80195158  0.59010111  1
  O  O45  1  0.97419111  0.81261175  0.08825079  1
  O  O46  1  0.84342942  0.03196181  0.08929117  1
  O  O47  1  0.19804842  0.17793237  0.09010111  1
  O  O48  1  0.69428561  0.15744481  0.74712377  1
  O  O49  1  0.48672427  0.30135266  0.74132973  1
  O  O50  1  0.82772455  0.50926096  0.74366464  1
  O  O51  1  0.69864734  0.51327573  0.24132973  1
  O  O52  1  0.84255519  0.30571439  0.24712377  1
  O  O53  1  0.49073904  0.17227545  0.24366464  1
  O  O54  1  0.63470519  0.48990358  0.92262417  1
  O  O55  1  0.85405525  0.35914189  0.92158379  1
  O  O56  1  0.48873463  0.13528458  0.92343411  1
  O  O57  1  0.64085811  0.14594475  0.42158379  1
  O  O58  1  0.51009642  0.36529481  0.42262417  1
  O  O59  1  0.86471542  0.51126537  0.42343411  1
  O  O60  1  0.36095161  0.49077881  0.08045777  1
  O  O61  1  0.15339027  0.63468666  0.07466373  1
  O  O62  1  0.49439055  0.84259496  0.07699864  1
  O  O63  1  0.36531334  0.84660973  0.57466373  1
  O  O64  1  0.50922119  0.63904839  0.58045777  1
  O  O65  1  0.15740504  0.50560945  0.57699864  1
  O  O66  1  0.30137119  0.82323758  0.25595817  1
  O  O67  1  0.52072125  0.69247589  0.25491779  1
  O  O68  1  0.15540063  0.46861858  0.25676811  1
  O  O69  1  0.30752411  0.47927875  0.75491779  1
  O  O70  1  0.17676242  0.69862881  0.75595817  1
  O  O71  1  0.53138142  0.84459937  0.75676811  1
loop_
_geom_bond_atom_site_label_1
_geom_bond_atom_site_label_2
_geom_bond_distance
_geom_bond_site_symmetry_2
Na0 O53 2.371228 1_555
Na0 O52 2.383529 1_555
Na0 O67 2.404296 1_545
Na0 O16 2.458052 1_555
Na0 O66 2.516179 1_545
Na0 O31 2.690824 1_545
Na0 O9 2.831439 1_545
Na0 O2 2.910782 1_555
Na1 O66 2.315133 1_555
Na1 O51 2.326292 1_455
Na1 O68 2.500742 1_555
Na1 O52 2.555099 1_455
Na1 O15 2.590553 1_455
Na1 O30 2.665407 1_555
Na1 O11 2.800963 1_555
Na1 O1 2.821067 1_455
Na2 O50 2.371228 1_555
Na2 O48 2.383529 1_555
Na2 O69 2.404296 1_655
Na2 O12 2.458052 1_555
Na2 O70 2.516179 1_655
Na2 O33 2.690824 1_655
Na2 O7 2.831439 1_655
Na2 O5 2.910782 1_555
Na3 O70 2.315133 1_555
Na3 O49 2.326292 1_565
Na3 O71 2.500742 1_555
Na3 O48 2.555099 1_565
Na3 O13 2.590553 1_565
Na3 O34 2.665407 1_555
Na3 O8 2.800963 1_555
Na3 O3 2.821067 1_565
Na4 O65 2.371243 1_555
Na4 O64 2.383533 1_555
Na4 O43 2.404296 1_555
Na4 O28 2.458039 1_555
Na4 O42 2.516179 1_455
Na4 O7 2.690824 1_555
Na4 O21 2.831439 1_555
Na4 O14 2.910782 1_555
Na5 O42 2.315133 1_565
Na5 O63 2.326299 1_555
Na5 O44 2.500742 1_555
Na5 O64 2.555091 1_555
Na5 O27 2.590534 1_555
Na5 O6 2.665407 1_555
Na5 O23 2.800963 1_565
Na5 O13 2.821067 1_565
Na6 O62 2.371243 1_555
Na6 O60 2.383533 1_555
Na6 O45 2.404296 1_555
Na6 O24 2.458039 1_554
Na6 O46 2.516179 1_565
Na6 O9 2.690824 1_555
Na6 O19 2.831439 1_555
Na6 O17 2.910782 1_555
Na7 O46 2.315133 1_455
Na7 O61 2.326299 1_555
Na7 O47 2.500742 1_555
Na7 O60 2.555091 1_555
Na7 O25 2.590534 1_554
Na7 O10 2.665407 1_555
Na7 O20 2.800963 1_455
Na7 O15 2.821067 1_455
Na8 O41 2.371228 1_555
Na8 O40 2.383529 1_655
Na8 O55 2.404304 1_555
Na8 O4 2.458052 1_555
Na8 O54 2.516171 1_555
Na8 O19 2.690804 1_556
Na8 O33 2.831439 1_655
Na8 O26 2.910782 1_655
Na9 O54 2.315138 1_555
Na9 O39 2.326292 1_555
Na9 O56 2.500755 1_555
Na9 O40 2.555099 1_545
Na9 O3 2.590553 1_555
Na9 O18 2.665392 1_556
Na9 O35 2.800963 1_555
Na9 O25 2.821067 1_555
Na10 O38 2.371228 1_555
Na10 O36 2.383529 1_545
Na10 O57 2.404304 1_555
Na10 O0 2.458052 1_555
Na10 O58 2.516170 1_555
Na10 O21 2.690804 1_555
Na10 O31 2.831439 1_545
Na10 O29 2.910782 1_545
Na11 O58 2.315138 1_555
Na11 O37 2.326292 1_555
Na11 O59 2.500755 1_555
Na11 O36 2.555099 1_655
Na11 O1 2.590553 1_555
Na11 O22 2.665392 1_555
Na11 O32 2.800963 1_555
Na11 O27 2.821067 1_555
Na12 O38 2.369224 1_555
Na12 O37 2.432047 1_445
Na12 O42 2.464356 1_455
Na12 O43 2.541033 1_555
Na12 O36 2.562848 1_545
Na12 O44 2.672727 1_445
Na13 O41 2.369224 1_555
Na13 O39 2.432047 1_665
Na13 O46 2.464356 1_566
Na13 O45 2.541032 1_556
Na13 O40 2.562848 1_655
Na13 O47 2.672727 1_666
Na14 O50 2.369224 1_555
Na14 O49 2.432047 1_555
Na14 O54 2.464356 1_555
Na14 O55 2.541033 1_555
Na14 O48 2.562848 1_555
Na14 O56 2.672727 1_555
Na15 O53 2.369224 1_555
Na15 O51 2.432047 1_555
Na15 O58 2.464356 1_555
Na15 O57 2.541032 1_555
Na15 O52 2.562848 1_555
Na15 O59 2.672727 1_555
Na16 O62 2.369224 1_555
Na16 O61 2.432047 1_555
Na16 O66 2.464356 1_555
Na16 O67 2.541033 1_555
Na16 O60 2.562848 1_555
Na16 O68 2.672727 1_555
Na17 O65 2.369224 1_555
Na17 O63 2.432047 1_555
Na17 O70 2.464356 1_555
Na17 O69 2.541032 1_555
Na17 O64 2.562848 1_555
Na17 O71 2.672727 1_555
Al0 O0 1.836628 1_555
Al0 O38 1.912309 1_555
Al0 O1 1.914730 1_445
Al0 O37 1.916045 1_445
Al0 O2 1.941043 1_455
Al0 O36 2.200922 1_545
Al1 O4 1.836628 1_555
Al1 O41 1.912309 1_555
Al1 O3 1.914730 1_665
Al1 O39 1.916045 1_665
Al1 O5 1.941043 1_565
Al1 O40 2.200922 1_655
Al2 O12 1.836628 1_555
Al2 O50 1.912309 1_555
Al2 O13 1.914730 1_555
Al2 O49 1.916045 1_555
Al2 O14 1.941043 1_555
Al2 O48 2.200922 1_555
Al3 O16 1.836628 1_555
Al3 O53 1.912309 1_555
Al3 O15 1.914730 1_555
Al3 O51 1.916045 1_555
Al3 O17 1.941043 1_555
Al3 O52 2.200922 1_555
Al4 O24 1.836628 1_554
Al4 O62 1.912309 1_555
Al4 O25 1.914730 1_554
Al4 O61 1.916045 1_555
Al4 O26 1.941043 1_554
Al4 O60 2.200922 1_555
Al5 O28 1.836628 1_555
Al5 O65 1.912309 1_555
Al5 O27 1.914730 1_555
Al5 O63 1.916045 1_555
Al5 O29 1.941043 1_555
Al5 O64 2.200922 1_555
O0 Si0 1.616277 1_555
O1 Si1 1.621106 1_555
O2 S0 1.481102 1_655
O3 Si2 1.621106 1_555
O4 Si3 1.616277 1_555
O5 S1 1.481102 1_555
O6 S1 1.480635 1_565
O6 Ti0 2.208899 1_665
O7 Si2 1.672315 1_555
O7 Ti0 1.831734 1_555
O8 Si3 1.669476 1_455
O8 Ti0 1.828228 1_565
O9 Si1 1.672315 1_555
O9 Ti1 1.831734 1_555
O10 S0 1.480635 1_555
O10 Ti1 2.208899 1_445
O11 Si0 1.669476 1_565
O11 Ti1 1.828228 1_455
O12 Si4 1.616277 1_555
O13 Si5 1.621106 1_555
O14 S2 1.481102 1_555
O15 Si6 1.621106 1_555
O16 Si7 1.616277 1_555
O17 S3 1.481102 1_555
O18 S3 1.480635 1_555
O18 Ti2 2.208899 1_554
O19 Si6 1.672315 1_555
O19 Ti2 1.831734 1_554
O20 Si7 1.669476 1_555
O20 Ti2 1.828228 1_554
O21 Si5 1.672315 1_555
O21 Ti3 1.831734 1_555
O22 S2 1.480635 1_555
O22 Ti3 2.208899 1_555
O23 Si4 1.669476 1_555
O23 Ti3 1.828228 1_555
O24 Si8 1.616277 1_555
O25 Si9 1.621106 1_555
O26 S4 1.481102 1_555
O27 Si10 1.621106 1_555
O28 Si11 1.616277 1_555
O29 S5 1.481102 1_555
O30 S5 1.480635 1_555
O30 Ti4 2.208899 1_555
O31 Si10 1.672315 1_555
O31 Ti4 1.831734 1_555
O32 Si11 1.669476 1_555
O32 Ti4 1.828228 1_555
O33 Si9 1.672315 1_555
O33 Ti5 1.831734 1_555
O34 S4 1.480635 1_555
O34 Ti5 2.208899 1_555
O35 Si8 1.669476 1_555
O35 Ti5 1.828228 1_555
O36 S5 1.492274 1_555
O37 Si10 1.618582 1_555
O38 Si11 1.626260 1_555
O39 Si9 1.618582 1_555
O40 S4 1.492274 1_555
O41 Si8 1.626260 1_555
O42 Si4 1.678019 1_555
O42 Ti0 2.030569 1_655
O43 Si5 1.660310 1_555
O43 Ti0 1.869115 1_555
O44 S2 1.485205 1_555
O44 Ti0 2.183642 1_665
O45 Si6 1.660310 1_555
O45 Ti1 1.869115 1_555
O46 Si7 1.678019 1_555
O46 Ti1 2.030569 1_545
O47 S3 1.485205 1_555
O47 Ti1 2.183642 1_445
O48 S1 1.492274 1_555
O49 Si2 1.618582 1_555
O50 Si3 1.626260 1_555
O51 Si1 1.618582 1_555
O52 S0 1.492274 1_655
O53 Si0 1.626260 1_555
O54 Si8 1.678032 1_555
O54 Ti2 2.030569 1_555
O55 Si9 1.660296 1_655
O55 Ti2 1.869115 1_555
O56 S4 1.485201 1_545
O56 Ti2 2.183642 1_555
O57 Si10 1.660296 1_545
O57 Ti3 1.869115 1_555
O58 Si11 1.678032 1_555
O58 Ti3 2.030569 1_555
O59 S5 1.485201 1_655
O59 Ti3 2.183642 1_555
O60 S3 1.492287 1_555
O61 Si6 1.618566 1_455
O62 Si7 1.626255 1_565
O63 Si5 1.618566 1_565
O64 S2 1.492287 1_555
O65 Si4 1.626255 1_455
O66 Si0 1.678019 1_565
O66 Ti4 2.030569 1_555
O67 Si1 1.660310 1_555
O67 Ti4 1.869115 1_555
O68 S0 1.485205 1_555
O68 Ti4 2.183642 1_555
O69 Si2 1.660310 1_555
O69 Ti5 1.869115 1_555
O70 Si3 1.678019 1_455
O70 Ti5 2.030569 1_555
O71 S1 1.485205 1_565
O71 Ti5 2.183642 1_555
