# generated using pymatgen
data_Mg16Si8HO32
_symmetry_space_group_name_H-M   'P 1'
_cell_length_a   5.79138400
_cell_length_b   8.39393700
_cell_length_c   11.64212800
_cell_angle_alpha   90.00000000
_cell_angle_beta   90.00000000
_cell_angle_gamma   90.00000000
_symmetry_Int_Tables_number   1
_chemical_formula_structural   Mg16Si8HO32
_chemical_formula_sum   'Mg16 Si8 H1 O32'
_cell_volume   565.95309221
_cell_formula_units_Z   1
loop_
 _symmetry_equiv_pos_site_id
 _symmetry_equiv_pos_as_xyz
  1  'x, y, z'
loop_
 _atom_site_type_symbol
 _atom_site_label
 _atom_site_symmetry_multiplicity
 _atom_site_fract_x
 _atom_site_fract_y
 _atom_site_fract_z
 _atom_site_occupancy
  Mg  Mg0  1  0.74972200  0.50007400  0.87850400  1
  Mg  Mg1  1  0.25027800  0.50007400  0.12149600  1
  Mg  Mg2  1  0.74972200  0.50007400  0.12149600  1
  Mg  Mg3  1  0.25027800  0.50007400  0.87850400  1
  Mg  Mg4  1  0.00000000  0.25416600  0.75090100  1
  Mg  Mg5  1  0.00000000  0.25416600  0.24909900  1
  Mg  Mg6  1  0.00000000  0.27943600  0.50000000  1
  Mg  Mg7  1  0.50000000  0.70514600  0.50000000  1
  Mg  Mg8  1  0.23935500  0.99704700  0.36946900  1
  Mg  Mg9  1  0.76064500  0.99704700  0.63053100  1
  Mg  Mg10  1  0.23935500  0.99704700  0.63053100  1
  Mg  Mg11  1  0.76064500  0.99704700  0.36946900  1
  Mg  Mg12  1  0.50000000  0.74841800  0.24892100  1
  Mg  Mg13  1  0.50000000  0.74841800  0.75107900  1
  Mg  Mg14  1  0.50000000  0.78058300  0.00000000  1
  Mg  Mg15  1  0.00000000  0.21919800  0.00000000  1
  Si  Si0  1  0.00000000  0.86454900  0.12893800  1
  Si  Si1  1  0.00000000  0.86454900  0.87106200  1
  Si  Si2  1  0.50000000  0.13385800  0.86990100  1
  Si  Si3  1  0.50000000  0.13385800  0.13009900  1
  Si  Si4  1  0.50000000  0.36591400  0.63181500  1
  Si  Si5  1  0.50000000  0.36591400  0.36818500  1
  Si  Si6  1  0.00000000  0.63584100  0.37001500  1
  Si  Si7  1  0.00000000  0.63584100  0.62998500  1
  H  H0  1  0.50000000  0.10967500  0.50000000  1
  O  O0  1  0.26131200  0.24286200  0.12768300  1
  O  O1  1  0.73868800  0.24286200  0.87231700  1
  O  O2  1  0.76090800  0.75667000  0.87260100  1
  O  O3  1  0.23909200  0.75667000  0.12739900  1
  O  O4  1  0.23909200  0.75667000  0.87260100  1
  O  O5  1  0.76090800  0.75667000  0.12739900  1
  O  O6  1  0.73868800  0.24286200  0.12768300  1
  O  O7  1  0.26131200  0.24286200  0.87231700  1
  O  O8  1  0.00000000  0.50818900  0.73917100  1
  O  O9  1  0.00000000  0.50818900  0.26082900  1
  O  O10  1  0.50000000  0.49462400  0.26015400  1
  O  O11  1  0.50000000  0.49462400  0.73984600  1
  O  O12  1  0.00000000  0.03128400  0.50000000  1
  O  O13  1  0.50000000  0.99104200  0.50000000  1
  O  O14  1  0.00000000  0.53628600  0.50000000  1
  O  O15  1  0.50000000  0.46251600  0.50000000  1
  O  O16  1  0.00000000  0.96463500  0.00000000  1
  O  O17  1  0.50000000  0.03460800  0.00000000  1
  O  O18  1  0.00000000  0.46560000  0.00000000  1
  O  O19  1  0.50000000  0.53429100  0.00000000  1
  O  O20  1  0.00000000  0.99401200  0.23761800  1
  O  O21  1  0.00000000  0.99401200  0.76238200  1
  O  O22  1  0.50000000  0.00532000  0.75994100  1
  O  O23  1  0.50000000  0.00532000  0.24005900  1
  O  O24  1  0.75865600  0.74617600  0.37473100  1
  O  O25  1  0.24134400  0.74617600  0.62526900  1
  O  O26  1  0.26230900  0.25450000  0.62704200  1
  O  O27  1  0.73769100  0.25450000  0.37295800  1
  O  O28  1  0.73769100  0.25450000  0.62704200  1
  O  O29  1  0.26230900  0.25450000  0.37295800  1
  O  O30  1  0.24134400  0.74617600  0.37473100  1
  O  O31  1  0.75865600  0.74617600  0.62526900  1
loop_
_geom_bond_atom_site_label_1
_geom_bond_atom_site_label_2
_geom_bond_distance
_geom_bond_site_symmetry_2
Mg0 O19 2.043238 1_556
Mg0 O18 2.045823 1_656
Mg0 O2 2.155920 1_555
Mg0 O1 2.161167 1_555
Mg0 O11 2.167850 1_555
Mg0 O8 2.176437 1_655
Mg1 O19 2.043238 1_555
Mg1 O18 2.045823 1_555
Mg1 O3 2.155920 1_555
Mg1 O0 2.161167 1_555
Mg1 O10 2.167850 1_555
Mg1 O9 2.176437 1_555
Mg2 O19 2.043238 1_555
Mg2 O18 2.045823 1_655
Mg2 O5 2.155920 1_555
Mg2 O6 2.161167 1_555
Mg2 O10 2.167850 1_555
Mg2 O9 2.176437 1_655
Mg3 O19 2.043238 1_556
Mg3 O18 2.045823 1_556
Mg3 O4 2.155920 1_555
Mg3 O7 2.161167 1_555
Mg3 O11 2.167850 1_555
Mg3 O8 2.176437 1_555
Mg4 O1 2.073006 1_455
Mg4 O7 2.073006 1_555
Mg4 O26 2.094537 1_555
Mg4 O28 2.094537 1_455
Mg4 O8 2.136622 1_555
Mg4 O21 2.187803 1_545
Mg5 O0 2.073006 1_555
Mg5 O6 2.073006 1_455
Mg5 O29 2.094537 1_555
Mg5 O27 2.094537 1_455
Mg5 O9 2.136622 1_555
Mg5 O20 2.187803 1_545
Mg6 O12 2.082972 1_555
Mg6 O26 2.130524 1_555
Mg6 O28 2.130524 1_455
Mg6 O29 2.130524 1_555
Mg6 O27 2.130524 1_455
Mg6 O14 2.155983 1_555
Mg7 O15 2.036621 1_555
Mg7 O31 2.118837 1_555
Mg7 O24 2.118837 1_555
Mg7 O25 2.118837 1_555
Mg7 O30 2.118837 1_555
Mg7 O13 2.399793 1_555
Mg8 O20 2.068453 1_555
Mg8 O12 2.076895 1_565
Mg8 O30 2.106718 1_555
Mg8 O23 2.133838 1_565
Mg8 O13 2.142540 1_555
Mg8 O29 2.165510 1_565
Mg9 O21 2.068453 1_655
Mg9 O12 2.076895 1_665
Mg9 O31 2.106718 1_555
Mg9 O22 2.133838 1_565
Mg9 O13 2.142540 1_555
Mg9 O28 2.165510 1_565
Mg10 O21 2.068453 1_555
Mg10 O12 2.076895 1_565
Mg10 O25 2.106718 1_555
Mg10 O22 2.133838 1_565
Mg10 O13 2.142540 1_555
Mg10 O26 2.165510 1_565
Mg11 O20 2.068453 1_655
Mg11 O12 2.076895 1_665
Mg11 O24 2.106718 1_555
Mg11 O23 2.133838 1_565
Mg11 O13 2.142540 1_555
Mg11 O27 2.165510 1_565
Mg12 O5 2.071126 1_555
Mg12 O3 2.071126 1_555
Mg12 O24 2.095142 1_555
Mg12 O30 2.095142 1_555
Mg12 O10 2.134341 1_555
Mg12 O23 2.158886 1_565
Mg13 O2 2.071126 1_555
Mg13 O4 2.071126 1_555
Mg13 O31 2.095142 1_555
Mg13 O25 2.095142 1_555
Mg13 O11 2.134341 1_555
Mg13 O22 2.158886 1_565
Mg14 O19 2.067360 1_555
Mg14 O5 2.126813 1_555
Mg14 O3 2.126813 1_555
Mg14 O2 2.126813 1_554
Mg14 O4 2.126813 1_554
Mg14 O17 2.132270 1_565
Mg15 O18 2.068283 1_555
Mg15 O0 2.130586 1_555
Mg15 O7 2.130586 1_554
Mg15 O1 2.130586 1_454
Mg15 O6 2.130586 1_455
Mg15 O16 2.136786 1_545
H0 O13 0.995798 1_545
O0 Si3 1.657954 1_555
O1 Si2 1.657954 1_555
O2 Si1 1.654577 1_655
O3 Si0 1.654577 1_555
O4 Si1 1.654577 1_555
O5 Si0 1.654577 1_655
O6 Si3 1.657954 1_555
O7 Si2 1.657954 1_555
O8 Si7 1.662516 1_555
O9 Si6 1.662516 1_555
O10 Si5 1.658030 1_555
O11 Si4 1.658030 1_555
O14 Si7 1.728701 1_555
O14 Si6 1.728701 1_555
O15 Si5 1.735664 1_555
O15 Si4 1.735664 1_555
O16 Si0 1.720213 1_555
O16 Si1 1.720213 1_554
O17 Si3 1.728628 1_555
O17 Si2 1.728628 1_554
O20 Si0 1.667881 1_555
O21 Si1 1.667881 1_555
O22 Si2 1.674199 1_555
O23 Si3 1.674199 1_555
O24 Si6 1.677608 1_655
O25 Si7 1.677608 1_555
O26 Si4 1.665115 1_555
O27 Si5 1.665115 1_555
O28 Si4 1.665115 1_555
O29 Si5 1.665115 1_555
O30 Si6 1.677608 1_555
O31 Si7 1.677608 1_655
