# generated using pymatgen
data_Ba2Ni(NO2)6
_symmetry_space_group_name_H-M   'P 1'
_cell_length_a   7.32178242
_cell_length_b   7.32178242
_cell_length_c   7.32178242
_cell_angle_alpha   60.00000000
_cell_angle_beta   60.00000000
_cell_angle_gamma   60.00000000
_symmetry_Int_Tables_number   1
_chemical_formula_structural   Ba2Ni(NO2)6
_chemical_formula_sum   'Ba2 Ni1 N6 O12'
_cell_volume   277.54631078
_cell_formula_units_Z   1
loop_
 _symmetry_equiv_pos_site_id
 _symmetry_equiv_pos_as_xyz
  1  'x, y, z'
loop_
 _atom_site_type_symbol
 _atom_site_label
 _atom_site_symmetry_multiplicity
 _atom_site_fract_x
 _atom_site_fract_y
 _atom_site_fract_z
 _atom_site_occupancy
  Ba  Ba0  1  0.25000000  0.25000000  0.25000000  1
  Ba  Ba1  1  0.75000000  0.75000000  0.75000000  1
  Ni  Ni0  1  0.00000000  0.00000000  0.00000000  1
  N  N0  1  0.81552900  0.81552900  0.18447100  1
  N  N1  1  0.81552900  0.18447100  0.81552900  1
  N  N2  1  0.18447100  0.81552900  0.18447100  1
  N  N3  1  0.18447100  0.18447100  0.81552900  1
  N  N4  1  0.18447100  0.81552900  0.81552900  1
  N  N5  1  0.81552900  0.18447100  0.18447100  1
  O  O0  1  0.33230500  0.66769500  0.00000000  1
  O  O1  1  0.00000000  0.66769500  0.33230500  1
  O  O2  1  0.33230500  0.00000000  0.66769500  1
  O  O3  1  0.66769500  0.33230500  0.00000000  1
  O  O4  1  0.00000000  0.66769500  0.00000000  1
  O  O5  1  0.66769500  0.00000000  0.00000000  1
  O  O6  1  0.00000000  0.00000000  0.33230500  1
  O  O7  1  0.00000000  0.00000000  0.66769500  1
  O  O8  1  0.00000000  0.33230500  0.00000000  1
  O  O9  1  0.66769500  0.00000000  0.33230500  1
  O  O10  1  0.33230500  0.00000000  0.00000000  1
  O  O11  1  0.00000000  0.33230500  0.66769500  1
loop_
_geom_bond_atom_site_label_1
_geom_bond_atom_site_label_2
_geom_bond_distance
_geom_bond_site_symmetry_2
Ba0 O7 2.865069 1_555
Ba0 O10 2.865069 1_555
Ba0 O8 2.865069 1_555
Ba0 O5 2.865069 1_555
Ba0 O6 2.865069 1_555
Ba0 O0 2.865069 1_555
Ba0 O3 2.865069 1_555
Ba0 O4 2.865069 1_555
Ba0 O9 2.865069 1_555
Ba0 O2 2.865069 1_555
Ba0 O11 2.865069 1_555
Ba0 O1 2.865069 1_555
Ba1 O9 2.865069 1_565
Ba1 O4 2.865069 1_656
Ba1 O8 2.865069 1_656
Ba1 O1 2.865069 1_655
Ba1 O7 2.865069 1_665
Ba1 O5 2.865069 1_566
Ba1 O2 2.865069 1_565
Ba1 O10 2.865069 1_566
Ba1 O11 2.865069 1_655
Ba1 O3 2.865069 1_556
Ba1 O0 2.865069 1_556
Ba1 O6 2.865069 1_665
N0 O5 1.730861 1_565
N0 O4 1.730861 1_655
N0 O9 1.730861 1_565
N0 O1 1.730861 1_655
N0 Ni0 1.910117 1_665
N1 O5 1.730861 1_556
N1 O7 1.730861 1_655
N1 O11 1.730861 1_655
N1 O3 1.730861 1_556
N1 Ni0 1.910117 1_656
N2 O0 1.730861 1_555
N2 O1 1.730861 1_555
N2 O6 1.730861 1_565
N2 O10 1.730861 1_565
N2 Ni0 1.910117 1_565
N3 O2 1.730861 1_555
N3 O11 1.730861 1_555
N3 O10 1.730861 1_556
N3 O8 1.730861 1_556
N3 Ni0 1.910117 1_556
N4 O4 1.730861 1_556
N4 O7 1.730861 1_565
N4 O0 1.730861 1_556
N4 O2 1.730861 1_565
N4 Ni0 1.910117 1_566
N5 O3 1.730861 1_555
N5 O9 1.730861 1_555
N5 O6 1.730861 1_655
N5 O8 1.730861 1_655
N5 Ni0 1.910117 1_655
