# generated using pymatgen
data_Na30Ta4Zn20Si9(S3O16)9
_symmetry_space_group_name_H-M   'P 1'
_cell_length_a   17.92654457
_cell_length_b   9.05784178
_cell_length_c   22.31317859
_cell_angle_alpha   89.94294578
_cell_angle_beta   89.27397342
_cell_angle_gamma   120.36448615
_symmetry_Int_Tables_number   1
_chemical_formula_structural   Na30Ta4Zn20Si9(S3O16)9
_chemical_formula_sum   'Na30 Ta4 Zn20 Si9 S27 O144'
_cell_volume   3125.76062463
_cell_formula_units_Z   1
loop_
 _symmetry_equiv_pos_site_id
 _symmetry_equiv_pos_as_xyz
  1  'x, y, z'
loop_
 _atom_site_type_symbol
 _atom_site_label
 _atom_site_symmetry_multiplicity
 _atom_site_fract_x
 _atom_site_fract_y
 _atom_site_fract_z
 _atom_site_occupancy
  Na  Na0  1  0.81109587  0.00471835  0.24278541  1
  Na  Na1  1  0.00244041  0.63101952  0.24427444  1
  Na  Na2  1  0.50132737  0.62885537  0.24322861  1
  Na  Na3  1  0.00121016  0.37436230  0.74206210  1
  Na  Na4  1  0.50102721  0.37429744  0.74303394  1
  Na  Na5  1  0.18404019  0.00954074  0.75282391  1
  Na  Na6  1  0.65631318  0.35024258  0.58138977  1
  Na  Na7  1  0.65905080  0.95873678  0.08431426  1
  Na  Na8  1  0.83127164  0.68879289  0.07580072  1
  Na  Na9  1  0.01167609  0.33934031  0.08100786  1
  Na  Na10  1  0.48046658  0.66145272  0.92295979  1
  Na  Na11  1  0.84862036  0.03418810  0.92276192  1
  Na  Na12  1  0.16618504  0.29679418  0.91211318  1
  Na  Na13  1  0.66610128  0.29880594  0.91076770  1
  Na  Na14  1  0.48013696  0.29831394  0.42223012  1
  Na  Na15  1  0.98363666  0.30233974  0.42414243  1
  Na  Na16  1  0.16639469  0.03495264  0.41171180  1
  Na  Na17  1  0.66525035  0.03449461  0.41118118  1
  Na  Na18  1  0.99211660  0.99169737  0.49731521  1
  Na  Na19  1  0.48291642  0.97467515  0.49610660  1
  Na  Na20  1  0.00052372  0.97613835  0.99521031  1
  Na  Na21  1  0.48298414  0.99162673  0.99661097  1
  Na  Na22  1  0.32790324  0.33429792  0.83066278  1
  Na  Na23  1  0.82685100  0.34308903  0.82721519  1
  Na  Na24  1  0.31971151  0.32143324  0.32737467  1
  Na  Na25  1  0.82244102  0.33721363  0.32993660  1
  Na  Na26  1  0.17268671  0.69073639  0.16532198  1
  Na  Na27  1  0.65938219  0.66115885  0.16277536  1
  Na  Na28  1  0.16482132  0.64491286  0.66077223  1
  Na  Na29  1  0.66700669  0.66898104  0.66602000  1
  Ta  Ta0  1  0.00372263  0.01715607  0.64634707  1
  Ta  Ta1  1  0.50105050  0.00778121  0.64725698  1
  Ta  Ta2  1  0.00686760  0.99718699  0.14671591  1
  Ta  Ta3  1  0.49883218  0.98969436  0.14869551  1
  Zn  Zn0  1  0.00795674  0.00252977  0.34609954  1
  Zn  Zn1  1  0.50138622  0.00096907  0.34551266  1
  Zn  Zn2  1  0.00689320  -0.00016418  0.84577503  1
  Zn  Zn3  1  0.50504189  0.00753189  0.84412616  1
  Zn  Zn4  1  0.33400480  0.34799147  0.67912058  1
  Zn  Zn5  1  0.83167957  0.33694707  0.68179459  1
  Zn  Zn6  1  0.33045651  0.32115889  0.18185007  1
  Zn  Zn7  1  0.83005308  0.31682732  0.17816554  1
  Zn  Zn8  1  0.33927855  0.33315416  0.99261102  1
  Zn  Zn9  1  0.85073381  0.34631320  0.99425654  1
  Zn  Zn10  1  0.33837488  0.34123914  0.49308045  1
  Zn  Zn11  1  0.84282777  0.34623418  0.49209765  1
  Zn  Zn12  1  0.16625876  0.68335676  0.01767652  1
  Zn  Zn13  1  0.66035327  0.66806645  0.02108523  1
  Zn  Zn14  1  0.16052072  0.65096692  0.51957460  1
  Zn  Zn15  1  0.65984603  0.66002435  0.51807411  1
  Zn  Zn16  1  0.17116387  0.68690655  0.31329233  1
  Zn  Zn17  1  0.66569565  0.67279017  0.31426090  1
  Zn  Zn18  1  0.16946987  0.65277863  0.81432035  1
  Zn  Zn19  1  0.67014508  0.65082676  0.81079886  1
  Si  Si0  1  0.15597633  0.00673059  0.25423402  1
  Si  Si1  1  0.65172435  0.00735659  0.25444470  1
  Si  Si2  1  0.15449455  0.30410039  0.75274179  1
  Si  Si3  1  0.65438276  0.30094284  0.75262810  1
  Si  Si4  1  0.48049639  0.34207286  0.58442224  1
  Si  Si5  1  0.98074366  0.34480404  0.58456843  1
  Si  Si6  1  0.47653753  0.61611859  0.08490227  1
  Si  Si7  1  0.98180633  0.62300376  0.08627074  1
  Si  Si8  1  0.83308121  0.03056396  0.08268003  1
  S  S0  1  0.35131703  0.70678433  0.25294493  1
  S  S1  1  0.85356919  0.70907623  0.25138200  1
  S  S2  1  0.00239894  0.29203400  0.25271042  1
  S  S3  1  0.50088197  0.29198012  0.25265197  1
  S  S4  1  -0.00059462  0.71003957  0.75106562  1
  S  S5  1  0.50010328  0.70953890  0.75270260  1
  S  S6  1  0.35244882  0.99497981  0.75202578  1
  S  S7  1  0.85339535  0.99574098  0.75295139  1
  S  S8  1  0.18497340  0.03464338  0.58361185  1
  S  S9  1  0.68548170  0.03523563  0.58250010  1
  S  S10  1  0.33330107  0.63256698  0.58367737  1
  S  S11  1  0.83514888  0.63457071  0.58328810  1
  S  S12  1  0.33367396  0.03506053  0.08389384  1
  S  S13  1  0.18857064  0.33851971  0.08221258  1
  S  S14  1  0.68299754  0.32932914  0.08247689  1
  S  S15  1  0.31374412  0.66946904  0.91673734  1
  S  S16  1  0.81472201  0.66603250  0.91658625  1
  S  S17  1  0.01737186  0.37084229  0.91585282  1
  S  S18  1  0.51809750  0.37094227  0.91637093  1
  S  S19  1  0.16846888  0.96486844  0.91489421  1
  S  S20  1  0.66592046  0.95957151  0.91536799  1
  S  S21  1  0.31347176  0.95805879  0.41724090  1
  S  S22  1  0.81359222  0.95823210  0.41546905  1
  S  S23  1  0.16873928  0.37643063  0.41602267  1
  S  S24  1  0.66859790  0.37501621  0.41741641  1
  S  S25  1  0.01707967  0.66522434  0.41596319  1
  S  S26  1  0.51658876  0.66500258  0.41629700  1
  O  O0  1  0.11367083  0.02710007  0.31603300  1
  O  O1  1  0.60693071  0.02295481  0.31524455  1
  O  O2  1  0.40435886  0.79282761  0.30522651  1
  O  O3  1  0.90686354  0.79512069  0.30371567  1
  O  O4  1  0.49006527  0.19554225  0.30864647  1
  O  O5  1  0.98778098  0.18489412  0.30648585  1
  O  O6  1  0.11302114  0.18678523  0.81280561  1
  O  O7  1  0.61113710  0.19534704  0.81419389  1
  O  O8  1  0.48848079  0.78421326  0.80847816  1
  O  O9  1  0.98602956  0.78467366  0.80586835  1
  O  O10  1  0.40432003  0.01447220  0.80482431  1
  O  O11  1  0.90400234  0.01507092  0.80736376  1
  O  O12  1  0.39790785  0.97496528  0.69652776  1
  O  O13  1  0.90137478  0.97642926  0.69871320  1
  O  O14  1  0.08392870  0.18549812  0.69636137  1
  O  O15  1  0.58367188  0.18130077  0.69535296  1
  O  O16  1  0.00693520  0.81855936  0.69732669  1
  O  O17  1  0.50396002  0.81778348  0.69933378  1
  O  O18  1  0.39884234  0.82146565  0.19717205  1
  O  O19  1  0.89824661  0.82160165  0.19518373  1
  O  O20  1  0.00671132  0.19859379  0.19725141  1
  O  O21  1  0.50544024  0.19206377  0.19941963  1
  O  O22  1  0.08489411  0.98626198  0.19870842  1
  O  O23  1  0.58390747  0.98399003  0.19594396  1
  O  O24  1  0.43582115  0.35649395  0.64554690  1
  O  O25  1  0.93384173  0.35499208  0.64534658  1
  O  O26  1  0.23329437  0.11598110  0.63808146  1
  O  O27  1  0.73531578  0.11873047  0.63539410  1
  O  O28  1  0.31813214  0.52874615  0.63774632  1
  O  O29  1  0.81680927  0.52258351  0.63571880  1
  O  O30  1  0.43224529  0.51202458  0.14585254  1
  O  O31  1  0.93853481  0.51323065  0.14724213  1
  O  O32  1  0.31899138  0.11026537  0.13717151  1
  O  O33  1  0.80957439  0.10544620  0.14090402  1
  O  O34  1  0.23888638  0.35671796  0.13473355  1
  O  O35  1  0.73640018  0.35639565  0.13519040  1
  O  O36  1  0.21927971  0.29851257  0.02579777  1
  O  O37  1  0.71563726  0.28725891  0.02765050  1
  O  O38  1  0.42442530  0.55322561  0.02263762  1
  O  O39  1  0.91567919  0.56316943  0.03045115  1
  O  O40  1  0.35085017  0.13727404  0.02837806  1
  O  O41  1  0.85654572  0.14987649  0.02248859  1
  O  O42  1  0.21883986  0.14226593  0.52878981  1
  O  O43  1  0.71720092  0.14381776  0.52735191  1
  O  O44  1  0.35130262  0.56277358  0.52920374  1
  O  O45  1  0.85101537  0.56365335  0.52803648  1
  O  O46  1  0.42776077  0.30205634  0.52260268  1
  O  O47  1  0.92700010  0.29769633  0.52254944  1
  O  O48  1  0.27179453  0.68655824  0.97151328  1
  O  O49  1  0.77509427  0.68996706  0.97220215  1
  O  O50  1  0.06957064  0.45152865  0.96990679  1
  O  O51  1  0.57462370  0.45751240  0.96810558  1
  O  O52  1  0.15922985  0.86072527  0.96844993  1
  O  O53  1  0.65659051  0.86392299  0.97201104  1
  O  O54  1  0.27226055  0.85608062  0.47196979  1
  O  O55  1  0.76973908  0.85277018  0.46925629  1
  O  O56  1  0.15715019  0.45778483  0.47001434  1
  O  O57  1  0.65894193  0.45422975  0.47327697  1
  O  O58  1  0.07336599  0.69188224  0.46783548  1
  O  O59  1  0.57380059  0.69300137  0.46782114  1
  O  O60  1  0.05557047  0.63913019  0.35985519  1
  O  O61  1  0.55559713  0.63977109  0.36005883  1
  O  O62  1  0.26283048  0.87738681  0.36281407  1
  O  O63  1  0.76420871  0.87874992  0.35961685  1
  O  O64  1  0.17812633  0.47520467  0.36085832  1
  O  O65  1  0.67787705  0.47848079  0.36345205  1
  O  O66  1  0.05997592  0.47005752  0.86031340  1
  O  O67  1  0.55655170  0.47351802  0.86002306  1
  O  O68  1  0.17733812  0.88754842  0.85844349  1
  O  O69  1  0.67706344  0.87244124  0.86296366  1
  O  O70  1  0.26279304  0.64971035  0.86234893  1
  O  O71  1  0.76007519  0.64471253  0.86393851  1
  O  O72  1  0.00807937  0.82030226  0.41273986  1
  O  O73  1  0.50850165  0.82072330  0.41310727  1
  O  O74  1  0.40401834  0.98771239  0.41205065  1
  O  O75  1  0.90351429  0.98763132  0.41150200  1
  O  O76  1  0.08636781  0.20084374  0.41482734  1
  O  O77  1  0.58659778  0.20146593  0.41566970  1
  O  O78  1  0.00761530  0.19487108  0.91321182  1
  O  O79  1  0.50959836  0.19819210  0.91311719  1
  O  O80  1  0.08899222  0.98237862  0.91465552  1
  O  O81  1  0.58476273  0.97076173  0.91319532  1
  O  O82  1  0.40372256  0.82054828  0.91192234  1
  O  O83  1  0.90169096  0.82614414  0.91053571  1
  O  O84  1  0.49172486  0.15937081  0.59383047  1
  O  O85  1  0.98951059  0.16004353  0.59419059  1
  O  O86  1  0.09265527  0.01045914  0.59156560  1
  O  O87  1  0.59340926  0.01333014  0.59104944  1
  O  O88  1  0.41664822  0.80764527  0.59231691  1
  O  O89  1  0.91588660  0.80798888  0.59224601  1
  O  O90  1  0.48979897  0.82307539  0.09420344  1
  O  O91  1  0.99525204  0.82259586  0.09523856  1
  O  O92  1  0.41644952  0.02515946  0.09221889  1
  O  O93  1  0.92431321  0.02360360  0.09422609  1
  O  O94  1  0.09567917  0.17893620  0.09096608  1
  O  O95  1  0.59273669  0.16988022  0.09246670  1
  O  O96  1  0.34678055  0.15103694  0.74576151  1
  O  O97  1  0.84975223  0.15321230  0.74636494  1
  O  O98  1  0.24513959  0.30818737  0.74128159  1
  O  O99  1  0.74700022  0.31787369  0.74135396  1
  O  O100  1  0.42500611  0.53472275  0.74810938  1
  O  O101  1  0.92699883  0.53364432  0.74639763  1
  O  O102  1  0.34840321  0.54355253  0.24574399  1
  O  O103  1  0.84713783  0.54229578  0.24471123  1
  O  O104  1  0.42669290  0.31796856  0.24779346  1
  O  O105  1  0.92582089  0.31303314  0.24885541  1
  O  O106  1  0.24805127  0.17599502  0.24248691  1
  O  O107  1  0.74696166  0.17421912  0.24595950  1
  O  O108  1  0.32033296  0.50986951  0.91894312  1
  O  O109  1  0.82055148  0.50813698  0.91997473  1
  O  O110  1  0.43123395  0.35539574  0.92215768  1
  O  O111  1  0.92925317  0.34897726  0.91844959  1
  O  O112  1  0.24541057  0.14242899  0.91961155  1
  O  O113  1  0.74264147  0.13676134  0.91798849  1
  O  O114  1  0.32048315  0.13128136  0.42003788  1
  O  O115  1  0.81923208  0.13000374  0.41853406  1
  O  O116  1  0.24358439  0.34721704  0.42115408  1
  O  O117  1  0.74367185  0.34662966  0.42084977  1
  O  O118  1  0.43047099  0.50696657  0.42244866  1
  O  O119  1  0.93005426  0.50668071  0.42160659  1
  O  O120  1  0.17202220  0.48077207  0.07627770  1
  O  O121  1  0.67119316  0.47692216  0.07571886  1
  O  O122  1  0.07543442  0.63814607  0.07761989  1
  O  O123  1  0.57706926  0.66497304  0.08114338  1
  O  O124  1  0.26187220  0.85769219  0.07799063  1
  O  O125  1  0.75530171  0.83308040  0.07653801  1
  O  O126  1  0.17325892  0.86391855  0.57721886  1
  O  O127  1  0.67279501  0.86347346  0.57576051  1
  O  O128  1  0.26269758  0.66789406  0.57732904  1
  O  O129  1  0.76096295  0.66193331  0.57717276  1
  O  O130  1  0.07907529  0.50233807  0.58076027  1
  O  O131  1  0.58202967  0.49433936  0.58040860  1
  O  O132  1  0.15045041  0.82008342  0.25054582  1
  O  O133  1  0.65366542  0.82602224  0.25077481  1
  O  O134  1  0.26636759  0.69185199  0.25256886  1
  O  O135  1  0.76866660  0.69862753  0.25272602  1
  O  O136  1  0.08230092  0.46062633  0.25308693  1
  O  O137  1  0.58245263  0.46073447  0.25114375  1
  O  O138  1  0.15056148  0.47992619  0.75142876  1
  O  O139  1  0.64882823  0.47669688  0.74855786  1
  O  O140  1  0.08273697  0.70971344  0.75171400  1
  O  O141  1  0.58097107  0.70336841  0.75118650  1
  O  O142  1  0.26484095  0.84326446  0.75263274  1
  O  O143  1  0.76742975  0.84087769  0.75293216  1
loop_
_geom_bond_atom_site_label_1
_geom_bond_atom_site_label_2
_geom_bond_distance
_geom_bond_site_symmetry_2
Na0 O107 2.338106 1_555
Na0 O133 2.446389 1_545
Na0 O33 2.454314 1_555
Na0 O135 2.485378 1_545
Na0 O105 2.499642 1_555
Na0 O63 2.788038 1_545
Na1 O132 2.325599 1_555
Na1 O31 2.443384 1_455
Na1 O103 2.476716 1_455
Na1 O105 2.487810 1_455
Na1 O136 2.590495 1_555
Na1 O60 2.748732 1_555
Na2 O133 2.399394 1_555
Na2 O104 2.432500 1_555
Na2 O102 2.443355 1_555
Na2 O30 2.474321 1_555
Na2 O137 2.590381 1_555
Na2 O61 2.778394 1_555
Na2 O23 2.965042 1_555
Na3 O138 2.356390 1_555
Na3 O101 2.407950 1_455
Na3 O97 2.426538 1_455
Na3 O25 2.449277 1_455
Na3 O140 2.632524 1_555
Na3 O66 2.823996 1_555
Na3 O14 2.948727 1_555
Na4 O139 2.328007 1_555
Na4 O100 2.445412 1_555
Na4 O24 2.449211 1_555
Na4 O96 2.466027 1_555
Na4 O141 2.580771 1_555
Na4 O67 2.789043 1_555
Na5 O98 2.362103 1_555
Na5 O140 2.385194 1_545
Na5 O96 2.527112 1_555
Na5 O142 2.563565 1_545
Na5 O68 2.577387 1_545
Na5 O26 2.709478 1_555
Na5 O6 2.831451 1_555
Na6 O131 2.288055 1_555
Na6 O129 2.477759 1_555
Na6 O84 2.567618 1_555
Na6 O57 2.580019 1_555
Na6 O87 2.672893 1_555
Na6 O29 2.781325 1_555
Na6 O43 2.859317 1_555
Na6 O15 2.897820 1_555
Na7 O123 2.300987 1_555
Na7 O125 2.506188 1_555
Na7 O90 2.641513 1_555
Na7 O53 2.643394 1_554
Na7 O33 2.665701 1_565
Na7 O95 2.719878 1_565
Na7 O23 2.880740 1_555
Na7 O37 2.896660 1_565
Na8 O125 2.315598 1_555
Na8 O39 2.512461 1_555
Na8 O121 2.519975 1_555
Na8 O49 2.535277 1_554
Na8 O91 2.594169 1_555
Na8 O93 2.655940 1_565
Na8 O35 2.910592 1_555
Na8 O19 2.934582 1_555
Na9 O122 2.346768 1_555
Na9 O93 2.485383 1_455
Na9 O120 2.486749 1_555
Na9 O94 2.578342 1_555
Na9 O50 2.668113 1_554
Na9 O41 2.766822 1_455
Na9 O20 2.869433 1_555
Na9 O31 2.903037 1_455
Na10 O38 2.420823 1_556
Na10 O110 2.447722 1_555
Na10 O82 2.458099 1_555
Na10 O81 2.466810 1_555
Na10 O108 2.481083 1_555
Na10 O8 2.757863 1_555
Na11 O41 2.435568 1_556
Na11 O111 2.461246 1_555
Na11 O78 2.465269 1_655
Na11 O113 2.504675 1_555
Na11 O83 2.517452 1_545
Na11 O11 2.784900 1_555
Na11 O49 2.911543 1_545
Na11 O69 2.989583 1_545
Na12 O6 2.430860 1_555
Na12 O108 2.450210 1_555
Na12 O112 2.452199 1_555
Na12 O80 2.458087 1_545
Na12 O78 2.505663 1_555
Na12 O36 2.717927 1_556
Na13 O7 2.369982 1_555
Na13 O109 2.451738 1_555
Na13 O113 2.470668 1_555
Na13 O79 2.472989 1_555
Na13 O81 2.564276 1_545
Na13 O37 2.784484 1_556
Na13 O71 2.891218 1_555
Na13 O51 2.954041 1_555
Na14 O46 2.424399 1_555
Na14 O74 2.440615 1_545
Na14 O118 2.462867 1_555
Na14 O114 2.471566 1_555
Na14 O77 2.473663 1_555
Na14 O4 2.735370 1_555
Na15 O47 2.398784 1_555
Na15 O76 2.445870 1_655
Na15 O75 2.478076 1_545
Na15 O119 2.479965 1_555
Na15 O115 2.548912 1_555
Na15 O5 2.847785 1_555
Na15 O56 2.891560 1_655
Na15 O60 2.998997 1_655
Na16 O0 2.332304 1_555
Na16 O114 2.450027 1_555
Na16 O116 2.451716 1_555
Na16 O72 2.500973 1_545
Na16 O76 2.549084 1_555
Na16 O42 2.792251 1_555
Na16 O62 2.943754 1_545
Na16 O58 2.950572 1_545
Na17 O1 2.373394 1_555
Na17 O115 2.447939 1_555
Na17 O117 2.450894 1_555
Na17 O73 2.478509 1_545
Na17 O77 2.537323 1_555
Na17 O43 2.775067 1_555
Na17 O59 2.943749 1_545
Na17 O63 2.990404 1_545
Na18 O75 2.491698 1_555
Na18 O72 2.548460 1_655
Na18 O76 2.551368 1_665
Na18 O89 2.596888 1_555
Na18 O85 2.660054 1_565
Na18 O86 2.736245 1_665
Na19 O74 2.401612 1_555
Na19 O73 2.492985 1_555
Na19 O88 2.533892 1_555
Na19 O77 2.635109 1_565
Na19 O84 2.706900 1_565
Na19 O87 2.817906 1_565
Na20 O80 2.363489 1_555
Na20 O83 2.492172 1_455
Na20 O91 2.603909 1_456
Na20 O78 2.649783 1_565
Na20 O93 2.729800 1_466
Na20 O94 2.789525 1_566
Na21 O82 2.416381 1_555
Na21 O79 2.503449 1_565
Na21 O92 2.523684 1_566
Na21 O81 2.663125 1_555
Na21 O90 2.697479 1_556
Na21 O95 2.820366 1_566
Na22 O98 2.440475 1_555
Na22 O100 2.536948 1_555
Na22 O112 2.542995 1_555
Na22 O108 2.577847 1_555
Na22 O96 2.648904 1_555
Na22 O110 2.715583 1_555
Na23 O99 2.347654 1_555
Na23 O101 2.496615 1_555
Na23 O109 2.588927 1_555
Na23 O113 2.633760 1_555
Na23 O97 2.661253 1_555
Na23 O111 2.740955 1_555
Na24 O106 2.308478 1_555
Na24 O116 2.558592 1_555
Na24 O102 2.559840 1_555
Na24 O104 2.608978 1_555
Na24 O114 2.694340 1_555
Na24 O118 2.829714 1_555
Na25 O107 2.360460 1_555
Na25 O117 2.483094 1_555
Na25 O103 2.530441 1_555
Na25 O105 2.661165 1_555
Na25 O115 2.704559 1_555
Na25 O119 2.715532 1_555
Na26 O132 2.367506 1_555
Na26 O124 2.472054 1_555
Na26 O122 2.518841 1_555
Na26 O134 2.583794 1_555
Na26 O136 2.702186 1_555
Na26 O120 2.747710 1_555
Na27 O123 2.369773 1_555
Na27 O133 2.500289 1_555
Na27 O125 2.507469 1_555
Na27 O137 2.545255 1_555
Na27 O121 2.637473 1_555
Na27 O135 2.722208 1_555
Na28 O130 2.298941 1_555
Na28 O138 2.446460 1_555
Na28 O128 2.477032 1_555
Na28 O126 2.667569 1_555
Na28 O140 2.725315 1_555
Na28 O142 2.736367 1_555
Na29 O139 2.436395 1_555
Na29 O131 2.472960 1_555
Na29 O141 2.549437 1_555
Na29 O143 2.585855 1_555
Na29 O129 2.606814 1_555
Na29 O127 2.640685 1_555
O0 Si0 1.620531 1_555
O0 Zn0 1.905795 1_555
O1 Si1 1.610187 1_555
O1 Zn1 1.913650 1_555
O2 S0 1.467354 1_555
O2 Zn1 2.028675 1_565
O3 S1 1.470059 1_555
O3 Zn0 2.076767 1_665
O4 S3 1.477199 1_555
O4 Zn1 2.046194 1_555
O5 S2 1.477439 1_655
O5 Zn0 2.061514 1_655
O6 Si2 1.628277 1_555
O6 Zn2 1.932142 1_555
O7 Si3 1.619787 1_555
O7 Zn3 1.910986 1_555
O8 S5 1.478969 1_555
O8 Zn3 2.052936 1_565
O9 S4 1.472378 1_655
O9 Zn2 2.001492 1_665
O10 S6 1.464908 1_545
O10 Zn3 2.046445 1_555
O11 S7 1.481723 1_545
O11 Zn2 2.110185 1_655
O12 S6 1.534496 1_555
O12 Ta1 2.026812 1_565
O13 S7 1.536612 1_555
O13 Ta0 2.031795 1_665
O14 Si2 1.733796 1_555
O14 Ta0 1.861538 1_555
O15 Si3 1.751994 1_555
O15 Ta1 1.872388 1_555
O16 S4 1.510509 1_555
O16 Ta0 2.153015 1_565
O17 S5 1.520267 1_555
O17 Ta1 2.098333 1_565
O18 S0 1.558658 1_555
O18 Ta3 1.972583 1_555
O19 S1 1.549010 1_555
O19 Ta2 2.074340 1_655
O20 S2 1.522973 1_555
O20 Ta2 2.146812 1_545
O21 S3 1.520206 1_555
O21 Ta3 2.107852 1_545
O22 Si0 1.730529 1_565
O22 Ta2 1.868954 1_555
O23 Si1 1.734160 1_565
O23 Ta3 1.886901 1_555
O24 Si4 1.611546 1_555
O24 Zn4 1.929162 1_555
O25 Si5 1.613813 1_555
O25 Zn5 1.923944 1_555
O26 S8 1.467506 1_555
O26 Zn4 2.173539 1_555
O27 S9 1.452045 1_555
O27 Zn5 2.135486 1_555
O28 S10 1.464480 1_555
O28 Zn4 2.021994 1_555
O29 S11 1.468471 1_555
O29 Zn5 2.100485 1_555
O30 Si6 1.606933 1_555
O30 Zn6 1.932456 1_555
O31 Si7 1.622351 1_555
O31 Zn7 1.971970 1_555
O32 S12 1.456532 1_555
O32 Zn6 2.072961 1_555
O33 Si8 1.613163 1_555
O33 Zn7 1.947364 1_555
O34 S13 1.446023 1_555
O34 Zn6 2.116896 1_555
O35 S14 1.466923 1_555
O35 Zn7 2.124859 1_555
O36 S13 1.484578 1_555
O36 Zn8 2.133323 1_554
O37 S14 1.480665 1_555
O37 Zn9 2.313073 1_554
O38 Si6 1.619843 1_555
O38 Zn8 1.924768 1_554
O39 Si7 1.624656 1_555
O39 Zn9 1.892342 1_554
O40 S12 1.478607 1_555
O40 Zn8 2.049731 1_554
O41 Si8 1.634594 1_555
O41 Zn9 1.939180 1_554
O42 S8 1.481786 1_555
O42 Zn10 2.127030 1_555
O43 S9 1.489733 1_555
O43 Zn11 2.197700 1_555
O44 S10 1.476150 1_555
O44 Zn10 2.065849 1_555
O45 S11 1.480144 1_555
O45 Zn11 2.063209 1_555
O46 Si4 1.617230 1_555
O46 Zn10 1.930999 1_555
O47 Si5 1.626236 1_555
O47 Zn11 1.904703 1_555
O48 S15 1.475834 1_555
O48 Zn12 2.129832 1_556
O49 S16 1.491828 1_555
O49 Zn13 2.233859 1_556
O50 S17 1.484392 1_555
O50 Zn12 2.218427 1_556
O51 S18 1.484039 1_555
O51 Zn13 2.117523 1_556
O52 S19 1.476508 1_555
O52 Zn12 2.002025 1_556
O53 S20 1.490618 1_555
O53 Zn13 2.114183 1_556
O54 S21 1.474876 1_555
O54 Zn14 2.184527 1_555
O55 S22 1.478345 1_555
O55 Zn15 2.140123 1_555
O56 S23 1.479100 1_555
O56 Zn14 2.046228 1_555
O57 S24 1.490044 1_555
O57 Zn15 2.108951 1_555
O58 S25 1.483211 1_555
O58 Zn14 2.131063 1_555
O59 S26 1.485068 1_555
O59 Zn15 2.057868 1_555
O60 S25 1.497640 1_555
O60 Zn16 2.144443 1_555
O61 S26 1.501930 1_555
O61 Zn17 2.093001 1_555
O62 S21 1.480538 1_555
O62 Zn16 2.020286 1_555
O63 S22 1.496840 1_555
O63 Zn17 2.083628 1_555
O64 S23 1.477908 1_555
O64 Zn16 2.249523 1_555
O65 S24 1.480175 1_555
O65 Zn17 2.177363 1_555
O66 S17 1.485456 1_555
O66 Zn18 2.075185 1_555
O67 S18 1.499147 1_555
O67 Zn19 2.136772 1_555
O68 S19 1.487149 1_555
O68 Zn18 2.283784 1_555
O69 S20 1.478289 1_555
O69 Zn19 2.270739 1_555
O70 S15 1.484021 1_555
O70 Zn18 2.010083 1_555
O71 S16 1.488399 1_555
O71 Zn19 2.036307 1_555
O72 S25 1.494499 1_555
O72 Zn0 2.221340 1_565
O73 S26 1.490762 1_555
O73 Zn1 2.273128 1_565
O74 S21 1.508207 1_555
O74 Zn1 2.233252 1_565
O75 S22 1.496536 1_555
O75 Zn0 2.308306 1_665
O76 S23 1.528860 1_555
O76 Zn0 2.249808 1_555
O77 S24 1.516205 1_555
O77 Zn1 2.311642 1_555
O78 S17 1.514347 1_555
O78 Zn2 2.316876 1_555
O79 S18 1.495456 1_555
O79 Zn3 2.285770 1_555
O80 S19 1.511198 1_555
O80 Zn2 2.201220 1_565
O81 S20 1.510019 1_555
O81 Zn3 2.250438 1_565
O82 S15 1.499901 1_555
O82 Zn3 2.295887 1_565
O83 S16 1.503500 1_555
O83 Zn2 2.246475 1_665
O84 Si4 1.777747 1_555
O84 Ta1 1.888990 1_555
O85 Si5 1.771313 1_555
O85 Ta0 1.852635 1_655
O86 S8 1.563423 1_555
O86 Ta0 2.021880 1_555
O87 S9 1.568723 1_555
O87 Ta1 2.044466 1_555
O88 S10 1.548178 1_555
O88 Ta1 2.087286 1_565
O89 S11 1.520405 1_555
O89 Ta0 2.136073 1_665
O90 Si6 1.779079 1_555
O90 Ta3 1.882522 1_555
O91 Si7 1.711121 1_555
O91 Ta2 1.881580 1_655
O92 S12 1.544649 1_555
O92 Ta3 2.097204 1_545
O93 Si8 1.691158 1_555
O93 Ta2 2.005123 1_645
O94 S13 1.567867 1_555
O94 Ta2 2.021941 1_545
O95 S14 1.543153 1_555
O95 Ta3 2.058248 1_545
O96 S6 1.474157 1_545
O96 Zn4 2.421270 1_555
O97 S7 1.467768 1_545
O97 Zn5 2.345771 1_555
O98 Si2 1.623535 1_555
O98 Zn4 1.988446 1_555
O99 Si3 1.604790 1_555
O99 Zn5 1.945149 1_555
O100 S5 1.476095 1_555
O100 Zn4 2.273968 1_555
O101 S4 1.468178 1_655
O101 Zn5 2.271933 1_555
O102 S0 1.461915 1_555
O102 Zn6 2.357123 1_555
O103 S1 1.463685 1_555
O103 Zn7 2.419625 1_555
O104 S3 1.468352 1_555
O104 Zn6 2.292768 1_555
O105 S2 1.481569 1_655
O105 Zn7 2.358946 1_555
O106 Si0 1.604220 1_555
O106 Zn6 1.929715 1_555
O107 Si1 1.617859 1_555
O107 Zn7 2.041889 1_555
O108 S15 1.509585 1_555
O108 Zn8 2.436789 1_555
O109 S16 1.487674 1_555
O109 Zn9 2.451147 1_555
O110 S18 1.494804 1_555
O110 Zn8 2.197089 1_555
O111 S17 1.489726 1_655
O111 Zn9 2.179050 1_555
O112 S19 1.503826 1_545
O112 Zn8 2.367545 1_555
O113 S20 1.497149 1_545
O113 Zn9 2.573937 1_555
O114 S21 1.510808 1_545
O114 Zn10 2.403875 1_555
O115 S22 1.508978 1_545
O115 Zn11 2.428107 1_555
O116 S23 1.498699 1_555
O116 Zn10 2.372366 1_555
O117 S24 1.495199 1_555
O117 Zn11 2.401041 1_555
O118 S26 1.487037 1_555
O118 Zn10 2.210588 1_555
O119 S25 1.497199 1_655
O119 Zn11 2.160263 1_555
O120 S13 1.467267 1_555
O120 Zn12 2.297369 1_555
O121 S14 1.463273 1_555
O121 Zn13 2.205306 1_555
O122 Si7 1.622403 1_455
O122 Zn12 1.969071 1_555
O123 Si6 1.624980 1_555
O123 Zn13 1.983074 1_555
O124 S12 1.472843 1_565
O124 Zn12 2.137502 1_555
O125 Si8 1.626776 1_565
O125 Zn13 2.036457 1_555
O126 S8 1.459000 1_565
O126 Zn14 2.234768 1_555
O127 S9 1.462342 1_565
O127 Zn15 2.164821 1_555
O128 S10 1.462293 1_555
O128 Zn14 2.194436 1_555
O129 S11 1.478662 1_555
O129 Zn15 2.248098 1_555
O130 Si5 1.613566 1_455
O130 Zn14 1.940782 1_555
O131 Si4 1.637317 1_555
O131 Zn15 1.990702 1_555
O132 Si0 1.644978 1_565
O132 Zn16 2.003970 1_555
O133 Si1 1.662436 1_565
O133 Zn17 2.070279 1_555
O134 S0 1.459289 1_555
O134 Zn16 2.148156 1_555
O135 S1 1.476339 1_555
O135 Zn17 2.201313 1_555
O136 S2 1.473994 1_555
O136 Zn16 2.302605 1_555
O137 S3 1.488207 1_555
O137 Zn17 2.249546 1_555
O138 Si2 1.629630 1_555
O138 Zn18 2.003844 1_555
O139 Si3 1.647020 1_555
O139 Zn19 1.992719 1_555
O140 S4 1.495596 1_555
O140 Zn18 2.345025 1_555
O141 S5 1.478688 1_555
O141 Zn19 2.317976 1_555
O142 S6 1.473979 1_555
O142 Zn18 2.178967 1_555
O143 S7 1.468699 1_555
O143 Zn19 2.139005 1_555
