# generated using pymatgen
data_MgMnCo3O8
_symmetry_space_group_name_H-M   'P 1'
_cell_length_a   5.86135011
_cell_length_b   5.88683990
_cell_length_c   5.97455303
_cell_angle_alpha   59.43474680
_cell_angle_beta   121.18427568
_cell_angle_gamma   119.13894678
_symmetry_Int_Tables_number   1
_chemical_formula_structural   MgMnCo3O8
_chemical_formula_sum   'Mg1 Mn1 Co3 O8'
_cell_volume   144.69142461
_cell_formula_units_Z   1
loop_
 _symmetry_equiv_pos_site_id
 _symmetry_equiv_pos_as_xyz
  1  'x, y, z'
loop_
 _atom_site_type_symbol
 _atom_site_label
 _atom_site_symmetry_multiplicity
 _atom_site_fract_x
 _atom_site_fract_y
 _atom_site_fract_z
 _atom_site_occupancy
  Mg  Mg0  1  0.88359500  0.13238300  0.61943400  1
  Mn  Mn0  1  0.49662000  0.50325800  0.49264800  1
  Co  Co0  1  0.49826000  0.50696100  0.99528000  1
  Co  Co1  1  0.50398400  0.99359100  0.00268000  1
  Co  Co2  1  0.00446300  0.49960200  0.00179500  1
  O  O0  1  0.73761100  0.71498000  0.75118600  1
  O  O1  1  0.74932900  0.27200100  0.76159800  1
  O  O2  1  0.23849400  0.71413200  0.79642900  1
  O  O3  1  0.29165300  0.26413800  0.75068100  1
  O  O4  1  0.70725500  0.73521500  0.25135500  1
  O  O5  1  0.75325500  0.27841000  0.20781000  1
  O  O6  1  0.24424600  0.71896000  0.23025000  1
  O  O7  1  0.26028300  0.29732000  0.24302100  1
loop_
_geom_bond_atom_site_label_1
_geom_bond_atom_site_label_2
_geom_bond_distance
_geom_bond_site_symmetry_2
Mg0 O3 1.951091 1_655
Mg0 O5 1.978493 1_555
Mg0 O1 2.012071 1_555
Mg0 O0 2.018003 1_545
Mn0 O6 1.913478 1_555
Mn0 O4 1.914788 1_555
Mn0 O7 1.917516 1_555
Mn0 O3 1.966076 1_555
Mn0 O1 1.975727 1_555
Mn0 O0 1.979551 1_555
Co0 O2 1.917963 1_555
Co0 O5 1.977851 1_556
Co0 O4 2.047871 1_556
Co0 O0 2.055227 1_555
Co0 O3 2.061923 1_555
Co0 O7 2.064791 1_556
Co1 O4 1.890443 1_555
Co1 O3 1.975703 1_564
Co1 O2 2.056530 1_554
Co1 O1 2.068241 1_564
Co1 O6 2.071504 1_555
Co1 O5 2.073119 1_565
Co2 O2 1.860641 1_554
Co2 O7 1.870551 1_555
Co2 O6 1.882646 1_555
Co2 O5 1.938599 1_455
Co2 O0 1.967525 1_454
Co2 O1 1.967941 1_454
