# generated using pymatgen
data_Li2FeP2O7
_symmetry_space_group_name_H-M   'P 1'
_cell_length_a   13.61559800
_cell_length_b   5.11440700
_cell_length_c   8.02845483
_cell_angle_alpha   87.59991282
_cell_angle_beta   90.00000000
_cell_angle_gamma   90.00000000
_symmetry_Int_Tables_number   1
_chemical_formula_structural   Li2FeP2O7
_chemical_formula_sum   'Li8 Fe4 P8 O28'
_cell_volume   558.57671758
_cell_formula_units_Z   4
loop_
 _symmetry_equiv_pos_site_id
 _symmetry_equiv_pos_as_xyz
  1  'x, y, z'
loop_
 _atom_site_type_symbol
 _atom_site_label
 _atom_site_symmetry_multiplicity
 _atom_site_fract_x
 _atom_site_fract_y
 _atom_site_fract_z
 _atom_site_occupancy
  Li  Li0  1  0.10312600  0.16515300  0.86470100  1
  Li  Li1  1  0.89687400  0.83484700  0.13529900  1
  Li  Li2  1  0.30567300  0.25181800  0.16643500  1
  Li  Li3  1  0.80567300  0.24818200  0.33356500  1
  Li  Li4  1  0.39687400  0.66515300  0.36470100  1
  Li  Li5  1  0.69432700  0.74818200  0.83356500  1
  Li  Li6  1  0.19432700  0.75181800  0.66643500  1
  Li  Li7  1  0.60312600  0.33484700  0.63529900  1
  Fe  Fe0  1  0.16106800  0.78985400  0.23822700  1
  Fe  Fe1  1  0.66106800  0.71014600  0.26177300  1
  Fe  Fe2  1  0.33893200  0.28985400  0.73822700  1
  Fe  Fe3  1  0.83893200  0.21014600  0.76177300  1
  P  P0  1  0.82214500  0.73898100  0.53325600  1
  P  P1  1  0.17785500  0.26101900  0.46674400  1
  P  P2  1  0.52941700  0.19781000  0.27683500  1
  P  P3  1  0.02941700  0.30219000  0.22316500  1
  P  P4  1  0.32214500  0.76101900  0.96674400  1
  P  P5  1  0.97058300  0.69781000  0.77683500  1
  P  P6  1  0.67785500  0.23898100  0.03325600  1
  P  P7  1  0.47058300  0.80219000  0.72316500  1
  O  O0  1  0.93749600  0.72307400  0.57823000  1
  O  O1  1  0.10517100  0.14457400  0.12406600  1
  O  O2  1  0.56250400  0.22307400  0.07823000  1
  O  O3  1  0.70590400  0.53004700  0.04661600  1
  O  O4  1  0.29409600  0.46995300  0.95338400  1
  O  O5  1  0.43749600  0.77692600  0.92177000  1
  O  O6  1  0.89482900  0.85542600  0.87593400  1
  O  O7  1  0.26834300  0.94143900  0.83943800  1
  O  O8  1  0.69056200  0.14801400  0.85407300  1
  O  O9  1  0.96418500  0.39979700  0.81997100  1
  O  O10  1  0.07261700  0.81126700  0.78113200  1
  O  O11  1  0.57261700  0.68873300  0.71886800  1
  O  O12  1  0.46418500  0.10020300  0.68002900  1
  O  O13  1  0.30943800  0.85198600  0.14592700  1
  O  O14  1  0.19056200  0.35198600  0.64592700  1
  O  O15  1  0.39482900  0.64457400  0.62406600  1
  O  O16  1  0.76834300  0.55856100  0.66056200  1
  O  O17  1  0.79409600  0.03004700  0.54661600  1
  O  O18  1  0.20590400  0.96995300  0.45338400  1
  O  O19  1  0.06250400  0.27692600  0.42177000  1
  O  O20  1  0.60517100  0.35542600  0.37593400  1
  O  O21  1  0.80943800  0.64801400  0.35407300  1
  O  O22  1  0.23165700  0.44143900  0.33943800  1
  O  O23  1  0.53581500  0.89979700  0.31997100  1
  O  O24  1  0.42738300  0.31126700  0.28113200  1
  O  O25  1  0.92738300  0.18873300  0.21886800  1
  O  O26  1  0.03581500  0.60020300  0.18002900  1
  O  O27  1  0.73165700  0.05856100  0.16056200  1
loop_
_geom_bond_atom_site_label_1
_geom_bond_atom_site_label_2
_geom_bond_distance
_geom_bond_site_symmetry_2
Li0 O10 2.000052 1_545
Li0 O1 2.080738 1_556
Li0 O9 2.260928 1_455
Li0 O14 2.296686 1_555
Li0 O7 2.535757 1_545
Li1 O25 2.000052 1_565
Li1 O6 2.080738 1_554
Li1 O26 2.260928 1_655
Li1 O21 2.296686 1_555
Li1 O27 2.535757 1_565
Li2 O24 1.926136 1_555
Li2 O22 1.999526 1_555
Li2 O4 2.008821 1_554
Li2 O13 2.059021 1_545
Li3 O25 1.926136 1_555
Li3 O27 1.999526 1_555
Li3 O17 2.008821 1_555
Li3 O21 2.059021 1_555
Li4 O24 2.000052 1_555
Li4 O15 2.080738 1_555
Li4 O23 2.260928 1_555
Li4 O13 2.296686 1_555
Li4 O22 2.535757 1_555
Li5 O11 1.926136 1_555
Li5 O16 1.999526 1_555
Li5 O3 2.008821 1_556
Li5 O8 2.059021 1_565
Li6 O10 1.926136 1_555
Li6 O7 1.999526 1_555
Li6 O18 2.008821 1_555
Li6 O14 2.059021 1_555
Li7 O11 2.000052 1_555
Li7 O20 2.080738 1_555
Li7 O12 2.260928 1_555
Li7 O8 2.296686 1_555
Li7 O16 2.535757 1_555
Fe0 O26 2.026191 1_555
Fe0 O18 2.082833 1_555
Fe0 O1 2.138051 1_565
Fe0 O22 2.153608 1_555
Fe0 O13 2.170568 1_555
Fe1 O23 2.026191 1_555
Fe1 O3 2.082833 1_555
Fe1 O20 2.138051 1_555
Fe1 O27 2.153608 1_565
Fe1 O21 2.170568 1_555
Fe2 O12 2.026191 1_555
Fe2 O4 2.082833 1_555
Fe2 O15 2.138051 1_555
Fe2 O7 2.153608 1_545
Fe2 O14 2.170568 1_555
Fe3 O9 2.026191 1_555
Fe3 O17 2.082833 1_555
Fe3 O6 2.138051 1_545
Fe3 O16 2.153608 1_555
Fe3 O8 2.170568 1_555
O0 P0 1.612833 1_555
O0 P5 1.656741 1_555
O1 P3 1.549320 1_555
O2 P6 1.612833 1_555
O2 P2 1.656741 1_555
O3 P6 1.544910 1_555
O4 P4 1.544910 1_555
O5 P4 1.612833 1_555
O5 P7 1.656741 1_555
O6 P5 1.549320 1_555
O7 P4 1.534182 1_555
O8 P6 1.540098 1_556
O9 P5 1.551250 1_555
O10 P5 1.506519 1_455
O11 P7 1.506519 1_555
O12 P7 1.551250 1_545
O13 P4 1.540098 1_554
O14 P1 1.540098 1_555
O15 P7 1.549320 1_555
O16 P0 1.534182 1_555
O17 P0 1.544910 1_545
O18 P1 1.544910 1_565
O19 P1 1.612833 1_555
O19 P3 1.656741 1_555
O20 P2 1.549320 1_555
O21 P0 1.540098 1_555
O22 P1 1.534182 1_555
O23 P2 1.551250 1_565
O24 P2 1.506519 1_555
O25 P3 1.506519 1_655
O26 P3 1.551250 1_555
O27 P6 1.534182 1_555
