# generated using pymatgen
data_Tb3(MnC3)2
_symmetry_space_group_name_H-M   'P 1'
_cell_length_a   8.11139697
_cell_length_b   8.11144479
_cell_length_c   4.99653732
_cell_angle_alpha   89.99998044
_cell_angle_beta   90.00001463
_cell_angle_gamma   119.99987793
_symmetry_Int_Tables_number   1
_chemical_formula_structural   Tb3(MnC3)2
_chemical_formula_sum   'Tb6 Mn4 C12'
_cell_volume   284.70439706
_cell_formula_units_Z   2
loop_
 _symmetry_equiv_pos_site_id
 _symmetry_equiv_pos_as_xyz
  1  'x, y, z'
loop_
 _atom_site_type_symbol
 _atom_site_label
 _atom_site_symmetry_multiplicity
 _atom_site_fract_x
 _atom_site_fract_y
 _atom_site_fract_z
 _atom_site_occupancy
  Tb  Tb0  1  0.62015556  0.68451743  0.75000393  1
  Tb  Tb1  1  0.93563822  0.62015459  0.24999639  1
  Tb  Tb2  1  0.68451778  0.06435920  0.24999648  1
  Tb  Tb3  1  0.31548210  0.93563691  0.75000387  1
  Tb  Tb4  1  0.06436312  0.37984380  0.75000338  1
  Tb  Tb5  1  0.37984334  0.31548263  0.24999639  1
  Mn  Mn0  1  -0.00000101  -0.00000099  0.49999937  1
  Mn  Mn1  1  -0.00000113  -0.00000095  0.00000069  1
  Mn  Mn2  1  0.66666608  0.33333052  0.75000126  1
  Mn  Mn3  1  0.33333691  0.66667765  0.24999887  1
  C  C0  1  0.96526430  0.77169333  0.75000463  1
  C  C1  1  0.19356882  0.96526441  0.24999573  1
  C  C2  1  0.77169196  0.80642663  0.24999552  1
  C  C3  1  0.22831068  0.19357152  0.75000408  1
  C  C4  1  0.80642609  0.03473879  0.75000450  1
  C  C5  1  0.03473815  0.22830956  0.24999563  1
  C  C6  1  0.86317759  0.57804249  0.75000115  1
  C  C7  1  0.28513520  0.86317307  0.24999913  1
  C  C8  1  0.57803701  0.71486309  0.24999904  1
  C  C9  1  0.42195695  0.28513285  0.75000018  1
  C  C10  1  0.13682372  0.42195791  0.24999881  1
  C  C11  1  0.71486856  0.13682455  0.75000098  1
loop_
_geom_bond_atom_site_label_1
_geom_bond_atom_site_label_2
_geom_bond_distance
_geom_bond_site_symmetry_2
C0 C6 1.361013 1_555
C0 Mn1 2.132464 1_666
C0 Mn0 2.132490 1_665
C0 Tb3 2.461836 1_655
C0 Tb0 2.521256 1_555
C0 Tb1 2.741246 1_556
C0 Tb1 2.741322 1_555
C1 C7 1.361056 1_555
C1 Mn1 2.132444 1_565
C1 Mn0 2.132469 1_565
C1 Tb5 2.461853 1_565
C1 Tb1 2.521272 1_455
C1 Tb3 2.741249 1_554
C1 Tb3 2.741323 1_555
C2 C8 1.361035 1_555
C2 Mn1 2.132464 1_665
C2 Mn0 2.132491 1_665
C2 Tb1 2.461842 1_555
C2 Tb2 2.521254 1_565
C2 Tb0 2.741235 1_554
C2 Tb0 2.741312 1_555
C3 C9 1.360973 1_555
C3 Mn1 2.132489 1_556
C3 Mn0 2.132513 1_555
C3 Tb4 2.461853 1_555
C3 Tb3 2.521255 1_545
C3 Tb5 2.741232 1_556
C3 Tb5 2.741302 1_555
C4 Mn1 2.132487 1_656
C4 Mn0 2.132514 1_655
C4 Tb0 2.461874 1_545
C4 Tb4 2.521259 1_655
C4 Tb2 2.741218 1_556
C4 Tb2 2.741290 1_555
C5 Mn1 2.132480 1_555
C5 Mn0 2.132506 1_555
C5 Tb2 2.461852 1_455
C5 Tb5 2.521234 1_555
C5 Tb4 2.741235 1_554
C5 Tb4 2.741306 1_555
C6 Mn2 1.821232 1_555
C6 Tb0 2.516790 1_555
C6 Tb1 2.550019 1_556
C6 Tb1 2.550066 1_555
C6 Tb4 2.805577 1_655
C7 Mn3 1.821108 1_555
C7 Tb1 2.516788 1_455
C7 Tb3 2.550025 1_554
C7 Tb3 2.550071 1_555
C7 Tb2 2.805563 1_565
C8 Mn3 1.821167 1_555
C8 Tb2 2.516788 1_565
C8 Tb0 2.550025 1_554
C8 Tb0 2.550072 1_555
C8 Tb5 2.805565 1_555
C9 Mn2 1.821206 1_555
C9 Tb3 2.516797 1_545
C9 Tb5 2.550028 1_556
C9 Tb5 2.550065 1_555
C9 Tb0 2.805593 1_555
C10 C5 1.360996 1_555
C10 Mn3 1.821277 1_555
C10 Tb5 2.516773 1_555
C10 Tb4 2.550020 1_554
C10 Tb4 2.550065 1_555
C10 Tb1 2.805563 1_455
C11 C4 1.360955 1_555
C11 Mn2 1.821196 1_555
C11 Tb4 2.516775 1_655
C11 Tb2 2.550028 1_556
C11 Tb2 2.550072 1_555
C11 Tb3 2.805590 1_545
