# generated using pymatgen
data_Na2Mg4SiGe4S11O48
_symmetry_space_group_name_H-M   'P 1'
_cell_length_a   16.99971532
_cell_length_b   8.49510800
_cell_length_c   22.16587401
_cell_angle_alpha   90.17991627
_cell_angle_beta   90.01691069
_cell_angle_gamma   120.14778399
_symmetry_Int_Tables_number   1
_chemical_formula_structural   Na2Mg4SiGe4S11O48
_chemical_formula_sum   'Na6 Mg12 Si3 Ge12 S33 O144'
_cell_volume   2768.05184492
_cell_formula_units_Z   3
loop_
 _symmetry_equiv_pos_site_id
 _symmetry_equiv_pos_as_xyz
  1  'x, y, z'
loop_
 _atom_site_type_symbol
 _atom_site_label
 _atom_site_symmetry_multiplicity
 _atom_site_fract_x
 _atom_site_fract_y
 _atom_site_fract_z
 _atom_site_occupancy
  Na  Na0  1  0.99829466  0.99019263  0.49659492  1
  Na  Na1  1  0.49893443  0.00234446  0.99976888  1
  Na  Na2  1  0.33347777  0.32938624  0.83605607  1
  Na  Na3  1  0.83763208  0.33892649  0.83281746  1
  Na  Na4  1  0.33639350  0.33180658  0.33088897  1
  Na  Na5  1  0.83787082  0.33984765  0.33715539  1
  Mg  Mg0  1  0.00011551  0.99408443  0.35606740  1
  Mg  Mg1  1  0.00270201  0.00205727  0.85608863  1
  Mg  Mg2  1  0.33174763  0.33280637  0.68413670  1
  Mg  Mg3  1  0.83548934  0.33571018  0.68340333  1
  Mg  Mg4  1  0.33582739  0.33121203  0.18674585  1
  Mg  Mg5  1  0.83411185  0.33372740  0.18471172  1
  Mg  Mg6  1  0.33534871  0.33171415  0.98025450  1
  Mg  Mg7  1  0.83562108  0.33577573  0.98255515  1
  Mg  Mg8  1  0.33502005  0.33450911  0.48206047  1
  Mg  Mg9  1  0.83526212  0.33734335  0.47988046  1
  Mg  Mg10  1  0.66631266  0.66678945  0.52198748  1
  Mg  Mg11  1  0.16371695  0.66424517  0.81008761  1
  Si  Si0  1  0.50054981  0.29235135  0.25236499  1
  Si  Si1  1  0.52257313  0.38077363  0.91475710  1
  Si  Si2  1  0.02002549  0.66606691  0.41737576  1
  Ge  Ge0  1  0.49986837  0.00791619  0.35359835  1
  Ge  Ge1  1  0.49688945  0.00736771  0.85310480  1
  Ge  Ge2  1  0.99949678  0.99468608  0.64981103  1
  Ge  Ge3  1  0.50057928  0.00406566  0.64159864  1
  Ge  Ge4  1  0.00092167  0.00035873  0.14891569  1
  Ge  Ge5  1  0.50082909  0.01022020  0.15094017  1
  Ge  Ge6  1  0.16401799  0.66616059  0.01770493  1
  Ge  Ge7  1  0.66383730  0.65271058  0.02026467  1
  Ge  Ge8  1  0.16211345  0.66697068  0.51957013  1
  Ge  Ge9  1  0.15974959  0.66160906  0.31463936  1
  Ge  Ge10  1  0.66562088  0.65848484  0.31355802  1
  Ge  Ge11  1  0.66612930  0.66336597  0.81428847  1
  S  S0  1  0.14438902  0.99823325  0.25107885  1
  S  S1  1  0.64441425  0.99780535  0.25124035  1
  S  S2  1  0.35337773  0.71239038  0.25204889  1
  S  S3  1  0.85506044  0.71146155  0.25082773  1
  S  S4  1  0.00128194  0.29027519  0.25119256  1
  S  S5  1  0.14461887  0.28733893  0.75018859  1
  S  S6  1  0.64415080  0.28970348  0.75067994  1
  S  S7  1  0.99890850  0.71000469  0.75086907  1
  S  S8  1  0.50219592  0.71704011  0.75102454  1
  S  S9  1  0.35633741  0.99890651  0.74860998  1
  S  S10  1  0.85321079  0.99673461  0.75231006  1
  S  S11  1  0.47900756  0.33360262  0.58479964  1
  S  S12  1  0.98158940  0.33203557  0.58393135  1
  S  S13  1  0.18650681  0.03778590  0.58349354  1
  S  S14  1  0.68729647  0.04221371  0.58478391  1
  S  S15  1  0.33158459  0.62769766  0.58296924  1
  S  S16  1  0.83364067  0.62717895  0.58517522  1
  S  S17  1  0.48153418  0.63079504  0.08394706  1
  S  S18  1  0.98157215  0.63051211  0.08359773  1
  S  S19  1  0.33180786  0.03494278  0.08277897  1
  S  S20  1  0.83273315  0.03522709  0.08305780  1
  S  S21  1  0.18580476  0.33447766  0.08340096  1
  S  S22  1  0.68681936  0.33305610  0.08323025  1
  S  S23  1  0.31014198  0.66576689  0.91506079  1
  S  S24  1  0.81089914  0.66844425  0.91691531  1
  S  S25  1  0.02179585  0.37816003  0.91618461  1
  S  S26  1  0.16631108  0.95382827  0.91610835  1
  S  S27  1  0.66672284  0.95411517  0.91566692  1
  S  S28  1  0.31204922  0.95302562  0.41597197  1
  S  S29  1  0.80871122  0.95091167  0.41615568  1
  S  S30  1  0.16830141  0.38259734  0.41651575  1
  S  S31  1  0.66473580  0.37372119  0.41627845  1
  S  S32  1  0.52203786  0.67247282  0.41473499  1
  O  O0  1  0.10328858  0.02830439  0.30322382  1
  O  O1  1  0.60308103  0.03121337  0.30580396  1
  O  O2  1  0.41300337  0.79146143  0.30654707  1
  O  O3  1  0.91152269  0.79298131  0.30296669  1
  O  O4  1  0.48174305  0.15761941  0.31037889  1
  O  O5  1  0.98687428  0.17943458  0.30358639  1
  O  O6  1  0.10332046  0.17220689  0.80249025  1
  O  O7  1  0.60298758  0.17174703  0.80581827  1
  O  O8  1  0.48470861  0.79932595  0.80725760  1
  O  O9  1  0.98219511  0.79318388  0.80297523  1
  O  O10  1  0.41635058  0.03813472  0.80487230  1
  O  O11  1  0.90881718  0.02634523  0.80508236  1
  O  O12  1  0.40021260  0.96546603  0.69472350  1
  O  O13  1  0.89046750  0.95885617  0.69575808  1
  O  O14  1  0.08505772  0.20460881  0.69269085  1
  O  O15  1  0.58536306  0.20998572  0.69650219  1
  O  O16  1  0.01662582  0.82619167  0.69349672  1
  O  O17  1  0.51872012  0.83168600  0.69649618  1
  O  O18  1  0.39337831  0.82673653  0.19637626  1
  O  O19  1  0.89400288  0.82677508  0.19337409  1
  O  O20  1  0.01878282  0.21123055  0.19367305  1
  O  O21  1  0.52249777  0.20377819  0.19169846  1
  O  O22  1  0.08563251  0.95727828  0.19384118  1
  O  O23  1  0.58571606  0.95725199  0.19544473  1
  O  O24  1  0.43824315  0.35990875  0.63912204  1
  O  O25  1  0.94411657  0.36531815  0.63798145  1
  O  O26  1  0.24001612  0.11557564  0.63776223  1
  O  O27  1  0.74020767  0.12311014  0.63954406  1
  O  O28  1  0.31557409  0.52009213  0.63723262  1
  O  O29  1  0.82120144  0.52176165  0.63955430  1
  O  O30  1  0.44347159  0.52208149  0.13741868  1
  O  O31  1  0.94341926  0.51878123  0.13711961  1
  O  O32  1  0.31625107  0.11040807  0.13693022  1
  O  O33  1  0.81498884  0.11089542  0.13704627  1
  O  O34  1  0.24094909  0.36928961  0.13747406  1
  O  O35  1  0.73994375  0.36227065  0.13738754  1
  O  O36  1  0.22358339  0.29877076  0.02956354  1
  O  O37  1  0.72448885  0.30059640  0.02851793  1
  O  O38  1  0.42687641  0.55852517  0.02929671  1
  O  O39  1  0.92625226  0.55563103  0.02955180  1
  O  O40  1  0.35084817  0.14609956  0.02895772  1
  O  O41  1  0.84955048  0.14576304  0.02931050  1
  O  O42  1  0.22328256  0.14775728  0.52918246  1
  O  O43  1  0.72367167  0.15674907  0.53137043  1
  O  O44  1  0.34994012  0.55331286  0.52910836  1
  O  O45  1  0.85450212  0.55504927  0.53133047  1
  O  O46  1  0.42158731  0.29132473  0.53107201  1
  O  O47  1  0.92668843  0.29511578  0.52974353  1
  O  O48  1  0.27446492  0.70822217  0.97191405  1
  O  O49  1  0.76998121  0.70480899  0.97220886  1
  O  O50  1  0.08065744  0.45922412  0.97393328  1
  O  O51  1  0.58790873  0.46468581  0.97529517  1
  O  O52  1  0.14927542  0.83760276  0.97402489  1
  O  O53  1  0.64922113  0.84099680  0.97069971  1
  O  O54  1  0.27414692  0.83978708  0.47095484  1
  O  O55  1  0.76770210  0.83737664  0.46869798  1
  O  O56  1  0.15324812  0.46487074  0.47254334  1
  O  O57  1  0.64692695  0.45256817  0.46838607  1
  O  O58  1  0.08917560  0.70611687  0.47641922  1
  O  O59  1  0.57710432  0.70689124  0.46800446  1
  O  O60  1  0.06684365  0.62474034  0.35657675  1
  O  O61  1  0.56229897  0.63756839  0.35894925  1
  O  O62  1  0.25556094  0.87304910  0.36007113  1
  O  O63  1  0.74960401  0.86724123  0.35772979  1
  O  O64  1  0.18844071  0.49949816  0.36039902  1
  O  O65  1  0.68304871  0.48862087  0.35995403  1
  O  O66  1  0.06330421  0.49420991  0.86420401  1
  O  O67  1  0.56974664  0.50764665  0.85480838  1
  O  O68  1  0.18367752  0.87133503  0.86402884  1
  O  O69  1  0.68503697  0.87725950  0.85985994  1
  O  O70  1  0.25721966  0.64161469  0.86179431  1
  O  O71  1  0.75144595  0.63047331  0.86098778  1
  O  O72  1  0.01762794  0.84958748  0.41367370  1
  O  O73  1  0.51340732  0.84044919  0.40493985  1
  O  O74  1  0.40241184  0.96436164  0.40939298  1
  O  O75  1  0.89833974  0.97180834  0.40757816  1
  O  O76  1  0.08562746  0.20867129  0.41001364  1
  O  O77  1  0.58077027  0.18835021  0.40792871  1
  O  O78  1  0.01393440  0.20058920  0.91124981  1
  O  O79  1  0.51615381  0.17782783  0.90747178  1
  O  O80  1  0.08440137  0.96565030  0.91156802  1
  O  O81  1  0.58176762  0.96447567  0.90823934  1
  O  O82  1  0.40543431  0.83519617  0.90998723  1
  O  O83  1  0.89793572  0.82899526  0.90929896  1
  O  O84  1  0.48690813  0.16117799  0.59223345  1
  O  O85  1  0.99142958  0.16291573  0.59177171  1
  O  O86  1  0.09232916  0.01622067  0.59060374  1
  O  O87  1  0.59159709  0.02417900  0.59263248  1
  O  O88  1  0.41568846  0.81451282  0.59156979  1
  O  O89  1  0.92136506  0.82000093  0.59239788  1
  O  O90  1  0.49202115  0.82111217  0.09195373  1
  O  O91  1  0.99166126  0.81723925  0.09223295  1
  O  O92  1  0.41563640  0.01200350  0.08970925  1
  O  O93  1  0.91571237  0.01535103  0.09189329  1
  O  O94  1  0.09151992  0.16725262  0.09203793  1
  O  O95  1  0.59256548  0.16391650  0.08843029  1
  O  O96  1  0.35095271  0.16453508  0.74343429  1
  O  O97  1  0.84158322  0.15482655  0.74358826  1
  O  O98  1  0.23441466  0.30380447  0.74154832  1
  O  O99  1  0.73324219  0.30726302  0.74528111  1
  O  O100  1  0.42185379  0.53727554  0.74539693  1
  O  O101  1  0.91724977  0.52958648  0.74251391  1
  O  O102  1  0.34311831  0.53363197  0.24400748  1
  O  O103  1  0.84370835  0.53014873  0.24136045  1
  O  O104  1  0.41289277  0.31001740  0.24612624  1
  O  O105  1  0.92206774  0.31280220  0.24203155  1
  O  O106  1  0.23325036  0.15916556  0.24150066  1
  O  O107  1  0.73310755  0.16094596  0.24371608  1
  O  O108  1  0.32056753  0.50738570  0.92421339  1
  O  O109  1  0.81545046  0.50138134  0.92315161  1
  O  O110  1  0.42525934  0.35813418  0.92034423  1
  O  O111  1  0.93214442  0.36279516  0.92492238  1
  O  O112  1  0.24696485  0.13355398  0.92536679  1
  O  O113  1  0.74611470  0.13479428  0.92225883  1
  O  O114  1  0.32158875  0.13302260  0.42228322  1
  O  O115  1  0.81387457  0.12765686  0.42012693  1
  O  O116  1  0.24952882  0.36569869  0.42292539  1
  O  O117  1  0.74376038  0.35060458  0.42075510  1
  O  O118  1  0.43100019  0.51090791  0.41981680  1
  O  O119  1  0.92478978  0.48357168  0.42092069  1
  O  O120  1  0.17545357  0.50087533  0.07424983  1
  O  O121  1  0.67782894  0.50051414  0.07740202  1
  O  O122  1  0.07462207  0.65105717  0.07525321  1
  O  O123  1  0.57552142  0.65567325  0.07565696  1
  O  O124  1  0.24956137  0.84780261  0.07421550  1
  O  O125  1  0.74876186  0.84796109  0.07377863  1
  O  O126  1  0.17888184  0.85395968  0.57719555  1
  O  O127  1  0.67298295  0.86015438  0.57700261  1
  O  O128  1  0.25004730  0.65129831  0.57423929  1
  O  O129  1  0.75657364  0.65396879  0.57710204  1
  O  O130  1  0.07572546  0.49479048  0.57694855  1
  O  O131  1  0.56965062  0.48796059  0.57672403  1
  O  O132  1  0.15471784  0.83260129  0.25576468  1
  O  O133  1  0.65272076  0.83427223  0.25886042  1
  O  O134  1  0.26310484  0.70028219  0.25991162  1
  O  O135  1  0.76435598  0.69821604  0.25648212  1
  O  O136  1  0.08743962  0.47369365  0.25470520  1
  O  O137  1  0.59324277  0.48989866  0.26200857  1
  O  O138  1  0.15237196  0.46509144  0.75522044  1
  O  O139  1  0.65245742  0.47239122  0.75772036  1
  O  O140  1  0.08058760  0.69660024  0.75524496  1
  O  O141  1  0.58652263  0.70619774  0.75804251  1
  O  O142  1  0.26980557  0.83732216  0.75682486  1
  O  O143  1  0.75898874  0.82494553  0.75869492  1
loop_
_geom_bond_atom_site_label_1
_geom_bond_atom_site_label_2
_geom_bond_distance
_geom_bond_site_symmetry_2
Na0 O72 2.300860 1_655
Na0 O89 2.536101 1_555
Na0 O75 2.556262 1_555
Na0 O86 2.566429 1_665
Na0 O76 2.566764 1_665
Na0 O85 2.601930 1_565
Na1 O95 2.463014 1_556
Na1 O79 2.464688 1_555
Na1 O92 2.470573 1_556
Na1 O82 2.493285 1_545
Na1 O90 2.529349 1_546
Na1 O81 2.579752 1_545
Na2 O110 2.365872 1_555
Na2 O112 2.532664 1_555
Na2 O108 2.543261 1_555
Na2 O96 2.581592 1_555
Na2 O100 2.602545 1_555
Na2 O98 2.626607 1_555
Na3 O101 2.506365 1_555
Na3 O97 2.539386 1_555
Na3 O111 2.541426 1_555
Na3 O99 2.549826 1_555
Na3 O109 2.561630 1_555
Na3 O113 2.582938 1_555
Na4 O104 2.344475 1_555
Na4 O118 2.511647 1_555
Na4 O102 2.546642 1_555
Na4 O106 2.558877 1_555
Na4 O114 2.571751 1_555
Na4 O116 2.617344 1_555
Na5 O119 2.300757 1_555
Na5 O115 2.465926 1_555
Na5 O117 2.479767 1_555
Na5 O105 2.622274 1_555
Na5 O103 2.644354 1_555
Na5 O107 2.651520 1_555
Mg0 O72 1.898045 1_555
Mg0 O3 1.993513 1_455
Mg0 O75 2.001643 1_455
Mg0 O0 2.005973 1_565
Mg0 O76 2.046858 1_565
Mg0 O5 2.061683 1_465
Mg1 O6 1.988737 1_555
Mg1 O80 1.992419 1_545
Mg1 O9 2.005338 1_445
Mg1 O78 2.009808 1_555
Mg1 O83 2.026461 1_445
Mg1 O11 2.049211 1_455
Mg2 O24 1.977358 1_555
Mg2 O26 1.997613 1_555
Mg2 O98 2.002923 1_555
Mg2 O28 2.034071 1_555
Mg2 O96 2.087568 1_555
Mg2 O100 2.125730 1_555
Mg3 O27 1.969825 1_555
Mg3 O29 1.974049 1_555
Mg3 O25 2.005776 1_555
Mg3 O101 2.011752 1_555
Mg3 O97 2.079503 1_555
Mg3 O99 2.131297 1_555
Mg4 O104 1.928364 1_555
Mg4 O106 2.025421 1_555
Mg4 O30 2.050645 1_555
Mg4 O32 2.051397 1_555
Mg4 O102 2.086969 1_555
Mg4 O34 2.103362 1_555
Mg5 O103 2.025068 1_555
Mg5 O35 2.027886 1_555
Mg5 O31 2.028410 1_555
Mg5 O105 2.036874 1_555
Mg5 O33 2.043149 1_555
Mg5 O107 2.072459 1_555
Mg6 O110 1.951545 1_555
Mg6 O112 2.004242 1_555
Mg6 O40 2.036921 1_556
Mg6 O108 2.054612 1_555
Mg6 O38 2.071150 1_556
Mg6 O36 2.086118 1_556
Mg7 O111 2.000465 1_555
Mg7 O39 2.010885 1_556
Mg7 O41 2.032243 1_556
Mg7 O37 2.032817 1_556
Mg7 O109 2.080016 1_555
Mg7 O113 2.095605 1_555
Mg8 O46 2.006070 1_555
Mg8 O44 2.030023 1_555
Mg8 O42 2.049540 1_555
Mg8 O116 2.070834 1_555
Mg8 O114 2.080999 1_555
Mg8 O118 2.090382 1_555
Mg9 O119 1.918266 1_555
Mg9 O45 2.051075 1_555
Mg9 O117 2.079809 1_555
Mg9 O47 2.080239 1_555
Mg9 O43 2.084196 1_555
Mg9 O115 2.096159 1_555
Mg10 O55 1.992266 1_555
Mg10 O131 1.996346 1_555
Mg10 O127 1.999624 1_555
Mg10 O129 2.006572 1_555
Mg10 O57 2.053245 1_555
Mg10 O59 2.090002 1_555
Mg11 O140 1.985353 1_555
Mg11 O66 1.993635 1_555
Mg11 O68 2.006645 1_555
Mg11 O138 2.009422 1_555
Mg11 O142 2.038833 1_555
Mg11 O70 2.045577 1_555
Ge0 O4 1.741011 1_555
Ge0 O77 1.887113 1_555
Ge0 O73 1.926377 1_545
Ge0 O74 1.949240 1_545
Ge0 O1 1.973243 1_555
Ge0 O2 1.977144 1_545
Ge1 O79 1.780136 1_555
Ge1 O10 1.856394 1_555
Ge1 O7 1.944772 1_555
Ge1 O8 1.954510 1_545
Ge1 O82 1.968440 1_545
Ge1 O81 2.058674 1_545
Ge2 O16 1.870428 1_655
Ge2 O14 1.892701 1_665
Ge2 O89 1.895568 1_555
Ge2 O85 1.981057 1_565
Ge2 O86 1.989731 1_665
Ge2 O13 2.000406 1_555
Ge3 O87 1.826994 1_555
Ge3 O84 1.831207 1_555
Ge3 O88 1.886519 1_545
Ge3 O12 1.961362 1_545
Ge3 O15 2.017808 1_555
Ge3 O17 2.045688 1_545
Ge4 O20 1.930745 1_555
Ge4 O22 1.931365 1_545
Ge4 O91 1.940349 1_445
Ge4 O19 1.940933 1_445
Ge4 O94 1.946963 1_555
Ge4 O93 1.974154 1_455
Ge5 O21 1.742895 1_555
Ge5 O23 1.977930 1_545
Ge5 O18 1.982807 1_545
Ge5 O92 1.990166 1_555
Ge5 O95 2.005991 1_555
Ge5 O90 2.014407 1_545
Ge6 O52 1.869958 1_554
Ge6 O50 1.877787 1_554
Ge6 O122 1.938932 1_555
Ge6 O124 1.948753 1_555
Ge6 O120 1.966050 1_555
Ge6 O48 2.003164 1_554
Ge7 O51 1.768985 1_554
Ge7 O121 1.910826 1_555
Ge7 O49 1.946375 1_554
Ge7 O123 1.949630 1_555
Ge7 O125 1.955456 1_555
Ge7 O53 2.058468 1_554
Ge8 O58 1.725782 1_555
Ge8 O126 1.941214 1_555
Ge8 O130 1.941360 1_555
Ge8 O56 1.945679 1_555
Ge8 O128 1.980049 1_555
Ge8 O54 2.036273 1_555
Ge9 O60 1.721179 1_555
Ge9 O136 1.959323 1_555
Ge9 O64 1.961228 1_555
Ge9 O62 1.985539 1_555
Ge9 O132 1.989234 1_555
Ge9 O134 2.022511 1_555
Ge10 O137 1.757695 1_555
Ge10 O63 1.893941 1_555
Ge10 O65 1.914746 1_555
Ge10 O61 1.953881 1_555
Ge10 O135 1.991642 1_555
Ge10 O133 2.021944 1_555
Ge11 O67 1.752834 1_555
Ge11 O71 1.913407 1_555
Ge11 O143 1.931281 1_555
Ge11 O69 1.956265 1_555
Ge11 O139 1.966359 1_555
Ge11 O141 2.003650 1_555
O0 S0 1.437812 1_545
O1 S1 1.495222 1_545
O2 S2 1.499389 1_555
O3 S3 1.436377 1_555
O4 Si0 1.645532 1_555
O5 S4 1.439004 1_655
O6 S5 1.453056 1_555
O7 S6 1.513734 1_555
O8 S8 1.527791 1_555
O9 S7 1.452838 1_555
O10 S9 1.536972 1_545
O11 S10 1.443540 1_545
O12 S9 1.508288 1_555
O13 S10 1.509519 1_555
O14 S5 1.556369 1_555
O15 S6 1.487916 1_555
O16 S7 1.546502 1_455
O17 S8 1.490341 1_555
O18 S2 1.507765 1_555
O19 S3 1.541634 1_555
O20 S4 1.536385 1_555
O21 Si0 1.670210 1_555
O22 S0 1.541365 1_555
O23 S1 1.515012 1_555
O24 S11 1.460955 1_555
O25 S12 1.449259 1_555
O26 S13 1.449726 1_555
O27 S14 1.458724 1_555
O28 S15 1.453822 1_555
O29 S16 1.454750 1_555
O30 S17 1.443427 1_555
O31 S18 1.455401 1_555
O32 S19 1.444759 1_555
O33 S20 1.458233 1_555
O34 S21 1.456530 1_555
O35 S22 1.445892 1_555
O36 S21 1.456851 1_555
O37 S22 1.460340 1_555
O38 S17 1.459234 1_555
O39 S18 1.455282 1_555
O40 S19 1.456015 1_555
O41 S20 1.456154 1_555
O42 S13 1.460726 1_555
O43 S14 1.460875 1_555
O44 S15 1.454493 1_555
O45 S16 1.462752 1_555
O46 S11 1.464442 1_555
O47 S12 1.454323 1_555
O48 S23 1.517677 1_555
O49 S24 1.515064 1_555
O50 S25 1.554212 1_555
O51 Si1 1.655368 1_555
O52 S26 1.558127 1_555
O53 S27 1.490093 1_555
O54 S28 1.486984 1_555
O55 S29 1.450792 1_555
O56 S30 1.506879 1_555
O57 S31 1.439928 1_555
O58 Si2 1.674819 1_555
O59 S32 1.441615 1_555
O60 Si2 1.688557 1_555
O61 S32 1.512429 1_555
O62 S28 1.502585 1_555
O63 S29 1.571018 1_555
O64 S30 1.522220 1_555
O65 S31 1.520203 1_555
O66 S25 1.451289 1_555
O67 Si1 1.646798 1_555
O68 S26 1.453894 1_555
O69 S27 1.500910 1_555
O70 S23 1.434566 1_555
O71 S24 1.526968 1_555
O72 Si2 1.582273 1_555
O73 S32 1.522220 1_555
O74 S28 1.497295 1_555
O75 S29 1.455299 1_555
O76 S30 1.446305 1_555
O77 S31 1.513844 1_555
O78 S25 1.449760 1_555
O79 Si1 1.679162 1_555
O80 S26 1.448984 1_555
O81 S27 1.499412 1_555
O82 S23 1.538702 1_555
O83 S24 1.432652 1_555
O84 S11 1.545910 1_555
O85 S12 1.537927 1_555
O86 S13 1.525549 1_555
O87 S14 1.565373 1_555
O88 S15 1.522468 1_555
O89 S16 1.573935 1_555
O90 S17 1.544626 1_555
O91 S18 1.518912 1_555
O92 S19 1.539927 1_555
O93 S20 1.515260 1_555
O94 S21 1.529226 1_555
O95 S22 1.527674 1_555
O96 S9 1.460021 1_545
O97 S10 1.465734 1_545
O98 S5 1.473880 1_555
O99 S6 1.450399 1_555
O100 S8 1.454891 1_555
O101 S7 1.473555 1_555
O102 S2 1.449310 1_555
O103 S3 1.467342 1_555
O104 Si0 1.576965 1_555
O105 S4 1.466347 1_655
O106 S0 1.457284 1_545
O107 S1 1.457580 1_545
O108 S23 1.457416 1_555
O109 S24 1.466559 1_555
O110 Si1 1.571542 1_555
O111 S25 1.475734 1_655
O112 S26 1.465690 1_545
O113 S27 1.454799 1_545
O114 S28 1.460672 1_545
O115 S29 1.461728 1_545
O116 S30 1.465144 1_555
O117 S31 1.455389 1_555
O118 S32 1.469374 1_555
O119 Si2 1.584442 1_655
O120 S21 1.523782 1_555
O121 S22 1.511058 1_555
O122 S18 1.513241 1_455
O123 S17 1.514098 1_555
O124 S19 1.511139 1_565
O125 S20 1.525626 1_565
O126 S13 1.506736 1_565
O127 S14 1.449572 1_565
O128 S15 1.509361 1_555
O129 S16 1.449080 1_555
O130 S12 1.508488 1_455
O131 S11 1.448432 1_555
O132 S0 1.506822 1_555
O133 S1 1.475445 1_555
O134 S2 1.495897 1_555
O135 S3 1.493956 1_555
O136 S4 1.511938 1_555
O137 Si0 1.639005 1_555
O138 S5 1.452245 1_555
O139 S6 1.493715 1_555
O140 S7 1.452300 1_455
O141 S8 1.490059 1_555
O142 S9 1.433447 1_555
O143 S10 1.539102 1_555
