# generated using pymatgen
data_Nb3TeCl7
_symmetry_space_group_name_H-M   'P 1'
_cell_length_a   6.95827391
_cell_length_b   6.95831148
_cell_length_c   13.24531568
_cell_angle_alpha   89.99505049
_cell_angle_beta   90.00118286
_cell_angle_gamma   119.99938609
_symmetry_Int_Tables_number   1
_chemical_formula_structural   Nb3TeCl7
_chemical_formula_sum   'Nb6 Te2 Cl14'
_cell_volume   555.39378594
_cell_formula_units_Z   2
loop_
 _symmetry_equiv_pos_site_id
 _symmetry_equiv_pos_as_xyz
  1  'x, y, z'
loop_
 _atom_site_type_symbol
 _atom_site_label
 _atom_site_symmetry_multiplicity
 _atom_site_fract_x
 _atom_site_fract_y
 _atom_site_fract_z
 _atom_site_occupancy
  Nb  Nb0  1  0.52731982  0.47270056  0.75860582  1
  Nb  Nb1  1  0.52733336  0.05465924  0.75859126  1
  Nb  Nb2  1  0.47266174  0.52733140  0.24141629  1
  Nb  Nb3  1  0.47265024  0.94529605  0.24142242  1
  Nb  Nb4  1  0.05466812  0.52732081  0.24140619  1
  Nb  Nb5  1  0.94536634  0.47269481  0.75859142  1
  Te  Te0  1  0.66664295  0.33344468  0.59730789  1
  Te  Te1  1  0.33323098  0.66653870  0.40277219  1
  Cl  Cl0  1  0.83332855  0.16662958  0.33799292  1
  Cl  Cl1  1  0.83334452  0.66668116  0.33798521  1
  Cl  Cl2  1  0.33331575  0.16663374  0.33799508  1
  Cl  Cl3  1  0.66671519  0.83338269  0.66199728  1
  Cl  Cl4  1  0.16665018  0.33331075  0.66200294  1
  Cl  Cl5  1  0.16666887  0.83337688  0.66199889  1
  Cl  Cl6  1  0.16842720  0.83159260  0.12170508  1
  Cl  Cl7  1  0.16843273  0.33683922  0.12170413  1
  Cl  Cl8  1  0.33334489  0.66666778  0.86244127  1
  Cl  Cl9  1  0.66667143  0.33333318  0.13754885  1
  Cl  Cl10  1  0.83158561  0.16842363  0.87826062  1
  Cl  Cl11  1  0.83160354  0.66315241  0.87826851  1
  Cl  Cl12  1  0.33686320  0.16840461  0.87827239  1
  Cl  Cl13  1  0.66317280  0.83158751  0.12171037  1
loop_
_geom_bond_atom_site_label_1
_geom_bond_atom_site_label_2
_geom_bond_distance
_geom_bond_site_symmetry_2
Nb0 Te0 2.717160 1_555
Nb1 Te0 2.717592 1_555
Nb2 Te1 2.717983 1_555
Nb3 Te1 2.718178 1_555
Nb4 Te1 2.717768 1_555
Nb5 Te0 2.717507 1_555
Cl0 Nb3 2.538052 1_545
Cl0 Nb4 2.538100 1_655
Cl1 Nb2 2.538030 1_555
Cl1 Nb4 2.538128 1_655
Cl2 Nb3 2.538062 1_545
Cl2 Nb2 2.538078 1_555
Cl3 Nb1 2.538091 1_565
Cl3 Nb0 2.538152 1_555
Cl4 Nb5 2.538084 1_455
Cl4 Nb0 2.538153 1_555
Cl5 Nb5 2.538067 1_455
Cl5 Nb1 2.538092 1_565
Cl6 Nb4 2.438548 1_555
Cl6 Nb3 2.438607 1_555
Cl7 Nb2 2.438601 1_555
Cl7 Nb4 2.438606 1_555
Cl8 Nb0 2.712386 1_555
Cl8 Nb1 2.712586 1_565
Cl8 Nb5 2.712642 1_455
Cl9 Nb4 2.712787 1_655
Cl9 Nb2 2.712942 1_555
Cl9 Nb3 2.712982 1_545
Cl10 Nb5 2.438254 1_555
Cl10 Nb1 2.438290 1_555
Cl11 Nb5 2.438266 1_555
Cl11 Nb0 2.438372 1_555
Cl12 Nb1 2.438265 1_555
Cl12 Nb0 2.438318 1_555
Cl13 Nb2 2.438533 1_555
Cl13 Nb3 2.438636 1_555
