# generated using pymatgen
data_Ba2YMgCu3O7
_symmetry_space_group_name_H-M   'P 1'
_cell_length_a   3.70207618
_cell_length_b   3.97863696
_cell_length_c   13.99270151
_cell_angle_alpha   90.00000000
_cell_angle_beta   90.00000000
_cell_angle_gamma   90.00000000
_symmetry_Int_Tables_number   1
_chemical_formula_structural   Ba2YMgCu3O7
_chemical_formula_sum   'Ba2 Y1 Mg1 Cu3 O7'
_cell_volume   206.10153861
_cell_formula_units_Z   1
loop_
 _symmetry_equiv_pos_site_id
 _symmetry_equiv_pos_as_xyz
  1  'x, y, z'
loop_
 _atom_site_type_symbol
 _atom_site_label
 _atom_site_symmetry_multiplicity
 _atom_site_fract_x
 _atom_site_fract_y
 _atom_site_fract_z
 _atom_site_occupancy
  Ba  Ba0  1  0.50000000  0.50000000  0.78986026  1
  Ba  Ba1  1  0.50000000  0.50000000  0.26098703  1
  Y  Y0  1  0.50000000  0.50000000  0.51973681  1
  Mg  Mg0  1  0.50000000  0.00000000  0.07201529  1
  Cu  Cu0  1  0.00000000  0.00000000  0.63820586  1
  Cu  Cu1  1  0.00000000  0.00000000  0.40499391  1
  Cu  Cu2  1  0.00000000  0.00000000  0.93766449  1
  O  O0  1  0.00000000  0.50000000  0.97314650  1
  O  O1  1  0.50000000  0.00000000  0.60094973  1
  O  O2  1  0.50000000  0.00000000  0.39041924  1
  O  O3  1  0.00000000  0.50000000  0.62171294  1
  O  O4  1  0.00000000  0.50000000  0.40785244  1
  O  O5  1  0.00000000  0.00000000  0.79880532  1
  O  O6  1  0.00000000  0.00000000  0.15587217  1
loop_
_geom_bond_atom_site_label_1
_geom_bond_atom_site_label_2
_geom_bond_distance
_geom_bond_site_symmetry_2
Ba0 O5 2.720183 1_555
Ba0 O5 2.720183 1_655
Ba0 O5 2.720183 1_565
Ba0 O5 2.720183 1_665
Ba0 O3 2.993689 1_555
Ba0 O3 2.993689 1_655
Ba0 O0 3.162890 1_555
Ba0 O0 3.162890 1_655
Ba0 O1 3.308290 1_565
Ba0 O1 3.308290 1_555
Ba1 O2 2.690259 1_555
Ba1 O2 2.690259 1_565
Ba1 O4 2.765781 1_555
Ba1 O4 2.765781 1_655
Ba1 O6 3.089839 1_655
Ba1 O6 3.089839 1_555
Ba1 O6 3.089839 1_565
Ba1 O6 3.089839 1_665
Mg0 O6 2.191614 1_655
Mg0 O6 2.191614 1_555
Cu0 O1 1.923047 1_455
Cu0 O1 1.923047 1_555
Cu0 O3 2.002660 1_555
Cu0 O3 2.002660 1_545
Cu0 O5 2.247220 1_555
Cu1 O2 1.862239 1_555
Cu1 O2 1.862239 1_455
Cu1 O4 1.989721 1_555
Cu1 O4 1.989721 1_545
Cu2 O5 1.943015 1_555
Cu2 O0 2.050339 1_545
Cu2 O0 2.050339 1_555
O1 Y0 2.291019 1_545
O1 Y0 2.291019 1_555
O2 Y0 2.689179 1_545
O2 Y0 2.689179 1_555
O3 Y0 2.337188 1_455
O3 Y0 2.337188 1_555
O4 Y0 2.424321 1_455
O4 Y0 2.424321 1_555
