# generated using pymatgen
data_Na2CaTiSi(SO6)2
_symmetry_space_group_name_H-M   'P 1'
_cell_length_a   9.11167516
_cell_length_b   9.14902738
_cell_length_c   22.79195246
_cell_angle_alpha   91.01402533
_cell_angle_beta   90.00000000
_cell_angle_gamma   119.86503888
_symmetry_Int_Tables_number   1
_chemical_formula_structural   Na2CaTiSi(SO6)2
_chemical_formula_sum   'Na12 Ca6 Ti6 Si6 S12 O72'
_cell_volume   1647.34242788
_cell_formula_units_Z   6
loop_
 _symmetry_equiv_pos_site_id
 _symmetry_equiv_pos_as_xyz
  1  'x, y, z'
loop_
 _atom_site_type_symbol
 _atom_site_label
 _atom_site_symmetry_multiplicity
 _atom_site_fract_x
 _atom_site_fract_y
 _atom_site_fract_z
 _atom_site_occupancy
  Na  Na0  1  0.99642175  0.63156918  0.24282656  1
  Na  Na1  1  0.63514743  0.63156918  0.74282656  1
  Na  Na2  1  0.65036449  0.96440627  0.57396023  1
  Na  Na3  1  0.31404278  0.96440627  0.07396023  1
  Na  Na4  1  0.69610336  0.02580357  0.91063795  1
  Na  Na5  1  0.32969921  0.02580357  0.41063795  1
  Na  Na6  1  0.98506625  0.00087466  0.49620143  1
  Na  Na7  1  0.01580841  0.00087466  0.99620143  1
  Na  Na8  1  0.66018566  0.31106756  0.83023183  1
  Na  Na9  1  0.65088290  0.31106756  0.33023183  1
  Na  Na10  1  0.32342790  0.64755733  0.16255033  1
  Na  Na11  1  0.32412843  0.64755733  0.66255033  1
  Ca  Ca0  1  0.99412464  0.00925738  0.35231833  1
  Ca  Ca1  1  0.01513274  0.00925738  0.85231833  1
  Ca  Ca2  1  0.66248817  0.32598623  0.68494544  1
  Ca  Ca3  1  0.66349905  0.32598623  0.18494544  1
  Ca  Ca4  1  0.32661379  0.66054806  0.01850040  1
  Ca  Ca5  1  0.33393326  0.66054806  0.51850040  1
  Ti  Ti0  1  0.97790807  0.98109457  0.65084922  1
  Ti  Ti1  1  0.00318650  0.98109457  0.15084922  1
  Ti  Ti2  1  0.67479753  0.34563110  0.98105995  1
  Ti  Ti3  1  0.67083457  0.34563110  0.48105995  1
  Ti  Ti4  1  0.35255247  0.69832615  0.31400040  1
  Ti  Ti5  1  0.34577268  0.69832615  0.81400040  1
  Si  Si0  1  0.29761942  0.99740780  0.25584759  1
  Si  Si1  1  0.69978838  0.99740780  0.75584759  1
  Si  Si2  1  0.67062984  0.62942592  0.58909490  1
  Si  Si3  1  0.95879708  0.62942592  0.08909490  1
  Si  Si4  1  0.34549822  0.97952911  0.92382658  1
  Si  Si5  1  0.63402989  0.97952911  0.42382658  1
  S  S0  1  0.69978229  0.71331821  0.24951830  1
  S  S1  1  0.01500302  0.30185903  0.24865569  1
  S  S2  1  0.28685601  0.30185903  0.74865569  1
  S  S3  1  0.01353591  0.71331821  0.74951830  1
  S  S4  1  0.95223963  0.32035268  0.58249104  1
  S  S5  1  0.36118972  0.04528101  0.57999860  1
  S  S6  1  0.68409229  0.04528101  0.07999860  1
  S  S7  1  0.36811405  0.32035268  0.08249104  1
  S  S8  1  0.62239146  0.65444504  0.91538078  1
  S  S9  1  0.02953047  0.37909707  0.91638599  1
  S  S10  1  0.34956560  0.37909707  0.41638599  1
  S  S11  1  0.03205258  0.65444504  0.41538078  1
  O  O0  1  0.20835403  0.99831494  0.31501769  1
  O  O1  1  0.79912642  0.78910908  0.30241894  1
  O  O2  1  0.99187538  0.20926964  0.30213815  1
  O  O3  1  0.21739426  0.20926964  0.80213815  1
  O  O4  1  0.98998267  0.78910908  0.80241894  1
  O  O5  1  0.78996091  0.99831494  0.81501769  1
  O  O6  1  0.80665303  0.96568533  0.69697531  1
  O  O7  1  0.18110005  0.20486967  0.69593414  1
  O  O8  1  0.03494955  0.82157308  0.69679804  1
  O  O9  1  0.78662353  0.82157308  0.19679804  1
  O  O10  1  0.02376962  0.20486967  0.19593414  1
  O  O11  1  0.15903230  0.96568533  0.19697531  1
  O  O12  1  0.87956222  0.34234085  0.63622465  1
  O  O13  1  0.47019039  0.11967620  0.63165734  1
  O  O14  1  0.65859036  0.54243808  0.64945664  1
  O  O15  1  0.88384873  0.54243808  0.14945664  1
  O  O16  1  0.64948680  0.11967620  0.13165734  1
  O  O17  1  0.46277963  0.34234085  0.13622465  1
  O  O18  1  0.45914105  0.29831391  0.02971766  1
  O  O19  1  0.82597046  0.51545254  0.03123958  1
  O  O20  1  0.69728476  0.14824809  0.02622380  1
  O  O21  1  0.45096433  0.14824809  0.52622380  1
  O  O22  1  0.68948308  0.51545254  0.53123958  1
  O  O23  1  0.83917386  0.29831391  0.52971766  1
  O  O24  1  0.54272773  0.67734807  0.96714031  1
  O  O25  1  0.12358970  0.44821392  0.97056146  1
  O  O26  1  0.33829335  0.87690771  0.97971679  1
  O  O27  1  0.53861336  0.87690771  0.47971679  1
  O  O28  1  0.32462321  0.44821392  0.47056146  1
  O  O29  1  0.13461934  0.67734807  0.46714031  1
  O  O30  1  0.11459687  0.63148144  0.36063003  1
  O  O31  1  0.49402673  0.86229807  0.36295160  1
  O  O32  1  0.36491693  0.48051204  0.36414770  1
  O  O33  1  0.11559411  0.48051204  0.86414770  1
  O  O34  1  0.36827033  0.86229807  0.86295160  1
  O  O35  1  0.51688357  0.63148144  0.86063003  1
  O  O36  1  0.01005934  0.80312223  0.41083240  1
  O  O37  1  0.81887571  0.00699948  0.41698961  1
  O  O38  1  0.21120497  0.20168905  0.41104716  1
  O  O39  1  0.99048408  0.20168905  0.91104716  1
  O  O40  1  0.18812377  0.00699948  0.91698961  1
  O  O41  1  0.79306289  0.80312223  0.91083240  1
  O  O42  1  0.95474834  0.15520905  0.58497965  1
  O  O43  1  0.19598877  0.04077745  0.58557601  1
  O  O44  1  0.85697990  0.82479162  0.59420187  1
  O  O45  1  0.96781173  0.82479162  0.09420187  1
  O  O46  1  0.84478869  0.04077745  0.08557601  1
  O  O47  1  0.20046070  0.15520905  0.08497965  1
  O  O48  1  0.66331933  0.14765649  0.74800013  1
  O  O49  1  0.46357408  0.33511308  0.74413484  1
  O  O50  1  0.86615366  0.54387040  0.74246268  1
  O  O51  1  0.67771774  0.54387040  0.24246268  1
  O  O52  1  0.87154000  0.33511308  0.24413484  1
  O  O53  1  0.48433816  0.14765649  0.24800013  1
  O  O54  1  0.63582071  0.49640167  0.92041991  1
  O  O55  1  0.85581689  0.36872714  0.92109947  1
  O  O56  1  0.53194162  0.16233473  0.92586183  1
  O  O57  1  0.63039411  0.16233473  0.42586183  1
  O  O58  1  0.51291125  0.36872714  0.42109947  1
  O  O59  1  0.86058197  0.49640167  0.42041991  1
  O  O60  1  0.33946260  0.46247668  0.07576886  1
  O  O61  1  0.15346277  0.67901341  0.08223468  1
  O  O62  1  0.53897959  0.87214720  0.07429422  1
  O  O63  1  0.33316661  0.87214720  0.57429422  1
  O  O64  1  0.52554965  0.67901341  0.58223468  1
  O  O65  1  0.12301308  0.46247668  0.57576886  1
  O  O66  1  0.29867422  0.80770408  0.25862517  1
  O  O67  1  0.52782198  0.70033087  0.25372777  1
  O  O68  1  0.17547118  0.47144480  0.25151237  1
  O  O69  1  0.29597261  0.47144480  0.75151237  1
  O  O70  1  0.17250790  0.70033087  0.75372777  1
  O  O71  1  0.50902887  0.80770408  0.75862517  1
loop_
_geom_bond_atom_site_label_1
_geom_bond_atom_site_label_2
_geom_bond_distance
_geom_bond_site_symmetry_2
Na0 O15 2.313306 1_555
Na0 O52 2.362490 1_555
Na0 O66 2.422953 1_655
Na0 O51 2.599217 1_555
Na0 O68 2.690260 1_655
Na0 O11 2.869503 1_655
Na0 O30 2.893000 1_655
Na1 O14 2.313308 1_555
Na1 O49 2.362489 1_555
Na1 O71 2.422960 1_555
Na1 O50 2.599226 1_555
Na1 O69 2.690268 1_555
Na1 O6 2.869503 1_555
Na1 O35 2.893003 1_555
Na2 O64 2.281816 1_555
Na2 O27 2.327845 1_555
Na2 O42 2.442369 1_565
Na2 O63 2.576127 1_555
Na2 O44 2.793642 1_555
Na2 O23 2.860764 1_565
Na2 O13 2.949398 1_565
Na3 O61 2.281817 1_555
Na3 O26 2.327840 1_554
Na3 O47 2.442376 1_565
Na3 O62 2.576110 1_555
Na3 O45 2.793650 1_455
Na3 O18 2.860764 1_565
Na3 O16 2.949398 1_565
Na4 O39 2.342023 1_555
Na4 O5 2.395638 1_545
Na4 O56 2.400742 1_555
Na4 O41 2.593079 1_545
Na4 O55 2.728448 1_555
Na4 O34 2.798944 1_545
Na4 O20 2.842325 1_556
Na5 O38 2.342016 1_555
Na5 O0 2.395634 1_545
Na5 O57 2.400758 1_555
Na5 O36 2.593072 1_545
Na5 O58 2.728448 1_555
Na5 O31 2.798944 1_545
Na5 O21 2.842329 1_555
Na6 O37 2.375646 1_555
Na6 O42 2.540018 1_555
Na6 O44 2.683526 1_545
Na6 O43 2.692805 1_655
Na6 O36 2.719707 1_645
Na6 O38 2.782805 1_655
Na7 O40 2.375646 1_555
Na7 O47 2.540018 1_556
Na7 O45 2.683526 1_446
Na7 O46 2.692804 1_456
Na7 O41 2.719707 1_445
Na7 O39 2.782805 1_455
Na8 O48 2.385799 1_555
Na8 O56 2.547377 1_555
Na8 O55 2.601880 1_555
Na8 O54 2.720535 1_555
Na8 O49 2.741569 1_555
Na8 O50 2.868834 1_555
Na9 O53 2.385799 1_555
Na9 O57 2.547377 1_555
Na9 O58 2.601880 1_555
Na9 O59 2.720535 1_555
Na9 O52 2.741569 1_555
Na9 O51 2.868834 1_555
Na10 O61 2.508910 1_555
Na10 O68 2.545028 1_555
Na10 O60 2.632232 1_555
Na10 O67 2.662528 1_555
Na10 O66 2.684798 1_555
Na10 O62 2.872789 1_555
Na11 O64 2.508910 1_555
Na11 O69 2.545028 1_555
Na11 O65 2.632232 1_555
Na11 O70 2.662528 1_555
Na11 O71 2.684798 1_555
Na11 O63 2.872789 1_555
Ca0 O37 2.165892 1_555
Ca0 O0 2.175926 1_645
Ca0 O2 2.183691 1_555
Ca0 O1 2.204993 1_545
Ca0 O38 2.291747 1_655
Ca0 O36 2.391273 1_645
Ca1 O40 2.165892 1_555
Ca1 O5 2.175926 1_445
Ca1 O3 2.183691 1_555
Ca1 O4 2.204993 1_445
Ca1 O39 2.291747 1_455
Ca1 O41 2.391273 1_445
Ca2 O14 2.168856 1_555
Ca2 O13 2.175558 1_555
Ca2 O48 2.196055 1_555
Ca2 O12 2.208784 1_555
Ca2 O49 2.293156 1_555
Ca2 O50 2.315033 1_555
Ca3 O15 2.168856 1_555
Ca3 O16 2.175558 1_555
Ca3 O53 2.196055 1_555
Ca3 O17 2.208784 1_555
Ca3 O52 2.293156 1_555
Ca3 O51 2.315033 1_555
Ca4 O26 2.136160 1_554
Ca4 O25 2.176158 1_554
Ca4 O61 2.210103 1_555
Ca4 O24 2.230796 1_554
Ca4 O62 2.300280 1_555
Ca4 O60 2.301379 1_555
Ca5 O27 2.136160 1_555
Ca5 O28 2.176158 1_555
Ca5 O64 2.210103 1_555
Ca5 O29 2.230796 1_555
Ca5 O63 2.300280 1_555
Ca5 O65 2.301379 1_555
O0 Si0 1.576919 1_555
O1 S0 1.448871 1_555
O2 S1 1.451428 1_655
O3 S2 1.451428 1_555
O4 S3 1.448871 1_655
O5 Si1 1.576919 1_555
O6 Si1 1.760819 1_555
O6 Ti0 1.829257 1_555
O7 S2 1.506833 1_555
O7 Ti0 2.196760 1_445
O8 S3 1.520696 1_555
O8 Ti0 2.075207 1_455
O9 S0 1.520696 1_555
O9 Ti1 2.075207 1_655
O10 S1 1.506833 1_555
O10 Ti1 2.196760 1_545
O11 Si0 1.760819 1_555
O11 Ti1 1.829257 1_555
O12 S4 1.450112 1_555
O13 S5 1.460943 1_555
O14 Si2 1.577955 1_555
O15 Si3 1.577955 1_555
O16 S6 1.460943 1_555
O17 S7 1.450112 1_555
O18 S7 1.527512 1_555
O18 Ti2 2.109099 1_554
O19 Si3 1.727819 1_555
O19 Ti2 1.850695 1_554
O20 S6 1.527144 1_555
O20 Ti2 2.190212 1_554
O21 S5 1.527144 1_555
O21 Ti3 2.190212 1_555
O22 Si2 1.727819 1_555
O22 Ti3 1.850695 1_555
O23 S4 1.527512 1_555
O23 Ti3 2.109099 1_555
O24 S8 1.450937 1_555
O25 S9 1.446255 1_555
O26 Si4 1.577799 1_555
O27 Si5 1.577799 1_555
O28 S10 1.446255 1_555
O29 S11 1.450937 1_555
O30 S11 1.521547 1_555
O30 Ti4 2.215160 1_555
O31 Ti4 1.780964 1_555
O31 Si5 1.813126 1_555
O32 S10 1.485891 1_555
O32 Ti4 2.365259 1_555
O33 S9 1.485891 1_555
O33 Ti5 2.365259 1_555
O34 Ti5 1.780964 1_555
O34 Si4 1.813126 1_555
O35 S8 1.521547 1_555
O35 Ti5 2.215160 1_555
O36 S11 1.475688 1_555
O37 Si5 1.582396 1_545
O38 S10 1.481136 1_555
O39 S9 1.481139 1_655
O40 Si4 1.582387 1_545
O41 S8 1.475694 1_555
O42 S4 1.524467 1_555
O42 Ti0 2.292473 1_545
O43 S5 1.490662 1_555
O43 Ti0 2.325525 1_445
O44 Si2 1.749721 1_555
O44 Ti0 1.814222 1_555
O45 Si3 1.749725 1_555
O45 Ti1 1.814222 1_655
O46 S6 1.490653 1_555
O46 Ti1 2.325525 1_645
O47 S7 1.524471 1_555
O47 Ti1 2.292473 1_545
O48 Si1 1.579758 1_545
O49 S2 1.486316 1_555
O50 S3 1.466430 1_655
O51 S0 1.466434 1_555
O52 S1 1.486307 1_655
O53 Si0 1.579764 1_545
O54 S8 1.516905 1_555
O54 Ti2 2.120015 1_555
O55 S9 1.541646 1_655
O55 Ti2 2.072654 1_555
O56 Si4 1.689068 1_545
O56 Ti2 1.959774 1_555
O57 Si5 1.689058 1_545
O57 Ti3 1.959774 1_555
O58 S10 1.541664 1_555
O58 Ti3 2.072654 1_555
O59 S11 1.516895 1_655
O59 Ti3 2.120015 1_555
O60 S7 1.458603 1_555
O61 Si3 1.605455 1_455
O62 S6 1.476855 1_565
O63 S5 1.476849 1_565
O64 Si2 1.605472 1_555
O65 S4 1.458592 1_455
O66 Si0 1.742678 1_555
O66 Ti4 1.835563 1_555
O67 S0 1.514371 1_555
O67 Ti4 2.099904 1_555
O68 S1 1.512113 1_555
O68 Ti4 2.345281 1_555
O69 S2 1.512117 1_555
O69 Ti5 2.345281 1_555
O70 S3 1.514362 1_555
O70 Ti5 2.099904 1_555
O71 Si1 1.742682 1_555
O71 Ti5 1.835563 1_555
