# generated using pymatgen
data_SbCl3F2
_symmetry_space_group_name_H-M   'P 1'
_cell_length_a   9.88691687
_cell_length_b   9.88687669
_cell_length_c   9.88710658
_cell_angle_alpha   97.41971826
_cell_angle_beta   97.42016971
_cell_angle_gamma   137.87787518
_symmetry_Int_Tables_number   1
_chemical_formula_structural   SbCl3F2
_chemical_formula_sum   'Sb4 Cl12 F8'
_cell_volume   604.92309331
_cell_formula_units_Z   4
loop_
 _symmetry_equiv_pos_site_id
 _symmetry_equiv_pos_as_xyz
  1  'x, y, z'
loop_
 _atom_site_type_symbol
 _atom_site_label
 _atom_site_symmetry_multiplicity
 _atom_site_fract_x
 _atom_site_fract_y
 _atom_site_fract_z
 _atom_site_occupancy
  Sb  Sb0  1  0.52963039  0.26451676  0.82750428  1
  Sb  Sb1  1  0.73547487  0.56297937  0.26511408  1
  Sb  Sb2  1  0.29786864  0.47036269  0.73488416  1
  Sb  Sb3  1  0.43702755  0.70213989  0.17249108  1
  Cl  Cl0  1  0.69728839  0.19523413  0.90203152  1
  Cl  Cl1  1  0.55156979  0.84681006  0.41965590  1
  Cl  Cl2  1  0.86808607  0.44841878  0.29523361  1
  Cl  Cl3  1  0.42715832  0.13191864  0.58034405  1
  Cl  Cl4  1  0.12552601  0.35015827  0.14365582  1
  Cl  Cl5  1  0.64984481  0.79350425  0.77536409  1
  Cl  Cl6  1  0.01813767  0.87447785  0.22463765  1
  Cl  Cl7  1  0.20648676  0.98185960  0.85634658  1
  Cl  Cl8  1  0.20474792  0.30271489  0.49794421  1
  Cl  Cl9  1  0.29320208  0.79525812  0.09797016  1
  Cl  Cl10  1  0.15318569  0.57285166  0.70476646  1
  Cl  Cl11  1  0.80476296  0.70679472  0.50205318  1
  F  F0  1  0.78616592  0.54619178  0.84054053  1
  F  F1  1  0.45379337  0.29433127  0.23997153  1
  F  F2  1  0.05436280  0.21382378  0.76002599  1
  F  F3  1  0.70567299  0.94564073  0.15946007  1
  F  F4  1  0.38270887  0.58037147  0.95808496  1
  F  F5  1  0.57537473  0.61728361  0.19765802  1
  F  F6  1  0.41963478  0.37772698  0.80234591  1
  F  F7  1  0.62228763  0.42462569  0.04191514  1
loop_
_geom_bond_atom_site_label_1
_geom_bond_atom_site_label_2
_geom_bond_distance
_geom_bond_site_symmetry_2
Cl0 Sb0 2.293278 1_555
Cl1 Sb3 2.297778 1_555
Cl2 Sb1 2.297783 1_555
Cl3 Sb0 2.297737 1_555
Cl4 Sb3 2.301043 1_555
Cl5 Sb2 2.301011 1_555
Cl6 Sb1 2.301007 1_455
Cl7 Sb0 2.301051 1_565
Cl8 Sb2 2.293312 1_555
Cl9 Sb3 2.293282 1_555
Cl10 Sb2 2.297783 1_555
Cl11 Sb1 2.293308 1_555
F0 Sb0 1.884137 1_555
F1 Sb1 1.884185 1_555
F2 Sb2 1.884184 1_555
F3 Sb3 1.884154 1_555
F4 Sb2 2.074891 1_555
F4 Sb3 2.078290 1_556
F5 Sb3 2.074863 1_555
F5 Sb1 2.078257 1_555
F6 Sb0 2.074884 1_555
F6 Sb2 2.078247 1_555
F7 Sb1 2.074869 1_555
F7 Sb0 2.078344 1_554
