# generated using pymatgen
data_Ba2MgZnWO6
_symmetry_space_group_name_H-M   'P 1'
_cell_length_a   6.46205353
_cell_length_b   7.20570419
_cell_length_c   7.20570384
_cell_angle_alpha   50.73803997
_cell_angle_beta   54.10240382
_cell_angle_gamma   54.10239149
_symmetry_Int_Tables_number   1
_chemical_formula_structural   Ba2MgZnWO6
_chemical_formula_sum   'Ba2 Mg1 Zn1 W1 O6'
_cell_volume   197.65858214
_cell_formula_units_Z   1
loop_
 _symmetry_equiv_pos_site_id
 _symmetry_equiv_pos_as_xyz
  1  'x, y, z'
loop_
 _atom_site_type_symbol
 _atom_site_label
 _atom_site_symmetry_multiplicity
 _atom_site_fract_x
 _atom_site_fract_y
 _atom_site_fract_z
 _atom_site_occupancy
  Ba  Ba0  1  0.69846985  0.67878654  0.67878655  1
  Ba  Ba1  1  0.19725064  0.30131185  0.30131085  1
  Mg  Mg0  1  0.87699460  0.91739734  0.91739734  1
  Zn  Zn0  1  0.46753265  0.53478966  0.53478966  1
  W  W0  1  0.11066916  0.05491341  0.05491341  1
  O  O0  1  0.22072238  0.73702536  0.73702436  1
  O  O1  1  0.75288615  0.20334813  0.20334713  1
  O  O2  1  0.74260104  0.71473251  0.27261086  1
  O  O3  1  0.74260104  0.27260986  0.71473251  1
  O  O4  1  0.27742874  0.24241177  0.71767256  1
  O  O5  1  0.27742774  0.71767356  0.24241177  1
loop_
_geom_bond_atom_site_label_1
_geom_bond_atom_site_label_2
_geom_bond_distance
_geom_bond_site_symmetry_2
Ba0 O2 2.619690 1_555
Ba0 O3 2.619697 1_555
Ba0 O0 2.658491 1_555
Ba0 O1 3.146911 1_556
Ba0 O1 3.146918 1_565
Ba0 O5 3.206479 1_655
Ba0 O4 3.206481 1_655
Ba0 O4 3.400560 1_565
Ba0 O5 3.400563 1_556
Ba1 O2 2.686643 1_455
Ba1 O3 2.686646 1_455
Ba1 O1 2.928289 1_555
Ba1 O4 3.066422 1_555
Ba1 O5 3.066422 1_555
Ba1 O0 3.176501 1_554
Ba1 O0 3.176501 1_545
Mg0 O3 1.894093 1_565
Mg0 O2 1.894098 1_556
Mg0 O0 1.918203 1_655
O0 Zn0 2.006921 1_555
O1 W0 1.811522 1_655
O2 Zn0 2.018443 1_555
O3 Zn0 2.018442 1_555
O4 W0 1.836483 1_556
O4 Zn0 2.303647 1_555
O5 W0 1.836477 1_565
O5 Zn0 2.303649 1_555
