# generated using pymatgen
data_KMgFe(SO4)2
_symmetry_space_group_name_H-M   'P 1'
_cell_length_a   5.26445894
_cell_length_b   5.25256802
_cell_length_c   7.56008161
_cell_angle_alpha   83.18764588
_cell_angle_beta   83.11997328
_cell_angle_gamma   64.26157789
_symmetry_Int_Tables_number   1
_chemical_formula_structural   KMgFe(SO4)2
_chemical_formula_sum   'K1 Mg1 Fe1 S2 O8'
_cell_volume   186.43497327
_cell_formula_units_Z   1
loop_
 _symmetry_equiv_pos_site_id
 _symmetry_equiv_pos_as_xyz
  1  'x, y, z'
loop_
 _atom_site_type_symbol
 _atom_site_label
 _atom_site_symmetry_multiplicity
 _atom_site_fract_x
 _atom_site_fract_y
 _atom_site_fract_z
 _atom_site_occupancy
  K  K0  1  0.95721700  0.95643100  0.52880700  1
  Mg  Mg0  1  0.32549900  0.32229200  0.32421400  1
  Fe  Fe0  1  0.99839900  0.99841600  0.99649800  1
  S  S0  1  0.62877700  0.63040600  0.20917200  1
  S  S1  1  0.37707500  0.37626200  0.78839300  1
  O  O0  1  0.25035100  0.68653100  0.81219200  1
  O  O1  1  0.30758500  0.73101900  0.20465200  1
  O  O2  1  0.73111200  0.30786400  0.20617400  1
  O  O3  1  0.68637400  0.25034200  0.81286500  1
  O  O4  1  0.23654500  0.23589200  0.91755600  1
  O  O5  1  0.74819100  0.74804900  0.05396800  1
  O  O6  1  0.34338200  0.34070700  0.59859800  1
  O  O7  1  0.68727300  0.69356900  0.38024500  1
loop_
_geom_bond_atom_site_label_1
_geom_bond_atom_site_label_2
_geom_bond_distance
_geom_bond_site_symmetry_2
K0 O0 2.674436 1_655
K0 O3 2.677532 1_565
K0 O7 2.764376 1_555
K0 O2 2.914232 1_565
K0 O1 2.918609 1_655
K0 O6 2.995703 1_565
K0 O6 3.002105 1_655
Mg0 O6 2.103214 1_555
Mg0 O2 2.186484 1_555
Mg0 O1 2.195261 1_555
Fe0 O4 2.118072 1_665
Fe0 O0 2.143829 1_655
Fe0 O3 2.144594 1_565
Fe0 O5 2.210213 1_556
Fe0 O1 2.280843 1_656
Fe0 O2 2.285844 1_566
O0 S1 1.493287 1_555
O1 S0 1.540470 1_555
O2 S0 1.540923 1_555
O3 S1 1.493585 1_555
O4 S1 1.474562 1_555
O5 S0 1.463713 1_555
O6 S1 1.509469 1_555
O7 S0 1.470899 1_555
