# generated using pymatgen
data_Na5Ta3Si6GeO24
_symmetry_space_group_name_H-M   'P 1'
_cell_length_a   8.94698304
_cell_length_b   8.94086018
_cell_length_c   22.30301573
_cell_angle_alpha   90.29328035
_cell_angle_beta   89.85133976
_cell_angle_gamma   120.18282096
_symmetry_Int_Tables_number   1
_chemical_formula_structural   Na5Ta3Si6GeO24
_chemical_formula_sum   'Na15 Ta9 Si18 Ge3 O72'
_cell_volume   1542.20259797
_cell_formula_units_Z   3
loop_
 _symmetry_equiv_pos_site_id
 _symmetry_equiv_pos_as_xyz
  1  'x, y, z'
loop_
 _atom_site_type_symbol
 _atom_site_label
 _atom_site_symmetry_multiplicity
 _atom_site_fract_x
 _atom_site_fract_y
 _atom_site_fract_z
 _atom_site_occupancy
  Na  Na0  1  0.36800783  0.36660392  0.24633316  1
  Na  Na1  1  0.99339665  0.62859671  0.24575894  1
  Na  Na2  1  0.63775692  0.63136417  0.74657506  1
  Na  Na3  1  0.99911249  0.36743686  0.74716828  1
  Na  Na4  1  0.03285337  0.69971446  0.58485060  1
  Na  Na5  1  0.30261408  0.96866341  0.08531743  1
  Na  Na6  1  0.69834939  0.03195342  0.91879795  1
  Na  Na7  1  0.96954430  0.29734693  0.41215174  1
  Na  Na8  1  0.33215082  0.03435312  0.41307630  1
  Na  Na9  1  0.98753123  0.99655519  0.49616100  1
  Na  Na10  1  0.00025123  0.00011798  0.00068179  1
  Na  Na11  1  0.65423891  0.32991620  0.83139828  1
  Na  Na12  1  0.66646990  0.33245338  0.32782106  1
  Na  Na13  1  0.34733550  0.66995629  0.16511328  1
  Na  Na14  1  0.34561823  0.67972379  0.66482227  1
  Ta  Ta0  1  0.00485744  0.00099397  0.85435131  1
  Ta  Ta1  1  0.00033906  0.00372772  0.64253259  1
  Ta  Ta2  1  0.99335122  0.99925245  0.14441205  1
  Ta  Ta3  1  0.66819376  0.33860647  0.97823650  1
  Ta  Ta4  1  0.66553637  0.33462998  0.47818726  1
  Ta  Ta5  1  0.33254405  0.66200084  0.02453634  1
  Ta  Ta6  1  0.33814536  0.66775403  0.52214714  1
  Ta  Ta7  1  0.33582910  0.66940670  0.31014853  1
  Ta  Ta8  1  0.33303276  0.66882787  0.81109975  1
  Si  Si0  1  0.29111143  0.00714429  0.25066807  1
  Si  Si1  1  0.71712348  0.71255726  0.25176160  1
  Si  Si2  1  0.98715112  0.27890929  0.25236527  1
  Si  Si3  1  0.29805126  0.28635979  0.74840370  1
  Si  Si4  1  0.99751903  0.70763536  0.74683983  1
  Si  Si5  1  0.70981078  0.00670371  0.74888936  1
  Si  Si6  1  0.94862607  0.33247275  0.58503938  1
  Si  Si7  1  0.38700331  0.05171273  0.58570704  1
  Si  Si8  1  0.65993372  0.61323922  0.58736282  1
  Si  Si9  1  0.94957804  0.61401278  0.08792217  1
  Si  Si10  1  0.66896703  0.05459524  0.08497509  1
  Si  Si11  1  0.38796037  0.33810841  0.08800325  1
  Si  Si12  1  0.61976132  0.66396055  0.91571724  1
  Si  Si13  1  0.04538791  0.37868889  0.91610492  1
  Si  Si14  1  0.32830277  0.95294641  0.91916516  1
  Si  Si15  1  0.63108176  0.95190961  0.41564726  1
  Si  Si16  1  0.33034651  0.37430379  0.41434565  1
  Si  Si17  1  0.04276131  0.67375108  0.41557154  1
  Ge  Ge0  1  0.99801007  0.99772821  0.35228750  1
  Ge  Ge1  1  0.66284218  0.32944519  0.68751577  1
  Ge  Ge2  1  0.66577562  0.33020287  0.18858274  1
  O  O0  1  0.20542682  0.04447712  0.31046779  1
  O  O1  1  0.84722362  0.80293516  0.30845513  1
  O  O2  1  0.96554864  0.16866470  0.31326621  1
  O  O3  1  0.19763439  0.16728115  0.80701485  1
  O  O4  1  0.96453994  0.80508910  0.80389431  1
  O  O5  1  0.83048324  0.03711280  0.80877790  1
  O  O6  1  0.80509341  0.96791152  0.69279924  1
  O  O7  1  0.16602166  0.19522362  0.69181327  1
  O  O8  1  0.02746648  0.82516566  0.68743994  1
  O  O9  1  0.80506406  0.83170552  0.19225791  1
  O  O10  1  0.03188871  0.19235742  0.19525596  1
  O  O11  1  0.16777064  0.96773966  0.19148838  1
  O  O12  1  0.86761980  0.37426850  0.64416112  1
  O  O13  1  0.50795139  0.14167228  0.64318225  1
  O  O14  1  0.63604606  0.50452300  0.64813536  1
  O  O15  1  0.86480355  0.50282517  0.14842616  1
  O  O16  1  0.62629497  0.14157214  0.14173749  1
  O  O17  1  0.49898313  0.36755045  0.14892975  1
  O  O18  1  0.47656949  0.30274181  0.02903817  1
  O  O19  1  0.83296445  0.52252326  0.02803536  1
  O  O20  1  0.69386559  0.16035124  0.02233703  1
  O  O21  1  0.46966397  0.16010958  0.52347185  1
  O  O22  1  0.69326095  0.52111026  0.52882734  1
  O  O23  1  0.83557478  0.30664907  0.52407914  1
  O  O24  1  0.52601067  0.69839193  0.97283091  1
  O  O25  1  0.16633358  0.47650957  0.97403375  1
  O  O26  1  0.30569029  0.84163639  0.97948876  1
  O  O27  1  0.53119302  0.83292784  0.47432672  1
  O  O28  1  0.29790928  0.47150408  0.47153413  1
  O  O29  1  0.16562714  0.70351394  0.47489919  1
  O  O30  1  0.13318353  0.63587141  0.35745287  1
  O  O31  1  0.49800436  0.86076161  0.35916310  1
  O  O32  1  0.35850248  0.49274073  0.35515627  1
  O  O33  1  0.13546014  0.49089032  0.85534768  1
  O  O34  1  0.35895514  0.85527418  0.86137676  1
  O  O35  1  0.50654926  0.64016913  0.85486909  1
  O  O36  1  0.03508781  0.85022364  0.40889512  1
  O  O37  1  0.82181497  0.97687002  0.40954852  1
  O  O38  1  0.15655102  0.18373643  0.41014804  1
  O  O39  1  0.02042666  0.18475282  0.91143666  1
  O  O40  1  0.15818630  0.97119255  0.91036286  1
  O  O41  1  0.80707229  0.84135804  0.90936632  1
  O  O42  1  0.96836798  0.16088044  0.58942668  1
  O  O43  1  0.19021184  0.02425351  0.58918991  1
  O  O44  1  0.83776449  0.80424375  0.58900702  1
  O  O45  1  0.97807255  0.81136436  0.08947132  1
  O  O46  1  0.83981872  0.03314995  0.09002468  1
  O  O47  1  0.19678284  0.16068632  0.09124396  1
  O  O48  1  0.70084278  0.18244815  0.74271321  1
  O  O49  1  0.48980175  0.31220803  0.74459273  1
  O  O50  1  0.82439019  0.51578535  0.74444558  1
  O  O51  1  0.69357979  0.51855647  0.24629977  1
  O  O52  1  0.82303971  0.30900719  0.24499611  1
  O  O53  1  0.48135230  0.18043201  0.24500324  1
  O  O54  1  0.63911980  0.49436859  0.92197954  1
  O  O55  1  0.85207272  0.35367562  0.92084968  1
  O  O56  1  0.50518025  0.14102966  0.92168346  1
  O  O57  1  0.64562692  0.14331040  0.42158580  1
  O  O58  1  0.49841482  0.34887447  0.42133960  1
  O  O59  1  0.85523694  0.49503268  0.42156019  1
  O  O60  1  0.36526620  0.50736156  0.07921093  1
  O  O61  1  0.14621668  0.64233862  0.08101478  1
  O  O62  1  0.49456621  0.86089401  0.07916023  1
  O  O63  1  0.35590432  0.85418572  0.57857473  1
  O  O64  1  0.49111352  0.63533764  0.57820438  1
  O  O65  1  0.13897552  0.50843640  0.57684889  1
  O  O66  1  0.30123366  0.82761094  0.25637992  1
  O  O67  1  0.52085043  0.68649083  0.25571953  1
  O  O68  1  0.16511813  0.47521875  0.25597054  1
  O  O69  1  0.31280443  0.47817105  0.75400998  1
  O  O70  1  0.16591322  0.68189217  0.75411349  1
  O  O71  1  0.52121152  0.82849429  0.75396450  1
loop_
_geom_bond_atom_site_label_1
_geom_bond_atom_site_label_2
_geom_bond_distance
_geom_bond_site_symmetry_2
Na0 O53 2.344482 1_555
Na0 O68 2.460238 1_555
Na0 O17 2.463646 1_555
Na0 O67 2.481224 1_555
Na0 O51 2.520200 1_555
Na0 O32 2.690201 1_555
Na0 O10 2.838500 1_555
Na0 O0 2.876748 1_555
Na1 O51 2.347322 1_555
Na1 O66 2.424705 1_655
Na1 O15 2.446979 1_555
Na1 O52 2.471552 1_555
Na1 O68 2.533072 1_655
Na1 O30 2.776105 1_655
Na1 O1 2.848382 1_555
Na1 O11 2.892138 1_655
Na2 O50 2.364849 1_555
Na2 O14 2.462480 1_555
Na2 O71 2.462723 1_555
Na2 O49 2.469352 1_555
Na2 O69 2.520293 1_555
Na2 O35 2.700764 1_555
Na2 O4 2.833327 1_555
Na2 O6 2.869136 1_555
Na3 O48 2.329914 1_555
Na3 O70 2.435872 1_655
Na3 O69 2.467209 1_655
Na3 O50 2.508550 1_555
Na3 O12 2.598735 1_555
Na3 O33 2.676156 1_655
Na3 O7 2.899660 1_655
Na3 O5 2.904678 1_555
Na4 O65 2.342401 1_555
Na4 O44 2.359493 1_455
Na4 O63 2.503407 1_555
Na4 O43 2.510219 1_565
Na4 O8 2.554035 1_555
Na4 O29 2.714958 1_555
Na4 O12 2.847090 1_455
Na4 O22 2.909178 1_455
Na5 O47 2.343768 1_565
Na5 O62 2.357558 1_555
Na5 O45 2.512270 1_455
Na5 O61 2.524369 1_555
Na5 O26 2.620172 1_554
Na5 O11 2.652929 1_555
Na5 O16 2.803080 1_565
Na5 O18 2.876360 1_565
Na6 O41 2.357211 1_545
Na6 O56 2.373973 1_555
Na6 O55 2.487721 1_555
Na6 O39 2.497685 1_655
Na6 O20 2.582776 1_556
Na6 O5 2.711462 1_555
Na6 O24 2.850842 1_545
Na6 O34 2.921019 1_545
Na7 O38 2.353994 1_655
Na7 O59 2.454920 1_555
Na7 O2 2.474280 1_555
Na7 O37 2.480139 1_545
Na7 O57 2.515225 1_555
Na7 O23 2.785284 1_555
Na7 O28 2.865132 1_655
Na7 O30 2.892310 1_655
Na8 O36 2.320123 1_545
Na8 O58 2.438139 1_555
Na8 O57 2.470776 1_555
Na8 O38 2.523457 1_555
Na8 O0 2.578683 1_555
Na8 O21 2.726997 1_555
Na8 O31 2.888611 1_545
Na8 O29 2.910384 1_545
Na9 O37 2.389516 1_555
Na9 O36 2.492029 1_655
Na9 O38 2.498143 1_665
Na9 O42 2.595181 1_565
Na9 O44 2.597169 1_555
Na9 O43 2.686500 1_665
Na10 O39 2.540016 1_554
Na10 O40 2.543358 1_544
Na10 O45 2.550366 1_445
Na10 O46 2.554108 1_455
Na10 O41 2.582958 1_444
Na10 O47 2.585139 1_555
Na11 O49 2.390641 1_555
Na11 O50 2.512757 1_555
Na11 O48 2.519199 1_555
Na11 O54 2.535691 1_555
Na11 O56 2.538020 1_555
Na11 O55 2.606560 1_555
Na12 O52 2.386727 1_555
Na12 O53 2.393508 1_555
Na12 O51 2.399183 1_555
Na12 O58 2.614426 1_555
Na12 O59 2.618182 1_555
Na12 O57 2.642905 1_555
Na13 O60 2.452363 1_555
Na13 O62 2.466515 1_555
Na13 O67 2.509575 1_555
Na13 O61 2.526440 1_555
Na13 O66 2.617489 1_555
Na13 O68 2.638255 1_555
Na14 O63 2.455033 1_555
Na14 O71 2.465363 1_555
Na14 O64 2.466290 1_555
Na14 O70 2.562365 1_555
Na14 O65 2.598900 1_555
Na14 O69 2.606150 1_555
Ge0 O1 1.853591 1_555
Ge0 O2 1.907556 1_565
Ge0 O0 1.924457 1_665
Ge0 O37 1.961431 1_555
Ge0 O36 1.975454 1_655
Ge0 O38 2.014608 1_665
Ge1 O13 1.835041 1_555
Ge1 O14 1.916174 1_555
Ge1 O12 1.925823 1_555
Ge1 O49 1.947564 1_555
Ge1 O48 1.956145 1_555
Ge1 O50 2.010837 1_555
Ge2 O16 1.856224 1_555
Ge2 O15 1.896696 1_555
Ge2 O17 1.905646 1_555
Ge2 O52 1.969379 1_555
Ge2 O53 1.970769 1_555
Ge2 O51 2.028093 1_555
O0 Si0 1.650863 1_555
O1 Si1 1.630357 1_555
O2 Si2 1.635425 1_555
O3 Si3 1.641895 1_555
O3 Ta0 1.930808 1_555
O4 Si4 1.646420 1_555
O4 Ta0 1.952201 1_665
O5 Si5 1.652955 1_555
O5 Ta0 2.022270 1_655
O6 Si5 1.642960 1_565
O6 Ta1 1.960091 1_665
O7 Si3 1.637588 1_555
O7 Ta1 1.942683 1_555
O8 Si4 1.631074 1_455
O8 Ta1 2.004522 1_565
O9 Si1 1.637491 1_555
O9 Ta2 1.920987 1_555
O10 Si2 1.637104 1_455
O10 Ta2 1.941408 1_445
O11 Si0 1.641908 1_565
O11 Ta2 2.017586 1_455
O12 Si6 1.632771 1_555
O13 Si7 1.607038 1_555
O14 Si8 1.621952 1_555
O15 Si9 1.623186 1_555
O16 Si10 1.624541 1_555
O17 Si11 1.625686 1_555
O18 Si11 1.643284 1_555
O18 Ta3 1.940823 1_554
O19 Si9 1.636930 1_555
O19 Ta3 1.913919 1_554
O20 Si10 1.641784 1_555
O20 Ta3 1.986337 1_554
O21 Si7 1.643348 1_555
O21 Ta4 1.945072 1_555
O22 Si8 1.644910 1_555
O22 Ta4 1.919198 1_555
O23 Si6 1.641335 1_555
O23 Ta4 1.953981 1_555
O24 Si12 1.634319 1_555
O24 Ta5 1.964446 1_556
O25 Si13 1.627622 1_555
O25 Ta5 1.933975 1_556
O26 Si14 1.628283 1_555
O26 Ta5 2.013075 1_556
O27 Si15 1.641755 1_555
O27 Ta6 1.934787 1_555
O28 Si16 1.645191 1_555
O28 Ta6 1.956859 1_555
O29 Si17 1.655249 1_555
O29 Ta6 2.025641 1_555
O30 Si17 1.647711 1_555
O30 Ta7 1.984159 1_555
O31 Si15 1.640238 1_555
O31 Ta7 1.928834 1_555
O32 Si16 1.634568 1_555
O32 Ta7 1.970591 1_555
O33 Si13 1.639318 1_555
O33 Ta8 1.951631 1_555
O34 Si14 1.651189 1_555
O34 Ta8 1.919241 1_555
O35 Si12 1.643310 1_555
O35 Ta8 1.959364 1_555
O36 Si17 1.621040 1_555
O37 Si15 1.611389 1_555
O38 Si16 1.632421 1_555
O39 Si13 1.635913 1_555
O39 Ta0 2.022149 1_555
O40 Si14 1.622737 1_555
O40 Ta0 1.973151 1_565
O41 Si12 1.634805 1_555
O41 Ta0 2.034971 1_665
O42 Si6 1.633584 1_555
O42 Ta1 1.970243 1_655
O43 Si7 1.652626 1_555
O43 Ta1 2.003303 1_555
O44 Si8 1.648250 1_555
O44 Ta1 2.024976 1_665
O45 Si9 1.651279 1_555
O45 Ta2 2.022634 1_555
O46 Si10 1.637655 1_555
O46 Ta2 1.970070 1_545
O47 Si11 1.649092 1_555
O47 Ta2 2.041310 1_445
O48 Si5 1.619710 1_555
O49 Si3 1.613893 1_555
O50 Si4 1.634720 1_555
O51 Si1 1.642681 1_555
O52 Si2 1.629217 1_555
O53 Si0 1.631786 1_555
O54 Si12 1.617106 1_555
O54 Ta3 1.991293 1_555
O55 Si13 1.631882 1_655
O55 Ta3 2.032440 1_555
O56 Si14 1.630639 1_545
O56 Ta3 2.057836 1_555
O57 Si15 1.654335 1_545
O57 Ta4 2.055247 1_555
O58 Si16 1.637834 1_555
O58 Ta4 2.015545 1_555
O59 Si17 1.640535 1_655
O59 Ta4 2.022955 1_555
O60 Si11 1.637640 1_555
O60 Ta5 1.977473 1_555
O61 Si9 1.653499 1_455
O61 Ta5 2.023215 1_555
O62 Si10 1.652991 1_565
O62 Ta5 2.035382 1_555
O63 Si7 1.650740 1_565
O63 Ta6 2.025033 1_555
O64 Si8 1.632254 1_555
O64 Ta6 1.982835 1_555
O65 Si6 1.648061 1_455
O65 Ta6 2.036433 1_555
O66 Si0 1.658122 1_565
O66 Ta7 1.998544 1_555
O67 Si1 1.653394 1_555
O67 Ta7 1.993608 1_555
O68 Si2 1.676753 1_455
O68 Ta7 2.031979 1_555
O69 Si3 1.656626 1_555
O69 Ta8 2.056339 1_555
O70 Si4 1.643026 1_455
O70 Ta8 2.012874 1_555
O71 Si5 1.642032 1_565
O71 Ta8 2.021654 1_555
