# generated using pymatgen
data_K3MoCl6
_symmetry_space_group_name_H-M   'P 1'
_cell_length_a   7.59431044
_cell_length_b   12.07741936
_cell_length_c   12.73983170
_cell_angle_alpha   71.70017059
_cell_angle_beta   90.00000000
_cell_angle_gamma   90.00000000
_symmetry_Int_Tables_number   1
_chemical_formula_structural   K3MoCl6
_chemical_formula_sum   'K12 Mo4 Cl24'
_cell_volume   1109.39829178
_cell_formula_units_Z   4
loop_
 _symmetry_equiv_pos_site_id
 _symmetry_equiv_pos_as_xyz
  1  'x, y, z'
loop_
 _atom_site_type_symbol
 _atom_site_label
 _atom_site_symmetry_multiplicity
 _atom_site_fract_x
 _atom_site_fract_y
 _atom_site_fract_z
 _atom_site_occupancy
  K  K0  1  0.93048743  0.26565343  0.18274526  1
  K  K1  1  0.43048743  0.23434657  0.81725474  1
  K  K2  1  0.06951257  0.73434657  0.81725474  1
  K  K3  1  0.56951257  0.76565343  0.18274526  1
  K  K4  1  0.42907257  0.11354903  0.18109153  1
  K  K5  1  0.92907257  0.38645097  0.81890847  1
  K  K6  1  0.57092743  0.88645097  0.81890847  1
  K  K7  1  0.07092743  0.61354903  0.18109153  1
  K  K8  1  0.44512309  0.35444976  0.40540497  1
  K  K9  1  0.94512309  0.14555024  0.59459503  1
  K  K10  1  0.55487691  0.64555024  0.59459503  1
  K  K11  1  0.05487691  0.85444976  0.40540497  1
  Mo  Mo0  1  0.50000000  -0.00000000  0.50000000  1
  Mo  Mo1  1  -0.00000000  0.50000000  0.50000000  1
  Mo  Mo2  1  0.50000000  0.50000000  0.00000000  1
  Mo  Mo3  1  -0.00000000  -0.00000000  0.00000000  1
  Cl  Cl0  1  0.00370991  0.37656363  0.38038052  1
  Cl  Cl1  1  0.50370991  0.12343637  0.61961948  1
  Cl  Cl2  1  -0.00370991  0.62343637  0.61961948  1
  Cl  Cl3  1  0.49629009  0.87656363  0.38038052  1
  Cl  Cl4  1  0.70248877  0.50591762  0.14868406  1
  Cl  Cl5  1  0.20248877  0.99408238  0.85131594  1
  Cl  Cl6  1  0.29751123  0.49408238  0.85131594  1
  Cl  Cl7  1  0.79751123  0.00591762  0.14868406  1
  Cl  Cl8  1  0.63224266  0.31330743  -0.00041425  1
  Cl  Cl9  1  0.13224266  0.18669257  0.00041425  1
  Cl  Cl10  1  0.36775734  0.68669257  0.00041425  1
  Cl  Cl11  1  0.86775734  0.81330743  -0.00041425  1
  Cl  Cl12  1  0.67974981  0.14866060  0.36869886  1
  Cl  Cl13  1  0.17974981  0.35133940  0.63130114  1
  Cl  Cl14  1  0.32025019  0.85133940  0.63130114  1
  Cl  Cl15  1  0.82025019  0.64866060  0.36869886  1
  Cl  Cl16  1  0.20641050  0.89458873  0.14727987  1
  Cl  Cl17  1  0.70641050  0.60541127  0.85272013  1
  Cl  Cl18  1  0.79358950  0.10541127  0.85272013  1
  Cl  Cl19  1  0.29358950  0.39458873  0.14727987  1
  Cl  Cl20  1  0.27083344  0.59867102  0.40683395  1
  Cl  Cl21  1  0.77083344  0.90132898  0.59316605  1
  Cl  Cl22  1  0.72916656  0.40132898  0.59316605  1
  Cl  Cl23  1  0.22916656  0.09867102  0.40683395  1
loop_
_geom_bond_atom_site_label_1
_geom_bond_atom_site_label_2
_geom_bond_distance
_geom_bond_site_symmetry_2
Cl0 Mo1 2.443831 1_555
Cl0 K7 3.214851 1_555
Cl0 K0 3.249767 1_455
Cl0 K9 3.263205 1_455
Cl0 K8 3.370005 1_555
Cl1 Mo0 2.443831 1_555
Cl1 K6 3.214851 1_545
Cl1 K1 3.249767 1_555
Cl1 K8 3.263205 1_555
Cl1 K9 3.370005 1_555
Cl2 Mo1 2.443831 1_555
Cl2 K5 3.214851 1_455
Cl2 K2 3.249767 1_555
Cl2 K11 3.263205 1_555
Cl2 K10 3.370005 1_455
Cl3 Mo0 2.443831 1_565
Cl3 K4 3.214851 1_565
Cl3 K3 3.249767 1_555
Cl3 K10 3.263205 1_555
Cl3 K11 3.370005 1_555
Cl4 Mo2 2.458224 1_555
Cl4 K7 3.166428 1_655
Cl4 K0 3.288754 1_555
Cl4 K3 3.450119 1_555
Cl4 K8 3.755811 1_555
Cl5 Mo3 2.458224 1_566
Cl5 K6 3.166428 1_555
Cl5 K1 3.288754 1_565
Cl5 K2 3.450119 1_555
Cl5 K9 3.755811 1_465
Cl6 Mo2 2.458224 1_556
Cl6 K5 3.166428 1_455
Cl6 K2 3.288754 1_555
Cl6 K1 3.450119 1_555
Cl6 K10 3.755811 1_555
Cl7 Mo3 2.458224 1_655
Cl7 K4 3.166428 1_555
Cl7 K3 3.288754 1_545
Cl7 K0 3.450119 1_555
Cl7 K11 3.755811 1_645
Cl8 Mo2 2.469831 1_555
Cl8 K5 3.143760 1_554
Cl8 K1 3.169203 1_554
Cl8 K4 3.169352 1_555
Cl8 K0 3.172192 1_555
Cl9 Mo3 2.469831 1_555
Cl9 K4 3.143760 1_555
Cl9 K0 3.169203 1_455
Cl9 K5 3.169352 1_454
Cl9 K1 3.172192 1_554
Cl10 Mo2 2.469831 1_555
Cl10 K7 3.143760 1_555
Cl10 K3 3.169203 1_555
Cl10 K6 3.169352 1_554
Cl10 K2 3.172192 1_554
Cl11 Mo3 2.469831 1_665
Cl11 K6 3.143760 1_554
Cl11 K2 3.169203 1_654
Cl11 K7 3.169352 1_655
Cl11 K3 3.172192 1_555
Cl12 Mo0 2.449307 1_555
Cl12 K0 3.022013 1_555
Cl12 K4 3.186372 1_555
Cl12 K8 3.209467 1_555
Cl12 K9 3.503891 1_555
Cl13 Mo1 2.449307 1_555
Cl13 K1 3.022013 1_555
Cl13 K5 3.186372 1_455
Cl13 K9 3.209467 1_455
Cl13 K8 3.503891 1_555
Cl14 Mo0 2.449307 1_565
Cl14 K2 3.022013 1_555
Cl14 K6 3.186372 1_555
Cl14 K10 3.209467 1_555
Cl14 K11 3.503891 1_555
Cl15 Mo1 2.449307 1_655
Cl15 K3 3.022013 1_555
Cl15 K7 3.186372 1_655
Cl15 K11 3.209467 1_655
Cl15 K10 3.503891 1_555
Cl16 Mo3 2.469509 1_565
Cl16 K3 3.129067 1_555
Cl16 K4 3.279254 1_565
Cl16 K11 3.372279 1_555
Cl16 K7 3.441926 1_555
Cl17 Mo2 2.469509 1_556
Cl17 K2 3.129067 1_655
Cl17 K5 3.279254 1_555
Cl17 K10 3.372279 1_555
Cl17 K6 3.441926 1_555
Cl18 Mo3 2.469509 1_656
Cl18 K1 3.129067 1_555
Cl18 K6 3.279254 1_545
Cl18 K9 3.372279 1_555
Cl18 K5 3.441926 1_555
Cl19 Mo2 2.469509 1_555
Cl19 K0 3.129067 1_455
Cl19 K7 3.279254 1_555
Cl19 K8 3.372279 1_555
Cl19 K4 3.441926 1_555
Cl20 Mo1 2.484163 1_555
Cl20 K7 3.206784 1_555
Cl20 K8 3.238196 1_555
Cl20 K10 3.397951 1_555
Cl20 K11 3.492503 1_555
Cl20 K3 3.707667 1_555
Cl21 Mo0 2.484163 1_565
Cl21 K6 3.206784 1_555
Cl21 K9 3.238196 1_565
Cl21 K11 3.397951 1_655
Cl21 K10 3.492503 1_555
Cl21 K2 3.707667 1_655
Cl22 Mo1 2.484163 1_655
Cl22 K5 3.206784 1_555
Cl22 K10 3.238196 1_555
Cl22 K8 3.397951 1_555
Cl22 K9 3.492503 1_555
Cl22 K1 3.707667 1_555
Cl23 Mo0 2.484163 1_555
Cl23 K4 3.206784 1_555
Cl23 K11 3.238196 1_545
Cl23 K9 3.397951 1_455
Cl23 K8 3.492503 1_555
Cl23 K0 3.707667 1_455
