# generated using pymatgen
data_MgMn2FeWO6
_symmetry_space_group_name_H-M   'P 1'
_cell_length_a   5.39164961
_cell_length_b   5.56076462
_cell_length_c   6.15594575
_cell_angle_alpha   61.54768198
_cell_angle_beta   58.30865699
_cell_angle_gamma   68.32962912
_symmetry_Int_Tables_number   1
_chemical_formula_structural   MgMn2FeWO6
_chemical_formula_sum   'Mg1 Mn2 Fe1 W1 O6'
_cell_volume   136.31894600
_cell_formula_units_Z   1
loop_
 _symmetry_equiv_pos_site_id
 _symmetry_equiv_pos_as_xyz
  1  'x, y, z'
loop_
 _atom_site_type_symbol
 _atom_site_label
 _atom_site_symmetry_multiplicity
 _atom_site_fract_x
 _atom_site_fract_y
 _atom_site_fract_z
 _atom_site_occupancy
  Mg  Mg0  1  0.39311226  0.85282153  0.46188964  1
  Mn  Mn0  1  0.83257929  0.69991664  0.68536349  1
  Mn  Mn1  1  0.22964694  0.40829312  0.10459202  1
  Fe  Fe0  1  0.62045462  0.26806005  0.52856987  1
  W  W0  1  0.98263758  0.02678646  0.01946368  1
  O  O0  1  0.11433347  -0.00367544  0.29271921  1
  O  O1  1  0.81252009  0.63975155  0.32953420  1
  O  O2  1  0.56923567  0.22143855  0.24433598  1
  O  O3  1  0.17711759  0.41036566  0.76544545  1
  O  O4  1  0.37379394  0.80463934  0.81570030  1
  O  O5  1  0.80841955  0.04795353  0.78940916  1
loop_
_geom_bond_atom_site_label_1
_geom_bond_atom_site_label_2
_geom_bond_distance
_geom_bond_site_symmetry_2
Mg0 O0 1.986839 1_565
Mg0 O4 2.013130 1_555
Mg0 O1 2.046085 1_555
Mg0 O2 2.093451 1_565
Mg0 O3 2.519999 1_555
Mn0 O3 2.069592 1_655
Mn0 O4 2.097070 1_555
Mn0 O0 2.249866 1_665
Mn0 O5 2.253907 1_565
Mn0 O1 2.428107 1_555
Mn1 O2 2.137805 1_555
Mn1 O4 2.168490 1_554
Mn1 O0 2.177886 1_555
Mn1 O1 2.218200 1_455
Mn1 O3 2.243892 1_554
Fe0 O5 2.006109 1_555
Fe0 O2 2.048857 1_555
Fe0 O3 2.122849 1_555
Fe0 O1 2.163372 1_555
Fe0 O0 2.557078 1_655
O0 W0 2.063278 1_455
O1 W0 2.195610 1_565
O2 W0 2.111884 1_555
O3 W0 2.201191 1_456
O4 W0 2.078485 1_466
O5 W0 2.014701 1_556
