# generated using pymatgen
data_Sb3(BrF8)2
_symmetry_space_group_name_H-M   'P 1'
_cell_length_a   7.45411077
_cell_length_b   7.45411077
_cell_length_c   14.37408419
_cell_angle_alpha   87.31992550
_cell_angle_beta   87.31992550
_cell_angle_gamma   60.86765061
_symmetry_Int_Tables_number   1
_chemical_formula_structural   Sb3(BrF8)2
_chemical_formula_sum   'Sb6 Br4 F32'
_cell_volume   696.61681727
_cell_formula_units_Z   2
loop_
 _symmetry_equiv_pos_site_id
 _symmetry_equiv_pos_as_xyz
  1  'x, y, z'
loop_
 _atom_site_type_symbol
 _atom_site_label
 _atom_site_symmetry_multiplicity
 _atom_site_fract_x
 _atom_site_fract_y
 _atom_site_fract_z
 _atom_site_occupancy
  Sb  Sb0  1  0.97647055  0.27446777  0.37840437  1
  Sb  Sb1  1  0.72553223  0.02352945  0.12159563  1
  Sb  Sb2  1  0.27446777  0.97647055  0.87840437  1
  Sb  Sb3  1  0.02352945  0.72553223  0.62159563  1
  Sb  Sb4  1  -0.00000000  0.50000000  -0.00000000  1
  Sb  Sb5  1  0.50000000  0.00000000  0.50000000  1
  Br  Br0  1  0.40241391  0.73330160  0.19964355  1
  Br  Br1  1  0.26669840  0.59758609  0.30035645  1
  Br  Br2  1  0.59758609  0.26669840  0.80035645  1
  Br  Br3  1  0.73330160  0.40241391  0.69964355  1
  F  F0  1  0.20721923  0.65503072  0.51952433  1
  F  F1  1  0.34496928  0.79278077  0.98047567  1
  F  F2  1  0.79278077  0.34496928  0.48047567  1
  F  F3  1  0.65503072  0.20721923  0.01952433  1
  F  F4  1  0.22023638  0.58226995  0.71118455  1
  F  F5  1  0.41773005  0.77976362  0.78881545  1
  F  F6  1  0.77976362  0.41773005  0.28881545  1
  F  F7  1  0.58226995  0.22023638  0.21118455  1
  F  F8  1  0.79754658  0.82326195  0.70566031  1
  F  F9  1  0.17673805  0.20245342  0.79433969  1
  F  F10  1  0.88367509  0.79931640  0.02174384  1
  F  F11  1  0.20068360  0.11632491  0.47825616  1
  F  F12  1  0.11632491  0.20068360  0.97825616  1
  F  F13  1  0.79931640  0.88367509  0.52174384  1
  F  F14  1  0.80071571  0.49366959  0.08175390  1
  F  F15  1  0.50633041  0.19928429  0.41824610  1
  F  F16  1  0.19928429  0.50633041  0.91824610  1
  F  F17  1  0.49366959  0.80071571  0.58175390  1
  F  F18  1  0.17614772  0.43837973  0.09887789  1
  F  F19  1  0.56162027  0.82385228  0.40112211  1
  F  F20  1  0.82385228  0.56162027  0.90112211  1
  F  F21  1  0.43837973  0.17614772  0.59887789  1
  F  F22  1  0.97378952  0.02785486  0.13063163  1
  F  F23  1  0.97214514  0.02621048  0.36936837  1
  F  F24  1  0.02621048  0.97214514  0.86936837  1
  F  F25  1  0.02785486  0.97378952  0.63063163  1
  F  F26  1  0.50325033  0.97800833  0.09867348  1
  F  F27  1  0.02199167  0.49674967  0.40132652  1
  F  F28  1  0.49674967  0.02199167  0.90132652  1
  F  F29  1  0.97800833  0.50325033  0.59867348  1
  F  F30  1  0.82326195  0.79754658  0.20566031  1
  F  F31  1  0.20245342  0.17673805  0.29433969  1
loop_
_geom_bond_atom_site_label_1
_geom_bond_atom_site_label_2
_geom_bond_distance
_geom_bond_site_symmetry_2
Br0 Br1 2.205690 1_555
Br2 Br3 2.205690 1_555
F0 Sb3 1.867417 1_555
F1 Sb2 1.867417 1_555
F2 Sb0 1.867417 1_555
F3 Sb1 1.867417 1_555
F4 Sb3 1.863352 1_555
F5 Sb2 1.863352 1_555
F6 Sb0 1.863352 1_555
F7 Sb1 1.863352 1_555
F8 Sb3 1.877634 1_655
F9 Sb2 1.877634 1_545
F10 Sb4 1.995930 1_655
F10 Sb1 2.095410 1_565
F11 Sb5 1.995930 1_555
F11 Sb0 2.095410 1_455
F12 Sb4 1.995930 1_556
F12 Sb2 2.095410 1_545
F13 Sb5 1.995930 1_565
F13 Sb3 2.095410 1_655
F14 Sb4 1.868063 1_655
F15 Sb5 1.868063 1_555
F16 Sb4 1.868063 1_556
F17 Sb5 1.868063 1_565
F18 Sb4 1.865824 1_555
F19 Sb5 1.865824 1_565
F20 Sb4 1.865824 1_656
F21 Sb5 1.865824 1_555
F22 Sb1 1.877062 1_555
F23 Sb0 1.877062 1_555
F24 Sb2 1.877062 1_555
F25 Sb3 1.877062 1_555
F26 Sb1 1.891556 1_565
F27 Sb0 1.891556 1_455
F28 Sb2 1.891556 1_545
F29 Sb3 1.891556 1_655
F30 Sb1 1.877634 1_565
F31 Sb0 1.877634 1_455
