# generated using pymatgen
data_MgMn4(Si4O11)2
_symmetry_space_group_name_H-M   'P 1'
_cell_length_a   8.72715371
_cell_length_b   7.74221939
_cell_length_c   7.16177014
_cell_angle_alpha   108.72482648
_cell_angle_beta   103.80829188
_cell_angle_gamma   95.51335467
_symmetry_Int_Tables_number   1
_chemical_formula_structural   MgMn4(Si4O11)2
_chemical_formula_sum   'Mg1 Mn4 Si8 O22'
_cell_volume   437.12954700
_cell_formula_units_Z   1
loop_
 _symmetry_equiv_pos_site_id
 _symmetry_equiv_pos_as_xyz
  1  'x, y, z'
loop_
 _atom_site_type_symbol
 _atom_site_label
 _atom_site_symmetry_multiplicity
 _atom_site_fract_x
 _atom_site_fract_y
 _atom_site_fract_z
 _atom_site_occupancy
  Mg  Mg0  1  0.06235800  0.01150000  0.11656000  1
  Mn  Mn0  1  0.37346100  0.65987100  0.84718500  1
  Mn  Mn1  1  0.38793100  0.65738700  0.35342600  1
  Mn  Mn2  1  0.60560000  0.37643000  0.64500900  1
  Mn  Mn3  1  0.61668900  0.37899300  0.12793200  1
  Si  Si0  1  0.02728100  0.39525900  0.23499900  1
  Si  Si1  1  0.23382600  0.22853400  0.95303300  1
  Si  Si2  1  0.22402900  0.22936400  0.53193500  1
  Si  Si3  1  0.61409100  0.97935100  0.78343700  1
  Si  Si4  1  0.40319300  0.03183600  0.23572400  1
  Si  Si5  1  0.77832200  0.77430600  0.47629200  1
  Si  Si6  1  0.76920800  0.76716500  0.04519800  1
  Si  Si7  1  0.96521500  0.59971400  0.75916200  1
  O  O0  1  0.14182000  0.55797500  0.80035400  1
  O  O1  1  0.06042200  0.24873800  0.37186700  1
  O  O2  1  0.15775000  0.57875200  0.32498300  1
  O  O3  1  0.06510700  0.24210200  0.02312900  1
  O  O4  1  0.18048500  0.15861400  0.70495500  1
  O  O5  1  0.26496800  0.04146400  0.36706000  1
  O  O6  1  0.37701700  0.39659800  0.60857900  1
  O  O7  1  0.45589000  0.81563800  0.68184300  1
  O  O8  1  0.43614100  0.82356000  0.17130300  1
  O  O9  1  0.27927300  0.04635700  0.02058400  1
  O  O10  1  0.38326600  0.40120100  0.07333100  1
  O  O11  1  0.63036200  0.58327000  0.91729700  1
  O  O12  1  0.72708200  0.95273500  0.99334800  1
  O  O13  1  0.57992700  0.19231900  0.84902800  1
  O  O14  1  0.54984300  0.20802300  0.35031400  1
  O  O15  1  0.62900100  0.59424500  0.37889100  1
  O  O16  1  0.71992100  0.95336300  0.61742600  1
  O  O17  1  0.82494400  0.83077200  0.29314900  1
  O  O18  1  0.94341100  0.75012000  0.98609000  1
  O  O19  1  0.82539200  0.41825400  0.68027700  1
  O  O20  1  0.93524600  0.73242200  0.61792900  1
  O  O21  1  0.84183800  0.40876900  0.18800000  1
loop_
_geom_bond_atom_site_label_1
_geom_bond_atom_site_label_2
_geom_bond_distance
_geom_bond_site_symmetry_2
Mg0 O18 1.991273 1_444
Mg0 O3 2.098169 1_555
Mg0 O5 2.130403 1_555
Mg0 O1 2.140472 1_555
Mg0 O9 2.184259 1_555
Mn0 O0 2.005393 1_555
Mn0 O7 2.128585 1_555
Mn0 O8 2.159971 1_556
Mn0 O6 2.208383 1_555
Mn0 O11 2.353676 1_555
Mn1 O2 1.984329 1_555
Mn1 O7 2.174692 1_555
Mn1 O8 2.183765 1_555
Mn1 O15 2.184071 1_555
Mn1 O10 2.313141 1_555
Mn2 O19 1.856030 1_555
Mn2 O6 1.977261 1_555
Mn2 O14 2.003053 1_555
Mn2 O11 2.035011 1_555
Mn2 O13 2.376781 1_555
Mn3 O21 1.882782 1_555
Mn3 O13 1.983188 1_554
Mn3 O15 1.992358 1_555
Mn3 O10 2.015576 1_555
Mn3 O14 2.505529 1_555
Mn3 O11 2.524412 1_554
O0 Si7 1.583290 1_455
O1 Si2 1.656976 1_555
O1 Si0 1.724233 1_555
O2 Si0 1.575149 1_555
O3 Si1 1.667282 1_554
O3 Si0 1.725268 1_555
O4 Si2 1.612595 1_555
O4 Si1 1.614188 1_555
O5 Si2 1.684229 1_555
O5 Si4 1.690963 1_555
O6 Si2 1.619263 1_555
O7 Si3 1.623033 1_555
O8 Si4 1.603284 1_565
O9 Si1 1.683670 1_554
O9 Si4 1.701587 1_555
O10 Si1 1.618463 1_554
O11 Si6 1.623501 1_556
O12 Si6 1.648057 1_556
O12 Si3 1.674862 1_555
O13 Si3 1.640817 1_545
O14 Si4 1.617595 1_555
O15 Si5 1.649502 1_555
O16 Si5 1.638681 1_555
O16 Si3 1.647229 1_555
O17 Si6 1.616372 1_555
O17 Si5 1.632715 1_555
O18 Si6 1.678632 1_556
O18 Si7 1.734540 1_555
O19 Si7 1.616743 1_555
O20 Si5 1.625742 1_555
O20 Si7 1.655222 1_555
O21 Si0 1.593274 1_655
