# generated using pymatgen
data_NaH3O2
_symmetry_space_group_name_H-M   'P 1'
_cell_length_a   6.11647438
_cell_length_b   6.00177072
_cell_length_c   11.25302026
_cell_angle_alpha   90.00000000
_cell_angle_beta   90.00000000
_cell_angle_gamma   90.00000000
_symmetry_Int_Tables_number   1
_chemical_formula_structural   NaH3O2
_chemical_formula_sum   'Na8 H24 O16'
_cell_volume   413.09473726
_cell_formula_units_Z   8
loop_
 _symmetry_equiv_pos_site_id
 _symmetry_equiv_pos_as_xyz
  1  'x, y, z'
loop_
 _atom_site_type_symbol
 _atom_site_label
 _atom_site_symmetry_multiplicity
 _atom_site_fract_x
 _atom_site_fract_y
 _atom_site_fract_z
 _atom_site_occupancy
  Na  Na0  1  0.14189352  0.30040589  0.55592503  1
  Na  Na1  1  0.85810648  0.80040589  0.94407497  1
  Na  Na2  1  0.64189352  0.19959411  0.44407497  1
  Na  Na3  1  0.35810648  0.69959411  0.05592503  1
  Na  Na4  1  0.85810648  0.69959411  0.44407497  1
  Na  Na5  1  0.14189352  0.19959411  0.05592503  1
  Na  Na6  1  0.35810648  0.80040589  0.55592503  1
  Na  Na7  1  0.64189352  0.30040589  0.94407497  1
  H  H0  1  0.43206203  0.12726030  0.71323237  1
  H  H1  1  0.56793797  0.62726030  0.78676763  1
  H  H2  1  0.93206203  0.37273970  0.28676763  1
  H  H3  1  0.06793797  0.87273970  0.21323237  1
  H  H4  1  0.56793797  0.87273970  0.28676763  1
  H  H5  1  0.43206203  0.37273970  0.21323237  1
  H  H6  1  0.06793797  0.62726030  0.71323237  1
  H  H7  1  0.93206203  0.12726030  0.78676763  1
  H  H8  1  0.28342447  0.56834012  0.86556719  1
  H  H9  1  0.71657553  0.06834012  0.63443281  1
  H  H10  1  0.78342447  0.93165988  0.13443281  1
  H  H11  1  0.21657553  0.43165988  0.36556719  1
  H  H12  1  0.71657553  0.43165988  0.13443281  1
  H  H13  1  0.28342447  0.93165988  0.36556719  1
  H  H14  1  0.21657553  0.06834012  0.86556719  1
  H  H15  1  0.78342447  0.56834012  0.63443281  1
  H  H16  1  0.56900867  0.39850505  0.62996450  1
  H  H17  1  0.43099133  0.89850505  0.87003550  1
  H  H18  1  0.06900867  0.10149495  0.37003550  1
  H  H19  1  0.06900867  0.39850505  0.87003550  1
  H  H20  1  0.43099133  0.60149495  0.37003550  1
  H  H21  1  0.56900867  0.10149495  0.12996450  1
  H  H22  1  0.93099133  0.89850505  0.62996450  1
  H  H23  1  0.93099133  0.60149495  0.12996450  1
  O  O0  1  0.87847941  0.44393425  0.11882674  1
  O  O1  1  0.96372840  0.14630084  0.87093229  1
  O  O2  1  0.53627160  0.85369916  0.37093229  1
  O  O3  1  0.46372840  0.35369916  0.12906771  1
  O  O4  1  0.96372840  0.35369916  0.37093229  1
  O  O5  1  0.03627160  0.85369916  0.12906771  1
  O  O6  1  0.46372840  0.14630084  0.62906771  1
  O  O7  1  0.53627160  0.64630084  0.87093229  1
  O  O8  1  0.12152059  0.55606575  0.88117326  1
  O  O9  1  0.87847941  0.05606575  0.61882674  1
  O  O10  1  0.62152059  0.94393425  0.11882674  1
  O  O11  1  0.37847941  0.44393425  0.38117326  1
  O  O12  1  0.62152059  0.55606575  0.61882674  1
  O  O13  1  0.12152059  0.94393425  0.38117326  1
  O  O14  1  0.37847941  0.05606575  0.88117326  1
  O  O15  1  0.03627160  0.64630084  0.62906771  1
loop_
_geom_bond_atom_site_label_1
_geom_bond_atom_site_label_2
_geom_bond_distance
_geom_bond_site_symmetry_2
Na0 O9 2.290727 1_455
Na0 O15 2.324761 1_555
Na0 O6 2.325483 1_555
Na0 O4 2.371378 1_455
Na0 O11 2.589041 1_555
Na1 O8 2.290727 1_655
Na1 O1 2.324761 1_565
Na1 O7 2.325483 1_555
Na1 O5 2.371378 1_656
Na1 O10 2.589041 1_556
Na2 O11 2.290727 1_555
Na2 O2 2.324761 1_545
Na2 O4 2.325483 1_555
Na2 O6 2.371378 1_555
Na2 O9 2.589041 1_555
Na3 O10 2.290727 1_555
Na3 O3 2.324761 1_555
Na3 O5 2.325483 1_555
Na3 O7 2.371378 1_554
Na3 O8 2.589041 1_554
Na4 O13 2.290727 1_655
Na4 O4 2.324761 1_555
Na4 O2 2.325483 1_555
Na4 O15 2.371378 1_655
Na4 O12 2.589041 1_555
Na5 O0 2.290727 1_455
Na5 O5 2.324761 1_545
Na5 O3 2.325483 1_555
Na5 O1 2.371378 1_454
Na5 O14 2.589041 1_554
Na6 O12 2.290727 1_555
Na6 O6 2.324761 1_565
Na6 O15 2.325483 1_555
Na6 O2 2.371378 1_555
Na6 O13 2.589041 1_555
Na7 O14 2.290727 1_555
Na7 O7 2.324761 1_555
Na7 O1 2.325483 1_555
Na7 O3 2.371378 1_556
Na7 O0 2.589041 1_556
H0 O6 0.973440 1_555
H1 O7 0.973440 1_555
H2 O4 0.973440 1_555
H3 O5 0.973440 1_555
H4 O2 0.973440 1_555
H5 O3 0.973440 1_555
H6 O15 0.973440 1_555
H7 O1 0.973440 1_555
H8 O8 1.008427 1_555
H8 Na3 2.327620 1_556
H9 O9 1.008427 1_555
H9 Na2 2.327620 1_555
H10 O10 1.008427 1_555
H10 Na1 2.327620 1_554
H11 O11 1.008427 1_555
H11 Na0 2.327620 1_555
H12 O0 1.008427 1_555
H12 Na7 2.327620 1_554
H13 O13 1.008427 1_555
H13 Na6 2.327620 1_555
H14 O14 1.008427 1_555
H14 Na5 2.327620 1_556
H15 O12 1.008427 1_555
H15 Na4 2.327620 1_555
H16 O12 1.006534 1_555
H16 Na2 2.449417 1_555
H17 O14 1.006534 1_565
H17 Na3 2.449417 1_556
H18 O13 1.006534 1_545
H18 Na0 2.449417 1_555
H19 O8 1.006534 1_555
H19 Na5 2.449417 1_556
H20 O11 1.006534 1_555
H20 Na6 2.449417 1_555
H21 O10 1.006534 1_545
H21 Na7 2.449417 1_554
H22 O9 1.006534 1_565
H22 Na4 2.449417 1_555
H23 O0 1.006534 1_555
H23 Na1 2.449417 1_554
