# generated using pymatgen
data_Sr3MgV2O7
_symmetry_space_group_name_H-M   'P 1'
_cell_length_a   3.96357611
_cell_length_b   3.96357654
_cell_length_c   11.88975789
_cell_angle_alpha   99.59485192
_cell_angle_beta   99.59485602
_cell_angle_gamma   89.99999646
_symmetry_Int_Tables_number   1
_chemical_formula_structural   Sr3MgV2O7
_chemical_formula_sum   'Sr3 Mg1 V2 O7'
_cell_volume   181.52381009
_cell_formula_units_Z   1
loop_
 _symmetry_equiv_pos_site_id
 _symmetry_equiv_pos_as_xyz
  1  'x, y, z'
loop_
 _atom_site_type_symbol
 _atom_site_label
 _atom_site_symmetry_multiplicity
 _atom_site_fract_x
 _atom_site_fract_y
 _atom_site_fract_z
 _atom_site_occupancy
  Sr  Sr0  1  0.65813500  0.65813700  0.31627100  1
  Sr  Sr1  1  0.34186300  0.34186300  0.68372900  1
  Sr  Sr2  1  0.49999900  0.50000100  0.00000000  1
  Mg  Mg0  1  0.25000000  0.75000000  0.50000000  1
  V  V0  1  0.91736900  0.91737200  0.83474000  1
  V  V1  1  0.08263000  0.08262900  0.16526000  1
  O  O0  1  0.90835700  0.40835800  0.81671600  1
  O  O1  1  0.40537700  0.90537500  0.81075200  1
  O  O2  1  0.09462300  0.59462300  0.18924700  1
  O  O3  1  0.59164300  0.09164400  0.18328400  1
  O  O4  1  0.78845900  0.78845900  0.57692000  1
  O  O5  1  0.00000000  0.00000000  0.00000000  1
  O  O6  1  0.21154000  0.21154100  0.42307900  1
loop_
_geom_bond_atom_site_label_1
_geom_bond_atom_site_label_2
_geom_bond_distance
_geom_bond_site_symmetry_2
Mg0 O4 2.171961 1_555
Mg0 O6 2.171964 1_555
Mg0 O4 2.171968 1_455
Mg0 O6 2.171975 1_565
O0 V0 1.992693 1_545
O0 V0 1.992709 1_555
O0 Sr1 2.507727 1_655
O0 Sr1 2.507731 1_555
O0 Sr2 2.900437 1_556
O0 Sr2 2.900437 1_656
O1 V0 2.001069 1_555
O1 V0 2.001085 1_455
O1 Sr1 2.466102 1_565
O1 Sr1 2.466106 1_555
O1 Sr2 2.951125 1_556
O1 Sr2 2.951136 1_566
O2 V1 2.001074 1_565
O2 V1 2.001078 1_555
O2 Sr0 2.466111 1_455
O2 Sr0 2.466111 1_555
O2 Sr2 2.951120 1_555
O2 Sr2 2.951123 1_455
O3 V1 1.992697 1_655
O3 V1 1.992705 1_555
O3 Sr0 2.507728 1_555
O3 Sr0 2.507731 1_545
O3 Sr2 2.900434 1_555
O3 Sr2 2.900440 1_545
O5 V1 1.909532 1_555
O5 V0 1.909532 1_444
O5 Sr2 2.802666 1_545
O5 Sr2 2.802672 1_445
O5 Sr2 2.802672 1_555
O5 Sr2 2.802677 1_455
