# generated using pymatgen
data_Y(GeRu)2
_symmetry_space_group_name_H-M   'P 1'
_cell_length_a   4.24026487
_cell_length_b   4.24026611
_cell_length_c   5.75710503
_cell_angle_alpha   111.60857041
_cell_angle_beta   111.60858424
_cell_angle_gamma   90.00000790
_symmetry_Int_Tables_number   1
_chemical_formula_structural   Y(GeRu)2
_chemical_formula_sum   'Y1 Ge2 Ru2'
_cell_volume   88.36567253
_cell_formula_units_Z   1
loop_
 _symmetry_equiv_pos_site_id
 _symmetry_equiv_pos_as_xyz
  1  'x, y, z'
loop_
 _atom_site_type_symbol
 _atom_site_label
 _atom_site_symmetry_multiplicity
 _atom_site_fract_x
 _atom_site_fract_y
 _atom_site_fract_z
 _atom_site_occupancy
  Y  Y0  1  0.00000000  0.00000000  0.00000000  1
  Ge  Ge0  1  0.63100001  0.63100001  0.26199802  1
  Ge  Ge1  1  0.36899999  0.36899999  0.73800198  1
  Ru  Ru0  1  0.25000000  0.75000000  0.50000000  1
  Ru  Ru1  1  0.75000000  0.25000000  0.50000000  1
loop_
_geom_bond_atom_site_label_1
_geom_bond_atom_site_label_2
_geom_bond_distance
_geom_bond_site_symmetry_2
Ge0 Ru0 2.421397 1_655
Ge0 Ru1 2.421398 1_565
Ge0 Ru0 2.421405 1_555
Ge0 Ru1 2.421405 1_555
Ge0 Ge1 2.575286 1_554
Ge0 Y0 3.263114 1_665
Ge0 Y0 3.263120 1_565
Ge0 Y0 3.263120 1_655
Ge0 Y0 3.263125 1_555
Ge1 Ru1 2.421397 1_455
Ge1 Ru0 2.421398 1_545
Ge1 Ru1 2.421405 1_555
Ge1 Ru0 2.421405 1_555
Ge1 Y0 3.263114 1_556
Ge1 Y0 3.263120 1_656
Ge1 Y0 3.263120 1_566
Ge1 Y0 3.263125 1_666
Ru0 Y0 3.245542 1_666
Ru0 Y0 3.245542 1_565
Ru0 Y0 3.245543 1_566
Ru0 Y0 3.245543 1_555
Ru1 Y0 3.245542 1_555
Ru1 Y0 3.245542 1_656
Ru1 Y0 3.245543 1_655
Ru1 Y0 3.245543 1_666
