# generated using pymatgen
data_AlPS4
_symmetry_space_group_name_H-M   'P 1'
_cell_length_a   5.65406846
_cell_length_b   5.65501113
_cell_length_c   10.20667017
_cell_angle_alpha   90.00000000
_cell_angle_beta   90.00000000
_cell_angle_gamma   90.00000000
_symmetry_Int_Tables_number   1
_chemical_formula_structural   AlPS4
_chemical_formula_sum   'Al2 P2 S8'
_cell_volume   326.34623554
_cell_formula_units_Z   2
loop_
 _symmetry_equiv_pos_site_id
 _symmetry_equiv_pos_as_xyz
  1  'x, y, z'
loop_
 _atom_site_type_symbol
 _atom_site_label
 _atom_site_symmetry_multiplicity
 _atom_site_fract_x
 _atom_site_fract_y
 _atom_site_fract_z
 _atom_site_occupancy
  Al  Al0  1  0.00000000  0.00000000  -0.00000000  1
  Al  Al1  1  0.50000000  0.00000000  0.50000000  1
  P  P0  1  0.00000000  0.50000000  -0.00000000  1
  P  P1  1  0.00000000  0.00000000  0.50000000  1
  S  S0  1  0.20375568  0.27667968  0.11124951  1
  S  S1  1  0.20375568  0.72332032  0.88875049  1
  S  S2  1  0.79624432  0.27667968  0.88875049  1
  S  S3  1  0.79624432  0.72332032  0.11124951  1
  S  S4  1  0.77604536  0.79821037  0.61240226  1
  S  S5  1  0.77604536  0.20178963  0.38759774  1
  S  S6  1  0.22395464  0.79821037  0.38759774  1
  S  S7  1  0.22395464  0.20178963  0.61240226  1
loop_
_geom_bond_atom_site_label_1
_geom_bond_atom_site_label_2
_geom_bond_distance
_geom_bond_site_symmetry_2
Al0 S0 2.250467 1_555
Al0 S3 2.250467 1_445
Al0 S2 2.250467 1_454
Al0 S1 2.250467 1_544
Al1 S4 2.248195 1_545
Al1 S7 2.248195 1_555
Al1 S6 2.248195 1_545
Al1 S5 2.248195 1_555
P0 S3 2.052172 1_455
P0 S0 2.052172 1_555
P0 S1 2.052172 1_554
P0 S2 2.052172 1_454
P1 S7 2.054690 1_555
P1 S5 2.054690 1_455
P1 S6 2.054690 1_545
P1 S4 2.054690 1_445
