# generated using pymatgen
data_KAuBr4
_symmetry_space_group_name_H-M   'P 1'
_cell_length_a   6.69994775
_cell_length_b   9.25801275
_cell_length_c   12.94143071
_cell_angle_alpha   82.50217801
_cell_angle_beta   90.00000000
_cell_angle_gamma   90.00000000
_symmetry_Int_Tables_number   1
_chemical_formula_structural   KAuBr4
_chemical_formula_sum   'K4 Au4 Br16'
_cell_volume   795.87015895
_cell_formula_units_Z   4
loop_
 _symmetry_equiv_pos_site_id
 _symmetry_equiv_pos_as_xyz
  1  'x, y, z'
loop_
 _atom_site_type_symbol
 _atom_site_label
 _atom_site_symmetry_multiplicity
 _atom_site_fract_x
 _atom_site_fract_y
 _atom_site_fract_z
 _atom_site_occupancy
  K  K0  1  0.55783933  0.20887330  0.81772253  1
  K  K1  1  0.94216067  0.20887330  0.31772253  1
  K  K2  1  0.44216067  0.79112670  0.18227747  1
  K  K3  1  0.05783933  0.79112670  0.68227747  1
  Au  Au0  1  0.50000000  0.50000000  0.50000000  1
  Au  Au1  1  -0.00000000  0.50000000  -0.00000000  1
  Au  Au2  1  0.50000000  -0.00000000  0.50000000  1
  Au  Au3  1  -0.00000000  -0.00000000  -0.00000000  1
  Br  Br0  1  0.23778814  0.66759790  0.42610623  1
  Br  Br1  1  0.26221186  0.66759790  0.92610623  1
  Br  Br2  1  0.76221186  0.33240210  0.57389377  1
  Br  Br3  1  0.73778814  0.33240210  0.07389377  1
  Br  Br4  1  0.70446698  0.86626964  0.95280804  1
  Br  Br5  1  0.20446698  0.13373036  0.54719196  1
  Br  Br6  1  0.29553302  0.13373036  0.04719196  1
  Br  Br7  1  0.79553302  0.86626964  0.45280804  1
  Br  Br8  1  0.05819329  0.09135596  0.81533194  1
  Br  Br9  1  0.55819329  0.90864404  0.68466806  1
  Br  Br10  1  0.94180671  0.90864404  0.18466806  1
  Br  Br11  1  0.44180671  0.09135596  0.31533194  1
  Br  Br12  1  0.84794230  0.50370744  0.82745906  1
  Br  Br13  1  0.34794230  0.49629256  0.67254094  1
  Br  Br14  1  0.15205770  0.49629256  0.17254094  1
  Br  Br15  1  0.65205770  0.50370744  0.32745906  1
loop_
_geom_bond_atom_site_label_1
_geom_bond_atom_site_label_2
_geom_bond_distance
_geom_bond_site_symmetry_2
Au0 Br13 2.450520 1_555
Au0 Br15 2.450520 1_555
Au0 Br0 2.453804 1_555
Au0 Br2 2.453804 1_555
Au1 Br12 2.450520 1_454
Au1 Br14 2.450520 1_555
Au1 Br1 2.453804 1_554
Au1 Br3 2.453804 1_455
Au2 Br5 2.454340 1_555
Au2 Br7 2.454340 1_545
Au2 Br11 2.459942 1_555
Au2 Br9 2.459942 1_545
Au3 Br6 2.454340 1_555
Au3 Br4 2.454340 1_444
Au3 Br10 2.459942 1_445
Au3 Br8 2.459942 1_554
Br0 K2 3.492589 1_555
Br0 K3 3.839485 1_555
Br1 K3 3.492589 1_555
Br1 K2 3.839485 1_556
Br2 K0 3.492589 1_555
Br2 K1 3.839485 1_555
Br3 K1 3.492589 1_555
Br3 K0 3.839485 1_554
Br4 K2 3.442716 1_556
Br4 K0 3.554531 1_565
Br5 K1 3.442716 1_455
Br5 K3 3.554531 1_545
Br6 K0 3.442716 1_554
Br6 K2 3.554531 1_545
Br7 K3 3.442716 1_655
Br7 K1 3.554531 1_565
Br8 K3 3.455406 1_545
Br8 K0 3.521346 1_555
Br8 K0 3.525855 1_455
Br9 K0 3.455406 1_565
Br9 K3 3.521346 1_655
Br9 K3 3.525855 1_555
Br10 K1 3.455406 1_565
Br10 K2 3.521346 1_555
Br10 K2 3.525855 1_655
Br11 K2 3.455406 1_545
Br11 K1 3.521346 1_455
Br11 K1 3.525855 1_555
Br12 K3 3.359104 1_655
Br12 K0 3.366616 1_555
Br13 K0 3.359104 1_555
Br13 K3 3.366616 1_555
Br14 K1 3.359104 1_455
Br14 K2 3.366616 1_555
Br15 K2 3.359104 1_555
Br15 K1 3.366616 1_555
