# generated using pymatgen
data_Na5Ti2Nb2Si5PO24
_symmetry_space_group_name_H-M   'P 1'
_cell_length_a   8.93138458
_cell_length_b   8.91631437
_cell_length_c   22.48857013
_cell_angle_alpha   89.94135187
_cell_angle_beta   90.19302370
_cell_angle_gamma   119.93352539
_symmetry_Int_Tables_number   1
_chemical_formula_structural   Na5Ti2Nb2Si5PO24
_chemical_formula_sum   'Na15 Ti6 Nb6 Si15 P3 O72'
_cell_volume   1551.97444905
_cell_formula_units_Z   3
loop_
 _symmetry_equiv_pos_site_id
 _symmetry_equiv_pos_as_xyz
  1  'x, y, z'
loop_
 _atom_site_type_symbol
 _atom_site_label
 _atom_site_symmetry_multiplicity
 _atom_site_fract_x
 _atom_site_fract_y
 _atom_site_fract_z
 _atom_site_occupancy
  Na  Na0  1  0.63749279  0.00491130  0.24912212  1
  Na  Na1  1  0.36659696  0.36256079  0.24924762  1
  Na  Na2  1  0.99574165  0.63191656  0.24917469  1
  Na  Na3  1  0.99901602  0.36473839  0.75009349  1
  Na  Na4  1  0.03474388  0.69826639  0.58117591  1
  Na  Na5  1  0.66166195  0.96399073  0.58132714  1
  Na  Na6  1  0.96650993  0.66646855  0.91796176  1
  Na  Na7  1  0.70088640  0.03479021  0.91762716  1
  Na  Na8  1  0.33251510  0.29901409  0.91841767  1
  Na  Na9  1  0.00471884  0.00514942  0.49448948  1
  Na  Na10  1  0.00104101  0.00056336  0.00186189  1
  Na  Na11  1  0.66198338  0.33181580  0.83354384  1
  Na  Na12  1  0.66727199  0.33260310  0.33375676  1
  Na  Na13  1  0.33394856  0.66592348  0.16196549  1
  Na  Na14  1  0.33855688  0.66510070  0.66399664  1
  Ti  Ti0  1  0.99378855  0.99354843  0.35367645  1
  Ti  Ti1  1  0.00632325  0.00445438  0.85067358  1
  Ti  Ti2  1  0.66837333  0.33980640  0.18381531  1
  Ti  Ti3  1  0.66538523  0.33094886  0.98523454  1
  Ti  Ti4  1  0.31847021  0.65787807  0.02275332  1
  Ti  Ti5  1  0.33443883  0.66708946  0.51747436  1
  Nb  Nb0  1  0.00274175  0.00304057  0.64574655  1
  Nb  Nb1  1  0.00415644  0.00107643  0.14435635  1
  Nb  Nb2  1  0.66204182  0.33381672  0.68693016  1
  Nb  Nb3  1  0.66887087  0.33228439  0.47723827  1
  Nb  Nb4  1  0.33129352  0.66816595  0.31538999  1
  Nb  Nb5  1  0.33515170  0.67407349  0.81237069  1
  Si  Si0  1  0.28954828  0.00392522  0.25144743  1
  Si  Si1  1  0.71307783  0.71137498  0.24998625  1
  Si  Si2  1  0.99674865  0.28524214  0.25088716  1
  Si  Si3  1  0.29232136  0.28912291  0.75140844  1
  Si  Si4  1  0.99803780  0.71327251  0.75139894  1
  Si  Si5  1  0.71098106  0.99729902  0.75098852  1
  Si  Si6  1  0.96229480  0.33792901  0.58280406  1
  Si  Si7  1  0.37668116  0.04348517  0.58170255  1
  Si  Si8  1  0.65851106  0.62005560  0.58166050  1
  Si  Si9  1  0.95468714  0.62011810  0.08277674  1
  Si  Si10  1  0.38041164  0.33877728  0.08253669  1
  Si  Si11  1  0.04105167  0.37500295  0.91784003  1
  Si  Si12  1  0.33339646  0.95841088  0.91953548  1
  Si  Si13  1  0.62816879  0.95585845  0.41799696  1
  Si  Si14  1  0.04413476  0.67274678  0.41819051  1
  P  P0  1  0.66268885  0.04206091  0.08342383  1
  P  P1  1  0.62199789  0.66761888  0.91822166  1
  P  P2  1  0.32922479  0.37501534  0.41768382  1
  O  O0  1  0.19705925  0.03722369  0.30746229  1
  O  O1  1  0.83894545  0.80115449  0.30709656  1
  O  O2  1  0.96377964  0.15984745  0.30746850  1
  O  O3  1  0.19905899  0.16906025  0.80974434  1
  O  O4  1  0.97082289  0.80349637  0.80991141  1
  O  O5  1  0.83546434  0.03360541  0.80901240  1
  O  O6  1  0.79987383  0.96945880  0.69145400  1
  O  O7  1  0.16336412  0.19888452  0.69420093  1
  O  O8  1  0.03092708  0.83040628  0.69175416  1
  O  O9  1  0.80036698  0.83854725  0.19289293  1
  O  O10  1  0.03654952  0.19881519  0.19299946  1
  O  O11  1  0.16200596  0.96191699  0.19328010  1
  O  O12  1  0.87115660  0.36791726  0.64184470  1
  O  O13  1  0.50282143  0.13432869  0.63982022  1
  O  O14  1  0.63652943  0.50050359  0.64044184  1
  O  O15  1  0.86418928  0.50098984  0.14212740  1
  O  O16  1  0.63860453  0.13022911  0.13947820  1
  O  O17  1  0.49907683  0.36119730  0.14183533  1
  O  O18  1  0.47078107  0.30452113  0.02404230  1
  O  O19  1  0.83399612  0.52755746  0.02392393  1
  O  O20  1  0.69411393  0.15908731  0.02726207  1
  O  O21  1  0.47020714  0.16976376  0.52556235  1
  O  O22  1  0.70401770  0.53211893  0.52652647  1
  O  O23  1  0.82833271  0.29654243  0.52708399  1
  O  O24  1  0.53787197  0.70180912  0.97160226  1
  O  O25  1  0.17376678  0.47021784  0.97324386  1
  O  O26  1  0.29920918  0.82565911  0.97379536  1
  O  O27  1  0.53083438  0.83516685  0.47581965  1
  O  O28  1  0.30683883  0.46879021  0.47151285  1
  O  O29  1  0.16508464  0.69406422  0.47581576  1
  O  O30  1  0.13297569  0.63623915  0.35895946  1
  O  O31  1  0.50355346  0.86459555  0.35883089  1
  O  O32  1  0.36146027  0.49037702  0.36069544  1
  O  O33  1  0.13211997  0.49851359  0.85886915  1
  O  O34  1  0.36826005  0.86609492  0.86071565  1
  O  O35  1  0.50439575  0.63383278  0.86195443  1
  O  O36  1  0.02802790  0.84359019  0.40937287  1
  O  O37  1  0.81695608  0.97660776  0.40944506  1
  O  O38  1  0.16964378  0.19727468  0.41035039  1
  O  O39  1  0.02227110  0.18342145  0.91051601  1
  O  O40  1  0.15987645  0.97419565  0.91037241  1
  O  O41  1  0.80356616  0.82876491  0.91010309  1
  O  O42  1  0.96852977  0.15867633  0.58975621  1
  O  O43  1  0.18398283  0.01849126  0.58996464  1
  O  O44  1  0.83508809  0.81027693  0.59021396  1
  O  O45  1  0.97191159  0.81069691  0.08958291  1
  O  O46  1  0.82898854  0.02875584  0.08925288  1
  O  O47  1  0.18920493  0.16511351  0.08976294  1
  O  O48  1  0.69914542  0.17327599  0.74388663  1
  O  O49  1  0.48070440  0.30732697  0.74439454  1
  O  O50  1  0.83392971  0.51767366  0.74463942  1
  O  O51  1  0.69082141  0.51827072  0.24292318  1
  O  O52  1  0.82798826  0.30900792  0.24270071  1
  O  O53  1  0.48247204  0.16977170  0.24242294  1
  O  O54  1  0.64064182  0.50307539  0.92241489  1
  O  O55  1  0.85037288  0.35717028  0.92359031  1
  O  O56  1  0.50601038  0.14993319  0.92332539  1
  O  O57  1  0.63895199  0.14452592  0.42320035  1
  O  O58  1  0.49611302  0.36251333  0.42336733  1
  O  O59  1  0.85435954  0.49723230  0.42373061  1
  O  O60  1  0.36294753  0.51037220  0.07471937  1
  O  O61  1  0.14637853  0.64145605  0.07559439  1
  O  O62  1  0.50365106  0.86355901  0.07544415  1
  O  O63  1  0.35749985  0.85269590  0.57675432  1
  O  O64  1  0.49532804  0.64965989  0.57651544  1
  O  O65  1  0.14782950  0.51041360  0.57598737  1
  O  O66  1  0.30792494  0.82856718  0.25677265  1
  O  O67  1  0.51959465  0.68828230  0.25718324  1
  O  O68  1  0.17089488  0.47814216  0.25690237  1
  O  O69  1  0.30264706  0.47578578  0.75798324  1
  O  O70  1  0.16735096  0.68671762  0.75725068  1
  O  O71  1  0.52092724  0.82682645  0.75731863  1
loop_
_geom_bond_atom_site_label_1
_geom_bond_atom_site_label_2
_geom_bond_distance
_geom_bond_site_symmetry_2
Na0 O52 2.379985 1_555
Na0 O53 2.475820 1_555
Na0 O67 2.478982 1_545
Na0 O66 2.559299 1_545
Na0 O16 2.704057 1_555
Na0 O31 2.757403 1_545
Na0 O2 2.843032 1_555
Na0 O9 2.843446 1_545
Na1 O53 2.413817 1_555
Na1 O68 2.438623 1_555
Na1 O51 2.514628 1_555
Na1 O67 2.524384 1_555
Na1 O17 2.696058 1_555
Na1 O32 2.764283 1_555
Na1 O0 2.836091 1_555
Na1 O10 2.846864 1_555
Na2 O51 2.388914 1_555
Na2 O66 2.448709 1_655
Na2 O52 2.499970 1_555
Na2 O68 2.548648 1_655
Na2 O15 2.675147 1_555
Na2 O30 2.744438 1_655
Na2 O1 2.839035 1_555
Na2 O11 2.843806 1_655
Na3 O48 2.354120 1_555
Na3 O69 2.383984 1_655
Na3 O50 2.460383 1_555
Na3 O70 2.493981 1_655
Na3 O12 2.691546 1_555
Na3 O33 2.718670 1_655
Na3 O7 2.846739 1_655
Na3 O5 2.882265 1_555
Na4 O65 2.351324 1_555
Na4 O44 2.449238 1_455
Na4 O43 2.483807 1_565
Na4 O63 2.501190 1_555
Na4 O29 2.651968 1_555
Na4 O8 2.760413 1_555
Na4 O22 2.835910 1_455
Na4 O12 2.895240 1_455
Na5 O63 2.383933 1_555
Na5 O42 2.410407 1_565
Na5 O64 2.432683 1_555
Na5 O44 2.536449 1_555
Na5 O27 2.638542 1_555
Na5 O6 2.753051 1_555
Na5 O23 2.845311 1_565
Na5 O13 2.866471 1_565
Na6 O40 2.410829 1_655
Na6 O55 2.417179 1_555
Na6 O41 2.518472 1_555
Na6 O54 2.524535 1_555
Na6 O19 2.676420 1_556
Na6 O4 2.710392 1_555
Na6 O26 2.861847 1_655
Na6 O33 2.902474 1_655
Na7 O56 2.425881 1_555
Na7 O41 2.434567 1_545
Na7 O39 2.495479 1_655
Na7 O55 2.496501 1_555
Na7 O20 2.717402 1_556
Na7 O5 2.728295 1_555
Na7 O24 2.845779 1_545
Na7 O34 2.871410 1_545
Na8 O54 2.427675 1_555
Na8 O39 2.432839 1_555
Na8 O56 2.496870 1_555
Na8 O40 2.518057 1_545
Na8 O18 2.662637 1_556
Na8 O3 2.709955 1_555
Na8 O25 2.834841 1_555
Na8 O35 2.883219 1_555
Na9 O37 2.467441 1_445
Na9 O36 2.467794 1_545
Na9 O38 2.485653 1_555
Na9 O43 2.641006 1_555
Na9 O42 2.649624 1_455
Na9 O44 2.708451 1_445
Na10 O45 2.526326 1_445
Na10 O47 2.531274 1_555
Na10 O39 2.569311 1_554
Na10 O40 2.579620 1_544
Na10 O46 2.587236 1_455
Na10 O41 2.645937 1_444
Na11 O49 2.512900 1_555
Na11 O56 2.530775 1_555
Na11 O50 2.564380 1_555
Na11 O55 2.565392 1_555
Na11 O48 2.579205 1_555
Na11 O54 2.581027 1_555
Na12 O57 2.548594 1_555
Na12 O59 2.564432 1_555
Na12 O51 2.570213 1_555
Na12 O52 2.572919 1_555
Na12 O53 2.577333 1_555
Na12 O58 2.626369 1_555
Na13 O60 2.491544 1_555
Na13 O61 2.498213 1_555
Na13 O62 2.556519 1_555
Na13 O67 2.649762 1_555
Na13 O66 2.654969 1_555
Na13 O68 2.657549 1_555
Na14 O64 2.461979 1_555
Na14 O65 2.521792 1_555
Na14 O63 2.527602 1_555
Na14 O71 2.603073 1_555
Na14 O69 2.622319 1_555
Na14 O70 2.662690 1_555
Nb0 O7 1.946269 1_555
Nb0 O8 1.971009 1_545
Nb0 O6 1.974755 1_445
Nb0 O43 2.000927 1_555
Nb0 O42 2.005372 1_455
Nb0 O44 2.044309 1_445
Nb1 O11 1.949360 1_545
Nb1 O10 1.970184 1_555
Nb1 O47 1.993898 1_555
Nb1 O9 1.995526 1_445
Nb1 O45 1.998919 1_445
Nb1 O46 2.101382 1_455
Nb2 O14 1.920149 1_555
Nb2 O13 1.943656 1_555
Nb2 O49 1.995145 1_555
Nb2 O12 2.013479 1_555
Nb2 O50 2.051293 1_555
Nb2 O48 2.065486 1_555
Nb3 O23 1.956521 1_555
Nb3 O21 1.967970 1_555
Nb3 O57 1.976457 1_555
Nb3 O59 1.983368 1_555
Nb3 O22 1.986305 1_555
Nb3 O58 2.079148 1_555
Nb4 O30 1.919981 1_555
Nb4 O31 1.921746 1_555
Nb4 O32 2.011139 1_555
Nb4 O66 2.029505 1_555
Nb4 O68 2.054875 1_555
Nb4 O67 2.070589 1_555
Nb5 O34 1.922814 1_555
Nb5 O71 1.973802 1_555
Nb5 O70 1.987748 1_555
Nb5 O33 2.002155 1_555
Nb5 O35 2.045993 1_555
Nb5 O69 2.048377 1_555
O0 Si0 1.615514 1_555
O0 Ti0 1.958083 1_445
O1 Si1 1.627376 1_555
O1 Ti0 1.891802 1_555
O2 Si2 1.620771 1_555
O2 Ti0 1.934392 1_545
O3 Si3 1.635686 1_555
O3 Ti1 1.857694 1_555
O4 Si4 1.623947 1_555
O4 Ti1 1.893628 1_665
O5 Si5 1.635698 1_545
O5 Ti1 1.913047 1_655
O6 Si5 1.639814 1_555
O7 Si3 1.642057 1_555
O8 Si4 1.633962 1_455
O9 Si1 1.632053 1_555
O10 Si2 1.641180 1_455
O11 Si0 1.647479 1_565
O12 Si6 1.649905 1_555
O13 Si7 1.647748 1_555
O14 Si8 1.646897 1_555
O15 Si9 1.646376 1_555
O15 Ti2 1.871603 1_555
O16 P0 1.557552 1_555
O16 Ti2 2.015671 1_555
O17 Si10 1.649590 1_555
O17 Ti2 1.868628 1_555
O18 Si10 1.652021 1_555
O18 Ti3 1.854504 1_554
O19 Si9 1.643032 1_555
O19 Ti3 1.859464 1_554
O20 P0 1.571665 1_555
O20 Ti3 1.922260 1_554
O21 Si7 1.620186 1_555
O22 Si8 1.625022 1_555
O23 Si6 1.639541 1_555
O24 P1 1.527738 1_555
O24 Ti4 2.136534 1_556
O25 Si11 1.632814 1_555
O25 Ti4 1.882990 1_556
O26 Si12 1.619288 1_555
O26 Ti4 1.931826 1_556
O27 Si13 1.635791 1_555
O27 Ti5 1.893402 1_555
O28 P2 1.541111 1_555
O28 Ti5 1.955080 1_555
O29 Si14 1.633587 1_555
O29 Ti5 1.891147 1_555
O30 Si14 1.666018 1_555
O31 Si13 1.661227 1_555
O32 P2 1.577218 1_555
O33 Si11 1.656326 1_555
O34 Si12 1.668833 1_555
O35 P1 1.572002 1_555
O36 Si14 1.611932 1_555
O36 Ti0 1.962696 1_455
O37 Si13 1.614016 1_555
O37 Ti0 1.965954 1_555
O38 P2 1.521481 1_555
O38 Ti0 2.129520 1_445
O39 Si11 1.639406 1_555
O39 Ti1 2.038137 1_555
O40 Si12 1.636930 1_555
O40 Ti1 2.027851 1_565
O41 P1 1.550380 1_555
O41 Ti1 2.168047 1_665
O42 Si6 1.634098 1_555
O43 Si7 1.632648 1_555
O44 Si8 1.652271 1_555
O45 Si9 1.635258 1_555
O46 P0 1.553009 1_555
O47 Si10 1.644017 1_555
O48 Si5 1.632040 1_545
O49 Si3 1.615949 1_555
O50 Si4 1.631250 1_555
O51 Si1 1.639525 1_555
O51 Ti2 2.005818 1_555
O52 Si2 1.633231 1_555
O52 Ti2 2.058775 1_555
O53 Si0 1.629642 1_555
O53 Ti2 2.071447 1_555
O54 P1 1.559643 1_555
O54 Ti3 2.175311 1_555
O55 Si11 1.635085 1_655
O55 Ti3 2.082181 1_555
O56 Si12 1.634690 1_545
O56 Ti3 2.065902 1_555
O57 Si13 1.640569 1_545
O58 P2 1.554023 1_555
O59 Si14 1.640515 1_655
O60 Si10 1.622821 1_555
O60 Ti4 1.941246 1_555
O61 Si9 1.634072 1_455
O61 Ti4 1.892964 1_555
O62 P0 1.525002 1_565
O62 Ti4 2.113523 1_555
O63 Si7 1.626350 1_565
O63 Ti5 2.054484 1_555
O64 Si8 1.609336 1_555
O64 Ti5 2.015322 1_555
O65 Si6 1.610131 1_455
O65 Ti5 2.036729 1_555
O66 Si0 1.655763 1_565
O67 Si1 1.643638 1_555
O68 Si2 1.650754 1_455
O69 Si3 1.627157 1_555
O70 Si4 1.648045 1_455
O71 Si5 1.624260 1_555
