# generated using pymatgen
data_FeNi2BO5
_symmetry_space_group_name_H-M   'P 1'
_cell_length_a   3.03659500
_cell_length_b   9.32560800
_cell_length_c   12.35701000
_cell_angle_alpha   90.00000000
_cell_angle_beta   90.00000000
_cell_angle_gamma   90.00000000
_symmetry_Int_Tables_number   1
_chemical_formula_structural   FeNi2BO5
_chemical_formula_sum   'Fe4 Ni8 B4 O20'
_cell_volume   349.92697846
_cell_formula_units_Z   4
loop_
 _symmetry_equiv_pos_site_id
 _symmetry_equiv_pos_as_xyz
  1  'x, y, z'
loop_
 _atom_site_type_symbol
 _atom_site_label
 _atom_site_symmetry_multiplicity
 _atom_site_fract_x
 _atom_site_fract_y
 _atom_site_fract_z
 _atom_site_occupancy
  Fe  Fe0  1  0.00000000  0.26028000  0.61457200  1
  Fe  Fe1  1  0.00000000  0.73972000  0.38542800  1
  Fe  Fe2  1  0.00000000  0.76028000  0.88542800  1
  Fe  Fe3  1  0.00000000  0.23971900  0.11457100  1
  Ni  Ni0  1  0.50000100  0.50000000  0.50000000  1
  Ni  Ni1  1  0.00000000  0.50000000  0.00000000  1
  Ni  Ni2  1  0.00000000  0.00000000  0.50000000  1
  Ni  Ni3  1  0.50000100  0.00000000  0.00000000  1
  Ni  Ni4  1  0.50000100  0.49927500  0.78207700  1
  Ni  Ni5  1  0.50000100  0.50072500  0.21792300  1
  Ni  Ni6  1  0.50000100  0.99927600  0.71792300  1
  Ni  Ni7  1  0.50000100  0.00072400  0.28207700  1
  B  B0  1  0.00000000  0.27334800  0.36025900  1
  B  B1  1  0.00000000  0.22665300  0.86025900  1
  B  B2  1  0.00000000  0.77334800  0.13974200  1
  B  B3  1  0.00000000  0.72665200  0.63974200  1
  O  O0  1  0.00000000  0.12504700  0.35893800  1
  O  O1  1  0.50000100  0.88364000  0.42243400  1
  O  O2  1  0.50000100  0.61636000  0.92243300  1
  O  O3  1  0.50000100  0.38364000  0.07756700  1
  O  O4  1  0.00000000  0.37495300  0.85893800  1
  O  O5  1  0.00000000  0.62504700  0.14106300  1
  O  O6  1  0.00000000  0.87495300  0.64106200  1
  O  O7  1  0.50000100  0.11636000  0.57756700  1
  O  O8  1  0.00000000  0.15160000  0.76281600  1
  O  O9  1  0.00000000  0.34840000  0.26281500  1
  O  O10  1  0.00000000  0.65159900  0.73718400  1
  O  O11  1  0.00000000  0.84840000  0.23718500  1
  O  O12  1  0.00000000  0.15078600  0.95759500  1
  O  O13  1  0.00000000  0.84921400  0.04240400  1
  O  O14  1  0.50000100  0.39260500  0.64330300  1
  O  O15  1  0.00000000  0.34921300  0.45759500  1
  O  O16  1  0.50000100  0.10739500  0.14330200  1
  O  O17  1  0.50000100  0.89260600  0.85669700  1
  O  O18  1  0.50000100  0.60739500  0.35669700  1
  O  O19  1  0.00000000  0.65078700  0.54240400  1
loop_
_geom_bond_atom_site_label_1
_geom_bond_atom_site_label_2
_geom_bond_distance
_geom_bond_site_symmetry_2
Fe0 O14 1.988479 1_455
Fe0 O14 1.988483 1_555
Fe0 O7 2.077416 1_455
Fe0 O7 2.077421 1_555
Fe0 O8 2.093533 1_555
Fe0 O15 2.109626 1_555
Fe1 O18 1.988479 1_455
Fe1 O18 1.988483 1_555
Fe1 O1 2.077419 1_455
Fe1 O1 2.077424 1_555
Fe1 O11 2.093522 1_555
Fe1 O19 2.109615 1_555
Fe2 O17 1.988484 1_455
Fe2 O17 1.988489 1_555
Fe2 O2 2.077416 1_455
Fe2 O2 2.077421 1_555
Fe2 O10 2.093538 1_555
Fe2 O13 2.109618 1_556
Fe3 O16 1.988473 1_455
Fe3 O16 1.988477 1_555
Fe3 O3 2.077420 1_455
Fe3 O3 2.077424 1_555
Fe3 O9 2.093538 1_555
Fe3 O12 2.109615 1_554
Ni0 O14 2.034397 1_555
Ni0 O18 2.034397 1_555
Ni0 O19 2.134742 1_655
Ni0 O15 2.134745 1_655
Ni0 O19 2.134746 1_555
Ni0 O15 2.134749 1_555
Ni1 O4 2.097211 1_554
Ni1 O5 2.097221 1_555
Ni1 O3 2.097960 1_455
Ni1 O2 2.097960 1_454
Ni1 O3 2.097964 1_555
Ni1 O2 2.097964 1_554
Ni2 O0 2.097211 1_555
Ni2 O6 2.097211 1_545
Ni2 O1 2.097954 1_445
Ni2 O1 2.097959 1_545
Ni2 O7 2.097960 1_455
Ni2 O7 2.097964 1_555
Ni3 O16 2.034386 1_555
Ni3 O17 2.034392 1_544
Ni3 O13 2.134736 1_645
Ni3 O12 2.134739 1_654
Ni3 O13 2.134740 1_545
Ni3 O12 2.134743 1_554
Ni4 O14 1.982473 1_555
Ni4 O2 2.049463 1_555
Ni4 O4 2.133411 1_655
Ni4 O4 2.133415 1_555
Ni4 O10 2.151934 1_655
Ni4 O10 2.151938 1_555
Ni5 O18 1.982473 1_555
Ni5 O3 2.049463 1_555
Ni5 O5 2.133406 1_655
Ni5 O5 2.133410 1_555
Ni5 O9 2.151937 1_655
Ni5 O9 2.151941 1_555
Ni6 O17 1.982473 1_555
Ni6 O7 2.049458 1_565
Ni6 O6 2.133416 1_655
Ni6 O6 2.133421 1_555
Ni6 O8 2.151934 1_665
Ni6 O8 2.151938 1_565
Ni7 O16 1.982489 1_555
Ni7 O1 2.049468 1_545
Ni7 O0 2.133416 1_655
Ni7 O0 2.133421 1_555
Ni7 O11 2.151930 1_645
Ni7 O11 2.151935 1_545
B0 O0 1.383093 1_555
B0 O9 1.392754 1_555
B0 O15 1.395429 1_555
B1 O4 1.383084 1_555
B1 O8 1.392748 1_555
B1 O12 1.395439 1_555
B2 O5 1.383093 1_555
B2 O11 1.392744 1_555
B2 O13 1.395455 1_555
B3 O6 1.383093 1_555
B3 O10 1.392738 1_555
B3 O19 1.395450 1_555
