# generated using pymatgen
data_MgMoWS4
_symmetry_space_group_name_H-M   'P 1'
_cell_length_a   6.37339000
_cell_length_b   6.37323338
_cell_length_c   44.70025000
_cell_angle_alpha   90.00015125
_cell_angle_beta   89.99999231
_cell_angle_gamma   120.00061160
_symmetry_Int_Tables_number   1
_chemical_formula_structural   MgMoWS4
_chemical_formula_sum   'Mg8 Mo8 W8 S32'
_cell_volume   1572.41878776
_cell_formula_units_Z   8
loop_
 _symmetry_equiv_pos_site_id
 _symmetry_equiv_pos_as_xyz
  1  'x, y, z'
loop_
 _atom_site_type_symbol
 _atom_site_label
 _atom_site_symmetry_multiplicity
 _atom_site_fract_x
 _atom_site_fract_y
 _atom_site_fract_z
 _atom_site_occupancy
  Mg  Mg0_0  1  0.16680900  0.36982150  0.39990100  1
  Mg  Mg0_1  1  0.16680900  0.36982150  0.89990100  1
  Mg  Mg0_2  1  0.16680900  0.86982150  0.39990100  1
  Mg  Mg0_3  1  0.16680900  0.86982150  0.89990100  1
  Mg  Mg0_4  1  0.66680900  0.36982150  0.39990100  1
  Mg  Mg0_5  1  0.66680900  0.36982150  0.89990100  1
  Mg  Mg0_6  1  0.66680900  0.86982150  0.39990100  1
  Mg  Mg0_7  1  0.66680900  0.86982150  0.89990100  1
  Mo  Mo0_0  1  0.16665600  0.33331150  0.07521900  1
  Mo  Mo0_1  1  0.16665600  0.33331150  0.57521900  1
  Mo  Mo0_2  1  0.16665600  0.83331150  0.07521900  1
  Mo  Mo0_3  1  0.16665600  0.83331150  0.57521900  1
  Mo  Mo0_4  1  0.66665600  0.33331150  0.07521900  1
  Mo  Mo0_5  1  0.66665600  0.33331150  0.57521900  1
  Mo  Mo0_6  1  0.66665600  0.83331150  0.07521900  1
  Mo  Mo0_7  1  0.66665600  0.83331150  0.57521900  1
  W  W0_0  1  0.33334400  0.16668800  0.22571750  1
  W  W0_1  1  0.33334400  0.16668800  0.72571750  1
  W  W0_2  1  0.33334400  0.66668800  0.22571750  1
  W  W0_3  1  0.33334400  0.66668800  0.72571750  1
  W  W0_4  1  0.83334400  0.16668800  0.22571750  1
  W  W0_5  1  0.83334400  0.16668800  0.72571750  1
  W  W0_6  1  0.83334400  0.66668800  0.22571750  1
  W  W0_7  1  0.83334400  0.66668800  0.72571750  1
  S  S0_0  1  0.16667800  0.33335600  0.26088000  1
  S  S0_1  1  0.16667800  0.33335600  0.76088000  1
  S  S0_2  1  0.16667800  0.83335600  0.26088000  1
  S  S0_3  1  0.16667800  0.83335600  0.76088000  1
  S  S0_4  1  0.66667800  0.33335600  0.26088000  1
  S  S0_5  1  0.66667800  0.33335600  0.76088000  1
  S  S0_6  1  0.66667800  0.83335600  0.26088000  1
  S  S0_7  1  0.66667800  0.83335600  0.76088000  1
  S  S1_0  1  0.33332200  0.16664350  0.04021650  1
  S  S1_1  1  0.33332200  0.16664350  0.54021650  1
  S  S1_2  1  0.33332200  0.66664350  0.04021650  1
  S  S1_3  1  0.33332200  0.66664350  0.54021650  1
  S  S1_4  1  0.83332200  0.16664350  0.04021650  1
  S  S1_5  1  0.83332200  0.16664350  0.54021650  1
  S  S1_6  1  0.83332200  0.66664350  0.04021650  1
  S  S1_7  1  0.83332200  0.66664350  0.54021650  1
  S  S2_0  1  0.33332350  0.16664550  0.11021850  1
  S  S2_1  1  0.33332350  0.16664550  0.61021850  1
  S  S2_2  1  0.33332350  0.66664550  0.11021850  1
  S  S2_3  1  0.33332350  0.66664550  0.61021850  1
  S  S2_4  1  0.83332350  0.16664550  0.11021850  1
  S  S2_5  1  0.83332350  0.16664550  0.61021850  1
  S  S2_6  1  0.83332350  0.66664550  0.11021850  1
  S  S2_7  1  0.83332350  0.66664550  0.61021850  1
  S  S3_0  1  0.16667700  0.33335400  0.19054850  1
  S  S3_1  1  0.16667700  0.33335400  0.69054850  1
  S  S3_2  1  0.16667700  0.83335400  0.19054850  1
  S  S3_3  1  0.16667700  0.83335400  0.69054850  1
  S  S3_4  1  0.66667700  0.33335400  0.19054850  1
  S  S3_5  1  0.66667700  0.33335400  0.69054850  1
  S  S3_6  1  0.66667700  0.83335400  0.19054850  1
  S  S3_7  1  0.66667700  0.83335400  0.69054850  1
loop_
_geom_bond_atom_site_label_1
_geom_bond_atom_site_label_2
_geom_bond_distance
_geom_bond_site_symmetry_2
Mg0_0 Mg0_2 3.186617 1_545
Mg0_0 Mg0_2 3.186617 1_555
Mg0_0 Mg0_6 3.186626 1_555
Mg0_0 Mg0_6 3.186626 1_445
Mg0_0 Mg0_4 3.186695 1_455
Mg0_0 Mg0_4 3.186695 1_555
Mg0_1 Mg0_3 3.186617 1_555
Mg0_1 Mg0_3 3.186617 1_545
Mg0_1 Mg0_7 3.186626 1_445
Mg0_1 Mg0_7 3.186626 1_555
Mg0_1 Mg0_5 3.186695 1_555
Mg0_1 Mg0_5 3.186695 1_455
Mg0_2 Mg0_4 3.186626 1_455
Mg0_2 Mg0_4 3.186626 1_565
Mg0_2 Mg0_6 3.186695 1_455
Mg0_2 Mg0_6 3.186695 1_555
Mg0_3 Mg0_5 3.186626 1_455
Mg0_3 Mg0_5 3.186626 1_565
Mg0_3 Mg0_7 3.186695 1_555
Mg0_3 Mg0_7 3.186695 1_455
Mg0_4 Mg0_6 3.186617 1_555
Mg0_4 Mg0_6 3.186617 1_545
Mg0_5 Mg0_7 3.186617 1_545
Mg0_5 Mg0_7 3.186617 1_555
Mo0_0 S2_2 2.415039 1_555
Mo0_0 S2_4 2.415073 1_455
Mo0_0 S2_0 2.415073 1_555
Mo0_0 S1_2 2.415125 1_555
Mo0_0 S1_0 2.415158 1_555
Mo0_0 S1_4 2.415162 1_455
Mo0_1 S2_3 2.415039 1_555
Mo0_1 S2_5 2.415073 1_455
Mo0_1 S2_1 2.415073 1_555
Mo0_1 S1_3 2.415125 1_555
Mo0_1 S1_1 2.415158 1_555
Mo0_1 S1_5 2.415162 1_455
Mo0_2 S2_0 2.415039 1_565
Mo0_2 S2_6 2.415073 1_455
Mo0_2 S2_2 2.415073 1_555
Mo0_2 S1_0 2.415125 1_565
Mo0_2 S1_2 2.415158 1_555
Mo0_2 S1_6 2.415162 1_455
Mo0_3 S2_1 2.415039 1_565
Mo0_3 S2_7 2.415073 1_455
Mo0_3 S2_3 2.415073 1_555
Mo0_3 S1_1 2.415125 1_565
Mo0_3 S1_3 2.415158 1_555
Mo0_3 S1_7 2.415162 1_455
Mo0_4 S2_6 2.415039 1_555
Mo0_4 S2_0 2.415073 1_555
Mo0_4 S2_4 2.415073 1_555
Mo0_4 S1_6 2.415125 1_555
Mo0_4 S1_4 2.415158 1_555
Mo0_4 S1_0 2.415162 1_555
Mo0_5 S2_7 2.415039 1_555
Mo0_5 S2_1 2.415073 1_555
Mo0_5 S2_5 2.415073 1_555
Mo0_5 S1_7 2.415125 1_555
Mo0_5 S1_5 2.415158 1_555
Mo0_5 S1_1 2.415162 1_555
Mo0_6 S2_4 2.415039 1_565
Mo0_6 S2_2 2.415073 1_555
Mo0_6 S2_6 2.415073 1_555
Mo0_6 S1_4 2.415125 1_565
Mo0_6 S1_6 2.415158 1_555
Mo0_6 S1_2 2.415162 1_555
Mo0_7 S2_5 2.415039 1_565
Mo0_7 S2_3 2.415073 1_555
Mo0_7 S2_7 2.415073 1_555
Mo0_7 S1_5 2.415125 1_565
Mo0_7 S1_7 2.415158 1_555
Mo0_7 S1_3 2.415162 1_555
S0_0 W0_2 2.419764 1_555
S0_0 W0_0 2.419797 1_555
S0_0 W0_4 2.419802 1_455
S0_1 W0_3 2.419764 1_555
S0_1 W0_1 2.419797 1_555
S0_1 W0_5 2.419802 1_455
S0_2 W0_0 2.419764 1_565
S0_2 W0_2 2.419797 1_555
S0_2 W0_6 2.419802 1_455
S0_3 W0_1 2.419764 1_565
S0_3 W0_3 2.419797 1_555
S0_3 W0_7 2.419802 1_455
S0_4 W0_6 2.419764 1_555
S0_4 W0_4 2.419797 1_555
S0_4 W0_0 2.419802 1_555
S0_5 W0_7 2.419764 1_555
S0_5 W0_5 2.419797 1_555
S0_5 W0_1 2.419802 1_555
S0_6 W0_4 2.419764 1_565
S0_6 W0_6 2.419797 1_555
S0_6 W0_2 2.419802 1_555
S0_7 W0_5 2.419764 1_565
S0_7 W0_7 2.419797 1_555
S0_7 W0_3 2.419802 1_555
S3_0 W0_2 2.419954 1_555
S3_0 W0_0 2.419986 1_555
S3_0 W0_4 2.419990 1_455
S3_1 W0_3 2.419954 1_555
S3_1 W0_1 2.419986 1_555
S3_1 W0_5 2.419990 1_455
S3_2 W0_0 2.419954 1_565
S3_2 W0_2 2.419986 1_555
S3_2 W0_6 2.419990 1_455
S3_3 W0_1 2.419954 1_565
S3_3 W0_3 2.419986 1_555
S3_3 W0_7 2.419990 1_455
S3_4 W0_6 2.419954 1_555
S3_4 W0_4 2.419986 1_555
S3_4 W0_0 2.419990 1_555
S3_5 W0_7 2.419954 1_555
S3_5 W0_5 2.419986 1_555
S3_5 W0_1 2.419990 1_555
S3_6 W0_4 2.419954 1_565
S3_6 W0_6 2.419986 1_555
S3_6 W0_2 2.419990 1_555
S3_7 W0_5 2.419954 1_565
S3_7 W0_7 2.419986 1_555
S3_7 W0_3 2.419990 1_555
