# generated using pymatgen
data_Na6Nb4Al4Si7S5O48
_symmetry_space_group_name_H-M   'P 1'
_cell_length_a   17.53200041
_cell_length_b   8.73331437
_cell_length_c   22.45531459
_cell_angle_alpha   89.89803131
_cell_angle_beta   90.19330518
_cell_angle_gamma   119.89250440
_symmetry_Int_Tables_number   1
_chemical_formula_structural   Na6Nb4Al4Si7S5O48
_chemical_formula_sum   'Na18 Nb12 Al12 Si21 S15 O144'
_cell_volume   2980.76181875
_cell_formula_units_Z   3
loop_
 _symmetry_equiv_pos_site_id
 _symmetry_equiv_pos_as_xyz
  1  'x, y, z'
loop_
 _atom_site_type_symbol
 _atom_site_label
 _atom_site_symmetry_multiplicity
 _atom_site_fract_x
 _atom_site_fract_y
 _atom_site_fract_z
 _atom_site_occupancy
  Na  Na0  1  0.99985640  0.62070546  0.25193807  1
  Na  Na1  1  0.50117331  0.64443987  0.25553901  1
  Na  Na2  1  0.00010848  0.35840066  0.75076638  1
  Na  Na3  1  0.49983238  0.37840962  0.74927747  1
  Na  Na4  1  0.33340292  0.97008848  0.58132289  1
  Na  Na5  1  0.83226559  0.69554667  0.08322940  1
  Na  Na6  1  0.00010726  0.98724876  0.50063003  1
  Na  Na7  1  0.50230094  0.00544159  0.49920697  1
  Na  Na8  1  0.99820032  0.99818849  0.00166733  1
  Na  Na9  1  0.50138031  0.01488444  0.00212581  1
  Na  Na10  1  0.33158846  0.34706501  0.82480386  1
  Na  Na11  1  0.82983405  0.33287323  0.83265678  1
  Na  Na12  1  0.33101855  0.32932873  0.33385286  1
  Na  Na13  1  0.82901545  0.31560288  0.32730940  1
  Na  Na14  1  0.16968980  0.66218848  0.17396604  1
  Na  Na15  1  0.66911862  0.66908380  0.16844593  1
  Na  Na16  1  0.16859471  0.66894623  0.66488826  1
  Na  Na17  1  0.66946416  0.67622799  0.66899561  1
  Nb  Nb0  1  0.99554420  0.00750481  0.35709621  1
  Nb  Nb1  1  0.49994077  0.98396480  0.35721551  1
  Nb  Nb2  1  0.99493843  0.01451592  0.85294418  1
  Nb  Nb3  1  0.49655766  0.98468246  0.85601993  1
  Nb  Nb4  1  0.99865208  0.00463560  0.64481815  1
  Nb  Nb5  1  0.49948662  0.99477702  0.14790210  1
  Nb  Nb6  1  0.34214540  0.33131415  0.97394123  1
  Nb  Nb7  1  0.83572163  0.35686397  0.97963682  1
  Nb  Nb8  1  0.33650319  0.31298272  0.47931523  1
  Nb  Nb9  1  0.83655527  0.35507865  0.47041175  1
  Nb  Nb10  1  0.16728400  0.66339123  0.02592957  1
  Nb  Nb11  1  0.66549721  0.65213244  0.52181664  1
  Al  Al0  1  0.50620542  0.99847912  0.64620982  1
  Al  Al1  1  0.00164122  0.00440775  0.15039961  1
  Al  Al2  1  0.33285872  0.34015345  0.68531209  1
  Al  Al3  1  0.82498339  0.32133547  0.68452043  1
  Al  Al4  1  0.32633675  0.32507244  0.18837524  1
  Al  Al5  1  0.83284363  0.32705886  0.18667089  1
  Al  Al6  1  0.67023016  0.63951597  0.01642171  1
  Al  Al7  1  0.16942921  0.70074236  0.51640381  1
  Al  Al8  1  0.16628759  0.65846726  0.31210798  1
  Al  Al9  1  0.66726802  0.68420900  0.31897298  1
  Al  Al10  1  0.16592351  0.63947189  0.81399322  1
  Al  Al11  1  0.66568014  0.67195221  0.81159198  1
  Si  Si0  1  0.65439452  0.00250478  0.25088006  1
  Si  Si1  1  0.34564672  0.69383521  0.24946435  1
  Si  Si2  1  0.00094742  0.29486703  0.24388019  1
  Si  Si3  1  0.15337949  0.29823898  0.74923252  1
  Si  Si4  1  0.50099221  0.70681669  0.74362339  1
  Si  Si5  1  0.84341075  0.99725538  0.74687944  1
  Si  Si6  1  0.47882129  0.32621637  0.59299279  1
  Si  Si7  1  0.19123512  0.04442712  0.58723222  1
  Si  Si8  1  0.83206912  0.61297364  0.58935242  1
  Si  Si9  1  0.97784661  0.63248757  0.09208533  1
  Si  Si10  1  0.33397150  0.05221894  0.08954936  1
  Si  Si11  1  0.69001462  0.33615938  0.08754410  1
  Si  Si12  1  0.30524279  0.66280146  0.91561105  1
  Si  Si13  1  0.80396108  0.67176331  0.91400693  1
  Si  Si14  1  0.02358199  0.38690164  0.91433030  1
  Si  Si15  1  0.53569341  0.39320298  0.91299122  1
  Si  Si16  1  0.30276415  0.93315249  0.41383033  1
  Si  Si17  1  0.80452948  0.94835511  0.41656465  1
  Si  Si18  1  0.66349557  0.38642972  0.40892928  1
  Si  Si19  1  0.03496603  0.67516728  0.41280488  1
  Si  Si20  1  0.52361792  0.65837004  0.41544155  1
  S  S0  1  0.14577624  0.00477258  0.24767842  1
  S  S1  1  0.85309441  0.71132846  0.24805394  1
  S  S2  1  0.49936973  0.29389792  0.24954053  1
  S  S3  1  0.64596761  0.28700869  0.74773280  1
  S  S4  1  0.00117256  0.70775625  0.75037485  1
  S  S5  1  0.35139019  0.99280527  0.74921725  1
  S  S6  1  0.97949317  0.34280852  0.58357018  1
  S  S7  1  0.68870523  0.04918250  0.58568244  1
  S  S8  1  0.33258066  0.62178930  0.58452986  1
  S  S9  1  0.48037096  0.61891060  0.08395277  1
  S  S10  1  0.83226248  0.04306092  0.08440818  1
  S  S11  1  0.18864487  0.32373194  0.08583630  1
  S  S12  1  0.16575780  0.94756716  0.91421622  1
  S  S13  1  0.66815409  0.94640380  0.91783400  1
  S  S14  1  0.16825929  0.38993678  0.41787936  1
  O  O0  1  0.10650174  0.03344713  0.30184865  1
  O  O1  1  0.60007459  0.02919924  0.30648338  1
  O  O2  1  0.41705754  0.78994398  0.30454220  1
  O  O3  1  0.91209850  0.79600625  0.30210623  1
  O  O4  1  0.48267099  0.18295402  0.30253236  1
  O  O5  1  0.98803436  0.16657828  0.30455347  1
  O  O6  1  0.09991388  0.16804804  0.80736979  1
  O  O7  1  0.60540750  0.17892063  0.80244932  1
  O  O8  1  0.48803197  0.80879359  0.80485650  1
  O  O9  1  0.98515912  0.78749362  0.80386389  1
  O  O10  1  0.41116368  0.02566418  0.80334874  1
  O  O11  1  0.91507178  0.04393736  0.80483645  1
  O  O12  1  0.39233800  0.96561823  0.69598066  1
  O  O13  1  0.89857639  0.97042726  0.69244838  1
  O  O14  1  0.08085894  0.19809956  0.69464750  1
  O  O15  1  0.58807187  0.20411119  0.69508267  1
  O  O16  1  0.01484056  0.81766953  0.69652062  1
  O  O17  1  0.51412229  0.84295214  0.69089697  1
  O  O18  1  0.39789954  0.82664519  0.19159626  1
  O  O19  1  0.89710733  0.82132482  0.19427986  1
  O  O20  1  0.01487330  0.18801451  0.19012461  1
  O  O21  1  0.51267209  0.20869004  0.19526775  1
  O  O22  1  0.08825908  0.97303204  0.19449176  1
  O  O23  1  0.58211478  0.96339111  0.19425428  1
  O  O24  1  0.43034700  0.35691608  0.64785463  1
  O  O25  1  0.93888151  0.36188373  0.63891760  1
  O  O26  1  0.25704424  0.14023210  0.64187639  1
  O  O27  1  0.74358453  0.13009766  0.63960017  1
  O  O28  1  0.31938856  0.51326261  0.63797226  1
  O  O29  1  0.82106382  0.49011710  0.64513985  1
  O  O30  1  0.43842164  0.51380339  0.13767038  1
  O  O31  1  0.93208753  0.50378558  0.14689391  1
  O  O32  1  0.32013165  0.15306340  0.14368554  1
  O  O33  1  0.81959178  0.12558517  0.13736683  1
  O  O34  1  0.24422815  0.35749471  0.13884109  1
  O  O35  1  0.75814989  0.37512480  0.14098631  1
  O  O36  1  0.22861866  0.30434885  0.03071339  1
  O  O37  1  0.73407300  0.30242128  0.02591651  1
  O  O38  1  0.42303652  0.53649542  0.02962172  1
  O  O39  1  0.91688514  0.54311557  0.02949656  1
  O  O40  1  0.34428327  0.16688868  0.02756045  1
  O  O41  1  0.84896685  0.15200660  0.02955350  1
  O  O42  1  0.23323376  0.16592700  0.52604194  1
  O  O43  1  0.72860420  0.15478026  0.53174336  1
  O  O44  1  0.34895977  0.54622920  0.53013451  1
  O  O45  1  0.84640707  0.52515744  0.52825114  1
  O  O46  1  0.41686483  0.29027825  0.53036124  1
  O  O47  1  0.92333470  0.30892524  0.53069984  1
  O  O48  1  0.26589956  0.70071984  0.97624046  1
  O  O49  1  0.77119010  0.70574751  0.97770067  1
  O  O50  1  0.08509647  0.47812204  0.97353442  1
  O  O51  1  0.58235111  0.47380473  0.97541334  1
  O  O52  1  0.15440986  0.84730749  0.97017274  1
  O  O53  1  0.65236836  0.84037458  0.97193268  1
  O  O54  1  0.27010672  0.83586766  0.47810435  1
  O  O55  1  0.76690824  0.83176205  0.47705934  1
  O  O56  1  0.15237824  0.46427111  0.47193571  1
  O  O57  1  0.65091858  0.46474679  0.47328271  1
  O  O58  1  0.08304529  0.69415013  0.47529588  1
  O  O59  1  0.58418997  0.69604271  0.47504249  1
  O  O60  1  0.06912812  0.63608130  0.35197446  1
  O  O61  1  0.56174445  0.62769450  0.35447865  1
  O  O62  1  0.24252322  0.84872722  0.35679578  1
  O  O63  1  0.75199318  0.87329176  0.35612398  1
  O  O64  1  0.17868156  0.48748010  0.36289439  1
  O  O65  1  0.68296149  0.51228689  0.35321103  1
  O  O66  1  0.06464868  0.50119635  0.85473374  1
  O  O67  1  0.56848063  0.50182557  0.85240841  1
  O  O68  1  0.18112586  0.87030879  0.86141424  1
  O  O69  1  0.67866236  0.86951293  0.86290637  1
  O  O70  1  0.25044991  0.64001040  0.85681725  1
  O  O71  1  0.74398197  0.63925093  0.85707957  1
  O  O72  1  0.01636456  0.84319054  0.40510116  1
  O  O73  1  0.51320730  0.83616702  0.41337571  1
  O  O74  1  0.40523589  0.97691704  0.40630096  1
  O  O75  1  0.90605330  0.97417810  0.41062042  1
  O  O76  1  0.08845486  0.20381246  0.41179986  1
  O  O77  1  0.57822146  0.18921373  0.40763689  1
  O  O78  1  0.01685324  0.18973755  0.91241010  1
  O  O79  1  0.51507417  0.18792180  0.90602472  1
  O  O80  1  0.08710043  0.96805604  0.91031310  1
  O  O81  1  0.58867426  0.97358225  0.91170307  1
  O  O82  1  0.40656769  0.83533683  0.91064875  1
  O  O83  1  0.90867704  0.83333773  0.90646848  1
  O  O84  1  0.48542393  0.14487550  0.59785865  1
  O  O85  1  0.98640850  0.17595499  0.58783539  1
  O  O86  1  0.09251999  0.02288894  0.59291244  1
  O  O87  1  0.60032126  0.03350078  0.59220772  1
  O  O88  1  0.41112620  0.80481541  0.59141354  1
  O  O89  1  0.91991142  0.81112482  0.59241093  1
  O  O90  1  0.48513847  0.79537724  0.08664966  1
  O  O91  1  0.98606837  0.82773062  0.09696834  1
  O  O92  1  0.41975655  0.02681223  0.09051628  1
  O  O93  1  0.91076503  0.01676027  0.09076701  1
  O  O94  1  0.09976500  0.16857209  0.09132662  1
  O  O95  1  0.59162818  0.16052812  0.09172381  1
  O  O96  1  0.34722643  0.15730353  0.74644233  1
  O  O97  1  0.84635069  0.18633063  0.73725425  1
  O  O98  1  0.24628430  0.31111790  0.74007682  1
  O  O99  1  0.73368837  0.30148015  0.74200448  1
  O  O100  1  0.41368388  0.51159778  0.74077622  1
  O  O101  1  0.92342479  0.52814639  0.74340252  1
  O  O102  1  0.34665448  0.50857252  0.23683271  1
  O  O103  1  0.84875238  0.53780576  0.24469145  1
  O  O104  1  0.42033708  0.31581266  0.24117872  1
  O  O105  1  0.91375245  0.31588947  0.24046805  1
  O  O106  1  0.23392045  0.16592610  0.24123981  1
  O  O107  1  0.74558358  0.17868296  0.23927908  1
  O  O108  1  0.31795860  0.49059740  0.92633061  1
  O  O109  1  0.81717779  0.49311533  0.92117308  1
  O  O110  1  0.43078132  0.35985969  0.92269070  1
  O  O111  1  0.92290772  0.34741184  0.92340309  1
  O  O112  1  0.24531197  0.13046590  0.92134574  1
  O  O113  1  0.74643898  0.12662392  0.92268373  1
  O  O114  1  0.31608185  0.13930126  0.42125560  1
  O  O115  1  0.82248748  0.14830776  0.42762884  1
  O  O116  1  0.24642613  0.36624847  0.42281651  1
  O  O117  1  0.74968420  0.35912066  0.42100756  1
  O  O118  1  0.42241865  0.49445373  0.42448324  1
  O  O119  1  0.93187580  0.50253896  0.42171126  1
  O  O120  1  0.17988140  0.48801173  0.08129899  1
  O  O121  1  0.68229141  0.51525273  0.07787456  1
  O  O122  1  0.07330119  0.64867968  0.07657074  1
  O  O123  1  0.56841376  0.64284699  0.07622839  1
  O  O124  1  0.24684695  0.85678149  0.07861034  1
  O  O125  1  0.75227997  0.86453655  0.07759558  1
  O  O126  1  0.18248337  0.84904235  0.57833520  1
  O  O127  1  0.67922867  0.87123558  0.58195218  1
  O  O128  1  0.25268922  0.64054023  0.57829068  1
  O  O129  1  0.74782349  0.64288857  0.58194781  1
  O  O130  1  0.06897518  0.49420952  0.57758142  1
  O  O131  1  0.57334857  0.50310883  0.58108579  1
  O  O132  1  0.15380764  0.84502682  0.25245069  1
  O  O133  1  0.65260424  0.81360030  0.25653107  1
  O  O134  1  0.25304619  0.68225620  0.25865055  1
  O  O135  1  0.76711953  0.69655930  0.25393162  1
  O  O136  1  0.08630582  0.48884676  0.25593935  1
  O  O137  1  0.57839594  0.46903465  0.25313491  1
  O  O138  1  0.15175675  0.48431042  0.75514312  1
  O  O139  1  0.65354031  0.46263089  0.75357413  1
  O  O140  1  0.08192602  0.69300693  0.75648122  1
  O  O141  1  0.58639123  0.68450431  0.75632924  1
  O  O142  1  0.26342695  0.83685643  0.75843357  1
  O  O143  1  0.75285685  0.82382469  0.75930810  1
loop_
_geom_bond_atom_site_label_1
_geom_bond_atom_site_label_2
_geom_bond_distance
_geom_bond_site_symmetry_2
Na0 O136 2.317260 1_655
Na0 O105 2.329377 1_555
Na0 O103 2.377909 1_555
Na0 O132 2.419188 1_655
Na0 O60 2.521739 1_655
Na0 O31 2.607419 1_555
Na0 O3 2.888908 1_555
Na0 O22 2.963087 1_655
Na1 O133 2.306892 1_555
Na1 O102 2.390252 1_555
Na1 O61 2.494564 1_555
Na1 O137 2.500097 1_555
Na1 O104 2.509070 1_555
Na1 O2 2.623776 1_555
Na1 O23 2.779601 1_555
Na1 O30 2.873575 1_555
Na2 O138 2.317773 1_555
Na2 O97 2.361219 1_455
Na2 O101 2.452878 1_455
Na2 O140 2.536816 1_555
Na2 O66 2.621455 1_555
Na2 O11 2.675509 1_455
Na2 O25 2.734117 1_455
Na2 O14 2.746996 1_555
Na3 O100 2.327863 1_555
Na3 O141 2.330337 1_555
Na3 O96 2.395987 1_555
Na3 O139 2.415602 1_555
Na3 O24 2.541866 1_555
Na3 O67 2.582715 1_555
Na3 O15 2.925382 1_555
Na3 O10 2.933801 1_555
Na4 O126 2.309543 1_555
Na4 O84 2.347684 1_565
Na4 O88 2.438989 1_555
Na4 O128 2.496171 1_555
Na4 O54 2.583304 1_555
Na4 O46 2.681707 1_565
Na4 O12 2.778486 1_555
Na4 O26 2.802012 1_565
Na5 O121 2.297630 1_555
Na5 O91 2.364686 1_555
Na5 O93 2.438058 1_565
Na5 O125 2.494309 1_555
Na5 O49 2.616695 1_554
Na5 O39 2.723098 1_555
Na5 O19 2.731903 1_555
Na5 O35 2.752337 1_555
Na6 O89 2.538303 1_455
Na6 O86 2.548135 1_565
Na6 O75 2.570607 1_455
Na6 O72 2.576201 1_555
Na6 O85 2.649057 1_465
Na6 O76 2.653778 1_565
Na7 O73 2.496226 1_545
Na7 O77 2.540281 1_555
Na7 O84 2.617424 1_555
Na7 O74 2.620250 1_545
Na7 O87 2.632941 1_555
Na7 O88 2.670198 1_545
Na8 O78 2.523850 1_664
Na8 O91 2.552870 1_555
Na8 O93 2.578537 1_565
Na8 O94 2.604574 1_665
Na8 O83 2.615721 1_554
Na8 O80 2.671888 1_654
Na9 O95 2.480102 1_555
Na9 O92 2.483294 1_555
Na9 O79 2.574582 1_554
Na9 O90 2.608660 1_545
Na9 O82 2.613768 1_544
Na9 O81 2.677495 1_544
Na10 O98 2.338794 1_555
Na10 O100 2.375673 1_555
Na10 O96 2.526748 1_555
Na10 O108 2.671772 1_555
Na10 O110 2.765814 1_555
Na10 O112 2.778753 1_555
Na11 O109 2.506166 1_555
Na11 O99 2.564853 1_555
Na11 O111 2.569656 1_555
Na11 O97 2.587373 1_555
Na11 O101 2.615049 1_555
Na11 O113 2.617429 1_555
Na12 O114 2.496690 1_555
Na12 O118 2.544459 1_555
Na12 O116 2.606381 1_555
Na12 O106 2.612396 1_555
Na12 O102 2.614602 1_555
Na12 O104 2.646480 1_555
Na13 O107 2.392169 1_555
Na13 O105 2.454701 1_555
Na13 O103 2.578674 1_555
Na13 O115 2.654387 1_555
Na13 O117 2.656170 1_555
Na13 O119 2.731850 1_555
Na14 O134 2.347277 1_555
Na14 O136 2.370553 1_555
Na14 O132 2.487931 1_555
Na14 O120 2.638274 1_555
Na14 O124 2.649164 1_555
Na14 O122 2.725811 1_555
Na15 O133 2.442566 1_555
Na15 O135 2.502593 1_555
Na15 O121 2.513312 1_555
Na15 O137 2.537221 1_555
Na15 O125 2.593908 1_555
Na15 O123 2.651714 1_555
Na16 O126 2.433346 1_555
Na16 O138 2.512510 1_555
Na16 O128 2.530264 1_555
Na16 O130 2.560011 1_555
Na16 O142 2.623804 1_555
Na16 O140 2.631359 1_555
Na17 O143 2.454122 1_555
Na17 O141 2.469223 1_555
Na17 O129 2.492335 1_555
Na17 O127 2.539675 1_555
Na17 O131 2.543818 1_555
Na17 O139 2.576175 1_555
Nb0 O5 1.874788 1_555
Nb0 O75 1.883405 1_545
Nb0 O72 1.966837 1_645
Nb0 O76 2.076524 1_655
Nb0 O3 2.092668 1_545
Nb0 O0 2.225001 1_655
Nb1 O73 1.897893 1_555
Nb1 O1 1.963777 1_565
Nb1 O74 1.971232 1_555
Nb1 O2 1.980657 1_555
Nb1 O77 1.980710 1_565
Nb1 O4 2.265812 1_565
Nb2 O11 1.881769 1_555
Nb2 O78 1.920991 1_655
Nb2 O6 1.944347 1_655
Nb2 O83 1.963591 1_545
Nb2 O9 2.200604 1_545
Nb2 O80 2.252224 1_645
Nb3 O8 1.864977 1_555
Nb3 O82 1.910863 1_555
Nb3 O79 1.986703 1_565
Nb3 O10 2.070994 1_565
Nb3 O81 2.079191 1_555
Nb3 O7 2.178991 1_565
Nb4 O14 1.937152 1_655
Nb4 O13 1.949518 1_545
Nb4 O89 1.953818 1_545
Nb4 O86 1.960366 1_655
Nb4 O85 2.057520 1_555
Nb4 O16 2.132499 1_645
Nb5 O23 1.908311 1_555
Nb5 O18 1.921141 1_555
Nb5 O95 1.993198 1_565
Nb5 O92 2.017200 1_565
Nb5 O21 2.061485 1_565
Nb5 O90 2.134766 1_555
Nb6 O110 1.851030 1_555
Nb6 O40 1.886885 1_556
Nb6 O108 1.958952 1_555
Nb6 O38 2.061192 1_556
Nb6 O112 2.092711 1_555
Nb6 O36 2.278381 1_556
Nb7 O39 1.900747 1_556
Nb7 O109 1.903229 1_555
Nb7 O37 1.910004 1_556
Nb7 O111 2.019148 1_555
Nb7 O41 2.217286 1_556
Nb7 O113 2.233236 1_555
Nb8 O114 1.895062 1_555
Nb8 O46 1.898675 1_555
Nb8 O42 1.928388 1_555
Nb8 O118 1.980588 1_555
Nb8 O116 2.244235 1_555
Nb8 O44 2.250012 1_555
Nb9 O119 1.873324 1_555
Nb9 O117 1.895688 1_555
Nb9 O45 1.916409 1_555
Nb9 O115 1.950725 1_555
Nb9 O47 2.214797 1_555
Nb9 O43 2.290790 1_555
Nb10 O50 1.936483 1_554
Nb10 O48 1.946886 1_554
Nb10 O122 1.955939 1_555
Nb10 O124 1.960968 1_555
Nb10 O120 2.066191 1_555
Nb10 O52 2.133238 1_554
Nb11 O57 1.875837 1_555
Nb11 O59 1.953348 1_555
Nb11 O55 1.964315 1_555
Nb11 O131 1.996930 1_555
Nb11 O129 2.003891 1_555
Nb11 O127 2.256269 1_555
Al0 O17 1.747345 1_555
Al0 O84 1.844695 1_565
Al0 O87 1.948283 1_565
Al0 O15 1.979074 1_565
Al0 O88 2.082475 1_555
Al0 O12 2.181652 1_555
Al1 O20 1.747473 1_555
Al1 O91 1.865304 1_445
Al1 O22 1.940396 1_545
Al1 O19 1.992983 1_445
Al1 O94 2.079616 1_555
Al1 O93 2.121219 1_455
Al2 O24 1.846624 1_555
Al2 O26 1.857586 1_555
Al2 O98 1.873031 1_555
Al2 O100 1.918575 1_555
Al2 O28 1.954443 1_555
Al2 O96 2.211018 1_555
Al3 O29 1.747962 1_555
Al3 O97 1.834386 1_555
Al3 O27 1.861186 1_555
Al3 O99 1.998665 1_555
Al3 O25 2.114040 1_555
Al3 O101 2.207966 1_555
Al4 O32 1.765576 1_555
Al4 O102 1.820362 1_555
Al4 O106 1.930962 1_555
Al4 O34 1.945250 1_555
Al4 O104 2.061002 1_555
Al4 O30 2.157463 1_555
Al5 O107 1.856314 1_555
Al5 O35 1.865689 1_555
Al5 O31 1.880478 1_555
Al5 O105 1.899188 1_555
Al5 O33 1.993344 1_555
Al5 O103 2.158050 1_555
Al6 O51 1.757510 1_554
Al6 O49 1.792120 1_554
Al6 O121 1.829786 1_555
Al6 O53 2.170798 1_554
Al6 O125 2.235341 1_555
Al6 O123 2.249199 1_555
Al7 O58 1.747260 1_555
Al7 O54 1.782754 1_555
Al7 O126 1.836470 1_555
Al7 O56 2.177473 1_555
Al7 O130 2.254662 1_555
Al7 O128 2.255463 1_555
Al8 O62 1.826898 1_555
Al8 O60 1.849035 1_555
Al8 O134 1.869273 1_555
Al8 O136 1.917231 1_555
Al8 O64 1.973163 1_555
Al8 O132 2.200592 1_555
Al9 O63 1.783499 1_555
Al9 O65 1.824109 1_555
Al9 O61 1.844000 1_555
Al9 O133 1.894875 1_555
Al9 O135 2.244514 1_555
Al9 O137 2.284871 1_555
Al10 O70 1.761897 1_555
Al10 O138 1.820154 1_555
Al10 O66 1.821444 1_555
Al10 O142 2.125983 1_555
Al10 O140 2.174031 1_555
Al10 O68 2.176982 1_555
Al11 O71 1.841120 1_555
Al11 O67 1.852985 1_555
Al11 O143 1.859984 1_555
Al11 O141 1.903701 1_555
Al11 O69 1.992563 1_555
Al11 O139 2.168695 1_555
O0 S0 1.481583 1_555
O1 Si0 1.658502 1_555
O2 Si1 1.657533 1_555
O3 S1 1.523948 1_555
O4 S2 1.468325 1_555
O5 Si2 1.704870 1_655
O6 Si3 1.678206 1_555
O7 S3 1.496355 1_555
O8 Si4 1.715695 1_555
O9 S4 1.485445 1_655
O10 S5 1.533291 1_545
O11 Si5 1.708427 1_545
O12 S5 1.475648 1_555
O13 Si5 1.648970 1_555
O14 Si3 1.663958 1_555
O15 S3 1.488179 1_555
O16 S4 1.486551 1_555
O17 Si4 1.610084 1_555
O18 Si1 1.678292 1_555
O19 S1 1.496541 1_555
O20 Si2 1.618828 1_555
O21 S2 1.507161 1_555
O22 S0 1.494836 1_565
O23 Si0 1.702514 1_565
O24 Si6 1.595982 1_555
O25 S6 1.484687 1_555
O26 Si7 1.602742 1_555
O27 S7 1.486091 1_555
O28 S8 1.473532 1_555
O29 Si8 1.596326 1_555
O30 S9 1.472300 1_555
O31 Si9 1.588913 1_555
O32 Si10 1.590947 1_555
O33 S10 1.465397 1_555
O34 S11 1.469781 1_555
O35 Si11 1.602964 1_555
O36 S11 1.475400 1_555
O37 Si11 1.683470 1_555
O38 S9 1.513478 1_555
O39 Si9 1.699724 1_555
O40 Si10 1.670170 1_555
O41 S10 1.492930 1_555
O42 Si7 1.667024 1_555
O43 S7 1.471594 1_555
O44 S8 1.484589 1_555
O45 Si8 1.652910 1_555
O46 Si6 1.705235 1_555
O47 S6 1.472888 1_555
O48 Si12 1.635423 1_555
O49 Si13 1.625072 1_555
O50 Si14 1.644053 1_555
O51 Si15 1.597266 1_555
O52 S12 1.486350 1_555
O53 S13 1.467180 1_555
O54 Si16 1.627607 1_555
O55 Si17 1.627539 1_555
O56 S14 1.468894 1_555
O57 Si18 1.661527 1_555
O58 Si19 1.600216 1_555
O59 Si20 1.634291 1_555
O60 Si19 1.597517 1_555
O61 Si20 1.605785 1_555
O62 Si16 1.586630 1_555
O63 Si17 1.585254 1_555
O64 S14 1.458151 1_555
O65 Si18 1.585598 1_555
O66 Si14 1.609682 1_555
O67 Si15 1.593171 1_555
O68 S12 1.455986 1_555
O69 S13 1.460815 1_555
O70 Si12 1.583425 1_555
O71 Si13 1.585909 1_555
O72 Si19 1.662905 1_555
O73 Si20 1.651875 1_555
O74 Si16 1.649123 1_555
O75 Si17 1.684687 1_555
O76 S14 1.533307 1_555
O77 Si18 1.623494 1_555
O78 Si14 1.666872 1_555
O79 Si15 1.650415 1_555
O80 S12 1.478676 1_555
O81 S13 1.531413 1_555
O82 Si12 1.664718 1_555
O83 Si13 1.676113 1_555
O84 Si6 1.647876 1_555
O85 S6 1.524066 1_555
O86 Si7 1.650396 1_555
O87 S7 1.493740 1_555
O88 S8 1.510173 1_555
O89 Si8 1.647560 1_555
O90 S9 1.502553 1_555
O91 Si9 1.641891 1_555
O92 Si10 1.626056 1_555
O93 S10 1.510306 1_555
O94 S11 1.474978 1_555
O95 Si11 1.643241 1_555
O96 S5 1.475553 1_545
O97 Si5 1.640116 1_545
O98 Si3 1.589813 1_555
O99 S3 1.485011 1_555
O100 Si4 1.628600 1_555
O101 S4 1.487023 1_655
O102 Si1 1.651882 1_555
O103 S1 1.481014 1_555
O104 S2 1.501405 1_555
O105 Si2 1.629546 1_655
O106 S0 1.490876 1_555
O107 Si0 1.593954 1_555
O108 Si12 1.643753 1_555
O109 Si13 1.694985 1_555
O110 Si15 1.727409 1_555
O111 Si14 1.634377 1_655
O112 S12 1.516955 1_545
O113 S13 1.489714 1_545
O114 Si16 1.704533 1_545
O115 Si17 1.631948 1_545
O116 S14 1.488161 1_555
O117 Si18 1.664320 1_555
O118 Si20 1.645654 1_555
O119 Si19 1.692606 1_655
O120 S11 1.520348 1_555
O121 Si11 1.649699 1_555
O122 Si9 1.646171 1_455
O123 S9 1.461655 1_555
O124 Si10 1.645311 1_565
O125 S10 1.496924 1_565
O126 Si7 1.647772 1_565
O127 S7 1.480795 1_565
O128 S8 1.495159 1_555
O129 Si8 1.631019 1_555
O130 S6 1.469943 1_455
O131 Si6 1.629167 1_555
O132 S0 1.474045 1_565
O133 Si0 1.639046 1_565
O134 Si1 1.589650 1_555
O135 S1 1.453802 1_555
O136 Si2 1.629329 1_555
O137 S2 1.467301 1_555
O138 Si3 1.644990 1_555
O139 S3 1.478139 1_555
O140 S4 1.490033 1_555
O141 Si4 1.627498 1_555
O142 S5 1.477718 1_555
O143 Si5 1.580229 1_555
