# generated using pymatgen
data_Cs3InO3
_symmetry_space_group_name_H-M   'P 1'
_cell_length_a   7.35243083
_cell_length_b   8.20845995
_cell_length_c   11.83466999
_cell_angle_alpha   84.54952926
_cell_angle_beta   90.00000000
_cell_angle_gamma   90.00000000
_symmetry_Int_Tables_number   1
_chemical_formula_structural   Cs3InO3
_chemical_formula_sum   'Cs12 In4 O12'
_cell_volume   711.01824734
_cell_formula_units_Z   4
loop_
 _symmetry_equiv_pos_site_id
 _symmetry_equiv_pos_as_xyz
  1  'x, y, z'
loop_
 _atom_site_type_symbol
 _atom_site_label
 _atom_site_symmetry_multiplicity
 _atom_site_fract_x
 _atom_site_fract_y
 _atom_site_fract_z
 _atom_site_occupancy
  Cs  Cs0  1  0.83246978  0.65122459  0.42761390  1
  Cs  Cs1  1  0.82091351  0.37443396  0.19355409  1
  Cs  Cs2  1  0.32091351  0.62556604  0.30644591  1
  Cs  Cs3  1  0.67908649  0.37443396  0.69355409  1
  Cs  Cs4  1  0.62294450  0.95173890  0.15598111  1
  Cs  Cs5  1  0.16753022  0.34877541  0.57238610  1
  Cs  Cs6  1  0.87705550  0.95173890  0.65598111  1
  Cs  Cs7  1  0.17908649  0.62556604  0.80644591  1
  Cs  Cs8  1  0.66753022  0.65122459  0.92761390  1
  Cs  Cs9  1  0.37705550  0.04826110  0.84401889  1
  Cs  Cs10  1  0.12294450  0.04826110  0.34401889  1
  Cs  Cs11  1  0.33246978  0.34877541  0.07238610  1
  In  In0  1  0.41591757  0.84370814  0.56692932  1
  In  In1  1  0.08408243  0.84370814  0.06692932  1
  In  In2  1  0.58408243  0.15629186  0.43307068  1
  In  In3  1  0.91591757  0.15629186  0.93307068  1
  O  O0  1  0.94287979  0.70846636  0.19190642  1
  O  O1  1  0.16087380  0.75405452  0.53971914  1
  O  O2  1  0.44718989  0.09865030  0.59130961  1
  O  O3  1  0.33912620  0.75405452  0.03971914  1
  O  O4  1  0.55712021  0.70846636  0.69190642  1
  O  O5  1  0.55281011  0.90134970  0.40869039  1
  O  O6  1  0.05712021  0.29153364  0.80809358  1
  O  O7  1  0.44287979  0.29153364  0.30809358  1
  O  O8  1  0.83912620  0.24594548  0.46028086  1
  O  O9  1  0.66087380  0.24594548  0.96028086  1
  O  O10  1  0.05281011  0.09865030  0.09130961  1
  O  O11  1  0.94718989  0.90134970  0.90869039  1
loop_
_geom_bond_atom_site_label_1
_geom_bond_atom_site_label_2
_geom_bond_distance
_geom_bond_site_symmetry_2
Cs0 O5 2.899322 1_555
Cs0 O0 2.900378 1_555
Cs0 O1 2.918141 1_655
Cs0 O8 3.312790 1_555
Cs1 O0 2.883115 1_555
Cs1 O7 3.138589 1_555
Cs1 O10 3.164836 1_655
Cs1 O8 3.234519 1_555
Cs1 O9 3.266745 1_554
Cs2 O7 2.883115 1_555
Cs2 O0 3.138589 1_455
Cs2 O5 3.164836 1_555
Cs2 O3 3.234519 1_555
Cs2 O1 3.266745 1_555
Cs3 O4 2.883115 1_555
Cs3 O6 3.138589 1_655
Cs3 O2 3.164836 1_555
Cs3 O9 3.234519 1_555
Cs3 O8 3.266745 1_555
Cs4 O5 3.024311 1_555
Cs4 O3 3.050402 1_555
Cs4 O0 3.088751 1_555
Cs4 O9 3.195535 1_564
Cs4 O10 3.442935 1_665
Cs5 O2 2.899322 1_555
Cs5 O6 2.900378 1_555
Cs5 O8 2.918141 1_455
Cs5 O1 3.312790 1_555
Cs6 O11 3.024311 1_555
Cs6 O1 3.050402 1_655
Cs6 O4 3.088751 1_555
Cs6 O8 3.195535 1_565
Cs6 O2 3.442935 1_565
Cs7 O6 2.883115 1_555
Cs7 O4 3.138589 1_555
Cs7 O11 3.164836 1_455
Cs7 O1 3.234519 1_555
Cs7 O3 3.266745 1_556
Cs8 O11 2.899322 1_555
Cs8 O4 2.900378 1_555
Cs8 O3 2.918141 1_556
Cs8 O9 3.312790 1_555
Cs9 O2 3.024311 1_555
Cs9 O9 3.050402 1_555
Cs9 O6 3.088751 1_555
Cs9 O3 3.195535 1_546
Cs9 O11 3.442935 1_445
Cs10 O10 3.024311 1_555
Cs10 O8 3.050402 1_455
Cs10 O7 3.088751 1_555
Cs10 O1 3.195535 1_545
Cs10 O5 3.442935 1_545
Cs11 O10 2.899322 1_555
Cs11 O7 2.900378 1_555
Cs11 O9 2.918141 1_554
Cs11 O3 3.312790 1_555
In0 O4 2.045950 1_555
In0 O1 2.051009 1_555
In0 O5 2.139064 1_555
In0 O2 2.151777 1_565
In1 O0 2.045950 1_455
In1 O3 2.051009 1_555
In1 O11 2.139064 1_454
In1 O10 2.151777 1_565
In2 O7 2.045950 1_555
In2 O8 2.051009 1_555
In2 O2 2.139064 1_555
In2 O5 2.151777 1_545
In3 O6 2.045950 1_655
In3 O9 2.051009 1_555
In3 O10 2.139064 1_656
In3 O11 2.151777 1_545
