# generated using pymatgen
data_Na7NbGa3Si3(PO8)3
_symmetry_space_group_name_H-M   'P 1'
_cell_length_a   8.93979995
_cell_length_b   8.91223295
_cell_length_c   21.98378270
_cell_angle_alpha   90.03062421
_cell_angle_beta   90.11329252
_cell_angle_gamma   120.08058074
_symmetry_Int_Tables_number   1
_chemical_formula_structural   Na7NbGa3Si3(PO8)3
_chemical_formula_sum   'Na21 Nb3 Ga9 Si9 P9 O72'
_cell_volume   1515.62809518
_cell_formula_units_Z   3
loop_
 _symmetry_equiv_pos_site_id
 _symmetry_equiv_pos_as_xyz
  1  'x, y, z'
loop_
 _atom_site_type_symbol
 _atom_site_label
 _atom_site_symmetry_multiplicity
 _atom_site_fract_x
 _atom_site_fract_y
 _atom_site_fract_z
 _atom_site_occupancy
  Na  Na0  1  0.62961986  0.99826235  0.25199395  1
  Na  Na1  1  0.36839748  0.37066975  0.25166188  1
  Na  Na2  1  0.00229601  0.63307483  0.25302581  1
  Na  Na3  1  0.63890424  0.62884804  0.74520703  1
  Na  Na4  1  0.99440769  0.35811735  0.74423602  1
  Na  Na5  1  0.29721749  0.33879742  0.58397764  1
  Na  Na6  1  0.03624878  0.70083216  0.58296727  1
  Na  Na7  1  0.66612495  0.96205338  0.58142716  1
  Na  Na8  1  0.29976799  0.96524916  0.08415331  1
  Na  Na9  1  0.66261684  0.70031916  0.08467997  1
  Na  Na10  1  0.03951924  0.33260780  0.08244101  1
  Na  Na11  1  0.32429453  0.29610829  0.91366230  1
  Na  Na12  1  0.97354055  0.29796797  0.41585645  1
  Na  Na13  1  0.32692366  0.02790645  0.41560571  1
  Na  Na14  1  0.70038315  0.67405296  0.41567250  1
  Na  Na15  1  0.99831205  0.00039763  0.49977056  1
  Na  Na16  1  0.99220108  0.99641918  0.99673076  1
  Na  Na17  1  0.66398620  0.32438186  0.82814676  1
  Na  Na18  1  0.66550409  0.33234913  0.33183320  1
  Na  Na19  1  0.33596316  0.66662288  0.16661318  1
  Na  Na20  1  0.33443689  0.67161945  0.66032152  1
  Nb  Nb0  1  0.66951161  0.32782700  0.97920272  1
  Nb  Nb1  1  0.67224873  0.33764502  0.48001999  1
  Nb  Nb2  1  0.32746918  0.66410826  0.81135525  1
  Ga  Ga0  1  0.99871568  0.99910308  0.35389466  1
  Ga  Ga1  1  0.00099389  0.00590080  0.85098526  1
  Ga  Ga2  1  0.99827952  0.00452111  0.64765154  1
  Ga  Ga3  1  0.00154300  0.00574629  0.14798119  1
  Ga  Ga4  1  0.65844586  0.33095856  0.68336084  1
  Ga  Ga5  1  0.66089574  0.32995169  0.18156291  1
  Ga  Ga6  1  0.33855489  0.66379297  0.01765093  1
  Ga  Ga7  1  0.33255357  0.66052820  0.51626722  1
  Ga  Ga8  1  0.33253354  0.66580207  0.32109253  1
  Si  Si0  1  0.29339891  0.27751701  0.74974164  1
  Si  Si1  1  0.96168945  0.33503168  0.58789539  1
  Si  Si2  1  0.66666244  0.63129854  0.58704277  1
  Si  Si3  1  0.66463349  0.03487747  0.08671183  1
  Si  Si4  1  0.37245602  0.33394753  0.08541924  1
  Si  Si5  1  0.04109501  0.37021286  0.91878860  1
  Si  Si6  1  0.62167322  0.95179236  0.41565799  1
  Si  Si7  1  0.32917580  0.37510624  0.41507256  1
  Si  Si8  1  0.04989900  0.67184455  0.41580388  1
  P  P0  1  0.28949859  0.99945076  0.24928569  1
  P  P1  1  0.71093721  0.70921658  0.24873367  1
  P  P2  1  0.99964675  0.29288552  0.24944446  1
  P  P3  1  0.99923953  0.71788648  0.75004832  1
  P  P4  1  0.71252027  0.00399971  0.74980083  1
  P  P5  1  0.37559775  0.04088292  0.58517011  1
  P  P6  1  0.95793410  0.62432268  0.08579573  1
  P  P7  1  0.63211505  0.67617821  0.91739548  1
  P  P8  1  0.32576525  0.95078668  0.91906583  1
  O  O0  1  0.20736391  0.03213487  0.30588057  1
  O  O1  1  0.82482152  0.79129851  0.30590969  1
  O  O2  1  0.96504086  0.17654517  0.30590132  1
  O  O3  1  0.20817344  0.17597727  0.81234042  1
  O  O4  1  0.96689900  0.80043644  0.80586194  1
  O  O5  1  0.82794324  0.03453115  0.80566766  1
  O  O6  1  0.78076471  0.95665442  0.69218399  1
  O  O7  1  0.16585693  0.20808281  0.69065622  1
  O  O8  1  0.03166279  0.82288492  0.69145904  1
  O  O9  1  0.79425559  0.82364893  0.19145151  1
  O  O10  1  0.03269804  0.21173094  0.19193180  1
  O  O11  1  0.17514276  0.96726883  0.19175335  1
  O  O12  1  0.86966428  0.36853277  0.64585645  1
  O  O13  1  0.49571825  0.12535969  0.63960012  1
  O  O14  1  0.62608723  0.50428852  0.64488642  1
  O  O15  1  0.87900252  0.50848768  0.14243159  1
  O  O16  1  0.62630804  0.12197181  0.14519575  1
  O  O17  1  0.49959102  0.37768646  0.14412714  1
  O  O18  1  0.46779261  0.30149279  0.02545371  1
  O  O19  1  0.83490747  0.53323999  0.02979012  1
  O  O20  1  0.70250714  0.17116607  0.02806779  1
  O  O21  1  0.45973844  0.15702886  0.52686310  1
  O  O22  1  0.69795865  0.53492129  0.52643355  1
  O  O23  1  0.83396732  0.30068607  0.52692605  1
  O  O24  1  0.55028895  0.70065990  0.97510890  1
  O  O25  1  0.16396234  0.46098561  0.97734308  1
  O  O26  1  0.30746953  0.84722457  0.97683835  1
  O  O27  1  0.54120858  0.83471986  0.47609072  1
  O  O28  1  0.28951253  0.45252998  0.47566039  1
  O  O29  1  0.16674493  0.70854398  0.47628952  1
  O  O30  1  0.11974072  0.62068040  0.35496848  1
  O  O31  1  0.50106043  0.87962264  0.35445239  1
  O  O32  1  0.37967680  0.49810136  0.35454006  1
  O  O33  1  0.13685591  0.49696130  0.85854829  1
  O  O34  1  0.35948582  0.86499735  0.86276686  1
  O  O35  1  0.50817900  0.64022463  0.86101437  1
  O  O36  1  0.01971517  0.83678694  0.40940601  1
  O  O37  1  0.81586879  0.97919450  0.40925738  1
  O  O38  1  0.16135974  0.18129909  0.40845048  1
  O  O39  1  0.02543873  0.18254256  0.91140560  1
  O  O40  1  0.17092587  0.97700009  0.91257235  1
  O  O41  1  0.81111625  0.83064930  0.90865243  1
  O  O42  1  0.97408752  0.15806187  0.58782287  1
  O  O43  1  0.19675482  0.02806020  0.58860461  1
  O  O44  1  0.84705411  0.81753308  0.58947353  1
  O  O45  1  0.97054118  0.80316081  0.08918644  1
  O  O46  1  0.83911279  0.02007838  0.08914903  1
  O  O47  1  0.18453580  0.15535023  0.08915282  1
  O  O48  1  0.69553404  0.16635902  0.74411951  1
  O  O49  1  0.49243855  0.31890552  0.74552531  1
  O  O50  1  0.84428011  0.52973831  0.74737083  1
  O  O51  1  0.69464846  0.52582834  0.24465855  1
  O  O52  1  0.83534048  0.31227461  0.24422772  1
  O  O53  1  0.47334052  0.16605226  0.24555562  1
  O  O54  1  0.63431795  0.50057792  0.92177409  1
  O  O55  1  0.85192765  0.36105872  0.92163354  1
  O  O56  1  0.49338856  0.13823966  0.92224003  1
  O  O57  1  0.64157170  0.14715031  0.42213617  1
  O  O58  1  0.50296632  0.35398861  0.42236225  1
  O  O59  1  0.85342367  0.49547612  0.42189209  1
  O  O60  1  0.35344197  0.50587335  0.07855387  1
  O  O61  1  0.13754308  0.64366998  0.07789466  1
  O  O62  1  0.49011163  0.84872074  0.07648414  1
  O  O63  1  0.35750760  0.86110262  0.57891190  1
  O  O64  1  0.49565196  0.64994350  0.57921968  1
  O  O65  1  0.14893772  0.50990345  0.57999909  1
  O  O66  1  0.30833722  0.83505467  0.25284509  1
  O  O67  1  0.52836957  0.69056713  0.25234863  1
  O  O68  1  0.16517569  0.47563465  0.25353015  1
  O  O69  1  0.31421753  0.48210337  0.75729971  1
  O  O70  1  0.16543454  0.69549685  0.75658611  1
  O  O71  1  0.52921641  0.83684140  0.75822993  1
loop_
_geom_bond_atom_site_label_1
_geom_bond_atom_site_label_2
_geom_bond_distance
_geom_bond_site_symmetry_2
Na0 O67 2.418915 1_555
Na0 O52 2.466927 1_565
Na0 O66 2.485542 1_555
Na0 O53 2.510348 1_565
Na0 O31 2.511353 1_555
Na0 O16 2.600761 1_565
Na0 O2 2.851049 1_565
Na0 O9 2.942947 1_555
Na1 O68 2.425148 1_555
Na1 O53 2.436995 1_555
Na1 O67 2.467051 1_555
Na1 O32 2.509304 1_555
Na1 O51 2.530135 1_555
Na1 O17 2.627864 1_555
Na1 O0 2.872749 1_555
Na1 O10 2.908305 1_555
Na2 O66 2.406004 1_555
Na2 O51 2.423684 1_455
Na2 O68 2.477349 1_555
Na2 O52 2.481908 1_455
Na2 O30 2.498848 1_555
Na2 O15 2.668065 1_455
Na2 O1 2.847034 1_455
Na2 O11 2.910683 1_555
Na3 O49 2.391462 1_555
Na3 O50 2.403916 1_555
Na3 O14 2.445044 1_555
Na3 O71 2.510445 1_555
Na3 O69 2.530693 1_555
Na3 O6 2.792415 1_555
Na3 O35 2.826275 1_555
Na3 O4 2.863883 1_555
Na4 O48 2.341410 1_555
Na4 O12 2.454425 1_555
Na4 O50 2.490683 1_555
Na4 O69 2.511390 1_655
Na4 O70 2.615590 1_655
Na4 O7 2.754000 1_655
Na4 O33 2.805802 1_655
Na4 O5 2.839930 1_555
Na5 O64 2.432551 1_555
Na5 O43 2.448208 1_555
Na5 O65 2.473120 1_555
Na5 O42 2.506617 1_455
Na5 O28 2.602747 1_555
Na5 O7 2.622705 1_555
Na5 O14 2.871855 1_555
Na5 O21 2.945531 1_555
Na6 O65 2.373421 1_555
Na6 O44 2.393138 1_455
Na6 O63 2.487048 1_555
Na6 O43 2.526533 1_565
Na6 O29 2.606950 1_555
Na6 O8 2.629779 1_555
Na6 O22 2.894403 1_455
Na6 O12 2.913978 1_455
Na7 O64 2.410870 1_555
Na7 O42 2.414159 1_565
Na7 O63 2.436293 1_555
Na7 O44 2.528621 1_555
Na7 O27 2.571757 1_555
Na7 O6 2.649689 1_555
Na7 O23 2.875184 1_565
Na7 O13 2.881459 1_565
Na8 O47 2.386106 1_565
Na8 O62 2.403117 1_555
Na8 O61 2.483609 1_555
Na8 O45 2.549705 1_455
Na8 O26 2.597598 1_554
Na8 O11 2.620584 1_555
Na8 O16 2.858085 1_565
Na8 O18 2.898476 1_565
Na9 O60 2.420236 1_555
Na9 O45 2.428437 1_555
Na9 O46 2.472261 1_565
Na9 O62 2.490731 1_555
Na9 O9 2.606194 1_555
Na9 O24 2.608478 1_554
Na9 O17 2.812561 1_555
Na9 O19 2.889675 1_555
Na10 O60 2.434061 1_555
Na10 O46 2.447200 1_455
Na10 O61 2.455339 1_555
Na10 O47 2.500126 1_555
Na10 O25 2.573308 1_554
Na10 O10 2.625930 1_555
Na10 O20 2.866106 1_455
Na10 O15 2.918141 1_455
Na11 O39 2.335301 1_555
Na11 O54 2.443122 1_555
Na11 O3 2.461619 1_555
Na11 O40 2.461621 1_545
Na11 O56 2.536027 1_555
Na11 O18 2.759253 1_556
Na11 O25 2.879333 1_555
Na11 O35 2.899134 1_555
Na12 O38 2.382839 1_655
Na12 O37 2.462429 1_545
Na12 O59 2.482788 1_555
Na12 O57 2.576098 1_555
Na12 O2 2.633224 1_555
Na12 O23 2.749875 1_555
Na12 O28 2.772708 1_655
Na12 O30 2.831020 1_655
Na13 O36 2.402372 1_545
Na13 O57 2.462514 1_555
Na13 O38 2.472245 1_555
Na13 O58 2.521560 1_555
Na13 O0 2.644371 1_555
Na13 O21 2.707783 1_555
Na13 O29 2.803081 1_545
Na13 O31 2.836544 1_545
Na14 O37 2.380738 1_555
Na14 O36 2.474561 1_655
Na14 O58 2.495601 1_555
Na14 O59 2.570155 1_555
Na14 O1 2.645760 1_555
Na14 O22 2.728272 1_555
Na14 O27 2.808450 1_555
Na14 O32 2.821487 1_555
Na15 O42 2.464170 1_555
Na15 O44 2.485599 1_545
Na15 O37 2.516563 1_545
Na15 O36 2.527302 1_645
Na15 O38 2.532496 1_655
Na15 O43 2.563045 1_655
Na16 O39 2.422763 1_665
Na16 O41 2.477832 1_555
Na16 O40 2.508842 1_655
Na16 O46 2.518948 1_566
Na16 O47 2.575384 1_666
Na16 O45 2.608863 1_556
Na17 O49 2.359499 1_555
Na17 O48 2.423361 1_555
Na17 O50 2.481634 1_555
Na17 O55 2.566844 1_555
Na17 O56 2.614720 1_555
Na17 O54 2.681217 1_555
Na18 O53 2.485375 1_555
Na18 O51 2.503807 1_555
Na18 O52 2.515917 1_555
Na18 O57 2.522351 1_555
Na18 O59 2.528059 1_555
Na18 O58 2.530075 1_555
Na19 O60 2.459089 1_555
Na19 O67 2.485040 1_555
Na19 O62 2.496205 1_555
Na19 O66 2.505681 1_555
Na19 O68 2.507841 1_555
Na19 O61 2.571853 1_555
Na20 O65 2.352675 1_555
Na20 O64 2.362663 1_555
Na20 O63 2.398510 1_555
Na20 O69 2.670199 1_555
Na20 O70 2.672256 1_555
Na20 O71 2.691589 1_555
Nb0 O20 1.898306 1_556
Nb0 O55 1.968051 1_555
Nb0 O18 1.980944 1_556
Nb0 O19 2.013040 1_556
Nb0 O56 2.055534 1_555
Nb0 O54 2.132916 1_555
Nb1 O23 1.932300 1_555
Nb1 O22 1.943495 1_555
Nb1 O59 1.990269 1_555
Nb1 O57 2.026415 1_555
Nb1 O58 2.032652 1_555
Nb1 O21 2.050557 1_555
Nb2 O33 1.913956 1_555
Nb2 O69 1.965213 1_555
Nb2 O70 2.006475 1_555
Nb2 O34 2.011869 1_555
Nb2 O35 2.045718 1_555
Nb2 O71 2.052740 1_555
Ga0 O38 1.952817 1_665
Ga0 O36 1.972399 1_655
Ga0 O37 1.975373 1_555
Ga0 O1 2.016124 1_555
Ga0 O0 2.034140 1_665
Ga0 O2 2.045096 1_565
Ga1 O3 1.908684 1_555
Ga1 O5 1.959804 1_455
Ga1 O4 1.966569 1_445
Ga1 O39 1.985481 1_555
Ga1 O41 2.069051 1_445
Ga1 O40 2.142838 1_545
Ga2 O7 1.922888 1_655
Ga2 O42 1.986616 1_555
Ga2 O44 1.993257 1_545
Ga2 O6 2.024366 1_545
Ga2 O8 2.030226 1_645
Ga2 O43 2.124504 1_655
Ga3 O10 1.966141 1_555
Ga3 O47 1.987511 1_555
Ga3 O9 1.993737 1_445
Ga3 O46 1.994074 1_455
Ga3 O11 1.995006 1_545
Ga3 O45 2.121725 1_445
Ga4 O14 1.906237 1_555
Ga4 O13 1.928670 1_555
Ga4 O12 1.931321 1_555
Ga4 O49 1.982424 1_555
Ga4 O48 2.129294 1_555
Ga4 O50 2.217293 1_555
Ga5 O17 1.883716 1_555
Ga5 O16 1.895627 1_555
Ga5 O15 1.992915 1_555
Ga5 O53 2.116716 1_555
Ga5 O51 2.128433 1_555
Ga5 O52 2.143057 1_555
Ga6 O25 1.911315 1_554
Ga6 O24 1.987316 1_554
Ga6 O62 1.994286 1_555
Ga6 O60 1.995044 1_555
Ga6 O26 2.002682 1_554
Ga6 O61 2.168408 1_555
Ga7 O28 1.913929 1_555
Ga7 O27 1.942870 1_555
Ga7 O29 1.945207 1_555
Ga7 O64 2.044546 1_555
Ga7 O65 2.064394 1_555
Ga7 O63 2.176730 1_555
Ga8 O31 1.885525 1_555
Ga8 O30 1.890564 1_555
Ga8 O32 1.893004 1_555
Ga8 O68 2.182557 1_555
Ga8 O66 2.213898 1_555
Ga8 O67 2.240789 1_555
O0 P0 1.545828 1_545
O1 P1 1.548855 1_555
O2 P2 1.546781 1_555
O3 Si0 1.614791 1_555
O4 P3 1.531022 1_555
O5 P4 1.536338 1_555
O6 P4 1.554080 1_565
O7 Si0 1.629778 1_555
O8 P3 1.532817 1_455
O9 P1 1.557007 1_555
O10 P2 1.556829 1_455
O11 P0 1.558086 1_555
O12 Si1 1.624659 1_555
O13 P5 1.528165 1_555
O14 Si2 1.619155 1_555
O15 P6 1.545470 1_555
O16 Si3 1.624860 1_555
O17 Si4 1.630634 1_555
O18 Si4 1.673036 1_555
O19 P6 1.575778 1_555
O20 Si3 1.686181 1_555
O21 P5 1.582729 1_555
O22 Si2 1.683016 1_555
O23 Si1 1.684364 1_555
O24 P7 1.534871 1_555
O25 Si5 1.618798 1_555
O26 P8 1.530497 1_555
O27 Si6 1.619875 1_555
O28 Si7 1.619288 1_555
O29 Si8 1.617958 1_555
O30 Si8 1.635368 1_555
O31 Si6 1.638568 1_555
O32 Si7 1.638320 1_555
O33 Si5 1.673136 1_555
O34 P8 1.561657 1_555
O35 P7 1.582656 1_555
O36 Si8 1.628253 1_555
O37 Si6 1.633822 1_555
O38 Si7 1.629903 1_555
O39 Si5 1.615038 1_555
O40 P8 1.521343 1_555
O41 P7 1.511975 1_555
O42 Si1 1.635564 1_555
O43 P5 1.546711 1_555
O44 Si2 1.635472 1_555
O45 P6 1.542198 1_555
O46 Si3 1.630699 1_555
O47 Si4 1.637898 1_555
O48 P4 1.533885 1_555
O49 Si0 1.628978 1_555
O50 P3 1.550893 1_555
O51 P1 1.568982 1_555
O52 P2 1.566643 1_555
O53 P0 1.570639 1_545
O54 P7 1.577941 1_555
O55 Si5 1.653048 1_655
O56 P8 1.591012 1_545
O57 Si6 1.665063 1_545
O58 Si7 1.663461 1_555
O59 Si8 1.675494 1_655
O60 Si4 1.631157 1_555
O61 P6 1.536773 1_455
O62 Si3 1.625027 1_565
O63 P5 1.533687 1_565
O64 Si2 1.627287 1_555
O65 Si1 1.627089 1_455
O66 P0 1.558374 1_555
O67 P1 1.557673 1_555
O68 P2 1.560076 1_455
O69 Si0 1.745316 1_555
O70 P3 1.601345 1_455
O71 P4 1.579029 1_565
