# generated using pymatgen
data_MgMn3Cu3O8
_symmetry_space_group_name_H-M   'P 1'
_cell_length_a   6.07361697
_cell_length_b   6.07361736
_cell_length_c   6.68093992
_cell_angle_alpha   59.05018211
_cell_angle_beta   59.05017394
_cell_angle_gamma   59.23219742
_symmetry_Int_Tables_number   1
_chemical_formula_structural   MgMn3Cu3O8
_chemical_formula_sum   'Mg1 Mn3 Cu3 O8'
_cell_volume   170.73452948
_cell_formula_units_Z   1
loop_
 _symmetry_equiv_pos_site_id
 _symmetry_equiv_pos_as_xyz
  1  'x, y, z'
loop_
 _atom_site_type_symbol
 _atom_site_label
 _atom_site_symmetry_multiplicity
 _atom_site_fract_x
 _atom_site_fract_y
 _atom_site_fract_z
 _atom_site_occupancy
  Mg  Mg0  1  0.09775146  0.15224854  0.62500000  1
  Mn  Mn0  1  0.10556870  0.64287794  0.62729474  1
  Mn  Mn1  1  0.60712206  0.14443130  0.62270526  1
  Mn  Mn2  1  0.65024570  0.59975430  0.12500000  1
  Cu  Cu0  1  0.07351905  0.94674223  0.10873360  1
  Cu  Cu1  1  0.30325777  0.17648095  0.14126640  1
  Cu  Cu2  1  0.61123759  0.63876241  0.62500000  1
  O  O0  1  0.35767136  0.39577096  0.42894765  1
  O  O1  1  0.36891216  0.40485375  0.81810316  1
  O  O2  1  0.33932812  0.87464450  0.42637737  1
  O  O3  1  0.83732834  0.37459010  0.41507916  1
  O  O4  1  0.37535550  0.91067188  0.82362263  1
  O  O5  1  0.87540990  0.41267166  0.83492084  1
  O  O6  1  0.84514625  0.88108784  0.43189684  1
  O  O7  1  0.85423004  0.89232964  0.82105335  1
loop_
_geom_bond_atom_site_label_1
_geom_bond_atom_site_label_2
_geom_bond_distance
_geom_bond_site_symmetry_2
Mg0 O5 2.107285 1_455
Mg0 O3 2.107285 1_455
Mg0 O2 2.126994 1_545
Mg0 O4 2.126994 1_545
Mg0 O7 2.159808 1_445
Mg0 O0 2.159818 1_555
Mn0 O5 1.960489 1_455
Mn0 O7 1.979878 1_455
Mn0 O2 1.984959 1_555
Mn0 O0 1.990096 1_555
Mn0 O1 2.027106 1_555
Mn0 O6 2.034460 1_455
Mn1 O3 1.960489 1_555
Mn1 O0 1.979869 1_555
Mn1 O4 1.984959 1_545
Mn1 O7 1.990104 1_545
Mn1 O6 2.027106 1_545
Mn1 O1 2.034460 1_555
Mn2 O0 2.183880 1_555
Mn2 O7 2.183886 1_554
Mn2 O5 2.205965 1_554
Mn2 O3 2.205965 1_555
Mn2 O2 2.593984 1_555
Mn2 O4 2.593984 1_554
Cu0 O6 1.828780 1_455
Cu0 O4 1.861082 1_554
Cu0 O5 2.501600 1_464
Cu1 O1 1.828780 1_554
Cu1 O2 1.861082 1_545
Cu1 O3 2.501600 1_455
Cu2 O1 2.037134 1_555
Cu2 O6 2.037134 1_555
Cu2 O4 2.102077 1_555
Cu2 O2 2.102078 1_555
Cu2 O3 2.122824 1_555
Cu2 O5 2.122824 1_555
