# generated using pymatgen
data_Na4HfTi(SiO4)3
_symmetry_space_group_name_H-M   'P 1'
_cell_length_a   9.11837910
_cell_length_b   9.11837878
_cell_length_c   22.44484571
_cell_angle_alpha   90.00000000
_cell_angle_beta   90.00000000
_cell_angle_gamma   120.00000117
_symmetry_Int_Tables_number   1
_chemical_formula_structural   Na4HfTi(SiO4)3
_chemical_formula_sum   'Na24 Hf6 Ti6 Si18 O72'
_cell_volume   1616.15319068
_cell_formula_units_Z   6
loop_
 _symmetry_equiv_pos_site_id
 _symmetry_equiv_pos_as_xyz
  1  'x, y, z'
loop_
 _atom_site_type_symbol
 _atom_site_label
 _atom_site_symmetry_multiplicity
 _atom_site_fract_x
 _atom_site_fract_y
 _atom_site_fract_z
 _atom_site_occupancy
  Na  Na0  1  0.63248457  0.99986330  0.25020780  1
  Na  Na1  1  0.36737873  0.36751543  0.25020780  1
  Na  Na2  1  0.00013670  0.63262127  0.25020780  1
  Na  Na3  1  0.63432964  0.63012973  0.74875934  1
  Na  Na4  1  0.99580008  0.36567036  0.74875934  1
  Na  Na5  1  0.36987027  0.00419992  0.74875934  1
  Na  Na6  1  0.29695524  0.33330237  0.58323102  1
  Na  Na7  1  0.03634814  0.70304476  0.58323102  1
  Na  Na8  1  0.66669763  0.96365186  0.58323102  1
  Na  Na9  1  0.29846223  0.96824231  0.08399800  1
  Na  Na10  1  0.66978107  0.70153777  0.08399800  1
  Na  Na11  1  0.03175769  0.33021893  0.08399800  1
  Na  Na12  1  0.96766843  0.66679817  0.91653242  1
  Na  Na13  1  0.69912874  0.03233157  0.91653242  1
  Na  Na14  1  0.33320183  0.30087126  0.91653242  1
  Na  Na15  1  0.96409839  0.29835418  0.41725640  1
  Na  Na16  1  0.33425479  0.03590161  0.41725640  1
  Na  Na17  1  0.70164582  0.66574521  0.41725640  1
  Na  Na18  1  -0.00000000  -0.00000000  0.50021663  1
  Na  Na19  1  -0.00000000  -0.00000000  0.00147415  1
  Na  Na20  1  0.66666700  0.33333300  0.83129816  1
  Na  Na21  1  0.66666700  0.33333300  0.33608954  1
  Na  Na22  1  0.33333300  0.66666700  0.16648818  1
  Na  Na23  1  0.33333300  0.66666700  0.66431771  1
  Hf  Hf0  1  -0.00000000  -0.00000000  0.85072913  1
  Hf  Hf1  1  0.66666700  0.33333300  0.18665455  1
  Hf  Hf2  1  0.66666700  0.33333300  0.98216732  1
  Hf  Hf3  1  0.33333300  0.66666700  0.01896898  1
  Hf  Hf4  1  0.33333300  0.66666700  0.31518409  1
  Hf  Hf5  1  0.33333300  0.66666700  0.81258058  1
  Ti  Ti0  1  -0.00000000  -0.00000000  0.35294893  1
  Ti  Ti1  1  -0.00000000  -0.00000000  0.64765105  1
  Ti  Ti2  1  -0.00000000  -0.00000000  0.14843154  1
  Ti  Ti3  1  0.66666700  0.33333300  0.68294188  1
  Ti  Ti4  1  0.66666700  0.33333300  0.48342539  1
  Ti  Ti5  1  0.33333300  0.66666700  0.51770657  1
  Si  Si0  1  0.28484798  0.99954312  0.25044242  1
  Si  Si1  1  0.71469514  0.71515202  0.25044242  1
  Si  Si2  1  0.00045688  0.28530486  0.25044242  1
  Si  Si3  1  0.29429949  0.28999260  0.74728747  1
  Si  Si4  1  0.99569311  0.70570051  0.74728747  1
  Si  Si5  1  0.71000740  0.00430689  0.74728747  1
  Si  Si6  1  0.95688667  0.33364213  0.58316692  1
  Si  Si7  1  0.37675646  0.04311333  0.58316692  1
  Si  Si8  1  0.66635787  0.62324354  0.58316692  1
  Si  Si9  1  0.96146236  0.63162209  0.08465341  1
  Si  Si10  1  0.67016073  0.03853764  0.08465341  1
  Si  Si11  1  0.36837791  0.32983927  0.08465341  1
  Si  Si12  1  0.62795666  0.66666572  0.91630946  1
  Si  Si13  1  0.03870806  0.37204334  0.91630946  1
  Si  Si14  1  0.33333428  0.96129194  0.91630946  1
  Si  Si15  1  0.62664803  0.96087649  0.41806749  1
  Si  Si16  1  0.33422746  0.37335197  0.41806749  1
  Si  Si17  1  0.03912351  0.66577254  0.41806749  1
  O  O0  1  0.19329969  0.02936280  0.30907193  1
  O  O1  1  0.83606311  0.80670031  0.30907193  1
  O  O2  1  0.97063720  0.16393689  0.30907193  1
  O  O3  1  0.21209396  0.17387603  0.80711892  1
  O  O4  1  0.96178207  0.78790604  0.80711892  1
  O  O5  1  0.82612397  0.03821793  0.80711892  1
  O  O6  1  0.80595101  0.97110792  0.69062688  1
  O  O7  1  0.16515691  0.19404899  0.69062688  1
  O  O8  1  0.02889208  0.83484309  0.69062688  1
  O  O9  1  0.80491988  0.83483525  0.19167563  1
  O  O10  1  0.02991538  0.19508012  0.19167563  1
  O  O11  1  0.16516475  0.97008462  0.19167563  1
  O  O12  1  0.86482625  0.36608783  0.64115574  1
  O  O13  1  0.50126258  0.13517375  0.64115574  1
  O  O14  1  0.63391217  0.49873742  0.64115574  1
  O  O15  1  0.87451139  0.50758261  0.14239135  1
  O  O16  1  0.63307222  0.12548861  0.14239135  1
  O  O17  1  0.49241739  0.36692778  0.14239135  1
  O  O18  1  0.45420240  0.29526163  0.02587407  1
  O  O19  1  0.84106024  0.54579760  0.02587407  1
  O  O20  1  0.70473837  0.15893976  0.02587407  1
  O  O21  1  0.46926407  0.16824087  0.52534957  1
  O  O22  1  0.69897780  0.53073593  0.52534957  1
  O  O23  1  0.83175913  0.30102220  0.52534957  1
  O  O24  1  0.54233720  0.70096865  0.97495746  1
  O  O25  1  0.15863044  0.45766280  0.97495746  1
  O  O26  1  0.29903135  0.84136956  0.97495746  1
  O  O27  1  0.53030246  0.83157637  0.47510146  1
  O  O28  1  0.30127291  0.46969754  0.47510146  1
  O  O29  1  0.16842363  0.69872709  0.47510146  1
  O  O30  1  0.12249534  0.62911173  0.35890956  1
  O  O31  1  0.50661540  0.87750466  0.35890956  1
  O  O32  1  0.37088827  0.49338460  0.35890956  1
  O  O33  1  0.12576847  0.49320636  0.85786041  1
  O  O34  1  0.36743689  0.87423153  0.85786041  1
  O  O35  1  0.50679364  0.63256311  0.85786041  1
  O  O36  1  0.02436371  0.83802456  0.41193366  1
  O  O37  1  0.81366085  0.97563629  0.41193366  1
  O  O38  1  0.16197544  0.18633915  0.41193366  1
  O  O39  1  0.02157826  0.18510788  0.91178458  1
  O  O40  1  0.16352962  0.97842174  0.91178458  1
  O  O41  1  0.81489212  0.83647038  0.91178458  1
  O  O42  1  0.97374474  0.16243253  0.58919358  1
  O  O43  1  0.18868779  0.02625526  0.58919358  1
  O  O44  1  0.83756747  0.81131221  0.58919358  1
  O  O45  1  0.97826319  0.81860079  0.09054904  1
  O  O46  1  0.84033760  0.02173681  0.09054904  1
  O  O47  1  0.18139921  0.15966240  0.09054904  1
  O  O48  1  0.69088624  0.17329981  0.74124798  1
  O  O49  1  0.48241456  0.30911376  0.74124798  1
  O  O50  1  0.82670019  0.51758544  0.74124798  1
  O  O51  1  0.69644837  0.52673363  0.24681450  1
  O  O52  1  0.83028626  0.30355163  0.24681450  1
  O  O53  1  0.47326637  0.16971374  0.24681450  1
  O  O54  1  0.64464496  0.49662798  0.92117239  1
  O  O55  1  0.85198402  0.35535504  0.92117239  1
  O  O56  1  0.50337202  0.14801598  0.92117239  1
  O  O57  1  0.64492921  0.14882014  0.42489436  1
  O  O58  1  0.50389193  0.35507079  0.42489436  1
  O  O59  1  0.85117986  0.49610807  0.42489436  1
  O  O60  1  0.35164461  0.50019409  0.07976176  1
  O  O61  1  0.14854848  0.64835539  0.07976176  1
  O  O62  1  0.49980591  0.85145152  0.07976176  1
  O  O63  1  0.35989509  0.85499825  0.57692297  1
  O  O64  1  0.49510216  0.64010491  0.57692297  1
  O  O65  1  0.14500175  0.50489784  0.57692297  1
  O  O66  1  0.30360763  0.82964971  0.25426296  1
  O  O67  1  0.52604108  0.69639237  0.25426296  1
  O  O68  1  0.17035029  0.47395892  0.25426296  1
  O  O69  1  0.30895097  0.47690662  0.75169899  1
  O  O70  1  0.16795465  0.69104903  0.75169899  1
  O  O71  1  0.52309338  0.83204535  0.75169899  1
loop_
_geom_bond_atom_site_label_1
_geom_bond_atom_site_label_2
_geom_bond_distance
_geom_bond_site_symmetry_2
Na0 O67 2.433462 1_555
Na0 O52 2.435679 1_565
Na0 O66 2.599186 1_555
Na0 O53 2.600140 1_565
Na0 O16 2.676208 1_565
Na0 O31 2.689637 1_555
Na1 O68 2.433471 1_555
Na1 O53 2.435686 1_555
Na1 O67 2.599186 1_555
Na1 O51 2.600148 1_555
Na1 O17 2.676212 1_555
Na1 O32 2.689639 1_555
Na2 O66 2.433464 1_555
Na2 O51 2.435678 1_455
Na2 O68 2.599178 1_555
Na2 O52 2.600148 1_455
Na2 O15 2.676210 1_455
Na2 O30 2.689635 1_555
Na3 O50 2.441014 1_555
Na3 O71 2.508070 1_555
Na3 O49 2.541790 1_555
Na3 O69 2.571729 1_555
Na3 O14 2.695142 1_555
Na3 O35 2.715712 1_555
Na3 O4 2.899158 1_555
Na3 O6 2.992113 1_555
Na4 O48 2.441007 1_555
Na4 O69 2.508062 1_655
Na4 O50 2.541782 1_555
Na4 O70 2.571729 1_655
Na4 O12 2.695138 1_555
Na4 O33 2.715710 1_655
Na4 O5 2.899158 1_555
Na4 O7 2.992113 1_655
Na5 O49 2.441006 1_555
Na5 O70 2.508063 1_545
Na5 O48 2.541790 1_555
Na5 O71 2.571721 1_545
Na5 O13 2.695140 1_555
Na5 O34 2.715708 1_545
Na5 O3 2.899158 1_555
Na5 O8 2.992113 1_545
Na6 O64 2.460934 1_555
Na6 O43 2.463177 1_555
Na6 O42 2.557214 1_455
Na6 O65 2.560471 1_555
Na6 O7 2.709435 1_555
Na6 O28 2.718359 1_555
Na6 O14 2.961631 1_555
Na6 O21 2.964193 1_555
Na7 O65 2.460920 1_555
Na7 O44 2.463186 1_455
Na7 O43 2.557214 1_565
Na7 O63 2.560455 1_555
Na7 O8 2.709437 1_555
Na7 O29 2.718351 1_555
Na7 O12 2.961631 1_455
Na7 O22 2.964193 1_455
Na8 O63 2.460937 1_555
Na8 O42 2.463179 1_565
Na8 O44 2.557206 1_555
Na8 O64 2.560455 1_555
Na8 O6 2.709433 1_555
Na8 O27 2.718355 1_555
Na8 O13 2.961631 1_565
Na8 O23 2.964193 1_565
Na9 O47 2.463881 1_565
Na9 O61 2.529509 1_555
Na9 O45 2.534597 1_455
Na9 O62 2.543410 1_555
Na9 O26 2.708163 1_554
Na9 O11 2.709058 1_555
Na9 O18 2.894078 1_565
Na9 O16 2.950945 1_565
Na10 O45 2.463872 1_555
Na10 O62 2.529525 1_555
Na10 O46 2.534597 1_565
Na10 O60 2.543424 1_555
Na10 O24 2.708170 1_554
Na10 O9 2.709056 1_555
Na10 O19 2.894078 1_555
Na10 O17 2.950945 1_555
Na11 O46 2.463873 1_455
Na11 O60 2.529510 1_555
Na11 O47 2.534589 1_555
Na11 O61 2.543427 1_555
Na11 O25 2.708167 1_554
Na11 O10 2.709054 1_555
Na11 O20 2.894078 1_455
Na11 O15 2.950945 1_455
Na12 O55 2.488516 1_555
Na12 O40 2.490043 1_655
Na12 O41 2.549687 1_555
Na12 O54 2.554180 1_555
Na12 O19 2.701712 1_556
Na12 O4 2.704154 1_555
Na12 O26 2.928011 1_655
Na12 O33 2.932548 1_655
Na13 O56 2.488499 1_555
Na13 O41 2.490050 1_545
Na13 O39 2.549696 1_655
Na13 O55 2.554180 1_555
Na13 O20 2.701709 1_556
Na13 O5 2.704158 1_555
Na13 O24 2.928011 1_545
Na13 O34 2.932548 1_545
Na14 O54 2.488514 1_555
Na14 O39 2.490042 1_555
Na14 O40 2.549695 1_545
Na14 O56 2.554196 1_555
Na14 O18 2.701716 1_556
Na14 O3 2.704156 1_555
Na14 O25 2.928011 1_555
Na14 O35 2.932548 1_555
Na15 O38 2.481130 1_655
Na15 O59 2.489514 1_555
Na15 O57 2.527884 1_555
Na15 O37 2.553163 1_545
Na15 O23 2.715189 1_555
Na15 O2 2.734039 1_555
Na15 O30 2.922522 1_655
Na15 O28 2.962367 1_655
Na16 O36 2.481123 1_545
Na16 O57 2.489531 1_555
Na16 O58 2.527884 1_555
Na16 O38 2.553155 1_555
Na16 O21 2.715193 1_555
Na16 O0 2.734035 1_555
Na16 O31 2.922522 1_545
Na16 O29 2.962367 1_545
Na17 O37 2.481122 1_555
Na17 O58 2.489528 1_555
Na17 O59 2.527900 1_555
Na17 O36 2.553163 1_655
Na17 O22 2.715197 1_555
Na17 O1 2.734037 1_555
Na17 O32 2.922522 1_555
Na17 O27 2.962367 1_555
Na18 O38 2.546605 1_555
Na18 O36 2.546605 1_545
Na18 O37 2.546605 1_445
Na18 O44 2.567864 1_445
Na18 O42 2.567864 1_455
Na18 O43 2.567865 1_555
Na19 O45 2.538596 1_445
Na19 O47 2.538596 1_555
Na19 O46 2.538596 1_455
Na19 O39 2.570604 1_554
Na19 O41 2.570604 1_444
Na19 O40 2.570604 1_544
Na20 O48 2.566226 1_555
Na20 O50 2.566226 1_555
Na20 O49 2.566227 1_555
Na20 O56 2.574014 1_555
Na20 O54 2.574014 1_555
Na20 O55 2.574014 1_555
Na21 O57 2.551344 1_555
Na21 O59 2.551344 1_555
Na21 O58 2.551344 1_555
Na21 O51 2.592269 1_555
Na21 O53 2.592269 1_555
Na21 O52 2.592269 1_555
Na22 O62 2.524807 1_555
Na22 O60 2.524807 1_555
Na22 O61 2.524807 1_555
Na22 O68 2.562449 1_555
Na22 O66 2.562449 1_555
Na22 O67 2.562449 1_555
Na23 O63 2.537615 1_555
Na23 O65 2.537615 1_555
Na23 O64 2.537615 1_555
Na23 O69 2.550537 1_555
Na23 O71 2.550537 1_555
Na23 O70 2.550537 1_555
Hf0 O4 2.036114 1_445
Hf0 O3 2.036114 1_555
Hf0 O5 2.036114 1_455
Hf0 O39 2.105588 1_555
Hf0 O41 2.105588 1_445
Hf0 O40 2.105588 1_545
Hf1 O16 2.022890 1_555
Hf1 O15 2.022890 1_555
Hf1 O17 2.022890 1_555
Hf1 O51 2.127920 1_555
Hf1 O53 2.127920 1_555
Hf1 O52 2.127920 1_555
Hf2 O19 2.040483 1_556
Hf2 O18 2.040483 1_556
Hf2 O20 2.040483 1_556
Hf2 O56 2.104903 1_555
Hf2 O54 2.104903 1_555
Hf2 O55 2.104903 1_555
Hf3 O25 2.027204 1_554
Hf3 O24 2.027204 1_554
Hf3 O26 2.027204 1_554
Hf3 O62 2.108878 1_555
Hf3 O60 2.108878 1_555
Hf3 O61 2.108878 1_555
Hf4 O31 2.029307 1_555
Hf4 O30 2.029307 1_555
Hf4 O32 2.029307 1_555
Hf4 O68 2.134145 1_555
Hf4 O66 2.134145 1_555
Hf4 O67 2.134145 1_555
Hf5 O34 2.030551 1_555
Hf5 O33 2.030551 1_555
Hf5 O35 2.030551 1_555
Hf5 O69 2.127431 1_555
Hf5 O71 2.127431 1_555
Hf5 O70 2.127431 1_555
O0 Si0 1.652099 1_545
O0 Ti0 1.917372 1_555
O1 Si1 1.652099 1_555
O1 Ti0 1.917371 1_665
O2 Si2 1.652099 1_655
O2 Ti0 1.917371 1_655
O3 Si3 1.640935 1_555
O4 Si4 1.640935 1_555
O5 Si5 1.640935 1_555
O6 Si5 1.655040 1_565
O6 Ti1 1.914289 1_665
O7 Si3 1.655040 1_555
O7 Ti1 1.914289 1_555
O8 Si4 1.655040 1_455
O8 Ti1 1.914289 1_565
O9 Si1 1.646139 1_555
O9 Ti2 1.922353 1_665
O10 Si2 1.646139 1_555
O10 Ti2 1.922353 1_555
O11 Si0 1.646139 1_555
O11 Ti2 1.922354 1_565
O12 Si6 1.653655 1_555
O12 Ti3 1.921983 1_555
O13 Si7 1.653655 1_555
O13 Ti3 1.921983 1_555
O14 Si8 1.653655 1_555
O14 Ti3 1.921983 1_555
O15 Si9 1.640281 1_555
O16 Si10 1.640281 1_555
O17 Si11 1.640281 1_555
O18 Si11 1.642899 1_555
O19 Si9 1.642899 1_555
O20 Si10 1.642899 1_555
O21 Si7 1.653760 1_555
O21 Ti4 1.918831 1_555
O22 Si8 1.653760 1_555
O22 Ti4 1.918831 1_555
O23 Si6 1.653760 1_555
O23 Ti4 1.918831 1_555
O24 Si12 1.638385 1_555
O25 Si13 1.638385 1_555
O26 Si14 1.638385 1_555
O27 Si15 1.662761 1_555
O27 Ti5 1.923700 1_555
O28 Si16 1.662761 1_555
O28 Ti5 1.923700 1_555
O29 Si17 1.662761 1_555
O29 Ti5 1.923700 1_555
O30 Si17 1.645246 1_555
O31 Si15 1.645246 1_555
O32 Si16 1.645246 1_555
O33 Si13 1.641578 1_555
O34 Si14 1.641578 1_555
O35 Si12 1.641578 1_555
O36 Si17 1.647855 1_555
O36 Ti0 2.076435 1_565
O37 Si15 1.647864 1_555
O37 Ti0 2.076435 1_665
O38 Si16 1.647860 1_555
O38 Ti0 2.076435 1_555
O39 Si13 1.635223 1_555
O40 Si14 1.635214 1_555
O41 Si12 1.635219 1_555
O42 Si6 1.648971 1_555
O42 Ti1 2.080180 1_655
O43 Si7 1.648980 1_555
O43 Ti1 2.080180 1_555
O44 Si8 1.648976 1_555
O44 Ti1 2.080180 1_665
O45 Si9 1.639091 1_555
O45 Ti2 2.033520 1_665
O46 Si10 1.639082 1_555
O46 Ti2 2.033520 1_655
O47 Si11 1.639087 1_555
O47 Ti2 2.033520 1_555
O48 Si5 1.640715 1_555
O48 Ti3 2.052570 1_555
O49 Si3 1.640724 1_555
O49 Ti3 2.052570 1_555
O50 Si4 1.640720 1_555
O50 Ti3 2.052570 1_555
O51 Si1 1.643236 1_555
O52 Si2 1.643227 1_655
O53 Si0 1.643232 1_545
O54 Si12 1.635530 1_555
O55 Si13 1.635511 1_655
O56 Si14 1.635519 1_545
O57 Si15 1.643929 1_545
O57 Ti4 2.064541 1_555
O58 Si16 1.643948 1_555
O58 Ti4 2.064541 1_555
O59 Si17 1.643937 1_655
O59 Ti4 2.064541 1_555
O60 Si11 1.638681 1_555
O61 Si9 1.638663 1_455
O62 Si10 1.638670 1_565
O63 Si7 1.649795 1_565
O63 Ti5 2.087650 1_555
O64 Si8 1.649813 1_555
O64 Ti5 2.087650 1_555
O65 Si6 1.649803 1_455
O65 Ti5 2.087650 1_555
O66 Si0 1.643618 1_555
O67 Si1 1.643628 1_555
O68 Si2 1.643624 1_555
O69 Si3 1.644620 1_555
O70 Si4 1.644611 1_455
O71 Si5 1.644616 1_565
