# generated using pymatgen
data_MgVZn2WO6
_symmetry_space_group_name_H-M   'P 1'
_cell_length_a   5.33276138
_cell_length_b   5.75251003
_cell_length_c   8.79280814
_cell_angle_alpha   102.85912824
_cell_angle_beta   135.56293354
_cell_angle_gamma   107.32130820
_symmetry_Int_Tables_number   1
_chemical_formula_structural   MgVZn2WO6
_chemical_formula_sum   'Mg1 V1 Zn2 W1 O6'
_cell_volume   136.84314663
_cell_formula_units_Z   1
loop_
 _symmetry_equiv_pos_site_id
 _symmetry_equiv_pos_as_xyz
  1  'x, y, z'
loop_
 _atom_site_type_symbol
 _atom_site_label
 _atom_site_symmetry_multiplicity
 _atom_site_fract_x
 _atom_site_fract_y
 _atom_site_fract_z
 _atom_site_occupancy
  Mg  Mg0  1  0.63494936  0.12536717  0.61693903  1
  V  V0  1  0.58482223  0.76485460  0.24357129  1
  Zn  Zn0  1  0.87693311  0.45884013  0.21034249  1
  Zn  Zn1  1  0.99102334  0.69563085  0.67058605  1
  W  W0  1  0.99681318  0.96809384  0.02147959  1
  O  O0  1  0.90333009  0.83677306  0.20200021  1
  O  O1  1  0.18973715  0.13273938  0.89743354  1
  O  O2  1  0.29749403  0.46423876  0.26160047  1
  O  O3  1  0.28902437  0.80896053  0.61131027  1
  O  O4  1  0.68290881  0.12556342  0.40484658  1
  O  O5  1  0.93448234  0.57573827  0.84629748  1
loop_
_geom_bond_atom_site_label_1
_geom_bond_atom_site_label_2
_geom_bond_distance
_geom_bond_site_symmetry_2
Mg0 O5 1.985094 1_555
Mg0 O4 2.055505 1_555
Mg0 O1 2.072745 1_655
Mg0 O0 2.099743 1_445
Mg0 O3 2.132733 1_545
O0 V0 1.930090 1_555
O0 Zn0 2.157600 1_555
O0 W0 2.185894 1_555
O1 Zn0 1.931119 1_556
O1 Zn1 2.141624 1_445
O1 W0 2.151098 1_446
O2 Zn0 1.934644 1_455
O2 V0 2.062642 1_555
O2 Zn1 2.080218 1_555
O2 W0 2.220988 1_445
O3 Zn1 1.984757 1_455
O3 Zn0 2.110793 1_455
O3 W0 2.263888 1_556
O3 V0 2.519798 1_455
O4 V0 1.890714 1_545
O4 W0 2.150567 1_445
O5 Zn1 1.992311 1_555
O5 V0 2.043306 1_656
O5 W0 2.202718 1_556
