# generated using pymatgen
data_MgMn4NiO8
_symmetry_space_group_name_H-M   'P 1'
_cell_length_a   5.93829077
_cell_length_b   6.11707167
_cell_length_c   6.23910713
_cell_angle_alpha   90.10825181
_cell_angle_beta   58.94055353
_cell_angle_gamma   59.47273067
_symmetry_Int_Tables_number   1
_chemical_formula_structural   MgMn4NiO8
_chemical_formula_sum   'Mg1 Mn4 Ni1 O8'
_cell_volume   156.16695115
_cell_formula_units_Z   1
loop_
 _symmetry_equiv_pos_site_id
 _symmetry_equiv_pos_as_xyz
  1  'x, y, z'
loop_
 _atom_site_type_symbol
 _atom_site_label
 _atom_site_symmetry_multiplicity
 _atom_site_fract_x
 _atom_site_fract_y
 _atom_site_fract_z
 _atom_site_occupancy
  Mg  Mg0  1  0.00000000  0.00000000  0.50000000  1
  Mn  Mn0  1  0.00000000  0.50000000  0.50000000  1
  Mn  Mn1  1  0.00000000  0.00000000  0.00000000  1
  Mn  Mn2  1  0.50000000  0.00000000  0.00000000  1
  Mn  Mn3  1  0.00000000  0.50000000  0.00000000  1
  Ni  Ni0  1  0.50000000  0.50000000  0.00000000  1
  O  O0  1  0.47921900  0.24376300  0.79965300  1
  O  O1  1  0.99400700  0.25827100  0.78115400  1
  O  O2  1  0.48383000  0.77542300  0.79661100  1
  O  O3  1  0.97036100  0.77309400  0.74407400  1
  O  O4  1  0.02963900  0.22690600  0.25592600  1
  O  O5  1  0.51617000  0.22457700  0.20338900  1
  O  O6  1  0.00599300  0.74172900  0.21884600  1
  O  O7  1  0.52078100  0.75623700  0.20034700  1
loop_
_geom_bond_atom_site_label_1
_geom_bond_atom_site_label_2
_geom_bond_distance
_geom_bond_site_symmetry_2
Mg0 O4 2.063022 1_555
Mg0 O3 2.063022 1_445
Mg0 O7 2.149762 1_545
Mg0 O0 2.149762 1_455
Mg0 O1 2.332867 1_455
Mg0 O6 2.332867 1_545
Mn0 O5 2.132452 1_555
Mn0 O2 2.132452 1_455
Mn0 O3 2.134416 1_455
Mn0 O4 2.134416 1_555
Mn0 O1 2.294260 1_455
Mn0 O6 2.294260 1_555
Mn1 O2 1.993485 1_544
Mn1 O5 1.993485 1_455
Mn1 O6 2.088715 1_545
Mn1 O1 2.088715 1_454
Mn1 O4 2.244309 1_555
Mn1 O3 2.244309 1_444
Mn2 O3 1.931033 1_544
Mn2 O4 1.931033 1_555
Mn2 O5 1.939032 1_555
Mn2 O2 1.939032 1_544
Mn2 O0 1.944324 1_554
Mn2 O7 1.944324 1_545
Mn3 O0 1.976939 1_554
Mn3 O7 1.976939 1_455
Mn3 O6 2.036674 1_555
Mn3 O1 2.036674 1_454
Mn3 O3 2.317897 1_454
Mn3 O4 2.317897 1_555
Ni0 O1 2.027096 1_554
Ni0 O6 2.027096 1_555
Ni0 O7 2.093505 1_555
Ni0 O0 2.093505 1_554
Ni0 O5 2.104150 1_555
Ni0 O2 2.104150 1_554
