# generated using pymatgen
data_Ho6Fe23
_symmetry_space_group_name_H-M   'P 1'
_cell_length_a   8.50885813
_cell_length_b   8.50886209
_cell_length_c   8.50865348
_cell_angle_alpha   60.00081099
_cell_angle_beta   60.00079560
_cell_angle_gamma   60.00196347
_symmetry_Int_Tables_number   1
_chemical_formula_structural   Ho6Fe23
_chemical_formula_sum   'Ho6 Fe23'
_cell_volume   435.61249011
_cell_formula_units_Z   1
loop_
 _symmetry_equiv_pos_site_id
 _symmetry_equiv_pos_as_xyz
  1  'x, y, z'
loop_
 _atom_site_type_symbol
 _atom_site_label
 _atom_site_symmetry_multiplicity
 _atom_site_fract_x
 _atom_site_fract_y
 _atom_site_fract_z
 _atom_site_occupancy
  Ho  Ho0  1  0.78984474  0.21015719  0.21013202  1
  Ho  Ho1  1  0.78985086  0.78984645  0.21015185  1
  Ho  Ho2  1  0.21014914  0.21015355  0.78984815  1
  Ho  Ho3  1  0.78984474  0.21015719  0.78986605  1
  Ho  Ho4  1  0.21015526  0.78984281  0.21013395  1
  Ho  Ho5  1  0.21015526  0.78984281  0.78986798  1
  Fe  Fe0  1  0.50000000  0.50000000  0.50000000  1
  Fe  Fe1  1  0.50000000  -0.00000000  0.00000000  1
  Fe  Fe2  1  0.00000000  -0.00000000  0.50000000  1
  Fe  Fe3  1  0.50000000  0.50000000  0.00000000  1
  Fe  Fe4  1  0.00000000  0.50000000  0.50000000  1
  Fe  Fe5  1  0.00000000  0.50000000  0.00000000  1
  Fe  Fe6  1  0.50000000  -0.00000000  0.50000000  1
  Fe  Fe7  1  0.17573475  0.17573961  0.17570057  1
  Fe  Fe8  1  0.82426525  0.82426039  0.52717593  1
  Fe  Fe9  1  0.52716763  0.82425557  0.82428890  1
  Fe  Fe10  1  0.82425866  0.52716776  0.82428779  1
  Fe  Fe11  1  0.47283237  0.17574443  0.17571110  1
  Fe  Fe12  1  0.17574134  0.47283224  0.17571221  1
  Fe  Fe13  1  0.17573475  0.17573961  0.47282407  1
  Fe  Fe14  1  0.82426525  0.82426039  0.82429943  1
  Fe  Fe15  1  0.37779973  0.37780223  0.37777301  1
  Fe  Fe16  1  0.62220027  0.62219777  0.13337497  1
  Fe  Fe17  1  0.13339176  0.62219075  0.62220875  1
  Fe  Fe18  1  0.62219076  0.13339600  0.62220612  1
  Fe  Fe19  1  0.86660824  0.37780925  0.37779125  1
  Fe  Fe20  1  0.37780924  0.86660400  0.37779388  1
  Fe  Fe21  1  0.37779973  0.37780223  0.86662503  1
  Fe  Fe22  1  0.62220027  0.62219777  0.62222699  1
loop_
_geom_bond_atom_site_label_1
_geom_bond_atom_site_label_2
_geom_bond_distance
_geom_bond_site_symmetry_2
Fe0 Fe20 2.547014 1_555
Fe0 Fe18 2.547014 1_555
Fe0 Fe17 2.547042 1_555
Fe0 Fe19 2.547042 1_555
Fe0 Fe15 2.547067 1_555
Fe0 Fe21 2.547067 1_555
Fe0 Fe16 2.547067 1_555
Fe0 Fe22 2.547067 1_555
Fe1 Fe14 2.463515 1_544
Fe1 Fe7 2.463515 1_555
Fe1 Fe11 2.463578 1_555
Fe1 Fe9 2.463578 1_544
Fe1 Fe18 2.625238 1_554
Fe1 Fe20 2.625238 1_545
Fe1 Fe16 2.625386 1_545
Fe1 Fe21 2.625386 1_554
Fe1 Ho4 3.046329 1_545
Fe1 Ho3 3.046329 1_554
Fe1 Ho2 3.046336 1_554
Fe1 Ho1 3.046336 1_545
Fe2 Fe8 2.463696 1_445
Fe2 Fe7 2.463700 1_555
Fe2 Fe20 2.625439 1_545
Fe2 Ho4 3.046446 1_545
Fe2 Ho5 3.046446 1_545
Fe2 Ho0 3.046446 1_455
Fe2 Ho3 3.046446 1_455
Fe3 Fe9 2.463392 1_554
Fe3 Ho5 3.046221 1_554
Fe3 Ho0 3.046221 1_555
Fe3 Ho4 3.046221 1_555
Fe3 Ho3 3.046221 1_554
Fe4 Fe8 2.463484 1_455
Fe4 Ho1 3.046304 1_455
Fe4 Ho2 3.046304 1_555
Fe4 Ho4 3.046306 1_555
Fe4 Ho3 3.046306 1_455
Fe5 Fe7 2.463481 1_555
Fe5 Ho0 3.046306 1_455
Fe5 Ho5 3.046306 1_554
Fe5 Ho1 3.046310 1_455
Fe5 Ho2 3.046310 1_554
Fe6 Fe8 2.463518 1_545
Fe6 Fe9 2.463585 1_545
Fe6 Ho5 3.046329 1_545
Fe6 Ho0 3.046329 1_555
Fe6 Ho2 3.046330 1_555
Fe6 Ho1 3.046330 1_545
Fe7 Ho2 3.018805 1_554
Fe7 Ho0 3.019139 1_455
Fe7 Ho4 3.019181 1_545
Fe8 Fe9 2.528027 1_555
Fe8 Ho1 3.018805 1_555
Fe8 Ho4 3.019142 1_655
Fe8 Ho0 3.019185 1_565
Fe9 Ho4 3.018784 1_556
Fe9 Ho5 3.018789 1_555
Fe9 Ho2 3.019176 1_565
Fe10 Fe3 2.463413 1_556
Fe10 Fe5 2.463562 1_656
Fe10 Fe4 2.463577 1_655
Fe10 Fe9 2.527967 1_555
Fe10 Fe14 2.527998 1_555
Fe10 Fe8 2.528002 1_555
Fe10 Fe16 2.596368 1_556
Fe10 Fe22 2.596382 1_555
Fe10 Fe17 2.596695 1_655
Fe10 Ho0 3.018775 1_556
Fe10 Ho3 3.018785 1_555
Fe10 Ho2 3.019123 1_655
Fe11 Fe3 2.463392 1_555
Fe11 Fe6 2.463585 1_555
Fe11 Fe12 2.527967 1_555
Fe11 Fe7 2.528027 1_555
Fe11 Fe13 2.528027 1_555
Fe11 Fe21 2.596371 1_554
Fe11 Fe15 2.596378 1_555
Fe11 Fe20 2.596749 1_545
Fe11 Ho3 3.018784 1_554
Fe11 Ho0 3.018789 1_555
Fe11 Ho1 3.019176 1_545
Fe12 Fe3 2.463413 1_555
Fe12 Fe5 2.463562 1_555
Fe12 Fe4 2.463577 1_555
Fe12 Fe7 2.527998 1_555
Fe12 Fe13 2.528002 1_555
Fe12 Fe21 2.596368 1_554
Fe12 Fe15 2.596382 1_555
Fe12 Fe19 2.596695 1_455
Fe12 Ho5 3.018775 1_554
Fe12 Ho4 3.018785 1_555
Fe12 Ho1 3.019123 1_455
Fe13 Fe4 2.463484 1_555
Fe13 Fe6 2.463518 1_555
Fe13 Fe2 2.463696 1_555
Fe13 Fe7 2.528121 1_555
Fe13 Fe15 2.596392 1_555
Fe13 Fe19 2.596725 1_455
Fe13 Fe20 2.596779 1_545
Fe13 Ho2 3.018805 1_555
Fe13 Ho3 3.019142 1_455
Fe13 Ho5 3.019185 1_545
Fe14 Fe5 2.463481 1_656
Fe14 Fe2 2.463700 1_665
Fe14 Fe9 2.528027 1_555
Fe14 Fe8 2.528121 1_555
Fe14 Fe16 2.596389 1_556
Fe14 Fe17 2.596729 1_655
Fe14 Fe18 2.596787 1_565
Fe14 Ho1 3.018805 1_556
Fe14 Ho5 3.019139 1_655
Fe14 Ho3 3.019181 1_565
Fe15 Fe3 2.625089 1_555
Fe15 Fe4 2.625367 1_555
Fe15 Fe6 2.625386 1_555
Fe15 Ho4 2.897302 1_555
Fe15 Ho0 2.897331 1_555
Fe15 Ho2 2.897431 1_555
Fe15 Fe16 2.940918 1_555
Fe15 Fe18 2.941103 1_555
Fe15 Fe17 2.941104 1_555
Fe16 Fe9 2.596371 1_554
Fe16 Fe3 2.625089 1_555
Fe16 Fe5 2.625367 1_655
Fe16 Ho0 2.897302 1_555
Fe16 Ho4 2.897331 1_555
Fe16 Ho1 2.897438 1_555
Fe16 Fe19 2.941103 1_555
Fe16 Fe20 2.941109 1_555
Fe17 Fe8 2.596725 1_455
Fe17 Fe5 2.625219 1_556
Fe17 Fe4 2.625219 1_555
Fe17 Fe2 2.625440 1_565
Fe17 Ho2 2.897259 1_555
Fe17 Ho5 2.897432 1_555
Fe17 Ho4 2.897432 1_555
Fe17 Fe21 2.941103 1_555
Fe17 Fe20 2.941127 1_555
Fe18 Fe9 2.596749 1_545
Fe18 Fe8 2.596779 1_545
Fe18 Fe6 2.625231 1_555
Fe18 Fe2 2.625439 1_655
Fe18 Ho2 2.897289 1_555
Fe18 Ho0 2.897429 1_555
Fe18 Ho3 2.897436 1_555
Fe18 Fe21 2.941109 1_555
Fe18 Fe19 2.941127 1_555
Fe19 Fe7 2.596729 1_655
Fe19 Fe5 2.625219 1_655
Fe19 Fe4 2.625219 1_655
Fe19 Fe2 2.625440 1_655
Fe19 Ho1 2.897259 1_555
Fe19 Ho0 2.897432 1_555
Fe19 Ho3 2.897432 1_555
Fe19 Fe22 2.941104 1_555
Fe20 Fe7 2.596787 1_565
Fe20 Fe6 2.625231 1_565
Fe20 Ho1 2.897289 1_555
Fe20 Ho5 2.897429 1_555
Fe20 Ho4 2.897436 1_555
Fe20 Fe22 2.941103 1_555
Fe21 Fe7 2.596389 1_556
Fe21 Fe3 2.625089 1_556
Fe21 Fe5 2.625367 1_556
Fe21 Ho5 2.897302 1_555
Fe21 Ho3 2.897331 1_555
Fe21 Ho2 2.897438 1_555
Fe21 Fe22 2.940918 1_555
Fe22 Fe9 2.596378 1_555
Fe22 Fe8 2.596392 1_555
Fe22 Fe3 2.625089 1_556
Fe22 Fe4 2.625367 1_655
Fe22 Fe6 2.625386 1_565
Fe22 Ho3 2.897302 1_555
Fe22 Ho5 2.897331 1_555
Fe22 Ho1 2.897431 1_555
