# generated using pymatgen
data_Na6Ca2Ta4Si6(SO12)3
_symmetry_space_group_name_H-M   'P 1'
_cell_length_a   9.09787520
_cell_length_b   9.09787489
_cell_length_c   22.94502642
_cell_angle_alpha   90.00000000
_cell_angle_beta   90.00000000
_cell_angle_gamma   120.00000115
_symmetry_Int_Tables_number   1
_chemical_formula_structural   Na6Ca2Ta4Si6(SO12)3
_chemical_formula_sum   'Na12 Ca4 Ta8 Si12 S6 O72'
_cell_volume   1644.74707967
_cell_formula_units_Z   2
loop_
 _symmetry_equiv_pos_site_id
 _symmetry_equiv_pos_as_xyz
  1  'x, y, z'
loop_
 _atom_site_type_symbol
 _atom_site_label
 _atom_site_symmetry_multiplicity
 _atom_site_fract_x
 _atom_site_fract_y
 _atom_site_fract_z
 _atom_site_occupancy
  Na  Na0  1  0.96749898  0.68035107  0.91883100  1
  Na  Na1  1  0.71285109  0.03250102  0.91883100  1
  Na  Na2  1  0.31964893  0.28714891  0.91883100  1
  Na  Na3  1  0.96749898  0.28714891  0.41883100  1
  Na  Na4  1  0.31964893  0.03250102  0.41883100  1
  Na  Na5  1  0.71285109  0.68035107  0.41883100  1
  Na  Na6  1  -0.00000000  -0.00000000  0.49431066  1
  Na  Na7  1  -0.00000000  -0.00000000  0.99431066  1
  Na  Na8  1  0.66666700  0.33333300  0.82946009  1
  Na  Na9  1  0.66666700  0.33333300  0.32946009  1
  Na  Na10  1  0.33333300  0.66666700  0.16168989  1
  Na  Na11  1  0.33333300  0.66666700  0.66168989  1
  Ca  Ca0  1  -0.00000000  -0.00000000  0.35195254  1
  Ca  Ca1  1  -0.00000000  -0.00000000  0.85195254  1
  Ca  Ca2  1  0.66666700  0.33333300  0.68039406  1
  Ca  Ca3  1  0.66666700  0.33333300  0.18039406  1
  Ta  Ta0  1  -0.00000000  -0.00000000  0.63893521  1
  Ta  Ta1  1  -0.00000000  -0.00000000  0.13893521  1
  Ta  Ta2  1  0.66666700  0.33333300  0.98390031  1
  Ta  Ta3  1  0.66666700  0.33333300  0.48390031  1
  Ta  Ta4  1  0.33333300  0.66666700  0.02159164  1
  Ta  Ta5  1  0.33333300  0.66666700  0.52159164  1
  Ta  Ta6  1  0.33333300  0.66666700  0.31602610  1
  Ta  Ta7  1  0.33333300  0.66666700  0.81602610  1
  Si  Si0  1  0.96308349  0.33829674  0.58432823  1
  Si  Si1  1  0.37521424  0.03691651  0.58432823  1
  Si  Si2  1  0.66170326  0.62478576  0.58432823  1
  Si  Si3  1  0.96308349  0.62478576  0.08432823  1
  Si  Si4  1  0.66170326  0.03691651  0.08432823  1
  Si  Si5  1  0.37521424  0.33829674  0.08432823  1
  Si  Si6  1  0.61611135  0.65604974  0.91803003  1
  Si  Si7  1  0.03993739  0.38388865  0.91803003  1
  Si  Si8  1  0.34395026  0.96006261  0.91803003  1
  Si  Si9  1  0.61611135  0.96006261  0.41803003  1
  Si  Si10  1  0.34395026  0.38388865  0.41803003  1
  Si  Si11  1  0.03993739  0.65604974  0.41803003  1
  S  S0  1  0.29069012  0.98879618  0.25076081  1
  S  S1  1  0.69810606  0.70930988  0.25076081  1
  S  S2  1  0.01120382  0.30189394  0.25076081  1
  S  S3  1  0.29069012  0.30189394  0.75076081  1
  S  S4  1  0.01120382  0.70930988  0.75076081  1
  S  S5  1  0.69810606  0.98879618  0.75076081  1
  O  O0  1  0.21577096  0.00091185  0.30594946  1
  O  O1  1  0.78514089  0.78422904  0.30594946  1
  O  O2  1  0.99908815  0.21485911  0.30594946  1
  O  O3  1  0.21577096  0.21485911  0.80594946  1
  O  O4  1  0.99908815  0.78422904  0.80594946  1
  O  O5  1  0.78514089  0.00091185  0.80594946  1
  O  O6  1  0.79524481  0.97436273  0.70009222  1
  O  O7  1  0.17911792  0.20475519  0.70009222  1
  O  O8  1  0.02563727  0.82088208  0.70009222  1
  O  O9  1  0.79524481  0.82088208  0.20009222  1
  O  O10  1  0.02563727  0.20475519  0.20009222  1
  O  O11  1  0.17911792  0.97436273  0.20009222  1
  O  O12  1  0.90255968  0.38032602  0.64219865  1
  O  O13  1  0.47776735  0.09744032  0.64219865  1
  O  O14  1  0.61967398  0.52223265  0.64219865  1
  O  O15  1  0.90255968  0.52223265  0.14219865  1
  O  O16  1  0.61967398  0.09744032  0.14219865  1
  O  O17  1  0.47776735  0.38032602  0.14219865  1
  O  O18  1  0.46652862  0.30163175  0.02564185  1
  O  O19  1  0.83510413  0.53347138  0.02564185  1
  O  O20  1  0.69836825  0.16489587  0.02564185  1
  O  O21  1  0.46652862  0.16489587  0.52564185  1
  O  O22  1  0.69836825  0.53347138  0.52564185  1
  O  O23  1  0.83510413  0.30163175  0.52564185  1
  O  O24  1  0.51404318  0.67806928  0.97101605  1
  O  O25  1  0.16402510  0.48595682  0.97101605  1
  O  O26  1  0.32193072  0.83597490  0.97101605  1
  O  O27  1  0.51404318  0.83597490  0.47101605  1
  O  O28  1  0.32193072  0.48595682  0.47101605  1
  O  O29  1  0.16402510  0.67806928  0.47101605  1
  O  O30  1  0.13895110  0.63212492  0.35848408  1
  O  O31  1  0.49317281  0.86104890  0.35848408  1
  O  O32  1  0.36787508  0.50682719  0.35848408  1
  O  O33  1  0.13895110  0.50682719  0.85848408  1
  O  O34  1  0.36787508  0.86104890  0.85848408  1
  O  O35  1  0.49317281  0.63212492  0.85848408  1
  O  O36  1  0.01734067  0.81979730  0.41566683  1
  O  O37  1  0.80245663  0.98265933  0.41566683  1
  O  O38  1  0.18020270  0.19754337  0.41566683  1
  O  O39  1  0.01734067  0.19754337  0.91566683  1
  O  O40  1  0.18020270  0.98265933  0.91566683  1
  O  O41  1  0.80245663  0.81979730  0.91566683  1
  O  O42  1  0.97659930  0.15913472  0.59320526  1
  O  O43  1  0.18253542  0.02340070  0.59320526  1
  O  O44  1  0.84086528  0.81746458  0.59320526  1
  O  O45  1  0.97659930  0.81746458  0.09320526  1
  O  O46  1  0.84086528  0.02340070  0.09320526  1
  O  O47  1  0.18253542  0.15913472  0.09320526  1
  O  O48  1  0.67198363  0.13414963  0.74664849  1
  O  O49  1  0.46216700  0.32801637  0.74664849  1
  O  O50  1  0.86585037  0.53783300  0.74664849  1
  O  O51  1  0.67198363  0.53783300  0.24664849  1
  O  O52  1  0.86585037  0.32801637  0.24664849  1
  O  O53  1  0.46216700  0.13414963  0.24664849  1
  O  O54  1  0.62299276  0.47873075  0.92242644  1
  O  O55  1  0.85573899  0.37700724  0.92242644  1
  O  O56  1  0.52126925  0.14426101  0.92242644  1
  O  O57  1  0.62299276  0.14426101  0.42242644  1
  O  O58  1  0.52126925  0.37700724  0.42242644  1
  O  O59  1  0.85573899  0.47873075  0.42242644  1
  O  O60  1  0.33216294  0.48690590  0.06839749  1
  O  O61  1  0.15474196  0.66783706  0.06839749  1
  O  O62  1  0.51309410  0.84525804  0.06839749  1
  O  O63  1  0.33216294  0.84525804  0.56839749  1
  O  O64  1  0.51309410  0.66783706  0.56839749  1
  O  O65  1  0.15474196  0.48690590  0.56839749  1
  O  O66  1  0.29784152  0.82387326  0.25223660  1
  O  O67  1  0.52603074  0.70215848  0.25223660  1
  O  O68  1  0.17612674  0.47396926  0.25223660  1
  O  O69  1  0.29784152  0.47396926  0.75223660  1
  O  O70  1  0.17612674  0.70215848  0.75223660  1
  O  O71  1  0.52603074  0.82387326  0.75223660  1
loop_
_geom_bond_atom_site_label_1
_geom_bond_atom_site_label_2
_geom_bond_distance
_geom_bond_site_symmetry_2
Na0 O41 2.402984 1_555
Na0 O55 2.418877 1_555
Na0 O40 2.447899 1_655
Na0 O4 2.722610 1_555
Na0 O54 2.728726 1_555
Na0 O19 2.762835 1_556
Na1 O39 2.402991 1_655
Na1 O56 2.418860 1_555
Na1 O41 2.447906 1_545
Na1 O5 2.722613 1_555
Na1 O55 2.728725 1_555
Na1 O20 2.762830 1_556
Na2 O40 2.402992 1_545
Na2 O54 2.418874 1_555
Na2 O39 2.447897 1_555
Na2 O3 2.722611 1_555
Na2 O56 2.728741 1_555
Na2 O18 2.762839 1_556
Na3 O37 2.402991 1_545
Na3 O59 2.418860 1_555
Na3 O38 2.447906 1_655
Na3 O2 2.722613 1_555
Na3 O57 2.728725 1_555
Na3 O23 2.762830 1_555
Na4 O38 2.402984 1_555
Na4 O57 2.418877 1_555
Na4 O36 2.447899 1_545
Na4 O0 2.722610 1_555
Na4 O58 2.728726 1_555
Na4 O21 2.762835 1_555
Na5 O36 2.402992 1_655
Na5 O58 2.418874 1_555
Na5 O37 2.447897 1_555
Na5 O1 2.722611 1_555
Na5 O59 2.728741 1_555
Na5 O22 2.762839 1_555
Na6 O38 2.495503 1_555
Na6 O36 2.495503 1_545
Na6 O37 2.495503 1_445
Na6 O44 2.756562 1_445
Na6 O42 2.756562 1_455
Na6 O43 2.756562 1_555
Na7 O39 2.495503 1_555
Na7 O41 2.495503 1_445
Na7 O40 2.495503 1_545
Na7 O45 2.756562 1_446
Na7 O47 2.756562 1_556
Na7 O46 2.756562 1_456
Na8 O56 2.642631 1_555
Na8 O54 2.642631 1_555
Na8 O55 2.642631 1_555
Na8 O50 2.642782 1_555
Na8 O48 2.642782 1_555
Na8 O49 2.642782 1_555
Na9 O57 2.642631 1_555
Na9 O59 2.642631 1_555
Na9 O58 2.642631 1_555
Na9 O51 2.642782 1_555
Na9 O53 2.642782 1_555
Na9 O52 2.642782 1_555
Na10 O68 2.632126 1_555
Na10 O66 2.632126 1_555
Na10 O67 2.632126 1_555
Na10 O60 2.690638 1_555
Na10 O62 2.690638 1_555
Na10 O61 2.690638 1_555
Na11 O69 2.632126 1_555
Na11 O71 2.632126 1_555
Na11 O70 2.632126 1_555
Na11 O65 2.690638 1_555
Na11 O63 2.690638 1_555
Na11 O64 2.690638 1_555
Ca0 O1 2.225207 1_445
Ca0 O2 2.225207 1_455
Ca0 O0 2.225207 1_555
Ca0 O38 2.260221 1_555
Ca0 O36 2.260221 1_545
Ca0 O37 2.260221 1_445
Ca1 O4 2.225207 1_445
Ca1 O3 2.225207 1_555
Ca1 O5 2.225207 1_455
Ca1 O39 2.260221 1_555
Ca1 O41 2.260221 1_445
Ca1 O40 2.260221 1_545
Ca2 O14 2.153868 1_555
Ca2 O13 2.153868 1_555
Ca2 O12 2.153869 1_555
Ca2 O50 2.384303 1_555
Ca2 O48 2.384303 1_555
Ca2 O49 2.384303 1_555
Ca3 O17 2.153868 1_555
Ca3 O15 2.153868 1_555
Ca3 O16 2.153868 1_555
Ca3 O51 2.384303 1_555
Ca3 O53 2.384303 1_555
Ca3 O52 2.384303 1_555
O0 S0 1.468126 1_545
O1 S1 1.468126 1_555
O2 S2 1.468126 1_655
O3 S3 1.468126 1_555
O4 S4 1.468126 1_655
O5 S5 1.468126 1_545
O6 S5 1.505303 1_555
O6 Ta0 2.249261 1_665
O7 S3 1.505303 1_555
O7 Ta0 2.249261 1_555
O8 S4 1.505303 1_555
O8 Ta0 2.249261 1_565
O9 S1 1.505303 1_555
O9 Ta1 2.249261 1_665
O10 S2 1.505303 1_555
O10 Ta1 2.249261 1_555
O11 S0 1.505303 1_555
O11 Ta1 2.249261 1_565
O12 Si0 1.556638 1_555
O13 Si1 1.556638 1_555
O14 Si2 1.556638 1_555
O15 Si3 1.556638 1_555
O16 Si4 1.556638 1_555
O17 Si5 1.556638 1_555
O18 Si5 1.700527 1_555
O18 Ta2 1.946990 1_554
O19 Si3 1.700527 1_555
O19 Ta2 1.946990 1_554
O20 Si4 1.700527 1_555
O20 Ta2 1.946990 1_554
O21 Si1 1.700527 1_555
O21 Ta3 1.946990 1_555
O22 Si2 1.700527 1_555
O22 Ta3 1.946990 1_555
O23 Si0 1.700527 1_555
O23 Ta3 1.946990 1_555
O24 Si6 1.602046 1_555
O24 Ta4 1.972275 1_556
O25 Si7 1.602046 1_555
O25 Ta4 1.972275 1_556
O26 Si8 1.602046 1_555
O26 Ta4 1.972275 1_556
O27 Si9 1.602046 1_555
O27 Ta5 1.972275 1_555
O28 Si10 1.602046 1_555
O28 Ta5 1.972275 1_555
O29 Si11 1.602046 1_555
O29 Ta5 1.972275 1_555
O30 Si11 1.709284 1_555
O30 Ta6 1.902505 1_555
O31 Si9 1.709284 1_555
O31 Ta6 1.902505 1_555
O32 Si10 1.709284 1_555
O32 Ta6 1.902505 1_555
O33 Si7 1.709284 1_555
O33 Ta7 1.902505 1_555
O34 Si8 1.709284 1_555
O34 Ta7 1.902505 1_555
O35 Si6 1.709284 1_555
O35 Ta7 1.902505 1_555
O36 Si11 1.603384 1_555
O37 Si9 1.603393 1_555
O38 Si10 1.603389 1_555
O39 Si7 1.603393 1_555
O40 Si8 1.603384 1_555
O41 Si6 1.603390 1_555
O42 Si0 1.707021 1_555
O42 Ta0 1.884309 1_655
O43 Si1 1.707030 1_555
O43 Ta0 1.884309 1_555
O44 Si2 1.707025 1_555
O44 Ta0 1.884309 1_665
O45 Si3 1.707029 1_555
O45 Ta1 1.884309 1_665
O46 Si4 1.707021 1_555
O46 Ta1 1.884309 1_655
O47 Si5 1.707026 1_555
O47 Ta1 1.884309 1_555
O48 S5 1.458913 1_545
O49 S3 1.458922 1_555
O50 S4 1.458919 1_655
O51 S1 1.458922 1_555
O52 S2 1.458913 1_655
O53 S0 1.458919 1_545
O54 Si6 1.648512 1_555
O54 Ta2 2.103065 1_555
O55 Si7 1.648494 1_655
O55 Ta2 2.103065 1_555
O56 Si8 1.648502 1_545
O56 Ta2 2.103065 1_555
O57 Si9 1.648494 1_545
O57 Ta3 2.103065 1_555
O58 Si10 1.648512 1_555
O58 Ta3 2.103065 1_555
O59 Si11 1.648502 1_655
O59 Ta3 2.103065 1_555
O60 Si5 1.626209 1_555
O60 Ta4 1.952120 1_555
O61 Si3 1.626192 1_455
O61 Ta4 1.952120 1_555
O62 Si4 1.626197 1_565
O62 Ta4 1.952120 1_555
O63 Si1 1.626192 1_565
O63 Ta5 1.952120 1_555
O64 Si2 1.626209 1_555
O64 Ta5 1.952120 1_555
O65 Si0 1.626198 1_455
O65 Ta5 1.952120 1_555
O66 S0 1.534388 1_555
O66 Ta6 2.180357 1_555
O67 S1 1.534397 1_555
O67 Ta6 2.180357 1_555
O68 S2 1.534393 1_555
O68 Ta6 2.180357 1_555
O69 S3 1.534397 1_555
O69 Ta7 2.180357 1_555
O70 S4 1.534388 1_555
O70 Ta7 2.180357 1_555
O71 S5 1.534393 1_555
O71 Ta7 2.180357 1_555
