# generated using pymatgen
data_MgZn(CoO2)4
_symmetry_space_group_name_H-M   'P 1'
_cell_length_a   2.93742219
_cell_length_b   7.94603562
_cell_length_c   8.03281673
_cell_angle_alpha   66.95170975
_cell_angle_beta   79.41291154
_cell_angle_gamma   79.24813065
_symmetry_Int_Tables_number   1
_chemical_formula_structural   MgZn(CoO2)4
_chemical_formula_sum   'Mg1 Zn1 Co4 O8'
_cell_volume   168.22207071
_cell_formula_units_Z   1
loop_
 _symmetry_equiv_pos_site_id
 _symmetry_equiv_pos_as_xyz
  1  'x, y, z'
loop_
 _atom_site_type_symbol
 _atom_site_label
 _atom_site_symmetry_multiplicity
 _atom_site_fract_x
 _atom_site_fract_y
 _atom_site_fract_z
 _atom_site_occupancy
  Mg  Mg0  1  0.50724000  0.51682200  0.46752900  1
  Zn  Zn0  1  0.27360400  0.17983700  0.26915500  1
  Co  Co0  1  0.61622100  0.15202100  0.61391400  1
  Co  Co1  1  0.17320500  0.56136100  0.09597000  1
  Co  Co2  1  0.87089800  0.43264800  0.82347900  1
  Co  Co3  1  0.29056600  0.81680600  0.59986600  1
  O  O0  1  0.89971700  0.63754200  0.56066200  1
  O  O1  1  0.47087800  0.30998800  0.74607400  1
  O  O2  1  0.58599200  0.63618100  0.19363200  1
  O  O3  1  0.11213700  0.31201800  0.46213300  1
  O  O4  1  0.13224200  0.00625600  0.72730700  1
  O  O5  1  0.78586200  0.32978300  0.09148000  1
  O  O6  1  0.76590100  0.02208400  0.44505000  1
  O  O7  1  0.27007400  0.60632700  0.84889600  1
loop_
_geom_bond_atom_site_label_1
_geom_bond_atom_site_label_2
_geom_bond_distance
_geom_bond_site_symmetry_2
Mg0 O2 2.013623 1_555
Mg0 O0 2.024128 1_455
Mg0 O0 2.024947 1_555
Mg0 O3 2.180698 1_655
Mg0 O3 2.185319 1_555
Mg0 O1 2.194813 1_555
Co0 O4 1.869488 1_655
Co0 O4 1.872104 1_555
Co0 O1 1.887266 1_555
Co0 O6 1.951255 1_555
Co0 O3 2.010625 1_555
Co0 O3 2.012336 1_655
Co1 O7 1.850086 1_554
Co1 O2 1.850090 1_555
Co1 O2 1.851889 1_455
Co1 O5 2.327784 1_555
Co1 O5 2.351629 1_455
Co2 O5 1.966166 1_556
Co2 O1 1.968135 1_655
Co2 O1 1.971691 1_555
Co2 O7 2.057543 1_655
Co2 O7 2.059244 1_555
Co2 O0 2.099824 1_555
Co3 O7 2.043545 1_555
Co3 O4 2.073872 1_565
Co3 O0 2.126761 1_555
Co3 O0 2.130866 1_455
Co3 O6 2.181824 1_465
Co3 O6 2.186344 1_565
O3 Zn0 2.133057 1_555
O5 Zn0 2.066164 1_555
O5 Zn0 2.071759 1_655
O6 Zn0 2.080419 1_655
O6 Zn0 2.084821 1_555
