# generated using pymatgen
data_Na3Mg2Sc2PS5O24
_symmetry_space_group_name_H-M   'P 1'
_cell_length_a   8.78886750
_cell_length_b   8.78381590
_cell_length_c   22.82845788
_cell_angle_alpha   90.07084979
_cell_angle_beta   89.92500661
_cell_angle_gamma   119.88712209
_symmetry_Int_Tables_number   1
_chemical_formula_structural   Na3Mg2Sc2PS5O24
_chemical_formula_sum   'Na9 Mg6 Sc6 P3 S15 O72'
_cell_volume   1527.97319579
_cell_formula_units_Z   3
loop_
 _symmetry_equiv_pos_site_id
 _symmetry_equiv_pos_as_xyz
  1  'x, y, z'
loop_
 _atom_site_type_symbol
 _atom_site_label
 _atom_site_symmetry_multiplicity
 _atom_site_fract_x
 _atom_site_fract_y
 _atom_site_fract_z
 _atom_site_occupancy
  Na  Na0  1  0.36658940  0.99623375  0.75012676  1
  Na  Na1  1  0.66331066  0.96787679  0.58602287  1
  Na  Na2  1  0.67055337  0.69755348  0.08276426  1
  Na  Na3  1  0.01595682  0.00109147  0.50207360  1
  Na  Na4  1  0.01014216  0.00309343  0.00153282  1
  Na  Na5  1  0.67586314  0.33733208  0.83397932  1
  Na  Na6  1  0.66673573  0.33335132  0.33335407  1
  Na  Na7  1  0.31708998  0.66510261  0.16697200  1
  Na  Na8  1  0.33062002  0.65993083  0.66666720  1
  Mg  Mg0  1  0.00350470  0.99964432  0.64924993  1
  Mg  Mg1  1  0.00721613  0.00018932  0.14924595  1
  Mg  Mg2  1  0.32027339  0.66575339  0.01771785  1
  Mg  Mg3  1  0.32707314  0.66736664  0.51734548  1
  Mg  Mg4  1  0.33194978  0.66645338  0.31545863  1
  Mg  Mg5  1  0.33878562  0.66624113  0.81580181  1
  Sc  Sc0  1  0.00188519  0.00031412  0.35185953  1
  Sc  Sc1  1  0.99064525  0.00149264  0.85134659  1
  Sc  Sc2  1  0.66781116  0.32820063  0.68428035  1
  Sc  Sc3  1  0.67625542  0.33847638  0.18501777  1
  Sc  Sc4  1  0.67335018  0.33934446  0.98209052  1
  Sc  Sc5  1  0.65654517  0.32803400  0.48169815  1
  P  P0  1  0.70460852  0.99535348  0.74767262  1
  P  P1  1  0.36607875  0.03502600  0.58368690  1
  P  P2  1  0.96531622  0.63092311  0.08373319  1
  S  S0  1  0.29255767  0.99753314  0.24944766  1
  S  S1  1  0.70423983  0.70901998  0.24918263  1
  S  S2  1  0.00413235  0.29287163  0.24944249  1
  S  S3  1  0.28954051  0.29493935  0.74949646  1
  S  S4  1  0.00034541  0.70780138  0.75013630  1
  S  S5  1  0.96439941  0.33591557  0.58261094  1
  S  S6  1  0.66651534  0.62759396  0.58304140  1
  S  S7  1  0.66674689  0.03829323  0.08336214  1
  S  S8  1  0.37084046  0.33169939  0.08315542  1
  S  S9  1  0.62161957  0.66591167  0.91774046  1
  S  S10  1  0.04609400  0.37871562  0.91637473  1
  S  S11  1  0.33309204  0.95805030  0.91598567  1
  S  S12  1  0.62338021  0.95553179  0.41674252  1
  S  S13  1  0.33263832  0.37950052  0.41633901  1
  S  S14  1  0.04302309  0.66537930  0.41633900  1
  O  O0  1  0.21042301  0.02558916  0.30272103  1
  O  O1  1  0.81675409  0.79321902  0.30137858  1
  O  O2  1  0.97661426  0.18391736  0.30270322  1
  O  O3  1  0.21235340  0.18093402  0.80222104  1
  O  O4  1  0.97497196  0.78991997  0.80334877  1
  O  O5  1  0.82083120  0.02421809  0.80240281  1
  O  O6  1  0.78765798  0.97352308  0.69175382  1
  O  O7  1  0.18497978  0.21209632  0.69700690  1
  O  O8  1  0.03212648  0.81911707  0.69815134  1
  O  O9  1  0.78448853  0.81188340  0.19544707  1
  O  O10  1  0.02578483  0.20908510  0.19695250  1
  O  O11  1  0.18562391  0.97354344  0.19724447  1
  O  O12  1  0.88222562  0.36386047  0.63572041  1
  O  O13  1  0.48482473  0.12127391  0.63941097  1
  O  O14  1  0.64251430  0.52012738  0.63585741  1
  O  O15  1  0.87140580  0.51304212  0.13802539  1
  O  O16  1  0.63732533  0.11943364  0.13591886  1
  O  O17  1  0.48402937  0.36143888  0.13553781  1
  O  O18  1  0.45354065  0.30353203  0.03043841  1
  O  O19  1  0.84198455  0.54082241  0.02981157  1
  O  O20  1  0.69145670  0.14672827  0.03076182  1
  O  O21  1  0.46303369  0.15479715  0.53018496  1
  O  O22  1  0.69411417  0.54507201  0.53055035  1
  O  O23  1  0.85008440  0.30636521  0.53081045  1
  O  O24  1  0.54442019  0.69015473  0.97197387  1
  O  O25  1  0.14974971  0.45694612  0.96934837  1
  O  O26  1  0.30909581  0.85084526  0.96807829  1
  O  O27  1  0.54799863  0.85433868  0.47106566  1
  O  O28  1  0.30776316  0.45806880  0.46960401  1
  O  O29  1  0.14809276  0.69298188  0.46931231  1
  O  O30  1  0.12296351  0.64045694  0.36343783  1
  O  O31  1  0.51584805  0.87337368  0.36477779  1
  O  O32  1  0.35743306  0.48351170  0.36345791  1
  O  O33  1  0.12493804  0.48294255  0.86336699  1
  O  O34  1  0.35785943  0.88057442  0.86169182  1
  O  O35  1  0.51578498  0.64217064  0.86545946  1
  O  O36  1  0.02220976  0.82487321  0.41009384  1
  O  O37  1  0.80273212  0.97651816  0.41016075  1
  O  O38  1  0.17518477  0.19881921  0.41047565  1
  O  O39  1  0.02523082  0.19888259  0.91097481  1
  O  O40  1  0.17471584  0.97876592  0.91043148  1
  O  O41  1  0.80128101  0.82339151  0.91182884  1
  O  O42  1  0.97321033  0.17233855  0.58900696  1
  O  O43  1  0.18650309  0.01926650  0.58987380  1
  O  O44  1  0.82215070  0.80611448  0.58856719  1
  O  O45  1  0.97179979  0.80945695  0.08980092  1
  O  O46  1  0.82508939  0.02015515  0.08988080  1
  O  O47  1  0.19578220  0.17779024  0.09012531  1
  O  O48  1  0.68285745  0.16359809  0.74452432  1
  O  O49  1  0.46792593  0.31016715  0.74413583  1
  O  O50  1  0.84168339  0.53246542  0.74394814  1
  O  O51  1  0.68703115  0.53060253  0.24467460  1
  O  O52  1  0.84169927  0.30847319  0.24505266  1
  O  O53  1  0.46945941  0.15819604  0.24402921  1
  O  O54  1  0.64187540  0.50645411  0.92231560  1
  O  O55  1  0.86535918  0.35582851  0.92212483  1
  O  O56  1  0.49198447  0.13646263  0.92246401  1
  O  O57  1  0.64575717  0.13593814  0.42217076  1
  O  O58  1  0.49154860  0.35802968  0.42171124  1
  O  O59  1  0.86386886  0.50830485  0.42275234  1
  O  O60  1  0.36268384  0.49594923  0.07641539  1
  O  O61  1  0.14483672  0.64674628  0.07755058  1
  O  O62  1  0.51222854  0.85922778  0.07679532  1
  O  O63  1  0.36101197  0.85733303  0.57709832  1
  O  O64  1  0.50841540  0.64644895  0.57671277  1
  O  O65  1  0.13902657  0.49043869  0.57603140  1
  O  O66  1  0.31157866  0.84079400  0.25667715  1
  O  O67  1  0.52897223  0.68986527  0.25671451  1
  O  O68  1  0.15908164  0.46918053  0.25631990  1
  O  O69  1  0.30910929  0.46937500  0.75743070  1
  O  O70  1  0.15917722  0.69002573  0.75717525  1
  O  O71  1  0.51715075  0.83734813  0.75559155  1
loop_
_geom_bond_atom_site_label_1
_geom_bond_atom_site_label_2
_geom_bond_distance
_geom_bond_site_symmetry_2
Na0 O71 2.357050 1_555
Na0 O70 2.386893 1_555
Na0 O48 2.414763 1_565
Na0 O49 2.443147 1_565
Na0 O34 2.729962 1_555
Na0 O13 2.745329 1_565
Na0 O8 2.813559 1_555
Na0 O3 2.840182 1_565
Na1 O63 2.339486 1_555
Na1 O42 2.402864 1_565
Na1 O44 2.438940 1_555
Na1 O64 2.457363 1_555
Na1 O6 2.641069 1_555
Na1 O13 2.803407 1_565
Na1 O27 2.811024 1_555
Na1 O23 2.874576 1_565
Na2 O45 2.325726 1_555
Na2 O60 2.388210 1_555
Na2 O62 2.437597 1_555
Na2 O46 2.462659 1_565
Na2 O24 2.750455 1_554
Na2 O9 2.761617 1_555
Na2 O19 2.772174 1_555
Na2 O17 2.834700 1_555
Na3 O43 2.461341 1_555
Na3 O44 2.612570 1_445
Na3 O36 2.623800 1_545
Na3 O42 2.626039 1_455
Na3 O38 2.631811 1_555
Na3 O37 2.750836 1_445
Na4 O45 2.549965 1_445
Na4 O47 2.571536 1_555
Na4 O40 2.600385 1_544
Na4 O46 2.639868 1_455
Na4 O39 2.651365 1_554
Na4 O41 2.677481 1_444
Na5 O55 2.566612 1_555
Na5 O48 2.566769 1_555
Na5 O54 2.606894 1_555
Na5 O50 2.607177 1_555
Na5 O56 2.638882 1_555
Na5 O49 2.679064 1_555
Na6 O52 2.607957 1_555
Na6 O58 2.609518 1_555
Na6 O51 2.613766 1_555
Na6 O57 2.615518 1_555
Na6 O53 2.621915 1_555
Na6 O59 2.622299 1_555
Na7 O61 2.499811 1_555
Na7 O66 2.577590 1_555
Na7 O68 2.582629 1_555
Na7 O62 2.678015 1_555
Na7 O60 2.688011 1_555
Na7 O67 2.705077 1_555
Na8 O71 2.586876 1_555
Na8 O63 2.608554 1_555
Na8 O69 2.612032 1_555
Na8 O65 2.614604 1_555
Na8 O64 2.616901 1_555
Na8 O70 2.645139 1_555
Mg0 O6 2.038349 1_455
Mg0 O43 2.042642 1_565
Mg0 O8 2.055881 1_555
Mg0 O7 2.061120 1_565
Mg0 O44 2.156154 1_455
Mg0 O42 2.161450 1_465
Mg1 O11 2.021117 1_545
Mg1 O45 2.054517 1_445
Mg1 O10 2.068009 1_555
Mg1 O47 2.103457 1_555
Mg1 O9 2.110044 1_445
Mg1 O46 2.171542 1_455
Mg2 O61 2.002362 1_555
Mg2 O25 2.022200 1_554
Mg2 O26 2.025109 1_554
Mg2 O24 2.142821 1_554
Mg2 O62 2.167062 1_555
Mg2 O60 2.172424 1_555
Mg3 O29 2.021207 1_555
Mg3 O63 2.057519 1_555
Mg3 O28 2.069066 1_555
Mg3 O65 2.093122 1_555
Mg3 O27 2.098688 1_555
Mg3 O64 2.169973 1_555
Mg4 O32 2.048587 1_555
Mg4 O30 2.050081 1_555
Mg4 O31 2.062883 1_555
Mg4 O66 2.111111 1_555
Mg4 O67 2.116329 1_555
Mg4 O68 2.123548 1_555
Mg5 O35 2.020576 1_555
Mg5 O71 2.063265 1_555
Mg5 O33 2.070512 1_555
Mg5 O34 2.085916 1_555
Mg5 O69 2.092757 1_555
Mg5 O70 2.159065 1_555
O0 S0 1.495024 1_545
O0 Sc0 2.063139 1_555
O1 S1 1.488860 1_555
O1 Sc0 2.081956 1_665
O2 S2 1.491362 1_655
O2 Sc0 2.066785 1_655
O3 S3 1.495173 1_555
O3 Sc1 2.115837 1_455
O4 S4 1.484283 1_655
O4 Sc1 2.100836 1_565
O5 P0 1.553431 1_545
O5 Sc1 1.953850 1_555
O6 P0 1.528246 1_555
O7 S3 1.464286 1_555
O8 S4 1.473849 1_555
O9 S1 1.477837 1_555
O10 S2 1.466458 1_555
O11 S0 1.467248 1_555
O12 S5 1.491784 1_555
O12 Sc2 2.070101 1_555
O13 P1 1.579397 1_555
O13 Sc2 2.006455 1_555
O14 S6 1.480881 1_555
O14 Sc2 2.119496 1_555
O15 P2 1.561505 1_555
O15 Sc3 1.955003 1_555
O16 S7 1.481578 1_555
O16 Sc3 2.101162 1_555
O17 S8 1.493717 1_555
O17 Sc3 2.125079 1_555
O18 S8 1.487949 1_555
O18 Sc4 2.106873 1_554
O19 P2 1.569291 1_555
O19 Sc4 1.975066 1_554
O20 S7 1.480626 1_555
O20 Sc4 2.096622 1_554
O21 P1 1.559390 1_555
O21 Sc5 1.962986 1_555
O22 S6 1.480698 1_555
O22 Sc5 2.086998 1_555
O23 S5 1.489167 1_555
O23 Sc5 2.124797 1_555
O24 S9 1.476362 1_555
O25 S10 1.463392 1_555
O26 S11 1.466150 1_555
O27 S12 1.476681 1_555
O28 S13 1.466363 1_555
O29 S14 1.467312 1_555
O30 S14 1.466417 1_555
O31 S12 1.463675 1_555
O32 S13 1.463941 1_555
O33 S10 1.466612 1_555
O34 S11 1.480396 1_555
O35 S9 1.463593 1_555
O36 S14 1.507465 1_555
O36 Sc0 2.110460 1_565
O37 S12 1.500381 1_555
O37 Sc0 2.123369 1_665
O38 S13 1.504303 1_555
O38 Sc0 2.122158 1_555
O39 S10 1.501646 1_555
O39 Sc1 2.102742 1_455
O40 S11 1.496543 1_555
O40 Sc1 2.191933 1_465
O41 S9 1.499369 1_555
O41 Sc1 2.127959 1_565
O42 S5 1.484329 1_555
O43 P1 1.520451 1_555
O44 S6 1.486008 1_555
O45 P2 1.546654 1_555
O46 S7 1.485189 1_555
O47 S8 1.465315 1_555
O48 P0 1.583521 1_545
O48 Sc2 2.048234 1_555
O49 S3 1.510440 1_555
O49 Sc2 2.166867 1_555
O50 S4 1.481930 1_655
O50 Sc2 2.162585 1_555
O51 S1 1.500986 1_555
O51 Sc3 2.132378 1_555
O52 S2 1.504079 1_655
O52 Sc3 2.109514 1_555
O53 S0 1.495814 1_545
O53 Sc3 2.180899 1_555
O54 S9 1.501106 1_555
O54 Sc4 2.122214 1_555
O55 S10 1.504030 1_655
O55 Sc4 2.119823 1_555
O56 S11 1.498974 1_545
O56 Sc4 2.176740 1_555
O57 S12 1.501386 1_545
O57 Sc5 2.130253 1_555
O58 S13 1.504734 1_555
O58 Sc5 2.105813 1_555
O59 S14 1.496382 1_655
O59 Sc5 2.182136 1_555
O60 S8 1.487940 1_555
O61 P2 1.519722 1_455
O62 S7 1.487247 1_565
O63 P1 1.546267 1_565
O64 S6 1.486269 1_555
O65 S5 1.464317 1_455
O66 S0 1.476713 1_555
O67 S1 1.473704 1_555
O68 S2 1.475036 1_555
O69 S3 1.465206 1_555
O70 S4 1.488875 1_555
O71 P0 1.547370 1_555
