# generated using pymatgen
data_Ce2MgTi4O12
_symmetry_space_group_name_H-M   'P 1'
_cell_length_a   5.17927544
_cell_length_b   7.86960356
_cell_length_c   6.65543866
_cell_angle_alpha   76.56357698
_cell_angle_beta   72.60751615
_cell_angle_gamma   77.61218014
_symmetry_Int_Tables_number   1
_chemical_formula_structural   Ce2MgTi4O12
_chemical_formula_sum   'Ce2 Mg1 Ti4 O12'
_cell_volume   248.68551712
_cell_formula_units_Z   1
loop_
 _symmetry_equiv_pos_site_id
 _symmetry_equiv_pos_as_xyz
  1  'x, y, z'
loop_
 _atom_site_type_symbol
 _atom_site_label
 _atom_site_symmetry_multiplicity
 _atom_site_fract_x
 _atom_site_fract_y
 _atom_site_fract_z
 _atom_site_occupancy
  Ce  Ce0  1  0.66919386  0.83753543  0.20446922  1
  Ce  Ce1  1  0.33080614  0.16246457  0.79553078  1
  Mg  Mg0  1  -0.00000000  0.50000000  -0.00000000  1
  Ti  Ti0  1  0.48802303  0.33902082  0.18280642  1
  Ti  Ti1  1  0.01401241  0.83250415  0.65642357  1
  Ti  Ti2  1  0.51197697  0.66097918  0.81719358  1
  Ti  Ti3  1  0.98598759  0.16749585  0.34357643  1
  O  O0  1  0.95224258  0.91483160  0.37345202  1
  O  O1  1  0.58894032  0.57531384  0.12220198  1
  O  O2  1  0.04775742  0.08516840  0.62654798  1
  O  O3  1  0.41105968  0.42468616  0.87779802  1
  O  O4  1  0.59401321  0.24738973  0.44431639  1
  O  O5  1  0.89273357  0.60490586  0.70722195  1
  O  O6  1  0.40598679  0.75260927  0.55568361  1
  O  O7  1  0.10726643  0.39509414  0.29277705  1
  O  O8  1  0.38879879  0.10786416  0.16332402  1
  O  O9  1  0.09816438  0.75447602  0.94900391  1
  O  O10  1  0.61120121  0.89213584  0.83667598  1
  O  O11  1  0.90183562  0.24552398  0.05099609  1
loop_
_geom_bond_atom_site_label_1
_geom_bond_atom_site_label_2
_geom_bond_distance
_geom_bond_site_symmetry_2
Ce0 O8 2.313266 1_565
Ce0 O0 2.338843 1_555
Ce0 O6 2.351336 1_555
Ce0 O1 2.400015 1_555
Ce0 O9 2.426793 1_654
Ce0 O10 2.482350 1_554
Ce1 O10 2.313266 1_545
Ce1 O2 2.338843 1_555
Ce1 O4 2.351335 1_555
Ce1 O3 2.400015 1_555
Ce1 O11 2.426793 1_456
Ce1 O8 2.482350 1_556
Mg0 O1 2.047637 1_455
Mg0 O3 2.047637 1_554
Mg0 O11 2.098097 1_455
Mg0 O9 2.098097 1_554
Mg0 O7 2.118936 1_555
Mg0 O5 2.118942 1_454
O0 Ti1 1.942458 1_655
O0 Ti3 1.992054 1_565
O1 Ti0 1.958610 1_555
O1 Ti2 2.113432 1_554
O2 Ti3 1.942458 1_455
O2 Ti1 1.992054 1_545
O3 Ti2 1.958610 1_555
O3 Ti0 2.113432 1_556
O4 Ti0 1.915367 1_555
O4 Ti3 1.949572 1_555
O5 Ti2 1.879684 1_555
O5 Ti1 1.947117 1_655
O6 Ti2 1.915366 1_555
O6 Ti1 1.949573 1_555
O7 Ti0 1.879683 1_555
O7 Ti3 1.947116 1_455
O8 Ti0 2.034857 1_555
O8 Ti3 2.087399 1_455
O9 Ti1 2.048334 1_555
O9 Ti2 2.098525 1_555
O10 Ti2 2.034857 1_555
O10 Ti1 2.087399 1_655
O11 Ti3 2.048334 1_555
O11 Ti0 2.098525 1_555
