# generated using pymatgen
data_InCu(PSe3)2
_symmetry_space_group_name_H-M   'P 1'
_cell_length_a   6.45003374
_cell_length_b   6.45003374
_cell_length_c   13.98891000
_cell_angle_alpha   90.00000000
_cell_angle_beta   90.00000000
_cell_angle_gamma   119.99999734
_symmetry_Int_Tables_number   1
_chemical_formula_structural   InCu(PSe3)2
_chemical_formula_sum   'In2 Cu2 P4 Se12'
_cell_volume   504.00923296
_cell_formula_units_Z   2
loop_
 _symmetry_equiv_pos_site_id
 _symmetry_equiv_pos_as_xyz
  1  'x, y, z'
loop_
 _atom_site_type_symbol
 _atom_site_label
 _atom_site_symmetry_multiplicity
 _atom_site_fract_x
 _atom_site_fract_y
 _atom_site_fract_z
 _atom_site_occupancy
  In  In0  1  0.00000000  0.00000000  0.75000000  1
  In  In1  1  0.00000000  0.00000000  0.25000000  1
  Cu  Cu0  1  0.33333300  0.66666700  0.75000000  1
  Cu  Cu1  1  0.66666700  0.33333300  0.25000000  1
  P  P0  1  0.33333300  0.66666700  0.33105600  1
  P  P1  1  0.33333300  0.66666700  0.16894400  1
  P  P2  1  0.66666700  0.33333300  0.66894400  1
  P  P3  1  0.66666700  0.33333300  0.83105600  1
  Se  Se0  1  0.35010200  0.34314500  0.12732300  1
  Se  Se1  1  0.64989800  0.99304300  0.62732300  1
  Se  Se2  1  0.99304300  0.64989800  0.12732300  1
  Se  Se3  1  0.65685500  0.00695700  0.12732300  1
  Se  Se4  1  0.35010200  0.00695700  0.37267700  1
  Se  Se5  1  0.65685500  0.64989800  0.37267700  1
  Se  Se6  1  0.99304300  0.34314500  0.37267700  1
  Se  Se7  1  0.34314500  0.35010200  0.62732300  1
  Se  Se8  1  0.64989800  0.65685500  0.87267700  1
  Se  Se9  1  0.34314500  0.99304300  0.87267700  1
  Se  Se10  1  0.00695700  0.35010200  0.87267700  1
  Se  Se11  1  0.00695700  0.65685500  0.62732300  1
loop_
_geom_bond_atom_site_label_1
_geom_bond_atom_site_label_2
_geom_bond_distance
_geom_bond_site_symmetry_2
In0 Se9 2.818701 1_545
In0 Se11 2.818701 1_545
In0 Se10 2.818701 1_555
In0 Se1 2.818701 1_445
In0 Se8 2.818701 1_445
In0 Se7 2.818701 1_555
In1 Se6 2.818701 1_455
In1 Se3 2.818701 1_455
In1 Se4 2.818701 1_555
In1 Se2 2.818701 1_445
In1 Se0 2.818701 1_555
In1 Se5 2.818701 1_445
Cu0 Se9 2.692106 1_555
Cu0 Se11 2.692106 1_555
Cu0 Se10 2.692108 1_555
Cu0 Se1 2.692108 1_555
Cu0 Se8 2.692111 1_555
Cu0 Se7 2.692111 1_555
Cu1 Se6 2.692106 1_555
Cu1 Se3 2.692106 1_555
Cu1 Se2 2.692108 1_555
Cu1 Se4 2.692108 1_555
Cu1 Se5 2.692111 1_555
Cu1 Se0 2.692111 1_555
P0 Se4 2.220541 1_565
P0 Se6 2.220544 1_455
P0 Se5 2.220547 1_555
P0 P1 2.267770 1_555
P1 Se2 2.220541 1_455
P1 Se3 2.220544 1_565
P1 Se0 2.220547 1_555
P2 Se1 2.220541 1_545
P2 Se11 2.220544 1_655
P2 Se7 2.220547 1_555
P2 P3 2.267770 1_555
P3 Se10 2.220541 1_655
P3 Se9 2.220544 1_545
P3 Se8 2.220547 1_555
