# generated using pymatgen
data_Zr2Se
_symmetry_space_group_name_H-M   'P 1'
_cell_length_a   3.61959819
_cell_length_b   12.70888338
_cell_length_c   15.87225557
_cell_angle_alpha   90.00000000
_cell_angle_beta   90.00000000
_cell_angle_gamma   90.00000000
_symmetry_Int_Tables_number   1
_chemical_formula_structural   Zr2Se
_chemical_formula_sum   'Zr24 Se12'
_cell_volume   730.14044239
_cell_formula_units_Z   12
loop_
 _symmetry_equiv_pos_site_id
 _symmetry_equiv_pos_as_xyz
  1  'x, y, z'
loop_
 _atom_site_type_symbol
 _atom_site_label
 _atom_site_symmetry_multiplicity
 _atom_site_fract_x
 _atom_site_fract_y
 _atom_site_fract_z
 _atom_site_occupancy
  Zr  Zr0  1  -0.00000000  0.85091483  0.97669504  1
  Zr  Zr1  1  -0.00000000  0.14908517  0.02330496  1
  Zr  Zr2  1  0.50000000  0.35091483  0.52330496  1
  Zr  Zr3  1  0.50000000  0.64908517  0.47669504  1
  Zr  Zr4  1  0.00000000  0.92272185  0.74729757  1
  Zr  Zr5  1  -0.00000000  0.07727815  0.25270243  1
  Zr  Zr6  1  0.50000000  0.42272185  0.75270243  1
  Zr  Zr7  1  0.50000000  0.57727815  0.24729757  1
  Zr  Zr8  1  0.00000000  0.41613821  0.91931806  1
  Zr  Zr9  1  -0.00000000  0.58386179  0.08068194  1
  Zr  Zr10  1  0.50000000  0.91613821  0.58068194  1
  Zr  Zr11  1  0.50000000  0.08386179  0.41931806  1
  Zr  Zr12  1  0.00000000  0.53259727  0.61056615  1
  Zr  Zr13  1  0.00000000  0.46740273  0.38943385  1
  Zr  Zr14  1  0.50000000  0.03259627  0.88943385  1
  Zr  Zr15  1  0.50000000  0.96740273  0.11056615  1
  Zr  Zr16  1  -0.00000000  0.20085318  0.79622440  1
  Zr  Zr17  1  -0.00000000  0.79914682  0.20377560  1
  Zr  Zr18  1  0.50000000  0.70085318  0.70377560  1
  Zr  Zr19  1  0.50000000  0.29914682  0.29622440  1
  Zr  Zr20  1  -0.00000000  0.12262396  0.57632372  1
  Zr  Zr21  1  0.00000000  0.87737604  0.42367628  1
  Zr  Zr22  1  0.50000000  0.62262396  0.92367628  1
  Zr  Zr23  1  0.50000000  0.37737604  0.07632372  1
  Se  Se0  1  -0.00000000  0.57896415  0.79289932  1
  Se  Se1  1  -0.00000000  0.42103585  0.20710068  1
  Se  Se2  1  0.50000000  0.07896415  0.70710068  1
  Se  Se3  1  0.50000000  0.92103585  0.29289932  1
  Se  Se4  1  0.00000000  0.75364287  0.57992789  1
  Se  Se5  1  -0.00000000  0.24635713  0.42007211  1
  Se  Se6  1  0.50000000  0.25364287  0.92007211  1
  Se  Se7  1  0.50000000  0.74635713  0.07992789  1
  Se  Se8  1  0.00000000  0.31728789  0.65082405  1
  Se  Se9  1  0.00000000  0.68271211  0.34917595  1
  Se  Se10  1  0.50000000  0.81728789  0.84917595  1
  Se  Se11  1  0.50000000  0.18271211  0.15082405  1
loop_
_geom_bond_atom_site_label_1
_geom_bond_atom_site_label_2
_geom_bond_distance
_geom_bond_site_symmetry_2
Se0 Zr6 2.761395 1_555
Se0 Zr6 2.761395 1_455
Se0 Zr18 2.770574 1_455
Se0 Zr18 2.770574 1_555
Se0 Zr22 2.809250 1_455
Se0 Zr22 2.809250 1_555
Se0 Zr8 2.882429 1_555
Se0 Zr12 2.953422 1_555
Se1 Zr7 2.761395 1_455
Se1 Zr7 2.761395 1_555
Se1 Zr19 2.770574 1_455
Se1 Zr19 2.770574 1_555
Se1 Zr23 2.809250 1_455
Se1 Zr23 2.809250 1_555
Se1 Zr9 2.882429 1_555
Se1 Zr13 2.953422 1_555
Se2 Zr4 2.761395 1_545
Se2 Zr4 2.761395 1_645
Se2 Zr16 2.770574 1_655
Se2 Zr16 2.770574 1_555
Se2 Zr20 2.809250 1_555
Se2 Zr20 2.809250 1_655
Se2 Zr10 2.882429 1_545
Se2 Zr14 2.953424 1_555
Se3 Zr5 2.761395 1_565
Se3 Zr5 2.761395 1_665
Se3 Zr17 2.770574 1_655
Se3 Zr17 2.770574 1_555
Se3 Zr21 2.809250 1_555
Se3 Zr21 2.809250 1_655
Se3 Zr11 2.882429 1_565
Se3 Zr15 2.953422 1_555
Se4 Zr10 2.745960 1_455
Se4 Zr10 2.745960 1_555
Se4 Zr18 2.754927 1_455
Se4 Zr18 2.754927 1_555
Se4 Zr3 2.779554 1_555
Se4 Zr3 2.779554 1_455
Se4 Zr12 2.851023 1_555
Se4 Zr21 2.936582 1_555
Se5 Zr11 2.745960 1_555
Se5 Zr11 2.745960 1_455
Se5 Zr19 2.754927 1_455
Se5 Zr19 2.754927 1_555
Se5 Zr2 2.779554 1_455
Se5 Zr2 2.779554 1_555
Se5 Zr13 2.851023 1_555
Se5 Zr20 2.936582 1_555
Se6 Zr8 2.745960 1_555
Se6 Zr8 2.745960 1_655
Se6 Zr16 2.754927 1_555
Se6 Zr16 2.754927 1_655
Se6 Zr1 2.779554 1_556
Se6 Zr1 2.779554 1_656
Se6 Zr14 2.851035 1_555
Se6 Zr23 2.936582 1_556
Se7 Zr9 2.745960 1_555
Se7 Zr9 2.745960 1_655
Se7 Zr17 2.754927 1_655
Se7 Zr17 2.754927 1_555
Se7 Zr0 2.779554 1_654
Se7 Zr0 2.779554 1_554
Se7 Zr15 2.851023 1_555
Se7 Zr22 2.936582 1_554
Se8 Zr16 2.741489 1_555
Se8 Zr20 2.742036 1_555
Se8 Zr2 2.748572 1_555
Se8 Zr2 2.748572 1_455
Se8 Zr6 2.772301 1_555
Se8 Zr6 2.772301 1_455
Se8 Zr12 2.809958 1_555
Se9 Zr17 2.741489 1_555
Se9 Zr21 2.742036 1_555
Se9 Zr3 2.748572 1_455
Se9 Zr3 2.748572 1_555
Se9 Zr7 2.772301 1_555
Se9 Zr7 2.772301 1_455
Se9 Zr13 2.809958 1_555
Se10 Zr18 2.741489 1_555
Se10 Zr22 2.742036 1_555
Se10 Zr0 2.748572 1_555
Se10 Zr0 2.748572 1_655
Se10 Zr4 2.772301 1_555
Se10 Zr4 2.772301 1_655
Se10 Zr14 2.809946 1_565
Se11 Zr19 2.741489 1_555
Se11 Zr23 2.742036 1_555
Se11 Zr1 2.748572 1_655
Se11 Zr1 2.748572 1_555
Se11 Zr5 2.772301 1_555
Se11 Zr5 2.772301 1_655
Se11 Zr15 2.809958 1_545
