# generated using pymatgen
data_MgMn2O4
_symmetry_space_group_name_H-M   'P 1'
_cell_length_a   3.06994310
_cell_length_b   10.10489030
_cell_length_c   3.07335199
_cell_angle_alpha   90.00144808
_cell_angle_beta   59.95925268
_cell_angle_gamma   98.80044262
_symmetry_Int_Tables_number   1
_chemical_formula_structural   MgMn2O4
_chemical_formula_sum   'Mg1 Mn2 O4'
_cell_volume   81.23380106
_cell_formula_units_Z   1
loop_
 _symmetry_equiv_pos_site_id
 _symmetry_equiv_pos_as_xyz
  1  'x, y, z'
loop_
 _atom_site_type_symbol
 _atom_site_label
 _atom_site_symmetry_multiplicity
 _atom_site_fract_x
 _atom_site_fract_y
 _atom_site_fract_z
 _atom_site_occupancy
  Mg  Mg0  1  0.16922800  0.25661700  0.91537700  1
  Mn  Mn0  1  0.01052000  0.51638300  0.49476300  1
  Mn  Mn1  1  0.98997100  0.98397700  0.00502300  1
  O  O0  1  0.26948600  0.90368300  0.36526200  1
  O  O1  1  0.39749700  0.59618800  0.80127500  1
  O  O2  1  0.57991900  0.37211800  0.21002300  1
  O  O3  1  0.75004500  0.12728200  0.62494500  1
loop_
_geom_bond_atom_site_label_1
_geom_bond_atom_site_label_2
_geom_bond_distance
_geom_bond_site_symmetry_2
Mg0 O2 2.112098 1_456
Mg0 O2 2.112935 1_555
Mg0 O2 2.112965 1_556
Mg0 O3 2.189856 1_456
Mg0 O3 2.190020 1_455
Mg0 O3 2.191707 1_555
Mn0 O1 1.941330 1_455
Mn0 O1 1.943203 1_554
Mn0 O1 1.943287 1_555
Mn0 O2 2.279165 1_555
Mn0 O2 2.281645 1_456
Mn0 O2 2.281871 1_455
Mn1 O0 1.943043 1_555
Mn1 O0 1.945328 1_654
Mn1 O0 1.945426 1_655
Mn1 O3 2.267878 1_664
Mn1 O3 2.278282 1_565
Mn1 O3 2.278562 1_564
