# generated using pymatgen
data_Ba2HoMgNbO6
_symmetry_space_group_name_H-M   'P 1'
_cell_length_a   6.27453464
_cell_length_b   6.34258080
_cell_length_c   6.34258147
_cell_angle_alpha   56.21269001
_cell_angle_beta   60.35426141
_cell_angle_gamma   60.35426289
_symmetry_Int_Tables_number   1
_chemical_formula_structural   Ba2HoMgNbO6
_chemical_formula_sum   'Ba2 Ho1 Mg1 Nb1 O6'
_cell_volume   173.69544269
_cell_formula_units_Z   1
loop_
 _symmetry_equiv_pos_site_id
 _symmetry_equiv_pos_as_xyz
  1  'x, y, z'
loop_
 _atom_site_type_symbol
 _atom_site_label
 _atom_site_symmetry_multiplicity
 _atom_site_fract_x
 _atom_site_fract_y
 _atom_site_fract_z
 _atom_site_occupancy
  Ba  Ba0  1  0.81118700  0.68881300  0.68881300  1
  Ba  Ba1  1  0.18881300  0.31118700  0.31118700  1
  Ho  Ho0  1  0.50000000  0.50000000  0.50000000  1
  Mg  Mg0  1  0.50000000  0.00000000  0.00000000  1
  Nb  Nb0  1  0.00000000  0.00000000  0.00000000  1
  O  O0  1  0.23428500  0.76571500  0.76571500  1
  O  O1  1  0.26163700  0.76990800  0.23009200  1
  O  O2  1  0.73836300  0.23009200  0.76990800  1
  O  O3  1  0.26163700  0.23009200  0.76990800  1
  O  O4  1  0.76571500  0.23428500  0.23428500  1
  O  O5  1  0.73836300  0.76990800  0.23009200  1
loop_
_geom_bond_atom_site_label_1
_geom_bond_atom_site_label_2
_geom_bond_distance
_geom_bond_site_symmetry_2
Ba0 Mg0 2.882972 1_566
Ba0 O3 2.890785 1_655
Ba0 O2 2.890785 1_555
Ba0 O1 2.890785 1_655
Ba0 O5 2.890785 1_555
Ba0 O4 3.017601 1_565
Ba0 O4 3.017601 1_556
Ba0 O0 3.217147 1_555
Ba0 O0 3.217147 1_655
Ba1 Mg0 2.882972 1_555
Ba1 O5 2.890785 1_455
Ba1 O1 2.890785 1_555
Ba1 O2 2.890785 1_455
Ba1 O3 2.890785 1_555
Ba1 O0 3.017601 1_545
Ba1 O0 3.017601 1_554
Ba1 O4 3.217147 1_555
Ba1 O4 3.217147 1_455
Ho0 O5 2.199689 1_555
Ho0 O3 2.199689 1_555
Ho0 O2 2.199689 1_555
Ho0 O1 2.199689 1_555
Ho0 O0 2.461699 1_555
Ho0 O4 2.461699 1_555
Mg0 O2 2.031660 1_554
Mg0 O1 2.031660 1_545
Mg0 O5 2.031660 1_545
Mg0 O3 2.031660 1_554
Nb0 O3 2.141445 1_554
Nb0 O5 2.141445 1_445
Nb0 O1 2.141445 1_545
Nb0 O2 2.141445 1_454
Nb0 O4 2.170518 1_455
Nb0 O0 2.170518 1_544
