# generated using pymatgen
data_Rb2SbBr6
_symmetry_space_group_name_H-M   'P 1'
_cell_length_a   13.22538649
_cell_length_b   13.22521007
_cell_length_c   13.22529740
_cell_angle_alpha   132.05816808
_cell_angle_beta   132.05476287
_cell_angle_gamma   70.12852712
_symmetry_Int_Tables_number   1
_chemical_formula_structural   Rb2SbBr6
_chemical_formula_sum   'Rb8 Sb4 Br24'
_cell_volume   1250.15555228
_cell_formula_units_Z   4
loop_
 _symmetry_equiv_pos_site_id
 _symmetry_equiv_pos_as_xyz
  1  'x, y, z'
loop_
 _atom_site_type_symbol
 _atom_site_label
 _atom_site_symmetry_multiplicity
 _atom_site_fract_x
 _atom_site_fract_y
 _atom_site_fract_z
 _atom_site_occupancy
  Rb  Rb0  1  0.37322651  0.37514392  0.49906057  1
  Rb  Rb1  1  0.12599300  0.62685559  0.00196338  1
  Rb  Rb2  1  0.87617282  0.87406272  0.50102739  1
  Rb  Rb3  1  0.12530258  0.12604765  0.50206418  1
  Rb  Rb4  1  0.37682650  0.87490509  0.00096055  1
  Rb  Rb5  1  0.62404223  0.62291044  0.49792399  1
  Rb  Rb6  1  0.62484089  0.12400290  -0.00191722  1
  Rb  Rb7  1  0.87393729  0.37598209  0.99908944  1
  Sb  Sb0  1  0.25011312  0.74987679  0.49996918  1
  Sb  Sb1  1  0.49998713  0.50036994  0.00013947  1
  Sb  Sb2  1  0.75008959  0.24983765  0.49982722  1
  Sb  Sb3  1  -0.00021412  -0.00005134  0.00007047  1
  Br  Br0  1  0.00067123  0.76520027  0.26560006  1
  Br  Br1  1  0.01381242  0.24928627  0.26396050  1
  Br  Br2  1  0.26496277  0.99934280  0.76450379  1
  Br  Br3  1  -0.00079022  0.23513110  0.73482626  1
  Br  Br4  1  0.12589801  0.62583366  0.50007847  1
  Br  Br5  1  0.25016682  0.51530758  0.76559446  1
  Br  Br6  1  0.49970394  0.73459088  0.73425051  1
  Br  Br7  1  0.50046766  0.26413059  0.26481305  1
  Br  Br8  1  0.48519526  0.25084859  0.73550897  1
  Br  Br9  1  0.62444898  0.62478006  0.00060065  1
  Br  Br10  1  0.51469376  0.74991849  0.26454040  1
  Br  Br11  1  0.12398272  0.12395427  -0.00010943  1
  Br  Br12  1  0.87584325  0.87591715  0.00008044  1
  Br  Br13  1  0.98522187  0.75006774  0.73611779  1
  Br  Br14  1  0.75063405  0.01463056  0.76491071  1
  Br  Br15  1  0.24958651  0.98581223  0.23516015  1
  Br  Br16  1  0.74944024  0.48485376  0.23449692  1
  Br  Br17  1  0.23495546  0.50030954  0.23528743  1
  Br  Br18  1  0.37415692  0.87422273  0.50000833  1
  Br  Br19  1  0.87405702  0.37420154  0.50009053  1
  Br  Br20  1  0.37593121  0.37571540  -0.00007015  1
  Br  Br21  1  0.62592135  0.12578320  0.49985330  1
  Br  Br22  1  0.76459808  0.49959892  0.76378382  1
  Br  Br23  1  0.73612516  0.00062322  0.23593544  1
loop_
_geom_bond_atom_site_label_1
_geom_bond_atom_site_label_2
_geom_bond_distance
_geom_bond_site_symmetry_2
Br0 Sb0 2.687001 1_555
Br0 Rb3 3.703816 1_565
Br0 Rb2 3.705278 1_455
Br0 Rb7 3.920769 1_454
Br0 Rb1 3.922375 1_555
Br1 Sb3 2.686679 1_555
Br1 Rb0 3.698360 1_555
Br1 Rb3 3.710635 1_555
Br1 Rb6 3.915218 1_455
Br1 Rb7 3.946634 1_454
Br2 Sb0 2.686829 1_555
Br2 Rb4 3.703840 1_556
Br2 Rb6 3.705117 1_566
Br2 Rb3 3.919939 1_565
Br2 Rb2 3.921693 1_455
Br3 Sb2 2.684853 1_455
Br3 Rb3 3.691928 1_555
Br3 Rb2 3.710947 1_445
Br3 Rb7 3.920001 1_455
Br3 Rb1 3.947122 1_556
Br4 Sb0 2.688583 1_555
Br4 Rb2 3.783489 1_455
Br4 Rb0 3.783968 1_555
Br4 Rb4 3.806744 1_556
Br4 Rb7 3.807567 1_454
Br5 Sb1 2.687847 1_556
Br5 Rb1 3.701009 1_556
Br5 Rb4 3.702631 1_556
Br5 Rb0 3.923121 1_555
Br5 Rb3 3.925154 1_555
Br6 Sb0 2.687191 1_555
Br6 Rb0 3.700856 1_555
Br6 Rb5 3.701863 1_555
Br6 Rb4 3.922523 1_556
Br6 Rb6 3.926776 1_566
Br7 Sb2 2.685426 1_555
Br7 Rb5 3.689599 1_555
Br7 Rb0 3.714265 1_555
Br7 Rb4 3.919250 1_545
Br7 Rb6 3.940365 1_555
Br8 Sb1 2.687945 1_556
Br8 Rb0 3.701658 1_555
Br8 Rb3 3.706466 1_555
Br8 Rb7 3.920245 1_555
Br8 Rb6 3.923113 1_556
Br9 Sb1 2.689054 1_555
Br9 Rb4 3.781890 1_555
Br9 Rb7 3.786004 1_554
Br9 Rb2 3.803299 1_555
Br9 Rb0 3.811733 1_554
Br10 Sb1 2.687206 1_555
Br10 Rb5 3.708701 1_555
Br10 Rb2 3.709149 1_555
Br10 Rb1 3.915984 1_555
Br10 Rb4 3.919755 1_555
Br11 Sb3 2.688743 1_555
Br11 Rb2 3.791413 1_444
Br11 Rb0 3.793750 1_555
Br11 Rb4 3.813439 1_545
Br11 Rb7 3.814809 1_454
Br12 Sb3 2.684432 1_665
Br12 Rb6 3.792049 1_565
Br12 Rb1 3.792978 1_655
Br12 Rb3 3.815165 1_665
Br12 Rb5 3.816516 1_554
Br13 Sb3 2.687065 1_666
Br13 Rb2 3.694830 1_555
Br13 Rb5 3.711250 1_555
Br13 Rb1 3.914979 1_656
Br13 Rb4 3.947188 1_656
Br14 Sb3 2.685709 1_656
Br14 Rb6 3.691967 1_556
Br14 Rb7 3.713734 1_555
Br14 Rb2 3.919718 1_545
Br14 Rb5 3.946921 1_545
Br15 Sb3 2.685939 1_565
Br15 Rb1 3.691363 1_555
Br15 Rb4 3.714144 1_555
Br15 Rb0 3.920281 1_565
Br15 Rb3 3.940942 1_565
Br16 Sb1 2.688104 1_555
Br16 Rb6 3.703931 1_555
Br16 Rb7 3.704992 1_554
Br16 Rb2 3.920590 1_555
Br16 Rb5 3.921898 1_555
Br17 Sb0 2.686623 1_555
Br17 Rb1 3.704293 1_555
Br17 Rb7 3.705797 1_454
Br17 Rb5 3.918530 1_555
Br17 Rb0 3.922528 1_555
Br18 Sb0 2.688400 1_555
Br18 Rb1 3.785242 1_555
Br18 Rb6 3.785469 1_566
Br18 Rb3 3.804137 1_565
Br18 Rb5 3.808071 1_555
Br19 Sb2 2.685343 1_555
Br19 Rb5 3.789284 1_555
Br19 Rb3 3.794420 1_655
Br19 Rb1 3.814359 1_656
Br19 Rb6 3.815366 1_555
Br20 Sb1 2.690030 1_555
Br20 Rb3 3.783886 1_554
Br20 Rb5 3.784872 1_555
Br20 Rb6 3.803699 1_555
Br20 Rb1 3.807167 1_555
Br21 Sb2 2.687297 1_555
Br21 Rb4 3.791632 1_545
Br21 Rb7 3.794247 1_555
Br21 Rb2 3.814033 1_545
Br21 Rb0 3.814656 1_555
Br22 Sb2 2.686760 1_555
Br22 Rb7 3.691710 1_555
Br22 Rb1 3.714218 1_656
Br22 Rb5 3.917028 1_555
Br22 Rb0 3.943605 1_555
Br23 Sb2 2.686385 1_555
Br23 Rb4 3.696959 1_545
Br23 Rb6 3.710226 1_555
Br23 Rb3 3.917168 1_655
Br23 Rb2 3.946986 1_545
