# generated using pymatgen
data_UGa3Pd2
_symmetry_space_group_name_H-M   'P 1'
_cell_length_a   5.33552732
_cell_length_b   5.33552732
_cell_length_c   4.30772700
_cell_angle_alpha   90.00000000
_cell_angle_beta   90.00000000
_cell_angle_gamma   119.99999151
_symmetry_Int_Tables_number   1
_chemical_formula_structural   UGa3Pd2
_chemical_formula_sum   'U1 Ga3 Pd2'
_cell_volume   106.20220564
_cell_formula_units_Z   1
loop_
 _symmetry_equiv_pos_site_id
 _symmetry_equiv_pos_as_xyz
  1  'x, y, z'
loop_
 _atom_site_type_symbol
 _atom_site_label
 _atom_site_symmetry_multiplicity
 _atom_site_fract_x
 _atom_site_fract_y
 _atom_site_fract_z
 _atom_site_occupancy
  U  U0  1  0.00000000  0.00000000  0.00000000  1
  Ga  Ga0  1  0.50000000  0.00000000  0.50000000  1
  Ga  Ga1  1  0.50000000  0.50000000  0.50000000  1
  Ga  Ga2  1  0.00000000  0.50000000  0.50000000  1
  Pd  Pd0  1  0.33333300  0.66666700  0.00000000  1
  Pd  Pd1  1  0.66666700  0.33333300  0.00000000  1
loop_
_geom_bond_atom_site_label_1
_geom_bond_atom_site_label_2
_geom_bond_distance
_geom_bond_site_symmetry_2
Ga0 Pd1 2.647913 1_555
Ga0 Pd0 2.647913 1_545
Ga0 Pd1 2.647913 1_556
Ga0 Pd0 2.647913 1_546
Ga1 Pd0 2.647916 1_556
Ga1 Pd1 2.647916 1_555
Ga1 Pd0 2.647916 1_555
Ga1 Pd1 2.647916 1_556
Ga2 Pd1 2.647913 1_455
Ga2 Pd0 2.647913 1_555
Ga2 Pd1 2.647913 1_456
Ga2 Pd0 2.647913 1_556
Pd0 U0 3.080465 1_565
Pd0 U0 3.080470 1_665
Pd0 U0 3.080470 1_555
Pd1 U0 3.080465 1_655
Pd1 U0 3.080470 1_555
Pd1 U0 3.080470 1_665
