# generated using pymatgen
data_Na14Zr4In4Si9(SO16)3
_symmetry_space_group_name_H-M   'P 1'
_cell_length_a   18.55456552
_cell_length_b   9.28747588
_cell_length_c   22.76713523
_cell_angle_alpha   90.07626785
_cell_angle_beta   90.13954622
_cell_angle_gamma   120.02098638
_symmetry_Int_Tables_number   1
_chemical_formula_structural   Na14Zr4In4Si9(SO16)3
_chemical_formula_sum   'Na42 Zr12 In12 Si27 S9 O144'
_cell_volume   3396.97582215
_cell_formula_units_Z   3
loop_
 _symmetry_equiv_pos_site_id
 _symmetry_equiv_pos_as_xyz
  1  'x, y, z'
loop_
 _atom_site_type_symbol
 _atom_site_label
 _atom_site_symmetry_multiplicity
 _atom_site_fract_x
 _atom_site_fract_y
 _atom_site_fract_z
 _atom_site_occupancy
  Na  Na0  1  0.82020355  0.00981823  0.25764246  1
  Na  Na1  1  0.17377667  0.35231645  0.25488209  1
  Na  Na2  1  0.69313952  0.37194730  0.25530924  1
  Na  Na3  1  0.99517052  0.62769877  0.24564417  1
  Na  Na4  1  0.50196437  0.64647964  0.25097040  1
  Na  Na5  1  0.31872080  0.62953660  0.75382393  1
  Na  Na6  1  0.99970795  0.35351553  0.74277064  1
  Na  Na7  1  0.49696358  0.36475390  0.74206580  1
  Na  Na8  1  0.19158763  0.01426405  0.75026284  1
  Na  Na9  1  0.67974891  0.00035912  0.74913158  1
  Na  Na10  1  0.14665293  0.32030396  0.58096282  1
  Na  Na11  1  0.65152549  0.32958013  0.58151674  1
  Na  Na12  1  0.33517269  0.98951459  0.58750266  1
  Na  Na13  1  0.83339317  0.97200288  0.58190130  1
  Na  Na14  1  0.14366338  0.96934442  0.07967010  1
  Na  Na15  1  0.65055325  0.97597705  0.07790683  1
  Na  Na16  1  0.33356188  0.68462075  0.08126118  1
  Na  Na17  1  0.83533264  0.68222584  0.08779572  1
  Na  Na18  1  0.48033734  0.67767424  0.91383881  1
  Na  Na19  1  0.98014460  0.67619209  0.92347984  1
  Na  Na20  1  0.34628817  0.02535726  0.90546173  1
  Na  Na21  1  0.84490202  0.02305843  0.90822148  1
  Na  Na22  1  0.17362617  0.29821229  0.90839853  1
  Na  Na23  1  0.66914593  0.29084733  0.90987090  1
  Na  Na24  1  0.48347375  0.28931437  0.42790113  1
  Na  Na25  1  0.97846774  0.28144333  0.41958091  1
  Na  Na26  1  0.16790153  0.04682393  0.41433024  1
  Na  Na27  1  0.67602313  0.05221620  0.41572121  1
  Na  Na28  1  0.34595203  0.66784127  0.41300834  1
  Na  Na29  1  0.84633679  0.66489252  0.41869071  1
  Na  Na30  1  0.99744830  0.99455960  0.50025072  1
  Na  Na31  1  0.50730743  0.01568193  0.50203807  1
  Na  Na32  1  0.00417656  0.99613933  0.00023120  1
  Na  Na33  1  0.50475180  0.99993358  0.99520970  1
  Na  Na34  1  0.32987973  0.33714071  0.82651941  1
  Na  Na35  1  0.82241049  0.33032988  0.83043620  1
  Na  Na36  1  0.32253228  0.31067627  0.33663554  1
  Na  Na37  1  0.82887244  0.32306897  0.33220994  1
  Na  Na38  1  0.15435428  0.64826756  0.16870247  1
  Na  Na39  1  0.66456724  0.65722181  0.16999092  1
  Na  Na40  1  0.16243693  0.66970229  0.66835935  1
  Na  Na41  1  0.66167305  0.66221039  0.66419140  1
  Zr  Zr0  1  0.99754477  0.00436990  0.64580242  1
  Zr  Zr1  1  0.50465319  0.00688686  0.65241995  1
  Zr  Zr2  1  0.00370460  0.00251455  0.15249034  1
  Zr  Zr3  1  0.50283517  0.99075765  0.14873206  1
  Zr  Zr4  1  0.82874848  0.32674857  0.68086511  1
  Zr  Zr5  1  0.33041562  0.34276557  0.18500195  1
  Zr  Zr6  1  0.16507746  0.66664700  0.01866570  1
  Zr  Zr7  1  0.66640863  0.66572323  0.01898318  1
  Zr  Zr8  1  0.16537956  0.66643999  0.51910357  1
  Zr  Zr9  1  0.67019849  0.66185656  0.52138888  1
  Zr  Zr10  1  0.17506745  0.67251173  0.31057629  1
  Zr  Zr11  1  0.67585321  0.67962710  0.80937755  1
  In  In0  1  0.99980623  0.01191101  0.34860862  1
  In  In1  1  0.50128360  0.00340804  0.35071646  1
  In  In2  1  0.00105344  0.99809918  0.84894164  1
  In  In3  1  0.49994522  0.98805767  0.84708709  1
  In  In4  1  0.33477997  0.32498521  0.68472952  1
  In  In5  1  0.83496380  0.34518880  0.18504584  1
  In  In6  1  0.32795762  0.33975346  0.98325821  1
  In  In7  1  0.82604933  0.34021967  0.98462934  1
  In  In8  1  0.32700992  0.31375724  0.48469485  1
  In  In9  1  0.82867440  0.32765539  0.48681945  1
  In  In10  1  0.67853435  0.68177220  0.31760703  1
  In  In11  1  0.17649505  0.67473064  0.81509862  1
  Si  Si0  1  0.14985398  0.00072085  0.25219499  1
  Si  Si1  1  0.64888734  0.99525980  0.25245679  1
  Si  Si2  1  0.35469147  0.70755082  0.25050965  1
  Si  Si3  1  0.85243915  0.70602038  0.25121386  1
  Si  Si4  1  0.99810767  0.29807116  0.25197728  1
  Si  Si5  1  0.14723378  0.29854954  0.75177891  1
  Si  Si6  1  0.65028684  0.29827898  0.75366017  1
  Si  Si7  1  0.49802691  0.69844618  0.75247901  1
  Si  Si8  1  0.35199249  0.99931174  0.75159925  1
  Si  Si9  1  0.85547585  0.01024692  0.75203699  1
  Si  Si10  1  0.48134136  0.33129974  0.58289048  1
  Si  Si11  1  0.98295960  0.34032012  0.58342150  1
  Si  Si12  1  0.18335888  0.03327247  0.58421104  1
  Si  Si13  1  0.68006390  0.02926630  0.58121197  1
  Si  Si14  1  0.83675055  0.62927951  0.57948799  1
  Si  Si15  1  0.48278582  0.62625914  0.08307848  1
  Si  Si16  1  0.98228827  0.63152087  0.08284322  1
  Si  Si17  1  0.18070868  0.33157178  0.08175177  1
  Si  Si18  1  0.68169451  0.33201983  0.08438478  1
  Si  Si19  1  0.31751318  0.66984417  0.91789521  1
  Si  Si20  1  0.81548153  0.66895090  0.91736956  1
  Si  Si21  1  0.16782174  0.96470322  0.91530871  1
  Si  Si22  1  0.66825580  0.96572967  0.91773248  1
  Si  Si23  1  0.31544030  0.96221340  0.41728559  1
  Si  Si24  1  0.81781418  0.97048324  0.41757765  1
  Si  Si25  1  0.16827907  0.37066575  0.41701148  1
  Si  Si26  1  0.66661123  0.36893173  0.41327386  1
  S  S0  1  0.49756746  0.29304714  0.24970789  1
  S  S1  1  0.99840167  0.70127363  0.75123439  1
  S  S2  1  0.33378919  0.63072695  0.58180978  1
  S  S3  1  0.33440475  0.04140608  0.08183391  1
  S  S4  1  0.83416349  0.03768148  0.08170727  1
  S  S5  1  0.01916780  0.37404525  0.91641506  1
  S  S6  1  0.52047719  0.37496815  0.91645630  1
  S  S7  1  0.02209663  0.66708332  0.41445729  1
  S  S8  1  0.51929994  0.66360871  0.41594677  1
  O  O0  1  0.11385006  0.04623978  0.31029819  1
  O  O1  1  0.60931428  0.03578718  0.30977838  1
  O  O2  1  0.41147905  0.78363987  0.30921513  1
  O  O3  1  0.90899021  0.78958836  0.30995153  1
  O  O4  1  0.48597555  0.20378612  0.30577650  1
  O  O5  1  0.98112062  0.19620107  0.31325888  1
  O  O6  1  0.11118452  0.18631129  0.81199603  1
  O  O7  1  0.61225234  0.18523091  0.81277609  1
  O  O8  1  0.47984856  0.76287059  0.81463105  1
  O  O9  1  0.98764933  0.76723551  0.80823730  1
  O  O10  1  0.40581575  0.02477702  0.81193989  1
  O  O11  1  0.90923595  0.03936842  0.81249397  1
  O  O12  1  0.39958724  0.97746852  0.69404009  1
  O  O13  1  0.90086175  0.98540527  0.69508936  1
  O  O14  1  0.08635477  0.19769812  0.69594079  1
  O  O15  1  0.59053721  0.20727129  0.69570498  1
  O  O16  1  0.00758657  0.81227423  0.70224460  1
  O  O17  1  0.51578593  0.83450437  0.70043295  1
  O  O18  1  0.39804168  0.81801890  0.19173695  1
  O  O19  1  0.89880448  0.82048353  0.19235631  1
  O  O20  1  0.01646113  0.19932593  0.19894672  1
  O  O21  1  0.50590704  0.19939567  0.19992374  1
  O  O22  1  0.09131297  0.97422611  0.19353132  1
  O  O23  1  0.58742149  0.97129728  0.19473679  1
  O  O24  1  0.44196228  0.35969550  0.64207163  1
  O  O25  1  0.93761604  0.35832135  0.64257461  1
  O  O26  1  0.24443601  0.11331425  0.64096887  1
  O  O27  1  0.74229922  0.12274459  0.63858911  1
  O  O28  1  0.32097102  0.52816041  0.63417573  1
  O  O29  1  0.82048694  0.49987019  0.63345832  1
  O  O30  1  0.43611355  0.51388542  0.14123682  1
  O  O31  1  0.94294098  0.52459266  0.14184214  1
  O  O32  1  0.32453723  0.12984849  0.13265744  1
  O  O33  1  0.82132974  0.11429456  0.13421377  1
  O  O34  1  0.24435194  0.36012227  0.13810133  1
  O  O35  1  0.74169584  0.36883263  0.14117388  1
  O  O36  1  0.21776194  0.28713258  0.02401621  1
  O  O37  1  0.71450998  0.27897972  0.02571925  1
  O  O38  1  0.42657945  0.54464175  0.02449122  1
  O  O39  1  0.92697032  0.54787099  0.02285792  1
  O  O40  1  0.34615142  0.13374639  0.02664624  1
  O  O41  1  0.84429928  0.13287995  0.02752698  1
  O  O42  1  0.21635569  0.14947808  0.52496983  1
  O  O43  1  0.71596415  0.14437244  0.52282667  1
  O  O44  1  0.34438730  0.55609847  0.52736053  1
  O  O45  1  0.85127261  0.56012299  0.51743479  1
  O  O46  1  0.42473915  0.29938716  0.52311576  1
  O  O47  1  0.92777440  0.30711604  0.52432532  1
  O  O48  1  0.26637322  0.68497922  0.97556575  1
  O  O49  1  0.76928579  0.68872558  0.97662721  1
  O  O50  1  0.07346288  0.46608758  0.96778861  1
  O  O51  1  0.57335652  0.46536113  0.96878405  1
  O  O52  1  0.15574231  0.84441238  0.97283286  1
  O  O53  1  0.65697877  0.84885361  0.97590441  1
  O  O54  1  0.26881041  0.84923012  0.47575223  1
  O  O55  1  0.76483727  0.84605498  0.47241899  1
  O  O56  1  0.15744882  0.46740369  0.47433451  1
  O  O57  1  0.65350685  0.46538854  0.46961178  1
  O  O58  1  0.07411418  0.68217653  0.46702771  1
  O  O59  1  0.57321196  0.67965994  0.46636836  1
  O  O60  1  0.06337689  0.65126292  0.36115079  1
  O  O61  1  0.55411622  0.64048935  0.36014418  1
  O  O62  1  0.25318276  0.86290420  0.36201624  1
  O  O63  1  0.76146548  0.90208849  0.35721779  1
  O  O64  1  0.17758446  0.48495266  0.35889630  1
  O  O65  1  0.67377867  0.47141940  0.35264626  1
  O  O66  1  0.05495608  0.47012409  0.86208200  1
  O  O67  1  0.55900780  0.47410299  0.86307354  1
  O  O68  1  0.17780905  0.87742841  0.85597256  1
  O  O69  1  0.67726071  0.86765065  0.86061196  1
  O  O70  1  0.25844302  0.62634889  0.85981028  1
  O  O71  1  0.75205930  0.64238430  0.86312862  1
  O  O72  1  0.01649329  0.82062200  0.41414994  1
  O  O73  1  0.51319744  0.81799704  0.41556391  1
  O  O74  1  0.40639143  0.97225692  0.41364364  1
  O  O75  1  0.90684307  0.97067100  0.41734248  1
  O  O76  1  0.08620377  0.18385288  0.41638082  1
  O  O77  1  0.58140517  0.18226418  0.41471105  1
  O  O78  1  0.01495718  0.20985867  0.91651999  1
  O  O79  1  0.51553161  0.21088434  0.91582272  1
  O  O80  1  0.08345127  0.98245063  0.91548230  1
  O  O81  1  0.58569077  0.98714276  0.91679782  1
  O  O82  1  0.40673020  0.84598541  0.91803157  1
  O  O83  1  0.90707455  0.83986637  0.91397485  1
  O  O84  1  0.48776729  0.15837658  0.58723145  1
  O  O85  1  0.99225080  0.17096150  0.58869292  1
  O  O86  1  0.09160538  0.01393231  0.59343106  1
  O  O87  1  0.58919464  0.01548490  0.58992383  1
  O  O88  1  0.40585075  0.80228105  0.58725403  1
  O  O89  1  0.91248551  0.81928102  0.58962076  1
  O  O90  1  0.48797601  0.81211975  0.08804785  1
  O  O91  1  0.98942362  0.81800186  0.08607708  1
  O  O92  1  0.40556928  0.01219049  0.08925997  1
  O  O93  1  0.90617255  0.00961660  0.08679898  1
  O  O94  1  0.08957283  0.16596500  0.08951980  1
  O  O95  1  0.58776712  0.16815161  0.09255484  1
  O  O96  1  0.34222250  0.16493714  0.75053642  1
  O  O97  1  0.84662566  0.17806937  0.74668318  1
  O  O98  1  0.24142654  0.32840527  0.74421669  1
  O  O99  1  0.74142736  0.31212869  0.74485862  1
  O  O100  1  0.41491694  0.51787497  0.74372736  1
  O  O101  1  0.92537364  0.53148066  0.74468065  1
  O  O102  1  0.34695307  0.52039049  0.24475681  1
  O  O103  1  0.84190485  0.52014635  0.24953703  1
  O  O104  1  0.42378539  0.31504225  0.24233004  1
  O  O105  1  0.91504176  0.31234025  0.24330250  1
  O  O106  1  0.24270227  0.16667274  0.24145181  1
  O  O107  1  0.74166274  0.15386075  0.24354545  1
  O  O108  1  0.33082454  0.50740574  0.91966134  1
  O  O109  1  0.82537137  0.50242400  0.91722835  1
  O  O110  1  0.43624122  0.35381042  0.92202367  1
  O  O111  1  0.93477611  0.35130230  0.92312559  1
  O  O112  1  0.25521921  0.14527079  0.92028211  1
  O  O113  1  0.75661612  0.14577478  0.92029370  1
  O  O114  1  0.32520105  0.14822246  0.41673736  1
  O  O115  1  0.83098862  0.15887098  0.42187097  1
  O  O116  1  0.25694200  0.36800980  0.41960665  1
  O  O117  1  0.75206357  0.35779279  0.41657255  1
  O  O118  1  0.43440268  0.51642604  0.42154954  1
  O  O119  1  0.93907449  0.51675843  0.41765531  1
  O  O120  1  0.18093423  0.50871698  0.07838255  1
  O  O121  1  0.67824920  0.50520076  0.07657784  1
  O  O122  1  0.07968906  0.66830603  0.07756616  1
  O  O123  1  0.57944620  0.66550915  0.08024052  1
  O  O124  1  0.25612351  0.87436892  0.07963179  1
  O  O125  1  0.75654678  0.86739280  0.07806471  1
  O  O126  1  0.17940287  0.85255085  0.57606700  1
  O  O127  1  0.67760200  0.85109568  0.57729610  1
  O  O128  1  0.25625607  0.64524829  0.57790937  1
  O  O129  1  0.75017434  0.64134294  0.57825194  1
  O  O130  1  0.07966527  0.49803296  0.58004912  1
  O  O131  1  0.57687185  0.48776028  0.57642713  1
  O  O132  1  0.15095982  0.82623310  0.25586622  1
  O  O133  1  0.64659915  0.81540554  0.25389699  1
  O  O134  1  0.25894829  0.67175091  0.25260971  1
  O  O135  1  0.75975489  0.69085059  0.24926168  1
  O  O136  1  0.08224428  0.48376707  0.25487934  1
  O  O137  1  0.57357433  0.46051327  0.25041031  1
  O  O138  1  0.14631349  0.47619771  0.75386795  1
  O  O139  1  0.65121590  0.47525671  0.75740668  1
  O  O140  1  0.07544651  0.68756120  0.75226082  1
  O  O141  1  0.58207844  0.68070479  0.75587058  1
  O  O142  1  0.25910198  0.82966975  0.74876814  1
  O  O143  1  0.75992552  0.84881457  0.75372488  1
loop_
_geom_bond_atom_site_label_1
_geom_bond_atom_site_label_2
_geom_bond_distance
_geom_bond_site_symmetry_2
Na0 O107 2.442548 1_555
Na0 O105 2.480983 1_555
Na0 O63 2.501060 1_545
Na0 O135 2.596718 1_545
Na0 O133 2.796738 1_545
Na0 O5 2.884186 1_555
Na0 O33 2.970855 1_555
Na1 O136 2.539599 1_555
Na1 O134 2.571200 1_555
Na1 O106 2.628436 1_555
Na1 O64 2.652304 1_555
Na1 O0 2.786134 1_555
Na1 O102 2.792877 1_555
Na1 O20 2.826266 1_555
Na1 O34 2.951530 1_555
Na2 O103 2.394048 1_555
Na2 O65 2.494811 1_555
Na2 O135 2.580260 1_555
Na2 O107 2.609471 1_555
Na2 O137 2.726849 1_555
Na2 O35 2.757209 1_555
Na2 O1 2.977424 1_555
Na3 O103 2.500350 1_555
Na3 O105 2.536444 1_555
Na3 O132 2.543996 1_655
Na3 O31 2.548614 1_555
Na3 O136 2.569341 1_655
Na3 O60 2.875798 1_655
Na4 O133 2.335296 1_555
Na4 O102 2.508189 1_555
Na4 O137 2.654242 1_555
Na4 O104 2.673437 1_555
Na4 O61 2.675827 1_555
Na4 O30 2.778907 1_555
Na4 O2 2.889012 1_555
Na4 O23 2.913372 1_555
Na5 O98 2.431004 1_555
Na5 O100 2.483478 1_555
Na5 O142 2.597922 1_555
Na5 O70 2.656042 1_555
Na5 O138 2.775392 1_555
Na5 O28 2.888202 1_555
Na5 O8 2.942587 1_555
Na6 O138 2.378252 1_655
Na6 O97 2.470062 1_555
Na6 O25 2.563589 1_555
Na6 O101 2.630080 1_555
Na6 O140 2.698297 1_655
Na6 O14 2.854463 1_655
Na6 O66 2.910352 1_655
Na6 O11 2.995800 1_555
Na7 O24 2.483329 1_555
Na7 O96 2.529167 1_555
Na7 O139 2.534121 1_555
Na7 O100 2.551036 1_555
Na7 O141 2.561542 1_555
Na7 O67 2.958701 1_555
Na7 O15 2.968776 1_555
Na8 O96 2.419984 1_555
Na8 O142 2.580445 1_545
Na8 O98 2.586182 1_555
Na8 O26 2.667365 1_555
Na8 O68 2.675577 1_545
Na8 O140 2.703806 1_545
Na9 O143 2.509929 1_545
Na9 O99 2.527617 1_555
Na9 O141 2.596233 1_545
Na9 O97 2.683625 1_555
Na9 O27 2.770330 1_555
Na9 O69 2.813380 1_545
Na9 O17 2.854333 1_545
Na9 O7 2.961417 1_555
Na10 O85 2.487812 1_455
Na10 O86 2.513100 1_555
Na10 O130 2.514531 1_555
Na10 O128 2.666144 1_555
Na10 O56 2.745413 1_555
Na10 O42 2.805476 1_555
Na10 O14 2.854510 1_555
Na11 O131 2.475127 1_555
Na11 O129 2.537264 1_555
Na11 O87 2.551593 1_555
Na11 O84 2.635440 1_555
Na11 O57 2.836537 1_555
Na11 O15 2.839979 1_555
Na11 O43 2.869381 1_555
Na11 O29 2.956969 1_555
Na12 O84 2.456204 1_565
Na12 O126 2.521107 1_555
Na12 O88 2.650577 1_555
Na12 O12 2.728495 1_555
Na12 O26 2.753442 1_565
Na12 O128 2.779702 1_555
Na12 O54 2.838563 1_555
Na12 O46 2.903533 1_565
Na13 O89 2.505721 1_555
Na13 O127 2.525455 1_555
Na13 O85 2.583285 1_565
Na13 O129 2.660062 1_555
Na13 O55 2.772597 1_555
Na13 O13 2.837410 1_555
Na13 O27 2.975929 1_565
Na13 O47 3.006658 1_565
Na14 O122 2.430387 1_555
Na14 O91 2.482860 1_455
Na14 O94 2.495221 1_565
Na14 O124 2.640823 1_555
Na14 O52 2.751063 1_554
Na14 O22 2.778770 1_555
Na14 O36 2.857415 1_565
Na15 O123 2.500381 1_555
Na15 O95 2.595154 1_565
Na15 O125 2.620947 1_555
Na15 O90 2.622897 1_555
Na15 O53 2.633658 1_554
Na15 O37 2.722763 1_565
Na15 O23 2.900611 1_555
Na16 O120 2.462213 1_555
Na16 O90 2.497464 1_555
Na16 O92 2.646480 1_565
Na16 O48 2.708210 1_554
Na16 O124 2.775813 1_555
Na16 O18 2.790427 1_555
Na16 O34 2.920007 1_555
Na16 O38 2.931036 1_555
Na17 O91 2.481758 1_555
Na17 O121 2.542357 1_555
Na17 O93 2.640985 1_565
Na17 O19 2.677273 1_555
Na17 O125 2.767406 1_555
Na17 O35 2.815452 1_555
Na17 O49 2.823233 1_554
Na17 O39 2.960440 1_555
Na18 O8 2.395753 1_555
Na18 O108 2.413876 1_555
Na18 O82 2.540559 1_555
Na18 O81 2.542345 1_555
Na18 O110 2.700213 1_555
Na18 O38 2.766836 1_556
Na19 O109 2.496319 1_555
Na19 O83 2.501490 1_555
Na19 O80 2.518979 1_655
Na19 O39 2.520791 1_556
Na19 O111 2.696605 1_555
Na19 O9 2.740121 1_555
Na20 O10 2.402279 1_555
Na20 O82 2.446229 1_545
Na20 O112 2.468650 1_555
Na20 O110 2.670705 1_555
Na20 O79 2.732534 1_555
Na20 O68 2.934358 1_545
Na20 O40 2.936117 1_556
Na21 O113 2.434634 1_555
Na21 O11 2.455691 1_555
Na21 O83 2.491275 1_545
Na21 O111 2.664060 1_555
Na21 O78 2.742282 1_655
Na21 O69 2.901803 1_545
Na21 O41 2.902176 1_556
Na22 O6 2.452810 1_555
Na22 O80 2.553133 1_545
Na22 O112 2.556100 1_555
Na22 O108 2.583117 1_555
Na22 O78 2.638292 1_555
Na22 O36 2.772125 1_556
Na22 O70 2.864671 1_555
Na23 O7 2.431027 1_555
Na23 O81 2.451653 1_545
Na23 O79 2.564735 1_555
Na23 O109 2.566893 1_555
Na23 O113 2.587046 1_555
Na23 O37 2.785679 1_556
Na24 O46 2.451243 1_555
Na24 O77 2.487975 1_555
Na24 O114 2.559425 1_555
Na24 O74 2.569619 1_545
Na24 O118 2.687176 1_555
Na24 O57 2.889316 1_555
Na24 O4 2.897509 1_555
Na25 O115 2.381254 1_555
Na25 O75 2.502096 1_545
Na25 O5 2.554055 1_555
Na25 O76 2.576103 1_655
Na25 O47 2.619605 1_555
Na25 O119 2.628887 1_555
Na26 O76 2.418731 1_555
Na26 O72 2.529833 1_545
Na26 O0 2.568782 1_555
Na26 O114 2.580117 1_555
Na26 O116 2.590159 1_555
Na26 O42 2.680900 1_555
Na27 O117 2.457327 1_555
Na27 O115 2.532974 1_555
Na27 O43 2.564941 1_555
Na27 O77 2.581303 1_555
Na27 O1 2.677429 1_555
Na27 O73 2.698738 1_545
Na27 O63 2.906669 1_545
Na28 O116 2.430017 1_555
Na28 O74 2.465443 1_555
Na28 O2 2.632744 1_555
Na28 O118 2.649030 1_555
Na28 O73 2.691919 1_555
Na28 O44 2.798815 1_555
Na29 O45 2.470473 1_555
Na29 O75 2.477199 1_555
Na29 O117 2.490780 1_555
Na29 O119 2.687590 1_555
Na29 O3 2.737904 1_555
Na29 O72 2.739180 1_655
Na30 O75 2.459397 1_555
Na30 O76 2.564390 1_665
Na30 O89 2.594563 1_555
Na30 O85 2.626436 1_565
Na30 O72 2.672701 1_655
Na30 O86 2.692857 1_665
Na31 O84 2.475330 1_555
Na31 O77 2.475841 1_555
Na31 O87 2.510007 1_555
Na31 O74 2.634895 1_545
Na31 O73 2.729665 1_545
Na31 O88 2.744200 1_545
Na32 O80 2.470416 1_554
Na32 O91 2.487993 1_455
Na32 O83 2.562755 1_454
Na32 O94 2.570184 1_565
Na32 O78 2.688279 1_564
Na32 O93 2.729713 1_465
Na33 O81 2.376442 1_555
Na33 O82 2.411493 1_555
Na33 O79 2.600824 1_565
Na33 O90 2.660227 1_556
Na33 O95 2.700264 1_566
Na33 O92 2.865792 1_566
Na34 O96 2.442130 1_555
Na34 O98 2.462245 1_555
Na34 O100 2.496569 1_555
Na34 O108 2.638354 1_555
Na34 O112 2.684378 1_555
Na34 O110 2.884258 1_555
Na35 O99 2.411056 1_555
Na35 O109 2.522985 1_555
Na35 O97 2.543680 1_555
Na35 O113 2.557589 1_555
Na35 O101 2.721827 1_555
Na35 O111 2.899844 1_555
Na36 O114 2.384612 1_555
Na36 O116 2.447441 1_555
Na36 O106 2.583260 1_555
Na36 O102 2.739884 1_555
Na36 O118 2.774739 1_555
Na36 O104 2.843366 1_555
Na37 O117 2.509128 1_555
Na37 O103 2.553417 1_555
Na37 O115 2.561629 1_555
Na37 O107 2.567884 1_555
Na37 O105 2.614975 1_555
Na37 O119 2.737165 1_555
Na38 O136 2.439076 1_555
Na38 O122 2.550333 1_555
Na38 O132 2.601931 1_555
Na38 O120 2.605562 1_555
Na38 O134 2.649626 1_555
Na38 O124 2.854786 1_555
Na39 O135 2.430037 1_555
Na39 O133 2.530705 1_555
Na39 O137 2.545180 1_555
Na39 O123 2.604234 1_555
Na39 O121 2.633293 1_555
Na39 O125 2.792463 1_555
Na40 O142 2.466973 1_555
Na40 O130 2.543487 1_555
Na40 O140 2.561960 1_555
Na40 O138 2.565824 1_555
Na40 O126 2.622205 1_555
Na40 O128 2.781072 1_555
Na41 O131 2.553137 1_555
Na41 O127 2.563587 1_555
Na41 O141 2.614416 1_555
Na41 O129 2.625913 1_555
Na41 O139 2.689072 1_555
Na41 O143 2.700593 1_555
In0 O5 2.072091 1_555
In0 O3 2.093769 1_545
In0 O0 2.162098 1_655
In0 O76 2.218229 1_655
In0 O75 2.219108 1_545
In0 O72 2.456419 1_645
In1 O1 2.093726 1_555
In1 O2 2.102221 1_545
In1 O77 2.145722 1_555
In1 O74 2.177138 1_545
In1 O4 2.263503 1_555
In1 O73 2.362194 1_545
In2 O6 2.092074 1_565
In2 O11 2.094091 1_465
In2 O83 2.201524 1_455
In2 O80 2.205722 1_555
In2 O9 2.231142 1_455
In2 O78 2.404997 1_565
In3 O8 2.067193 1_555
In3 O10 2.096881 1_565
In3 O7 2.121151 1_565
In3 O81 2.247544 1_555
In3 O82 2.253224 1_555
In3 O79 2.491126 1_565
In4 O26 2.087212 1_555
In4 O24 2.090667 1_555
In4 O100 2.131403 1_555
In4 O96 2.164164 1_555
In4 O98 2.214030 1_555
In4 O28 2.332212 1_555
In5 O35 2.100740 1_555
In5 O31 2.105067 1_555
In5 O105 2.122484 1_555
In5 O103 2.143852 1_555
In5 O107 2.206297 1_555
In5 O33 2.334746 1_555
In6 O36 2.071477 1_556
In6 O38 2.086467 1_556
In6 O108 2.108851 1_555
In6 O112 2.164290 1_555
In6 O40 2.323814 1_556
In6 O110 2.397712 1_555
In7 O37 2.077199 1_556
In7 O39 2.087407 1_556
In7 O109 2.156248 1_555
In7 O113 2.173064 1_555
In7 O41 2.330789 1_556
In7 O111 2.418163 1_555
In8 O42 2.064560 1_555
In8 O46 2.075057 1_555
In8 O114 2.168024 1_555
In8 O116 2.188179 1_555
In8 O44 2.319449 1_555
In8 O118 2.418355 1_555
In9 O43 2.095968 1_555
In9 O45 2.100430 1_555
In9 O47 2.119040 1_555
In9 O115 2.169602 1_555
In9 O117 2.246112 1_555
In9 O119 2.486634 1_555
In10 O63 2.050772 1_555
In10 O65 2.071934 1_555
In10 O135 2.141038 1_555
In10 O133 2.175294 1_555
In10 O61 2.353802 1_555
In10 O137 2.515673 1_555
In11 O70 2.056073 1_555
In11 O68 2.088031 1_555
In11 O142 2.123820 1_555
In11 O138 2.147778 1_555
In11 O66 2.360058 1_555
In11 O140 2.405653 1_555
O0 Si0 1.631049 1_555
O1 Si1 1.632138 1_545
O2 Si2 1.625282 1_555
O3 Si3 1.633162 1_555
O4 S0 1.479446 1_555
O5 Si4 1.627373 1_555
O6 Si5 1.650504 1_555
O7 Si6 1.636705 1_555
O8 Si7 1.635874 1_555
O9 S1 1.490240 1_555
O10 Si8 1.642152 1_545
O11 Si9 1.638620 1_555
O12 Si8 1.650005 1_555
O12 Zr1 2.061462 1_565
O13 Si9 1.625523 1_565
O13 Zr0 2.049991 1_565
O14 Si5 1.643336 1_555
O14 Zr0 2.065693 1_455
O15 Si6 1.654312 1_555
O15 Zr1 1.998500 1_555
O16 S1 1.471067 1_455
O16 Zr0 2.281781 1_465
O17 Si7 1.642766 1_555
O17 Zr1 2.033531 1_565
O18 Si2 1.634992 1_555
O18 Zr3 2.050654 1_555
O19 Si3 1.661369 1_555
O19 Zr2 2.047042 1_665
O20 Si4 1.651149 1_455
O20 Zr2 2.019052 1_555
O21 S0 1.482588 1_555
O21 Zr3 2.235961 1_545
O22 Si0 1.657960 1_565
O22 Zr2 2.001266 1_565
O23 Si1 1.677814 1_555
O23 Zr3 1.967042 1_555
O24 Si10 1.617260 1_555
O25 Si11 1.641701 1_555
O25 Zr4 2.083957 1_555
O26 Si12 1.629123 1_555
O27 Si13 1.667364 1_555
O27 Zr4 2.008908 1_555
O28 S2 1.470741 1_555
O29 Si14 1.639585 1_555
O29 Zr4 2.006012 1_555
O30 Si15 1.642346 1_555
O30 Zr5 2.063915 1_555
O31 Si16 1.614423 1_555
O32 S3 1.481928 1_555
O32 Zr5 2.262688 1_555
O33 S4 1.469931 1_555
O34 Si17 1.670043 1_555
O34 Zr5 1.991458 1_555
O35 Si18 1.624475 1_555
O36 Si17 1.630258 1_555
O37 Si18 1.643071 1_555
O38 Si15 1.625084 1_555
O39 Si16 1.647610 1_555
O40 S3 1.476098 1_555
O41 S4 1.475243 1_555
O42 Si12 1.644835 1_555
O43 Si13 1.627591 1_555
O44 S2 1.480234 1_555
O45 Si14 1.629013 1_555
O46 Si10 1.650262 1_555
O47 Si11 1.621729 1_555
O48 Si19 1.668270 1_555
O48 Zr6 2.052706 1_556
O49 Si20 1.658632 1_555
O49 Zr7 2.054434 1_556
O50 S5 1.497848 1_555
O50 Zr6 2.125374 1_556
O51 S6 1.501400 1_555
O51 Zr7 2.125977 1_556
O52 Si21 1.663835 1_555
O52 Zr6 2.033344 1_556
O53 Si22 1.659524 1_555
O53 Zr7 2.046145 1_556
O54 Si23 1.649972 1_555
O54 Zr8 2.071909 1_555
O55 Si24 1.653421 1_555
O55 Zr9 2.064411 1_555
O56 Si25 1.652164 1_555
O56 Zr8 2.049325 1_555
O57 Si26 1.650232 1_555
O57 Zr9 2.059623 1_555
O58 S7 1.497415 1_555
O58 Zr8 2.129073 1_555
O59 S8 1.478305 1_555
O59 Zr9 2.263219 1_555
O60 S7 1.482507 1_555
O60 Zr10 2.294005 1_555
O61 S8 1.489823 1_555
O62 Si23 1.640789 1_555
O62 Zr10 2.005182 1_555
O63 Si24 1.646581 1_555
O64 Si25 1.651837 1_555
O64 Zr10 2.081602 1_555
O65 Si26 1.645208 1_555
O66 S5 1.476960 1_555
O67 S6 1.478009 1_555
O67 Zr11 2.390923 1_555
O68 Si21 1.632460 1_555
O69 Si22 1.642890 1_555
O69 Zr11 2.087953 1_555
O70 Si19 1.631486 1_555
O71 Si20 1.634702 1_555
O71 Zr11 2.024507 1_555
O72 S7 1.480767 1_555
O73 S8 1.493784 1_555
O74 Si23 1.645181 1_555
O75 Si24 1.651042 1_555
O76 Si25 1.638773 1_555
O77 Si26 1.662504 1_555
O78 S5 1.487336 1_555
O79 S6 1.480196 1_555
O80 Si21 1.654106 1_555
O81 Si22 1.640613 1_555
O82 Si19 1.645201 1_555
O83 Si20 1.647873 1_555
O84 Si10 1.671902 1_555
O84 Zr1 2.173660 1_555
O85 Si11 1.670305 1_555
O85 Zr0 2.061772 1_555
O86 Si12 1.634167 1_555
O86 Zr0 2.081060 1_455
O87 Si13 1.638355 1_555
O87 Zr1 2.092208 1_555
O88 S2 1.486168 1_555
O88 Zr1 2.380413 1_565
O89 Si14 1.630298 1_555
O89 Zr0 2.086024 1_565
O90 Si15 1.683700 1_555
O90 Zr3 2.066827 1_555
O91 Si16 1.671146 1_555
O91 Zr2 2.197699 1_665
O92 S3 1.484346 1_555
O92 Zr3 2.340574 1_545
O93 S4 1.488064 1_555
O93 Zr2 2.371200 1_655
O94 Si17 1.629738 1_555
O94 Zr2 2.120150 1_555
O95 Si18 1.654209 1_555
O95 Zr3 2.061811 1_545
O96 Si8 1.636685 1_545
O97 Si9 1.651581 1_555
O97 Zr4 2.173400 1_555
O98 Si5 1.636361 1_555
O99 Si6 1.643316 1_555
O99 Zr4 2.134969 1_555
O100 Si7 1.624815 1_555
O101 S1 1.485034 1_555
O101 Zr4 2.347228 1_555
O102 Si2 1.675958 1_555
O102 Zr5 2.037624 1_555
O103 Si3 1.637659 1_555
O104 S0 1.490938 1_555
O104 Zr5 2.281972 1_555
O105 Si4 1.623267 1_555
O106 Si0 1.658125 1_555
O106 Zr5 2.080284 1_555
O107 Si1 1.624621 1_545
O108 Si19 1.646690 1_555
O109 Si20 1.646109 1_555
O110 S6 1.480284 1_555
O111 S5 1.479913 1_655
O112 Si21 1.652953 1_545
O113 Si22 1.656350 1_545
O114 Si23 1.644506 1_545
O115 Si24 1.643787 1_545
O116 Si25 1.658492 1_555
O117 Si26 1.641287 1_555
O118 S8 1.487615 1_555
O119 S7 1.475210 1_655
O120 Si17 1.645034 1_555
O120 Zr6 2.126411 1_555
O121 Si18 1.651140 1_555
O121 Zr7 2.078907 1_555
O122 Si16 1.667508 1_455
O122 Zr6 2.084076 1_555
O123 Si15 1.643197 1_555
O123 Zr7 2.134565 1_555
O124 S3 1.504527 1_565
O124 Zr6 2.285300 1_555
O125 S4 1.517287 1_565
O125 Zr7 2.227655 1_555
O126 Si12 1.653112 1_565
O126 Zr8 2.068744 1_555
O127 Si13 1.634687 1_565
O127 Zr9 2.116509 1_555
O128 S2 1.513002 1_555
O128 Zr8 2.235217 1_555
O129 Si14 1.665441 1_555
O129 Zr9 2.046586 1_555
O130 Si11 1.655921 1_455
O130 Zr8 2.104387 1_555
O131 Si10 1.643039 1_555
O131 Zr9 2.097003 1_555
O132 Si0 1.633161 1_565
O132 Zr10 2.104970 1_555
O133 Si1 1.649932 1_555
O134 Si2 1.636494 1_555
O134 Zr10 2.045733 1_555
O135 Si3 1.654212 1_555
O136 Si4 1.649536 1_455
O136 Zr10 2.146989 1_555
O137 S0 1.487678 1_555
O138 Si5 1.659132 1_555
O139 Si6 1.637227 1_555
O139 Zr11 2.082038 1_555
O140 S1 1.497447 1_455
O141 Si7 1.649805 1_555
O141 Zr11 2.125717 1_555
O142 Si8 1.655006 1_555
O143 Si9 1.653248 1_565
O143 Zr11 2.017442 1_555
