# generated using pymatgen
data_SmInCu2
_symmetry_space_group_name_H-M   'P 1'
_cell_length_a   4.72033430
_cell_length_b   4.72033435
_cell_length_c   4.72033390
_cell_angle_alpha   60.00000317
_cell_angle_beta   60.00000278
_cell_angle_gamma   60.00001470
_symmetry_Int_Tables_number   1
_chemical_formula_structural   SmInCu2
_chemical_formula_sum   'Sm1 In1 Cu2'
_cell_volume   74.37094651
_cell_formula_units_Z   1
loop_
 _symmetry_equiv_pos_site_id
 _symmetry_equiv_pos_as_xyz
  1  'x, y, z'
loop_
 _atom_site_type_symbol
 _atom_site_label
 _atom_site_symmetry_multiplicity
 _atom_site_fract_x
 _atom_site_fract_y
 _atom_site_fract_z
 _atom_site_occupancy
  Sm  Sm0  1  0.50000000  0.50000000  0.50000000  1
  In  In0  1  -0.00000000  0.00000000  0.00000000  1
  Cu  Cu0  1  0.25000000  0.25000000  0.25000000  1
  Cu  Cu1  1  0.75000000  0.75000000  0.75000000  1
loop_
_geom_bond_atom_site_label_1
_geom_bond_atom_site_label_2
_geom_bond_distance
_geom_bond_site_symmetry_2
In0 Sm0 3.337780 1_554
In0 Sm0 3.337780 1_445
In0 Sm0 3.337781 1_545
In0 Sm0 3.337781 1_454
In0 Sm0 3.337781 1_544
In0 Sm0 3.337781 1_455
Cu0 In0 2.890602 1_556
Cu0 In0 2.890602 1_555
Cu0 Sm0 2.890602 1_554
Cu0 Sm0 2.890602 1_555
Cu0 Sm0 2.890603 1_455
Cu0 In0 2.890603 1_655
Cu0 Sm0 2.890603 1_545
Cu0 In0 2.890603 1_565
Cu1 Sm0 2.890602 1_556
Cu1 Sm0 2.890602 1_555
Cu1 In0 2.890602 1_665
Cu1 In0 2.890602 1_666
Cu1 Sm0 2.890603 1_655
Cu1 In0 2.890603 1_566
Cu1 Sm0 2.890603 1_565
Cu1 In0 2.890603 1_656
