# generated using pymatgen
data_Gd(HO)3
_symmetry_space_group_name_H-M   'P 1'
_cell_length_a   6.31919854
_cell_length_b   6.31909695
_cell_length_c   3.60869917
_cell_angle_alpha   89.99999602
_cell_angle_beta   90.00000212
_cell_angle_gamma   119.99792717
_symmetry_Int_Tables_number   1
_chemical_formula_structural   Gd(HO)3
_chemical_formula_sum   'Gd2 H6 O6'
_cell_volume   124.79793564
_cell_formula_units_Z   2
loop_
 _symmetry_equiv_pos_site_id
 _symmetry_equiv_pos_as_xyz
  1  'x, y, z'
loop_
 _atom_site_type_symbol
 _atom_site_label
 _atom_site_symmetry_multiplicity
 _atom_site_fract_x
 _atom_site_fract_y
 _atom_site_fract_z
 _atom_site_occupancy
  Gd  Gd0  1  0.66667833  0.33331107  0.74999995  1
  Gd  Gd1  1  0.33333090  0.66668433  0.24999996  1
  H  H0  1  0.72438490  0.86332909  0.74999992  1
  H  H1  1  0.86110778  0.72433864  0.25000000  1
  H  H2  1  0.13897424  0.27557337  0.75000015  1
  H  H3  1  0.27573411  0.13686439  0.25000008  1
  H  H4  1  0.86320320  0.13887881  0.24999993  1
  H  H5  1  0.13657599  0.86100990  0.74999994  1
  O  O0  1  0.91665249  0.60702704  0.25000003  1
  O  O1  1  0.60709205  0.69047993  0.74999997  1
  O  O2  1  0.08339048  0.39285449  0.75000023  1
  O  O3  1  0.39305244  0.30968808  0.24999998  1
  O  O4  1  0.69037329  0.08335870  0.24999997  1
  O  O5  1  0.30944979  0.91660217  0.74999990  1
loop_
_geom_bond_atom_site_label_1
_geom_bond_atom_site_label_2
_geom_bond_distance
_geom_bond_site_symmetry_2
Gd0 O4 2.451391 1_556
Gd0 O4 2.451391 1_555
Gd0 O3 2.451456 1_555
Gd0 O3 2.451457 1_556
Gd0 O0 2.451642 1_555
Gd0 O0 2.451642 1_556
Gd0 O2 2.466786 1_655
Gd0 O1 2.466890 1_555
Gd0 O5 2.466952 1_545
Gd1 O5 2.451695 1_555
Gd1 O5 2.451695 1_554
Gd1 O1 2.451715 1_555
Gd1 O1 2.451715 1_554
Gd1 O2 2.451855 1_554
Gd1 O2 2.451856 1_555
Gd1 O0 2.466300 1_455
Gd1 O3 2.466330 1_555
Gd1 O4 2.466370 1_565
H0 O1 0.965848 1_555
H1 O0 0.965873 1_555
H2 O2 0.965874 1_555
H3 O3 0.965760 1_555
H4 O4 0.965779 1_555
H5 O5 0.965950 1_555
