# generated using pymatgen
data_CdH4(BrO4)2
_symmetry_space_group_name_H-M   'P 1'
_cell_length_a   6.59854200
_cell_length_b   9.40557100
_cell_length_c   12.44246300
_cell_angle_alpha   90.00000000
_cell_angle_beta   90.00000000
_cell_angle_gamma   90.00000000
_symmetry_Int_Tables_number   1
_chemical_formula_structural   CdH4(BrO4)2
_chemical_formula_sum   'Cd4 H16 Br8 O32'
_cell_volume   772.21726896
_cell_formula_units_Z   4
loop_
 _symmetry_equiv_pos_site_id
 _symmetry_equiv_pos_as_xyz
  1  'x, y, z'
loop_
 _atom_site_type_symbol
 _atom_site_label
 _atom_site_symmetry_multiplicity
 _atom_site_fract_x
 _atom_site_fract_y
 _atom_site_fract_z
 _atom_site_occupancy
  Cd  Cd0  1  0.47224800  0.45178300  0.78862600  1
  Cd  Cd1  1  0.97224800  0.04821700  0.21137400  1
  Cd  Cd2  1  0.52775200  0.95178300  0.71137400  1
  Cd  Cd3  1  0.02775200  0.54821700  0.28862600  1
  H  H0  1  0.37331600  0.06660900  0.13596200  1
  H  H1  1  0.87331600  0.43339100  0.86403800  1
  H  H2  1  0.62668400  0.56660900  0.36403800  1
  H  H3  1  0.12668400  0.93339100  0.63596200  1
  H  H4  1  0.28460700  0.93654700  0.07102500  1
  H  H5  1  0.78460700  0.56345300  0.92897500  1
  H  H6  1  0.71539300  0.43654700  0.42897500  1
  H  H7  1  0.21539300  0.06345300  0.57102500  1
  H  H8  1  0.68656300  0.00684400  0.92525500  1
  H  H9  1  0.81343700  0.99315600  0.42525500  1
  H  H10  1  0.31343700  0.50684400  0.57474500  1
  H  H11  1  0.18656300  0.49315600  0.07474500  1
  H  H12  1  0.30586500  0.61317400  0.13010800  1
  H  H13  1  0.69413500  0.11317400  0.36989200  1
  H  H14  1  0.80586500  0.88682600  0.86989200  1
  H  H15  1  0.19413500  0.38682600  0.63010800  1
  Br  Br0  1  0.17447000  0.17214300  0.88466800  1
  Br  Br1  1  0.67447000  0.32785700  0.11533200  1
  Br  Br2  1  0.82553000  0.67214300  0.61533200  1
  Br  Br3  1  0.32553000  0.82785700  0.38466800  1
  Br  Br4  1  0.24397900  0.72750500  0.89579100  1
  Br  Br5  1  0.74397900  0.77249500  0.10420900  1
  Br  Br6  1  0.75602100  0.22750500  0.60420900  1
  Br  Br7  1  0.25602100  0.27249500  0.39579100  1
  O  O0  1  0.93787500  0.76988800  0.19467100  1
  O  O1  1  0.65404800  0.27157800  0.48385600  1
  O  O2  1  0.84595200  0.72842200  0.98385600  1
  O  O3  1  0.34595200  0.77157800  0.01614400  1
  O  O4  1  0.56212500  0.23011200  0.69467100  1
  O  O5  1  0.06212500  0.26988800  0.30532900  1
  O  O6  1  0.43787500  0.73011200  0.80532900  1
  O  O7  1  0.15404800  0.22842200  0.51614400  1
  O  O8  1  0.43493100  0.73468900  0.28536400  1
  O  O9  1  0.93493100  0.76531100  0.71463600  1
  O  O10  1  0.56506900  0.23468900  0.21463600  1
  O  O11  1  0.06506900  0.26531100  0.78536400  1
  O  O12  1  0.74152200  0.51578000  0.66828400  1
  O  O13  1  0.24152200  0.98422000  0.33171600  1
  O  O14  1  0.21351900  0.54875700  0.90454600  1
  O  O15  1  0.75847800  0.48422000  0.16828400  1
  O  O16  1  0.11102000  0.73433300  0.41130600  1
  O  O17  1  0.61102000  0.76566700  0.58869400  1
  O  O18  1  0.88898000  0.23433300  0.08869400  1
  O  O19  1  0.38898000  0.26566700  0.91130600  1
  O  O20  1  0.24873400  0.51830300  0.14382900  1
  O  O21  1  0.74873400  0.98169700  0.85617100  1
  O  O22  1  0.75126600  0.01830300  0.35617100  1
  O  O23  1  0.25126600  0.48169700  0.64382900  1
  O  O24  1  0.74778400  0.53419800  0.40290400  1
  O  O25  1  0.24778400  0.96580200  0.59709600  1
  O  O26  1  0.25221600  0.03419800  0.09709600  1
  O  O27  1  0.75221600  0.46580200  0.90290400  1
  O  O28  1  0.71351900  0.95124300  0.09545400  1
  O  O29  1  0.25847800  0.01578000  0.83171600  1
  O  O30  1  0.28648100  0.45124300  0.40454600  1
  O  O31  1  0.78648100  0.04875700  0.59545400  1
loop_
_geom_bond_atom_site_label_1
_geom_bond_atom_site_label_2
_geom_bond_distance
_geom_bond_site_symmetry_2
Cd0 O23 2.334795 1_555
Cd0 O27 2.334952 1_555
Cd0 O19 2.386684 1_555
Cd0 O12 2.400302 1_555
Cd0 O14 2.413894 1_555
Cd0 O4 2.462790 1_555
Cd0 O6 2.635856 1_555
Cd1 O22 2.334795 1_555
Cd1 O26 2.334952 1_655
Cd1 O18 2.386684 1_555
Cd1 O13 2.400302 1_645
Cd1 O28 2.413894 1_545
Cd1 O5 2.462790 1_655
Cd1 O0 2.635856 1_545
Cd2 O21 2.334795 1_555
Cd2 O25 2.334952 1_555
Cd2 O17 2.386684 1_555
Cd2 O29 2.400302 1_565
Cd2 O31 2.413894 1_565
Cd2 O6 2.462790 1_555
Cd2 O4 2.635856 1_565
Cd3 O20 2.334795 1_555
Cd3 O24 2.334952 1_455
Cd3 O16 2.386684 1_555
Cd3 O15 2.400302 1_455
Cd3 O30 2.413894 1_555
Cd3 O0 2.462790 1_455
Cd3 O5 2.635856 1_555
H0 O26 0.982508 1_555
H1 O27 0.982508 1_555
H2 O24 0.982508 1_555
H3 O25 0.982508 1_555
H4 O26 0.997238 1_565
H4 O3 1.742898 1_555
H5 O27 0.997238 1_555
H5 O2 1.742898 1_555
H6 O24 0.997238 1_555
H6 O1 1.742898 1_555
H7 O25 0.997238 1_545
H7 O7 1.742898 1_555
H8 O21 0.981380 1_545
H9 O22 0.981380 1_565
H10 O23 0.981380 1_555
H11 O20 0.981380 1_555
H12 O20 0.983610 1_555
H13 O22 0.983610 1_555
H14 O21 0.983610 1_555
H15 O23 0.983610 1_555
Br0 O11 1.678003 1_555
Br0 O19 1.699159 1_555
Br0 O29 1.704195 1_555
Br1 O10 1.678003 1_555
Br1 O18 1.699159 1_555
Br1 O15 1.704195 1_555
Br2 O9 1.678003 1_555
Br2 O17 1.699159 1_555
Br2 O12 1.704195 1_555
Br3 O8 1.678003 1_555
Br3 O16 1.699159 1_555
Br3 O13 1.704195 1_555
Br4 O3 1.693241 1_556
Br4 O14 1.696699 1_555
Br4 O6 1.704245 1_555
Br5 O2 1.693241 1_554
Br5 O28 1.696699 1_555
Br5 O0 1.704245 1_555
Br6 O1 1.693241 1_555
Br6 O31 1.696699 1_555
Br6 O4 1.704245 1_555
Br7 O7 1.693241 1_555
Br7 O30 1.696699 1_555
Br7 O5 1.704245 1_555
