# generated using pymatgen
data_Na4Y3Ta(PO4)6
_symmetry_space_group_name_H-M   'P 1'
_cell_length_a   9.16519677
_cell_length_b   9.15709840
_cell_length_c   23.38158603
_cell_angle_alpha   89.94302140
_cell_angle_beta   90.11069813
_cell_angle_gamma   120.02010535
_symmetry_Int_Tables_number   1
_chemical_formula_structural   Na4Y3Ta(PO4)6
_chemical_formula_sum   'Na12 Y9 Ta3 P18 O72'
_cell_volume   1699.08631213
_cell_formula_units_Z   3
loop_
 _symmetry_equiv_pos_site_id
 _symmetry_equiv_pos_as_xyz
  1  'x, y, z'
loop_
 _atom_site_type_symbol
 _atom_site_label
 _atom_site_symmetry_multiplicity
 _atom_site_fract_x
 _atom_site_fract_y
 _atom_site_fract_z
 _atom_site_occupancy
  Na  Na0  1  0.63910512  0.99826345  0.25213194  1
  Na  Na1  1  0.36090823  0.36114503  0.25172677  1
  Na  Na2  1  0.99918555  0.64025337  0.25091458  1
  Na  Na3  1  0.29849455  0.33548216  0.58554972  1
  Na  Na4  1  0.03814329  0.69842454  0.58572002  1
  Na  Na5  1  0.66259296  0.70431450  0.07829421  1
  Na  Na6  1  0.98683415  0.99963420  0.49736630  1
  Na  Na7  1  0.01409146  0.01405285  0.99541128  1
  Na  Na8  1  0.66678342  0.33405721  0.82778108  1
  Na  Na9  1  0.66646898  0.33324811  0.33771875  1
  Na  Na10  1  0.31856906  0.66713892  0.16168519  1
  Na  Na11  1  0.35136415  0.68445679  0.67141518  1
  Y  Y0  1  0.00107587  0.99913789  0.35490186  1
  Y  Y1  1  0.99946256  0.99825497  0.85163961  1
  Y  Y2  1  0.98925082  0.99941355  0.65462406  1
  Y  Y3  1  0.00967015  0.00916790  0.14230550  1
  Y  Y4  1  0.66684287  0.32890948  0.69007633  1
  Y  Y5  1  0.66631485  0.32842346  0.18036670  1
  Y  Y6  1  0.32452080  0.66597370  0.01579985  1
  Y  Y7  1  0.34156365  0.67454968  0.51488072  1
  Y  Y8  1  0.33445509  0.66730601  0.32626354  1
  Ta  Ta0  1  0.66693302  0.33053483  0.97740271  1
  Ta  Ta1  1  0.66657194  0.33010685  0.48222740  1
  Ta  Ta2  1  0.33109616  0.66500420  0.81835688  1
  P  P0  1  0.29652791  0.99623906  0.25031081  1
  P  P1  1  0.70041003  0.70365571  0.24745045  1
  P  P2  1  0.00417824  0.30028839  0.25056967  1
  P  P3  1  0.29755041  0.31034682  0.75180204  1
  P  P4  1  0.01274026  0.70213849  0.75144374  1
  P  P5  1  0.68821902  0.98642552  0.75491186  1
  P  P6  1  0.95598093  0.33063006  0.58130165  1
  P  P7  1  0.37298602  0.04489331  0.58220471  1
  P  P8  1  0.66991928  0.62042189  0.58203999  1
  P  P9  1  0.95317223  0.62320653  0.08036066  1
  P  P10  1  0.66931635  0.04114661  0.07933973  1
  P  P11  1  0.37893062  0.33277374  0.07881632  1
  P  P12  1  0.62073172  0.65496877  0.91940477  1
  P  P13  1  0.03252451  0.37682655  0.91701395  1
  P  P14  1  0.34512517  0.96713041  0.91676066  1
  P  P15  1  0.64009243  0.98247212  0.41691277  1
  P  P16  1  0.34264342  0.36147209  0.42030266  1
  P  P17  1  0.01868385  0.65648871  0.42011587  1
  O  O0  1  0.21407683  0.02440429  0.30256755  1
  O  O1  1  0.81593910  0.79317343  0.29842555  1
  O  O2  1  0.97759437  0.18977771  0.30277996  1
  O  O3  1  0.20232134  0.19271230  0.80050805  1
  O  O4  1  0.98936521  0.79628390  0.80029168  1
  O  O5  1  0.80154724  0.01122757  0.80508501  1
  O  O6  1  0.75815353  0.95347751  0.69897000  1
  O  O7  1  0.19904717  0.24467450  0.69426105  1
  O  O8  1  0.04290307  0.80006548  0.69390376  1
  O  O9  1  0.77855041  0.80473130  0.19166876  1
  O  O10  1  0.02896762  0.21778268  0.19663838  1
  O  O11  1  0.18955375  0.97245722  0.19633390  1
  O  O12  1  0.87550090  0.35615055  0.63405726  1
  O  O13  1  0.47389005  0.12683943  0.63564183  1
  O  O14  1  0.64697755  0.51578579  0.63506661  1
  O  O15  1  0.87847774  0.53612823  0.13786169  1
  O  O16  1  0.65574702  0.11483705  0.13680455  1
  O  O17  1  0.46861000  0.34793374  0.13618784  1
  O  O18  1  0.48950376  0.32480114  0.02811272  1
  O  O19  1  0.83616562  0.50978462  0.02941052  1
  O  O20  1  0.67370475  0.15724921  0.02829797  1
  O  O21  1  0.47865638  0.15627088  0.52875244  1
  O  O22  1  0.68146175  0.51751714  0.52874961  1
  O  O23  1  0.84323464  0.31881603  0.52769548  1
  O  O24  1  0.54955099  0.67834368  0.97500369  1
  O  O25  1  0.13295023  0.45203304  0.97094475  1
  O  O26  1  0.32141717  0.86771210  0.97080351  1
  O  O27  1  0.54381952  0.86544572  0.46612027  1
  O  O28  1  0.32315283  0.45193081  0.47198683  1
  O  O29  1  0.12863945  0.67608627  0.47183908  1
  O  O30  1  0.09342500  0.62852536  0.36450801  1
  O  O31  1  0.54200821  0.91518877  0.36004170  1
  O  O32  1  0.37284083  0.46512189  0.36463288  1
  O  O33  1  0.12970793  0.49928596  0.86548304  1
  O  O34  1  0.36704519  0.86843696  0.86528850  1
  O  O35  1  0.49564739  0.63204963  0.86884558  1
  O  O36  1  0.98942655  0.80595396  0.41629303  1
  O  O37  1  0.81834351  0.01145027  0.41507594  1
  O  O38  1  0.19259525  0.18341102  0.41631188  1
  O  O39  1  0.00096959  0.19953562  0.90842278  1
  O  O40  1  0.20031770  0.00053542  0.90862753  1
  O  O41  1  0.79798737  0.80020835  0.90980022  1
  O  O42  1  0.97511398  0.17308270  0.58273476  1
  O  O43  1  0.20234328  0.04287415  0.58190327  1
  O  O44  1  0.83680596  0.79049497  0.58284626  1
  O  O45  1  0.94894695  0.78975870  0.07725928  1
  O  O46  1  0.83116067  0.02924632  0.07666458  1
  O  O47  1  0.20660509  0.17248158  0.07623479  1
  O  O48  1  0.65573945  0.13427958  0.74976925  1
  O  O49  1  0.47813476  0.34285695  0.74822485  1
  O  O50  1  0.86493305  0.52108905  0.74815496  1
  O  O51  1  0.67711565  0.52295470  0.24512268  1
  O  O52  1  0.84656154  0.32214801  0.24606124  1
  O  O53  1  0.47637126  0.15341675  0.24593375  1
  O  O54  1  0.63029561  0.48578294  0.92484665  1
  O  O55  1  0.85559665  0.36896231  0.92402823  1
  O  O56  1  0.51455261  0.14441797  0.92355010  1
  O  O57  1  0.65217908  0.15831524  0.42756160  1
  O  O58  1  0.50609448  0.34703480  0.42888553  1
  O  O59  1  0.84093825  0.49255899  0.42832827  1
  O  O60  1  0.37204572  0.49632338  0.07470333  1
  O  O61  1  0.12973465  0.64801866  0.07691983  1
  O  O62  1  0.51627460  0.86220743  0.07607627  1
  O  O63  1  0.33849734  0.86296782  0.57668732  1
  O  O64  1  0.51156962  0.63620030  0.57536778  1
  O  O65  1  0.13282673  0.48973553  0.57483577  1
  O  O66  1  0.31395467  0.83635754  0.25615095  1
  O  O67  1  0.52324793  0.68572242  0.25509593  1
  O  O68  1  0.16301410  0.47873829  0.25640955  1
  O  O69  1  0.31141381  0.48799565  0.76525415  1
  O  O70  1  0.17721601  0.68984096  0.76457510  1
  O  O71  1  0.51089191  0.82182035  0.76608912  1
loop_
_geom_bond_atom_site_label_1
_geom_bond_atom_site_label_2
_geom_bond_distance
_geom_bond_site_symmetry_2
Na0 O67 2.506442 1_555
Na0 O53 2.526492 1_565
Na0 O66 2.582171 1_555
Na0 O52 2.605609 1_565
Na0 O31 2.657848 1_555
Na0 O16 2.875244 1_565
Na0 O2 2.940808 1_565
Na0 O9 3.008482 1_555
Na1 O51 2.514523 1_555
Na1 O68 2.533063 1_555
Na1 O67 2.574676 1_555
Na1 O53 2.602269 1_555
Na1 O32 2.790590 1_555
Na1 O17 2.901288 1_555
Na1 O0 2.929026 1_555
Na1 O10 2.937685 1_555
Na2 O52 2.525392 1_555
Na2 O66 2.525431 1_655
Na2 O68 2.584479 1_655
Na2 O51 2.590675 1_555
Na2 O30 2.809847 1_655
Na2 O15 2.838769 1_555
Na2 O1 2.894672 1_555
Na2 O11 2.935438 1_655
Na3 O43 2.366590 1_555
Na3 O64 2.464320 1_555
Na3 O65 2.550937 1_555
Na3 O42 2.566985 1_455
Na3 O7 2.688782 1_555
Na3 O28 2.827403 1_555
Na4 O44 2.382555 1_455
Na4 O63 2.396692 1_555
Na4 O65 2.476058 1_555
Na4 O8 2.688905 1_555
Na4 O43 2.733456 1_565
Na4 O29 2.828288 1_555
Na4 O12 2.940647 1_455
Na5 O45 2.333714 1_555
Na5 O60 2.377030 1_555
Na5 O62 2.414790 1_555
Na5 O46 2.577176 1_565
Na5 O24 2.589900 1_554
Na5 O9 2.831657 1_555
Na6 O37 2.500758 1_565
Na6 O42 2.587712 1_565
Na6 O36 2.605465 1_555
Na6 O38 2.609992 1_665
Na6 O44 2.630791 1_555
Na6 O43 2.677504 1_665
Na7 O47 2.494077 1_556
Na7 O46 2.585716 1_456
Na7 O45 2.647048 1_446
Na7 O39 2.689378 1_555
Na7 O40 2.696513 1_555
Na7 O41 2.806419 1_445
Na8 O48 2.550422 1_555
Na8 O49 2.565694 1_555
Na8 O50 2.567511 1_555
Na8 O56 2.748890 1_555
Na8 O55 2.755740 1_555
Na8 O54 2.768960 1_555
Na9 O57 2.603923 1_555
Na9 O59 2.613899 1_555
Na9 O58 2.630319 1_555
Na9 O53 2.733989 1_555
Na9 O52 2.740366 1_555
Na9 O51 2.745612 1_555
Na10 O61 2.576498 1_555
Na10 O62 2.692400 1_555
Na10 O66 2.711873 1_555
Na10 O68 2.730895 1_555
Na10 O60 2.756880 1_555
Na10 O67 2.825559 1_555
Na11 O71 2.602477 1_555
Na11 O70 2.717910 1_555
Na11 O69 2.742399 1_555
Na11 O63 2.788614 1_555
Na11 O64 2.838751 1_555
Na11 O65 2.950843 1_555
O0 P0 1.526332 1_545
O0 Y0 2.217805 1_545
O1 P1 1.530443 1_555
O1 Y0 2.230279 1_655
O2 P2 1.525011 1_655
O2 Y0 2.224793 1_645
O3 P3 1.509865 1_555
O3 Y1 2.179108 1_445
O4 P4 1.510401 1_655
O4 Y1 2.168699 1_555
O5 P5 1.505469 1_545
O5 Y1 2.167271 1_545
O6 P5 1.552507 1_555
O6 Y2 2.203256 1_555
O7 P3 1.562198 1_555
O7 Y2 2.297028 1_445
O8 P4 1.562552 1_555
O8 Y2 2.304489 1_455
O9 P1 1.551971 1_555
O9 Y3 2.315382 1_665
O10 P2 1.545088 1_555
O10 Y3 2.227179 1_555
O11 P0 1.543897 1_555
O11 Y3 2.229940 1_565
O12 P6 1.515522 1_555
O12 Y4 2.228627 1_555
O13 P7 1.510786 1_555
O13 Y4 2.211999 1_555
O14 P8 1.515441 1_555
O14 Y4 2.218632 1_555
O15 P9 1.538598 1_555
O15 Y5 2.165500 1_555
O16 P10 1.537056 1_555
O16 Y5 2.164749 1_555
O17 P11 1.541503 1_555
O17 Y5 2.167633 1_555
O18 P11 1.586407 1_555
O18 Ta0 1.993723 1_554
O19 P9 1.590903 1_555
O19 Ta0 2.006968 1_554
O20 P10 1.584645 1_555
O20 Ta0 2.008083 1_554
O21 P7 1.598105 1_555
O21 Ta1 1.985977 1_555
O22 P8 1.598211 1_555
O22 Ta1 1.978830 1_555
O23 P6 1.591826 1_555
O23 Ta1 1.980703 1_555
O24 P12 1.518208 1_555
O24 Y6 2.224865 1_556
O25 P13 1.508152 1_555
O25 Y6 2.139127 1_556
O26 P14 1.507831 1_555
O26 Y6 2.137511 1_556
O27 P15 1.518564 1_555
O27 Y7 2.133919 1_555
O28 P16 1.526209 1_555
O28 Y7 2.202093 1_555
O29 P17 1.524839 1_555
O29 Y7 2.200269 1_555
O30 P17 1.550792 1_555
O30 Y8 2.242285 1_555
O31 P15 1.548786 1_555
O31 Y8 2.252104 1_555
O32 P16 1.551717 1_555
O32 Y8 2.236874 1_555
O33 P13 1.582591 1_555
O33 Ta2 2.031177 1_555
O34 P14 1.578069 1_555
O34 Ta2 2.042413 1_555
O35 P12 1.584401 1_555
O35 Ta2 2.051087 1_555
O36 P17 1.523168 1_655
O36 Y0 2.237804 1_655
O37 P15 1.519120 1_545
O37 Y0 2.235062 1_645
O38 P16 1.521400 1_555
O38 Y0 2.240875 1_545
O39 P13 1.513363 1_555
O39 Y1 2.267033 1_445
O40 P14 1.515354 1_545
O40 Y1 2.262045 1_445
O41 P12 1.515711 1_555
O41 Y1 2.280777 1_555
O42 P6 1.538249 1_555
O42 Y2 2.360350 1_545
O43 P7 1.554809 1_555
O43 Y2 2.469331 1_445
O44 P8 1.543280 1_555
O44 Y2 2.398211 1_555
O45 P9 1.546499 1_555
O45 Y3 2.354457 1_665
O46 P10 1.542136 1_555
O46 Y3 2.314487 1_655
O47 P11 1.527335 1_555
O47 Y3 2.277300 1_555
O48 P5 1.529371 1_545
O48 Y4 2.224611 1_555
O49 P3 1.530495 1_555
O49 Y4 2.255356 1_555
O50 P4 1.530439 1_655
O50 Y4 2.243985 1_555
O51 P1 1.559875 1_555
O51 Y5 2.303000 1_555
O52 P2 1.557795 1_655
O52 Y5 2.275265 1_555
O53 P0 1.557389 1_545
O53 Y5 2.272219 1_555
O54 P12 1.599844 1_555
O54 Ta0 2.028893 1_555
O55 P13 1.595543 1_655
O55 Ta0 2.017384 1_555
O56 P14 1.596605 1_545
O56 Ta0 2.014048 1_555
O57 P15 1.577739 1_545
O57 Ta1 1.980282 1_555
O58 P16 1.580789 1_555
O58 Ta1 1.990857 1_555
O59 P17 1.580452 1_655
O59 Ta1 1.995085 1_555
O60 P11 1.533104 1_555
O60 Y6 2.273861 1_555
O61 P9 1.519649 1_455
O61 Y6 2.229826 1_555
O62 P10 1.535662 1_565
O62 Y6 2.267032 1_555
O63 P7 1.537913 1_565
O63 Y7 2.262680 1_555
O64 P8 1.536360 1_555
O64 Y7 2.255950 1_555
O65 P6 1.552495 1_455
O65 Y7 2.292435 1_555
O66 P0 1.555988 1_555
O66 Y8 2.324633 1_555
O67 P1 1.558739 1_555
O67 Y8 2.347335 1_555
O68 P2 1.558047 1_555
O68 Y8 2.323589 1_555
O69 P3 1.598570 1_555
O69 Ta2 1.977880 1_555
O70 P4 1.596046 1_555
O70 Ta2 1.983844 1_555
O71 P5 1.591008 1_555
O71 Ta2 1.976761 1_555
