# generated using pymatgen
data_CuGe5Pb3O14
_symmetry_space_group_name_H-M   'P 1'
_cell_length_a   10.00597238
_cell_length_b   10.00597238
_cell_length_c   10.55061526
_cell_angle_alpha   59.15985118
_cell_angle_beta   59.15985118
_cell_angle_gamma   48.80819290
_symmetry_Int_Tables_number   1
_chemical_formula_structural   CuGe5Pb3O14
_chemical_formula_sum   'Cu2 Ge10 Pb6 O28'
_cell_volume   656.97587811
_cell_formula_units_Z   2
loop_
 _symmetry_equiv_pos_site_id
 _symmetry_equiv_pos_as_xyz
  1  'x, y, z'
loop_
 _atom_site_type_symbol
 _atom_site_label
 _atom_site_symmetry_multiplicity
 _atom_site_fract_x
 _atom_site_fract_y
 _atom_site_fract_z
 _atom_site_occupancy
  Cu  Cu0  1  0.00000000  0.00000000  0.50000000  1
  Cu  Cu1  1  0.00000000  0.00000000  0.00000000  1
  Ge  Ge0  1  0.15507100  0.51996400  0.13437400  1
  Ge  Ge1  1  0.48003600  0.84492900  0.36562600  1
  Ge  Ge2  1  0.58124800  0.17151300  0.15458500  1
  Ge  Ge3  1  0.82848700  0.41875200  0.34541500  1
  Ge  Ge4  1  0.41875200  0.82848700  0.84541500  1
  Ge  Ge5  1  0.17151300  0.58124800  0.65458500  1
  Ge  Ge6  1  0.78430900  0.21569100  0.25000000  1
  Ge  Ge7  1  0.21569100  0.78430900  0.75000000  1
  Ge  Ge8  1  0.84492900  0.48003600  0.86562600  1
  Ge  Ge9  1  0.51996400  0.15507100  0.63437400  1
  Pb  Pb0  1  0.84400500  0.78289300  0.43892200  1
  Pb  Pb1  1  0.21710700  0.15599500  0.06107800  1
  Pb  Pb2  1  0.15599500  0.21710700  0.56107800  1
  Pb  Pb3  1  0.78289300  0.84400500  0.93892200  1
  Pb  Pb4  1  0.35208900  0.64791100  0.25000000  1
  Pb  Pb5  1  0.64791100  0.35208900  0.75000000  1
  O  O0  1  0.57227200  0.12227000  0.78576900  1
  O  O1  1  0.87773000  0.42772800  0.71423100  1
  O  O2  1  0.42772800  0.87773000  0.21423100  1
  O  O3  1  0.12227000  0.57227200  0.28576900  1
  O  O4  1  0.45193900  0.00217000  0.68033400  1
  O  O5  1  0.99783000  0.54806100  0.81966600  1
  O  O6  1  0.54806100  0.99783000  0.31966600  1
  O  O7  1  0.00217000  0.45193900  0.18033400  1
  O  O8  1  0.56217500  0.32721500  0.20730300  1
  O  O9  1  0.67278500  0.43782500  0.29269700  1
  O  O10  1  0.43782500  0.67278500  0.79269700  1
  O  O11  1  0.32721500  0.56217500  0.70730300  1
  O  O12  1  0.00401100  0.86756900  0.71270600  1
  O  O13  1  0.13243100  0.99598900  0.78729400  1
  O  O14  1  0.99598900  0.13243100  0.28729400  1
  O  O15  1  0.86756900  0.00401100  0.21270600  1
  O  O16  1  0.31851600  0.37560900  0.58626300  1
  O  O17  1  0.62439100  0.68148400  0.91373700  1
  O  O18  1  0.75076900  0.09599400  0.98671200  1
  O  O19  1  0.90400600  0.24923100  0.51328800  1
  O  O20  1  0.24923100  0.90400600  0.01328800  1
  O  O21  1  0.09599400  0.75076900  0.48671200  1
  O  O22  1  0.09688000  0.70743100  0.97021200  1
  O  O23  1  0.29256900  0.90312000  0.52978800  1
  O  O24  1  0.90312000  0.29256900  0.02978800  1
  O  O25  1  0.70743100  0.09688000  0.47021200  1
  O  O26  1  0.37560900  0.31851600  0.08626300  1
  O  O27  1  0.68148400  0.62439100  0.41373700  1
loop_
_geom_bond_atom_site_label_1
_geom_bond_atom_site_label_2
_geom_bond_distance
_geom_bond_site_symmetry_2
Cu0 O12 1.940920 1_545
Cu0 O14 1.940920 1_455
Cu0 O19 2.055877 1_455
Cu0 O21 2.055877 1_545
Cu0 O23 2.549796 1_545
Cu0 O25 2.549796 1_455
Cu1 O15 1.940920 1_455
Cu1 O13 1.940920 1_544
Cu1 O20 2.055877 1_545
Cu1 O18 2.055877 1_454
Cu1 O24 2.549796 1_455
Cu1 O22 2.549796 1_544
Ge0 O3 1.739671 1_555
Ge0 O22 1.766863 1_554
Ge0 O26 1.797774 1_555
Ge0 O7 1.819805 1_555
Ge1 O2 1.739671 1_555
Ge1 O23 1.766863 1_555
Ge1 O27 1.797774 1_555
Ge1 O6 1.819805 1_555
Ge2 O8 1.777918 1_555
Ge2 O18 1.785742 1_554
Ge2 O6 1.796586 1_545
Ge2 O26 1.834150 1_555
Ge2 O15 2.411586 1_555
Ge3 O9 1.777918 1_555
Ge3 O19 1.785742 1_555
Ge3 O7 1.796586 1_655
Ge3 O27 1.834150 1_555
Ge3 O14 2.411586 1_555
Ge4 O10 1.777918 1_555
Ge4 O20 1.785742 1_556
Ge4 O4 1.796586 1_565
Ge4 O17 1.834150 1_555
Ge4 O13 2.411586 1_555
Ge5 O11 1.777918 1_555
Ge5 O21 1.785742 1_555
Ge5 O5 1.796586 1_455
Ge5 O16 1.834150 1_555
Ge5 O12 2.411586 1_555
Ge6 O14 1.878630 1_555
Ge6 O15 1.878630 1_555
Ge6 O8 1.905955 1_555
Ge6 O9 1.905955 1_555
Ge6 O25 1.985764 1_555
Ge6 O24 1.985764 1_555
Ge7 O13 1.878630 1_555
Ge7 O12 1.878630 1_555
Ge7 O11 1.905955 1_555
Ge7 O10 1.905955 1_555
Ge7 O22 1.985764 1_555
Ge7 O23 1.985764 1_555
Ge8 O1 1.739671 1_555
Ge8 O24 1.766863 1_556
Ge8 O17 1.797774 1_555
Ge8 O5 1.819805 1_555
Ge9 O0 1.739671 1_555
Ge9 O25 1.766863 1_555
Ge9 O16 1.797774 1_555
Ge9 O4 1.819805 1_555
O0 Pb3 2.440195 1_545
O0 Pb5 2.667022 1_555
O1 Pb2 2.440195 1_655
O1 Pb5 2.667022 1_555
O2 Pb1 2.440195 1_565
O2 Pb4 2.667022 1_555
O3 Pb0 2.440195 1_455
O3 Pb4 2.667022 1_555
O4 Pb2 2.763049 1_555
O5 Pb3 2.763049 1_555
O6 Pb0 2.763049 1_555
O7 Pb1 2.763049 1_555
O8 Pb4 2.558330 1_555
O9 Pb4 2.558330 1_555
O10 Pb5 2.558330 1_555
O11 Pb5 2.558330 1_555
O12 Pb3 2.311528 1_455
O13 Pb2 2.311528 1_565
O14 Pb1 2.311528 1_655
O15 Pb0 2.311528 1_545
O18 Pb5 2.542231 1_555
O18 Pb3 2.604762 1_545
O19 Pb5 2.542231 1_555
O19 Pb2 2.604762 1_655
O20 Pb4 2.542231 1_555
O20 Pb1 2.604762 1_565
O21 Pb4 2.542231 1_555
O21 Pb0 2.604762 1_455
O22 Pb3 2.606303 1_455
O23 Pb2 2.606303 1_565
O24 Pb1 2.606303 1_655
O25 Pb0 2.606303 1_545
