# generated using pymatgen
data_Na4Zn2In2SiS5O24
_symmetry_space_group_name_H-M   'P 1'
_cell_length_a   9.00088848
_cell_length_b   8.94472006
_cell_length_c   22.89200222
_cell_angle_alpha   90.37365828
_cell_angle_beta   89.11720865
_cell_angle_gamma   119.88639985
_symmetry_Int_Tables_number   1
_chemical_formula_structural   Na4Zn2In2SiS5O24
_chemical_formula_sum   'Na12 Zn6 In6 Si3 S15 O72'
_cell_volume   1597.75656910
_cell_formula_units_Z   3
loop_
 _symmetry_equiv_pos_site_id
 _symmetry_equiv_pos_as_xyz
  1  'x, y, z'
loop_
 _atom_site_type_symbol
 _atom_site_label
 _atom_site_symmetry_multiplicity
 _atom_site_fract_x
 _atom_site_fract_y
 _atom_site_fract_z
 _atom_site_occupancy
  Na  Na0  1  0.99421622  0.62732942  0.24011650  1
  Na  Na1  1  0.99083319  0.34987226  0.76032821  1
  Na  Na2  1  0.37488656  0.99505301  0.75038244  1
  Na  Na3  1  0.65577662  0.97215254  0.59082165  1
  Na  Na4  1  0.67775243  0.68710668  0.07789437  1
  Na  Na5  1  0.33657050  0.03728457  0.42174460  1
  Na  Na6  1  0.01522457  0.00236790  0.49941222  1
  Na  Na7  1  0.01430384  0.99606604  0.00352500  1
  Na  Na8  1  0.66711006  0.32995853  0.84372939  1
  Na  Na9  1  0.66683462  0.33364624  0.33030562  1
  Na  Na10  1  0.31726593  0.66299138  0.16355858  1
  Na  Na11  1  0.35296236  0.68186318  0.66848845  1
  Zn  Zn0  1  0.99354271  0.00101815  0.34590579  1
  Zn  Zn1  1  0.67504139  0.33482713  0.17219311  1
  Zn  Zn2  1  0.68531230  0.34799864  0.99012349  1
  Zn  Zn3  1  0.65220992  0.32619571  0.48677000  1
  Zn  Zn4  1  0.33927706  0.66373953  0.31809639  1
  Zn  Zn5  1  0.36872728  0.68937418  0.82025047  1
  In  In0  1  0.98599798  0.99531549  0.85180671  1
  In  In1  1  0.00027748  0.99528639  0.64824155  1
  In  In2  1  0.00678377  0.00207034  0.15182757  1
  In  In3  1  0.65902264  0.32240898  0.67949209  1
  In  In4  1  0.31735603  0.66932819  0.01762346  1
  In  In5  1  0.32980059  0.66846655  0.51291135  1
  Si  Si0  1  0.70122969  0.99869292  0.74702736  1
  Si  Si1  1  0.35946117  0.02913912  0.57938517  1
  Si  Si2  1  0.96333503  0.63177323  0.08763630  1
  S  S0  1  0.30238977  0.00141040  0.25449407  1
  S  S1  1  0.69799357  0.70238559  0.25248381  1
  S  S2  1  0.00115607  0.29716825  0.25250387  1
  S  S3  1  0.29737577  0.30060098  0.75190179  1
  S  S4  1  0.99837438  0.69648734  0.75112122  1
  S  S5  1  0.96507633  0.33793306  0.58128483  1
  S  S6  1  0.66555270  0.62579255  0.58079503  1
  S  S7  1  0.66589004  0.03758967  0.08261779  1
  S  S8  1  0.37525996  0.33243690  0.08243234  1
  S  S9  1  0.62624648  0.65931043  0.91931943  1
  S  S10  1  0.03801542  0.37151301  0.91337789  1
  S  S11  1  0.33393946  0.97380502  0.91351300  1
  S  S12  1  0.63644388  0.96478867  0.41464798  1
  S  S13  1  0.33210241  0.36966805  0.41468473  1
  S  S14  1  0.02965557  0.66450740  0.41304363  1
  O  O0  1  0.22360825  0.02552960  0.30888593  1
  O  O1  1  0.81489633  0.79355226  0.30155199  1
  O  O2  1  0.98725549  0.19509881  0.30460872  1
  O  O3  1  0.22135338  0.18144925  0.80254811  1
  O  O4  1  0.97593119  0.77758197  0.80451578  1
  O  O5  1  0.83689962  0.04535411  0.79990545  1
  O  O6  1  0.78027511  0.97510024  0.68450803  1
  O  O7  1  0.19459996  0.22233552  0.69838320  1
  O  O8  1  0.03700347  0.80976326  0.69910457  1
  O  O9  1  0.77233878  0.80114287  0.19640377  1
  O  O10  1  0.02421111  0.21755293  0.19784406  1
  O  O11  1  0.18709013  0.96919925  0.20343522  1
  O  O12  1  0.89930380  0.36625177  0.63866419  1
  O  O13  1  0.47167725  0.10522768  0.64030638  1
  O  O14  1  0.65452095  0.53531528  0.63649459  1
  O  O15  1  0.88601808  0.53461291  0.15014977  1
  O  O16  1  0.63390889  0.10948964  0.13663775  1
  O  O17  1  0.47311192  0.34974861  0.13589227  1
  O  O18  1  0.45027487  0.30286908  0.02922092  1
  O  O19  1  0.83743747  0.54611267  0.03278154  1
  O  O20  1  0.67811712  0.13374085  0.02926614  1
  O  O21  1  0.44753057  0.13434423  0.51977865  1
  O  O22  1  0.68824601  0.54184143  0.52922613  1
  O  O23  1  0.85641558  0.32556350  0.53238695  1
  O  O24  1  0.54310092  0.67984214  0.97373095  1
  O  O25  1  0.14178058  0.45902109  0.96536060  1
  O  O26  1  0.30827685  0.86441720  0.96533751  1
  O  O27  1  0.56641581  0.86870788  0.47165011  1
  O  O28  1  0.30964214  0.44692350  0.47011765  1
  O  O29  1  0.14282889  0.69790777  0.46509616  1
  O  O30  1  0.11118631  0.64103304  0.35962008  1
  O  O31  1  0.51624360  0.87103809  0.36693570  1
  O  O32  1  0.34681098  0.47463637  0.36366526  1
  O  O33  1  0.12276109  0.46749842  0.85872485  1
  O  O34  1  0.34873535  0.89218793  0.85837587  1
  O  O35  1  0.52887807  0.64907166  0.86670499  1
  O  O36  1  0.02026480  0.82771574  0.40909140  1
  O  O37  1  0.80756384  0.98243073  0.40705975  1
  O  O38  1  0.17945450  0.19163290  0.41158719  1
  O  O39  1  0.02444911  0.19677681  0.91365188  1
  O  O40  1  0.17447239  0.99019929  0.91123287  1
  O  O41  1  0.80157313  0.81778671  0.91707086  1
  O  O42  1  0.96533321  0.17078390  0.58339552  1
  O  O43  1  0.16987245  0.01100898  0.58520198  1
  O  O44  1  0.81360034  0.80576188  0.58238756  1
  O  O45  1  0.97583519  0.82560705  0.08873213  1
  O  O46  1  0.82613390  0.02602687  0.08732302  1
  O  O47  1  0.19445096  0.18929657  0.08778920  1
  O  O48  1  0.68432776  0.17734174  0.74683011  1
  O  O49  1  0.47367331  0.32672437  0.74542964  1
  O  O50  1  0.83968090  0.52686137  0.74427535  1
  O  O51  1  0.68399801  0.52972520  0.24888038  1
  O  O52  1  0.84500780  0.31333433  0.24936699  1
  O  O53  1  0.47307500  0.15346781  0.24530446  1
  O  O54  1  0.64024207  0.50223556  0.92182664  1
  O  O55  1  0.86451524  0.35178378  0.91813720  1
  O  O56  1  0.48757191  0.14434271  0.91962408  1
  O  O57  1  0.64822053  0.13758062  0.41834337  1
  O  O58  1  0.48914971  0.35315001  0.41715480  1
  O  O59  1  0.85895773  0.51161943  0.42197147  1
  O  O60  1  0.37475869  0.50144314  0.07806348  1
  O  O61  1  0.15513399  0.65148877  0.08289889  1
  O  O62  1  0.52097387  0.85347574  0.07841755  1
  O  O63  1  0.35616068  0.84040464  0.57774343  1
  O  O64  1  0.50653690  0.63952096  0.57831773  1
  O  O65  1  0.14333410  0.48243665  0.57606381  1
  O  O66  1  0.31006648  0.83715634  0.25815008  1
  O  O67  1  0.52741053  0.68753982  0.25937545  1
  O  O68  1  0.15487241  0.47535592  0.25518573  1
  O  O69  1  0.30181865  0.46640503  0.76065967  1
  O  O70  1  0.14646884  0.66769412  0.75659288  1
  O  O71  1  0.50773843  0.83473105  0.75455739  1
loop_
_geom_bond_atom_site_label_1
_geom_bond_atom_site_label_2
_geom_bond_distance
_geom_bond_site_symmetry_2
Na0 O15 2.261079 1_555
Na0 O52 2.444734 1_555
Na0 O68 2.457306 1_655
Na0 O51 2.480869 1_555
Na0 O66 2.546348 1_655
Na0 O11 2.787114 1_655
Na0 O30 2.926291 1_655
Na0 O1 3.014625 1_555
Na1 O48 2.421842 1_555
Na1 O69 2.452479 1_655
Na1 O70 2.466201 1_655
Na1 O5 2.528301 1_555
Na1 O33 2.529275 1_655
Na1 O50 2.581029 1_555
Na1 O12 2.941677 1_555
Na1 O7 2.942778 1_655
Na2 O71 2.282478 1_555
Na2 O48 2.427295 1_565
Na2 O34 2.609520 1_555
Na2 O70 2.611156 1_555
Na2 O49 2.641452 1_565
Na2 O13 2.681233 1_565
Na2 O3 2.887019 1_565
Na2 O8 2.904388 1_555
Na3 O63 2.367341 1_555
Na3 O6 2.428973 1_555
Na3 O42 2.450491 1_565
Na3 O44 2.522917 1_555
Na3 O64 2.599334 1_555
Na3 O13 2.708537 1_565
Na3 O27 2.870279 1_555
Na4 O45 2.344978 1_555
Na4 O60 2.383668 1_555
Na4 O62 2.509579 1_555
Na4 O19 2.542947 1_555
Na4 O46 2.643109 1_565
Na4 O24 2.677230 1_554
Na4 O9 2.880076 1_555
Na4 O17 2.949417 1_555
Na5 O38 2.433122 1_555
Na5 O21 2.442779 1_555
Na5 O58 2.451979 1_555
Na5 O57 2.483127 1_555
Na5 O36 2.530451 1_545
Na5 O0 2.773176 1_555
Na5 O29 2.819823 1_545
Na5 O31 2.951374 1_545
Na6 O43 2.403225 1_555
Na6 O38 2.559705 1_555
Na6 O36 2.596777 1_545
Na6 O44 2.598258 1_445
Na6 O42 2.603262 1_455
Na6 O37 2.789207 1_445
Na7 O45 2.396075 1_455
Na7 O40 2.554397 1_554
Na7 O47 2.568553 1_565
Na7 O46 2.639287 1_465
Na7 O41 2.675600 1_454
Na7 O39 2.709843 1_564
Na8 O56 2.379875 1_555
Na8 O55 2.416574 1_555
Na8 O54 2.439556 1_555
Na8 O48 2.639847 1_555
Na8 O50 2.813373 1_555
Na8 O49 2.857571 1_555
Na9 O52 2.496473 1_555
Na9 O51 2.517564 1_555
Na9 O53 2.586095 1_555
Na9 O58 2.591633 1_555
Na9 O57 2.628359 1_555
Na9 O59 2.693101 1_555
Na10 O61 2.341063 1_555
Na10 O68 2.619095 1_555
Na10 O60 2.619806 1_555
Na10 O62 2.623663 1_555
Na10 O66 2.678116 1_555
Na10 O67 2.853906 1_555
Na11 O71 2.417353 1_555
Na11 O63 2.514574 1_555
Na11 O64 2.595902 1_555
Na11 O70 2.681689 1_555
Na11 O69 2.741729 1_555
Na11 O65 2.817497 1_555
In0 O5 2.016840 1_565
In0 O39 2.175250 1_665
In0 O4 2.184690 1_555
In0 O41 2.199285 1_555
In0 O40 2.209056 1_655
In0 O3 2.228714 1_665
In1 O43 2.037981 1_565
In1 O6 2.058663 1_455
In1 O8 2.191465 1_555
In1 O7 2.234459 1_565
In1 O44 2.275045 1_455
In1 O42 2.302946 1_465
In2 O45 2.049319 1_445
In2 O10 2.127576 1_555
In2 O11 2.157584 1_545
In2 O9 2.214138 1_445
In2 O47 2.223407 1_555
In2 O46 2.301223 1_455
In3 O13 2.044831 1_555
In3 O48 2.107908 1_555
In3 O14 2.167892 1_555
In3 O12 2.191359 1_555
In3 O49 2.246993 1_555
In3 O50 2.294191 1_555
In4 O61 2.023376 1_555
In4 O25 2.129274 1_554
In4 O26 2.157956 1_554
In4 O24 2.212457 1_554
In4 O62 2.247028 1_555
In4 O60 2.293182 1_555
In5 O63 2.059525 1_555
In5 O28 2.131042 1_555
In5 O29 2.145190 1_555
In5 O27 2.189667 1_555
In5 O65 2.202089 1_555
In5 O64 2.308330 1_555
O0 S0 1.490465 1_555
O0 Zn0 2.133151 1_455
O1 S1 1.484340 1_555
O1 Zn0 2.027870 1_565
O2 S2 1.472309 1_655
O2 Zn0 2.007878 1_555
O3 S3 1.487684 1_555
O4 S4 1.479142 1_555
O5 Si0 1.631477 1_545
O6 Si0 1.647228 1_555
O7 S3 1.491706 1_555
O8 S4 1.489070 1_455
O9 S1 1.508458 1_555
O10 S2 1.497843 1_555
O11 S0 1.503738 1_565
O12 S5 1.503708 1_555
O13 Si1 1.665619 1_555
O14 S6 1.490002 1_555
O15 Si2 1.634114 1_555
O15 Zn1 1.911698 1_555
O16 S7 1.479481 1_555
O16 Zn1 2.026413 1_555
O17 S8 1.480619 1_555
O17 Zn1 2.074025 1_555
O18 S8 1.469035 1_555
O18 Zn2 2.129521 1_554
O19 Si2 1.616814 1_555
O19 Zn2 1.889251 1_554
O20 S7 1.469238 1_555
O20 Zn2 2.092106 1_554
O21 Si1 1.617354 1_555
O21 Zn3 1.932171 1_555
O22 S6 1.460507 1_555
O22 Zn3 2.032779 1_555
O23 S5 1.464950 1_555
O23 Zn3 2.130366 1_555
O24 S9 1.500186 1_555
O25 S10 1.481423 1_555
O26 S11 1.483118 1_555
O27 S12 1.512640 1_555
O28 S13 1.499518 1_555
O29 S14 1.508734 1_555
O30 S14 1.483522 1_555
O30 Zn4 2.164843 1_555
O31 S12 1.478858 1_555
O31 Zn4 2.076008 1_555
O32 S13 1.465887 1_555
O32 Zn4 2.023209 1_555
O33 S10 1.488698 1_555
O33 Zn5 2.280327 1_555
O34 S11 1.491153 1_555
O34 Zn5 2.094023 1_555
O35 S9 1.475896 1_555
O35 Zn5 1.977089 1_555
O36 S14 1.507126 1_555
O36 Zn0 2.228121 1_465
O37 S12 1.475563 1_555
O37 Zn0 2.107872 1_565
O38 S13 1.499943 1_555
O38 Zn0 2.273485 1_455
O39 S10 1.505896 1_555
O40 S11 1.515458 1_555
O41 S9 1.507169 1_555
O42 S5 1.497352 1_555
O43 Si1 1.635101 1_555
O44 S6 1.493788 1_555
O45 Si2 1.680604 1_555
O46 S7 1.502075 1_555
O47 S8 1.490726 1_555
O48 Si0 1.678998 1_545
O49 S3 1.489391 1_555
O50 S4 1.486918 1_555
O51 S1 1.487487 1_555
O51 Zn1 2.439647 1_555
O52 S2 1.485665 1_655
O52 Zn1 2.424729 1_555
O53 S0 1.471673 1_555
O53 Zn1 2.395873 1_555
O54 S9 1.473370 1_555
O54 Zn2 2.262230 1_555
O55 S10 1.483963 1_655
O55 Zn2 2.276593 1_555
O56 S11 1.469595 1_545
O56 Zn2 2.431023 1_555
O57 S12 1.497498 1_545
O57 Zn3 2.282148 1_555
O58 S13 1.494624 1_555
O58 Zn3 2.276317 1_555
O59 S14 1.473980 1_655
O59 Zn3 2.299001 1_555
O60 S8 1.517921 1_555
O61 Si2 1.647503 1_455
O62 S7 1.511231 1_565
O63 Si1 1.673758 1_565
O64 S6 1.498203 1_555
O65 S5 1.479418 1_455
O66 S0 1.507746 1_565
O66 Zn4 2.191743 1_555
O67 S1 1.479728 1_555
O67 Zn4 2.072229 1_555
O68 S2 1.504029 1_555
O68 Zn4 2.218811 1_555
O69 S3 1.475994 1_555
O69 Zn5 2.234743 1_555
O70 S4 1.485447 1_455
O70 Zn5 2.421324 1_555
O71 Si0 1.631677 1_555
O71 Zn5 1.965674 1_555
