# generated using pymatgen
data_MgMnVP2(O4F)2
_symmetry_space_group_name_H-M   'P 1'
_cell_length_a   5.25600390
_cell_length_b   5.36326233
_cell_length_c   7.44174322
_cell_angle_alpha   109.80414889
_cell_angle_beta   104.64521158
_cell_angle_gamma   96.96481414
_symmetry_Int_Tables_number   1
_chemical_formula_structural   MgMnVP2(O4F)2
_chemical_formula_sum   'Mg1 Mn1 V1 P2 O8 F2'
_cell_volume   185.95912152
_cell_formula_units_Z   1
loop_
 _symmetry_equiv_pos_site_id
 _symmetry_equiv_pos_as_xyz
  1  'x, y, z'
loop_
 _atom_site_type_symbol
 _atom_site_label
 _atom_site_symmetry_multiplicity
 _atom_site_fract_x
 _atom_site_fract_y
 _atom_site_fract_z
 _atom_site_occupancy
  Mg  Mg0  1  0.91017200  0.55754500  0.15684300  1
  Mn  Mn0  1  0.51376000  0.50035000  0.50795200  1
  V  V0  1  0.99716300  0.99219700  0.98525200  1
  P  P0  1  0.44135100  0.12649000  0.75829800  1
  P  P1  1  0.55035100  0.87711400  0.23952600  1
  O  O0  1  0.27815000  0.14347800  0.90526800  1
  O  O1  1  0.37906000  0.83653800  0.59757700  1
  O  O2  1  0.36427900  0.33130900  0.66067300  1
  O  O3  1  0.23868700  0.78977500  0.13885300  1
  O  O4  1  0.74653700  0.22356100  0.89272800  1
  O  O5  1  0.65173900  0.66766600  0.33177900  1
  O  O6  1  0.64113000  0.17427300  0.38551800  1
  O  O7  1  0.70761600  0.83261100  0.08210200  1
  F  F0  1  0.11598300  0.32326600  0.24764400  1
  F  F1  1  0.87652200  0.67382600  0.74391600  1
loop_
_geom_bond_atom_site_label_1
_geom_bond_atom_site_label_2
_geom_bond_distance
_geom_bond_site_symmetry_2
Mg0 O4 2.048734 1_554
Mg0 O7 2.063166 1_555
Mg0 O3 2.063722 1_655
Mg0 O5 2.111008 1_555
Mn0 O2 1.925578 1_555
Mn0 O6 1.961990 1_555
Mn0 O1 1.982575 1_555
Mn0 O5 2.042094 1_555
O0 P0 1.538225 1_555
O0 V0 1.916999 1_445
O1 P0 1.540843 1_565
O2 P0 1.548701 1_555
O3 P1 1.555515 1_555
O3 V0 2.130276 1_454
O4 P0 1.574152 1_555
O4 V0 2.065383 1_545
O5 P1 1.581106 1_555
O6 P1 1.525839 1_545
O7 P1 1.568656 1_555
O7 V0 2.055439 1_554
F0 Mg0 1.934138 1_455
F0 V0 2.029954 1_444
F0 Mn0 2.291171 1_555
F1 V0 1.904394 1_555
F1 Mn0 2.086682 1_555
