# generated using pymatgen
data_Mg2NCl
_symmetry_space_group_name_H-M   'P 1'
_cell_length_a   3.32133300
_cell_length_b   3.32133346
_cell_length_c   18.00893100
_cell_angle_alpha   90.00000000
_cell_angle_beta   90.00000000
_cell_angle_gamma   120.00000533
_symmetry_Int_Tables_number   1
_chemical_formula_structural   Mg2NCl
_chemical_formula_sum   'Mg6 N3 Cl3'
_cell_volume   172.04555013
_cell_formula_units_Z   3
loop_
 _symmetry_equiv_pos_site_id
 _symmetry_equiv_pos_as_xyz
  1  'x, y, z'
loop_
 _atom_site_type_symbol
 _atom_site_label
 _atom_site_symmetry_multiplicity
 _atom_site_fract_x
 _atom_site_fract_y
 _atom_site_fract_z
 _atom_site_occupancy
  Mg  Mg0  1  0.00000000  0.00000000  0.22281500  1
  Mg  Mg1  1  0.00000000  0.00000000  0.77718500  1
  Mg  Mg2  1  0.66666700  0.33333300  0.55614800  1
  Mg  Mg3  1  0.66666700  0.33333300  0.11051800  1
  Mg  Mg4  1  0.33333300  0.66666700  0.88948200  1
  Mg  Mg5  1  0.33333300  0.66666700  0.44385200  1
  N  N0  1  0.00000000  0.00000000  0.50000000  1
  N  N1  1  0.66666700  0.33333300  0.83333300  1
  N  N2  1  0.33333300  0.66666700  0.16666700  1
  Cl  Cl0  1  0.00000000  0.00000000  0.00000000  1
  Cl  Cl1  1  0.66666700  0.33333300  0.33333300  1
  Cl  Cl2  1  0.33333300  0.66666700  0.66666700  1
loop_
_geom_bond_atom_site_label_1
_geom_bond_atom_site_label_2
_geom_bond_distance
_geom_bond_site_symmetry_2
Mg0 N2 2.167841 1_545
Mg0 N2 2.167843 1_445
Mg0 N2 2.167843 1_555
Mg1 N1 2.167841 1_455
Mg1 N1 2.167843 1_555
Mg1 N1 2.167843 1_445
Mg2 N0 2.167841 1_655
Mg2 N0 2.167843 1_555
Mg2 N0 2.167843 1_665
Mg3 N2 2.167849 1_655
Mg3 N2 2.167849 1_545
Mg3 N2 2.167854 1_555
Mg4 N1 2.167849 1_455
Mg4 N1 2.167849 1_565
Mg4 N1 2.167854 1_555
Mg5 N0 2.167841 1_565
Mg5 N0 2.167843 1_665
Mg5 N0 2.167843 1_555
Cl0 Mg3 2.763768 1_455
Cl0 Mg4 2.763768 1_544
Cl0 Mg3 2.763770 1_555
Cl0 Mg4 2.763770 1_444
Cl0 Mg3 2.763770 1_445
Cl0 Mg4 2.763770 1_554
Cl1 Mg0 2.763768 1_655
Cl1 Mg0 2.763770 1_555
Cl1 Mg0 2.763770 1_665
Cl1 Mg5 2.763781 1_655
Cl1 Mg5 2.763781 1_545
Cl1 Mg5 2.763785 1_555
Cl2 Mg1 2.763768 1_565
Cl2 Mg1 2.763770 1_665
Cl2 Mg1 2.763770 1_555
Cl2 Mg2 2.763781 1_455
Cl2 Mg2 2.763781 1_565
Cl2 Mg2 2.763785 1_555
