# generated using pymatgen
data_K2Mg(FeO2)2
_symmetry_space_group_name_H-M   'P 1'
_cell_length_a   6.97202597
_cell_length_b   6.97202590
_cell_length_c   7.51422247
_cell_angle_alpha   68.62659038
_cell_angle_beta   111.37340985
_cell_angle_gamma   154.89242415
_symmetry_Int_Tables_number   1
_chemical_formula_structural   K2Mg(FeO2)2
_chemical_formula_sum   'K2 Mg1 Fe2 O4'
_cell_volume   143.77846566
_cell_formula_units_Z   1
loop_
 _symmetry_equiv_pos_site_id
 _symmetry_equiv_pos_as_xyz
  1  'x, y, z'
loop_
 _atom_site_type_symbol
 _atom_site_label
 _atom_site_symmetry_multiplicity
 _atom_site_fract_x
 _atom_site_fract_y
 _atom_site_fract_z
 _atom_site_occupancy
  K  K0  1  0.26348951  0.78577571  0.78103976  1
  K  K1  1  0.78577571  0.26348951  0.21896024  1
  Mg  Mg0  1  0.02460362  0.02460362  0.50000000  1
  Fe  Fe0  1  0.06038659  0.98748769  0.17678893  1
  Fe  Fe1  1  0.98748769  0.06038659  0.82321107  1
  O  O0  1  0.13793719  0.91145044  0.00203713  1
  O  O1  1  0.45523245  0.59363680  0.59901940  1
  O  O2  1  0.59363680  0.45523245  0.40098060  1
  O  O3  1  0.91145044  0.13793719  0.99796287  1
loop_
_geom_bond_atom_site_label_1
_geom_bond_atom_site_label_2
_geom_bond_distance
_geom_bond_site_symmetry_2
K0 O3 2.560242 1_455
K0 O3 2.560461 1_565
K0 O0 2.792992 1_556
K1 O0 2.560242 1_545
K1 O0 2.560461 1_655
K1 O3 2.792992 1_554
Mg0 O1 2.063739 1_555
Mg0 O2 2.063740 1_555
Mg0 O2 2.064492 1_445
Mg0 O1 2.064492 1_445
Fe0 O0 1.960021 1_555
Fe0 O3 1.977959 1_464
Fe0 O2 2.183530 1_455
Fe0 O2 2.185622 1_565
Fe1 O3 1.960021 1_555
Fe1 O0 1.977959 1_646
Fe1 O1 2.183530 1_545
Fe1 O1 2.185622 1_655
