# generated using pymatgen
data_Na3Si2Sn2PO12
_symmetry_space_group_name_H-M   'P 1'
_cell_length_a   15.64658355
_cell_length_b   9.06762777
_cell_length_c   9.10433727
_cell_angle_alpha   90.00000000
_cell_angle_beta   125.23054672
_cell_angle_gamma   90.00000000
_symmetry_Int_Tables_number   1
_chemical_formula_structural   Na3Si2Sn2PO12
_chemical_formula_sum   'Na12 Si8 Sn8 P4 O48'
_cell_volume   1055.10867281
_cell_formula_units_Z   4
loop_
 _symmetry_equiv_pos_site_id
 _symmetry_equiv_pos_as_xyz
  1  'x, y, z'
loop_
 _atom_site_type_symbol
 _atom_site_label
 _atom_site_symmetry_multiplicity
 _atom_site_fract_x
 _atom_site_fract_y
 _atom_site_fract_z
 _atom_site_occupancy
  Na  Na0  1  0.24493595  0.77150123  0.99601722  1
  Na  Na1  1  0.74493595  0.72849877  0.49601722  1
  Na  Na2  1  0.74493595  0.27150123  0.99601722  1
  Na  Na3  1  0.24493595  0.22849877  0.49601722  1
  Na  Na4  1  0.50222309  0.10784885  0.75002733  1
  Na  Na5  1  0.50222309  0.89215115  0.25002733  1
  Na  Na6  1  0.00222309  0.60784885  0.75002733  1
  Na  Na7  1  0.00222309  0.39215115  0.25002733  1
  Na  Na8  1  0.80826457  0.93401540  0.21395077  1
  Na  Na9  1  0.80826457  0.06598460  0.71395077  1
  Na  Na10  1  0.30826457  0.43401540  0.21395077  1
  Na  Na11  1  0.30826457  0.56598460  0.71395077  1
  Si  Si0  1  0.35351411  0.89565965  0.75423155  1
  Si  Si1  1  0.64872101  0.89493581  0.74517326  1
  Si  Si2  1  0.64872101  0.10506419  0.24517326  1
  Si  Si3  1  0.35351411  0.10434035  0.25423155  1
  Si  Si4  1  0.85351411  0.39565965  0.75423155  1
  Si  Si5  1  0.14872101  0.39493581  0.74517326  1
  Si  Si6  1  0.14872101  0.60506419  0.24517326  1
  Si  Si7  1  0.85351411  0.60434035  0.25423155  1
  Sn  Sn0  1  0.10333044  0.75024339  0.55904667  1
  Sn  Sn1  1  0.89688413  0.74534244  0.93646993  1
  Sn  Sn2  1  0.89688413  0.25465756  0.43646993  1
  Sn  Sn3  1  0.10333044  0.24975661  0.05904667  1
  Sn  Sn4  1  0.60333044  0.25024339  0.55904667  1
  Sn  Sn5  1  0.39688413  0.24534244  0.93646993  1
  Sn  Sn6  1  0.39688413  0.75465756  0.43646993  1
  Sn  Sn7  1  0.60333044  0.74975661  0.05904667  1
  P  P0  1  0.00212928  0.95864648  0.74860740  1
  P  P1  1  0.00212928  0.04135352  0.24860740  1
  P  P2  1  0.50212928  0.45864648  0.74860740  1
  P  P3  1  0.50212928  0.54135352  0.24860740  1
  O  O0  1  0.15226163  0.57774714  0.74323589  1
  O  O1  1  0.85177844  0.57680875  0.75412850  1
  O  O2  1  0.85177844  0.42319125  0.25412850  1
  O  O3  1  0.15226163  0.42225286  0.24323589  1
  O  O4  1  0.65226163  0.07774714  0.74323589  1
  O  O5  1  0.35177844  0.07680875  0.75412850  1
  O  O6  1  0.35177844  0.92319125  0.25412850  1
  O  O7  1  0.65226163  0.92225286  0.24323589  1
  O  O8  1  0.43265859  0.55041188  0.57416399  1
  O  O9  1  0.56554444  0.55453469  0.91789733  1
  O  O10  1  0.56554444  0.44546531  0.41789733  1
  O  O11  1  0.43265859  0.44958812  0.07416399  1
  O  O12  1  0.93265859  0.05041188  0.57416399  1
  O  O13  1  0.06554444  0.05453469  0.91789733  1
  O  O14  1  0.06554444  0.94546531  0.41789733  1
  O  O15  1  0.93265859  0.94958812  0.07416399  1
  O  O16  1  0.25405631  0.81979033  0.73960269  1
  O  O17  1  0.75221967  0.83831121  0.75640263  1
  O  O18  1  0.75221967  0.16168879  0.25640263  1
  O  O19  1  0.25405631  0.18020967  0.23960269  1
  O  O20  1  0.75405631  0.31979033  0.73960269  1
  O  O21  1  0.25221967  0.33831121  0.75640263  1
  O  O22  1  0.25221967  0.66168879  0.25640263  1
  O  O23  1  0.75405631  0.68020967  0.23960269  1
  O  O24  1  0.36000157  0.85477348  0.58702030  1
  O  O25  1  0.64885437  0.86380277  0.92261039  1
  O  O26  1  0.64885437  0.13619723  0.42261039  1
  O  O27  1  0.36000157  0.14522652  0.08702030  1
  O  O28  1  0.86000157  0.35477348  0.58702030  1
  O  O29  1  0.14885437  0.36380277  0.92261039  1
  O  O30  1  0.14885437  0.63619723  0.42261039  1
  O  O31  1  0.86000157  0.64522652  0.08702030  1
  O  O32  1  0.45485545  0.82488270  0.94192776  1
  O  O33  1  0.54661447  0.82690519  0.55939310  1
  O  O34  1  0.54661447  0.17309481  0.05939310  1
  O  O35  1  0.45485545  0.17511730  0.44192776  1
  O  O36  1  0.95485545  0.32488270  0.94192776  1
  O  O37  1  0.04661447  0.32690519  0.55939310  1
  O  O38  1  0.04661447  0.67309481  0.05939310  1
  O  O39  1  0.95485545  0.67511730  0.44192776  1
  O  O40  1  0.07939621  0.85524088  0.74532741  1
  O  O41  1  0.92175628  0.86141326  0.75476589  1
  O  O42  1  0.92175628  0.13858674  0.25476589  1
  O  O43  1  0.07939621  0.14475912  0.24532741  1
  O  O44  1  0.57939621  0.35524088  0.74532741  1
  O  O45  1  0.42175628  0.36141326  0.75476589  1
  O  O46  1  0.42175628  0.63858674  0.25476589  1
  O  O47  1  0.57939621  0.64475912  0.24532741  1
loop_
_geom_bond_atom_site_label_1
_geom_bond_atom_site_label_2
_geom_bond_distance
_geom_bond_site_symmetry_2
Na0 O40 2.382033 1_555
Na0 O6 2.382514 1_556
Na0 O16 2.458915 1_555
Na0 O22 2.512508 1_556
Na0 O0 2.575962 1_555
Na0 O46 2.671494 1_556
Na1 O47 2.382033 1_555
Na1 O1 2.382514 1_555
Na1 O23 2.458915 1_555
Na1 O17 2.512508 1_555
Na1 O7 2.575962 1_555
Na1 O41 2.671494 1_555
Na2 O44 2.382033 1_555
Na2 O2 2.382514 1_556
Na2 O20 2.458915 1_555
Na2 O18 2.512508 1_556
Na2 O4 2.575962 1_555
Na2 O42 2.671494 1_556
Na3 O43 2.382033 1_555
Na3 O5 2.382514 1_555
Na3 O19 2.458915 1_555
Na3 O21 2.512508 1_555
Na3 O3 2.575962 1_555
Na3 O45 2.671494 1_555
Na4 O5 2.392295 1_555
Na4 O4 2.399370 1_555
Na4 O35 2.528057 1_555
Na4 O34 2.551167 1_556
Na4 O44 2.559629 1_555
Na4 O45 2.633654 1_555
Na4 O25 2.910407 1_545
Na4 O24 2.934320 1_545
Na5 O6 2.392295 1_555
Na5 O7 2.399370 1_555
Na5 O32 2.528057 1_554
Na5 O33 2.551167 1_555
Na5 O47 2.559629 1_555
Na5 O46 2.633654 1_555
Na5 O26 2.910407 1_565
Na5 O27 2.934320 1_565
Na6 O1 2.392295 1_455
Na6 O0 2.399370 1_555
Na6 O39 2.528057 1_455
Na6 O38 2.551167 1_556
Na6 O40 2.559629 1_555
Na6 O41 2.633654 1_455
Na6 O29 2.910407 1_555
Na6 O28 2.934320 1_455
Na7 O2 2.392295 1_455
Na7 O3 2.399370 1_555
Na7 O36 2.528057 1_454
Na7 O37 2.551167 1_555
Na7 O43 2.559629 1_555
Na7 O42 2.633654 1_455
Na7 O30 2.910407 1_555
Na7 O31 2.934320 1_455
Na8 O18 2.360374 1_565
Na8 O42 2.443569 1_565
Na8 O25 2.455427 1_554
Na8 O23 2.509780 1_555
Na8 O7 2.606026 1_555
Na8 O15 2.878492 1_555
Na8 O12 2.879758 1_565
Na9 O17 2.360374 1_545
Na9 O41 2.443569 1_545
Na9 O26 2.455427 1_555
Na9 O20 2.509780 1_555
Na9 O4 2.606026 1_555
Na9 O12 2.878492 1_555
Na9 O15 2.879758 1_546
Na10 O22 2.360374 1_555
Na10 O46 2.443569 1_555
Na10 O29 2.455427 1_554
Na10 O19 2.509780 1_555
Na10 O3 2.606026 1_555
Na10 O11 2.878492 1_555
Na10 O8 2.879758 1_555
Na11 O21 2.360374 1_555
Na11 O45 2.443569 1_555
Na11 O30 2.455427 1_555
Na11 O16 2.509780 1_555
Na11 O0 2.606026 1_555
Na11 O8 2.878492 1_555
Na11 O11 2.879758 1_556
O0 Si5 1.659024 1_555
O0 Sn0 2.088896 1_555
O1 Si4 1.642808 1_555
O1 Sn1 2.058561 1_555
O2 Si7 1.642808 1_555
O2 Sn2 2.058561 1_555
O3 Si6 1.659024 1_555
O3 Sn3 2.088896 1_555
O4 Si1 1.659024 1_545
O4 Sn4 2.088896 1_555
O5 Si0 1.642808 1_545
O5 Sn5 2.058561 1_555
O6 Si3 1.642808 1_565
O6 Sn6 2.058561 1_555
O7 Si2 1.659024 1_565
O7 Sn7 2.088896 1_555
O8 P2 1.550654 1_555
O8 Sn6 2.122562 1_555
O9 P2 1.533503 1_555
O9 Sn7 2.063491 1_556
O10 P3 1.533503 1_555
O10 Sn4 2.063491 1_555
O11 P3 1.550654 1_555
O11 Sn5 2.122562 1_554
O12 P0 1.550654 1_645
O12 Sn2 2.122562 1_555
O13 P0 1.533503 1_545
O13 Sn3 2.063491 1_556
O14 P1 1.533503 1_565
O14 Sn0 2.063491 1_555
O15 P1 1.550654 1_665
O15 Sn1 2.122562 1_554
O16 Si0 1.635107 1_555
O16 Sn0 2.046694 1_555
O17 Si1 1.644849 1_555
O17 Sn1 2.059240 1_555
O18 Si2 1.644849 1_555
O18 Sn2 2.059240 1_555
O19 Si3 1.635107 1_555
O19 Sn3 2.046694 1_555
O20 Si4 1.635107 1_555
O20 Sn4 2.046694 1_555
O21 Si5 1.644849 1_555
O21 Sn5 2.059240 1_555
O22 Si6 1.644849 1_555
O22 Sn6 2.059240 1_555
O23 Si7 1.635107 1_555
O23 Sn7 2.046694 1_555
O24 Si0 1.625909 1_555
O24 Sn6 1.987073 1_555
O25 Si1 1.638744 1_555
O25 Sn7 2.034836 1_556
O26 Si2 1.638744 1_555
O26 Sn4 2.034836 1_555
O27 Si3 1.625909 1_555
O27 Sn5 1.987073 1_554
O28 Si4 1.625909 1_555
O28 Sn2 1.987073 1_555
O29 Si5 1.638744 1_555
O29 Sn3 2.034836 1_556
O30 Si6 1.638744 1_555
O30 Sn0 2.034836 1_555
O31 Si7 1.625909 1_555
O31 Sn1 1.987073 1_554
O32 Si0 1.649279 1_555
O32 Sn7 2.034698 1_556
O33 Si1 1.635887 1_555
O33 Sn6 2.035989 1_555
O34 Si2 1.635887 1_555
O34 Sn5 2.035989 1_554
O35 Si3 1.649279 1_555
O35 Sn4 2.034698 1_555
O36 Si4 1.649279 1_555
O36 Sn3 2.034698 1_656
O37 Si5 1.635887 1_555
O37 Sn2 2.035989 1_455
O38 Si6 1.635887 1_555
O38 Sn1 2.035989 1_454
O39 Si7 1.649279 1_555
O39 Sn0 2.034698 1_655
O40 P0 1.543798 1_555
O40 Sn0 2.157717 1_555
O41 P0 1.563109 1_655
O41 Sn1 2.176841 1_555
O42 P1 1.563109 1_655
O42 Sn2 2.176841 1_555
O43 P1 1.543798 1_555
O43 Sn3 2.157717 1_555
O44 P2 1.543798 1_555
O44 Sn4 2.157717 1_555
O45 P2 1.563109 1_555
O45 Sn5 2.176841 1_555
O46 P3 1.563109 1_555
O46 Sn6 2.176841 1_555
O47 P3 1.543798 1_555
O47 Sn7 2.157717 1_555
