# generated using pymatgen
data_Ni2GeO4
_symmetry_space_group_name_H-M   'P 1'
_cell_length_a   5.81310287
_cell_length_b   5.81307799
_cell_length_c   5.81308976
_cell_angle_alpha   59.99993305
_cell_angle_beta   60.00007458
_cell_angle_gamma   60.00009859
_symmetry_Int_Tables_number   1
_chemical_formula_structural   Ni2GeO4
_chemical_formula_sum   'Ni4 Ge2 O8'
_cell_volume   138.90137272
_cell_formula_units_Z   2
loop_
 _symmetry_equiv_pos_site_id
 _symmetry_equiv_pos_as_xyz
  1  'x, y, z'
loop_
 _atom_site_type_symbol
 _atom_site_label
 _atom_site_symmetry_multiplicity
 _atom_site_fract_x
 _atom_site_fract_y
 _atom_site_fract_z
 _atom_site_occupancy
  Ni  Ni0  1  0.50000000  0.00000000  0.50000000  1
  Ni  Ni1  1  0.00000000  0.50000000  0.50000000  1
  Ni  Ni2  1  0.50000000  0.50000000  -0.00000000  1
  Ni  Ni3  1  0.49999900  0.50000000  0.50000100  1
  Ge  Ge0  1  0.12499976  0.12499941  0.12500041  1
  Ge  Ge1  1  0.87500024  0.87500059  0.87499959  1
  O  O0  1  0.74969470  0.74969638  0.74969538  1
  O  O1  1  0.25030530  0.25030462  0.74908545  1
  O  O2  1  0.25030630  0.74908645  0.25030362  1
  O  O3  1  0.74908561  0.25030413  0.25030413  1
  O  O4  1  0.74969270  0.25091455  0.74969538  1
  O  O5  1  0.25091339  0.74969587  0.74969487  1
  O  O6  1  0.25030530  0.25030462  0.25030362  1
  O  O7  1  0.74969370  0.74969638  0.25091455  1
loop_
_geom_bond_atom_site_label_1
_geom_bond_atom_site_label_2
_geom_bond_distance
_geom_bond_site_symmetry_2
Ni0 O3 2.052731 1_555
Ni0 O7 2.052731 1_545
Ni0 O5 2.052735 1_545
Ni0 O1 2.052735 1_555
Ni0 O0 2.052735 1_545
Ni0 O6 2.052739 1_555
Ni1 O1 2.052738 1_555
Ni1 O7 2.052742 1_455
Ni1 O0 2.052742 1_455
Ni1 O6 2.052742 1_555
Ni1 O2 2.052743 1_555
Ni1 O4 2.052743 1_455
Ni2 O6 2.052732 1_555
Ni2 O3 2.052734 1_555
Ni2 O2 2.052735 1_555
Ni2 O4 2.052735 1_554
Ni2 O0 2.052737 1_554
Ni2 O5 2.052742 1_554
Ni3 O4 2.052727 1_555
Ni3 O1 2.052728 1_555
Ni3 O5 2.052734 1_555
Ni3 O2 2.052735 1_555
Ni3 O7 2.052737 1_555
Ni3 O3 2.052746 1_555
Ge0 O2 1.784218 1_545
Ge0 O6 1.784226 1_555
Ge0 O1 1.784230 1_554
Ge0 O3 1.784234 1_455
Ge1 O4 1.784222 1_565
Ge1 O0 1.784226 1_555
Ge1 O5 1.784229 1_655
Ge1 O7 1.784230 1_556
