# generated using pymatgen
data_Ta3PbS6
_symmetry_space_group_name_H-M   'P 1'
_cell_length_a   5.81254966
_cell_length_b   5.81254966
_cell_length_c   14.92587565
_cell_angle_alpha   90.00000000
_cell_angle_beta   90.00000000
_cell_angle_gamma   119.99998201
_symmetry_Int_Tables_number   1
_chemical_formula_structural   Ta3PbS6
_chemical_formula_sum   'Ta6 Pb2 S12'
_cell_volume   436.72080536
_cell_formula_units_Z   2
loop_
 _symmetry_equiv_pos_site_id
 _symmetry_equiv_pos_as_xyz
  1  'x, y, z'
loop_
 _atom_site_type_symbol
 _atom_site_label
 _atom_site_symmetry_multiplicity
 _atom_site_fract_x
 _atom_site_fract_y
 _atom_site_fract_z
 _atom_site_occupancy
  Ta  Ta0  1  -0.00000000  -0.00000000  0.25000000  1
  Ta  Ta1  1  -0.00000000  -0.00000000  0.75000000  1
  Ta  Ta2  1  0.33333300  0.66666700  0.25000000  1
  Ta  Ta3  1  0.66666700  0.33333300  0.75000000  1
  Ta  Ta4  1  0.66666700  0.33333300  0.25000000  1
  Ta  Ta5  1  0.33333300  0.66666700  0.75000000  1
  Pb  Pb0  1  -0.00000000  -0.00000000  0.50064963  1
  Pb  Pb1  1  -0.00000000  -0.00000000  -0.00064963  1
  S  S0  1  0.33624770  0.00000000  0.14648592  1
  S  S1  1  0.00000000  0.33624770  0.14648592  1
  S  S2  1  0.66375230  0.66375230  0.14648592  1
  S  S3  1  0.33639267  0.33639267  0.64644280  1
  S  S4  1  0.66375230  0.66375230  0.35351408  1
  S  S5  1  0.66360733  -0.00000000  0.64644280  1
  S  S6  1  -0.00000000  0.66360733  0.64644280  1
  S  S7  1  -0.00000000  0.66360733  0.85355720  1
  S  S8  1  0.33639267  0.33639267  0.85355720  1
  S  S9  1  0.00000000  0.33624770  0.35351408  1
  S  S10  1  0.33624770  0.00000000  0.35351408  1
  S  S11  1  0.66360733  -0.00000000  0.85355720  1
loop_
_geom_bond_atom_site_label_1
_geom_bond_atom_site_label_2
_geom_bond_distance
_geom_bond_site_symmetry_2
Pb0 S6 2.925503 1_545
Pb0 S5 2.925503 1_455
Pb0 S3 2.925503 1_555
Pb0 S10 2.939876 1_555
Pb0 S9 2.939876 1_555
Pb0 S4 2.939877 1_445
Pb1 S7 2.925503 1_544
Pb1 S11 2.925503 1_454
Pb1 S8 2.925503 1_554
Pb1 S1 2.939876 1_555
Pb1 S0 2.939876 1_555
Pb1 S2 2.939877 1_445
S0 Ta2 2.471552 1_545
S0 Ta4 2.471554 1_555
S0 Ta0 2.491394 1_555
S1 Ta4 2.471552 1_455
S1 Ta2 2.471554 1_555
S1 Ta0 2.491394 1_555
S2 Ta2 2.471556 1_555
S2 Ta4 2.471556 1_555
S2 Ta0 2.491394 1_665
S3 Ta3 2.471634 1_555
S3 Ta5 2.471634 1_555
S3 Ta1 2.492454 1_555
S4 Ta2 2.471556 1_555
S4 Ta4 2.471556 1_555
S4 Ta0 2.491394 1_665
S5 Ta3 2.471630 1_555
S5 Ta5 2.471632 1_545
S5 Ta1 2.492454 1_655
S6 Ta5 2.471630 1_555
S6 Ta3 2.471632 1_455
S6 Ta1 2.492454 1_565
S7 Ta5 2.471630 1_555
S7 Ta3 2.471632 1_455
S7 Ta1 2.492454 1_565
S8 Ta3 2.471634 1_555
S8 Ta5 2.471634 1_555
S8 Ta1 2.492454 1_555
S9 Ta4 2.471552 1_455
S9 Ta2 2.471554 1_555
S9 Ta0 2.491394 1_555
S10 Ta2 2.471552 1_545
S10 Ta4 2.471554 1_555
S10 Ta0 2.491394 1_555
S11 Ta3 2.471630 1_555
S11 Ta5 2.471632 1_545
S11 Ta1 2.492454 1_655
