# generated using pymatgen
data_Na3La2Ge2P5SO24
_symmetry_space_group_name_H-M   'P 1'
_cell_length_a   8.99273779
_cell_length_b   8.95614504
_cell_length_c   22.69732590
_cell_angle_alpha   90.18903316
_cell_angle_beta   90.19781762
_cell_angle_gamma   119.12704005
_symmetry_Int_Tables_number   1
_chemical_formula_structural   Na3La2Ge2P5SO24
_chemical_formula_sum   'Na9 La6 Ge6 P15 S3 O72'
_cell_volume   1596.84288839
_cell_formula_units_Z   3
loop_
 _symmetry_equiv_pos_site_id
 _symmetry_equiv_pos_as_xyz
  1  'x, y, z'
loop_
 _atom_site_type_symbol
 _atom_site_label
 _atom_site_symmetry_multiplicity
 _atom_site_fract_x
 _atom_site_fract_y
 _atom_site_fract_z
 _atom_site_occupancy
  Na  Na0  1  0.00538257  0.35760570  0.75130282  1
  Na  Na1  1  0.67243516  0.94993194  0.58329530  1
  Na  Na2  1  0.05408496  0.32934793  0.08311193  1
  Na  Na3  1  0.01615944  0.99566449  0.49075462  1
  Na  Na4  1  0.00707450  0.98788760  0.99001775  1
  Na  Na5  1  0.65460349  0.32408605  0.83555274  1
  Na  Na6  1  0.67520363  0.33308322  0.33408147  1
  Na  Na7  1  0.35784265  0.67698346  0.16954636  1
  Na  Na8  1  0.33763858  0.66709385  0.66931422  1
  La  La0  1  0.01857792  0.99680087  0.64049563  1
  La  La1  1  0.99826965  0.98133719  0.14149073  1
  La  La2  1  0.33750196  0.67981945  0.01518949  1
  La  La3  1  0.31509702  0.66326665  0.51537813  1
  La  La4  1  0.32658825  0.66581314  0.32394540  1
  La  La5  1  0.33744811  0.67998092  0.82687252  1
  Ge  Ge0  1  0.95235354  0.97555980  0.34658978  1
  Ge  Ge1  1  0.01771558  0.01659627  0.84347776  1
  Ge  Ge2  1  0.66342151  0.33929825  0.68854770  1
  Ge  Ge3  1  0.67575405  0.34255379  0.18624729  1
  Ge  Ge4  1  0.66051568  0.32149710  0.98243987  1
  Ge  Ge5  1  0.67745061  0.34094288  0.48267938  1
  P  P0  1  0.70048615  0.68309828  0.24860883  1
  P  P1  1  0.97610188  0.28083995  0.24793894  1
  P  P2  1  0.30965973  0.29352851  0.75040585  1
  P  P3  1  0.97747375  0.69224350  0.75289908  1
  P  P4  1  0.71288226  0.01555527  0.74626825  1
  P  P5  1  0.94010800  0.34512331  0.58700254  1
  P  P6  1  0.41232142  0.07397789  0.58124601  1
  P  P7  1  0.65537237  0.59835216  0.58314056  1
  P  P8  1  0.93227942  0.59263475  0.08002863  1
  P  P9  1  0.65772441  0.06151132  0.08555643  1
  P  P10  1  0.40485651  0.34319565  0.08470535  1
  P  P11  1  0.99811709  0.33107808  0.91619125  1
  P  P12  1  0.33350617  0.00634107  0.91602313  1
  P  P13  1  0.65864753  0.99944076  0.42044656  1
  P  P14  1  0.99428184  0.66822447  0.41530564  1
  S  S0  1  0.31486867  0.02398008  0.25200876  1
  S  S1  1  0.66993311  0.66695019  0.91709159  1
  S  S2  1  0.33114034  0.32973235  0.41671667  1
  O  O0  1  0.21831444  0.03223988  0.30380474  1
  O  O1  1  0.81542981  0.77791790  0.30499943  1
  O  O2  1  0.95073456  0.15057770  0.30100365  1
  O  O3  1  0.21727224  0.17342955  0.80464627  1
  O  O4  1  0.96977375  0.80121350  0.80675579  1
  O  O5  1  0.84897356  0.04781310  0.79746735  1
  O  O6  1  0.77821118  0.99056869  0.68740210  1
  O  O7  1  0.19876702  0.22454845  0.69581758  1
  O  O8  1  0.00922027  0.78684231  0.69536422  1
  O  O9  1  0.77924030  0.78760745  0.19424660  1
  O  O10  1  0.00642635  0.21767857  0.18950580  1
  O  O11  1  0.22331428  0.00338202  0.19632425  1
  O  O12  1  0.85234352  0.35084277  0.64629252  1
  O  O13  1  0.50423974  0.15962241  0.64048364  1
  O  O14  1  0.65446509  0.50679010  0.64191454  1
  O  O15  1  0.85101166  0.50414890  0.13994260  1
  O  O16  1  0.65358870  0.15588637  0.14290692  1
  O  O17  1  0.50101933  0.35051750  0.14349221  1
  O  O18  1  0.50049132  0.34611401  0.02795674  1
  O  O19  1  0.83887644  0.48985927  0.02457432  1
  O  O20  1  0.65401017  0.14866525  0.02696367  1
  O  O21  1  0.51143906  0.16179203  0.52486354  1
  O  O22  1  0.65070436  0.50133369  0.52602467  1
  O  O23  1  0.84917693  0.34989884  0.52927727  1
  O  O24  1  0.58765731  0.69836809  0.96853637  1
  O  O25  1  0.11281769  0.40637105  0.97111322  1
  O  O26  1  0.29367227  0.88760797  0.96917403  1
  O  O27  1  0.59244182  0.89116997  0.47620254  1
  O  O28  1  0.30045898  0.41125725  0.46883255  1
  O  O29  1  0.11046359  0.71513594  0.46970010  1
  O  O30  1  0.06636521  0.62004372  0.36285940  1
  O  O31  1  0.54067454  0.91755287  0.36787811  1
  O  O32  1  0.36637312  0.43970110  0.36458206  1
  O  O33  1  0.07312771  0.44604163  0.86227017  1
  O  O34  1  0.38511124  0.94086696  0.86224596  1
  O  O35  1  0.56271647  0.63128537  0.86405001  1
  O  O36  1  0.98012169  0.83536850  0.40275087  1
  O  O37  1  0.84008662  0.01727888  0.40672616  1
  O  O38  1  0.17857370  0.15997815  0.40749761  1
  O  O39  1  0.98089189  0.14945925  0.90300756  1
  O  O40  1  0.16578942  0.01485013  0.90401757  1
  O  O41  1  0.83883171  0.81976671  0.90926357  1
  O  O42  1  0.94582467  0.17678270  0.58228940  1
  O  O43  1  0.23773728  0.06137477  0.57432233  1
  O  O44  1  0.81372050  0.77644531  0.57869315  1
  O  O45  1  0.94638783  0.76826545  0.07338023  1
  O  O46  1  0.82559697  0.05547982  0.08198961  1
  O  O47  1  0.22713879  0.18353481  0.08160342  1
  O  O48  1  0.70617522  0.19020563  0.74609638  1
  O  O49  1  0.48594034  0.30105034  0.74473386  1
  O  O50  1  0.80751558  0.51539933  0.74969055  1
  O  O51  1  0.69848254  0.50701261  0.24534026  1
  O  O52  1  0.80705187  0.29346425  0.24580585  1
  O  O53  1  0.48304067  0.18533307  0.25039291  1
  O  O54  1  0.69196804  0.51282623  0.92619193  1
  O  O55  1  0.81245325  0.30190448  0.92621658  1
  O  O56  1  0.48395371  0.19074984  0.92837225  1
  O  O57  1  0.69326863  0.18776150  0.42774873  1
  O  O58  1  0.48469279  0.30751071  0.42547895  1
  O  O59  1  0.81202552  0.51506814  0.42730652  1
  O  O60  1  0.37733532  0.50098416  0.08578294  1
  O  O61  1  0.11006005  0.60568966  0.08184192  1
  O  O62  1  0.50143201  0.88315020  0.08782494  1
  O  O63  1  0.39616115  0.89365630  0.58390188  1
  O  O64  1  0.49704089  0.62365768  0.58475016  1
  O  O65  1  0.11856062  0.50174794  0.58900710  1
  O  O66  1  0.34420527  0.87429021  0.25538257  1
  O  O67  1  0.52149257  0.65640983  0.25700924  1
  O  O68  1  0.12501832  0.45651243  0.26068264  1
  O  O69  1  0.32901828  0.47099899  0.76143746  1
  O  O70  1  0.12434428  0.65110773  0.76074674  1
  O  O71  1  0.53689244  0.86593994  0.75799229  1
loop_
_geom_bond_atom_site_label_1
_geom_bond_atom_site_label_2
_geom_bond_distance
_geom_bond_site_symmetry_2
Na0 O70 2.314587 1_555
Na0 O48 2.360314 1_455
Na0 O69 2.582837 1_555
Na0 O33 2.616991 1_555
Na0 O5 2.646632 1_455
Na0 O12 2.733825 1_455
Na0 O50 2.759087 1_455
Na0 O7 2.837800 1_555
Na1 O63 2.282111 1_555
Na1 O42 2.304511 1_565
Na1 O44 2.441526 1_555
Na1 O6 2.502513 1_555
Na1 O27 2.512724 1_555
Na1 O64 2.557736 1_555
Na2 O61 2.273191 1_555
Na2 O46 2.309062 1_455
Na2 O47 2.471229 1_555
Na2 O60 2.542611 1_555
Na2 O10 2.573184 1_555
Na2 O25 2.623567 1_554
Na3 O36 2.383183 1_455
Na3 O38 2.411406 1_565
Na3 O37 2.542051 1_465
Na3 O43 2.596042 1_565
Na3 O44 2.779253 1_455
Na3 O42 2.886758 1_465
Na4 O40 2.364841 1_565
Na4 O41 2.379223 1_455
Na4 O39 2.529224 1_465
Na4 O45 2.594907 1_456
Na4 O47 2.807087 1_566
Na4 O46 2.892143 1_466
Na5 O49 2.502638 1_555
Na5 O48 2.511414 1_555
Na5 O50 2.524198 1_555
Na5 O56 2.544485 1_555
Na5 O55 2.558545 1_555
Na5 O54 2.573325 1_555
Na6 O52 2.442849 1_555
Na6 O53 2.465776 1_555
Na6 O51 2.496694 1_555
Na6 O57 2.542030 1_555
Na6 O59 2.579671 1_555
Na6 O58 2.633764 1_555
Na7 O62 2.497065 1_555
Na7 O60 2.526156 1_555
Na7 O67 2.527226 1_555
Na7 O66 2.668951 1_555
Na7 O61 2.812723 1_555
Na7 O68 2.931509 1_555
Na8 O64 2.539115 1_555
Na8 O65 2.552251 1_555
Na8 O63 2.673207 1_555
Na8 O71 2.697851 1_555
Na8 O69 2.712071 1_555
Na8 O70 2.787198 1_555
La0 O8 2.226238 1_555
La0 O7 2.261497 1_565
La0 O43 2.321883 1_565
La0 O44 2.383466 1_455
La0 O6 2.389090 1_455
La0 O42 2.409673 1_465
La1 O9 2.242085 1_555
La1 O11 2.296866 1_665
La1 O45 2.314734 1_555
La1 O10 2.346616 1_665
La1 O46 2.381436 1_565
La1 O47 2.402139 1_665
La2 O26 2.330985 1_554
La2 O62 2.357422 1_555
La2 O61 2.370414 1_555
La2 O60 2.415054 1_555
La2 O24 2.421423 1_554
La2 O25 2.496766 1_554
La3 O29 2.345059 1_555
La3 O65 2.357239 1_555
La3 O63 2.390544 1_555
La3 O64 2.415177 1_555
La3 O28 2.433456 1_555
La3 O27 2.499760 1_555
La4 O30 2.346728 1_555
La4 O68 2.349008 1_555
La4 O31 2.351683 1_555
La4 O67 2.355538 1_555
La4 O66 2.380336 1_555
La4 O32 2.407299 1_555
La5 O34 2.301744 1_555
La5 O70 2.342476 1_555
La5 O69 2.357431 1_555
La5 O71 2.358695 1_555
La5 O35 2.420069 1_555
La5 O33 2.421031 1_555
Ge0 O37 1.842633 1_565
Ge0 O1 1.843827 1_555
Ge0 O2 1.886957 1_565
Ge0 O36 1.891370 1_555
Ge0 O38 2.339279 1_665
Ge0 O0 2.399667 1_665
Ge1 O3 1.880278 1_555
Ge1 O40 1.915537 1_555
Ge1 O39 1.930634 1_455
Ge1 O4 1.943945 1_445
Ge1 O5 1.968607 1_455
Ge1 O41 2.279959 1_445
Ge2 O14 1.872044 1_555
Ge2 O13 1.887838 1_555
Ge2 O12 1.912531 1_555
Ge2 O49 1.943121 1_555
Ge2 O50 2.018944 1_555
Ge2 O48 2.035881 1_555
Ge3 O16 1.861663 1_555
Ge3 O15 1.866564 1_555
Ge3 O17 1.874824 1_555
Ge3 O51 1.924115 1_555
Ge3 O52 1.978151 1_555
Ge3 O53 2.182018 1_555
Ge4 O20 1.828460 1_556
Ge4 O19 1.840210 1_556
Ge4 O18 1.872015 1_556
Ge4 O56 1.888205 1_555
Ge4 O55 1.941676 1_555
Ge4 O54 2.047275 1_555
Ge5 O23 1.837786 1_555
Ge5 O21 1.846091 1_555
Ge5 O22 1.848756 1_555
Ge5 O57 1.907029 1_555
Ge5 O59 1.913724 1_555
Ge5 O58 2.063153 1_555
O0 S0 1.486777 1_555
O1 P0 1.599050 1_555
O2 P1 1.617355 1_555
O3 P2 1.583888 1_555
O4 P3 1.584312 1_555
O5 P4 1.604816 1_555
O6 P4 1.520469 1_565
O7 P2 1.515896 1_555
O8 P3 1.509659 1_455
O9 P0 1.506138 1_555
O10 P1 1.516934 1_455
O11 S0 1.467218 1_555
O12 P5 1.575670 1_555
O13 P6 1.564508 1_555
O14 P7 1.566176 1_555
O15 P8 1.568945 1_555
O16 P9 1.560101 1_555
O17 P10 1.571223 1_555
O18 P10 1.544460 1_555
O19 P8 1.539291 1_555
O20 P9 1.552723 1_555
O21 P6 1.543640 1_555
O22 P7 1.547271 1_555
O23 P5 1.553757 1_555
O24 S1 1.482061 1_555
O25 P11 1.543075 1_455
O26 P12 1.534634 1_565
O27 P13 1.532175 1_555
O28 S2 1.483626 1_555
O29 P14 1.533855 1_455
O30 P14 1.515808 1_455
O31 P13 1.521534 1_555
O32 S2 1.475514 1_555
O33 P11 1.533260 1_455
O34 P12 1.520916 1_565
O35 S1 1.473319 1_555
O36 P14 1.589484 1_555
O37 P13 1.592108 1_545
O38 S2 1.484216 1_555
O39 P11 1.584475 1_555
O40 P12 1.569720 1_555
O41 S1 1.480366 1_555
O42 P5 1.536757 1_555
O43 P6 1.525768 1_555
O44 P7 1.540453 1_555
O45 P8 1.523330 1_555
O46 P9 1.539048 1_555
O47 P10 1.541973 1_555
O48 P4 1.594440 1_555
O49 P2 1.559365 1_555
O50 P3 1.578523 1_555
O51 P0 1.569862 1_555
O52 P1 1.578943 1_555
O53 S0 1.499996 1_555
O54 S1 1.501728 1_555
O55 P11 1.576716 1_555
O56 P12 1.567102 1_555
O57 P13 1.567074 1_545
O58 S2 1.500609 1_555
O59 P14 1.568105 1_555
O60 P10 1.548939 1_555
O61 P8 1.545593 1_455
O62 P9 1.531411 1_565
O63 P6 1.550858 1_565
O64 P7 1.547401 1_555
O65 P5 1.533861 1_455
O66 S0 1.489173 1_565
O67 P0 1.520627 1_555
O68 P1 1.515139 1_455
O69 P2 1.532012 1_555
O70 P3 1.544148 1_455
O71 P4 1.520477 1_565
