# generated using pymatgen
data_Na10Y4Nb4Si9(SO16)3
_symmetry_space_group_name_H-M   'P 1'
_cell_length_a   18.57088210
_cell_length_b   9.22579504
_cell_length_c   23.00144533
_cell_angle_alpha   90.15519571
_cell_angle_beta   88.79115123
_cell_angle_gamma   119.84495337
_symmetry_Int_Tables_number   1
_chemical_formula_structural   Na10Y4Nb4Si9(SO16)3
_chemical_formula_sum   'Na30 Y12 Nb12 Si27 S9 O144'
_cell_volume   3417.30941363
_cell_formula_units_Z   3
loop_
 _symmetry_equiv_pos_site_id
 _symmetry_equiv_pos_as_xyz
  1  'x, y, z'
loop_
 _atom_site_type_symbol
 _atom_site_label
 _atom_site_symmetry_multiplicity
 _atom_site_fract_x
 _atom_site_fract_y
 _atom_site_fract_z
 _atom_site_occupancy
  Na  Na0  1  0.18252545  0.35669376  0.24216368  1
  Na  Na1  1  0.68246823  0.35744785  0.24162762  1
  Na  Na2  1  0.18247520  0.00858260  0.74120956  1
  Na  Na3  1  0.68123115  0.00625653  0.74126475  1
  Na  Na4  1  0.65262563  0.34597938  0.58097102  1
  Na  Na5  1  0.02078019  0.70165138  0.57428937  1
  Na  Na6  1  0.51636365  0.67960906  0.58075871  1
  Na  Na7  1  0.32416468  0.97729198  0.58671532  1
  Na  Na8  1  0.15318985  0.96367466  0.08116334  1
  Na  Na9  1  0.65322155  0.96357178  0.08079804  1
  Na  Na10  1  0.32454408  0.67602758  0.08457746  1
  Na  Na11  1  0.82484323  0.67692035  0.08442808  1
  Na  Na12  1  0.01994668  0.35566131  0.08059333  1
  Na  Na13  1  0.51984558  0.35591028  0.08044187  1
  Na  Na14  1  0.49062439  0.67987626  0.91329277  1
  Na  Na15  1  0.99049143  0.67976046  0.91443888  1
  Na  Na16  1  0.35028214  0.66166975  0.40923763  1
  Na  Na17  1  0.84986457  0.67358724  0.40771442  1
  Na  Na18  1  0.01957708  0.03146789  0.49478500  1
  Na  Na19  1  0.51707066  0.01394962  0.49307786  1
  Na  Na20  1  0.01316957  0.03343527  0.99142783  1
  Na  Na21  1  0.51347134  0.03383613  0.99095079  1
  Na  Na22  1  0.34549583  0.33296056  0.82968245  1
  Na  Na23  1  0.84421372  0.33037208  0.83169707  1
  Na  Na24  1  0.34882517  0.33970969  0.33234650  1
  Na  Na25  1  0.85111699  0.33863709  0.32798882  1
  Na  Na26  1  0.16661300  0.67949914  0.16339173  1
  Na  Na27  1  0.66684953  0.67948549  0.16234605  1
  Na  Na28  1  0.17688112  0.65338713  0.66534414  1
  Na  Na29  1  0.67419464  0.67144583  0.65950112  1
  Y  Y0  1  0.00259023  0.99899420  0.35326786  1
  Y  Y1  1  0.50077738  0.99727572  0.35316393  1
  Y  Y2  1  0.99703473  0.00929835  0.85233021  1
  Y  Y3  1  0.49772779  0.01074300  0.85178689  1
  Y  Y4  1  0.33813293  0.34077842  0.68624191  1
  Y  Y5  1  0.83629339  0.33441266  0.68756241  1
  Y  Y6  1  0.33898604  0.33948970  0.18701616  1
  Y  Y7  1  0.83891643  0.33950730  0.18647076  1
  Y  Y8  1  0.16635978  0.66496915  0.01483500  1
  Y  Y9  1  0.66644004  0.66509172  0.01456126  1
  Y  Y10  1  0.16524807  0.66343565  0.51686254  1
  Y  Y11  1  0.66634163  0.67344722  0.51801634  1
  Nb  Nb0  1  0.99378560  0.97975746  0.64780060  1
  Nb  Nb1  1  0.49114070  0.98132014  0.64350732  1
  Nb  Nb2  1  0.99213458  0.99985719  0.14521654  1
  Nb  Nb3  1  0.49176533  0.99984276  0.14492756  1
  Nb  Nb4  1  0.33413921  0.32233637  0.98195152  1
  Nb  Nb5  1  0.83397510  0.32216647  0.98203254  1
  Nb  Nb6  1  0.33447251  0.34020517  0.48345289  1
  Nb  Nb7  1  0.82840089  0.34284828  0.47831188  1
  Nb  Nb8  1  0.15985494  0.63939951  0.31404988  1
  Nb  Nb9  1  0.65914072  0.64342309  0.31312684  1
  Nb  Nb10  1  0.16241793  0.68126007  0.81420873  1
  Nb  Nb11  1  0.66098962  0.68077219  0.81311012  1
  Si  Si0  1  0.34765807  0.70866984  0.25440244  1
  Si  Si1  1  0.84814373  0.70864427  0.25484024  1
  Si  Si2  1  -0.00000623  0.29298327  0.25106563  1
  Si  Si3  1  0.49971893  0.29281285  0.25121224  1
  Si  Si4  1  0.00017368  0.70318238  0.75468051  1
  Si  Si5  1  0.49875550  0.70626802  0.75352621  1
  Si  Si6  1  0.34800474  0.98924496  0.75083096  1
  Si  Si7  1  0.84801179  0.98805583  0.75164558  1
  Si  Si8  1  0.47905489  0.32461098  0.58162425  1
  Si  Si9  1  0.18368270  0.04659497  0.58667554  1
  Si  Si10  1  0.68452780  0.04415742  0.58775362  1
  Si  Si11  1  0.33157318  0.62741806  0.58451306  1
  Si  Si12  1  0.83500539  0.63112726  0.58379273  1
  Si  Si13  1  0.47951744  0.63325405  0.08017963  1
  Si  Si14  1  0.97954980  0.63352340  0.08012001  1
  Si  Si15  1  0.33373586  0.03911917  0.08446127  1
  Si  Si16  1  0.83386770  0.03891410  0.08451407  1
  Si  Si17  1  0.18528521  0.32454970  0.08707854  1
  Si  Si18  1  0.68521584  0.32471763  0.08715083  1
  Si  Si19  1  0.01554684  0.37337952  0.92036430  1
  Si  Si20  1  0.51582167  0.37391246  0.92032433  1
  Si  Si21  1  0.17070782  0.97664716  0.91950968  1
  Si  Si22  1  0.67059268  0.97626335  0.91927175  1
  Si  Si23  1  0.17123145  0.36318292  0.41857154  1
  Si  Si24  1  0.66682461  0.36800859  0.41929370  1
  Si  Si25  1  0.01642210  0.65632450  0.42085299  1
  Si  Si26  1  0.51533374  0.65586646  0.42037896  1
  S  S0  1  0.14361522  0.98537954  0.24670022  1
  S  S1  1  0.64385143  0.98569274  0.24724345  1
  S  S2  1  0.14215720  0.29803637  0.74785405  1
  S  S3  1  0.64455846  0.30309310  0.74758473  1
  S  S4  1  0.97732800  0.31971763  0.58149207  1
  S  S5  1  0.31214939  0.65355824  0.91519915  1
  S  S6  1  0.81219838  0.65330061  0.91529276  1
  S  S7  1  0.30967263  0.96497242  0.41548671  1
  S  S8  1  0.81115370  0.96873725  0.41452252  1
  O  O0  1  0.10304257  0.00544582  0.29892682  1
  O  O1  1  0.60312334  0.00547111  0.29943824  1
  O  O2  1  0.39870480  0.78491263  0.31188192  1
  O  O3  1  0.89859215  0.78433114  0.31259785  1
  O  O4  1  0.50185364  0.19336897  0.30609178  1
  O  O5  1  0.00065012  0.19136352  0.30575937  1
  O  O6  1  0.10498558  0.19925466  0.80120504  1
  O  O7  1  0.60522020  0.19786094  0.79929672  1
  O  O8  1  0.50027584  0.79880543  0.81218972  1
  O  O9  1  0.99729284  0.79294258  0.81267408  1
  O  O10  1  0.40476981  0.01735533  0.80445074  1
  O  O11  1  0.90374702  0.01839114  0.80602007  1
  O  O12  1  0.40009719  0.97211307  0.69041164  1
  O  O13  1  0.90437863  0.97528480  0.69302937  1
  O  O14  1  0.08941410  0.21025371  0.69673673  1
  O  O15  1  0.59538598  0.22342090  0.69462772  1
  O  O16  1  0.01341798  0.83204963  0.69574712  1
  O  O17  1  0.51248179  0.83347087  0.69476997  1
  O  O18  1  0.40378643  0.83414330  0.19530699  1
  O  O19  1  0.90415162  0.83374795  0.19575700  1
  O  O20  1  0.01371562  0.19846590  0.19114333  1
  O  O21  1  0.51404519  0.19872976  0.19136450  1
  O  O22  1  0.09363785  0.96861300  0.19380203  1
  O  O23  1  0.59423741  0.96772171  0.19422183  1
  O  O24  1  0.44002150  0.36580723  0.63690925  1
  O  O25  1  0.93975324  0.34302351  0.63498464  1
  O  O26  1  0.23666468  0.11263940  0.64435401  1
  O  O27  1  0.73261290  0.12067936  0.64628377  1
  O  O28  1  0.31701619  0.51892543  0.64061139  1
  O  O29  1  0.82575004  0.51497596  0.63694057  1
  O  O30  1  0.43911446  0.50958874  0.13430278  1
  O  O31  1  0.93913017  0.50981000  0.13422045  1
  O  O32  1  0.31028145  0.11464568  0.13828870  1
  O  O33  1  0.81020518  0.11444138  0.13827002  1
  O  O34  1  0.23631656  0.35915232  0.14537061  1
  O  O35  1  0.73607263  0.35909642  0.14555872  1
  O  O36  1  0.24063397  0.30201377  0.03118846  1
  O  O37  1  0.74068956  0.30214639  0.03135063  1
  O  O38  1  0.41806497  0.54000475  0.02271372  1
  O  O39  1  0.91815179  0.53984450  0.02265508  1
  O  O40  1  0.35196060  0.16820718  0.02629544  1
  O  O41  1  0.85195296  0.16820127  0.02638399  1
  O  O42  1  0.23912567  0.17237421  0.52970680  1
  O  O43  1  0.74167457  0.17628841  0.53051653  1
  O  O44  1  0.34776875  0.53456225  0.52554865  1
  O  O45  1  0.85047168  0.53700749  0.52339108  1
  O  O46  1  0.41491796  0.30095016  0.52619460  1
  O  O47  1  0.92634927  0.30293899  0.53026624  1
  O  O48  1  0.27850069  0.67301805  0.97147193  1
  O  O49  1  0.77858619  0.67248182  0.97173786  1
  O  O50  1  0.06145939  0.44955259  0.98024429  1
  O  O51  1  0.56154528  0.44912382  0.98038441  1
  O  O52  1  0.16014546  0.86952572  0.97667095  1
  O  O53  1  0.66059721  0.87010069  0.97664304  1
  O  O54  1  0.27396374  0.87522870  0.47093466  1
  O  O55  1  0.77484240  0.87067271  0.46816397  1
  O  O56  1  0.16542686  0.46631515  0.47185436  1
  O  O57  1  0.66613534  0.46100878  0.47703489  1
  O  O58  1  0.06362893  0.68258695  0.48044359  1
  O  O59  1  0.56481171  0.68393161  0.47899843  1
  O  O60  1  0.07458401  0.64365916  0.36426774  1
  O  O61  1  0.57453096  0.64640708  0.36293828  1
  O  O62  1  0.25674315  0.87047017  0.36598885  1
  O  O63  1  0.75885743  0.88300603  0.36386034  1
  O  O64  1  0.17994187  0.48897313  0.35778889  1
  O  O65  1  0.67976209  0.49572499  0.36061455  1
  O  O66  1  0.07499763  0.50891370  0.86444970  1
  O  O67  1  0.57493603  0.50932342  0.86448874  1
  O  O68  1  0.18035305  0.86724334  0.86022026  1
  O  O69  1  0.67997315  0.86752327  0.85992885  1
  O  O70  1  0.25942623  0.64654615  0.86638238  1
  O  O71  1  0.76019412  0.64650892  0.86653448  1
  O  O72  1  0.99116711  0.79899419  0.41389901  1
  O  O73  1  0.49250945  0.80261133  0.41404851  1
  O  O74  1  0.39266027  0.97970351  0.41078870  1
  O  O75  1  0.89448483  0.98700977  0.40920093  1
  O  O76  1  0.09366979  0.17955872  0.41412945  1
  O  O77  1  0.59236578  0.18229846  0.41431129  1
  O  O78  1  0.99840899  0.18663173  0.91503457  1
  O  O79  1  0.49862957  0.18721151  0.91480001  1
  O  O80  1  0.08694979  0.98465123  0.91249376  1
  O  O81  1  0.58701270  0.98545663  0.91290061  1
  O  O82  1  0.39794379  0.79657967  0.91043684  1
  O  O83  1  0.89832578  0.79645181  0.91110147  1
  O  O84  1  0.47971066  0.14468162  0.58842941  1
  O  O85  1  0.98608718  0.16765894  0.58614296  1
  O  O86  1  0.09029161  0.03480342  0.59319112  1
  O  O87  1  0.59419608  0.04759064  0.59070015  1
  O  O88  1  0.42641433  0.80642997  0.58946314  1
  O  O89  1  0.92589499  0.81260710  0.59072599  1
  O  O90  1  0.48081030  0.81529084  0.09037181  1
  O  O91  1  0.98060809  0.81518138  0.09023362  1
  O  O92  1  0.42522720  0.04321945  0.09088256  1
  O  O93  1  0.92517880  0.04276539  0.09102880  1
  O  O94  1  0.09395987  0.14546804  0.09158822  1
  O  O95  1  0.59403177  0.14549371  0.09166059  1
  O  O96  1  0.32287335  0.13242518  0.74650172  1
  O  O97  1  0.82315065  0.13159389  0.74619594  1
  O  O98  1  0.22432888  0.31294839  0.74231570  1
  O  O99  1  0.72785642  0.31933593  0.74358094  1
  O  O100  1  0.42260387  0.52144938  0.75047130  1
  O  O101  1  0.92570117  0.51777271  0.74799928  1
  O  O102  1  0.32420449  0.51653396  0.24707821  1
  O  O103  1  0.82450225  0.51592598  0.24769223  1
  O  O104  1  0.42340453  0.32445388  0.24954638  1
  O  O105  1  0.92358639  0.32456869  0.24894710  1
  O  O106  1  0.22551864  0.13660244  0.24309485  1
  O  O107  1  0.72597280  0.13619534  0.24369336  1
  O  O108  1  0.31683550  0.49650633  0.91606880  1
  O  O109  1  0.81727734  0.49635234  0.91637474  1
  O  O110  1  0.42713511  0.38159660  0.92147108  1
  O  O111  1  0.92708598  0.38160510  0.92126128  1
  O  O112  1  0.25827647  0.15878085  0.92379517  1
  O  O113  1  0.75831198  0.15892541  0.92373944  1
  O  O114  1  0.31712497  0.13326042  0.41751244  1
  O  O115  1  0.81844520  0.13739246  0.42013979  1
  O  O116  1  0.26196272  0.36719414  0.42140478  1
  O  O117  1  0.75982082  0.36945574  0.42182838  1
  O  O118  1  0.42447906  0.47652187  0.42291783  1
  O  O119  1  0.92478727  0.47308794  0.42492699  1
  O  O120  1  0.16924402  0.47989563  0.07751347  1
  O  O121  1  0.66932346  0.48024854  0.07766530  1
  O  O122  1  0.07524984  0.67430086  0.07693843  1
  O  O123  1  0.57527549  0.67415984  0.07691730  1
  O  O124  1  0.26400331  0.84682651  0.07619664  1
  O  O125  1  0.76390998  0.84669094  0.07627126  1
  O  O126  1  0.16568509  0.85627030  0.57799216  1
  O  O127  1  0.66107277  0.85218107  0.58106678  1
  O  O128  1  0.26499723  0.68935723  0.57809675  1
  O  O129  1  0.75676669  0.65641624  0.57846405  1
  O  O130  1  0.06065685  0.47093442  0.57725772  1
  O  O131  1  0.57361000  0.47553292  0.57614900  1
  O  O132  1  0.15102787  0.83209878  0.25139299  1
  O  O133  1  0.65151031  0.83200914  0.25212864  1
  O  O134  1  0.25602761  0.70698020  0.25905171  1
  O  O135  1  0.75627028  0.70617762  0.25939620  1
  O  O136  1  0.09131916  0.48092683  0.25554472  1
  O  O137  1  0.59164824  0.48138943  0.25578370  1
  O  O138  1  0.14922291  0.46627546  0.75249811  1
  O  O139  1  0.65234320  0.47098880  0.75433340  1
  O  O140  1  0.09307992  0.70512871  0.75643044  1
  O  O141  1  0.59165125  0.70339284  0.75616209  1
  O  O142  1  0.25663415  0.80604557  0.75850149  1
  O  O143  1  0.75660916  0.80723650  0.75827501  1
loop_
_geom_bond_atom_site_label_1
_geom_bond_atom_site_label_2
_geom_bond_distance
_geom_bond_site_symmetry_2
Na0 O102 2.293463 1_555
Na0 O34 2.416415 1_555
Na0 O136 2.487086 1_555
Na0 O106 2.524975 1_555
Na1 O103 2.300124 1_555
Na1 O35 2.401331 1_555
Na1 O137 2.480423 1_555
Na1 O107 2.542669 1_555
Na2 O96 2.272876 1_555
Na2 O26 2.419285 1_555
Na2 O140 2.463996 1_545
Na2 O98 2.513536 1_555
Na3 O97 2.296694 1_555
Na3 O27 2.391602 1_555
Na3 O141 2.459038 1_545
Na3 O99 2.570470 1_555
Na4 O131 2.312435 1_555
Na4 O87 2.413669 1_555
Na4 O129 2.535639 1_555
Na4 O57 2.574483 1_555
Na4 O84 2.798738 1_555
Na4 O15 2.818742 1_555
Na5 O58 2.321295 1_555
Na5 O126 2.339228 1_555
Na5 O89 2.461894 1_455
Na5 O130 2.579844 1_555
Na5 O86 2.714733 1_565
Na6 O127 2.345010 1_555
Na6 O88 2.475744 1_555
Na6 O59 2.483062 1_555
Na6 O131 2.583143 1_555
Na6 O24 2.813770 1_555
Na7 O128 2.324740 1_555
Na7 O84 2.508998 1_565
Na7 O126 2.588789 1_555
Na7 O26 2.806606 1_565
Na7 O12 2.808801 1_555
Na7 O54 2.839972 1_555
Na7 O46 2.934134 1_565
Na8 O122 2.321693 1_555
Na8 O94 2.429655 1_565
Na8 O52 2.575871 1_554
Na8 O124 2.758188 1_555
Na8 O91 2.792047 1_455
Na8 O22 2.804691 1_555
Na8 O32 2.878339 1_565
Na8 O36 2.932125 1_565
Na9 O123 2.321597 1_555
Na9 O95 2.431047 1_565
Na9 O53 2.567952 1_554
Na9 O125 2.756005 1_555
Na9 O90 2.789973 1_555
Na9 O23 2.815738 1_555
Na9 O33 2.880601 1_565
Na9 O37 2.929223 1_565
Na10 O124 2.357605 1_555
Na10 O90 2.528729 1_555
Na10 O120 2.538193 1_555
Na10 O48 2.751368 1_554
Na10 O34 2.888655 1_555
Na10 O38 2.944708 1_555
Na10 O92 2.949160 1_565
Na10 O18 2.963417 1_555
Na11 O125 2.354460 1_555
Na11 O91 2.520997 1_555
Na11 O121 2.541535 1_555
Na11 O49 2.741649 1_554
Na11 O35 2.899284 1_555
Na11 O93 2.938814 1_565
Na11 O39 2.947596 1_555
Na11 O19 2.972881 1_555
Na12 O120 2.415606 1_555
Na12 O50 2.437913 1_554
Na12 O93 2.533264 1_455
Na12 O122 2.587742 1_555
Na12 O31 2.798803 1_455
Na12 O94 2.895498 1_555
Na12 O20 2.902247 1_555
Na12 O41 3.010163 1_455
Na13 O121 2.418534 1_555
Na13 O51 2.430777 1_554
Na13 O92 2.531423 1_555
Na13 O123 2.583889 1_555
Na13 O30 2.796520 1_555
Na13 O95 2.900482 1_555
Na13 O21 2.911521 1_555
Na13 O40 3.008133 1_555
Na14 O110 2.400499 1_555
Na14 O82 2.444495 1_555
Na14 O81 2.475667 1_555
Na14 O8 2.538608 1_555
Na14 O108 2.799966 1_555
Na14 O38 2.821211 1_556
Na14 O67 2.925053 1_555
Na15 O111 2.397573 1_555
Na15 O83 2.436076 1_555
Na15 O80 2.470872 1_655
Na15 O9 2.540638 1_555
Na15 O109 2.790957 1_555
Na15 O39 2.795907 1_556
Na15 O66 2.940309 1_655
Na16 O73 2.296218 1_555
Na16 O116 2.387261 1_555
Na16 O2 2.455031 1_555
Na16 O74 2.632864 1_555
Na16 O118 2.697993 1_555
Na16 O44 2.914090 1_555
Na16 O64 3.012825 1_555
Na17 O72 2.288637 1_555
Na17 O3 2.378582 1_555
Na17 O117 2.467093 1_555
Na17 O75 2.581634 1_555
Na18 O76 2.288363 1_555
Na18 O86 2.633192 1_555
Na18 O85 2.662629 1_455
Na18 O72 2.689482 1_445
Na18 O89 2.887808 1_445
Na18 O75 2.946241 1_445
Na19 O77 2.323081 1_555
Na19 O73 2.538623 1_545
Na19 O87 2.622845 1_555
Na19 O84 2.738729 1_555
Na19 O88 2.841181 1_545
Na19 O74 2.911207 1_545
Na20 O78 2.362140 1_455
Na20 O80 2.425015 1_545
Na20 O94 2.686350 1_556
Na20 O93 2.811953 1_456
Na20 O83 2.871550 1_445
Na20 O91 2.887920 1_446
Na21 O79 2.359709 1_555
Na21 O81 2.405481 1_545
Na21 O95 2.695335 1_556
Na21 O92 2.820940 1_556
Na21 O82 2.880173 1_545
Na21 O90 2.900344 1_546
Na22 O100 2.413030 1_555
Na22 O110 2.531843 1_555
Na22 O96 2.549729 1_555
Na22 O112 2.678089 1_555
Na22 O108 2.691940 1_555
Na22 O98 2.985131 1_555
Na23 O111 2.498096 1_555
Na23 O101 2.505298 1_555
Na23 O97 2.585111 1_555
Na23 O113 2.625470 1_555
Na23 O109 2.663424 1_555
Na23 O99 2.958425 1_555
Na24 O104 2.376242 1_555
Na24 O118 2.500262 1_555
Na24 O114 2.582107 1_555
Na24 O116 2.669743 1_555
Na24 O102 2.741274 1_555
Na24 O106 2.979283 1_555
Na25 O105 2.280967 1_555
Na25 O119 2.608962 1_555
Na25 O115 2.674662 1_555
Na25 O103 2.681469 1_555
Na25 O117 2.817152 1_555
Na25 O107 2.915322 1_555
Na26 O132 2.555080 1_555
Na26 O124 2.600287 1_555
Na26 O122 2.626073 1_555
Na26 O136 2.674070 1_555
Na26 O120 2.713152 1_555
Na26 O134 2.719390 1_555
Na27 O125 2.578155 1_555
Na27 O133 2.585417 1_555
Na27 O123 2.610166 1_555
Na27 O121 2.689892 1_555
Na27 O137 2.695144 1_555
Na27 O135 2.747336 1_555
Na28 O128 2.477857 1_555
Na28 O138 2.520964 1_555
Na28 O142 2.609592 1_555
Na28 O140 2.763286 1_555
Na28 O126 2.830024 1_555
Na28 O130 2.854315 1_555
Na29 O129 2.436116 1_555
Na29 O127 2.556120 1_555
Na29 O131 2.683986 1_555
Na29 O143 2.701210 1_555
Na29 O139 2.753251 1_555
Na29 O141 2.771686 1_555
Nb0 O13 1.923528 1_555
Nb0 O16 1.930234 1_655
Nb0 O89 1.953156 1_555
Nb0 O86 2.012524 1_665
Nb0 O14 2.292483 1_665
Nb0 O85 2.303364 1_565
Nb1 O88 1.927523 1_555
Nb1 O12 1.952030 1_555
Nb1 O17 1.993601 1_555
Nb1 O87 2.062334 1_565
Nb1 O84 2.064363 1_565
Nb1 O15 2.428443 1_565
Nb2 O19 1.951134 1_555
Nb2 O93 1.953025 1_565
Nb2 O20 1.977484 1_665
Nb2 O91 2.045697 1_555
Nb2 O94 2.069842 1_665
Nb2 O22 2.348757 1_655
Nb3 O92 1.947318 1_565
Nb3 O18 1.947556 1_555
Nb3 O21 1.982747 1_565
Nb3 O90 2.041929 1_555
Nb3 O95 2.069875 1_565
Nb3 O23 2.376755 1_555
Nb4 O40 1.913732 1_556
Nb4 O36 1.981723 1_556
Nb4 O112 2.000949 1_555
Nb4 O110 2.044439 1_555
Nb4 O38 2.068144 1_556
Nb4 O108 2.351457 1_555
Nb5 O41 1.914180 1_556
Nb5 O37 1.980374 1_556
Nb5 O113 2.000660 1_555
Nb5 O111 2.050121 1_555
Nb5 O39 2.068010 1_556
Nb5 O109 2.342708 1_555
Nb6 O44 1.942604 1_555
Nb6 O42 1.966032 1_555
Nb6 O46 1.982917 1_555
Nb6 O118 2.033058 1_555
Nb6 O116 2.080594 1_555
Nb6 O114 2.332840 1_555
Nb7 O45 1.931038 1_555
Nb7 O117 1.937249 1_555
Nb7 O43 1.965261 1_555
Nb7 O119 1.982464 1_555
Nb7 O115 2.250628 1_555
Nb7 O47 2.373409 1_555
Nb8 O64 1.901571 1_555
Nb8 O136 1.943685 1_555
Nb8 O60 1.956509 1_555
Nb8 O134 1.994869 1_555
Nb8 O62 2.338474 1_555
Nb8 O132 2.361869 1_555
Nb9 O137 1.933795 1_555
Nb9 O65 1.934323 1_555
Nb9 O61 1.936312 1_555
Nb9 O135 1.996653 1_555
Nb9 O133 2.298417 1_555
Nb9 O63 2.383248 1_555
Nb10 O68 1.900353 1_555
Nb10 O140 1.956730 1_555
Nb10 O66 1.964902 1_555
Nb10 O142 1.984219 1_555
Nb10 O70 2.335767 1_555
Nb10 O138 2.350407 1_555
Nb11 O69 1.911515 1_555
Nb11 O141 1.938448 1_555
Nb11 O67 1.966458 1_555
Nb11 O143 1.989154 1_555
Nb11 O139 2.298927 1_555
Nb11 O71 2.383558 1_555
O0 S0 1.464417 1_545
O0 Y0 2.199409 1_545
O1 S1 1.464435 1_545
O1 Y1 2.214430 1_545
O2 Si0 1.589208 1_555
O2 Y1 2.168600 1_555
O3 Si1 1.589533 1_555
O3 Y0 2.187816 1_655
O4 Si3 1.575212 1_555
O4 Y1 2.102215 1_545
O5 Si2 1.574853 1_555
O5 Y0 2.102621 1_545
O6 S2 1.468715 1_555
O6 Y2 2.210876 1_455
O7 S3 1.467892 1_555
O7 Y3 2.214142 1_555
O8 Si5 1.588006 1_555
O8 Y3 2.176137 1_565
O9 Si4 1.582123 1_655
O9 Y2 2.194480 1_565
O10 Si6 1.575015 1_545
O10 Y3 2.086587 1_555
O11 Si7 1.574260 1_545
O11 Y2 2.089502 1_555
O12 Si6 1.728142 1_555
O13 Si7 1.729098 1_555
O14 S2 1.500539 1_555
O15 S3 1.493962 1_555
O16 Si4 1.736411 1_555
O17 Si5 1.721917 1_555
O18 Si0 1.738375 1_555
O19 Si1 1.736335 1_555
O20 Si2 1.710223 1_555
O21 Si3 1.710876 1_555
O22 S0 1.506493 1_555
O23 S1 1.502683 1_555
O24 Si8 1.587346 1_555
O24 Y4 2.096936 1_555
O25 S4 1.469260 1_555
O25 Y5 2.216074 1_555
O26 Si9 1.597955 1_555
O26 Y4 2.242147 1_555
O27 Si10 1.589463 1_555
O27 Y5 2.187497 1_555
O28 Si11 1.569359 1_555
O28 Y4 2.150545 1_555
O29 Si12 1.577087 1_555
O29 Y5 2.124594 1_555
O30 Si13 1.590820 1_555
O30 Y6 2.097917 1_555
O31 Si14 1.590661 1_555
O31 Y7 2.093336 1_555
O32 Si15 1.575691 1_555
O32 Y6 2.180681 1_555
O33 Si16 1.576275 1_555
O33 Y7 2.176121 1_555
O34 Si17 1.596235 1_555
O34 Y6 2.237882 1_555
O35 Si18 1.597052 1_555
O35 Y7 2.232987 1_555
O36 Si17 1.705258 1_555
O37 Si18 1.705369 1_555
O38 Si13 1.694096 1_555
O39 Si14 1.694318 1_555
O40 Si15 1.706224 1_555
O41 Si16 1.707119 1_555
O42 Si9 1.698783 1_555
O43 Si10 1.734260 1_555
O44 Si11 1.701982 1_555
O45 Si12 1.729618 1_555
O46 Si8 1.701656 1_555
O47 S4 1.486194 1_555
O48 S5 1.474566 1_555
O48 Y8 2.257482 1_556
O49 S6 1.476850 1_555
O49 Y9 2.254949 1_556
O50 Si19 1.601813 1_555
O50 Y8 2.140372 1_556
O51 Si20 1.602753 1_555
O51 Y9 2.139068 1_556
O52 Si21 1.595953 1_555
O52 Y8 2.139026 1_556
O53 Si22 1.597143 1_555
O53 Y9 2.137039 1_556
O54 S7 1.474934 1_555
O54 Y10 2.237153 1_555
O55 S8 1.469458 1_555
O55 Y11 2.224948 1_555
O56 Si23 1.584037 1_555
O56 Y10 2.091580 1_555
O57 Si24 1.582498 1_555
O57 Y11 2.170830 1_555
O58 Si25 1.594830 1_555
O58 Y10 2.166489 1_555
O59 Si26 1.594652 1_555
O59 Y11 2.150188 1_555
O60 Si25 1.714584 1_555
O61 Si26 1.730715 1_555
O62 S7 1.487086 1_555
O63 S8 1.484902 1_555
O64 Si23 1.772009 1_555
O65 Si24 1.726543 1_555
O66 Si19 1.735313 1_555
O67 Si20 1.731896 1_555
O68 Si21 1.752946 1_555
O69 Si22 1.748264 1_555
O70 S5 1.485466 1_555
O71 S6 1.476315 1_555
O72 Si25 1.611453 1_655
O72 Y0 2.237499 1_655
O73 Si26 1.615107 1_555
O73 Y1 2.222670 1_555
O74 S7 1.479826 1_555
O74 Y1 2.319350 1_555
O75 S8 1.473337 1_555
O75 Y0 2.317063 1_655
O76 Si23 1.591116 1_555
O76 Y0 2.208743 1_545
O77 Si24 1.583750 1_555
O77 Y1 2.232293 1_545
O78 Si19 1.593559 1_655
O78 Y2 2.169032 1_555
O79 Si20 1.593153 1_555
O79 Y3 2.170878 1_555
O80 Si21 1.604971 1_555
O80 Y2 2.287378 1_465
O81 Si22 1.605785 1_555
O81 Y3 2.294524 1_565
O82 S5 1.480726 1_555
O82 Y3 2.328616 1_565
O83 S6 1.484415 1_555
O83 Y2 2.317504 1_565
O84 Si8 1.673867 1_555
O85 S4 1.494858 1_555
O86 Si9 1.686302 1_555
O87 Si10 1.693462 1_555
O88 Si11 1.718984 1_555
O89 Si12 1.695532 1_555
O90 Si13 1.683451 1_555
O91 Si14 1.681836 1_555
O92 Si15 1.690174 1_555
O93 Si16 1.688175 1_555
O94 Si17 1.679702 1_555
O95 Si18 1.678976 1_555
O96 Si6 1.609017 1_545
O96 Y4 2.269826 1_555
O97 Si7 1.610711 1_545
O97 Y5 2.219217 1_555
O98 S2 1.465186 1_555
O98 Y4 2.354310 1_555
O99 S3 1.478928 1_555
O99 Y5 2.312480 1_555
O100 Si5 1.586117 1_555
O100 Y4 2.214435 1_555
O101 Si4 1.585958 1_655
O101 Y5 2.200011 1_555
O102 Si0 1.610359 1_555
O102 Y6 2.251641 1_555
O103 Si1 1.614161 1_555
O103 Y7 2.260319 1_555
O104 Si3 1.584086 1_555
O104 Y6 2.204165 1_555
O105 Si2 1.585955 1_655
O105 Y7 2.206497 1_555
O106 S0 1.466298 1_545
O106 Y6 2.362278 1_555
O107 S1 1.465665 1_545
O107 Y7 2.373004 1_555
O108 S5 1.494356 1_555
O109 S6 1.497454 1_555
O110 Si20 1.683050 1_555
O111 Si19 1.681549 1_655
O112 Si21 1.662505 1_545
O113 Si22 1.666720 1_545
O114 S7 1.489254 1_545
O115 S8 1.498680 1_545
O116 Si23 1.669510 1_555
O117 Si24 1.722636 1_555
O118 Si26 1.675010 1_555
O119 Si25 1.700978 1_655
O120 Si17 1.618826 1_555
O120 Y8 2.259284 1_555
O121 Si18 1.618503 1_555
O121 Y9 2.263931 1_555
O122 Si14 1.623158 1_455
O122 Y8 2.225558 1_555
O123 Si13 1.623885 1_555
O123 Y9 2.228967 1_555
O124 Si15 1.606972 1_565
O124 Y8 2.272055 1_555
O125 Si16 1.607544 1_565
O125 Y9 2.274926 1_555
O126 Si9 1.628364 1_565
O126 Y10 2.261567 1_555
O127 Si10 1.607421 1_565
O127 Y11 2.230140 1_555
O128 Si11 1.608818 1_555
O128 Y10 2.267119 1_555
O129 Si12 1.589222 1_555
O129 Y11 2.267186 1_555
O130 S4 1.481928 1_455
O130 Y10 2.307111 1_555
O131 Si8 1.611249 1_555
O131 Y11 2.207702 1_555
O132 S0 1.491843 1_555
O133 S1 1.498473 1_555
O134 Si0 1.695066 1_555
O135 Si1 1.695979 1_555
O136 Si2 1.724234 1_555
O137 Si3 1.732853 1_555
O138 S2 1.494907 1_555
O139 S3 1.490325 1_555
O140 Si4 1.717809 1_555
O141 Si5 1.740836 1_555
O142 Si6 1.703387 1_555
O143 Si7 1.691005 1_555
