# generated using pymatgen
data_K2UCl5
_symmetry_space_group_name_H-M   'P 1'
_cell_length_a   8.00052345
_cell_length_b   8.80504678
_cell_length_c   12.76867009
_cell_angle_alpha   90.00000000
_cell_angle_beta   90.00000000
_cell_angle_gamma   90.00000000
_symmetry_Int_Tables_number   1
_chemical_formula_structural   K2UCl5
_chemical_formula_sum   'K8 U4 Cl20'
_cell_volume   899.48875051
_cell_formula_units_Z   4
loop_
 _symmetry_equiv_pos_site_id
 _symmetry_equiv_pos_as_xyz
  1  'x, y, z'
loop_
 _atom_site_type_symbol
 _atom_site_label
 _atom_site_symmetry_multiplicity
 _atom_site_fract_x
 _atom_site_fract_y
 _atom_site_fract_z
 _atom_site_occupancy
  K  K0  1  0.95162514  0.00484730  0.82818512  1
  K  K1  1  0.45162514  0.99515270  0.67181488  1
  K  K2  1  0.04837486  0.50484730  0.17181488  1
  K  K3  1  0.54837486  0.49515270  0.32818512  1
  K  K4  1  0.04837486  0.99515270  0.17181488  1
  K  K5  1  0.54837486  0.00484730  0.32818512  1
  K  K6  1  0.95162514  0.49515270  0.82818512  1
  K  K7  1  0.45162514  0.50484730  0.67181488  1
  U  U0  1  0.57511273  0.75000000  0.00459878  1
  U  U1  1  0.07511273  0.25000000  0.49540122  1
  U  U2  1  0.42488727  0.25000000  0.99540122  1
  U  U3  1  0.92488727  0.75000000  0.50459878  1
  Cl  Cl0  1  0.33633568  0.95714354  0.91851584  1
  Cl  Cl1  1  0.83633568  0.04285646  0.58148416  1
  Cl  Cl2  1  0.66366432  0.45714354  0.08148416  1
  Cl  Cl3  1  0.16366432  0.54285646  0.41851584  1
  Cl  Cl4  1  0.66366432  0.04285646  0.08148416  1
  Cl  Cl5  1  0.16366432  0.95714354  0.41851584  1
  Cl  Cl6  1  0.33633568  0.54285646  0.91851584  1
  Cl  Cl7  1  0.83633568  0.45714354  0.58148416  1
  Cl  Cl8  1  0.36864445  0.75000000  0.18125462  1
  Cl  Cl9  1  0.86864445  0.25000000  0.31874538  1
  Cl  Cl10  1  0.63135555  0.25000000  0.81874538  1
  Cl  Cl11  1  0.13135555  0.75000000  0.68125462  1
  Cl  Cl12  1  0.07229334  0.25000000  0.99369737  1
  Cl  Cl13  1  0.57229334  0.75000000  0.50630263  1
  Cl  Cl14  1  0.92770666  0.75000000  0.00630263  1
  Cl  Cl15  1  0.42770666  0.25000000  0.49369737  1
  Cl  Cl16  1  0.66784991  0.75000000  0.79250653  1
  Cl  Cl17  1  0.16784991  0.25000000  0.70749347  1
  Cl  Cl18  1  0.33215009  0.25000000  0.20749347  1
  Cl  Cl19  1  0.83215009  0.75000000  0.29250653  1
loop_
_geom_bond_atom_site_label_1
_geom_bond_atom_site_label_2
_geom_bond_distance
_geom_bond_site_symmetry_2
Cl0 U2 2.848675 1_565
Cl0 U0 2.860806 1_556
Cl0 K1 3.299326 1_555
Cl0 K0 3.313631 1_465
Cl1 U3 2.848675 1_545
Cl1 U1 2.860806 1_655
Cl1 K0 3.299326 1_555
Cl1 K1 3.313631 1_545
Cl2 U0 2.848675 1_555
Cl2 U2 2.860806 1_554
Cl2 K3 3.299326 1_555
Cl2 K2 3.313631 1_655
Cl3 U1 2.848675 1_555
Cl3 U3 2.860806 1_455
Cl3 K2 3.299326 1_555
Cl3 K3 3.313631 1_555
Cl4 U0 2.848675 1_545
Cl4 U2 2.860806 1_554
Cl4 K5 3.299326 1_555
Cl4 K4 3.313631 1_645
Cl5 U1 2.848675 1_565
Cl5 U3 2.860806 1_455
Cl5 K4 3.299326 1_555
Cl5 K5 3.313631 1_565
Cl6 U2 2.848675 1_555
Cl6 U0 2.860806 1_556
Cl6 K7 3.299326 1_555
Cl6 K6 3.313631 1_455
Cl7 U3 2.848675 1_555
Cl7 U1 2.860806 1_655
Cl7 K6 3.299326 1_555
Cl7 K7 3.313631 1_555
Cl8 U0 2.795823 1_555
Cl8 K5 3.259251 1_565
Cl8 K3 3.259251 1_555
Cl8 K4 3.352537 1_555
Cl8 K2 3.352537 1_555
Cl9 U1 2.795823 1_655
Cl9 K4 3.259251 1_645
Cl9 K2 3.259251 1_655
Cl9 K5 3.352537 1_555
Cl9 K3 3.352537 1_555
Cl10 U2 2.795823 1_555
Cl10 K7 3.259251 1_555
Cl10 K1 3.259251 1_545
Cl10 K0 3.352537 1_555
Cl10 K6 3.352537 1_555
Cl11 U3 2.795823 1_455
Cl11 K6 3.259251 1_455
Cl11 K0 3.259251 1_465
Cl11 K1 3.352537 1_555
Cl11 K7 3.352537 1_555
Cl12 U2 2.821020 1_555
Cl12 K0 3.171407 1_455
Cl12 K6 3.171407 1_455
Cl12 K2 3.200694 1_556
Cl12 K4 3.200694 1_546
Cl13 U3 2.821020 1_555
Cl13 K1 3.171407 1_555
Cl13 K7 3.171407 1_555
Cl13 K5 3.200694 1_565
Cl13 K3 3.200694 1_555
Cl14 U0 2.821020 1_555
Cl14 K2 3.171407 1_655
Cl14 K4 3.171407 1_655
Cl14 K0 3.200694 1_564
Cl14 K6 3.200694 1_554
Cl15 U1 2.821020 1_555
Cl15 K3 3.171407 1_555
Cl15 K5 3.171407 1_555
Cl15 K7 3.200694 1_555
Cl15 K1 3.200694 1_545
Cl16 U0 2.807932 1_556
Cl16 K1 3.166539 1_555
Cl16 K7 3.166539 1_555
Cl16 K0 3.224486 1_565
Cl16 K6 3.224486 1_555
Cl17 U1 2.807932 1_555
Cl17 K0 3.166539 1_455
Cl17 K6 3.166539 1_455
Cl17 K7 3.224486 1_555
Cl17 K1 3.224486 1_545
Cl18 U2 2.807932 1_554
Cl18 K3 3.166539 1_555
Cl18 K5 3.166539 1_555
Cl18 K2 3.224486 1_555
Cl18 K4 3.224486 1_545
Cl19 U3 2.807932 1_555
Cl19 K2 3.166539 1_655
Cl19 K4 3.166539 1_655
Cl19 K3 3.224486 1_555
Cl19 K5 3.224486 1_565
