# generated using pymatgen
data_URhS3
_symmetry_space_group_name_H-M   'P 1'
_cell_length_a   6.08346900
_cell_length_b   7.10613100
_cell_length_c   8.45104700
_cell_angle_alpha   90.00000000
_cell_angle_beta   90.00000000
_cell_angle_gamma   90.00000000
_symmetry_Int_Tables_number   1
_chemical_formula_structural   URhS3
_chemical_formula_sum   'U4 Rh4 S12'
_cell_volume   365.33815036
_cell_formula_units_Z   4
loop_
 _symmetry_equiv_pos_site_id
 _symmetry_equiv_pos_as_xyz
  1  'x, y, z'
loop_
 _atom_site_type_symbol
 _atom_site_label
 _atom_site_symmetry_multiplicity
 _atom_site_fract_x
 _atom_site_fract_y
 _atom_site_fract_z
 _atom_site_occupancy
  U  U0  1  0.43395000  0.12537100  0.75000000  1
  U  U1  1  0.93395000  0.37462900  0.25000000  1
  U  U2  1  0.56605000  0.87462900  0.25000000  1
  U  U3  1  0.06605000  0.62537100  0.75000000  1
  Rh  Rh0  1  0.50000000  0.50000000  0.00000000  1
  Rh  Rh1  1  0.00000000  0.00000000  0.00000000  1
  Rh  Rh2  1  0.00000000  0.00000000  0.50000000  1
  Rh  Rh3  1  0.50000000  0.50000000  0.50000000  1
  S  S0  1  0.65656800  0.17910800  0.05428000  1
  S  S1  1  0.84343200  0.67910800  0.44572000  1
  S  S2  1  0.84343200  0.67910800  0.05428000  1
  S  S3  1  0.16528100  0.05709800  0.25000000  1
  S  S4  1  0.15656800  0.32089200  0.55428000  1
  S  S5  1  0.33471900  0.55709800  0.25000000  1
  S  S6  1  0.83471900  0.94290200  0.75000000  1
  S  S7  1  0.15656800  0.32089200  0.94572000  1
  S  S8  1  0.34343200  0.82089200  0.94572000  1
  S  S9  1  0.65656800  0.17910800  0.44572000  1
  S  S10  1  0.66528100  0.44290200  0.75000000  1
  S  S11  1  0.34343200  0.82089200  0.55428000  1
loop_
_geom_bond_atom_site_label_1
_geom_bond_atom_site_label_2
_geom_bond_distance
_geom_bond_site_symmetry_2
Rh0 S5 2.374739 1_555
Rh0 S10 2.374739 1_554
Rh0 S2 2.489047 1_555
Rh0 S7 2.489047 1_554
Rh0 S0 2.513446 1_555
Rh0 S8 2.513446 1_554
Rh1 S3 2.374739 1_555
Rh1 S6 2.374739 1_444
Rh1 S8 2.489047 1_544
Rh1 S0 2.489047 1_455
Rh1 S7 2.513446 1_554
Rh1 S2 2.513446 1_445
Rh2 S3 2.374739 1_555
Rh2 S6 2.374739 1_445
Rh2 S11 2.489047 1_545
Rh2 S9 2.489047 1_455
Rh2 S4 2.513446 1_555
Rh2 S1 2.513446 1_445
Rh3 S5 2.374739 1_555
Rh3 S10 2.374739 1_555
Rh3 S1 2.489047 1_555
Rh3 S4 2.489047 1_555
Rh3 S9 2.513446 1_555
Rh3 S11 2.513446 1_555
S0 U1 2.741120 1_555
S0 U2 2.778585 1_545
S0 U0 2.931288 1_554
S1 U2 2.741120 1_555
S1 U1 2.778585 1_555
S1 U3 2.931288 1_655
S2 U2 2.741120 1_555
S2 U1 2.778585 1_555
S2 U3 2.931288 1_654
S3 U1 2.659304 1_455
S3 U2 2.761424 1_545
S4 U0 2.741120 1_555
S4 U3 2.778585 1_555
S4 U1 2.931288 1_455
S5 U2 2.659304 1_555
S5 U1 2.761424 1_455
S6 U3 2.659304 1_655
S6 U0 2.761424 1_565
S7 U0 2.741120 1_555
S7 U3 2.778585 1_555
S7 U1 2.931288 1_456
S8 U3 2.741120 1_555
S8 U0 2.778585 1_565
S8 U2 2.931288 1_556
S9 U1 2.741120 1_555
S9 U2 2.778585 1_545
S9 U0 2.931288 1_555
S10 U0 2.659304 1_555
S10 U3 2.761424 1_655
S11 U3 2.741120 1_555
S11 U0 2.778585 1_565
S11 U2 2.931288 1_555
