# generated using pymatgen
data_CaMnSb2
_symmetry_space_group_name_H-M   'P 1'
_cell_length_a   4.37691500
_cell_length_b   4.38323900
_cell_length_c   21.07593900
_cell_angle_alpha   90.00000000
_cell_angle_beta   90.00000000
_cell_angle_gamma   90.00000000
_symmetry_Int_Tables_number   1
_chemical_formula_structural   CaMnSb2
_chemical_formula_sum   'Ca4 Mn4 Sb8'
_cell_volume   404.34324970
_cell_formula_units_Z   4
loop_
 _symmetry_equiv_pos_site_id
 _symmetry_equiv_pos_as_xyz
  1  'x, y, z'
loop_
 _atom_site_type_symbol
 _atom_site_label
 _atom_site_symmetry_multiplicity
 _atom_site_fract_x
 _atom_site_fract_y
 _atom_site_fract_z
 _atom_site_occupancy
  Ca  Ca0  1  0.25000000  0.73591300  0.12008100  1
  Ca  Ca1  1  0.75000000  0.26408700  0.87991900  1
  Ca  Ca2  1  0.75000000  0.23591300  0.37991900  1
  Ca  Ca3  1  0.25000000  0.76408700  0.62008100  1
  Mn  Mn0  1  0.25000000  0.23495700  0.25011400  1
  Mn  Mn1  1  0.75000000  0.76504300  0.74988600  1
  Mn  Mn2  1  0.75000000  0.73495700  0.24988600  1
  Mn  Mn3  1  0.25000000  0.26504300  0.75011400  1
  Sb  Sb0  1  0.25000000  0.23352600  0.00074100  1
  Sb  Sb1  1  0.75000000  0.76647400  0.99925900  1
  Sb  Sb2  1  0.75000000  0.73352600  0.49925900  1
  Sb  Sb3  1  0.25000000  0.26647400  0.50074100  1
  Sb  Sb4  1  0.25000000  0.73516200  0.32507100  1
  Sb  Sb5  1  0.75000000  0.26483800  0.67492900  1
  Sb  Sb6  1  0.75000000  0.23516200  0.17492900  1
  Sb  Sb7  1  0.25000000  0.76483800  0.82507100  1
loop_
_geom_bond_atom_site_label_1
_geom_bond_atom_site_label_2
_geom_bond_distance
_geom_bond_site_symmetry_2
Ca0 Sb6 3.303695 1_565
Ca0 Sb6 3.303695 1_465
Ca0 Sb6 3.308059 1_455
Ca0 Sb6 3.308059 1_555
Ca0 Sb0 3.329217 1_565
Ca0 Sb0 3.342964 1_555
Ca0 Sb1 3.360302 1_554
Ca0 Sb1 3.360302 1_454
Ca0 Mn2 3.503392 1_455
Ca0 Mn2 3.503392 1_555
Ca0 Mn0 3.506502 1_565
Ca0 Mn0 3.511736 1_555
Ca1 Sb7 3.303695 1_645
Ca1 Sb7 3.303695 1_545
Ca1 Sb7 3.308059 1_655
Ca1 Sb7 3.308059 1_555
Ca1 Sb1 3.329217 1_545
Ca1 Sb1 3.342964 1_555
Ca1 Sb0 3.360302 1_656
Ca1 Sb0 3.360302 1_556
Ca1 Mn3 3.503392 1_655
Ca1 Mn3 3.503392 1_555
Ca1 Mn1 3.506502 1_545
Ca1 Mn1 3.511736 1_555
Ca2 Sb4 3.303695 1_555
Ca2 Sb4 3.303695 1_655
Ca2 Sb4 3.308059 1_545
Ca2 Sb4 3.308059 1_645
Ca2 Sb2 3.329217 1_555
Ca2 Sb2 3.342964 1_545
Ca2 Sb3 3.360302 1_655
Ca2 Sb3 3.360302 1_555
Ca2 Mn0 3.503392 1_655
Ca2 Mn0 3.503392 1_555
Ca2 Mn2 3.506502 1_555
Ca2 Mn2 3.511736 1_545
Ca3 Sb5 3.303695 1_455
Ca3 Sb5 3.303695 1_555
Ca3 Sb5 3.308059 1_465
Ca3 Sb5 3.308059 1_565
Ca3 Sb3 3.329217 1_555
Ca3 Sb3 3.342964 1_565
Ca3 Sb2 3.360302 1_455
Ca3 Sb2 3.360302 1_555
Ca3 Mn1 3.503392 1_455
Ca3 Mn1 3.503392 1_555
Ca3 Mn3 3.506502 1_555
Ca3 Mn3 3.511736 1_565
Mn0 Sb4 2.700924 1_545
Mn0 Sb6 2.701904 1_455
Mn0 Sb6 2.701904 1_555
Mn0 Sb4 2.702382 1_555
Mn1 Sb5 2.700924 1_565
Mn1 Sb7 2.701904 1_655
Mn1 Sb7 2.701904 1_555
Mn1 Sb5 2.702382 1_555
Mn2 Sb6 2.700924 1_555
Mn2 Sb4 2.701904 1_555
Mn2 Sb4 2.701904 1_655
Mn2 Sb6 2.702382 1_565
Mn3 Sb7 2.700924 1_555
Mn3 Sb5 2.701904 1_555
Mn3 Sb5 2.701904 1_455
Mn3 Sb7 2.702382 1_545
Sb0 Sb1 2.996890 1_544
Sb0 Sb1 2.996890 1_444
Sb0 Sb1 3.201156 1_454
Sb0 Sb1 3.201156 1_554
Sb2 Sb3 2.996890 1_655
Sb2 Sb3 2.996890 1_555
Sb2 Sb3 3.201156 1_565
Sb2 Sb3 3.201156 1_665
