# generated using pymatgen
data_CaGeAu
_symmetry_space_group_name_H-M   'P 1'
_cell_length_a   4.51385887
_cell_length_b   7.75468993
_cell_length_c   21.65923271
_cell_angle_alpha   90.00000000
_cell_angle_beta   90.00000000
_cell_angle_gamma   90.00000000
_symmetry_Int_Tables_number   1
_chemical_formula_structural   CaGeAu
_chemical_formula_sum   'Ca12 Ge12 Au12'
_cell_volume   758.15059663
_cell_formula_units_Z   12
loop_
 _symmetry_equiv_pos_site_id
 _symmetry_equiv_pos_as_xyz
  1  'x, y, z'
loop_
 _atom_site_type_symbol
 _atom_site_label
 _atom_site_symmetry_multiplicity
 _atom_site_fract_x
 _atom_site_fract_y
 _atom_site_fract_z
 _atom_site_occupancy
  Ca  Ca0  1  0.25000000  0.71621853  0.00078980  1
  Ca  Ca1  1  0.75000000  0.28378147  0.99921020  1
  Ca  Ca2  1  0.75000000  0.21621853  0.49921020  1
  Ca  Ca3  1  0.25000000  0.78378147  0.50078980  1
  Ca  Ca4  1  0.25000000  0.79181116  0.16619558  1
  Ca  Ca5  1  0.75000000  0.20818884  0.83380442  1
  Ca  Ca6  1  0.75000000  0.29181116  0.33380442  1
  Ca  Ca7  1  0.25000000  0.70818884  0.66619558  1
  Ca  Ca8  1  0.25000000  0.70717783  0.33284874  1
  Ca  Ca9  1  0.75000000  0.29282217  0.66715126  1
  Ca  Ca10  1  0.75000000  0.20717783  0.16715126  1
  Ca  Ca11  1  0.25000000  0.79282217  0.83284874  1
  Ge  Ge0  1  0.75000000  0.58591588  0.10407734  1
  Ge  Ge1  1  0.75000000  0.91408412  0.60407734  1
  Ge  Ge2  1  0.25000000  0.08591588  0.39592266  1
  Ge  Ge3  1  0.25000000  0.41696510  0.77178134  1
  Ge  Ge4  1  0.75000000  0.58303490  0.22821866  1
  Ge  Ge5  1  0.75000000  0.91696510  0.72821866  1
  Ge  Ge6  1  0.25000000  0.41408412  0.89592266  1
  Ge  Ge7  1  0.25000000  0.08303490  0.27178134  1
  Ge  Ge8  1  0.25000000  0.40913797  0.56866332  1
  Ge  Ge9  1  0.75000000  0.59086203  0.43133668  1
  Ge  Ge10  1  0.75000000  0.90913797  0.93133668  1
  Ge  Ge11  1  0.25000000  0.09086203  0.06866332  1
  Au  Au0  1  0.25000000  0.08347835  0.93218405  1
  Au  Au1  1  0.75000000  0.91652165  0.06781595  1
  Au  Au2  1  0.75000000  0.58347835  0.56781595  1
  Au  Au3  1  0.25000000  0.41652165  0.43218405  1
  Au  Au4  1  0.25000000  0.08734892  0.73843070  1
  Au  Au5  1  0.75000000  0.58734892  0.76156930  1
  Au  Au6  1  0.25000000  0.41265108  0.23843070  1
  Au  Au7  1  0.25000000  0.08352718  0.59440468  1
  Au  Au8  1  0.75000000  0.91647282  0.40559532  1
  Au  Au9  1  0.75000000  0.58352718  0.90559532  1
  Au  Au10  1  0.25000000  0.41647282  0.09440468  1
  Au  Au11  1  0.75000000  0.91265108  0.26156930  1
loop_
_geom_bond_atom_site_label_1
_geom_bond_atom_site_label_2
_geom_bond_distance
_geom_bond_site_symmetry_2
Ca0 Ge10 3.097541 1_554
Ca0 Ge10 3.097541 1_454
Ca0 Ge11 3.256010 1_565
Ca0 Ge6 3.263196 1_554
Ca0 Ge0 3.334591 1_455
Ca0 Ge0 3.334591 1_555
Ca1 Ge11 3.097541 1_556
Ca1 Ge11 3.097541 1_656
Ca1 Ge10 3.256010 1_545
Ca1 Ge0 3.263196 1_556
Ca1 Ge6 3.334591 1_555
Ca1 Ge6 3.334591 1_655
Ca2 Ge8 3.097541 1_655
Ca2 Ge8 3.097541 1_555
Ca2 Ge9 3.256010 1_555
Ca2 Ge1 3.263196 1_545
Ca2 Ge2 3.334591 1_555
Ca2 Ge2 3.334591 1_655
Ca3 Ge9 3.097541 1_555
Ca3 Ge9 3.097541 1_455
Ca3 Ge8 3.256010 1_555
Ca3 Ge2 3.263196 1_565
Ca3 Ge1 3.334591 1_555
Ca3 Ge1 3.334591 1_455
Ca4 Ge0 3.074610 1_455
Ca4 Ge0 3.074610 1_555
Ca4 Ge4 3.085373 1_555
Ca4 Ge4 3.085373 1_455
Ca4 Ge11 3.136961 1_565
Ca4 Ge7 3.214045 1_565
Ca5 Ge6 3.074610 1_555
Ca5 Ge6 3.074610 1_655
Ca5 Ge3 3.085373 1_655
Ca5 Ge3 3.085373 1_555
Ca5 Ge10 3.136961 1_545
Ca5 Ge5 3.214045 1_545
Ca6 Ge2 3.074610 1_555
Ca6 Ge2 3.074610 1_655
Ca6 Ge7 3.085373 1_555
Ca6 Ge7 3.085373 1_655
Ca6 Ge9 3.136961 1_555
Ca6 Ge4 3.214045 1_555
Ca7 Ge1 3.074610 1_555
Ca7 Ge1 3.074610 1_455
Ca7 Ge5 3.085373 1_455
Ca7 Ge5 3.085373 1_555
Ca7 Ge8 3.136961 1_555
Ca7 Ge3 3.214045 1_555
Ca8 Ge7 3.200731 1_565
Ca8 Ge9 3.233844 1_455
Ca8 Ge9 3.233844 1_555
Ca8 Ge2 3.239177 1_565
Ca8 Ge4 3.340089 1_555
Ca8 Ge4 3.340089 1_455
Ca9 Ge5 3.200731 1_545
Ca9 Ge8 3.233844 1_655
Ca9 Ge8 3.233844 1_555
Ca9 Ge1 3.239177 1_545
Ca9 Ge3 3.340089 1_655
Ca9 Ge3 3.340089 1_555
Ca10 Ge4 3.200731 1_555
Ca10 Ge11 3.233844 1_555
Ca10 Ge11 3.233844 1_655
Ca10 Ge0 3.239177 1_555
Ca10 Ge7 3.340089 1_555
Ca10 Ge7 3.340089 1_655
Ca11 Ge3 3.200731 1_555
Ca11 Ge10 3.233844 1_455
Ca11 Ge10 3.233844 1_555
Ca11 Ge6 3.239177 1_555
Ca11 Ge5 3.340089 1_555
Ca11 Ge5 3.340089 1_455
Ge0 Ge4 2.688899 1_555
Ge1 Ge5 2.688899 1_555
Ge2 Ge7 2.688899 1_555
Ge3 Ge6 2.688899 1_555
Au0 Ge10 2.630941 1_445
Au0 Ge10 2.630941 1_545
Au0 Ge6 2.681349 1_555
Au0 Ge11 2.956591 1_556
Au0 Ca1 3.100640 1_455
Au0 Ca1 3.100640 1_555
Au0 Ca11 3.115983 1_545
Au0 Ca0 3.212330 1_546
Au0 Ca5 3.251065 1_455
Au0 Ca5 3.251065 1_555
Au1 Ge11 2.630941 1_665
Au1 Ge11 2.630941 1_565
Au1 Ge0 2.681349 1_555
Au1 Ge10 2.956591 1_554
Au1 Ca0 3.100640 1_555
Au1 Ca0 3.100640 1_655
Au1 Ca10 3.115983 1_565
Au1 Ca1 3.212330 1_564
Au1 Ca4 3.251065 1_655
Au1 Ca4 3.251065 1_555
Au2 Ge8 2.630941 1_655
Au2 Ge8 2.630941 1_555
Au2 Ge1 2.681349 1_555
Au2 Ge9 2.956591 1_555
Au2 Ca3 3.100640 1_555
Au2 Ca3 3.100640 1_655
Au2 Ca9 3.115983 1_555
Au2 Ca2 3.212330 1_555
Au2 Ca7 3.251065 1_555
Au2 Ca7 3.251065 1_655
Au3 Ge9 2.630941 1_455
Au3 Ge9 2.630941 1_555
Au3 Ge2 2.681349 1_555
Au3 Ge8 2.956591 1_555
Au3 Ca2 3.100640 1_455
Au3 Ca2 3.100640 1_555
Au3 Ca8 3.115983 1_555
Au3 Ca3 3.212330 1_555
Au3 Ca6 3.251065 1_455
Au3 Ca6 3.251065 1_555
Au4 Ge5 2.624579 1_445
Au4 Ge5 2.624579 1_545
Au4 Ge3 2.656179 1_555
Au4 Ca11 3.065715 1_545
Au4 Au7 3.119634 1_555
Au4 Ca9 3.164821 1_455
Au4 Ca9 3.164821 1_555
Au4 Ca5 3.199851 1_455
Au4 Ca5 3.199851 1_555
Au4 Ca7 3.330619 1_545
Au5 Ge3 2.624579 1_655
Au5 Ge3 2.624579 1_555
Au5 Ge5 2.656179 1_555
Au5 Ca9 3.065715 1_555
Au5 Au9 3.119634 1_555
Au5 Ca11 3.164821 1_655
Au5 Ca11 3.164821 1_555
Au5 Ca7 3.199851 1_555
Au5 Ca7 3.199851 1_655
Au5 Ca5 3.330619 1_555
Au6 Ge4 2.624579 1_455
Au6 Ge4 2.624579 1_555
Au6 Ge7 2.656179 1_555
Au6 Ca8 3.065715 1_555
Au6 Ca10 3.164821 1_455
Au6 Ca10 3.164821 1_555
Au6 Ca6 3.199851 1_455
Au6 Ca6 3.199851 1_555
Au6 Ca4 3.330619 1_555
Au7 Ge8 2.585832 1_555
Au7 Ge1 2.619954 1_545
Au7 Ge1 2.619954 1_445
Au7 Ca3 3.084521 1_545
Au7 Ca9 3.195394 1_555
Au7 Ca9 3.195394 1_455
Au7 Ca2 3.225479 1_455
Au7 Ca2 3.225479 1_555
Au7 Ca7 3.299940 1_545
Au8 Ge9 2.585832 1_555
Au8 Ge2 2.619954 1_565
Au8 Ge2 2.619954 1_665
Au8 Ca2 3.084521 1_565
Au8 Ca8 3.195394 1_555
Au8 Ca8 3.195394 1_655
Au8 Ca3 3.225479 1_555
Au8 Ca3 3.225479 1_655
Au8 Ca6 3.299940 1_565
Au9 Ge10 2.585832 1_555
Au9 Ge6 2.619954 1_555
Au9 Ge6 2.619954 1_655
Au9 Ca1 3.084521 1_555
Au9 Ca11 3.195394 1_555
Au9 Ca11 3.195394 1_655
Au9 Ca0 3.225479 1_656
Au9 Ca0 3.225479 1_556
Au9 Ca5 3.299940 1_555
Au10 Ge11 2.585832 1_555
Au10 Ge0 2.619954 1_455
Au10 Ge0 2.619954 1_555
Au10 Ca0 3.084521 1_555
Au10 Au6 3.119634 1_555
Au10 Ca10 3.195394 1_455
Au10 Ca10 3.195394 1_555
Au10 Ca1 3.225479 1_554
Au10 Ca1 3.225479 1_454
Au10 Ca4 3.299940 1_555
Au11 Ge7 2.624579 1_665
Au11 Ge7 2.624579 1_565
Au11 Ge4 2.656179 1_555
Au11 Ca10 3.065715 1_565
Au11 Au8 3.119634 1_555
Au11 Ca8 3.164821 1_555
Au11 Ca8 3.164821 1_655
Au11 Ca4 3.199851 1_555
Au11 Ca4 3.199851 1_655
Au11 Ca6 3.330619 1_565
