# generated using pymatgen
data_Mn6Ni16P7
_symmetry_space_group_name_H-M   'P 1'
_cell_length_a   7.75786083
_cell_length_b   7.75786083
_cell_length_c   7.75786083
_cell_angle_alpha   60.00000000
_cell_angle_beta   60.00000000
_cell_angle_gamma   60.00000000
_symmetry_Int_Tables_number   1
_chemical_formula_structural   Mn6Ni16P7
_chemical_formula_sum   'Mn6 Ni16 P7'
_cell_volume   330.14973678
_cell_formula_units_Z   1
loop_
 _symmetry_equiv_pos_site_id
 _symmetry_equiv_pos_as_xyz
  1  'x, y, z'
loop_
 _atom_site_type_symbol
 _atom_site_label
 _atom_site_symmetry_multiplicity
 _atom_site_fract_x
 _atom_site_fract_y
 _atom_site_fract_z
 _atom_site_occupancy
  Mn  Mn0  1  0.80863100  0.19136900  0.80863100  1
  Mn  Mn1  1  0.19136900  0.19136900  0.80863100  1
  Mn  Mn2  1  0.80863100  0.80863100  0.19136900  1
  Mn  Mn3  1  0.80863100  0.19136900  0.19136900  1
  Mn  Mn4  1  0.19136900  0.80863100  0.80863100  1
  Mn  Mn5  1  0.19136900  0.80863100  0.19136900  1
  Ni  Ni0  1  0.50735000  0.16421700  0.16421700  1
  Ni  Ni1  1  0.83578300  0.83578300  0.83578300  1
  Ni  Ni2  1  0.14975800  0.61674700  0.61674700  1
  Ni  Ni3  1  0.61674700  0.14975800  0.61674700  1
  Ni  Ni4  1  0.61674700  0.61674700  0.14975800  1
  Ni  Ni5  1  0.38325300  0.85024200  0.38325300  1
  Ni  Ni6  1  0.38325300  0.38325300  0.85024200  1
  Ni  Ni7  1  0.85024200  0.38325300  0.38325300  1
  Ni  Ni8  1  0.61674700  0.61674700  0.61674700  1
  Ni  Ni9  1  0.16421700  0.16421700  0.50735000  1
  Ni  Ni10  1  0.16421700  0.50735000  0.16421700  1
  Ni  Ni11  1  0.83578300  0.83578300  0.49265000  1
  Ni  Ni12  1  0.83578300  0.49265000  0.83578300  1
  Ni  Ni13  1  0.49265000  0.83578300  0.83578300  1
  Ni  Ni14  1  0.16421700  0.16421700  0.16421700  1
  Ni  Ni15  1  0.38325300  0.38325300  0.38325300  1
  P  P0  1  0.50000000  0.50000000  0.50000000  1
  P  P1  1  0.00000000  0.50000000  0.00000000  1
  P  P2  1  0.50000000  0.00000000  0.00000000  1
  P  P3  1  0.00000000  0.50000000  0.50000000  1
  P  P4  1  0.50000000  0.00000000  0.50000000  1
  P  P5  1  0.00000000  0.00000000  0.50000000  1
  P  P6  1  0.50000000  0.50000000  0.00000000  1
loop_
_geom_bond_atom_site_label_1
_geom_bond_atom_site_label_2
_geom_bond_distance
_geom_bond_site_symmetry_2
Mn0 Ni12 2.565292 1_555
Mn0 Ni0 2.565297 1_556
Mn0 Ni9 2.565297 1_655
Mn0 Ni1 2.565300 1_545
Mn0 Ni6 2.777252 1_555
Mn0 Ni7 2.777252 1_555
Mn0 Ni8 2.777253 1_555
Mn0 Ni3 2.777258 1_555
Mn0 P5 2.817238 1_655
Mn0 P2 2.817238 1_556
Mn0 P3 2.817238 1_655
Mn0 P6 2.817238 1_556
Mn1 Ni9 2.565292 1_555
Mn1 Ni13 2.565297 1_545
Mn1 Ni12 2.565297 1_455
Mn1 Ni14 2.565300 1_556
Mn1 Ni3 2.777252 1_555
Mn1 Ni2 2.777252 1_555
Mn1 Ni15 2.777253 1_555
Mn1 Ni6 2.777258 1_555
Mn1 P3 2.817238 1_555
Mn1 P4 2.817238 1_555
Mn1 P1 2.817238 1_556
Mn1 P2 2.817238 1_556
Mn2 Ni11 2.565292 1_555
Mn2 Ni10 2.565297 1_655
Mn2 Ni0 2.565297 1_565
Mn2 Ni1 2.565300 1_554
Mn2 Ni5 2.777252 1_555
Mn2 Ni7 2.777252 1_555
Mn2 Ni8 2.777253 1_555
Mn2 Ni4 2.777258 1_555
Mn2 P2 2.817238 1_565
Mn2 P1 2.817238 1_655
Mn2 P4 2.817238 1_565
Mn2 P3 2.817238 1_655
Mn3 Ni0 2.565292 1_555
Mn3 Ni12 2.565297 1_554
Mn3 Ni11 2.565297 1_545
Mn3 Ni14 2.565300 1_655
Mn3 Ni4 2.777252 1_555
Mn3 Ni3 2.777252 1_555
Mn3 Ni15 2.777253 1_555
Mn3 Ni7 2.777258 1_555
Mn3 P6 2.817238 1_555
Mn3 P4 2.817238 1_555
Mn3 P1 2.817238 1_655
Mn3 P5 2.817238 1_655
Mn4 Ni13 2.565292 1_555
Mn4 Ni10 2.565297 1_556
Mn4 Ni9 2.565297 1_565
Mn4 Ni1 2.565300 1_455
Mn4 Ni5 2.777252 1_555
Mn4 Ni6 2.777252 1_555
Mn4 Ni8 2.777253 1_555
Mn4 Ni2 2.777258 1_555
Mn4 P1 2.817238 1_556
Mn4 P5 2.817238 1_565
Mn4 P4 2.817238 1_565
Mn4 P6 2.817238 1_556
Mn5 Ni10 2.565292 1_555
Mn5 Ni11 2.565297 1_455
Mn5 Ni13 2.565297 1_554
Mn5 Ni14 2.565300 1_565
Mn5 Ni2 2.777252 1_555
Mn5 Ni4 2.777252 1_555
Mn5 Ni15 2.777253 1_555
Mn5 Ni5 2.777258 1_555
Mn5 P3 2.817238 1_555
Mn5 P6 2.817238 1_555
Mn5 P5 2.817238 1_565
Mn5 P2 2.817238 1_565
Ni0 P6 2.239983 1_555
Ni0 P4 2.239983 1_555
Ni0 P2 2.239990 1_555
Ni0 Ni15 2.513439 1_555
Ni0 Ni6 2.513439 1_554
Ni0 Ni5 2.513439 1_545
Ni1 P2 2.239985 1_566
Ni1 P5 2.239985 1_665
Ni1 P1 2.239985 1_656
Ni1 Ni3 2.513439 1_565
Ni1 Ni4 2.513439 1_556
Ni1 Ni2 2.513439 1_655
Ni2 P0 2.218526 1_555
Ni2 P3 2.432119 1_555
Ni2 P1 2.432125 1_556
Ni2 P5 2.432125 1_565
Ni2 Ni6 2.561737 1_555
Ni2 Ni5 2.561737 1_555
Ni3 P0 2.218526 1_555
Ni3 P4 2.432119 1_555
Ni3 P2 2.432125 1_556
Ni3 P5 2.432125 1_655
Ni3 Ni6 2.561737 1_555
Ni3 Ni7 2.561737 1_555
Ni4 P0 2.218526 1_555
Ni4 P6 2.432119 1_555
Ni4 P1 2.432125 1_655
Ni4 P2 2.432125 1_565
Ni4 Ni7 2.561737 1_555
Ni4 Ni5 2.561737 1_555
Ni5 P0 2.218526 1_555
Ni5 P4 2.432119 1_565
Ni5 P5 2.432125 1_565
Ni5 P2 2.432125 1_565
Ni5 Ni9 2.513439 1_565
Ni5 Ni8 2.561726 1_555
Ni6 P0 2.218526 1_555
Ni6 P6 2.432119 1_556
Ni6 P1 2.432125 1_556
Ni6 P2 2.432125 1_556
Ni6 Ni8 2.561726 1_555
Ni7 P0 2.218526 1_555
Ni7 P3 2.432119 1_655
Ni7 P1 2.432125 1_655
Ni7 P5 2.432125 1_655
Ni7 Ni9 2.513439 1_655
Ni7 Ni8 2.561726 1_555
Ni8 P0 2.218520 1_555
Ni8 P3 2.432126 1_655
Ni8 P6 2.432126 1_556
Ni8 P4 2.432126 1_565
Ni9 P3 2.239983 1_555
Ni9 P4 2.239983 1_555
Ni9 P5 2.239990 1_555
Ni10 P6 2.239983 1_555
Ni10 P3 2.239983 1_555
Ni10 P1 2.239990 1_555
Ni10 Ni15 2.513439 1_555
Ni10 Ni6 2.513439 1_554
Ni10 Ni7 2.513439 1_455
Ni11 P4 2.239983 1_565
Ni11 P3 2.239983 1_655
Ni11 P5 2.239990 1_665
Ni11 Ni8 2.513439 1_555
Ni11 Ni3 2.513439 1_565
Ni11 Ni2 2.513439 1_655
Ni12 P6 2.239983 1_556
Ni12 P3 2.239983 1_655
Ni12 P1 2.239990 1_656
Ni12 Ni8 2.513439 1_555
Ni12 Ni4 2.513439 1_556
Ni12 Ni2 2.513439 1_655
Ni13 P4 2.239983 1_565
Ni13 P6 2.239983 1_556
Ni13 P2 2.239990 1_566
Ni13 Ni8 2.513439 1_555
Ni13 Ni3 2.513439 1_565
Ni13 Ni4 2.513439 1_556
Ni14 P1 2.239985 1_555
Ni14 P5 2.239985 1_555
Ni14 P2 2.239985 1_555
Ni14 Ni6 2.513439 1_554
Ni14 Ni5 2.513439 1_545
Ni14 Ni7 2.513439 1_455
Ni15 P0 2.218520 1_555
Ni15 P6 2.432126 1_555
Ni15 P4 2.432126 1_555
Ni15 P3 2.432126 1_555
Ni15 Ni9 2.513439 1_555
Ni15 Ni4 2.561726 1_555
Ni15 Ni2 2.561726 1_555
Ni15 Ni3 2.561726 1_555
