# generated using pymatgen
data_Ag3P11
_symmetry_space_group_name_H-M   'P 1'
_cell_length_a   6.62176109
_cell_length_b   7.53591540
_cell_length_c   7.53591470
_cell_angle_alpha   60.40008213
_cell_angle_beta   65.29420580
_cell_angle_gamma   65.29419083
_symmetry_Int_Tables_number   1
_chemical_formula_structural   Ag3P11
_chemical_formula_sum   'Ag3 P11'
_cell_volume   286.19742275
_cell_formula_units_Z   1
loop_
 _symmetry_equiv_pos_site_id
 _symmetry_equiv_pos_as_xyz
  1  'x, y, z'
loop_
 _atom_site_type_symbol
 _atom_site_label
 _atom_site_symmetry_multiplicity
 _atom_site_fract_x
 _atom_site_fract_y
 _atom_site_fract_z
 _atom_site_occupancy
  Ag  Ag0  1  0.03288346  0.70811999  0.70811999  1
  Ag  Ag1  1  0.80045015  0.41167430  0.41167430  1
  Ag  Ag2  1  0.00579138  0.99938008  0.99938008  1
  P  P0  1  0.04382391  0.18986355  0.18986355  1
  P  P1  1  0.05213617  0.50883074  0.50883074  1
  P  P2  1  0.72790675  0.91695164  0.91695164  1
  P  P3  1  0.53070553  0.73568155  0.22311051  1
  P  P4  1  0.53070553  0.22311051  0.73568155  1
  P  P5  1  0.50089699  0.38690010  0.08896588  1
  P  P6  1  0.50089699  0.08896588  0.38690010  1
  P  P7  1  0.27146745  0.38884389  0.94514030  1
  P  P8  1  0.27146745  0.94514030  0.38884389  1
  P  P9  1  0.26563261  0.64845436  0.19208012  1
  P  P10  1  0.26563261  0.19208012  0.64845436  1
loop_
_geom_bond_atom_site_label_1
_geom_bond_atom_site_label_2
_geom_bond_distance
_geom_bond_site_symmetry_2
Ag0 P2 2.482926 1_455
Ag0 P7 2.532034 1_555
Ag0 P8 2.532035 1_555
Ag0 P1 2.536785 1_555
Ag1 P3 2.493984 1_555
Ag1 P4 2.493985 1_555
Ag1 P1 2.533630 1_655
Ag1 P0 2.538087 1_655
Ag2 P2 2.539634 1_455
Ag2 P9 2.560106 1_556
Ag2 P10 2.560106 1_565
Ag2 P0 2.612382 1_566
P0 P8 2.180741 1_545
P0 P7 2.180742 1_554
P1 P10 2.178288 1_555
P1 P9 2.178289 1_555
P2 P4 2.180253 1_565
P2 P3 2.180253 1_556
P3 P8 2.211002 1_555
P3 P9 2.242120 1_555
P4 P7 2.211002 1_555
P5 P7 2.196627 1_554
P5 P9 2.202305 1_555
P5 P6 2.258771 1_555
P6 P8 2.196627 1_545
P10 P6 2.202305 1_555
P10 P4 2.242120 1_555
