# generated using pymatgen
data_V2Fe3(SiO4)3
_symmetry_space_group_name_H-M   'P 1'
_cell_length_a   10.30908327
_cell_length_b   10.30908327
_cell_length_c   10.30908327
_cell_angle_alpha   109.47122063
_cell_angle_beta   109.47122063
_cell_angle_gamma   109.47122063
_symmetry_Int_Tables_number   1
_chemical_formula_structural   V2Fe3(SiO4)3
_chemical_formula_sum   'V8 Fe12 Si12 O48'
_cell_volume   843.40904025
_cell_formula_units_Z   4
loop_
 _symmetry_equiv_pos_site_id
 _symmetry_equiv_pos_as_xyz
  1  'x, y, z'
loop_
 _atom_site_type_symbol
 _atom_site_label
 _atom_site_symmetry_multiplicity
 _atom_site_fract_x
 _atom_site_fract_y
 _atom_site_fract_z
 _atom_site_occupancy
  V  V0  1  0.50000000  0.50000000  0.50000000  1
  V  V1  1  0.50000000  0.00000000  0.50000000  1
  V  V2  1  0.00000000  0.50000000  0.50000000  1
  V  V3  1  0.50000000  0.50000000  0.00000000  1
  V  V4  1  0.00000000  0.00000000  0.50000000  1
  V  V5  1  0.00000000  0.50000000  0.00000000  1
  V  V6  1  0.50000000  0.00000000  0.00000000  1
  V  V7  1  0.00000000  0.00000000  0.00000000  1
  Fe  Fe0  1  0.87500000  0.62500000  0.25000000  1
  Fe  Fe1  1  0.62500000  0.25000000  0.87500000  1
  Fe  Fe2  1  0.87500000  0.75000000  0.62500000  1
  Fe  Fe3  1  0.75000000  0.62500000  0.87500000  1
  Fe  Fe4  1  0.25000000  0.87500000  0.62500000  1
  Fe  Fe5  1  0.62500000  0.87500000  0.75000000  1
  Fe  Fe6  1  0.12500000  0.37500000  0.75000000  1
  Fe  Fe7  1  0.37500000  0.75000000  0.12500000  1
  Fe  Fe8  1  0.12500000  0.25000000  0.37500000  1
  Fe  Fe9  1  0.25000000  0.37500000  0.12500000  1
  Fe  Fe10  1  0.75000000  0.12500000  0.37500000  1
  Fe  Fe11  1  0.37500000  0.12500000  0.25000000  1
  Si  Si0  1  0.12500000  0.87500000  0.25000000  1
  Si  Si1  1  0.87500000  0.12500000  0.75000000  1
  Si  Si2  1  0.25000000  0.62500000  0.37500000  1
  Si  Si3  1  0.37500000  0.25000000  0.62500000  1
  Si  Si4  1  0.75000000  0.87500000  0.12500000  1
  Si  Si5  1  0.12500000  0.75000000  0.87500000  1
  Si  Si6  1  0.37500000  0.62500000  0.75000000  1
  Si  Si7  1  0.62500000  0.75000000  0.37500000  1
  Si  Si8  1  0.87500000  0.25000000  0.12500000  1
  Si  Si9  1  0.25000000  0.12500000  0.87500000  1
  Si  Si10  1  0.75000000  0.37500000  0.62500000  1
  Si  Si11  1  0.62500000  0.37500000  0.25000000  1
  O  O0  1  0.69340500  0.08870400  0.71107700  1
  O  O1  1  0.10470000  0.98232800  0.69340500  1
  O  O2  1  0.71107700  0.51767200  0.62237200  1
  O  O3  1  0.62237200  0.71107700  0.51767200  1
  O  O4  1  0.87762800  0.39530000  0.08870400  1
  O  O5  1  0.08870400  0.87762800  0.39530000  1
  O  O6  1  0.98232800  0.69340500  0.10470000  1
  O  O7  1  0.41129600  0.10470000  0.62237200  1
  O  O8  1  0.39530000  0.80659500  0.51767200  1
  O  O9  1  0.98232800  0.78892300  0.87762800  1
  O  O10  1  0.10470000  0.62237200  0.41129600  1
  O  O11  1  0.51767200  0.39530000  0.80659500  1
  O  O12  1  0.78892300  0.87762800  0.98232800  1
  O  O13  1  0.71107700  0.69340500  0.08870400  1
  O  O14  1  0.08870400  0.71107700  0.69340500  1
  O  O15  1  0.62237200  0.41129600  0.10470000  1
  O  O16  1  0.78892300  0.41129600  0.80659500  1
  O  O17  1  0.80659500  0.51767200  0.39530000  1
  O  O18  1  0.80659500  0.78892300  0.41129600  1
  O  O19  1  0.87762800  0.98232800  0.78892300  1
  O  O20  1  0.41129600  0.80659500  0.78892300  1
  O  O21  1  0.39530000  0.08870400  0.87762800  1
  O  O22  1  0.69340500  0.10470000  0.98232800  1
  O  O23  1  0.51767200  0.62237200  0.71107700  1
  O  O24  1  0.30659500  0.91129600  0.28892300  1
  O  O25  1  0.89530000  0.01767200  0.30659500  1
  O  O26  1  0.28892300  0.48232800  0.37762800  1
  O  O27  1  0.37762800  0.28892300  0.48232800  1
  O  O28  1  0.12237200  0.60470000  0.91129600  1
  O  O29  1  0.91129600  0.12237200  0.60470000  1
  O  O30  1  0.01767200  0.30659500  0.89530000  1
  O  O31  1  0.58870400  0.89530000  0.37762800  1
  O  O32  1  0.60470000  0.19340500  0.48232800  1
  O  O33  1  0.01767200  0.21107700  0.12237200  1
  O  O34  1  0.89530000  0.37762800  0.58870400  1
  O  O35  1  0.48232800  0.60470000  0.19340500  1
  O  O36  1  0.21107700  0.12237200  0.01767200  1
  O  O37  1  0.28892300  0.30659500  0.91129600  1
  O  O38  1  0.91129600  0.28892300  0.30659500  1
  O  O39  1  0.37762800  0.58870400  0.89530000  1
  O  O40  1  0.21107700  0.58870400  0.19340500  1
  O  O41  1  0.19340500  0.48232800  0.60470000  1
  O  O42  1  0.19340500  0.21107700  0.58870400  1
  O  O43  1  0.12237200  0.01767200  0.21107700  1
  O  O44  1  0.58870400  0.19340500  0.21107700  1
  O  O45  1  0.60470000  0.91129600  0.12237200  1
  O  O46  1  0.30659500  0.89530000  0.01767200  1
  O  O47  1  0.48232800  0.37762800  0.28892300  1
loop_
_geom_bond_atom_site_label_1
_geom_bond_atom_site_label_2
_geom_bond_distance
_geom_bond_site_symmetry_2
Fe0 O5 2.292204 1_655
Fe0 O15 2.292204 1_555
Fe0 O6 2.292208 1_555
Fe0 O17 2.292208 1_555
Fe0 O4 2.412648 1_555
Fe0 O10 2.412648 1_655
Fe0 O18 2.412650 1_555
Fe0 O13 2.412650 1_555
Fe1 O4 2.292204 1_556
Fe1 O7 2.292204 1_555
Fe1 O22 2.292208 1_555
Fe1 O11 2.292208 1_555
Fe1 O21 2.412648 1_555
Fe1 O15 2.412648 1_556
Fe1 O16 2.412650 1_555
Fe1 O0 2.412650 1_555
Fe2 O14 2.292198 1_655
Fe2 O18 2.292198 1_555
Fe2 O9 2.292208 1_555
Fe2 O3 2.292208 1_555
Fe2 O2 2.412644 1_555
Fe2 O19 2.412644 1_555
Fe2 O17 2.412644 1_555
Fe2 O1 2.412644 1_655
Fe3 O13 2.292198 1_556
Fe3 O16 2.292198 1_555
Fe3 O12 2.292208 1_555
Fe3 O2 2.292208 1_555
Fe3 O23 2.412644 1_555
Fe3 O9 2.412644 1_555
Fe3 O11 2.412644 1_555
Fe3 O6 2.412644 1_556
Fe4 O21 2.292204 1_565
Fe4 O10 2.292204 1_555
Fe4 O1 2.292208 1_555
Fe4 O8 2.292208 1_555
Fe4 O5 2.412648 1_555
Fe4 O7 2.412648 1_565
Fe4 O20 2.412650 1_555
Fe4 O14 2.412650 1_555
Fe5 O0 2.292198 1_565
Fe5 O20 2.292198 1_555
Fe5 O19 2.292208 1_555
Fe5 O23 2.292208 1_555
Fe5 O3 2.412644 1_555
Fe5 O12 2.412644 1_555
Fe5 O8 2.412644 1_555
Fe5 O22 2.412644 1_565
Fe6 O39 2.292204 1_555
Fe6 O29 2.292204 1_455
Fe6 O41 2.292208 1_555
Fe6 O30 2.292208 1_555
Fe6 O34 2.412648 1_455
Fe6 O28 2.412648 1_555
Fe6 O37 2.412650 1_555
Fe6 O42 2.412650 1_555
Fe7 O31 2.292204 1_555
Fe7 O28 2.292204 1_554
Fe7 O35 2.292208 1_555
Fe7 O46 2.292208 1_555
Fe7 O39 2.412648 1_554
Fe7 O45 2.412648 1_555
Fe7 O24 2.412650 1_555
Fe7 O40 2.412650 1_555
Fe8 O42 2.292198 1_555
Fe8 O38 2.292198 1_455
Fe8 O27 2.292208 1_555
Fe8 O33 2.292208 1_555
Fe8 O25 2.412644 1_455
Fe8 O43 2.412644 1_555
Fe8 O41 2.412644 1_555
Fe8 O26 2.412644 1_555
Fe9 O37 2.292198 1_554
Fe9 O40 2.292198 1_555
Fe9 O26 2.292208 1_555
Fe9 O36 2.292208 1_555
Fe9 O30 2.412644 1_554
Fe9 O35 2.412644 1_555
Fe9 O33 2.412644 1_555
Fe9 O47 2.412644 1_555
Fe10 O34 2.292204 1_555
Fe10 O45 2.292204 1_545
Fe10 O32 2.292208 1_555
Fe10 O25 2.292208 1_555
Fe10 O31 2.412648 1_545
Fe10 O29 2.412648 1_555
Fe10 O38 2.412650 1_555
Fe10 O44 2.412650 1_555
Fe11 O44 2.292198 1_555
Fe11 O24 2.292198 1_545
Fe11 O47 2.292208 1_555
Fe11 O43 2.292208 1_555
Fe11 O36 2.412644 1_555
Fe11 O46 2.412644 1_545
Fe11 O32 2.412644 1_555
Fe11 O27 2.412644 1_555
O0 Si1 1.654633 1_555
O0 V1 2.027836 1_555
O1 Si9 1.654636 1_565
O1 V4 2.027833 1_565
O2 Si10 1.654636 1_555
O2 V0 2.027833 1_555
O3 Si7 1.654636 1_555
O3 V0 2.027833 1_555
O4 Si8 1.654641 1_555
O4 V5 2.027825 1_655
O5 Si0 1.654641 1_555
O5 V4 2.027825 1_565
O6 Si0 1.654636 1_655
O6 V5 2.027833 1_655
O7 Si3 1.654641 1_555
O7 V1 2.027825 1_555
O8 Si2 1.654636 1_555
O8 V1 2.027833 1_565
O9 Si5 1.654636 1_655
O9 V7 2.027833 1_666
O10 Si2 1.654641 1_555
O10 V2 2.027825 1_555
O11 Si3 1.654636 1_555
O11 V3 2.027833 1_556
O12 Si4 1.654636 1_556
O12 V7 2.027833 1_666
O13 Si4 1.654633 1_555
O13 V3 2.027836 1_555
O14 Si5 1.654633 1_555
O14 V2 2.027836 1_555
O15 Si11 1.654641 1_555
O15 V3 2.027825 1_555
O16 Si10 1.654633 1_555
O16 V5 2.027836 1_656
O17 Si11 1.654636 1_555
O17 V2 2.027833 1_655
O18 Si7 1.654633 1_555
O18 V4 2.027836 1_665
O19 Si1 1.654636 1_565
O19 V7 2.027833 1_666
O20 Si6 1.654633 1_555
O20 V6 2.027836 1_566
O21 Si9 1.654641 1_555
O21 V6 2.027825 1_556
O22 Si8 1.654636 1_556
O22 V6 2.027833 1_556
O23 Si6 1.654636 1_555
O23 V0 2.027833 1_555
O24 Si0 1.654633 1_555
O24 V1 2.027836 1_565
O25 Si4 1.654636 1_545
O25 V4 2.027833 1_655
O26 Si2 1.654636 1_555
O26 V0 2.027833 1_555
O27 Si3 1.654636 1_555
O27 V0 2.027833 1_555
O28 Si5 1.654641 1_555
O28 V5 2.027825 1_556
O29 Si1 1.654641 1_555
O29 V4 2.027825 1_655
O30 Si1 1.654636 1_455
O30 V5 2.027833 1_556
O31 Si7 1.654641 1_555
O31 V1 2.027825 1_565
O32 Si10 1.654636 1_555
O32 V1 2.027833 1_555
O33 Si8 1.654636 1_455
O33 V7 2.027833 1_555
O34 Si10 1.654641 1_555
O34 V2 2.027825 1_655
O35 Si7 1.654636 1_555
O35 V3 2.027833 1_555
O36 Si9 1.654636 1_554
O36 V7 2.027833 1_555
O37 Si9 1.654633 1_555
O37 V3 2.027836 1_556
O38 Si8 1.654633 1_555
O38 V2 2.027836 1_655
O39 Si6 1.654641 1_555
O39 V3 2.027825 1_556
O40 Si2 1.654633 1_555
O40 V5 2.027836 1_555
O41 Si6 1.654636 1_555
O41 V2 2.027833 1_555
O42 Si3 1.654633 1_555
O42 V4 2.027836 1_555
O43 Si0 1.654636 1_545
O43 V7 2.027833 1_555
O44 Si11 1.654633 1_555
O44 V6 2.027836 1_555
O45 Si4 1.654641 1_555
O45 V6 2.027825 1_565
O46 Si5 1.654636 1_554
O46 V6 2.027833 1_565
O47 Si11 1.654636 1_555
O47 V0 2.027833 1_555
