# generated using pymatgen
data_MgGa4(CuO4)2
_symmetry_space_group_name_H-M   'P 1'
_cell_length_a   5.95772144
_cell_length_b   6.24172468
_cell_length_c   6.23919580
_cell_angle_alpha   123.01940771
_cell_angle_beta   90.11526516
_cell_angle_gamma   61.39624719
_symmetry_Int_Tables_number   1
_chemical_formula_structural   MgGa4(CuO4)2
_chemical_formula_sum   'Mg1 Ga4 Cu2 O8'
_cell_volume   159.88808383
_cell_formula_units_Z   1
loop_
 _symmetry_equiv_pos_site_id
 _symmetry_equiv_pos_as_xyz
  1  'x, y, z'
loop_
 _atom_site_type_symbol
 _atom_site_label
 _atom_site_symmetry_multiplicity
 _atom_site_fract_x
 _atom_site_fract_y
 _atom_site_fract_z
 _atom_site_occupancy
  Mg  Mg0  1  0.87498900  0.24728600  0.87226700  1
  Ga  Ga0  1  0.87499700  0.74876100  0.37376800  1
  Ga  Ga1  1  0.37524000  0.74886100  0.37402800  1
  Ga  Ga2  1  0.37477100  0.24923300  0.87408700  1
  Ga  Ga3  1  0.37499000  0.25038900  0.37538300  1
  Cu  Cu0  1  0.72079300  0.56444200  0.72462100  1
  Cu  Cu1  1  0.02915300  0.94368100  0.03347400  1
  O  O0  1  0.60066000  0.79825200  0.59882800  1
  O  O1  1  0.62129100  0.75599400  0.15063100  1
  O  O2  1  0.12920600  0.74160200  0.59690200  1
  O  O3  1  0.14935900  0.69968500  0.14910200  1
  O  O4  1  0.12883400  0.27211800  0.12743400  1
  O  O5  1  0.59812100  0.27234400  0.12818400  1
  O  O6  1  0.62070500  0.22588800  0.62066700  1
  O  O7  1  0.15189200  0.22625500  0.62041700  1
loop_
_geom_bond_atom_site_label_1
_geom_bond_atom_site_label_2
_geom_bond_distance
_geom_bond_site_symmetry_2
Mg0 O2 2.175152 1_645
Mg0 O6 2.175502 1_555
Mg0 O7 2.187731 1_655
Mg0 O5 2.187744 1_556
Mg0 O1 2.188175 1_556
Mg0 O4 2.188972 1_656
Ga0 O0 1.947200 1_555
Ga0 O3 1.947399 1_655
Ga0 O4 2.053860 1_655
Ga0 O1 2.054167 1_555
Ga0 O6 2.055921 1_565
Ga0 O2 2.056307 1_655
Ga1 O0 1.945116 1_555
Ga1 O3 1.947586 1_555
Ga1 O5 2.053511 1_555
Ga1 O2 2.055414 1_555
Ga1 O1 2.057165 1_555
Ga1 O7 2.057251 1_565
Ga2 O3 1.946519 1_556
Ga2 O0 1.948758 1_545
Ga2 O7 2.053093 1_555
Ga2 O6 2.054716 1_555
Ga2 O4 2.056377 1_556
Ga2 O5 2.056913 1_556
Ga3 O6 2.130760 1_555
Ga3 O2 2.132123 1_555
Ga3 O7 2.139509 1_555
Ga3 O5 2.139565 1_555
Ga3 O4 2.142757 1_555
Ga3 O1 2.144472 1_545
Cu0 O0 1.871883 1_555
Cu0 O1 2.170240 1_556
Cu0 O7 2.189736 1_655
Cu0 O6 2.225518 1_555
Cu1 O3 1.871829 1_555
Cu1 O4 2.180240 1_565
Cu1 O5 2.189261 1_465
Cu1 O2 2.215388 1_554
