# generated using pymatgen
data_LiNiPO4
_symmetry_space_group_name_H-M   'P 1'
_cell_length_a   4.73214600
_cell_length_b   5.92667200
_cell_length_c   10.14381000
_cell_angle_alpha   89.99885199
_cell_angle_beta   89.99866274
_cell_angle_gamma   90.00273053
_symmetry_Int_Tables_number   1
_chemical_formula_structural   LiNiPO4
_chemical_formula_sum   'Li4 Ni4 P4 O16'
_cell_volume   284.49204937
_cell_formula_units_Z   4
loop_
 _symmetry_equiv_pos_site_id
 _symmetry_equiv_pos_as_xyz
  1  'x, y, z'
loop_
 _atom_site_type_symbol
 _atom_site_label
 _atom_site_symmetry_multiplicity
 _atom_site_fract_x
 _atom_site_fract_y
 _atom_site_fract_z
 _atom_site_occupancy
  Li  Li0  1  0.49819000  0.75041700  0.24891600  1
  Li  Li1  1  0.50186900  0.25040000  0.25109400  1
  Li  Li2  1  0.00178600  0.24954300  0.74890400  1
  Li  Li3  1  0.99814400  0.74956400  0.75111200  1
  Ni  Ni0  1  0.01840200  0.50077600  0.47431000  1
  Ni  Ni1  1  0.48165300  0.49930900  0.97428200  1
  Ni  Ni2  1  0.98168400  0.00104100  0.02569900  1
  Ni  Ni3  1  0.51829800  0.99897100  0.52565000  1
  P  P0  1  0.91674600  0.50106800  0.15579400  1
  P  P1  1  0.08323000  0.00100800  0.34420000  1
  P  P2  1  0.58326600  0.49892600  0.65579500  1
  P  P3  1  0.41675400  0.99899800  0.84419200  1
  O  O0  1  0.77491000  0.70827700  0.08457600  1
  O  O1  1  0.22508000  0.20820500  0.41550700  1
  O  O2  1  0.72507300  0.29171500  0.58457200  1
  O  O3  1  0.27491200  0.79180900  0.91550600  1
  O  O4  1  0.77554600  0.29351000  0.08450600  1
  O  O5  1  0.22448400  0.79335600  0.41545600  1
  O  O6  1  0.72445400  0.70649900  0.58450400  1
  O  O7  1  0.27550500  0.20663300  0.91544600  1
  O  O8  1  0.24093200  0.50089000  0.15021400  1
  O  O9  1  0.75896500  0.00081400  0.34977800  1
  O  O10  1  0.25908100  0.49911100  0.65023900  1
  O  O11  1  0.74101000  0.99917200  0.84978200  1
  O  O12  1  0.20088700  0.00117400  0.20112300  1
  O  O13  1  0.79919400  0.50110300  0.29886200  1
  O  O14  1  0.29910400  0.99882000  0.70112400  1
  O  O15  1  0.70084000  0.49889000  0.79885800  1
loop_
_geom_bond_atom_site_label_1
_geom_bond_atom_site_label_2
_geom_bond_distance
_geom_bond_site_symmetry_2
Li0 O12 2.103142 1_565
Li0 O13 2.114025 1_555
Li0 O0 2.134493 1_555
Li0 O5 2.143875 1_555
Li0 O8 2.161350 1_555
Li0 O9 2.184460 1_565
Li1 O13 2.102846 1_555
Li1 O12 2.113570 1_555
Li1 O1 2.135287 1_555
Li1 O4 2.144273 1_555
Li1 O9 2.161125 1_555
Li1 O8 2.185405 1_555
Li2 O14 2.103015 1_545
Li2 O15 2.113994 1_455
Li2 O2 2.134471 1_455
Li2 O7 2.143947 1_555
Li2 O10 2.161388 1_555
Li2 O11 2.184379 1_445
Li3 O15 2.102578 1_555
Li3 O14 2.113635 1_655
Li3 O3 2.135166 1_655
Li3 O6 2.144494 1_555
Li3 O11 2.161251 1_555
Li3 O10 2.185224 1_655
Ni0 O13 2.059977 1_455
Ni0 O5 2.077032 1_555
Ni0 O1 2.078263 1_555
Ni0 O10 2.117100 1_555
Ni0 O6 2.161264 1_455
Ni0 O2 2.170867 1_455
Ni1 O15 2.059675 1_555
Ni1 O7 2.077635 1_555
Ni1 O3 2.077966 1_555
Ni1 O8 2.117186 1_556
Ni1 O4 2.161517 1_556
Ni1 O0 2.170561 1_556
Ni2 O12 2.059754 1_655
Ni2 O4 2.076568 1_555
Ni2 O0 2.079549 1_545
Ni2 O11 2.116991 1_544
Ni2 O7 2.160649 1_654
Ni2 O3 2.170881 1_644
Ni3 O14 2.060128 1_555
Ni3 O6 2.076753 1_555
Ni3 O2 2.079616 1_565
Ni3 O9 2.116542 1_565
Ni3 O5 2.160454 1_555
Ni3 O1 2.170604 1_565
O0 P0 1.574987 1_555
O1 P1 1.575347 1_555
O2 P2 1.574969 1_555
O3 P3 1.575289 1_555
O4 P0 1.575620 1_555
O5 P1 1.576041 1_565
O6 P2 1.575642 1_555
O7 P3 1.575952 1_545
O8 P0 1.535138 1_455
O9 P1 1.535511 1_655
O10 P2 1.535127 1_555
O11 P3 1.535476 1_555
O12 P1 1.554465 1_555
O13 P0 1.554201 1_555
O14 P3 1.554392 1_555
O15 P2 1.554216 1_555
