# generated using pymatgen
data_CsCuCl3
_symmetry_space_group_name_H-M   'P 1'
_cell_length_a   7.28351781
_cell_length_b   7.28265101
_cell_length_c   18.18519688
_cell_angle_alpha   89.99983664
_cell_angle_beta   89.99982198
_cell_angle_gamma   119.99954439
_symmetry_Int_Tables_number   1
_chemical_formula_structural   CsCuCl3
_chemical_formula_sum   'Cs6 Cu6 Cl18'
_cell_volume   835.37470053
_cell_formula_units_Z   6
loop_
 _symmetry_equiv_pos_site_id
 _symmetry_equiv_pos_as_xyz
  1  'x, y, z'
loop_
 _atom_site_type_symbol
 _atom_site_label
 _atom_site_symmetry_multiplicity
 _atom_site_fract_x
 _atom_site_fract_y
 _atom_site_fract_z
 _atom_site_occupancy
  Cs  Cs0  1  0.64458177  0.28917795  0.75000040  1
  Cs  Cs1  1  0.35578151  0.64441339  0.91648836  1
  Cs  Cs2  1  0.28862545  0.64440481  0.58350882  1
  Cs  Cs3  1  0.71135969  0.35557665  0.08350641  1
  Cs  Cs4  1  0.64420787  0.35557877  0.41649134  1
  Cs  Cs5  1  0.35540710  0.71080729  0.24999861  1
  Cu  Cu0  1  0.93031926  0.00000292  0.49999786  1
  Cu  Cu1  1  0.93158282  0.93242903  0.66643347  1
  Cu  Cu2  1  0.99917683  0.06761047  0.33356784  1
  Cu  Cu3  1  0.00080373  0.93235449  0.83357630  1
  Cu  Cu4  1  0.06845511  0.06762755  0.16642339  1
  Cu  Cu5  1  0.06967634  -0.00000890  -0.00000151  1
  Cl  Cl0  1  0.35994451  0.14485143  0.92508089  1
  Cl  Cl1  1  0.85512749  0.21369984  0.25862436  1
  Cl  Cl2  1  0.78596007  0.64186824  0.59169577  1
  Cl  Cl3  1  0.21405059  0.35816561  0.09168203  1
  Cl  Cl4  1  0.64146510  0.78634013  0.74137763  1
  Cl  Cl5  1  0.64004339  0.85513927  0.42507860  1
  Cl  Cl6  1  0.14486717  0.78629333  0.75862811  1
  Cl  Cl7  1  0.85588875  0.64181617  0.90831520  1
  Cl  Cl8  1  0.78489387  0.14486880  0.57492337  1
  Cl  Cl9  1  0.21510584  0.85512884  0.07491625  1
  Cl  Cl10  1  0.14408741  0.35815334  0.40830608  1
  Cl  Cl11  1  0.35855920  0.21368492  0.24137179  1
  Cl  Cl12  1  0.89389492  0.78776803  0.24999927  1
  Cl  Cl13  1  0.10479296  0.89366337  0.41686957  1
  Cl  Cl14  1  0.78889263  0.89368657  0.08313358  1
  Cl  Cl15  1  0.21113002  0.10633782  0.58312700  1
  Cl  Cl16  1  0.89519298  0.10631872  0.91687149  1
  Cl  Cl17  1  0.10612364  0.21224216  0.75000769  1
loop_
_geom_bond_atom_site_label_1
_geom_bond_atom_site_label_2
_geom_bond_distance
_geom_bond_site_symmetry_2
Cl0 Cu5 2.282195 1_556
Cl0 Cu3 2.821056 1_545
Cl0 Cs1 3.632813 1_545
Cl0 Cs3 3.643991 1_556
Cl0 Cs0 3.655232 1_555
Cl0 Cs1 3.656730 1_555
Cl1 Cu2 2.281740 1_555
Cl1 Cu4 2.830202 1_655
Cl1 Cs5 3.635495 1_655
Cl1 Cs4 3.640970 1_555
Cl1 Cs5 3.654504 1_545
Cl1 Cs3 3.658878 1_555
Cl2 Cu1 2.281563 1_555
Cl2 Cu0 2.818944 1_565
Cl2 Cs2 3.634668 1_555
Cl2 Cs0 3.646948 1_555
Cl2 Cs2 3.655004 1_655
Cl2 Cs4 3.662219 1_555
Cl3 Cu4 2.281476 1_555
Cl3 Cu5 2.819007 1_555
Cl3 Cs3 3.634665 1_555
Cl3 Cs5 3.646948 1_555
Cl3 Cs3 3.654993 1_455
Cl3 Cs1 3.661903 1_554
Cl4 Cu1 2.281734 1_555
Cl4 Cu3 2.829996 1_655
Cl4 Cs0 3.635445 1_555
Cl4 Cs2 3.641224 1_555
Cl4 Cs0 3.654062 1_565
Cl4 Cs1 3.658935 1_555
Cl5 Cu0 2.282264 1_565
Cl5 Cu2 2.821056 1_565
Cl5 Cs4 3.632813 1_565
Cl5 Cs2 3.644053 1_555
Cl5 Cs5 3.655238 1_555
Cl5 Cs4 3.656721 1_555
Cl6 Cu3 2.281719 1_555
Cl6 Cu1 2.830204 1_455
Cl6 Cs0 3.635548 1_455
Cl6 Cs1 3.640859 1_555
Cl6 Cs0 3.654453 1_565
Cl6 Cs2 3.658906 1_555
Cl7 Cu3 2.281451 1_655
Cl7 Cu5 2.819030 1_666
Cl7 Cs1 3.634598 1_655
Cl7 Cs0 3.646946 1_555
Cl7 Cs1 3.655057 1_555
Cl7 Cs3 3.661839 1_556
Cl8 Cu0 2.282306 1_555
Cl8 Cu1 2.820880 1_545
Cl8 Cs2 3.633116 1_545
Cl8 Cs4 3.643897 1_555
Cl8 Cs0 3.655077 1_555
Cl8 Cs2 3.656901 1_655
Cl9 Cu5 2.282225 1_565
Cl9 Cu4 2.820984 1_565
Cl9 Cs3 3.633010 1_565
Cl9 Cs1 3.643825 1_554
Cl9 Cs5 3.655167 1_555
Cl9 Cs3 3.657015 1_455
Cl10 Cu2 2.281478 1_455
Cl10 Cu0 2.818978 1_455
Cl10 Cs4 3.634592 1_455
Cl10 Cs5 3.646884 1_555
Cl10 Cs4 3.655080 1_555
Cl10 Cs2 3.662075 1_555
Cl11 Cu4 2.281722 1_555
Cl11 Cu2 2.830152 1_455
Cl11 Cs5 3.635289 1_555
Cl11 Cs3 3.641019 1_555
Cl11 Cs5 3.654226 1_545
Cl11 Cs4 3.658983 1_555
Cl12 Cu2 2.342697 1_565
Cl12 Cu4 2.342874 1_665
Cl12 Cs5 3.673873 1_655
Cl12 Cs5 3.674055 1_555
Cl12 Cs4 4.081280 1_555
Cl12 Cs3 4.081281 1_555
Cl13 Cu2 2.337905 1_465
Cl13 Cu0 2.341795 1_465
Cl13 Cs4 3.669367 1_455
Cl13 Cs4 3.679102 1_565
Cl13 Cs2 4.086758 1_555
Cl13 Cs5 4.092028 1_555
Cl14 Cu4 2.337864 1_665
Cl14 Cu5 2.341818 1_665
Cl14 Cs3 3.669259 1_555
Cl14 Cs3 3.678795 1_565
Cl14 Cs1 4.087069 1_554
Cl14 Cs5 4.092105 1_555
Cl15 Cu1 2.337956 1_445
Cl15 Cu0 2.341875 1_455
Cl15 Cs2 3.669053 1_555
Cl15 Cs2 3.678939 1_545
Cl15 Cs4 4.086771 1_555
Cl15 Cs0 4.092105 1_555
Cl16 Cu3 2.337894 1_645
Cl16 Cu5 2.341780 1_656
Cl16 Cs1 3.669421 1_655
Cl16 Cs1 3.679059 1_545
Cl16 Cs3 4.086701 1_556
Cl16 Cs0 4.092032 1_555
Cl17 Cu1 2.342650 1_445
Cl17 Cu3 2.342889 1_545
Cl17 Cs0 3.673910 1_555
Cl17 Cs0 3.673977 1_455
Cl17 Cs1 4.081063 1_555
Cl17 Cs2 4.081230 1_555
