# generated using pymatgen
data_Co(SiP)3
_symmetry_space_group_name_H-M   'P 1'
_cell_length_a   5.73875600
_cell_length_b   5.94528700
_cell_length_c   12.73384200
_cell_angle_alpha   89.87985006
_cell_angle_beta   90.00000000
_cell_angle_gamma   90.00000000
_symmetry_Int_Tables_number   1
_chemical_formula_structural   Co(SiP)3
_chemical_formula_sum   'Co4 Si12 P12'
_cell_volume   434.45928802
_cell_formula_units_Z   4
loop_
 _symmetry_equiv_pos_site_id
 _symmetry_equiv_pos_as_xyz
  1  'x, y, z'
loop_
 _atom_site_type_symbol
 _atom_site_label
 _atom_site_symmetry_multiplicity
 _atom_site_fract_x
 _atom_site_fract_y
 _atom_site_fract_z
 _atom_site_occupancy
  Co  Co0  1  0.96441100  0.99332100  0.87858900  1
  Co  Co1  1  0.46441100  0.00667900  0.12141100  1
  Co  Co2  1  0.53325400  0.48197100  0.61407500  1
  Co  Co3  1  0.03325400  0.51802900  0.38592500  1
  Si  Si0  1  0.96973100  0.17315500  0.31963500  1
  Si  Si1  1  0.46973100  0.82684500  0.68036500  1
  Si  Si2  1  0.93519300  0.62735500  0.22268400  1
  Si  Si3  1  0.43519300  0.37264500  0.77731600  1
  Si  Si4  1  0.33244700  0.92204200  0.95386800  1
  Si  Si5  1  0.83244700  0.07795800  0.04613200  1
  Si  Si6  1  0.90174600  0.52747500  0.67169200  1
  Si  Si7  1  0.40174600  0.47252500  0.32830800  1
  Si  Si8  1  0.00137200  0.06449900  0.57260400  1
  Si  Si9  1  0.50137200  0.93550100  0.42739600  1
  Si  Si10  1  0.91484700  0.63911900  0.92721200  1
  Si  Si11  1  0.41484700  0.36088100  0.07278800  1
  P  P0  1  0.59120400  0.02542700  0.82631800  1
  P  P1  1  0.09120400  0.97457300  0.17368200  1
  P  P2  1  0.51688700  0.56218600  0.92753000  1
  P  P3  1  0.01688700  0.43781400  0.07247000  1
  P  P4  1  0.60670200  0.12505800  0.57388800  1
  P  P5  1  0.10670200  0.87494200  0.42611200  1
  P  P6  1  0.54184200  0.65388400  0.17959000  1
  P  P7  1  0.04184200  0.34611600  0.82041000  1
  P  P8  1  0.57475200  0.13131800  0.28034600  1
  P  P9  1  0.07475200  0.86868200  0.71965400  1
  P  P10  1  0.16251200  0.41467900  0.54978900  1
  P  P11  1  0.66251200  0.58532100  0.45021100  1
loop_
_geom_bond_atom_site_label_1
_geom_bond_atom_site_label_2
_geom_bond_distance
_geom_bond_site_symmetry_2
Co0 Si10 2.212085 1_555
Co0 P9 2.247741 1_655
Co0 P0 2.250779 1_565
Co0 P7 2.266970 1_665
Co0 Si5 2.320107 1_566
Co0 Si4 2.357459 1_655
Co1 Si11 2.212085 1_555
Co1 P8 2.247741 1_555
Co1 P1 2.250779 1_545
Co1 P6 2.266970 1_545
Co1 Si4 2.320107 1_544
Co1 Si5 2.357459 1_555
Co2 P4 2.224132 1_555
Co2 Si3 2.248203 1_555
Co2 Si1 2.248719 1_555
Co2 Si6 2.254820 1_555
Co2 P11 2.297037 1_555
Co2 P10 2.314783 1_555
Co3 P5 2.224132 1_555
Co3 Si2 2.248203 1_455
Co3 Si0 2.248719 1_455
Co3 Si7 2.254820 1_555
Co3 P10 2.297037 1_555
Co3 P11 2.314783 1_455
P0 Si4 2.284009 1_545
P0 Si1 2.311540 1_545
P0 Si3 2.333862 1_555
P1 Si5 2.284009 1_465
P1 Si0 2.311540 1_465
P1 Si2 2.333862 1_455
P2 Si3 2.271011 1_555
P2 Si11 2.277576 1_556
P2 Si10 2.329149 1_555
P2 Si4 2.411028 1_555
P3 Si2 2.271011 1_455
P3 Si10 2.277576 1_454
P3 Si11 2.329149 1_555
P3 Si5 2.411028 1_455
P4 Si9 2.263624 1_545
P4 Si8 2.293417 1_655
P4 Si1 2.364220 1_545
P5 Si8 2.263624 1_565
P5 Si9 2.293417 1_555
P5 Si0 2.364220 1_465
P6 Si7 2.320925 1_555
P6 Si2 2.328358 1_555
P6 Si11 2.329205 1_555
P7 Si6 2.320925 1_455
P7 Si3 2.328358 1_555
P7 Si10 2.329205 1_455
P8 Si9 2.242727 1_545
P8 Si0 2.334645 1_555
P8 Si7 2.340735 1_555
P9 Si8 2.242727 1_565
P9 Si1 2.334645 1_555
P9 Si6 2.340735 1_455
P10 Si6 2.259009 1_455
P10 Si8 2.295955 1_555
P11 Si7 2.259009 1_555
P11 Si9 2.295955 1_555
