# generated using pymatgen
data_Bi2P4O13
_symmetry_space_group_name_H-M   'P 1'
_cell_length_a   6.91021905
_cell_length_b   6.91021905
_cell_length_c   13.22842647
_cell_angle_alpha   75.77635852
_cell_angle_beta   75.77635852
_cell_angle_gamma   59.70277549
_symmetry_Int_Tables_number   1
_chemical_formula_structural   Bi2P4O13
_chemical_formula_sum   'Bi4 P8 O26'
_cell_volume   523.05500633
_cell_formula_units_Z   2
loop_
 _symmetry_equiv_pos_site_id
 _symmetry_equiv_pos_as_xyz
  1  'x, y, z'
loop_
 _atom_site_type_symbol
 _atom_site_label
 _atom_site_symmetry_multiplicity
 _atom_site_fract_x
 _atom_site_fract_y
 _atom_site_fract_z
 _atom_site_occupancy
  Bi  Bi0  1  0.69445937  0.69509969  0.94291599  1
  Bi  Bi1  1  0.30490031  0.30554063  0.55708401  1
  Bi  Bi2  1  0.30554063  0.30490031  0.05708401  1
  Bi  Bi3  1  0.69509969  0.69445937  0.44291599  1
  P  P0  1  0.86547072  0.15532428  0.63647720  1
  P  P1  1  0.84467572  0.13452928  0.86352280  1
  P  P2  1  0.13452928  0.84467572  0.36352280  1
  P  P3  1  0.15532428  0.86547072  0.13647720  1
  P  P4  1  0.76222063  0.77501582  0.65949970  1
  P  P5  1  0.22498418  0.23777937  0.84050030  1
  P  P6  1  0.23777937  0.22498418  0.34050030  1
  P  P7  1  0.77501582  0.76222063  0.15949970  1
  O  O0  1  0.76579009  0.23420991  0.75000000  1
  O  O1  1  0.23420991  0.76579009  0.25000000  1
  O  O2  1  0.68872544  0.30694779  0.93473961  1
  O  O3  1  0.69305221  0.31127456  0.56526039  1
  O  O4  1  0.31127456  0.69305221  0.06526039  1
  O  O5  1  0.30694779  0.68872544  0.43473961  1
  O  O6  1  0.87980357  0.89709442  0.89443415  1
  O  O7  1  0.10290558  0.12019643  0.60556585  1
  O  O8  1  0.12019643  0.10290558  0.10556585  1
  O  O9  1  0.89709442  0.87980357  0.39443415  1
  O  O10  1  0.89827139  0.90677660  0.65634756  1
  O  O11  1  0.09322340  0.10172861  0.84365244  1
  O  O12  1  0.30689244  0.29496888  0.22677129  1
  O  O13  1  0.70503112  0.69310756  0.27322871  1
  O  O14  1  0.69310756  0.70503112  0.77322871  1
  O  O15  1  0.29496888  0.30689244  0.72677129  1
  O  O16  1  0.92595654  0.56518869  0.09749077  1
  O  O17  1  0.43481131  0.07404346  0.40250923  1
  O  O18  1  0.07404346  0.43481131  0.90250923  1
  O  O19  1  0.56518869  0.92595654  0.59749077  1
  O  O20  1  0.57874794  0.92306506  0.09839347  1
  O  O21  1  0.07693494  0.42125206  0.40160653  1
  O  O22  1  0.42125206  0.07693494  0.90160653  1
  O  O23  1  0.92306506  0.57874794  0.59839347  1
  O  O24  1  0.90677660  0.89827139  0.15634756  1
  O  O25  1  0.10172861  0.09322340  0.34365244  1
loop_
_geom_bond_atom_site_label_1
_geom_bond_atom_site_label_2
_geom_bond_distance
_geom_bond_site_symmetry_2
Bi0 O6 2.227157 1_555
Bi0 O14 2.231011 1_555
Bi0 O18 2.329011 1_655
Bi0 O22 2.365845 1_565
Bi0 O16 2.608155 1_556
Bi0 O20 2.619944 1_556
Bi0 O2 2.731198 1_555
Bi0 O4 2.747991 1_556
Bi1 O7 2.227157 1_555
Bi1 O15 2.231011 1_555
Bi1 O19 2.329011 1_545
Bi1 O23 2.365845 1_455
Bi1 O17 2.608155 1_555
Bi1 O21 2.619944 1_555
Bi1 O3 2.731198 1_555
Bi1 O5 2.747991 1_555
Bi2 O8 2.227157 1_555
Bi2 O12 2.231011 1_555
Bi2 O16 2.329011 1_455
Bi2 O20 2.365845 1_545
Bi2 O18 2.608155 1_554
Bi2 O22 2.619944 1_554
Bi2 O4 2.731198 1_555
Bi2 O2 2.747991 1_554
Bi3 O9 2.227157 1_555
Bi3 O13 2.231011 1_555
Bi3 O17 2.329011 1_565
Bi3 O21 2.365845 1_655
Bi3 O19 2.608155 1_555
Bi3 O23 2.619944 1_555
Bi3 O5 2.731198 1_555
Bi3 O3 2.747991 1_555
O0 P0 1.594336 1_555
O0 P1 1.594336 1_555
O1 P2 1.594336 1_555
O1 P3 1.594336 1_555
O2 P1 1.491847 1_555
O3 P0 1.491847 1_555
O4 P3 1.491847 1_555
O5 P2 1.491847 1_555
O6 P1 1.495110 1_565
O7 P0 1.495110 1_455
O8 P3 1.495110 1_545
O9 P2 1.495110 1_655
O10 P0 1.576381 1_565
O10 P4 1.593850 1_555
O11 P1 1.576381 1_455
O11 P5 1.593850 1_555
O12 P6 1.499256 1_555
O13 P7 1.499256 1_555
O14 P4 1.499256 1_555
O15 P5 1.499256 1_555
O16 P7 1.519893 1_555
O17 P6 1.519893 1_555
O18 P5 1.519893 1_555
O19 P4 1.519893 1_555
O20 P7 1.518051 1_555
O21 P6 1.518051 1_555
O22 P5 1.518051 1_555
O23 P4 1.518051 1_555
O24 P3 1.576381 1_655
O24 P7 1.593850 1_555
O25 P2 1.576381 1_545
O25 P6 1.593850 1_555
