# generated using pymatgen
data_MgAl4Cr2O10
_symmetry_space_group_name_H-M   'P 1'
_cell_length_a   3.70290800
_cell_length_b   5.20839981
_cell_length_c   9.61150700
_cell_angle_alpha   90.00140561
_cell_angle_beta   90.00018820
_cell_angle_gamma   110.82535288
_symmetry_Int_Tables_number   1
_chemical_formula_structural   MgAl4Cr2O10
_chemical_formula_sum   'Mg1 Al4 Cr2 O10'
_cell_volume   173.25920122
_cell_formula_units_Z   1
loop_
 _symmetry_equiv_pos_site_id
 _symmetry_equiv_pos_as_xyz
  1  'x, y, z'
loop_
 _atom_site_type_symbol
 _atom_site_label
 _atom_site_symmetry_multiplicity
 _atom_site_fract_x
 _atom_site_fract_y
 _atom_site_fract_z
 _atom_site_occupancy
  Mg  Mg0  1  0.50564900  0.01057800  0.25000800  1
  Al  Al0  1  0.12035400  0.23977400  0.57026100  1
  Al  Al1  1  0.12035700  0.23977300  0.92973800  1
  Al  Al2  1  0.85594700  0.71100100  0.05185300  1
  Al  Al3  1  0.85594300  0.71099100  0.44813600  1
  Cr  Cr0  1  0.20776200  0.41453700  0.25000600  1
  Cr  Cr1  1  0.79868100  0.59648600  0.74999000  1
  O  O0  1  0.05007300  0.09937200  0.11811300  1
  O  O1  1  0.34533900  0.68979700  0.40440200  1
  O  O2  1  0.05007800  0.09937400  0.38189200  1
  O  O3  1  0.34533700  0.68978900  0.09561500  1
  O  O4  1  0.21631600  0.43179200  0.74999300  1
  O  O5  1  0.74893800  0.49738500  0.25001600  1
  O  O6  1  0.68683100  0.37288500  0.94311900  1
  O  O7  1  0.68682900  0.37288500  0.55687400  1
  O  O8  1  0.94385700  0.88679800  0.61334300  1
  O  O9  1  0.94385400  0.88678400  0.88664000  1
loop_
_geom_bond_atom_site_label_1
_geom_bond_atom_site_label_2
_geom_bond_distance
_geom_bond_site_symmetry_2
Mg0 O3 2.154229 1_545
Mg0 O1 2.154267 1_545
Mg0 O2 2.284994 1_555
Mg0 O0 2.285069 1_555
Mg0 O2 2.285139 1_655
Mg0 O0 2.285204 1_655
Mg0 O5 2.369838 1_555
Al0 O8 1.767532 1_445
Al0 O2 1.935208 1_555
Al0 O4 1.964165 1_555
Al0 O7 1.965484 1_555
Al0 O7 1.966105 1_455
Al1 O9 1.767607 1_445
Al1 O0 1.935299 1_556
Al1 O4 1.964322 1_555
Al1 O6 1.965474 1_555
Al1 O6 1.966106 1_455
Al2 O9 1.803865 1_554
Al2 O3 1.901427 1_655
Al2 O3 1.901449 1_555
Al2 O6 1.949724 1_554
Al2 O0 1.995004 1_665
Al2 O5 2.170068 1_555
Al3 O8 1.803828 1_555
Al3 O1 1.901354 1_655
Al3 O1 1.901392 1_555
Al3 O7 1.949752 1_555
Al3 O2 1.995043 1_665
Al3 O5 2.169632 1_555
Cr0 O5 1.893957 1_555
Cr0 O5 1.895790 1_455
Cr0 O0 1.990200 1_555
Cr0 O2 1.990203 1_555
Cr0 O3 1.999414 1_555
Cr0 O1 1.999421 1_555
Cr1 O9 1.929276 1_555
Cr1 O8 1.929359 1_555
Cr1 O4 2.017569 1_655
Cr1 O4 2.017619 1_555
Cr1 O7 2.151744 1_555
Cr1 O6 2.151903 1_555
