# generated using pymatgen
data_Ba2TmMgCu3O7
_symmetry_space_group_name_H-M   'P 1'
_cell_length_a   3.95813100
_cell_length_b   3.70983200
_cell_length_c   14.59250200
_cell_angle_alpha   90.00000000
_cell_angle_beta   90.00000000
_cell_angle_gamma   90.00000000
_symmetry_Int_Tables_number   1
_chemical_formula_structural   Ba2TmMgCu3O7
_chemical_formula_sum   'Ba2 Tm1 Mg1 Cu3 O7'
_cell_volume   214.27631460
_cell_formula_units_Z   1
loop_
 _symmetry_equiv_pos_site_id
 _symmetry_equiv_pos_as_xyz
  1  'x, y, z'
loop_
 _atom_site_type_symbol
 _atom_site_label
 _atom_site_symmetry_multiplicity
 _atom_site_fract_x
 _atom_site_fract_y
 _atom_site_fract_z
 _atom_site_occupancy
  Ba  Ba0  1  0.50000000  0.50000000  0.08978100  1
  Ba  Ba1  1  0.50000000  0.50000000  0.77453200  1
  Tm  Tm0  1  0.50000000  0.50000000  0.51997200  1
  Mg  Mg0  1  0.00000000  0.50000000  0.27804000  1
  Cu  Cu0  1  0.00000000  0.00000000  0.63243500  1
  Cu  Cu1  1  0.00000000  0.00000000  0.42226500  1
  Cu  Cu2  1  0.00000000  0.00000000  0.93798100  1
  O  O0  1  0.50000000  0.00000000  0.43052400  1
  O  O1  1  0.00000000  0.00000000  0.80421200  1
  O  O2  1  0.50000000  0.00000000  0.62469600  1
  O  O3  1  0.00000000  0.50000000  0.41045600  1
  O  O4  1  0.00000000  0.50000000  0.60215500  1
  O  O5  1  0.00000000  0.00000000  0.21048800  1
  O  O6  1  0.00000000  0.50000000  0.98468700  1
loop_
_geom_bond_atom_site_label_1
_geom_bond_atom_site_label_2
_geom_bond_distance
_geom_bond_site_symmetry_2
Ba0 O6 2.503714 1_654
Ba0 O6 2.503714 1_554
Ba1 O1 2.746815 1_555
Ba1 O1 2.746815 1_655
Ba1 O1 2.746815 1_565
Ba1 O1 2.746815 1_665
Ba1 O2 2.867301 1_555
Ba1 O2 2.867301 1_565
Mg0 O3 1.932281 1_555
Mg0 O5 2.100577 1_555
Mg0 O5 2.100577 1_565
Cu0 O4 1.906818 1_545
Cu0 O4 1.906818 1_555
Cu0 O2 1.982285 1_455
Cu0 O2 1.982285 1_555
Cu0 O1 2.506656 1_555
Cu1 O3 1.862903 1_555
Cu1 O3 1.862903 1_545
Cu1 O0 1.982732 1_555
Cu1 O0 1.982732 1_455
Cu2 O1 1.952024 1_555
Cu2 O6 1.976166 1_545
Cu2 O6 1.976166 1_555
O0 Tm0 2.268137 1_545
O0 Tm0 2.268137 1_555
O2 Tm0 2.403344 1_545
O2 Tm0 2.403344 1_555
O3 Tm0 2.543750 1_555
O3 Tm0 2.543750 1_455
O4 Tm0 2.314069 1_555
O4 Tm0 2.314069 1_455
