# generated using pymatgen
data_RbCr5Se8
_symmetry_space_group_name_H-M   'P 1'
_cell_length_a   3.68411715
_cell_length_b   9.14802418
_cell_length_c   9.66221247
_cell_angle_alpha   104.68097447
_cell_angle_beta   100.99045588
_cell_angle_gamma   90.00000170
_symmetry_Int_Tables_number   1
_chemical_formula_structural   RbCr5Se8
_chemical_formula_sum   'Rb1 Cr5 Se8'
_cell_volume   308.83007286
_cell_formula_units_Z   1
loop_
 _symmetry_equiv_pos_site_id
 _symmetry_equiv_pos_as_xyz
  1  'x, y, z'
loop_
 _atom_site_type_symbol
 _atom_site_label
 _atom_site_symmetry_multiplicity
 _atom_site_fract_x
 _atom_site_fract_y
 _atom_site_fract_z
 _atom_site_occupancy
  Rb  Rb0  1  0.50000175  0.50000796  0.00000250  1
  Cr  Cr0  1  -0.00000090  0.00001060  -0.00000081  1
  Cr  Cr1  1  0.29555463  0.66545051  0.59110625  1
  Cr  Cr2  1  0.65870928  0.97782872  0.31741955  1
  Cr  Cr3  1  0.34128973  0.02217669  0.68257945  1
  Cr  Cr4  1  0.70444990  0.33455432  0.40890181  1
  Se  Se0  1  0.23843159  0.15674888  0.47686318  1
  Se  Se1  1  0.42448455  0.84789833  0.84897010  1
  Se  Se2  1  0.57552070  0.15210585  0.15104140  1
  Se  Se3  1  0.91396271  0.17163383  0.82792641  1
  Se  Se4  1  0.08603641  0.82835648  0.17207282  1
  Se  Se5  1  0.82915917  0.51078861  0.65831834  1
  Se  Se6  1  0.17084025  0.48919989  0.34167951  1
  Se  Se7  1  0.76155924  0.84323833  0.52311947  1
loop_
_geom_bond_atom_site_label_1
_geom_bond_atom_site_label_2
_geom_bond_distance
_geom_bond_site_symmetry_2
Rb0 Se4 3.542320 1_655
Rb0 Se4 3.542322 1_555
Rb0 Se3 3.542503 1_554
Rb0 Se3 3.542507 1_454
Rb0 Se5 3.751159 1_554
Rb0 Se5 3.751161 1_454
Rb0 Se6 3.751163 1_555
Rb0 Se6 3.751164 1_655
Rb0 Se1 3.812426 1_554
Rb0 Se2 3.812563 1_555
Cr0 Se2 2.520374 1_455
Cr0 Se2 2.520377 1_555
Cr0 Se1 2.520386 1_544
Cr0 Se1 2.520386 1_444
Cr0 Se3 2.540044 1_454
Cr0 Se4 2.540272 1_545
Cr1 Se6 2.495421 1_555
Cr1 Se5 2.503419 1_555
Cr1 Se5 2.503427 1_455
Cr1 Se1 2.580696 1_555
Cr1 Se7 2.644944 1_555
Cr1 Se7 2.644955 1_455
Cr2 Se4 2.487994 1_555
Cr2 Se4 2.487996 1_655
Cr2 Se2 2.516197 1_565
Cr2 Se7 2.561828 1_555
Cr2 Se0 2.661049 1_565
Cr2 Se0 2.661051 1_665
Cr3 Se3 2.487939 1_555
Cr3 Se3 2.487941 1_455
Cr3 Se1 2.516299 1_545
Cr3 Se0 2.561852 1_555
Cr3 Se7 2.661190 1_545
Cr3 Se7 2.661193 1_445
Cr4 Se5 2.495286 1_555
Cr4 Se6 2.503364 1_555
Cr4 Se6 2.503372 1_655
Cr4 Se2 2.580673 1_555
Cr4 Se0 2.644959 1_555
Cr4 Se0 2.644964 1_655
