# generated using pymatgen
data_TmAsSe
_symmetry_space_group_name_H-M   'P 1'
_cell_length_a   3.85742470
_cell_length_b   3.88998155
_cell_length_c   17.26108506
_cell_angle_alpha   90.00000000
_cell_angle_beta   90.00000000
_cell_angle_gamma   90.00000000
_symmetry_Int_Tables_number   1
_chemical_formula_structural   TmAsSe
_chemical_formula_sum   'Tm4 As4 Se4'
_cell_volume   259.00794803
_cell_formula_units_Z   4
loop_
 _symmetry_equiv_pos_site_id
 _symmetry_equiv_pos_as_xyz
  1  'x, y, z'
loop_
 _atom_site_type_symbol
 _atom_site_label
 _atom_site_symmetry_multiplicity
 _atom_site_fract_x
 _atom_site_fract_y
 _atom_site_fract_z
 _atom_site_occupancy
  Tm  Tm0  1  0.75000000  0.23958468  0.86013333  1
  Tm  Tm1  1  0.75000000  0.26041532  0.36013333  1
  Tm  Tm2  1  0.25000000  0.76041532  0.13986667  1
  Tm  Tm3  1  0.25000000  0.73958468  0.63986667  1
  As  As0  1  0.25000000  0.21417170  0.50149195  1
  As  As1  1  0.25000000  0.28582830  0.00149195  1
  As  As2  1  0.75000000  0.78582830  0.49850805  1
  As  As3  1  0.75000000  0.71417170  0.99850805  1
  Se  Se0  1  0.75000000  0.24196952  0.68758458  1
  Se  Se1  1  0.75000000  0.25803048  0.18758458  1
  Se  Se2  1  0.25000000  0.75802948  0.31241542  1
  Se  Se3  1  0.25000000  0.74197052  0.81241542  1
loop_
_geom_bond_atom_site_label_1
_geom_bond_atom_site_label_2
_geom_bond_distance
_geom_bond_site_symmetry_2
As0 As2 2.549307 1_545
As0 As2 2.549307 1_445
As0 As2 2.944075 1_455
As0 As2 2.944075 1_555
As0 Tm3 3.018797 1_545
As0 Tm1 3.115430 1_555
As0 Tm1 3.115430 1_455
As0 Tm3 3.143602 1_555
As1 As3 2.549307 1_454
As1 As3 2.549307 1_554
As1 As3 2.944075 1_444
As1 As3 2.944075 1_544
As1 Tm2 3.018797 1_555
As1 Tm0 3.115430 1_554
As1 Tm0 3.115430 1_454
As1 Tm2 3.143602 1_545
As2 Tm1 3.018797 1_565
As2 Tm3 3.115430 1_655
As2 Tm3 3.115430 1_555
As2 Tm1 3.143602 1_555
As3 Tm0 3.018797 1_555
As3 Tm2 3.115430 1_656
As3 Tm2 3.115430 1_556
As3 Tm0 3.143602 1_565
Se0 Tm3 2.854004 1_655
Se0 Tm3 2.854004 1_555
Se0 Tm3 2.866621 1_645
Se0 Tm3 2.866621 1_545
Se0 Tm0 2.978393 1_555
Se1 Tm2 2.854004 1_545
Se1 Tm2 2.854004 1_645
Se1 Tm2 2.866621 1_655
Se1 Tm2 2.866621 1_555
Se1 Tm1 2.978393 1_555
Se2 Tm1 2.854002 1_455
Se2 Tm1 2.854002 1_555
Se2 Tm1 2.866623 1_565
Se2 Tm1 2.866623 1_465
Se2 Tm2 2.978393 1_555
Se3 Tm0 2.854002 1_465
Se3 Tm0 2.854002 1_565
Se3 Tm0 2.866623 1_555
Se3 Tm0 2.866623 1_455
Se3 Tm3 2.978393 1_555
