# generated using pymatgen
data_CdIrO3
_symmetry_space_group_name_H-M   'P 1'
_cell_length_a   5.46206300
_cell_length_b   5.46206298
_cell_length_c   15.02805500
_cell_angle_alpha   90.00000000
_cell_angle_beta   90.00000000
_cell_angle_gamma   120.00000619
_symmetry_Int_Tables_number   1
_chemical_formula_structural   CdIrO3
_chemical_formula_sum   'Cd6 Ir6 O18'
_cell_volume   388.28158042
_cell_formula_units_Z   6
loop_
 _symmetry_equiv_pos_site_id
 _symmetry_equiv_pos_as_xyz
  1  'x, y, z'
loop_
 _atom_site_type_symbol
 _atom_site_label
 _atom_site_symmetry_multiplicity
 _atom_site_fract_x
 _atom_site_fract_y
 _atom_site_fract_z
 _atom_site_occupancy
  Cd  Cd0  1  0.00000000  0.00000000  0.36945600  1
  Cd  Cd1  1  0.00000000  0.00000000  0.63054400  1
  Cd  Cd2  1  0.66666700  0.33333300  0.70278900  1
  Cd  Cd3  1  0.66666700  0.33333300  0.96387700  1
  Cd  Cd4  1  0.33333300  0.66666700  0.03612300  1
  Cd  Cd5  1  0.33333300  0.66666700  0.29721100  1
  Ir  Ir0  1  0.00000000  0.00000000  0.16116300  1
  Ir  Ir1  1  0.00000000  0.00000000  0.83883700  1
  Ir  Ir2  1  0.66666700  0.33333300  0.49449600  1
  Ir  Ir3  1  0.66666700  0.33333300  0.17217000  1
  Ir  Ir4  1  0.33333300  0.66666700  0.82783000  1
  Ir  Ir5  1  0.33333300  0.66666700  0.50550400  1
  O  O0  1  0.34733500  0.05103600  0.09393100  1
  O  O1  1  0.65266500  0.94896400  0.90606900  1
  O  O2  1  0.94896400  0.29629800  0.09393100  1
  O  O3  1  0.05103600  0.70370200  0.90606900  1
  O  O4  1  0.70370200  0.65266500  0.09393100  1
  O  O5  1  0.29629800  0.34733500  0.90606900  1
  O  O6  1  0.01400200  0.38436900  0.42726400  1
  O  O7  1  0.31933200  0.28229700  0.23940200  1
  O  O8  1  0.61563100  0.62963100  0.42726400  1
  O  O9  1  0.71770300  0.03703500  0.23940200  1
  O  O10  1  0.37036900  0.98599800  0.42726400  1
  O  O11  1  0.96296500  0.68066800  0.23940200  1
  O  O12  1  0.68066800  0.71770300  0.76059800  1
  O  O13  1  0.98599800  0.61563100  0.57273600  1
  O  O14  1  0.28229700  0.96296500  0.76059800  1
  O  O15  1  0.38436900  0.37036900  0.57273600  1
  O  O16  1  0.03703500  0.31933200  0.76059800  1
  O  O17  1  0.62963100  0.01400200  0.57273600  1
loop_
_geom_bond_atom_site_label_1
_geom_bond_atom_site_label_2
_geom_bond_distance
_geom_bond_site_symmetry_2
Cd0 O6 2.237784 1_555
Cd0 O8 2.237788 1_445
Cd0 O10 2.237794 1_545
Cd0 O7 2.559350 1_555
Cd0 O11 2.559350 1_445
Cd0 O9 2.559350 1_455
Cd1 O13 2.237784 1_445
Cd1 O15 2.237788 1_555
Cd1 O17 2.237794 1_455
Cd1 O12 2.559350 1_445
Cd1 O16 2.559350 1_555
Cd1 O14 2.559350 1_545
Cd2 O16 2.237792 1_655
Cd2 O14 2.237795 1_545
Cd2 O12 2.237797 1_555
Cd2 O17 2.559333 1_555
Cd2 O13 2.559337 1_555
Cd2 O15 2.559344 1_555
Cd3 O1 2.237784 1_545
Cd3 O3 2.237788 1_655
Cd3 O5 2.237794 1_555
Cd3 O0 2.559350 1_556
Cd3 O4 2.559350 1_556
Cd3 O2 2.559350 1_556
Cd4 O0 2.237784 1_565
Cd4 O2 2.237788 1_455
Cd4 O4 2.237794 1_555
Cd4 O1 2.559350 1_554
Cd4 O5 2.559350 1_554
Cd4 O3 2.559350 1_554
Cd5 O11 2.237792 1_455
Cd5 O9 2.237795 1_565
Cd5 O7 2.237797 1_555
Cd5 O10 2.559333 1_555
Cd5 O6 2.559337 1_555
Cd5 O8 2.559344 1_555
Ir0 O7 2.028009 1_555
Ir0 O11 2.028009 1_445
Ir0 O9 2.028009 1_455
Ir0 O2 2.041791 1_455
Ir0 O4 2.041793 1_445
Ir0 O0 2.041795 1_555
Ir1 O12 2.028009 1_445
Ir1 O16 2.028009 1_555
Ir1 O14 2.028009 1_545
Ir1 O3 2.041791 1_545
Ir1 O5 2.041793 1_555
Ir1 O1 2.041795 1_445
Ir2 O17 2.028011 1_555
Ir2 O13 2.028017 1_555
Ir2 O15 2.028025 1_555
Ir2 O8 2.041791 1_555
Ir2 O10 2.041793 1_545
Ir2 O6 2.041795 1_655
Ir3 O0 2.028009 1_555
Ir3 O4 2.028009 1_555
Ir3 O2 2.028009 1_555
Ir3 O9 2.041791 1_555
Ir3 O11 2.041793 1_555
Ir3 O7 2.041795 1_555
Ir4 O1 2.028009 1_555
Ir4 O5 2.028009 1_555
Ir4 O3 2.028009 1_555
Ir4 O14 2.041791 1_555
Ir4 O16 2.041793 1_555
Ir4 O12 2.041795 1_555
Ir5 O10 2.028011 1_555
Ir5 O6 2.028017 1_555
Ir5 O8 2.028025 1_555
Ir5 O15 2.041791 1_555
Ir5 O17 2.041793 1_565
Ir5 O13 2.041795 1_455
