# generated using pymatgen
data_Na6Ca4Ta4Si5S7O48
_symmetry_space_group_name_H-M   'P 1'
_cell_length_a   18.26144839
_cell_length_b   9.12245083
_cell_length_c   23.17573313
_cell_angle_alpha   89.98707745
_cell_angle_beta   90.18754946
_cell_angle_gamma   120.01537239
_symmetry_Int_Tables_number   1
_chemical_formula_structural   Na6Ca4Ta4Si5S7O48
_chemical_formula_sum   'Na18 Ca12 Ta12 Si15 S21 O144'
_cell_volume   3343.03301918
_cell_formula_units_Z   3
loop_
 _symmetry_equiv_pos_site_id
 _symmetry_equiv_pos_as_xyz
  1  'x, y, z'
loop_
 _atom_site_type_symbol
 _atom_site_label
 _atom_site_symmetry_multiplicity
 _atom_site_fract_x
 _atom_site_fract_y
 _atom_site_fract_z
 _atom_site_occupancy
  Na  Na0  1  0.00038637  0.61528951  0.24965593  1
  Na  Na1  1  0.50036107  0.61320190  0.25016459  1
  Na  Na2  1  0.00120891  0.37983107  0.75016574  1
  Na  Na3  1  0.50022515  0.38417051  0.74947063  1
  Na  Na4  1  0.33098659  0.97252723  0.58033552  1
  Na  Na5  1  0.83034709  0.68977159  0.08414635  1
  Na  Na6  1  0.98916053  0.97578634  0.49412606  1
  Na  Na7  1  0.50287087  0.99874695  0.49811205  1
  Na  Na8  1  0.00397684  0.00525543  0.00351417  1
  Na  Na9  1  0.48788407  0.99745570  0.99923754  1
  Na  Na10  1  0.32536847  0.35307865  0.83066295  1
  Na  Na11  1  0.81598868  0.31162862  0.82816693  1
  Na  Na12  1  0.32770861  0.32151730  0.32104670  1
  Na  Na13  1  0.82346996  0.29518204  0.32831511  1
  Na  Na14  1  0.17310743  0.68574894  0.17030979  1
  Na  Na15  1  0.66703234  0.68544483  0.17302647  1
  Na  Na16  1  0.18011704  0.64627888  0.66404918  1
  Na  Na17  1  0.66884712  0.65542578  0.66878613  1
  Ca  Ca0  1  0.32926107  0.33950306  0.68831209  1
  Ca  Ca1  1  0.82419667  0.32501304  0.69245432  1
  Ca  Ca2  1  0.32834412  0.32324375  0.19350132  1
  Ca  Ca3  1  0.82816281  0.31786110  0.18878286  1
  Ca  Ca4  1  0.17244720  0.67225162  0.01540981  1
  Ca  Ca5  1  0.66197803  0.66380056  0.01232798  1
  Ca  Ca6  1  0.16283975  0.66201504  0.51082943  1
  Ca  Ca7  1  0.67214792  0.67239598  0.51417822  1
  Ca  Ca8  1  0.16881237  0.67550620  0.31332663  1
  Ca  Ca9  1  0.67224654  0.68031131  0.31394552  1
  Ca  Ca10  1  0.17777904  0.66569195  0.81653331  1
  Ca  Ca11  1  0.66642271  0.66027122  0.81345192  1
  Ta  Ta0  1  0.00282032  0.00015949  0.35543469  1
  Ta  Ta1  1  0.49828433  0.00132538  0.34616459  1
  Ta  Ta2  1  0.99896882  0.00726154  0.85007940  1
  Ta  Ta3  1  0.50260595  0.00461881  0.85598971  1
  Ta  Ta4  1  0.99837981  0.00771619  0.64707651  1
  Ta  Ta5  1  0.50401691  0.00664479  0.64117588  1
  Ta  Ta6  1  0.00413562  0.00184986  0.14191254  1
  Ta  Ta7  1  0.49825758  0.00174271  0.15146738  1
  Ta  Ta8  1  0.33777067  0.33815298  0.98047721  1
  Ta  Ta9  1  0.83681818  0.33171357  0.98995293  1
  Ta  Ta10  1  0.33915008  0.34608178  0.48791902  1
  Ta  Ta11  1  0.83461054  0.33497403  0.47822714  1
  Si  Si0  1  0.14193308  0.99778914  0.24983680  1
  Si  Si1  1  0.64574265  0.00296755  0.25005485  1
  Si  Si2  1  0.35117589  0.70876588  0.24917425  1
  Si  Si3  1  0.50478000  0.29848636  0.24924410  1
  Si  Si4  1  0.14664339  0.29211705  0.74982886  1
  Si  Si5  1  0.64200165  0.28553085  0.74993401  1
  Si  Si6  1  0.85164508  0.99565287  0.74927400  1
  Si  Si7  1  0.48574173  0.34296775  0.59054134  1
  Si  Si8  1  0.33142675  0.63303486  0.58718279  1
  Si  Si9  1  0.98574612  0.63029723  0.09083681  1
  Si  Si10  1  0.83227753  0.02916111  0.08726781  1
  Si  Si11  1  0.31913135  0.66767283  0.91698197  1
  Si  Si12  1  0.51563817  0.36613664  0.91335103  1
  Si  Si13  1  0.81929801  0.96614159  0.41712129  1
  Si  Si14  1  0.01617469  0.66644929  0.41383786  1
  S  S0  1  0.86196215  0.72780318  0.24844425  1
  S  S1  1  0.00108494  0.27892490  0.24929371  1
  S  S2  1  0.00309945  0.72572585  0.74941822  1
  S  S3  1  0.50093850  0.72320247  0.74912595  1
  S  S4  1  0.36133061  0.99582372  0.74832706  1
  S  S5  1  0.97648452  0.32484154  0.58548973  1
  S  S6  1  0.18350426  0.04453213  0.58242931  1
  S  S7  1  0.68596253  0.04549891  0.58287322  1
  S  S8  1  0.84012552  0.63221307  0.58524626  1
  S  S9  1  0.47614216  0.63126686  0.08420998  1
  S  S10  1  0.34005542  0.04704211  0.08376330  1
  S  S11  1  0.18655405  0.32596041  0.08305028  1
  S  S12  1  0.68348191  0.32126467  0.08164605  1
  S  S13  1  0.82479177  0.66404247  0.91765075  1
  S  S14  1  0.00865429  0.35622864  0.91549356  1
  S  S15  1  0.16526249  0.97598685  0.91714186  1
  S  S16  1  0.67121495  0.98384695  0.91660169  1
  S  S17  1  0.32477246  0.98460552  0.41976140  1
  S  S18  1  0.17091636  0.35796891  0.41740631  1
  S  S19  1  0.66392091  0.35233974  0.41840150  1
  S  S20  1  0.50979198  0.66613730  0.41748544  1
  O  O0  1  0.08342880  0.00158856  0.30476098  1
  O  O1  1  0.58532509  0.99735923  0.30680142  1
  O  O2  1  0.40946431  0.82625075  0.30681822  1
  O  O3  1  0.91150935  0.82701756  0.30017140  1
  O  O4  1  0.50126052  0.17944085  0.30641750  1
  O  O5  1  0.99742054  0.18035825  0.30188938  1
  O  O6  1  0.08422681  0.17246226  0.80597229  1
  O  O7  1  0.58431447  0.16387948  0.80466039  1
  O  O8  1  0.49754505  0.81417798  0.80166433  1
  O  O9  1  0.99847276  0.81681778  0.80263546  1
  O  O10  1  0.40991240  0.99343233  0.80004293  1
  O  O11  1  0.91167578  0.99261941  0.80570588  1
  O  O12  1  0.40441542  0.98517330  0.69358554  1
  O  O13  1  0.91097128  0.98925717  0.69182864  1
  O  O14  1  0.08486365  0.17243047  0.69209124  1
  O  O15  1  0.58451563  0.16801427  0.69195682  1
  O  O16  1  0.00618336  0.82417554  0.69601239  1
  O  O17  1  0.49954529  0.81710420  0.69595867  1
  O  O18  1  0.40911462  0.83177089  0.19163824  1
  O  O19  1  0.90547198  0.82444567  0.19346325  1
  O  O20  1  0.99983334  0.18196683  0.19612626  1
  O  O21  1  0.50451884  0.18339392  0.19123118  1
  O  O22  1  0.08318141  0.99728519  0.19201840  1
  O  O23  1  0.58586474  0.99723269  0.19148848  1
  O  O24  1  0.43938580  0.33994762  0.64851954  1
  O  O25  1  0.94013813  0.34111681  0.63948473  1
  O  O26  1  0.23218768  0.11715399  0.63512153  1
  O  O27  1  0.73337420  0.11974895  0.63561588  1
  O  O28  1  0.31223338  0.51790168  0.64174193  1
  O  O29  1  0.83448841  0.53891381  0.63754116  1
  O  O30  1  0.43846218  0.53917239  0.13717331  1
  O  O31  1  0.93882494  0.53867499  0.14830967  1
  O  O32  1  0.33437861  0.12833675  0.13586206  1
  O  O33  1  0.81430478  0.11102837  0.14054797  1
  O  O34  1  0.23371140  0.34575920  0.13536604  1
  O  O35  1  0.73310262  0.34732734  0.13360897  1
  O  O36  1  0.22814257  0.29673599  0.03141460  1
  O  O37  1  0.73236907  0.30293764  0.02930667  1
  O  O38  1  0.41860623  0.52871460  0.03291666  1
  O  O39  1  0.91360808  0.51951224  0.03298768  1
  O  O40  1  0.34567418  0.15441546  0.03158507  1
  O  O41  1  0.84332183  0.16226017  0.02839716  1
  O  O42  1  0.22859765  0.15716564  0.53073585  1
  O  O43  1  0.72862103  0.15975590  0.53215176  1
  O  O44  1  0.34214533  0.52327505  0.52926466  1
  O  O45  1  0.84858204  0.54284389  0.53323256  1
  O  O46  1  0.41384354  0.30916997  0.53358552  1
  O  O47  1  0.91999581  0.30239902  0.53501130  1
  O  O48  1  0.28995474  0.72406123  0.97280983  1
  O  O49  1  0.79459835  0.70167868  0.97110858  1
  O  O50  1  0.06248354  0.42825673  0.96562723  1
  O  O51  1  0.57376337  0.43263567  0.96879346  1
  O  O52  1  0.14595360  0.86947187  0.96789314  1
  O  O53  1  0.65467907  0.88338729  0.96869233  1
  O  O54  1  0.29132149  0.88632174  0.47333660  1
  O  O55  1  0.79227127  0.85910722  0.47504729  1
  O  O56  1  0.15315267  0.42427492  0.46951785  1
  O  O57  1  0.64841156  0.42482330  0.46963460  1
  O  O58  1  0.07164071  0.71245789  0.47065349  1
  O  O59  1  0.56245204  0.69344294  0.46812436  1
  O  O60  1  0.04053350  0.61138272  0.35498664  1
  O  O61  1  0.54051686  0.63118631  0.36408356  1
  O  O62  1  0.27207639  0.90593749  0.36916541  1
  O  O63  1  0.76079934  0.90944531  0.36136152  1
  O  O64  1  0.18842679  0.46243934  0.36638244  1
  O  O65  1  0.68250755  0.45233528  0.36610437  1
  O  O66  1  0.04103825  0.45074941  0.86154368  1
  O  O67  1  0.53963209  0.46796213  0.85393715  1
  O  O68  1  0.18173602  0.90852326  0.86471098  1
  O  O69  1  0.68834524  0.91439037  0.86520343  1
  O  O70  1  0.26168147  0.60781318  0.86022713  1
  O  O71  1  0.77200148  0.63896142  0.86721562  1
  O  O72  1  0.99578063  0.82672946  0.40393263  1
  O  O73  1  0.49427141  0.81307623  0.41175469  1
  O  O74  1  0.41317033  0.01114700  0.41198735  1
  O  O75  1  0.91883114  0.01671497  0.40165197  1
  O  O76  1  0.09402046  0.18266479  0.40804861  1
  O  O77  1  0.59068305  0.17411608  0.41145559  1
  O  O78  1  0.99508493  0.17518566  0.90809863  1
  O  O79  1  0.49546853  0.16447492  0.90313285  1
  O  O80  1  0.08942950  0.00286969  0.90742116  1
  O  O81  1  0.59401822  0.00425071  0.90755201  1
  O  O82  1  0.41829437  0.81896332  0.90079669  1
  O  O83  1  0.91455935  0.81488969  0.90749165  1
  O  O84  1  0.48364900  0.15040679  0.59021967  1
  O  O85  1  0.98193570  0.15922243  0.58797038  1
  O  O86  1  0.09696362  0.03011376  0.58591483  1
  O  O87  1  0.59891015  0.03370069  0.58646256  1
  O  O88  1  0.42506943  0.81626827  0.59099595  1
  O  O89  1  0.92329695  0.80645312  0.58850542  1
  O  O90  1  0.47982008  0.80050112  0.08304223  1
  O  O91  1  0.98347762  0.81735992  0.08971708  1
  O  O92  1  0.42155290  0.03838747  0.08380484  1
  O  O93  1  0.92587998  0.03456537  0.09024149  1
  O  O94  1  0.09880472  0.16309296  0.08642503  1
  O  O95  1  0.59958971  0.16323395  0.08220759  1
  O  O96  1  0.36035587  0.15528052  0.75031637  1
  O  O97  1  0.86492707  0.18285966  0.75306680  1
  O  O98  1  0.23194384  0.29008051  0.75647450  1
  O  O99  1  0.73248631  0.30035003  0.75514121  1
  O  O100  1  0.42619307  0.55191983  0.75083181  1
  O  O101  1  0.92700221  0.55801231  0.74881351  1
  O  O102  1  0.36247981  0.54689189  0.25155264  1
  O  O103  1  0.86143842  0.56666997  0.25029679  1
  O  O104  1  0.42098376  0.31054621  0.25288035  1
  O  O105  1  0.92625492  0.29980831  0.25082971  1
  O  O106  1  0.22970609  0.16654345  0.25429740  1
  O  O107  1  0.73191596  0.17650410  0.25590602  1
  O  O108  1  0.33043247  0.49650500  0.93439187  1
  O  O109  1  0.83458884  0.50981475  0.92516770  1
  O  O110  1  0.41685679  0.32861108  0.93326222  1
  O  O111  1  0.92123225  0.33273123  0.92557879  1
  O  O112  1  0.24044321  0.15095906  0.92846972  1
  O  O113  1  0.74539978  0.16261863  0.92600334  1
  O  O114  1  0.33332961  0.15810280  0.42811067  1
  O  O115  1  0.83121705  0.16303791  0.43521908  1
  O  O116  1  0.24471679  0.32795325  0.42822762  1
  O  O117  1  0.74184614  0.33122023  0.43039371  1
  O  O118  1  0.42155082  0.50702127  0.42863425  1
  O  O119  1  0.91719889  0.50491453  0.43426093  1
  O  O120  1  0.17070456  0.46546166  0.07409114  1
  O  O121  1  0.67695936  0.47253688  0.07127470  1
  O  O122  1  0.07644563  0.66041077  0.07665576  1
  O  O123  1  0.56055045  0.65497410  0.07509271  1
  O  O124  1  0.26734860  0.87695731  0.07768992  1
  O  O125  1  0.76197552  0.83648131  0.07425811  1
  O  O126  1  0.17413307  0.87680869  0.57386796  1
  O  O127  1  0.67089173  0.87487930  0.57444602  1
  O  O128  1  0.26089040  0.68630958  0.57579470  1
  O  O129  1  0.76918886  0.66155641  0.57962618  1
  O  O130  1  0.06239862  0.46469106  0.57731273  1
  O  O131  1  0.57771014  0.49334631  0.57800123  1
  O  O132  1  0.13644833  0.81718478  0.24632246  1
  O  O133  1  0.64032856  0.82276397  0.24727973  1
  O  O134  1  0.26199185  0.69718111  0.24693585  1
  O  O135  1  0.77814989  0.70825115  0.24819076  1
  O  O136  1  0.07917767  0.44317795  0.24850442  1
  O  O137  1  0.59035801  0.47677736  0.24746638  1
  O  O138  1  0.13890471  0.46000534  0.74616895  1
  O  O139  1  0.63726061  0.45593123  0.74615898  1
  O  O140  1  0.07986066  0.71295934  0.75139747  1
  O  O141  1  0.57911547  0.71491595  0.74810574  1
  O  O142  1  0.27597643  0.84776781  0.74780892  1
  O  O143  1  0.76281135  0.83014953  0.74672514  1
loop_
_geom_bond_atom_site_label_1
_geom_bond_atom_site_label_2
_geom_bond_distance
_geom_bond_site_symmetry_2
Na0 O132 2.234864 1_555
Na0 O103 2.347255 1_455
Na0 O105 2.493672 1_455
Na0 O31 2.542915 1_455
Na0 O60 2.551902 1_555
Na0 O136 2.607019 1_555
Na1 O102 2.276737 1_555
Na1 O133 2.303203 1_555
Na1 O104 2.392608 1_555
Na1 O137 2.510133 1_555
Na1 O61 2.720704 1_555
Na1 O30 2.794431 1_555
Na2 O97 2.225755 1_455
Na2 O138 2.242296 1_555
Na2 O101 2.585117 1_455
Na2 O140 2.632845 1_555
Na2 O66 2.669867 1_555
Na2 O25 2.745164 1_455
Na3 O139 2.249232 1_555
Na3 O96 2.355597 1_555
Na3 O100 2.498118 1_555
Na3 O67 2.530399 1_555
Na3 O24 2.530987 1_555
Na3 O141 2.613717 1_555
Na4 O128 2.263278 1_555
Na4 O84 2.434692 1_565
Na4 O126 2.546469 1_555
Na4 O54 2.590682 1_555
Na4 O88 2.737169 1_555
Na4 O46 2.873114 1_565
Na4 O12 2.919332 1_555
Na4 O26 3.000877 1_565
Na5 O125 2.252199 1_555
Na5 O91 2.435687 1_555
Na5 O121 2.510680 1_555
Na5 O49 2.713042 1_554
Na5 O93 2.732311 1_565
Na5 O19 2.846485 1_555
Na5 O39 2.916372 1_555
Na5 O35 2.947568 1_555
Na6 O72 2.529886 1_555
Na6 O89 2.602702 1_555
Na6 O75 2.615980 1_565
Na6 O76 2.759695 1_665
Na6 O86 2.764670 1_665
Na6 O85 2.787879 1_565
Na7 O77 2.572398 1_565
Na7 O73 2.575358 1_555
Na7 O87 2.605275 1_565
Na7 O74 2.616094 1_565
Na7 O88 2.660035 1_555
Na7 O84 2.661991 1_565
Na8 O94 2.499823 1_555
Na8 O91 2.535908 1_445
Na8 O93 2.558499 1_455
Na8 O80 2.729835 1_554
Na8 O78 2.750876 1_454
Na8 O83 2.788449 1_444
Na9 O92 2.432346 1_566
Na9 O90 2.599561 1_556
Na9 O95 2.652364 1_566
Na9 O79 2.662861 1_565
Na9 O82 2.717302 1_555
Na9 O81 2.860443 1_565
Na10 O98 2.279803 1_555
Na10 O100 2.604383 1_555
Na10 O108 2.716350 1_555
Na10 O112 2.846624 1_555
Na10 O96 2.879963 1_555
Na10 O110 2.973537 1_555
Na11 O99 2.241952 1_555
Na11 O97 2.503858 1_555
Na11 O113 2.629709 1_555
Na11 O109 2.796476 1_555
Na11 O101 2.829790 1_555
Na11 O111 2.903294 1_555
Na12 O106 2.246382 1_555
Na12 O104 2.365462 1_555
Na12 O102 2.433775 1_555
Na13 O107 2.225995 1_555
Na13 O105 2.586992 1_555
Na13 O115 2.789008 1_555
Na13 O103 2.858671 1_555
Na13 O117 2.905225 1_555
Na14 O134 2.368770 1_555
Na14 O132 2.408514 1_555
Na14 O136 2.710007 1_555
Na14 O122 2.728977 1_555
Na14 O124 2.762451 1_555
Na14 O120 2.987648 1_555
Na15 O133 2.320788 1_555
Na15 O137 2.430664 1_555
Na15 O135 2.598073 1_555
Na15 O125 2.789031 1_555
Na15 O123 2.905255 1_555
Na16 O138 2.409253 1_555
Na16 O128 2.443995 1_555
Na16 O142 2.640335 1_555
Na16 O130 2.795829 1_555
Na16 O140 2.993157 1_555
Na16 O126 3.004853 1_555
Na17 O139 2.411477 1_555
Na17 O143 2.447927 1_555
Na17 O131 2.626678 1_555
Na17 O141 2.696071 1_555
Na17 O129 2.748229 1_555
Na17 O127 2.951837 1_555
Ca0 O28 2.100811 1_555
Ca0 O24 2.213314 1_555
Ca0 O98 2.252440 1_555
Ca0 O26 2.272846 1_555
Ca0 O100 2.353823 1_555
Ca0 O96 2.481929 1_555
Ca1 O99 2.145910 1_555
Ca1 O27 2.207262 1_555
Ca1 O29 2.257450 1_555
Ca1 O97 2.272776 1_555
Ca1 O25 2.391055 1_555
Ca1 O101 2.396122 1_555
Ca2 O106 2.170921 1_555
Ca2 O104 2.224840 1_555
Ca2 O102 2.254880 1_555
Ca2 O32 2.270692 1_555
Ca2 O34 2.276766 1_555
Ca2 O30 2.383517 1_555
Ca3 O33 2.096467 1_555
Ca3 O107 2.218445 1_555
Ca3 O31 2.227167 1_555
Ca3 O35 2.274412 1_555
Ca3 O105 2.362594 1_555
Ca3 O103 2.483815 1_555
Ca4 O48 2.191303 1_554
Ca4 O122 2.219604 1_555
Ca4 O124 2.306743 1_555
Ca4 O120 2.312629 1_555
Ca4 O52 2.355871 1_554
Ca4 O50 2.414982 1_554
Ca5 O51 2.156777 1_554
Ca5 O125 2.232053 1_555
Ca5 O53 2.306184 1_554
Ca5 O123 2.328406 1_555
Ca5 O121 2.336560 1_555
Ca5 O49 2.464761 1_554
Ca6 O58 2.146796 1_555
Ca6 O128 2.259988 1_555
Ca6 O56 2.295109 1_555
Ca6 O126 2.368840 1_555
Ca6 O54 2.378308 1_555
Ca6 O130 2.385927 1_555
Ca7 O55 2.193129 1_555
Ca7 O131 2.242176 1_555
Ca7 O57 2.317971 1_555
Ca7 O127 2.325327 1_555
Ca7 O59 2.357880 1_555
Ca7 O129 2.368225 1_555
Ca8 O134 2.232121 1_555
Ca8 O132 2.277817 1_555
Ca8 O60 2.324986 1_555
Ca8 O62 2.380957 1_555
Ca8 O136 2.437755 1_555
Ca8 O64 2.471991 1_555
Ca9 O63 2.190768 1_555
Ca9 O133 2.273014 1_555
Ca9 O137 2.294732 1_555
Ca9 O135 2.377688 1_555
Ca9 O65 2.491740 1_555
Ca9 O61 2.505466 1_555
Ca10 O70 2.109680 1_555
Ca10 O138 2.311966 1_555
Ca10 O142 2.355618 1_555
Ca10 O68 2.449395 1_555
Ca10 O66 2.507170 1_555
Ca10 O140 2.532898 1_555
Ca11 O143 2.275752 1_555
Ca11 O139 2.278892 1_555
Ca11 O67 2.295359 1_555
Ca11 O71 2.380493 1_555
Ca11 O141 2.421366 1_555
Ca11 O69 2.458130 1_555
O0 Si0 1.675973 1_545
O0 Ta0 1.881054 1_555
O1 Si1 1.703676 1_565
O1 Ta1 1.851235 1_565
O2 Si2 1.707748 1_555
O2 Ta1 1.847268 1_565
O3 S0 1.499694 1_555
O3 Ta0 2.065805 1_665
O4 Si3 1.693900 1_555
O4 Ta1 1.844707 1_555
O5 S1 1.496211 1_655
O5 Ta0 2.100570 1_655
O6 Si4 1.716978 1_555
O6 Ta2 1.844560 1_455
O7 Si5 1.669869 1_555
O7 Ta3 1.895871 1_555
O8 S3 1.492514 1_555
O8 Ta3 2.109848 1_565
O9 S2 1.513342 1_655
O9 Ta2 2.052413 1_565
O10 S4 1.495484 1_555
O10 Ta3 2.090400 1_565
O11 Si6 1.712876 1_555
O11 Ta2 1.841976 1_565
O12 S4 1.523511 1_555
O12 Ta5 2.116578 1_565
O13 Si6 1.738476 1_555
O13 Ta4 1.842223 1_565
O14 Si4 1.736048 1_555
O14 Ta4 1.859074 1_455
O15 Si5 1.709451 1_555
O15 Ta5 1.880828 1_555
O16 S2 1.513625 1_555
O16 Ta4 2.084888 1_465
O17 S3 1.507929 1_555
O17 Ta5 2.113471 1_565
O18 Si2 1.725518 1_555
O18 Ta7 1.845248 1_565
O19 S0 1.528894 1_555
O19 Ta6 2.094930 1_665
O20 S1 1.510377 1_655
O20 Ta6 2.101275 1_655
O21 Si3 1.704585 1_555
O21 Ta7 1.848992 1_555
O22 Si0 1.712404 1_555
O22 Ta6 1.866285 1_565
O23 Si1 1.724466 1_565
O23 Ta7 1.864825 1_565
O24 Si7 1.583338 1_555
O25 S5 1.460356 1_555
O26 S6 1.457587 1_555
O27 S7 1.452335 1_555
O28 Si8 1.568058 1_555
O29 S8 1.454844 1_555
O30 S9 1.453500 1_555
O31 Si9 1.580319 1_555
O32 S10 1.448014 1_555
O33 Si10 1.561577 1_555
O34 S11 1.442887 1_555
O35 S12 1.450986 1_555
O36 S11 1.512813 1_555
O36 Ta8 2.191520 1_554
O37 S12 1.566154 1_555
O37 Ta9 2.012272 1_554
O38 S9 1.549590 1_555
O38 Ta8 2.024833 1_554
O39 Si9 1.792015 1_555
O39 Ta9 1.866620 1_554
O40 S10 1.527096 1_555
O40 Ta8 2.115001 1_554
O41 Si10 1.769886 1_555
O41 Ta9 1.838449 1_554
O42 S6 1.525953 1_555
O42 Ta10 2.135872 1_555
O43 S7 1.506044 1_555
O43 Ta11 2.186954 1_555
O44 Si8 1.743856 1_555
O44 Ta10 1.856323 1_555
O45 S8 1.506403 1_555
O45 Ta11 2.191117 1_555
O46 Si7 1.773459 1_555
O46 Ta10 1.882531 1_555
O47 S5 1.501854 1_555
O47 Ta11 2.168282 1_555
O48 Si11 1.581632 1_555
O49 S13 1.466590 1_555
O50 S14 1.447299 1_555
O51 Si12 1.578895 1_555
O52 S15 1.453049 1_555
O53 S16 1.453786 1_555
O54 S17 1.474864 1_555
O55 Si13 1.587715 1_555
O56 S18 1.459074 1_555
O57 S19 1.455057 1_555
O58 Si14 1.581808 1_555
O59 S20 1.455071 1_555
O60 Si14 1.593216 1_555
O61 S20 1.460101 1_555
O62 S17 1.455374 1_555
O63 Si13 1.586558 1_555
O64 S18 1.451183 1_555
O65 S19 1.452156 1_555
O66 S14 1.466539 1_555
O67 Si12 1.595943 1_555
O68 S15 1.460733 1_555
O69 S16 1.455798 1_555
O70 Si11 1.595957 1_555
O71 S13 1.456032 1_555
O72 Si14 1.695098 1_655
O72 Ta0 1.891975 1_665
O73 S20 1.508154 1_555
O73 Ta1 2.266895 1_565
O74 S17 1.519148 1_545
O74 Ta1 2.214932 1_555
O75 Si13 1.676411 1_545
O75 Ta0 1.940390 1_655
O76 S18 1.525718 1_555
O76 Ta0 2.060578 1_555
O77 S19 1.510375 1_555
O77 Ta1 2.223699 1_555
O78 S14 1.552038 1_655
O78 Ta2 2.066396 1_555
O79 Si12 1.702285 1_555
O79 Ta3 1.878591 1_555
O80 S15 1.538285 1_545
O80 Ta2 2.132701 1_455
O81 S16 1.525293 1_545
O81 Ta3 2.051146 1_555
O82 Si11 1.681820 1_555
O82 Ta3 1.928244 1_565
O83 S13 1.543325 1_555
O83 Ta2 2.128891 1_565
O84 Si7 1.737843 1_555
O84 Ta5 1.933226 1_555
O85 S5 1.564060 1_555
O85 Ta4 2.070872 1_555
O86 S6 1.521257 1_555
O86 Ta4 2.222734 1_455
O87 S7 1.541215 1_555
O87 Ta5 2.063501 1_555
O88 Si8 1.692766 1_555
O88 Ta5 1.982942 1_565
O89 S8 1.556617 1_555
O89 Ta4 2.136329 1_565
O90 S9 1.511593 1_555
O90 Ta7 2.319003 1_565
O91 Si9 1.727752 1_555
O91 Ta6 1.949573 1_665
O92 S10 1.529282 1_555
O92 Ta7 2.233092 1_555
O93 Si10 1.686376 1_555
O93 Ta6 1.995159 1_655
O94 S11 1.549259 1_555
O94 Ta6 2.067766 1_555
O95 S12 1.488622 1_555
O95 Ta7 2.337103 1_555
O96 S4 1.464360 1_545
O97 Si6 1.602685 1_545
O98 Si4 1.574137 1_555
O99 Si5 1.593242 1_555
O100 S3 1.474008 1_555
O101 S2 1.464540 1_655
O102 Si2 1.590947 1_555
O103 S0 1.465789 1_555
O104 Si3 1.590635 1_555
O105 S1 1.471621 1_655
O106 Si0 1.574827 1_545
O107 Si1 1.583424 1_555
O108 Si11 1.721961 1_555
O108 Ta8 1.854049 1_555
O109 S13 1.514377 1_555
O109 Ta9 2.227191 1_555
O110 Si12 1.723869 1_555
O110 Ta8 1.851188 1_555
O111 S14 1.519637 1_655
O111 Ta9 2.145444 1_555
O112 S15 1.518876 1_545
O112 Ta8 2.116183 1_555
O113 S16 1.526514 1_545
O113 Ta9 2.184374 1_555
O114 S17 1.522946 1_545
O114 Ta10 2.165865 1_555
O115 Si13 1.748758 1_545
O115 Ta11 1.833172 1_555
O116 S18 1.523524 1_555
O116 Ta10 2.148056 1_555
O117 S19 1.552755 1_555
O117 Ta11 2.007355 1_555
O118 S20 1.559744 1_555
O118 Ta10 2.027302 1_555
O119 Si14 1.732907 1_655
O119 Ta11 1.840214 1_555
O120 S11 1.454087 1_555
O121 S12 1.463010 1_555
O122 Si9 1.573256 1_455
O123 S9 1.461501 1_555
O124 S10 1.458745 1_565
O125 Si10 1.602723 1_565
O126 S6 1.465489 1_565
O127 S7 1.451794 1_565
O128 Si8 1.609055 1_555
O129 S8 1.453443 1_555
O130 S5 1.457509 1_455
O131 Si7 1.576389 1_555
O132 Si0 1.601878 1_555
O133 Si1 1.598034 1_565
O134 Si2 1.579097 1_555
O135 S0 1.449553 1_555
O136 S1 1.463408 1_555
O137 Si3 1.595852 1_555
O138 Si4 1.609106 1_555
O139 Si5 1.601892 1_555
O140 S2 1.464081 1_555
O141 S3 1.467166 1_555
O142 S4 1.465455 1_555
O143 Si6 1.569601 1_555
