# generated using pymatgen
data_Na9Mg11Nb(SO4)18
_symmetry_space_group_name_H-M   'P 1'
_cell_length_a   8.75363891
_cell_length_b   8.75839169
_cell_length_c   22.58569004
_cell_angle_alpha   90.09941873
_cell_angle_beta   89.91271800
_cell_angle_gamma   120.28609006
_symmetry_Int_Tables_number   1
_chemical_formula_structural   Na9Mg11Nb(SO4)18
_chemical_formula_sum   'Na9 Mg11 Nb1 S18 O72'
_cell_volume   1495.26090982
_cell_formula_units_Z   1
loop_
 _symmetry_equiv_pos_site_id
 _symmetry_equiv_pos_as_xyz
  1  'x, y, z'
loop_
 _atom_site_type_symbol
 _atom_site_label
 _atom_site_symmetry_multiplicity
 _atom_site_fract_x
 _atom_site_fract_y
 _atom_site_fract_z
 _atom_site_occupancy
  Na  Na0  1  0.36369053  0.36420563  0.25226659  1
  Na  Na1  1  0.30297314  0.97015909  0.08641011  1
  Na  Na2  1  0.96967935  0.30348368  0.41827207  1
  Na  Na3  1  0.00013244  0.99079664  0.50132097  1
  Na  Na4  1  0.99138501  0.00016130  0.00200236  1
  Na  Na5  1  0.66694097  0.33361860  0.83213605  1
  Na  Na6  1  0.66754371  0.33407680  0.33554789  1
  Na  Na7  1  0.33398017  0.66721520  0.16919925  1
  Na  Na8  1  0.33391034  0.66724393  0.65661483  1
  Mg  Mg0  1  0.99706464  0.98990748  0.35208972  1
  Mg  Mg1  1  0.99954899  0.99970241  0.85095876  1
  Mg  Mg2  1  0.00008539  0.99986548  0.64204069  1
  Mg  Mg3  1  0.99064663  0.99774819  0.15151124  1
  Mg  Mg4  1  0.66636330  0.33383863  0.67687523  1
  Mg  Mg5  1  0.67610293  0.33544771  0.18534865  1
  Mg  Mg6  1  0.66956696  0.33537181  0.98445736  1
  Mg  Mg7  1  0.66038413  0.33418205  0.48449176  1
  Mg  Mg8  1  0.33406238  0.66050323  0.02033547  1
  Mg  Mg9  1  0.33611793  0.67032437  0.51844416  1
  Mg  Mg10  1  0.33507918  0.67533930  0.31832259  1
  Nb  Nb0  1  0.33300445  0.66584826  0.81170275  1
  S  S0  1  0.29236261  0.99797260  0.24882318  1
  S  S1  1  0.70651162  0.70703346  0.24984217  1
  S  S2  1  0.99900076  0.29270758  0.25071509  1
  S  S3  1  0.29172515  0.28394787  0.75049762  1
  S  S4  1  0.99272002  0.70823682  0.75058812  1
  S  S5  1  0.71615246  0.00797765  0.75053613  1
  S  S6  1  0.96109062  0.33421419  0.58299176  1
  S  S7  1  0.37366654  0.03944360  0.58370793  1
  S  S8  1  0.66540301  0.62600497  0.58365258  1
  S  S9  1  0.95885289  0.62627143  0.08281879  1
  S  S10  1  0.66904112  0.04236262  0.08263701  1
  S  S11  1  0.37425389  0.33420698  0.08374247  1
  S  S12  1  0.62689937  0.66766819  0.91794676  1
  S  S13  1  0.04041991  0.37240515  0.91802828  1
  S  S14  1  0.33219541  0.95987644  0.91830716  1
  S  S15  1  0.62585501  0.95979417  0.41680122  1
  S  S16  1  0.33536839  0.37435680  0.41573067  1
  S  S17  1  0.04146973  0.66769555  0.41702223  1
  O  O0  1  0.20933571  0.03066726  0.30069177  1
  O  O1  1  0.81472945  0.78795251  0.30270553  1
  O  O2  1  0.97358374  0.18730625  0.30488483  1
  O  O3  1  0.21062913  0.18547991  0.80496278  1
  O  O4  1  0.97489374  0.78908273  0.80502311  1
  O  O5  1  0.81472318  0.02573440  0.80493546  1
  O  O6  1  0.78414301  0.96626582  0.69804998  1
  O  O7  1  0.18168215  0.21541791  0.69807005  1
  O  O8  1  0.03452231  0.81812632  0.69818573  1
  O  O9  1  0.78617935  0.81308499  0.19603584  1
  O  O10  1  0.03124878  0.21113910  0.19778021  1
  O  O11  1  0.18861710  0.97300427  0.19346386  1
  O  O12  1  0.87862928  0.35979276  0.63676144  1
  O  O13  1  0.47962069  0.11929821  0.63817896  1
  O  O14  1  0.63921071  0.52032263  0.63810726  1
  O  O15  1  0.87840204  0.51823473  0.13574709  1
  O  O16  1  0.63491570  0.12173739  0.13530228  1
  O  O17  1  0.47968448  0.35988966  0.13791946  1
  O  O18  1  0.45608134  0.30234412  0.03063699  1
  O  O19  1  0.85226199  0.54622194  0.02890724  1
  O  O20  1  0.69458471  0.14892979  0.02862471  1
  O  O21  1  0.45540854  0.14833627  0.53083880  1
  O  O22  1  0.69323509  0.54472045  0.53078984  1
  O  O23  1  0.85486916  0.30696473  0.52873839  1
  O  O24  1  0.54140289  0.69382026  0.96925085  1
  O  O25  1  0.15231586  0.45865086  0.96922508  1
  O  O26  1  0.30644171  0.85089348  0.97075857  1
  O  O27  1  0.54484302  0.85133625  0.46969734  1
  O  O28  1  0.30274020  0.45727601  0.46769913  1
  O  O29  1  0.14967432  0.69359191  0.47004381  1
  O  O30  1  0.11999667  0.63447769  0.36339466  1
  O  O31  1  0.51989014  0.88039111  0.36293799  1
  O  O32  1  0.36052711  0.47808013  0.36041493  1
  O  O33  1  0.13282961  0.48887062  0.86265232  1
  O  O34  1  0.35632160  0.86647491  0.86355487  1
  O  O35  1  0.51045168  0.64334785  0.86264431  1
  O  O36  1  0.02213184  0.82506224  0.40980011  1
  O  O37  1  0.80804810  0.98426145  0.41028519  1
  O  O38  1  0.17028196  0.19638038  0.40938505  1
  O  O39  1  0.02478136  0.19906925  0.90856452  1
  O  O40  1  0.17389394  0.97444526  0.90876391  1
  O  O41  1  0.80095425  0.82621326  0.90857654  1
  O  O42  1  0.97715535  0.17393087  0.59022118  1
  O  O43  1  0.19616599  0.02199052  0.59047874  1
  O  O44  1  0.82610581  0.80397959  0.59038966  1
  O  O45  1  0.98388160  0.80821797  0.08860565  1
  O  O46  1  0.82566840  0.02182419  0.08923114  1
  O  O47  1  0.19579695  0.17004127  0.08918090  1
  O  O48  1  0.68371214  0.15580367  0.74497410  1
  O  O49  1  0.47261074  0.31710512  0.74495462  1
  O  O50  1  0.84414723  0.52694812  0.74492951  1
  O  O51  1  0.68235178  0.52508755  0.24336849  1
  O  O52  1  0.84133411  0.31130980  0.24321359  1
  O  O53  1  0.47021351  0.16313131  0.24262715  1
  O  O54  1  0.63794690  0.50556848  0.92066537  1
  O  O55  1  0.86690909  0.36092334  0.92061084  1
  O  O56  1  0.49485172  0.13430058  0.92086212  1
  O  O57  1  0.65074347  0.14184449  0.42267272  1
  O  O58  1  0.49237361  0.35477543  0.42261689  1
  O  O59  1  0.86290112  0.50349285  0.42298006  1
  O  O60  1  0.35523707  0.49148815  0.07636184  1
  O  O61  1  0.14098592  0.65060025  0.07634732  1
  O  O62  1  0.50388713  0.86428252  0.07596729  1
  O  O63  1  0.35444493  0.86147264  0.57783159  1
  O  O64  1  0.50616602  0.64427169  0.57768118  1
  O  O65  1  0.13949500  0.49394385  0.57743537  1
  O  O66  1  0.31169137  0.84094249  0.25570879  1
  O  O67  1  0.52458036  0.68242285  0.25562460  1
  O  O68  1  0.16331361  0.47101161  0.25606972  1
  O  O69  1  0.31145076  0.47329619  0.76005150  1
  O  O70  1  0.16227640  0.68888997  0.76033307  1
  O  O71  1  0.52633325  0.83788969  0.76027656  1
loop_
_geom_bond_atom_site_label_1
_geom_bond_atom_site_label_2
_geom_bond_distance
_geom_bond_site_symmetry_2
Na0 O68 2.369238 1_555
Na0 O53 2.381743 1_555
Na0 O67 2.407798 1_555
Na0 O51 2.416957 1_555
Na0 O32 2.642159 1_555
Na0 O0 2.753364 1_555
Na0 O17 2.780766 1_555
Na0 O10 2.801856 1_555
Na1 O47 2.367470 1_565
Na1 O62 2.377310 1_555
Na1 O45 2.412481 1_455
Na1 O61 2.427252 1_555
Na1 O11 2.620385 1_555
Na1 O16 2.745689 1_565
Na1 O18 2.814652 1_565
Na1 O26 2.817312 1_554
Na2 O59 2.367315 1_555
Na2 O38 2.379811 1_655
Na2 O57 2.412799 1_555
Na2 O37 2.420821 1_545
Na2 O23 2.694214 1_555
Na2 O28 2.757600 1_655
Na2 O2 2.760553 1_555
Na2 O30 2.798516 1_655
Na3 O44 2.555915 1_455
Na3 O43 2.570994 1_565
Na3 O36 2.585962 1_555
Na3 O42 2.637743 1_465
Na3 O37 2.640290 1_455
Na3 O38 2.659067 1_565
Na4 O46 2.507846 1_555
Na4 O45 2.560474 1_545
Na4 O47 2.570545 1_655
Na4 O41 2.643917 1_544
Na4 O39 2.659178 1_654
Na4 O40 2.718231 1_644
Na5 O50 2.550636 1_555
Na5 O48 2.557634 1_555
Na5 O49 2.559859 1_555
Na5 O56 2.585152 1_555
Na5 O55 2.588647 1_555
Na5 O54 2.589205 1_555
Na6 O59 2.542904 1_555
Na6 O57 2.547411 1_555
Na6 O58 2.553672 1_555
Na6 O51 2.634871 1_555
Na6 O52 2.645374 1_555
Na6 O53 2.649800 1_555
Na7 O67 2.529137 1_555
Na7 O68 2.539252 1_555
Na7 O66 2.541425 1_555
Na7 O61 2.652350 1_555
Na7 O62 2.653103 1_555
Na7 O60 2.660158 1_555
Na8 O64 2.406029 1_555
Na8 O65 2.406784 1_555
Na8 O63 2.406956 1_555
Na8 O71 2.830758 1_555
Na8 O70 2.838270 1_555
Na8 O69 2.838562 1_555
Mg0 O1 2.017737 1_555
Mg0 O36 2.039245 1_655
Mg0 O0 2.062409 1_665
Mg0 O37 2.092551 1_555
Mg0 O38 2.115672 1_665
Mg0 O2 2.129204 1_565
Mg1 O3 2.026914 1_665
Mg1 O4 2.029364 1_555
Mg1 O5 2.031768 1_565
Mg1 O41 2.088082 1_555
Mg1 O39 2.096311 1_665
Mg1 O40 2.104799 1_655
Mg2 O44 1.996692 1_455
Mg2 O43 1.999766 1_565
Mg2 O42 2.012420 1_465
Mg2 O7 2.159474 1_565
Mg2 O6 2.166320 1_455
Mg2 O8 2.173631 1_555
Mg3 O9 1.977617 1_555
Mg3 O10 2.008919 1_665
Mg3 O11 2.081455 1_655
Mg3 O46 2.103110 1_565
Mg3 O45 2.161143 1_555
Mg3 O47 2.179506 1_665
Mg4 O13 1.966542 1_555
Mg4 O14 1.971801 1_555
Mg4 O12 1.973474 1_555
Mg4 O50 2.233484 1_555
Mg4 O49 2.237058 1_555
Mg4 O48 2.251220 1_555
Mg5 O15 2.023514 1_555
Mg5 O52 2.039575 1_555
Mg5 O16 2.055322 1_555
Mg5 O51 2.092830 1_555
Mg5 O53 2.110851 1_555
Mg5 O17 2.127734 1_555
Mg6 O19 1.998852 1_556
Mg6 O20 2.019046 1_556
Mg6 O18 2.028228 1_556
Mg6 O55 2.171917 1_555
Mg6 O56 2.187409 1_555
Mg6 O54 2.190740 1_555
Mg7 O21 2.004753 1_555
Mg7 O22 2.008921 1_555
Mg7 O23 2.090262 1_555
Mg7 O58 2.103131 1_555
Mg7 O59 2.149393 1_555
Mg7 O57 2.154795 1_555
Mg8 O60 2.027519 1_555
Mg8 O25 2.037333 1_554
Mg8 O24 2.042333 1_554
Mg8 O62 2.072653 1_555
Mg8 O61 2.076159 1_555
Mg8 O26 2.122924 1_554
Mg9 O27 2.035226 1_555
Mg9 O29 2.059565 1_555
Mg9 O28 2.079531 1_555
Mg9 O63 2.085566 1_555
Mg9 O64 2.099412 1_555
Mg9 O65 2.107687 1_555
Mg10 O31 1.981444 1_555
Mg10 O30 2.006225 1_555
Mg10 O32 2.081540 1_555
Mg10 O66 2.110219 1_555
Mg10 O67 2.156425 1_555
Mg10 O68 2.173464 1_555
Nb0 O71 1.977769 1_555
Nb0 O69 1.978260 1_555
Nb0 O70 1.982585 1_555
Nb0 O33 2.014382 1_555
Nb0 O35 2.022462 1_555
Nb0 O34 2.032890 1_555
O0 S0 1.479445 1_545
O1 S1 1.465787 1_555
O2 S2 1.481379 1_555
O3 S3 1.464394 1_555
O4 S4 1.464623 1_555
O5 S5 1.464749 1_555
O6 S5 1.452102 1_565
O7 S3 1.451938 1_555
O8 S4 1.452035 1_455
O9 S1 1.474419 1_555
O10 S2 1.489588 1_455
O11 S0 1.496021 1_555
O12 S6 1.485112 1_555
O13 S7 1.486320 1_555
O14 S8 1.486943 1_555
O15 S9 1.466141 1_555
O16 S10 1.480847 1_555
O17 S11 1.480776 1_555
O18 S11 1.492449 1_555
O19 S9 1.478325 1_555
O20 S10 1.483894 1_555
O21 S7 1.469849 1_555
O22 S8 1.470644 1_555
O23 S6 1.483793 1_555
O24 S12 1.457597 1_555
O25 S13 1.456438 1_555
O26 S14 1.466761 1_555
O27 S15 1.467801 1_555
O28 S16 1.480510 1_555
O29 S17 1.472584 1_555
O30 S17 1.490690 1_555
O31 S15 1.474402 1_555
O32 S16 1.495308 1_555
O33 S13 1.558267 1_555
O34 S14 1.553377 1_555
O35 S12 1.558362 1_555
O36 S17 1.480238 1_555
O37 S15 1.505261 1_555
O38 S16 1.505483 1_555
O39 S13 1.469194 1_555
O40 S14 1.470473 1_555
O41 S12 1.469855 1_555
O42 S6 1.489007 1_555
O43 S7 1.490223 1_555
O44 S8 1.489946 1_555
O45 S9 1.500576 1_555
O46 S10 1.477774 1_555
O47 S11 1.502422 1_555
O48 S5 1.464318 1_555
O49 S3 1.463868 1_555
O50 S4 1.464864 1_555
O51 S1 1.504951 1_555
O52 S2 1.479086 1_555
O53 S0 1.504777 1_545
O54 S12 1.472266 1_555
O55 S13 1.471773 1_655
O56 S14 1.473238 1_545
O57 S15 1.502117 1_545
O58 S16 1.476811 1_555
O59 S17 1.504112 1_655
O60 S11 1.478263 1_555
O61 S9 1.505121 1_455
O62 S10 1.506955 1_565
O63 S7 1.486744 1_565
O64 S8 1.487391 1_555
O65 S6 1.485978 1_455
O66 S0 1.476443 1_555
O67 S1 1.500997 1_555
O68 S2 1.502164 1_455
O69 S3 1.592692 1_555
O70 S4 1.592139 1_455
O71 S5 1.591192 1_565
