# generated using pymatgen
data_Na2MgGe2(SbO5)2
_symmetry_space_group_name_H-M   'P 1'
_cell_length_a   6.32705595
_cell_length_b   5.72164296
_cell_length_c   7.23675680
_cell_angle_alpha   110.82429746
_cell_angle_beta   107.21847982
_cell_angle_gamma   89.29191645
_symmetry_Int_Tables_number   1
_chemical_formula_structural   Na2MgGe2(SbO5)2
_chemical_formula_sum   'Na2 Mg1 Ge2 Sb2 O10'
_cell_volume   232.62198227
_cell_formula_units_Z   1
loop_
 _symmetry_equiv_pos_site_id
 _symmetry_equiv_pos_as_xyz
  1  'x, y, z'
loop_
 _atom_site_type_symbol
 _atom_site_label
 _atom_site_symmetry_multiplicity
 _atom_site_fract_x
 _atom_site_fract_y
 _atom_site_fract_z
 _atom_site_occupancy
  Na  Na0  1  0.42339966  0.86890221  0.72292261  1
  Na  Na1  1  0.59108561  0.20975520  0.20319603  1
  Mg  Mg0  1  0.10001230  0.44174256  0.55085729  1
  Ge  Ge0  1  0.28552312  0.60873293  0.20810818  1
  Ge  Ge1  1  0.69057836  0.40402460  0.78241672  1
  Sb  Sb0  1  0.85317616  0.88156231  0.42130107  1
  Sb  Sb1  1  0.00481790  0.00561916  0.99818369  1
  O  O0  1  0.01525023  0.83124112  0.70513807  1
  O  O1  1  0.98794193  0.14436738  0.28244641  1
  O  O2  1  0.12908192  0.66956811  0.38624983  1
  O  O3  1  0.27969486  0.83285054  0.08738780  1
  O  O4  1  0.84392910  0.29175220  0.60379387  1
  O  O5  1  0.72554410  0.17657045  0.91037589  1
  O  O6  1  0.40873518  0.40738102  0.67863536  1
  O  O7  1  0.79879695  0.71426440  0.96836754  1
  O  O8  1  0.55932483  0.62855123  0.37211481  1
  O  O9  1  0.21977478  0.28787657  0.02921885  1
loop_
_geom_bond_atom_site_label_1
_geom_bond_atom_site_label_2
_geom_bond_distance
_geom_bond_site_symmetry_2
Na0 O5 2.333157 1_565
Na0 O2 2.468862 1_555
Na0 O6 2.543840 1_555
Na0 O0 2.555186 1_555
Na0 O8 2.803017 1_555
Na0 O7 2.854292 1_555
Na1 O8 2.308106 1_555
Na1 O9 2.434588 1_555
Na1 O5 2.455088 1_554
Na1 O1 2.459766 1_555
Na1 O3 2.660265 1_545
Na1 O4 2.736698 1_555
Mg0 O6 1.938958 1_555
Mg0 O1 2.008817 1_455
Mg0 O4 2.035698 1_455
Mg0 O2 2.095648 1_555
Mg0 O0 2.248674 1_555
Ge0 O8 1.764792 1_555
Ge0 O3 1.784713 1_555
Ge0 O2 1.786261 1_555
Ge0 O9 1.797079 1_555
Ge1 O6 1.720720 1_555
Ge1 O4 1.778124 1_555
Ge1 O7 1.793533 1_555
Ge1 O5 1.824433 1_555
O0 Sb1 2.018421 1_565
O0 Sb0 2.125978 1_455
O1 Sb1 1.959657 1_654
O1 Sb0 2.368775 1_545
O2 Sb0 2.138698 1_455
O3 Sb1 2.040866 1_564
O4 Sb0 2.257065 1_545
O5 Sb1 2.053580 1_655
O7 Sb1 2.038655 1_665
O8 Sb0 2.233246 1_555
O9 Sb1 2.030730 1_554
