# generated using pymatgen
data_Ce(Re2Si)2
_symmetry_space_group_name_H-M   'P 1'
_cell_length_a   7.19623784
_cell_length_b   7.19623784
_cell_length_c   4.11589992
_cell_angle_alpha   90.00000000
_cell_angle_beta   90.00000000
_cell_angle_gamma   146.34028852
_symmetry_Int_Tables_number   1
_chemical_formula_structural   Ce(Re2Si)2
_chemical_formula_sum   'Ce1 Re4 Si2'
_cell_volume   118.13777917
_cell_formula_units_Z   1
loop_
 _symmetry_equiv_pos_site_id
 _symmetry_equiv_pos_as_xyz
  1  'x, y, z'
loop_
 _atom_site_type_symbol
 _atom_site_label
 _atom_site_symmetry_multiplicity
 _atom_site_fract_x
 _atom_site_fract_y
 _atom_site_fract_z
 _atom_site_occupancy
  Ce  Ce0  1  0.00000000  -0.00000000  -0.00000000  1
  Re  Re0  1  0.18856259  0.81143741  0.50000000  1
  Re  Re1  1  0.30441192  0.69558808  -0.00000000  1
  Re  Re2  1  0.81143741  0.18856259  0.50000000  1
  Re  Re3  1  0.69558808  0.30441192  0.00000000  1
  Si  Si0  1  0.41110446  0.58889554  0.50000000  1
  Si  Si1  1  0.58889554  0.41110446  0.50000000  1
loop_
_geom_bond_atom_site_label_1
_geom_bond_atom_site_label_2
_geom_bond_distance
_geom_bond_site_symmetry_2
Ce0 Si0 3.174267 1_444
Ce0 Si0 3.174267 1_555
Ce0 Si0 3.174267 1_445
Ce0 Si1 3.174267 1_445
Ce0 Si0 3.174267 1_554
Ce0 Si1 3.174267 1_555
Ce0 Si1 3.174267 1_554
Ce0 Si1 3.174267 1_444
Ce0 Re0 3.314047 1_544
Ce0 Re2 3.314047 1_455
Ce0 Re2 3.314047 1_454
Ce0 Re0 3.314047 1_545
Ce0 Re3 3.406030 1_555
Ce0 Re1 3.406030 1_555
Ce0 Re1 3.406030 1_445
Ce0 Re3 3.406030 1_445
Re0 Si1 2.495250 1_455
Re0 Si1 2.495250 1_565
Re0 Re1 2.604265 1_556
Re0 Re1 2.604265 1_555
Re0 Re2 2.684479 1_565
Re0 Re2 2.684479 1_455
Re0 Re3 2.930124 1_455
Re0 Re3 2.930124 1_565
Re0 Re3 2.930124 1_456
Re0 Re3 2.930124 1_566
Re1 Si0 2.528926 1_555
Re1 Si0 2.528926 1_554
Re1 Re3 2.566824 1_565
Re1 Re3 2.566824 1_455
Re1 Re2 2.930124 1_565
Re1 Re2 2.930124 1_564
Re1 Re2 2.930124 1_455
Re1 Re2 2.930124 1_454
Re2 Si0 2.495250 1_655
Re2 Si0 2.495250 1_545
Re2 Re3 2.604265 1_555
Re2 Re3 2.604265 1_556
Re3 Si1 2.528926 1_555
Re3 Si1 2.528926 1_554
Si0 Si1 2.449255 1_555
