# generated using pymatgen
data_K4PbO3
_symmetry_space_group_name_H-M   'P 1'
_cell_length_a   6.56140652
_cell_length_b   11.43858920
_cell_length_c   18.65744458
_cell_angle_alpha   90.00000000
_cell_angle_beta   90.00000000
_cell_angle_gamma   90.00000000
_symmetry_Int_Tables_number   1
_chemical_formula_structural   K4PbO3
_chemical_formula_sum   'K32 Pb8 O24'
_cell_volume   1400.30154936
_cell_formula_units_Z   8
loop_
 _symmetry_equiv_pos_site_id
 _symmetry_equiv_pos_as_xyz
  1  'x, y, z'
loop_
 _atom_site_type_symbol
 _atom_site_label
 _atom_site_symmetry_multiplicity
 _atom_site_fract_x
 _atom_site_fract_y
 _atom_site_fract_z
 _atom_site_occupancy
  K  K0  1  0.94481822  0.37746177  0.19985369  1
  K  K1  1  0.44481822  0.12253823  0.80014631  1
  K  K2  1  0.05518178  0.87746177  0.30014631  1
  K  K3  1  0.55518178  0.62253823  0.69985369  1
  K  K4  1  0.05518178  0.62253823  0.80014631  1
  K  K5  1  0.55518178  0.87746177  0.19985369  1
  K  K6  1  0.94481822  0.12253823  0.69985369  1
  K  K7  1  0.44481822  0.37746177  0.30014631  1
  K  K8  1  0.76894246  0.18884413  0.94341848  1
  K  K9  1  0.26894246  0.31115587  0.05658152  1
  K  K10  1  0.23105754  0.68884413  0.55658152  1
  K  K11  1  0.73105754  0.81115587  0.44341848  1
  K  K12  1  0.23105754  0.81115587  0.05658152  1
  K  K13  1  0.73105754  0.68884413  0.94341848  1
  K  K14  1  0.76894246  0.31115587  0.44341848  1
  K  K15  1  0.26894246  0.18884413  0.55658152  1
  K  K16  1  0.74814786  0.05568523  0.53430654  1
  K  K17  1  0.24814786  0.44431477  0.46569346  1
  K  K18  1  0.25185214  0.55568523  0.96569346  1
  K  K19  1  0.75185214  0.94431477  0.03430654  1
  K  K20  1  0.25185214  0.94431477  0.46569346  1
  K  K21  1  0.75185214  0.55568523  0.53430654  1
  K  K22  1  0.74814786  0.44431477  0.03430654  1
  K  K23  1  0.24814786  0.05568523  0.96569346  1
  K  K24  1  0.62914390  0.17145901  0.14921111  1
  K  K25  1  0.12914390  0.32854099  0.85078889  1
  K  K26  1  0.37085610  0.67145901  0.35078889  1
  K  K27  1  0.87085610  0.82854099  0.64921111  1
  K  K28  1  0.37085610  0.82854099  0.85078889  1
  K  K29  1  0.87085610  0.67145901  0.14921111  1
  K  K30  1  0.62914390  0.32854099  0.64921111  1
  K  K31  1  0.12914390  0.17145901  0.35078889  1
  Pb  Pb0  1  0.61522820  0.06503519  0.34398161  1
  Pb  Pb1  1  0.11522820  0.43496481  0.65601839  1
  Pb  Pb2  1  0.38477180  0.56503519  0.15601839  1
  Pb  Pb3  1  0.88477180  0.93496481  0.84398161  1
  Pb  Pb4  1  0.38477180  0.93496481  0.65601839  1
  Pb  Pb5  1  0.88477180  0.56503519  0.34398161  1
  Pb  Pb6  1  0.61522820  0.43496481  0.84398161  1
  Pb  Pb7  1  0.11522820  0.06503519  0.15601839  1
  O  O0  1  0.95886799  0.34967935  0.56650952  1
  O  O1  1  0.45886799  0.15032065  0.43349048  1
  O  O2  1  0.04113201  0.84967935  0.93349048  1
  O  O3  1  0.54113201  0.65032065  0.06650952  1
  O  O4  1  0.04113201  0.65032065  0.43349048  1
  O  O5  1  0.54113201  0.84967935  0.56650952  1
  O  O6  1  0.95886799  0.15032065  0.06650952  1
  O  O7  1  0.45886799  0.34967935  0.93349048  1
  O  O8  1  0.54032262  0.39526142  0.15832261  1
  O  O9  1  0.04032262  0.10473858  0.84167739  1
  O  O10  1  0.45967738  0.89526142  0.34167739  1
  O  O11  1  0.95967738  0.60473858  0.65832261  1
  O  O12  1  0.45967738  0.60473858  0.84167739  1
  O  O13  1  0.95967738  0.89526142  0.15832261  1
  O  O14  1  0.54032262  0.10473858  0.65832261  1
  O  O15  1  0.04032262  0.39526142  0.34167739  1
  O  O16  1  0.88806194  0.48756176  0.90128765  1
  O  O17  1  0.38806194  0.01243824  0.09871235  1
  O  O18  1  0.11193806  0.98756176  0.59871235  1
  O  O19  1  0.61193806  0.51243824  0.40128765  1
  O  O20  1  0.11193806  0.51243824  0.09871235  1
  O  O21  1  0.61193806  0.98756176  0.90128765  1
  O  O22  1  0.88806194  0.01243824  0.40128765  1
  O  O23  1  0.38806194  0.48756176  0.59871235  1
loop_
_geom_bond_atom_site_label_1
_geom_bond_atom_site_label_2
_geom_bond_distance
_geom_bond_site_symmetry_2
K0 O20 2.673401 1_655
K0 O15 2.726868 1_655
K0 O8 2.772346 1_555
K1 O21 2.673401 1_545
K1 O14 2.726868 1_555
K1 O9 2.772346 1_555
K2 O22 2.673401 1_465
K2 O13 2.726868 1_455
K2 O10 2.772346 1_555
K3 O23 2.673401 1_555
K3 O12 2.726868 1_555
K3 O11 2.772346 1_555
K4 O16 2.673401 1_455
K4 O11 2.726868 1_455
K4 O12 2.772346 1_555
K5 O17 2.673401 1_565
K5 O10 2.726868 1_555
K5 O13 2.772346 1_555
K6 O18 2.673401 1_645
K6 O9 2.726868 1_655
K6 O14 2.772346 1_555
K7 O19 2.673401 1_555
K7 O8 2.726868 1_555
K7 O15 2.772346 1_555
K8 O21 2.641990 1_545
K8 O6 2.649782 1_556
K8 O7 2.749218 1_555
K8 O9 2.774792 1_655
K9 O20 2.641990 1_555
K9 O7 2.649782 1_554
K9 O6 2.749218 1_455
K9 O8 2.774792 1_555
K10 O23 2.641990 1_555
K10 O4 2.649782 1_555
K10 O5 2.749218 1_555
K10 O11 2.774792 1_455
K11 O22 2.641990 1_565
K11 O5 2.649782 1_555
K11 O4 2.749218 1_655
K11 O10 2.774792 1_555
K12 O17 2.641990 1_565
K12 O2 2.649782 1_554
K12 O3 2.749218 1_555
K12 O13 2.774792 1_455
K13 O16 2.641990 1_555
K13 O3 2.649782 1_556
K13 O2 2.749218 1_655
K13 O12 2.774792 1_555
K14 O19 2.641990 1_555
K14 O0 2.649782 1_555
K14 O1 2.749218 1_555
K14 O15 2.774792 1_655
K15 O18 2.641990 1_545
K15 O1 2.649782 1_555
K15 O0 2.749218 1_455
K15 O14 2.774792 1_555
K16 O22 2.691987 1_555
K16 O14 2.743736 1_555
K16 O18 2.783670 1_645
K16 O5 2.785446 1_545
K16 O1 2.883152 1_555
K17 O23 2.691987 1_555
K17 O15 2.743736 1_555
K17 O19 2.783670 1_555
K17 O4 2.785446 1_555
K17 O0 2.883152 1_455
K18 O20 2.691987 1_556
K18 O12 2.743736 1_555
K18 O16 2.783670 1_455
K18 O7 2.785446 1_555
K18 O3 2.883152 1_556
K19 O21 2.691987 1_554
K19 O13 2.743736 1_555
K19 O17 2.783670 1_565
K19 O6 2.785446 1_565
K19 O2 2.883152 1_654
K20 O18 2.691987 1_555
K20 O10 2.743736 1_555
K20 O22 2.783670 1_465
K20 O1 2.785446 1_565
K20 O5 2.883152 1_555
K21 O19 2.691987 1_555
K21 O11 2.743736 1_555
K21 O23 2.783670 1_555
K21 O0 2.785446 1_555
K21 O4 2.883152 1_655
K22 O16 2.691987 1_554
K22 O8 2.743736 1_555
K22 O20 2.783670 1_655
K22 O3 2.785446 1_555
K22 O7 2.883152 1_554
K23 O17 2.691987 1_556
K23 O9 2.743736 1_555
K23 O21 2.783670 1_545
K23 O2 2.785446 1_545
K23 O6 2.883152 1_456
K24 O17 2.588160 1_555
K24 O8 2.630981 1_555
K24 O6 2.668304 1_555
K25 O16 2.588160 1_455
K25 O9 2.630981 1_555
K25 O7 2.668304 1_555
K26 O19 2.588160 1_555
K26 O10 2.630981 1_555
K26 O4 2.668304 1_555
K27 O18 2.588160 1_655
K27 O11 2.630981 1_555
K27 O5 2.668304 1_555
K28 O21 2.588160 1_555
K28 O12 2.630981 1_555
K28 O2 2.668304 1_555
K29 O20 2.588160 1_655
K29 O13 2.630981 1_555
K29 O3 2.668304 1_555
K30 O23 2.588160 1_555
K30 O14 2.630981 1_555
K30 O0 2.668304 1_555
K31 O22 2.588160 1_455
K31 O15 2.630981 1_555
K31 O1 2.668304 1_555
O0 Pb1 2.189331 1_655
O1 Pb0 2.189331 1_555
O2 Pb3 2.189331 1_455
O3 Pb2 2.189331 1_555
O4 Pb5 2.189331 1_455
O5 Pb4 2.189331 1_555
O6 Pb7 2.189331 1_655
O7 Pb6 2.189331 1_555
O8 Pb2 2.194264 1_555
O9 Pb3 2.194264 1_445
O10 Pb0 2.194264 1_565
O11 Pb1 2.194264 1_655
O12 Pb6 2.194264 1_555
O13 Pb7 2.194264 1_665
O14 Pb4 2.194264 1_545
O15 Pb5 2.194264 1_455
O16 Pb6 2.170216 1_555
O17 Pb7 2.170216 1_555
O18 Pb4 2.170216 1_555
O19 Pb5 2.170216 1_555
O20 Pb2 2.170216 1_555
O21 Pb3 2.170216 1_555
O22 Pb0 2.170216 1_555
O23 Pb1 2.170216 1_555
