# generated using pymatgen
data_SbPt
_symmetry_space_group_name_H-M   'P 1'
_cell_length_a   4.17744260
_cell_length_b   4.17744272
_cell_length_c   5.53920390
_cell_angle_alpha   90.00000000
_cell_angle_beta   90.00000000
_cell_angle_gamma   119.99998303
_symmetry_Int_Tables_number   1
_chemical_formula_structural   SbPt
_chemical_formula_sum   'Sb2 Pt2'
_cell_volume   83.71418493
_cell_formula_units_Z   2
loop_
 _symmetry_equiv_pos_site_id
 _symmetry_equiv_pos_as_xyz
  1  'x, y, z'
loop_
 _atom_site_type_symbol
 _atom_site_label
 _atom_site_symmetry_multiplicity
 _atom_site_fract_x
 _atom_site_fract_y
 _atom_site_fract_z
 _atom_site_occupancy
  Sb  Sb0  1  0.66666700  0.33333300  0.75000000  1
  Sb  Sb1  1  0.33333300  0.66666700  0.25000000  1
  Pt  Pt0  1  0.00000000  0.00000000  0.50000000  1
  Pt  Pt1  1  0.00000000  -0.00000000  0.00000000  1
loop_
_geom_bond_atom_site_label_1
_geom_bond_atom_site_label_2
_geom_bond_distance
_geom_bond_site_symmetry_2
Pt0 Pt1 2.769602 1_555
Pt0 Pt1 2.769602 1_556
Pt0 Sb1 2.781128 1_545
Pt0 Sb0 2.781128 1_455
Pt0 Sb1 2.781131 1_445
Pt0 Sb0 2.781131 1_555
Pt0 Sb0 2.781131 1_445
Pt0 Sb1 2.781131 1_555
Pt1 Sb1 2.781128 1_545
Pt1 Sb0 2.781128 1_454
Pt1 Sb1 2.781131 1_445
Pt1 Sb0 2.781131 1_554
Pt1 Sb0 2.781131 1_444
Pt1 Sb1 2.781131 1_555
