# generated using pymatgen
data_CaH8(ClO2)2
_symmetry_space_group_name_H-M   'P 1'
_cell_length_a   7.79408700
_cell_length_b   6.08954100
_cell_length_c   8.93868571
_cell_angle_alpha   70.07227878
_cell_angle_beta   90.00000000
_cell_angle_gamma   90.00000000
_symmetry_Int_Tables_number   1
_chemical_formula_structural   CaH8(ClO2)2
_chemical_formula_sum   'Ca2 H16 Cl4 O8'
_cell_volume   398.84881587
_cell_formula_units_Z   2
loop_
 _symmetry_equiv_pos_site_id
 _symmetry_equiv_pos_as_xyz
  1  'x, y, z'
loop_
 _atom_site_type_symbol
 _atom_site_label
 _atom_site_symmetry_multiplicity
 _atom_site_fract_x
 _atom_site_fract_y
 _atom_site_fract_z
 _atom_site_occupancy
  Ca  Ca0  1  0.50000000  0.00000000  0.50000000  1
  Ca  Ca1  1  0.00000000  0.00000000  0.00000000  1
  H  H0  1  0.43990400  0.10968400  0.80538800  1
  H  H1  1  0.93990400  0.89031600  0.69461200  1
  H  H2  1  0.56009600  0.89031600  0.19461200  1
  H  H3  1  0.06009600  0.10968400  0.30538800  1
  H  H4  1  0.57158100  0.90377600  0.85210800  1
  H  H5  1  0.07158100  0.09622400  0.64789200  1
  H  H6  1  0.42841900  0.09622400  0.14789200  1
  H  H7  1  0.92841900  0.90377600  0.35210800  1
  H  H8  1  0.27162300  0.58109000  0.53046500  1
  H  H9  1  0.77162300  0.41891000  0.96953500  1
  H  H10  1  0.72837700  0.41891000  0.46953500  1
  H  H11  1  0.22837700  0.58109000  0.03046500  1
  H  H12  1  0.79841000  0.41767500  0.79701100  1
  H  H13  1  0.29841000  0.58232500  0.70298900  1
  H  H14  1  0.70159000  0.41767500  0.29701100  1
  H  H15  1  0.20159000  0.58232500  0.20298900  1
  Cl  Cl0  1  0.78396400  0.70165500  0.56602900  1
  Cl  Cl1  1  0.28396400  0.29834500  0.93397100  1
  Cl  Cl2  1  0.21603600  0.29834500  0.43397100  1
  Cl  Cl3  1  0.71603600  0.70165500  0.06602900  1
  O  O0  1  0.50481400  0.00677100  0.76134000  1
  O  O1  1  0.00481400  0.99322900  0.73866000  1
  O  O2  1  0.49518600  0.99322900  0.23866000  1
  O  O3  1  0.99518600  0.00677100  0.26134000  1
  O  O4  1  0.30875300  0.68199300  0.59028400  1
  O  O5  1  0.80875300  0.31800700  0.90971600  1
  O  O6  1  0.69124700  0.31800700  0.40971600  1
  O  O7  1  0.19124700  0.68199300  0.09028400  1
loop_
_geom_bond_atom_site_label_1
_geom_bond_atom_site_label_2
_geom_bond_distance
_geom_bond_site_symmetry_2
Ca0 O0 2.350709 1_555
Ca0 O2 2.350709 1_545
Ca0 O4 2.357528 1_545
Ca0 O6 2.357528 1_555
Ca0 Cl2 2.795808 1_555
Ca0 Cl0 2.795808 1_545
Ca1 O3 2.350709 1_455
Ca1 O1 2.350709 1_544
Ca1 O7 2.357528 1_545
Ca1 O5 2.357528 1_454
Ca1 Cl1 2.795808 1_554
Ca1 Cl3 2.795808 1_445
H0 O0 0.985859 1_555
H1 O1 0.985859 1_655
H2 O2 0.985859 1_555
H3 O3 0.985859 1_455
H4 O0 0.987712 1_565
H5 O1 0.987712 1_545
H6 O2 0.987712 1_545
H7 O3 0.987712 1_565
H8 O4 0.985480 1_555
H9 O5 0.985480 1_555
H10 O6 0.985480 1_555
H11 O7 0.985480 1_555
H12 O5 0.986401 1_555
H13 O4 0.986401 1_555
H14 O6 0.986401 1_555
H15 O7 0.986401 1_555
