# generated using pymatgen
data_Na3ScZn3(SO4)6
_symmetry_space_group_name_H-M   'P 1'
_cell_length_a   8.79281976
_cell_length_b   8.79521336
_cell_length_c   22.70282860
_cell_angle_alpha   90.01593154
_cell_angle_beta   89.97276325
_cell_angle_gamma   120.06158045
_symmetry_Int_Tables_number   1
_chemical_formula_structural   Na3ScZn3(SO4)6
_chemical_formula_sum   'Na9 Sc3 Zn9 S18 O72'
_cell_volume   1519.55098947
_cell_formula_units_Z   3
loop_
 _symmetry_equiv_pos_site_id
 _symmetry_equiv_pos_as_xyz
  1  'x, y, z'
loop_
 _atom_site_type_symbol
 _atom_site_label
 _atom_site_symmetry_multiplicity
 _atom_site_fract_x
 _atom_site_fract_y
 _atom_site_fract_z
 _atom_site_occupancy
  Na  Na0  1  0.63447797  0.99933571  0.24925444  1
  Na  Na1  1  0.36548086  0.36463888  0.24912019  1
  Na  Na2  1  0.03203383  0.69907140  0.58497443  1
  Na  Na3  1  0.99929552  0.00633907  0.49946446  1
  Na  Na4  1  0.99999418  0.99954302  0.99901926  1
  Na  Na5  1  0.66613822  0.33271979  0.83093944  1
  Na  Na6  1  0.67415095  0.34016405  0.33436448  1
  Na  Na7  1  0.32560556  0.66589670  0.16182172  1
  Na  Na8  1  0.34055545  0.66597670  0.66752603  1
  Sc  Sc0  1  0.66729098  0.33410898  0.98094194  1
  Sc  Sc1  1  0.66509655  0.33136597  0.48155822  1
  Sc  Sc2  1  0.33393710  0.66672655  0.81421204  1
  Zn  Zn0  1  0.00006092  0.99792962  0.35203825  1
  Zn  Zn1  1  0.00008526  0.00079252  0.84935841  1
  Zn  Zn2  1  0.99931925  0.00650527  0.65403514  1
  Zn  Zn3  1  0.99985755  0.99714118  0.14601143  1
  Zn  Zn4  1  0.66390612  0.33050947  0.68640927  1
  Zn  Zn5  1  0.67314179  0.33919390  0.17722674  1
  Zn  Zn6  1  0.33263164  0.66680604  0.01609872  1
  Zn  Zn7  1  0.33938855  0.66585303  0.51561437  1
  Zn  Zn8  1  0.32683929  0.66587671  0.32077932  1
  S  S0  1  0.28939968  0.99696232  0.24995436  1
  S  S1  1  0.71055727  0.70753381  0.25016304  1
  S  S2  1  0.99998892  0.29280533  0.25002197  1
  S  S3  1  0.29252925  0.28973672  0.74996872  1
  S  S4  1  0.99730291  0.70687895  0.74940439  1
  S  S5  1  0.71040705  0.00276698  0.74993677  1
  S  S6  1  0.95965273  0.33130620  0.58404825  1
  S  S7  1  0.37375103  0.04024325  0.58430874  1
  S  S8  1  0.66401523  0.62613115  0.58438253  1
  S  S9  1  0.96257043  0.62819557  0.08381901  1
  S  S10  1  0.66578283  0.03727689  0.08443066  1
  S  S11  1  0.37131860  0.33413936  0.08443449  1
  S  S12  1  0.62740603  0.67053970  0.91751627  1
  S  S13  1  0.04318498  0.37262088  0.91746758  1
  S  S14  1  0.32950340  0.95695507  0.91744035  1
  S  S15  1  0.62746264  0.95765458  0.41602994  1
  S  S16  1  0.33035063  0.37266459  0.41607105  1
  S  S17  1  0.04205970  0.66956557  0.41723453  1
  O  O0  1  0.21396318  0.03192359  0.30286107  1
  O  O1  1  0.81500819  0.78604957  0.30354764  1
  O  O2  1  0.96697672  0.18181916  0.30305709  1
  O  O3  1  0.21347621  0.18452334  0.80306669  1
  O  O4  1  0.97186000  0.78855514  0.80179296  1
  O  O5  1  0.81544016  0.02900108  0.80303818  1
  O  O6  1  0.78328182  0.96898017  0.69621817  1
  O  O7  1  0.18642722  0.21657876  0.69623859  1
  O  O8  1  0.02951355  0.81105541  0.69432838  1
  O  O9  1  0.78655275  0.81852175  0.19768774  1
  O  O10  1  0.03287904  0.21435574  0.19745253  1
  O  O11  1  0.18461974  0.97112424  0.19698929  1
  O  O12  1  0.88041301  0.36579169  0.63586299  1
  O  O13  1  0.48186963  0.12014963  0.63634489  1
  O  O14  1  0.63810152  0.51796026  0.63657812  1
  O  O15  1  0.88441112  0.52135782  0.13745949  1
  O  O16  1  0.63772382  0.11416138  0.13946558  1
  O  O17  1  0.47581634  0.36141904  0.13947611  1
  O  O18  1  0.45936196  0.30803159  0.03255249  1
  O  O19  1  0.84988334  0.54244898  0.03125028  1
  O  O20  1  0.69211877  0.15147863  0.03255591  1
  O  O21  1  0.45636861  0.14890691  0.53054579  1
  O  O22  1  0.69591590  0.54353627  0.53086673  1
  O  O23  1  0.85025287  0.30685065  0.53028807  1
  O  O24  1  0.54710553  0.69562119  0.97039093  1
  O  O25  1  0.14851589  0.45275035  0.97031683  1
  O  O26  1  0.30427527  0.85163610  0.97032464  1
  O  O27  1  0.54507660  0.85065877  0.46846085  1
  O  O28  1  0.30468034  0.45450228  0.46845468  1
  O  O29  1  0.14528556  0.69484436  0.47141779  1
  O  O30  1  0.11810535  0.63674239  0.36416682  1
  O  O31  1  0.52277014  0.88511630  0.36115171  1
  O  O32  1  0.36326854  0.47773132  0.36120706  1
  O  O33  1  0.12291210  0.48362288  0.86419009  1
  O  O34  1  0.36079682  0.87722824  0.86418312  1
  O  O35  1  0.51644080  0.63919158  0.86424506  1
  O  O36  1  0.02211500  0.82576630  0.41086993  1
  O  O37  1  0.80424498  0.97860120  0.41031369  1
  O  O38  1  0.17408858  0.19583303  0.41026692  1
  O  O39  1  0.02165661  0.19644247  0.91029292  1
  O  O40  1  0.17463205  0.97807939  0.91023061  1
  O  O41  1  0.80373958  0.82528209  0.91023421  1
  O  O42  1  0.97716537  0.17395600  0.58880185  1
  O  O43  1  0.19428881  0.01860474  0.58840699  1
  O  O44  1  0.82861144  0.80117331  0.58848614  1
  O  O45  1  0.97577901  0.80245345  0.08878077  1
  O  O46  1  0.82689604  0.02428230  0.08925387  1
  O  O47  1  0.19688956  0.17317121  0.08917930  1
  O  O48  1  0.68886009  0.15888225  0.74378723  1
  O  O49  1  0.47045280  0.31179499  0.74389520  1
  O  O50  1  0.84096079  0.52916144  0.74354578  1
  O  O51  1  0.68334366  0.52652655  0.24419604  1
  O  O52  1  0.83899729  0.30837531  0.24381154  1
  O  O53  1  0.47132322  0.15920833  0.24458376  1
  O  O54  1  0.64274942  0.50798239  0.92311126  1
  O  O55  1  0.86500644  0.35679803  0.92310506  1
  O  O56  1  0.49213069  0.13510418  0.92315849  1
  O  O57  1  0.64437388  0.13610698  0.42264829  1
  O  O58  1  0.49188249  0.35583150  0.42277804  1
  O  O59  1  0.86296601  0.50804655  0.42328149  1
  O  O60  1  0.35575797  0.49262030  0.07772024  1
  O  O61  1  0.13744229  0.64500587  0.07716789  1
  O  O62  1  0.50733068  0.86291881  0.07771468  1
  O  O63  1  0.35063597  0.86045346  0.57705099  1
  O  O64  1  0.50800699  0.64510332  0.57650844  1
  O  O65  1  0.13497946  0.49479486  0.57654391  1
  O  O66  1  0.31628137  0.84292054  0.25628392  1
  O  O67  1  0.52882619  0.68813253  0.25597007  1
  O  O68  1  0.16142999  0.46944805  0.25672300  1
  O  O69  1  0.31118615  0.46945946  0.75657545  1
  O  O70  1  0.15849135  0.68921956  0.75610760  1
  O  O71  1  0.53044556  0.84169415  0.75651210  1
loop_
_geom_bond_atom_site_label_1
_geom_bond_atom_site_label_2
_geom_bond_distance
_geom_bond_site_symmetry_2
Na0 O52 2.395836 1_565
Na0 O67 2.414667 1_555
Na0 O66 2.426828 1_555
Na0 O53 2.463256 1_565
Na0 O16 2.684371 1_565
Na0 O31 2.727269 1_555
Na0 O9 2.795630 1_555
Na0 O2 2.813655 1_565
Na1 O68 2.399008 1_555
Na1 O53 2.413651 1_555
Na1 O51 2.421616 1_555
Na1 O67 2.467405 1_555
Na1 O17 2.676466 1_555
Na1 O32 2.735530 1_555
Na1 O10 2.793821 1_555
Na1 O0 2.814484 1_555
Na2 O44 2.370888 1_455
Na2 O65 2.390174 1_555
Na2 O63 2.431234 1_555
Na2 O43 2.433653 1_565
Na2 O8 2.674797 1_555
Na2 O29 2.770195 1_555
Na2 O12 2.791000 1_455
Na2 O22 2.840229 1_455
Na3 O42 2.571033 1_555
Na3 O38 2.583263 1_655
Na3 O37 2.584804 1_545
Na3 O43 2.616584 1_655
Na3 O44 2.622803 1_545
Na3 O36 2.631572 1_645
Na4 O41 2.596468 1_555
Na4 O40 2.596941 1_655
Na4 O39 2.600766 1_665
Na4 O45 2.614333 1_556
Na4 O47 2.621442 1_666
Na4 O46 2.624719 1_566
Na5 O49 2.566199 1_555
Na5 O48 2.568347 1_555
Na5 O50 2.573485 1_555
Na5 O56 2.660807 1_555
Na5 O54 2.666953 1_555
Na5 O55 2.667011 1_555
Na6 O59 2.560689 1_555
Na6 O51 2.598592 1_555
Na6 O52 2.609275 1_555
Na6 O58 2.614294 1_555
Na6 O57 2.614862 1_555
Na6 O53 2.650691 1_555
Na7 O61 2.482535 1_555
Na7 O62 2.535144 1_555
Na7 O60 2.537945 1_555
Na7 O66 2.675042 1_555
Na7 O68 2.685416 1_555
Na7 O67 2.730038 1_555
Na8 O71 2.583384 1_555
Na8 O69 2.587572 1_555
Na8 O64 2.595981 1_555
Na8 O70 2.640727 1_555
Na8 O63 2.646226 1_555
Na8 O65 2.660065 1_555
O0 S0 1.476689 1_545
O0 Zn0 2.075599 1_545
O1 S1 1.467806 1_555
O1 Zn0 2.072424 1_655
O2 S2 1.484351 1_555
O2 Zn0 2.099924 1_645
O3 S3 1.465622 1_555
O3 Zn1 2.048838 1_555
O4 S4 1.463204 1_555
O4 Zn1 2.060869 1_665
O5 S5 1.465241 1_555
O5 Zn1 2.051501 1_655
O6 S5 1.475147 1_565
O6 Zn2 2.001201 1_565
O7 S3 1.473635 1_555
O7 Zn2 1.998403 1_455
O8 S4 1.491142 1_455
O8 Zn2 2.078624 1_465
O9 S1 1.471421 1_555
O9 Zn3 2.099781 1_555
O10 S2 1.477571 1_455
O10 Zn3 2.131046 1_445
O11 S0 1.462020 1_555
O11 Zn3 2.098912 1_455
O12 S6 1.473758 1_555
O12 Zn4 2.107966 1_555
O13 S7 1.457586 1_555
O13 Zn4 2.076194 1_555
O14 S8 1.464390 1_555
O14 Zn4 2.103688 1_555
O15 S9 1.480251 1_555
O15 Zn5 1.962223 1_555
O16 S10 1.498546 1_555
O16 Zn5 2.032482 1_555
O17 S11 1.497790 1_555
O17 Zn5 2.030868 1_555
O18 S11 1.488786 1_555
O18 Sc0 2.084735 1_554
O19 S9 1.492261 1_555
O19 Sc0 2.071952 1_554
O20 S10 1.488912 1_555
O20 Sc0 2.086492 1_554
O21 S7 1.495042 1_555
O21 Sc1 2.056417 1_555
O22 S8 1.511903 1_555
O22 Sc1 2.073970 1_555
O23 S6 1.501633 1_555
O23 Sc1 2.067479 1_555
O24 S12 1.463987 1_555
O24 Zn6 2.053499 1_556
O25 S13 1.463109 1_555
O25 Zn6 2.047575 1_556
O26 S14 1.463982 1_555
O26 Zn6 2.047439 1_556
O27 S15 1.464260 1_555
O27 Zn7 2.028026 1_555
O28 S16 1.464717 1_555
O28 Zn7 2.031185 1_555
O29 S17 1.478231 1_555
O29 Zn7 2.102959 1_555
O30 S17 1.474579 1_555
O30 Zn8 1.982856 1_555
O31 S15 1.489608 1_555
O31 Zn8 2.049055 1_555
O32 S16 1.490463 1_555
O32 Zn8 2.053158 1_555
O33 S13 1.490556 1_555
O33 Sc2 2.080649 1_555
O34 S14 1.490579 1_555
O34 Sc2 2.081241 1_555
O35 S12 1.490668 1_555
O35 Sc2 2.077322 1_555
O36 S17 1.476659 1_555
O36 Zn0 2.099987 1_555
O37 S15 1.476451 1_555
O37 Zn0 2.109146 1_655
O38 S16 1.477575 1_555
O38 Zn0 2.109736 1_545
O39 S13 1.472896 1_555
O39 Zn1 2.140738 1_555
O40 S14 1.472886 1_555
O40 Zn1 2.148155 1_565
O41 S12 1.472876 1_555
O41 Zn1 2.145331 1_665
O42 S6 1.471128 1_555
O42 Zn2 2.165454 1_555
O43 S7 1.494621 1_555
O43 Zn2 2.232729 1_455
O44 S8 1.497066 1_555
O44 Zn2 2.239168 1_565
O45 S9 1.482138 1_555
O45 Zn3 2.073851 1_555
O46 S10 1.481311 1_555
O46 Zn3 2.096665 1_545
O47 S11 1.480802 1_555
O47 Zn3 2.091633 1_445
O48 S5 1.483730 1_555
O48 Zn4 2.087293 1_555
O49 S3 1.483201 1_555
O49 Zn4 2.083571 1_555
O50 S4 1.482552 1_555
O50 Zn4 2.105826 1_555
O51 S1 1.492758 1_555
O51 Zn5 2.210201 1_555
O52 S2 1.495621 1_555
O52 Zn5 2.209909 1_555
O53 S0 1.524130 1_545
O53 Zn5 2.275479 1_555
O54 S12 1.507254 1_555
O54 Sc0 2.107353 1_555
O55 S13 1.507201 1_655
O55 Sc0 2.106338 1_555
O56 S14 1.507324 1_545
O56 Sc0 2.111029 1_555
O57 S15 1.508036 1_545
O57 Sc1 2.111072 1_555
O58 S16 1.507748 1_555
O58 Sc1 2.115942 1_555
O59 S17 1.508447 1_655
O59 Sc1 2.117198 1_555
O60 S11 1.475142 1_555
O60 Zn6 2.158494 1_555
O61 S9 1.476806 1_455
O61 Zn6 2.138400 1_555
O62 S10 1.474984 1_565
O62 Zn6 2.153542 1_555
O63 S7 1.498944 1_565
O63 Zn7 2.171138 1_555
O64 S8 1.473457 1_555
O64 Zn7 2.101402 1_555
O65 S6 1.500752 1_455
O65 Zn7 2.167264 1_555
O66 S0 1.494341 1_555
O66 Zn8 2.173357 1_555
O67 S1 1.525290 1_555
O67 Zn8 2.237605 1_555
O68 S2 1.497491 1_455
O68 Zn8 2.167521 1_555
O69 S3 1.512654 1_555
O69 Sc2 2.100889 1_555
O70 S4 1.508902 1_455
O70 Sc2 2.113504 1_555
O71 S5 1.512335 1_565
O71 Sc2 2.098733 1_555
