# generated using pymatgen
data_Ta2Si(PO6)2
_symmetry_space_group_name_H-M   'P 1'
_cell_length_a   8.81734069
_cell_length_b   8.81754798
_cell_length_c   22.69127750
_cell_angle_alpha   89.99950874
_cell_angle_beta   90.00000000
_cell_angle_gamma   119.99922239
_symmetry_Int_Tables_number   1
_chemical_formula_structural   Ta2Si(PO6)2
_chemical_formula_sum   'Ta12 Si6 P12 O72'
_cell_volume   1527.84196506
_cell_formula_units_Z   6
loop_
 _symmetry_equiv_pos_site_id
 _symmetry_equiv_pos_as_xyz
  1  'x, y, z'
loop_
 _atom_site_type_symbol
 _atom_site_label
 _atom_site_symmetry_multiplicity
 _atom_site_fract_x
 _atom_site_fract_y
 _atom_site_fract_z
 _atom_site_occupancy
  Ta  Ta0  1  0.99721521  0.99403693  0.35741435  1
  Ta  Ta1  1  0.99682172  0.99403693  0.85741435  1
  Ta  Ta2  1  0.00231052  0.99646360  0.64255290  1
  Ta  Ta3  1  0.99415308  0.99646360  0.14255290  1
  Ta  Ta4  1  0.66567830  0.33117257  0.69067952  1
  Ta  Ta5  1  0.66549527  0.33117257  0.19067952  1
  Ta  Ta6  1  0.66863546  0.33230226  0.97590893  1
  Ta  Ta7  1  0.66366780  0.33230226  0.47590893  1
  Ta  Ta8  1  0.33860089  0.66860759  0.02416239  1
  Ta  Ta9  1  0.33000570  0.66860759  0.52416239  1
  Ta  Ta10  1  0.33054260  0.66512336  0.30933405  1
  Ta  Ta11  1  0.33457976  0.66512336  0.80933405  1
  Si  Si0  1  0.71392330  0.71398651  0.25005056  1
  Si  Si1  1  0.00006322  0.71398651  0.75005056  1
  Si  Si2  1  0.38255732  0.04912886  0.58336219  1
  Si  Si3  1  0.66657254  0.04912886  0.08336219  1
  Si  Si4  1  0.61781098  0.66550030  0.91668031  1
  Si  Si5  1  0.04768832  0.66550030  0.41668031  1
  P  P0  1  0.28356467  0.00047768  0.25014436  1
  P  P1  1  0.00053111  0.28340464  0.24979114  1
  P  P2  1  0.28287353  0.28340464  0.74979114  1
  P  P3  1  0.71691301  0.00047768  0.75014436  1
  P  P4  1  0.94883547  0.33153573  0.58344159  1
  P  P5  1  0.66503860  0.61568459  0.58320968  1
  P  P6  1  0.95064699  0.61568459  0.08320968  1
  P  P7  1  0.38270127  0.33153573  0.08344159  1
  P  P8  1  0.05070291  0.38316585  0.91636312  1
  P  P9  1  0.33359759  0.95007968  0.91672690  1
  P  P10  1  0.61648109  0.95007968  0.41672690  1
  P  P11  1  0.33246194  0.38316585  0.41636312  1
  O  O0  1  0.19971940  0.03240689  0.30497175  1
  O  O1  1  0.83834736  0.80959360  0.30717859  1
  O  O2  1  0.97092814  0.17076726  0.30473124  1
  O  O3  1  0.19983911  0.17076726  0.80473124  1
  O  O4  1  0.97124624  0.80959360  0.80717859  1
  O  O5  1  0.83268750  0.03240689  0.80497175  1
  O  O6  1  0.79996940  0.97074552  0.69528989  1
  O  O7  1  0.16707131  0.19949990  0.69494172  1
  O  O8  1  0.02859109  0.83823675  0.69290300  1
  O  O9  1  0.80964567  0.83823675  0.19290300  1
  O  O10  1  0.03242860  0.19949990  0.19494172  1
  O  O11  1  0.17077612  0.97074552  0.19528989  1
  O  O12  1  0.86649680  0.36574511  0.63816489  1
  O  O13  1  0.50367171  0.14107199  0.64076666  1
  O  O14  1  0.63752167  0.50197560  0.63795545  1
  O  O15  1  0.86445493  0.50197560  0.13795545  1
  O  O16  1  0.63740128  0.14107199  0.14076666  1
  O  O17  1  0.49924932  0.36574511  0.13816489  1
  O  O18  1  0.46914820  0.30420085  0.02864422  1
  O  O19  1  0.83426413  0.53334497  0.02852480  1
  O  O20  1  0.69604530  0.17035948  0.02593577  1
  O  O21  1  0.47431518  0.17035948  0.52593577  1
  O  O22  1  0.69908184  0.53334497  0.52852480  1
  O  O23  1  0.83505364  0.30420085  0.52864422  1
  O  O24  1  0.52296951  0.69479926  0.97394259  1
  O  O25  1  0.16267262  0.46760981  0.97141803  1
  O  O26  1  0.29968229  0.83399570  0.97155752  1
  O  O27  1  0.53431240  0.83399570  0.47155752  1
  O  O28  1  0.30493619  0.46760981  0.47141803  1
  O  O29  1  0.17182875  0.69479926  0.47394259  1
  O  O30  1  0.14030627  0.63689845  0.35937993  1
  O  O31  1  0.50206733  0.86518630  0.36211856  1
  O  O32  1  0.36468789  0.49950875  0.36167073  1
  O  O33  1  0.13481985  0.49950875  0.86167073  1
  O  O34  1  0.36311796  0.86518630  0.86211856  1
  O  O35  1  0.49659118  0.63689845  0.85937993  1
  O  O36  1  0.02992502  0.83970671  0.40683219  1
  O  O37  1  0.80160017  0.97598075  0.40660610  1
  O  O38  1  0.17167607  0.20169352  0.40561507  1
  O  O39  1  0.03001745  0.20169352  0.90561507  1
  O  O40  1  0.17438058  0.97598075  0.90660610  1
  O  O41  1  0.80978169  0.83970671  0.90683219  1
  O  O42  1  0.96822120  0.17021948  0.59408789  1
  O  O43  1  0.18937434  0.02832776  0.59328355  1
  O  O44  1  0.82508301  0.80067963  0.59345852  1
  O  O45  1  0.97559663  0.80067963  0.09345852  1
  O  O46  1  0.83895342  0.02832776  0.09328355  1
  O  O47  1  0.20199828  0.17021948  0.09408789  1
  O  O48  1  0.69515637  0.16229099  0.74056887  1
  O  O49  1  0.46644734  0.30597442  0.73962935  1
  O  O50  1  0.82978111  0.52309392  0.73876662  1
  O  O51  1  0.69331381  0.52309392  0.23876662  1
  O  O52  1  0.83952808  0.30597442  0.23962935  1
  O  O53  1  0.46713562  0.16229099  0.24056887  1
  O  O54  1  0.64163446  0.49714445  0.92801658  1
  O  O55  1  0.86716974  0.36232828  0.92614665  1
  O  O56  1  0.49518921  0.13282755  0.92675582  1
  O  O57  1  0.63763934  0.13282755  0.42675582  1
  O  O58  1  0.49515954  0.36232828  0.42614665  1
  O  O59  1  0.85551098  0.49714445  0.42801658  1
  O  O60  1  0.35773961  0.49175892  0.07322663  1
  O  O61  1  0.13150911  0.63518933  0.07268445  1
  O  O62  1  0.49417881  0.85602275  0.07329486  1
  O  O63  1  0.36184293  0.85602275  0.57329486  1
  O  O64  1  0.50367922  0.63518933  0.57268445  1
  O  O65  1  0.13401831  0.49175892  0.57322663  1
  O  O66  1  0.30598026  0.83959042  0.26038913  1
  O  O67  1  0.52314655  0.69350301  0.26138028  1
  O  O68  1  0.16221934  0.46705179  0.25934011  1
  O  O69  1  0.30483145  0.46705179  0.75934011  1
  O  O70  1  0.17035546  0.69350301  0.76138028  1
  O  O71  1  0.53360916  0.83959042  0.76038913  1
loop_
_geom_bond_atom_site_label_1
_geom_bond_atom_site_label_2
_geom_bond_distance
_geom_bond_site_symmetry_2
O0 P0 1.543292 1_555
O0 Ta0 2.028455 1_445
O1 Si0 1.633975 1_555
O1 Ta0 1.904868 1_555
O2 P1 1.532794 1_655
O2 Ta0 2.066968 1_545
O3 P2 1.532794 1_555
O3 Ta1 2.066968 1_445
O4 Si1 1.633975 1_655
O4 Ta1 1.904868 1_555
O5 P3 1.543292 1_555
O5 Ta1 2.028455 1_545
O6 P3 1.531785 1_565
O6 Ta2 2.064441 1_655
O7 P2 1.543886 1_555
O7 Ta2 2.031756 1_545
O8 Si1 1.633872 1_555
O8 Ta2 1.904938 1_555
O9 Si0 1.633872 1_555
O9 Ta3 1.904938 1_555
O10 P1 1.543886 1_555
O10 Ta3 2.031756 1_445
O11 P0 1.531785 1_565
O11 Ta3 2.064441 1_455
O12 P4 1.542399 1_555
O12 Ta4 2.026930 1_555
O13 Si2 1.621317 1_555
O13 Ta4 1.933559 1_555
O14 P5 1.537547 1_555
O14 Ta4 2.033482 1_555
O15 P6 1.537547 1_555
O15 Ta5 2.033482 1_555
O16 Si3 1.621317 1_555
O16 Ta5 1.933559 1_555
O17 P7 1.542399 1_555
O17 Ta5 2.026930 1_555
O18 P7 1.539126 1_555
O18 Ta6 2.037494 1_554
O19 P6 1.541081 1_555
O19 Ta6 2.027792 1_554
O20 Si3 1.621853 1_555
O20 Ta6 1.931607 1_554
O21 Si2 1.621853 1_555
O21 Ta7 1.931607 1_555
O22 P5 1.541081 1_555
O22 Ta7 2.027792 1_555
O23 P4 1.539126 1_555
O23 Ta7 2.037494 1_555
O24 Si4 1.634142 1_555
O24 Ta8 1.902417 1_556
O25 P8 1.534506 1_555
O25 Ta8 2.056851 1_556
O26 P9 1.542402 1_555
O26 Ta8 2.041983 1_556
O27 P10 1.542402 1_555
O27 Ta9 2.041982 1_555
O28 P11 1.534506 1_555
O28 Ta9 2.056851 1_555
O29 Si5 1.634142 1_555
O29 Ta9 1.902417 1_555
O30 Si5 1.620814 1_555
O30 Ta10 1.935894 1_555
O31 P10 1.535703 1_555
O31 Ta10 2.041077 1_555
O32 P11 1.543307 1_555
O32 Ta10 2.018203 1_555
O33 P8 1.543307 1_555
O33 Ta11 2.018203 1_555
O34 P9 1.535703 1_555
O34 Ta11 2.041077 1_555
O35 Si4 1.620814 1_555
O35 Ta11 1.935894 1_555
O36 Si5 1.635410 1_555
O36 Ta0 1.893376 1_455
O37 P10 1.548029 1_555
O37 Ta0 1.992900 1_555
O38 P11 1.536669 1_555
O38 Ta0 2.024520 1_445
O39 P8 1.536672 1_555
O39 Ta1 2.024520 1_445
O40 P9 1.548020 1_555
O40 Ta1 1.992900 1_455
O41 Si4 1.635415 1_555
O41 Ta1 1.893376 1_555
O42 P4 1.534262 1_555
O42 Ta2 2.026713 1_645
O43 Si2 1.635037 1_555
O43 Ta2 1.893661 1_545
O44 P5 1.550632 1_555
O44 Ta2 1.991384 1_655
O45 P6 1.550635 1_555
O45 Ta3 1.991384 1_555
O46 Si3 1.635028 1_555
O46 Ta3 1.893661 1_545
O47 P7 1.534267 1_555
O47 Ta3 2.026713 1_445
O48 P3 1.547081 1_555
O48 Ta4 1.988365 1_555
O49 P2 1.546166 1_555
O49 Ta4 1.994678 1_555
O50 Si1 1.620460 1_655
O50 Ta4 1.923418 1_555
O51 Si0 1.620463 1_555
O51 Ta5 1.923418 1_555
O52 P1 1.546157 1_655
O52 Ta5 1.994678 1_555
O53 P0 1.547086 1_555
O53 Ta5 1.988365 1_555
O54 Si4 1.620435 1_555
O54 Ta6 1.922593 1_555
O55 P8 1.550653 1_655
O55 Ta6 1.986470 1_555
O56 P9 1.543561 1_545
O56 Ta6 1.996672 1_555
O57 P10 1.543553 1_545
O57 Ta7 1.996672 1_555
O58 P11 1.550671 1_555
O58 Ta7 1.986470 1_555
O59 Si5 1.620425 1_655
O59 Ta7 1.922593 1_555
O60 P7 1.552107 1_555
O60 Ta8 1.990662 1_555
O61 P6 1.534763 1_455
O61 Ta8 2.023687 1_555
O62 Si3 1.635191 1_565
O62 Ta8 1.894411 1_555
O63 Si2 1.635184 1_565
O63 Ta9 1.894411 1_555
O64 P5 1.534781 1_555
O64 Ta9 2.023687 1_555
O65 P4 1.552097 1_455
O65 Ta9 1.990662 1_555
O66 P0 1.544666 1_565
O66 Ta10 1.995021 1_555
O67 Si0 1.620034 1_555
O67 Ta10 1.925034 1_555
O68 P1 1.546968 1_555
O68 Ta10 1.986943 1_555
O69 P2 1.546971 1_555
O69 Ta11 1.986943 1_555
O70 Si1 1.620025 1_555
O70 Ta11 1.925034 1_555
O71 P3 1.544671 1_565
O71 Ta11 1.995021 1_555
