# generated using pymatgen
data_NaMgCr3O8
_symmetry_space_group_name_H-M   'P 1'
_cell_length_a   5.25139443
_cell_length_b   5.25139406
_cell_length_c   6.58137367
_cell_angle_alpha   89.58706481
_cell_angle_beta   89.58706586
_cell_angle_gamma   65.12188118
_symmetry_Int_Tables_number   1
_chemical_formula_structural   NaMgCr3O8
_chemical_formula_sum   'Na1 Mg1 Cr3 O8'
_cell_volume   164.64753356
_cell_formula_units_Z   1
loop_
 _symmetry_equiv_pos_site_id
 _symmetry_equiv_pos_as_xyz
  1  'x, y, z'
loop_
 _atom_site_type_symbol
 _atom_site_label
 _atom_site_symmetry_multiplicity
 _atom_site_fract_x
 _atom_site_fract_y
 _atom_site_fract_z
 _atom_site_occupancy
  Na  Na0  1  0.00445000  0.00445000  0.99028500  1
  Mg  Mg0  1  0.66302400  0.66302400  0.25918200  1
  Cr  Cr0  1  0.64105300  0.64105300  0.73725700  1
  Cr  Cr1  1  0.00212200  0.00212200  0.49791100  1
  Cr  Cr2  1  0.34944100  0.34944100  0.27163900  1
  O  O0  1  0.77574300  0.28230400  0.70979200  1
  O  O1  1  0.72870500  0.25292500  0.28237700  1
  O  O2  1  0.25292500  0.72870500  0.28237700  1
  O  O3  1  0.28230400  0.77574300  0.70979200  1
  O  O4  1  0.22729400  0.22729400  0.46865100  1
  O  O5  1  0.77268700  0.77268700  0.52546000  1
  O  O6  1  0.72751200  0.72751200  0.96668800  1
  O  O7  1  0.27274100  0.27274100  0.04859100  1
loop_
_geom_bond_atom_site_label_1
_geom_bond_atom_site_label_2
_geom_bond_distance
_geom_bond_site_symmetry_2
Na0 O0 2.344780 1_455
Na0 O3 2.344780 1_545
Na0 O7 2.408939 1_556
Na0 O2 2.429241 1_546
Na0 O1 2.429241 1_456
Na0 O6 2.457682 1_445
Mg0 O6 2.003183 1_554
Mg0 O5 2.010618 1_555
Mg0 O1 2.037465 1_555
Mg0 O2 2.037465 1_555
Cr0 O6 1.698678 1_555
Cr0 O0 1.721647 1_555
Cr0 O3 1.721648 1_555
Cr0 O5 1.809131 1_555
Cr1 O4 2.000854 1_555
Cr1 O3 2.014111 1_545
Cr1 O0 2.014111 1_455
Cr1 O5 2.037480 1_445
Cr1 O1 2.054199 1_455
Cr1 O2 2.054199 1_545
Cr2 O7 1.622629 1_555
Cr2 O4 1.681160 1_555
Cr2 O2 1.838691 1_555
Cr2 O1 1.838691 1_555
