# generated using pymatgen
data_K2MnCl6
_symmetry_space_group_name_H-M   'P 1'
_cell_length_a   6.83787779
_cell_length_b   6.83787898
_cell_length_c   6.83787772
_cell_angle_alpha   60.00000125
_cell_angle_beta   59.99999548
_cell_angle_gamma   60.00000276
_symmetry_Int_Tables_number   1
_chemical_formula_structural   K2MnCl6
_chemical_formula_sum   'K2 Mn1 Cl6'
_cell_volume   226.07319656
_cell_formula_units_Z   1
loop_
 _symmetry_equiv_pos_site_id
 _symmetry_equiv_pos_as_xyz
  1  'x, y, z'
loop_
 _atom_site_type_symbol
 _atom_site_label
 _atom_site_symmetry_multiplicity
 _atom_site_fract_x
 _atom_site_fract_y
 _atom_site_fract_z
 _atom_site_occupancy
  K  K0  1  0.25000000  0.25000000  0.25000000  1
  K  K1  1  0.75000000  0.75000000  0.75000000  1
  Mn  Mn0  1  -0.00000000  0.00000000  0.00000000  1
  Cl  Cl0  1  0.23552523  0.76447477  0.76447477  1
  Cl  Cl1  1  0.23552523  0.76447477  0.23552523  1
  Cl  Cl2  1  0.76447477  0.23552523  0.76447477  1
  Cl  Cl3  1  0.76447477  0.23552523  0.23552523  1
  Cl  Cl4  1  0.76447477  0.76447477  0.23552523  1
  Cl  Cl5  1  0.23552523  0.23552523  0.76447477  1
loop_
_geom_bond_atom_site_label_1
_geom_bond_atom_site_label_2
_geom_bond_distance
_geom_bond_site_symmetry_2
Cl0 Mn0 2.277581 1_566
Cl0 K1 3.421803 1_555
Cl0 K1 3.421803 1_455
Cl0 K0 3.421803 1_565
Cl0 K0 3.421803 1_556
Cl1 Mn0 2.277581 1_565
Cl1 K1 3.421803 1_455
Cl1 K1 3.421803 1_554
Cl1 K0 3.421804 1_565
Cl1 K0 3.421804 1_555
Cl2 Mn0 2.277581 1_656
Cl2 K0 3.421803 1_655
Cl2 K0 3.421803 1_556
Cl2 K1 3.421804 1_545
Cl2 K1 3.421804 1_555
Cl3 Mn0 2.277581 1_655
Cl3 K0 3.421803 1_555
Cl3 K0 3.421803 1_655
Cl3 K1 3.421803 1_545
Cl3 K1 3.421803 1_554
Cl4 Mn0 2.277581 1_665
Cl4 K1 3.421803 1_555
Cl4 K1 3.421803 1_554
Cl4 K0 3.421803 1_565
Cl4 K0 3.421803 1_655
Cl5 Mn0 2.277581 1_556
Cl5 K0 3.421803 1_555
Cl5 K0 3.421803 1_556
Cl5 K1 3.421803 1_545
Cl5 K1 3.421803 1_455
