# generated using pymatgen
data_ZrTiSi(SO6)2
_symmetry_space_group_name_H-M   'P 1'
_cell_length_a   8.86822628
_cell_length_b   8.85671718
_cell_length_c   22.85164388
_cell_angle_alpha   89.85615754
_cell_angle_beta   89.99939283
_cell_angle_gamma   119.95695953
_symmetry_Int_Tables_number   1
_chemical_formula_structural   ZrTiSi(SO6)2
_chemical_formula_sum   'Zr6 Ti6 Si6 S12 O72'
_cell_volume   1555.04865758
_cell_formula_units_Z   6
loop_
 _symmetry_equiv_pos_site_id
 _symmetry_equiv_pos_as_xyz
  1  'x, y, z'
loop_
 _atom_site_type_symbol
 _atom_site_label
 _atom_site_symmetry_multiplicity
 _atom_site_fract_x
 _atom_site_fract_y
 _atom_site_fract_z
 _atom_site_occupancy
  Zr  Zr0  1  0.98686041  0.00796363  0.35716725  1
  Zr  Zr1  1  0.00718582  0.01810700  0.64544445  1
  Zr  Zr2  1  0.00828761  0.01698686  0.13742709  1
  Zr  Zr3  1  0.67563191  0.33837468  0.69288120  1
  Zr  Zr4  1  0.67394575  0.32639512  0.47529272  1
  Zr  Zr5  1  0.33380501  0.66925616  0.30617386  1
  Ti  Ti0  1  0.02521550  0.01280595  0.85955594  1
  Ti  Ti1  1  0.66420420  0.33641086  0.18557015  1
  Ti  Ti2  1  0.64715315  0.32491163  0.97366194  1
  Ti  Ti3  1  0.32565598  0.66489511  0.02254148  1
  Ti  Ti4  1  0.33949366  0.66853241  0.52410882  1
  Ti  Ti5  1  0.33805902  0.66948327  0.81449932  1
  Si  Si0  1  0.98501049  0.28570384  0.24677218  1
  Si  Si1  1  0.28813705  0.29568196  0.75430956  1
  Si  Si2  1  0.96555875  0.34717822  0.58320023  1
  Si  Si3  1  0.39532979  0.34878827  0.08063051  1
  Si  Si4  1  0.33382645  0.94544390  0.91756234  1
  Si  Si5  1  0.61118534  0.94192641  0.41810356  1
  S  S0  1  0.29317017  0.01169433  0.24706794  1
  S  S1  1  0.71833048  0.70479983  0.24752852  1
  S  S2  1  0.00922535  0.72020229  0.75529506  1
  S  S3  1  0.71053319  0.98928350  0.75465095  1
  S  S4  1  0.38012834  0.03860669  0.58339648  1
  S  S5  1  0.65979014  0.62023319  0.58347428  1
  S  S6  1  0.94897814  0.60627109  0.08060445  1
  S  S7  1  0.65416548  0.04726480  0.07983640  1
  S  S8  1  0.62022886  0.66995614  0.91701005  1
  S  S9  1  0.04770307  0.38208887  0.91804881  1
  S  S10  1  0.33174213  0.38528706  0.41858608  1
  S  S11  1  0.05570982  0.67348564  0.41756619  1
  O  O0  1  0.21470667  0.03641444  0.30036096  1
  O  O1  1  0.82520456  0.78412708  0.30069781  1
  O  O2  1  0.95242862  0.16448845  0.30515064  1
  O  O3  1  0.18672685  0.16436338  0.81108550  1
  O  O4  1  0.97777685  0.80388524  0.80625003  1
  O  O5  1  0.82135537  0.01828630  0.80562617  1
  O  O6  1  0.78371447  0.95757629  0.70051877  1
  O  O7  1  0.16394104  0.20609260  0.69770810  1
  O  O8  1  0.03560011  0.82194094  0.70118727  1
  O  O9  1  0.79869171  0.81384859  0.19568974  1
  O  O10  1  0.02012504  0.19200008  0.19115012  1
  O  O11  1  0.17993258  0.97780983  0.19545543  1
  O  O12  1  0.87290717  0.37434267  0.64068707  1
  O  O13  1  0.48955662  0.12173313  0.63557205  1
  O  O14  1  0.62892992  0.50730991  0.63573257  1
  O  O15  1  0.87349522  0.49853065  0.13423166  1
  O  O16  1  0.62781179  0.12632102  0.13305476  1
  O  O17  1  0.51742961  0.37550863  0.13745928  1
  O  O18  1  0.49001510  0.31908075  0.02287379  1
  O  O19  1  0.84326556  0.52783864  0.02830318  1
  O  O20  1  0.69189746  0.16021881  0.02783934  1
  O  O21  1  0.45272089  0.15109691  0.53110821  1
  O  O22  1  0.68620661  0.54138864  0.53082470  1
  O  O23  1  0.83990595  0.31447914  0.52726744  1
  O  O24  1  0.53848817  0.69880705  0.96898512  1
  O  O25  1  0.16170954  0.45584223  0.97051420  1
  O  O26  1  0.30108032  0.81956975  0.97415680  1
  O  O27  1  0.51025025  0.82205379  0.47521413  1
  O  O28  1  0.30055968  0.46350044  0.47116364  1
  O  O29  1  0.15838098  0.69123998  0.47032637  1
  O  O30  1  0.12785720  0.63682263  0.36434933  1
  O  O31  1  0.50249689  0.85395132  0.35927022  1
  O  O32  1  0.35369236  0.48634367  0.36465701  1
  O  O33  1  0.12864623  0.49407505  0.86600492  1
  O  O34  1  0.36508294  0.85238927  0.86115638  1
  O  O35  1  0.50480381  0.62896569  0.86468097  1
  O  O36  1  0.05042977  0.83568551  0.40888317  1
  O  O37  1  0.80104457  0.95546638  0.41283181  1
  O  O38  1  0.18026562  0.20747158  0.41199179  1
  O  O39  1  0.02354914  0.20395954  0.90881092  1
  O  O40  1  0.16230075  0.96894594  0.90639363  1
  O  O41  1  0.79192113  0.82557844  0.90659789  1
  O  O42  1  0.98122398  0.17281609  0.59154049  1
  O  O43  1  0.20247980  0.01036091  0.59252989  1
  O  O44  1  0.81435304  0.79224015  0.59344361  1
  O  O45  1  0.96980689  0.78112015  0.08988271  1
  O  O46  1  0.80599157  0.02006833  0.08720052  1
  O  O47  1  0.20579775  0.17417246  0.08795793  1
  O  O48  1  0.69026704  0.14474402  0.74537012  1
  O  O49  1  0.47522602  0.31228148  0.74221231  1
  O  O50  1  0.85015298  0.54518758  0.74872473  1
  O  O51  1  0.70136209  0.53045034  0.24034677  1
  O  O52  1  0.81445691  0.30334631  0.23082538  1
  O  O53  1  0.46622651  0.16715686  0.23768362  1
  O  O54  1  0.64457776  0.51528632  0.92518857  1
  O  O55  1  0.87579866  0.36653121  0.92757927  1
  O  O56  1  0.50441704  0.13989214  0.92894802  1
  O  O57  1  0.63102121  0.13357815  0.42439728  1
  O  O58  1  0.49059965  0.37376850  0.42624906  1
  O  O59  1  0.87452727  0.52624246  0.42372711  1
  O  O60  1  0.37224864  0.51748541  0.06708458  1
  O  O61  1  0.12566617  0.62433293  0.07327804  1
  O  O62  1  0.49632624  0.87340146  0.07231619  1
  O  O63  1  0.36597619  0.86667590  0.57509333  1
  O  O64  1  0.50272277  0.63836718  0.57643020  1
  O  O65  1  0.15607709  0.51455940  0.56924865  1
  O  O66  1  0.31501036  0.85651609  0.25347531  1
  O  O67  1  0.54228535  0.68276988  0.25527220  1
  O  O68  1  0.15218549  0.47579552  0.25792473  1
  O  O69  1  0.30582486  0.48330393  0.77003042  1
  O  O70  1  0.16169058  0.69678983  0.76391539  1
  O  O71  1  0.53454389  0.83338991  0.76233290  1
loop_
_geom_bond_atom_site_label_1
_geom_bond_atom_site_label_2
_geom_bond_distance
_geom_bond_site_symmetry_2
O0 S0 1.472651 1_555
O0 Zr0 2.306775 1_455
O1 S1 1.485744 1_555
O1 Zr0 2.196602 1_565
O2 Si0 1.642777 1_555
O2 Zr0 1.960221 1_555
O3 Si1 1.671102 1_555
O3 Ti0 1.775543 1_555
O4 S2 1.481112 1_655
O4 Ti0 2.078106 1_665
O5 S3 1.462256 1_545
O5 Ti0 2.208378 1_655
O6 S3 1.487944 1_555
O6 Zr1 2.175852 1_665
O7 Si1 1.627281 1_555
O7 Zr1 1.956889 1_555
O8 S2 1.476267 1_555
O8 Zr1 2.265113 1_565
O9 S1 1.466560 1_555
O9 Zr2 2.261102 1_665
O10 Si0 1.632388 1_455
O10 Zr2 1.941095 1_555
O11 S0 1.479998 1_565
O11 Zr2 2.172798 1_565
O12 Si2 1.630249 1_555
O12 Zr3 2.006542 1_555
O13 S4 1.481975 1_555
O13 Zr3 2.229395 1_555
O14 S5 1.490598 1_555
O14 Zr3 2.173645 1_555
O15 S6 1.488826 1_555
O15 Ti1 2.052521 1_555
O16 S7 1.480382 1_555
O16 Ti1 2.101909 1_555
O17 Si3 1.631128 1_555
O17 Ti1 1.863093 1_555
O18 Si3 1.654884 1_555
O18 Ti2 1.771179 1_554
O19 S6 1.464126 1_555
O19 Ti2 2.168782 1_554
O20 S7 1.477952 1_555
O20 Ti2 2.094471 1_554
O21 S4 1.479263 1_555
O21 Zr4 2.198698 1_555
O22 S5 1.468884 1_555
O22 Zr4 2.247950 1_555
O23 Si2 1.624455 1_555
O23 Zr4 1.934537 1_555
O24 S8 1.479164 1_555
O24 Ti3 2.140658 1_556
O25 S9 1.493548 1_555
O25 Ti3 2.068367 1_556
O26 Si4 1.633760 1_555
O26 Ti3 1.853977 1_556
O27 Si5 1.635705 1_555
O27 Ti4 1.823823 1_555
O28 S10 1.481677 1_555
O28 Ti4 2.065292 1_555
O29 S11 1.471514 1_555
O29 Ti4 2.109987 1_555
O30 S11 1.484299 1_555
O30 Zr5 2.158614 1_555
O31 Si5 1.612116 1_555
O31 Zr5 1.987980 1_555
O32 S10 1.475859 1_555
O32 Zr5 2.171648 1_555
O33 S9 1.482036 1_555
O33 Ti5 2.087367 1_555
O34 Si4 1.628186 1_555
O34 Ti5 1.854556 1_555
O35 S8 1.496868 1_555
O35 Ti5 2.039201 1_555
O36 S11 1.473435 1_555
O36 Zr0 2.211919 1_465
O37 Si5 1.631583 1_555
O37 Zr0 1.944601 1_565
O38 S10 1.481830 1_555
O38 Zr0 2.148963 1_455
O39 S9 1.497857 1_555
O39 Ti0 2.041538 1_555
O40 Si4 1.654766 1_555
O40 Ti0 1.801107 1_565
O41 S8 1.475508 1_555
O41 Ti0 2.179548 1_665
O42 Si2 1.628862 1_555
O42 Zr1 1.937629 1_655
O43 S4 1.481298 1_555
O43 Zr1 2.141351 1_555
O44 S5 1.472357 1_555
O44 Zr1 2.221199 1_665
O45 S6 1.480937 1_555
O45 Zr2 2.227163 1_665
O46 S7 1.490940 1_555
O46 Zr2 2.141341 1_655
O47 Si3 1.627134 1_555
O47 Zr2 1.959788 1_555
O48 S3 1.489537 1_545
O48 Zr3 2.146741 1_555
O49 Si1 1.614616 1_555
O49 Zr3 2.017738 1_555
O50 S2 1.494200 1_655
O50 Zr3 2.135292 1_555
O51 S1 1.484328 1_555
O51 Ti1 2.018439 1_555
O52 Si0 1.637267 1_555
O52 Ti1 1.821794 1_555
O53 S0 1.478265 1_555
O53 Ti1 2.027403 1_555
O54 S8 1.500739 1_555
O54 Ti2 2.024725 1_555
O55 S9 1.476664 1_655
O55 Ti2 2.146592 1_555
O56 Si4 1.650009 1_545
O56 Ti2 1.807885 1_555
O57 Si5 1.623527 1_545
O57 Zr4 1.942849 1_555
O58 S10 1.472818 1_555
O58 Zr4 2.180550 1_555
O59 S11 1.486138 1_655
O59 Zr4 2.128533 1_555
O60 Si3 1.634982 1_555
O60 Ti3 1.855641 1_555
O61 S6 1.502782 1_455
O61 Ti3 1.995080 1_555
O62 S7 1.486177 1_565
O62 Ti3 2.052800 1_555
O63 S4 1.476850 1_565
O63 Ti4 2.022599 1_555
O64 S5 1.488354 1_555
O64 Ti4 1.995239 1_555
O65 Si2 1.627912 1_455
O65 Ti4 1.829505 1_555
O66 S0 1.487508 1_565
O66 Zr5 2.120069 1_555
O67 S1 1.484034 1_555
O67 Zr5 2.136314 1_555
O68 Si0 1.614551 1_455
O68 Zr5 1.999765 1_555
O69 Si1 1.630227 1_555
O69 Ti5 1.836033 1_555
O70 S2 1.479787 1_555
O70 Ti5 2.053630 1_555
O71 S3 1.489861 1_555
O71 Ti5 2.007411 1_555
