# generated using pymatgen
data_Ta3Ti9(CrP4)2
_symmetry_space_group_name_H-M   'P 1'
_cell_length_a   7.37771710
_cell_length_b   7.37771589
_cell_length_c   13.48785561
_cell_angle_alpha   76.57758189
_cell_angle_beta   76.57758338
_cell_angle_gamma   26.36800306
_symmetry_Int_Tables_number   1
_chemical_formula_structural   Ta3Ti9(CrP4)2
_chemical_formula_sum   'Ta3 Ti9 Cr2 P8'
_cell_volume   316.66080316
_cell_formula_units_Z   1
loop_
 _symmetry_equiv_pos_site_id
 _symmetry_equiv_pos_as_xyz
  1  'x, y, z'
loop_
 _atom_site_type_symbol
 _atom_site_label
 _atom_site_symmetry_multiplicity
 _atom_site_fract_x
 _atom_site_fract_y
 _atom_site_fract_z
 _atom_site_occupancy
  Ta  Ta0  1  0.50000000  0.50000000  0.50000000  1
  Ta  Ta1  1  0.42438268  0.42438268  0.17910346  1
  Ta  Ta2  1  0.57561732  0.57561732  0.82089654  1
  Ti  Ti0  1  0.00000000  0.00000000  0.00000000  1
  Ti  Ti1  1  0.20945526  0.20945526  0.21125367  1
  Ti  Ti2  1  0.79054474  0.79054474  0.78874633  1
  Ti  Ti3  1  0.33882048  0.33882048  0.97001311  1
  Ti  Ti4  1  0.66117952  0.66117952  0.02998689  1
  Ti  Ti5  1  0.00350731  0.00350731  0.33531059  1
  Ti  Ti6  1  0.99649269  0.99649269  0.66468941  1
  Ti  Ti7  1  0.17927575  0.17927575  0.46275203  1
  Ti  Ti8  1  0.82072425  0.82072425  0.53724797  1
  Cr  Cr0  1  0.19823626  0.19823626  0.68917835  1
  Cr  Cr1  1  0.80176374  0.80176374  0.31082165  1
  P  P0  1  0.17995035  0.17995035  0.88940703  1
  P  P1  1  0.82004965  0.82004965  0.11059297  1
  P  P2  1  0.37003650  0.37003650  0.39024652  1
  P  P3  1  0.62996350  0.62996350  0.60975348  1
  P  P4  1  0.36547103  0.36547103  0.65794378  1
  P  P5  1  0.63452897  0.63452897  0.34205622  1
  P  P6  1  0.06360746  0.06360746  0.15156932  1
  P  P7  1  0.93639254  0.93639254  0.84843068  1
loop_
_geom_bond_atom_site_label_1
_geom_bond_atom_site_label_2
_geom_bond_distance
_geom_bond_site_symmetry_2
Cr0 P3 2.332848 1_545
Cr0 P3 2.332849 1_455
Cr0 P4 2.338215 1_555
Cr0 P0 2.650332 1_555
Cr1 P2 2.332848 1_565
Cr1 P2 2.332849 1_655
Cr1 P5 2.338215 1_555
Cr1 P1 2.650332 1_555
P0 Ti2 2.484088 1_455
P0 Ti2 2.484088 1_545
P0 Ti4 2.501134 1_546
P0 Ti4 2.501134 1_456
P0 Ta2 2.567590 1_545
P0 Ta2 2.567591 1_455
P0 Ti0 2.658915 1_556
P0 Ti3 2.752203 1_555
P1 Ti1 2.484088 1_655
P1 Ti1 2.484088 1_565
P1 Ti3 2.501134 1_564
P1 Ti3 2.501134 1_654
P1 Ta1 2.567590 1_565
P1 Ta1 2.567591 1_655
P1 Ti0 2.658915 1_665
P1 Ti4 2.752203 1_555
P2 Ti5 2.525844 1_565
P2 Ti5 2.525845 1_655
P2 Ti8 2.568042 1_545
P2 Ti8 2.568042 1_455
P2 Ta0 2.644898 1_555
P2 Ti7 2.681257 1_555
P2 Ta1 2.767619 1_555
P3 Ti6 2.525844 1_545
P3 Ti6 2.525845 1_455
P3 Ti7 2.568042 1_565
P3 Ti7 2.568042 1_655
P3 Ta0 2.644898 1_555
P3 Ti8 2.681257 1_555
P3 Ta2 2.767619 1_555
P4 Ti2 2.489421 1_545
P4 Ti2 2.489422 1_455
P4 Ta0 2.512056 1_555
P4 Ti8 2.528617 1_545
P4 Ti8 2.528618 1_455
P4 Ti6 2.542552 1_455
P4 Ti6 2.542553 1_545
P5 Ti1 2.489421 1_565
P5 Ti1 2.489422 1_655
P5 Ta0 2.512056 1_555
P5 Ti7 2.528617 1_565
P5 Ti7 2.528618 1_655
P5 Ti5 2.542552 1_655
P5 Ti5 2.542553 1_565
P6 Ti1 2.417173 1_555
P6 Ti5 2.422198 1_555
P6 Ti0 2.430061 1_555
P6 Ti4 2.527761 1_455
P6 Ti4 2.527762 1_545
P6 Ta1 2.572142 1_545
P6 Ta1 2.572143 1_455
P7 Ti2 2.417173 1_555
P7 Ti6 2.422198 1_555
P7 Ti0 2.430061 1_666
P7 Ti3 2.527761 1_655
P7 Ti3 2.527762 1_565
P7 Ta2 2.572142 1_565
P7 Ta2 2.572143 1_655
