# generated using pymatgen
data_K3Na(HfTe3)2
_symmetry_space_group_name_H-M   'P 1'
_cell_length_a   7.59095921
_cell_length_b   7.59095917
_cell_length_c   8.49398446
_cell_angle_alpha   81.36230727
_cell_angle_beta   81.36229430
_cell_angle_gamma   120.08648652
_symmetry_Int_Tables_number   1
_chemical_formula_structural   K3Na(HfTe3)2
_chemical_formula_sum   'K3 Na1 Hf2 Te6'
_cell_volume   403.89386505
_cell_formula_units_Z   1
loop_
 _symmetry_equiv_pos_site_id
 _symmetry_equiv_pos_as_xyz
  1  'x, y, z'
loop_
 _atom_site_type_symbol
 _atom_site_label
 _atom_site_symmetry_multiplicity
 _atom_site_fract_x
 _atom_site_fract_y
 _atom_site_fract_z
 _atom_site_occupancy
  K  K0  1  0.34410232  0.65589768  0.50000000  1
  K  K1  1  0.65589768  0.34410232  0.50000000  1
  K  K2  1  0.00000000  0.00000000  0.50000000  1
  Na  Na0  1  0.50000000  0.50000000  0.00000000  1
  Hf  Hf0  1  0.16799954  0.83200046  1.00000000  1
  Hf  Hf1  1  0.83200046  0.16799954  0.00000000  1
  Te  Te0  1  0.79552459  0.79552459  0.19791284  1
  Te  Te1  1  0.43191564  0.06795901  0.20224196  1
  Te  Te2  1  0.06795901  0.43191564  0.20224196  1
  Te  Te3  1  0.56808436  0.93204099  0.79775804  1
  Te  Te4  1  0.93204099  0.56808436  0.79775804  1
  Te  Te5  1  0.20447541  0.20447541  0.80208716  1
loop_
_geom_bond_atom_site_label_1
_geom_bond_atom_site_label_2
_geom_bond_distance
_geom_bond_site_symmetry_2
K0 Te4 3.413476 1_455
K0 Te1 3.413476 1_565
K0 Te0 3.514306 1_555
K0 Te5 3.514306 1_555
K0 Te3 3.604469 1_555
K0 Te2 3.604469 1_555
K1 Te2 3.413476 1_655
K1 Te3 3.413476 1_545
K1 Te5 3.514306 1_555
K1 Te0 3.514306 1_555
K1 Te1 3.604469 1_555
K1 Te4 3.604469 1_555
K2 Te5 3.373349 1_555
K2 Te0 3.373349 1_445
K2 Te3 3.582438 1_445
K2 Te1 3.582438 1_555
K2 Te4 3.582439 1_445
K2 Te2 3.582439 1_555
Na0 Te0 3.179749 1_555
Na0 Te5 3.179749 1_554
Na0 Te4 3.211784 1_554
Na0 Te2 3.211784 1_555
Na0 Te3 3.211785 1_554
Na0 Te1 3.211785 1_555
Hf0 Te3 2.912031 1_555
Hf0 Te2 2.912031 1_556
Hf0 Te4 2.921118 1_455
Hf0 Te1 2.921118 1_566
Hf0 Te0 2.923122 1_456
Hf0 Te5 2.923122 1_565
Hf1 Te1 2.912031 1_555
Hf1 Te4 2.912031 1_554
Hf1 Te2 2.921118 1_655
Hf1 Te3 2.921118 1_544
Hf1 Te5 2.923122 1_654
Hf1 Te0 2.923122 1_545
