# generated using pymatgen
data_K12Ta3VTe16
_symmetry_space_group_name_H-M   'P 1'
_cell_length_a   10.35026097
_cell_length_b   10.34346420
_cell_length_c   11.89020823
_cell_angle_alpha   90.00000000
_cell_angle_beta   90.00000000
_cell_angle_gamma   90.25425710
_symmetry_Int_Tables_number   1
_chemical_formula_structural   K12Ta3VTe16
_chemical_formula_sum   'K12 Ta3 V1 Te16'
_cell_volume   1272.92407407
_cell_formula_units_Z   1
loop_
 _symmetry_equiv_pos_site_id
 _symmetry_equiv_pos_as_xyz
  1  'x, y, z'
loop_
 _atom_site_type_symbol
 _atom_site_label
 _atom_site_symmetry_multiplicity
 _atom_site_fract_x
 _atom_site_fract_y
 _atom_site_fract_z
 _atom_site_occupancy
  K  K0  1  0.05579751  0.20313847  0.04677647  1
  K  K1  1  0.12328773  0.41134684  0.75000000  1
  K  K2  1  0.37522247  0.90530210  0.25000000  1
  K  K3  1  0.62527738  0.09091433  0.75000000  1
  K  K4  1  0.87785381  0.59264726  0.25000000  1
  K  K5  1  0.94712743  0.79872939  0.54894588  1
  K  K6  1  0.55328040  0.29402466  0.45255179  1
  K  K7  1  0.44420655  0.70592645  0.94924176  1
  K  K8  1  0.55328040  0.29402466  0.04744821  1
  K  K9  1  0.05579751  0.20313847  0.45322353  1
  K  K10  1  0.44420655  0.70592645  0.55075824  1
  K  K11  1  0.94712743  0.79872939  0.95105412  1
  Ta  Ta0  1  0.78745747  0.01677123  0.25000000  1
  Ta  Ta1  1  0.70977161  0.51405620  0.75000000  1
  Ta  Ta2  1  0.29069377  0.48411616  0.25000000  1
  V  V0  1  0.21068720  0.98297753  0.75000000  1
  Te  Te0  1  0.32960398  0.04978322  0.92318896  1
  Te  Te1  1  0.19049606  0.74220581  0.75000000  1
  Te  Te2  1  0.30860266  0.23285790  0.25000000  1
  Te  Te3  1  0.69216360  0.76482539  0.75000000  1
  Te  Te4  1  0.81026582  0.26672102  0.25000000  1
  Te  Te5  1  0.98997966  0.08267253  0.75000000  1
  Te  Te6  1  0.52275889  0.58513477  0.25000000  1
  Te  Te7  1  0.47727644  0.41338462  0.75000000  1
  Te  Te8  1  0.01881307  0.91572470  0.25000000  1
  Te  Te9  1  0.66419703  0.94819046  0.43183548  1
  Te  Te10  1  0.83328625  0.44422049  0.56939323  1
  Te  Te11  1  0.16719852  0.55515766  0.06951725  1
  Te  Te12  1  0.66419703  0.94819046  0.06816452  1
  Te  Te13  1  0.32960398  0.04978322  0.57681104  1
  Te  Te14  1  0.16719852  0.55515766  0.43048275  1
  Te  Te15  1  0.83328625  0.44422049  0.93060677  1
loop_
_geom_bond_atom_site_label_1
_geom_bond_atom_site_label_2
_geom_bond_distance
_geom_bond_site_symmetry_2
K0 Te4 3.569943 1_455
K0 Te0 3.570260 1_554
K0 Te2 3.573904 1_555
K0 Te15 3.671662 1_454
K0 Te5 3.802777 1_454
K0 Te11 3.823993 1_555
K0 Te8 3.848784 1_545
K1 Te1 3.489184 1_555
K1 Te5 3.663282 1_455
K1 Te7 3.663843 1_555
K1 Te15 3.707530 1_455
K1 Te10 3.707530 1_455
K1 Te11 4.104459 1_556
K1 Te14 4.104459 1_555
K2 Te2 3.460513 1_565
K2 Te6 3.652901 1_555
K2 Te8 3.690983 1_555
K2 Te9 3.715560 1_555
K2 Te12 3.715560 1_555
K3 Te3 3.446211 1_545
K3 Te7 3.676574 1_555
K3 Te0 3.711520 1_555
K3 Te13 3.711520 1_555
K3 Te5 3.776104 1_555
K3 Te12 4.081458 1_546
K3 Te9 4.081458 1_545
K4 Te4 3.439982 1_555
K4 Te8 3.640403 1_655
K4 Te6 3.675802 1_555
K4 Te14 3.706033 1_655
K4 Te11 3.706033 1_655
K5 Te1 3.523455 1_655
K5 Te3 3.576819 1_555
K5 Te9 3.597866 1_555
K5 Te14 3.683822 1_655
K5 Te5 3.811262 1_565
K5 Te8 3.826441 1_655
K5 Te10 3.854207 1_555
K6 Te2 3.549622 1_555
K6 Te10 3.564097 1_555
K6 Te4 3.600225 1_555
K6 Te13 3.724640 1_555
K6 Te9 3.769731 1_545
K6 Te7 3.828848 1_555
K6 Te6 3.869779 1_555
K7 Te3 3.543454 1_555
K7 Te1 3.557747 1_555
K7 Te11 3.557773 1_556
K7 Te12 3.662325 1_556
K7 Te0 3.767001 1_565
K7 Te7 3.859363 1_555
K7 Te6 3.875486 1_556
K8 Te2 3.549622 1_555
K8 Te15 3.564097 1_554
K8 Te4 3.600225 1_555
K8 Te0 3.724640 1_554
K8 Te12 3.769731 1_545
K8 Te7 3.828848 1_554
K8 Te6 3.869779 1_555
K9 Te4 3.569943 1_455
K9 Te13 3.570260 1_555
K9 Te2 3.573904 1_555
K9 Te10 3.671662 1_455
K9 Te5 3.802777 1_455
K9 Te14 3.823993 1_555
K9 Te8 3.848784 1_545
K10 Te3 3.543454 1_555
K10 Te1 3.557747 1_555
K10 Te14 3.557773 1_555
K10 Te9 3.662325 1_555
K10 Te13 3.767001 1_565
K10 Te7 3.859363 1_555
K10 Te6 3.875486 1_555
K11 Te1 3.523455 1_655
K11 Te3 3.576819 1_555
K11 Te12 3.597866 1_556
K11 Te11 3.683822 1_656
K11 Te5 3.811262 1_565
K11 Te8 3.826441 1_656
K11 Te15 3.854207 1_555
Ta0 Te4 2.595059 1_555
Ta0 Te9 2.607160 1_545
Ta0 Te12 2.607160 1_545
Ta0 Te8 2.616995 1_645
Ta1 Te3 2.601023 1_555
Ta1 Te15 2.603047 1_555
Ta1 Te10 2.603047 1_555
Ta1 Te7 2.617775 1_555
Ta2 Te14 2.605249 1_555
Ta2 Te11 2.605249 1_555
Ta2 Te2 2.606303 1_555
Ta2 Te6 2.615109 1_555
Te0 V0 2.495070 1_545
Te1 V0 2.498242 1_555
Te5 V0 2.510509 1_645
Te13 V0 2.495070 1_545
