# generated using pymatgen
data_Ba10MoPN10
_symmetry_space_group_name_H-M   'P 1'
_cell_length_a   8.02533883
_cell_length_b   8.02533774
_cell_length_c   9.40438801
_cell_angle_alpha   76.18635809
_cell_angle_beta   76.18636101
_cell_angle_gamma   95.79438587
_symmetry_Int_Tables_number   1
_chemical_formula_structural   Ba10MoPN10
_chemical_formula_sum   'Ba10 Mo1 P1 N10'
_cell_volume   563.09835374
_cell_formula_units_Z   1
loop_
 _symmetry_equiv_pos_site_id
 _symmetry_equiv_pos_as_xyz
  1  'x, y, z'
loop_
 _atom_site_type_symbol
 _atom_site_label
 _atom_site_symmetry_multiplicity
 _atom_site_fract_x
 _atom_site_fract_y
 _atom_site_fract_z
 _atom_site_occupancy
  Ba  Ba0  1  0.40503467  0.38973947  0.37336229  1
  Ba  Ba1  1  0.61026053  0.59496533  0.62663771  1
  Ba  Ba2  1  0.66904879  0.66920758  0.00433099  1
  Ba  Ba3  1  0.33079242  0.33095121  0.99566901  1
  Ba  Ba4  1  0.91514130  0.93102877  0.20235495  1
  Ba  Ba5  1  0.06897123  0.08485870  0.79764505  1
  Ba  Ba6  1  0.56789113  0.09839577  0.75930118  1
  Ba  Ba7  1  0.90160423  0.43210887  0.24069882  1
  Ba  Ba8  1  0.44794621  0.91616238  0.24335400  1
  Ba  Ba9  1  0.08383762  0.55205379  0.75664600  1
  Mo  Mo0  1  0.24208896  0.75791104  1.00000000  1
  P  P0  1  0.75822011  0.24177989  0.00000000  1
  N  N0  1  0.65268395  0.65380657  0.31262023  1
  N  N1  1  0.34619343  0.34731605  0.68737977  1
  N  N2  1  0.72106809  0.03324284  0.99523837  1
  N  N3  1  0.96675716  0.27893191  0.00476163  1
  N  N4  1  0.28175033  0.98522462  0.01390327  1
  N  N5  1  0.01477538  0.71824967  0.98609673  1
  N  N6  1  0.39874694  0.73439867  0.82733370  1
  N  N7  1  0.26560133  0.60125306  0.17266530  1
  N  N8  1  0.62284183  0.27125664  0.15440680  1
  N  N9  1  0.72874336  0.37715817  0.84559220  1
loop_
_geom_bond_atom_site_label_1
_geom_bond_atom_site_label_2
_geom_bond_distance
_geom_bond_site_symmetry_2
Ba0 N0 2.607063 1_555
Ba0 N7 2.749203 1_555
Ba0 N8 2.784140 1_555
Ba0 N1 2.807390 1_555
Ba1 N1 2.607063 1_555
Ba1 N6 2.749197 1_555
Ba1 N9 2.784134 1_555
Ba1 N0 2.807390 1_555
Ba2 N5 2.720779 1_654
Ba2 N0 2.842899 1_555
Ba2 N2 2.886898 1_564
Ba2 N6 3.047579 1_554
Ba2 N9 3.083423 1_554
Ba2 N8 3.112495 1_555
Ba2 N7 3.173396 1_555
Ba3 N4 2.720778 1_546
Ba3 N1 2.842899 1_555
Ba3 N3 2.886898 1_456
Ba3 N7 3.047573 1_556
Ba3 N8 3.083417 1_556
Ba3 N9 3.112497 1_555
Ba3 N6 3.173398 1_555
Ba4 N0 2.714900 1_555
Ba4 N2 2.799344 1_564
Ba4 N3 2.888162 1_565
Ba4 N5 2.974752 1_654
Ba4 N4 2.978249 1_655
Ba5 N1 2.714900 1_555
Ba5 N3 2.799344 1_456
Ba5 N2 2.888163 1_455
Ba5 N4 2.974752 1_546
Ba5 N5 2.978249 1_545
Ba6 N2 2.754292 1_555
Ba6 N4 2.783172 1_546
Ba6 N9 2.848496 1_555
Ba6 N1 2.874164 1_555
Ba6 N6 2.945758 1_545
Ba7 N3 2.754292 1_555
Ba7 N5 2.783171 1_654
Ba7 N8 2.848502 1_555
Ba7 N0 2.874164 1_555
Ba7 N7 2.945757 1_655
Ba8 N2 2.688264 1_564
Ba8 N4 2.773980 1_555
Ba8 N0 2.848136 1_555
Ba8 N8 2.878235 1_565
Ba8 N7 3.080667 1_555
Ba9 N3 2.688264 1_456
Ba9 N5 2.773980 1_555
Ba9 N1 2.848136 1_555
Ba9 N9 2.878236 1_455
Ba9 N6 3.080663 1_555
Mo0 N4 1.860886 1_556
Mo0 N5 1.860886 1_555
Mo0 N7 1.863422 1_556
Mo0 N6 1.863429 1_555
N2 P0 1.683206 1_556
N3 P0 1.683206 1_555
N8 P0 1.675562 1_555
N9 P0 1.675569 1_556
