# generated using pymatgen
data_Y16Al4CoNi3
_symmetry_space_group_name_H-M   'P 1'
_cell_length_a   9.48316926
_cell_length_b   9.48316801
_cell_length_c   9.48316892
_cell_angle_alpha   59.97120022
_cell_angle_beta   59.97120750
_cell_angle_gamma   59.97120757
_symmetry_Int_Tables_number   1
_chemical_formula_structural   Y16Al4CoNi3
_chemical_formula_sum   'Y16 Al4 Co1 Ni3'
_cell_volume   602.64528316
_cell_formula_units_Z   1
loop_
 _symmetry_equiv_pos_site_id
 _symmetry_equiv_pos_as_xyz
  1  'x, y, z'
loop_
 _atom_site_type_symbol
 _atom_site_label
 _atom_site_symmetry_multiplicity
 _atom_site_fract_x
 _atom_site_fract_y
 _atom_site_fract_z
 _atom_site_occupancy
  Y  Y0  1  0.60128427  0.60128427  0.60128427  1
  Y  Y1  1  0.59880262  0.59880262  0.20021571  1
  Y  Y2  1  0.59880262  0.20021571  0.59880262  1
  Y  Y3  1  0.20021571  0.59880262  0.59880262  1
  Y  Y4  1  0.06217549  0.44076856  0.44076856  1
  Y  Y5  1  0.44127323  0.05826848  0.05826848  1
  Y  Y6  1  0.44076856  0.06217549  0.44076856  1
  Y  Y7  1  0.05826848  0.44127323  0.05826848  1
  Y  Y8  1  0.44076856  0.44076856  0.06217549  1
  Y  Y9  1  0.05826848  0.05826848  0.44127323  1
  Y  Y10  1  0.18740893  0.81227283  0.81227283  1
  Y  Y11  1  0.81108173  0.18750576  0.18750576  1
  Y  Y12  1  0.81227283  0.18740893  0.81227283  1
  Y  Y13  1  0.18750576  0.81108173  0.18750576  1
  Y  Y14  1  0.81227283  0.81227283  0.18740893  1
  Y  Y15  1  0.18750576  0.18750576  0.81108173  1
  Al  Al0  1  0.82715185  0.82715185  0.82715185  1
  Al  Al1  1  0.82730508  0.82730508  0.51839807  1
  Al  Al2  1  0.82730508  0.51839807  0.82730508  1
  Al  Al3  1  0.51839807  0.82730508  0.82730508  1
  Co  Co0  1  0.39209115  0.39209115  0.39209115  1
  Ni  Ni0  1  0.39291906  0.39291906  0.82323679  1
  Ni  Ni1  1  0.39291906  0.82323679  0.39291906  1
  Ni  Ni2  1  0.82323679  0.39291906  0.39291906  1
loop_
_geom_bond_atom_site_label_1
_geom_bond_atom_site_label_2
_geom_bond_distance
_geom_bond_site_symmetry_2
Y0 Y12 3.420285 1_555
Y0 Y14 3.420285 1_555
Y0 Y10 3.420285 1_555
Y1 Y11 3.413085 1_555
Y1 Y13 3.413085 1_555
Y1 Y14 3.438087 1_555
Y10 Y3 3.438087 1_555
Y10 Y7 3.543778 1_556
Y10 Y9 3.543778 1_565
Y10 Y15 3.553217 1_565
Y10 Y13 3.553217 1_556
Y10 Y12 3.555931 1_465
Y10 Y14 3.555931 1_456
Y10 Y6 3.559681 1_565
Y10 Y8 3.559681 1_556
Y11 Y2 3.413085 1_555
Y11 Y6 3.520238 1_555
Y11 Y8 3.520238 1_555
Y11 Y7 3.550630 1_655
Y11 Y9 3.550630 1_655
Y11 Y14 3.553217 1_545
Y11 Y12 3.553217 1_554
Y11 Y13 3.568139 1_645
Y11 Y15 3.568139 1_654
Y12 Y2 3.438087 1_555
Y12 Y5 3.543778 1_556
Y12 Y9 3.543778 1_655
Y12 Y15 3.553217 1_655
Y12 Y14 3.555930 1_546
Y12 Y4 3.559681 1_655
Y12 Y8 3.559682 1_556
Y13 Y3 3.413085 1_555
Y13 Y4 3.520237 1_555
Y13 Y8 3.520237 1_555
Y13 Y5 3.550630 1_565
Y13 Y9 3.550630 1_565
Y13 Y14 3.553217 1_455
Y13 Y15 3.568139 1_564
Y14 Y7 3.543778 1_655
Y14 Y5 3.543778 1_565
Y14 Y4 3.559681 1_655
Y14 Y6 3.559682 1_565
Y15 Y3 3.413085 1_555
Y15 Y2 3.413085 1_555
Y15 Y4 3.520237 1_555
Y15 Y6 3.520238 1_555
Y15 Y7 3.550630 1_556
Y15 Y5 3.550630 1_556
Al0 Al2 2.926510 1_555
Al0 Al1 2.926511 1_555
Al0 Al3 2.926511 1_555
Al0 Y12 3.281226 1_565
Al0 Y14 3.281226 1_556
Al0 Y10 3.281227 1_655
Al0 Y2 3.354498 1_565
Al0 Y1 3.354498 1_556
Al0 Y3 3.354498 1_655
Al0 Y7 3.428035 1_656
Al0 Y9 3.428035 1_665
Al0 Y5 3.428036 1_566
Al1 Al2 2.928142 1_555
Al1 Al3 2.928142 1_555
Al1 Y11 3.281370 1_565
Al1 Y13 3.281371 1_655
Al1 Y14 3.287688 1_555
Al1 Y0 3.321414 1_555
Al1 Y2 3.340400 1_565
Al1 Y3 3.340400 1_655
Al1 Y9 3.424066 1_665
Al1 Y4 3.439135 1_655
Al1 Y6 3.439136 1_565
Al2 Al3 2.928142 1_555
Al2 Y11 3.281370 1_556
Al2 Y15 3.281371 1_655
Al2 Y12 3.287687 1_555
Al2 Y0 3.321414 1_555
Al2 Y3 3.340400 1_655
Al2 Y1 3.340400 1_556
Al2 Y7 3.424066 1_656
Al2 Y8 3.439136 1_556
Al2 Y4 3.439136 1_655
Al3 Y15 3.281371 1_565
Al3 Y13 3.281371 1_556
Al3 Y10 3.287688 1_555
Al3 Y0 3.321414 1_555
Al3 Y2 3.340400 1_565
Al3 Y1 3.340400 1_556
Al3 Y5 3.424066 1_566
Al3 Y8 3.439135 1_556
Al3 Y6 3.439135 1_565
Co0 Y6 2.745341 1_555
Co0 Y8 2.745341 1_555
Co0 Y4 2.745341 1_555
Co0 Y1 2.775306 1_555
Co0 Y2 2.775306 1_555
Co0 Y3 2.775306 1_555
Co0 Y13 3.413508 1_555
Co0 Y15 3.413508 1_555
Co0 Y11 3.413509 1_555
Ni0 Y5 2.781429 1_556
Ni0 Y7 2.781430 1_556
Ni0 Y8 2.794697 1_556
Ni0 Y0 2.796715 1_555
Ni0 Y3 2.800726 1_555
Ni0 Y2 2.800726 1_555
Ni0 Y10 3.414061 1_555
Ni0 Y12 3.414061 1_555
Ni0 Y15 3.442355 1_555
Ni1 Y5 2.781430 1_565
Ni1 Y9 2.781430 1_565
Ni1 Y6 2.794697 1_565
Ni1 Y0 2.796715 1_555
Ni1 Y3 2.800726 1_555
Ni1 Y1 2.800726 1_555
Ni1 Y10 3.414061 1_555
Ni1 Y14 3.414061 1_555
Ni1 Y13 3.442355 1_555
Ni2 Y9 2.781430 1_655
Ni2 Y7 2.781430 1_655
Ni2 Y4 2.794697 1_655
Ni2 Y0 2.796715 1_555
Ni2 Y2 2.800726 1_555
Ni2 Y1 2.800726 1_555
Ni2 Y14 3.414061 1_555
Ni2 Y12 3.414061 1_555
Ni2 Y11 3.442355 1_555
