# generated using pymatgen
data_Ca2FeRuO6
_symmetry_space_group_name_H-M   'P 1'
_cell_length_a   5.51592442
_cell_length_b   5.38324597
_cell_length_c   9.36818176
_cell_angle_alpha   54.91227131
_cell_angle_beta   90.00000000
_cell_angle_gamma   90.00000000
_symmetry_Int_Tables_number   1
_chemical_formula_structural   Ca2FeRuO6
_chemical_formula_sum   'Ca4 Fe2 Ru2 O12'
_cell_volume   227.62291495
_cell_formula_units_Z   2
loop_
 _symmetry_equiv_pos_site_id
 _symmetry_equiv_pos_as_xyz
  1  'x, y, z'
loop_
 _atom_site_type_symbol
 _atom_site_label
 _atom_site_symmetry_multiplicity
 _atom_site_fract_x
 _atom_site_fract_y
 _atom_site_fract_z
 _atom_site_occupancy
  Ca  Ca0  1  0.44815356  0.76198112  0.74948902  1
  Ca  Ca1  1  0.05184644  0.76198112  0.24948902  1
  Ca  Ca2  1  0.55184644  0.23801888  0.25051098  1
  Ca  Ca3  1  0.94815356  0.23801888  0.75051098  1
  Fe  Fe0  1  0.00000000  0.00000000  0.50000000  1
  Fe  Fe1  1  0.50000000  0.00000000  0.00000000  1
  Ru  Ru0  1  0.50000000  0.50000000  0.50000000  1
  Ru  Ru1  1  0.00000000  0.50000000  0.00000000  1
  O  O0  1  0.70270964  0.16331638  0.54362746  1
  O  O1  1  0.79729036  0.16331638  0.04362746  1
  O  O2  1  0.29729036  0.83668362  0.45637254  1
  O  O3  1  0.20270964  0.83668362  0.95637254  1
  O  O4  1  0.70901345  0.74477016  0.95542402  1
  O  O5  1  0.79098655  0.74477016  0.45542402  1
  O  O6  1  0.29098655  0.25522984  0.04457598  1
  O  O7  1  0.20901345  0.25522984  0.54457598  1
  O  O8  1  0.52217887  0.33678620  0.74759246  1
  O  O9  1  0.97782113  0.33678620  0.24759246  1
  O  O10  1  0.47782113  0.66321380  0.25240754  1
  O  O11  1  0.02217887  0.66321380  0.75240754  1
loop_
_geom_bond_atom_site_label_1
_geom_bond_atom_site_label_2
_geom_bond_distance
_geom_bond_site_symmetry_2
Ca0 O8 2.335164 1_555
Ca0 O0 2.359736 1_565
Ca0 O4 2.365466 1_555
Ca0 O11 2.405734 1_555
Ca0 O7 2.572059 1_565
Ca0 O3 2.578176 1_555
Ca0 O2 2.669270 1_555
Ca0 O6 2.676850 1_556
Ca1 O9 2.335164 1_455
Ca1 O1 2.359736 1_465
Ca1 O5 2.365466 1_455
Ca1 O10 2.405734 1_555
Ca1 O6 2.572059 1_565
Ca1 O2 2.578176 1_555
Ca1 O3 2.669270 1_554
Ca1 O7 2.676850 1_555
Ca2 O10 2.335164 1_555
Ca2 O2 2.359736 1_545
Ca2 O6 2.365466 1_555
Ca2 O9 2.405734 1_555
Ca2 O5 2.572059 1_545
Ca2 O1 2.578176 1_555
Ca2 O0 2.669270 1_555
Ca2 O4 2.676850 1_554
Ca3 O11 2.335164 1_655
Ca3 O3 2.359736 1_645
Ca3 O7 2.365466 1_655
Ca3 O8 2.405734 1_555
Ca3 O4 2.572059 1_545
Ca3 O0 2.578176 1_555
Ca3 O1 2.669270 1_556
Ca3 O5 2.676850 1_555
Fe0 O9 1.991144 1_455
Fe0 O11 1.991144 1_545
Fe0 O0 2.010507 1_455
Fe0 O2 2.010507 1_545
Fe0 O7 2.012705 1_555
Fe0 O5 2.012705 1_445
Fe1 O8 1.991144 1_554
Fe1 O10 1.991144 1_545
Fe1 O1 2.010507 1_555
Fe1 O3 2.010507 1_544
Fe1 O6 2.012705 1_555
Fe1 O4 2.012705 1_544
O0 Ru0 1.962297 1_555
O1 Ru1 1.962297 1_655
O2 Ru0 1.962297 1_555
O3 Ru1 1.962297 1_556
O4 Ru1 1.963219 1_656
O5 Ru0 1.963219 1_555
O6 Ru1 1.963219 1_555
O7 Ru0 1.963219 1_555
O8 Ru0 1.955512 1_555
O9 Ru1 1.955512 1_655
O10 Ru0 1.955512 1_555
O11 Ru1 1.955512 1_556
