# generated using pymatgen
data_Rb16TiSnSb8
_symmetry_space_group_name_H-M   'P 1'
_cell_length_a   11.97308621
_cell_length_b   11.97308558
_cell_length_c   11.97308601
_cell_angle_alpha   59.99999609
_cell_angle_beta   59.99999784
_cell_angle_gamma   60.00000152
_symmetry_Int_Tables_number   1
_chemical_formula_structural   Rb16TiSnSb8
_chemical_formula_sum   'Rb16 Ti1 Sn1 Sb8'
_cell_volume   1213.67745904
_cell_formula_units_Z   1
loop_
 _symmetry_equiv_pos_site_id
 _symmetry_equiv_pos_as_xyz
  1  'x, y, z'
loop_
 _atom_site_type_symbol
 _atom_site_label
 _atom_site_symmetry_multiplicity
 _atom_site_fract_x
 _atom_site_fract_y
 _atom_site_fract_z
 _atom_site_occupancy
  Rb  Rb0  1  0.62413641  0.12758878  0.62413641  1
  Rb  Rb1  1  0.62413641  0.62413641  0.12758878  1
  Rb  Rb2  1  0.12758878  0.62413641  0.62413641  1
  Rb  Rb3  1  0.62413641  0.62413641  0.62413641  1
  Rb  Rb4  1  0.02231062  0.02231062  0.47768938  1
  Rb  Rb5  1  0.77690395  0.22309605  0.22309605  1
  Rb  Rb6  1  0.22309605  0.77690395  0.77690395  1
  Rb  Rb7  1  0.77690395  0.77690395  0.22309605  1
  Rb  Rb8  1  0.77690395  0.22309605  0.77690395  1
  Rb  Rb9  1  0.22309605  0.77690395  0.22309605  1
  Rb  Rb10  1  0.47768938  0.02231062  0.47768938  1
  Rb  Rb11  1  0.47768938  0.02231062  0.02231062  1
  Rb  Rb12  1  0.02231062  0.47768938  0.47768938  1
  Rb  Rb13  1  0.02231062  0.47768938  0.02231062  1
  Rb  Rb14  1  0.22309605  0.22309605  0.77690395  1
  Rb  Rb15  1  0.47768938  0.47768938  0.02231062  1
  Ti  Ti0  1  0.75000000  0.75000000  0.75000000  1
  Sn  Sn0  1  0.50000000  0.50000000  0.50000000  1
  Sb  Sb0  1  0.39947427  0.80157618  0.39947427  1
  Sb  Sb1  1  0.84515543  0.84515543  0.46453271  1
  Sb  Sb2  1  0.46453271  0.84515543  0.84515543  1
  Sb  Sb3  1  0.84515543  0.84515543  0.84515543  1
  Sb  Sb4  1  0.80157618  0.39947427  0.39947427  1
  Sb  Sb5  1  0.39947427  0.39947427  0.39947427  1
  Sb  Sb6  1  0.39947427  0.39947427  0.80157618  1
  Sb  Sb7  1  0.84515543  0.46453271  0.84515543  1
loop_
_geom_bond_atom_site_label_1
_geom_bond_atom_site_label_2
_geom_bond_distance
_geom_bond_site_symmetry_2
Rb0 Sn0 3.640686 1_555
Rb0 Ti0 3.691302 1_545
Rb0 Sb2 3.813952 1_545
Rb0 Sb1 3.813952 1_545
Rb0 Sb3 3.813960 1_545
Rb0 Sb5 3.845881 1_555
Rb0 Sb4 3.845888 1_555
Rb0 Sb6 3.845889 1_555
Rb1 Sn0 3.640686 1_555
Rb1 Ti0 3.691302 1_554
Rb1 Sb2 3.813952 1_554
Rb1 Sb7 3.813952 1_554
Rb1 Sb3 3.813959 1_554
Rb1 Sb5 3.845881 1_555
Rb1 Sb4 3.845889 1_555
Rb1 Sb0 3.845889 1_555
Rb2 Sn0 3.640686 1_555
Rb2 Ti0 3.691302 1_455
Rb2 Sb7 3.813952 1_455
Rb2 Sb1 3.813952 1_455
Rb2 Sb3 3.813960 1_455
Rb2 Sb5 3.845881 1_555
Rb2 Sb0 3.845888 1_555
Rb2 Sb6 3.845889 1_555
Rb3 Sn0 3.640667 1_555
Rb3 Ti0 3.691321 1_555
Rb3 Sb1 3.813962 1_555
Rb3 Sb2 3.813962 1_555
Rb3 Sb7 3.813962 1_555
Rb3 Sb6 3.845879 1_555
Rb3 Sb4 3.845879 1_555
Rb3 Sb0 3.845879 1_555
Rb4 Sb3 3.766980 1_445
Rb4 Sb1 3.766987 1_445
Rb4 Sb4 3.816497 1_455
Rb4 Sb0 3.816497 1_545
Rb5 Sb4 3.835872 1_555
Rb5 Sb5 3.835879 1_555
Rb5 Sb7 3.883854 1_554
Rb5 Sb1 3.883854 1_545
Rb6 Sb0 3.835882 1_555
Rb6 Sb6 3.835882 1_555
Rb6 Sb2 3.883846 1_555
Rb6 Sb3 3.883858 1_455
Rb7 Sb4 3.835882 1_555
Rb7 Sb0 3.835882 1_555
Rb7 Sb1 3.883846 1_555
Rb7 Sb3 3.883857 1_554
Rb8 Sb4 3.835882 1_555
Rb8 Sb6 3.835882 1_555
Rb8 Sb7 3.883846 1_555
Rb8 Sb3 3.883857 1_545
Rb9 Sb0 3.835872 1_555
Rb9 Sb5 3.835879 1_555
Rb9 Sb2 3.883854 1_554
Rb9 Sb1 3.883854 1_455
Rb10 Sb2 3.766977 1_545
Rb10 Sb1 3.766977 1_545
Rb10 Sb5 3.816494 1_555
Rb10 Sb0 3.816505 1_545
Rb11 Sb3 3.766980 1_544
Rb11 Sb2 3.766987 1_544
Rb11 Sb0 3.816496 1_545
Rb11 Sb6 3.816496 1_554
Rb12 Sb7 3.766977 1_455
Rb12 Sb1 3.766977 1_455
Rb12 Sb5 3.816494 1_555
Rb12 Sb4 3.816505 1_455
Rb13 Sb3 3.766980 1_454
Rb13 Sb7 3.766987 1_454
Rb13 Sb4 3.816497 1_455
Rb13 Sb6 3.816497 1_554
Rb14 Sb6 3.835872 1_555
Rb14 Sb5 3.835879 1_555
Rb14 Sb2 3.883854 1_545
Rb14 Sb7 3.883854 1_455
Rb15 Sb2 3.766977 1_554
Rb15 Sb7 3.766977 1_554
Rb15 Sb5 3.816494 1_555
Rb15 Sb6 3.816505 1_554
Sb0 Sn0 2.948204 1_555
Sb1 Ti0 2.790723 1_555
Sb2 Ti0 2.790724 1_555
Sb3 Ti0 2.790714 1_555
Sb4 Sn0 2.948204 1_555
Sb5 Sn0 2.948214 1_555
Sb6 Sn0 2.948204 1_555
Sb7 Ti0 2.790723 1_555
