# generated using pymatgen
data_Cs2CdInSb2
_symmetry_space_group_name_H-M   'P 1'
_cell_length_a   11.33578410
_cell_length_b   11.33578402
_cell_length_c   7.42366638
_cell_angle_alpha   90.00000000
_cell_angle_beta   90.00000000
_cell_angle_gamma   98.57574689
_symmetry_Int_Tables_number   1
_chemical_formula_structural   Cs2CdInSb2
_chemical_formula_sum   'Cs8 Cd4 In4 Sb8'
_cell_volume   943.27567882
_cell_formula_units_Z   4
loop_
 _symmetry_equiv_pos_site_id
 _symmetry_equiv_pos_as_xyz
  1  'x, y, z'
loop_
 _atom_site_type_symbol
 _atom_site_label
 _atom_site_symmetry_multiplicity
 _atom_site_fract_x
 _atom_site_fract_y
 _atom_site_fract_z
 _atom_site_occupancy
  Cs  Cs0  1  0.08149501  0.41850499  0.25000000  1
  Cs  Cs1  1  0.41850499  0.08149501  0.75000000  1
  Cs  Cs2  1  0.91850499  0.58149501  0.75000000  1
  Cs  Cs3  1  0.58149501  0.91850499  0.25000000  1
  Cs  Cs4  1  0.66841726  0.33158274  0.24867534  1
  Cs  Cs5  1  0.83158274  0.16841726  0.74867534  1
  Cs  Cs6  1  0.33158274  0.66841726  0.75132466  1
  Cs  Cs7  1  0.16841726  0.83158274  0.25132466  1
  Cd  Cd0  1  0.37451093  0.37451093  0.00000000  1
  Cd  Cd1  1  0.12548907  0.12548907  0.50000000  1
  Cd  Cd2  1  0.62548907  0.62548907  0.00000000  1
  Cd  Cd3  1  0.87451093  0.87451093  0.50000000  1
  In  In0  1  0.12407760  0.12407760  0.00000000  1
  In  In1  1  0.37592240  0.37592240  0.50000000  1
  In  In2  1  0.87592240  0.87592240  0.00000000  1
  In  In3  1  0.62407760  0.62407760  0.50000000  1
  Sb  Sb0  1  0.83810044  0.66189856  0.25000000  1
  Sb  Sb1  1  0.66189856  0.83810044  0.75000000  1
  Sb  Sb2  1  0.16189856  0.33810044  0.75000000  1
  Sb  Sb3  1  0.33810044  0.16189856  0.25000000  1
  Sb  Sb4  1  0.91092463  0.08907537  0.25615775  1
  Sb  Sb5  1  0.58907537  0.41092463  0.75615775  1
  Sb  Sb6  1  0.08907537  0.91092463  0.74384225  1
  Sb  Sb7  1  0.41092463  0.58907537  0.24384225  1
loop_
_geom_bond_atom_site_label_1
_geom_bond_atom_site_label_2
_geom_bond_distance
_geom_bond_site_symmetry_2
Cs0 In0 3.911170 1_555
Cs0 In1 3.911170 1_555
Cs0 Sb4 3.941144 1_455
Cs0 Sb7 3.941144 1_555
Cs0 Sb2 3.960671 1_555
Cs0 Sb2 3.960671 1_554
Cs0 Sb0 4.182719 1_455
Cs1 In1 3.911170 1_555
Cs1 In0 3.911170 1_556
Cs1 Sb5 3.941144 1_555
Cs1 Sb6 3.941144 1_545
Cs1 Sb3 3.960671 1_555
Cs1 Sb3 3.960671 1_556
Cs1 Sb1 4.182719 1_545
Cs2 In2 3.911170 1_556
Cs2 In3 3.911170 1_555
Cs2 Sb6 3.941144 1_655
Cs2 Sb5 3.941144 1_555
Cs2 Sb0 3.960671 1_556
Cs2 Sb0 3.960671 1_555
Cs2 Sb2 4.182719 1_655
Cs3 In3 3.911170 1_555
Cs3 In2 3.911170 1_555
Cs3 Sb7 3.941144 1_555
Cs3 Sb4 3.941144 1_565
Cs3 Sb1 3.960671 1_554
Cs3 Sb1 3.960671 1_555
Cs3 Sb3 4.182719 1_565
Cs4 In3 3.901828 1_555
Cs4 In1 3.901828 1_555
Cs4 Sb5 3.902247 1_554
Cs4 Sb0 3.946188 1_555
Cs4 Sb3 3.946202 1_555
Cs4 Sb5 4.006526 1_555
Cs4 Sb4 4.167851 1_555
Cs5 In2 3.901828 1_546
Cs5 In0 3.901828 1_656
Cs5 Sb4 3.902247 1_555
Cs5 Sb2 3.946188 1_655
Cs5 Sb1 3.946202 1_545
Cs5 Sb4 4.006526 1_556
Cs5 Sb5 4.167851 1_555
Cs6 In1 3.901828 1_555
Cs6 In3 3.901828 1_555
Cs6 Sb7 3.902247 1_556
Cs6 Sb1 3.946188 1_555
Cs6 Sb2 3.946202 1_555
Cs6 Sb7 4.006526 1_555
Cs6 Sb6 4.167851 1_555
Cs7 In0 3.901828 1_565
Cs7 In2 3.901828 1_455
Cs7 Sb6 3.902247 1_555
Cs7 Sb3 3.946188 1_565
Cs7 Sb0 3.946202 1_455
Cs7 Sb6 4.006526 1_554
Cs7 Sb7 4.167851 1_555
Cd0 Sb7 3.010593 1_555
Cd0 Sb5 3.010593 1_554
Cd0 Sb3 3.021064 1_555
Cd0 Sb2 3.021064 1_554
Cd0 Cs1 3.901276 1_554
Cd0 Cs0 3.901276 1_555
Cd0 Cs6 3.902344 1_554
Cd0 Cs4 3.902344 1_555
Cd1 Sb6 3.010593 1_545
Cd1 Sb4 3.010593 1_455
Cd1 Sb2 3.021055 1_555
Cd1 Sb3 3.021055 1_555
Cd1 Cs0 3.901276 1_555
Cd1 Cs1 3.901276 1_555
Cd1 Cs7 3.902344 1_545
Cd1 Cs5 3.902344 1_455
Cd2 Sb5 3.010593 1_554
Cd2 Sb7 3.010593 1_555
Cd2 Sb1 3.021055 1_554
Cd2 Sb0 3.021055 1_555
Cd2 Cs3 3.901276 1_555
Cd2 Cs2 3.901276 1_554
Cd2 Cs4 3.902344 1_555
Cd2 Cs6 3.902344 1_554
Cd3 Sb4 3.010593 1_565
Cd3 Sb6 3.010593 1_655
Cd3 Sb0 3.021064 1_555
Cd3 Sb1 3.021064 1_555
Cd3 Cs2 3.901276 1_555
Cd3 Cs3 3.901276 1_555
Cd3 Cs5 3.902344 1_565
Cd3 Cs7 3.902344 1_655
In0 Sb2 3.033821 1_554
In0 Sb3 3.033821 1_555
In0 Sb6 3.053850 1_544
In0 Sb4 3.053850 1_455
In1 Sb3 3.033830 1_555
In1 Sb2 3.033830 1_555
In1 Sb7 3.053850 1_555
In1 Sb5 3.053850 1_555
In2 Sb0 3.033830 1_555
In2 Sb1 3.033830 1_554
In2 Sb4 3.053850 1_565
In2 Sb6 3.053850 1_654
In3 Sb1 3.033821 1_555
In3 Sb0 3.033821 1_555
In3 Sb5 3.053850 1_555
In3 Sb7 3.053850 1_555
