# generated using pymatgen
data_TmMn2
_symmetry_space_group_name_H-M   'P 1'
_cell_length_a   5.60805222
_cell_length_b   5.60804636
_cell_length_c   8.72395300
_cell_angle_alpha   89.99999657
_cell_angle_beta   89.99999955
_cell_angle_gamma   119.99870196
_symmetry_Int_Tables_number   1
_chemical_formula_structural   TmMn2
_chemical_formula_sum   'Tm4 Mn8'
_cell_volume   237.61468270
_cell_formula_units_Z   4
loop_
 _symmetry_equiv_pos_site_id
 _symmetry_equiv_pos_as_xyz
  1  'x, y, z'
loop_
 _atom_site_type_symbol
 _atom_site_label
 _atom_site_symmetry_multiplicity
 _atom_site_fract_x
 _atom_site_fract_y
 _atom_site_fract_z
 _atom_site_occupancy
  Tm  Tm0  1  0.33333410  0.66667094  0.05940088  1
  Tm  Tm1  1  0.66666587  0.33333113  0.55942636  1
  Tm  Tm2  1  0.66666603  0.33333075  0.94054408  1
  Tm  Tm3  1  0.33333450  0.66667071  0.44062752  1
  Mn  Mn0  1  -0.00000020  -0.00000183  -0.00006312  1
  Mn  Mn1  1  -0.00000003  -0.00000136  0.50006431  1
  Mn  Mn2  1  0.82737004  0.65475442  0.25005212  1
  Mn  Mn3  1  0.17262657  0.82737309  0.74994807  1
  Mn  Mn4  1  0.65473329  0.82735852  0.74994833  1
  Mn  Mn5  1  0.34524449  0.17262993  0.25005149  1
  Mn  Mn6  1  0.82738572  0.17261774  0.25005208  1
  Mn  Mn7  1  0.17263962  0.34526597  0.74994788  1
loop_
_geom_bond_atom_site_label_1
_geom_bond_atom_site_label_2
_geom_bond_distance
_geom_bond_site_symmetry_2
Tm0 Tm3 3.325803 1_555
Tm0 Tm2 3.399795 1_554
Tm0 Tm2 3.399797 1_564
Tm0 Tm2 3.399838 1_454
Tm1 Tm2 3.324853 1_555
Tm1 Tm3 3.399635 1_555
Tm1 Tm3 3.399645 1_545
Tm1 Tm3 3.399686 1_655
Mn0 Mn3 2.750976 1_544
Mn0 Mn4 2.751038 1_444
Mn0 Mn7 2.751044 1_554
Mn0 Mn6 2.751796 1_455
Mn0 Mn5 2.751846 1_555
Mn0 Mn2 2.751846 1_445
Mn0 Tm2 3.278983 1_454
Mn0 Tm2 3.279047 1_554
Mn0 Tm2 3.279049 1_444
Mn0 Tm0 3.279058 1_545
Mn0 Tm0 3.279142 1_445
Mn0 Tm0 3.279173 1_555
Mn1 Mn3 2.750250 1_545
Mn1 Mn7 2.750314 1_555
Mn1 Mn4 2.750316 1_445
Mn1 Mn6 2.751083 1_455
Mn1 Mn2 2.751135 1_445
Mn1 Mn5 2.751141 1_555
Mn1 Tm1 3.278941 1_455
Mn1 Tm1 3.279003 1_555
Mn1 Tm1 3.279007 1_445
Mn1 Tm3 3.279025 1_545
Mn1 Tm3 3.279104 1_445
Mn1 Tm3 3.279132 1_555
Mn2 Mn5 2.703834 1_555
Mn2 Mn6 2.703889 1_555
Mn2 Mn6 2.904158 1_565
Mn2 Mn5 2.904325 1_665
Mn2 Tm1 3.117914 1_555
Mn2 Tm2 3.118926 1_554
Mn2 Tm3 3.260345 1_555
Mn2 Tm3 3.260408 1_655
Mn2 Tm0 3.260685 1_555
Mn2 Tm0 3.260743 1_655
Mn3 Mn7 2.703716 1_555
Mn3 Mn4 2.703721 1_555
Mn3 Mn7 2.904331 1_565
Mn3 Mn4 2.904332 1_455
Mn3 Tm3 3.117463 1_555
Mn3 Tm0 3.118460 1_556
Mn3 Tm1 3.260177 1_565
Mn3 Tm1 3.260190 1_455
Mn3 Tm2 3.260507 1_565
Mn3 Tm2 3.260521 1_455
Mn4 Mn7 2.703655 1_555
Mn4 Mn7 2.904504 1_665
Mn4 Tm3 3.117452 1_555
Mn4 Tm0 3.118448 1_556
Mn4 Tm1 3.260106 1_555
Mn4 Tm1 3.260169 1_565
Mn4 Tm2 3.260436 1_555
Mn4 Tm2 3.260495 1_565
Mn5 Mn6 2.703907 1_555
Mn5 Mn6 2.904145 1_455
Mn5 Tm1 3.117916 1_555
Mn5 Tm2 3.118917 1_554
Mn5 Tm3 3.260355 1_555
Mn5 Tm3 3.260397 1_545
Mn5 Tm0 3.260688 1_555
Mn5 Tm0 3.260727 1_545
Mn6 Tm1 3.117924 1_555
Mn6 Tm2 3.118933 1_554
Mn6 Tm3 3.260416 1_545
Mn6 Tm3 3.260425 1_655
Mn6 Tm0 3.260754 1_545
Mn6 Tm0 3.260762 1_655
Mn7 Tm3 3.117462 1_555
Mn7 Tm0 3.118465 1_556
Mn7 Tm1 3.260107 1_555
Mn7 Tm1 3.260170 1_455
Mn7 Tm2 3.260440 1_555
Mn7 Tm2 3.260500 1_455
