# generated using pymatgen
data_Zr2AlVTc2
_symmetry_space_group_name_H-M   'P 1'
_cell_length_a   5.11364514
_cell_length_b   5.33413896
_cell_length_c   5.11364657
_cell_angle_alpha   61.07949317
_cell_angle_beta   60.77263062
_cell_angle_gamma   61.07947843
_symmetry_Int_Tables_number   1
_chemical_formula_structural   Zr2AlVTc2
_chemical_formula_sum   'Zr2 Al1 V1 Tc2'
_cell_volume   100.79981247
_cell_formula_units_Z   1
loop_
 _symmetry_equiv_pos_site_id
 _symmetry_equiv_pos_as_xyz
  1  'x, y, z'
loop_
 _atom_site_type_symbol
 _atom_site_label
 _atom_site_symmetry_multiplicity
 _atom_site_fract_x
 _atom_site_fract_y
 _atom_site_fract_z
 _atom_site_occupancy
  Zr  Zr0  1  0.62182264  0.63431495  0.62182264  1
  Zr  Zr1  1  0.37817736  0.36568505  0.37817736  1
  Al  Al0  1  0.00000000  0.50000000  0.00000000  1
  V  V0  1  0.00000000  0.00000000  0.00000000  1
  Tc  Tc0  1  0.50000000  0.00000000  0.00000000  1
  Tc  Tc1  1  0.00000000  0.00000000  0.50000000  1
loop_
_geom_bond_atom_site_label_1
_geom_bond_atom_site_label_2
_geom_bond_distance
_geom_bond_site_symmetry_2
Zr0 Zr1 3.182322 1_555
Zr0 Zr1 3.197721 1_655
Zr0 Zr1 3.197723 1_556
Zr0 Zr1 3.230765 1_565
Al0 Tc0 2.656145 1_555
Al0 Tc0 2.656145 1_465
Al0 Tc1 2.656146 1_564
Al0 Tc1 2.656146 1_555
Al0 V0 2.667069 1_565
Al0 V0 2.667069 1_555
Al0 Zr1 2.994158 1_555
Al0 Zr0 2.994158 1_454
Al0 Zr1 3.036843 1_455
Al0 Zr0 3.036843 1_554
Al0 Zr0 3.036843 1_455
Al0 Zr1 3.036843 1_554
V0 Zr1 3.049604 1_455
V0 Zr0 3.049604 1_544
V0 Zr0 3.049604 1_445
V0 Zr1 3.049604 1_554
V0 Zr1 3.150054 1_545
V0 Zr0 3.150054 1_454
Tc0 V0 2.556823 1_555
Tc0 V0 2.556823 1_655
Tc0 Tc1 2.586624 1_555
Tc0 Tc1 2.586624 1_654
Tc0 Zr0 3.010663 1_545
Tc0 Zr1 3.010663 1_554
Tc0 Zr1 3.038013 1_555
Tc0 Zr0 3.038013 1_544
Tc0 Zr1 3.179577 1_545
Tc0 Zr0 3.179577 1_554
Tc1 V0 2.556823 1_556
Tc1 V0 2.556823 1_555
Tc1 Zr0 3.010662 1_545
Tc1 Zr1 3.010662 1_455
Tc1 Zr1 3.038013 1_555
Tc1 Zr0 3.038013 1_445
Tc1 Zr0 3.179577 1_455
Tc1 Zr1 3.179577 1_545
