# generated using pymatgen
data_Be6V4GeP
_symmetry_space_group_name_H-M   'P 1'
_cell_length_a   4.35984182
_cell_length_b   4.35984196
_cell_length_c   7.37682154
_cell_angle_alpha   90.00000000
_cell_angle_beta   90.00000000
_cell_angle_gamma   120.00000643
_symmetry_Int_Tables_number   1
_chemical_formula_structural   Be6V4GeP
_chemical_formula_sum   'Be6 V4 Ge1 P1'
_cell_volume   121.43429620
_cell_formula_units_Z   1
loop_
 _symmetry_equiv_pos_site_id
 _symmetry_equiv_pos_as_xyz
  1  'x, y, z'
loop_
 _atom_site_type_symbol
 _atom_site_label
 _atom_site_symmetry_multiplicity
 _atom_site_fract_x
 _atom_site_fract_y
 _atom_site_fract_z
 _atom_site_occupancy
  Be  Be0  1  0.82526709  0.65053318  0.24501325  1
  Be  Be1  1  0.17473291  0.82526709  0.75498675  1
  Be  Be2  1  0.65053318  0.82526709  0.75498675  1
  Be  Be3  1  0.34946682  0.17473291  0.24501325  1
  Be  Be4  1  0.82526709  0.17473291  0.24501325  1
  Be  Be5  1  0.17473291  0.34946682  0.75498675  1
  V  V0  1  0.33333300  0.66666700  0.06164619  1
  V  V1  1  0.66666700  0.33333300  0.56473163  1
  V  V2  1  0.66666700  0.33333300  0.93835381  1
  V  V3  1  0.33333300  0.66666700  0.43526837  1
  Ge  Ge0  1  0.00000000  0.00000000  0.50000000  1
  P  P0  1  0.00000000  0.00000000  0.00000000  1
loop_
_geom_bond_atom_site_label_1
_geom_bond_atom_site_label_2
_geom_bond_distance
_geom_bond_site_symmetry_2
Be0 Be3 2.074414 1_555
Be0 Be4 2.074414 1_555
Be0 P0 2.237817 1_665
Be0 Be3 2.285428 1_665
Be0 Be4 2.285428 1_565
Be0 Ge0 2.297650 1_665
Be0 V2 2.559652 1_554
Be0 V0 2.566214 1_655
Be0 V0 2.566221 1_555
Be0 V3 2.593356 1_655
Be0 V3 2.593364 1_555
Be0 V1 2.645174 1_555
Be1 Be2 2.074414 1_555
Be1 Be5 2.074414 1_555
Be1 P0 2.237815 1_566
Be1 Be2 2.285428 1_455
Be1 Be5 2.285428 1_565
Be1 Ge0 2.297647 1_565
Be1 V0 2.559652 1_556
Be1 V2 2.566217 1_455
Be1 V2 2.566217 1_565
Be1 V1 2.593360 1_455
Be1 V1 2.593360 1_565
Be1 V3 2.645174 1_555
Be2 Be5 2.074414 1_555
Be2 P0 2.237817 1_666
Be2 Be5 2.285428 1_665
Be2 Ge0 2.297650 1_665
Be2 V0 2.559652 1_556
Be2 V2 2.566214 1_565
Be2 V2 2.566221 1_555
Be2 V1 2.593357 1_565
Be2 V1 2.593364 1_555
Be2 V3 2.645174 1_555
Be3 Be4 2.074414 1_555
Be3 P0 2.237817 1_555
Be3 Be4 2.285428 1_455
Be3 Ge0 2.297650 1_555
Be3 V2 2.559652 1_554
Be3 V0 2.566214 1_545
Be3 V0 2.566221 1_555
Be3 V3 2.593357 1_545
Be3 V3 2.593364 1_555
Be3 V1 2.645174 1_555
Be4 P0 2.237815 1_655
Be4 Ge0 2.297647 1_655
Be4 V2 2.559652 1_554
Be4 V0 2.566217 1_655
Be4 V0 2.566217 1_545
Be4 V3 2.593360 1_655
Be4 V3 2.593360 1_545
Be4 V1 2.645174 1_555
Be5 P0 2.237817 1_556
Be5 Ge0 2.297650 1_555
Be5 V0 2.559652 1_556
Be5 V2 2.566214 1_455
Be5 V2 2.566221 1_555
Be5 V1 2.593356 1_455
Be5 V1 2.593364 1_555
Be5 V3 2.645174 1_555
V0 V2 2.676427 1_454
V0 V2 2.676427 1_564
V0 V2 2.676434 1_554
V0 V3 2.756144 1_555
V1 V3 2.692236 1_655
V1 V3 2.692237 1_545
V1 V3 2.692244 1_555
V1 V2 2.756144 1_555
Ge0 V3 2.562046 1_545
Ge0 V1 2.562046 1_455
Ge0 V1 2.562050 1_555
Ge0 V3 2.562050 1_445
Ge0 V3 2.562050 1_555
Ge0 V1 2.562050 1_445
P0 V0 2.557902 1_545
P0 V2 2.557902 1_454
P0 V2 2.557905 1_554
P0 V0 2.557905 1_445
P0 V0 2.557905 1_555
P0 V2 2.557905 1_444
