# generated using pymatgen
data_Ni3Ag4SeO8
_symmetry_space_group_name_H-M   'P 1'
_cell_length_a   5.14863675
_cell_length_b   5.99500821
_cell_length_c   7.11711606
_cell_angle_alpha   65.04525736
_cell_angle_beta   104.47022520
_cell_angle_gamma   89.99609441
_symmetry_Int_Tables_number   1
_chemical_formula_structural   Ni3Ag4SeO8
_chemical_formula_sum   'Ni3 Ag4 Se1 O8'
_cell_volume   191.45337664
_cell_formula_units_Z   1
loop_
 _symmetry_equiv_pos_site_id
 _symmetry_equiv_pos_as_xyz
  1  'x, y, z'
loop_
 _atom_site_type_symbol
 _atom_site_label
 _atom_site_symmetry_multiplicity
 _atom_site_fract_x
 _atom_site_fract_y
 _atom_site_fract_z
 _atom_site_occupancy
  Ni  Ni0  1  0.00004551  0.00448027  0.50003246  1
  Ni  Ni1  1  0.49999950  0.25001293  0.50000205  1
  Ni  Ni2  1  0.99999451  0.49553674  0.49996267  1
  Ag  Ag0  1  0.01018053  0.00163533  0.99662936  1
  Ag  Ag1  1  0.49998906  0.24998680  0.00001032  1
  Ag  Ag2  1  0.98979401  0.49836463  0.00335697  1
  Ag  Ag3  1  0.49998712  0.75000030  0.00000195  1
  Se  Se0  1  0.50004986  0.75004604  0.49995529  1
  O  O0  1  0.85738222  0.66980710  0.66002019  1
  O  O1  1  0.40367026  0.89478112  0.65929895  1
  O  O2  1  0.88959720  0.16665616  0.66648333  1
  O  O3  1  0.40361312  0.44568009  0.65931579  1
  O  O4  1  0.14260822  0.83017228  0.33999836  1
  O  O5  1  0.59637510  0.05429076  0.34070075  1
  O  O6  1  0.11039626  0.33335152  0.33351214  1
  O  O7  1  0.59632052  0.60519893  0.34072042  1
loop_
_geom_bond_atom_site_label_1
_geom_bond_atom_site_label_2
_geom_bond_distance
_geom_bond_site_symmetry_2
Ni0 O6 1.994877 1_555
Ni0 O2 1.995116 1_455
Ni0 O1 2.056579 1_545
Ni0 O5 2.056937 1_455
Ni0 O4 2.085670 1_545
Ni0 O0 2.086150 1_445
Ni1 O2 1.997429 1_555
Ni1 O6 1.997468 1_555
Ni1 O7 2.075911 1_555
Ni1 O1 2.076164 1_545
Ni1 O3 2.076369 1_555
Ni1 O5 2.076536 1_555
Ni2 O2 1.995023 1_555
Ni2 O6 1.995052 1_655
Ni2 O3 2.056717 1_655
Ni2 O7 2.056753 1_555
Ni2 O0 2.085771 1_555
Ni2 O4 2.085822 1_655
Ag0 O2 2.048075 1_455
Ag0 O4 2.131005 1_546
Ag1 O5 2.121368 1_555
Ag1 O3 2.121395 1_554
Ag2 O6 2.048133 1_655
Ag2 O0 2.130804 1_554
Ag3 O1 2.121821 1_554
Ag3 O7 2.121908 1_555
O0 Se0 1.844994 1_555
O1 Se0 1.843021 1_555
O3 Se0 1.843268 1_555
O4 Se0 1.845270 1_555
O5 Se0 1.842295 1_545
O7 Se0 1.842592 1_555
