# generated using pymatgen
data_Cs6ScInAs4
_symmetry_space_group_name_H-M   'P 1'
_cell_length_a   9.78894892
_cell_length_b   9.78828836
_cell_length_c   9.78894828
_cell_angle_alpha   127.84832328
_cell_angle_beta   69.38017482
_cell_angle_gamma   137.61939355
_symmetry_Int_Tables_number   1
_chemical_formula_structural   Cs6ScInAs4
_chemical_formula_sum   'Cs6 Sc1 In1 As4'
_cell_volume   490.14631970
_cell_formula_units_Z   1
loop_
 _symmetry_equiv_pos_site_id
 _symmetry_equiv_pos_as_xyz
  1  'x, y, z'
loop_
 _atom_site_type_symbol
 _atom_site_label
 _atom_site_symmetry_multiplicity
 _atom_site_fract_x
 _atom_site_fract_y
 _atom_site_fract_z
 _atom_site_occupancy
  Cs  Cs0  1  0.32859946  0.72306860  0.03160218  1
  Cs  Cs1  1  0.17136751  0.20293424  0.39440911  1
  Cs  Cs2  1  0.75003030  0.25000000  0.50003030  1
  Cs  Cs3  1  0.25000983  0.74999900  0.50000983  1
  Cs  Cs4  1  0.80853258  0.77692940  0.60552986  1
  Cs  Cs5  1  0.69147487  0.29706576  0.96843327  1
  Sc  Sc0  1  0.24998021  0.25000000  0.99998021  1
  In  In0  1  0.74999820  0.75000100  0.99999720  1
  As  As0  1  0.91377679  0.17759230  0.08325964  1
  As  As1  1  0.58628290  0.66954280  0.26382181  1
  As  As2  1  0.40566734  0.32240770  0.73618649  1
  As  As3  1  0.09427901  0.83045620  0.91673910  1
loop_
_geom_bond_atom_site_label_1
_geom_bond_atom_site_label_2
_geom_bond_distance
_geom_bond_site_symmetry_2
As0 Sc0 2.715036 1_654
As0 In0 2.751907 1_544
As0 Cs3 3.609965 1_655
As0 Cs4 3.637231 1_544
As0 Cs2 3.638693 1_555
As0 Cs5 3.802887 1_554
As0 Cs0 3.806706 1_545
As0 Cs0 3.884421 1_655
As1 Sc0 2.715269 1_554
As1 In0 2.752157 1_554
As1 Cs3 3.610601 1_555
As1 Cs5 3.636806 1_554
As1 Cs2 3.637514 1_565
As1 Cs4 3.802542 1_555
As1 Cs1 3.805936 1_665
As1 Cs1 3.884928 1_555
As2 Sc0 2.715018 1_555
As2 In0 2.751908 1_555
As2 Cs3 3.609972 1_545
As2 Cs0 3.637222 1_556
As2 Cs2 3.638697 1_555
As2 Cs1 3.802905 1_555
As2 Cs4 3.806713 1_555
As2 Cs4 3.884429 1_445
As3 Sc0 2.715274 1_565
As3 In0 2.752153 1_455
As3 Cs3 3.610597 1_555
As3 Cs1 3.636813 1_566
As3 Cs2 3.637507 1_455
As3 Cs0 3.802542 1_556
As3 Cs5 3.805935 1_455
As3 Cs5 3.884927 1_565
