# generated using pymatgen
data_NaCa3(NiH4)3
_symmetry_space_group_name_H-M   'P 1'
_cell_length_a   6.02092236
_cell_length_b   6.04534103
_cell_length_c   6.04534157
_cell_angle_alpha   109.55289137
_cell_angle_beta   109.38942983
_cell_angle_gamma   109.38941686
_symmetry_Int_Tables_number   1
_chemical_formula_structural   NaCa3(NiH4)3
_chemical_formula_sum   'Na1 Ca3 Ni3 H12'
_cell_volume   169.55875490
_cell_formula_units_Z   1
loop_
 _symmetry_equiv_pos_site_id
 _symmetry_equiv_pos_as_xyz
  1  'x, y, z'
loop_
 _atom_site_type_symbol
 _atom_site_label
 _atom_site_symmetry_multiplicity
 _atom_site_fract_x
 _atom_site_fract_y
 _atom_site_fract_z
 _atom_site_occupancy
  Na  Na0  1  0.50000000  0.00000000  0.00000000  1
  Ca  Ca0  1  0.00000000  0.00000000  0.50000000  1
  Ca  Ca1  1  0.00000000  0.50000000  0.00000000  1
  Ca  Ca2  1  0.50000000  0.50000000  0.50000000  1
  Ni  Ni0  1  0.00000000  0.50000000  0.50000000  1
  Ni  Ni1  1  0.50000000  0.50000000  0.00000000  1
  Ni  Ni2  1  0.50000000  0.00000000  0.50000000  1
  H  H0  1  0.72945644  0.72040159  0.00000000  1
  H  H1  1  0.27054356  1.00000000  0.27959841  1
  H  H2  1  0.00905485  0.27959841  0.27959841  1
  H  H3  1  0.27054356  0.27959841  1.00000000  1
  H  H4  1  0.72945644  0.00000000  0.72040159  1
  H  H5  1  0.99094515  0.72040159  0.72040159  1
  H  H6  1  0.75081218  0.25081218  0.50162337  1
  H  H7  1  0.75081218  0.50162337  0.25081218  1
  H  H8  1  0.50000000  0.25081218  0.74918782  1
  H  H9  1  0.24918782  0.49837663  0.74918782  1
  H  H10  1  0.24918782  0.74918782  0.49837663  1
  H  H11  1  0.50000000  0.74918782  0.25081218  1
loop_
_geom_bond_atom_site_label_1
_geom_bond_atom_site_label_2
_geom_bond_distance
_geom_bond_site_symmetry_2
Ca0 H1 2.422759 1_545
Ca0 H4 2.422759 1_455
Ca0 H9 2.461227 1_555
Ca0 H7 2.461227 1_445
Ca0 H8 2.461787 1_555
Ca0 H11 2.461787 1_445
Ca0 H10 2.461787 1_545
Ca0 H6 2.461787 1_455
Ca0 H5 2.475840 1_445
Ca0 H2 2.475840 1_555
Ca0 H3 2.475840 1_555
Ca0 H0 2.475840 1_445
Ca1 H3 2.422758 1_554
Ca1 H0 2.422758 1_455
Ca1 H10 2.461227 1_555
Ca1 H6 2.461227 1_454
Ca1 H11 2.461787 1_555
Ca1 H8 2.461787 1_454
Ca1 H9 2.461788 1_554
Ca1 H7 2.461788 1_455
Ca1 H2 2.475840 1_555
Ca1 H5 2.475840 1_454
Ca1 H1 2.475840 1_555
Ca1 H4 2.475840 1_454
Ca2 H2 2.422758 1_555
Ca2 H5 2.422758 1_555
Ca2 H11 2.461221 1_555
Ca2 H8 2.461221 1_555
Ca2 H6 2.461787 1_555
Ca2 H10 2.461787 1_555
Ca2 H7 2.461788 1_555
Ca2 H9 2.461788 1_555
Ca2 H1 2.475840 1_545
Ca2 H4 2.475840 1_565
Ca2 H0 2.475840 1_556
Ca2 H3 2.475840 1_554
H0 Ni1 1.568989 1_555
H0 Na0 2.513195 1_565
H1 Ni2 1.568989 1_565
H1 Na0 2.513195 1_565
H2 Ni0 1.568989 1_555
H2 Na0 2.513195 1_455
H3 Ni1 1.568989 1_556
H3 Na0 2.513195 1_556
H4 Ni2 1.568989 1_555
H4 Na0 2.513195 1_556
H5 Ni0 1.568989 1_655
H5 Na0 2.513195 1_666
H6 Ni0 1.743395 1_655
H6 Ni2 1.743402 1_555
H6 Na0 2.477261 1_555
H7 Ni0 1.743395 1_655
H7 Ni1 1.743402 1_555
H7 Na0 2.477260 1_555
H8 Ni2 1.743399 1_555
H8 Ni1 1.743399 1_556
H8 Na0 2.477265 1_556
H9 Ni0 1.743395 1_555
H9 Ni1 1.743402 1_556
H9 Na0 2.477260 1_566
H10 Ni0 1.743395 1_555
H10 Ni2 1.743402 1_565
H10 Na0 2.477261 1_566
H11 Ni2 1.743399 1_565
H11 Ni1 1.743399 1_555
H11 Na0 2.477265 1_565
