# generated using pymatgen
data_Rb4Mg(PS4)2
_symmetry_space_group_name_H-M   'P 1'
_cell_length_a   9.05186044
_cell_length_b   9.12459687
_cell_length_c   11.03562429
_cell_angle_alpha   105.21744722
_cell_angle_beta   104.27572452
_cell_angle_gamma   92.31434966
_symmetry_Int_Tables_number   1
_chemical_formula_structural   Rb4Mg(PS4)2
_chemical_formula_sum   'Rb8 Mg2 P4 S16'
_cell_volume   846.96249038
_cell_formula_units_Z   2
loop_
 _symmetry_equiv_pos_site_id
 _symmetry_equiv_pos_as_xyz
  1  'x, y, z'
loop_
 _atom_site_type_symbol
 _atom_site_label
 _atom_site_symmetry_multiplicity
 _atom_site_fract_x
 _atom_site_fract_y
 _atom_site_fract_z
 _atom_site_occupancy
  Rb  Rb0  1  0.43030439  0.51882062  0.74731267  1
  Rb  Rb1  1  0.56969561  0.48117938  0.25268733  1
  Rb  Rb2  1  0.26279461  0.98437947  0.95925709  1
  Rb  Rb3  1  0.73720539  0.01562053  0.04074291  1
  Rb  Rb4  1  0.09803300  0.74061326  0.51598594  1
  Rb  Rb5  1  0.90196700  0.25938674  0.48401406  1
  Rb  Rb6  1  0.87937892  0.31725368  0.88532572  1
  Rb  Rb7  1  0.12062108  0.68274632  0.11467428  1
  Mg  Mg0  1  0.64832779  0.86590668  0.57614400  1
  Mg  Mg1  1  0.35167221  0.13409332  0.42385600  1
  P  P0  1  0.45155254  0.11064516  0.72571203  1
  P  P1  1  0.54844746  0.88935484  0.27428797  1
  P  P2  1  0.86568664  0.68643926  0.75409409  1
  P  P3  1  0.13431336  0.31356074  0.24590591  1
  S  S0  1  0.50637867  0.25121280  0.90776267  1
  S  S1  1  0.49362133  0.74878720  0.09223733  1
  S  S2  1  0.46961864  0.88874888  0.72910569  1
  S  S3  1  0.53038136  0.11125112  0.27089431  1
  S  S4  1  0.23799369  0.13193879  0.61910477  1
  S  S5  1  0.76200631  0.86806121  0.38089523  1
  S  S6  1  0.90474454  0.91259866  0.75573008  1
  S  S7  1  0.09525546  0.08740134  0.24426992  1
  S  S8  1  0.06214810  0.58364773  0.76020706  1
  S  S9  1  0.93785190  0.41635227  0.23979294  1
  S  S10  1  0.59811500  0.16388693  0.62165569  1
  S  S11  1  0.40188500  0.83611307  0.37834431  1
  S  S12  1  0.78604739  0.66895258  0.90590289  1
  S  S13  1  0.21395261  0.33104742  0.09409711  1
  S  S14  1  0.70156964  0.58859196  0.58161819  1
  S  S15  1  0.29843036  0.41140804  0.41838181  1
loop_
_geom_bond_atom_site_label_1
_geom_bond_atom_site_label_2
_geom_bond_distance
_geom_bond_site_symmetry_2
Rb0 S12 3.303726 1_555
Rb0 S0 3.372852 1_555
Rb0 S15 3.385700 1_555
Rb0 S8 3.438689 1_555
Rb0 S2 3.443100 1_555
Rb0 S14 3.532324 1_555
Rb0 S4 3.627809 1_555
Rb0 S10 3.714501 1_555
Rb0 S1 3.722175 1_556
Rb1 S13 3.303726 1_555
Rb1 S1 3.372852 1_555
Rb1 S14 3.385700 1_555
Rb1 S9 3.438689 1_555
Rb1 S3 3.443100 1_555
Rb1 S15 3.532324 1_555
Rb1 S5 3.627809 1_555
Rb1 S11 3.714501 1_555
Rb1 S0 3.722175 1_554
Rb2 S13 3.222110 1_566
Rb2 S6 3.382917 1_455
Rb2 S1 3.412779 1_556
Rb2 S0 3.467445 1_565
Rb2 S2 3.468540 1_555
Rb2 S3 3.551026 1_566
Rb2 S7 3.740569 1_566
Rb2 S8 3.843634 1_555
Rb3 S12 3.222110 1_544
Rb3 S7 3.382917 1_655
Rb3 S0 3.412779 1_554
Rb3 S1 3.467445 1_545
Rb3 S3 3.468540 1_555
Rb3 S2 3.551026 1_544
Rb3 S6 3.740569 1_544
Rb3 S9 3.843634 1_555
Rb4 S5 3.433086 1_455
Rb4 S8 3.441101 1_555
Rb4 S4 3.527088 1_565
Rb4 S2 3.568537 1_555
Rb4 S6 3.584520 1_455
Rb4 S9 3.589759 1_455
Rb4 S15 3.630291 1_555
Rb4 S11 3.632230 1_555
Rb5 S4 3.433086 1_655
Rb5 S9 3.441101 1_555
Rb5 S5 3.527088 1_545
Rb5 S3 3.568537 1_555
Rb5 S7 3.584520 1_655
Rb5 S8 3.589759 1_655
Rb5 S14 3.630291 1_555
Rb5 S10 3.632230 1_555
Rb6 S10 3.290605 1_555
Rb6 S13 3.297221 1_656
Rb6 S12 3.315826 1_555
Rb6 S0 3.485750 1_555
Rb6 S8 3.621569 1_655
Rb6 S6 3.631742 1_545
Rb6 S9 3.671930 1_556
Rb7 S11 3.290605 1_555
Rb7 S12 3.297221 1_454
Rb7 S13 3.315826 1_555
Rb7 S1 3.485750 1_555
Rb7 S9 3.621569 1_455
Rb7 S7 3.631742 1_565
Rb7 S8 3.671930 1_554
Mg0 S2 2.588222 1_555
Mg0 S6 2.589358 1_555
Mg0 S14 2.608283 1_555
Mg0 S5 2.610746 1_555
Mg0 S11 2.655756 1_555
Mg0 S10 2.710541 1_565
Mg1 S3 2.588222 1_555
Mg1 S7 2.589358 1_555
Mg1 S15 2.608283 1_555
Mg1 S4 2.610746 1_555
Mg1 S10 2.655756 1_555
Mg1 S11 2.710541 1_545
P0 S0 2.007930 1_555
P0 S4 2.046331 1_555
P0 S2 2.047227 1_545
P0 S10 2.075292 1_555
P1 S1 2.007930 1_555
P1 S5 2.046331 1_555
P1 S3 2.047227 1_565
P1 S11 2.075292 1_555
P2 S12 2.019511 1_555
P2 S8 2.038511 1_655
P2 S14 2.057460 1_555
P2 S6 2.074172 1_555
P3 S13 2.019511 1_555
P3 S9 2.038511 1_455
P3 S15 2.057460 1_555
P3 S7 2.074172 1_555
