# generated using pymatgen
data_Lu6AlCoOs
_symmetry_space_group_name_H-M   'P 1'
_cell_length_a   8.13383522
_cell_length_b   8.13383472
_cell_length_c   8.13383395
_cell_angle_alpha   112.52613421
_cell_angle_beta   111.16531507
_cell_angle_gamma   104.82306714
_symmetry_Int_Tables_number   1
_chemical_formula_structural   Lu6AlCoOs
_chemical_formula_sum   'Lu12 Al2 Co2 Os2'
_cell_volume   412.16521592
_cell_formula_units_Z   2
loop_
 _symmetry_equiv_pos_site_id
 _symmetry_equiv_pos_as_xyz
  1  'x, y, z'
loop_
 _atom_site_type_symbol
 _atom_site_label
 _atom_site_symmetry_multiplicity
 _atom_site_fract_x
 _atom_site_fract_y
 _atom_site_fract_z
 _atom_site_occupancy
  Lu  Lu0  1  0.43963168  0.24521814  0.19441354  1
  Lu  Lu1  1  0.56036832  0.75478186  0.80558646  1
  Lu  Lu2  1  0.05080461  0.24521814  0.80558646  1
  Lu  Lu3  1  0.94919539  0.75478186  0.19441354  1
  Lu  Lu4  1  0.18189142  0.28366184  0.46555325  1
  Lu  Lu5  1  0.81810858  0.71633816  0.53444675  1
  Lu  Lu6  1  0.18189142  0.71633816  0.89822958  1
  Lu  Lu7  1  0.81810858  0.28366184  0.10177042  1
  Lu  Lu8  1  0.32682843  0.64350261  0.31667417  1
  Lu  Lu9  1  0.67317157  0.35649739  0.68332583  1
  Lu  Lu10  1  0.32682843  0.01015326  0.68332583  1
  Lu  Lu11  1  0.67317157  0.98984674  0.31667417  1
  Al  Al0  1  0.50000000  0.50000000  0.00000000  1
  Al  Al1  1  0.00000000  0.00000000  0.00000000  1
  Co  Co0  1  0.11280114  0.61280114  0.50000000  1
  Co  Co1  1  0.88719886  0.38719886  0.50000000  1
  Os  Os0  1  0.32108082  0.00000000  0.32108082  1
  Os  Os1  1  0.67891918  1.00000000  0.67891918  1
loop_
_geom_bond_atom_site_label_1
_geom_bond_atom_site_label_2
_geom_bond_distance
_geom_bond_site_symmetry_2
Lu0 Os0 2.697678 1_555
Lu1 Os1 2.697678 1_555
Lu2 Os1 2.697679 1_445
Lu3 Os0 2.697679 1_665
Lu4 Os0 2.864600 1_555
Lu5 Os1 2.864600 1_555
Lu6 Os0 2.864600 1_566
Lu7 Os1 2.864600 1_544
Lu8 Os0 2.898726 1_565
Lu8 Os1 2.898727 1_555
Lu9 Os1 2.898726 1_545
Lu9 Os0 2.898727 1_555
Lu10 Os1 2.898724 1_545
Lu10 Os0 2.898729 1_555
Lu11 Os0 2.898724 1_565
Lu11 Os1 2.898729 1_555
Al0 Lu1 3.096339 1_554
Al0 Lu0 3.096339 1_555
Al0 Lu2 3.096340 1_554
Al0 Lu3 3.096340 1_555
Al0 Lu8 3.337452 1_555
Al0 Lu9 3.337452 1_554
Al0 Lu10 3.337459 1_554
Al0 Lu11 3.337459 1_555
Al0 Lu5 3.517887 1_555
Al0 Lu4 3.517887 1_554
Al0 Lu7 3.517888 1_555
Al0 Lu6 3.517888 1_554
Al1 Os0 2.952261 1_555
Al1 Os1 2.952261 1_444
Al1 Lu3 3.019348 1_445
Al1 Lu2 3.019348 1_554
Al1 Lu0 3.019348 1_555
Al1 Lu1 3.019348 1_444
Al1 Lu4 3.060244 1_555
Al1 Lu5 3.060244 1_444
Al1 Lu6 3.060244 1_544
Al1 Lu7 3.060244 1_455
Co0 Co1 2.238662 1_455
Co0 Lu10 2.693295 1_565
Co0 Lu8 2.693302 1_555
Co0 Lu6 2.805404 1_555
Co0 Lu4 2.805404 1_555
Co0 Lu5 2.805404 1_455
Co0 Lu7 2.805404 1_455
Co0 Lu3 3.143229 1_455
Co0 Lu1 3.143229 1_555
Co1 Lu11 2.693295 1_545
Co1 Lu9 2.693302 1_555
Co1 Lu7 2.805404 1_555
Co1 Lu5 2.805404 1_555
Co1 Lu4 2.805404 1_655
Co1 Lu6 2.805404 1_655
Co1 Lu2 3.143229 1_655
Co1 Lu0 3.143229 1_555
