# generated using pymatgen
data_CaZnHgPd3
_symmetry_space_group_name_H-M   'P 1'
_cell_length_a   5.17003027
_cell_length_b   5.17003087
_cell_length_c   5.17003061
_cell_angle_alpha   64.30994487
_cell_angle_beta   64.30994747
_cell_angle_gamma   64.30995613
_symmetry_Int_Tables_number   1
_chemical_formula_structural   CaZnHgPd3
_chemical_formula_sum   'Ca1 Zn1 Hg1 Pd3'
_cell_volume   106.96704975
_cell_formula_units_Z   1
loop_
 _symmetry_equiv_pos_site_id
 _symmetry_equiv_pos_as_xyz
  1  'x, y, z'
loop_
 _atom_site_type_symbol
 _atom_site_label
 _atom_site_symmetry_multiplicity
 _atom_site_fract_x
 _atom_site_fract_y
 _atom_site_fract_z
 _atom_site_occupancy
  Ca  Ca0  1  0.12341434  0.12341434  0.12341434  1
  Zn  Zn0  1  0.50078366  0.50078366  0.50078366  1
  Hg  Hg0  1  0.87236576  0.87236576  0.87236576  1
  Pd  Pd0  1  0.50195909  0.50195909  0.99951905  1
  Pd  Pd1  1  0.99951905  0.50195909  0.50195909  1
  Pd  Pd2  1  0.50195909  0.99951905  0.50195909  1
loop_
_geom_bond_atom_site_label_1
_geom_bond_atom_site_label_2
_geom_bond_distance
_geom_bond_site_symmetry_2
Ca0 Pd0 3.036071 1_554
Ca0 Pd2 3.036071 1_545
Ca0 Pd1 3.036071 1_455
Ca0 Hg0 3.071739 1_444
Ca0 Pd2 3.131963 1_445
Ca0 Pd1 3.131963 1_445
Ca0 Pd1 3.131963 1_454
Ca0 Pd2 3.131963 1_544
Ca0 Pd0 3.131963 1_454
Ca0 Pd0 3.131964 1_544
Ca0 Zn0 3.222577 1_554
Ca0 Zn0 3.222577 1_545
Ca0 Zn0 3.222577 1_455
Ca0 Hg0 3.332918 1_445
Ca0 Hg0 3.332919 1_544
Ca0 Hg0 3.332919 1_454
Hg0 Pd0 2.960288 1_555
Hg0 Pd2 2.960289 1_555
Hg0 Pd1 2.960289 1_555
Hg0 Pd2 3.170792 1_655
Hg0 Pd1 3.170792 1_565
Hg0 Pd1 3.170792 1_556
Hg0 Pd0 3.170792 1_655
Hg0 Pd2 3.170792 1_556
Hg0 Pd0 3.170792 1_565
Hg0 Zn0 3.211496 1_556
Hg0 Zn0 3.211497 1_565
Hg0 Zn0 3.211497 1_655
Pd0 Zn0 2.583761 1_555
Pd0 Zn0 2.586300 1_556
Pd0 Pd1 2.738120 1_555
Pd0 Pd2 2.738120 1_555
Pd0 Pd1 2.764976 1_456
Pd0 Pd2 2.764976 1_546
Pd1 Zn0 2.583761 1_555
Pd1 Zn0 2.586299 1_655
Pd1 Pd2 2.738120 1_555
Pd1 Pd2 2.764976 1_645
Pd2 Zn0 2.583761 1_555
Pd2 Zn0 2.586300 1_565
