# generated using pymatgen
data_K5SrTaAs4
_symmetry_space_group_name_H-M   'P 1'
_cell_length_a   10.37887371
_cell_length_b   10.37887383
_cell_length_c   7.92916426
_cell_angle_alpha   88.53905810
_cell_angle_beta   88.53905772
_cell_angle_gamma   120.58691178
_symmetry_Int_Tables_number   1
_chemical_formula_structural   K5SrTaAs4
_chemical_formula_sum   'K10 Sr2 Ta2 As8'
_cell_volume   734.31772159
_cell_formula_units_Z   2
loop_
 _symmetry_equiv_pos_site_id
 _symmetry_equiv_pos_as_xyz
  1  'x, y, z'
loop_
 _atom_site_type_symbol
 _atom_site_label
 _atom_site_symmetry_multiplicity
 _atom_site_fract_x
 _atom_site_fract_y
 _atom_site_fract_z
 _atom_site_occupancy
  K  K0  1  0.46604795  0.52579421  0.60695171  1
  K  K1  1  0.05776671  0.52810900  0.61034766  1
  K  K2  1  0.52579421  0.46604795  0.10695171  1
  K  K3  1  0.52810900  0.05776671  0.11034766  1
  K  K4  1  0.86403376  0.14303402  0.78763415  1
  K  K5  1  0.29458962  0.15426246  0.82594320  1
  K  K6  1  0.85455046  0.71628757  0.76458360  1
  K  K7  1  0.14303402  0.86403376  0.28763415  1
  K  K8  1  0.71628757  0.85455046  0.26458360  1
  K  K9  1  0.15426246  0.29458962  0.32594320  1
  Sr  Sr0  1  0.46465263  0.93600670  0.60306822  1
  Sr  Sr1  1  0.93600670  0.46465263  0.10306822  1
  Ta  Ta0  1  0.66968600  0.33107038  0.50080718  1
  Ta  Ta1  1  0.33107038  0.66968600  0.00080718  1
  As  As0  1  0.68409759  0.33835789  0.81337998  1
  As  As1  1  0.33835789  0.68409759  0.31337998  1
  As  As2  1  0.19511741  0.79448872  0.89386636  1
  As  As3  1  0.59017450  0.80110576  0.87414074  1
  As  As4  1  0.18900799  0.40175667  0.92647718  1
  As  As5  1  0.79448872  0.19511741  0.39386636  1
  As  As6  1  0.40175667  0.18900799  0.42647718  1
  As  As7  1  0.80110576  0.59017450  0.37414074  1
loop_
_geom_bond_atom_site_label_1
_geom_bond_atom_site_label_2
_geom_bond_distance
_geom_bond_site_symmetry_2
As0 Ta0 2.487511 1_555
As0 Sr1 3.286658 1_556
As0 K3 3.362213 1_556
As0 K6 3.389836 1_555
As0 K4 3.390228 1_555
As0 K2 3.471693 1_556
As0 K5 3.480312 1_555
As0 K1 3.641178 1_655
As1 Ta1 2.487511 1_555
As1 Sr0 3.286658 1_555
As1 K1 3.362213 1_555
As1 K8 3.389836 1_555
As1 K7 3.390228 1_555
As1 K0 3.471693 1_555
As1 K9 3.480312 1_555
As1 K3 3.641178 1_565
As2 Ta1 2.500591 1_556
As2 Sr0 3.258321 1_555
As2 K7 3.314753 1_556
As2 K1 3.346498 1_555
As2 K5 3.353338 1_565
As2 K6 3.392823 1_455
As2 Sr1 3.437561 1_456
As2 K3 3.645325 1_566
As3 Ta1 2.482042 1_556
As3 Sr0 3.181671 1_555
As3 K4 3.264147 1_565
As3 K0 3.318812 1_555
As3 K8 3.340770 1_556
As3 K6 3.381482 1_555
As3 K3 3.599738 1_566
As3 K2 3.632128 1_556
As4 Ta1 2.491874 1_556
As4 K9 3.279288 1_556
As4 Sr1 3.299321 1_456
As4 K4 3.304796 1_455
As4 K5 3.370319 1_555
As4 K1 3.418013 1_555
As4 K0 3.469740 1_555
As4 K2 3.555470 1_556
As5 Ta0 2.500591 1_555
As5 Sr1 3.258321 1_555
As5 K4 3.314753 1_555
As5 K3 3.346498 1_555
As5 K9 3.353338 1_655
As5 K8 3.392823 1_545
As5 Sr0 3.437561 1_545
As5 K1 3.645325 1_655
As6 Ta0 2.491874 1_555
As6 K5 3.279288 1_555
As6 Sr0 3.299321 1_545
As6 K7 3.304796 1_545
As6 K9 3.370319 1_555
As6 K3 3.418013 1_555
As6 K2 3.469740 1_555
As6 K0 3.555470 1_555
As7 Ta0 2.482042 1_555
As7 Sr1 3.181671 1_555
As7 K7 3.264147 1_655
As7 K2 3.318812 1_555
As7 K6 3.340770 1_555
As7 K8 3.381482 1_555
As7 K1 3.599738 1_655
As7 K0 3.632128 1_555
