# generated using pymatgen
data_Sc3ZnCo2Sn3
_symmetry_space_group_name_H-M   'P 1'
_cell_length_a   7.25973717
_cell_length_b   7.25975206
_cell_length_c   7.11452584
_cell_angle_alpha   89.99983770
_cell_angle_beta   90.00014781
_cell_angle_gamma   120.00002153
_symmetry_Int_Tables_number   1
_chemical_formula_structural   Sc3ZnCo2Sn3
_chemical_formula_sum   'Sc6 Zn2 Co4 Sn6'
_cell_volume   324.72758690
_cell_formula_units_Z   2
loop_
 _symmetry_equiv_pos_site_id
 _symmetry_equiv_pos_as_xyz
  1  'x, y, z'
loop_
 _atom_site_type_symbol
 _atom_site_label
 _atom_site_symmetry_multiplicity
 _atom_site_fract_x
 _atom_site_fract_y
 _atom_site_fract_z
 _atom_site_occupancy
  Sc  Sc0  1  0.38200185  0.97817618  0.25001007  1
  Sc  Sc1  1  0.59618303  0.61802170  0.25000377  1
  Sc  Sc2  1  0.02182790  0.40381864  0.25000013  1
  Sc  Sc3  1  0.37581146  0.96868998  0.74999903  1
  Sc  Sc4  1  0.59287479  0.62418622  0.74999562  1
  Sc  Sc5  1  0.03132262  0.40714016  0.75000118  1
  Zn  Zn0  1  0.66664865  0.33331774  0.96884772  1
  Zn  Zn1  1  0.66664359  0.33331349  0.53117974  1
  Co  Co0  1  0.33333377  0.66666125  0.00693337  1
  Co  Co1  1  0.33334182  0.66666893  0.49306464  1
  Co  Co2  1  0.00000549  0.99999640  0.25004472  1
  Co  Co3  1  0.99999063  0.99999222  0.74994298  1
  Sn  Sn0  1  0.73738076  0.00329890  0.00105892  1
  Sn  Sn1  1  0.26602284  0.26272986  0.49891796  1
  Sn  Sn2  1  0.99669531  0.73396944  0.49892219  1
  Sn  Sn3  1  0.99670617  0.73407998  0.00107092  1
  Sn  Sn4  1  0.26592171  0.26262703  0.00106652  1
  Sn  Sn5  1  0.73728760  0.00331089  0.49893952  1
loop_
_geom_bond_atom_site_label_1
_geom_bond_atom_site_label_2
_geom_bond_distance
_geom_bond_site_symmetry_2
Sc0 Sn3 3.023946 1_455
Sc0 Sn2 3.023985 1_455
Sc0 Sn5 3.058074 1_565
Sc0 Sn0 3.058752 1_565
Sc0 Zn0 3.096948 1_564
Sc0 Zn1 3.096959 1_565
Sc0 Sn4 3.138729 1_565
Sc0 Sn1 3.138748 1_565
Sc1 Sn0 3.023872 1_565
Sc1 Sn5 3.023990 1_565
Sc1 Sn1 3.058059 1_555
Sc1 Sn4 3.058759 1_555
Sc1 Zn0 3.097132 1_554
Sc1 Zn1 3.097219 1_555
Sc1 Sn3 3.138675 1_555
Sc1 Sn2 3.138705 1_555
Sc2 Sn4 3.023881 1_555
Sc2 Sn1 3.023890 1_555
Sc2 Sn2 3.058047 1_455
Sc2 Sn3 3.058685 1_455
Sc2 Zn0 3.097092 1_454
Sc2 Zn1 3.097243 1_455
Sc2 Sn0 3.138671 1_455
Sc2 Sn5 3.138740 1_455
Sc3 Zn1 2.880891 1_565
Sc3 Zn0 2.881033 1_565
Sc3 Sn3 2.996447 1_456
Sc3 Sn2 2.996603 1_455
Sc3 Sn5 3.079052 1_565
Sc3 Sn0 3.079626 1_566
Sc3 Sn4 3.175376 1_566
Sc3 Sn1 3.175586 1_565
Sc4 Zn1 2.881037 1_555
Sc4 Zn0 2.881163 1_555
Sc4 Sn0 2.996448 1_566
Sc4 Sn5 2.996550 1_565
Sc4 Sn1 3.079051 1_555
Sc4 Sn4 3.079623 1_556
Sc4 Sn3 3.175416 1_556
Sc4 Sn2 3.175521 1_555
Sc5 Zn1 2.881157 1_455
Sc5 Zn0 2.881238 1_455
Sc5 Sn4 2.996438 1_556
Sc5 Sn1 2.996595 1_555
Sc5 Sn2 3.078998 1_455
Sc5 Sn3 3.079583 1_456
Sc5 Sn0 3.175400 1_456
Sc5 Sn5 3.175510 1_455
Co0 Sn4 2.722013 1_555
Co0 Sn3 2.722077 1_455
Co0 Sn0 2.722108 1_565
Co0 Sc1 2.725868 1_555
Co0 Sc2 2.725901 1_555
Co0 Sc0 2.725992 1_555
Co0 Sc5 2.750889 1_554
Co0 Sc4 2.750976 1_554
Co0 Sc3 2.751018 1_554
Co1 Sn1 2.721572 1_555
Co1 Sn5 2.721657 1_565
Co1 Sn2 2.721673 1_455
Co1 Sc1 2.725814 1_555
Co1 Sc0 2.725860 1_555
Co1 Sc2 2.725934 1_555
Co1 Sc4 2.750919 1_555
Co1 Sc5 2.750952 1_555
Co1 Sc3 2.751001 1_555
Co2 Sn3 2.611273 1_455
Co2 Sn4 2.611323 1_565
Co2 Sn1 2.611361 1_565
Co2 Sn2 2.611362 1_455
Co2 Sn0 2.611370 1_465
Co2 Sn5 2.611468 1_465
Co2 Sc1 2.855648 1_455
Co2 Sc0 2.855695 1_555
Co2 Sc2 2.855735 1_565
Co3 Sn5 2.621589 1_565
Co3 Sn0 2.621613 1_566
Co3 Sn3 2.621702 1_556
Co3 Sn2 2.621749 1_555
Co3 Sn4 2.621752 1_666
Co3 Sn1 2.621816 1_665
Co3 Sc4 2.848714 1_555
Co3 Sc3 2.848790 1_655
Co3 Sc5 2.848881 1_665
Sn0 Zn0 2.699366 1_554
Sn1 Zn1 2.698839 1_555
Sn2 Zn1 2.699039 1_555
Sn3 Zn0 2.699522 1_554
Sn4 Zn0 2.699300 1_554
Sn5 Zn1 2.698864 1_555
