# generated using pymatgen
data_Hf3Ti5Al15Ir7
_symmetry_space_group_name_H-M   'P 1'
_cell_length_a   8.67714369
_cell_length_b   8.66757198
_cell_length_c   8.67714325
_cell_angle_alpha   120.06604074
_cell_angle_beta   119.92838804
_cell_angle_gamma   90.03656988
_symmetry_Int_Tables_number   1
_chemical_formula_structural   Hf3Ti5Al15Ir7
_chemical_formula_sum   'Hf3 Ti5 Al15 Ir7'
_cell_volume   461.35282527
_cell_formula_units_Z   1
loop_
 _symmetry_equiv_pos_site_id
 _symmetry_equiv_pos_as_xyz
  1  'x, y, z'
loop_
 _atom_site_type_symbol
 _atom_site_label
 _atom_site_symmetry_multiplicity
 _atom_site_fract_x
 _atom_site_fract_y
 _atom_site_fract_z
 _atom_site_occupancy
  Hf  Hf0  1  0.80222651  0.29491480  0.08489582  1
  Hf  Hf1  1  0.21001799  0.29491480  0.49268829  1
  Hf  Hf2  1  0.20248961  0.69805959  0.49556998  1
  Ti  Ti0  1  0.22043938  0.71789196  0.92725792  1
  Ti  Ti1  1  0.79063304  0.71789196  0.49745057  1
  Ti  Ti2  1  0.78162903  0.27966044  0.49803141  1
  Ti  Ti3  1  0.37843204  0.12409243  0.74566039  1
  Ti  Ti4  1  0.38211397  0.63767824  0.25556527  1
  Al  Al0  1  0.98739134  0.50339978  0.51600843  1
  Al  Al1  1  0.16503469  0.33370119  0.16866450  1
  Al  Al2  1  0.15319728  0.96899883  0.81580155  1
  Al  Al3  1  0.14892787  0.34726815  0.80783708  1
  Al  Al4  1  0.53943006  0.34726815  0.19834027  1
  Al  Al5  1  0.84642055  0.65225469  0.80583514  1
  Al  Al6  1  0.83784808  0.02313550  0.18528642  1
  Al  Al7  1  0.83607802  0.66199768  0.18041371  1
  Al  Al8  1  0.48158297  0.66199768  0.82591866  1
  Al  Al9  1  0.38274761  0.11794219  0.25685793  1
  Al  Al10  1  0.86108526  0.11794219  0.73519358  1
  Al  Al11  1  0.62023611  0.88002568  0.25979056  1
  Al  Al12  1  0.62297936  0.36532624  0.74234589  1
  Al  Al13  1  0.62305475  0.87626754  0.74190974  1
  Al  Al14  1  0.13435680  0.87626754  0.25321279  1
  Ir  Ir0  1  0.00251451  0.00072746  0.50380940  1
  Ir  Ir1  1  0.49691806  0.00072746  0.99821295  1
  Ir  Ir2  1  0.49650386  0.49683132  0.00032746  1
  Ir  Ir3  1  0.49793754  0.50112821  0.50021992  1
  Ir  Ir4  1  0.00090930  0.50112821  0.00319168  1
  Ir  Ir5  1  0.99873597  0.00090330  0.00216732  1
  Ir  Ir6  1  0.49812243  0.99965581  0.50153338  1
loop_
_geom_bond_atom_site_label_1
_geom_bond_atom_site_label_2
_geom_bond_distance
_geom_bond_site_symmetry_2
Hf0 Ir4 3.025698 1_655
Hf0 Ti3 3.033908 1_554
Hf0 Ir5 3.051380 1_555
Hf0 Ir2 3.160550 1_555
Hf0 Ir1 3.188618 1_554
Hf1 Ir3 3.025706 1_555
Hf1 Ti3 3.033909 1_555
Hf1 Ir5 3.051380 1_455
Hf1 Ir2 3.160551 1_556
Hf1 Ir0 3.188613 1_555
Hf2 Ti4 3.031187 1_555
Hf2 Ti3 3.055061 1_565
Hf2 Ir4 3.075517 1_555
Hf2 Ir3 3.075523 1_555
Hf2 Ir1 3.136869 1_565
Hf2 Ir0 3.136869 1_565
Ti0 Ti4 2.926593 1_556
Ti1 Ti4 2.926579 1_555
Al0 Ti2 2.527341 1_555
Al0 Ti0 2.535116 1_655
Al0 Ti1 2.535123 1_555
Al0 Hf2 2.643459 1_655
Al0 Hf1 2.658238 1_655
Al0 Hf0 2.658245 1_555
Al1 Ir5 2.495772 1_455
Al1 Ir4 2.499157 1_555
Al1 Ir3 2.499179 1_555
Al1 Hf0 2.832419 1_455
Al1 Hf1 2.832433 1_555
Al1 Hf2 2.868481 1_555
Al2 Ir5 2.490585 1_466
Al2 Ir0 2.515666 1_565
Al2 Ir1 2.515666 1_565
Al2 Ti0 2.749645 1_555
Al2 Ti1 2.749651 1_455
Al2 Hf2 2.840376 1_555
Al3 Ir4 2.492201 1_556
Al3 Ir0 2.511303 1_555
Al3 Ir2 2.522944 1_556
Al3 Ti2 2.756387 1_455
Al3 Ti0 2.792632 1_555
Al3 Hf1 2.858018 1_555
Al4 Ir3 2.492197 1_555
Al4 Ir1 2.511305 1_554
Al4 Ir2 2.522946 1_555
Al4 Ti2 2.756390 1_555
Al4 Ti1 2.792632 1_555
Al4 Hf0 2.858032 1_555
Al5 Ir5 2.524063 1_566
Al5 Ir4 2.530753 1_656
Al5 Ir3 2.530753 1_555
Al5 Ti2 2.781329 1_555
Al5 Ti0 2.819845 1_655
Al5 Ti1 2.819865 1_555
Al6 Ir1 2.513146 1_554
Al6 Ir0 2.513153 1_655
Al6 Ir5 2.533345 1_555
Al6 Ti2 2.796870 1_555
Al6 Hf1 2.862151 1_655
Al6 Hf0 2.862151 1_555
Al7 Ir0 2.505115 1_665
Al7 Ir2 2.516357 1_555
Al7 Ir4 2.530488 1_655
Al7 Ti1 2.775850 1_555
Al7 Hf0 2.830210 1_555
Al7 Hf2 2.855025 1_655
Al8 Ir1 2.505113 1_565
Al8 Ir2 2.516363 1_556
Al8 Ir3 2.530483 1_555
Al8 Ti0 2.775858 1_555
Al8 Hf1 2.830210 1_555
Al8 Hf2 2.855017 1_555
Al9 Ir6 2.573398 1_545
Al9 Ir1 2.643039 1_554
Al9 Ir3 2.711343 1_555
Al9 Ir5 2.723507 1_455
Al9 Ti2 2.854975 1_555
Al9 Ti0 2.867789 1_544
Al9 Hf1 2.950416 1_555
Al10 Ir6 2.573405 1_545
Al10 Ir0 2.643025 1_655
Al10 Ir4 2.711343 1_656
Al10 Ir5 2.723514 1_556
Al10 Ti2 2.854966 1_555
Al10 Ti1 2.867787 1_545
Al10 Hf0 2.950422 1_556
Al11 Ir6 2.576403 1_555
Al11 Ir2 2.709947 1_555
Al11 Ir0 2.710813 1_665
Al11 Ir1 2.710820 1_564
Al11 Ti2 2.857123 1_565
Al11 Ti1 2.877100 1_555
Al11 Ti0 2.877121 1_554
Al12 Ir6 2.585779 1_545
Al12 Ir3 2.679872 1_555
Al12 Ir4 2.679886 1_656
Al12 Ir2 2.722312 1_556
Al12 Ti2 2.876934 1_555
Al12 Hf1 2.971915 1_555
Al12 Hf0 2.971915 1_556
Al13 Ir6 2.578731 1_555
Al13 Ir3 2.653355 1_555
Al13 Ir5 2.664350 1_566
Al13 Ir1 2.708176 1_565
Al13 Ti1 2.942954 1_555
Al13 Hf0 2.999419 1_566
Al13 Hf2 3.028739 1_555
Al14 Ir6 2.578739 1_555
Al14 Ir4 2.653354 1_555
Al14 Ir5 2.664350 1_465
Al14 Ir0 2.708169 1_565
Al14 Ti0 2.942955 1_554
Al14 Hf1 2.999419 1_565
Al14 Hf2 3.028737 1_555
Ir0 Ti3 2.665317 1_555
Ir0 Ti1 3.024987 1_445
Ir0 Ti2 3.090744 1_455
Ir1 Ti3 2.665317 1_555
Ir1 Ti0 3.024994 1_545
Ir1 Ti2 3.090744 1_556
Ir2 Ti4 2.620411 1_555
Ir2 Ti3 2.636986 1_554
Ir2 Ti1 3.085289 1_555
Ir2 Ti0 3.085302 1_554
Ir3 Ti4 2.703287 1_555
Ir3 Ti2 3.124254 1_555
Ir3 Ti1 3.175052 1_555
Ir4 Ti4 2.703287 1_555
Ir4 Ti2 3.124260 1_454
Ir4 Ti0 3.175048 1_554
Ir5 Ti0 3.129975 1_644
Ir5 Ti1 3.129987 1_544
Ir6 Ti4 2.560225 1_555
Ir6 Ti3 2.576163 1_565
