# generated using pymatgen
data_V17Fe2Si12Os
_symmetry_space_group_name_H-M   'P 1'
_cell_length_a   6.99116253
_cell_length_b   6.99116290
_cell_length_c   13.15346862
_cell_angle_alpha   90.00000000
_cell_angle_beta   90.00000000
_cell_angle_gamma   140.53490128
_symmetry_Int_Tables_number   1
_chemical_formula_structural   V17Fe2Si12Os
_chemical_formula_sum   'V17 Fe2 Si12 Os1'
_cell_volume   408.62837276
_cell_formula_units_Z   1
loop_
 _symmetry_equiv_pos_site_id
 _symmetry_equiv_pos_as_xyz
  1  'x, y, z'
loop_
 _atom_site_type_symbol
 _atom_site_label
 _atom_site_symmetry_multiplicity
 _atom_site_fract_x
 _atom_site_fract_y
 _atom_site_fract_z
 _atom_site_occupancy
  V  V0  1  0.07051749  0.42170436  0.39945476  1
  V  V1  1  0.57371442  0.93026884  0.90065000  1
  V  V2  1  0.42170436  0.07051749  0.60054524  1
  V  V3  1  0.93026884  0.57371442  0.09935000  1
  V  V4  1  0.85080876  0.65129123  0.67734510  1
  V  V5  1  0.35147446  0.15092816  0.17676607  1
  V  V6  1  0.65129123  0.85080876  0.32265490  1
  V  V7  1  0.15092816  0.35147446  0.82323393  1
  V  V8  1  0.65129123  0.85080876  0.67734510  1
  V  V9  1  0.15092816  0.35147446  0.17676607  1
  V  V10  1  0.85080876  0.65129123  0.32265490  1
  V  V11  1  0.35147446  0.15092816  0.82323393  1
  V  V12  1  0.42170436  0.07051749  0.39945476  1
  V  V13  1  0.93026884  0.57371442  0.90065000  1
  V  V14  1  0.07051749  0.42170436  0.60054524  1
  V  V15  1  0.57371442  0.93026884  0.09935000  1
  V  V16  1  0.99729188  0.99729188  0.50000000  1
  Fe  Fe0  1  0.50203724  0.50203724  0.00000000  1
  Fe  Fe1  1  0.00234598  0.00234598  0.00000000  1
  Si  Si0  1  0.25034557  0.74964354  0.75025807  1
  Si  Si1  1  0.74964354  0.25034557  0.24974193  1
  Si  Si2  1  0.74964354  0.25034557  0.75025807  1
  Si  Si3  1  0.25034557  0.74964354  0.24974193  1
  Si  Si4  1  0.24359473  0.24359473  0.66687321  1
  Si  Si5  1  0.75352427  0.75352427  0.16094184  1
  Si  Si6  1  0.24359473  0.24359473  0.33312679  1
  Si  Si7  1  0.75352427  0.75352427  0.83905816  1
  Si  Si8  1  0.58317095  0.91777441  0.50000000  1
  Si  Si9  1  0.09107669  0.41272362  0.00000000  1
  Si  Si10  1  0.91777441  0.58317095  0.50000000  1
  Si  Si11  1  0.41272362  0.09107669  0.00000000  1
  Os  Os0  1  0.49795257  0.49795257  0.50000000  1
loop_
_geom_bond_atom_site_label_1
_geom_bond_atom_site_label_2
_geom_bond_distance
_geom_bond_site_symmetry_2
Fe0 Fe1 2.358969 1_555
Fe0 Fe1 2.361884 1_665
Fe0 Si9 2.423757 1_555
Fe0 Si11 2.423757 1_555
Fe0 Si5 2.427133 1_555
Fe0 Si7 2.427133 1_554
Fe0 V9 2.924026 1_555
Fe0 V7 2.924026 1_554
Fe0 V5 2.924026 1_555
Fe0 V11 2.924026 1_554
Fe0 V3 2.933512 1_555
Fe0 V13 2.933512 1_554
Fe0 V15 2.933512 1_555
Fe0 V1 2.933512 1_554
Fe1 Si5 2.421003 1_445
Fe1 Si7 2.421003 1_444
Fe1 Si11 2.422418 1_555
Fe1 Si9 2.422418 1_555
Fe1 V5 2.920252 1_555
Fe1 V11 2.920252 1_554
Fe1 V9 2.920252 1_555
Fe1 V7 2.920252 1_554
Fe1 V15 2.934272 1_445
Fe1 V1 2.934272 1_444
Fe1 V3 2.934272 1_445
Fe1 V13 2.934272 1_444
Si0 Si2 2.360445 1_455
Si0 Si2 2.360445 1_565
Si0 V7 2.483129 1_555
Si0 V13 2.486710 1_455
Si0 V2 2.489167 1_565
Si0 V1 2.492146 1_555
Si0 V8 2.493232 1_555
Si0 V4 2.495841 1_455
Si0 V11 2.495844 1_565
Si0 V14 2.502880 1_555
Si1 Si3 2.360445 1_655
Si1 Si3 2.360445 1_545
Si1 V5 2.483129 1_555
Si1 V15 2.486710 1_545
Si1 V0 2.489166 1_655
Si1 V3 2.492146 1_555
Si1 V10 2.493232 1_555
Si1 V6 2.495842 1_545
Si1 V9 2.495844 1_655
Si1 V12 2.502879 1_555
Si2 V11 2.483129 1_555
Si2 V1 2.486710 1_545
Si2 V14 2.489166 1_655
Si2 V13 2.492146 1_555
Si2 V4 2.493232 1_555
Si2 V8 2.495842 1_545
Si2 V7 2.495844 1_655
Si2 V2 2.502879 1_555
Si3 V9 2.483129 1_555
Si3 V3 2.486710 1_455
Si3 V12 2.489167 1_565
Si3 V15 2.492146 1_555
Si3 V6 2.493232 1_555
Si3 V10 2.495841 1_455
Si3 V5 2.495844 1_565
Si3 V0 2.502880 1_555
Si4 V11 2.443954 1_555
Si4 V7 2.443954 1_555
Si4 V2 2.470257 1_555
Si4 V14 2.470257 1_555
Si4 V16 2.483921 1_445
Si4 V8 2.673858 1_445
Si4 V4 2.673858 1_445
Si4 V4 2.735291 1_555
Si4 V8 2.735292 1_555
Si5 V15 2.482291 1_555
Si5 V3 2.482291 1_555
Si5 V6 2.499696 1_555
Si5 V10 2.499696 1_555
Si5 V5 2.702768 1_665
Si5 V9 2.702768 1_665
Si5 V9 2.721855 1_555
Si5 V5 2.721855 1_555
Si6 V5 2.443954 1_555
Si6 V9 2.443954 1_555
Si6 V12 2.470257 1_555
Si6 V0 2.470257 1_555
Si6 V16 2.483921 1_445
Si6 V6 2.673858 1_445
Si6 V10 2.673858 1_445
Si6 V10 2.735291 1_555
Si6 V6 2.735292 1_555
Si7 V1 2.482291 1_555
Si7 V13 2.482291 1_555
Si7 V8 2.499696 1_555
Si7 V4 2.499696 1_555
Si7 V11 2.702768 1_665
Si7 V7 2.702768 1_665
Si7 V7 2.721855 1_555
Si7 V11 2.721855 1_555
Si8 V2 2.454559 1_565
Si8 V12 2.454559 1_565
Si8 V16 2.491197 1_555
Si8 V8 2.496346 1_555
Si8 V6 2.496346 1_555
Si8 V14 2.689943 1_665
Si8 V0 2.689943 1_665
Si8 V14 2.725841 1_555
Si8 V0 2.725841 1_555
Si9 V9 2.457869 1_555
Si9 V7 2.457869 1_554
Si9 V3 2.488396 1_455
Si9 V13 2.488396 1_454
Si9 V15 2.707409 1_445
Si9 V1 2.707409 1_444
Si9 V15 2.708162 1_555
Si9 V1 2.708162 1_554
Si10 V14 2.454559 1_655
Si10 V0 2.454559 1_655
Si10 V16 2.491197 1_555
Si10 V4 2.496346 1_555
Si10 V10 2.496346 1_555
Si10 V2 2.689943 1_665
Si10 V12 2.689943 1_665
Si10 V2 2.725841 1_555
Si10 V12 2.725841 1_555
Si11 V5 2.457869 1_555
Si11 V11 2.457869 1_554
Si11 V15 2.488396 1_545
Si11 V1 2.488396 1_544
Si11 V3 2.707409 1_445
Si11 V13 2.707409 1_444
Si11 V3 2.708162 1_555
Si11 V13 2.708162 1_554
Os0 V16 2.357308 1_555
Os0 V16 2.363546 1_445
Os0 Si4 2.501948 1_555
Os0 Si6 2.501948 1_555
Os0 Si10 2.503898 1_555
Os0 Si8 2.503898 1_555
Os0 V14 2.916063 1_555
Os0 V0 2.916063 1_555
Os0 V2 2.916064 1_555
Os0 V12 2.916064 1_555
Os0 V4 2.931378 1_555
Os0 V10 2.931378 1_555
Os0 V8 2.931378 1_555
Os0 V6 2.931378 1_555
