# generated using pymatgen
data_Cs16ZrTiSb8
_symmetry_space_group_name_H-M   'P 1'
_cell_length_a   12.46863221
_cell_length_b   12.46862008
_cell_length_c   12.46863547
_cell_angle_alpha   59.99995129
_cell_angle_beta   59.99998345
_cell_angle_gamma   59.99994165
_symmetry_Int_Tables_number   1
_chemical_formula_structural   Cs16ZrTiSb8
_chemical_formula_sum   'Cs16 Zr1 Ti1 Sb8'
_cell_volume   1370.69469371
_cell_formula_units_Z   1
loop_
 _symmetry_equiv_pos_site_id
 _symmetry_equiv_pos_as_xyz
  1  'x, y, z'
loop_
 _atom_site_type_symbol
 _atom_site_label
 _atom_site_symmetry_multiplicity
 _atom_site_fract_x
 _atom_site_fract_y
 _atom_site_fract_z
 _atom_site_occupancy
  Cs  Cs0  1  0.62567582  0.12297253  0.62567582  1
  Cs  Cs1  1  0.62567582  0.62567582  0.12297253  1
  Cs  Cs2  1  0.12297253  0.62567582  0.62567582  1
  Cs  Cs3  1  0.62567582  0.62567582  0.62567582  1
  Cs  Cs4  1  0.02527387  0.02527387  0.47472613  1
  Cs  Cs5  1  0.77536746  0.22463354  0.22463254  1
  Cs  Cs6  1  0.22463354  0.77536646  0.77536646  1
  Cs  Cs7  1  0.77536746  0.77536646  0.22463354  1
  Cs  Cs8  1  0.77536746  0.22463354  0.77536646  1
  Cs  Cs9  1  0.22463354  0.77536646  0.22463354  1
  Cs  Cs10  1  0.47472513  0.02527387  0.47472613  1
  Cs  Cs11  1  0.47472513  0.02527387  0.02527487  1
  Cs  Cs12  1  0.02527387  0.47472613  0.47472613  1
  Cs  Cs13  1  0.02527387  0.47472613  0.02527387  1
  Cs  Cs14  1  0.22463354  0.22463354  0.77536646  1
  Cs  Cs15  1  0.47472513  0.47472613  0.02527387  1
  Zr  Zr0  1  0.50000000  0.50000000  0.50000000  1
  Ti  Ti0  1  0.75000000  0.75000000  0.75000000  1
  Sb  Sb0  1  0.40472241  0.78583378  0.40472241  1
  Sb  Sb1  1  0.84206633  0.84206633  0.47380102  1
  Sb  Sb2  1  0.47380102  0.84206633  0.84206633  1
  Sb  Sb3  1  0.84206633  0.84206633  0.84206633  1
  Sb  Sb4  1  0.78583278  0.40472241  0.40472241  1
  Sb  Sb5  1  0.40472241  0.40472241  0.40472241  1
  Sb  Sb6  1  0.40472241  0.40472241  0.78583278  1
  Sb  Sb7  1  0.84206633  0.47380002  0.84206633  1
loop_
_geom_bond_atom_site_label_1
_geom_bond_atom_site_label_2
_geom_bond_distance
_geom_bond_site_symmetry_2
Cs0 Ti0 3.797076 1_545
Cs0 Zr0 3.838357 1_555
Cs0 Sb3 3.899549 1_545
Cs0 Sb1 3.899549 1_545
Cs0 Sb2 3.899550 1_545
Cs0 Sb5 3.969196 1_555
Cs0 Sb6 3.969196 1_555
Cs0 Sb4 3.969196 1_555
Cs1 Ti0 3.797082 1_554
Cs1 Zr0 3.838364 1_555
Cs1 Sb3 3.899551 1_554
Cs1 Sb2 3.899551 1_554
Cs1 Sb7 3.899560 1_554
Cs1 Sb5 3.969197 1_555
Cs1 Sb4 3.969197 1_555
Cs1 Sb0 3.969206 1_555
Cs2 Ti0 3.797081 1_455
Cs2 Zr0 3.838362 1_555
Cs2 Sb3 3.899551 1_455
Cs2 Sb1 3.899551 1_455
Cs2 Sb7 3.899559 1_455
Cs2 Sb5 3.969197 1_555
Cs2 Sb6 3.969197 1_555
Cs2 Sb0 3.969206 1_555
Cs3 Ti0 3.797083 1_555
Cs3 Zr0 3.838364 1_555
Cs3 Sb7 3.899550 1_555
Cs3 Sb1 3.899551 1_555
Cs3 Sb2 3.899551 1_555
Cs3 Sb0 3.969196 1_555
Cs3 Sb6 3.969197 1_555
Cs3 Sb4 3.969198 1_555
Cs4 Sb3 3.963275 1_445
Cs4 Sb1 3.963276 1_445
Cs4 Sb0 4.050997 1_545
Cs4 Sb4 4.050997 1_455
Cs5 Sb4 3.966033 1_555
Cs5 Sb5 3.966039 1_555
Cs5 Sb7 4.110285 1_554
Cs5 Sb1 4.110297 1_545
Cs6 Sb6 3.966024 1_555
Cs6 Sb0 3.966027 1_555
Cs6 Sb3 4.110299 1_455
Cs6 Sb2 4.110300 1_555
Cs7 Sb4 3.966028 1_555
Cs7 Sb0 3.966037 1_555
Cs7 Sb1 4.110292 1_555
Cs7 Sb3 4.110304 1_554
Cs8 Sb4 3.966033 1_555
Cs8 Sb6 3.966039 1_555
Cs8 Sb7 4.110278 1_555
Cs8 Sb3 4.110297 1_545
Cs9 Sb5 3.966024 1_555
Cs9 Sb0 3.966039 1_555
Cs9 Sb1 4.110299 1_455
Cs9 Sb2 4.110300 1_554
Cs10 Sb2 3.963279 1_545
Cs10 Sb1 3.963285 1_545
Cs10 Sb0 4.050981 1_545
Cs10 Sb5 4.051001 1_555
Cs11 Sb2 3.963280 1_544
Cs11 Sb3 3.963285 1_544
Cs11 Sb0 4.050989 1_545
Cs11 Sb6 4.051000 1_554
Cs12 Sb1 3.963271 1_455
Cs12 Sb7 3.963274 1_455
Cs12 Sb5 4.051003 1_555
Cs12 Sb4 4.051004 1_455
Cs13 Sb3 3.963270 1_454
Cs13 Sb7 3.963285 1_454
Cs13 Sb6 4.051002 1_554
Cs13 Sb4 4.051003 1_455
Cs14 Sb5 3.966029 1_555
Cs14 Sb6 3.966030 1_555
Cs14 Sb7 4.110293 1_455
Cs14 Sb2 4.110293 1_545
Cs15 Sb2 3.963275 1_554
Cs15 Sb7 3.963283 1_554
Cs15 Sb6 4.050996 1_554
Cs15 Sb5 4.051007 1_555
Sb0 Zr0 2.909953 1_555
Sb1 Ti0 2.811870 1_555
Sb2 Ti0 2.811869 1_555
Sb3 Ti0 2.811870 1_555
Sb4 Zr0 2.909947 1_555
Sb5 Zr0 2.909948 1_555
Sb6 Zr0 2.909948 1_555
Sb7 Ti0 2.811875 1_555
