# generated using pymatgen
data_Li11SnAs3P2
_symmetry_space_group_name_H-M   'P 1'
_cell_length_a   7.42707421
_cell_length_b   7.42707419
_cell_length_c   10.56051272
_cell_angle_alpha   62.66772110
_cell_angle_beta   62.66771982
_cell_angle_gamma   33.10488213
_symmetry_Int_Tables_number   1
_chemical_formula_structural   Li11SnAs3P2
_chemical_formula_sum   'Li11 Sn1 As3 P2'
_cell_volume   279.28906227
_cell_formula_units_Z   1
loop_
 _symmetry_equiv_pos_site_id
 _symmetry_equiv_pos_as_xyz
  1  'x, y, z'
loop_
 _atom_site_type_symbol
 _atom_site_label
 _atom_site_symmetry_multiplicity
 _atom_site_fract_x
 _atom_site_fract_y
 _atom_site_fract_z
 _atom_site_occupancy
  Li  Li0  1  0.19338210  0.19338210  0.91992965  1
  Li  Li1  1  0.63619443  0.63619443  0.07855302  1
  Li  Li2  1  0.59904031  0.59904031  0.35472552  1
  Li  Li3  1  0.59017633  0.59017633  0.84884779  1
  Li  Li4  1  0.00634584  0.00634584  0.23365537  1
  Li  Li5  1  0.01891701  0.01891701  0.73296169  1
  Li  Li6  1  0.37345796  0.37345796  0.93169964  1
  Li  Li7  1  0.41116064  0.41116064  0.64405811  1
  Li  Li8  1  0.39796664  0.39796664  0.15614866  1
  Li  Li9  1  0.79561662  0.79561662  0.13078267  1
  Li  Li10  1  0.18820741  0.18820741  0.43274952  1
  Sn  Sn0  1  0.78877429  0.78877429  0.56329976  1
  As  As0  1  0.99413068  0.99413068  0.99825119  1
  As  As1  1  0.39847322  0.39847322  0.40201281  1
  As  As2  1  0.80719891  0.80719891  0.79971926  1
  P  P0  1  0.19548034  0.19548034  0.18095008  1
  P  P1  1  0.60547326  0.60547326  0.59165425  1
loop_
_geom_bond_atom_site_label_1
_geom_bond_atom_site_label_2
_geom_bond_distance
_geom_bond_site_symmetry_2
Li0 Li6 2.625831 1_555
Li0 P0 2.770944 1_556
Li1 P0 2.689525 1_565
Li1 P0 2.689525 1_655
Li2 P1 2.547233 1_555
Li2 P0 2.704879 1_655
Li2 P0 2.704879 1_565
Li3 P1 2.618755 1_555
Li3 Li6 2.775061 1_555
Li3 Sn0 2.986735 1_555
Li4 P0 2.475101 1_555
Li4 Sn0 3.374071 1_445
Li5 P1 2.541854 1_545
Li5 P1 2.541854 1_455
Li5 Li6 3.001214 1_455
Li5 Li6 3.001214 1_545
Li6 Li8 2.555877 1_556
Li6 P0 2.638217 1_556
Li6 Li9 2.809515 1_456
Li6 Li9 2.809515 1_546
Li6 Li7 2.820149 1_555
Li7 P1 2.548383 1_555
Li7 Sn0 3.108845 1_545
Li7 Sn0 3.108845 1_455
Li8 P0 2.767228 1_555
Li9 P0 2.463138 1_565
Li9 P0 2.463138 1_655
Li10 P1 2.605205 1_455
Li10 P1 2.605205 1_545
Li10 P0 2.611111 1_555
Li10 Sn0 3.212405 1_455
Li10 Sn0 3.212405 1_545
As0 Li9 2.481616 1_556
As0 Li0 2.546566 1_665
As0 Li4 2.573832 1_666
As0 Li3 2.601851 1_655
As0 Li3 2.601851 1_565
As0 Li8 2.635362 1_566
As0 Li8 2.635362 1_656
As0 Li5 2.650709 1_665
As0 Li6 3.013334 1_655
As0 Li6 3.013334 1_565
As1 Li8 2.599914 1_555
As1 Li7 2.647408 1_555
As1 Li2 2.653055 1_555
As1 Sn0 2.696157 1_455
As1 Sn0 2.696157 1_545
As1 Li4 2.716837 1_655
As1 Li4 2.716837 1_565
As1 Li10 2.852672 1_555
As2 Li0 2.596943 1_565
As2 Li0 2.596943 1_655
As2 Sn0 2.632464 1_555
As2 Li7 2.653193 1_655
As2 Li7 2.653193 1_565
As2 Li5 2.747478 1_665
As2 Li1 2.780422 1_556
As2 Li3 2.877843 1_555
As2 Li6 2.927375 1_565
As2 Li6 2.927375 1_655
P1 Sn0 2.480482 1_555
