# generated using pymatgen
data_TcAs(Cl2F3)2
_symmetry_space_group_name_H-M   'P 1'
_cell_length_a   8.71239783
_cell_length_b   8.71239783
_cell_length_c   6.27693448
_cell_angle_alpha   90.00000000
_cell_angle_beta   90.00000000
_cell_angle_gamma   90.00000000
_symmetry_Int_Tables_number   1
_chemical_formula_structural   TcAs(Cl2F3)2
_chemical_formula_sum   'Tc2 As2 Cl8 F12'
_cell_volume   476.45621020
_cell_formula_units_Z   2
loop_
 _symmetry_equiv_pos_site_id
 _symmetry_equiv_pos_as_xyz
  1  'x, y, z'
loop_
 _atom_site_type_symbol
 _atom_site_label
 _atom_site_symmetry_multiplicity
 _atom_site_fract_x
 _atom_site_fract_y
 _atom_site_fract_z
 _atom_site_occupancy
  Tc  Tc0  1  0.50000000  0.50000000  0.00000000  1
  Tc  Tc1  1  0.00000000  0.00000000  0.00000000  1
  As  As0  1  0.50000000  0.00000000  0.69684546  1
  As  As1  1  0.00000000  0.50000000  0.30315454  1
  Cl  Cl0  1  0.45526496  0.69337843  0.20288900  1
  Cl  Cl1  1  0.19337843  0.04473504  0.20288900  1
  Cl  Cl2  1  0.69337843  0.54473504  0.79711100  1
  Cl  Cl3  1  0.04473504  0.80662157  0.79711100  1
  Cl  Cl4  1  0.95526496  0.19337843  0.79711100  1
  Cl  Cl5  1  0.30662157  0.45526496  0.79711100  1
  Cl  Cl6  1  0.54473504  0.30662157  0.20288900  1
  Cl  Cl7  1  0.80662157  0.95526496  0.20288900  1
  F  F0  1  0.50000000  0.00000000  0.41906835  1
  F  F1  1  0.00000000  0.50000000  0.58093165  1
  F  F2  1  0.43782654  0.80885563  0.69633966  1
  F  F3  1  0.30885563  0.06217346  0.69633966  1
  F  F4  1  0.69114437  0.93782654  0.69633966  1
  F  F5  1  0.56217346  0.19114437  0.69633966  1
  F  F6  1  0.06217346  0.69114437  0.30366034  1
  F  F7  1  0.19114437  0.43782654  0.30366034  1
  F  F8  1  0.80885563  0.56217346  0.30366034  1
  F  F9  1  0.00000000  0.50000000  0.02675212  1
  F  F10  1  0.50000000  0.00000000  0.97324788  1
  F  F11  1  0.93782654  0.30885563  0.30366034  1
loop_
_geom_bond_atom_site_label_1
_geom_bond_atom_site_label_2
_geom_bond_distance
_geom_bond_site_symmetry_2
As0 F10 1.734960 1_555
As0 F0 1.743589 1_555
As0 F5 1.751210 1_555
As0 F4 1.751210 1_545
As0 F2 1.751210 1_545
As0 F3 1.751210 1_555
As1 F9 1.734960 1_555
As1 F1 1.743589 1_555
As1 F7 1.751210 1_555
As1 F6 1.751210 1_555
As1 F11 1.751210 1_455
As1 F8 1.751210 1_455
Cl0 Tc0 2.147621 1_555
Cl1 Tc1 2.147621 1_555
Cl2 Tc0 2.147621 1_556
Cl3 Tc1 2.147621 1_566
Cl4 Tc1 2.147621 1_656
Cl5 Tc0 2.147621 1_556
Cl6 Tc0 2.147621 1_555
Cl7 Tc1 2.147621 1_665
