# generated using pymatgen
data_HfHg3(TeCl3)2
_symmetry_space_group_name_H-M   'P 1'
_cell_length_a   8.01503339
_cell_length_b   6.66000320
_cell_length_c   13.67948765
_cell_angle_alpha   89.20381703
_cell_angle_beta   90.00000000
_cell_angle_gamma   90.00000000
_symmetry_Int_Tables_number   1
_chemical_formula_structural   HfHg3(TeCl3)2
_chemical_formula_sum   'Hf2 Hg6 Te4 Cl12'
_cell_volume   730.14257478
_cell_formula_units_Z   2
loop_
 _symmetry_equiv_pos_site_id
 _symmetry_equiv_pos_as_xyz
  1  'x, y, z'
loop_
 _atom_site_type_symbol
 _atom_site_label
 _atom_site_symmetry_multiplicity
 _atom_site_fract_x
 _atom_site_fract_y
 _atom_site_fract_z
 _atom_site_occupancy
  Hf  Hf0  1  0.00000000  0.50000000  0.00000000  1
  Hf  Hf1  1  0.50000000  0.50000000  0.50000000  1
  Hg  Hg0  1  0.28602804  0.00070124  0.73831366  1
  Hg  Hg1  1  0.00000000  0.00000000  0.50000000  1
  Hg  Hg2  1  0.78602804  0.99929876  0.76168634  1
  Hg  Hg3  1  0.71397196  0.99929876  0.26168634  1
  Hg  Hg4  1  0.21397196  0.00070124  0.23831366  1
  Hg  Hg5  1  0.50000000  0.00000000  0.00000000  1
  Te  Te0  1  0.97495952  0.21058884  0.33073772  1
  Te  Te1  1  0.02504048  0.78941116  0.66926228  1
  Te  Te2  1  0.52504048  0.21058884  0.83073772  1
  Te  Te3  1  0.47495952  0.78941116  0.16926228  1
  Cl  Cl0  1  0.17251492  0.77700169  0.93886045  1
  Cl  Cl1  1  0.67251492  0.22299831  0.56113955  1
  Cl  Cl2  1  0.24793477  0.33763912  0.07076401  1
  Cl  Cl3  1  0.25206523  0.33763912  0.57076401  1
  Cl  Cl4  1  0.54007989  0.67590647  0.65449409  1
  Cl  Cl5  1  0.95992011  0.67590647  0.15449409  1
  Cl  Cl6  1  0.45992011  0.32409353  0.34550591  1
  Cl  Cl7  1  0.75206523  0.66236088  0.92923599  1
  Cl  Cl8  1  0.32748508  0.77700169  0.43886045  1
  Cl  Cl9  1  0.04007989  0.32409353  0.84550591  1
  Cl  Cl10  1  0.82748508  0.22299831  0.06113955  1
  Cl  Cl11  1  0.74793477  0.66236088  0.42923599  1
loop_
_geom_bond_atom_site_label_1
_geom_bond_atom_site_label_2
_geom_bond_distance
_geom_bond_site_symmetry_2
Hg0 Te2 2.696567 1_555
Hg0 Te1 2.699093 1_545
Hg1 Te1 2.697828 1_545
Hg1 Te0 2.697828 1_455
Hg2 Te1 2.696567 1_655
Hg2 Te2 2.699093 1_565
Hg3 Te3 2.696567 1_555
Hg3 Te0 2.699093 1_565
Hg4 Te0 2.696567 1_455
Hg4 Te3 2.699093 1_545
Hg5 Te3 2.697828 1_545
Hg5 Te2 2.697828 1_554
Cl0 Hf0 2.443750 1_556
Cl1 Hf1 2.443750 1_555
Cl2 Hf0 2.454834 1_555
Cl3 Hf1 2.454834 1_555
Cl4 Hf1 2.451727 1_555
Cl5 Hf0 2.451727 1_655
Cl6 Hf1 2.451727 1_555
Cl7 Hf0 2.454834 1_656
Cl8 Hf1 2.443750 1_555
Cl9 Hf0 2.451727 1_556
Cl10 Hf0 2.443750 1_655
Cl11 Hf1 2.454834 1_555
