# generated using pymatgen
data_K3Na2HfP3
_symmetry_space_group_name_H-M   'P 1'
_cell_length_a   10.54736894
_cell_length_b   10.54736974
_cell_length_c   14.83452929
_cell_angle_alpha   90.00000000
_cell_angle_beta   90.00000000
_cell_angle_gamma   142.74111352
_symmetry_Int_Tables_number   1
_chemical_formula_structural   K3Na2HfP3
_chemical_formula_sum   'K12 Na8 Hf4 P12'
_cell_volume   999.11851119
_cell_formula_units_Z   4
loop_
 _symmetry_equiv_pos_site_id
 _symmetry_equiv_pos_as_xyz
  1  'x, y, z'
loop_
 _atom_site_type_symbol
 _atom_site_label
 _atom_site_symmetry_multiplicity
 _atom_site_fract_x
 _atom_site_fract_y
 _atom_site_fract_z
 _atom_site_occupancy
  K  K0  1  0.10546003  0.44617777  0.67843528  1
  K  K1  1  0.72219985  0.72219985  0.68589923  1
  K  K2  1  0.22219985  0.22219985  0.81410077  1
  K  K3  1  0.77780015  0.77780015  0.18589923  1
  K  K4  1  0.94617777  0.60546003  0.82156472  1
  K  K5  1  0.55382223  0.89453997  0.32156472  1
  K  K6  1  0.39453997  0.05382223  0.17843528  1
  K  K7  1  0.05382223  0.39453997  0.17843528  1
  K  K8  1  0.89453997  0.55382223  0.32156472  1
  K  K9  1  0.44617777  0.10546003  0.67843528  1
  K  K10  1  0.60546003  0.94617877  0.82156472  1
  K  K11  1  0.27780015  0.27780015  0.31410077  1
  Na  Na0  1  0.92010339  0.07989661  0.00000000  1
  Na  Na1  1  0.57989661  0.42010339  0.50000000  1
  Na  Na2  1  0.07989661  0.92010339  0.00000000  1
  Na  Na3  1  0.42010339  0.57989661  0.50000000  1
  Na  Na4  1  0.75628205  0.24371795  0.00000000  1
  Na  Na5  1  0.74371795  0.25628205  0.50000000  1
  Na  Na6  1  0.24371795  0.75628205  0.00000000  1
  Na  Na7  1  0.25628205  0.74371795  0.50000000  1
  Hf  Hf0  1  0.08594191  0.91405809  0.50000000  1
  Hf  Hf1  1  0.41405809  0.58594191  0.00000000  1
  Hf  Hf2  1  0.91405809  0.08594191  0.50000000  1
  Hf  Hf3  1  0.58594191  0.41405809  0.00000000  1
  P  P0  1  0.87061214  0.55858304  0.09940180  1
  P  P1  1  0.44141696  0.12938786  0.90059820  1
  P  P2  1  0.62938786  0.94141696  0.59940180  1
  P  P3  1  0.94141696  0.62938786  0.59940180  1
  P  P4  1  0.12938786  0.44141696  0.90059820  1
  P  P5  1  0.55858304  0.87061214  0.09940180  1
  P  P6  1  0.37061214  0.05858304  0.40059820  1
  P  P7  1  0.20072479  0.20072479  0.58994492  1
  P  P8  1  0.70072479  0.70072479  0.91005508  1
  P  P9  1  0.29927521  0.29927521  0.08994492  1
  P  P10  1  0.05858304  0.37061214  0.40059820  1
  P  P11  1  0.79927521  0.79927521  0.41005508  1
loop_
_geom_bond_atom_site_label_1
_geom_bond_atom_site_label_2
_geom_bond_distance
_geom_bond_site_symmetry_2
K0 P4 3.308763 1_555
K0 P2 3.518251 1_445
K0 P2 3.639842 1_555
K0 P3 3.663950 1_455
K0 P7 3.684551 1_555
K1 P8 3.328394 1_555
K1 P3 3.399092 1_555
K1 P2 3.399092 1_555
K1 P7 3.524806 1_665
K1 P7 3.791383 1_555
K2 P7 3.328394 1_555
K2 P1 3.399092 1_555
K2 P4 3.399092 1_555
K2 P8 3.524806 1_555
K2 P8 3.791383 1_445
K3 P11 3.328394 1_555
K3 P5 3.399092 1_555
K3 P0 3.399092 1_555
K3 P9 3.524806 1_555
K3 P9 3.791383 1_665
K4 P3 3.308763 1_555
K4 P1 3.518251 1_555
K4 P1 3.639842 1_665
K4 P4 3.663950 1_655
K4 P8 3.684551 1_555
K5 P5 3.308763 1_555
K5 P10 3.518251 1_665
K5 P10 3.639842 1_555
K5 P6 3.663950 1_565
K5 P11 3.684551 1_555
K6 P6 3.308763 1_555
K6 P0 3.518251 1_555
K6 P0 3.639842 1_445
K6 P5 3.663950 1_545
K6 P9 3.684551 1_555
K7 P10 3.308763 1_555
K7 P5 3.518251 1_555
K7 P5 3.639842 1_445
K7 P0 3.663950 1_455
K7 P9 3.684551 1_555
K8 P0 3.308763 1_555
K8 P6 3.518251 1_665
K8 P6 3.639842 1_555
K8 P10 3.663950 1_655
K8 P11 3.684551 1_555
K9 P1 3.308763 1_555
K9 P3 3.518251 1_445
K9 P3 3.639842 1_555
K9 P2 3.663950 1_545
K9 P7 3.684551 1_555
K10 P2 3.308763 1_555
K10 P4 3.518255 1_555
K10 P4 3.639840 1_665
K10 P1 3.663940 1_565
K10 P8 3.684561 1_555
K11 P9 3.328394 1_555
K11 P10 3.399092 1_555
K11 P6 3.399092 1_555
K11 P11 3.524806 1_445
K11 P11 3.791383 1_555
Na0 P5 2.861521 1_545
Na0 P4 2.861522 1_654
Na0 P9 2.897954 1_655
Na0 P8 2.897954 1_544
Na1 P3 2.861521 1_555
Na1 P6 2.861522 1_555
Na1 P7 2.897954 1_555
Na1 P11 2.897954 1_555
Na2 P1 2.861521 1_564
Na2 P0 2.861522 1_455
Na2 P8 2.897954 1_454
Na2 P9 2.897954 1_565
Na3 P10 2.861521 1_555
Na3 P2 2.861522 1_555
Na3 P11 2.897954 1_555
Na3 P7 2.897954 1_555
Na4 P1 2.877980 1_554
Na4 P0 2.877980 1_555
Na4 P4 2.991101 1_654
Na4 P5 2.991101 1_545
Na5 P10 2.877980 1_655
Na5 P2 2.877980 1_545
Na5 P6 2.991101 1_555
Na5 P3 2.991101 1_555
Na6 P5 2.877980 1_555
Na6 P4 2.877980 1_554
Na6 P0 2.991101 1_455
Na6 P1 2.991101 1_564
Na7 P3 2.877980 1_455
Na7 P6 2.877980 1_565
Na7 P2 2.991101 1_555
Na7 P10 2.991101 1_555
Hf0 P6 2.495511 1_565
Hf0 P3 2.495511 1_455
Hf0 P11 2.561481 1_455
Hf0 P7 2.561481 1_565
Hf1 P4 2.495511 1_554
Hf1 P5 2.495511 1_555
Hf1 P8 2.561481 1_554
Hf1 P9 2.561481 1_555
Hf2 P2 2.495511 1_545
Hf2 P10 2.495511 1_655
Hf2 P7 2.561481 1_655
Hf2 P11 2.561481 1_545
Hf3 P0 2.495511 1_555
Hf3 P1 2.495511 1_554
Hf3 P9 2.561481 1_555
Hf3 P8 2.561481 1_554
