# generated using pymatgen
data_Ca8ScTaN8
_symmetry_space_group_name_H-M   'P 1'
_cell_length_a   6.07364920
_cell_length_b   6.07602248
_cell_length_c   9.24296602
_cell_angle_alpha   70.74809130
_cell_angle_beta   81.34406065
_cell_angle_gamma   68.66104506
_symmetry_Int_Tables_number   1
_chemical_formula_structural   Ca8ScTaN8
_chemical_formula_sum   'Ca8 Sc1 Ta1 N8'
_cell_volume   299.76668623
_cell_formula_units_Z   1
loop_
 _symmetry_equiv_pos_site_id
 _symmetry_equiv_pos_as_xyz
  1  'x, y, z'
loop_
 _atom_site_type_symbol
 _atom_site_label
 _atom_site_symmetry_multiplicity
 _atom_site_fract_x
 _atom_site_fract_y
 _atom_site_fract_z
 _atom_site_occupancy
  Ca  Ca0  1  0.24638170  0.94325215  0.60305029  1
  Ca  Ca1  1  0.73418999  0.61706554  0.18825485  1
  Ca  Ca2  1  0.75426691  0.24354836  0.99029683  1
  Ca  Ca3  1  0.26023083  0.52733749  0.42639359  1
  Ca  Ca4  1  0.75375684  0.05145014  0.41045305  1
  Ca  Ca5  1  0.26484420  0.38445960  0.80397066  1
  Ca  Ca6  1  0.73226088  0.47747876  0.57993276  1
  Ca  Ca7  1  0.24855261  0.75590257  0.00555078  1
  Sc  Sc0  1  0.72037260  0.84382551  0.76488511  1
  Ta  Ta0  1  0.28270026  0.15733513  0.23961841  1
  N  N0  1  0.98621334  0.69646570  0.60899557  1
  N  N1  1  0.50914509  0.18848579  0.61607154  1
  N  N2  1  0.02402037  0.29576993  0.37610676  1
  N  N3  1  0.50778924  0.61784158  0.80197408  1
  N  N4  1  0.16095643  0.14654078  0.05980168  1
  N  N5  1  0.48050820  0.83146504  0.36919462  1
  N  N6  1  0.48092135  0.36888214  0.19785649  1
  N  N7  1  0.85289016  0.85289378  0.95759091  1
loop_
_geom_bond_atom_site_label_1
_geom_bond_atom_site_label_2
_geom_bond_distance
_geom_bond_site_symmetry_2
Ca0 N3 2.451016 1_555
Ca0 N0 2.528305 1_455
Ca0 N5 2.548659 1_555
Ca0 N2 2.568351 1_565
Ca0 N1 2.586202 1_565
Ca1 N7 2.322291 1_554
Ca1 N5 2.463395 1_555
Ca1 N2 2.471509 1_655
Ca1 N6 2.491371 1_555
Ca2 N7 2.338422 1_545
Ca2 N4 2.455574 1_656
Ca2 N6 2.470088 1_556
Ca2 N3 2.477730 1_555
Ca3 N0 2.393335 1_455
Ca3 N1 2.398001 1_555
Ca3 N2 2.520913 1_555
Ca3 N5 2.534999 1_555
Ca3 N6 2.595258 1_555
Ca4 N1 2.409541 1_555
Ca4 N0 2.442677 1_545
Ca4 N2 2.510927 1_655
Ca4 N6 2.546001 1_555
Ca4 N5 2.612928 1_545
Ca5 N3 2.384487 1_555
Ca5 N1 2.436808 1_555
Ca5 N0 2.456775 1_455
Ca5 N4 2.457628 1_556
Ca6 N0 2.464882 1_555
Ca6 N1 2.497984 1_555
Ca6 N3 2.502786 1_555
Ca6 N5 2.549216 1_555
Ca6 N2 2.617504 1_655
Ca7 N7 2.331625 1_454
Ca7 N3 2.431313 1_554
Ca7 N4 2.440013 1_565
Ca7 N6 2.502887 1_555
N0 Sc0 2.140838 1_555
N1 Sc0 2.144699 1_545
N2 Ta0 1.977086 1_555
N3 Sc0 2.125221 1_555
N4 Ta0 1.946929 1_555
N5 Ta0 1.984009 1_565
N6 Ta0 1.977306 1_555
N7 Sc0 2.086128 1_555
