# generated using pymatgen
data_Ga2SnI8
_symmetry_space_group_name_H-M   'P 1'
_cell_length_a   7.80878299
_cell_length_b   8.34708282
_cell_length_c   15.27949451
_cell_angle_alpha   87.81945210
_cell_angle_beta   90.00000000
_cell_angle_gamma   90.00000000
_symmetry_Int_Tables_number   1
_chemical_formula_structural   Ga2SnI8
_chemical_formula_sum   'Ga4 Sn2 I16'
_cell_volume   995.20482504
_cell_formula_units_Z   2
loop_
 _symmetry_equiv_pos_site_id
 _symmetry_equiv_pos_as_xyz
  1  'x, y, z'
loop_
 _atom_site_type_symbol
 _atom_site_label
 _atom_site_symmetry_multiplicity
 _atom_site_fract_x
 _atom_site_fract_y
 _atom_site_fract_z
 _atom_site_occupancy
  Ga  Ga0  1  0.93532855  0.21870370  0.57995409  1
  Ga  Ga1  1  0.06467145  0.21870370  0.07995409  1
  Ga  Ga2  1  0.56888842  0.64414069  0.77722109  1
  Ga  Ga3  1  0.43111158  0.64414069  0.27722109  1
  Sn  Sn0  1  0.75863287  0.07443743  0.81151030  1
  Sn  Sn1  1  0.24136713  0.07443743  0.31151030  1
  I  I0  1  0.41869188  0.61983681  0.63394612  1
  I  I1  1  0.58130812  0.61983681  0.13394612  1
  I  I2  1  0.88787085  0.73158756  0.75813070  1
  I  I3  1  0.11212915  0.73158756  0.25813070  1
  I  I4  1  0.94448558  0.47856106  0.49372607  1
  I  I5  1  0.05551442  0.47856106  0.99372607  1
  I  I6  1  0.92903149  0.98038140  0.00163657  1
  I  I7  1  0.07096851  0.98038140  0.50163657  1
  I  I8  1  0.62232935  0.13079151  0.61883203  1
  I  I9  1  0.37767065  0.13079151  0.11883203  1
  I  I10  1  0.55305671  0.38756345  0.87778163  1
  I  I11  1  0.44694329  0.38756345  0.37778163  1
  I  I12  1  0.42960955  0.86639588  0.86948750  1
  I  I13  1  0.57039045  0.86639588  0.36948750  1
  I  I14  1  0.90768675  0.23499852  0.22997590  1
  I  I15  1  0.09231325  0.23499852  0.72997590  1
loop_
_geom_bond_atom_site_label_1
_geom_bond_atom_site_label_2
_geom_bond_distance
_geom_bond_site_symmetry_2
Ga0 I4 2.495654 1_555
Ga0 I7 2.586946 1_645
Ga0 I15 2.607566 1_655
Ga0 I8 2.613813 1_555
Ga1 I5 2.495654 1_554
Ga1 I6 2.586946 1_445
Ga1 I14 2.607566 1_455
Ga1 I9 2.613813 1_555
Ga2 I0 2.498598 1_555
Ga2 I10 2.590850 1_555
Ga2 I2 2.608847 1_555
Ga2 I12 2.609806 1_555
Ga3 I1 2.498598 1_555
Ga3 I11 2.590850 1_555
Ga3 I3 2.608847 1_555
Ga3 I13 2.609806 1_555
I2 Sn0 3.170361 1_565
I3 Sn1 3.170361 1_565
I6 Sn0 3.263824 1_564
I7 Sn1 3.263824 1_565
I8 Sn0 3.148976 1_555
I9 Sn1 3.148976 1_555
I10 Sn0 3.261150 1_555
I11 Sn1 3.261150 1_555
I12 Sn0 3.206933 1_565
I13 Sn1 3.206933 1_565
I14 Sn1 3.163938 1_655
I15 Sn0 3.163938 1_455
