# generated using pymatgen
data_K3In(BPt3)2
_symmetry_space_group_name_H-M   'P 1'
_cell_length_a   8.26843813
_cell_length_b   8.26843777
_cell_length_c   8.26843646
_cell_angle_alpha   40.52354628
_cell_angle_beta   40.52354688
_cell_angle_gamma   40.52355153
_symmetry_Int_Tables_number   1
_chemical_formula_structural   K3In(BPt3)2
_chemical_formula_sum   'K3 In1 B2 Pt6'
_cell_volume   215.25548672
_cell_formula_units_Z   1
loop_
 _symmetry_equiv_pos_site_id
 _symmetry_equiv_pos_as_xyz
  1  'x, y, z'
loop_
 _atom_site_type_symbol
 _atom_site_label
 _atom_site_symmetry_multiplicity
 _atom_site_fract_x
 _atom_site_fract_y
 _atom_site_fract_z
 _atom_site_occupancy
  K  K0  1  0.86208785  0.86208785  0.86208785  1
  K  K1  1  0.13791215  0.13791215  0.13791215  1
  K  K2  1  0.00000000  0.00000000  0.00000000  1
  In  In0  1  0.50000000  0.50000000  0.50000000  1
  B  B0  1  0.66863444  0.66863444  0.66863444  1
  B  B1  1  0.33136556  0.33136556  0.33136556  1
  Pt  Pt0  1  0.43789103  0.93518316  0.43789103  1
  Pt  Pt1  1  0.43789103  0.43789103  0.93518316  1
  Pt  Pt2  1  0.93518316  0.43789103  0.43789103  1
  Pt  Pt3  1  0.56210897  0.06481684  0.56210897  1
  Pt  Pt4  1  0.56210897  0.56210897  0.06481684  1
  Pt  Pt5  1  0.06481684  0.56210897  0.56210897  1
loop_
_geom_bond_atom_site_label_1
_geom_bond_atom_site_label_2
_geom_bond_distance
_geom_bond_site_symmetry_2
K0 K2 3.135529 1_666
K0 Pt2 3.331561 1_556
K0 Pt0 3.331561 1_556
K0 Pt2 3.331561 1_565
K0 Pt1 3.331562 1_565
K0 Pt0 3.331562 1_655
K0 Pt1 3.331562 1_655
K0 Pt5 3.438813 1_655
K0 Pt3 3.438813 1_565
K0 Pt4 3.438814 1_556
K1 K2 3.135529 1_555
K1 Pt5 3.331561 1_554
K1 Pt3 3.331561 1_554
K1 Pt5 3.331561 1_545
K1 Pt4 3.331562 1_545
K1 Pt3 3.331562 1_455
K1 Pt4 3.331562 1_455
K1 Pt2 3.438813 1_455
K1 Pt0 3.438813 1_545
K1 Pt1 3.438814 1_554
K2 Pt5 3.201836 1_545
K2 Pt2 3.201836 1_454
K2 Pt3 3.201836 1_455
K2 Pt0 3.201836 1_544
K2 Pt5 3.201836 1_554
K2 Pt2 3.201836 1_445
K2 Pt3 3.201836 1_554
K2 Pt0 3.201836 1_445
K2 Pt4 3.201836 1_455
K2 Pt1 3.201836 1_544
K2 Pt4 3.201837 1_545
K2 Pt1 3.201837 1_454
In0 Pt1 2.873581 1_555
In0 Pt4 2.873581 1_555
In0 Pt0 2.873582 1_555
In0 Pt3 2.873582 1_555
In0 Pt2 2.873582 1_555
In0 Pt5 2.873582 1_555
In0 K0 3.370428 1_554
In0 K1 3.370428 1_556
In0 K0 3.370429 1_545
In0 K1 3.370429 1_565
In0 K0 3.370429 1_455
In0 K1 3.370429 1_655
B0 Pt4 2.165404 1_556
B0 Pt3 2.165404 1_565
B0 Pt5 2.165405 1_655
B0 Pt2 2.210462 1_555
B0 Pt0 2.210462 1_555
B0 Pt1 2.210462 1_555
B0 K2 3.306719 1_665
B0 K2 3.306720 1_656
B0 K2 3.306720 1_566
B1 Pt1 2.165404 1_554
B1 Pt0 2.165404 1_545
B1 Pt2 2.165405 1_455
B1 Pt5 2.210462 1_555
B1 Pt3 2.210462 1_555
B1 Pt4 2.210462 1_555
B1 K2 3.306719 1_556
B1 K2 3.306720 1_565
B1 K2 3.306720 1_655
