# generated using pymatgen
data_NiOs2F12
_symmetry_space_group_name_H-M   'P 1'
_cell_length_a   5.38341235
_cell_length_b   10.80414048
_cell_length_c   5.39837072
_cell_angle_alpha   54.78522921
_cell_angle_beta   54.82044815
_cell_angle_gamma   55.07553684
_symmetry_Int_Tables_number   1
_chemical_formula_structural   NiOs2F12
_chemical_formula_sum   'Ni1 Os2 F12'
_cell_volume   195.62902007
_cell_formula_units_Z   1
loop_
 _symmetry_equiv_pos_site_id
 _symmetry_equiv_pos_as_xyz
  1  'x, y, z'
loop_
 _atom_site_type_symbol
 _atom_site_label
 _atom_site_symmetry_multiplicity
 _atom_site_fract_x
 _atom_site_fract_y
 _atom_site_fract_z
 _atom_site_occupancy
  Ni  Ni0  1  0.00000000  0.50000000  0.00000000  1
  Os  Os0  1  0.49503332  0.24417654  0.51177480  1
  Os  Os1  1  0.50496668  0.75582346  0.48822520  1
  F  F0  1  0.10747500  0.20804976  0.73563423  1
  F  F1  1  0.11891340  0.69631092  0.74353607  1
  F  F2  1  0.39334953  0.37423246  0.11517193  1
  F  F3  1  0.41621708  0.86659607  0.11218107  1
  F  F4  1  0.73422743  0.06096173  0.40732082  1
  F  F5  1  0.74480865  0.55634718  0.39514690  1
  F  F6  1  0.25519135  0.44365282  0.60485310  1
  F  F7  1  0.26577257  0.93903827  0.59267918  1
  F  F8  1  0.58378292  0.13340393  0.88781893  1
  F  F9  1  0.60665047  0.62576754  0.88482807  1
  F  F10  1  0.88108660  0.30368908  0.25646393  1
  F  F11  1  0.89252500  0.79195024  0.26436577  1
loop_
_geom_bond_atom_site_label_1
_geom_bond_atom_site_label_2
_geom_bond_distance
_geom_bond_site_symmetry_2
F0 Os0 1.857123 1_555
F1 Os1 1.959513 1_555
F1 Ni0 1.992967 1_556
F2 Os0 1.964229 1_555
F2 Ni0 1.991275 1_555
F3 Os1 1.855408 1_555
F4 Os0 1.851087 1_555
F5 Os1 1.969652 1_555
F5 Ni0 1.992878 1_655
F6 Os0 1.969652 1_555
F6 Ni0 1.992878 1_556
F7 Os1 1.851087 1_555
F8 Os0 1.855408 1_555
F9 Os1 1.964229 1_555
F9 Ni0 1.991275 1_656
F10 Os0 1.959513 1_555
F10 Ni0 1.992967 1_655
F11 Os1 1.857123 1_555
