# generated using pymatgen
data_Na2In(SiPd2)3
_symmetry_space_group_name_H-M   'P 1'
_cell_length_a   6.82070525
_cell_length_b   6.74651422
_cell_length_c   6.82070544
_cell_angle_alpha   129.54957250
_cell_angle_beta   115.28303562
_cell_angle_gamma   86.70163150
_symmetry_Int_Tables_number   1
_chemical_formula_structural   Na2In(SiPd2)3
_chemical_formula_sum   'Na2 In1 Si3 Pd6'
_cell_volume   208.22339181
_cell_formula_units_Z   1
loop_
 _symmetry_equiv_pos_site_id
 _symmetry_equiv_pos_as_xyz
  1  'x, y, z'
loop_
 _atom_site_type_symbol
 _atom_site_label
 _atom_site_symmetry_multiplicity
 _atom_site_fract_x
 _atom_site_fract_y
 _atom_site_fract_z
 _atom_site_occupancy
  Na  Na0  1  0.99971735  0.97751717  0.97779981  1
  Na  Na1  1  0.50117606  0.05682096  0.55564489  1
  In  In0  1  0.35656608  0.41931821  0.06275213  1
  Si  Si0  1  0.80834268  0.24674497  0.43840229  1
  Si  Si1  1  0.65186058  0.70481051  0.05294994  1
  Si  Si2  1  0.19475700  0.63282994  0.43807294  1
  Pd  Pd0  1  0.93844937  0.49931320  0.94842433  1
  Pd  Pd1  1  0.55088787  0.49931320  0.56086383  1
  Pd  Pd2  1  0.02742941  0.98649192  0.52065823  1
  Pd  Pd3  1  0.80657735  0.48767451  0.28927296  1
  Pd  Pd4  1  0.19840155  0.48767451  0.68109715  1
  Pd  Pd5  1  0.46583469  0.98649192  0.95906251  1
loop_
_geom_bond_atom_site_label_1
_geom_bond_atom_site_label_2
_geom_bond_distance
_geom_bond_site_symmetry_2
Na0 Pd0 3.143824 1_555
Na0 Pd1 3.143829 1_555
Na0 Pd4 3.188021 1_655
Na0 Pd3 3.188021 1_555
Na0 Pd2 3.241396 1_655
Na0 Pd5 3.241403 1_655
Na0 Si2 3.256598 1_666
Na0 Pd3 3.263705 1_566
Na0 Pd4 3.263705 1_666
Na0 Si0 3.291793 1_566
Na1 Pd1 2.999829 1_555
Na1 Pd0 2.999830 1_555
Na1 Si2 3.086825 1_545
Na1 Si0 3.116981 1_555
Na1 Pd5 3.177553 1_545
Na1 Pd2 3.177556 1_545
Na1 Si1 3.213787 1_556
Na1 Si1 3.288159 1_545
Na1 Pd4 3.331275 1_555
Na1 Pd3 3.331275 1_556
In0 Pd2 2.674369 1_544
In0 Pd5 2.674371 1_544
In0 Pd4 2.688064 1_554
In0 Pd3 2.688064 1_555
In0 Si2 2.716744 1_555
In0 Pd0 2.737089 1_454
In0 Pd1 2.737089 1_555
In0 Si1 2.914846 1_555
In0 Na1 3.164666 1_565
In0 Na1 3.283521 1_554
In0 Na0 3.546084 1_444
Si0 Si1 2.688811 1_545
Pd0 Si0 2.404325 1_555
Pd0 Si1 2.423050 1_556
Pd0 Si2 2.526744 1_656
Pd0 Pd3 2.871722 1_556
Pd0 Pd4 3.006275 1_655
Pd1 Si0 2.404331 1_555
Pd1 Si1 2.423049 1_556
Pd1 Si2 2.526739 1_555
Pd1 Pd4 2.871715 1_555
Pd1 Pd3 3.006281 1_555
Pd2 Si2 2.415984 1_555
Pd2 Si0 2.422202 1_465
Pd2 Si1 2.491925 1_455
Pd2 Pd3 2.806059 1_455
Pd2 Pd4 2.939694 1_565
Pd3 Si2 2.395096 1_655
Pd3 Si0 2.402001 1_555
Pd3 Si1 2.689607 1_555
Pd3 Pd4 2.860742 1_655
Pd3 Pd5 2.939690 1_544
Pd4 Si2 2.395096 1_555
Pd4 Si0 2.402001 1_455
Pd4 Si1 2.689607 1_556
Pd4 Pd5 2.806062 1_555
Pd5 Si2 2.415986 1_555
Pd5 Si0 2.422199 1_566
Pd5 Si1 2.491922 1_556
