# generated using pymatgen
data_Al9Ga3Fe4
_symmetry_space_group_name_H-M   'P 1'
_cell_length_a   6.16679048
_cell_length_b   6.20441251
_cell_length_c   6.38008695
_cell_angle_alpha   90.00000000
_cell_angle_beta   90.00000000
_cell_angle_gamma   89.95910675
_symmetry_Int_Tables_number   1
_chemical_formula_structural   Al9Ga3Fe4
_chemical_formula_sum   'Al9 Ga3 Fe4'
_cell_volume   244.11043544
_cell_formula_units_Z   1
loop_
 _symmetry_equiv_pos_site_id
 _symmetry_equiv_pos_as_xyz
  1  'x, y, z'
loop_
 _atom_site_type_symbol
 _atom_site_label
 _atom_site_symmetry_multiplicity
 _atom_site_fract_x
 _atom_site_fract_y
 _atom_site_fract_z
 _atom_site_occupancy
  Al  Al0  1  0.84388898  0.15660653  0.76496665  1
  Al  Al1  1  0.65699970  0.65622586  0.73602661  1
  Al  Al2  1  0.15611102  0.84339347  0.23503335  1
  Al  Al3  1  0.15611102  0.84339347  0.76496665  1
  Al  Al4  1  0.00000000  0.50000000  0.00000000  1
  Al  Al5  1  0.34300030  0.34377414  0.26397339  1
  Al  Al6  1  0.65699970  0.65622586  0.26397339  1
  Al  Al7  1  0.84388898  0.15660653  0.23503335  1
  Al  Al8  1  0.34300030  0.34377414  0.73602661  1
  Ga  Ga0  1  0.50000000  0.00000000  0.50000000  1
  Ga  Ga1  1  0.00000000  0.50000000  0.50000000  1
  Ga  Ga2  1  0.50000000  0.00000000  0.00000000  1
  Fe  Fe0  1  0.34477513  0.65583201  0.50000000  1
  Fe  Fe1  1  0.65522487  0.34416799  0.50000000  1
  Fe  Fe2  1  0.84552377  0.84367673  0.00000000  1
  Fe  Fe3  1  0.15447623  0.15632327  0.00000000  1
loop_
_geom_bond_atom_site_label_1
_geom_bond_atom_site_label_2
_geom_bond_distance
_geom_bond_site_symmetry_2
Al0 Fe1 2.358756 1_555
Al0 Fe3 2.432504 1_656
Al0 Fe2 2.453217 1_546
Al0 Al3 2.734645 1_645
Al0 Ga2 2.773622 1_556
Al0 Al4 2.778055 1_656
Al0 Ga0 2.881355 1_555
Al0 Ga1 2.885622 1_655
Al0 Al7 2.999066 1_556
Al1 Fe2 2.354273 1_556
Al1 Fe0 2.444364 1_555
Al1 Fe1 2.452839 1_555
Al1 Al8 2.740980 1_555
Al1 Ga1 2.770985 1_655
Al1 Ga0 2.784136 1_565
Al1 Al4 2.871786 1_656
Al1 Ga2 2.884477 1_566
Al1 Al6 3.011741 1_555
Al2 Fe0 2.358756 1_555
Al2 Fe2 2.432504 1_455
Al2 Fe3 2.453217 1_565
Al2 Al7 2.734645 1_465
Al2 Ga2 2.773622 1_565
Al2 Al4 2.778055 1_555
Al2 Ga0 2.881355 1_565
Al2 Ga1 2.885622 1_555
Al2 Al3 2.999066 1_554
Al3 Fe0 2.358756 1_555
Al3 Fe2 2.432504 1_456
Al3 Fe3 2.453217 1_566
Al3 Ga2 2.773622 1_566
Al3 Al4 2.778055 1_556
Al3 Ga0 2.881355 1_565
Al3 Ga1 2.885622 1_555
Al4 Fe2 2.334812 1_455
Al4 Fe3 2.334812 1_555
Al4 Al7 2.778055 1_455
Al4 Al5 2.871786 1_555
Al4 Al6 2.871786 1_455
Al4 Al8 2.871786 1_554
Al5 Fe3 2.354273 1_555
Al5 Fe1 2.444364 1_555
Al5 Fe0 2.452839 1_555
Al5 Al6 2.740980 1_555
Al5 Ga1 2.770985 1_555
Al5 Ga0 2.784136 1_555
Al5 Ga2 2.884477 1_555
Al5 Al8 3.011741 1_555
Al6 Fe2 2.354273 1_555
Al6 Fe0 2.444364 1_555
Al6 Fe1 2.452839 1_555
Al6 Ga1 2.770985 1_655
Al6 Ga0 2.784136 1_565
Al6 Ga2 2.884477 1_565
Al7 Fe1 2.358756 1_555
Al7 Fe3 2.432504 1_655
Al7 Fe2 2.453217 1_545
Al7 Ga2 2.773622 1_555
Al7 Ga0 2.881355 1_555
Al7 Ga1 2.885622 1_655
Al8 Fe3 2.354273 1_556
Al8 Fe1 2.444364 1_555
Al8 Fe0 2.452839 1_555
Al8 Ga1 2.770985 1_555
Al8 Ga0 2.784136 1_555
Al8 Ga2 2.884477 1_556
Fe0 Ga1 2.336293 1_555
Fe0 Ga0 2.340724 1_565
Fe0 Fe1 2.720130 1_555
Fe1 Ga1 2.336293 1_655
Fe1 Ga0 2.340724 1_555
Fe2 Ga2 2.340499 1_565
Fe3 Ga2 2.340499 1_555
