# generated using pymatgen
data_RbNa(GaSb)3
_symmetry_space_group_name_H-M   'P 1'
_cell_length_a   4.36207442
_cell_length_b   7.32787752
_cell_length_c   28.85525574
_cell_angle_alpha   90.00000000
_cell_angle_beta   90.00000000
_cell_angle_gamma   90.00000000
_symmetry_Int_Tables_number   1
_chemical_formula_structural   RbNa(GaSb)3
_chemical_formula_sum   'Rb4 Na4 Ga12 Sb12'
_cell_volume   922.35095123
_cell_formula_units_Z   4
loop_
 _symmetry_equiv_pos_site_id
 _symmetry_equiv_pos_as_xyz
  1  'x, y, z'
loop_
 _atom_site_type_symbol
 _atom_site_label
 _atom_site_symmetry_multiplicity
 _atom_site_fract_x
 _atom_site_fract_y
 _atom_site_fract_z
 _atom_site_occupancy
  Rb  Rb0  1  0.25000000  0.22995372  0.49622971  1
  Rb  Rb1  1  0.75000000  0.77004628  0.50377029  1
  Rb  Rb2  1  0.75000000  0.72995372  0.00377029  1
  Rb  Rb3  1  0.25000000  0.27004628  0.99622971  1
  Na  Na0  1  0.25000000  0.24599064  0.81201372  1
  Na  Na1  1  0.75000000  0.75400936  0.18798628  1
  Na  Na2  1  0.75000000  0.74599064  0.68798628  1
  Na  Na3  1  0.25000000  0.25400936  0.31201372  1
  Ga  Ga0  1  0.25000000  0.54771067  0.62811624  1
  Ga  Ga1  1  0.75000000  0.45228933  0.37188376  1
  Ga  Ga2  1  0.75000000  0.04771067  0.87188376  1
  Ga  Ga3  1  0.25000000  0.95228933  0.12811624  1
  Ga  Ga4  1  0.25000000  0.07134397  0.21063808  1
  Ga  Ga5  1  0.75000000  0.92865603  0.78936192  1
  Ga  Ga6  1  0.75000000  0.57134397  0.28936192  1
  Ga  Ga7  1  0.25000000  0.42865603  0.71063808  1
  Ga  Ga8  1  0.75000000  0.40264840  0.13216847  1
  Ga  Ga9  1  0.25000000  0.59735160  0.86783153  1
  Ga  Ga10  1  0.25000000  0.90264840  0.36783153  1
  Ga  Ga11  1  0.75000000  0.09735160  0.63216847  1
  Sb  Sb0  1  0.75000000  0.20714258  0.72231393  1
  Sb  Sb1  1  0.25000000  0.79285742  0.27768607  1
  Sb  Sb2  1  0.25000000  0.70714258  0.77768607  1
  Sb  Sb3  1  0.75000000  0.29285742  0.22231393  1
  Sb  Sb4  1  0.25000000  0.90833207  0.60520985  1
  Sb  Sb5  1  0.75000000  0.09166793  0.39479015  1
  Sb  Sb6  1  0.75000000  0.40833207  0.89479015  1
  Sb  Sb7  1  0.25000000  0.59166793  0.10520985  1
  Sb  Sb8  1  0.75000000  0.40958095  0.58656555  1
  Sb  Sb9  1  0.25000000  0.59041905  0.41343445  1
  Sb  Sb10  1  0.25000000  0.90958095  0.91343445  1
  Sb  Sb11  1  0.75000000  0.09041905  0.08656555  1
loop_
_geom_bond_atom_site_label_1
_geom_bond_atom_site_label_2
_geom_bond_distance
_geom_bond_site_symmetry_2
Rb0 Sb9 3.561591 1_555
Rb0 Sb8 3.644754 1_555
Rb0 Sb8 3.644754 1_455
Rb0 Sb5 3.788336 1_455
Rb0 Sb5 3.788336 1_555
Rb0 Sb4 3.929802 1_545
Rb1 Sb8 3.561591 1_555
Rb1 Sb9 3.644754 1_555
Rb1 Sb9 3.644754 1_655
Rb1 Sb4 3.788336 1_655
Rb1 Sb4 3.788336 1_555
Rb1 Sb5 3.929802 1_565
Rb2 Sb11 3.561591 1_565
Rb2 Sb10 3.644754 1_554
Rb2 Sb10 3.644754 1_654
Rb2 Sb7 3.788336 1_655
Rb2 Sb7 3.788336 1_555
Rb2 Sb6 3.929802 1_554
Rb3 Sb10 3.561591 1_545
Rb3 Sb11 3.644754 1_556
Rb3 Sb11 3.644754 1_456
Rb3 Sb6 3.788336 1_455
Rb3 Sb6 3.788336 1_555
Rb3 Sb7 3.929802 1_556
Na0 Sb0 3.396662 1_555
Na0 Sb0 3.396662 1_455
Na0 Sb6 3.446334 1_455
Na0 Sb6 3.446334 1_555
Na0 Sb2 3.521447 1_555
Na1 Sb1 3.396662 1_555
Na1 Sb1 3.396662 1_655
Na1 Sb7 3.446334 1_655
Na1 Sb7 3.446334 1_555
Na1 Sb3 3.521447 1_555
Na2 Sb2 3.396662 1_555
Na2 Sb2 3.396662 1_655
Na2 Sb4 3.446334 1_555
Na2 Sb4 3.446334 1_655
Na2 Sb0 3.521447 1_565
Na3 Sb3 3.396662 1_555
Na3 Sb3 3.396662 1_455
Na3 Sb5 3.446334 1_455
Na3 Sb5 3.446334 1_555
Na3 Sb1 3.521447 1_545
Ga0 Ga7 2.535976 1_555
Ga0 Sb8 2.686813 1_455
Ga0 Sb8 2.686813 1_555
Ga0 Sb4 2.723997 1_555
Ga0 Na2 3.138874 1_455
Ga0 Na2 3.138874 1_555
Ga1 Ga6 2.535976 1_555
Ga1 Sb9 2.686813 1_655
Ga1 Sb9 2.686813 1_555
Ga1 Sb5 2.723997 1_555
Ga1 Na3 3.138874 1_655
Ga1 Na3 3.138874 1_555
Ga2 Ga5 2.535976 1_545
Ga2 Sb10 2.686813 1_545
Ga2 Sb10 2.686813 1_645
Ga2 Sb6 2.723997 1_555
Ga2 Na0 3.138874 1_555
Ga2 Na0 3.138874 1_655
Ga3 Ga4 2.535976 1_565
Ga3 Sb11 2.686813 1_465
Ga3 Sb11 2.686813 1_565
Ga3 Sb7 2.723997 1_555
Ga3 Na1 3.138874 1_455
Ga3 Na1 3.138874 1_555
Ga4 Sb3 2.739578 1_455
Ga4 Sb3 2.739578 1_555
Ga4 Sb1 2.812033 1_545
Ga4 Na3 3.216928 1_555
Ga4 Na1 3.254471 1_545
Ga4 Na1 3.254471 1_445
Ga5 Sb2 2.739578 1_555
Ga5 Sb2 2.739578 1_655
Ga5 Sb0 2.812033 1_565
Ga5 Na2 3.216928 1_555
Ga5 Na0 3.254471 1_565
Ga5 Na0 3.254471 1_665
Ga6 Sb1 2.739578 1_555
Ga6 Sb1 2.739578 1_655
Ga6 Sb3 2.812033 1_555
Ga6 Na1 3.216928 1_555
Ga6 Na3 3.254471 1_655
Ga6 Na3 3.254471 1_555
Ga7 Sb0 2.739578 1_455
Ga7 Sb0 2.739578 1_555
Ga7 Sb2 2.812033 1_555
Ga7 Na0 3.216928 1_555
Ga7 Na2 3.254471 1_455
Ga7 Na2 3.254471 1_555
Ga8 Sb11 2.639393 1_555
Ga8 Sb7 2.698256 1_655
Ga8 Sb7 2.698256 1_555
Ga8 Sb3 2.722749 1_555
Ga8 Na1 3.037003 1_555
Ga9 Sb10 2.639393 1_555
Ga9 Sb6 2.698256 1_455
Ga9 Sb6 2.698256 1_555
Ga9 Sb2 2.722749 1_555
Ga9 Na0 3.037003 1_555
Ga10 Sb9 2.639393 1_555
Ga10 Sb5 2.698256 1_565
Ga10 Sb5 2.698256 1_465
Ga10 Sb1 2.722749 1_555
Ga10 Na3 3.037003 1_565
Ga11 Sb8 2.639393 1_555
Ga11 Sb4 2.698256 1_545
Ga11 Sb4 2.698256 1_645
Ga11 Sb0 2.722749 1_555
Ga11 Na2 3.037003 1_545
