# generated using pymatgen
data_Hf4ZrBSb3
_symmetry_space_group_name_H-M   'P 1'
_cell_length_a   8.40658658
_cell_length_b   8.40658654
_cell_length_c   5.72829904
_cell_angle_alpha   90.00000000
_cell_angle_beta   90.00000000
_cell_angle_gamma   120.00000014
_symmetry_Int_Tables_number   1
_chemical_formula_structural   Hf4ZrBSb3
_chemical_formula_sum   'Hf8 Zr2 B2 Sb6'
_cell_volume   350.58690524
_cell_formula_units_Z   2
loop_
 _symmetry_equiv_pos_site_id
 _symmetry_equiv_pos_as_xyz
  1  'x, y, z'
loop_
 _atom_site_type_symbol
 _atom_site_label
 _atom_site_symmetry_multiplicity
 _atom_site_fract_x
 _atom_site_fract_y
 _atom_site_fract_z
 _atom_site_occupancy
  Hf  Hf0  1  0.66666700  0.33333300  0.00000000  1
  Hf  Hf1  1  0.33333300  0.66666700  0.00000000  1
  Hf  Hf2  1  0.76900770  0.76900770  0.75001733  1
  Hf  Hf3  1  0.23099230  0.00000000  0.75001733  1
  Hf  Hf4  1  1.00000000  0.23099230  0.75001733  1
  Hf  Hf5  1  0.23099230  0.23099230  0.24998267  1
  Hf  Hf6  1  0.76900770  0.00000000  0.24998267  1
  Hf  Hf7  1  0.00000000  0.76900770  0.24998267  1
  Zr  Zr0  1  0.33333300  0.66666700  0.50000000  1
  Zr  Zr1  1  0.66666700  0.33333300  0.50000000  1
  B  B0  1  0.00000000  0.00000000  0.00000000  1
  B  B1  1  0.00000000  0.00000000  0.50000000  1
  Sb  Sb0  1  0.39962092  0.39962092  0.75187734  1
  Sb  Sb1  1  0.60037908  0.00000000  0.75187734  1
  Sb  Sb2  1  0.00000000  0.60037908  0.75187734  1
  Sb  Sb3  1  0.60037908  0.60037908  0.24812266  1
  Sb  Sb4  1  0.39962092  0.00000000  0.24812266  1
  Sb  Sb5  1  0.00000000  0.39962092  0.24812266  1
loop_
_geom_bond_atom_site_label_1
_geom_bond_atom_site_label_2
_geom_bond_distance
_geom_bond_site_symmetry_2
Hf0 Zr1 2.864150 1_555
Hf0 Zr1 2.864150 1_554
Hf0 Sb1 2.936228 1_554
Hf0 Sb5 2.936228 1_655
Hf0 Sb4 2.936230 1_555
Hf0 Sb2 2.936230 1_654
Hf0 Sb3 2.936235 1_555
Hf0 Sb0 2.936235 1_554
Hf1 Zr0 2.864150 1_555
Hf1 Zr0 2.864150 1_554
Hf1 Sb4 2.936228 1_565
Hf1 Sb2 2.936228 1_554
Hf1 Sb1 2.936230 1_564
Hf1 Sb5 2.936230 1_555
Hf1 Sb0 2.936235 1_554
Hf1 Sb3 2.936235 1_555
Hf2 Sb1 2.921172 1_565
Hf2 Sb2 2.921172 1_655
Hf2 Sb0 3.105300 1_555
Hf2 Sb3 3.186042 1_556
Hf2 Sb3 3.205496 1_555
Hf3 Sb0 2.921172 1_555
Hf3 Sb2 2.921172 1_545
Hf3 Sb1 3.105300 1_555
Hf3 Sb4 3.186042 1_556
Hf3 Sb4 3.205496 1_555
Hf4 Sb1 2.921172 1_555
Hf4 Sb0 2.921172 1_655
Hf4 Sb2 3.105300 1_655
Hf4 Sb5 3.186042 1_656
Hf4 Sb5 3.205496 1_655
Hf5 Sb4 2.921172 1_555
Hf5 Sb5 2.921172 1_555
Hf5 Sb3 3.105300 1_555
Hf5 Sb0 3.186042 1_554
Hf5 Sb0 3.205496 1_555
Hf6 Sb5 2.921172 1_655
Hf6 Sb3 2.921172 1_545
Hf6 Sb4 3.105300 1_555
Hf6 Sb1 3.186042 1_554
Hf6 Sb1 3.205496 1_555
Hf7 Sb4 2.921172 1_565
Hf7 Sb3 2.921172 1_455
Hf7 Sb5 3.105300 1_555
Hf7 Sb2 3.186042 1_554
Hf7 Sb2 3.205496 1_555
B0 Hf5 2.412750 1_555
B0 Hf4 2.412750 1_454
B0 Hf7 2.412750 1_545
B0 Hf2 2.412750 1_444
B0 Hf3 2.412750 1_554
B0 Hf6 2.412750 1_455
B1 Hf4 2.412868 1_455
B1 Hf5 2.412868 1_555
B1 Hf2 2.412868 1_445
B1 Hf7 2.412868 1_545
B1 Hf3 2.412868 1_555
B1 Hf6 2.412868 1_455
Sb0 Zr0 2.946706 1_555
Sb0 Zr1 2.946706 1_555
Sb1 Zr1 2.946699 1_555
Sb1 Zr0 2.946702 1_545
Sb2 Zr0 2.946699 1_555
Sb2 Zr1 2.946702 1_455
Sb3 Zr1 2.946706 1_555
Sb3 Zr0 2.946706 1_555
Sb4 Zr0 2.946699 1_545
Sb4 Zr1 2.946702 1_555
Sb5 Zr1 2.946699 1_455
Sb5 Zr0 2.946702 1_555
