# generated using pymatgen
data_Ti4Nb2SnBi
_symmetry_space_group_name_H-M   'P 1'
_cell_length_a   7.52789890
_cell_length_b   7.52810599
_cell_length_c   6.30988279
_cell_angle_alpha   65.17479255
_cell_angle_beta   65.17023004
_cell_angle_gamma   81.26376916
_symmetry_Int_Tables_number   1
_chemical_formula_structural   Ti4Nb2SnBi
_chemical_formula_sum   'Ti8 Nb4 Sn2 Bi2'
_cell_volume   294.41232676
_cell_formula_units_Z   2
loop_
 _symmetry_equiv_pos_site_id
 _symmetry_equiv_pos_as_xyz
  1  'x, y, z'
loop_
 _atom_site_type_symbol
 _atom_site_label
 _atom_site_symmetry_multiplicity
 _atom_site_fract_x
 _atom_site_fract_y
 _atom_site_fract_z
 _atom_site_occupancy
  Ti  Ti0  1  0.22732551  0.51841598  0.12136462  1
  Ti  Ti1  1  0.72740165  0.02729470  0.12212072  1
  Ti  Ti2  1  0.77261060  0.47268538  0.37786172  1
  Ti  Ti3  1  0.27266676  0.98159568  0.37863452  1
  Ti  Ti4  1  0.72791602  0.02771607  0.62284221  1
  Ti  Ti5  1  0.22705038  0.51802034  0.63315198  1
  Ti  Ti6  1  0.27294973  0.98198272  0.86685610  1
  Ti  Ti7  1  0.77207638  0.47228411  0.87717060  1
  Nb  Nb0  1  0.00706872  0.24484714  0.12398996  1
  Nb  Nb1  1  0.49293280  0.25517872  0.37601056  1
  Nb  Nb2  1  0.50517886  0.74314899  0.62597930  1
  Nb  Nb3  1  0.99482518  0.75681896  0.87404513  1
  Sn  Sn0  1  0.03190523  0.21958359  0.62428896  1
  Sn  Sn1  1  0.46809564  0.28044488  0.87567706  1
  Bi  Bi0  1  0.53017694  0.71853175  0.12569848  1
  Bi  Bi1  1  0.96982060  0.78145300  0.37430307  1
loop_
_geom_bond_atom_site_label_1
_geom_bond_atom_site_label_2
_geom_bond_distance
_geom_bond_site_symmetry_2
Nb0 Ti2 2.763355 1_455
Nb0 Ti7 2.764240 1_454
Nb0 Ti5 2.818242 1_554
Nb0 Ti0 2.824254 1_555
Nb0 Ti4 2.857202 1_455
Nb0 Ti1 2.863420 1_455
Nb0 Ti6 3.052866 1_544
Nb0 Ti3 3.054072 1_545
Nb0 Sn1 3.151924 1_554
Nb0 Sn0 3.163941 1_554
Nb0 Sn0 3.165034 1_555
Nb1 Ti1 2.763709 1_555
Nb1 Ti4 2.764286 1_555
Nb1 Ti6 2.818331 1_545
Nb1 Ti3 2.824394 1_545
Nb1 Ti7 2.857092 1_554
Nb1 Ti2 2.863187 1_555
Nb1 Ti5 3.052762 1_555
Nb1 Ti0 3.054095 1_555
Nb1 Sn0 3.151928 1_555
Nb1 Sn1 3.163731 1_555
Nb1 Sn1 3.165246 1_554
Nb2 Ti6 2.776203 1_555
Nb2 Ti3 2.776517 1_555
Nb2 Ti0 2.855052 1_556
Nb2 Ti5 2.862161 1_555
Nb2 Ti1 2.896840 1_565
Nb2 Ti4 2.903234 1_565
Nb2 Ti7 3.069693 1_555
Nb2 Ti2 3.071501 1_555
Nb2 Sn1 3.164047 1_555
Nb3 Ti5 2.776045 1_655
Nb3 Ti0 2.776257 1_656
Nb3 Ti3 2.855186 1_655
Nb3 Ti6 2.862265 1_655
Nb3 Ti2 2.896648 1_556
Nb3 Ti7 2.903134 1_555
Nb3 Ti4 3.069883 1_565
Nb3 Ti1 3.071415 1_566
Nb3 Sn0 3.164458 1_665
Sn0 Ti6 2.807556 1_545
Sn0 Ti3 2.807752 1_545
Sn0 Ti4 2.890647 1_455
Sn0 Ti1 2.891324 1_456
Sn0 Ti0 2.895757 1_555
Sn0 Ti5 2.895817 1_555
Sn0 Ti7 2.964502 1_455
Sn0 Ti2 2.964760 1_455
Sn1 Ti5 2.807356 1_555
Sn1 Ti0 2.807789 1_556
Sn1 Ti7 2.890620 1_555
Sn1 Ti2 2.891243 1_555
Sn1 Ti6 2.895838 1_545
Sn1 Ti3 2.895934 1_546
Sn1 Ti4 2.964487 1_555
Sn1 Ti1 2.964999 1_556
Bi0 Ti2 2.868386 1_555
Bi0 Ti7 2.868626 1_554
Bi0 Ti1 2.929804 1_565
Bi0 Ti4 2.930087 1_564
Bi0 Ti5 2.930803 1_555
Bi0 Ti0 2.932267 1_555
Bi0 Ti3 3.019336 1_555
Bi0 Ti6 3.019946 1_554
Bi0 Nb2 3.163748 1_554
Bi0 Nb2 3.164859 1_555
Bi0 Nb1 3.168521 1_555
Bi0 Nb3 3.177506 1_554
Bi1 Ti1 2.868356 1_565
Bi1 Ti4 2.868768 1_565
Bi1 Ti2 2.929830 1_555
Bi1 Ti7 2.930083 1_555
Bi1 Ti6 2.930812 1_654
Bi1 Ti3 2.932353 1_655
Bi1 Ti0 3.019173 1_655
Bi1 Ti5 3.019937 1_655
Bi1 Nb3 3.163869 1_555
Bi1 Nb3 3.164756 1_554
Bi1 Nb0 3.168803 1_665
Bi1 Nb2 3.177468 1_555
