# generated using pymatgen
data_AlV3ReSe8
_symmetry_space_group_name_H-M   'P 1'
_cell_length_a   7.25532586
_cell_length_b   7.25532578
_cell_length_c   7.14665094
_cell_angle_alpha   59.49568708
_cell_angle_beta   59.49569320
_cell_angle_gamma   59.99999722
_symmetry_Int_Tables_number   1
_chemical_formula_structural   AlV3ReSe8
_chemical_formula_sum   'Al1 V3 Re1 Se8'
_cell_volume   263.96632719
_cell_formula_units_Z   1
loop_
 _symmetry_equiv_pos_site_id
 _symmetry_equiv_pos_as_xyz
  1  'x, y, z'
loop_
 _atom_site_type_symbol
 _atom_site_label
 _atom_site_symmetry_multiplicity
 _atom_site_fract_x
 _atom_site_fract_y
 _atom_site_fract_z
 _atom_site_occupancy
  Al  Al0  1  0.00127610  0.00127610  0.99617070  1
  V  V0  1  0.60768591  0.18905886  0.59556733  1
  V  V1  1  0.18905886  0.60768591  0.59556733  1
  V  V2  1  0.60768591  0.60768591  0.59556733  1
  Re  Re0  1  0.59925204  0.59925204  0.20224487  1
  Se  Se0  1  0.37169581  0.37169581  0.88491256  1
  Se  Se1  1  0.36467550  0.89790142  0.37274958  1
  Se  Se2  1  0.89790142  0.36467550  0.37274958  1
  Se  Se3  1  0.36467550  0.36467550  0.37274958  1
  Se  Se4  1  0.86515067  0.86515067  0.40454700  1
  Se  Se5  1  0.86118553  0.40856823  0.86905871  1
  Se  Se6  1  0.40856823  0.86118553  0.86905871  1
  Se  Se7  1  0.86118553  0.86118553  0.86905871  1
loop_
_geom_bond_atom_site_label_1
_geom_bond_atom_site_label_2
_geom_bond_distance
_geom_bond_site_symmetry_2
Al0 Se4 2.364638 1_446
Al0 Se5 2.408145 1_455
Al0 Se6 2.408145 1_545
Al0 Se7 2.408151 1_445
Re0 Se3 2.442073 1_555
Re0 Se2 2.442079 1_555
Re0 Se1 2.442079 1_555
Re0 Se7 2.704928 1_554
Re0 Se6 2.704941 1_554
Re0 Se5 2.704941 1_554
Se0 V2 2.425278 1_555
Se0 V1 2.425287 1_555
Se0 V0 2.425287 1_555
Se1 V2 2.410768 1_555
Se1 V1 2.410787 1_555
Se2 V2 2.410769 1_555
Se2 V0 2.410787 1_555
Se3 V0 2.410763 1_555
Se3 V1 2.410764 1_555
Se4 V1 2.674703 1_655
Se4 V0 2.674703 1_565
Se4 V2 2.674709 1_555
Se5 V2 2.723215 1_555
Se5 V1 2.723215 1_655
Se6 V2 2.723215 1_555
Se6 V0 2.723215 1_565
Se7 V0 2.723215 1_565
Se7 V1 2.723215 1_655
