# generated using pymatgen
data_Ti8FeBi4P
_symmetry_space_group_name_H-M   'P 1'
_cell_length_a   7.83506739
_cell_length_b   7.83506626
_cell_length_c   7.83506651
_cell_angle_alpha   95.51104952
_cell_angle_beta   95.51104963
_cell_angle_gamma   143.89366403
_symmetry_Int_Tables_number   1
_chemical_formula_structural   Ti8FeBi4P
_chemical_formula_sum   'Ti8 Fe1 Bi4 P1'
_cell_volume   269.48161434
_cell_formula_units_Z   1
loop_
 _symmetry_equiv_pos_site_id
 _symmetry_equiv_pos_as_xyz
  1  'x, y, z'
loop_
 _atom_site_type_symbol
 _atom_site_label
 _atom_site_symmetry_multiplicity
 _atom_site_fract_x
 _atom_site_fract_y
 _atom_site_fract_z
 _atom_site_occupancy
  Ti  Ti0  1  0.58203879  0.69630689  0.27237498  1
  Ti  Ti1  1  0.91796121  0.19033619  0.11426910  1
  Ti  Ti2  1  0.30966381  0.58203879  0.88573090  1
  Ti  Ti3  1  0.80369311  0.91796121  0.72762502  1
  Ti  Ti4  1  0.69630689  0.42393291  0.11426910  1
  Ti  Ti5  1  0.07606709  0.80369311  0.88573090  1
  Ti  Ti6  1  0.42393291  0.30966381  0.72762502  1
  Ti  Ti7  1  0.19033619  0.07606709  0.27237498  1
  Fe  Fe0  1  0.25000000  0.25000000  0.00000000  1
  Bi  Bi0  1  0.35796776  0.85796776  0.21593651  1
  Bi  Bi1  1  0.14203224  0.35796776  0.50000000  1
  Bi  Bi2  1  0.64203224  0.14203224  0.78406349  1
  Bi  Bi3  1  0.85796776  0.64203224  0.50000000  1
  P  P0  1  0.75000000  0.75000000  0.00000000  1
loop_
_geom_bond_atom_site_label_1
_geom_bond_atom_site_label_2
_geom_bond_distance
_geom_bond_site_symmetry_2
Fe0 P0 2.428083 1_445
Fe0 P0 2.428083 1_555
Fe0 Ti5 2.520072 1_544
Fe0 Ti4 2.520073 1_555
Fe0 Ti0 2.520076 1_555
Fe0 Ti3 2.520076 1_444
Fe0 Ti2 2.520080 1_554
Fe0 Ti7 2.520080 1_555
Fe0 Ti6 2.520080 1_554
Fe0 Ti1 2.520080 1_455
Bi0 Ti7 2.904072 1_565
Bi0 Ti0 2.904080 1_555
Bi0 Ti2 2.987666 1_554
Bi0 Ti5 2.987670 1_554
Bi0 Ti1 3.045363 1_565
Bi0 Ti4 3.045365 1_455
Bi0 Ti1 3.068392 1_455
Bi0 Ti4 3.068399 1_565
Bi1 Ti2 2.904073 1_555
Bi1 Ti1 2.904073 1_455
Bi1 Ti7 2.987660 1_555
Bi1 Ti6 2.987660 1_555
Bi1 Ti0 3.045362 1_445
Bi1 Ti3 3.045362 1_555
Bi1 Ti3 3.068393 1_445
Bi1 Ti0 3.068393 1_555
Bi2 Ti6 2.904072 1_555
Bi2 Ti3 2.904080 1_545
Bi2 Ti1 2.987666 1_556
Bi2 Ti4 2.987670 1_556
Bi2 Ti2 3.045362 1_545
Bi2 Ti5 3.045364 1_655
Bi2 Ti2 3.068393 1_655
Bi2 Ti5 3.068399 1_545
Bi3 Ti4 2.904072 1_555
Bi3 Ti5 2.904072 1_655
Bi3 Ti3 2.987653 1_555
Bi3 Ti0 2.987654 1_555
Bi3 Ti7 3.045359 1_665
Bi3 Ti6 3.045359 1_555
Bi3 Ti6 3.068392 1_665
Bi3 Ti7 3.068393 1_555
P0 Ti4 2.506066 1_555
P0 Ti5 2.506066 1_654
P0 Ti3 2.506069 1_554
P0 Ti0 2.506069 1_555
P0 Ti6 2.506070 1_554
P0 Ti1 2.506070 1_565
P0 Ti7 2.506070 1_665
P0 Ti2 2.506071 1_554
