# generated using pymatgen
data_Cs2Cd(BrCl)2
_symmetry_space_group_name_H-M   'P 1'
_cell_length_a   7.57331100
_cell_length_b   7.57493359
_cell_length_c   9.60280560
_cell_angle_alpha   90.00000000
_cell_angle_beta   113.22407245
_cell_angle_gamma   90.00000000
_symmetry_Int_Tables_number   1
_chemical_formula_structural   Cs2Cd(BrCl)2
_chemical_formula_sum   'Cs4 Cd2 Br4 Cl4'
_cell_volume   506.24875968
_cell_formula_units_Z   2
loop_
 _symmetry_equiv_pos_site_id
 _symmetry_equiv_pos_as_xyz
  1  'x, y, z'
loop_
 _atom_site_type_symbol
 _atom_site_label
 _atom_site_symmetry_multiplicity
 _atom_site_fract_x
 _atom_site_fract_y
 _atom_site_fract_z
 _atom_site_occupancy
  Cs  Cs0  1  0.63597336  0.00000000  0.27194673  1
  Cs  Cs1  1  0.13597336  0.50000000  0.27194673  1
  Cs  Cs2  1  0.36402664  0.00000000  0.72805327  1
  Cs  Cs3  1  0.86402664  0.50000000  0.72805327  1
  Cd  Cd0  1  0.00000000  0.00000000  0.00000000  1
  Cd  Cd1  1  0.50000000  0.50000000  0.00000000  1
  Br  Br0  1  0.15519637  0.00000000  0.31039075  1
  Br  Br1  1  0.65519637  0.50000000  0.31039075  1
  Br  Br2  1  0.84480463  0.00000000  0.68960925  1
  Br  Br3  1  0.34480363  0.50000000  0.68960925  1
  Cl  Cl0  1  0.25005136  0.24999312  0.00000000  1
  Cl  Cl1  1  0.75005136  0.25000788  0.00000000  1
  Cl  Cl2  1  0.24994864  0.74999312  0.00000000  1
  Cl  Cl3  1  0.74994964  0.75000688  0.00000000  1
loop_
_geom_bond_atom_site_label_1
_geom_bond_atom_site_label_2
_geom_bond_distance
_geom_bond_site_symmetry_2
Cd0 Cl2 2.677618 1_545
Cd0 Cl1 2.677624 1_455
Cd0 Cl3 2.678089 1_445
Cd0 Cl0 2.678095 1_555
Cd1 Cl0 2.677618 1_555
Cd1 Cl3 2.677624 1_555
Cd1 Cl1 2.678089 1_555
Cd1 Cl2 2.678095 1_555
Br0 Cd0 2.739101 1_555
Br0 Cs2 3.685741 1_555
Br0 Cs0 3.801815 1_555
Br0 Cs0 3.801830 1_455
Br0 Cs1 3.802631 1_555
Br0 Cs1 3.802631 1_545
Br1 Cd1 2.739101 1_555
Br1 Cs3 3.685741 1_555
Br1 Cs1 3.801815 1_655
Br1 Cs1 3.801830 1_555
Br1 Cs0 3.802631 1_555
Br1 Cs0 3.802631 1_565
Br2 Cd0 2.739101 1_656
Br2 Cs0 3.685741 1_555
Br2 Cs2 3.801823 1_655
Br2 Cs2 3.801823 1_555
Br2 Cs3 3.802631 1_545
Br2 Cs3 3.802631 1_555
Br3 Cd1 2.739101 1_556
Br3 Cs1 3.685741 1_555
Br3 Cs3 3.801815 1_455
Br3 Cs3 3.801830 1_555
Br3 Cs2 3.802631 1_555
Br3 Cs2 3.802631 1_565
Cl0 Cs0 3.595623 1_555
Cl0 Cs2 3.595623 1_554
Cl0 Cs3 3.596087 1_454
Cl0 Cs1 3.596087 1_555
Cl1 Cs1 3.595619 1_655
Cl1 Cs3 3.595619 1_554
Cl1 Cs2 3.596091 1_554
Cl1 Cs0 3.596091 1_555
Cl2 Cs3 3.595623 1_454
Cl2 Cs1 3.595623 1_555
Cl2 Cs0 3.596087 1_565
Cl2 Cs2 3.596087 1_564
Cl3 Cs2 3.595627 1_564
Cl3 Cs0 3.595627 1_565
Cl3 Cs1 3.596083 1_655
Cl3 Cs3 3.596083 1_554
