# generated using pymatgen
data_Na4C2O5
_symmetry_space_group_name_H-M   'P 1'
_cell_length_a   5.06462570
_cell_length_b   5.06462570
_cell_length_c   6.20346202
_cell_angle_alpha   81.19336590
_cell_angle_beta   81.19336590
_cell_angle_gamma   63.78432005
_symmetry_Int_Tables_number   1
_chemical_formula_structural   Na4C2O5
_chemical_formula_sum   'Na4 C2 O5'
_cell_volume   140.41381605
_cell_formula_units_Z   1
loop_
 _symmetry_equiv_pos_site_id
 _symmetry_equiv_pos_as_xyz
  1  'x, y, z'
loop_
 _atom_site_type_symbol
 _atom_site_label
 _atom_site_symmetry_multiplicity
 _atom_site_fract_x
 _atom_site_fract_y
 _atom_site_fract_z
 _atom_site_occupancy
  Na  Na0  1  0.00449100  0.00449100  0.00880900  1
  Na  Na1  1  0.33464800  0.33464800  0.73509500  1
  Na  Na2  1  0.66802800  0.66802800  0.26846400  1
  Na  Na3  1  0.99898300  0.99898300  0.50396700  1
  C  C0  1  0.31655800  0.31655800  0.24839900  1
  C  C1  1  0.66155400  0.66155400  0.76120700  1
  O  O0  1  0.59761700  0.18332500  0.28238500  1
  O  O1  1  0.18332500  0.59761700  0.28238500  1
  O  O2  1  0.80810900  0.38701000  0.71806100  1
  O  O3  1  0.38701000  0.80810900  0.71806100  1
  O  O4  1  0.78867500  0.78867500  0.84516700  1
loop_
_geom_bond_atom_site_label_1
_geom_bond_atom_site_label_2
_geom_bond_distance
_geom_bond_site_symmetry_2
Na0 O4 2.270458 1_444
Na0 O1 2.386996 1_545
Na0 O0 2.386996 1_455
Na0 O2 2.402610 1_454
Na0 O3 2.402610 1_544
Na1 O2 2.511392 1_555
Na1 O3 2.511392 1_555
Na1 O2 2.577944 1_455
Na1 O3 2.577944 1_545
Na1 O4 2.772160 1_455
Na1 O4 2.772160 1_545
Na2 O1 2.486553 1_655
Na2 O0 2.486553 1_565
Na2 O0 2.619150 1_555
Na2 O1 2.619150 1_555
Na2 O4 2.643741 1_554
Na3 O3 2.299585 1_655
Na3 O2 2.299585 1_565
Na3 O1 2.383094 1_655
Na3 O0 2.383094 1_565
Na3 O4 2.524042 1_555
C0 O1 1.313667 1_555
C0 O0 1.313667 1_555
C0 Na3 2.900237 1_445
C1 O4 1.293003 1_555
C1 O2 1.302784 1_555
C1 O3 1.302784 1_555
