# generated using pymatgen
data_Hf10CuSn6Sb
_symmetry_space_group_name_H-M   'P 1'
_cell_length_a   8.61669747
_cell_length_b   8.61669837
_cell_length_c   5.84622454
_cell_angle_alpha   90.00000000
_cell_angle_beta   90.00000000
_cell_angle_gamma   120.00000031
_symmetry_Int_Tables_number   1
_chemical_formula_structural   Hf10CuSn6Sb
_chemical_formula_sum   'Hf10 Cu1 Sn6 Sb1'
_cell_volume   375.91344386
_cell_formula_units_Z   1
loop_
 _symmetry_equiv_pos_site_id
 _symmetry_equiv_pos_as_xyz
  1  'x, y, z'
loop_
 _atom_site_type_symbol
 _atom_site_label
 _atom_site_symmetry_multiplicity
 _atom_site_fract_x
 _atom_site_fract_y
 _atom_site_fract_z
 _atom_site_occupancy
  Hf  Hf0  1  0.72954689  0.72954689  0.73440585  1
  Hf  Hf1  1  0.27045311  1.00000000  0.73440585  1
  Hf  Hf2  1  0.00000000  0.27045311  0.73440585  1
  Hf  Hf3  1  0.27045311  0.27045311  0.26559415  1
  Hf  Hf4  1  0.72954689  0.00000000  0.26559415  1
  Hf  Hf5  1  1.00000000  0.72954689  0.26559415  1
  Hf  Hf6  1  0.66666700  0.33333300  0.00000000  1
  Hf  Hf7  1  0.33333300  0.66666700  0.00000000  1
  Hf  Hf8  1  0.33333300  0.66666700  0.50000000  1
  Hf  Hf9  1  0.66666700  0.33333300  0.50000000  1
  Cu  Cu0  1  0.00000000  0.00000000  0.50000000  1
  Sn  Sn0  1  0.38877704  0.38877704  0.75411476  1
  Sn  Sn1  1  0.61122296  1.00000000  0.75411476  1
  Sn  Sn2  1  0.00000000  0.61122296  0.75411476  1
  Sn  Sn3  1  0.61122296  0.61122296  0.24588524  1
  Sn  Sn4  1  0.38877704  0.00000000  0.24588524  1
  Sn  Sn5  1  1.00000000  0.38877704  0.24588524  1
  Sb  Sb0  1  0.00000000  0.00000000  0.00000000  1
loop_
_geom_bond_atom_site_label_1
_geom_bond_atom_site_label_2
_geom_bond_distance
_geom_bond_site_symmetry_2
Hf0 Sb0 2.800316 1_666
Hf0 Sn0 2.938571 1_555
Hf0 Sn2 2.976509 1_655
Hf0 Sn1 2.976509 1_555
Hf0 Sn3 3.032532 1_555
Hf0 Sn3 3.159263 1_556
Hf1 Sb0 2.800316 1_566
Hf1 Sn1 2.938570 1_555
Hf1 Sn2 2.976509 1_555
Hf1 Sn0 2.976509 1_565
Hf1 Sn4 3.032532 1_565
Hf1 Sn4 3.159263 1_566
Hf2 Sb0 2.800317 1_556
Hf2 Sn2 2.938571 1_555
Hf2 Sn0 2.976509 1_555
Hf2 Sn1 2.976509 1_445
Hf2 Sn5 3.032532 1_455
Hf2 Sn5 3.159263 1_456
Hf3 Sb0 2.800316 1_555
Hf3 Sn3 2.938571 1_555
Hf3 Sn5 2.976509 1_455
Hf3 Sn4 2.976509 1_555
Hf3 Sn0 3.032532 1_555
Hf3 Sn0 3.159263 1_554
Hf4 Sb0 2.800316 1_655
Hf4 Sn4 2.938570 1_555
Hf4 Sn5 2.976509 1_555
Hf4 Sn3 2.976509 1_545
Hf4 Sn1 3.032532 1_545
Hf4 Sn1 3.159263 1_544
Hf5 Sb0 2.800317 1_665
Hf5 Sn5 2.938571 1_555
Hf5 Sn3 2.976509 1_555
Hf5 Sn4 2.976509 1_665
Hf5 Sn2 3.032532 1_655
Hf5 Sn2 3.159263 1_654
Hf6 Sn5 3.028557 1_555
Hf6 Sn1 3.028557 1_544
Hf6 Sn2 3.028560 1_654
Hf6 Sn4 3.028560 1_555
Hf6 Sn0 3.028565 1_554
Hf6 Sn3 3.028565 1_555
Hf7 Sn2 3.028557 1_554
Hf7 Sn4 3.028557 1_565
Hf7 Sn5 3.028560 1_455
Hf7 Sn1 3.028560 1_554
Hf7 Sn3 3.028565 1_555
Hf7 Sn0 3.028565 1_554
Hf8 Sn2 3.051687 1_555
Hf8 Sn4 3.051687 1_565
Hf8 Sn5 3.051690 1_455
Hf8 Sn1 3.051690 1_555
Hf8 Sn3 3.051694 1_555
Hf8 Sn0 3.051695 1_555
Hf9 Sn5 3.051687 1_555
Hf9 Sn1 3.051687 1_545
Hf9 Sn2 3.051690 1_655
Hf9 Sn4 3.051690 1_555
Hf9 Sn0 3.051694 1_555
Hf9 Sn3 3.051695 1_555
Cu0 Hf1 2.703477 1_545
Cu0 Hf4 2.703477 1_455
Cu0 Hf3 2.703477 1_555
Cu0 Hf0 2.703477 1_445
Cu0 Hf2 2.703478 1_555
Cu0 Hf5 2.703478 1_445
Cu0 Sb0 2.923112 1_555
Cu0 Sb0 2.923112 1_556
