# generated using pymatgen
data_Cs2Pd(PtSe2)2
_symmetry_space_group_name_H-M   'P 1'
_cell_length_a   9.13774027
_cell_length_b   7.85472724
_cell_length_c   6.51587968
_cell_angle_alpha   78.35850807
_cell_angle_beta   57.34231525
_cell_angle_gamma   45.50872239
_symmetry_Int_Tables_number   1
_chemical_formula_structural   Cs2Pd(PtSe2)2
_chemical_formula_sum   'Cs2 Pd1 Pt2 Se4'
_cell_volume   268.49107724
_cell_formula_units_Z   1
loop_
 _symmetry_equiv_pos_site_id
 _symmetry_equiv_pos_as_xyz
  1  'x, y, z'
loop_
 _atom_site_type_symbol
 _atom_site_label
 _atom_site_symmetry_multiplicity
 _atom_site_fract_x
 _atom_site_fract_y
 _atom_site_fract_z
 _atom_site_occupancy
  Cs  Cs0  1  0.64919033  0.64919033  0.35080967  1
  Cs  Cs1  1  0.35080967  0.35080967  0.64919033  1
  Pd  Pd0  1  0.00000000  0.00000000  0.50000000  1
  Pt  Pt0  1  0.50000000  0.50000000  0.00000000  1
  Pt  Pt1  1  0.00000000  0.00000000  0.00000000  1
  Se  Se0  1  0.06008384  0.71747481  0.27157323  1
  Se  Se1  1  0.71747481  0.06008384  0.95086912  1
  Se  Se2  1  0.93991616  0.28252519  0.72842677  1
  Se  Se3  1  0.28252519  0.93991616  0.04913088  1
loop_
_geom_bond_atom_site_label_1
_geom_bond_atom_site_label_2
_geom_bond_distance
_geom_bond_site_symmetry_2
Cs0 Se3 3.763098 1_556
Cs0 Se2 3.763103 1_554
Cs0 Se2 3.857074 1_555
Cs0 Se3 3.857079 1_555
Cs0 Pt0 3.891016 1_555
Cs0 Pt0 3.891017 1_556
Cs0 Se1 3.907716 1_564
Cs0 Se0 3.907718 1_655
Cs0 Se3 3.917432 1_645
Cs0 Se2 3.917432 1_465
Cs0 Pt1 3.922779 1_655
Cs0 Pt1 3.922779 1_566
Cs0 Pd0 3.959142 1_565
Cs0 Pd0 3.959142 1_655
Cs1 Se1 3.763098 1_554
Cs1 Se0 3.763103 1_556
Cs1 Se0 3.857074 1_555
Cs1 Se1 3.857079 1_555
Cs1 Pt0 3.891016 1_556
Cs1 Pt0 3.891017 1_555
Cs1 Se3 3.907716 1_546
Cs1 Se2 3.907718 1_455
Cs1 Se1 3.917432 1_465
Cs1 Se0 3.917432 1_645
Cs1 Pt1 3.922779 1_566
Cs1 Pt1 3.922779 1_655
Cs1 Pd0 3.959142 1_655
Cs1 Pd0 3.959142 1_565
Pd0 Se2 2.486930 1_455
Pd0 Se0 2.486930 1_545
Pd0 Se1 2.486935 1_455
Pd0 Se3 2.486935 1_545
Pt0 Se2 2.475268 1_554
Pt0 Se0 2.475268 1_555
Pt0 Se3 2.475268 1_555
Pt0 Se1 2.475268 1_554
Pt1 Se3 2.472524 1_545
Pt1 Se1 2.472524 1_454
Pt1 Se2 2.472528 1_454
Pt1 Se0 2.472528 1_545
