# generated using pymatgen
data_Hf3Sn3Ir2Rh
_symmetry_space_group_name_H-M   'P 1'
_cell_length_a   7.32614104
_cell_length_b   7.32614058
_cell_length_c   7.23824949
_cell_angle_alpha   90.00000000
_cell_angle_beta   90.00000000
_cell_angle_gamma   119.99999773
_symmetry_Int_Tables_number   1
_chemical_formula_structural   Hf3Sn3Ir2Rh
_chemical_formula_sum   'Hf6 Sn6 Ir4 Rh2'
_cell_volume   336.44549197
_cell_formula_units_Z   2
loop_
 _symmetry_equiv_pos_site_id
 _symmetry_equiv_pos_as_xyz
  1  'x, y, z'
loop_
 _atom_site_type_symbol
 _atom_site_label
 _atom_site_symmetry_multiplicity
 _atom_site_fract_x
 _atom_site_fract_y
 _atom_site_fract_z
 _atom_site_occupancy
  Hf  Hf0  1  0.02305986  0.41108897  0.75000000  1
  Hf  Hf1  1  0.58891103  0.61197088  0.75000000  1
  Hf  Hf2  1  0.38802912  0.97694014  0.75000000  1
  Hf  Hf3  1  0.97694014  0.38802912  0.25000000  1
  Hf  Hf4  1  0.61197088  0.58891103  0.25000000  1
  Hf  Hf5  1  0.41108897  0.02305986  0.25000000  1
  Sn  Sn0  1  0.26894808  0.26894808  0.50000000  1
  Sn  Sn1  1  0.00000000  0.73105192  0.50000000  1
  Sn  Sn2  1  0.00000000  0.73105192  0.00000000  1
  Sn  Sn3  1  0.73105192  0.00000000  0.50000000  1
  Sn  Sn4  1  0.73105192  0.00000000  0.00000000  1
  Sn  Sn5  1  0.26894808  0.26894808  0.00000000  1
  Ir  Ir0  1  0.33333300  0.66666700  0.45965282  1
  Ir  Ir1  1  0.66666700  0.33333300  0.54034718  1
  Ir  Ir2  1  0.33333300  0.66666700  0.04034718  1
  Ir  Ir3  1  0.66666700  0.33333300  0.95965282  1
  Rh  Rh0  1  0.00000000  0.00000000  0.75000000  1
  Rh  Rh1  1  0.00000000  0.00000000  0.25000000  1
loop_
_geom_bond_atom_site_label_1
_geom_bond_atom_site_label_2
_geom_bond_distance
_geom_bond_site_symmetry_2
Hf0 Ir3 2.820861 1_455
Hf0 Ir1 2.820861 1_455
Hf0 Rh0 2.930880 1_555
Hf0 Ir2 2.972116 1_556
Hf0 Ir0 2.972116 1_555
Hf0 Sn1 3.032135 1_555
Hf0 Sn2 3.032135 1_556
Hf0 Sn5 3.078943 1_556
Hf0 Sn0 3.078943 1_555
Hf0 Sn3 3.237051 1_455
Hf0 Sn4 3.237051 1_456
Hf1 Ir3 2.820867 1_555
Hf1 Ir1 2.820867 1_555
Hf1 Rh0 2.930880 1_665
Hf1 Ir2 2.972119 1_556
Hf1 Ir0 2.972119 1_555
Hf1 Sn5 3.032135 1_556
Hf1 Sn0 3.032135 1_555
Hf1 Sn4 3.078943 1_566
Hf1 Sn3 3.078943 1_565
Hf1 Sn2 3.237051 1_656
Hf1 Sn1 3.237051 1_655
Hf2 Ir3 2.820863 1_565
Hf2 Ir1 2.820863 1_565
Hf2 Rh0 2.930880 1_565
Hf2 Ir2 2.972114 1_556
Hf2 Ir0 2.972114 1_555
Hf2 Sn4 3.032135 1_566
Hf2 Sn3 3.032135 1_565
Hf2 Sn2 3.078943 1_556
Hf2 Sn1 3.078943 1_555
Hf2 Sn0 3.237051 1_565
Hf2 Sn5 3.237051 1_566
Hf3 Ir0 2.820863 1_655
Hf3 Ir2 2.820863 1_655
Hf3 Rh1 2.930880 1_655
Hf3 Ir1 2.972114 1_555
Hf3 Ir3 2.972114 1_554
Hf3 Sn1 3.032135 1_655
Hf3 Sn2 3.032135 1_655
Hf3 Sn3 3.078943 1_555
Hf3 Sn4 3.078943 1_555
Hf3 Sn5 3.237051 1_655
Hf3 Sn0 3.237051 1_655
Hf4 Ir0 2.820867 1_555
Hf4 Ir2 2.820867 1_555
Hf4 Rh1 2.930880 1_665
Hf4 Ir1 2.972119 1_555
Hf4 Ir3 2.972119 1_554
Hf4 Sn0 3.032135 1_555
Hf4 Sn5 3.032135 1_555
Hf4 Sn2 3.078943 1_655
Hf4 Sn1 3.078943 1_655
Hf4 Sn3 3.237051 1_565
Hf4 Sn4 3.237051 1_565
Hf5 Ir0 2.820861 1_545
Hf5 Ir2 2.820861 1_545
Hf5 Rh1 2.930880 1_555
Hf5 Ir1 2.972116 1_555
Hf5 Ir3 2.972116 1_554
Hf5 Sn3 3.032135 1_555
Hf5 Sn4 3.032135 1_555
Hf5 Sn5 3.078943 1_555
Hf5 Sn0 3.078943 1_555
Hf5 Sn1 3.237051 1_545
Hf5 Sn2 3.237051 1_545
Ir0 Sn1 2.724566 1_555
Ir0 Sn3 2.724571 1_565
Ir0 Sn0 2.724573 1_555
Ir0 Ir2 3.035039 1_555
Ir1 Sn3 2.724566 1_555
Ir1 Sn1 2.724571 1_655
Ir1 Sn0 2.724573 1_555
Ir1 Ir3 3.035039 1_555
Ir2 Sn2 2.724566 1_555
Ir2 Sn4 2.724571 1_565
Ir2 Sn5 2.724573 1_555
Ir3 Sn4 2.724566 1_556
Ir3 Sn2 2.724571 1_656
Ir3 Sn5 2.724573 1_556
Rh0 Sn1 2.675220 1_545
Rh0 Sn2 2.675220 1_546
Rh0 Sn3 2.675220 1_455
Rh0 Sn4 2.675220 1_456
Rh0 Sn5 2.675220 1_556
Rh0 Sn0 2.675220 1_555
Rh1 Sn1 2.675220 1_545
Rh1 Sn2 2.675220 1_545
Rh1 Sn3 2.675220 1_455
Rh1 Sn4 2.675220 1_455
Rh1 Sn5 2.675220 1_555
Rh1 Sn0 2.675220 1_555
