# generated using pymatgen
data_LuZnGa3Ni
_symmetry_space_group_name_H-M   'P 1'
_cell_length_a   7.75285106
_cell_length_b   7.75285192
_cell_length_c   6.34126807
_cell_angle_alpha   90.00000000
_cell_angle_beta   90.00000000
_cell_angle_gamma   149.75054172
_symmetry_Int_Tables_number   1
_chemical_formula_structural   LuZnGa3Ni
_chemical_formula_sum   'Lu2 Zn2 Ga6 Ni2'
_cell_volume   192.01171716
_cell_formula_units_Z   2
loop_
 _symmetry_equiv_pos_site_id
 _symmetry_equiv_pos_as_xyz
  1  'x, y, z'
loop_
 _atom_site_type_symbol
 _atom_site_label
 _atom_site_symmetry_multiplicity
 _atom_site_fract_x
 _atom_site_fract_y
 _atom_site_fract_z
 _atom_site_occupancy
  Lu  Lu0  1  0.87450189  0.12549811  0.75000000  1
  Lu  Lu1  1  0.12549811  0.87450189  0.25000000  1
  Zn  Zn0  1  0.50000000  0.50000000  0.00000000  1
  Zn  Zn1  1  0.50000000  0.50000000  0.50000000  1
  Ga  Ga0  1  0.06544615  0.93455385  0.75000000  1
  Ga  Ga1  1  0.93455385  0.06544615  0.25000000  1
  Ga  Ga2  1  0.68194464  0.31805536  0.95174766  1
  Ga  Ga3  1  0.31805536  0.68194464  0.04825234  1
  Ga  Ga4  1  0.68194464  0.31805536  0.54825234  1
  Ga  Ga5  1  0.31805536  0.68194464  0.45174766  1
  Ni  Ni0  1  0.22120616  0.77879384  0.75000000  1
  Ni  Ni1  1  0.77879384  0.22120616  0.25000000  1
loop_
_geom_bond_atom_site_label_1
_geom_bond_atom_site_label_2
_geom_bond_distance
_geom_bond_site_symmetry_2
Lu0 Ni0 3.058977 1_545
Lu0 Ni0 3.058977 1_655
Lu0 Zn1 3.183419 1_655
Lu0 Zn0 3.183419 1_656
Lu0 Zn0 3.183420 1_546
Lu0 Zn1 3.183420 1_545
Lu1 Ni1 3.058977 1_565
Lu1 Ni1 3.058977 1_455
Lu1 Zn0 3.183419 1_455
Lu1 Zn1 3.183419 1_455
Lu1 Zn1 3.183420 1_565
Lu1 Zn0 3.183420 1_565
Ga0 Ni0 2.331507 1_555
Ga0 Zn0 2.750450 1_456
Ga0 Zn1 2.750450 1_455
Ga0 Zn0 2.750450 1_566
Ga0 Zn1 2.750450 1_565
Ga0 Lu0 2.858166 1_465
Ga0 Lu1 3.295592 1_556
Ga0 Lu1 3.295592 1_555
Ga1 Ni1 2.331507 1_555
Ga1 Zn0 2.750450 1_655
Ga1 Zn1 2.750450 1_655
Ga1 Zn0 2.750450 1_545
Ga1 Zn1 2.750450 1_545
Ga1 Lu1 2.858166 1_645
Ga1 Lu0 3.295592 1_555
Ga1 Lu0 3.295592 1_554
Ga2 Ni1 2.382987 1_556
Ga2 Ni0 2.464576 1_655
Ga2 Ni0 2.464576 1_545
Ga2 Zn0 2.740589 1_556
Ga2 Lu1 2.895334 1_546
Ga2 Lu1 2.895335 1_656
Ga2 Lu0 3.153476 1_555
Ga3 Ni0 2.382987 1_554
Ga3 Ni1 2.464576 1_455
Ga3 Ni1 2.464576 1_565
Ga3 Zn0 2.740589 1_555
Ga3 Lu0 2.895334 1_564
Ga3 Lu0 2.895335 1_454
Ga3 Lu1 3.153476 1_555
Ga4 Ni1 2.382987 1_555
Ga4 Ni0 2.464576 1_655
Ga4 Ni0 2.464576 1_545
Ga4 Zn1 2.740589 1_555
Ga4 Lu1 2.895334 1_545
Ga4 Lu1 2.895335 1_655
Ga4 Lu0 3.153476 1_555
Ga5 Ni0 2.382987 1_555
Ga5 Ni1 2.464576 1_455
Ga5 Ni1 2.464576 1_565
Ga5 Zn1 2.740589 1_555
Ga5 Lu0 2.895334 1_565
Ga5 Lu0 2.895335 1_455
Ga5 Lu1 3.153476 1_555
