# generated using pymatgen
data_Li17(MnAs2)4
_symmetry_space_group_name_H-M   'P 1'
_cell_length_a   6.13803800
_cell_length_b   8.63975685
_cell_length_c   8.66594961
_cell_angle_alpha   89.58801198
_cell_angle_beta   89.97867098
_cell_angle_gamma   89.93926077
_symmetry_Int_Tables_number   1
_chemical_formula_structural   Li17(MnAs2)4
_chemical_formula_sum   'Li17 Mn4 As8'
_cell_volume   459.55315511
_cell_formula_units_Z   1
loop_
 _symmetry_equiv_pos_site_id
 _symmetry_equiv_pos_as_xyz
  1  'x, y, z'
loop_
 _atom_site_type_symbol
 _atom_site_label
 _atom_site_symmetry_multiplicity
 _atom_site_fract_x
 _atom_site_fract_y
 _atom_site_fract_z
 _atom_site_occupancy
  Li  Li0  1  0.99654500  0.11505700  0.86225200  1
  Li  Li1  1  0.49728400  0.11542300  0.86647100  1
  Li  Li2  1  0.96676600  0.37709600  0.62640400  1
  Li  Li3  1  0.52703300  0.37441000  0.62682600  1
  Li  Li4  1  0.98866600  0.12637400  0.38661400  1
  Li  Li5  1  0.24607700  0.38090500  0.37581500  1
  Li  Li6  1  0.75358700  0.12795800  0.11972700  1
  Li  Li7  1  0.00311400  0.37368200  0.12676300  1
  Li  Li8  1  0.98282100  0.62476300  0.39238700  1
  Li  Li9  1  0.51682600  0.62450600  0.39012900  1
  Li  Li10  1  0.49749400  0.37442000  0.12643300  1
  Li  Li11  1  0.75651300  0.61867900  0.12858900  1
  Li  Li12  1  0.24357700  0.36950400  0.87468400  1
  Li  Li13  1  0.02062800  0.87429100  0.10699400  1
  Li  Li14  1  0.48411600  0.87459200  0.11051800  1
  Li  Li15  1  0.00142700  0.63347400  0.86661100  1
  Li  Li16  1  0.24631500  0.87229600  0.36574800  1
  Mn  Mn0  1  0.51047200  0.12637500  0.38430700  1
  Mn  Mn1  1  0.49934500  0.62923500  0.86956500  1
  Mn  Mn2  1  0.98964700  0.87507700  0.63151500  1
  Mn  Mn3  1  0.50551600  0.87705900  0.62968400  1
  As  As0  1  0.25044100  0.12658500  0.62024500  1
  As  As1  1  0.25353100  0.12828800  0.13625700  1
  As  As2  1  0.74844300  0.37276100  0.36606100  1
  As  As3  1  0.74692000  0.37841500  0.88683800  1
  As  As4  1  0.25343600  0.62056800  0.12883700  1
  As  As5  1  0.74842600  0.87271000  0.87926000  1
  As  As6  1  0.25165100  0.62537400  0.62424800  1
  As  As7  1  0.75132300  0.87774600  0.37099200  1
loop_
_geom_bond_atom_site_label_1
_geom_bond_atom_site_label_2
_geom_bond_distance
_geom_bond_site_symmetry_2
Li0 Li12 2.674721 1_655
Li0 Li6 2.686196 1_556
Li0 Mn2 2.891149 1_545
Li1 Li12 2.691458 1_555
Li1 Li6 2.703656 1_556
Li1 Mn3 2.918017 1_545
Li2 Li5 2.766307 1_655
Li3 Li5 2.776626 1_555
Li4 Li5 2.710245 1_655
Li4 Li6 2.726423 1_555
Li4 Mn2 3.025191 1_545
Li5 Li7 2.624993 1_555
Li5 Li8 2.658487 1_455
Li5 Li9 2.686649 1_555
Li5 Mn0 2.732261 1_555
Li6 Li7 2.620204 1_655
Li6 Mn0 2.735167 1_555
Li8 Mn2 3.006299 1_555
Li9 Mn3 3.023293 1_555
Li10 Li11 2.643721 1_555
Li10 Li6 2.646339 1_555
Li10 Li5 2.655973 1_555
Li10 Li12 2.682250 1_554
Li11 Li7 2.601063 1_655
Li11 Li8 2.676312 1_555
Li11 Li9 2.702402 1_555
Li11 Li15 2.724725 1_654
Li11 Mn1 2.745545 1_554
Li11 Li13 2.746217 1_655
Li11 Li14 2.774178 1_555
Li12 Li7 2.636375 1_556
Li12 Li15 2.721389 1_555
Li12 Mn1 2.740105 1_555
Li12 Li2 2.742430 1_455
Li12 Li3 2.763796 1_555
Li13 Li16 2.636119 1_555
Li13 Li6 2.738207 1_465
Li14 Li16 2.649538 1_555
Li14 Li6 2.746682 1_565
Li15 Mn2 2.907194 1_455
Li16 Li8 2.691234 1_455
Li16 Li4 2.711204 1_465
Li16 Li9 2.714964 1_555
Li16 Mn0 2.736140 1_565
Li16 Mn3 2.787234 1_555
Li16 Mn2 2.790157 1_455
As0 Li4 2.585225 1_455
As0 Mn0 2.593375 1_555
As0 Li0 2.613777 1_455
As0 Li1 2.618604 1_555
As0 Mn3 2.663841 1_545
As0 Mn2 2.701477 1_445
As0 Li3 2.734885 1_555
As0 Li2 2.777172 1_455
As0 Li5 3.041137 1_555
As0 Li12 3.055273 1_555
As0 Li16 3.124310 1_545
As1 Li10 2.603029 1_555
As1 Li7 2.618213 1_555
As1 Li14 2.618675 1_545
As1 Li13 2.634123 1_545
As1 Mn0 2.666505 1_555
As1 Li4 2.710597 1_455
As1 Li1 2.778068 1_554
As1 Li0 2.854228 1_454
As1 Li16 2.964061 1_545
As1 Li5 3.023286 1_555
As1 Li12 3.068740 1_554
As1 Li6 3.072075 1_455
As1 Li6 3.072650 1_555
As2 Li10 2.585929 1_555
As2 Mn0 2.586809 1_555
As2 Li4 2.593342 1_555
As2 Li7 2.596418 1_655
As2 Li9 2.606741 1_555
As2 Li8 2.622225 1_555
As2 Li2 2.625043 1_555
As2 Li3 2.636640 1_555
As2 Li11 2.947709 1_555
As2 Li6 3.015981 1_555
As2 Li5 3.056596 1_655
As2 Li5 3.085410 1_555
As3 Li10 2.579326 1_556
As3 Li7 2.607408 1_656
As3 Li3 2.627440 1_555
As3 Li2 2.629216 1_555
As3 Mn1 2.648807 1_555
As3 Li15 2.707160 1_655
As3 Li1 2.748673 1_555
As3 Li0 2.751292 1_555
As3 Li6 2.948610 1_556
As3 Li11 2.960478 1_556
As3 Li12 3.051188 1_655
As3 Li12 3.092431 1_555
As4 Li10 2.600209 1_555
As4 Li14 2.616903 1_555
As4 Li13 2.621210 1_555
As4 Li7 2.630299 1_555
As4 Mn1 2.706930 1_554
As4 Li15 2.750950 1_554
As4 Li9 2.783176 1_555
As4 Li8 2.823982 1_455
As4 Li5 2.967629 1_555
As4 Li16 3.001826 1_555
As4 Li11 3.050195 1_455
As4 Li11 3.087932 1_555
As4 Li12 3.103028 1_554
As5 Li14 2.578092 1_556
As5 Li13 2.586393 1_656
As5 Li15 2.586924 1_655
As5 Li0 2.593719 1_565
As5 Li1 2.603042 1_565
As5 Mn1 2.603640 1_555
As5 Mn2 2.607510 1_555
As5 Mn3 2.627421 1_555
As5 Li6 3.045174 1_566
As5 Li11 3.069140 1_556
As6 Li8 2.600525 1_455
As6 Li9 2.600641 1_555
As6 Li15 2.602807 1_555
As6 Mn1 2.614498 1_555
As6 Mn3 2.677211 1_555
As6 Mn2 2.690543 1_455
As6 Li3 2.747831 1_555
As6 Li2 2.768883 1_455
As6 Li5 3.027040 1_555
As6 Li16 3.082480 1_555
As6 Li12 3.087177 1_555
As7 Li4 2.601132 1_565
As7 Mn0 2.609570 1_565
As7 Li8 2.611240 1_555
As7 Li9 2.624417 1_555
As7 Mn2 2.690575 1_555
As7 Mn3 2.701751 1_555
As7 Li14 2.791002 1_555
As7 Li13 2.822300 1_655
As7 Li16 3.038923 1_655
As7 Li6 3.057300 1_565
As7 Li11 3.080755 1_555
As7 Li16 3.100521 1_555
