# generated using pymatgen
data_TaHO3
_symmetry_space_group_name_H-M   'P 1'
_cell_length_a   7.50101453
_cell_length_b   7.50101453
_cell_length_c   7.50101453
_cell_angle_alpha   117.74480930
_cell_angle_beta   117.74480930
_cell_angle_gamma   93.95260774
_symmetry_Int_Tables_number   1
_chemical_formula_structural   TaHO3
_chemical_formula_sum   'Ta4 H4 O12'
_cell_volume   307.81209572
_cell_formula_units_Z   4
loop_
 _symmetry_equiv_pos_site_id
 _symmetry_equiv_pos_as_xyz
  1  'x, y, z'
loop_
 _atom_site_type_symbol
 _atom_site_label
 _atom_site_symmetry_multiplicity
 _atom_site_fract_x
 _atom_site_fract_y
 _atom_site_fract_z
 _atom_site_occupancy
  Ta  Ta0  1  0.87500000  0.12500000  0.25000000  1
  Ta  Ta1  1  0.37500000  0.12500000  0.25000000  1
  Ta  Ta2  1  0.87500000  0.62500000  0.75000000  1
  Ta  Ta3  1  0.87500000  0.12500000  0.75000000  1
  H  H0  1  0.69887800  0.69887800  0.00000000  1
  H  H1  1  0.30112200  0.30112200  0.00000000  1
  H  H2  1  0.44887800  0.94887800  0.50000000  1
  H  H3  1  0.05112200  0.55112200  0.50000000  1
  O  O0  1  0.79393600  0.79393600  0.00000000  1
  O  O1  1  0.82474000  0.17526000  0.00000000  1
  O  O2  1  0.82474000  0.82474000  0.64948000  1
  O  O3  1  0.17526000  0.17526000  0.35052000  1
  O  O4  1  0.54393600  0.04393600  0.50000000  1
  O  O5  1  0.57474000  0.42526000  0.50000000  1
  O  O6  1  0.17526000  0.82474000  0.00000000  1
  O  O7  1  0.20606400  0.20606400  0.00000000  1
  O  O8  1  0.57474000  0.07474000  0.14948000  1
  O  O9  1  0.92526000  0.42526000  0.85052000  1
  O  O10  1  0.92526000  0.07474000  0.50000000  1
  O  O11  1  0.95606400  0.45606400  0.50000000  1
loop_
_geom_bond_atom_site_label_1
_geom_bond_atom_site_label_2
_geom_bond_distance
_geom_bond_site_symmetry_2
H0 O0 0.973004 1_555
H1 O7 0.973004 1_555
H2 O4 0.973004 1_565
H3 O11 0.973004 1_455
O0 Ta0 2.108906 1_565
O0 Ta2 2.108906 1_554
O1 Ta3 1.954592 1_554
O1 Ta0 1.954592 1_555
O2 Ta3 1.954592 1_565
O2 Ta2 1.954592 1_555
O3 Ta0 1.954592 1_455
O3 Ta1 1.954592 1_555
O4 Ta1 2.108906 1_555
O4 Ta3 2.108906 1_555
O5 Ta2 1.954592 1_555
O5 Ta1 1.954592 1_555
O6 Ta1 1.954592 1_565
O6 Ta2 1.954592 1_454
O7 Ta1 2.108906 1_555
O7 Ta3 2.108906 1_454
O8 Ta0 1.954592 1_555
O8 Ta1 1.954592 1_555
O9 Ta2 1.954592 1_555
O9 Ta3 1.954592 1_555
O10 Ta3 1.954592 1_555
O10 Ta0 1.954592 1_555
O11 Ta2 2.108906 1_555
O11 Ta0 2.108906 1_555
