# generated using pymatgen
data_V(FePt3)2
_symmetry_space_group_name_H-M   'P 1'
_cell_length_a   6.07353517
_cell_length_b   6.07353489
_cell_length_c   6.14853105
_cell_angle_alpha   95.78508639
_cell_angle_beta   95.78508380
_cell_angle_gamma   142.74186387
_symmetry_Int_Tables_number   1
_chemical_formula_structural   V(FePt3)2
_chemical_formula_sum   'V1 Fe2 Pt6'
_cell_volume   130.29489617
_cell_formula_units_Z   1
loop_
 _symmetry_equiv_pos_site_id
 _symmetry_equiv_pos_as_xyz
  1  'x, y, z'
loop_
 _atom_site_type_symbol
 _atom_site_label
 _atom_site_symmetry_multiplicity
 _atom_site_fract_x
 _atom_site_fract_y
 _atom_site_fract_z
 _atom_site_occupancy
  V  V0  1  0.00000000  0.00000000  0.00000000  1
  Fe  Fe0  1  0.33513932  0.33513932  0.67027864  1
  Fe  Fe1  1  0.66486068  0.66486068  0.32972136  1
  Pt  Pt0  1  0.65682995  0.34317005  1.00000000  1
  Pt  Pt1  1  0.34317005  0.65682995  0.00000000  1
  Pt  Pt2  1  0.01002251  0.32321169  0.33323420  1
  Pt  Pt3  1  0.98997749  0.67678831  0.66676580  1
  Pt  Pt4  1  0.67678831  0.98997749  0.66676580  1
  Pt  Pt5  1  0.32321169  0.01002251  0.33323420  1
loop_
_geom_bond_atom_site_label_1
_geom_bond_atom_site_label_2
_geom_bond_distance
_geom_bond_site_symmetry_2
Fe0 Pt1 2.638092 1_556
Fe0 Pt0 2.638092 1_555
Fe0 Pt4 2.648310 1_555
Fe0 Pt3 2.648310 1_445
Fe0 Pt3 2.648311 1_555
Fe0 Pt4 2.648311 1_445
Fe0 Pt5 2.667577 1_555
Fe0 Pt2 2.667577 1_555
Fe0 V0 2.732186 1_556
Fe0 V0 2.732186 1_666
Fe0 Fe1 2.777063 1_555
Fe0 Fe1 2.777063 1_445
Fe1 Pt0 2.638092 1_554
Fe1 Pt1 2.638092 1_555
Fe1 Pt5 2.648310 1_555
Fe1 Pt2 2.648310 1_665
Fe1 Pt2 2.648311 1_555
Fe1 Pt5 2.648311 1_665
Fe1 Pt4 2.667577 1_555
Fe1 Pt3 2.667577 1_555
Fe1 V0 2.732186 1_665
Fe1 V0 2.732186 1_555
Pt0 V0 2.650076 1_666
Pt0 V0 2.650076 1_556
Pt0 Pt3 2.746657 1_555
Pt0 Pt5 2.746657 1_556
Pt0 Pt5 2.746657 1_666
Pt0 Pt3 2.746657 1_445
Pt0 Pt1 2.892175 1_546
Pt0 Pt1 2.892175 1_656
Pt0 Pt4 2.896931 1_545
Pt0 Pt2 2.896931 1_656
Pt1 V0 2.650076 1_555
Pt1 V0 2.650076 1_665
Pt1 Pt2 2.746657 1_555
Pt1 Pt4 2.746657 1_554
Pt1 Pt4 2.746657 1_444
Pt1 Pt2 2.746657 1_665
Pt1 Pt5 2.896931 1_565
Pt1 Pt3 2.896931 1_454
Pt2 V0 2.651232 1_555
Pt2 Pt4 2.747884 1_445
Pt2 Pt4 2.747884 1_555
Pt2 Pt5 2.896196 1_565
Pt2 Pt5 2.896196 1_455
Pt2 Pt3 2.900104 1_455
Pt3 V0 2.651232 1_666
Pt3 Pt5 2.747884 1_665
Pt3 Pt5 2.747884 1_555
Pt3 Pt4 2.896196 1_545
Pt3 Pt4 2.896196 1_655
Pt4 V0 2.651232 1_666
Pt4 Pt5 2.900104 1_565
Pt5 V0 2.651232 1_555
