# generated using pymatgen
data_CsNaAs2Pd
_symmetry_space_group_name_H-M   'P 1'
_cell_length_a   7.36443397
_cell_length_b   7.36443359
_cell_length_c   6.07989690
_cell_angle_alpha   90.00000000
_cell_angle_beta   90.00000000
_cell_angle_gamma   123.59400008
_symmetry_Int_Tables_number   1
_chemical_formula_structural   CsNaAs2Pd
_chemical_formula_sum   'Cs2 Na2 As4 Pd2'
_cell_volume   274.66864662
_cell_formula_units_Z   2
loop_
 _symmetry_equiv_pos_site_id
 _symmetry_equiv_pos_as_xyz
  1  'x, y, z'
loop_
 _atom_site_type_symbol
 _atom_site_label
 _atom_site_symmetry_multiplicity
 _atom_site_fract_x
 _atom_site_fract_y
 _atom_site_fract_z
 _atom_site_occupancy
  Cs  Cs0  1  0.39892796  0.60107204  0.25000000  1
  Cs  Cs1  1  0.60107204  0.39892796  0.75000000  1
  Na  Na0  1  0.79929125  0.20070875  0.25000000  1
  Na  Na1  1  0.20070875  0.79929125  0.75000000  1
  As  As0  1  0.04989585  0.29572720  0.75000000  1
  As  As1  1  0.95010415  0.70427280  0.25000000  1
  As  As2  1  0.29572720  0.04989585  0.25000000  1
  As  As3  1  0.70427280  0.95010415  0.75000000  1
  Pd  Pd0  1  0.00000000  0.00000000  0.00000000  1
  Pd  Pd1  1  0.00000000  0.00000000  0.50000000  1
loop_
_geom_bond_atom_site_label_1
_geom_bond_atom_site_label_2
_geom_bond_distance
_geom_bond_site_symmetry_2
Cs0 Na0 3.712935 1_565
Cs0 Na0 3.712936 1_455
Cs0 Na1 3.982621 1_555
Cs0 Na1 3.982621 1_554
Cs0 Cs1 4.015722 1_555
Cs0 Cs1 4.015722 1_554
Cs0 Pd0 4.018053 1_555
Cs0 Pd1 4.018053 1_555
Cs0 Pd1 4.018053 1_665
Cs0 Pd0 4.018053 1_665
Cs1 Na1 3.712935 1_545
Cs1 Na1 3.712936 1_655
Cs1 Na0 3.982621 1_555
Cs1 Na0 3.982621 1_556
Cs1 Pd0 4.018053 1_666
Cs1 Pd1 4.018053 1_665
Cs1 Pd1 4.018053 1_555
Cs1 Pd0 4.018053 1_556
Na0 Pd0 3.016229 1_655
Na0 Pd1 3.016229 1_655
Na1 Pd1 3.016229 1_565
Na1 Pd0 3.016229 1_566
As0 As3 2.405819 1_445
As0 Pd1 2.510548 1_555
As0 Pd0 2.510548 1_556
As0 Na1 3.229294 1_555
As0 Na0 3.421684 1_455
As0 Na0 3.421684 1_456
As0 Cs1 3.693245 1_555
As0 Cs1 3.779255 1_455
As0 Cs0 3.809026 1_555
As0 Cs0 3.809026 1_556
As1 As2 2.405819 1_665
As1 Pd0 2.510548 1_665
As1 Pd1 2.510548 1_665
As1 Na0 3.229294 1_555
As1 Na1 3.421684 1_654
As1 Na1 3.421684 1_655
As1 Cs0 3.693245 1_555
As1 Cs0 3.779255 1_655
As1 Cs1 3.809026 1_555
As1 Cs1 3.809026 1_554
As2 Pd1 2.510548 1_555
As2 Pd0 2.510548 1_555
As2 Na0 3.229294 1_555
As2 Na1 3.421684 1_544
As2 Na1 3.421684 1_545
As2 Cs0 3.693245 1_555
As2 Cs0 3.779255 1_545
As2 Cs1 3.809026 1_555
As2 Cs1 3.809026 1_554
As3 Pd0 2.510548 1_666
As3 Pd1 2.510548 1_665
As3 Na1 3.229294 1_555
As3 Na0 3.421684 1_566
As3 Na0 3.421684 1_565
As3 Cs1 3.693245 1_555
As3 Cs1 3.779255 1_565
As3 Cs0 3.809026 1_555
As3 Cs0 3.809026 1_556
