# generated using pymatgen
data_RbSiSnP2
_symmetry_space_group_name_H-M   'P 1'
_cell_length_a   8.12903990
_cell_length_b   11.09285351
_cell_length_c   8.04836477
_cell_angle_alpha   67.81411576
_cell_angle_beta   77.99797200
_cell_angle_gamma   56.86664801
_symmetry_Int_Tables_number   1
_chemical_formula_structural   RbSiSnP2
_chemical_formula_sum   'Rb4 Si4 Sn4 P8'
_cell_volume   562.75137966
_cell_formula_units_Z   4
loop_
 _symmetry_equiv_pos_site_id
 _symmetry_equiv_pos_as_xyz
  1  'x, y, z'
loop_
 _atom_site_type_symbol
 _atom_site_label
 _atom_site_symmetry_multiplicity
 _atom_site_fract_x
 _atom_site_fract_y
 _atom_site_fract_z
 _atom_site_occupancy
  Rb  Rb0  1  0.37298119  0.73631016  0.30419810  1
  Rb  Rb1  1  0.62701881  0.26368984  0.69580190  1
  Rb  Rb2  1  0.31539992  0.79710708  0.77510001  1
  Rb  Rb3  1  0.68460008  0.20289292  0.22489999  1
  Si  Si0  1  0.92405209  0.57187889  0.59528154  1
  Si  Si1  1  0.07594791  0.42812111  0.40471846  1
  Si  Si2  1  0.16021530  0.46806852  0.97598938  1
  Si  Si3  1  0.83978470  0.53193148  0.02401062  1
  Sn  Sn0  1  0.82091531  0.87207320  0.65061295  1
  Sn  Sn1  1  0.17908469  0.12792680  0.34938705  1
  Sn  Sn2  1  0.86124690  0.83244720  0.11628773  1
  Sn  Sn3  1  0.13875310  0.16755280  0.88371227  1
  P  P0  1  0.69283578  0.80427106  0.44060483  1
  P  P1  1  0.30716422  0.19572894  0.55939517  1
  P  P2  1  0.84643896  0.40444620  0.31835595  1
  P  P3  1  0.15356104  0.59555380  0.68164405  1
  P  P4  1  0.65924821  0.78562198  0.95551766  1
  P  P5  1  0.34075179  0.21437802  0.04448234  1
  P  P6  1  0.80361418  0.44717147  0.82631942  1
  P  P7  1  0.19638582  0.55282853  0.17368058  1
loop_
_geom_bond_atom_site_label_1
_geom_bond_atom_site_label_2
_geom_bond_distance
_geom_bond_site_symmetry_2
Rb0 Sn1 3.867537 1_565
Rb1 Sn0 3.867537 1_545
Rb2 Sn1 3.751279 1_565
Rb2 Sn0 3.904456 1_455
Rb2 Sn3 3.930988 1_565
Rb2 Sn2 4.042084 1_456
Rb3 Sn0 3.751279 1_545
Rb3 Sn1 3.904456 1_655
Rb3 Sn2 3.930988 1_545
Rb3 Sn3 4.042084 1_654
Si0 Si1 2.308018 1_655
Si2 Si3 2.281893 1_456
P0 Si0 2.231752 1_555
P0 Sn0 2.656043 1_555
P0 Sn2 2.674065 1_555
P0 Rb0 3.534013 1_555
P0 Rb2 3.652044 1_555
P1 Si1 2.231752 1_555
P1 Sn1 2.656043 1_555
P1 Sn3 2.674065 1_555
P1 Rb1 3.534013 1_555
P1 Rb3 3.652044 1_555
P2 Si3 2.248222 1_555
P2 Si1 2.290351 1_655
P2 Sn1 2.723655 1_655
P2 Rb1 3.472262 1_555
P2 Rb3 3.491768 1_555
P2 Rb0 3.571401 1_555
P3 Si2 2.248222 1_555
P3 Si0 2.290351 1_455
P3 Sn0 2.723655 1_455
P3 Rb0 3.472262 1_555
P3 Rb2 3.491768 1_555
P3 Rb1 3.571401 1_555
P4 Si3 2.242135 1_556
P4 Sn0 2.632107 1_555
P4 Sn2 2.638951 1_556
P4 Rb2 3.331160 1_555
P4 Rb0 3.332581 1_556
P5 Si2 2.242135 1_554
P5 Sn1 2.632107 1_555
P5 Sn3 2.638951 1_554
P5 Rb3 3.331160 1_555
P5 Rb1 3.332581 1_554
P6 Si0 2.260668 1_555
P6 Si3 2.264653 1_556
P6 Sn3 2.731310 1_655
P6 Rb1 3.569702 1_555
P6 Rb3 3.685064 1_556
P6 Rb2 3.690474 1_555
P7 Si1 2.260668 1_555
P7 Si2 2.264653 1_554
P7 Sn2 2.731310 1_455
P7 Rb0 3.569702 1_555
P7 Rb2 3.685064 1_554
P7 Rb3 3.690474 1_555
