# generated using pymatgen
data_SbP4RhO14
_symmetry_space_group_name_H-M   'P 1'
_cell_length_a   7.98345578
_cell_length_b   4.80697343
_cell_length_c   6.97556663
_cell_angle_alpha   73.06857545
_cell_angle_beta   90.34064831
_cell_angle_gamma   90.48342610
_symmetry_Int_Tables_number   1
_chemical_formula_structural   SbP4RhO14
_chemical_formula_sum   'Sb1 P4 Rh1 O14'
_cell_volume   256.08178192
_cell_formula_units_Z   1
loop_
 _symmetry_equiv_pos_site_id
 _symmetry_equiv_pos_as_xyz
  1  'x, y, z'
loop_
 _atom_site_type_symbol
 _atom_site_label
 _atom_site_symmetry_multiplicity
 _atom_site_fract_x
 _atom_site_fract_y
 _atom_site_fract_z
 _atom_site_occupancy
  Sb  Sb0  1  0.05021172  0.21749642  0.27228433  1
  P  P0  1  0.86063634  0.60503619  0.51105870  1
  P  P1  1  0.28718416  0.77854522  0.10158960  1
  P  P2  1  0.77834260  0.22260192  0.89527599  1
  P  P3  1  0.36841399  0.39312696  0.49750426  1
  Rh  Rh0  1  0.55087702  0.78106153  0.72697721  1
  O  O0  1  0.75025806  0.94903301  0.83717387  1
  O  O1  1  0.38264183  0.87568811  0.91367082  1
  O  O2  1  0.00281638  0.82887795  0.45437436  1
  O  O3  1  0.68918954  0.72917469  0.49963760  1
  O  O4  1  0.35657004  0.59136347  0.62785813  1
  O  O5  1  0.62630907  0.39202396  0.91656074  1
  O  O6  1  0.90491880  0.42651935  0.73244870  1
  O  O7  1  0.40250164  0.58564233  0.27017634  1
  O  O8  1  0.12594183  0.59870303  0.09396878  1
  O  O9  1  0.86693400  0.40065192  0.37713700  1
  O  O10  1  0.18954998  0.26536563  0.49188176  1
  O  O11  1  0.50299991  0.17118876  0.53302290  1
  O  O12  1  0.89034151  0.13874268  0.08453705  1
  O  O13  1  0.23657259  0.04915689  0.16286088  1
loop_
_geom_bond_atom_site_label_1
_geom_bond_atom_site_label_2
_geom_bond_distance
_geom_bond_site_symmetry_2
O0 P2 1.499414 1_565
O0 Rh0 2.025281 1_555
O1 P1 1.471893 1_556
O1 Rh0 2.020624 1_555
O2 P0 1.529532 1_455
O2 Sb0 1.964177 1_565
O3 P0 1.490192 1_555
O3 Rh0 2.013002 1_555
O4 P3 1.500344 1_555
O4 Rh0 2.011595 1_555
O5 P2 1.499250 1_555
O5 Rh0 2.043978 1_555
O6 P0 1.572588 1_555
O6 P2 1.618799 1_555
O7 P1 1.567400 1_555
O7 P3 1.609713 1_555
O8 P1 1.553841 1_555
O8 Sb0 1.983237 1_555
O9 P0 1.541570 1_555
O9 Sb0 1.964830 1_655
O10 P3 1.554454 1_555
O10 Sb0 1.953860 1_555
O11 P3 1.488705 1_555
O11 Rh0 2.005380 1_545
O12 P2 1.544988 1_554
O12 Sb0 1.936029 1_655
O13 P1 1.540398 1_545
O13 Sb0 1.960755 1_555
