# generated using pymatgen
data_HfZrReMo3
_symmetry_space_group_name_H-M   'P 1'
_cell_length_a   5.33530223
_cell_length_b   5.33530158
_cell_length_c   5.33488501
_cell_angle_alpha   59.99740689
_cell_angle_beta   59.99741439
_cell_angle_gamma   59.99999119
_symmetry_Int_Tables_number   1
_chemical_formula_structural   HfZrReMo3
_chemical_formula_sum   'Hf1 Zr1 Re1 Mo3'
_cell_volume   107.37694318
_cell_formula_units_Z   1
loop_
 _symmetry_equiv_pos_site_id
 _symmetry_equiv_pos_as_xyz
  1  'x, y, z'
loop_
 _atom_site_type_symbol
 _atom_site_label
 _atom_site_symmetry_multiplicity
 _atom_site_fract_x
 _atom_site_fract_y
 _atom_site_fract_z
 _atom_site_occupancy
  Hf  Hf0  1  0.25055484  0.25055484  0.24833647  1
  Zr  Zr0  1  0.99942361  0.99942361  0.00173017  1
  Re  Re0  1  0.62497012  0.62497012  0.12508963  1
  Mo  Mo0  1  0.62502276  0.12500691  0.62494758  1
  Mo  Mo1  1  0.12500691  0.62502276  0.62494758  1
  Mo  Mo2  1  0.62502276  0.62502276  0.62494758  1
loop_
_geom_bond_atom_site_label_1
_geom_bond_atom_site_label_2
_geom_bond_distance
_geom_bond_site_symmetry_2
Hf0 Mo2 3.121737 1_554
Hf0 Mo1 3.121739 1_554
Hf0 Mo0 3.121739 1_554
Hf0 Re0 3.126764 1_555
Hf0 Re0 3.126768 1_545
Hf0 Re0 3.126768 1_455
Hf0 Mo1 3.131666 1_555
Hf0 Mo0 3.131666 1_555
Hf0 Mo2 3.131668 1_545
Hf0 Mo2 3.131668 1_455
Hf0 Mo1 3.131670 1_545
Hf0 Mo0 3.131671 1_455
Hf0 Zr0 3.262252 1_455
Hf0 Zr0 3.262252 1_545
Hf0 Zr0 3.262252 1_445
Hf0 Zr0 3.281591 1_446
Re0 Zr0 3.126849 1_545
Re0 Zr0 3.126849 1_455
Re0 Zr0 3.126854 1_555
Mo0 Re0 2.666965 1_555
Mo0 Mo1 2.667566 1_645
Mo0 Mo2 2.667566 1_545
Mo0 Mo1 2.667735 1_555
Mo0 Mo2 2.667735 1_555
Mo0 Re0 2.667919 1_546
Mo0 Zr0 3.121040 1_545
Mo0 Zr0 3.132057 1_446
Mo0 Zr0 3.132062 1_546
Mo1 Re0 2.666966 1_555
Mo1 Mo2 2.667567 1_455
Mo1 Mo2 2.667736 1_555
Mo1 Re0 2.667920 1_456
Mo1 Zr0 3.121040 1_455
Mo1 Zr0 3.132057 1_446
Mo1 Zr0 3.132062 1_456
Mo2 Re0 2.666966 1_555
Mo2 Re0 2.667920 1_556
Mo2 Zr0 3.121042 1_555
Mo2 Zr0 3.132059 1_546
Mo2 Zr0 3.132059 1_456
