# generated using pymatgen
data_HfTa4Si2Ge
_symmetry_space_group_name_H-M   'P 1'
_cell_length_a   7.64196886
_cell_length_b   7.64196769
_cell_length_c   7.63533266
_cell_angle_alpha   128.87077089
_cell_angle_beta   128.87076035
_cell_angle_gamma   75.28311784
_symmetry_Int_Tables_number   1
_chemical_formula_structural   HfTa4Si2Ge
_chemical_formula_sum   'Hf2 Ta8 Si4 Ge2'
_cell_volume   263.00156783
_cell_formula_units_Z   2
loop_
 _symmetry_equiv_pos_site_id
 _symmetry_equiv_pos_as_xyz
  1  'x, y, z'
loop_
 _atom_site_type_symbol
 _atom_site_label
 _atom_site_symmetry_multiplicity
 _atom_site_fract_x
 _atom_site_fract_y
 _atom_site_fract_z
 _atom_site_occupancy
  Hf  Hf0  1  0.01532625  0.18409078  0.50000000  1
  Hf  Hf1  1  0.68409078  0.51532625  0.50000000  1
  Ta  Ta0  1  0.51579563  0.01579563  0.82684089  1
  Ta  Ta1  1  0.18895674  0.68895674  0.17316011  1
  Ta  Ta2  1  0.98349299  0.80879611  0.50000000  1
  Ta  Ta3  1  0.30879611  0.48349299  0.50000000  1
  Ta  Ta4  1  0.48447215  0.98447215  0.17073529  1
  Ta  Ta5  1  0.81373486  0.31373486  0.82926271  1
  Ta  Ta6  1  0.00338661  0.00338661  1.00000000  1
  Ta  Ta7  1  0.50338661  0.50338661  1.00000000  1
  Si  Si0  1  0.37191078  0.13069632  0.50000000  1
  Si  Si1  1  0.63069632  0.87191078  0.50000000  1
  Si  Si2  1  0.86933293  0.36933293  0.23798204  1
  Si  Si3  1  0.13135089  0.63135089  0.76201796  1
  Ge  Ge0  1  0.74763618  0.74763618  0.00000000  1
  Ge  Ge1  1  0.24763618  0.24763618  0.00000000  1
loop_
_geom_bond_atom_site_label_1
_geom_bond_atom_site_label_2
_geom_bond_distance
_geom_bond_site_symmetry_2
Hf0 Si0 2.650890 1_555
Hf0 Si2 2.683611 1_455
Hf0 Si3 2.683613 1_555
Hf0 Ta2 2.939223 1_445
Hf1 Si1 2.650890 1_555
Hf1 Si2 2.683611 1_555
Hf1 Si3 2.683613 1_655
Hf1 Ta3 2.939224 1_555
Si0 Si1 2.415556 1_545
Si0 Ta7 2.586141 1_555
Si0 Ta6 2.586141 1_554
Si0 Ta3 2.615469 1_555
Si0 Ta5 2.647423 1_555
Si0 Ta4 2.647434 1_545
Si0 Ta1 2.650162 1_545
Si0 Ta0 2.650175 1_555
Si1 Ta7 2.586141 1_554
Si1 Ta6 2.586141 1_665
Si1 Ta2 2.615470 1_555
Si1 Ta5 2.647422 1_565
Si1 Ta4 2.647434 1_555
Si1 Ta1 2.650163 1_555
Si1 Ta0 2.650175 1_565
Si2 Si3 2.440034 1_655
Si2 Ta6 2.583544 1_654
Si2 Ta7 2.583544 1_554
Si2 Ta5 2.619765 1_554
Si2 Ta0 2.621390 1_554
Si2 Ta2 2.628154 1_555
Si2 Ta3 2.628154 1_655
Si3 Ta6 2.583544 1_565
Si3 Ta7 2.583544 1_555
Si3 Ta4 2.619769 1_556
Si3 Ta1 2.621378 1_556
Si3 Ta3 2.628152 1_555
Si3 Ta2 2.628152 1_455
Ge0 Ta4 2.738516 1_555
Ge0 Ta5 2.738524 1_554
Ge0 Hf1 2.750736 1_554
Ge0 Hf0 2.750738 1_665
Ge0 Ta2 2.755652 1_555
Ge0 Ta3 2.755654 1_554
Ge0 Ta0 2.775312 1_564
Ge0 Ta1 2.775322 1_655
Ge0 Ta7 2.956040 1_554
Ge0 Ta6 3.095229 1_664
Ge1 Ta4 2.738516 1_545
Ge1 Ta5 2.738525 1_454
Ge1 Hf0 2.750737 1_554
Ge1 Hf1 2.750739 1_555
Ge1 Ta3 2.755652 1_555
Ge1 Ta2 2.755654 1_444
Ge1 Ta0 2.775312 1_554
Ge1 Ta1 2.775322 1_555
Ge1 Ta6 2.956040 1_554
Ge1 Ta7 3.095229 1_554
