# generated using pymatgen
data_Nb4GeB2Mo
_symmetry_space_group_name_H-M   'P 1'
_cell_length_a   7.32570865
_cell_length_b   7.32570956
_cell_length_c   7.32570911
_cell_angle_alpha   129.70095805
_cell_angle_beta   129.70096147
_cell_angle_gamma   73.88528171
_symmetry_Int_Tables_number   1
_chemical_formula_structural   Nb4GeB2Mo
_chemical_formula_sum   'Nb8 Ge2 B4 Mo2'
_cell_volume   226.99999409
_cell_formula_units_Z   2
loop_
 _symmetry_equiv_pos_site_id
 _symmetry_equiv_pos_as_xyz
  1  'x, y, z'
loop_
 _atom_site_type_symbol
 _atom_site_label
 _atom_site_symmetry_multiplicity
 _atom_site_fract_x
 _atom_site_fract_y
 _atom_site_fract_z
 _atom_site_occupancy
  Nb  Nb0  1  0.53115707  0.69555526  0.50000000  1
  Nb  Nb1  1  0.19555526  0.03115707  0.50000000  1
  Nb  Nb2  1  0.03115707  0.53115707  0.83560182  1
  Nb  Nb3  1  0.69555526  0.19555526  0.16439818  1
  Nb  Nb4  1  0.46884293  0.30444474  0.50000000  1
  Nb  Nb5  1  0.80444474  0.96884293  0.50000000  1
  Nb  Nb6  1  0.96884293  0.46884293  0.16439818  1
  Nb  Nb7  1  0.30444474  0.80444474  0.83560182  1
  Ge  Ge0  1  0.25000000  0.25000000  0.00000000  1
  Ge  Ge1  1  0.75000000  0.75000000  0.00000000  1
  B  B0  1  0.88221913  0.61778087  0.50000000  1
  B  B1  1  0.11778087  0.38221913  0.50000000  1
  B  B2  1  0.38221913  0.88221913  0.26443826  1
  B  B3  1  0.61778087  0.11778087  0.73556174  1
  Mo  Mo0  1  0.50000000  0.50000000  0.00000000  1
  Mo  Mo1  1  0.00000000  0.00000000  0.00000000  1
loop_
_geom_bond_atom_site_label_1
_geom_bond_atom_site_label_2
_geom_bond_distance
_geom_bond_site_symmetry_2
Ge0 Nb3 2.670618 1_555
Ge0 Nb6 2.670618 1_455
Ge0 Nb5 2.670618 1_444
Ge0 Nb4 2.670618 1_555
Ge0 Nb2 2.670618 1_554
Ge0 Nb1 2.670618 1_554
Ge0 Nb7 2.670618 1_544
Ge0 Nb0 2.670618 1_555
Ge0 Mo0 2.927491 1_555
Ge0 Mo1 2.927491 1_555
Ge1 Nb7 2.670618 1_554
Ge1 Nb2 2.670618 1_654
Ge1 Nb1 2.670618 1_665
Ge1 Nb0 2.670618 1_554
Ge1 Nb6 2.670618 1_555
Ge1 Nb5 2.670618 1_555
Ge1 Nb3 2.670618 1_565
Ge1 Nb4 2.670618 1_554
Ge1 Mo0 2.927491 1_555
Ge1 Mo1 2.927491 1_665
B0 B1 2.074292 1_655
B0 Nb7 2.412323 1_655
B0 Nb6 2.412323 1_555
B0 Nb2 2.412323 1_655
B0 Nb3 2.412323 1_555
B0 Nb0 2.474925 1_555
B0 Nb5 2.474925 1_555
B0 Mo0 2.490353 1_555
B0 Mo1 2.490354 1_666
B1 Nb3 2.412323 1_455
B1 Nb2 2.412323 1_555
B1 Nb6 2.412323 1_455
B1 Nb7 2.412323 1_555
B1 Nb4 2.474925 1_555
B1 Nb1 2.474925 1_555
B1 Mo0 2.490353 1_556
B1 Mo1 2.490354 1_555
B2 B3 2.074292 1_565
B2 Nb5 2.412323 1_555
B2 Nb1 2.412323 1_565
B2 Nb0 2.412323 1_555
B2 Nb4 2.412323 1_565
B2 Nb7 2.474925 1_554
B2 Nb2 2.474925 1_554
B2 Mo1 2.490353 1_565
B2 Mo0 2.490354 1_555
B3 Nb1 2.412323 1_555
B3 Nb5 2.412323 1_545
B3 Nb4 2.412323 1_555
B3 Nb0 2.412323 1_545
B3 Nb3 2.474925 1_556
B3 Nb6 2.474925 1_556
B3 Mo1 2.490353 1_656
B3 Mo0 2.490354 1_556
Mo0 Nb6 2.816118 1_555
Mo0 Nb2 2.816118 1_554
Mo0 Nb0 2.816118 1_555
Mo0 Nb4 2.816118 1_554
Mo0 Nb7 2.816118 1_554
Mo0 Nb3 2.816118 1_555
Mo0 Nb5 2.816118 1_555
Mo0 Nb1 2.816118 1_554
Mo1 Nb7 2.816118 1_544
Mo1 Nb3 2.816118 1_455
Mo1 Nb4 2.816118 1_555
Mo1 Nb0 2.816118 1_444
Mo1 Nb1 2.816118 1_555
Mo1 Nb5 2.816118 1_444
Mo1 Nb6 2.816118 1_455
Mo1 Nb2 2.816118 1_544
