# generated using pymatgen
data_Sc12Co4SnOs
_symmetry_space_group_name_H-M   'P 1'
_cell_length_a   7.70693170
_cell_length_b   7.70689645
_cell_length_c   7.70693124
_cell_angle_alpha   111.47763933
_cell_angle_beta   110.72878155
_cell_angle_gamma   106.25545163
_symmetry_Int_Tables_number   1
_chemical_formula_structural   Sc12Co4SnOs
_chemical_formula_sum   'Sc12 Co4 Sn1 Os1'
_cell_volume   351.54421545
_cell_formula_units_Z   1
loop_
 _symmetry_equiv_pos_site_id
 _symmetry_equiv_pos_as_xyz
  1  'x, y, z'
loop_
 _atom_site_type_symbol
 _atom_site_label
 _atom_site_symmetry_multiplicity
 _atom_site_fract_x
 _atom_site_fract_y
 _atom_site_fract_z
 _atom_site_occupancy
  Sc  Sc0  1  0.42399253  0.22406729  0.19992624  1
  Sc  Sc1  1  0.57600747  0.77593271  0.80007376  1
  Sc  Sc2  1  0.02414004  0.22406729  0.80007476  1
  Sc  Sc3  1  0.97585996  0.77593271  0.19992524  1
  Sc  Sc4  1  0.30996400  0.61230681  0.30234181  1
  Sc  Sc5  1  0.69003600  0.38769319  0.69765819  1
  Sc  Sc6  1  0.30996700  0.00762320  0.69765719  1
  Sc  Sc7  1  0.69003300  0.99237680  0.30234281  1
  Sc  Sc8  1  0.18422901  0.27477403  0.45900204  1
  Sc  Sc9  1  0.81577099  0.72522497  0.54099796  1
  Sc  Sc10  1  0.18422601  0.72522497  0.90945497  1
  Sc  Sc11  1  0.81577399  0.27477403  0.09054503  1
  Co  Co0  1  0.37208136  0.00000000  0.37208136  1
  Co  Co1  1  0.62791864  1.00000000  0.62791864  1
  Co  Co2  1  0.11560244  0.61560344  0.50000100  1
  Co  Co3  1  0.88439756  0.38439656  0.49999900  1
  Sn  Sn0  1  0.50000000  0.50000000  0.00000000  1
  Os  Os0  1  0.00000000  0.00000000  0.00000000  1
loop_
_geom_bond_atom_site_label_1
_geom_bond_atom_site_label_2
_geom_bond_distance
_geom_bond_site_symmetry_2
Sc0 Sn0 3.095252 1_555
Sc1 Sn0 3.095252 1_556
Sc2 Sn0 3.095258 1_556
Sc3 Sn0 3.095258 1_555
Sc4 Sn0 3.157898 1_555
Sc5 Sn0 3.157898 1_556
Sc6 Sn0 3.157875 1_556
Sc7 Sn0 3.157875 1_555
Sc8 Sn0 3.387071 1_556
Sc9 Sn0 3.387072 1_555
Sc10 Sn0 3.387077 1_556
Sc11 Sn0 3.387083 1_555
Co0 Co1 2.241275 1_545
Co0 Sc3 2.563046 1_445
Co0 Sc0 2.563053 1_555
Co0 Sc7 2.699394 1_545
Co0 Sc4 2.699397 1_545
Co0 Sc6 2.699398 1_555
Co0 Sc5 2.699400 1_555
Co0 Sc10 2.897131 1_544
Co0 Sc8 2.897132 1_555
Co1 Sc2 2.563046 1_665
Co1 Sc1 2.563053 1_555
Co1 Sc6 2.699394 1_565
Co1 Sc5 2.699397 1_565
Co1 Sc7 2.699398 1_555
Co1 Sc4 2.699400 1_555
Co1 Sc11 2.897130 1_566
Co1 Sc9 2.897138 1_555
Co2 Co3 2.138370 1_455
Co2 Sc6 2.484591 1_565
Co2 Sc4 2.484613 1_555
Co2 Sc11 2.750928 1_455
Co2 Sc9 2.750929 1_455
Co2 Sc8 2.750931 1_555
Co2 Sc10 2.750938 1_555
Co2 Sc3 3.018205 1_455
Co2 Sc1 3.018206 1_555
Co3 Sc7 2.484591 1_545
Co3 Sc5 2.484613 1_555
Co3 Sc9 2.750924 1_555
Co3 Sc10 2.750926 1_655
Co3 Sc8 2.750933 1_655
Co3 Sc11 2.750937 1_555
Co3 Sc2 3.018205 1_655
Co3 Sc0 3.018206 1_555
Os0 Sc2 2.713346 1_554
Os0 Sc3 2.713346 1_445
Os0 Sc0 2.713346 1_555
Os0 Sc1 2.713346 1_444
Os0 Sc11 2.879203 1_455
Os0 Sc10 2.879209 1_544
Os0 Sc8 2.879214 1_555
Os0 Sc9 2.879216 1_444
