# generated using pymatgen
data_SrFe2(CoP6)2
_symmetry_space_group_name_H-M   'P 1'
_cell_length_a   6.75154696
_cell_length_b   6.75154717
_cell_length_c   6.74336914
_cell_angle_alpha   109.47648024
_cell_angle_beta   109.48660849
_cell_angle_gamma   109.49967868
_symmetry_Int_Tables_number   1
_chemical_formula_structural   SrFe2(CoP6)2
_chemical_formula_sum   'Sr1 Fe2 Co2 P12'
_cell_volume   236.48203560
_cell_formula_units_Z   1
loop_
 _symmetry_equiv_pos_site_id
 _symmetry_equiv_pos_as_xyz
  1  'x, y, z'
loop_
 _atom_site_type_symbol
 _atom_site_label
 _atom_site_symmetry_multiplicity
 _atom_site_fract_x
 _atom_site_fract_y
 _atom_site_fract_z
 _atom_site_occupancy
  Sr  Sr0  1  0.00000000  0.00000000  0.00000000  1
  Fe  Fe0  1  0.00000000  0.00000000  0.50000000  1
  Fe  Fe1  1  0.50000000  0.50000000  0.50000000  1
  Co  Co0  1  0.50000000  0.00000000  0.00000000  1
  Co  Co1  1  0.00000000  0.50000000  0.00000000  1
  P  P0  1  0.49788062  0.84839086  0.64454051  1
  P  P1  1  0.20385136  0.85334011  0.35545949  1
  P  P2  1  0.79614864  0.14665989  0.64454051  1
  P  P3  1  0.15002691  0.35197155  0.50199846  1
  P  P4  1  0.35502316  0.50200621  0.15109337  1
  P  P5  1  0.50211938  0.15160914  0.35545949  1
  P  P6  1  0.14835809  0.64612585  0.79448194  1
  P  P7  1  0.35091183  0.20392979  0.84890663  1
  P  P8  1  0.84997309  0.64802845  0.49800154  1
  P  P9  1  0.64908817  0.79607021  0.15109337  1
  P  P10  1  0.85164191  0.35387415  0.20551806  1
  P  P11  1  0.64497684  0.49799379  0.84890663  1
loop_
_geom_bond_atom_site_label_1
_geom_bond_atom_site_label_2
_geom_bond_distance
_geom_bond_site_symmetry_2
Fe0 P1 2.232922 1_545
Fe0 P2 2.232922 1_455
Fe0 P7 2.233287 1_555
Fe0 P9 2.233287 1_445
Fe0 P3 2.244063 1_555
Fe0 P8 2.244063 1_445
Fe1 P0 2.232916 1_555
Fe1 P5 2.232916 1_555
Fe1 P4 2.233291 1_555
Fe1 P11 2.233291 1_555
Fe1 P8 2.244063 1_555
Fe1 P3 2.244063 1_555
Co0 P10 2.252869 1_555
Co0 P6 2.252869 1_544
Co0 P7 2.263505 1_554
Co0 P9 2.263505 1_545
Co0 P5 2.263791 1_555
Co0 P0 2.263791 1_544
Co1 P6 2.252883 1_554
Co1 P10 2.252883 1_455
Co1 P11 2.263502 1_454
Co1 P4 2.263502 1_555
Co1 P1 2.263790 1_555
Co1 P2 2.263790 1_454
P0 P1 2.290832 1_555
P0 P2 2.324489 1_565
P0 Sr0 2.985260 1_666
P1 P5 2.324489 1_565
P1 Sr0 2.985262 1_565
P2 P5 2.290832 1_555
P2 Sr0 2.985262 1_656
P3 P6 2.291747 1_555
P3 Sr0 2.978838 1_555
P4 P9 2.291726 1_555
P4 P7 2.322410 1_554
P4 Sr0 2.985829 1_555
P5 Sr0 2.985260 1_555
P6 P8 2.324431 1_455
P6 Sr0 2.991327 1_566
P7 Sr0 2.985824 1_556
P8 Sr0 2.978838 1_666
P9 Sr0 2.985824 1_665
P10 P8 2.291747 1_555
P10 P3 2.324431 1_655
P10 Sr0 2.991327 1_655
P11 P7 2.291726 1_555
P11 P9 2.322410 1_556
P11 Sr0 2.985829 1_666
