# generated using pymatgen
data_Ta6Be12Si3Ni8
_symmetry_space_group_name_H-M   'P 1'
_cell_length_a   7.61791139
_cell_length_b   7.61791092
_cell_length_c   7.61365670
_cell_angle_alpha   59.71466858
_cell_angle_beta   59.71467487
_cell_angle_gamma   60.03908825
_symmetry_Int_Tables_number   1
_chemical_formula_structural   Ta6Be12Si3Ni8
_chemical_formula_sum   'Ta6 Be12 Si3 Ni8'
_cell_volume   311.16488931
_cell_formula_units_Z   1
loop_
 _symmetry_equiv_pos_site_id
 _symmetry_equiv_pos_as_xyz
  1  'x, y, z'
loop_
 _atom_site_type_symbol
 _atom_site_label
 _atom_site_symmetry_multiplicity
 _atom_site_fract_x
 _atom_site_fract_y
 _atom_site_fract_z
 _atom_site_occupancy
  Ta  Ta0  1  0.70322285  0.29837532  0.29702619  1
  Ta  Ta1  1  0.29677715  0.70162468  0.70297381  1
  Ta  Ta2  1  0.29837532  0.70322285  0.29702619  1
  Ta  Ta3  1  0.70162468  0.29677715  0.70297381  1
  Ta  Ta4  1  0.30569981  0.30569981  0.69597695  1
  Ta  Ta5  1  0.69430019  0.69430019  0.30402305  1
  Be  Be0  1  0.33199878  0.33199878  0.31500236  1
  Be  Be1  1  0.66800122  0.66800122  0.68499764  1
  Be  Be2  1  0.32673764  0.32673764  0.01830923  1
  Be  Be3  1  0.32262743  0.01871930  0.32105192  1
  Be  Be4  1  0.67326236  0.67326236  0.98169077  1
  Be  Be5  1  0.67737257  0.98128070  0.67894808  1
  Be  Be6  1  0.01871930  0.32262743  0.32105192  1
  Be  Be7  1  0.98128070  0.67737257  0.67894808  1
  Be  Be8  1  0.50000000  0.00000000  0.00000000  1
  Be  Be9  1  0.00000000  0.50000000  0.00000000  1
  Be  Be10  1  0.00000000  0.00000000  0.50000000  1
  Be  Be11  1  0.50000000  0.50000000  0.00000000  1
  Si  Si0  1  0.00000000  0.50000000  0.50000000  1
  Si  Si1  1  0.50000000  0.00000000  0.50000000  1
  Si  Si2  1  0.00000000  0.00000000  0.00000000  1
  Ni  Ni0  1  0.12387760  0.12387760  0.12107729  1
  Ni  Ni1  1  0.87612240  0.87612340  0.87892271  1
  Ni  Ni2  1  0.12342947  0.12342947  0.62814864  1
  Ni  Ni3  1  0.12317493  0.62965421  0.12147754  1
  Ni  Ni4  1  0.87657053  0.87657153  0.37185136  1
  Ni  Ni5  1  0.87682507  0.37034579  0.87852146  1
  Ni  Ni6  1  0.62965421  0.12317493  0.12147854  1
  Ni  Ni7  1  0.37034579  0.87682507  0.87852146  1
loop_
_geom_bond_atom_site_label_1
_geom_bond_atom_site_label_2
_geom_bond_distance
_geom_bond_site_symmetry_2
Ta0 Ta5 3.009664 1_555
Ta0 Ta4 3.020681 1_555
Ta1 Ta4 3.009664 1_555
Ta1 Ta5 3.020681 1_555
Ta2 Ta5 3.009664 1_555
Ta2 Ta4 3.020680 1_555
Ta3 Ta4 3.009664 1_555
Ta3 Ta5 3.020680 1_555
Be0 Be11 2.114735 1_555
Be0 Si1 2.238420 1_555
Be0 Si0 2.238420 1_555
Be0 Ni6 2.287941 1_555
Be0 Ni3 2.287944 1_555
Be0 Be2 2.300036 1_555
Be0 Ni2 2.369235 1_555
Be0 Be3 2.399741 1_555
Be0 Be6 2.399741 1_555
Be0 Ta2 2.646344 1_555
Be0 Ta0 2.646344 1_555
Be0 Ta4 2.713237 1_555
Be1 Be11 2.114735 1_556
Be1 Si1 2.238420 1_565
Be1 Si0 2.238420 1_655
Be1 Ni5 2.287940 1_555
Be1 Ni7 2.287941 1_555
Be1 Be4 2.300036 1_555
Be1 Ni4 2.369238 1_555
Be1 Be5 2.399741 1_555
Be1 Be7 2.399741 1_555
Be1 Ta3 2.646344 1_555
Be1 Ta1 2.646344 1_555
Be1 Ta5 2.713237 1_555
Be2 Be8 2.199986 1_555
Be2 Be9 2.199986 1_555
Be2 Ni0 2.309706 1_555
Be2 Be3 2.316299 1_555
Be2 Be6 2.316299 1_555
Be2 Ni3 2.317787 1_555
Be2 Ni6 2.317791 1_555
Be2 Ta4 2.625482 1_554
Be2 Ta1 2.637840 1_554
Be2 Ta3 2.637841 1_554
Be3 Be8 2.156129 1_555
Be3 Ni0 2.266198 1_555
Be3 Si1 2.273930 1_555
Be3 Be6 2.316513 1_555
Be3 Ni6 2.338243 1_555
Be3 Ni2 2.345071 1_555
Be3 Ta2 2.600974 1_545
Be3 Ta5 2.665525 1_545
Be3 Ta1 2.672502 1_545
Be4 Be8 2.199986 1_566
Be4 Be9 2.199986 1_656
Be4 Ni1 2.309713 1_555
Be4 Be5 2.316299 1_555
Be4 Be7 2.316299 1_555
Be4 Ni7 2.317791 1_555
Be4 Ni5 2.317791 1_555
Be4 Ta5 2.625482 1_556
Be4 Ta0 2.637840 1_556
Be4 Ta2 2.637841 1_556
Be5 Be8 2.156129 1_566
Be5 Ni1 2.266200 1_555
Be5 Si1 2.273930 1_565
Be5 Be7 2.316513 1_555
Be5 Ni7 2.338243 1_555
Be5 Ni4 2.345067 1_555
Be5 Ta3 2.600974 1_565
Be5 Ta4 2.665525 1_565
Be5 Ta0 2.672502 1_565
Be6 Be9 2.156129 1_555
Be6 Ni0 2.266198 1_555
Be6 Si0 2.273930 1_555
Be6 Ni3 2.338243 1_555
Be6 Ni2 2.345070 1_555
Be6 Ta0 2.600974 1_455
Be6 Ta5 2.665525 1_455
Be6 Ta3 2.672503 1_455
Be7 Be9 2.156129 1_656
Be7 Ni1 2.266204 1_555
Be7 Si0 2.273930 1_655
Be7 Ni5 2.338243 1_555
Be7 Ni4 2.345070 1_555
Be7 Ta1 2.600974 1_655
Be7 Ta4 2.665525 1_655
Be7 Ta2 2.672503 1_655
Be8 Ni6 2.331064 1_555
Be8 Ni7 2.331064 1_544
Be8 Ni0 2.337247 1_555
Be8 Ni1 2.337247 1_544
Be8 Ta3 2.718986 1_554
Be8 Ta2 2.718986 1_545
Be8 Ta5 2.747350 1_545
Be8 Ta4 2.747350 1_554
Be9 Ni3 2.331058 1_555
Be9 Ni5 2.331064 1_454
Be9 Ni0 2.337247 1_555
Be9 Ni1 2.337253 1_454
Be9 Ta1 2.718987 1_554
Be9 Ta0 2.718987 1_455
Be9 Ta5 2.747350 1_455
Be9 Ta4 2.747350 1_554
Be10 Be6 2.166525 1_555
Be10 Be7 2.166525 1_445
Be10 Be3 2.166525 1_555
Be10 Be5 2.166525 1_445
Be10 Ni4 2.335347 1_445
Be10 Ni2 2.335353 1_555
Be10 Ni0 2.345589 1_555
Be10 Ni1 2.345589 1_445
Be10 Ta1 2.741216 1_545
Be10 Ta0 2.741216 1_455
Be10 Ta3 2.741216 1_455
Be10 Ta2 2.741216 1_545
Be11 Be4 2.207397 1_554
Be11 Be2 2.207397 1_555
Be11 Ni7 2.341576 1_554
Be11 Ni6 2.341576 1_555
Be11 Ni5 2.341576 1_554
Be11 Ni3 2.341576 1_555
Be11 Ta0 2.742768 1_555
Be11 Ta1 2.742768 1_554
Be11 Ta2 2.742769 1_555
Be11 Ta3 2.742769 1_554
Si0 Ta2 2.740478 1_555
Si0 Ta3 2.740478 1_455
Si0 Ta4 2.770336 1_555
Si0 Ta5 2.770336 1_455
Si1 Ta0 2.740478 1_555
Si1 Ta1 2.740478 1_545
Si1 Ta4 2.770336 1_555
Si1 Ta5 2.770336 1_545
Ni0 Si2 2.296787 1_555
Ni0 Ta2 2.653692 1_545
Ni0 Ta0 2.653692 1_455
Ni0 Ta4 2.680570 1_554
Ni1 Si2 2.296781 1_666
Ni1 Ta3 2.653687 1_565
Ni1 Ta1 2.653694 1_655
Ni1 Ta5 2.680571 1_556
Ni2 Si2 2.301464 1_556
Ni2 Si0 2.339556 1_555
Ni2 Si1 2.339557 1_555
Ni2 Ta1 2.658512 1_545
Ni2 Ta3 2.658512 1_455
Ni2 Ta4 2.737671 1_555
Ni3 Si2 2.301032 1_565
Ni3 Si0 2.342813 1_555
Ni3 Ta1 2.629519 1_554
Ni3 Ta2 2.680239 1_555
Ni3 Ta5 2.711404 1_455
Ni4 Si2 2.301464 1_665
Ni4 Si1 2.339557 1_565
Ni4 Si0 2.339563 1_655
Ni4 Ta0 2.658506 1_565
Ni4 Ta2 2.658512 1_655
Ni4 Ta5 2.737678 1_555
Ni5 Si2 2.301032 1_656
Ni5 Si0 2.342807 1_655
Ni5 Ta0 2.629525 1_556
Ni5 Ta3 2.680233 1_555
Ni5 Ta4 2.711404 1_655
Ni6 Si2 2.301033 1_655
Ni6 Si1 2.342807 1_555
Ni6 Ta3 2.629525 1_554
Ni6 Ta0 2.680233 1_555
Ni6 Ta5 2.711404 1_545
Ni7 Si2 2.301033 1_566
Ni7 Si1 2.342807 1_565
Ni7 Ta2 2.629525 1_556
Ni7 Ta1 2.680233 1_555
Ni7 Ta4 2.711404 1_565
