# generated using pymatgen
data_LaMgNi4
_symmetry_space_group_name_H-M   'P 1'
_cell_length_a   5.00165988
_cell_length_b   5.00159879
_cell_length_c   5.00159724
_cell_angle_alpha   59.99998860
_cell_angle_beta   60.00039582
_cell_angle_gamma   60.00040088
_symmetry_Int_Tables_number   1
_chemical_formula_structural   LaMgNi4
_chemical_formula_sum   'La1 Mg1 Ni4'
_cell_volume   88.47474162
_cell_formula_units_Z   1
loop_
 _symmetry_equiv_pos_site_id
 _symmetry_equiv_pos_as_xyz
  1  'x, y, z'
loop_
 _atom_site_type_symbol
 _atom_site_label
 _atom_site_symmetry_multiplicity
 _atom_site_fract_x
 _atom_site_fract_y
 _atom_site_fract_z
 _atom_site_occupancy
  La  La0  1  -0.00000017  0.00000006  0.00000006  1
  Mg  Mg0  1  0.25000051  0.24999916  0.25000016  1
  Ni  Ni0  1  0.62322050  0.62321903  0.62321903  1
  Ni  Ni1  1  0.62322050  0.13033944  0.62321903  1
  Ni  Ni2  1  0.62322050  0.62321903  0.13033944  1
  Ni  Ni3  1  0.13033617  0.62322028  0.62322028  1
loop_
_geom_bond_atom_site_label_1
_geom_bond_atom_site_label_2
_geom_bond_distance
_geom_bond_site_symmetry_2
La0 Ni3 2.936316 1_545
La0 Ni3 2.936316 1_554
La0 Ni3 2.936329 1_544
La0 Ni1 2.936330 1_455
La0 Ni2 2.936331 1_455
La0 Ni0 2.936334 1_445
La0 Ni0 2.936335 1_454
La0 Ni1 2.936339 1_454
La0 Ni2 2.936340 1_445
La0 Ni1 2.936364 1_554
La0 Ni2 2.936364 1_545
La0 Ni0 2.936368 1_544
La0 Mg0 3.062846 1_554
La0 Mg0 3.062847 1_555
La0 Mg0 3.062851 1_545
La0 Mg0 3.062894 1_455
Mg0 Ni3 2.928727 1_555
Mg0 Ni3 2.928735 1_545
Mg0 Ni3 2.928739 1_554
Mg0 Ni1 2.928740 1_555
Mg0 Ni0 2.928742 1_545
Mg0 Ni2 2.928742 1_555
Mg0 Ni0 2.928745 1_554
Mg0 Ni2 2.928746 1_545
Mg0 Ni1 2.928748 1_554
Mg0 Ni0 2.928768 1_455
Mg0 Ni1 2.928770 1_455
Mg0 Ni2 2.928772 1_455
Ni0 Ni2 2.465185 1_555
Ni0 Ni1 2.465186 1_555
Ni0 Ni3 2.465234 1_555
Ni0 Ni2 2.536412 1_556
Ni0 Ni1 2.536413 1_565
Ni0 Ni3 2.536426 1_655
Ni1 Ni2 2.465185 1_555
Ni1 Ni3 2.465231 1_555
Ni1 Ni2 2.536412 1_546
Ni1 Ni3 2.536429 1_645
Ni2 Ni3 2.465230 1_555
Ni2 Ni3 2.536428 1_654
