# generated using pymatgen
data_ZrNi4Rh
_symmetry_space_group_name_H-M   'P 1'
_cell_length_a   4.74660278
_cell_length_b   4.74646961
_cell_length_c   4.74646943
_cell_angle_alpha   59.99999444
_cell_angle_beta   60.00092256
_cell_angle_gamma   60.00092108
_symmetry_Int_Tables_number   1
_chemical_formula_structural   ZrNi4Rh
_chemical_formula_sum   'Zr1 Ni4 Rh1'
_cell_volume   75.61628153
_cell_formula_units_Z   1
loop_
 _symmetry_equiv_pos_site_id
 _symmetry_equiv_pos_as_xyz
  1  'x, y, z'
loop_
 _atom_site_type_symbol
 _atom_site_label
 _atom_site_symmetry_multiplicity
 _atom_site_fract_x
 _atom_site_fract_y
 _atom_site_fract_z
 _atom_site_occupancy
  Zr  Zr0  1  0.99998875  0.00000408  0.00000408  1
  Ni  Ni0  1  0.37657081  0.37656915  0.37656915  1
  Ni  Ni1  1  0.87029698  0.37656767  0.37656767  1
  Ni  Ni2  1  0.37657081  0.87029089  0.37656915  1
  Ni  Ni3  1  0.37657081  0.37656915  0.87029089  1
  Rh  Rh0  1  0.75000085  0.75000005  0.75000005  1
loop_
_geom_bond_atom_site_label_1
_geom_bond_atom_site_label_2
_geom_bond_distance
_geom_bond_site_symmetry_2
Ni0 Ni3 2.343435 1_555
Ni0 Ni2 2.343435 1_555
Ni0 Ni1 2.343515 1_555
Ni0 Ni3 2.403034 1_554
Ni0 Ni2 2.403034 1_545
Ni0 Ni1 2.403088 1_455
Ni0 Rh0 2.779777 1_545
Ni0 Rh0 2.779777 1_554
Ni0 Rh0 2.779838 1_455
Ni0 Zr0 2.786144 1_555
Ni0 Zr0 2.786156 1_465
Ni0 Zr0 2.786156 1_456
Ni1 Ni2 2.343515 1_555
Ni1 Ni3 2.343515 1_555
Ni1 Ni2 2.403088 1_645
Ni1 Ni3 2.403088 1_654
Ni1 Rh0 2.779751 1_554
Ni1 Rh0 2.779751 1_545
Ni1 Rh0 2.779755 1_555
Ni1 Zr0 2.786088 1_555
Ni1 Zr0 2.786092 1_556
Ni1 Zr0 2.786092 1_565
Ni2 Ni3 2.343435 1_555
Ni2 Ni3 2.403034 1_564
Ni2 Rh0 2.779775 1_554
Ni2 Rh0 2.779779 1_555
Ni2 Rh0 2.779836 1_455
Ni2 Zr0 2.786146 1_565
Ni2 Zr0 2.786155 1_465
Ni2 Zr0 2.786158 1_466
Ni3 Rh0 2.779775 1_545
Ni3 Rh0 2.779779 1_555
Ni3 Rh0 2.779836 1_455
Ni3 Zr0 2.786146 1_556
Ni3 Zr0 2.786155 1_456
Ni3 Zr0 2.786158 1_466
Rh0 Zr0 2.906605 1_565
Rh0 Zr0 2.906605 1_556
Rh0 Zr0 2.906605 1_566
Rh0 Zr0 2.906776 1_466
