# generated using pymatgen
data_CuHgF4
_symmetry_space_group_name_H-M   'P 1'
_cell_length_a   6.48915251
_cell_length_b   6.48915211
_cell_length_c   6.48915252
_cell_angle_alpha   130.32917300
_cell_angle_beta   130.32917202
_cell_angle_gamma   72.88107420
_symmetry_Int_Tables_number   1
_chemical_formula_structural   CuHgF4
_chemical_formula_sum   'Cu2 Hg2 F8'
_cell_volume   155.11772648
_cell_formula_units_Z   2
loop_
 _symmetry_equiv_pos_site_id
 _symmetry_equiv_pos_as_xyz
  1  'x, y, z'
loop_
 _atom_site_type_symbol
 _atom_site_label
 _atom_site_symmetry_multiplicity
 _atom_site_fract_x
 _atom_site_fract_y
 _atom_site_fract_z
 _atom_site_occupancy
  Cu  Cu0  1  0.50000000  0.00000000  0.50000000  1
  Cu  Cu1  1  0.00000000  0.50000000  0.50000000  1
  Hg  Hg0  1  0.25000000  0.25000000  0.00000000  1
  Hg  Hg1  1  0.75000000  0.75000000  0.00000000  1
  F  F0  1  0.94725730  0.44725730  0.14423713  1
  F  F1  1  0.69697983  0.19697983  0.14423713  1
  F  F2  1  0.05274270  0.55274270  0.85576287  1
  F  F3  1  0.55274270  0.69697983  0.50000000  1
  F  F4  1  0.30302017  0.80302017  0.85576287  1
  F  F5  1  0.80302017  0.94725730  0.50000000  1
  F  F6  1  0.44725730  0.30302017  0.50000000  1
  F  F7  1  0.19697983  0.05274270  0.50000000  1
loop_
_geom_bond_atom_site_label_1
_geom_bond_atom_site_label_2
_geom_bond_distance
_geom_bond_site_symmetry_2
Cu0 F6 1.894056 1_555
Cu0 F3 1.894056 1_545
Cu0 F7 1.894056 1_555
Cu0 F5 1.894056 1_545
Cu1 F4 1.894056 1_555
Cu1 F1 1.894056 1_455
Cu1 F0 1.894056 1_455
Cu1 F2 1.894056 1_555
F0 Hg1 2.392242 1_555
F0 Hg0 2.392242 1_655
F1 Hg1 2.392242 1_545
F1 Hg0 2.392242 1_555
F2 Hg0 2.392242 1_556
F2 Hg1 2.392242 1_456
F3 Hg0 2.392242 1_555
F3 Hg1 2.392242 1_556
F4 Hg0 2.392242 1_566
F4 Hg1 2.392242 1_556
F5 Hg0 2.392242 1_666
F5 Hg1 2.392242 1_555
F6 Hg1 2.392242 1_556
F6 Hg0 2.392242 1_555
F7 Hg1 2.392242 1_445
F7 Hg0 2.392242 1_556
