# generated using pymatgen
data_Al2FeO4
_symmetry_space_group_name_H-M   'P 1'
_cell_length_a   5.81677986
_cell_length_b   5.82145228
_cell_length_c   17.52956679
_cell_angle_alpha   60.01937915
_cell_angle_beta   60.05201972
_cell_angle_gamma   60.13181904
_symmetry_Int_Tables_number   1
_chemical_formula_structural   Al2FeO4
_chemical_formula_sum   'Al12 Fe6 O24'
_cell_volume   420.37363812
_cell_formula_units_Z   6
loop_
 _symmetry_equiv_pos_site_id
 _symmetry_equiv_pos_as_xyz
  1  'x, y, z'
loop_
 _atom_site_type_symbol
 _atom_site_label
 _atom_site_symmetry_multiplicity
 _atom_site_fract_x
 _atom_site_fract_y
 _atom_site_fract_z
 _atom_site_occupancy
  Al  Al0  1  0.49772700  0.49669300  0.16788300  1
  Al  Al1  1  0.49914200  0.49910500  0.33346500  1
  Al  Al2  1  0.49702500  0.00240100  0.16911900  1
  Al  Al3  1  0.00312700  0.49548600  0.16951100  1
  Al  Al4  1  0.49757200  0.50129800  0.49938700  1
  Al  Al5  1  0.50156100  0.50146000  0.66455600  1
  Al  Al6  1  0.49815200  0.00205700  0.49911300  1
  Al  Al7  1  0.50041600  0.49795300  0.83193700  1
  Al  Al8  1  0.99962200  0.50220700  0.49850900  1
  Al  Al9  1  0.50169200  0.00510500  0.83146200  1
  Al  Al10  1  0.00715900  0.49900700  0.83169300  1
  Al  Al11  1  0.87863600  0.87732000  0.95537300  1
  Fe  Fe0  1  0.12810500  0.12733100  0.04265300  1
  Fe  Fe1  1  0.12101300  0.12330500  0.37728100  1
  Fe  Fe2  1  0.12709100  0.12524900  0.70727500  1
  Fe  Fe3  1  0.87933700  0.87912600  0.28751500  1
  Fe  Fe4  1  0.87121800  0.87238900  0.62651100  1
  Fe  Fe5  1  0.49832400  0.49722900  0.00254000  1
  O  O0  1  0.24347800  0.24373800  0.10186800  1
  O  O1  1  0.26374900  0.26125800  0.23860000  1
  O  O2  1  0.24756000  0.70839200  0.09826300  1
  O  O3  1  0.71019100  0.24579400  0.09905500  1
  O  O4  1  0.30375600  0.73184900  0.24441200  1
  O  O5  1  0.26284500  0.26591600  0.42278600  1
  O  O6  1  0.73215500  0.30335500  0.24474300  1
  O  O7  1  0.26107500  0.26715000  0.56781300  1
  O  O8  1  0.26544200  0.70234600  0.42154000  1
  O  O9  1  0.74916400  0.74908500  0.08399700  1
  O  O10  1  0.69972300  0.26624900  0.42291100  1
  O  O11  1  0.73216000  0.73103300  0.24520200  1
  O  O12  1  0.29293900  0.73412000  0.57855800  1
  O  O13  1  0.26947600  0.26693000  0.75357500  1
  O  O14  1  0.73257400  0.29563500  0.57810700  1
  O  O15  1  0.73262200  0.73559600  0.43133100  1
  O  O16  1  0.26671200  0.26333200  0.90100300  1
  O  O17  1  0.27126100  0.70218500  0.75320100  1
  O  O18  1  0.70398300  0.27040400  0.75235900  1
  O  O19  1  0.73581200  0.73777500  0.57669900  1
  O  O20  1  0.26308600  0.75952800  0.90623700  1
  O  O21  1  0.75913300  0.26247000  0.90693200  1
  O  O22  1  0.73191600  0.72937600  0.77004900  1
  O  O23  1  0.76226800  0.76176200  0.90497800  1
loop_
_geom_bond_atom_site_label_1
_geom_bond_atom_site_label_2
_geom_bond_distance
_geom_bond_site_symmetry_2
Al0 O3 1.894984 1_555
Al0 O2 1.899862 1_555
Al0 O6 1.931751 1_555
Al0 O4 1.931963 1_555
Al0 O1 1.934655 1_555
Al0 O9 2.072187 1_555
Al1 O6 1.919035 1_555
Al1 O4 1.920455 1_555
Al1 O11 1.922263 1_555
Al1 O8 1.938986 1_555
Al1 O5 1.941402 1_555
Al1 O10 1.945330 1_555
Al2 O3 1.882468 1_555
Al2 O0 1.885623 1_555
Al2 O4 1.921210 1_545
Al2 O11 1.925771 1_545
Al2 O1 1.934712 1_555
Al2 O9 2.100510 1_545
Al3 O0 1.883945 1_555
Al3 O2 1.884873 1_555
Al3 O6 1.918568 1_455
Al3 O11 1.924233 1_455
Al3 O1 1.935987 1_555
Al3 O9 2.106148 1_455
Al4 O10 1.925883 1_555
Al4 O8 1.929934 1_555
Al4 O15 1.937930 1_555
Al4 O7 1.943014 1_555
Al4 O12 1.950287 1_555
Al4 O14 1.951484 1_555
Al5 O14 1.927625 1_555
Al5 O13 1.929977 1_555
Al5 O18 1.930673 1_555
Al5 O12 1.930928 1_555
Al5 O17 1.936966 1_555
Al5 O19 1.943047 1_555
Al6 O5 1.924436 1_555
Al6 O10 1.924471 1_555
Al6 O15 1.948071 1_545
Al6 O19 1.948182 1_545
Al6 O7 1.952731 1_555
Al6 O12 1.954738 1_545
Al7 O22 1.921683 1_555
Al7 O17 1.927083 1_555
Al7 O16 1.932022 1_555
Al7 O18 1.933412 1_555
Al7 O21 1.997901 1_555
Al7 O20 2.003514 1_555
Al8 O5 1.922587 1_655
Al8 O8 1.925874 1_655
Al8 O15 1.941668 1_555
Al8 O7 1.942099 1_655
Al8 O19 1.948482 1_555
Al8 O14 1.955896 1_555
Al9 O22 1.917135 1_545
Al9 O13 1.929436 1_555
Al9 O18 1.932169 1_555
Al9 O16 1.932711 1_555
Al9 O23 1.987971 1_545
Al9 O20 1.993823 1_545
Al10 O22 1.915711 1_455
Al10 O17 1.930039 1_555
Al10 O13 1.933451 1_555
Al10 O16 1.933976 1_555
Al10 O21 1.995205 1_455
Al10 O23 1.996441 1_455
Al11 O23 1.826366 1_555
Al11 O20 1.831062 1_655
Al11 O21 1.834560 1_565
Al11 O9 1.841363 1_556
Fe0 O0 1.959221 1_555
Fe0 O3 1.993612 1_455
Fe0 O2 1.998347 1_545
Fe0 O16 2.028468 1_554
Fe1 O1 1.985413 1_555
Fe1 O5 2.001816 1_555
Fe1 O8 2.003290 1_545
Fe1 O10 2.003635 1_455
Fe2 O7 1.996748 1_555
Fe2 O13 2.011344 1_555
Fe2 O18 2.012418 1_455
Fe2 O17 2.013048 1_545
Fe3 O11 2.008604 1_555
Fe3 O4 2.019295 1_655
Fe3 O6 2.019557 1_565
Fe3 O15 2.058877 1_555
Fe4 O19 1.995545 1_555
Fe4 O12 2.005687 1_655
Fe4 O14 2.013914 1_565
Fe4 O22 2.055108 1_555
Fe5 O2 2.070320 1_555
Fe5 O3 2.081770 1_555
Fe5 O0 2.107287 1_555
Fe5 O21 2.159534 1_554
Fe5 O20 2.168596 1_554
Fe5 O23 2.180523 1_554
