# generated using pymatgen
data_Ti4VB2S
_symmetry_space_group_name_H-M   'P 1'
_cell_length_a   5.92169673
_cell_length_b   5.92169732
_cell_length_c   7.00043622
_cell_angle_alpha   115.02110432
_cell_angle_beta   115.02111874
_cell_angle_gamma   89.99998550
_symmetry_Int_Tables_number   1
_chemical_formula_structural   Ti4VB2S
_chemical_formula_sum   'Ti8 V2 B4 S2'
_cell_volume   196.72538274
_cell_formula_units_Z   2
loop_
 _symmetry_equiv_pos_site_id
 _symmetry_equiv_pos_as_xyz
  1  'x, y, z'
loop_
 _atom_site_type_symbol
 _atom_site_label
 _atom_site_symmetry_multiplicity
 _atom_site_fract_x
 _atom_site_fract_y
 _atom_site_fract_z
 _atom_site_occupancy
  Ti  Ti0  1  0.03919969  0.53919969  0.73002293  1
  Ti  Ti1  1  0.69082323  0.19082323  0.73002293  1
  Ti  Ti2  1  0.19082323  0.03919969  0.73002293  1
  Ti  Ti3  1  0.53919969  0.69082323  0.73002293  1
  Ti  Ti4  1  0.96080031  0.46080031  0.26997707  1
  Ti  Ti5  1  0.30917677  0.80917677  0.26997707  1
  Ti  Ti6  1  0.80917677  0.96080031  0.26997707  1
  Ti  Ti7  1  0.46080031  0.30917677  0.26997707  1
  V  V0  1  0.50000000  0.50000000  0.00000000  1
  V  V1  1  0.00000000  0.00000000  0.00000000  1
  B  B0  1  0.61283851  0.11283851  0.00000000  1
  B  B1  1  0.38716149  0.88716149  1.00000000  1
  B  B2  1  0.88716149  0.61283851  1.00000000  1
  B  B3  1  0.11283851  0.38716149  0.00000000  1
  S  S0  1  0.25000000  0.25000000  0.50000000  1
  S  S1  1  0.75000000  0.75000000  0.50000000  1
loop_
_geom_bond_atom_site_label_1
_geom_bond_atom_site_label_2
_geom_bond_distance
_geom_bond_site_symmetry_2
Ti0 V0 2.660897 1_556
Ti0 V1 2.660898 1_566
Ti1 V1 2.660897 1_656
Ti1 V0 2.660898 1_556
Ti2 V0 2.660898 1_556
Ti2 V1 2.660898 1_556
Ti3 V1 2.660898 1_666
Ti3 V0 2.660898 1_556
Ti4 V0 2.660897 1_555
Ti4 V1 2.660898 1_655
Ti5 V1 2.660897 1_565
Ti5 V0 2.660898 1_555
Ti6 V0 2.660898 1_555
Ti6 V1 2.660898 1_665
Ti7 V1 2.660898 1_555
Ti7 V0 2.660898 1_555
B0 B1 1.889942 1_544
B0 Ti2 2.305405 1_554
B0 Ti6 2.305405 1_545
B0 Ti3 2.305406 1_544
B0 Ti7 2.305406 1_555
B0 Ti4 2.339882 1_555
B0 Ti1 2.339882 1_554
B0 V1 2.388041 1_655
B0 V0 2.388042 1_555
B1 Ti6 2.305405 1_556
B1 Ti2 2.305405 1_565
B1 Ti7 2.305406 1_566
B1 Ti3 2.305406 1_555
B1 Ti0 2.339882 1_555
B1 Ti5 2.339882 1_556
B1 V1 2.388041 1_566
B1 V0 2.388042 1_556
B2 B3 1.889942 1_656
B2 Ti5 2.305405 1_656
B2 Ti4 2.305406 1_556
B2 Ti1 2.305406 1_555
B2 Ti0 2.305406 1_655
B2 Ti3 2.339881 1_555
B2 Ti6 2.339882 1_556
B2 V0 2.388042 1_556
B2 V1 2.388042 1_666
B3 Ti1 2.305405 1_454
B3 Ti0 2.305406 1_554
B3 Ti5 2.305406 1_555
B3 Ti4 2.305406 1_455
B3 Ti7 2.339881 1_555
B3 Ti2 2.339882 1_554
B3 V0 2.388042 1_555
B3 V1 2.388042 1_555
S0 Ti1 2.540008 1_555
S0 Ti4 2.540008 1_455
S0 Ti6 2.540008 1_445
S0 Ti0 2.540008 1_555
S0 Ti5 2.540008 1_545
S0 Ti3 2.540008 1_555
S0 Ti2 2.540009 1_555
S0 Ti7 2.540009 1_555
S0 V0 2.805033 1_556
S0 V1 2.805033 1_555
S1 Ti5 2.540008 1_555
S1 Ti0 2.540008 1_655
S1 Ti2 2.540008 1_665
S1 Ti4 2.540008 1_555
S1 Ti1 2.540008 1_565
S1 Ti7 2.540008 1_555
S1 Ti6 2.540009 1_555
S1 Ti3 2.540009 1_555
S1 V0 2.805033 1_555
S1 V1 2.805033 1_666
