# generated using pymatgen
data_Dy6Se11
_symmetry_space_group_name_H-M   'P 1'
_cell_length_a   11.53468676
_cell_length_b   11.57773259
_cell_length_c   12.03346763
_cell_angle_alpha   89.94910576
_cell_angle_beta   89.73720496
_cell_angle_gamma   88.38984772
_symmetry_Int_Tables_number   1
_chemical_formula_structural   Dy6Se11
_chemical_formula_sum   'Dy24 Se44'
_cell_volume   1606.36379016
_cell_formula_units_Z   4
loop_
 _symmetry_equiv_pos_site_id
 _symmetry_equiv_pos_as_xyz
  1  'x, y, z'
loop_
 _atom_site_type_symbol
 _atom_site_label
 _atom_site_symmetry_multiplicity
 _atom_site_fract_x
 _atom_site_fract_y
 _atom_site_fract_z
 _atom_site_occupancy
  Dy  Dy0  1  0.00889972  0.75182092  0.49862731  1
  Dy  Dy1  1  0.13853563  0.13991755  0.33270787  1
  Dy  Dy2  1  0.13864654  0.13685132  0.66362468  1
  Dy  Dy3  1  0.15553414  0.15689905  0.00068911  1
  Dy  Dy4  1  0.23929911  0.48610798  0.50000013  1
  Dy  Dy5  1  0.24656948  0.50396908  0.16935516  1
  Dy  Dy6  1  0.25548767  0.50068640  0.82892849  1
  Dy  Dy7  1  0.38765337  0.87996144  0.66682039  1
  Dy  Dy8  1  0.38461575  0.88014266  0.33142078  1
  Dy  Dy9  1  0.38718008  0.89335411  0.00066007  1
  Dy  Dy10  1  0.48153548  0.22310824  0.49626291  1
  Dy  Dy11  1  0.49478101  0.24043162  0.83497189  1
  Dy  Dy12  1  0.50256646  0.24835007  0.17205157  1
  Dy  Dy13  1  0.62424558  0.62647191  0.99945813  1
  Dy  Dy14  1  0.65434233  0.65940373  0.67139783  1
  Dy  Dy15  1  0.64708919  0.64563950  0.33600709  1
  Dy  Dy16  1  0.74973921  0.00847951  0.49888490  1
  Dy  Dy17  1  0.73864024  0.98587240  0.16278899  1
  Dy  Dy18  1  0.73927216  0.99088940  0.83662559  1
  Dy  Dy19  1  0.89504914  0.39167575  0.66859085  1
  Dy  Dy20  1  0.87963769  0.38508094  0.33733471  1
  Dy  Dy21  1  0.89163614  0.38737329  0.00048894  1
  Dy  Dy22  1  0.99031018  0.73864662  0.83765415  1
  Dy  Dy23  1  0.98477209  0.73626624  0.16230583  1
  Se  Se0  1  0.00349550  0.00640701  0.49515505  1
  Se  Se1  1  0.05845608  0.31074583  0.49953442  1
  Se  Se2  1  0.06649604  0.31501222  0.16669941  1
  Se  Se3  1  0.07036993  0.31355772  0.83332480  1
  Se  Se4  1  0.06973289  0.56853077  0.99927506  1
  Se  Se5  1  0.07483934  0.56995892  0.66779060  1
  Se  Se6  1  0.06683523  0.56796091  0.33401710  1
  Se  Se7  1  0.06417109  0.91980153  0.99945639  1
  Se  Se8  1  0.12135048  0.88609775  0.30164579  1
  Se  Se9  1  0.12613388  0.88366734  0.69279354  1
  Se  Se10  1  0.24498385  0.76769926  0.83651614  1
  Se  Se11  1  0.23639716  0.77362303  0.16003026  1
  Se  Se12  1  0.27083302  0.73670890  0.50091059  1
  Se  Se13  1  0.30748987  0.05159026  0.49858038  1
  Se  Se14  1  0.31471846  0.06884479  0.16597213  1
  Se  Se15  1  0.31150281  0.06575922  0.83452181  1
  Se  Se16  1  0.31834641  0.31669274  0.33534640  1
  Se  Se17  1  0.32292139  0.31392066  0.66209945  1
  Se  Se18  1  0.32983927  0.33027278  0.00100685  1
  Se  Se19  1  0.36919260  0.63994586  0.99472729  1
  Se  Se20  1  0.41086341  0.59637522  0.65070972  1
  Se  Se21  1  0.39117749  0.61606018  0.34934621  1
  Se  Se22  1  0.52574007  0.48594416  0.79040008  1
  Se  Se23  1  0.50480772  0.50271985  0.19133711  1
  Se  Se24  1  0.56634215  0.06700673  0.66851225  1
  Se  Se25  1  0.56859483  0.06585930  0.33185663  1
  Se  Se26  1  0.56968521  0.06904198  0.00111450  1
  Se  Se27  1  0.55960726  0.81307608  0.83442773  1
  Se  Se28  1  0.55836097  0.81008686  0.16719118  1
  Se  Se29  1  0.57065067  0.81757634  0.50049513  1
  Se  Se30  1  0.61849947  0.39046229  0.37591418  1
  Se  Se31  1  0.63583616  0.37178777  0.99586059  1
  Se  Se32  1  0.72384817  0.28164883  0.52368585  1
  Se  Se33  1  0.76149125  0.25042369  0.82881894  1
  Se  Se34  1  0.76707513  0.24165494  0.16480029  1
  Se  Se35  1  0.81437031  0.55990940  0.83255634  1
  Se  Se36  1  0.80960319  0.55644577  0.16865833  1
  Se  Se37  1  0.80319882  0.80301699  0.99972329  1
  Se  Se38  1  0.81582444  0.56938551  0.50617078  1
  Se  Se39  1  0.82897886  0.83054041  0.67053927  1
  Se  Se40  1  0.82339639  0.82344276  0.33159391  1
  Se  Se41  1  0.87886101  0.13167358  0.68740409  1
  Se  Se42  1  0.88021708  0.12742523  0.30890764  1
  Se  Se43  1  0.91352518  0.06974188  0.99871314  1
loop_
_geom_bond_atom_site_label_1
_geom_bond_atom_site_label_2
_geom_bond_distance
_geom_bond_site_symmetry_2
Dy0 Se0 2.946700 1_565
Dy0 Se6 2.969338 1_555
Dy0 Se5 3.012007 1_555
Dy0 Se12 3.021718 1_555
Dy0 Se40 3.040207 1_455
Dy0 Se39 3.045458 1_455
Dy0 Se38 3.113125 1_455
Dy0 Se9 3.125584 1_555
Dy0 Se8 3.129937 1_555
Dy1 Se1 2.946584 1_555
Dy1 Se2 2.950258 1_555
Dy1 Se14 2.950292 1_555
Dy1 Se16 2.954794 1_555
Dy1 Se0 2.956157 1_555
Dy1 Se13 2.957683 1_555
Dy1 Se8 2.974909 1_545
Dy1 Se42 3.002202 1_455
Dy2 Se13 2.927759 1_555
Dy2 Se1 2.951771 1_555
Dy2 Se9 2.959394 1_545
Dy2 Se15 2.970588 1_555
Dy2 Se3 2.979596 1_555
Dy2 Se17 2.994248 1_555
Dy2 Se0 2.997946 1_555
Dy2 Se41 3.011138 1_455
Dy3 Se15 2.865720 1_554
Dy3 Se3 2.867457 1_554
Dy3 Se2 2.877255 1_555
Dy3 Se14 2.879456 1_555
Dy3 Se18 2.880691 1_555
Dy3 Se7 2.967980 1_544
Dy3 Se43 2.995033 1_454
Dy4 Se5 2.912501 1_555
Dy4 Se16 2.914483 1_555
Dy4 Se12 2.934261 1_555
Dy4 Se17 2.934581 1_555
Dy4 Se1 2.951529 1_555
Dy4 Se21 2.955239 1_555
Dy4 Se6 2.961759 1_555
Dy4 Se20 3.002338 1_555
Dy5 Se6 2.941384 1_555
Dy5 Se4 2.976240 1_554
Dy5 Se23 2.991257 1_555
Dy5 Se18 2.991900 1_555
Dy5 Se19 2.997799 1_554
Dy5 Se16 3.046819 1_555
Dy5 Se21 3.052444 1_555
Dy5 Se2 3.058990 1_555
Dy5 Se11 3.122825 1_555
Dy6 Se19 2.906686 1_555
Dy6 Se5 2.947104 1_555
Dy6 Se18 2.971531 1_556
Dy6 Se20 3.018400 1_555
Dy6 Se17 3.034751 1_555
Dy6 Se4 3.045938 1_555
Dy6 Se3 3.084602 1_555
Dy6 Se10 3.091786 1_555
Dy6 Se22 3.149362 1_555
Dy7 Se27 2.923894 1_555
Dy7 Se10 2.941433 1_555
Dy7 Se12 2.951020 1_555
Dy7 Se13 2.967974 1_565
Dy7 Se29 2.976785 1_555
Dy7 Se9 3.030375 1_555
Dy7 Se24 3.031432 1_565
Dy7 Se15 3.058849 1_565
Dy7 Se20 3.292488 1_555
Dy8 Se28 2.907749 1_555
Dy8 Se13 2.944344 1_565
Dy8 Se12 2.954981 1_555
Dy8 Se11 2.975362 1_555
Dy8 Se29 3.036262 1_555
Dy8 Se14 3.048755 1_565
Dy8 Se8 3.058225 1_555
Dy8 Se25 3.063221 1_565
Dy8 Se21 3.063722 1_555
Dy9 Se15 2.941788 1_564
Dy9 Se14 2.946263 1_565
Dy9 Se27 2.946843 1_554
Dy9 Se19 2.947981 1_554
Dy9 Se11 2.953736 1_555
Dy9 Se28 2.961385 1_555
Dy9 Se26 2.968137 1_565
Dy9 Se10 2.979442 1_554
Dy10 Se25 2.849977 1_555
Dy10 Se13 2.863191 1_555
Dy10 Se17 2.880496 1_555
Dy10 Se16 2.895138 1_555
Dy10 Se24 2.903819 1_555
Dy10 Se30 2.914356 1_555
Dy10 Se32 2.914723 1_555
Dy11 Se22 2.923604 1_555
Dy11 Se18 2.924234 1_556
Dy11 Se26 2.931465 1_556
Dy11 Se24 2.936676 1_555
Dy11 Se15 2.966376 1_555
Dy11 Se31 2.980191 1_555
Dy11 Se17 2.986801 1_555
Dy11 Se33 3.082388 1_555
Dy12 Se25 2.942424 1_555
Dy12 Se23 2.955207 1_555
Dy12 Se16 2.978687 1_555
Dy12 Se31 2.998140 1_554
Dy12 Se18 3.005575 1_555
Dy12 Se26 3.007131 1_555
Dy12 Se14 3.045358 1_555
Dy12 Se34 3.050681 1_555
Dy12 Se30 3.267162 1_555
Dy13 Se19 2.942518 1_555
Dy13 Se37 2.945486 1_555
Dy13 Se31 2.948286 1_555
Dy13 Se28 3.012224 1_556
Dy13 Se27 3.013742 1_555
Dy13 Se35 3.050301 1_555
Dy13 Se36 3.051832 1_556
Dy13 Se23 3.059090 1_556
Dy13 Se22 3.225557 1_555
Dy14 Se27 2.843510 1_555
Dy14 Se39 2.864915 1_555
Dy14 Se38 2.892994 1_555
Dy14 Se35 2.899035 1_555
Dy14 Se22 2.902938 1_555
Dy14 Se29 2.902943 1_555
Dy14 Se20 2.933223 1_555
Dy15 Se36 2.914778 1_555
Dy15 Se29 2.924082 1_555
Dy15 Se40 2.934329 1_555
Dy15 Se23 2.940414 1_555
Dy15 Se38 2.949106 1_555
Dy15 Se28 2.949888 1_555
Dy15 Se21 2.984777 1_555
Dy15 Se30 3.019679 1_555
Dy16 Se0 2.926562 1_655
Dy16 Se25 2.967333 1_555
Dy16 Se24 2.997166 1_555
Dy16 Se39 3.041411 1_545
Dy16 Se40 3.041963 1_545
Dy16 Se29 3.067386 1_545
Dy16 Se42 3.076859 1_555
Dy16 Se41 3.091116 1_555
Dy16 Se32 3.182544 1_555
Dy17 Se26 2.904510 1_565
Dy17 Se40 2.920039 1_555
Dy17 Se42 2.937044 1_565
Dy17 Se28 2.950533 1_555
Dy17 Se25 2.951017 1_565
Dy17 Se37 2.965167 1_554
Dy17 Se34 2.988767 1_565
Dy17 Se43 2.996756 1_564
Dy18 Se39 2.896764 1_555
Dy18 Se26 2.903667 1_566
Dy18 Se41 2.930763 1_565
Dy18 Se27 2.962086 1_555
Dy18 Se24 2.963607 1_565
Dy18 Se43 2.969842 1_565
Dy18 Se37 3.007061 1_555
Dy18 Se33 3.024235 1_565
Dy19 Se1 2.904836 1_655
Dy19 Se35 2.905331 1_555
Dy19 Se32 2.956313 1_555
Dy19 Se3 2.961076 1_655
Dy19 Se38 2.965106 1_555
Dy19 Se5 2.966774 1_655
Dy19 Se33 2.978935 1_555
Dy19 Se41 3.029460 1_555
Dy20 Se36 2.937116 1_555
Dy20 Se1 2.956158 1_655
Dy20 Se34 2.984253 1_555
Dy20 Se42 3.002737 1_555
Dy20 Se38 3.021337 1_555
Dy20 Se30 3.044522 1_555
Dy20 Se2 3.063320 1_655
Dy20 Se6 3.066450 1_655
Dy20 Se32 3.125853 1_555
Dy21 Se36 2.950871 1_555
Dy21 Se2 2.951169 1_655
Dy21 Se31 2.961923 1_554
Dy21 Se35 2.962701 1_554
Dy21 Se4 2.976774 1_654
Dy21 Se3 2.982132 1_654
Dy21 Se34 2.987352 1_555
Dy21 Se33 3.033655 1_554
Dy21 Se43 3.679098 1_554
Dy22 Se4 2.899834 1_655
Dy22 Se9 2.903414 1_655
Dy22 Se39 2.925435 1_555
Dy22 Se35 2.939719 1_555
Dy22 Se10 2.966119 1_655
Dy22 Se5 2.970670 1_655
Dy22 Se37 2.981714 1_555
Dy22 Se7 3.006432 1_655
Dy23 Se4 2.909069 1_654
Dy23 Se8 2.912990 1_655
Dy23 Se40 2.914916 1_555
Dy23 Se36 2.942346 1_555
Dy23 Se11 2.946460 1_655
Dy23 Se37 2.958934 1_554
Dy23 Se6 2.978200 1_655
Dy23 Se7 3.046272 1_654
Se0 Se42 2.986608 1_455
Se0 Se8 3.013445 1_545
Se10 Se9 2.566584 1_555
Se10 Se19 2.786731 1_555
Se11 Se8 2.499372 1_555
Se11 Se19 2.922783 1_554
Se12 Se21 2.660230 1_555
Se12 Se20 2.893457 1_555
Se20 Se22 2.477398 1_555
Se21 Se23 2.634401 1_555
Se23 Se30 2.875423 1_555
Se30 Se32 2.481044 1_555
Se31 Se33 2.824784 1_555
Se31 Se34 2.930697 1_556
Se33 Se41 2.548983 1_555
Se34 Se42 2.525682 1_555
Se43 Se7 2.421508 1_645
