# generated using pymatgen
data_Zr6Zn9Cu14As
_symmetry_space_group_name_H-M   'P 1'
_cell_length_a   8.47083918
_cell_length_b   8.47083921
_cell_length_c   8.47083899
_cell_angle_alpha   60.00000088
_cell_angle_beta   60.00000076
_cell_angle_gamma   59.99999841
_symmetry_Int_Tables_number   1
_chemical_formula_structural   Zr6Zn9Cu14As
_chemical_formula_sum   'Zr6 Zn9 Cu14 As1'
_cell_volume   429.79791476
_cell_formula_units_Z   1
loop_
 _symmetry_equiv_pos_site_id
 _symmetry_equiv_pos_as_xyz
  1  'x, y, z'
loop_
 _atom_site_type_symbol
 _atom_site_label
 _atom_site_symmetry_multiplicity
 _atom_site_fract_x
 _atom_site_fract_y
 _atom_site_fract_z
 _atom_site_occupancy
  Zr  Zr0  1  0.72214763  0.27785237  0.27785237  1
  Zr  Zr1  1  0.27785237  0.72214763  0.72214763  1
  Zr  Zr2  1  0.27785237  0.72214763  0.27785237  1
  Zr  Zr3  1  0.72214763  0.27785237  0.72214763  1
  Zr  Zr4  1  0.27785237  0.27785237  0.72214763  1
  Zr  Zr5  1  0.72214763  0.72214763  0.27785237  1
  Zn  Zn0  1  0.33168676  0.33168676  0.33168676  1
  Zn  Zn1  1  0.66831324  0.66831324  0.66831324  1
  Zn  Zn2  1  0.33168676  0.33168676  0.00494172  1
  Zn  Zn3  1  0.33168676  0.00494172  0.33168676  1
  Zn  Zn4  1  0.66831324  0.66831324  0.99505828  1
  Zn  Zn5  1  0.66831324  0.99505828  0.66831324  1
  Zn  Zn6  1  0.00494172  0.33168676  0.33168676  1
  Zn  Zn7  1  0.99505828  0.66831324  0.66831324  1
  Zn  Zn8  1  0.00000000  0.00000000  0.00000000  1
  Cu  Cu0  1  0.12186421  0.12186421  0.12186421  1
  Cu  Cu1  1  0.87813579  0.87813579  0.87813579  1
  Cu  Cu2  1  0.12186421  0.12186421  0.63440837  1
  Cu  Cu3  1  0.12186421  0.63440837  0.12186421  1
  Cu  Cu4  1  0.87813579  0.87813579  0.36559163  1
  Cu  Cu5  1  0.87813579  0.36559163  0.87813579  1
  Cu  Cu6  1  0.63440837  0.12186421  0.12186421  1
  Cu  Cu7  1  0.36559163  0.87813579  0.87813579  1
  Cu  Cu8  1  0.50000000  0.00000000  0.00000000  1
  Cu  Cu9  1  0.00000000  0.50000000  0.50000000  1
  Cu  Cu10  1  0.00000000  0.50000000  0.00000000  1
  Cu  Cu11  1  0.50000000  0.00000000  0.50000000  1
  Cu  Cu12  1  0.00000000  0.00000000  0.50000000  1
  Cu  Cu13  1  0.50000000  0.50000000  0.00000000  1
  As  As0  1  0.50000000  0.50000000  0.50000000  1
loop_
_geom_bond_atom_site_label_1
_geom_bond_atom_site_label_2
_geom_bond_distance
_geom_bond_site_symmetry_2
Zn0 Zn2 2.767805 1_555
Zn0 Zn6 2.767805 1_555
Zn0 Zn3 2.767805 1_555
Zn0 Zr4 2.923528 1_555
Zn0 Zr0 2.923528 1_555
Zn0 Zr2 2.923528 1_555
Zn1 Zn4 2.767805 1_555
Zn1 Zn7 2.767805 1_555
Zn1 Zn5 2.767805 1_555
Zn1 Zr5 2.923528 1_555
Zn1 Zr1 2.923528 1_555
Zn1 Zr3 2.923528 1_555
Zn2 Zn6 2.767805 1_555
Zn2 Zn3 2.767805 1_555
Zn2 Zr3 2.923533 1_554
Zn2 Zr1 2.923534 1_554
Zn2 Zr4 2.923544 1_554
Zn3 Zn6 2.767805 1_555
Zn3 Zr5 2.923533 1_545
Zn3 Zr1 2.923533 1_545
Zn3 Zr2 2.923544 1_545
Zn4 Zn7 2.767805 1_555
Zn4 Zn5 2.767805 1_555
Zn4 Zr2 2.923533 1_556
Zn4 Zr0 2.923534 1_556
Zn4 Zr5 2.923544 1_556
Zn5 Zn7 2.767805 1_555
Zn5 Zr4 2.923533 1_565
Zn5 Zr0 2.923533 1_565
Zn5 Zr3 2.923544 1_565
Zn6 Zr5 2.923533 1_455
Zn6 Zr3 2.923533 1_455
Zn6 Zr0 2.923544 1_455
Zn7 Zr4 2.923533 1_655
Zn7 Zr2 2.923533 1_655
Zn7 Zr1 2.923544 1_655
Cu0 Zn8 2.528589 1_555
Cu0 Cu8 2.616062 1_555
Cu0 Cu12 2.616062 1_555
Cu0 Cu10 2.616062 1_555
Cu0 Zn3 2.633892 1_555
Cu0 Zn6 2.633892 1_555
Cu0 Zn2 2.633892 1_555
Cu0 Zr0 2.784680 1_455
Cu0 Zr2 2.784680 1_545
Cu0 Zr4 2.784680 1_554
Cu1 Zn8 2.528589 1_666
Cu1 Cu8 2.616062 1_566
Cu1 Cu12 2.616062 1_665
Cu1 Cu10 2.616062 1_656
Cu1 Zn5 2.633892 1_555
Cu1 Zn7 2.633892 1_555
Cu1 Zn4 2.633892 1_555
Cu1 Zr1 2.784680 1_655
Cu1 Zr3 2.784680 1_565
Cu1 Zr5 2.784680 1_556
Cu2 Zn8 2.528582 1_556
Cu2 Cu9 2.616062 1_555
Cu2 Zn3 2.633885 1_555
Cu2 Zn6 2.633885 1_555
Cu2 Zn0 2.633890 1_555
Cu2 Zr4 2.784674 1_555
Cu2 Zr3 2.784681 1_455
Cu2 Zr1 2.784681 1_545
Cu3 Zn8 2.528582 1_565
Cu3 Cu9 2.616062 1_555
Cu3 Zn2 2.633885 1_555
Cu3 Zn6 2.633885 1_555
Cu3 Zn0 2.633889 1_555
Cu3 Zr2 2.784674 1_555
Cu3 Zr1 2.784681 1_554
Cu3 Zr5 2.784681 1_455
Cu4 Zn8 2.528582 1_665
Cu4 Cu9 2.616062 1_655
Cu4 Zn5 2.633885 1_555
Cu4 Zn7 2.633885 1_555
Cu4 Zn1 2.633890 1_555
Cu4 Zr5 2.784674 1_555
Cu4 Zr2 2.784681 1_655
Cu4 Zr0 2.784681 1_565
Cu5 Zn8 2.528582 1_656
Cu5 Cu9 2.616062 1_655
Cu5 Zn4 2.633885 1_555
Cu5 Zn7 2.633885 1_555
Cu5 Zn1 2.633889 1_555
Cu5 Zr3 2.784674 1_555
Cu5 Zr0 2.784681 1_556
Cu5 Zr4 2.784681 1_655
Cu6 Zn8 2.528582 1_655
Cu6 Cu8 2.616069 1_555
Cu6 Zn2 2.633885 1_555
Cu6 Zn3 2.633885 1_555
Cu6 Zn0 2.633889 1_555
Cu6 Zr0 2.784674 1_555
Cu6 Zr3 2.784681 1_554
Cu6 Zr5 2.784681 1_545
Cu7 Zn8 2.528582 1_566
Cu7 Cu8 2.616069 1_566
Cu7 Zn4 2.633885 1_555
Cu7 Zn5 2.633885 1_555
Cu7 Zn1 2.633889 1_555
Cu7 Zr1 2.784674 1_555
Cu7 Zr2 2.784681 1_556
Cu7 Zr4 2.784681 1_565
Cu8 Zn3 2.445564 1_555
Cu8 Zn5 2.445564 1_544
Cu8 Zn2 2.445564 1_555
Cu8 Zn4 2.445564 1_544
Cu8 Zr5 3.013423 1_545
Cu8 Zr4 3.013423 1_554
Cu8 Zr3 3.013423 1_554
Cu8 Zr2 3.013423 1_545
Cu9 Zn7 2.445550 1_455
Cu9 Zn6 2.445550 1_555
Cu9 Zn1 2.445559 1_455
Cu9 Zn0 2.445559 1_555
Cu9 Zr4 3.013423 1_555
Cu9 Zr5 3.013423 1_455
Cu9 Zr2 3.013423 1_555
Cu9 Zr3 3.013423 1_455
Cu10 Zn2 2.445564 1_555
Cu10 Zn4 2.445564 1_454
Cu10 Zn6 2.445564 1_555
Cu10 Zn7 2.445564 1_454
Cu10 Cu3 2.616069 1_555
Cu10 Cu5 2.616069 1_454
Cu10 Zr5 3.013423 1_455
Cu10 Zr4 3.013423 1_554
Cu10 Zr1 3.013423 1_554
Cu10 Zr0 3.013423 1_455
Cu11 Zn5 2.445550 1_545
Cu11 Zn3 2.445550 1_555
Cu11 Zn1 2.445559 1_545
Cu11 Zn0 2.445559 1_555
Cu11 Cu4 2.616062 1_545
Cu11 Cu2 2.616062 1_555
Cu11 Cu7 2.616062 1_545
Cu11 Cu6 2.616062 1_555
Cu11 Zr4 3.013423 1_555
Cu11 Zr5 3.013423 1_545
Cu11 Zr0 3.013423 1_555
Cu11 Zr1 3.013423 1_545
Cu12 Zn3 2.445564 1_555
Cu12 Zn5 2.445564 1_445
Cu12 Zn6 2.445564 1_555
Cu12 Zn7 2.445564 1_445
Cu12 Cu2 2.616069 1_555
Cu12 Cu4 2.616069 1_445
Cu12 Zr1 3.013423 1_545
Cu12 Zr0 3.013423 1_455
Cu12 Zr3 3.013423 1_455
Cu12 Zr2 3.013423 1_545
Cu13 Zn4 2.445550 1_554
Cu13 Zn2 2.445550 1_555
Cu13 Zn1 2.445559 1_554
Cu13 Zn0 2.445559 1_555
Cu13 Cu3 2.616062 1_555
Cu13 Cu5 2.616062 1_554
Cu13 Cu6 2.616062 1_555
Cu13 Cu7 2.616062 1_554
Cu13 Zr2 3.013423 1_555
Cu13 Zr3 3.013423 1_554
Cu13 Zr0 3.013423 1_555
Cu13 Zr1 3.013423 1_554
As0 Zr1 2.661234 1_555
As0 Zr0 2.661234 1_555
As0 Zr3 2.661234 1_555
As0 Zr2 2.661234 1_555
As0 Zr5 2.661234 1_555
As0 Zr4 2.661234 1_555
