# generated using pymatgen
data_Ca18YCd8N7
_symmetry_space_group_name_H-M   'P 1'
_cell_length_a   10.37004036
_cell_length_b   10.37004112
_cell_length_c   10.37004062
_cell_angle_alpha   59.99999847
_cell_angle_beta   59.99999603
_cell_angle_gamma   59.99999435
_symmetry_Int_Tables_number   1
_chemical_formula_structural   Ca18YCd8N7
_chemical_formula_sum   'Ca18 Y1 Cd8 N7'
_cell_volume   788.54475606
_cell_formula_units_Z   1
loop_
 _symmetry_equiv_pos_site_id
 _symmetry_equiv_pos_as_xyz
  1  'x, y, z'
loop_
 _atom_site_type_symbol
 _atom_site_label
 _atom_site_symmetry_multiplicity
 _atom_site_fract_x
 _atom_site_fract_y
 _atom_site_fract_z
 _atom_site_occupancy
  Ca  Ca0  1  0.17131889  0.50000000  0.82868111  1
  Ca  Ca1  1  0.50000000  0.82868111  0.17131889  1
  Ca  Ca2  1  0.82868111  0.17131889  0.50000000  1
  Ca  Ca3  1  0.16570539  0.83429461  0.16570539  1
  Ca  Ca4  1  0.82868111  0.50000000  0.17131889  1
  Ca  Ca5  1  0.17131889  0.82868111  0.50000000  1
  Ca  Ca6  1  0.16570539  0.16570539  0.83429461  1
  Ca  Ca7  1  0.17131889  0.50000000  0.50000000  1
  Ca  Ca8  1  0.83429461  0.83429461  0.16570539  1
  Ca  Ca9  1  0.83429461  0.16570539  0.83429461  1
  Ca  Ca10  1  0.50000000  0.82868111  0.50000000  1
  Ca  Ca11  1  0.50000000  0.50000000  0.17131889  1
  Ca  Ca12  1  0.16570539  0.83429461  0.83429461  1
  Ca  Ca13  1  0.50000000  0.17131889  0.82868111  1
  Ca  Ca14  1  0.50000000  0.17131889  0.50000000  1
  Ca  Ca15  1  0.82868111  0.50000000  0.50000000  1
  Ca  Ca16  1  0.83429461  0.16570539  0.16570539  1
  Ca  Ca17  1  0.50000000  0.50000000  0.82868111  1
  Y  Y0  1  0.50000000  0.50000000  0.50000000  1
  Cd  Cd0  1  0.17548138  0.17548138  0.47355487  1
  Cd  Cd1  1  0.82451862  0.52644513  0.82451862  1
  Cd  Cd2  1  0.47355487  0.17548138  0.17548138  1
  Cd  Cd3  1  0.17548138  0.47355487  0.17548138  1
  Cd  Cd4  1  0.52644513  0.82451862  0.82451862  1
  Cd  Cd5  1  0.17548138  0.17548138  0.17548138  1
  Cd  Cd6  1  0.82451862  0.82451862  0.82451862  1
  Cd  Cd7  1  0.82451862  0.82451862  0.52644513  1
  N  N0  1  0.66780049  0.33219951  0.66780049  1
  N  N1  1  0.66780049  0.33219951  0.33219951  1
  N  N2  1  0.33219951  0.66780049  0.66780049  1
  N  N3  1  0.33219951  0.66780049  0.33219951  1
  N  N4  1  0.33219951  0.33219951  0.66780049  1
  N  N5  1  0.66780049  0.66780049  0.33219951  1
  N  N6  1  0.00000000  0.00000000  0.00000000  1
loop_
_geom_bond_atom_site_label_1
_geom_bond_atom_site_label_2
_geom_bond_distance
_geom_bond_site_symmetry_2
Ca0 N4 2.410663 1_555
Ca0 N2 2.410663 1_555
Ca0 Cd1 3.488242 1_455
Ca0 Cd3 3.488242 1_556
Ca0 Cd6 3.488246 1_455
Ca0 Cd5 3.488246 1_556
Ca1 N5 2.410663 1_555
Ca1 N3 2.410663 1_555
Ca1 Cd4 3.488242 1_554
Ca1 Cd2 3.488242 1_565
Ca1 Cd6 3.488246 1_554
Ca1 Cd5 3.488246 1_565
Ca2 N0 2.410663 1_555
Ca2 N1 2.410663 1_555
Ca2 Cd0 3.488242 1_655
Ca2 Cd7 3.488242 1_545
Ca2 Cd5 3.488246 1_655
Ca2 Cd6 3.488246 1_545
Ca3 N6 2.430144 1_565
Ca3 N3 2.441711 1_555
Ca3 Cd5 3.642321 1_565
Ca3 Cd4 3.642326 1_554
Ca3 Cd7 3.642326 1_455
Ca3 Cd3 3.642331 1_555
Ca4 N5 2.410663 1_555
Ca4 N1 2.410663 1_555
Ca4 Cd3 3.488242 1_655
Ca4 Cd1 3.488242 1_554
Ca4 Cd5 3.488246 1_655
Ca4 Cd6 3.488246 1_554
Ca5 N3 2.410663 1_555
Ca5 N2 2.410663 1_555
Ca5 Cd7 3.488242 1_455
Ca5 Cd0 3.488242 1_565
Ca5 Cd6 3.488246 1_455
Ca5 Cd5 3.488246 1_565
Ca6 N6 2.430144 1_556
Ca6 N4 2.441712 1_555
Ca6 Cd5 3.642321 1_556
Ca6 Cd4 3.642326 1_545
Ca6 Cd1 3.642326 1_455
Ca6 Cd0 3.642331 1_555
Ca7 N4 2.410663 1_555
Ca7 N3 2.410663 1_555
Ca7 Cd7 3.488247 1_455
Ca7 Cd1 3.488247 1_455
Ca7 Cd3 3.488252 1_555
Ca7 Cd0 3.488252 1_555
Ca8 N6 2.430144 1_665
Ca8 N5 2.441712 1_555
Ca8 Cd6 3.642321 1_554
Ca8 Cd2 3.642326 1_565
Ca8 Cd3 3.642326 1_655
Ca8 Cd7 3.642331 1_555
Ca9 N6 2.430144 1_656
Ca9 N0 2.441711 1_555
Ca9 Cd6 3.642321 1_545
Ca9 Cd2 3.642326 1_556
Ca9 Cd0 3.642326 1_655
Ca9 Cd1 3.642331 1_555
Ca10 N5 2.410663 1_555
Ca10 N2 2.410663 1_555
Ca10 Cd0 3.488247 1_565
Ca10 Cd2 3.488247 1_565
Ca10 Cd7 3.488252 1_555
Ca10 Cd4 3.488252 1_555
Ca11 N1 2.410663 1_555
Ca11 N3 2.410663 1_555
Ca11 Cd1 3.488247 1_554
Ca11 Cd4 3.488247 1_554
Ca11 Cd3 3.488252 1_555
Ca11 Cd2 3.488252 1_555
Ca12 N6 2.430144 1_566
Ca12 N2 2.441711 1_555
Ca12 Cd6 3.642321 1_455
Ca12 Cd0 3.642326 1_565
Ca12 Cd3 3.642326 1_556
Ca12 Cd4 3.642331 1_555
Ca13 N4 2.410663 1_555
Ca13 N0 2.410663 1_555
Ca13 Cd2 3.488242 1_556
Ca13 Cd4 3.488242 1_545
Ca13 Cd5 3.488246 1_556
Ca13 Cd6 3.488246 1_545
Ca14 N4 2.410663 1_555
Ca14 N1 2.410663 1_555
Ca14 Cd7 3.488247 1_545
Ca14 Cd4 3.488247 1_545
Ca14 Cd0 3.488252 1_555
Ca14 Cd2 3.488252 1_555
Ca15 N5 2.410663 1_555
Ca15 N0 2.410663 1_555
Ca15 Cd0 3.488247 1_655
Ca15 Cd3 3.488247 1_655
Ca15 Cd1 3.488252 1_555
Ca15 Cd7 3.488252 1_555
Ca16 N6 2.430144 1_655
Ca16 N1 2.441711 1_555
Ca16 Cd5 3.642321 1_655
Ca16 Cd7 3.642326 1_545
Ca16 Cd1 3.642326 1_554
Ca16 Cd2 3.642331 1_555
Ca17 N2 2.410663 1_555
Ca17 N0 2.410663 1_555
Ca17 Cd3 3.488247 1_556
Ca17 Cd2 3.488247 1_556
Ca17 Cd1 3.488252 1_555
Ca17 Cd4 3.488252 1_555
Cd0 Cd2 3.091034 1_555
Cd0 Cd5 3.091034 1_555
Cd0 Cd3 3.091034 1_555
Cd1 Cd4 3.091034 1_555
Cd1 Cd7 3.091034 1_555
Cd1 Cd6 3.091034 1_555
Cd2 Cd3 3.091034 1_555
Cd2 Cd5 3.091034 1_555
Cd3 Cd5 3.091034 1_555
Cd4 Cd7 3.091034 1_555
Cd4 Cd6 3.091034 1_555
Cd6 Cd7 3.091034 1_555
N0 Y0 2.460870 1_555
N1 Y0 2.460870 1_555
N2 Y0 2.460870 1_555
N3 Y0 2.460870 1_555
N4 Y0 2.460870 1_555
N5 Y0 2.460870 1_555
