# generated using pymatgen
data_Ta12Ga9Rh3C4
_symmetry_space_group_name_H-M   'P 1'
_cell_length_a   8.25424706
_cell_length_b   8.25435913
_cell_length_c   8.25416749
_cell_angle_alpha   60.20241649
_cell_angle_beta   60.20233428
_cell_angle_gamma   60.20307273
_symmetry_Int_Tables_number   1
_chemical_formula_structural   Ta12Ga9Rh3C4
_chemical_formula_sum   'Ta12 Ga9 Rh3 C4'
_cell_volume   399.49097254
_cell_formula_units_Z   1
loop_
 _symmetry_equiv_pos_site_id
 _symmetry_equiv_pos_as_xyz
  1  'x, y, z'
loop_
 _atom_site_type_symbol
 _atom_site_label
 _atom_site_symmetry_multiplicity
 _atom_site_fract_x
 _atom_site_fract_y
 _atom_site_fract_z
 _atom_site_occupancy
  Ta  Ta0  1  0.18421482  0.81568984  0.18421264  1
  Ta  Ta1  1  0.81152379  0.19157832  0.81152171  1
  Ta  Ta2  1  0.06578518  0.43431016  0.06578736  1
  Ta  Ta3  1  0.05842459  0.43847370  0.43847742  1
  Ta  Ta4  1  0.43430968  0.06578329  0.06578823  1
  Ta  Ta5  1  0.43847621  0.05842168  0.43847829  1
  Ta  Ta6  1  0.81152683  0.81152439  0.19157494  1
  Ta  Ta7  1  0.06578634  0.06578133  0.43431259  1
  Ta  Ta8  1  0.18421366  0.18421867  0.81568741  1
  Ta  Ta9  1  0.19157541  0.81152630  0.81152258  1
  Ta  Ta10  1  0.43847317  0.43847561  0.05842506  1
  Ta  Ta11  1  0.81569032  0.18421671  0.18421177  1
  Ga  Ga0  1  0.62500000  0.62500000  0.62500000  1
  Ga  Ga1  1  0.84006188  0.84007049  0.49182120  1
  Ga  Ga2  1  0.49181607  0.84007621  0.84005700  1
  Ga  Ga3  1  0.40992928  0.75818639  0.40993749  1
  Ga  Ga4  1  0.75818393  0.40992379  0.40994300  1
  Ga  Ga5  1  0.41342599  0.41342134  0.41343059  1
  Ga  Ga6  1  0.40993812  0.40992951  0.75817880  1
  Ga  Ga7  1  0.84007072  0.49181361  0.84006251  1
  Ga  Ga8  1  0.83657401  0.83657866  0.83656941  1
  Rh  Rh0  1  0.12500000  0.62500000  0.62500000  1
  Rh  Rh1  1  0.62500000  0.62500000  0.12500000  1
  Rh  Rh2  1  0.62500000  0.12500000  0.62500000  1
  C  C0  1  0.12500000  0.12500000  0.12500000  1
  C  C1  1  0.12500000  0.12500000  0.62500000  1
  C  C2  1  0.62500000  0.12500000  0.12500000  1
  C  C3  1  0.12500000  0.62500000  0.12500000  1
loop_
_geom_bond_atom_site_label_1
_geom_bond_atom_site_label_2
_geom_bond_distance
_geom_bond_site_symmetry_2
Ga0 Ga7 2.600790 1_555
Ga0 Ga3 2.600790 1_555
Ga0 Ga2 2.600816 1_555
Ga0 Ga4 2.600816 1_555
Ga0 Ga1 2.600818 1_555
Ga0 Ga6 2.600818 1_555
Ga0 Ta10 2.991155 1_556
Ga0 Ta6 2.991155 1_555
Ga0 Ta3 2.991196 1_655
Ga0 Ta9 2.991196 1_555
Ga0 Ta5 2.991208 1_565
Ga0 Ta1 2.991208 1_555
Ga1 Rh2 2.524253 1_565
Ga1 Rh0 2.524289 1_655
Ga1 Ta11 2.707040 1_565
Ga1 Ta0 2.707044 1_655
Ga1 Ta6 2.732869 1_555
Ga1 Ga8 2.817275 1_555
Ga1 Ga2 2.883238 1_555
Ga1 Ga7 2.883330 1_555
Ga1 Ta7 2.976560 1_665
Ga1 Ta5 3.025608 1_565
Ga1 Ta3 3.025728 1_655
Ga2 Rh2 2.524217 1_565
Ga2 Rh1 2.524325 1_556
Ga2 Ta0 2.707022 1_556
Ga2 Ta8 2.707032 1_565
Ga2 Ta9 2.732859 1_555
Ga2 Ga8 2.817361 1_555
Ga2 Ga7 2.883451 1_555
Ga2 Ta4 2.976586 1_566
Ga2 Ta5 3.025506 1_565
Ga2 Ta10 3.025729 1_556
Ga3 Rh0 2.524247 1_555
Ga3 Rh1 2.524303 1_555
Ga3 Ta4 2.706994 1_565
Ga3 Ta7 2.707001 1_565
Ga3 Ta5 2.732862 1_565
Ga3 Ga5 2.817440 1_555
Ga3 Ga6 2.883330 1_555
Ga3 Ga4 2.883451 1_555
Ga3 Ta0 2.976582 1_555
Ga3 Ta9 3.025550 1_555
Ga3 Ta6 3.025653 1_555
Ga4 Rh2 2.524217 1_555
Ga4 Rh1 2.524325 1_555
Ga4 Ta2 2.707022 1_655
Ga4 Ta7 2.707032 1_655
Ga4 Ta3 2.732859 1_655
Ga4 Ga5 2.817361 1_555
Ga4 Ga6 2.883238 1_555
Ga4 Ta11 2.976586 1_555
Ga4 Ta1 3.025506 1_555
Ga4 Ta6 3.025729 1_555
Ga5 Rh2 2.556228 1_555
Ga5 Rh0 2.556261 1_555
Ga5 Rh1 2.556267 1_555
Ga5 Ta10 2.740459 1_555
Ga5 Ta3 2.740464 1_555
Ga5 Ta5 2.740496 1_555
Ga5 Ga6 2.817275 1_555
Ga6 Rh2 2.524253 1_555
Ga6 Rh0 2.524289 1_555
Ga6 Ta4 2.707040 1_556
Ga6 Ta2 2.707044 1_556
Ga6 Ta10 2.732869 1_556
Ga6 Ta8 2.976560 1_555
Ga6 Ta1 3.025608 1_555
Ga6 Ta9 3.025728 1_555
Ga7 Rh0 2.524247 1_655
Ga7 Rh1 2.524303 1_556
Ga7 Ta11 2.706994 1_556
Ga7 Ta8 2.707001 1_655
Ga7 Ta1 2.732862 1_555
Ga7 Ga8 2.817440 1_555
Ga7 Ta2 2.976582 1_656
Ga7 Ta3 3.025550 1_655
Ga7 Ta10 3.025653 1_556
Ga8 Rh2 2.556228 1_565
Ga8 Rh0 2.556261 1_655
Ga8 Rh1 2.556267 1_556
Ga8 Ta6 2.740459 1_556
Ga8 Ta9 2.740464 1_655
Ga8 Ta1 2.740496 1_565
Rh0 Ta9 3.013391 1_555
Rh0 Ta3 3.013391 1_555
Rh0 Ta2 3.042918 1_556
Rh0 Ta0 3.042918 1_555
Rh0 Ta7 3.042959 1_565
Rh0 Ta8 3.042959 1_555
Rh1 Ta6 3.013409 1_555
Rh1 Ta10 3.013409 1_555
Rh1 Ta2 3.042958 1_655
Rh1 Ta0 3.042958 1_555
Rh1 Ta4 3.042990 1_565
Rh1 Ta11 3.042990 1_555
Rh2 Ta1 3.013372 1_555
Rh2 Ta5 3.013372 1_555
Rh2 Ta4 3.042919 1_556
Rh2 Ta11 3.042919 1_555
Rh2 Ta7 3.042941 1_655
Rh2 Ta8 3.042941 1_555
C0 Ta7 2.180161 1_555
C0 Ta8 2.180161 1_554
C0 Ta4 2.180177 1_555
C0 Ta11 2.180177 1_455
C0 Ta2 2.180218 1_555
C0 Ta0 2.180218 1_545
C1 Ta8 2.172991 1_555
C1 Ta7 2.172991 1_555
C1 Ta5 2.199068 1_555
C1 Ta1 2.199068 1_455
C1 Ta3 2.199082 1_555
C1 Ta9 2.199082 1_545
C2 Ta11 2.173000 1_555
C2 Ta4 2.173000 1_555
C2 Ta5 2.199060 1_555
C2 Ta1 2.199060 1_554
C2 Ta6 2.199117 1_545
C2 Ta10 2.199117 1_555
C3 Ta0 2.173006 1_555
C3 Ta2 2.173006 1_555
C3 Ta3 2.199066 1_555
C3 Ta9 2.199066 1_554
C3 Ta10 2.199077 1_555
C3 Ta6 2.199077 1_455
