# generated using pymatgen
data_Ti8VReSi6
_symmetry_space_group_name_H-M   'P 1'
_cell_length_a   7.37891092
_cell_length_b   7.37890998
_cell_length_c   5.03075060
_cell_angle_alpha   90.00000000
_cell_angle_beta   90.00000000
_cell_angle_gamma   119.99999530
_symmetry_Int_Tables_number   1
_chemical_formula_structural   Ti8VReSi6
_chemical_formula_sum   'Ti8 V1 Re1 Si6'
_cell_volume   237.21815262
_cell_formula_units_Z   1
loop_
 _symmetry_equiv_pos_site_id
 _symmetry_equiv_pos_as_xyz
  1  'x, y, z'
loop_
 _atom_site_type_symbol
 _atom_site_label
 _atom_site_symmetry_multiplicity
 _atom_site_fract_x
 _atom_site_fract_y
 _atom_site_fract_z
 _atom_site_occupancy
  Ti  Ti0  1  0.75310068  0.75234763  0.25142601  1
  Ti  Ti1  1  0.99924695  0.24689932  0.25142601  1
  Ti  Ti2  1  0.75310068  0.00075305  0.74857399  1
  Ti  Ti3  1  0.33333300  0.66666700  0.50000000  1
  Ti  Ti4  1  0.24765237  0.00075305  0.25142601  1
  Ti  Ti5  1  0.66666700  0.33333300  0.50000000  1
  Ti  Ti6  1  0.99924695  0.75234763  0.74857399  1
  Ti  Ti7  1  0.24765237  0.24689932  0.74857399  1
  V  V0  1  0.66666700  0.33333300  0.00000000  1
  Re  Re0  1  0.33333300  0.66666700  0.00000000  1
  Si  Si0  1  0.60576469  0.60397437  0.76253896  1
  Si  Si1  1  0.39602563  0.00179032  0.76253896  1
  Si  Si2  1  0.60576469  0.00179032  0.23746104  1
  Si  Si3  1  0.99820968  0.39423531  0.76253896  1
  Si  Si4  1  0.39602563  0.39423531  0.23746104  1
  Si  Si5  1  0.99820968  0.60397437  0.23746104  1
loop_
_geom_bond_atom_site_label_1
_geom_bond_atom_site_label_2
_geom_bond_distance
_geom_bond_site_symmetry_2
Ti5 V0 2.515375 1_556
Ti5 V0 2.515375 1_555
Re0 Ti3 2.515375 1_555
Re0 Ti3 2.515375 1_554
Re0 Si1 2.571401 1_564
Re0 Si5 2.571401 1_455
Re0 Si2 2.571404 1_565
Re0 Si3 2.571404 1_454
Re0 Si4 2.571408 1_555
Re0 Si0 2.571408 1_554
Si0 Ti6 2.540654 1_555
Si0 V0 2.552383 1_556
Si0 Ti2 2.564339 1_565
Si0 Ti5 2.613809 1_555
Si0 Ti3 2.632390 1_555
Si0 Ti7 2.639595 1_555
Si0 Ti0 2.690599 1_556
Si0 Ti0 2.793175 1_555
Si1 Ti7 2.540653 1_555
Si1 V0 2.552379 1_556
Si1 Ti6 2.564340 1_445
Si1 Ti5 2.613805 1_555
Si1 Ti3 2.632384 1_545
Si1 Ti2 2.639595 1_555
Si1 Ti4 2.690599 1_556
Si1 Ti4 2.793175 1_555
Si2 Ti1 2.540654 1_555
Si2 V0 2.552376 1_555
Si2 Ti0 2.564339 1_545
Si2 Ti5 2.613803 1_555
Si2 Ti3 2.632386 1_545
Si2 Ti4 2.639595 1_555
Si2 Ti2 2.690599 1_554
Si2 Ti2 2.793175 1_555
Si3 Ti2 2.540653 1_555
Si3 V0 2.552376 1_556
Si3 Ti7 2.564339 1_655
Si3 Ti5 2.613803 1_555
Si3 Ti3 2.632386 1_655
Si3 Ti6 2.639595 1_555
Si3 Ti1 2.690599 1_556
Si3 Ti1 2.793175 1_555
Si4 Ti4 2.540653 1_555
Si4 V0 2.552383 1_555
Si4 Ti1 2.564340 1_455
Si4 Ti5 2.613809 1_555
Si4 Ti3 2.632390 1_555
Si4 Ti0 2.639595 1_555
Si4 Ti7 2.690599 1_554
Si4 Ti7 2.793175 1_555
Si5 Ti0 2.540653 1_555
Si5 V0 2.552379 1_555
Si5 Ti4 2.564339 1_665
Si5 Ti5 2.613805 1_555
Si5 Ti3 2.632384 1_655
Si5 Ti1 2.639595 1_555
Si5 Ti6 2.690599 1_554
Si5 Ti6 2.793175 1_555
