# generated using pymatgen
data_Lu3SiS2
_symmetry_space_group_name_H-M   'P 1'
_cell_length_a   6.73046643
_cell_length_b   6.73046687
_cell_length_c   6.73046742
_cell_angle_alpha   146.35185436
_cell_angle_beta   131.98548223
_cell_angle_gamma   59.90745357
_symmetry_Int_Tables_number   1
_chemical_formula_structural   Lu3SiS2
_chemical_formula_sum   'Lu3 Si1 S2'
_cell_volume   124.42707910
_cell_formula_units_Z   1
loop_
 _symmetry_equiv_pos_site_id
 _symmetry_equiv_pos_as_xyz
  1  'x, y, z'
loop_
 _atom_site_type_symbol
 _atom_site_label
 _atom_site_symmetry_multiplicity
 _atom_site_fract_x
 _atom_site_fract_y
 _atom_site_fract_z
 _atom_site_occupancy
  Lu  Lu0  1  0.83640052  0.33640052  0.50000000  1
  Lu  Lu1  1  0.50000000  0.00000000  0.50000000  1
  Lu  Lu2  1  0.16359948  0.66359948  0.50000000  1
  Si  Si0  1  0.00000000  0.00000000  0.00000000  1
  S  S0  1  0.66763456  0.66763456  0.00000000  1
  S  S1  1  0.33236544  0.33236544  1.00000000  1
loop_
_geom_bond_atom_site_label_1
_geom_bond_atom_site_label_2
_geom_bond_distance
_geom_bond_site_symmetry_2
Lu0 Si0 2.726805 1_666
Lu0 Si0 2.726805 1_655
Lu0 S1 2.738711 1_554
Lu0 S1 2.738711 1_655
Lu0 S0 2.769303 1_545
Lu0 S0 2.769303 1_556
Lu1 Si0 2.738306 1_555
Lu1 Si0 2.738306 1_656
Lu1 S0 2.759940 1_556
Lu1 S1 2.759940 1_544
Lu1 S0 2.759940 1_545
Lu1 S1 2.759940 1_555
Lu2 Si0 2.726805 1_555
Lu2 Si0 2.726805 1_566
Lu2 S0 2.738711 1_556
Lu2 S0 2.738711 1_455
Lu2 S1 2.769303 1_565
Lu2 S1 2.769303 1_554
