# generated using pymatgen
data_RbBa3IrO6
_symmetry_space_group_name_H-M   'P 1'
_cell_length_a   7.30392074
_cell_length_b   7.30391965
_cell_length_c   7.30392030
_cell_angle_alpha   87.91064579
_cell_angle_beta   87.91064884
_cell_angle_gamma   87.91064463
_symmetry_Int_Tables_number   1
_chemical_formula_structural   RbBa3IrO6
_chemical_formula_sum   'Rb2 Ba6 Ir2 O12'
_cell_volume   388.88534235
_cell_formula_units_Z   2
loop_
 _symmetry_equiv_pos_site_id
 _symmetry_equiv_pos_as_xyz
  1  'x, y, z'
loop_
 _atom_site_type_symbol
 _atom_site_label
 _atom_site_symmetry_multiplicity
 _atom_site_fract_x
 _atom_site_fract_y
 _atom_site_fract_z
 _atom_site_occupancy
  Rb  Rb0  1  0.25000000  0.25000000  0.25000000  1
  Rb  Rb1  1  0.75000000  0.75000000  0.75000000  1
  Ba  Ba0  1  0.11169031  0.75000000  0.38830969  1
  Ba  Ba1  1  0.38830969  0.11169031  0.75000000  1
  Ba  Ba2  1  0.88830969  0.25000000  0.61169031  1
  Ba  Ba3  1  0.61169031  0.88830969  0.25000000  1
  Ba  Ba4  1  0.75000000  0.38830969  0.11169031  1
  Ba  Ba5  1  0.25000000  0.61169031  0.88830969  1
  Ir  Ir0  1  0.00000000  0.00000000  0.00000000  1
  Ir  Ir1  1  0.50000000  0.50000000  0.50000000  1
  O  O0  1  0.43122796  0.76114102  0.56607055  1
  O  O1  1  0.56607055  0.43122796  0.76114102  1
  O  O2  1  0.76114102  0.56607055  0.43122796  1
  O  O3  1  0.06877204  0.93392945  0.73885898  1
  O  O4  1  0.73885898  0.06877204  0.93392945  1
  O  O5  1  0.93392945  0.73885898  0.06877204  1
  O  O6  1  0.56877204  0.23885898  0.43392945  1
  O  O7  1  0.43392945  0.56877204  0.23885898  1
  O  O8  1  0.23885898  0.43392945  0.56877204  1
  O  O9  1  0.93122796  0.06607055  0.26114102  1
  O  O10  1  0.06607055  0.26114102  0.93122796  1
  O  O11  1  0.26114102  0.93122796  0.06607055  1
loop_
_geom_bond_atom_site_label_1
_geom_bond_atom_site_label_2
_geom_bond_distance
_geom_bond_site_symmetry_2
Ba0 O5 2.716951 1_455
Ba0 O0 2.716951 1_555
Ba0 O8 2.764151 1_555
Ba0 O9 2.764151 1_465
Ba0 O11 2.859019 1_555
Ba0 O7 2.859019 1_555
Ba0 O3 2.936008 1_555
Ba0 O2 2.936009 1_455
Ba1 O1 2.716951 1_555
Ba1 O3 2.716951 1_545
Ba1 O11 2.764152 1_546
Ba1 O6 2.764152 1_555
Ba1 O8 2.859019 1_555
Ba1 O10 2.859019 1_555
Ba1 O0 2.936008 1_545
Ba1 O4 2.936009 1_555
Ba2 O10 2.716951 1_655
Ba2 O6 2.716951 1_555
Ba2 O2 2.764151 1_555
Ba2 O3 2.764151 1_645
Ba2 O4 2.859019 1_555
Ba2 O1 2.859019 1_555
Ba2 O9 2.936008 1_555
Ba2 O8 2.936009 1_655
Ba3 O7 2.716951 1_555
Ba3 O9 2.716951 1_565
Ba3 O4 2.764152 1_564
Ba3 O0 2.764152 1_555
Ba3 O2 2.859019 1_555
Ba3 O5 2.859019 1_555
Ba3 O6 2.936008 1_565
Ba3 O11 2.936009 1_555
Ba4 O4 2.716951 1_554
Ba4 O2 2.716951 1_555
Ba4 O7 2.764152 1_555
Ba4 O10 2.764152 1_654
Ba4 O9 2.859019 1_555
Ba4 O6 2.859019 1_555
Ba4 O5 2.936008 1_555
Ba4 O1 2.936008 1_554
Ba5 O11 2.716951 1_556
Ba5 O8 2.716951 1_555
Ba5 O1 2.764152 1_555
Ba5 O5 2.764152 1_456
Ba5 O3 2.859019 1_555
Ba5 O0 2.859019 1_555
Ba5 O10 2.936008 1_555
Ba5 O7 2.936008 1_556
Ir0 O10 2.025528 1_554
Ir0 O5 2.025528 1_445
Ir0 O9 2.025529 1_455
Ir0 O3 2.025529 1_544
Ir0 O11 2.025529 1_545
Ir0 O4 2.025529 1_454
Ir1 O0 2.025528 1_555
Ir1 O6 2.025528 1_555
Ir1 O1 2.025529 1_555
Ir1 O7 2.025529 1_555
Ir1 O2 2.025529 1_555
Ir1 O8 2.025529 1_555
O0 Rb1 2.727372 1_555
O1 Rb1 2.727372 1_555
O2 Rb1 2.727372 1_555
O3 Rb1 2.727372 1_455
O4 Rb1 2.727372 1_545
O5 Rb1 2.727372 1_554
O6 Rb0 2.727372 1_555
O7 Rb0 2.727372 1_555
O8 Rb0 2.727372 1_555
O9 Rb0 2.727372 1_655
O10 Rb0 2.727372 1_556
O11 Rb0 2.727372 1_565
