# generated using pymatgen
data_Rb12AlInAs6
_symmetry_space_group_name_H-M   'P 1'
_cell_length_a   6.03520061
_cell_length_b   10.24687602
_cell_length_c   11.83143118
_cell_angle_alpha   79.01395048
_cell_angle_beta   90.00000000
_cell_angle_gamma   90.00000000
_symmetry_Int_Tables_number   1
_chemical_formula_structural   Rb12AlInAs6
_chemical_formula_sum   'Rb12 Al1 In1 As6'
_cell_volume   718.26977436
_cell_formula_units_Z   1
loop_
 _symmetry_equiv_pos_site_id
 _symmetry_equiv_pos_as_xyz
  1  'x, y, z'
loop_
 _atom_site_type_symbol
 _atom_site_label
 _atom_site_symmetry_multiplicity
 _atom_site_fract_x
 _atom_site_fract_y
 _atom_site_fract_z
 _atom_site_occupancy
  Rb  Rb0  1  0.75000000  0.12029669  0.32357998  1
  Rb  Rb1  1  0.25000000  0.88753527  0.67375120  1
  Rb  Rb2  1  0.75000000  0.13381508  0.98452302  1
  Rb  Rb3  1  0.25000000  0.86334953  0.02495835  1
  Rb  Rb4  1  0.75000000  0.43928034  0.46250155  1
  Rb  Rb5  1  0.25000000  0.56200508  0.53192339  1
  Rb  Rb6  1  0.75000000  0.45831349  0.07565652  1
  Rb  Rb7  1  0.25000000  0.53006179  0.92930750  1
  Rb  Rb8  1  0.75000000  0.73433014  0.22259815  1
  Rb  Rb9  1  0.25000000  0.25603501  0.77360533  1
  Rb  Rb10  1  0.75000000  0.08994733  0.63025994  1
  Rb  Rb11  1  0.25000000  0.91730207  0.36573457  1
  Al  Al0  1  0.25000000  0.32375165  0.27965697  1
  In  In0  1  0.75000000  0.67625624  0.72256840  1
  As  As0  1  0.75000000  0.42006605  0.77643956  1
  As  As1  1  0.25000000  0.56296139  0.22671459  1
  As  As2  1  0.75000000  0.79208003  0.50600715  1
  As  As3  1  0.25000000  0.21628990  0.48159299  1
  As  As4  1  0.75000000  0.82890490  0.88026967  1
  As  As5  1  0.25000000  0.18741804  0.12835316  1
loop_
_geom_bond_atom_site_label_1
_geom_bond_atom_site_label_2
_geom_bond_distance
_geom_bond_site_symmetry_2
Al0 As1 2.411497 1_555
Al0 As3 2.432703 1_555
Al0 As5 2.471711 1_555
Al0 Rb0 3.648197 1_455
Al0 Rb0 3.648197 1_555
In0 Rb1 3.694581 1_655
In0 Rb1 3.694581 1_555
As0 In0 2.580684 1_555
As0 Rb2 3.451420 1_555
As0 Rb9 3.457402 1_655
As0 Rb9 3.457402 1_555
As0 Rb6 3.635269 1_556
As0 Rb4 3.681892 1_555
As0 Rb7 3.797956 1_555
As0 Rb7 3.797956 1_655
As1 Rb8 3.487005 1_455
As1 Rb8 3.487005 1_555
As1 Rb3 3.517384 1_555
As1 Rb7 3.598247 1_554
As1 Rb5 3.609202 1_555
As1 Rb6 3.765689 1_555
As1 Rb6 3.765689 1_455
As2 In0 2.610473 1_555
As2 Rb8 3.514250 1_555
As2 Rb11 3.563012 1_655
As2 Rb11 3.563012 1_555
As2 Rb10 3.631435 1_565
As2 Rb0 3.633587 1_565
As2 Rb4 3.747411 1_555
As2 Rb5 3.805581 1_555
As2 Rb5 3.805581 1_655
As2 Rb1 3.839446 1_555
As2 Rb1 3.839446 1_655
As3 Rb9 3.555088 1_555
As3 Rb11 3.586901 1_545
As3 Rb10 3.606648 1_455
As3 Rb10 3.606648 1_555
As3 Rb1 3.687541 1_545
As3 Rb5 3.702421 1_555
As3 Rb4 3.765799 1_555
As3 Rb4 3.765799 1_455
As3 Rb0 3.777490 1_455
As3 Rb0 3.777490 1_555
As4 In0 2.653359 1_555
As4 Rb3 3.520126 1_556
As4 Rb3 3.520126 1_656
As4 Rb2 3.570996 1_565
As4 Rb10 3.590108 1_565
As4 Rb1 3.857149 1_555
As4 Rb1 3.857149 1_655
As4 Rb8 3.980899 1_556
As4 Rb6 4.051967 1_556
As5 Rb11 3.547694 1_545
As5 Rb2 3.558045 1_454
As5 Rb2 3.558045 1_554
As5 Rb3 3.751232 1_545
As5 Rb0 3.782684 1_555
As5 Rb0 3.782684 1_455
As5 Rb7 3.836910 1_554
