# generated using pymatgen
data_Hf(IO3)4
_symmetry_space_group_name_H-M   'P 1'
_cell_length_a   8.36547854
_cell_length_b   8.36547854
_cell_length_c   7.36625219
_cell_angle_alpha   90.00000000
_cell_angle_beta   90.00000000
_cell_angle_gamma   90.00000000
_symmetry_Int_Tables_number   1
_chemical_formula_structural   Hf(IO3)4
_chemical_formula_sum   'Hf2 I8 O24'
_cell_volume   515.49939752
_cell_formula_units_Z   2
loop_
 _symmetry_equiv_pos_site_id
 _symmetry_equiv_pos_as_xyz
  1  'x, y, z'
loop_
 _atom_site_type_symbol
 _atom_site_label
 _atom_site_symmetry_multiplicity
 _atom_site_fract_x
 _atom_site_fract_y
 _atom_site_fract_z
 _atom_site_occupancy
  Hf  Hf0  1  0.00000000  0.50000000  0.05709039  1
  Hf  Hf1  1  0.50000000  0.00000000  0.94290961  1
  I  I0  1  0.75139602  0.71805972  0.72822153  1
  I  I1  1  0.78194028  0.25139602  0.72822153  1
  I  I2  1  0.28194028  0.75139602  0.27177847  1
  I  I3  1  0.25139602  0.21805972  0.27177847  1
  I  I4  1  0.74860398  0.78194028  0.27177847  1
  I  I5  1  0.71805972  0.24860398  0.27177847  1
  I  I6  1  0.24860398  0.28194028  0.72822153  1
  I  I7  1  0.21805972  0.74860398  0.72822153  1
  O  O0  1  0.20279578  0.59000984  0.90308815  1
  O  O1  1  0.09000984  0.29720422  0.90308815  1
  O  O2  1  0.90999016  0.70279578  0.90308815  1
  O  O3  1  0.79720422  0.40999016  0.90308815  1
  O  O4  1  0.29720422  0.90999016  0.09691185  1
  O  O5  1  0.40999016  0.20279578  0.09691185  1
  O  O6  1  0.59000984  0.79720422  0.09691185  1
  O  O7  1  0.70279578  0.09000984  0.09691185  1
  O  O8  1  0.42571405  0.79468357  0.78171050  1
  O  O9  1  0.29468357  0.07428595  0.78171050  1
  O  O10  1  0.74811646  0.39992092  0.55307469  1
  O  O11  1  0.89992092  0.75188354  0.55307469  1
  O  O12  1  0.10007908  0.24811646  0.55307469  1
  O  O13  1  0.25188354  0.60007908  0.55307469  1
  O  O14  1  0.75188354  0.10007908  0.44692531  1
  O  O15  1  0.60007908  0.74811646  0.44692531  1
  O  O16  1  0.39992092  0.25188354  0.44692531  1
  O  O17  1  0.24811646  0.89992092  0.44692531  1
  O  O18  1  0.92571405  0.29468357  0.21828950  1
  O  O19  1  0.79468357  0.57428595  0.21828950  1
  O  O20  1  0.20531643  0.42571405  0.21828950  1
  O  O21  1  0.07428595  0.70531643  0.21828950  1
  O  O22  1  0.57428595  0.20531643  0.78171050  1
  O  O23  1  0.70531643  0.92571405  0.78171050  1
loop_
_geom_bond_atom_site_label_1
_geom_bond_atom_site_label_2
_geom_bond_distance
_geom_bond_site_symmetry_2
Hf0 O0 2.175301 1_554
Hf0 O2 2.175301 1_454
Hf0 O1 2.175301 1_554
Hf0 O3 2.175301 1_454
Hf0 O21 2.178584 1_555
Hf0 O20 2.178584 1_555
Hf0 O19 2.178584 1_455
Hf0 O18 2.178584 1_455
Hf1 O7 2.175301 1_556
Hf1 O5 2.175301 1_556
Hf1 O6 2.175301 1_546
Hf1 O4 2.175301 1_546
Hf1 O22 2.178584 1_555
Hf1 O23 2.178584 1_545
Hf1 O9 2.178584 1_555
Hf1 O8 2.178584 1_545
I0 O11 1.813388 1_555
I0 O23 1.822485 1_555
I0 O2 1.853567 1_555
I0 O15 2.441140 1_555
I1 O10 1.813388 1_555
I1 O22 1.822485 1_555
I1 O3 1.853567 1_555
I1 O14 2.441140 1_555
I2 O17 1.813388 1_555
I2 O21 1.822485 1_555
I2 O4 1.853567 1_555
I2 O13 2.441140 1_555
I3 O16 1.813388 1_555
I3 O20 1.822485 1_555
I3 O5 1.853567 1_555
I3 O12 2.441140 1_555
I4 O15 1.813388 1_555
I4 O19 1.822485 1_555
I4 O6 1.853567 1_555
I4 O11 2.441140 1_555
I5 O14 1.813388 1_555
I5 O18 1.822485 1_555
I5 O7 1.853567 1_555
I5 O10 2.441140 1_555
I6 O12 1.813388 1_555
I6 O9 1.822485 1_555
I6 O1 1.853567 1_555
I6 O16 2.441140 1_555
I7 O13 1.813388 1_555
I7 O8 1.822485 1_555
I7 O0 1.853567 1_555
I7 O17 2.441140 1_555
