# generated using pymatgen
data_Cs2Sn(WO4)3
_symmetry_space_group_name_H-M   'P 1'
_cell_length_a   7.41056384
_cell_length_b   7.42008459
_cell_length_c   7.32264520
_cell_angle_alpha   89.99999820
_cell_angle_beta   59.59804282
_cell_angle_gamma   120.04251031
_symmetry_Int_Tables_number   1
_chemical_formula_structural   Cs2Sn(WO4)3
_chemical_formula_sum   'Cs2 Sn1 W3 O12'
_cell_volume   282.79049493
_cell_formula_units_Z   1
loop_
 _symmetry_equiv_pos_site_id
 _symmetry_equiv_pos_as_xyz
  1  'x, y, z'
loop_
 _atom_site_type_symbol
 _atom_site_label
 _atom_site_symmetry_multiplicity
 _atom_site_fract_x
 _atom_site_fract_y
 _atom_site_fract_z
 _atom_site_occupancy
  Cs  Cs0  1  0.25414979  0.12282394  0.12003237  1
  Cs  Cs1  1  0.74585021  0.86867315  0.87996763  1
  Sn  Sn0  1  1.00000000  0.51723706  0.00000000  1
  W  W0  1  0.49410497  0.98145577  0.48712400  1
  W  W1  1  0.50589503  0.48735180  0.51287600  1
  W  W2  1  1.00000000  0.47807360  0.50000000  1
  O  O0  1  0.61933002  0.81541453  0.44028980  1
  O  O1  1  0.86945887  0.44952090  0.80307700  1
  O  O2  1  0.26387810  0.84403762  0.80203508  1
  O  O3  1  0.24611920  0.44052706  0.44519438  1
  O  O4  1  0.26018901  0.44988880  0.80397683  1
  O  O5  1  0.25309534  0.81283768  0.43618754  1
  O  O6  1  0.38066998  0.19608452  0.55971020  1
  O  O7  1  0.13054113  0.58006203  0.19692300  1
  O  O8  1  0.73981099  0.18969979  0.19602317  1
  O  O9  1  0.74690466  0.55974235  0.56381246  1
  O  O10  1  0.73612190  0.58015952  0.19796492  1
  O  O11  1  0.75388080  0.19440686  0.55480562  1
loop_
_geom_bond_atom_site_label_1
_geom_bond_atom_site_label_2
_geom_bond_distance
_geom_bond_site_symmetry_2
Cs0 O2 3.112247 1_544
Cs0 O1 3.205586 1_554
Cs0 O5 3.257910 1_545
Cs0 O0 3.305012 1_445
Cs0 O4 3.321790 1_554
Cs0 O3 3.350707 1_555
Cs1 O10 3.112242 1_556
Cs1 O7 3.205586 1_556
Cs1 O9 3.257905 1_555
Cs1 O6 3.305012 1_665
Cs1 O8 3.321795 1_566
Cs1 O11 3.350707 1_565
O0 W0 1.821915 1_555
O0 W1 2.100860 1_555
O1 W2 1.878279 1_555
O1 Sn0 2.047642 1_556
O2 W0 1.882608 1_555
O2 Sn0 2.046557 1_456
O3 W2 1.825696 1_455
O3 W1 2.090033 1_555
O4 W1 1.871181 1_555
O4 Sn0 2.047298 1_456
O5 W0 1.825147 1_555
O5 W2 2.086712 1_455
O6 W1 1.821922 1_555
O6 W0 2.100867 1_545
O7 W2 1.878279 1_455
O7 Sn0 2.047642 1_455
O8 W0 1.871184 1_545
O8 Sn0 2.047298 1_555
O9 W1 1.825148 1_555
O9 W2 2.086712 1_555
O10 W1 1.882609 1_555
O10 Sn0 2.046558 1_555
O11 W2 1.825701 1_555
O11 W0 2.090033 1_545
