# generated using pymatgen
data_Ru(PtRh)4
_symmetry_space_group_name_H-M   'P 1'
_cell_length_a   6.12437947
_cell_length_b   6.12437960
_cell_length_c   6.12438047
_cell_angle_alpha   95.68205799
_cell_angle_beta   95.68204901
_cell_angle_gamma   143.31996872
_symmetry_Int_Tables_number   1
_chemical_formula_structural   Ru(PtRh)4
_chemical_formula_sum   'Ru1 Pt4 Rh4'
_cell_volume   130.24843974
_cell_formula_units_Z   1
loop_
 _symmetry_equiv_pos_site_id
 _symmetry_equiv_pos_as_xyz
  1  'x, y, z'
loop_
 _atom_site_type_symbol
 _atom_site_label
 _atom_site_symmetry_multiplicity
 _atom_site_fract_x
 _atom_site_fract_y
 _atom_site_fract_z
 _atom_site_occupancy
  Ru  Ru0  1  0.00000000  0.00000000  0.00000000  1
  Pt  Pt0  1  0.00000000  0.32729059  0.32729059  1
  Pt  Pt1  1  1.00000000  0.67270941  0.67270941  1
  Pt  Pt2  1  0.67270941  0.00000000  0.67270941  1
  Pt  Pt3  1  0.32729059  1.00000000  0.32729059  1
  Rh  Rh0  1  0.33856275  0.33856275  0.67712750  1
  Rh  Rh1  1  0.66143725  0.66143725  0.32287250  1
  Rh  Rh2  1  0.66143725  0.33856275  0.00000000  1
  Rh  Rh3  1  0.33856275  0.66143725  1.00000000  1
loop_
_geom_bond_atom_site_label_1
_geom_bond_atom_site_label_2
_geom_bond_distance
_geom_bond_site_symmetry_2
Pt0 Ru0 2.690736 1_555
Pt0 Rh1 2.708186 1_445
Pt0 Rh3 2.708189 1_444
Pt0 Rh3 2.708189 1_554
Pt0 Rh1 2.708191 1_555
Pt0 Pt3 2.783119 1_445
Pt0 Pt3 2.783119 1_555
Pt0 Pt2 2.783119 1_565
Pt0 Pt2 2.783119 1_455
Pt0 Rh2 2.784950 1_455
Pt0 Rh0 2.784958 1_555
Pt0 Pt1 2.839773 1_455
Pt1 Ru0 2.690736 1_666
Pt1 Rh0 2.708186 1_665
Pt1 Rh2 2.708189 1_666
Pt1 Rh2 2.708189 1_556
Pt1 Rh0 2.708191 1_555
Pt1 Pt2 2.783119 1_665
Pt1 Pt2 2.783119 1_555
Pt1 Pt3 2.783119 1_545
Pt1 Pt3 2.783119 1_655
Pt1 Rh3 2.784950 1_655
Pt1 Rh1 2.784958 1_555
Pt2 Ru0 2.690736 1_656
Pt2 Rh0 2.708186 1_655
Pt2 Rh3 2.708189 1_655
Pt2 Rh3 2.708189 1_545
Pt2 Rh0 2.708192 1_545
Pt2 Rh2 2.784949 1_556
Pt2 Rh1 2.784958 1_545
Pt2 Pt3 2.839773 1_545
Pt3 Ru0 2.690736 1_565
Pt3 Rh1 2.708186 1_455
Pt3 Rh2 2.708189 1_455
Pt3 Rh2 2.708189 1_565
Pt3 Rh1 2.708192 1_565
Pt3 Rh3 2.784949 1_554
Pt3 Rh0 2.784958 1_565
Rh0 Rh3 2.654422 1_555
Rh0 Rh2 2.654422 1_556
Rh0 Ru0 2.690082 1_556
Rh0 Ru0 2.690087 1_666
Rh0 Rh1 2.820400 1_445
Rh0 Rh1 2.820410 1_555
Rh1 Rh2 2.654422 1_555
Rh1 Rh3 2.654422 1_554
Rh1 Ru0 2.690082 1_665
Rh1 Ru0 2.690087 1_555
Rh2 Ru0 2.690092 1_555
Rh2 Ru0 2.690092 1_665
Rh2 Rh3 2.820388 1_654
Rh2 Rh3 2.820388 1_544
Rh3 Ru0 2.690092 1_666
Rh3 Ru0 2.690092 1_556
