# generated using pymatgen
data_Lu8Al2RuPt
_symmetry_space_group_name_H-M   'P 1'
_cell_length_a   9.29137209
_cell_length_b   9.29137279
_cell_length_c   9.32323358
_cell_angle_alpha   59.88650221
_cell_angle_beta   59.88649971
_cell_angle_gamma   59.83023067
_symmetry_Int_Tables_number   1
_chemical_formula_structural   Lu8Al2RuPt
_chemical_formula_sum   'Lu16 Al4 Ru2 Pt2'
_cell_volume   567.42141578
_cell_formula_units_Z   2
loop_
 _symmetry_equiv_pos_site_id
 _symmetry_equiv_pos_as_xyz
  1  'x, y, z'
loop_
 _atom_site_type_symbol
 _atom_site_label
 _atom_site_symmetry_multiplicity
 _atom_site_fract_x
 _atom_site_fract_y
 _atom_site_fract_z
 _atom_site_occupancy
  Lu  Lu0  1  0.60219866  0.60219866  0.60830839  1
  Lu  Lu1  1  0.60219866  0.60219866  0.18729628  1
  Lu  Lu2  1  0.59972868  0.19532058  0.60247637  1
  Lu  Lu3  1  0.19532058  0.59972868  0.60247637  1
  Lu  Lu4  1  0.06011671  0.44275165  0.44581892  1
  Lu  Lu5  1  0.44275165  0.06011671  0.05131272  1
  Lu  Lu6  1  0.44275165  0.06011671  0.44581892  1
  Lu  Lu7  1  0.06011671  0.44275165  0.05131272  1
  Lu  Lu8  1  0.44183986  0.44183986  0.05816014  1
  Lu  Lu9  1  0.05431148  0.05431148  0.44568852  1
  Lu  Lu10  1  0.18704436  0.80892839  0.81519826  1
  Lu  Lu11  1  0.80892839  0.18704436  0.18882898  1
  Lu  Lu12  1  0.80892839  0.18704436  0.81519826  1
  Lu  Lu13  1  0.18704436  0.80892839  0.18882898  1
  Lu  Lu14  1  0.81220730  0.81220730  0.18779270  1
  Lu  Lu15  1  0.18829932  0.18829932  0.81170068  1
  Al  Al0  1  0.82874923  0.82874923  0.82790380  1
  Al  Al1  1  0.82874923  0.82874923  0.51459774  1
  Al  Al2  1  0.82927847  0.51400433  0.82835910  1
  Al  Al3  1  0.51400433  0.82927847  0.82835910  1
  Ru  Ru0  1  0.39320064  0.39320064  0.38975535  1
  Ru  Ru1  1  0.39320064  0.39320064  0.82384337  1
  Pt  Pt0  1  0.39538513  0.82364956  0.39048266  1
  Pt  Pt1  1  0.82364956  0.39538513  0.39048266  1
loop_
_geom_bond_atom_site_label_1
_geom_bond_atom_site_label_2
_geom_bond_distance
_geom_bond_site_symmetry_2
Lu0 Ru1 2.745711 1_555
Lu0 Pt1 2.792705 1_555
Lu0 Pt0 2.792705 1_555
Lu1 Ru0 2.745711 1_555
Lu1 Pt1 2.792692 1_555
Lu1 Pt0 2.792692 1_555
Lu2 Ru1 2.758544 1_555
Lu2 Ru0 2.758558 1_555
Lu2 Pt1 2.786561 1_555
Lu3 Ru1 2.758544 1_555
Lu3 Ru0 2.758558 1_555
Lu3 Pt0 2.786561 1_555
Lu4 Ru0 2.692424 1_555
Lu4 Pt1 2.761206 1_455
Lu5 Ru1 2.692424 1_554
Lu5 Pt0 2.761206 1_545
Lu6 Ru0 2.692424 1_555
Lu6 Pt0 2.761206 1_545
Lu7 Ru1 2.692424 1_554
Lu7 Pt1 2.761206 1_455
Lu8 Ru0 2.714314 1_555
Lu8 Ru1 2.714314 1_554
Lu9 Pt0 2.746719 1_545
Lu9 Pt1 2.746719 1_455
Lu10 Ru1 3.316859 1_555
Lu10 Pt0 3.387711 1_555
Lu10 Lu15 3.514477 1_565
Lu11 Ru0 3.316859 1_555
Lu11 Pt1 3.387711 1_555
Lu11 Lu15 3.514477 1_654
Lu12 Ru1 3.316859 1_555
Lu12 Pt1 3.387711 1_555
Lu12 Lu15 3.514477 1_655
Lu13 Ru0 3.316859 1_555
Lu13 Pt0 3.387711 1_555
Lu13 Lu15 3.514477 1_564
Lu14 Pt0 3.320445 1_555
Lu14 Pt1 3.320445 1_555
Lu15 Lu2 3.326143 1_555
Lu15 Lu3 3.326143 1_555
Lu15 Ru1 3.367116 1_555
Lu15 Ru0 3.367116 1_555
Lu15 Lu5 3.434857 1_556
Lu15 Lu6 3.434857 1_555
Lu15 Lu7 3.434857 1_556
Lu15 Lu4 3.434857 1_555
Al0 Al3 2.919818 1_555
Al0 Al2 2.919818 1_555
Al0 Al1 2.921026 1_555
Al0 Lu10 3.184415 1_655
Al0 Lu12 3.184416 1_565
Al0 Lu14 3.208469 1_556
Al0 Lu1 3.223036 1_556
Al0 Lu3 3.250493 1_655
Al0 Lu2 3.250494 1_565
Al0 Lu9 3.303037 1_665
Al0 Lu5 3.327183 1_566
Al0 Lu7 3.327183 1_656
Al1 Al3 2.919823 1_555
Al1 Al2 2.919823 1_555
Al1 Lu13 3.184415 1_655
Al1 Lu11 3.184416 1_565
Al1 Lu14 3.208469 1_555
Al1 Lu0 3.223029 1_555
Al1 Lu3 3.250502 1_655
Al1 Lu2 3.250502 1_565
Al1 Lu9 3.303037 1_665
Al1 Lu6 3.327183 1_565
Al1 Lu4 3.327183 1_655
Al2 Al3 2.921809 1_555
Al2 Lu15 3.180390 1_655
Al2 Lu0 3.201689 1_555
Al2 Lu1 3.201697 1_556
Al2 Lu11 3.202237 1_556
Al2 Lu12 3.202242 1_555
Al2 Lu3 3.238698 1_655
Al2 Lu7 3.320356 1_656
Al2 Lu4 3.320364 1_655
Al2 Lu8 3.353240 1_556
Al3 Lu15 3.180390 1_565
Al3 Lu0 3.201689 1_555
Al3 Lu1 3.201697 1_556
Al3 Lu13 3.202237 1_556
Al3 Lu10 3.202242 1_555
Al3 Lu2 3.238698 1_565
Al3 Lu5 3.320356 1_566
Al3 Lu6 3.320364 1_565
Al3 Lu8 3.353240 1_556
