# generated using pymatgen
data_Sr2Si4IrRu3
_symmetry_space_group_name_H-M   'P 1'
_cell_length_a   8.01772495
_cell_length_b   6.88927259
_cell_length_c   5.92739251
_cell_angle_alpha   77.04247287
_cell_angle_beta   56.86595042
_cell_angle_gamma   46.70223849
_symmetry_Int_Tables_number   1
_chemical_formula_structural   Sr2Si4IrRu3
_chemical_formula_sum   'Sr2 Si4 Ir1 Ru3'
_cell_volume   193.34991232
_cell_formula_units_Z   1
loop_
 _symmetry_equiv_pos_site_id
 _symmetry_equiv_pos_as_xyz
  1  'x, y, z'
loop_
 _atom_site_type_symbol
 _atom_site_label
 _atom_site_symmetry_multiplicity
 _atom_site_fract_x
 _atom_site_fract_y
 _atom_site_fract_z
 _atom_site_occupancy
  Sr  Sr0  1  0.00177707  0.00176525  0.99820176  1
  Sr  Sr1  1  0.24851069  0.24853613  0.25153775  1
  Si  Si0  1  0.32146161  0.67457151  0.31843915  1
  Si  Si1  1  0.57449878  0.92871854  0.57124010  1
  Si  Si2  1  0.67457705  0.32145700  0.68547403  1
  Si  Si3  1  0.92871538  0.57444796  0.92558304  1
  Ir  Ir0  1  0.62135073  0.62141952  0.37864267  1
  Ru  Ru0  1  0.37768646  0.37769483  0.62232474  1
  Ru  Ru1  1  0.87304069  0.87297234  0.62695610  1
  Ru  Ru2  1  0.62838654  0.62840993  0.87159966  1
loop_
_geom_bond_atom_site_label_1
_geom_bond_atom_site_label_2
_geom_bond_distance
_geom_bond_site_symmetry_2
Si0 Sr0 3.275553 1_564
Si0 Sr1 3.499167 1_555
Si0 Sr1 3.537400 1_565
Si0 Sr0 3.569870 1_565
Si0 Sr0 3.576271 1_654
Si1 Sr1 3.304612 1_565
Si1 Sr0 3.521905 1_664
Si1 Sr0 3.527221 1_565
Si1 Sr1 3.536978 1_566
Si1 Sr1 3.578744 1_655
Si2 Sr0 3.275584 1_655
Si2 Sr1 3.499666 1_556
Si2 Sr1 3.537365 1_655
Si2 Sr0 3.569877 1_654
Si2 Sr0 3.576232 1_565
Si3 Sr1 3.304906 1_656
Si3 Sr0 3.521963 1_665
Si3 Sr0 3.526823 1_655
Si3 Sr1 3.536404 1_655
Si3 Sr1 3.579002 1_566
Ir0 Si1 2.334653 1_555
Ir0 Si3 2.334672 1_554
Ir0 Si2 2.390344 1_555
Ir0 Si0 2.390499 1_555
Ir0 Sr1 3.384924 1_565
Ir0 Sr1 3.385380 1_655
Ir0 Sr0 3.398269 1_565
Ir0 Sr0 3.398708 1_654
Ru0 Si1 2.313493 1_545
Ru0 Si3 2.313663 1_455
Ru0 Si2 2.366543 1_555
Ru0 Si0 2.366806 1_555
Ru0 Sr1 3.365141 1_555
Ru0 Sr1 3.365606 1_556
Ru0 Sr0 3.422618 1_565
Ru0 Sr0 3.422988 1_654
Ru1 Si0 2.309084 1_655
Ru1 Si2 2.309260 1_565
Ru1 Si1 2.352115 1_555
Ru1 Si3 2.352480 1_555
Ru1 Sr0 3.362990 1_665
Ru1 Sr0 3.363054 1_664
Ru1 Sr1 3.424592 1_655
Ru1 Sr1 3.425468 1_566
Ru2 Si0 2.313233 1_556
Ru2 Si2 2.313354 1_555
Ru2 Si1 2.366373 1_555
Ru2 Si3 2.366430 1_555
Ru2 Sr0 3.382230 1_565
Ru2 Sr0 3.382233 1_655
Ru2 Sr1 3.401104 1_655
Ru2 Sr1 3.401366 1_566
