# generated using pymatgen
data_GaCu(RhS2)4
_symmetry_space_group_name_H-M   'P 1'
_cell_length_a   6.99724936
_cell_length_b   6.99725046
_cell_length_c   6.99724956
_cell_angle_alpha   60.00000884
_cell_angle_beta   60.00000363
_cell_angle_gamma   60.00000233
_symmetry_Int_Tables_number   1
_chemical_formula_structural   GaCu(RhS2)4
_chemical_formula_sum   'Ga1 Cu1 Rh4 S8'
_cell_volume   242.25189608
_cell_formula_units_Z   1
loop_
 _symmetry_equiv_pos_site_id
 _symmetry_equiv_pos_as_xyz
  1  'x, y, z'
loop_
 _atom_site_type_symbol
 _atom_site_label
 _atom_site_symmetry_multiplicity
 _atom_site_fract_x
 _atom_site_fract_y
 _atom_site_fract_z
 _atom_site_occupancy
  Ga  Ga0  1  0.75000000  0.75000000  0.75000000  1
  Cu  Cu0  1  0.50000000  0.50000000  0.50000000  1
  Rh  Rh0  1  0.12731110  0.12731110  0.61806770  1
  Rh  Rh1  1  0.12731110  0.61806770  0.12731110  1
  Rh  Rh2  1  0.61806770  0.12731110  0.12731110  1
  Rh  Rh3  1  0.12731110  0.12731110  0.12731110  1
  S  S0  1  0.88577337  0.34267988  0.88577337  1
  S  S1  1  0.36430662  0.36430662  0.90708213  1
  S  S2  1  0.36430662  0.36430662  0.36430662  1
  S  S3  1  0.90708213  0.36430662  0.36430662  1
  S  S4  1  0.88577337  0.88577337  0.88577337  1
  S  S5  1  0.34267988  0.88577337  0.88577337  1
  S  S6  1  0.36430662  0.90708213  0.36430662  1
  S  S7  1  0.88577337  0.88577337  0.34267988  1
loop_
_geom_bond_atom_site_label_1
_geom_bond_atom_site_label_2
_geom_bond_distance
_geom_bond_site_symmetry_2
Ga0 S5 2.327114 1_555
Ga0 S4 2.327114 1_555
Ga0 S7 2.327114 1_555
Ga0 S0 2.327114 1_555
Cu0 S2 2.325743 1_555
Cu0 S3 2.325754 1_555
Cu0 S1 2.325754 1_555
Cu0 S6 2.325754 1_555
Rh0 S6 2.348142 1_545
Rh0 S3 2.348142 1_455
Rh0 S2 2.348147 1_555
Rh0 S0 2.397161 1_455
Rh0 S5 2.397161 1_545
Rh0 S4 2.397166 1_445
Rh1 S1 2.348142 1_554
Rh1 S3 2.348142 1_455
Rh1 S2 2.348147 1_555
Rh1 S7 2.397161 1_455
Rh1 S5 2.397161 1_554
Rh1 S4 2.397165 1_454
Rh2 S1 2.348142 1_554
Rh2 S6 2.348142 1_545
Rh2 S2 2.348147 1_555
Rh2 S7 2.397161 1_545
Rh2 S0 2.397161 1_554
Rh2 S4 2.397165 1_544
Rh3 S6 2.348147 1_545
Rh3 S3 2.348147 1_455
Rh3 S1 2.348147 1_554
Rh3 S0 2.397166 1_454
Rh3 S5 2.397166 1_544
Rh3 S7 2.397166 1_445
