# generated using pymatgen
data_Sr2As3IO6
_symmetry_space_group_name_H-M   'P 1'
_cell_length_a   5.40514116
_cell_length_b   8.22376837
_cell_length_c   11.00226591
_cell_angle_alpha   72.81487586
_cell_angle_beta   90.00000000
_cell_angle_gamma   90.00000000
_symmetry_Int_Tables_number   1
_chemical_formula_structural   Sr2As3IO6
_chemical_formula_sum   'Sr4 As6 I2 O12'
_cell_volume   467.22371248
_cell_formula_units_Z   2
loop_
 _symmetry_equiv_pos_site_id
 _symmetry_equiv_pos_as_xyz
  1  'x, y, z'
loop_
 _atom_site_type_symbol
 _atom_site_label
 _atom_site_symmetry_multiplicity
 _atom_site_fract_x
 _atom_site_fract_y
 _atom_site_fract_z
 _atom_site_occupancy
  Sr  Sr0  1  0.25000000  0.14590763  0.39229458  1
  Sr  Sr1  1  0.75000000  0.85409237  0.60770542  1
  Sr  Sr2  1  0.25000000  0.09192275  0.76495426  1
  Sr  Sr3  1  0.75000000  0.90807725  0.23504574  1
  As  As0  1  0.25000000  0.70781921  0.43219145  1
  As  As1  1  0.75000000  0.29218079  0.56780855  1
  As  As2  1  0.25000000  0.58232597  0.17324063  1
  As  As3  1  0.75000000  0.41767403  0.82675937  1
  As  As4  1  0.25000000  0.62548360  0.81213388  1
  As  As5  1  0.75000000  0.37451640  0.18786612  1
  I  I0  1  0.75000000  0.82487865  0.94472904  1
  I  I1  1  0.25000000  0.17512135  0.05527096  1
  O  O0  1  0.99275648  0.54777164  0.73094657  1
  O  O1  1  0.49275648  0.45222836  0.26905343  1
  O  O2  1  0.00724352  0.45222836  0.26905343  1
  O  O3  1  0.50724352  0.54777164  0.73094657  1
  O  O4  1  0.01090590  0.85239676  0.42311908  1
  O  O5  1  0.51090590  0.14760324  0.57688092  1
  O  O6  1  0.98909410  0.14760324  0.57688092  1
  O  O7  1  0.48909410  0.85239676  0.42311908  1
  O  O8  1  0.75000000  0.25575397  0.75011864  1
  O  O9  1  0.25000000  0.74424603  0.24988136  1
  O  O10  1  0.25000000  0.82665802  0.70755018  1
  O  O11  1  0.75000000  0.17334198  0.29244982  1
loop_
_geom_bond_atom_site_label_1
_geom_bond_atom_site_label_2
_geom_bond_distance
_geom_bond_site_symmetry_2
As0 O7 1.738857 1_555
As0 O4 1.738857 1_555
As0 O9 1.938556 1_555
As1 O6 1.738857 1_555
As1 O5 1.738857 1_555
As1 O8 1.938556 1_555
As2 O9 1.774166 1_555
As2 O1 1.819657 1_555
As2 O2 1.819657 1_555
As3 O8 1.774166 1_555
As3 O0 1.819657 1_555
As3 O3 1.819657 1_555
As4 O10 1.713528 1_555
As4 O3 1.864662 1_555
As4 O0 1.864662 1_455
As5 O11 1.713528 1_555
As5 O2 1.864662 1_655
As5 O1 1.864662 1_555
I0 Sr3 3.458628 1_556
I0 Sr1 3.644275 1_555
I0 Sr2 3.670447 1_665
I0 Sr2 3.670447 1_565
I1 Sr2 3.458628 1_554
I1 Sr0 3.644275 1_555
I1 Sr3 3.670447 1_545
I1 Sr3 3.670447 1_445
O0 Sr1 2.808511 1_555
O1 Sr0 2.808511 1_555
O2 Sr0 2.808511 1_555
O3 Sr1 2.808511 1_555
O4 Sr3 2.433158 1_455
O4 Sr1 2.475906 1_455
O4 Sr0 2.669773 1_565
O5 Sr2 2.433158 1_555
O5 Sr0 2.475906 1_555
O5 Sr1 2.669773 1_545
O6 Sr2 2.433158 1_655
O6 Sr0 2.475906 1_655
O6 Sr1 2.669773 1_545
O7 Sr3 2.433158 1_555
O7 Sr1 2.475906 1_555
O7 Sr0 2.669773 1_565
O8 Sr2 3.002636 1_555
O8 Sr2 3.002636 1_655
O9 Sr3 3.002636 1_555
O9 Sr3 3.002636 1_455
O10 Sr2 2.443741 1_565
O10 Sr1 2.900875 1_555
O10 Sr1 2.900875 1_455
O11 Sr3 2.443741 1_545
O11 Sr0 2.900875 1_555
O11 Sr0 2.900875 1_655
