# generated using pymatgen
data_Pr2SmS4
_symmetry_space_group_name_H-M   'P 1'
_cell_length_a   7.43968723
_cell_length_b   7.43968723
_cell_length_c   7.43968723
_cell_angle_alpha   109.58923928
_cell_angle_beta   109.58923928
_cell_angle_gamma   109.23544030
_symmetry_Int_Tables_number   1
_chemical_formula_structural   Pr2SmS4
_chemical_formula_sum   'Pr4 Sm2 S8'
_cell_volume   316.98348061
_cell_formula_units_Z   2
loop_
 _symmetry_equiv_pos_site_id
 _symmetry_equiv_pos_as_xyz
  1  'x, y, z'
loop_
 _atom_site_type_symbol
 _atom_site_label
 _atom_site_symmetry_multiplicity
 _atom_site_fract_x
 _atom_site_fract_y
 _atom_site_fract_z
 _atom_site_occupancy
  Pr  Pr0  1  0.87500000  0.50077500  0.12577500  1
  Pr  Pr1  1  0.37500000  0.74922500  0.87422500  1
  Pr  Pr2  1  0.25077500  0.12500000  0.62577500  1
  Pr  Pr3  1  0.49922500  0.62500000  0.37422500  1
  Sm  Sm0  1  0.75000000  0.25000000  0.50000000  1
  Sm  Sm1  1  0.00000000  0.00000000  0.00000000  1
  S  S0  1  0.62922300  0.02617600  0.75134500  1
  S  S1  1  0.77617600  0.87922300  0.25134500  1
  S  S2  1  0.97382400  0.72516900  0.60304700  1
  S  S3  1  0.27483100  0.87787800  0.24865500  1
  S  S4  1  0.12077700  0.37212200  0.89695300  1
  S  S5  1  0.12212200  0.37077700  0.39695300  1
  S  S6  1  0.47516900  0.22382400  0.10304700  1
  S  S7  1  0.62787800  0.52483100  0.74865500  1
loop_
_geom_bond_atom_site_label_1
_geom_bond_atom_site_label_2
_geom_bond_distance
_geom_bond_site_symmetry_2
Pr0 S5 2.894565 1_655
Pr0 S7 2.894565 1_554
Pr0 S6 2.917708 1_555
Pr0 S3 2.917708 1_655
Pr0 S4 3.050480 1_654
Pr0 S0 3.050480 1_554
Pr0 S2 3.066154 1_555
Pr0 S1 3.066154 1_555
Pr1 S2 2.894565 1_455
Pr1 S1 2.894565 1_556
Pr1 S0 2.917708 1_565
Pr1 S4 2.917708 1_555
Pr1 S3 3.050480 1_556
Pr1 S6 3.050480 1_566
Pr1 S5 3.066154 1_555
Pr1 S7 3.066154 1_555
Pr2 S3 2.894565 1_545
Pr2 S4 2.894565 1_555
Pr2 S2 2.917708 1_445
Pr2 S7 2.917708 1_555
Pr2 S5 3.050480 1_555
Pr2 S1 3.050480 1_445
Pr2 S0 3.066154 1_555
Pr2 S6 3.066154 1_556
Pr3 S6 2.894565 1_555
Pr3 S0 2.894565 1_565
Pr3 S1 2.917708 1_555
Pr3 S5 2.917708 1_555
Pr3 S7 3.050480 1_555
Pr3 S2 3.050480 1_555
Pr3 S4 3.066154 1_554
Pr3 S3 3.066154 1_555
S0 Sm1 2.871062 1_656
S0 Sm0 3.050502 1_555
S1 Sm0 2.871062 1_565
S1 Sm1 3.050502 1_665
S2 Sm1 2.871062 1_666
S2 Sm0 3.050502 1_555
S3 Sm1 2.871062 1_565
S3 Sm0 3.050502 1_565
S4 Sm0 2.871062 1_455
S4 Sm1 3.050502 1_556
S5 Sm1 2.871062 1_555
S5 Sm0 3.050502 1_455
S6 Sm0 2.871062 1_555
S6 Sm1 3.050502 1_555
S7 Sm0 2.871062 1_555
S7 Sm1 3.050502 1_666
