# generated using pymatgen
data_Na4CuAg3Te4
_symmetry_space_group_name_H-M   'P 1'
_cell_length_a   4.55759470
_cell_length_b   7.74962565
_cell_length_c   8.25594360
_cell_angle_alpha   91.46236741
_cell_angle_beta   90.00000000
_cell_angle_gamma   90.00000000
_symmetry_Int_Tables_number   1
_chemical_formula_structural   Na4CuAg3Te4
_chemical_formula_sum   'Na4 Cu1 Ag3 Te4'
_cell_volume   291.50208932
_cell_formula_units_Z   1
loop_
 _symmetry_equiv_pos_site_id
 _symmetry_equiv_pos_as_xyz
  1  'x, y, z'
loop_
 _atom_site_type_symbol
 _atom_site_label
 _atom_site_symmetry_multiplicity
 _atom_site_fract_x
 _atom_site_fract_y
 _atom_site_fract_z
 _atom_site_occupancy
  Na  Na0  1  0.75000000  0.47507793  0.32265394  1
  Na  Na1  1  0.25000000  0.01501836  0.80571589  1
  Na  Na2  1  0.75000000  0.97559236  0.18782141  1
  Na  Na3  1  0.25000000  0.51160791  0.68827002  1
  Cu  Cu0  1  0.75000000  0.86981163  0.55790140  1
  Ag  Ag0  1  0.25000000  0.63629900  0.06564111  1
  Ag  Ag1  1  0.25000000  0.13890608  0.43002775  1
  Ag  Ag2  1  0.75000000  0.38661942  0.94214709  1
  Te  Te0  1  0.25000000  0.76385171  0.40021674  1
  Te  Te1  1  0.25000000  0.25962453  0.11133642  1
  Te  Te2  1  0.75000000  0.74585666  0.86900551  1
  Te  Te3  1  0.75000000  0.22173342  0.61926472  1
loop_
_geom_bond_atom_site_label_1
_geom_bond_atom_site_label_2
_geom_bond_distance
_geom_bond_site_symmetry_2
Na0 Te3 3.177526 1_555
Na0 Te0 3.246224 1_655
Na0 Te0 3.246224 1_555
Na0 Te1 3.297847 1_555
Na0 Te1 3.297847 1_655
Na1 Te1 3.116996 1_556
Na1 Te2 3.142063 1_545
Na1 Te2 3.142063 1_445
Na1 Te3 3.202282 1_555
Na1 Te3 3.202282 1_455
Na2 Te2 3.139842 1_554
Na2 Te1 3.241547 1_665
Na2 Te1 3.241547 1_565
Na2 Te0 3.332749 1_555
Na2 Te0 3.332749 1_655
Na3 Te0 3.116746 1_555
Na3 Te3 3.240148 1_455
Na3 Te3 3.240148 1_555
Na3 Te2 3.252170 1_455
Na3 Te2 3.252170 1_555
Cu0 Te0 2.739967 1_555
Cu0 Te0 2.739967 1_655
Cu0 Te3 2.761176 1_565
Cu0 Te2 2.765080 1_555
Cu0 Na2 3.183562 1_555
Cu0 Na1 3.244624 1_665
Cu0 Na1 3.244624 1_565
Cu0 Na0 3.581420 1_555
Ag0 Te0 2.909931 1_555
Ag0 Te2 2.935914 1_554
Ag0 Te2 2.935914 1_454
Ag0 Te1 2.952896 1_555
Ag0 Ag2 3.142556 1_554
Ag0 Ag2 3.142556 1_454
Ag0 Na3 3.238328 1_554
Ag0 Na0 3.375149 1_455
Ag0 Na0 3.375149 1_555
Ag0 Na2 3.603994 1_455
Ag0 Na2 3.603994 1_555
Ag0 Na1 3.679715 1_564
Ag1 Te1 2.814873 1_555
Ag1 Te3 2.827475 1_555
Ag1 Te3 2.827475 1_455
Ag1 Te0 2.910667 1_545
Ag1 Na2 3.265594 1_445
Ag1 Na2 3.265594 1_545
Ag1 Na1 3.270175 1_555
Ag1 Cu0 3.281561 1_445
Ag1 Cu0 3.281561 1_545
Ag1 Na3 3.545918 1_555
Ag1 Na0 3.589390 1_555
Ag1 Na0 3.589390 1_455
Ag2 Te1 2.860552 1_556
Ag2 Te1 2.860552 1_656
Ag2 Te2 2.863711 1_555
Ag2 Te3 2.926581 1_555
Ag2 Na0 3.198232 1_556
Ag2 Na3 3.260053 1_655
Ag2 Na3 3.260053 1_555
