# generated using pymatgen
data_Ba2Pd4Se7S
_symmetry_space_group_name_H-M   'P 1'
_cell_length_a   7.07319100
_cell_length_b   6.97308486
_cell_length_c   7.63262438
_cell_angle_alpha   70.15497177
_cell_angle_beta   89.91788733
_cell_angle_gamma   89.99839897
_symmetry_Int_Tables_number   1
_chemical_formula_structural   Ba2Pd4Se7S
_chemical_formula_sum   'Ba2 Pd4 Se7 S1'
_cell_volume   354.09948155
_cell_formula_units_Z   1
loop_
 _symmetry_equiv_pos_site_id
 _symmetry_equiv_pos_as_xyz
  1  'x, y, z'
loop_
 _atom_site_type_symbol
 _atom_site_label
 _atom_site_symmetry_multiplicity
 _atom_site_fract_x
 _atom_site_fract_y
 _atom_site_fract_z
 _atom_site_occupancy
  Ba  Ba0  1  0.24793267  0.28931022  0.50375285  1
  Ba  Ba1  1  0.76105954  0.71698671  0.48346639  1
  Pd  Pd0  1  0.99907581  0.98849289  0.00182435  1
  Pd  Pd1  1  0.49855485  0.00331085  0.99998257  1
  Pd  Pd2  1  0.24482052  0.51878736  0.99359709  1
  Pd  Pd3  1  0.75409009  0.48613682  0.01575749  1
  Se  Se0  1  0.25237107  0.78597641  0.51161136  1
  Se  Se1  1  0.75099183  0.21324046  0.48814855  1
  Se  Se2  1  0.74622624  0.95581183  0.79297251  1
  Se  Se3  1  0.24608481  0.03945392  0.20642445  1
  Se  Se4  1  0.00284274  0.36256358  0.85459594  1
  Se  Se5  1  0.50261198  0.63317124  0.15113362  1
  Se  Se6  1  0.49713754  0.37548384  0.85543954  1
  S  S0  1  0.99620132  0.63127288  0.14129331  1
loop_
_geom_bond_atom_site_label_1
_geom_bond_atom_site_label_2
_geom_bond_distance
_geom_bond_site_symmetry_2
Ba0 Se3 3.297034 1_555
Ba0 Se4 3.369337 1_555
Ba0 Se6 3.432533 1_555
Ba0 Se5 3.441339 1_555
Ba0 S0 3.470573 1_455
Ba0 Se0 3.484258 1_555
Ba0 Se0 3.490024 1_545
Ba0 Se1 3.562959 1_455
Ba0 Se1 3.605295 1_555
Ba1 S0 3.315368 1_555
Ba1 Se2 3.321962 1_555
Ba1 Se5 3.337281 1_555
Ba1 Se1 3.473441 1_565
Ba1 Se1 3.501420 1_555
Ba1 Se4 3.509591 1_655
Ba1 Se0 3.525135 1_655
Ba1 Se6 3.551188 1_555
Ba1 Se0 3.645737 1_555
Pd0 S0 2.353279 1_555
Pd0 Se3 2.449922 1_665
Pd0 Se2 2.458954 1_554
Pd0 Se4 2.465190 1_664
Pd1 Se5 2.443733 1_546
Pd1 Se3 2.448844 1_556
Pd1 Se6 2.451198 1_555
Pd1 Se2 2.454067 1_545
Pd2 S0 2.360739 1_456
Pd2 Se6 2.450625 1_555
Pd2 Se4 2.455961 1_555
Pd2 Se5 2.462585 1_556
Pd2 Se3 3.181876 1_556
Pd3 S0 2.353330 1_555
Pd3 Se5 2.448824 1_555
Pd3 Se6 2.458327 1_554
Pd3 Se4 2.462668 1_654
Pd3 Se2 3.136856 1_554
Se0 Se3 2.399373 1_565
Se1 Se2 2.408463 1_545
