# generated using pymatgen
data_MgSc3(ZnNi3)2
_symmetry_space_group_name_H-M   'P 1'
_cell_length_a   4.98274392
_cell_length_b   4.98274464
_cell_length_c   7.76641948
_cell_angle_alpha   90.00000000
_cell_angle_beta   90.00000000
_cell_angle_gamma   120.00000165
_symmetry_Int_Tables_number   1
_chemical_formula_structural   MgSc3(ZnNi3)2
_chemical_formula_sum   'Mg1 Sc3 Zn2 Ni6'
_cell_volume   166.98930865
_cell_formula_units_Z   1
loop_
 _symmetry_equiv_pos_site_id
 _symmetry_equiv_pos_as_xyz
  1  'x, y, z'
loop_
 _atom_site_type_symbol
 _atom_site_label
 _atom_site_symmetry_multiplicity
 _atom_site_fract_x
 _atom_site_fract_y
 _atom_site_fract_z
 _atom_site_occupancy
  Mg  Mg0  1  0.33333300  0.66666700  0.55469300  1
  Sc  Sc0  1  0.66666700  0.33333300  0.06612241  1
  Sc  Sc1  1  0.66666700  0.33333300  0.44572115  1
  Sc  Sc2  1  0.33333300  0.66666700  0.92538471  1
  Zn  Zn0  1  0.00000000  0.00000000  0.00506079  1
  Zn  Zn1  1  0.00000000  0.00000000  0.49896366  1
  Ni  Ni0  1  0.17220971  0.34441941  0.24845050  1
  Ni  Ni1  1  0.83085052  0.16914948  0.75290126  1
  Ni  Ni2  1  0.33829897  0.16914948  0.75290126  1
  Ni  Ni3  1  0.65558059  0.82779029  0.24845050  1
  Ni  Ni4  1  0.17220971  0.82779029  0.24845050  1
  Ni  Ni5  1  0.83085052  0.66170103  0.75290126  1
loop_
_geom_bond_atom_site_label_1
_geom_bond_atom_site_label_2
_geom_bond_distance
_geom_bond_site_symmetry_2
Mg0 Ni4 2.755079 1_555
Mg0 Ni3 2.755081 1_555
Mg0 Ni0 2.755081 1_555
Mg0 Sc2 2.878947 1_555
Mg0 Zn1 2.909163 1_565
Mg0 Zn1 2.909167 1_665
Mg0 Zn1 2.909167 1_555
Mg0 Ni5 2.928658 1_455
Mg0 Ni2 2.928658 1_565
Mg0 Ni1 2.928660 1_455
Mg0 Ni1 2.928660 1_565
Mg0 Ni5 2.928662 1_555
Mg0 Ni2 2.928662 1_555
Mg0 Sc1 2.998692 1_455
Mg0 Sc1 2.998693 1_565
Mg0 Sc1 2.998701 1_555
Sc0 Zn0 2.915612 1_655
Sc0 Zn0 2.915616 1_555
Sc0 Zn0 2.915616 1_665
Sc0 Sc1 2.948123 1_555
Sc0 Sc2 3.077435 1_654
Sc0 Sc2 3.077435 1_544
Sc0 Sc2 3.077443 1_554
Sc1 Zn1 2.906352 1_655
Sc1 Zn1 2.906356 1_555
Sc1 Zn1 2.906356 1_665
Sc2 Zn0 2.942585 1_566
Sc2 Zn0 2.942589 1_666
Sc2 Zn0 2.942590 1_556
Ni0 Zn0 2.404578 1_555
Ni0 Ni3 2.408513 1_555
Ni0 Ni4 2.408514 1_555
Ni0 Zn1 2.448308 1_555
Ni0 Ni3 2.574231 1_445
Ni0 Ni4 2.574231 1_545
Ni0 Sc0 2.866072 1_455
Ni0 Sc0 2.866077 1_555
Ni0 Sc2 2.868633 1_554
Ni0 Sc1 2.925150 1_455
Ni0 Sc1 2.925154 1_555
Ni1 Zn0 2.442605 1_656
Ni1 Zn1 2.453691 1_655
Ni1 Ni2 2.454258 1_555
Ni1 Ni5 2.454259 1_555
Ni1 Ni2 2.528486 1_655
Ni1 Ni5 2.528486 1_545
Ni1 Sc1 2.774761 1_555
Ni1 Sc0 2.815202 1_556
Ni1 Sc2 2.828757 1_655
Ni1 Sc2 2.828757 1_545
Ni2 Zn0 2.442605 1_556
Ni2 Zn1 2.453690 1_555
Ni2 Ni5 2.454258 1_555
Ni2 Ni5 2.528486 1_445
Ni2 Sc1 2.774764 1_555
Ni2 Sc0 2.815204 1_556
Ni2 Sc2 2.828755 1_545
Ni2 Sc2 2.828759 1_555
Ni3 Zn0 2.404578 1_665
Ni3 Ni4 2.408513 1_555
Ni3 Zn1 2.448307 1_665
Ni3 Ni4 2.574231 1_655
Ni3 Sc0 2.866072 1_565
Ni3 Sc0 2.866077 1_555
Ni3 Sc2 2.868633 1_554
Ni3 Sc1 2.925150 1_565
Ni3 Sc1 2.925154 1_555
Ni4 Zn0 2.404578 1_565
Ni4 Zn1 2.448308 1_565
Ni4 Sc0 2.866074 1_455
Ni4 Sc0 2.866074 1_565
Ni4 Sc2 2.868631 1_554
Ni4 Sc1 2.925152 1_455
Ni4 Sc1 2.925152 1_565
Ni5 Zn0 2.442605 1_666
Ni5 Zn1 2.453691 1_665
Ni5 Sc1 2.774764 1_555
Ni5 Sc0 2.815204 1_556
Ni5 Sc2 2.828755 1_655
Ni5 Sc2 2.828759 1_555
