# generated using pymatgen
data_CsMn3CoO8
_symmetry_space_group_name_H-M   'P 1'
_cell_length_a   5.66530180
_cell_length_b   5.66530539
_cell_length_c   7.79179695
_cell_angle_alpha   70.91361561
_cell_angle_beta   70.91350902
_cell_angle_gamma   60.05580397
_symmetry_Int_Tables_number   1
_chemical_formula_structural   CsMn3CoO8
_chemical_formula_sum   'Cs1 Mn3 Co1 O8'
_cell_volume   200.64962806
_cell_formula_units_Z   1
loop_
 _symmetry_equiv_pos_site_id
 _symmetry_equiv_pos_as_xyz
  1  'x, y, z'
loop_
 _atom_site_type_symbol
 _atom_site_label
 _atom_site_symmetry_multiplicity
 _atom_site_fract_x
 _atom_site_fract_y
 _atom_site_fract_z
 _atom_site_occupancy
  Cs  Cs0  1  0.50000000  0.50000000  0.50000000  1
  Mn  Mn0  1  0.00000000  0.00000000  0.00000000  1
  Mn  Mn1  1  0.00000000  0.50000000  0.00000000  1
  Mn  Mn2  1  0.50000000  0.00000000  0.00000000  1
  Co  Co0  1  0.50000000  0.50000000  0.00000000  1
  O  O0  1  0.70833674  0.70834174  0.86552325  1
  O  O1  1  0.70842269  0.20437665  0.86576759  1
  O  O2  1  0.20436965  0.70842970  0.86576259  1
  O  O3  1  0.20806154  0.20805854  0.86269872  1
  O  O4  1  0.79193846  0.79194146  0.13730128  1
  O  O5  1  0.79563035  0.29157030  0.13423741  1
  O  O6  1  0.29157731  0.79562335  0.13423241  1
  O  O7  1  0.29166326  0.29165826  0.13447675  1
loop_
_geom_bond_atom_site_label_1
_geom_bond_atom_site_label_2
_geom_bond_distance
_geom_bond_site_symmetry_2
Cs0 O2 3.070259 1_555
Cs0 O5 3.070259 1_555
Cs0 O1 3.070279 1_555
Cs0 O6 3.070279 1_555
Cs0 O3 3.174094 1_555
Cs0 O4 3.174094 1_555
Mn0 O5 1.895188 1_455
Mn0 O2 1.895188 1_544
Mn0 O6 1.895195 1_545
Mn0 O1 1.895195 1_454
Mn0 O3 1.913361 1_554
Mn0 O4 1.913361 1_445
Mn1 O2 1.895791 1_554
Mn1 O5 1.895791 1_455
Mn1 O7 1.896792 1_555
Mn1 O0 1.896792 1_454
Mn1 O4 1.911977 1_455
Mn1 O3 1.911977 1_554
Mn2 O1 1.895785 1_554
Mn2 O6 1.895785 1_545
Mn2 O7 1.896769 1_555
Mn2 O0 1.896769 1_544
Mn2 O4 1.911966 1_545
Mn2 O3 1.911966 1_554
Co0 O6 1.912275 1_555
Co0 O1 1.912275 1_554
Co0 O5 1.912331 1_555
Co0 O2 1.912331 1_554
Co0 O0 1.912406 1_554
Co0 O7 1.912406 1_555
