# generated using pymatgen
data_Mg3Al14O24
_symmetry_space_group_name_H-M   'P 1'
_cell_length_a   9.80858368
_cell_length_b   9.80858368
_cell_length_c   8.10599317
_cell_angle_alpha   66.50865455
_cell_angle_beta   66.50865455
_cell_angle_gamma   34.01790589
_symmetry_Int_Tables_number   1
_chemical_formula_structural   Mg3Al14O24
_chemical_formula_sum   'Mg3 Al14 O24'
_cell_volume   396.58392137
_cell_formula_units_Z   1
loop_
 _symmetry_equiv_pos_site_id
 _symmetry_equiv_pos_as_xyz
  1  'x, y, z'
loop_
 _atom_site_type_symbol
 _atom_site_label
 _atom_site_symmetry_multiplicity
 _atom_site_fract_x
 _atom_site_fract_y
 _atom_site_fract_z
 _atom_site_occupancy
  Mg  Mg0  1  0.41981500  0.41981500  0.45650000  1
  Mg  Mg1  1  0.08573700  0.08573700  0.79425300  1
  Mg  Mg2  1  0.91338500  0.91338500  0.21116400  1
  Al  Al0  1  0.32950100  0.32950100  0.16463700  1
  Al  Al1  1  0.83286200  0.83286200  0.66641600  1
  Al  Al2  1  0.00480100  0.00480100  0.50083800  1
  Al  Al3  1  0.66905700  0.16515200  0.83095700  1
  Al  Al4  1  0.50112400  0.50112400  0.00391600  1
  Al  Al5  1  0.66513100  0.66513100  0.83777100  1
  Al  Al6  1  0.75293700  0.75293700  0.12631300  1
  Al  Al7  1  0.33200100  0.84105500  0.17373500  1
  Al  Al8  1  0.16515200  0.66905700  0.83095700  1
  Al  Al9  1  0.84105500  0.33200100  0.17373500  1
  Al  Al10  1  0.00488300  0.48888800  0.48804200  1
  Al  Al11  1  0.58096400  0.58096400  0.53917700  1
  Al  Al12  1  0.48888800  0.00488300  0.48804200  1
  Al  Al13  1  0.24638600  0.24638600  0.87233000  1
  O  O0  1  0.32659200  0.32659200  0.40293000  1
  O  O1  1  0.13520100  0.69221600  0.60349600  1
  O  O2  1  0.97821800  0.51985600  0.74959900  1
  O  O3  1  0.81965200  0.81965200  0.45109800  1
  O  O4  1  0.99056900  0.99056900  0.74933400  1
  O  O5  1  0.83736200  0.83736200  0.90673200  1
  O  O6  1  0.51985600  0.97821800  0.74959900  1
  O  O7  1  0.69221600  0.13520100  0.60349600  1
  O  O8  1  0.63833900  0.19823100  0.06011900  1
  O  O9  1  0.80323200  0.36531400  0.93252200  1
  O  O10  1  0.33636300  0.33636300  0.91253600  1
  O  O11  1  0.49482000  0.49482000  0.75860000  1
  O  O12  1  0.51115400  0.51115400  0.22395300  1
  O  O13  1  0.66508300  0.66508300  0.08511000  1
  O  O14  1  0.19823100  0.63833900  0.06011900  1
  O  O15  1  0.36531400  0.80323200  0.93252200  1
  O  O16  1  0.32677700  0.82271900  0.41736400  1
  O  O17  1  0.51337000  0.00723800  0.24619800  1
  O  O18  1  0.00981500  0.00981500  0.25846800  1
  O  O19  1  0.15990000  0.15990000  0.07476200  1
  O  O20  1  0.18023700  0.18023700  0.57813700  1
  O  O21  1  0.82271900  0.32677700  0.41736400  1
  O  O22  1  0.00723800  0.51337000  0.24619800  1
  O  O23  1  0.66864600  0.66864600  0.58743500  1
loop_
_geom_bond_atom_site_label_1
_geom_bond_atom_site_label_2
_geom_bond_distance
_geom_bond_site_symmetry_2
Mg0 O12 1.948456 1_555
Mg0 O7 1.968083 1_555
Mg0 O1 1.968083 1_555
Mg0 O0 1.969742 1_555
Mg1 O20 1.903277 1_555
Mg1 O15 1.957605 1_545
Mg1 O9 1.957605 1_455
Mg1 O4 1.965116 1_445
Mg2 O8 1.998598 1_565
Mg2 O14 1.998598 1_655
Mg2 O18 1.999391 1_665
Mg2 O3 2.005835 1_555
Al0 O22 1.874971 1_555
Al0 O17 1.874971 1_555
Al0 O0 1.909499 1_555
Al0 O14 1.977347 1_555
Al0 O8 1.977347 1_555
Al0 O10 1.993308 1_554
Al1 O3 1.862336 1_555
Al1 O1 1.879056 1_655
Al1 O7 1.879056 1_565
Al1 O6 1.942419 1_555
Al1 O2 1.942419 1_555
Al1 O5 1.984672 1_555
Al2 O16 1.879100 1_545
Al2 O21 1.879100 1_455
Al2 O4 1.918429 1_445
Al2 O18 1.927339 1_555
Al2 O7 2.010600 1_455
Al2 O1 2.010600 1_545
Al3 O8 1.875877 1_556
Al3 O7 1.877443 1_555
Al3 O4 1.898132 1_545
Al3 O11 1.961354 1_555
Al3 O5 1.968516 1_545
Al3 O10 1.996690 1_555
Al4 O12 1.869887 1_555
Al4 O15 1.895806 1_554
Al4 O9 1.895806 1_554
Al4 O14 1.904410 1_555
Al4 O8 1.904410 1_555
Al4 O11 2.040658 1_554
Al5 O15 1.870336 1_555
Al5 O9 1.870336 1_555
Al5 O6 1.944228 1_555
Al5 O2 1.944228 1_555
Al5 O23 2.002633 1_555
Al5 O13 2.004553 1_556
Al6 O17 1.755951 1_565
Al6 O22 1.755951 1_655
Al6 O13 1.812884 1_555
Al6 O5 1.823798 1_554
Al7 O16 1.893799 1_555
Al7 O19 1.897827 1_565
Al7 O18 1.924287 1_565
Al7 O12 1.954078 1_555
Al7 O15 1.983806 1_554
Al7 O13 1.984537 1_555
Al8 O14 1.875877 1_556
Al8 O1 1.877443 1_555
Al8 O4 1.898132 1_455
Al8 O11 1.961354 1_555
Al8 O5 1.968516 1_455
Al8 O10 1.996690 1_555
Al9 O21 1.893799 1_555
Al9 O19 1.897827 1_655
Al9 O18 1.924287 1_655
Al9 O12 1.954078 1_555
Al9 O9 1.983806 1_554
Al9 O13 1.984537 1_555
Al10 O20 1.806606 1_555
Al10 O22 1.870591 1_555
Al10 O0 1.944271 1_555
Al10 O3 1.950407 1_455
Al10 O23 2.002329 1_455
Al10 O2 2.143705 1_455
Al11 O21 1.763351 1_555
Al11 O16 1.763351 1_555
Al11 O11 1.838134 1_555
Al11 O23 1.842530 1_555
Al12 O20 1.806606 1_555
Al12 O17 1.870591 1_555
Al12 O0 1.944271 1_555
Al12 O3 1.950407 1_545
Al12 O23 2.002329 1_545
Al12 O6 2.143705 1_545
Al13 O19 1.762191 1_556
Al13 O6 1.834700 1_545
Al13 O2 1.834700 1_455
Al13 O10 1.847644 1_555
