# generated using pymatgen
data_Hf3Re3Ge2As
_symmetry_space_group_name_H-M   'P 1'
_cell_length_a   6.99573650
_cell_length_b   6.99573682
_cell_length_c   3.46033074
_cell_angle_alpha   90.00000000
_cell_angle_beta   90.00000000
_cell_angle_gamma   120.00000310
_symmetry_Int_Tables_number   1
_chemical_formula_structural   Hf3Re3Ge2As
_chemical_formula_sum   'Hf3 Re3 Ge2 As1'
_cell_volume   146.66116660
_cell_formula_units_Z   1
loop_
 _symmetry_equiv_pos_site_id
 _symmetry_equiv_pos_as_xyz
  1  'x, y, z'
loop_
 _atom_site_type_symbol
 _atom_site_label
 _atom_site_symmetry_multiplicity
 _atom_site_fract_x
 _atom_site_fract_y
 _atom_site_fract_z
 _atom_site_occupancy
  Hf  Hf0  1  0.40042642  0.40342258  0.50000000  1
  Hf  Hf1  1  0.59657742  0.99700284  0.50000000  1
  Hf  Hf2  1  0.00299716  0.59957358  0.50000000  1
  Re  Re0  1  0.74316653  0.74332638  0.00000000  1
  Re  Re1  1  0.25667362  0.99983915  0.00000000  1
  Re  Re2  1  0.00016085  0.25683347  0.00000000  1
  Ge  Ge0  1  0.33333300  0.66666700  0.00000000  1
  Ge  Ge1  1  0.00000000  0.00000000  0.50000000  1
  As  As0  1  0.66666700  0.33333300  0.00000000  1
loop_
_geom_bond_atom_site_label_1
_geom_bond_atom_site_label_2
_geom_bond_distance
_geom_bond_site_symmetry_2
Hf0 Re0 2.948788 1_556
Hf0 Re0 2.948788 1_555
Hf0 Re2 3.002402 1_556
Hf0 Re2 3.002402 1_555
Hf0 Re1 3.022725 1_546
Hf0 Re1 3.022725 1_545
Hf1 Re1 2.948788 1_555
Hf1 Re1 2.948788 1_556
Hf1 Re0 3.002403 1_556
Hf1 Re0 3.002403 1_555
Hf1 Re2 3.022724 1_665
Hf1 Re2 3.022724 1_666
Hf2 Re2 2.948788 1_556
Hf2 Re2 2.948788 1_555
Hf2 Re1 3.002403 1_555
Hf2 Re1 3.002403 1_556
Hf2 Re0 3.022725 1_455
Hf2 Re0 3.022725 1_456
Ge0 Re1 2.640102 1_555
Ge0 Re2 2.640111 1_555
Ge0 Re0 2.640115 1_555
Ge0 Hf2 2.733048 1_555
Ge0 Hf2 2.733048 1_554
Ge0 Hf1 2.733052 1_555
Ge0 Hf1 2.733052 1_554
Ge0 Hf0 2.733059 1_555
Ge0 Hf0 2.733059 1_554
Ge1 Re2 2.493937 1_556
Ge1 Re2 2.493937 1_555
Ge1 Re0 2.493940 1_445
Ge1 Re0 2.493940 1_446
Ge1 Re1 2.493942 1_546
Ge1 Re1 2.493942 1_545
Ge1 Hf1 2.811813 1_445
Ge1 Hf0 2.811816 1_555
Ge1 Hf2 2.811820 1_545
As0 Re1 2.641596 1_545
As0 Re2 2.641597 1_655
As0 Re0 2.641597 1_555
As0 Hf2 2.759754 1_655
As0 Hf2 2.759754 1_654
As0 Hf0 2.759754 1_555
As0 Hf0 2.759754 1_554
As0 Hf1 2.759754 1_544
As0 Hf1 2.759754 1_545
