# generated using pymatgen
data_Ba2In4IrPt
_symmetry_space_group_name_H-M   'P 1'
_cell_length_a   6.30310510
_cell_length_b   6.30310509
_cell_length_c   8.13138521
_cell_angle_alpha   90.00000000
_cell_angle_beta   90.00000000
_cell_angle_gamma   138.11566987
_symmetry_Int_Tables_number   1
_chemical_formula_structural   Ba2In4IrPt
_chemical_formula_sum   'Ba2 In4 Ir1 Pt1'
_cell_volume   215.67946879
_cell_formula_units_Z   1
loop_
 _symmetry_equiv_pos_site_id
 _symmetry_equiv_pos_as_xyz
  1  'x, y, z'
loop_
 _atom_site_type_symbol
 _atom_site_label
 _atom_site_symmetry_multiplicity
 _atom_site_fract_x
 _atom_site_fract_y
 _atom_site_fract_z
 _atom_site_occupancy
  Ba  Ba0  1  0.05092048  0.94907952  0.25000000  1
  Ba  Ba1  1  0.94845559  0.05154441  0.75000000  1
  In  In0  1  0.66737798  0.33262202  0.55361731  1
  In  In1  1  0.33167509  0.66832491  0.43962243  1
  In  In2  1  0.66737798  0.33262202  0.94638269  1
  In  In3  1  0.33167509  0.66832491  0.06037757  1
  Ir  Ir0  1  0.77976123  0.22023877  0.25000000  1
  Pt  Pt0  1  0.22275656  0.77724344  0.75000000  1
loop_
_geom_bond_atom_site_label_1
_geom_bond_atom_site_label_2
_geom_bond_distance
_geom_bond_site_symmetry_2
Ba0 Ir0 3.192484 1_465
Ba0 Ir0 3.512049 1_455
Ba0 Ir0 3.512049 1_565
Ba0 In0 3.612557 1_455
Ba0 In2 3.612557 1_454
Ba0 In0 3.612557 1_565
Ba0 In2 3.612557 1_564
Ba0 In3 3.647391 1_555
Ba0 In1 3.647391 1_555
Ba0 In1 3.757119 1_565
Ba0 In3 3.757119 1_565
Ba0 In3 3.757119 1_455
Ba0 In1 3.757119 1_455
Ba1 Pt0 3.229473 1_645
Ba1 Pt0 3.483754 1_655
Ba1 Pt0 3.483754 1_545
Ba1 In1 3.651775 1_655
Ba1 In3 3.651775 1_656
Ba1 In3 3.651775 1_546
Ba1 In1 3.651775 1_545
Ba1 In2 3.674392 1_555
Ba1 In0 3.674392 1_555
Ba1 In2 3.777415 1_545
Ba1 In0 3.777415 1_545
Ba1 In2 3.777415 1_655
Ba1 In0 3.777415 1_655
In0 Ir0 2.801039 1_555
In0 Pt0 2.837356 1_545
In0 Pt0 2.837356 1_655
In0 In1 3.110694 1_545
In0 In1 3.110694 1_655
In1 Ir0 2.797592 1_565
In1 Ir0 2.797592 1_455
In1 Pt0 2.830898 1_555
In1 In3 3.083786 1_555
In2 Ir0 2.801039 1_556
In2 Pt0 2.837356 1_545
In2 Pt0 2.837356 1_655
In2 In3 3.110694 1_546
In2 In3 3.110694 1_656
In3 Ir0 2.797592 1_565
In3 Ir0 2.797592 1_455
In3 Pt0 2.830898 1_554
