# generated using pymatgen
data_LuCu3NiAg
_symmetry_space_group_name_H-M   'P 1'
_cell_length_a   4.91579961
_cell_length_b   4.91579921
_cell_length_c   4.93115941
_cell_angle_alpha   60.10297826
_cell_angle_beta   60.10298164
_cell_angle_gamma   59.99999225
_symmetry_Int_Tables_number   1
_chemical_formula_structural   LuCu3NiAg
_chemical_formula_sum   'Lu1 Cu3 Ni1 Ag1'
_cell_volume   84.39108526
_cell_formula_units_Z   1
loop_
 _symmetry_equiv_pos_site_id
 _symmetry_equiv_pos_as_xyz
  1  'x, y, z'
loop_
 _atom_site_type_symbol
 _atom_site_label
 _atom_site_symmetry_multiplicity
 _atom_site_fract_x
 _atom_site_fract_y
 _atom_site_fract_z
 _atom_site_occupancy
  Lu  Lu0  1  0.99802340  0.99802340  0.00592980  1
  Cu  Cu0  1  0.62498860  0.12698585  0.62303695  1
  Cu  Cu1  1  0.12698585  0.62498860  0.62303695  1
  Cu  Cu2  1  0.62498860  0.62498860  0.62303695  1
  Ni  Ni0  1  0.62526247  0.62526247  0.12421159  1
  Ag  Ag0  1  0.24975108  0.24975108  0.25074775  1
loop_
_geom_bond_atom_site_label_1
_geom_bond_atom_site_label_2
_geom_bond_distance
_geom_bond_site_symmetry_2
Lu0 Ni0 2.877937 1_565
Lu0 Ni0 2.877938 1_655
Lu0 Ni0 2.877942 1_555
Cu0 Cu1 2.448081 1_555
Cu0 Cu2 2.448082 1_555
Cu0 Ni0 2.458443 1_555
Cu0 Cu1 2.467717 1_645
Cu0 Cu2 2.467718 1_545
Cu0 Ni0 2.472717 1_546
Cu0 Lu0 2.867495 1_545
Cu0 Lu0 2.902641 1_446
Cu0 Lu0 2.902641 1_546
Cu1 Cu2 2.448082 1_555
Cu1 Ni0 2.458443 1_555
Cu1 Cu2 2.467718 1_455
Cu1 Ni0 2.472717 1_456
Cu1 Lu0 2.867495 1_455
Cu1 Lu0 2.902640 1_446
Cu1 Lu0 2.902641 1_456
Cu2 Ni0 2.458446 1_555
Cu2 Ni0 2.472715 1_556
Cu2 Lu0 2.867495 1_555
Cu2 Lu0 2.902640 1_546
Cu2 Lu0 2.902641 1_456
Ag0 Cu1 2.880121 1_555
Ag0 Cu0 2.880121 1_555
Ag0 Cu2 2.880122 1_545
Ag0 Cu2 2.880123 1_455
Ag0 Cu1 2.880125 1_545
Ag0 Cu0 2.880125 1_455
Ag0 Ni0 2.883637 1_555
Ag0 Ni0 2.883645 1_545
Ag0 Ni0 2.883645 1_455
Ag0 Cu2 2.899135 1_554
Ag0 Cu1 2.899137 1_554
Ag0 Cu0 2.899137 1_554
Ag0 Lu0 3.004938 1_455
Ag0 Lu0 3.004938 1_545
Ag0 Lu0 3.004943 1_445
Ag0 Lu0 3.045295 1_446
