# generated using pymatgen
data_ZrZn4Ru
_symmetry_space_group_name_H-M   'P 1'
_cell_length_a   4.96679725
_cell_length_b   4.96679768
_cell_length_c   4.96679750
_cell_angle_alpha   60.00000765
_cell_angle_beta   60.00000479
_cell_angle_gamma   60.00000233
_symmetry_Int_Tables_number   1
_chemical_formula_structural   ZrZn4Ru
_chemical_formula_sum   'Zr1 Zn4 Ru1'
_cell_volume   86.63919440
_cell_formula_units_Z   1
loop_
 _symmetry_equiv_pos_site_id
 _symmetry_equiv_pos_as_xyz
  1  'x, y, z'
loop_
 _atom_site_type_symbol
 _atom_site_label
 _atom_site_symmetry_multiplicity
 _atom_site_fract_x
 _atom_site_fract_y
 _atom_site_fract_z
 _atom_site_occupancy
  Zr  Zr0  1  0.00000000  0.00000000  0.00000000  1
  Zn  Zn0  1  0.62434585  0.62434585  0.12696044  1
  Zn  Zn1  1  0.62434585  0.12696044  0.62434585  1
  Zn  Zn2  1  0.12696044  0.62434585  0.62434585  1
  Zn  Zn3  1  0.62434585  0.62434585  0.62434585  1
  Ru  Ru0  1  0.25000000  0.25000000  0.25000000  1
loop_
_geom_bond_atom_site_label_1
_geom_bond_atom_site_label_2
_geom_bond_distance
_geom_bond_site_symmetry_2
Zn0 Zn3 2.470413 1_555
Zn0 Zn2 2.470413 1_555
Zn0 Zn1 2.470413 1_555
Zn0 Zn3 2.496385 1_554
Zn0 Zn2 2.496385 1_654
Zn0 Zn1 2.496385 1_564
Zn0 Zr0 2.913435 1_565
Zn0 Zr0 2.913435 1_655
Zn0 Zr0 2.913443 1_665
Zn1 Zn2 2.470413 1_555
Zn1 Zn3 2.470413 1_555
Zn1 Zn2 2.496385 1_645
Zn1 Zn3 2.496385 1_545
Zn1 Zr0 2.913435 1_556
Zn1 Zr0 2.913435 1_655
Zn1 Zr0 2.913443 1_656
Zn2 Zn3 2.470412 1_555
Zn2 Zn3 2.496385 1_455
Zn2 Zr0 2.913435 1_565
Zn2 Zr0 2.913435 1_556
Zn2 Zr0 2.913443 1_566
Zn3 Zr0 2.913439 1_566
Zn3 Zr0 2.913439 1_656
Zn3 Zr0 2.913439 1_665
Ru0 Zn1 2.910664 1_555
Ru0 Zn2 2.910664 1_555
Ru0 Zn0 2.910664 1_555
Ru0 Zn3 2.910668 1_455
Ru0 Zn3 2.910669 1_545
Ru0 Zn3 2.910669 1_554
Ru0 Zn0 2.910672 1_455
Ru0 Zn1 2.910673 1_455
Ru0 Zn1 2.910673 1_554
Ru0 Zn0 2.910673 1_545
Ru0 Zn2 2.910673 1_554
Ru0 Zn2 2.910673 1_545
Ru0 Zr0 3.041530 1_555
Ru0 Zr0 3.041530 1_655
Ru0 Zr0 3.041530 1_556
Ru0 Zr0 3.041530 1_565
