# generated using pymatgen
data_TaSe6ICl6
_symmetry_space_group_name_H-M   'P 1'
_cell_length_a   6.78041551
_cell_length_b   7.74279353
_cell_length_c   8.14938591
_cell_angle_alpha   92.68937709
_cell_angle_beta   98.81169816
_cell_angle_gamma   96.04013125
_symmetry_Int_Tables_number   1
_chemical_formula_structural   TaSe6ICl6
_chemical_formula_sum   'Ta1 Se6 I1 Cl6'
_cell_volume   419.57469582
_cell_formula_units_Z   1
loop_
 _symmetry_equiv_pos_site_id
 _symmetry_equiv_pos_as_xyz
  1  'x, y, z'
loop_
 _atom_site_type_symbol
 _atom_site_label
 _atom_site_symmetry_multiplicity
 _atom_site_fract_x
 _atom_site_fract_y
 _atom_site_fract_z
 _atom_site_occupancy
  Ta  Ta0  1  0.50000000  0.50000000  0.50000000  1
  Se  Se0  1  0.93770139  0.97884614  0.72990071  1
  Se  Se1  1  0.98096422  0.75957039  0.11996539  1
  Se  Se2  1  0.85230092  0.21155432  0.11857968  1
  Se  Se3  1  0.01903578  0.24042961  0.88003461  1
  Se  Se4  1  0.14769908  0.78844568  0.88142032  1
  Se  Se5  1  0.06229861  0.02115386  0.27009929  1
  I  I0  1  0.50000000  0.00000000  0.00000000  1
  Cl  Cl0  1  0.37506302  0.77278274  0.52121442  1
  Cl  Cl1  1  0.40306732  0.48314904  0.20894526  1
  Cl  Cl2  1  0.62493698  0.22721726  0.47878558  1
  Cl  Cl3  1  0.81667698  0.64172800  0.46838965  1
  Cl  Cl4  1  0.18332302  0.35827200  0.53161035  1
  Cl  Cl5  1  0.59693268  0.51685096  0.79105474  1
loop_
_geom_bond_atom_site_label_1
_geom_bond_atom_site_label_2
_geom_bond_distance
_geom_bond_site_symmetry_2
Se0 Se3 2.286687 1_665
Se0 Se4 2.408195 1_655
Se1 Se5 2.286687 1_665
Se1 Se4 2.401695 1_654
Se2 Se3 2.401695 1_654
Se2 Se5 2.408195 1_655
I0 Se4 2.764749 1_544
I0 Se2 2.764749 1_555
Cl0 Ta0 2.365506 1_555
Cl1 Ta0 2.355903 1_555
Cl2 Ta0 2.365506 1_555
Cl3 Ta0 2.362450 1_555
Cl4 Ta0 2.362450 1_555
Cl5 Ta0 2.355903 1_555
