# generated using pymatgen
data_Pd(SeF6)2
_symmetry_space_group_name_H-M   'P 1'
_cell_length_a   6.02952257
_cell_length_b   7.83128780
_cell_length_c   9.61921248
_cell_angle_alpha   90.00000000
_cell_angle_beta   90.00000000
_cell_angle_gamma   90.00000000
_symmetry_Int_Tables_number   1
_chemical_formula_structural   Pd(SeF6)2
_chemical_formula_sum   'Pd2 Se4 F24'
_cell_volume   454.20888715
_cell_formula_units_Z   2
loop_
 _symmetry_equiv_pos_site_id
 _symmetry_equiv_pos_as_xyz
  1  'x, y, z'
loop_
 _atom_site_type_symbol
 _atom_site_label
 _atom_site_symmetry_multiplicity
 _atom_site_fract_x
 _atom_site_fract_y
 _atom_site_fract_z
 _atom_site_occupancy
  Pd  Pd0  1  0.00000000  0.50000000  0.00000000  1
  Pd  Pd1  1  0.50000000  0.00000000  0.50000000  1
  Se  Se0  1  0.50000000  0.60142223  0.23993188  1
  Se  Se1  1  0.50000000  0.39857777  0.76006812  1
  Se  Se2  1  0.00000000  0.10142223  0.26006812  1
  Se  Se3  1  0.00000000  0.89857777  0.73993188  1
  F  F0  1  0.22380924  0.35672782  0.91795768  1
  F  F1  1  0.22380924  0.64327218  0.08204232  1
  F  F2  1  0.27619076  0.85672782  0.58204232  1
  F  F3  1  0.27619076  0.14327218  0.41795768  1
  F  F4  1  0.77619076  0.64327218  0.08204232  1
  F  F5  1  0.77619076  0.35672782  0.91795768  1
  F  F6  1  0.79527762  0.94300835  0.85782183  1
  F  F7  1  0.79527762  0.05699165  0.14217817  1
  F  F8  1  0.70472238  0.44300835  0.64217817  1
  F  F9  1  0.70472238  0.55699165  0.35782183  1
  F  F10  1  0.20472238  0.05699165  0.14217817  1
  F  F11  1  0.20472238  0.94300835  0.85782183  1
  F  F12  1  0.29527762  0.55699165  0.35782183  1
  F  F13  1  0.29527762  0.44300835  0.64217817  1
  F  F14  1  0.00000000  0.63584589  0.83349568  1
  F  F15  1  0.00000000  0.36415411  0.16650432  1
  F  F16  1  0.50000000  0.13584589  0.66650432  1
  F  F17  1  0.50000000  0.86415411  0.33349568  1
  F  F18  1  0.50000000  0.60512692  0.81999284  1
  F  F19  1  0.50000000  0.39487308  0.18000716  1
  F  F20  1  0.00000000  0.10512692  0.68000716  1
  F  F21  1  0.00000000  0.89487308  0.31999284  1
  F  F22  1  0.72380924  0.85672782  0.58204232  1
  F  F23  1  0.72380924  0.14327218  0.41795768  1
loop_
_geom_bond_atom_site_label_1
_geom_bond_atom_site_label_2
_geom_bond_distance
_geom_bond_site_symmetry_2
F0 Pd0 1.924255 1_556
F0 Se1 2.277565 1_555
F1 Pd0 1.924255 1_555
F1 Se0 2.277565 1_555
F2 Pd1 1.924255 1_565
F2 Se3 2.277565 1_555
F3 Pd1 1.924255 1_555
F3 Se2 2.277565 1_555
F4 Pd0 1.924255 1_655
F4 Se0 2.277565 1_555
F5 Pd0 1.924255 1_656
F5 Se1 2.277565 1_555
F6 Se3 1.711938 1_655
F7 Se2 1.711938 1_655
F8 Se1 1.711938 1_555
F9 Se0 1.711938 1_555
F10 Se2 1.711938 1_555
F11 Se3 1.711938 1_555
F12 Se0 1.711938 1_555
F13 Se1 1.711938 1_555
F14 Pd0 1.922765 1_556
F14 Se3 2.245761 1_555
F15 Pd0 1.922765 1_555
F15 Se2 2.245761 1_555
F16 Pd1 1.922765 1_555
F16 Se1 2.245761 1_555
F17 Pd1 1.922765 1_565
F17 Se0 2.245761 1_555
F18 Se1 1.717185 1_555
F19 Se0 1.717185 1_555
F20 Se3 1.717185 1_545
F21 Se2 1.717185 1_565
F22 Pd1 1.924255 1_565
F22 Se3 2.277565 1_655
F23 Pd1 1.924255 1_555
F23 Se2 2.277565 1_655
