# generated using pymatgen
data_Ba3Sc(FeO4)2
_symmetry_space_group_name_H-M   'P 1'
_cell_length_a   5.79498812
_cell_length_b   5.79497113
_cell_length_c   14.27661150
_cell_angle_alpha   89.85088331
_cell_angle_beta   89.85093487
_cell_angle_gamma   119.77692327
_symmetry_Int_Tables_number   1
_chemical_formula_structural   Ba3Sc(FeO4)2
_chemical_formula_sum   'Ba6 Sc2 Fe4 O16'
_cell_volume   416.12672872
_cell_formula_units_Z   2
loop_
 _symmetry_equiv_pos_site_id
 _symmetry_equiv_pos_as_xyz
  1  'x, y, z'
loop_
 _atom_site_type_symbol
 _atom_site_label
 _atom_site_symmetry_multiplicity
 _atom_site_fract_x
 _atom_site_fract_y
 _atom_site_fract_z
 _atom_site_occupancy
  Ba  Ba0  1  0.33235084  0.65283525  0.91374416  1
  Ba  Ba1  1  0.66297189  0.33200012  0.08099171  1
  Ba  Ba2  1  0.65283005  0.33235429  0.41374219  1
  Ba  Ba3  1  0.33199740  0.66296355  0.58099483  1
  Ba  Ba4  1  0.00931402  0.00530083  0.74957591  1
  Ba  Ba5  1  0.00530376  0.00931709  0.24957471  1
  Sc  Sc0  1  0.00711734  0.00073107  0.00097538  1
  Sc  Sc1  1  0.00073702  0.00712049  0.50097447  1
  Fe  Fe0  1  0.35509363  0.68220876  0.14752162  1
  Fe  Fe1  1  0.68290435  0.34769448  0.84761346  1
  Fe  Fe2  1  0.68220343  0.35507988  0.64752106  1
  Fe  Fe3  1  0.34769197  0.68290867  0.34761403  1
  O  O0  1  0.81848446  0.15715569  0.90676650  1
  O  O1  1  0.36099084  0.16123858  0.91314320  1
  O  O2  1  0.83874183  0.66262308  0.91920432  1
  O  O3  1  0.15224075  0.82600813  0.09373209  1
  O  O4  1  0.67075160  0.84778410  0.08177571  1
  O  O5  1  0.16732138  0.34770715  0.08204858  1
  O  O6  1  0.15715682  0.81850026  0.40676364  1
  O  O7  1  0.66262169  0.83874675  0.41920344  1
  O  O8  1  0.16123380  0.36099823  0.41314687  1
  O  O9  1  0.82598438  0.15220439  0.59373877  1
  O  O10  1  0.34769854  0.16731612  0.58205066  1
  O  O11  1  0.84778804  0.67072808  0.58176759  1
  O  O12  1  0.50694132  0.43607306  0.75601688  1
  O  O13  1  0.94894056  0.45469145  0.75689097  1
  O  O14  1  0.43606508  0.50693944  0.25601953  1
  O  O15  1  0.45469219  0.94894002  0.25688970  1
loop_
_geom_bond_atom_site_label_1
_geom_bond_atom_site_label_2
_geom_bond_distance
_geom_bond_site_symmetry_2
Ba0 O5 2.846228 1_556
Ba0 O1 2.867368 1_565
Ba0 O0 2.882150 1_565
Ba0 O2 2.889901 1_455
Ba0 O2 2.908032 1_555
Ba0 O1 2.934783 1_555
Ba0 O0 2.938628 1_455
Ba0 O4 2.952093 1_556
Ba0 O13 2.962260 1_455
Ba0 O12 2.989537 1_555
Ba0 O3 3.120771 1_556
Ba1 O4 2.828672 1_545
Ba1 O2 2.840737 1_554
Ba1 O1 2.845714 1_554
Ba1 O3 2.865456 1_655
Ba1 O5 2.878661 1_655
Ba1 O5 2.918564 1_555
Ba1 O3 2.960617 1_545
Ba1 O4 2.966873 1_555
Ba1 O0 2.988987 1_554
Ba1 O15 3.159856 1_545
Ba1 O14 3.212613 1_555
Ba2 O10 2.846289 1_555
Ba2 O8 2.867369 1_655
Ba2 O6 2.882204 1_655
Ba2 O7 2.889896 1_545
Ba2 O7 2.908021 1_555
Ba2 O8 2.934801 1_555
Ba2 O6 2.938573 1_545
Ba2 O11 2.951948 1_555
Ba2 O15 2.962262 1_545
Ba2 O14 2.989479 1_555
Ba2 O9 3.120932 1_555
Ba3 O11 2.828596 1_455
Ba3 O7 2.840792 1_555
Ba3 O8 2.845665 1_555
Ba3 O9 2.865318 1_565
Ba3 O10 2.878686 1_565
Ba3 O10 2.918520 1_555
Ba3 O9 2.960762 1_455
Ba3 O11 2.966962 1_555
Ba3 O6 2.989112 1_555
Ba3 O13 3.159829 1_455
Ba3 O12 3.212508 1_555
Ba4 O12 2.721849 1_555
Ba4 O9 2.775608 1_455
Ba4 O13 2.796675 1_455
Ba4 O0 2.827977 1_455
Ba4 O10 2.929541 1_555
Ba4 O11 2.933953 1_445
Ba4 O1 2.937609 1_555
Ba4 O2 2.966156 1_445
Ba4 O13 3.033739 1_445
Ba4 O12 3.134263 1_445
Ba5 O14 2.721807 1_555
Ba5 O3 2.775703 1_545
Ba5 O15 2.796681 1_545
Ba5 O6 2.827911 1_545
Ba5 O5 2.929564 1_555
Ba5 O4 2.933785 1_445
Ba5 O8 2.937677 1_555
Ba5 O7 2.966176 1_445
Ba5 O15 3.033753 1_445
Ba5 O14 3.134316 1_445
Fe0 O4 1.841423 1_555
Fe0 O3 1.907967 1_555
Fe0 O5 1.932604 1_555
Fe0 O14 2.029801 1_555
Fe0 O15 2.071580 1_555
Fe1 O0 1.846603 1_555
Fe1 O13 1.864072 1_555
Fe1 O1 1.872529 1_555
Fe1 O12 1.879977 1_555
Fe1 O2 1.889005 1_555
Fe2 O11 1.841434 1_555
Fe2 O9 1.907955 1_555
Fe2 O10 1.932600 1_555
Fe2 O12 2.029815 1_555
Fe2 O13 2.071616 1_555
Fe3 O6 1.846614 1_555
Fe3 O15 1.864067 1_555
Fe3 O8 1.872536 1_555
Fe3 O14 1.879964 1_555
Fe3 O7 1.889002 1_555
O0 Sc0 2.193424 1_656
O1 Sc0 2.174598 1_556
O2 Sc0 2.067082 1_666
O3 Sc0 2.081026 1_565
O4 Sc0 2.045181 1_665
O5 Sc0 2.099562 1_555
O6 Sc1 2.193372 1_565
O7 Sc1 2.067116 1_665
O8 Sc1 2.174576 1_555
O9 Sc1 2.081066 1_655
O10 Sc1 2.099529 1_555
O11 Sc1 2.045232 1_665
