# generated using pymatgen
data_Rb4Sn(TeSe)2
_symmetry_space_group_name_H-M   'P 1'
_cell_length_a   8.96906914
_cell_length_b   10.94337762
_cell_length_c   15.53593599
_cell_angle_alpha   90.00000000
_cell_angle_beta   90.00000000
_cell_angle_gamma   90.00000000
_symmetry_Int_Tables_number   1
_chemical_formula_structural   Rb4Sn(TeSe)2
_chemical_formula_sum   'Rb16 Sn4 Te8 Se8'
_cell_volume   1524.88179859
_cell_formula_units_Z   4
loop_
 _symmetry_equiv_pos_site_id
 _symmetry_equiv_pos_as_xyz
  1  'x, y, z'
loop_
 _atom_site_type_symbol
 _atom_site_label
 _atom_site_symmetry_multiplicity
 _atom_site_fract_x
 _atom_site_fract_y
 _atom_site_fract_z
 _atom_site_occupancy
  Rb  Rb0  1  0.50000000  0.50000000  0.50000000  1
  Rb  Rb1  1  0.14812958  0.46077485  0.27379609  1
  Rb  Rb2  1  0.14812958  0.03922515  0.27379609  1
  Rb  Rb3  1  0.98710032  0.75000000  0.43246786  1
  Rb  Rb4  1  0.01289968  0.25000000  0.56753214  1
  Rb  Rb5  1  0.64812958  0.96077485  0.22620391  1
  Rb  Rb6  1  0.35187042  0.03922515  0.77379609  1
  Rb  Rb7  1  0.85187042  0.96077485  0.72620391  1
  Rb  Rb8  1  0.35187042  0.46077485  0.77379609  1
  Rb  Rb9  1  0.00000000  0.50000000  0.00000000  1
  Rb  Rb10  1  0.48710032  0.25000000  0.06753214  1
  Rb  Rb11  1  0.64812958  0.53922515  0.22620391  1
  Rb  Rb12  1  0.51289968  0.75000000  0.93246786  1
  Rb  Rb13  1  0.00000000  0.00000000  0.00000000  1
  Rb  Rb14  1  0.85187042  0.53922515  0.72620391  1
  Rb  Rb15  1  0.50000000  0.00000000  0.50000000  1
  Sn  Sn0  1  0.73433398  0.25000000  0.83871455  1
  Sn  Sn1  1  0.76566602  0.25000000  0.33871455  1
  Sn  Sn2  1  0.23433398  0.75000000  0.66128545  1
  Sn  Sn3  1  0.26566602  0.75000000  0.16128545  1
  Te  Te0  1  0.54449729  0.75000000  0.67063183  1
  Te  Te1  1  0.45550271  0.25000000  0.32936817  1
  Te  Te2  1  0.37143312  0.75000000  0.33036843  1
  Te  Te3  1  0.12856688  0.75000000  0.83036843  1
  Te  Te4  1  0.04449729  0.25000000  0.82936817  1
  Te  Te5  1  0.95550271  0.75000000  0.17063183  1
  Te  Te6  1  0.62856688  0.25000000  0.66963157  1
  Te  Te7  1  0.87143312  0.25000000  0.16963157  1
  Se  Se0  1  0.85166660  0.44135955  0.41429922  1
  Se  Se1  1  0.64833340  0.05864045  0.91429922  1
  Se  Se2  1  0.35166660  0.94135955  0.08570078  1
  Se  Se3  1  0.35166660  0.55864045  0.08570078  1
  Se  Se4  1  0.14833340  0.55864045  0.58570078  1
  Se  Se5  1  0.85166660  0.05864045  0.41429922  1
  Se  Se6  1  0.14833340  0.94135955  0.58570078  1
  Se  Se7  1  0.64833340  0.44135955  0.91429922  1
loop_
_geom_bond_atom_site_label_1
_geom_bond_atom_site_label_2
_geom_bond_distance
_geom_bond_site_symmetry_2
Rb0 Se4 3.483250 1_555
Rb0 Se0 3.483250 1_555
Rb0 Te0 3.830343 1_555
Rb0 Te1 3.830343 1_555
Rb0 Te6 3.969861 1_555
Rb0 Te2 3.969861 1_555
Rb1 Se0 3.446771 1_455
Rb1 Se3 3.608193 1_555
Rb1 Te1 3.696752 1_555
Rb1 Te7 3.754745 1_455
Rb1 Sn3 3.766236 1_555
Rb1 Te2 3.847290 1_555
Rb1 Te5 3.946083 1_455
Rb2 Se5 3.446771 1_455
Rb2 Se2 3.608193 1_545
Rb2 Te1 3.696752 1_555
Rb2 Te7 3.754745 1_455
Rb2 Sn3 3.766236 1_545
Rb2 Te2 3.847290 1_545
Rb2 Te5 3.946083 1_445
Rb3 Se6 3.484811 1_655
Rb3 Se4 3.484811 1_655
Rb3 Se5 3.600441 1_565
Rb3 Se0 3.600441 1_555
Rb3 Te2 3.794550 1_655
Rb3 Te5 4.077728 1_555
Rb4 Se0 3.484811 1_455
Rb4 Se5 3.484811 1_455
Rb4 Se4 3.600441 1_555
Rb4 Se6 3.600441 1_545
Rb4 Te6 3.794550 1_455
Rb4 Te4 4.077728 1_555
Rb5 Se2 3.446771 1_555
Rb5 Se5 3.608193 1_565
Rb5 Te5 3.696752 1_555
Rb5 Te2 3.754745 1_555
Rb5 Sn1 3.766236 1_565
Rb5 Te7 3.847290 1_565
Rb5 Te1 3.946083 1_565
Rb6 Se1 3.446771 1_555
Rb6 Se6 3.608193 1_545
Rb6 Te4 3.696752 1_555
Rb6 Te6 3.754745 1_555
Rb6 Sn2 3.766236 1_545
Rb6 Te3 3.847290 1_545
Rb6 Te0 3.946083 1_545
Rb7 Se6 3.446771 1_655
Rb7 Se1 3.608193 1_565
Rb7 Te0 3.696752 1_555
Rb7 Te3 3.754745 1_655
Rb7 Sn0 3.766236 1_565
Rb7 Te6 3.847290 1_565
Rb7 Te4 3.946083 1_665
Rb8 Se7 3.446771 1_555
Rb8 Se4 3.608193 1_555
Rb8 Te4 3.696752 1_555
Rb8 Te6 3.754745 1_555
Rb8 Sn2 3.766236 1_555
Rb8 Te3 3.847290 1_555
Rb8 Te0 3.946083 1_555
Rb9 Se3 3.483250 1_555
Rb9 Se7 3.483250 1_454
Rb9 Te5 3.830343 1_455
Rb9 Te4 3.830343 1_554
Rb9 Te7 3.969861 1_455
Rb9 Te3 3.969861 1_554
Rb10 Se7 3.484811 1_554
Rb10 Se1 3.484811 1_554
Rb10 Se3 3.600441 1_555
Rb10 Se2 3.600441 1_545
Rb10 Te7 3.794550 1_555
Rb10 Te1 4.077728 1_555
Rb11 Se3 3.446771 1_555
Rb11 Se0 3.608193 1_555
Rb11 Te5 3.696752 1_555
Rb11 Te2 3.754745 1_555
Rb11 Sn1 3.766236 1_555
Rb11 Te7 3.847290 1_555
Rb11 Te1 3.946083 1_555
Rb12 Se2 3.484811 1_556
Rb12 Se3 3.484811 1_556
Rb12 Se1 3.600441 1_565
Rb12 Se7 3.600441 1_555
Rb12 Te3 3.794550 1_555
Rb12 Te0 4.077728 1_555
Rb13 Se2 3.483250 1_545
Rb13 Se1 3.483250 1_454
Rb13 Te5 3.830343 1_445
Rb13 Te4 3.830343 1_554
Rb13 Te7 3.969861 1_455
Rb13 Te3 3.969861 1_544
Rb14 Se4 3.446771 1_655
Rb14 Se7 3.608193 1_555
Rb14 Te0 3.696752 1_555
Rb14 Te3 3.754745 1_655
Rb14 Sn0 3.766236 1_555
Rb14 Te6 3.847290 1_555
Rb14 Te4 3.946083 1_655
Rb15 Se5 3.483250 1_555
Rb15 Se6 3.483250 1_545
Rb15 Te0 3.830343 1_545
Rb15 Te1 3.830343 1_555
Rb15 Te6 3.969861 1_555
Rb15 Te2 3.969861 1_545
Sn0 Te4 2.785663 1_655
Sn0 Te6 2.792903 1_555
Sn1 Te1 2.785663 1_555
Sn1 Te7 2.792903 1_555
Sn2 Te0 2.785663 1_555
Sn2 Te3 2.792903 1_555
Sn3 Te5 2.785663 1_455
Sn3 Te2 2.792903 1_555
Se0 Sn1 2.521754 1_555
Se1 Sn0 2.521754 1_555
Se2 Sn3 2.521754 1_555
Se3 Sn3 2.521754 1_555
Se4 Sn2 2.521754 1_555
Se5 Sn1 2.521754 1_555
Se6 Sn2 2.521754 1_555
Se7 Sn0 2.521754 1_555
