# generated using pymatgen
data_Hf2V3Fe
_symmetry_space_group_name_H-M   'P 1'
_cell_length_a   4.99584854
_cell_length_b   5.15285181
_cell_length_c   4.99584891
_cell_angle_alpha   121.07826825
_cell_angle_beta   117.85855902
_cell_angle_gamma   90.01546115
_symmetry_Int_Tables_number   1
_chemical_formula_structural   Hf2V3Fe
_chemical_formula_sum   'Hf2 V3 Fe1'
_cell_volume   92.29664127
_cell_formula_units_Z   1
loop_
 _symmetry_equiv_pos_site_id
 _symmetry_equiv_pos_as_xyz
  1  'x, y, z'
loop_
 _atom_site_type_symbol
 _atom_site_label
 _atom_site_symmetry_multiplicity
 _atom_site_fract_x
 _atom_site_fract_y
 _atom_site_fract_z
 _atom_site_occupancy
  Hf  Hf0  1  0.87420407  0.62570526  0.25150119  1
  Hf  Hf1  1  0.12579593  0.37429474  0.74849881  1
  V  V0  1  0.00000000  0.00000000  0.00000000  1
  V  V1  1  0.50000000  0.00000000  0.50000000  1
  V  V2  1  0.50000000  0.50000000  0.50000000  1
  Fe  Fe0  1  0.50000000  0.00000000  0.00000000  1
loop_
_geom_bond_atom_site_label_1
_geom_bond_atom_site_label_2
_geom_bond_distance
_geom_bond_site_symmetry_2
Hf0 V2 2.907629 1_555
Hf0 V1 2.907738 1_565
Hf0 V0 2.907738 1_666
Hf0 V1 2.987576 1_554
Hf0 V0 2.987576 1_655
Hf0 V1 2.988759 1_665
Hf0 V0 2.988759 1_665
Hf0 V2 2.989814 1_655
Hf0 V2 2.989815 1_554
Hf0 Hf1 3.027325 1_654
Hf0 Hf1 3.133168 1_665
Hf0 Hf1 3.134979 1_554
Hf0 Hf1 3.134979 1_655
Hf1 V2 2.907629 1_555
Hf1 V1 2.907738 1_555
Hf1 V0 2.907738 1_555
Hf1 V1 2.987576 1_566
Hf1 V0 2.987576 1_566
Hf1 V1 2.988759 1_455
Hf1 V0 2.988759 1_556
Hf1 V2 2.989814 1_455
Hf1 V2 2.989815 1_556
V0 V2 2.576426 1_444
V0 V2 2.576426 1_555
V0 V1 2.578336 1_555
V0 V1 2.578336 1_454
V1 V2 2.576426 1_545
V1 V2 2.576426 1_555
Fe0 V2 2.496648 1_544
Fe0 V2 2.496648 1_555
Fe0 V0 2.497924 1_555
Fe0 V0 2.497924 1_655
Fe0 V1 2.497924 1_555
Fe0 V1 2.497924 1_554
Fe0 Hf0 3.014628 1_555
Fe0 Hf1 3.014628 1_544
Fe0 Hf1 3.016952 1_655
Fe0 Hf0 3.016952 1_444
Fe0 Hf1 3.016952 1_554
Fe0 Hf0 3.016952 1_545
