# generated using pymatgen
data_SmBPd3
_symmetry_space_group_name_H-M   'P 1'
_cell_length_a   4.35996100
_cell_length_b   4.35996100
_cell_length_c   4.35996100
_cell_angle_alpha   90.00000000
_cell_angle_beta   90.00000000
_cell_angle_gamma   90.00000000
_symmetry_Int_Tables_number   1
_chemical_formula_structural   SmBPd3
_chemical_formula_sum   'Sm1 B1 Pd3'
_cell_volume   82.87963190
_cell_formula_units_Z   1
loop_
 _symmetry_equiv_pos_site_id
 _symmetry_equiv_pos_as_xyz
  1  'x, y, z'
loop_
 _atom_site_type_symbol
 _atom_site_label
 _atom_site_symmetry_multiplicity
 _atom_site_fract_x
 _atom_site_fract_y
 _atom_site_fract_z
 _atom_site_occupancy
  Sm  Sm0  1  0.00000000  0.00000000  0.00000000  1
  B  B0  1  0.50000000  0.50000000  0.50000000  1
  Pd  Pd0  1  0.00000000  0.50000000  0.50000000  1
  Pd  Pd1  1  0.50000000  0.50000000  0.00000000  1
  Pd  Pd2  1  0.50000000  0.00000000  0.50000000  1
loop_
_geom_bond_atom_site_label_1
_geom_bond_atom_site_label_2
_geom_bond_distance
_geom_bond_site_symmetry_2
B0 Pd0 2.179981 1_655
B0 Pd0 2.179981 1_555
B0 Pd1 2.179981 1_556
B0 Pd1 2.179981 1_555
B0 Pd2 2.179981 1_555
B0 Pd2 2.179981 1_565
Pd0 Sm0 3.082958 1_556
Pd0 Sm0 3.082958 1_555
Pd0 Sm0 3.082958 1_565
Pd0 Sm0 3.082958 1_566
Pd1 Sm0 3.082958 1_555
Pd1 Sm0 3.082958 1_565
Pd1 Sm0 3.082958 1_665
Pd1 Sm0 3.082958 1_655
Pd2 Sm0 3.082958 1_556
Pd2 Sm0 3.082958 1_555
Pd2 Sm0 3.082958 1_656
Pd2 Sm0 3.082958 1_655
