# generated using pymatgen
data_Cs2CaCdF6
_symmetry_space_group_name_H-M   'P 1'
_cell_length_a   6.37102239
_cell_length_b   6.37102275
_cell_length_c   6.37102371
_cell_angle_alpha   60.00000495
_cell_angle_beta   60.00000308
_cell_angle_gamma   60.00000106
_symmetry_Int_Tables_number   1
_chemical_formula_structural   Cs2CaCdF6
_chemical_formula_sum   'Cs2 Ca1 Cd1 F6'
_cell_volume   182.85740024
_cell_formula_units_Z   1
loop_
 _symmetry_equiv_pos_site_id
 _symmetry_equiv_pos_as_xyz
  1  'x, y, z'
loop_
 _atom_site_type_symbol
 _atom_site_label
 _atom_site_symmetry_multiplicity
 _atom_site_fract_x
 _atom_site_fract_y
 _atom_site_fract_z
 _atom_site_occupancy
  Cs  Cs0  1  0.75000000  0.75000000  0.75000000  1
  Cs  Cs1  1  0.25000000  0.25000000  0.25000000  1
  Ca  Ca0  1  0.50000000  0.50000000  0.50000000  1
  Cd  Cd0  1  0.00000000  0.00000000  0.00000000  1
  F  F0  1  0.75046570  0.24953430  0.24953430  1
  F  F1  1  0.75046570  0.24953430  0.75046570  1
  F  F2  1  0.24953430  0.75046570  0.24953430  1
  F  F3  1  0.24953430  0.24953430  0.75046570  1
  F  F4  1  0.75046570  0.75046570  0.24953430  1
  F  F5  1  0.24953430  0.75046570  0.75046570  1
loop_
_geom_bond_atom_site_label_1
_geom_bond_atom_site_label_2
_geom_bond_distance
_geom_bond_site_symmetry_2
Cs0 F5 3.185514 1_555
Cs0 F5 3.185514 1_655
Cs0 F3 3.185514 1_565
Cs0 F3 3.185514 1_655
Cs0 F1 3.185514 1_565
Cs0 F1 3.185514 1_555
Cs0 F2 3.185514 1_556
Cs0 F2 3.185514 1_655
Cs0 F0 3.185515 1_556
Cs0 F4 3.185515 1_556
Cs0 F0 3.185515 1_565
Cs0 F4 3.185515 1_555
Cs1 F0 3.185514 1_555
Cs1 F0 3.185514 1_455
Cs1 F4 3.185514 1_545
Cs1 F4 3.185514 1_455
Cs1 F2 3.185514 1_545
Cs1 F2 3.185514 1_555
Cs1 F1 3.185514 1_554
Cs1 F1 3.185514 1_455
Cs1 F5 3.185515 1_554
Cs1 F3 3.185515 1_554
Cs1 F5 3.185515 1_545
Cs1 F3 3.185515 1_555
Ca0 F4 2.256693 1_555
Ca0 F3 2.256693 1_555
Ca0 F1 2.256693 1_555
Ca0 F5 2.256693 1_555
Ca0 F2 2.256693 1_555
Ca0 F0 2.256693 1_555
Cd0 F3 2.248301 1_554
Cd0 F4 2.248301 1_445
Cd0 F2 2.248301 1_545
Cd0 F0 2.248301 1_455
Cd0 F1 2.248301 1_454
Cd0 F5 2.248301 1_544
