# generated using pymatgen
data_ScBeAl6Cu5
_symmetry_space_group_name_H-M   'P 1'
_cell_length_a   6.46186591
_cell_length_b   6.46186478
_cell_length_c   6.46809865
_cell_angle_alpha   134.92038798
_cell_angle_beta   98.34058755
_cell_angle_gamma   98.51094234
_symmetry_Int_Tables_number   1
_chemical_formula_structural   ScBeAl6Cu5
_chemical_formula_sum   'Sc1 Be1 Al6 Cu5'
_cell_volume   176.71696678
_cell_formula_units_Z   1
loop_
 _symmetry_equiv_pos_site_id
 _symmetry_equiv_pos_as_xyz
  1  'x, y, z'
loop_
 _atom_site_type_symbol
 _atom_site_label
 _atom_site_symmetry_multiplicity
 _atom_site_fract_x
 _atom_site_fract_y
 _atom_site_fract_z
 _atom_site_occupancy
  Sc  Sc0  1  0.00404874  0.00012875  0.00417849  1
  Be  Be0  1  0.23586824  0.50030237  0.73617061  1
  Al  Al0  1  0.34680542  0.34484837  0.00202187  1
  Al  Al1  1  0.65717350  0.65521646  0.00202187  1
  Al  Al2  1  0.65886975  0.00052718  0.65939693  1
  Al  Al3  1  0.34935668  0.99935830  0.34871498  1
  Al  Al4  1  0.80691640  0.31068018  0.49626984  1
  Al  Al5  1  0.18559066  0.68935344  0.49626984  1
  Cu  Cu0  1  0.48779511  0.98788176  0.99489563  1
  Cu  Cu1  1  0.48783918  0.49280440  0.49991992  1
  Cu  Cu2  1  0.00711552  0.01208074  0.49991992  1
  Cu  Cu3  1  0.00701387  0.50709952  0.99489563  1
  Cu  Cu4  1  0.76560694  0.49971754  0.26532448  1
loop_
_geom_bond_atom_site_label_1
_geom_bond_atom_site_label_2
_geom_bond_distance
_geom_bond_site_symmetry_2
Be0 Cu0 2.371222 1_555
Be0 Cu3 2.371225 1_555
Be0 Cu2 2.372565 1_555
Be0 Cu1 2.372565 1_555
Be0 Sc0 3.155807 1_566
Be0 Sc0 3.163066 1_555
Al0 Cu0 2.576227 1_544
Al0 Cu3 2.577342 1_554
Al0 Cu1 2.580364 1_555
Al0 Cu2 2.581011 1_554
Al0 Cu4 2.584564 1_555
Al0 Be0 2.602837 1_554
Al0 Al1 2.618003 1_555
Al0 Al5 2.804092 1_555
Al0 Al5 2.804397 1_544
Al0 Sc0 2.908633 1_555
Al1 Cu3 2.576230 1_654
Al1 Cu0 2.577346 1_554
Al1 Cu2 2.580364 1_665
Al1 Cu1 2.581011 1_554
Al1 Cu4 2.584564 1_555
Al1 Be0 2.602837 1_554
Al1 Al4 2.804096 1_565
Al1 Al4 2.804398 1_554
Al1 Sc0 2.908624 1_665
Al2 Al3 2.616573 1_545
Al2 Cu3 2.618665 1_655
Al2 Cu0 2.618669 1_545
Al2 Cu1 2.620300 1_545
Al2 Cu2 2.620300 1_655
Al2 Cu4 2.635215 1_556
Al2 Cu4 2.639494 1_545
Al2 Sc0 2.918068 1_656
Al3 Cu0 2.533191 1_554
Al3 Cu3 2.533194 1_554
Al3 Cu1 2.534129 1_565
Al3 Cu2 2.534130 1_565
Al3 Be0 2.654780 1_554
Al3 Be0 2.660065 1_565
Al3 Sc0 2.919148 1_565
Al4 Cu2 2.488260 1_655
Al4 Cu3 2.491561 1_655
Al4 Cu1 2.515917 1_555
Al4 Cu4 2.520423 1_555
Al4 Cu0 2.520641 1_544
Al4 Be0 2.579528 1_655
Al4 Sc0 2.948399 1_655
Al4 Sc0 2.949548 1_666
Al5 Cu1 2.488254 1_555
Al5 Cu0 2.491555 1_555
Al5 Cu2 2.515921 1_565
Al5 Cu4 2.520429 1_455
Al5 Cu3 2.520639 1_554
Al5 Be0 2.579527 1_555
Al5 Sc0 2.948403 1_555
Al5 Sc0 2.949557 1_566
Cu0 Cu4 2.526395 1_566
Cu0 Sc0 3.146762 1_566
Cu0 Sc0 3.315953 1_666
Cu1 Cu4 2.527499 1_555
Cu1 Sc0 3.149514 1_555
Cu1 Sc0 3.319392 1_666
Cu2 Cu4 2.527499 1_445
Cu2 Sc0 3.149509 1_555
Cu2 Sc0 3.319397 1_556
Cu3 Cu4 2.526392 1_456
Cu3 Sc0 3.146762 1_566
Cu3 Sc0 3.315952 1_556
Cu4 Sc0 3.189879 1_655
Cu4 Sc0 3.199061 1_666
