# generated using pymatgen
data_Cs3VIrBr9
_symmetry_space_group_name_H-M   'P 1'
_cell_length_a   7.65007927
_cell_length_b   7.65007891
_cell_length_c   18.83679270
_cell_angle_alpha   90.00000000
_cell_angle_beta   90.00000000
_cell_angle_gamma   119.99999756
_symmetry_Int_Tables_number   1
_chemical_formula_structural   Cs3VIrBr9
_chemical_formula_sum   'Cs6 V2 Ir2 Br18'
_cell_volume   954.70555873
_cell_formula_units_Z   2
loop_
 _symmetry_equiv_pos_site_id
 _symmetry_equiv_pos_as_xyz
  1  'x, y, z'
loop_
 _atom_site_type_symbol
 _atom_site_label
 _atom_site_symmetry_multiplicity
 _atom_site_fract_x
 _atom_site_fract_y
 _atom_site_fract_z
 _atom_site_occupancy
  Cs  Cs0  1  0.66666700  0.33333300  0.92888228  1
  Cs  Cs1  1  0.33333300  0.66666700  0.42888228  1
  Cs  Cs2  1  0.66666700  0.33333300  0.57261854  1
  Cs  Cs3  1  0.33333300  0.66666700  0.07261854  1
  Cs  Cs4  1  0.00000000  0.00000000  0.74974056  1
  Cs  Cs5  1  0.00000000  0.00000000  0.24974056  1
  V  V0  1  0.66666700  0.33333300  0.33457444  1
  V  V1  1  0.33333300  0.66666700  0.83457444  1
  Ir  Ir0  1  0.33333300  0.66666700  0.67003213  1
  Ir  Ir1  1  0.66666700  0.33333300  0.17003213  1
  Br  Br0  1  0.82492023  0.64983946  0.40642054  1
  Br  Br1  1  0.17507977  0.35016054  0.90642054  1
  Br  Br2  1  0.17507977  0.82492023  0.90642054  1
  Br  Br3  1  0.17939982  0.35880064  0.59429798  1
  Br  Br4  1  0.64983946  0.82492023  0.90642054  1
  Br  Br5  1  0.35016054  0.17507977  0.40642054  1
  Br  Br6  1  0.02058542  0.51029221  0.74733251  1
  Br  Br7  1  0.82492023  0.17507977  0.40642054  1
  Br  Br8  1  0.51029221  0.02058542  0.24733251  1
  Br  Br9  1  0.48970779  0.51029221  0.74733251  1
  Br  Br10  1  0.51029221  0.48970779  0.24733251  1
  Br  Br11  1  0.97941458  0.48970779  0.24733251  1
  Br  Br12  1  0.35880064  0.17939982  0.09429798  1
  Br  Br13  1  0.48970779  0.97941458  0.74733251  1
  Br  Br14  1  0.82060018  0.64119936  0.09429798  1
  Br  Br15  1  0.17939982  0.82060018  0.59429798  1
  Br  Br16  1  0.64119936  0.82060018  0.59429798  1
  Br  Br17  1  0.82060018  0.17939982  0.09429798  1
loop_
_geom_bond_atom_site_label_1
_geom_bond_atom_site_label_2
_geom_bond_distance
_geom_bond_site_symmetry_2
Br0 V0 2.495711 1_555
Br0 Cs5 3.753965 1_665
Br0 Cs2 3.768011 1_555
Br0 Cs1 3.849976 1_655
Br0 Cs1 3.849992 1_555
Br1 V1 2.495711 1_555
Br1 Cs4 3.753965 1_555
Br1 Cs3 3.768011 1_556
Br1 Cs0 3.849976 1_455
Br1 Cs0 3.849992 1_555
Br2 V1 2.495711 1_555
Br2 Cs4 3.753961 1_565
Br2 Cs3 3.768011 1_556
Br2 Cs0 3.849984 1_565
Br2 Cs0 3.849984 1_455
Br3 Ir0 2.489053 1_555
Br3 Cs1 3.724120 1_555
Br3 Cs4 3.771483 1_555
Br3 Cs2 3.850468 1_455
Br3 Cs2 3.850483 1_555
Br4 V1 2.495711 1_555
Br4 Cs4 3.753965 1_665
Br4 Cs3 3.768011 1_556
Br4 Cs0 3.849976 1_565
Br4 Cs0 3.849991 1_555
Br5 V0 2.495711 1_555
Br5 Cs5 3.753965 1_555
Br5 Cs2 3.768011 1_555
Br5 Cs1 3.849976 1_545
Br5 Cs1 3.849991 1_555
Br6 Ir0 2.532469 1_555
Br6 V1 2.644584 1_555
Br6 Cs4 3.827735 1_555
Br6 Cs4 3.827743 1_565
Br6 Cs2 4.040909 1_455
Br6 Cs0 4.146453 1_455
Br7 V0 2.495711 1_555
Br7 Cs5 3.753961 1_655
Br7 Cs2 3.768011 1_555
Br7 Cs1 3.849984 1_545
Br7 Cs1 3.849984 1_655
Br8 Ir1 2.532469 1_555
Br8 V0 2.644584 1_555
Br8 Cs5 3.827735 1_555
Br8 Cs5 3.827743 1_655
Br8 Cs3 4.040909 1_545
Br8 Cs1 4.146453 1_545
Br9 Ir0 2.532480 1_555
Br9 V1 2.644595 1_555
Br9 Cs4 3.827739 1_555
Br9 Cs4 3.827739 1_665
Br9 Cs2 4.040909 1_555
Br9 Cs0 4.146453 1_555
Br10 Ir1 2.532480 1_555
Br10 V0 2.644595 1_555
Br10 Cs5 3.827739 1_665
Br10 Cs5 3.827739 1_555
Br10 Cs3 4.040909 1_555
Br10 Cs1 4.146453 1_555
Br11 Ir1 2.532469 1_555
Br11 V0 2.644584 1_555
Br11 Cs5 3.827735 1_665
Br11 Cs5 3.827743 1_655
Br11 Cs3 4.040909 1_655
Br11 Cs1 4.146453 1_655
Br12 Ir1 2.489054 1_555
Br12 Cs0 3.724120 1_554
Br12 Cs5 3.771483 1_555
Br12 Cs3 3.850468 1_545
Br12 Cs3 3.850483 1_555
Br13 Ir0 2.532469 1_555
Br13 V1 2.644584 1_555
Br13 Cs4 3.827735 1_665
Br13 Cs4 3.827743 1_565
Br13 Cs2 4.040909 1_565
Br13 Cs0 4.146453 1_565
Br14 Ir1 2.489053 1_555
Br14 Cs0 3.724120 1_554
Br14 Cs5 3.771483 1_665
Br14 Cs3 3.850468 1_655
Br14 Cs3 3.850483 1_555
Br15 Ir0 2.489053 1_555
Br15 Cs1 3.724120 1_555
Br15 Cs4 3.771478 1_565
Br15 Cs2 3.850475 1_565
Br15 Cs2 3.850475 1_455
Br16 Ir0 2.489054 1_555
Br16 Cs1 3.724120 1_555
Br16 Cs4 3.771483 1_665
Br16 Cs2 3.850468 1_565
Br16 Cs2 3.850483 1_555
Br17 Ir1 2.489053 1_555
Br17 Cs0 3.724120 1_554
Br17 Cs5 3.771478 1_655
Br17 Cs3 3.850475 1_545
Br17 Cs3 3.850475 1_655
