# generated using pymatgen
data_Rb2LiLuBi2
_symmetry_space_group_name_H-M   'P 1'
_cell_length_a   11.26570436
_cell_length_b   11.26570357
_cell_length_c   7.25929150
_cell_angle_alpha   90.00000000
_cell_angle_beta   90.00000000
_cell_angle_gamma   99.90246100
_symmetry_Int_Tables_number   1
_chemical_formula_structural   Rb2LiLuBi2
_chemical_formula_sum   'Rb8 Li4 Lu4 Bi8'
_cell_volume   907.59496924
_cell_formula_units_Z   4
loop_
 _symmetry_equiv_pos_site_id
 _symmetry_equiv_pos_as_xyz
  1  'x, y, z'
loop_
 _atom_site_type_symbol
 _atom_site_label
 _atom_site_symmetry_multiplicity
 _atom_site_fract_x
 _atom_site_fract_y
 _atom_site_fract_z
 _atom_site_occupancy
  Rb  Rb0  1  0.57225099  0.92774901  0.75000000  1
  Rb  Rb1  1  0.92774901  0.57225099  0.25000000  1
  Rb  Rb2  1  0.42774901  0.07225099  0.25000000  1
  Rb  Rb3  1  0.07225099  0.42774901  0.75000000  1
  Rb  Rb4  1  0.67470615  0.32529385  0.78061255  1
  Rb  Rb5  1  0.82529385  0.17470615  0.28061255  1
  Rb  Rb6  1  0.32529385  0.67470615  0.21938745  1
  Rb  Rb7  1  0.17470615  0.82529385  0.71938745  1
  Li  Li0  1  0.62265781  0.62265781  0.00000000  1
  Li  Li1  1  0.87734219  0.87734219  0.50000000  1
  Li  Li2  1  0.37734219  0.37734219  0.00000000  1
  Li  Li3  1  0.12265781  0.12265781  0.50000000  1
  Lu  Lu0  1  0.87113913  0.87113913  0.00000000  1
  Lu  Lu1  1  0.62886087  0.62886087  0.50000000  1
  Lu  Lu2  1  0.12886087  0.12886087  0.00000000  1
  Lu  Lu3  1  0.37113913  0.37113913  0.50000000  1
  Bi  Bi0  1  0.34560955  0.15439045  0.75000000  1
  Bi  Bi1  1  0.15439045  0.34560955  0.25000000  1
  Bi  Bi2  1  0.65439045  0.84560955  0.25000000  1
  Bi  Bi3  1  0.84560955  0.65439045  0.75000000  1
  Bi  Bi4  1  0.90392012  0.09607988  0.76349598  1
  Bi  Bi5  1  0.59607988  0.40392012  0.26349598  1
  Bi  Bi6  1  0.09607988  0.90392012  0.23650402  1
  Bi  Bi7  1  0.40392012  0.59607988  0.73650402  1
loop_
_geom_bond_atom_site_label_1
_geom_bond_atom_site_label_2
_geom_bond_distance
_geom_bond_site_symmetry_2
Rb0 Rb2 4.402958 1_566
Rb0 Rb2 4.402958 1_565
Rb0 Rb4 4.434154 1_565
Rb0 Rb7 4.434155 1_555
Rb1 Rb3 4.402958 1_654
Rb1 Rb3 4.402958 1_655
Rb1 Rb5 4.434154 1_555
Rb1 Rb6 4.434155 1_655
Rb2 Rb6 4.434154 1_545
Rb2 Rb5 4.434155 1_555
Rb3 Rb7 4.434154 1_555
Rb3 Rb4 4.434155 1_455
Rb4 Rb5 4.463213 1_556
Rb4 Rb5 4.463213 1_555
Rb6 Rb7 4.463213 1_555
Rb6 Rb7 4.463213 1_554
Li0 Rb4 3.844268 1_554
Li0 Rb6 3.844268 1_555
Li0 Rb0 4.012579 1_554
Li0 Rb1 4.012580 1_555
Li1 Rb5 3.844268 1_565
Li1 Rb7 3.844268 1_655
Li1 Rb1 4.012579 1_555
Li1 Rb0 4.012580 1_555
Li2 Rb6 3.844268 1_555
Li2 Rb4 3.844268 1_554
Li2 Rb2 4.012579 1_555
Li2 Rb3 4.012580 1_554
Li3 Rb7 3.844268 1_545
Li3 Rb5 3.844268 1_455
Li3 Rb3 4.012579 1_555
Li3 Rb2 4.012580 1_555
Lu0 Rb1 3.972006 1_555
Lu0 Rb0 3.972007 1_554
Lu0 Rb5 4.088950 1_565
Lu0 Rb7 4.088950 1_654
Lu1 Rb0 3.972006 1_555
Lu1 Rb1 3.972007 1_555
Lu1 Rb4 4.088950 1_555
Lu1 Rb6 4.088950 1_555
Lu2 Rb3 3.972006 1_554
Lu2 Rb2 3.972007 1_555
Lu2 Rb7 4.088950 1_544
Lu2 Rb5 4.088950 1_455
Lu3 Rb2 3.972006 1_555
Lu3 Rb3 3.972007 1_555
Lu3 Rb6 4.088950 1_555
Lu3 Rb4 4.088950 1_555
Bi0 Lu3 3.016168 1_555
Bi0 Lu2 3.016168 1_556
Bi0 Li2 3.069402 1_556
Bi0 Li3 3.069402 1_555
Bi0 Rb7 3.879020 1_545
Bi0 Rb4 3.879020 1_555
Bi0 Rb2 3.896334 1_556
Bi0 Rb2 3.896334 1_555
Bi0 Rb0 3.909049 1_545
Bi1 Lu2 3.016168 1_555
Bi1 Lu3 3.016168 1_555
Bi1 Li3 3.069402 1_555
Bi1 Li2 3.069402 1_555
Bi1 Rb6 3.879020 1_555
Bi1 Rb5 3.879020 1_455
Bi1 Rb3 3.896334 1_554
Bi1 Rb3 3.896334 1_555
Bi1 Rb1 3.909049 1_455
Bi2 Lu1 3.016168 1_555
Bi2 Lu0 3.016168 1_555
Bi2 Li0 3.069402 1_555
Bi2 Li1 3.069402 1_555
Bi2 Rb5 3.879020 1_565
Bi2 Rb6 3.879020 1_555
Bi2 Rb0 3.896334 1_554
Bi2 Rb0 3.896334 1_555
Bi2 Rb2 3.909049 1_565
Bi3 Lu0 3.016168 1_556
Bi3 Lu1 3.016168 1_555
Bi3 Li1 3.069402 1_555
Bi3 Li0 3.069402 1_556
Bi3 Rb4 3.879020 1_555
Bi3 Rb7 3.879020 1_655
Bi3 Rb1 3.896334 1_556
Bi3 Rb1 3.896334 1_555
Bi3 Rb3 3.909049 1_655
Bi4 Lu0 3.030483 1_546
Bi4 Lu2 3.030483 1_656
Bi4 Li1 3.093074 1_545
Bi4 Li3 3.093074 1_655
Bi4 Rb5 3.758569 1_555
Bi4 Rb3 3.889735 1_655
Bi4 Rb0 3.889735 1_545
Bi4 Rb4 3.955372 1_555
Bi4 Rb5 3.991345 1_556
Bi5 Lu1 3.030483 1_555
Bi5 Lu3 3.030483 1_555
Bi5 Li0 3.093074 1_555
Bi5 Li2 3.093074 1_555
Bi5 Rb4 3.758569 1_554
Bi5 Rb2 3.889735 1_555
Bi5 Rb1 3.889735 1_555
Bi5 Rb5 3.955372 1_555
Bi5 Rb4 3.991345 1_555
Bi6 Lu2 3.030483 1_565
Bi6 Lu0 3.030483 1_455
Bi6 Li3 3.093074 1_565
Bi6 Li1 3.093074 1_455
Bi6 Rb7 3.758569 1_555
Bi6 Rb1 3.889735 1_455
Bi6 Rb2 3.889735 1_565
Bi6 Rb6 3.955372 1_555
Bi6 Rb7 3.991345 1_554
Bi7 Lu3 3.030483 1_555
Bi7 Lu1 3.030483 1_555
Bi7 Li2 3.093074 1_556
Bi7 Li0 3.093074 1_556
Bi7 Rb6 3.758569 1_556
Bi7 Rb0 3.889735 1_555
Bi7 Rb3 3.889735 1_555
Bi7 Rb7 3.955372 1_555
Bi7 Rb6 3.991345 1_555
