# generated using pymatgen
data_Ca3Pb
_symmetry_space_group_name_H-M   'P 1'
_cell_length_a   5.04985756
_cell_length_b   5.04985756
_cell_length_c   5.04985756
_cell_angle_alpha   90.00000000
_cell_angle_beta   90.00000000
_cell_angle_gamma   90.00000000
_symmetry_Int_Tables_number   1
_chemical_formula_structural   Ca3Pb
_chemical_formula_sum   'Ca3 Pb1'
_cell_volume   128.77672758
_cell_formula_units_Z   1
loop_
 _symmetry_equiv_pos_site_id
 _symmetry_equiv_pos_as_xyz
  1  'x, y, z'
loop_
 _atom_site_type_symbol
 _atom_site_label
 _atom_site_symmetry_multiplicity
 _atom_site_fract_x
 _atom_site_fract_y
 _atom_site_fract_z
 _atom_site_occupancy
  Ca  Ca0  1  0.00000000  0.50000000  0.50000000  1
  Ca  Ca1  1  0.50000000  0.50000000  0.00000000  1
  Ca  Ca2  1  0.50000000  0.00000000  0.50000000  1
  Pb  Pb0  1  0.00000000  0.00000000  0.00000000  1
loop_
_geom_bond_atom_site_label_1
_geom_bond_atom_site_label_2
_geom_bond_distance
_geom_bond_site_symmetry_2
Ca0 Ca2 3.570789 1_465
Ca0 Ca2 3.570789 1_555
Ca0 Ca1 3.570789 1_456
Ca0 Pb0 3.570789 1_565
Ca0 Ca1 3.570789 1_455
Ca0 Pb0 3.570789 1_555
Ca0 Ca2 3.570789 1_565
Ca0 Pb0 3.570789 1_566
Ca0 Ca2 3.570789 1_455
Ca0 Ca1 3.570789 1_556
Ca0 Pb0 3.570789 1_556
Ca0 Ca1 3.570789 1_555
Ca1 Ca2 3.570789 1_555
Ca1 Pb0 3.570789 1_655
Ca1 Pb0 3.570789 1_565
Ca1 Pb0 3.570789 1_555
Ca1 Ca2 3.570789 1_565
Ca1 Ca2 3.570789 1_554
Ca1 Ca2 3.570789 1_564
Ca1 Pb0 3.570789 1_665
Ca2 Pb0 3.570789 1_655
Ca2 Pb0 3.570789 1_656
Ca2 Pb0 3.570789 1_555
Ca2 Pb0 3.570789 1_556
