# generated using pymatgen
data_Cr2CuSe4
_symmetry_space_group_name_H-M   'P 1'
_cell_length_a   7.33245451
_cell_length_b   7.33245167
_cell_length_c   7.33245665
_cell_angle_alpha   59.99998226
_cell_angle_beta   59.99999508
_cell_angle_gamma   59.99997576
_symmetry_Int_Tables_number   1
_chemical_formula_structural   Cr2CuSe4
_chemical_formula_sum   'Cr4 Cu2 Se8'
_cell_volume   278.76159366
_cell_formula_units_Z   2
loop_
 _symmetry_equiv_pos_site_id
 _symmetry_equiv_pos_as_xyz
  1  'x, y, z'
loop_
 _atom_site_type_symbol
 _atom_site_label
 _atom_site_symmetry_multiplicity
 _atom_site_fract_x
 _atom_site_fract_y
 _atom_site_fract_z
 _atom_site_occupancy
  Cr  Cr0  1  0.50000000  0.50000000  0.50000000  1
  Cr  Cr1  1  0.50000000  0.50000000  -0.00000000  1
  Cr  Cr2  1  0.00000000  0.50000000  0.50000000  1
  Cr  Cr3  1  0.50000000  0.00000000  0.50000000  1
  Cu  Cu0  1  0.87500000  0.87500000  0.87500000  1
  Cu  Cu1  1  0.12500000  0.12500000  0.12500000  1
  Se  Se0  1  0.25702144  0.25702244  0.25702244  1
  Se  Se1  1  0.74297856  0.74297756  0.27106732  1
  Se  Se2  1  0.27106732  0.74297756  0.74297756  1
  Se  Se3  1  0.74297856  0.27106732  0.74297756  1
  Se  Se4  1  0.72893268  0.25702244  0.25702244  1
  Se  Se5  1  0.25702144  0.72893268  0.25702244  1
  Se  Se6  1  0.25702144  0.25702244  0.72893268  1
  Se  Se7  1  0.74297856  0.74297756  0.74297756  1
loop_
_geom_bond_atom_site_label_1
_geom_bond_atom_site_label_2
_geom_bond_distance
_geom_bond_site_symmetry_2
Cr0 Se4 2.521697 1_555
Cr0 Se2 2.521697 1_555
Cr0 Se6 2.521702 1_555
Cr0 Se1 2.521702 1_555
Cr0 Se5 2.521703 1_555
Cr0 Se3 2.521703 1_555
Cr1 Se2 2.521697 1_554
Cr1 Se4 2.521697 1_555
Cr1 Se3 2.521697 1_554
Cr1 Se5 2.521697 1_555
Cr1 Se0 2.521702 1_555
Cr1 Se7 2.521702 1_554
Cr2 Se3 2.521692 1_455
Cr2 Se5 2.521692 1_555
Cr2 Se1 2.521692 1_455
Cr2 Se6 2.521692 1_555
Cr2 Se0 2.521697 1_555
Cr2 Se7 2.521697 1_455
Cr3 Se4 2.521697 1_555
Cr3 Se2 2.521697 1_545
Cr3 Se1 2.521697 1_545
Cr3 Se6 2.521697 1_555
Cr3 Se0 2.521702 1_555
Cr3 Se7 2.521702 1_545
Cu0 Se7 2.371219 1_555
Cu0 Se3 2.371223 1_565
Cu0 Se2 2.371225 1_655
Cu0 Se1 2.371225 1_556
Cu1 Se0 2.371219 1_555
Cu1 Se5 2.371223 1_545
Cu1 Se4 2.371225 1_455
Cu1 Se6 2.371225 1_554
