# generated using pymatgen
data_Mn3Cu3O8
_symmetry_space_group_name_H-M   'P 1'
_cell_length_a   5.88277933
_cell_length_b   5.88278011
_cell_length_c   5.88277992
_cell_angle_alpha   58.86954346
_cell_angle_beta   58.86953871
_cell_angle_gamma   58.86954145
_symmetry_Int_Tables_number   1
_chemical_formula_structural   Mn3Cu3O8
_chemical_formula_sum   'Mn3 Cu3 O8'
_cell_volume   140.24206463
_cell_formula_units_Z   1
loop_
 _symmetry_equiv_pos_site_id
 _symmetry_equiv_pos_as_xyz
  1  'x, y, z'
loop_
 _atom_site_type_symbol
 _atom_site_label
 _atom_site_symmetry_multiplicity
 _atom_site_fract_x
 _atom_site_fract_y
 _atom_site_fract_z
 _atom_site_occupancy
  Mn  Mn0  1  0.12500000  0.62500000  0.62500000  1
  Mn  Mn1  1  0.62500000  0.12500000  0.62500000  1
  Mn  Mn2  1  0.62500000  0.62500000  0.12500000  1
  Cu  Cu0  1  -0.00038327  -0.00038327  -0.00038327  1
  Cu  Cu1  1  0.25038327  0.25038327  0.25038327  1
  Cu  Cu2  1  0.62500000  0.62500000  0.62500000  1
  O  O0  1  0.38697752  0.38697752  0.38697752  1
  O  O1  1  0.37741501  0.37741501  0.83517076  1
  O  O2  1  0.37741501  0.83517076  0.37741501  1
  O  O3  1  0.83517076  0.37741501  0.37741501  1
  O  O4  1  0.41482924  0.87258499  0.87258499  1
  O  O5  1  0.87258499  0.41482924  0.87258499  1
  O  O6  1  0.87258499  0.87258499  0.41482924  1
  O  O7  1  0.86302248  0.86302248  0.86302248  1
loop_
_geom_bond_atom_site_label_1
_geom_bond_atom_site_label_2
_geom_bond_distance
_geom_bond_site_symmetry_2
Mn0 O5 1.911817 1_455
Mn0 O2 1.911817 1_555
Mn0 O6 1.911818 1_455
Mn0 O1 1.911818 1_555
Mn0 O0 1.964979 1_555
Mn0 O7 1.964979 1_455
Mn1 O4 1.911818 1_545
Mn1 O3 1.911818 1_555
Mn1 O1 1.911818 1_555
Mn1 O6 1.911818 1_545
Mn1 O0 1.964979 1_555
Mn1 O7 1.964979 1_545
Mn2 O2 1.911818 1_555
Mn2 O5 1.911818 1_554
Mn2 O3 1.911818 1_555
Mn2 O4 1.911818 1_554
Mn2 O0 1.964979 1_555
Mn2 O7 1.964979 1_554
Cu0 O4 1.971269 1_544
Cu0 O6 1.971270 1_445
Cu0 O5 1.971270 1_454
Cu0 O7 1.984946 1_444
Cu1 O3 1.971269 1_455
Cu1 O1 1.971270 1_554
Cu1 O2 1.971270 1_545
Cu1 O0 1.984946 1_555
Cu2 O6 2.059336 1_555
Cu2 O1 2.059336 1_555
Cu2 O2 2.059336 1_555
Cu2 O5 2.059336 1_555
Cu2 O3 2.059336 1_555
Cu2 O4 2.059336 1_555
