# generated using pymatgen
data_LiPd4Pt3
_symmetry_space_group_name_H-M   'P 1'
_cell_length_a   5.48099772
_cell_length_b   5.52321149
_cell_length_c   5.47885821
_cell_angle_alpha   59.92498074
_cell_angle_beta   59.98708267
_cell_angle_gamma   60.25250926
_symmetry_Int_Tables_number   1
_chemical_formula_structural   LiPd4Pt3
_chemical_formula_sum   'Li1 Pd4 Pt3'
_cell_volume   117.42430127
_cell_formula_units_Z   1
loop_
 _symmetry_equiv_pos_site_id
 _symmetry_equiv_pos_as_xyz
  1  'x, y, z'
loop_
 _atom_site_type_symbol
 _atom_site_label
 _atom_site_symmetry_multiplicity
 _atom_site_fract_x
 _atom_site_fract_y
 _atom_site_fract_z
 _atom_site_occupancy
  Li  Li0  1  0.00000000  0.00000000  0.00000000  1
  Pd  Pd0  1  0.49999900  0.00000000  0.00000000  1
  Pd  Pd1  1  0.00000000  0.50000100  0.50000100  1
  Pd  Pd2  1  0.00000000  0.00000000  0.49999900  1
  Pd  Pd3  1  0.50000100  0.00000000  0.50000100  1
  Pt  Pt0  1  0.50000100  0.50000100  0.00000000  1
  Pt  Pt1  1  0.00000000  0.49999900  0.00000000  1
  Pt  Pt2  1  0.50000100  0.50000100  0.50000100  1
loop_
_geom_bond_atom_site_label_1
_geom_bond_atom_site_label_2
_geom_bond_distance
_geom_bond_site_symmetry_2
Li0 Pd2 2.739424 1_555
Li0 Pd3 2.739429 1_455
Li0 Pd3 2.739429 1_554
Li0 Pd2 2.739435 1_554
Li0 Pd0 2.740493 1_555
Li0 Pd0 2.740504 1_455
Li0 Pd1 2.747465 1_545
Li0 Pd1 2.747465 1_554
Li0 Pt1 2.761600 1_555
Li0 Pt0 2.761606 1_545
Li0 Pt0 2.761606 1_455
Li0 Pt1 2.761611 1_545
Pd0 Pd3 2.739418 1_554
Pd0 Pd2 2.739424 1_555
Pd0 Pd2 2.739435 1_654
Pd0 Pd3 2.739440 1_555
Pd0 Pt2 2.747465 1_545
Pd0 Pt2 2.747465 1_554
Pd0 Pt0 2.761595 1_545
Pd0 Pt1 2.761600 1_555
Pd0 Pt1 2.761611 1_645
Pd0 Pt0 2.761617 1_555
Pd1 Pt1 2.739418 1_556
Pd1 Pt0 2.739424 1_456
Pd1 Pt0 2.739435 1_555
Pd1 Pt1 2.739440 1_555
Pd1 Pt2 2.740493 1_455
Pd1 Pt2 2.740504 1_555
Pd1 Pd2 2.761595 1_565
Pd1 Pd3 2.761600 1_465
Pd1 Pd3 2.761611 1_555
Pd1 Pd2 2.761617 1_555
Pd2 Pd3 2.740488 1_455
Pd2 Pd3 2.740510 1_555
Pd2 Pt1 2.747460 1_555
Pd2 Pt1 2.747471 1_546
Pd2 Pt2 2.761606 1_545
Pd2 Pt2 2.761606 1_455
Pd3 Pt0 2.747460 1_546
Pd3 Pt0 2.747471 1_555
Pd3 Pt2 2.761600 1_545
Pd3 Pt2 2.761611 1_555
Pt0 Pt2 2.739424 1_554
Pt0 Pt2 2.739435 1_555
Pt0 Pt1 2.740488 1_655
Pt0 Pt1 2.740510 1_555
Pt1 Pt2 2.739429 1_554
Pt1 Pt2 2.739429 1_455
