# generated using pymatgen
data_LiHf(TcSn4)2
_symmetry_space_group_name_H-M   'P 1'
_cell_length_a   7.38358815
_cell_length_b   7.38358794
_cell_length_c   7.38358775
_cell_angle_alpha   125.22199577
_cell_angle_beta   125.22199650
_cell_angle_gamma   81.17065626
_symmetry_Int_Tables_number   1
_chemical_formula_structural   LiHf(TcSn4)2
_chemical_formula_sum   'Li1 Hf1 Tc2 Sn8'
_cell_volume   258.77703199
_cell_formula_units_Z   1
loop_
 _symmetry_equiv_pos_site_id
 _symmetry_equiv_pos_as_xyz
  1  'x, y, z'
loop_
 _atom_site_type_symbol
 _atom_site_label
 _atom_site_symmetry_multiplicity
 _atom_site_fract_x
 _atom_site_fract_y
 _atom_site_fract_z
 _atom_site_occupancy
  Li  Li0  1  0.00000000  0.00000000  0.00000000  1
  Hf  Hf0  1  0.50000000  0.50000000  0.00000000  1
  Tc  Tc0  1  0.25147346  0.25147346  1.00000000  1
  Tc  Tc1  1  0.74852654  0.74852654  0.00000000  1
  Sn  Sn0  1  0.70945197  0.52281939  0.51016927  1
  Sn  Sn1  1  0.52281939  0.01265012  0.81336742  1
  Sn  Sn2  1  0.19928370  0.70945197  0.18663258  1
  Sn  Sn3  1  0.80071630  0.29054803  0.81336742  1
  Sn  Sn4  1  0.47718061  0.98734988  0.18663258  1
  Sn  Sn5  1  0.29054803  0.47718061  0.48983073  1
  Sn  Sn6  1  0.98734988  0.80071630  0.51016927  1
  Sn  Sn7  1  0.01265012  0.19928370  0.48983073  1
loop_
_geom_bond_atom_site_label_1
_geom_bond_atom_site_label_2
_geom_bond_distance
_geom_bond_site_symmetry_2
Li0 Tc0 2.820213 1_554
Li0 Tc1 2.820213 1_445
Li0 Sn7 2.961142 1_555
Li0 Sn6 2.961142 1_444
Li0 Sn5 2.961143 1_555
Li0 Sn0 2.961143 1_444
Li0 Sn4 2.961143 1_545
Li0 Sn1 2.961143 1_454
Li0 Sn3 2.961144 1_454
Li0 Sn2 2.961144 1_545
Hf0 Tc1 2.787164 1_555
Hf0 Tc0 2.787164 1_554
Hf0 Sn3 3.039348 1_554
Hf0 Sn2 3.039348 1_555
Hf0 Sn6 3.039353 1_555
Hf0 Sn7 3.039353 1_554
Hf0 Sn0 3.039354 1_555
Hf0 Sn5 3.039354 1_554
Hf0 Sn4 3.039355 1_555
Hf0 Sn1 3.039355 1_554
Sn0 Tc1 2.816490 1_556
Sn0 Tc0 2.884372 1_554
Sn0 Sn7 3.012172 1_655
Sn0 Sn5 3.070612 1_555
Sn0 Sn6 3.116551 1_555
Sn0 Sn4 3.277314 1_545
Sn0 Sn3 3.277316 1_555
Sn1 Tc1 2.816490 1_546
Sn1 Tc0 2.884372 1_555
Sn1 Sn2 3.012176 1_545
Sn1 Sn4 3.070612 1_546
Sn1 Sn3 3.116551 1_555
Sn1 Sn5 3.277314 1_545
Sn1 Sn6 3.277316 1_445
Sn2 Tc1 2.816497 1_455
Sn2 Tc0 2.884371 1_554
Sn2 Sn3 3.070620 1_454
Sn2 Sn4 3.116551 1_555
Sn2 Sn5 3.277316 1_555
Sn2 Sn6 3.277323 1_455
Sn3 Tc0 2.816497 1_655
Sn3 Tc1 2.884371 1_556
Sn3 Sn4 3.012176 1_545
Sn3 Sn7 3.277323 1_655
Sn4 Tc0 2.816490 1_564
Sn4 Tc1 2.884372 1_555
Sn4 Sn7 3.277316 1_665
Sn5 Tc0 2.816490 1_554
Sn5 Tc1 2.884372 1_556
Sn5 Sn6 3.012172 1_455
Sn5 Sn7 3.116551 1_555
Sn6 Tc0 2.816494 1_665
Sn6 Tc1 2.884376 1_555
Sn6 Sn7 3.070626 1_665
Sn7 Tc1 2.816494 1_445
Sn7 Tc0 2.884376 1_555
