# generated using pymatgen
data_Sr10Sn5PbF2
_symmetry_space_group_name_H-M   'P 1'
_cell_length_a   8.60479873
_cell_length_b   8.60475727
_cell_length_c   10.09525244
_cell_angle_alpha   115.25382872
_cell_angle_beta   115.22541467
_cell_angle_gamma   89.99998855
_symmetry_Int_Tables_number   1
_chemical_formula_structural   Sr10Sn5PbF2
_chemical_formula_sum   'Sr10 Sn5 Pb1 F2'
_cell_volume   596.27579316
_cell_formula_units_Z   1
loop_
 _symmetry_equiv_pos_site_id
 _symmetry_equiv_pos_as_xyz
  1  'x, y, z'
loop_
 _atom_site_type_symbol
 _atom_site_label
 _atom_site_symmetry_multiplicity
 _atom_site_fract_x
 _atom_site_fract_y
 _atom_site_fract_z
 _atom_site_occupancy
  Sr  Sr0  1  0.00106865  0.00108421  0.00214719  1
  Sr  Sr1  1  0.49892146  0.49891579  0.99785281  1
  Sr  Sr2  1  0.48976662  0.31170529  0.30387461  1
  Sr  Sr3  1  0.99220481  0.48980079  0.30397410  1
  Sr  Sr4  1  0.31176829  0.81404163  0.30387724  1
  Sr  Sr5  1  0.81411143  0.99214731  0.30398370  1
  Sr  Sr6  1  0.18822972  0.01019921  0.69602590  1
  Sr  Sr7  1  0.68589201  0.18829471  0.69612539  1
  Sr  Sr8  1  0.01012773  0.50785269  0.69601630  1
  Sr  Sr9  1  0.50789005  0.68595837  0.69612276  1
  Sn  Sn0  1  0.62043951  0.12041756  0.99993576  1
  Sn  Sn1  1  0.12050275  0.37958344  0.00006424  1
  Sn  Sn2  1  0.87948951  0.62045921  0.99994016  1
  Sn  Sn3  1  0.37955034  0.87954079  0.00005984  1
  Sn  Sn4  1  0.24999454  0.25000000  0.50000000  1
  Pb  Pb0  1  0.75002601  0.75000000  0.50000000  1
  F  F0  1  0.75002159  0.25000000  0.50000000  1
  F  F1  1  0.24999598  0.75000000  0.50000000  1
loop_
_geom_bond_atom_site_label_1
_geom_bond_atom_site_label_2
_geom_bond_distance
_geom_bond_site_symmetry_2
Sn0 Sn3 2.932059 1_546
Sn0 Sr0 3.426266 1_656
Sn0 Sr1 3.426485 1_555
Sn0 Sr6 3.454773 1_555
Sn0 Sr5 3.456532 1_546
Sn0 Sr9 3.464872 1_545
Sn0 Sr2 3.466939 1_556
Sn0 Sr3 3.614351 1_556
Sn0 Sr7 3.614681 1_555
Sn1 Sn2 2.932052 1_454
Sn1 Sr1 3.426272 1_554
Sn1 Sr0 3.426491 1_555
Sn1 Sr3 3.454762 1_455
Sn1 Sr8 3.456527 1_554
Sn1 Sr4 3.464868 1_555
Sn1 Sr7 3.466934 1_454
Sn1 Sr6 3.614355 1_554
Sn1 Sr2 3.614690 1_555
Sn2 Sr0 3.426320 1_666
Sn2 Sr1 3.426421 1_555
Sn2 Sr7 3.453086 1_555
Sn2 Sr4 3.454865 1_656
Sn2 Sr8 3.466901 1_655
Sn2 Sr3 3.468762 1_556
Sn2 Sr5 3.614171 1_556
Sn2 Sr9 3.614523 1_555
Sn3 Sr1 3.426317 1_554
Sn3 Sr0 3.426429 1_565
Sn3 Sr2 3.453087 1_565
Sn3 Sr9 3.454853 1_554
Sn3 Sr5 3.466894 1_555
Sn3 Sr6 3.468764 1_564
Sn3 Sr8 3.614176 1_554
Sn3 Sr4 3.614523 1_555
Sn4 Sr8 3.582434 1_555
Sn4 Sr5 3.582435 1_445
Sn4 Sr9 3.582541 1_555
Sn4 Sr4 3.582544 1_545
Sn4 Sr3 3.582874 1_455
Sn4 Sr6 3.582878 1_555
Sn4 Sr7 3.582973 1_555
Sn4 Sr2 3.582973 1_555
Sn4 Sr1 4.009303 1_555
Sn4 Sr0 4.009303 1_555
Pb0 Sr6 3.606404 1_665
Pb0 Sr3 3.606411 1_555
Pb0 Sr7 3.606689 1_565
Pb0 Sr2 3.606689 1_555
Pb0 Sr8 3.606875 1_655
Pb0 Sr5 3.606875 1_555
Pb0 Sr4 3.607197 1_555
Pb0 Sr9 3.607204 1_555
Pb0 Sr1 4.043886 1_554
Pb0 Sr0 4.043886 1_666
F0 Sr5 2.515293 1_545
F0 Sr8 2.515294 1_655
F0 Sr2 2.516910 1_555
F0 Sr7 2.516910 1_555
F1 Sr3 2.515444 1_455
F1 Sr6 2.515449 1_565
F1 Sr9 2.516782 1_555
F1 Sr4 2.516787 1_555
