# generated using pymatgen
data_Fe10SiB4P
_symmetry_space_group_name_H-M   'P 1'
_cell_length_a   6.43972397
_cell_length_b   6.43973079
_cell_length_c   6.44079592
_cell_angle_alpha   129.30644308
_cell_angle_beta   129.30638876
_cell_angle_gamma   74.49975140
_symmetry_Int_Tables_number   1
_chemical_formula_structural   Fe10SiB4P
_chemical_formula_sum   'Fe10 Si1 B4 P1'
_cell_volume   155.85896110
_cell_formula_units_Z   1
loop_
 _symmetry_equiv_pos_site_id
 _symmetry_equiv_pos_as_xyz
  1  'x, y, z'
loop_
 _atom_site_type_symbol
 _atom_site_label
 _atom_site_symmetry_multiplicity
 _atom_site_fract_x
 _atom_site_fract_y
 _atom_site_fract_z
 _atom_site_occupancy
  Fe  Fe0  1  0.49668674  0.49670254  0.00000096  1
  Fe  Fe1  1  0.31107516  0.47226995  0.50619214  1
  Fe  Fe2  1  0.80489275  0.31096219  0.83875528  1
  Fe  Fe3  1  0.69507423  0.53390118  0.50620007  1
  Fe  Fe4  1  0.02773849  0.18893477  0.49382670  1
  Fe  Fe5  1  0.53399084  0.02789014  0.83900301  1
  Fe  Fe6  1  0.18904742  0.69509547  0.16124278  1
  Fe  Fe7  1  0.47212538  0.96600110  0.16100136  1
  Fe  Fe8  1  0.00329819  0.00331410  0.99999759  1
  Fe  Fe9  1  0.96608377  0.80491494  0.49377387  1
  Si  Si0  1  0.25001653  0.24998470  0.00000016  1
  B  B0  1  0.88303951  0.38304514  0.26611293  1
  B  B1  1  0.38306144  0.11694374  0.50000596  1
  B  B2  1  0.11696167  0.61695452  0.73388923  1
  B  B3  1  0.61691196  0.88308024  0.49999315  1
  P  P0  1  0.74999593  0.75000528  0.00000482  1
loop_
_geom_bond_atom_site_label_1
_geom_bond_atom_site_label_2
_geom_bond_distance
_geom_bond_site_symmetry_2
Fe0 Fe6 2.491671 1_555
Fe0 Fe5 2.491827 1_554
Fe0 Fe7 2.493116 1_555
Fe0 Fe4 2.493171 1_554
Fe0 Fe3 2.493238 1_555
Fe0 Fe2 2.493465 1_554
Fe0 Fe1 2.493848 1_554
Fe0 Fe9 2.494186 1_555
Fe0 Si0 2.529125 1_555
Fe0 P0 2.596895 1_555
Fe1 P0 2.325812 1_556
Fe1 Si0 2.365812 1_555
Fe1 Fe8 2.493222 1_554
Fe2 P0 2.325528 1_556
Fe2 Si0 2.364929 1_656
Fe2 Fe8 2.491731 1_655
Fe3 P0 2.325430 1_556
Fe3 Si0 2.365760 1_555
Fe3 Fe8 2.494274 1_665
Fe4 P0 2.325861 1_445
Fe4 Si0 2.365748 1_556
Fe4 Fe8 2.493920 1_554
Fe5 P0 2.325005 1_546
Fe5 Si0 2.364444 1_556
Fe5 Fe8 2.493179 1_655
Fe6 P0 2.325600 1_455
Fe6 Si0 2.364852 1_555
Fe6 Fe8 2.493542 1_564
Fe7 P0 2.324895 1_555
Fe7 Si0 2.364525 1_565
Fe7 Fe8 2.491904 1_564
Fe8 Fe9 2.493301 1_445
Fe8 Si0 2.529120 1_556
Fe8 P0 2.596948 1_446
Fe9 P0 2.325293 1_555
Fe9 Si0 2.365846 1_666
B0 B2 1.824421 1_655
B0 Fe4 2.133218 1_655
B0 Fe9 2.133728 1_555
B0 Fe3 2.154021 1_555
B0 Fe1 2.154057 1_655
B0 Fe5 2.189407 1_554
B0 Fe2 2.190036 1_554
B0 Fe8 2.208320 1_654
B0 Fe0 2.208383 1_555
B1 B3 1.823110 1_545
B1 Fe2 2.133559 1_555
B1 Fe6 2.133624 1_545
B1 Fe5 2.154224 1_555
B1 Fe7 2.154296 1_545
B1 Fe4 2.189361 1_555
B1 Fe1 2.189363 1_555
B1 Fe0 2.209089 1_556
B1 Fe8 2.209137 1_554
B2 Fe1 2.133165 1_555
B2 Fe3 2.133787 1_455
B2 Fe4 2.153993 1_555
B2 Fe9 2.154117 1_455
B2 Fe7 2.189428 1_556
B2 Fe6 2.190019 1_556
B2 Fe0 2.208270 1_556
B2 Fe8 2.208421 1_565
B3 Fe7 2.133885 1_555
B3 Fe5 2.133948 1_565
B3 Fe6 2.153558 1_555
B3 Fe2 2.153629 1_565
B3 Fe9 2.189671 1_555
B3 Fe3 2.189679 1_555
B3 Fe0 2.209120 1_555
B3 Fe8 2.209163 1_665
