# generated using pymatgen
data_CuReN2
_symmetry_space_group_name_H-M   'P 1'
_cell_length_a   2.83354680
_cell_length_b   4.90807153
_cell_length_c   12.42383669
_cell_angle_alpha   90.00000000
_cell_angle_beta   90.00000000
_cell_angle_gamma   29.99542082
_symmetry_Int_Tables_number   1
_chemical_formula_structural   CuReN2
_chemical_formula_sum   'Cu2 Re2 N4'
_cell_volume   86.37874459
_cell_formula_units_Z   2
loop_
 _symmetry_equiv_pos_site_id
 _symmetry_equiv_pos_as_xyz
  1  'x, y, z'
loop_
 _atom_site_type_symbol
 _atom_site_label
 _atom_site_symmetry_multiplicity
 _atom_site_fract_x
 _atom_site_fract_y
 _atom_site_fract_z
 _atom_site_occupancy
  Cu  Cu0  1  0.00000000  0.00000000  0.50000000  1
  Cu  Cu1  1  0.00000000  0.00000000  0.00000000  1
  Re  Re0  1  1.00000000  0.33019743  0.25000000  1
  Re  Re1  1  0.00000000  0.66980257  0.75000000  1
  N  N0  1  1.00000000  0.00311507  0.65020070  1
  N  N1  1  0.00000000  0.99688493  0.34979930  1
  N  N2  1  1.00000000  0.00311507  0.84979930  1
  N  N3  1  0.00000000  0.99688493  0.15020070  1
loop_
_geom_bond_atom_site_label_1
_geom_bond_atom_site_label_2
_geom_bond_distance
_geom_bond_site_symmetry_2
Cu0 N0 1.866132 1_455
Cu0 N1 1.866132 1_545
Cu1 N3 1.866132 1_545
Cu1 N2 1.866132 1_454
N0 Re1 2.052639 1_555
N0 Re1 2.052640 1_745
N0 Re1 2.052698 1_645
N1 Re0 2.052639 1_555
N1 Re0 2.052640 1_365
N1 Re0 2.052698 1_465
N2 Re1 2.052639 1_555
N2 Re1 2.052640 1_745
N2 Re1 2.052698 1_645
N3 Re0 2.052639 1_555
N3 Re0 2.052640 1_365
N3 Re0 2.052698 1_465
