# generated using pymatgen
data_YScBr18
_symmetry_space_group_name_H-M   'P 1'
_cell_length_a   9.18412453
_cell_length_b   9.18412241
_cell_length_c   9.18412391
_cell_angle_alpha   89.24088373
_cell_angle_beta   89.24088163
_cell_angle_gamma   89.24088422
_symmetry_Int_Tables_number   1
_chemical_formula_structural   YScBr18
_chemical_formula_sum   'Y1 Sc1 Br18'
_cell_volume   774.46143385
_cell_formula_units_Z   1
loop_
 _symmetry_equiv_pos_site_id
 _symmetry_equiv_pos_as_xyz
  1  'x, y, z'
loop_
 _atom_site_type_symbol
 _atom_site_label
 _atom_site_symmetry_multiplicity
 _atom_site_fract_x
 _atom_site_fract_y
 _atom_site_fract_z
 _atom_site_occupancy
  Y  Y0  1  0.50000000  0.50000000  0.50000000  1
  Sc  Sc0  1  0.00000000  0.00000000  0.00000000  1
  Br  Br0  1  0.28872966  0.98595275  0.02495272  1
  Br  Br1  1  0.02495272  0.28872966  0.98595275  1
  Br  Br2  1  0.98595275  0.02495272  0.28872966  1
  Br  Br3  1  0.71127034  0.01404725  0.97504728  1
  Br  Br4  1  0.97504728  0.71127034  0.01404725  1
  Br  Br5  1  0.01404725  0.97504728  0.71127034  1
  Br  Br6  1  0.62711589  0.24923640  0.09891124  1
  Br  Br7  1  0.09891124  0.62711589  0.24923640  1
  Br  Br8  1  0.24923640  0.09891124  0.62711589  1
  Br  Br9  1  0.37288411  0.75076360  0.90108876  1
  Br  Br10  1  0.90108876  0.37288411  0.75076360  1
  Br  Br11  1  0.75076360  0.90108876  0.37288411  1
  Br  Br12  1  0.49464084  0.19688599  0.53896377  1
  Br  Br13  1  0.53896377  0.49464084  0.19688599  1
  Br  Br14  1  0.19688599  0.53896377  0.49464084  1
  Br  Br15  1  0.50535916  0.80311401  0.46103623  1
  Br  Br16  1  0.46103623  0.50535916  0.80311401  1
  Br  Br17  1  0.80311401  0.46103623  0.50535916  1
loop_
_geom_bond_atom_site_label_1
_geom_bond_atom_site_label_2
_geom_bond_distance
_geom_bond_site_symmetry_2
Br0 Br9 2.560204 1_554
Br0 Sc0 2.665911 1_565
Br1 Br10 2.560205 1_455
Br1 Sc0 2.665911 1_556
Br2 Sc0 2.665911 1_655
Br3 Br6 2.560204 1_556
Br3 Sc0 2.665911 1_656
Br4 Br7 2.560205 1_655
Br4 Sc0 2.665911 1_665
Br5 Br8 2.560205 1_565
Br5 Sc0 2.665911 1_566
Br10 Br17 2.555567 1_555
Br11 Br15 2.555568 1_555
Br11 Br2 2.560205 1_565
Br12 Br8 2.555568 1_555
Br12 Y0 2.803032 1_555
Br13 Br6 2.555567 1_555
Br13 Y0 2.803033 1_555
Br14 Br7 2.555567 1_555
Br14 Y0 2.803033 1_555
Br15 Y0 2.803032 1_555
Br16 Br9 2.555567 1_555
Br16 Y0 2.803033 1_555
Br17 Y0 2.803033 1_555
