# generated using pymatgen
data_K4Ba(GeSe3)2
_symmetry_space_group_name_H-M   'P 1'
_cell_length_a   7.64463040
_cell_length_b   7.64463014
_cell_length_c   8.70087746
_cell_angle_alpha   81.45620631
_cell_angle_beta   81.45621116
_cell_angle_gamma   119.67566687
_symmetry_Int_Tables_number   1
_chemical_formula_structural   K4Ba(GeSe3)2
_chemical_formula_sum   'K4 Ba1 Ge2 Se6'
_cell_volume   422.03681250
_cell_formula_units_Z   1
loop_
 _symmetry_equiv_pos_site_id
 _symmetry_equiv_pos_as_xyz
  1  'x, y, z'
loop_
 _atom_site_type_symbol
 _atom_site_label
 _atom_site_symmetry_multiplicity
 _atom_site_fract_x
 _atom_site_fract_y
 _atom_site_fract_z
 _atom_site_occupancy
  K  K0  1  0.82137610  0.17862390  0.00000000  1
  K  K1  1  0.17460396  0.82539604  1.00000000  1
  K  K2  1  0.50373257  0.49626743  1.00000000  1
  K  K3  1  0.66632488  0.33367512  0.50000000  1
  Ba  Ba0  1  0.33505804  0.66494196  0.50000000  1
  Ge  Ge0  1  0.04840804  0.04907223  0.35137795  1
  Ge  Ge1  1  0.95092777  0.95159196  0.64862205  1
  Se  Se0  1  0.08472209  0.37823809  0.26261221  1
  Se  Se1  1  0.37160137  0.07194560  0.26450968  1
  Se  Se2  1  0.92805440  0.62839863  0.73549032  1
  Se  Se3  1  0.62176191  0.91527791  0.73738779  1
  Se  Se4  1  0.78328316  0.78985530  0.26033263  1
  Se  Se5  1  0.21014470  0.21671684  0.73966737  1
loop_
_geom_bond_atom_site_label_1
_geom_bond_atom_site_label_2
_geom_bond_distance
_geom_bond_site_symmetry_2
K0 Se0 3.311115 1_655
K0 Se3 3.311115 1_544
K0 Se4 3.315886 1_545
K0 Se5 3.315886 1_654
K0 Se2 3.478317 1_554
K0 Se1 3.478317 1_555
K1 Se2 3.259642 1_455
K1 Se1 3.259642 1_566
K1 Se5 3.339556 1_565
K1 Se4 3.339556 1_456
K1 Se0 3.502179 1_556
K1 Se3 3.502179 1_555
K2 Se3 3.262878 1_555
K2 Se0 3.262878 1_556
K2 Se1 3.268924 1_556
K2 Se2 3.268924 1_555
K2 Se5 3.596473 1_555
K2 Se4 3.596473 1_556
K3 Se3 3.370705 1_545
K3 Se0 3.370706 1_655
K3 Se1 3.376974 1_555
K3 Se2 3.376974 1_555
K3 Se4 3.392231 1_555
K3 Se5 3.392231 1_555
Ba0 Se1 3.321460 1_565
Ba0 Se2 3.321460 1_455
Ba0 Se5 3.323662 1_555
Ba0 Se4 3.323662 1_555
Ba0 Se3 3.331471 1_555
Ba0 Se0 3.331471 1_555
Ge0 Se4 2.372514 1_445
Ge0 Se0 2.381749 1_555
Ge0 Se1 2.384169 1_555
Ge0 Ge1 2.470693 1_445
Ge1 Se5 2.372514 1_665
Ge1 Se3 2.381749 1_555
Ge1 Se2 2.384169 1_555
