# generated using pymatgen
data_K2Na3InSe4
_symmetry_space_group_name_H-M   'P 1'
_cell_length_a   9.35787875
_cell_length_b   7.78717463
_cell_length_c   8.11382751
_cell_angle_alpha   89.85563948
_cell_angle_beta   90.00000000
_cell_angle_gamma   90.00000000
_symmetry_Int_Tables_number   1
_chemical_formula_structural   K2Na3InSe4
_chemical_formula_sum   'K4 Na6 In2 Se8'
_cell_volume   591.26438506
_cell_formula_units_Z   2
loop_
 _symmetry_equiv_pos_site_id
 _symmetry_equiv_pos_as_xyz
  1  'x, y, z'
loop_
 _atom_site_type_symbol
 _atom_site_label
 _atom_site_symmetry_multiplicity
 _atom_site_fract_x
 _atom_site_fract_y
 _atom_site_fract_z
 _atom_site_occupancy
  K  K0  1  0.75000000  0.01429931  0.49614006  1
  K  K1  1  0.25000000  0.98570069  0.50385994  1
  K  K2  1  0.00000000  0.00000000  0.00000000  1
  K  K3  1  0.50000000  0.00000000  0.00000000  1
  Na  Na0  1  0.48571352  0.36792590  0.66576659  1
  Na  Na1  1  0.98571352  0.63207410  0.33423341  1
  Na  Na2  1  0.51428648  0.63207410  0.33423341  1
  Na  Na3  1  0.01428648  0.36792590  0.66576659  1
  Na  Na4  1  0.75000000  0.35973740  0.16142861  1
  Na  Na5  1  0.25000000  0.64026260  0.83857139  1
  In  In0  1  0.25000000  0.37130356  0.17349237  1
  In  In1  1  0.75000000  0.62869644  0.82650763  1
  Se  Se0  1  0.25000000  0.26398708  0.86693994  1
  Se  Se1  1  0.75000000  0.73601292  0.13306006  1
  Se  Se2  1  0.97975213  0.74231442  0.67418946  1
  Se  Se3  1  0.47975213  0.25768558  0.32581054  1
  Se  Se4  1  0.02024787  0.25768558  0.32581054  1
  Se  Se5  1  0.52024787  0.74231442  0.67418946  1
  Se  Se6  1  0.75000000  0.29027767  0.81942048  1
  Se  Se7  1  0.25000000  0.70972233  0.18057952  1
loop_
_geom_bond_atom_site_label_1
_geom_bond_atom_site_label_2
_geom_bond_distance
_geom_bond_site_symmetry_2
K0 Se2 3.343650 1_545
K0 Se5 3.343650 1_545
K0 Se6 3.395195 1_555
K0 Se4 3.447389 1_655
K0 Se3 3.447389 1_555
K0 Se1 3.661567 1_545
K1 Se3 3.343650 1_565
K1 Se4 3.343650 1_565
K1 Se7 3.395195 1_555
K1 Se5 3.447389 1_555
K1 Se2 3.447389 1_455
K1 Se0 3.661567 1_565
K2 Se0 3.294463 1_554
K2 Se1 3.294463 1_445
K2 Se4 3.328320 1_555
K2 Se2 3.328320 1_444
K2 Se6 3.565504 1_454
K2 Se7 3.565504 1_545
K3 Se0 3.294463 1_554
K3 Se1 3.294463 1_545
K3 Se3 3.328320 1_555
K3 Se5 3.328320 1_544
K3 Se6 3.565504 1_554
K3 Se7 3.565504 1_545
Na0 Se6 2.834194 1_555
Na0 Se0 2.859767 1_555
Na0 Se3 2.891447 1_555
Na0 Se5 2.934252 1_555
Na1 Se7 2.834194 1_655
Na1 Se1 2.859767 1_555
Na1 Se2 2.891447 1_555
Na1 Se4 2.934252 1_655
Na2 Se7 2.834194 1_555
Na2 Se1 2.859767 1_555
Na2 Se5 2.891447 1_555
Na2 Se3 2.934252 1_555
Na3 Se6 2.834194 1_455
Na3 Se0 2.859767 1_555
Na3 Se4 2.891447 1_555
Na3 Se2 2.934252 1_455
Na4 Se6 2.828556 1_554
Na4 Se1 2.938572 1_555
Na4 Se4 2.966598 1_655
Na4 Se3 2.966598 1_555
Na5 Se7 2.828556 1_556
Na5 Se0 2.938572 1_555
Na5 Se5 2.966598 1_555
Na5 Se2 2.966598 1_455
In0 Se0 2.625944 1_554
In0 Se3 2.631952 1_555
In0 Se4 2.631952 1_555
In0 Se7 2.636098 1_555
In1 Se1 2.625944 1_556
In1 Se2 2.631952 1_555
In1 Se5 2.631952 1_555
In1 Se6 2.636098 1_555
