# generated using pymatgen
data_Ba2TaMoO6
_symmetry_space_group_name_H-M   'P 1'
_cell_length_a   5.82446174
_cell_length_b   5.82446968
_cell_length_c   5.82447002
_cell_angle_alpha   89.99996796
_cell_angle_beta   120.00006195
_cell_angle_gamma   120.00006181
_symmetry_Int_Tables_number   1
_chemical_formula_structural   Ba2TaMoO6
_chemical_formula_sum   'Ba2 Ta1 Mo1 O6'
_cell_volume   139.71817718
_cell_formula_units_Z   1
loop_
 _symmetry_equiv_pos_site_id
 _symmetry_equiv_pos_as_xyz
  1  'x, y, z'
loop_
 _atom_site_type_symbol
 _atom_site_label
 _atom_site_symmetry_multiplicity
 _atom_site_fract_x
 _atom_site_fract_y
 _atom_site_fract_z
 _atom_site_occupancy
  Ba  Ba0  1  0.50000100  0.75000100  0.24999900  1
  Ba  Ba1  1  0.50000000  0.25000000  0.75000000  1
  Ta  Ta0  1  0.00000000  0.50000000  0.49999900  1
  Mo  Mo0  1  0.00000000  0.00000000  0.00000000  1
  O  O0  1  0.51405902  0.25702951  0.25702851  1
  O  O1  1  0.00000000  0.74296849  0.25702851  1
  O  O2  1  0.00000000  0.25703051  0.25702951  1
  O  O3  1  1.00000000  0.74296849  0.74296849  1
  O  O4  1  0.48593498  0.74296749  0.74296749  1
  O  O5  1  1.00000000  0.25702951  0.74296949  1
loop_
_geom_bond_atom_site_label_1
_geom_bond_atom_site_label_2
_geom_bond_distance
_geom_bond_site_symmetry_2
Ba0 O2 2.912800 1_665
Ba0 O4 2.912802 1_554
Ba0 O3 2.912803 1_454
Ba0 O5 2.912804 1_565
Ba0 O1 2.912804 1_555
Ba0 O0 2.912807 1_565
Ba0 O3 2.912809 1_555
Ba0 O5 2.912810 1_454
Ba0 O1 2.912810 1_655
Ba0 O2 2.912812 1_555
Ba0 O0 2.912813 1_555
Ba0 O4 2.912820 1_555
Ba1 O1 2.912798 1_656
Ba1 O2 2.912803 1_656
Ba1 O5 2.912804 1_455
Ba1 O0 2.912805 1_556
Ba1 O3 2.912806 1_555
Ba1 O3 2.912806 1_445
Ba1 O2 2.912809 1_555
Ba1 O5 2.912809 1_555
Ba1 O4 2.912811 1_555
Ba1 O4 2.912811 1_545
Ba1 O1 2.912815 1_545
Ba1 O0 2.912816 1_555
Mo0 O0 2.117157 1_555
Mo0 O5 2.117167 1_454
Mo0 O1 2.117167 1_545
Mo0 O2 2.117168 1_555
Mo0 O3 2.117181 1_444
Mo0 O4 2.117182 1_444
O0 Ta0 2.001353 1_655
O1 Ta0 2.001350 1_555
O2 Ta0 2.001351 1_555
O3 Ta0 2.001347 1_655
O4 Ta0 2.001328 1_555
O5 Ta0 2.001358 1_655
