# generated using pymatgen
data_LiMgN
_symmetry_space_group_name_H-M   'P 1'
_cell_length_a   3.48231532
_cell_length_b   4.98305270
_cell_length_c   7.11871738
_cell_angle_alpha   90.00000000
_cell_angle_beta   90.00000000
_cell_angle_gamma   90.00000000
_symmetry_Int_Tables_number   1
_chemical_formula_structural   LiMgN
_chemical_formula_sum   'Li4 Mg4 N4'
_cell_volume   123.52797585
_cell_formula_units_Z   4
loop_
 _symmetry_equiv_pos_site_id
 _symmetry_equiv_pos_as_xyz
  1  'x, y, z'
loop_
 _atom_site_type_symbol
 _atom_site_label
 _atom_site_symmetry_multiplicity
 _atom_site_fract_x
 _atom_site_fract_y
 _atom_site_fract_z
 _atom_site_occupancy
  Li  Li0  1  0.25000000  0.52657313  0.09664967  1
  Li  Li1  1  0.75000000  0.47342687  0.90335033  1
  Li  Li2  1  0.75000000  0.02657313  0.40335033  1
  Li  Li3  1  0.25000000  0.97342687  0.59664967  1
  Mg  Mg0  1  0.25000000  0.48136046  0.64385640  1
  Mg  Mg1  1  0.75000000  0.98136046  0.85614360  1
  Mg  Mg2  1  0.25000000  0.01863954  0.14385640  1
  Mg  Mg3  1  0.75000000  0.51863954  0.35614360  1
  N  N0  1  0.75000000  0.76859802  0.12024214  1
  N  N1  1  0.75000000  0.73140198  0.62024214  1
  N  N2  1  0.25000000  0.23140198  0.87975786  1
  N  N3  1  0.25000000  0.26859802  0.37975786  1
loop_
_geom_bond_atom_site_label_1
_geom_bond_atom_site_label_2
_geom_bond_distance
_geom_bond_site_symmetry_2
Li0 N0 2.124695 1_455
Li0 N0 2.124695 1_555
Li0 N2 2.132444 1_554
Li0 N3 2.390444 1_555
Li1 N2 2.124695 1_555
Li1 N2 2.124695 1_655
Li1 N0 2.132444 1_556
Li1 N1 2.390444 1_555
Li2 N3 2.124695 1_555
Li2 N3 2.124695 1_655
Li2 N1 2.132444 1_545
Li2 N0 2.390444 1_545
Li3 N1 2.124695 1_555
Li3 N1 2.124695 1_455
Li3 N3 2.132444 1_565
Li3 N2 2.390444 1_565
Mg0 N2 2.090816 1_555
Mg0 N1 2.147634 1_455
Mg0 N1 2.147634 1_555
Mg0 N3 2.158379 1_555
Mg1 N1 2.090816 1_555
Mg1 N2 2.147634 1_565
Mg1 N2 2.147634 1_665
Mg1 N0 2.158379 1_556
Mg2 N3 2.090816 1_555
Mg2 N0 2.147634 1_445
Mg2 N0 2.147634 1_545
Mg2 N2 2.158379 1_554
Mg3 N0 2.090816 1_555
Mg3 N3 2.147634 1_655
Mg3 N3 2.147634 1_555
Mg3 N1 2.158379 1_555
