# generated using pymatgen
data_Nd4Ge3Rh4
_symmetry_space_group_name_H-M   'P 1'
_cell_length_a   10.93828459
_cell_length_b   10.93828459
_cell_length_c   8.00548279
_cell_angle_alpha   70.67741030
_cell_angle_beta   70.67741030
_cell_angle_gamma   30.18787010
_symmetry_Int_Tables_number   1
_chemical_formula_structural   Nd4Ge3Rh4
_chemical_formula_sum   'Nd8 Ge6 Rh8'
_cell_volume   452.46271912
_cell_formula_units_Z   2
loop_
 _symmetry_equiv_pos_site_id
 _symmetry_equiv_pos_as_xyz
  1  'x, y, z'
loop_
 _atom_site_type_symbol
 _atom_site_label
 _atom_site_symmetry_multiplicity
 _atom_site_fract_x
 _atom_site_fract_y
 _atom_site_fract_z
 _atom_site_occupancy
  Nd  Nd0  1  0.21527158  0.44380366  0.39854694  1
  Nd  Nd1  1  0.55619634  0.78472842  0.10145306  1
  Nd  Nd2  1  0.44380366  0.21527158  0.89854694  1
  Nd  Nd3  1  0.91969587  0.21452341  0.33073996  1
  Nd  Nd4  1  0.78547659  0.08030413  0.16926004  1
  Nd  Nd5  1  0.08030413  0.78547659  0.66926004  1
  Nd  Nd6  1  0.21452341  0.91969587  0.83073996  1
  Nd  Nd7  1  0.78472842  0.55619634  0.60145306  1
  Ge  Ge0  1  0.64336846  0.35663154  0.75000000  1
  Ge  Ge1  1  0.35663154  0.64336846  0.25000000  1
  Ge  Ge2  1  0.29203023  0.05279188  0.43980609  1
  Ge  Ge3  1  0.94720812  0.70796977  0.06019391  1
  Ge  Ge4  1  0.70796977  0.94720812  0.56019391  1
  Ge  Ge5  1  0.05279188  0.29203023  0.93980609  1
  Rh  Rh0  1  0.30285104  0.57333741  0.01699680  1
  Rh  Rh1  1  0.57333741  0.30285104  0.51699680  1
  Rh  Rh2  1  0.69714896  0.42666259  0.98300320  1
  Rh  Rh3  1  0.07133188  0.37013538  0.18399378  1
  Rh  Rh4  1  0.62986462  0.92866812  0.31600622  1
  Rh  Rh5  1  0.42666259  0.69714896  0.48300320  1
  Rh  Rh6  1  0.92866812  0.62986462  0.81600622  1
  Rh  Rh7  1  0.37013538  0.07133188  0.68399378  1
loop_
_geom_bond_atom_site_label_1
_geom_bond_atom_site_label_2
_geom_bond_distance
_geom_bond_site_symmetry_2
Nd0 Rh4 3.009642 1_545
Nd0 Rh7 3.026533 1_555
Nd0 Rh1 3.109217 1_555
Nd0 Rh0 3.130686 1_555
Nd0 Rh3 3.313188 1_555
Nd0 Rh4 3.367258 1_455
Nd0 Rh6 3.417088 1_455
Nd1 Rh3 3.009642 1_655
Nd1 Rh6 3.026533 1_554
Nd1 Rh2 3.109217 1_554
Nd1 Rh5 3.130686 1_555
Nd1 Rh4 3.313188 1_555
Nd1 Rh3 3.367258 1_565
Nd1 Rh7 3.417088 1_564
Nd2 Rh6 3.009642 1_455
Nd2 Rh3 3.026533 1_556
Nd2 Rh0 3.109217 1_556
Nd2 Rh1 3.130686 1_555
Nd2 Rh7 3.313188 1_555
Nd2 Rh6 3.367258 1_545
Nd2 Rh4 3.417088 1_546
Nd3 Rh1 2.897779 1_555
Nd3 Rh5 3.021428 1_555
Nd3 Rh3 3.048985 1_655
Nd3 Rh2 3.082912 1_554
Nd3 Rh5 3.149438 1_645
Nd4 Rh2 2.897779 1_554
Nd4 Rh0 3.021428 1_555
Nd4 Rh4 3.048985 1_545
Nd4 Rh1 3.082912 1_555
Nd4 Rh0 3.149438 1_645
Nd5 Rh5 2.897779 1_555
Nd5 Rh1 3.021428 1_555
Nd5 Rh6 3.048985 1_455
Nd5 Rh0 3.082912 1_556
Nd5 Rh1 3.149438 1_465
Nd6 Rh0 2.897779 1_556
Nd6 Rh2 3.021428 1_555
Nd6 Rh7 3.048985 1_565
Nd6 Rh5 3.082912 1_555
Nd6 Rh2 3.149438 1_465
Nd7 Rh7 3.009642 1_565
Nd7 Rh4 3.026533 1_555
Nd7 Rh5 3.109217 1_555
Nd7 Rh2 3.130686 1_555
Nd7 Rh6 3.313188 1_555
Nd7 Rh7 3.367258 1_655
Nd7 Rh3 3.417088 1_655
Ge0 Rh2 2.619725 1_555
Ge0 Rh1 2.619725 1_555
Ge0 Rh5 2.623325 1_555
Ge0 Rh0 2.623325 1_556
Ge0 Nd5 3.322257 1_555
Ge0 Nd6 3.322257 1_555
Ge0 Nd5 3.361540 1_645
Ge0 Nd6 3.361540 1_645
Ge0 Nd3 3.381433 1_555
Ge0 Nd4 3.381433 1_556
Ge0 Nd7 3.386793 1_555
Ge0 Nd2 3.386793 1_555
Ge1 Rh0 2.619725 1_555
Ge1 Rh5 2.619725 1_555
Ge1 Rh1 2.623325 1_555
Ge1 Rh2 2.623325 1_554
Ge1 Nd3 3.322257 1_555
Ge1 Nd4 3.322257 1_555
Ge1 Nd3 3.361540 1_465
Ge1 Nd4 3.361540 1_465
Ge1 Nd6 3.381433 1_554
Ge1 Nd5 3.381433 1_555
Ge1 Nd1 3.386793 1_555
Ge1 Nd0 3.386793 1_555
Ge2 Rh3 2.480249 1_555
Ge2 Rh7 2.501900 1_555
Ge2 Rh4 2.504876 1_545
Ge2 Rh5 2.639015 1_545
Ge2 Nd3 3.058493 1_455
Ge2 Nd7 3.095176 1_545
Ge2 Nd1 3.116608 1_545
Ge2 Nd7 3.150803 1_455
Ge2 Nd6 3.161550 1_545
Ge3 Rh4 2.480249 1_555
Ge3 Rh6 2.501900 1_554
Ge3 Rh3 2.504876 1_655
Ge3 Rh0 2.639015 1_655
Ge3 Nd4 3.058493 1_565
Ge3 Nd2 3.095176 1_654
Ge3 Nd0 3.116608 1_655
Ge3 Nd2 3.150803 1_564
Ge3 Nd5 3.161550 1_654
Ge4 Rh6 2.480249 1_555
Ge4 Rh4 2.501900 1_555
Ge4 Rh7 2.504876 1_565
Ge4 Rh1 2.639015 1_565
Ge4 Nd5 3.058493 1_655
Ge4 Nd0 3.095176 1_565
Ge4 Nd2 3.116608 1_565
Ge4 Nd0 3.150803 1_655
Ge4 Nd4 3.161550 1_565
Ge5 Rh7 2.480249 1_555
Ge5 Rh3 2.501900 1_556
Ge5 Rh6 2.504876 1_455
Ge5 Rh2 2.639015 1_455
Ge5 Nd6 3.058493 1_545
Ge5 Nd1 3.095176 1_456
Ge5 Nd7 3.116608 1_455
Ge5 Nd1 3.150803 1_546
Ge5 Nd3 3.161550 1_456
