# generated using pymatgen
data_Ca4Al18IrPd5
_symmetry_space_group_name_H-M   'P 1'
_cell_length_a   7.59748622
_cell_length_b   7.59748582
_cell_length_c   9.52679901
_cell_angle_alpha   90.02362026
_cell_angle_beta   90.02361958
_cell_angle_gamma   119.60947309
_symmetry_Int_Tables_number   1
_chemical_formula_structural   Ca4Al18IrPd5
_chemical_formula_sum   'Ca4 Al18 Ir1 Pd5'
_cell_volume   478.09360117
_cell_formula_units_Z   1
loop_
 _symmetry_equiv_pos_site_id
 _symmetry_equiv_pos_as_xyz
  1  'x, y, z'
loop_
 _atom_site_type_symbol
 _atom_site_label
 _atom_site_symmetry_multiplicity
 _atom_site_fract_x
 _atom_site_fract_y
 _atom_site_fract_z
 _atom_site_occupancy
  Ca  Ca0  1  0.99551150  0.66967799  0.25072656  1
  Ca  Ca1  1  0.00448850  0.33032201  0.74927344  1
  Ca  Ca2  1  0.66967799  0.99551150  0.25072656  1
  Ca  Ca3  1  0.33032201  0.00448850  0.74927344  1
  Al  Al0  1  0.12974094  0.12974094  0.25228602  1
  Al  Al1  1  0.87025906  0.87025906  0.74771398  1
  Al  Al2  1  0.00250495  0.33464123  0.07570223  1
  Al  Al3  1  0.99749505  0.66535877  0.92429777  1
  Al  Al4  1  0.99923202  0.66929540  0.57350962  1
  Al  Al5  1  0.33070460  0.00076798  0.42649038  1
  Al  Al6  1  0.00076798  0.33070460  0.42649038  1
  Al  Al7  1  0.66929540  0.99923202  0.57350962  1
  Al  Al8  1  0.66535877  0.99749505  0.92429777  1
  Al  Al9  1  0.33464123  0.00250495  0.07570223  1
  Al  Al10  1  0.33059581  0.33059581  0.54897428  1
  Al  Al11  1  0.66940419  0.66940419  0.45102572  1
  Al  Al12  1  0.66553761  0.66553761  0.05161024  1
  Al  Al13  1  0.33446239  0.33446239  0.94838976  1
  Al  Al14  1  0.33982491  0.54331636  0.25027623  1
  Al  Al15  1  0.66017509  0.45668364  0.74972377  1
  Al  Al16  1  0.54331636  0.33982491  0.25027623  1
  Al  Al17  1  0.45668364  0.66017509  0.74972377  1
  Ir  Ir0  1  0.00000000  0.00000000  0.50000000  1
  Pd  Pd0  1  0.67134999  0.32865001  0.00000000  1
  Pd  Pd1  1  0.32865001  0.67134999  1.00000000  1
  Pd  Pd2  1  0.32933761  0.67066239  0.50000000  1
  Pd  Pd3  1  0.67066239  0.32933761  0.50000000  1
  Pd  Pd4  1  0.00000000  0.00000000  0.00000000  1
loop_
_geom_bond_atom_site_label_1
_geom_bond_atom_site_label_2
_geom_bond_distance
_geom_bond_site_symmetry_2
Ca0 Ir0 3.442290 1_665
Ca0 Pd4 3.453302 1_665
Ca0 Pd2 3.471082 1_655
Ca0 Pd1 3.476342 1_654
Ca0 Pd3 3.481449 1_555
Ca0 Pd0 3.488337 1_555
Ca1 Ir0 3.442290 1_555
Ca1 Pd4 3.453302 1_556
Ca1 Pd3 3.471082 1_455
Ca1 Pd0 3.476342 1_456
Ca1 Pd2 3.481449 1_555
Ca1 Pd1 3.488337 1_555
Ca2 Ir0 3.442290 1_665
Ca2 Pd4 3.453302 1_665
Ca2 Pd3 3.471082 1_565
Ca2 Pd0 3.476342 1_565
Ca2 Pd2 3.481449 1_555
Ca2 Pd1 3.488337 1_554
Ca3 Ir0 3.442290 1_555
Ca3 Pd4 3.453302 1_556
Ca3 Pd2 3.471082 1_545
Ca3 Pd1 3.476342 1_545
Ca3 Pd3 3.481449 1_555
Ca3 Pd0 3.488337 1_556
Al0 Ir0 2.560502 1_555
Al0 Pd4 2.599213 1_555
Al0 Al6 2.742857 1_555
Al0 Al5 2.742857 1_555
Al0 Ca0 3.120105 1_445
Al0 Ca2 3.120105 1_445
Al1 Ir0 2.560502 1_665
Al1 Pd4 2.599213 1_666
Al1 Al4 2.742857 1_555
Al1 Al7 2.742857 1_555
Al1 Ca1 3.120105 1_665
Al1 Ca3 3.120105 1_665
Al2 Pd0 2.595668 1_455
Al2 Pd4 2.633461 1_555
Al2 Pd1 2.635017 1_554
Al2 Ca2 3.062975 1_445
Al2 Ca0 3.064733 1_455
Al2 Ca1 3.110102 1_554
Al3 Pd1 2.595668 1_655
Al3 Pd4 2.633461 1_666
Al3 Pd0 2.635017 1_556
Al3 Ca3 3.062975 1_665
Al3 Ca1 3.064733 1_655
Al3 Ca0 3.110102 1_556
Al4 Pd2 2.599266 1_655
Al4 Ir0 2.605804 1_665
Al4 Pd3 2.649296 1_555
Al4 Al5 2.895636 1_665
Al4 Al6 2.933603 1_655
Al4 Ca3 3.046228 1_665
Al4 Ca0 3.075223 1_555
Al4 Ca1 3.089170 1_655
Al5 Pd2 2.599266 1_545
Al5 Ir0 2.605804 1_555
Al5 Pd3 2.649296 1_555
Al5 Al7 2.933603 1_545
Al5 Ca0 3.046228 1_445
Al5 Ca3 3.075223 1_555
Al5 Ca2 3.089170 1_545
Al6 Pd3 2.599266 1_455
Al6 Ir0 2.605804 1_555
Al6 Pd2 2.649296 1_555
Al6 Al7 2.895636 1_445
Al6 Ca2 3.046228 1_445
Al6 Ca1 3.075223 1_555
Al6 Ca0 3.089170 1_455
Al7 Pd3 2.599266 1_565
Al7 Ir0 2.605804 1_665
Al7 Pd2 2.649296 1_555
Al7 Ca1 3.046228 1_665
Al7 Ca2 3.075223 1_555
Al7 Ca3 3.089170 1_565
Al8 Pd0 2.595668 1_566
Al8 Pd4 2.633461 1_666
Al8 Pd1 2.635017 1_555
Al8 Ca1 3.062975 1_665
Al8 Ca3 3.064733 1_565
Al8 Ca2 3.110102 1_556
Al9 Pd1 2.595668 1_544
Al9 Pd4 2.633461 1_555
Al9 Pd0 2.635017 1_555
Al9 Ca0 3.062975 1_445
Al9 Ca2 3.064733 1_545
Al9 Ca3 3.110102 1_554
Al10 Ir0 2.568852 1_555
Al10 Pd2 2.630290 1_555
Al10 Pd3 2.630290 1_555
Al10 Al5 2.764162 1_555
Al10 Al6 2.764162 1_555
Al10 Ca3 3.127069 1_555
Al10 Ca1 3.127069 1_555
Al11 Ir0 2.568852 1_665
Al11 Pd3 2.630290 1_555
Al11 Pd2 2.630290 1_555
Al11 Al7 2.764162 1_555
Al11 Al4 2.764162 1_555
Al11 Ca2 3.127069 1_555
Al11 Ca0 3.127069 1_555
Al12 Pd4 2.603314 1_665
Al12 Pd0 2.627813 1_555
Al12 Pd1 2.627814 1_554
Al12 Al13 2.713797 1_554
Al12 Al8 2.799586 1_554
Al12 Al3 2.799586 1_554
Al12 Al16 2.881433 1_555
Al12 Al14 2.881433 1_555
Al12 Ca2 3.130876 1_555
Al12 Ca0 3.130876 1_555
Al13 Pd4 2.603314 1_556
Al13 Pd1 2.627813 1_555
Al13 Pd0 2.627814 1_556
Al13 Al9 2.799586 1_556
Al13 Al2 2.799586 1_556
Al13 Al17 2.881433 1_555
Al13 Al15 2.881433 1_555
Al13 Ca3 3.130876 1_555
Al13 Ca1 3.130876 1_555
Al14 Pd2 2.583955 1_555
Al14 Pd1 2.592645 1_554
Al14 Al6 2.820841 1_555
Al14 Ca2 3.094424 1_555
Al14 Ca0 3.200993 1_455
Al15 Pd3 2.583955 1_555
Al15 Pd0 2.592645 1_556
Al15 Al4 2.820841 1_555
Al15 Ca3 3.094424 1_555
Al15 Ca1 3.200993 1_655
Al16 Pd3 2.583955 1_555
Al16 Pd0 2.592645 1_555
Al16 Al5 2.820841 1_555
Al16 Ca0 3.094424 1_555
Al16 Ca2 3.200993 1_545
Al17 Pd2 2.583955 1_555
Al17 Pd1 2.592645 1_555
Al17 Al7 2.820841 1_555
Al17 Ca1 3.094424 1_555
Al17 Ca3 3.200993 1_565
