# generated using pymatgen
data_TiCr3GaSe8
_symmetry_space_group_name_H-M   'P 1'
_cell_length_a   7.34382980
_cell_length_b   7.34382944
_cell_length_c   7.34383018
_cell_angle_alpha   60.60959277
_cell_angle_beta   60.60959517
_cell_angle_gamma   60.60959067
_symmetry_Int_Tables_number   1
_chemical_formula_structural   TiCr3GaSe8
_chemical_formula_sum   'Ti1 Cr3 Ga1 Se8'
_cell_volume   283.91666989
_cell_formula_units_Z   1
loop_
 _symmetry_equiv_pos_site_id
 _symmetry_equiv_pos_as_xyz
  1  'x, y, z'
loop_
 _atom_site_type_symbol
 _atom_site_label
 _atom_site_symmetry_multiplicity
 _atom_site_fract_x
 _atom_site_fract_y
 _atom_site_fract_z
 _atom_site_occupancy
  Ti  Ti0  1  0.39570603  0.39570603  0.39570603  1
  Cr  Cr0  1  0.85573189  0.37994679  0.37994679  1
  Cr  Cr1  1  0.37994679  0.85573189  0.37994679  1
  Cr  Cr2  1  0.37994679  0.37994679  0.85573189  1
  Ga  Ga0  1  0.99637439  0.99637439  0.99637439  1
  Se  Se0  1  0.13167567  0.13167567  0.13167567  1
  Se  Se1  1  0.59379987  0.13452010  0.13452010  1
  Se  Se2  1  0.13452010  0.59379987  0.13452010  1
  Se  Se3  1  0.13452010  0.13452010  0.59379987  1
  Se  Se4  1  0.61781259  0.61781259  0.61781259  1
  Se  Se5  1  0.12798502  0.62599137  0.62599137  1
  Se  Se6  1  0.62599137  0.12798502  0.62599137  1
  Se  Se7  1  0.62599137  0.62599137  0.12798502  1
loop_
_geom_bond_atom_site_label_1
_geom_bond_atom_site_label_2
_geom_bond_distance
_geom_bond_site_symmetry_2
Cr0 Se4 2.481808 1_555
Cr0 Se7 2.515085 1_555
Cr0 Se6 2.515085 1_555
Cr0 Se3 2.581181 1_655
Cr0 Se2 2.581181 1_655
Cr0 Se0 2.600962 1_655
Cr1 Se4 2.481808 1_555
Cr1 Se7 2.515085 1_555
Cr1 Se5 2.515085 1_555
Cr1 Se3 2.581181 1_565
Cr1 Se1 2.581181 1_565
Cr1 Se0 2.600962 1_565
Cr2 Se4 2.481808 1_555
Cr2 Se5 2.515085 1_555
Cr2 Se6 2.515085 1_555
Cr2 Se1 2.581181 1_556
Cr2 Se2 2.581181 1_556
Cr2 Se0 2.600962 1_556
Ga0 Se0 2.422612 1_666
Ga0 Se2 2.433394 1_656
Ga0 Se1 2.433394 1_566
Ga0 Se3 2.433394 1_665
Se1 Ti0 2.758276 1_555
Se2 Ti0 2.758276 1_555
Se3 Ti0 2.758276 1_555
Se5 Ti0 2.421940 1_555
Se6 Ti0 2.421940 1_555
Se7 Ti0 2.421940 1_555
