# generated using pymatgen
data_TaI2ClF
_symmetry_space_group_name_H-M   'P 1'
_cell_length_a   7.49278876
_cell_length_b   7.49278946
_cell_length_c   7.49278936
_cell_angle_alpha   119.95107716
_cell_angle_beta   111.30105426
_cell_angle_gamma   97.90154887
_symmetry_Int_Tables_number   1
_chemical_formula_structural   TaI2ClF
_chemical_formula_sum   'Ta2 I4 Cl2 F2'
_cell_volume   311.97264369
_cell_formula_units_Z   2
loop_
 _symmetry_equiv_pos_site_id
 _symmetry_equiv_pos_as_xyz
  1  'x, y, z'
loop_
 _atom_site_type_symbol
 _atom_site_label
 _atom_site_symmetry_multiplicity
 _atom_site_fract_x
 _atom_site_fract_y
 _atom_site_fract_z
 _atom_site_occupancy
  Ta  Ta0  1  0.00000000  0.29653151  0.29653151  1
  Ta  Ta1  1  1.00000000  0.70913065  0.70913065  1
  I  I0  1  0.80868887  0.81030715  0.00161827  1
  I  I1  1  0.19131113  0.19292940  0.00161827  1
  I  I2  1  0.76678777  0.26914679  0.50236002  1
  I  I3  1  0.23321223  0.73557225  0.50236002  1
  Cl  Cl0  1  0.72589891  0.71594205  0.44184096  1
  Cl  Cl1  1  0.27410109  0.71594205  0.99004214  1
  F  F0  1  0.77768259  0.27724909  0.05493168  1
  F  F1  1  0.22231741  0.27724909  0.49956750  1
loop_
_geom_bond_atom_site_label_1
_geom_bond_atom_site_label_2
_geom_bond_distance
_geom_bond_site_symmetry_2
I0 Ta1 2.890436 1_554
I0 Ta0 2.904260 1_665
I1 Ta1 2.890436 1_444
I1 Ta0 2.904260 1_555
I2 Ta0 2.765748 1_655
I2 Ta1 2.769701 1_555
I3 Ta0 2.765746 1_555
I3 Ta1 2.769695 1_455
Cl0 Ta1 2.318211 1_555
Cl1 Ta1 2.318206 1_455
F0 Ta0 1.885346 1_655
F1 Ta0 1.885350 1_555
