# generated using pymatgen
data_Sr3ScCoO6
_symmetry_space_group_name_H-M   'P 1'
_cell_length_a   6.61661174
_cell_length_b   6.61661227
_cell_length_c   6.61661320
_cell_angle_alpha   93.42263399
_cell_angle_beta   93.42263186
_cell_angle_gamma   93.42262884
_symmetry_Int_Tables_number   1
_chemical_formula_structural   Sr3ScCoO6
_chemical_formula_sum   'Sr6 Sc2 Co2 O12'
_cell_volume   288.05757662
_cell_formula_units_Z   2
loop_
 _symmetry_equiv_pos_site_id
 _symmetry_equiv_pos_as_xyz
  1  'x, y, z'
loop_
 _atom_site_type_symbol
 _atom_site_label
 _atom_site_symmetry_multiplicity
 _atom_site_fract_x
 _atom_site_fract_y
 _atom_site_fract_z
 _atom_site_occupancy
  Sr  Sr0  1  0.88172516  0.61827484  0.25000000  1
  Sr  Sr1  1  0.25000000  0.88172516  0.61827484  1
  Sr  Sr2  1  0.61827484  0.25000000  0.88172516  1
  Sr  Sr3  1  0.75000000  0.11827484  0.38172516  1
  Sr  Sr4  1  0.38172516  0.75000000  0.11827484  1
  Sr  Sr5  1  0.11827484  0.38172516  0.75000000  1
  Sc  Sc0  1  0.25000000  0.25000000  0.25000000  1
  Sc  Sc1  1  0.75000000  0.75000000  0.75000000  1
  Co  Co0  1  0.50000000  0.50000000  0.50000000  1
  Co  Co1  1  0.00000000  0.00000000  0.00000000  1
  O  O0  1  0.21827178  0.53596997  0.40722427  1
  O  O1  1  0.40722427  0.21827178  0.53596997  1
  O  O2  1  0.53596997  0.40722427  0.21827178  1
  O  O3  1  0.90722427  0.03596997  0.71827178  1
  O  O4  1  0.71827178  0.90722427  0.03596997  1
  O  O5  1  0.03596997  0.71827178  0.90722427  1
  O  O6  1  0.78172822  0.46403003  0.59277573  1
  O  O7  1  0.59277573  0.78172822  0.46403003  1
  O  O8  1  0.46403003  0.59277573  0.78172822  1
  O  O9  1  0.09277573  0.96403003  0.28172822  1
  O  O10  1  0.28172822  0.09277573  0.96403003  1
  O  O11  1  0.96403003  0.28172822  0.09277573  1
loop_
_geom_bond_atom_site_label_1
_geom_bond_atom_site_label_2
_geom_bond_distance
_geom_bond_site_symmetry_2
Co0 O6 1.960121 1_555
Co0 O0 1.960121 1_555
Co0 O7 1.960121 1_555
Co0 O1 1.960121 1_555
Co0 O8 1.960121 1_555
Co0 O2 1.960121 1_555
Co1 O10 1.960121 1_554
Co1 O4 1.960121 1_445
Co1 O11 1.960121 1_455
Co1 O5 1.960121 1_544
Co1 O9 1.960121 1_545
Co1 O3 1.960121 1_454
O0 Sc0 2.131900 1_555
O0 Sr0 2.504645 1_455
O0 Sr1 2.598850 1_555
O0 Sr5 2.645404 1_555
O0 Sr4 2.686573 1_555
O1 Sc0 2.131900 1_555
O1 Sr1 2.504645 1_545
O1 Sr2 2.598850 1_555
O1 Sr3 2.645404 1_555
O1 Sr5 2.686573 1_555
O2 Sc0 2.131900 1_555
O2 Sr2 2.504645 1_554
O2 Sr0 2.598849 1_555
O2 Sr4 2.645404 1_555
O2 Sr3 2.686573 1_555
O3 Sc1 2.131900 1_545
O3 Sr3 2.504645 1_555
O3 Sr5 2.598849 1_655
O3 Sr1 2.645404 1_645
O3 Sr2 2.686573 1_555
O4 Sc1 2.131900 1_554
O4 Sr4 2.504645 1_555
O4 Sr3 2.598850 1_565
O4 Sr2 2.645404 1_564
O4 Sr0 2.686573 1_555
O5 Sc1 2.131900 1_455
O5 Sr5 2.504645 1_555
O5 Sr4 2.598849 1_556
O5 Sr0 2.645404 1_456
O5 Sr1 2.686573 1_555
O6 Sc1 2.131900 1_555
O6 Sr5 2.504645 1_655
O6 Sr3 2.598850 1_555
O6 Sr0 2.645404 1_555
O6 Sr2 2.686573 1_555
O7 Sc1 2.131900 1_555
O7 Sr3 2.504645 1_565
O7 Sr4 2.598850 1_555
O7 Sr1 2.645404 1_555
O7 Sr0 2.686573 1_555
O8 Sc1 2.131900 1_555
O8 Sr4 2.504645 1_556
O8 Sr5 2.598849 1_555
O8 Sr2 2.645404 1_555
O8 Sr1 2.686573 1_555
O9 Sc0 2.131900 1_565
O9 Sr1 2.504645 1_555
O9 Sr0 2.598849 1_455
O9 Sr3 2.645404 1_465
O9 Sr4 2.686573 1_555
O10 Sc0 2.131900 1_556
O10 Sr2 2.504645 1_555
O10 Sr1 2.598850 1_545
O10 Sr4 2.645404 1_546
O10 Sr5 2.686573 1_555
O11 Sc0 2.131900 1_655
O11 Sr0 2.504645 1_555
O11 Sr2 2.598849 1_554
O11 Sr5 2.645404 1_654
O11 Sr3 2.686573 1_555
