# generated using pymatgen
data_Ba2NbCu3As4
_symmetry_space_group_name_H-M   'P 1'
_cell_length_a   5.82949538
_cell_length_b   7.23602032
_cell_length_c   5.81951361
_cell_angle_alpha   66.22754297
_cell_angle_beta   89.99991792
_cell_angle_gamma   89.99997039
_symmetry_Int_Tables_number   1
_chemical_formula_structural   Ba2NbCu3As4
_chemical_formula_sum   'Ba2 Nb1 Cu3 As4'
_cell_volume   224.65257388
_cell_formula_units_Z   1
loop_
 _symmetry_equiv_pos_site_id
 _symmetry_equiv_pos_as_xyz
  1  'x, y, z'
loop_
 _atom_site_type_symbol
 _atom_site_label
 _atom_site_symmetry_multiplicity
 _atom_site_fract_x
 _atom_site_fract_y
 _atom_site_fract_z
 _atom_site_occupancy
  Ba  Ba0  1  0.99282211  0.99999796  0.00000165  1
  Ba  Ba1  1  0.50734372  0.99999552  0.49999870  1
  Nb  Nb0  1  0.24980078  0.49999170  0.50000780  1
  Cu  Cu0  1  0.25043925  0.50000341  0.99999845  1
  Cu  Cu1  1  0.74927960  0.50000190  0.99999103  1
  Cu  Cu2  1  0.75011299  0.50000825  0.50000259  1
  As  As0  1  0.49833768  0.71336821  0.14278866  1
  As  As1  1  0.00178797  0.71308309  0.64441472  1
  As  As2  1  0.00178401  0.28690771  0.35558503  1
  As  As3  1  0.49829191  0.28664427  0.85721137  1
loop_
_geom_bond_atom_site_label_1
_geom_bond_atom_site_label_2
_geom_bond_distance
_geom_bond_site_symmetry_2
As0 Cu0 2.489354 1_554
As0 Nb0 2.493379 1_555
As0 Cu1 2.499726 1_554
As0 Cu2 2.504347 1_555
As0 Ba0 3.451390 1_555
As0 Ba1 3.470231 1_554
As0 Ba1 3.478755 1_555
As0 Ba0 3.505277 1_455
As1 Cu0 2.487611 1_555
As1 Nb0 2.493750 1_555
As1 Cu1 2.500755 1_455
As1 Cu2 2.506118 1_455
As1 Ba1 3.452223 1_455
As1 Ba0 3.472584 1_456
As1 Ba0 3.478475 1_455
As1 Ba1 3.506486 1_555
As2 Cu0 2.487664 1_554
As2 Nb0 2.493780 1_555
As2 Cu1 2.500830 1_454
As2 Cu2 2.506260 1_455
As2 Ba1 3.452202 1_445
As2 Ba0 3.472536 1_445
As2 Ba0 3.478486 1_446
As2 Ba1 3.506504 1_545
As3 Cu0 2.489155 1_555
As3 Nb0 2.493114 1_555
As3 Cu1 2.499777 1_555
As3 Cu2 2.504492 1_555
As3 Ba0 3.451673 1_546
As3 Ba1 3.470248 1_546
As3 Ba1 3.478902 1_545
As3 Ba0 3.505112 1_446
