# generated using pymatgen
data_CaSc6NiBr12
_symmetry_space_group_name_H-M   'P 1'
_cell_length_a   8.67823776
_cell_length_b   8.67823777
_cell_length_c   8.67823708
_cell_angle_alpha   106.38744110
_cell_angle_beta   106.38743824
_cell_angle_gamma   106.38743790
_symmetry_Int_Tables_number   1
_chemical_formula_structural   CaSc6NiBr12
_chemical_formula_sum   'Ca1 Sc6 Ni1 Br12'
_cell_volume   553.14580918
_cell_formula_units_Z   1
loop_
 _symmetry_equiv_pos_site_id
 _symmetry_equiv_pos_as_xyz
  1  'x, y, z'
loop_
 _atom_site_type_symbol
 _atom_site_label
 _atom_site_symmetry_multiplicity
 _atom_site_fract_x
 _atom_site_fract_y
 _atom_site_fract_z
 _atom_site_occupancy
  Ca  Ca0  1  0.50000000  0.50000000  0.50000000  1
  Sc  Sc0  1  0.09658430  0.02208679  0.30190665  1
  Sc  Sc1  1  0.02208679  0.30190665  0.09658430  1
  Sc  Sc2  1  0.30190665  0.09658430  0.02208679  1
  Sc  Sc3  1  0.90341470  0.97791321  0.69809335  1
  Sc  Sc4  1  0.97791321  0.69809335  0.90341470  1
  Sc  Sc5  1  0.69809335  0.90341470  0.97791321  1
  Ni  Ni0  1  0.00000000  0.00000000  0.00000000  1
  Br  Br0  1  0.07514192  0.67908205  0.22138783  1
  Br  Br1  1  0.67908205  0.22138783  0.07514192  1
  Br  Br2  1  0.22138783  0.07514192  0.67908205  1
  Br  Br3  1  0.92485808  0.32091795  0.77861217  1
  Br  Br4  1  0.32091795  0.77861217  0.92485808  1
  Br  Br5  1  0.77861217  0.92485808  0.32091795  1
  Br  Br6  1  0.44707447  0.13791748  0.36901646  1
  Br  Br7  1  0.13791748  0.36901646  0.44707447  1
  Br  Br8  1  0.36901646  0.44707447  0.13791748  1
  Br  Br9  1  0.55292553  0.86208252  0.63098354  1
  Br  Br10  1  0.86208252  0.63098354  0.55292553  1
  Br  Br11  1  0.63098354  0.55292553  0.86208252  1
loop_
_geom_bond_atom_site_label_1
_geom_bond_atom_site_label_2
_geom_bond_distance
_geom_bond_site_symmetry_2
Ni0 Sc0 2.447572 1_555
Ni0 Sc3 2.447572 1_444
Ni0 Sc1 2.447572 1_555
Ni0 Sc2 2.447573 1_555
Ni0 Sc4 2.447573 1_444
Ni0 Sc5 2.447573 1_444
Br0 Sc4 2.715761 1_454
Br0 Sc0 2.797128 1_565
Br0 Sc1 2.994468 1_555
Br1 Sc5 2.715761 1_544
Br1 Sc1 2.797128 1_655
Br1 Sc2 2.994469 1_555
Br2 Sc3 2.715761 1_445
Br2 Sc2 2.797127 1_556
Br2 Sc0 2.994468 1_555
Br3 Sc1 2.715753 1_656
Br3 Sc3 2.797125 1_545
Br3 Sc4 2.994468 1_555
Br4 Sc2 2.715753 1_566
Br4 Sc4 2.797125 1_455
Br4 Sc5 2.994468 1_555
Br5 Sc0 2.715753 1_665
Br5 Sc5 2.797125 1_554
Br5 Sc3 2.994468 1_555
Br6 Sc0 2.747012 1_555
Br6 Sc2 2.788501 1_555
Br6 Ca0 2.872687 1_555
Br7 Sc1 2.747012 1_555
Br7 Sc0 2.788502 1_555
Br7 Ca0 2.872687 1_555
Br8 Sc2 2.747012 1_555
Br8 Sc1 2.788502 1_555
Br8 Ca0 2.872687 1_555
Br9 Sc3 2.747004 1_555
Br9 Sc5 2.788504 1_555
Br9 Ca0 2.872687 1_555
Br10 Sc4 2.747004 1_555
Br10 Sc3 2.788504 1_555
Br10 Ca0 2.872687 1_555
Br11 Sc5 2.747004 1_555
Br11 Sc4 2.788504 1_555
Br11 Ca0 2.872687 1_555
