# generated using pymatgen
data_Ba4CuAuO6
_symmetry_space_group_name_H-M   'P 1'
_cell_length_a   7.14221802
_cell_length_b   7.14221729
_cell_length_c   11.43858670
_cell_angle_alpha   90.00000000
_cell_angle_beta   90.00000000
_cell_angle_gamma   131.92451328
_symmetry_Int_Tables_number   1
_chemical_formula_structural   Ba4CuAuO6
_chemical_formula_sum   'Ba8 Cu2 Au2 O12'
_cell_volume   434.13669822
_cell_formula_units_Z   2
loop_
 _symmetry_equiv_pos_site_id
 _symmetry_equiv_pos_as_xyz
  1  'x, y, z'
loop_
 _atom_site_type_symbol
 _atom_site_label
 _atom_site_symmetry_multiplicity
 _atom_site_fract_x
 _atom_site_fract_y
 _atom_site_fract_z
 _atom_site_occupancy
  Ba  Ba0  1  0.20770102  0.92251512  0.75000000  1
  Ba  Ba1  1  0.64564617  0.35435383  0.50000000  1
  Ba  Ba2  1  0.79229898  0.07748488  0.25000000  1
  Ba  Ba3  1  0.92251512  0.20770102  0.75000000  1
  Ba  Ba4  1  0.07748488  0.79229898  0.25000000  1
  Ba  Ba5  1  0.35435383  0.64564617  0.00000000  1
  Ba  Ba6  1  0.35435383  0.64564617  0.50000000  1
  Ba  Ba7  1  0.64564617  0.35435383  0.00000000  1
  Cu  Cu0  1  0.00000000  0.00000000  0.00000000  1
  Cu  Cu1  1  0.00000000  0.00000000  0.50000000  1
  Au  Au0  1  0.40281222  0.40281222  0.25000000  1
  Au  Au1  1  0.59718778  0.59718778  0.75000000  1
  O  O0  1  0.25740475  0.57051603  0.25000000  1
  O  O1  1  0.14594168  0.85405832  0.50000000  1
  O  O2  1  0.57051603  0.25740475  0.25000000  1
  O  O3  1  0.75578079  0.75578079  0.39872893  1
  O  O4  1  0.14594168  0.85405832  0.00000000  1
  O  O5  1  0.85405832  0.14594168  0.00000000  1
  O  O6  1  0.42948397  0.74259525  0.75000000  1
  O  O7  1  0.74259525  0.42948397  0.75000000  1
  O  O8  1  0.75578079  0.75578079  0.10127107  1
  O  O9  1  0.85405832  0.14594168  0.50000000  1
  O  O10  1  0.24421921  0.24421921  0.60127107  1
  O  O11  1  0.24421921  0.24421921  0.89872893  1
loop_
_geom_bond_atom_site_label_1
_geom_bond_atom_site_label_2
_geom_bond_distance
_geom_bond_site_symmetry_2
Ba0 O6 2.623066 1_555
Ba0 O11 2.727781 1_565
Ba0 O10 2.727781 1_565
Ba0 O7 2.793452 1_455
Ba0 O4 2.884962 1_556
Ba0 O1 2.884962 1_555
Ba0 O7 3.036560 1_565
Ba1 O3 2.677138 1_555
Ba1 O10 2.677138 1_555
Ba1 O9 2.718872 1_555
Ba1 O2 2.906624 1_555
Ba1 O7 2.906624 1_555
Ba1 O1 2.909302 1_545
Ba1 O1 2.909302 1_655
Ba2 O2 2.623066 1_555
Ba2 O8 2.727781 1_545
Ba2 O3 2.727781 1_545
Ba2 O0 2.793452 1_655
Ba2 O5 2.884962 1_555
Ba2 O9 2.884962 1_555
Ba2 O0 3.036560 1_545
Ba3 O7 2.623066 1_555
Ba3 O11 2.727781 1_655
Ba3 O10 2.727781 1_655
Ba3 O6 2.793452 1_545
Ba3 O9 2.884962 1_555
Ba3 O5 2.884962 1_556
Ba3 O6 3.036560 1_655
Ba4 O0 2.623066 1_555
Ba4 O8 2.727781 1_455
Ba4 O3 2.727781 1_455
Ba4 O2 2.793452 1_565
Ba4 O4 2.884962 1_555
Ba4 O1 2.884962 1_555
Ba4 O2 3.036560 1_455
Ba5 O11 2.677138 1_554
Ba5 O8 2.677138 1_555
Ba5 O4 2.718872 1_555
Ba5 O6 2.906624 1_554
Ba5 O0 2.906624 1_555
Ba5 O5 2.909302 1_565
Ba5 O5 2.909302 1_455
Ba6 O10 2.677138 1_555
Ba6 O3 2.677138 1_555
Ba6 O1 2.718872 1_555
Ba6 O6 2.906624 1_555
Ba6 O0 2.906624 1_555
Ba6 O9 2.909302 1_565
Ba6 O9 2.909302 1_455
Ba7 O8 2.677138 1_555
Ba7 O11 2.677138 1_554
Ba7 O5 2.718872 1_555
Ba7 O2 2.906624 1_555
Ba7 O7 2.906624 1_554
Ba7 O4 2.909302 1_545
Ba7 O4 2.909302 1_655
Cu0 O11 1.833348 1_554
Cu0 O8 1.833348 1_445
Cu0 O4 1.903904 1_545
Cu0 O5 1.903904 1_455
Cu1 O10 1.833348 1_555
Cu1 O3 1.833348 1_445
Cu1 O1 1.903904 1_545
Cu1 O9 1.903904 1_455
Au0 O0 2.043400 1_555
Au0 O2 2.043400 1_555
Au0 O8 2.666884 1_555
Au0 O3 2.666884 1_555
Au1 O7 2.043400 1_555
Au1 O6 2.043400 1_555
Au1 O11 2.666884 1_555
Au1 O10 2.666884 1_555
