# generated using pymatgen
data_Sr3LuAs3
_symmetry_space_group_name_H-M   'P 1'
_cell_length_a   4.52041591
_cell_length_b   12.95340060
_cell_length_c   14.72592597
_cell_angle_alpha   90.00000000
_cell_angle_beta   90.00000000
_cell_angle_gamma   90.00000000
_symmetry_Int_Tables_number   1
_chemical_formula_structural   Sr3LuAs3
_chemical_formula_sum   'Sr12 Lu4 As12'
_cell_volume   862.27303441
_cell_formula_units_Z   4
loop_
 _symmetry_equiv_pos_site_id
 _symmetry_equiv_pos_as_xyz
  1  'x, y, z'
loop_
 _atom_site_type_symbol
 _atom_site_label
 _atom_site_symmetry_multiplicity
 _atom_site_fract_x
 _atom_site_fract_y
 _atom_site_fract_z
 _atom_site_occupancy
  Sr  Sr0  1  0.75000000  0.23340690  0.20809903  1
  Sr  Sr1  1  0.25000000  0.76659310  0.79190097  1
  Sr  Sr2  1  0.75000000  0.73340690  0.29190097  1
  Sr  Sr3  1  0.25000000  0.26659310  0.70809903  1
  Sr  Sr4  1  0.75000000  0.92869252  0.09635098  1
  Sr  Sr5  1  0.25000000  0.07130748  0.90364902  1
  Sr  Sr6  1  0.75000000  0.42869252  0.40364902  1
  Sr  Sr7  1  0.25000000  0.57130748  0.59635098  1
  Sr  Sr8  1  0.75000000  0.15410543  0.49760397  1
  Sr  Sr9  1  0.25000000  0.84589457  0.50239603  1
  Sr  Sr10  1  0.75000000  0.65410543  0.00239603  1
  Sr  Sr11  1  0.25000000  0.34589457  0.99760397  1
  Lu  Lu0  1  0.75000000  0.95302804  0.70278379  1
  Lu  Lu1  1  0.25000000  0.04697196  0.29721621  1
  Lu  Lu2  1  0.75000000  0.45302804  0.79721621  1
  Lu  Lu3  1  0.25000000  0.54697196  0.20278379  1
  As  As0  1  0.75000000  0.90033559  0.88350146  1
  As  As1  1  0.25000000  0.09966441  0.11649854  1
  As  As2  1  0.75000000  0.40033559  0.61649854  1
  As  As3  1  0.25000000  0.59966441  0.38350146  1
  As  As4  1  0.75000000  0.75587102  0.63331390  1
  As  As5  1  0.25000000  0.24412898  0.36668610  1
  As  As6  1  0.75000000  0.25587102  0.86668610  1
  As  As7  1  0.25000000  0.74412898  0.13331390  1
  As  As8  1  0.75000000  0.45503234  0.13567186  1
  As  As9  1  0.25000000  0.54496766  0.86432814  1
  As  As10  1  0.75000000  0.95503234  0.36432814  1
  As  As11  1  0.25000000  0.04496766  0.63567186  1
loop_
_geom_bond_atom_site_label_1
_geom_bond_atom_site_label_2
_geom_bond_distance
_geom_bond_site_symmetry_2
As0 Lu0 2.747370 1_555
As0 Sr1 3.151088 1_655
As0 Sr1 3.151088 1_555
As0 Sr4 3.155856 1_556
As0 Sr5 3.178257 1_565
As0 Sr5 3.178257 1_665
As0 Sr10 3.638467 1_556
As1 Lu1 2.747370 1_555
As1 Sr0 3.151088 1_455
As1 Sr0 3.151088 1_555
As1 Sr5 3.155856 1_554
As1 Sr4 3.178257 1_445
As1 Sr4 3.178257 1_545
As1 Sr11 3.638467 1_554
As2 Lu2 2.747370 1_555
As2 Sr3 3.151088 1_555
As2 Sr3 3.151088 1_655
As2 Sr6 3.155856 1_555
As2 Sr7 3.178257 1_555
As2 Sr7 3.178257 1_655
As2 Sr8 3.638467 1_555
As3 Lu3 2.747370 1_555
As3 Sr2 3.151088 1_455
As3 Sr2 3.151088 1_555
As3 Sr7 3.155856 1_555
As3 Sr6 3.178257 1_555
As3 Sr6 3.178257 1_455
As3 Sr9 3.638467 1_555
As4 Lu0 2.751130 1_555
As4 Sr9 3.191411 1_555
As4 Sr9 3.191411 1_655
As4 Sr1 3.252945 1_655
As4 Sr1 3.252945 1_555
As4 Sr7 3.334724 1_655
As4 Sr7 3.334724 1_555
As5 Lu1 2.751130 1_555
As5 Sr8 3.191411 1_455
As5 Sr8 3.191411 1_555
As5 Sr0 3.252945 1_455
As5 Sr0 3.252945 1_555
As5 Sr6 3.334724 1_455
As5 Sr6 3.334724 1_555
As6 Lu2 2.751130 1_555
As6 Sr11 3.191411 1_555
As6 Sr11 3.191411 1_655
As6 Sr3 3.252945 1_555
As6 Sr3 3.252945 1_655
As6 Sr5 3.334724 1_555
As6 Sr5 3.334724 1_655
As7 Lu3 2.751130 1_555
As7 Sr10 3.191411 1_455
As7 Sr10 3.191411 1_555
As7 Sr2 3.252945 1_455
As7 Sr2 3.252945 1_555
As7 Sr4 3.334724 1_455
As7 Sr4 3.334724 1_555
As8 Lu3 2.739263 1_555
As8 Lu3 2.739263 1_655
As8 Sr0 3.062524 1_555
As8 Sr10 3.240586 1_555
As8 Sr11 3.352747 1_654
As8 Sr11 3.352747 1_554
As9 Lu2 2.739263 1_455
As9 Lu2 2.739263 1_555
As9 Sr1 3.062524 1_555
As9 Sr11 3.240586 1_555
As9 Sr10 3.352747 1_556
As9 Sr10 3.352747 1_456
As10 Lu1 2.739263 1_565
As10 Lu1 2.739263 1_665
As10 Sr2 3.062524 1_555
As10 Sr8 3.240586 1_565
As10 Sr9 3.352747 1_555
As10 Sr9 3.352747 1_655
As11 Lu0 2.739263 1_545
As11 Lu0 2.739263 1_445
As11 Sr3 3.062524 1_555
As11 Sr9 3.240586 1_545
As11 Sr8 3.352747 1_555
As11 Sr8 3.352747 1_455
