# generated using pymatgen
data_SrGaAgF6
_symmetry_space_group_name_H-M   'P 1'
_cell_length_a   5.15942715
_cell_length_b   9.25412929
_cell_length_c   10.56543346
_cell_angle_alpha   90.00000000
_cell_angle_beta   90.00000000
_cell_angle_gamma   90.00000000
_symmetry_Int_Tables_number   1
_chemical_formula_structural   SrGaAgF6
_chemical_formula_sum   'Sr4 Ga4 Ag4 F24'
_cell_volume   504.45724849
_cell_formula_units_Z   4
loop_
 _symmetry_equiv_pos_site_id
 _symmetry_equiv_pos_as_xyz
  1  'x, y, z'
loop_
 _atom_site_type_symbol
 _atom_site_label
 _atom_site_symmetry_multiplicity
 _atom_site_fract_x
 _atom_site_fract_y
 _atom_site_fract_z
 _atom_site_occupancy
  Sr  Sr0  1  0.49822716  0.34797000  0.16997200  1
  Sr  Sr1  1  0.00177284  0.65203000  0.66997200  1
  Sr  Sr2  1  0.50177284  0.84797000  0.33002800  1
  Sr  Sr3  1  0.99822716  0.15203000  0.83002800  1
  Ga  Ga0  1  0.06260701  0.03559607  0.14746971  1
  Ga  Ga1  1  0.43739299  0.96440393  0.64746971  1
  Ga  Ga2  1  0.93739299  0.53559607  0.35253029  1
  Ga  Ga3  1  0.56260701  0.46440393  0.85253029  1
  Ag  Ag0  1  0.04900322  0.69584302  0.06888990  1
  Ag  Ag1  1  0.45099678  0.30415698  0.56888990  1
  Ag  Ag2  1  0.95099678  0.19584302  0.43111010  1
  Ag  Ag3  1  0.54900322  0.80415698  0.93111010  1
  F  F0  1  0.14952778  0.09520532  0.61047834  1
  F  F1  1  0.35047222  0.90479468  0.11047834  1
  F  F2  1  0.85047222  0.59520532  0.88952166  1
  F  F3  1  0.64952778  0.40479468  0.38952166  1
  F  F4  1  0.22704076  0.63716218  0.29379586  1
  F  F5  1  0.27295924  0.36283782  0.79379586  1
  F  F6  1  0.77295924  0.13716218  0.20620414  1
  F  F7  1  0.72704076  0.86283782  0.70620414  1
  F  F8  1  0.20527047  0.18281579  0.04500027  1
  F  F9  1  0.29472953  0.81718421  0.54500027  1
  F  F10  1  0.79472953  0.68281579  0.45499973  1
  F  F11  1  0.70527047  0.31718421  0.95499973  1
  F  F12  1  0.05642514  0.37932402  0.25223434  1
  F  F13  1  0.44357486  0.62067598  0.75223434  1
  F  F14  1  0.94357486  0.87932402  0.24776566  1
  F  F15  1  0.55642514  0.12067598  0.74776566  1
  F  F16  1  0.39190295  0.53141700  0.00104666  1
  F  F17  1  0.10809705  0.46858300  0.50104666  1
  F  F18  1  0.60809705  0.03141700  0.49895334  1
  F  F19  1  0.89190295  0.96858300  0.99895334  1
  F  F20  1  0.27112906  0.09873159  0.28602741  1
  F  F21  1  0.22887094  0.90126841  0.78602741  1
  F  F22  1  0.72887094  0.59873159  0.21397259  1
  F  F23  1  0.77112906  0.40126841  0.71397259  1
loop_
_geom_bond_atom_site_label_1
_geom_bond_atom_site_label_2
_geom_bond_distance
_geom_bond_site_symmetry_2
Ag0 F2 2.346906 1_454
Ag0 F22 2.425985 1_455
Ag0 F16 2.441120 1_555
Ag0 F1 2.520204 1_555
Ag0 F14 2.598203 1_455
Ag0 F4 2.604828 1_555
Ag1 F3 2.346906 1_555
Ag1 F23 2.425985 1_555
Ag1 F17 2.441120 1_555
Ag1 F0 2.520204 1_555
Ag1 F15 2.598203 1_555
Ag1 F5 2.604828 1_555
Ag2 F0 2.346906 1_655
Ag2 F20 2.425985 1_655
Ag2 F18 2.441120 1_555
Ag2 F3 2.520204 1_555
Ag2 F12 2.598203 1_655
Ag2 F6 2.604828 1_555
Ag3 F1 2.346906 1_556
Ag3 F21 2.425985 1_555
Ag3 F19 2.441120 1_555
Ag3 F2 2.520204 1_555
Ag3 F13 2.598203 1_555
Ag3 F7 2.604828 1_555
F0 Ga1 1.955459 1_545
F0 Sr3 2.503323 1_455
F1 Ga0 1.955459 1_565
F1 Sr2 2.503323 1_555
F2 Ga3 1.955459 1_555
F2 Sr1 2.503323 1_655
F3 Ga2 1.955459 1_555
F3 Sr0 2.503323 1_555
F4 Ga2 1.871308 1_455
F4 Sr2 2.441623 1_555
F5 Ga3 1.871308 1_555
F5 Sr3 2.441623 1_455
F6 Ga0 1.871308 1_655
F6 Sr0 2.441623 1_555
F7 Ga1 1.871308 1_555
F7 Sr1 2.441623 1_655
F8 Ga0 1.889442 1_555
F8 Sr0 2.522674 1_555
F8 Sr3 2.526056 1_454
F9 Ga1 1.889442 1_555
F9 Sr1 2.522674 1_555
F9 Sr2 2.526056 1_555
F10 Ga2 1.889442 1_555
F10 Sr2 2.522674 1_555
F10 Sr1 2.526056 1_655
F11 Ga3 1.889442 1_555
F11 Sr3 2.522674 1_555
F11 Sr0 2.526056 1_556
F12 Ga2 1.895112 1_455
F12 Sr0 2.456717 1_555
F12 Sr0 3.022232 1_455
F13 Ga3 1.895112 1_555
F13 Sr1 2.456717 1_555
F13 Sr1 3.022232 1_655
F14 Ga0 1.895112 1_665
F14 Sr2 2.456717 1_555
F14 Sr2 3.022232 1_655
F15 Ga1 1.895112 1_545
F15 Sr3 2.456717 1_555
F15 Sr3 3.022232 1_455
F16 Ga3 1.903281 1_554
F16 Sr0 2.523554 1_555
F17 Ga2 1.903281 1_455
F17 Sr1 2.523554 1_555
F18 Ga1 1.903281 1_545
F18 Sr2 2.523554 1_545
F19 Ga0 1.903281 1_666
F19 Sr3 2.523554 1_565
F20 Ga0 1.908375 1_555
F20 Sr2 2.649016 1_545
F20 Sr0 2.862909 1_555
F21 Ga1 1.908375 1_555
F21 Sr3 2.649016 1_465
F21 Sr1 2.862909 1_555
F22 Ga2 1.908375 1_555
F22 Sr0 2.649016 1_555
F22 Sr2 2.862909 1_555
F23 Ga3 1.908375 1_555
F23 Sr1 2.649016 1_655
F23 Sr3 2.862909 1_555
