# generated using pymatgen
data_Lu4Sb6Ru2Rh5
_symmetry_space_group_name_H-M   'P 1'
_cell_length_a   7.46992511
_cell_length_b   7.47026318
_cell_length_c   7.47026281
_cell_angle_alpha   109.34132903
_cell_angle_beta   109.53497245
_cell_angle_gamma   109.53497055
_symmetry_Int_Tables_number   1
_chemical_formula_structural   Lu4Sb6Ru2Rh5
_chemical_formula_sum   'Lu4 Sb6 Ru2 Rh5'
_cell_volume   320.90590588
_cell_formula_units_Z   1
loop_
 _symmetry_equiv_pos_site_id
 _symmetry_equiv_pos_as_xyz
  1  'x, y, z'
loop_
 _atom_site_type_symbol
 _atom_site_label
 _atom_site_symmetry_multiplicity
 _atom_site_fract_x
 _atom_site_fract_y
 _atom_site_fract_z
 _atom_site_occupancy
  Lu  Lu0  1  0.50000000  0.99814714  0.00185286  1
  Lu  Lu1  1  0.00368069  0.50168656  0.00184051  1
  Lu  Lu2  1  0.99631931  0.99815949  0.49831344  1
  Lu  Lu3  1  0.50000000  0.50182055  0.49817945  1
  Sb  Sb0  1  0.99999951  0.31436227  0.31443886  1
  Sb  Sb1  1  0.68499262  0.99977804  0.68483523  1
  Sb  Sb2  1  0.68517919  0.68531922  0.00020322  1
  Sb  Sb3  1  0.00000049  0.68556114  0.68563773  1
  Sb  Sb4  1  0.31482081  0.99979678  0.31468078  1
  Sb  Sb5  1  0.31500738  0.31516477  0.00022196  1
  Ru  Ru0  1  0.00000000  0.00010663  0.99989337  1
  Ru  Ru1  1  0.50000000  0.75005073  0.24994927  1
  Rh  Rh0  1  0.75057378  0.49975967  0.25028096  1
  Rh  Rh1  1  0.24942622  0.74971904  0.50024033  1
  Rh  Rh2  1  0.24950308  0.49977271  0.74923633  1
  Rh  Rh3  1  0.50000000  0.25003159  0.74996841  1
  Rh  Rh4  1  0.75049692  0.25076367  0.50022729  1
loop_
_geom_bond_atom_site_label_1
_geom_bond_atom_site_label_2
_geom_bond_distance
_geom_bond_site_symmetry_2
Lu0 Ru1 3.024073 1_555
Lu0 Rh4 3.041223 1_565
Lu0 Rh2 3.041223 1_554
Lu0 Rh1 3.060871 1_554
Lu0 Rh0 3.060871 1_565
Lu0 Rh3 3.070246 1_564
Lu0 Sb4 3.086891 1_555
Lu0 Sb2 3.086891 1_555
Lu0 Sb3 3.097730 1_554
Lu0 Sb0 3.097730 1_565
Lu0 Sb1 3.116821 1_554
Lu0 Sb5 3.116821 1_565
Lu1 Ru1 3.024800 1_555
Lu1 Rh2 3.041376 1_554
Lu1 Rh1 3.041380 1_555
Lu1 Rh0 3.060310 1_455
Lu1 Rh4 3.060875 1_454
Lu1 Rh3 3.069663 1_454
Lu1 Sb5 3.086208 1_555
Lu1 Sb4 3.087562 1_555
Lu1 Sb0 3.097393 1_455
Lu1 Sb3 3.098083 1_554
Lu1 Sb1 3.116462 1_444
Lu1 Sb2 3.117173 1_455
Lu2 Ru1 3.024800 1_555
Lu2 Rh4 3.041376 1_565
Lu2 Rh0 3.041380 1_555
Lu2 Rh1 3.060310 1_655
Lu2 Rh2 3.060875 1_665
Lu2 Rh3 3.069663 1_665
Lu2 Sb1 3.086208 1_555
Lu2 Sb2 3.087562 1_555
Lu2 Sb3 3.097393 1_655
Lu2 Sb0 3.098083 1_565
Lu2 Sb5 3.116462 1_666
Lu2 Sb4 3.117173 1_655
Lu3 Ru1 3.025703 1_555
Lu3 Rh0 3.041654 1_555
Lu3 Rh1 3.041654 1_555
Lu3 Rh2 3.060350 1_555
Lu3 Rh4 3.060350 1_555
Lu3 Rh3 3.069082 1_555
Lu3 Sb5 3.086947 1_555
Lu3 Sb1 3.086947 1_555
Lu3 Sb3 3.097657 1_655
Lu3 Sb0 3.097657 1_455
Lu3 Sb2 3.116773 1_556
Lu3 Sb4 3.116774 1_545
Ru0 Sb1 2.713831 1_445
Ru0 Sb5 2.713831 1_556
Ru0 Sb4 2.714612 1_546
Ru0 Sb2 2.714612 1_446
Ru0 Sb0 2.716341 1_456
Ru0 Sb3 2.716341 1_545
Ru1 Sb1 2.683864 1_555
Ru1 Sb5 2.683864 1_555
Ru1 Sb2 2.683962 1_555
Ru1 Sb4 2.683962 1_555
Rh0 Sb0 2.680957 1_555
Rh0 Sb3 2.683850 1_655
Rh0 Sb5 2.684360 1_555
Rh0 Sb2 2.684763 1_555
Rh0 Ru1 3.056125 1_555
Rh1 Sb3 2.680957 1_555
Rh1 Sb0 2.683850 1_455
Rh1 Sb1 2.684361 1_555
Rh1 Sb4 2.684763 1_555
Rh1 Ru1 3.056125 1_555
Rh2 Sb0 2.680881 1_455
Rh2 Sb3 2.683294 1_555
Rh2 Sb5 2.684599 1_556
Rh2 Sb2 2.684982 1_556
Rh2 Ru1 3.055362 1_556
Rh3 Sb5 2.686266 1_556
Rh3 Sb1 2.686266 1_545
Rh3 Sb4 2.686582 1_545
Rh3 Sb2 2.686582 1_556
Rh4 Sb3 2.680882 1_655
Rh4 Sb0 2.683294 1_555
Rh4 Sb1 2.684599 1_545
Rh4 Sb4 2.684982 1_545
Rh4 Ru1 3.055362 1_545
