# generated using pymatgen
data_Na2Nb5ReSe12
_symmetry_space_group_name_H-M   'P 1'
_cell_length_a   6.00120497
_cell_length_b   6.00120296
_cell_length_c   15.41075731
_cell_angle_alpha   90.00000000
_cell_angle_beta   90.00000000
_cell_angle_gamma   119.99999999
_symmetry_Int_Tables_number   1
_chemical_formula_structural   Na2Nb5ReSe12
_chemical_formula_sum   'Na2 Nb5 Re1 Se12'
_cell_volume   480.65270185
_cell_formula_units_Z   1
loop_
 _symmetry_equiv_pos_site_id
 _symmetry_equiv_pos_as_xyz
  1  'x, y, z'
loop_
 _atom_site_type_symbol
 _atom_site_label
 _atom_site_symmetry_multiplicity
 _atom_site_fract_x
 _atom_site_fract_y
 _atom_site_fract_z
 _atom_site_occupancy
  Na  Na0  1  0.33333300  0.66666700  0.25232760  1
  Na  Na1  1  0.66666700  0.33333300  0.75026615  1
  Nb  Nb0  1  0.00000000  0.00000000  0.99905556  1
  Nb  Nb1  1  0.66666700  0.33333300  0.99856726  1
  Nb  Nb2  1  0.33333300  0.66666700  0.50092889  1
  Nb  Nb3  1  0.00000000  0.00000000  0.50106811  1
  Nb  Nb4  1  0.66666700  0.33333300  0.50119889  1
  Re  Re0  1  0.33333300  0.66666700  0.99829016  1
  Se  Se0  1  0.66932007  0.66647657  0.39266924  1
  Se  Se1  1  0.66648323  0.66924737  0.60946118  1
  Se  Se2  1  0.01138290  0.66975491  0.89235659  1
  Se  Se3  1  0.65837401  0.98861710  0.89235659  1
  Se  Se4  1  0.65795568  0.99171899  0.10494513  1
  Se  Se5  1  0.33352343  0.00284450  0.39266924  1
  Se  Se6  1  0.00276515  0.33351677  0.60946118  1
  Se  Se7  1  0.33075263  0.99723485  0.60946118  1
  Se  Se8  1  0.00828101  0.66623769  0.10494513  1
  Se  Se9  1  0.33024509  0.34162599  0.89235659  1
  Se  Se10  1  0.99715550  0.33067993  0.39266924  1
  Se  Se11  1  0.33376231  0.34204432  0.10494513  1
loop_
_geom_bond_atom_site_label_1
_geom_bond_atom_site_label_2
_geom_bond_distance
_geom_bond_site_symmetry_2
Na0 Se5 2.957272 1_565
Na0 Se10 2.957272 1_455
Na0 Se0 2.957272 1_555
Na0 Se11 2.993145 1_555
Na0 Se4 2.993145 1_555
Na0 Se8 2.993145 1_555
Na1 Se1 2.962187 1_555
Na1 Se7 2.962187 1_545
Na1 Se6 2.962188 1_655
Na1 Se9 2.995654 1_555
Na1 Se2 2.995655 1_655
Na1 Se3 2.995657 1_545
Nb0 Se3 2.602223 1_445
Nb0 Se9 2.602227 1_555
Nb0 Se2 2.602232 1_545
Nb0 Se8 2.603232 1_546
Nb0 Se11 2.603235 1_556
Nb0 Se4 2.603237 1_446
Nb1 Se4 2.604987 1_546
Nb1 Se8 2.604992 1_656
Nb1 Se11 2.604997 1_556
Nb1 Se9 2.618804 1_555
Nb1 Se2 2.618806 1_655
Nb1 Se3 2.618808 1_545
Nb2 Se7 2.600753 1_555
Nb2 Se6 2.600757 1_555
Nb2 Se1 2.600762 1_555
Nb2 Se5 2.617502 1_565
Nb2 Se10 2.617502 1_455
Nb2 Se0 2.617502 1_555
Nb3 Se5 2.600557 1_555
Nb3 Se0 2.600559 1_445
Nb3 Se10 2.600561 1_455
Nb3 Se6 2.600648 1_555
Nb3 Se1 2.600651 1_445
Nb3 Se7 2.600654 1_545
Nb4 Se10 2.600531 1_555
Nb4 Se5 2.600536 1_555
Nb4 Se0 2.600540 1_555
Nb4 Se1 2.617176 1_555
Nb4 Se7 2.617176 1_545
Nb4 Se6 2.617176 1_655
Re0 Se2 2.536577 1_555
Re0 Se3 2.536584 1_555
Re0 Se9 2.536590 1_555
Re0 Se11 2.549854 1_556
Re0 Se4 2.549854 1_556
Re0 Se8 2.549854 1_556
