# generated using pymatgen
data_FeHgCl4
_symmetry_space_group_name_H-M   'P 1'
_cell_length_a   6.53401567
_cell_length_b   6.55441748
_cell_length_c   9.46301169
_cell_angle_alpha   83.07212076
_cell_angle_beta   74.70285696
_cell_angle_gamma   61.84390868
_symmetry_Int_Tables_number   1
_chemical_formula_structural   FeHgCl4
_chemical_formula_sum   'Fe2 Hg2 Cl8'
_cell_volume   344.64891806
_cell_formula_units_Z   2
loop_
 _symmetry_equiv_pos_site_id
 _symmetry_equiv_pos_as_xyz
  1  'x, y, z'
loop_
 _atom_site_type_symbol
 _atom_site_label
 _atom_site_symmetry_multiplicity
 _atom_site_fract_x
 _atom_site_fract_y
 _atom_site_fract_z
 _atom_site_occupancy
  Fe  Fe0  1  0.39100725  0.84490302  0.75501364  1
  Fe  Fe1  1  0.60899275  0.15509698  0.24498636  1
  Hg  Hg0  1  0.94059072  0.50986074  0.87866575  1
  Hg  Hg1  1  0.05940928  0.49013926  0.12133425  1
  Cl  Cl0  1  0.75378746  0.53721824  0.67179435  1
  Cl  Cl1  1  0.24621254  0.46278176  0.32820565  1
  Cl  Cl2  1  0.32676412  0.82734946  0.99387885  1
  Cl  Cl3  1  0.67323588  0.17265054  0.00612115  1
  Cl  Cl4  1  0.12220539  0.81557683  0.67599123  1
  Cl  Cl5  1  0.87779461  0.18442317  0.32400877  1
  Cl  Cl6  1  0.40246627  0.16895896  0.68229593  1
  Cl  Cl7  1  0.59753373  0.83104104  0.31770407  1
loop_
_geom_bond_atom_site_label_1
_geom_bond_atom_site_label_2
_geom_bond_distance
_geom_bond_site_symmetry_2
Cl0 Fe0 2.278756 1_555
Cl0 Hg0 2.514718 1_555
Cl1 Fe1 2.278756 1_555
Cl1 Hg1 2.514718 1_555
Cl2 Fe0 2.186542 1_555
Cl3 Fe1 2.186542 1_555
Cl4 Fe0 2.174216 1_555
Cl5 Fe1 2.174216 1_555
Cl6 Fe0 2.181926 1_545
Cl7 Fe1 2.181926 1_565
