# generated using pymatgen
data_KLiHfTe3
_symmetry_space_group_name_H-M   'P 1'
_cell_length_a   4.23798343
_cell_length_b   8.86881145
_cell_length_c   10.71623492
_cell_angle_alpha   70.39766763
_cell_angle_beta   90.00000000
_cell_angle_gamma   90.00000000
_symmetry_Int_Tables_number   1
_chemical_formula_structural   KLiHfTe3
_chemical_formula_sum   'K2 Li2 Hf2 Te6'
_cell_volume   379.43553061
_cell_formula_units_Z   2
loop_
 _symmetry_equiv_pos_site_id
 _symmetry_equiv_pos_as_xyz
  1  'x, y, z'
loop_
 _atom_site_type_symbol
 _atom_site_label
 _atom_site_symmetry_multiplicity
 _atom_site_fract_x
 _atom_site_fract_y
 _atom_site_fract_z
 _atom_site_occupancy
  K  K0  1  0.75000000  0.74974219  0.29067750  1
  K  K1  1  0.25000000  0.25025781  0.70932250  1
  Li  Li0  1  0.25000000  0.07599433  0.40089438  1
  Li  Li1  1  0.75000000  0.92400567  0.59910562  1
  Hf  Hf0  1  0.25000000  0.68593303  0.83868284  1
  Hf  Hf1  1  0.75000000  0.31406697  0.16131716  1
  Te  Te0  1  0.25000000  0.75072212  0.56259628  1
  Te  Te1  1  0.75000000  0.89960703  0.85807018  1
  Te  Te2  1  0.75000000  0.44583908  0.86803975  1
  Te  Te3  1  0.75000000  0.24927788  0.43740372  1
  Te  Te4  1  0.25000000  0.55416092  0.13196025  1
  Te  Te5  1  0.25000000  0.10039297  0.14192982  1
loop_
_geom_bond_atom_site_label_1
_geom_bond_atom_site_label_2
_geom_bond_distance
_geom_bond_site_symmetry_2
K0 Te4 3.517290 1_555
K0 Te4 3.517290 1_655
K0 Te0 3.605312 1_555
K0 Te0 3.605312 1_655
K0 Te5 3.657330 1_565
K0 Te5 3.657330 1_665
K1 Te2 3.517290 1_455
K1 Te2 3.517290 1_555
K1 Te3 3.605312 1_455
K1 Te3 3.605312 1_555
K1 Te1 3.657330 1_445
K1 Te1 3.657330 1_545
Li0 Te5 2.710206 1_555
Li0 Te3 2.721847 1_555
Li0 Te3 2.721847 1_455
Li0 Te0 2.823214 1_545
Li1 Te1 2.710206 1_555
Li1 Te0 2.721847 1_555
Li1 Te0 2.721847 1_655
Li1 Te3 2.823214 1_565
Hf0 Te0 2.818306 1_555
Hf0 Te1 2.896311 1_555
Hf0 Te1 2.896311 1_455
Hf0 Te2 2.945122 1_555
Hf0 Te2 2.945122 1_455
Hf0 Te4 2.962888 1_556
Hf1 Te3 2.818306 1_555
Hf1 Te5 2.896311 1_555
Hf1 Te5 2.896311 1_655
Hf1 Te4 2.945122 1_555
Hf1 Te4 2.945122 1_655
Hf1 Te2 2.962888 1_554
