# generated using pymatgen
data_Cs4YBiBr10
_symmetry_space_group_name_H-M   'P 1'
_cell_length_a   7.90837958
_cell_length_b   10.07136001
_cell_length_c   16.17056989
_cell_angle_alpha   89.77155510
_cell_angle_beta   90.00000000
_cell_angle_gamma   90.00000000
_symmetry_Int_Tables_number   1
_chemical_formula_structural   Cs4YBiBr10
_chemical_formula_sum   'Cs8 Y2 Bi2 Br20'
_cell_volume   1287.94554248
_cell_formula_units_Z   2
loop_
 _symmetry_equiv_pos_site_id
 _symmetry_equiv_pos_as_xyz
  1  'x, y, z'
loop_
 _atom_site_type_symbol
 _atom_site_label
 _atom_site_symmetry_multiplicity
 _atom_site_fract_x
 _atom_site_fract_y
 _atom_site_fract_z
 _atom_site_occupancy
  Cs  Cs0  1  0.25000000  0.67428257  0.91840801  1
  Cs  Cs1  1  0.75000000  0.32571743  0.08159199  1
  Cs  Cs2  1  0.75000000  0.81711824  0.41316308  1
  Cs  Cs3  1  0.25000000  0.18288176  0.58683692  1
  Cs  Cs4  1  0.25000000  0.96241401  0.20112861  1
  Cs  Cs5  1  0.75000000  0.03758599  0.79887139  1
  Cs  Cs6  1  0.75000000  0.53407390  0.70353247  1
  Cs  Cs7  1  0.25000000  0.46592610  0.29646753  1
  Y  Y0  1  0.75000000  0.81434509  0.06365511  1
  Y  Y1  1  0.25000000  0.18565491  0.93634489  1
  Bi  Bi0  1  0.25000000  0.69347642  0.56485699  1
  Bi  Bi1  1  0.75000000  0.30652358  0.43514301  1
  Br  Br0  1  0.25000000  0.53738231  0.70927559  1
  Br  Br1  1  0.75000000  0.46261769  0.29072441  1
  Br  Br2  1  0.75000000  0.97222396  0.20211123  1
  Br  Br3  1  0.25000000  0.02777604  0.79788877  1
  Br  Br4  1  0.51103951  0.85536678  0.61578008  1
  Br  Br5  1  0.48896049  0.14463322  0.38421992  1
  Br  Br6  1  0.49470033  0.65383555  0.11640122  1
  Br  Br7  1  0.01103951  0.14463322  0.38421992  1
  Br  Br8  1  0.50529967  0.34616445  0.88359878  1
  Br  Br9  1  0.98896049  0.85536678  0.61578008  1
  Br  Br10  1  0.99470033  0.34616445  0.88359878  1
  Br  Br11  1  0.00529967  0.65383555  0.11640122  1
  Br  Br12  1  0.25000000  0.79514536  0.39578213  1
  Br  Br13  1  0.75000000  0.20485464  0.60421787  1
  Br  Br14  1  0.75000000  0.71178807  0.90307268  1
  Br  Br15  1  0.25000000  0.28821193  0.09692732  1
  Br  Br16  1  0.00000000  0.50000000  0.50000000  1
  Br  Br17  1  0.00000000  0.00000000  0.00000000  1
  Br  Br18  1  0.50000000  0.50000000  0.50000000  1
  Br  Br19  1  0.50000000  0.00000000  0.00000000  1
loop_
_geom_bond_atom_site_label_1
_geom_bond_atom_site_label_2
_geom_bond_distance
_geom_bond_site_symmetry_2
Bi0 Br4 2.758427 1_555
Bi0 Br9 2.758427 1_455
Bi0 Br0 2.809970 1_555
Bi0 Br12 2.915664 1_555
Bi0 Br18 2.970195 1_555
Bi0 Br16 2.970195 1_555
Bi1 Br7 2.758427 1_655
Bi1 Br5 2.758427 1_555
Bi1 Br1 2.809970 1_555
Bi1 Br13 2.915664 1_555
Bi1 Br16 2.970195 1_655
Bi1 Br18 2.970195 1_555
Br0 Cs0 3.657144 1_555
Br0 Cs6 3.955424 1_555
Br0 Cs6 3.955424 1_455
Br0 Cs3 4.089431 1_555
Br1 Cs1 3.657144 1_555
Br1 Cs7 3.955424 1_555
Br1 Cs7 3.955424 1_655
Br1 Cs2 4.089431 1_555
Br2 Y0 2.751254 1_555
Br2 Cs2 3.747682 1_555
Br2 Cs4 3.955457 1_655
Br2 Cs4 3.955457 1_555
Br2 Cs1 4.051850 1_565
Br3 Y1 2.751254 1_555
Br3 Cs3 3.747682 1_555
Br3 Cs5 3.955457 1_555
Br3 Cs5 3.955457 1_455
Br3 Cs0 4.051850 1_545
Br4 Cs2 3.803258 1_555
Br4 Cs3 3.917745 1_565
Br4 Cs5 3.968409 1_565
Br4 Cs6 4.002379 1_555
Br5 Cs3 3.803258 1_555
Br5 Cs2 3.917745 1_545
Br5 Cs4 3.968409 1_545
Br5 Cs7 4.002379 1_555
Br6 Y0 2.721419 1_555
Br6 Cs0 3.746028 1_554
Br6 Cs4 3.913373 1_555
Br6 Cs1 3.915152 1_555
Br6 Cs7 3.970012 1_555
Br7 Cs3 3.803258 1_555
Br7 Cs2 3.917745 1_445
Br7 Cs4 3.968409 1_545
Br7 Cs7 4.002379 1_555
Br8 Y1 2.721419 1_555
Br8 Cs1 3.746028 1_556
Br8 Cs5 3.913373 1_555
Br8 Cs0 3.915152 1_555
Br8 Cs6 3.970012 1_555
Br9 Cs2 3.803258 1_555
Br9 Cs3 3.917745 1_665
Br9 Cs5 3.968409 1_565
Br9 Cs6 4.002379 1_555
Br10 Y1 2.721419 1_655
Br10 Cs1 3.746028 1_556
Br10 Cs5 3.913373 1_555
Br10 Cs0 3.915152 1_655
Br10 Cs6 3.970012 1_555
Br11 Y0 2.721419 1_455
Br11 Cs0 3.746028 1_554
Br11 Cs4 3.913373 1_555
Br11 Cs1 3.915152 1_455
Br11 Cs7 3.970012 1_555
Br12 Cs4 3.564186 1_555
Br12 Cs7 3.689903 1_555
Br12 Cs2 3.970400 1_455
Br12 Cs2 3.970400 1_555
Br13 Cs5 3.564186 1_555
Br13 Cs6 3.689903 1_555
Br13 Cs3 3.970400 1_655
Br13 Cs3 3.970400 1_555
Br14 Y0 2.798419 1_556
Br14 Cs5 3.682604 1_565
Br14 Cs6 3.696076 1_555
Br14 Cs0 3.979830 1_555
Br14 Cs0 3.979830 1_655
Br15 Y1 2.798419 1_554
Br15 Cs4 3.682604 1_545
Br15 Cs7 3.696076 1_555
Br15 Cs1 3.979830 1_455
Br15 Cs1 3.979830 1_555
Br16 Cs6 3.855893 1_455
Br16 Cs7 3.855893 1_555
Br16 Cs2 4.005666 1_455
Br16 Cs3 4.005666 1_555
Br17 Y1 2.906757 1_554
Br17 Y0 2.906757 1_445
Br17 Cs4 3.823644 1_545
Br17 Cs5 3.823644 1_454
Br17 Cs1 4.055286 1_455
Br17 Cs0 4.055286 1_544
Br18 Cs6 3.855893 1_555
Br18 Cs7 3.855893 1_555
Br18 Cs2 4.005666 1_555
Br18 Cs3 4.005666 1_555
Br19 Y1 2.906757 1_554
Br19 Y0 2.906757 1_545
Br19 Cs4 3.823644 1_545
Br19 Cs5 3.823644 1_554
Br19 Cs1 4.055286 1_555
Br19 Cs0 4.055286 1_544
