# generated using pymatgen
data_Cs8Sb7As
_symmetry_space_group_name_H-M   'P 1'
_cell_length_a   7.39216703
_cell_length_b   7.65045508
_cell_length_c   13.36642066
_cell_angle_alpha   89.51788666
_cell_angle_beta   89.60032426
_cell_angle_gamma   90.27828305
_symmetry_Int_Tables_number   1
_chemical_formula_structural   Cs8Sb7As
_chemical_formula_sum   'Cs8 Sb7 As1'
_cell_volume   755.86280858
_cell_formula_units_Z   1
loop_
 _symmetry_equiv_pos_site_id
 _symmetry_equiv_pos_as_xyz
  1  'x, y, z'
loop_
 _atom_site_type_symbol
 _atom_site_label
 _atom_site_symmetry_multiplicity
 _atom_site_fract_x
 _atom_site_fract_y
 _atom_site_fract_z
 _atom_site_occupancy
  Cs  Cs0  1  0.58741990  0.87464739  0.57935688  1
  Cs  Cs1  1  0.82610761  0.34947464  0.70861246  1
  Cs  Cs2  1  0.40710027  0.39171043  0.91265777  1
  Cs  Cs3  1  0.32816525  0.17991392  0.28251864  1
  Cs  Cs4  1  0.09670848  0.60611896  0.41669186  1
  Cs  Cs5  1  0.90742180  0.10268185  0.08920919  1
  Cs  Cs6  1  0.17433277  0.85100904  0.78619781  1
  Cs  Cs7  1  0.67221015  0.65220687  0.22425582  1
  Sb  Sb0  1  0.08818852  0.06952667  0.52756631  1
  Sb  Sb1  1  0.67690008  0.82743714  0.88784693  1
  Sb  Sb2  1  0.41180413  0.93156596  0.03497410  1
  Sb  Sb3  1  0.33985029  0.32295761  0.60614835  1
  Sb  Sb4  1  0.81303668  0.18639612  0.39003885  1
  Sb  Sb5  1  0.90762102  0.56211842  0.96992871  1
  Sb  Sb6  1  0.17409217  0.66664371  0.11509419  1
  As  As0  1  0.58904287  0.42559226  0.46890112  1
loop_
_geom_bond_atom_site_label_1
_geom_bond_atom_site_label_2
_geom_bond_distance
_geom_bond_site_symmetry_2
Cs0 Sb4 3.830696 1_565
Cs0 Sb3 3.913220 1_565
Cs0 Sb0 4.037125 1_665
Cs0 Sb0 4.048806 1_565
Cs0 Sb1 4.193539 1_555
Cs1 Sb0 3.776048 1_655
Cs1 Sb3 3.860514 1_555
Cs1 Sb5 3.914740 1_555
Cs1 Sb3 4.034700 1_655
Cs2 Sb6 3.844282 1_556
Cs2 Sb2 3.869360 1_546
Cs2 Sb1 3.886836 1_555
Cs2 Sb5 3.992787 1_455
Cs2 Sb5 3.998073 1_555
Cs2 Sb3 4.167830 1_555
Cs3 Sb0 3.800821 1_555
Cs3 Sb4 3.871186 1_555
Cs3 Sb2 3.876711 1_545
Cs3 Sb4 4.061379 1_455
Cs3 Sb6 4.484162 1_555
Cs4 Sb3 3.787504 1_555
Cs4 Sb4 3.846993 1_455
Cs4 Sb0 3.854682 1_565
Cs4 Sb6 4.089829 1_555
Cs5 Sb1 3.834921 1_544
Cs5 Sb5 3.847348 1_554
Cs5 Sb6 3.897147 1_645
Cs5 Sb2 3.958327 1_545
Cs5 Sb2 4.020762 1_645
Cs5 Sb4 4.132080 1_555
Cs6 Sb5 3.821219 1_455
Cs6 Sb2 3.824139 1_556
Cs6 Sb0 3.885199 1_565
Cs6 Sb1 3.913999 1_455
Cs6 Sb1 3.969009 1_555
Cs7 Sb2 3.832900 1_555
Cs7 Sb5 3.876605 1_554
Cs7 Sb6 3.971870 1_555
Cs7 Sb6 3.977817 1_655
Cs7 Sb4 4.316140 1_555
Sb0 Sb3 2.889594 1_555
Sb0 Sb4 2.890983 1_455
Sb1 Sb5 2.873138 1_555
Sb1 Sb2 2.886161 1_556
Sb2 Sb6 2.871426 1_555
Sb5 Sb6 2.889401 1_656
As0 Sb4 2.690559 1_555
As0 Sb3 2.699953 1_555
As0 Cs3 3.683566 1_555
As0 Cs1 3.705818 1_555
As0 Cs7 3.734032 1_555
As0 Cs0 3.750720 1_555
As0 Cs4 3.963315 1_555
As0 Cs4 4.046540 1_655
