# generated using pymatgen
data_ZnSiAs2
_symmetry_space_group_name_H-M   'P 1'
_cell_length_a   5.60696307
_cell_length_b   5.60696269
_cell_length_c   6.75519731
_cell_angle_alpha   114.52000142
_cell_angle_beta   114.52000707
_cell_angle_gamma   90.00000940
_symmetry_Int_Tables_number   1
_chemical_formula_structural   ZnSiAs2
_chemical_formula_sum   'Zn2 Si2 As4'
_cell_volume   171.94529126
_cell_formula_units_Z   2
loop_
 _symmetry_equiv_pos_site_id
 _symmetry_equiv_pos_as_xyz
  1  'x, y, z'
loop_
 _atom_site_type_symbol
 _atom_site_label
 _atom_site_symmetry_multiplicity
 _atom_site_fract_x
 _atom_site_fract_y
 _atom_site_fract_z
 _atom_site_occupancy
  Zn  Zn0  1  0.00000000  0.00000000  -0.00000000  1
  Zn  Zn1  1  0.25000000  0.75000000  0.50000000  1
  Si  Si0  1  0.50000000  0.50000000  -0.00000000  1
  Si  Si1  1  0.75000000  0.25000000  0.50000000  1
  As  As0  1  0.86220828  0.87500000  0.25000000  1
  As  As1  1  0.62500000  0.13779172  0.75000000  1
  As  As2  1  0.12500000  0.61220828  0.75000000  1
  As  As3  1  0.38779172  0.37500000  0.25000000  1
loop_
_geom_bond_atom_site_label_1
_geom_bond_atom_site_label_2
_geom_bond_distance
_geom_bond_site_symmetry_2
As0 Si0 2.367156 1_555
As0 Si1 2.367157 1_565
As0 Zn0 2.450628 1_665
As0 Zn1 2.450628 1_655
As1 Si1 2.367156 1_555
As1 Si0 2.367157 1_556
As1 Zn1 2.450628 1_545
As1 Zn0 2.450628 1_656
As2 Si1 2.367156 1_455
As2 Si0 2.367157 1_556
As2 Zn1 2.450628 1_555
As2 Zn0 2.450628 1_566
As3 Si0 2.367156 1_555
As3 Si1 2.367157 1_555
As3 Zn0 2.450628 1_555
As3 Zn1 2.450628 1_555
