# generated using pymatgen
data_YTa8MoS16
_symmetry_space_group_name_H-M   'P 1'
_cell_length_a   6.66714725
_cell_length_b   6.66714715
_cell_length_c   13.04889815
_cell_angle_alpha   90.00000000
_cell_angle_beta   90.00000000
_cell_angle_gamma   120.00001040
_symmetry_Int_Tables_number   1
_chemical_formula_structural   YTa8MoS16
_chemical_formula_sum   'Y1 Ta8 Mo1 S16'
_cell_volume   502.32467861
_cell_formula_units_Z   1
loop_
 _symmetry_equiv_pos_site_id
 _symmetry_equiv_pos_as_xyz
  1  'x, y, z'
loop_
 _atom_site_type_symbol
 _atom_site_label
 _atom_site_symmetry_multiplicity
 _atom_site_fract_x
 _atom_site_fract_y
 _atom_site_fract_z
 _atom_site_occupancy
  Y  Y0  1  0.00000000  0.00000000  0.50000000  1
  Ta  Ta0  1  0.50547803  0.49452197  0.76581086  1
  Ta  Ta1  1  0.01095405  0.50547803  0.23418914  1
  Ta  Ta2  1  0.49452197  0.98904595  0.23418914  1
  Ta  Ta3  1  0.50547803  0.01095405  0.76581086  1
  Ta  Ta4  1  0.98904595  0.49452197  0.76581086  1
  Ta  Ta5  1  0.49452197  0.50547803  0.23418914  1
  Ta  Ta6  1  0.00000000  0.00000000  0.76454815  1
  Ta  Ta7  1  0.00000000  0.00000000  0.23545185  1
  Mo  Mo0  1  0.00000000  0.00000000  0.00000000  1
  S  S0  1  0.83104842  0.16895158  0.35467285  1
  S  S1  1  0.83104842  0.66209484  0.35467285  1
  S  S2  1  0.33790516  0.16895158  0.35467285  1
  S  S3  1  0.66530413  0.83265206  0.88365060  1
  S  S4  1  0.16895158  0.33790516  0.64532715  1
  S  S5  1  0.16734794  0.83265206  0.88365060  1
  S  S6  1  0.16734794  0.33469587  0.88365060  1
  S  S7  1  0.83265206  0.16734794  0.11634940  1
  S  S8  1  0.33469587  0.16734794  0.11634940  1
  S  S9  1  0.66209484  0.83104842  0.64532715  1
  S  S10  1  0.33333300  0.66666700  0.11251057  1
  S  S11  1  0.66666700  0.33333300  0.64283819  1
  S  S12  1  0.66666700  0.33333300  0.88748943  1
  S  S13  1  0.33333300  0.66666700  0.35716181  1
  S  S14  1  0.83265206  0.66530413  0.11634940  1
  S  S15  1  0.16895158  0.83104842  0.64532715  1
loop_
_geom_bond_atom_site_label_1
_geom_bond_atom_site_label_2
_geom_bond_distance
_geom_bond_site_symmetry_2
Mo0 S14 2.457561 1_445
Mo0 S6 2.457561 1_554
Mo0 S8 2.457562 1_555
Mo0 S3 2.457562 1_444
Mo0 S7 2.457562 1_455
Mo0 S5 2.457562 1_544
S0 Ta7 2.495338 1_655
S0 Ta1 2.500664 1_655
S0 Ta2 2.500664 1_545
S0 Y0 2.720786 1_655
S1 Ta7 2.495347 1_665
S1 Ta1 2.500646 1_655
S1 Ta5 2.500665 1_555
S1 Y0 2.720794 1_665
S2 Ta7 2.495347 1_555
S2 Ta2 2.500646 1_545
S2 Ta5 2.500665 1_555
S2 Y0 2.720794 1_555
S3 Ta6 2.479916 1_665
S3 Ta3 2.485924 1_565
S3 Ta0 2.485933 1_555
S4 Ta6 2.495347 1_555
S4 Ta4 2.500646 1_455
S4 Ta0 2.500665 1_555
S4 Y0 2.720794 1_555
S5 Ta6 2.479916 1_565
S5 Ta4 2.485933 1_455
S5 Ta3 2.485933 1_565
S6 Ta6 2.479916 1_555
S6 Ta4 2.485924 1_455
S6 Ta0 2.485933 1_555
S7 Ta7 2.479916 1_655
S7 Ta1 2.485933 1_655
S7 Ta2 2.485933 1_545
S8 Ta7 2.479916 1_555
S8 Ta2 2.485924 1_545
S8 Ta5 2.485933 1_555
S9 Ta6 2.495347 1_665
S9 Ta3 2.500646 1_565
S9 Ta0 2.500665 1_555
S9 Y0 2.720794 1_665
S10 Ta5 2.446583 1_555
S10 Ta2 2.446587 1_555
S10 Ta1 2.446587 1_555
S11 Ta0 2.457576 1_555
S11 Ta3 2.457580 1_555
S11 Ta4 2.457580 1_555
S12 Ta0 2.446583 1_555
S12 Ta3 2.446587 1_555
S12 Ta4 2.446587 1_555
S13 Ta5 2.457576 1_555
S13 Ta2 2.457580 1_555
S13 Ta1 2.457580 1_555
S14 Ta7 2.479916 1_665
S14 Ta1 2.485924 1_655
S14 Ta5 2.485933 1_555
S15 Ta6 2.495338 1_565
S15 Ta4 2.500664 1_455
S15 Ta3 2.500664 1_565
S15 Y0 2.720786 1_565
