# generated using pymatgen
data_Hf6MnPtN2
_symmetry_space_group_name_H-M   'P 1'
_cell_length_a   5.93397883
_cell_length_b   5.93398021
_cell_length_c   8.73571301
_cell_angle_alpha   90.00000000
_cell_angle_beta   90.00000000
_cell_angle_gamma   148.11397218
_symmetry_Int_Tables_number   1
_chemical_formula_structural   Hf6MnPtN2
_chemical_formula_sum   'Hf6 Mn1 Pt1 N2'
_cell_volume   162.48548320
_cell_formula_units_Z   1
loop_
 _symmetry_equiv_pos_site_id
 _symmetry_equiv_pos_as_xyz
  1  'x, y, z'
loop_
 _atom_site_type_symbol
 _atom_site_label
 _atom_site_symmetry_multiplicity
 _atom_site_fract_x
 _atom_site_fract_y
 _atom_site_fract_z
 _atom_site_occupancy
  Hf  Hf0  1  0.37020709  0.62979191  0.05958701  1
  Hf  Hf1  1  0.05253269  0.94746631  0.25000000  1
  Hf  Hf2  1  0.37020709  0.62979191  0.44041399  1
  Hf  Hf3  1  0.63081864  0.36918036  0.55154242  1
  Hf  Hf4  1  0.94789023  0.05210877  0.75000000  1
  Hf  Hf5  1  0.63081864  0.36918036  0.94845758  1
  Mn  Mn0  1  0.74419319  0.25580481  0.25000000  1
  Pt  Pt0  1  0.25394237  0.74605563  0.75000000  1
  N  N0  1  0.99969252  0.00030748  0.99790730  1
  N  N1  1  0.99969252  0.00030748  0.50209270  1
loop_
_geom_bond_atom_site_label_1
_geom_bond_atom_site_label_2
_geom_bond_distance
_geom_bond_site_symmetry_2
Hf0 N0 2.265039 1_454
Hf0 N0 2.265041 1_564
Hf0 Mn0 2.737052 1_565
Hf0 Mn0 2.737053 1_455
Hf0 Pt0 3.012370 1_554
Hf1 N0 2.283270 1_464
Hf1 N1 2.283270 1_465
Hf1 Mn0 2.727688 1_565
Hf1 Mn0 2.727691 1_455
Hf2 N1 2.265037 1_455
Hf2 N1 2.265039 1_565
Hf2 Mn0 2.737057 1_565
Hf2 Mn0 2.737059 1_455
Hf2 Pt0 3.012362 1_555
Hf3 N1 2.254417 1_455
Hf3 N1 2.254420 1_565
Hf3 Pt0 2.763412 1_655
Hf3 Pt0 2.763415 1_545
Hf3 Mn0 2.934757 1_555
Hf4 N1 2.244876 1_555
Hf4 N0 2.244876 1_555
Hf4 Pt0 2.748654 1_655
Hf4 Pt0 2.748655 1_545
Hf5 N0 2.254417 1_455
Hf5 N0 2.254420 1_565
Hf5 Pt0 2.763412 1_655
Hf5 Pt0 2.763415 1_545
Hf5 Mn0 2.934757 1_556
