# generated using pymatgen
data_BaMnCrP2
_symmetry_space_group_name_H-M   'P 1'
_cell_length_a   7.06509116
_cell_length_b   7.06509073
_cell_length_c   7.06509226
_cell_angle_alpha   148.00116809
_cell_angle_beta   148.00116699
_cell_angle_gamma   45.88364205
_symmetry_Int_Tables_number   1
_chemical_formula_structural   BaMnCrP2
_chemical_formula_sum   'Ba1 Mn1 Cr1 P2'
_cell_volume   98.68965618
_cell_formula_units_Z   1
loop_
 _symmetry_equiv_pos_site_id
 _symmetry_equiv_pos_as_xyz
  1  'x, y, z'
loop_
 _atom_site_type_symbol
 _atom_site_label
 _atom_site_symmetry_multiplicity
 _atom_site_fract_x
 _atom_site_fract_y
 _atom_site_fract_z
 _atom_site_occupancy
  Ba  Ba0  1  0.00000000  0.00000000  0.00000000  1
  Mn  Mn0  1  0.25000000  0.75000000  0.50000000  1
  Cr  Cr0  1  0.75000000  0.25000000  0.50000000  1
  P  P0  1  0.65229920  0.65229920  0.00000000  1
  P  P1  1  0.34770080  0.34770080  1.00000000  1
loop_
_geom_bond_atom_site_label_1
_geom_bond_atom_site_label_2
_geom_bond_distance
_geom_bond_site_symmetry_2
Ba0 P0 3.392893 1_556
Ba0 P1 3.392893 1_443
Ba0 P0 3.392893 1_455
Ba0 P1 3.392893 1_544
Ba0 P0 3.392893 1_545
Ba0 P1 3.392893 1_454
Ba0 P0 3.392894 1_444
Ba0 P1 3.392894 1_555
Mn0 P1 2.325595 1_565
Mn0 P0 2.325595 1_455
Mn0 P0 2.325596 1_556
Mn0 P1 2.325596 1_554
Cr0 P0 2.325595 1_545
Cr0 P1 2.325595 1_655
Cr0 P1 2.325596 1_554
Cr0 P0 2.325596 1_556
