# generated using pymatgen
data_Na4AlGa3Sn8
_symmetry_space_group_name_H-M   'P 1'
_cell_length_a   6.16050168
_cell_length_b   6.46083433
_cell_length_c   10.85606817
_cell_angle_alpha   90.08188173
_cell_angle_beta   89.99979932
_cell_angle_gamma   89.81179063
_symmetry_Int_Tables_number   1
_chemical_formula_structural   Na4AlGa3Sn8
_chemical_formula_sum   'Na4 Al1 Ga3 Sn8'
_cell_volume   432.09024408
_cell_formula_units_Z   1
loop_
 _symmetry_equiv_pos_site_id
 _symmetry_equiv_pos_as_xyz
  1  'x, y, z'
loop_
 _atom_site_type_symbol
 _atom_site_label
 _atom_site_symmetry_multiplicity
 _atom_site_fract_x
 _atom_site_fract_y
 _atom_site_fract_z
 _atom_site_occupancy
  Na  Na0  1  0.76995385  0.73151487  0.09911058  1
  Na  Na1  1  0.73723126  0.26418386  0.59956493  1
  Na  Na2  1  0.26906407  0.77697815  0.89877921  1
  Na  Na3  1  0.23177778  0.23097220  0.40277059  1
  Al  Al0  1  0.40610285  0.39723568  0.11889751  1
  Ga  Ga0  1  0.59130089  0.90005405  0.38115376  1
  Ga  Ga1  1  0.90725678  0.09954660  0.88057182  1
  Ga  Ga2  1  0.09177632  0.59894092  0.61906429  1
  Sn  Sn0  1  0.76951260  0.74308669  0.76930654  1
  Sn  Sn1  1  0.72998746  0.25728924  0.27242469  1
  Sn  Sn2  1  0.26888668  0.75824611  0.22939106  1
  Sn  Sn3  1  0.23126927  0.24245294  0.72969036  1
  Sn  Sn4  1  0.91763469  0.62542631  0.39044547  1
  Sn  Sn5  1  0.58394040  0.37715582  0.88880377  1
  Sn  Sn6  1  0.41609279  0.87369884  0.60940292  1
  Sn  Sn7  1  0.07821032  0.12321972  0.11062250  1
loop_
_geom_bond_atom_site_label_1
_geom_bond_atom_site_label_2
_geom_bond_distance
_geom_bond_site_symmetry_2
Na0 Sn7 3.171308 1_665
Na0 Sn4 3.361939 1_555
Na0 Sn2 3.388285 1_655
Na0 Sn2 3.399180 1_555
Na0 Sn5 3.430693 1_554
Na0 Sn0 3.581263 1_554
Na0 Sn1 3.606878 1_555
Na1 Sn6 3.213059 1_545
Na1 Sn5 3.357531 1_555
Na1 Sn3 3.357992 1_655
Na1 Sn3 3.425532 1_555
Na1 Sn4 3.445057 1_555
Na1 Sn1 3.551955 1_555
Na1 Sn0 3.605061 1_555
Na2 Sn5 3.227021 1_555
Na2 Sn6 3.330042 1_555
Na2 Sn0 3.390880 1_455
Na2 Sn0 3.394582 1_555
Na2 Sn7 3.412275 1_566
Na2 Sn3 3.532585 1_565
Na2 Sn2 3.591358 1_556
Na3 Sn4 3.197913 1_455
Na3 Sn7 3.381808 1_555
Na3 Sn1 3.384593 1_555
Na3 Sn1 3.403607 1_455
Na3 Sn6 3.412782 1_545
Na3 Sn3 3.549733 1_555
Na3 Sn2 3.591958 1_545
Al0 Sn7 2.691776 1_555
Al0 Sn5 2.730347 1_554
Al0 Sn1 2.751197 1_555
Al0 Sn2 2.751853 1_555
Al0 Na0 3.125382 1_555
Al0 Na3 3.438227 1_555
Al0 Na2 3.527832 1_554
Ga0 Sn4 2.679012 1_555
Ga0 Sn6 2.708571 1_555
Ga0 Sn1 2.733315 1_565
Ga0 Sn2 2.739820 1_555
Ga0 Na3 3.082066 1_565
Ga0 Na0 3.428512 1_555
Ga0 Na1 3.458738 1_565
Ga1 Sn5 2.677358 1_555
Ga1 Sn7 2.714730 1_656
Ga1 Sn0 2.736411 1_545
Ga1 Sn3 2.745212 1_655
Ga1 Na2 3.053048 1_645
Ga1 Na1 3.396602 1_555
Ga1 Na0 3.468041 1_546
Ga2 Sn6 2.679152 1_555
Ga2 Sn4 2.709251 1_455
Ga2 Sn0 2.729935 1_455
Ga2 Sn3 2.735046 1_555
Ga2 Na1 3.085921 1_455
Ga2 Na2 3.425673 1_555
Ga2 Na3 3.446732 1_555
Sn0 Sn6 2.908276 1_555
Sn0 Sn5 2.933581 1_555
Sn1 Sn7 2.901920 1_655
Sn1 Sn4 2.940139 1_555
Sn2 Sn4 2.914141 1_455
Sn2 Sn7 2.931400 1_565
Sn3 Sn5 2.910260 1_555
Sn3 Sn6 2.941267 1_545
