# generated using pymatgen
data_Cs2Ba(SnSe3)2
_symmetry_space_group_name_H-M   'P 1'
_cell_length_a   9.49767885
_cell_length_b   9.49767841
_cell_length_c   10.07276845
_cell_angle_alpha   90.21282858
_cell_angle_beta   90.21281971
_cell_angle_gamma   113.27816584
_symmetry_Int_Tables_number   1
_chemical_formula_structural   Cs2Ba(SnSe3)2
_chemical_formula_sum   'Cs4 Ba2 Sn4 Se12'
_cell_volume   834.63949005
_cell_formula_units_Z   2
loop_
 _symmetry_equiv_pos_site_id
 _symmetry_equiv_pos_as_xyz
  1  'x, y, z'
loop_
 _atom_site_type_symbol
 _atom_site_label
 _atom_site_symmetry_multiplicity
 _atom_site_fract_x
 _atom_site_fract_y
 _atom_site_fract_z
 _atom_site_occupancy
  Cs  Cs0  1  0.26499375  0.54677365  0.51951472  1
  Cs  Cs1  1  0.73500625  0.45322635  0.48048528  1
  Cs  Cs2  1  0.45322635  0.73500625  0.98048528  1
  Cs  Cs3  1  0.54677365  0.26499375  0.01951472  1
  Ba  Ba0  1  0.96669699  0.03330301  0.25000000  1
  Ba  Ba1  1  0.03330301  0.96669699  0.75000000  1
  Sn  Sn0  1  0.97609289  0.66050523  0.06962344  1
  Sn  Sn1  1  0.02390711  0.33949477  0.93037656  1
  Sn  Sn2  1  0.33949477  0.02390711  0.43037656  1
  Sn  Sn3  1  0.66050523  0.97609289  0.56962344  1
  Se  Se0  1  0.66135651  0.74144989  0.67440763  1
  Se  Se1  1  0.91794722  0.53157782  0.83316718  1
  Se  Se2  1  0.25855011  0.33864349  0.82559237  1
  Se  Se3  1  0.53157782  0.91794722  0.33316718  1
  Se  Se4  1  0.33864349  0.25855011  0.32559237  1
  Se  Se5  1  0.92099032  0.18166072  0.54268225  1
  Se  Se6  1  0.81833928  0.07900968  0.95731775  1
  Se  Se7  1  0.18166072  0.92099032  0.04268225  1
  Se  Se8  1  0.08205278  0.46842218  0.16683282  1
  Se  Se9  1  0.46842218  0.08205278  0.66683282  1
  Se  Se10  1  0.07900968  0.81833928  0.45731775  1
  Se  Se11  1  0.74144989  0.66135651  0.17440763  1
loop_
_geom_bond_atom_site_label_1
_geom_bond_atom_site_label_2
_geom_bond_distance
_geom_bond_site_symmetry_2
Cs0 Se4 3.644501 1_555
Cs0 Se2 3.656166 1_555
Cs0 Se10 3.710800 1_555
Cs0 Se5 3.716321 1_455
Cs0 Se0 3.802367 1_555
Cs0 Se8 3.886567 1_555
Cs0 Se3 3.923161 1_555
Cs1 Se0 3.644501 1_555
Cs1 Se11 3.656166 1_555
Cs1 Se5 3.710800 1_555
Cs1 Se10 3.716321 1_655
Cs1 Se4 3.802367 1_555
Cs1 Se1 3.886567 1_555
Cs1 Se9 3.923161 1_555
Cs2 Se11 3.644501 1_556
Cs2 Se0 3.656166 1_555
Cs2 Se7 3.710800 1_556
Cs2 Se6 3.716321 1_565
Cs2 Se2 3.802367 1_555
Cs2 Se3 3.886567 1_556
Cs2 Se8 3.923161 1_556
Cs3 Se2 3.644501 1_554
Cs3 Se4 3.656166 1_555
Cs3 Se6 3.710800 1_554
Cs3 Se7 3.716321 1_545
Cs3 Se11 3.802367 1_555
Cs3 Se9 3.886567 1_554
Cs3 Se1 3.923161 1_554
Ba0 Se5 3.365622 1_555
Ba0 Se6 3.365622 1_554
Ba0 Se7 3.376915 1_645
Ba0 Se10 3.376916 1_645
Ba0 Se11 3.410355 1_545
Ba0 Se4 3.410356 1_655
Ba0 Se8 3.928684 1_655
Ba0 Se3 3.928684 1_545
Ba1 Se10 3.365622 1_555
Ba1 Se7 3.365622 1_556
Ba1 Se6 3.376915 1_465
Ba1 Se5 3.376916 1_465
Ba1 Se2 3.410355 1_565
Ba1 Se0 3.410356 1_455
Ba1 Se1 3.928684 1_455
Ba1 Se9 3.928684 1_565
Se0 Sn3 2.472291 1_555
Se1 Sn1 2.599398 1_655
Se1 Sn0 2.628936 1_556
Se2 Sn1 2.472291 1_555
Se3 Sn2 2.599397 1_565
Se3 Sn3 2.628936 1_555
Se4 Sn2 2.472291 1_555
Se5 Sn3 2.489454 1_545
Se6 Sn1 2.489453 1_655
Se7 Sn0 2.489453 1_455
Se8 Sn0 2.599398 1_455
Se8 Sn1 2.628936 1_554
Se9 Sn3 2.599397 1_545
Se9 Sn2 2.628936 1_555
Se10 Sn2 2.489454 1_565
Se11 Sn0 2.472291 1_555
