# generated using pymatgen
data_CaGe2O5
_symmetry_space_group_name_H-M   'P 1'
_cell_length_a   5.49146294
_cell_length_b   5.49146294
_cell_length_c   6.89578104
_cell_angle_alpha   76.38820837
_cell_angle_beta   76.38820837
_cell_angle_gamma   106.60328434
_symmetry_Int_Tables_number   1
_chemical_formula_structural   CaGe2O5
_chemical_formula_sum   'Ca2 Ge4 O10'
_cell_volume   183.17656047
_cell_formula_units_Z   2
loop_
 _symmetry_equiv_pos_site_id
 _symmetry_equiv_pos_as_xyz
  1  'x, y, z'
loop_
 _atom_site_type_symbol
 _atom_site_label
 _atom_site_symmetry_multiplicity
 _atom_site_fract_x
 _atom_site_fract_y
 _atom_site_fract_z
 _atom_site_occupancy
  Ca  Ca0  1  0.32902298  0.67097702  0.75000000  1
  Ca  Ca1  1  0.67097702  0.32902298  0.25000000  1
  Ge  Ge0  1  0.31508937  0.68491063  0.25000000  1
  Ge  Ge1  1  0.68491063  0.31508937  0.75000000  1
  Ge  Ge2  1  -0.00000000  -0.00000000  0.00000000  1
  Ge  Ge3  1  -0.00000000  -0.00000000  0.50000000  1
  O  O0  1  0.90313929  0.30707598  0.89876228  1
  O  O1  1  0.69292402  0.09686071  0.60123772  1
  O  O2  1  0.09686071  0.69292402  0.10123772  1
  O  O3  1  0.30707598  0.90313929  0.39876228  1
  O  O4  1  0.63363954  0.75323133  0.07341643  1
  O  O5  1  0.24676867  0.36636046  0.42658357  1
  O  O6  1  0.06866493  0.93133507  0.75000000  1
  O  O7  1  0.93133507  0.06866493  0.25000000  1
  O  O8  1  0.75323133  0.63363954  0.57341643  1
  O  O9  1  0.36636046  0.24676867  0.92658357  1
loop_
_geom_bond_atom_site_label_1
_geom_bond_atom_site_label_2
_geom_bond_distance
_geom_bond_site_symmetry_2
Ca0 O6 2.292721 1_555
Ca0 O0 2.397988 1_455
Ca0 O1 2.397988 1_565
Ca0 O9 2.450878 1_555
Ca0 O8 2.450878 1_555
Ca0 O3 2.505607 1_555
Ca0 O2 2.505607 1_556
Ca1 O7 2.292721 1_555
Ca1 O3 2.397988 1_545
Ca1 O2 2.397988 1_655
Ca1 O4 2.450878 1_555
Ca1 O5 2.450878 1_555
Ca1 O0 2.505607 1_554
Ca1 O1 2.505607 1_555
Ge0 O2 1.754407 1_555
Ge0 O3 1.754407 1_555
Ge0 O4 1.758089 1_555
Ge0 O5 1.758089 1_555
Ge1 O1 1.754407 1_555
Ge1 O0 1.754407 1_555
Ge1 O9 1.758089 1_555
Ge1 O8 1.758089 1_555
Ge2 O7 1.826912 1_455
Ge2 O6 1.826912 1_544
Ge2 O0 1.935758 1_454
Ge2 O2 1.935758 1_545
Ge2 O9 1.944184 1_554
Ge2 O4 1.944184 1_445
Ge3 O7 1.826912 1_455
Ge3 O6 1.826912 1_545
Ge3 O3 1.935758 1_545
Ge3 O1 1.935758 1_455
Ge3 O5 1.944184 1_555
Ge3 O8 1.944184 1_445
