# generated using pymatgen
data_Ti6CoSi6Tc5
_symmetry_space_group_name_H-M   'P 1'
_cell_length_a   7.46217181
_cell_length_b   7.46185687
_cell_length_c   7.46185648
_cell_angle_alpha   126.59772997
_cell_angle_beta   128.70183656
_cell_angle_gamma   77.20416115
_symmetry_Int_Tables_number   1
_chemical_formula_structural   Ti6CoSi6Tc5
_chemical_formula_sum   'Ti6 Co1 Si6 Tc5'
_cell_volume   252.61799318
_cell_formula_units_Z   1
loop_
 _symmetry_equiv_pos_site_id
 _symmetry_equiv_pos_as_xyz
  1  'x, y, z'
loop_
 _atom_site_type_symbol
 _atom_site_label
 _atom_site_symmetry_multiplicity
 _atom_site_fract_x
 _atom_site_fract_y
 _atom_site_fract_z
 _atom_site_occupancy
  Ti  Ti0  1  0.45243201  0.40526597  0.45130575  1
  Ti  Ti1  1  0.54756799  0.99887375  0.95283496  1
  Ti  Ti2  1  0.04599010  0.99885637  0.45145920  1
  Ti  Ti3  1  0.95400990  0.40546910  0.95286627  1
  Ti  Ti4  1  0.24822210  0.60430310  0.85258378  1
  Ti  Ti5  1  0.75177790  0.60436268  0.35608100  1
  Co  Co0  1  0.50000000  0.26334718  0.76334718  1
  Si  Si0  1  0.16573184  0.66675579  0.50116260  1
  Si  Si1  1  0.83426816  0.33543075  0.50102495  1
  Si  Si2  1  0.66399697  0.66289407  0.99868808  1
  Si  Si3  1  0.33600303  0.33469111  0.99889710  1
  Si  Si4  1  0.25387171  0.01174022  0.26564996  1
  Si  Si5  1  0.74612829  0.01177925  0.75786951  1
  Tc  Tc0  1  0.36991223  0.74402594  0.37419045  1
  Tc  Tc1  1  0.63008777  0.00427821  0.37411371  1
  Tc  Tc2  1  0.87073545  0.74282861  0.87217780  1
  Tc  Tc3  1  0.12926455  0.00144235  0.87209415  1
  Tc  Tc4  1  1.00000000  0.26365355  0.26365355  1
loop_
_geom_bond_atom_site_label_1
_geom_bond_atom_site_label_2
_geom_bond_distance
_geom_bond_site_symmetry_2
Co0 Si5 2.318172 1_555
Co0 Si4 2.318176 1_555
Co0 Si2 2.481104 1_555
Co0 Si3 2.481104 1_555
Co0 Ti4 2.805927 1_555
Co0 Ti5 2.805928 1_556
Co0 Ti0 2.899820 1_555
Co0 Ti1 2.899826 1_545
Co0 Ti2 2.900730 1_545
Co0 Ti3 2.900730 1_555
Si0 Tc4 2.503659 1_455
Si0 Tc3 2.524000 1_565
Si0 Tc0 2.529284 1_555
Si0 Ti2 2.603368 1_555
Si0 Ti1 2.603605 1_555
Si0 Ti4 2.604570 1_555
Si0 Ti5 2.604762 1_455
Si0 Ti0 2.608320 1_555
Si0 Ti3 2.608818 1_454
Si1 Tc4 2.503666 1_555
Si1 Tc2 2.523994 1_555
Si1 Tc1 2.529279 1_555
Si1 Ti3 2.603360 1_555
Si1 Ti0 2.603602 1_555
Si1 Ti5 2.604583 1_555
Si1 Ti4 2.604765 1_655
Si1 Ti1 2.608319 1_544
Si1 Ti2 2.608818 1_645
Si2 Tc1 2.548075 1_566
Si2 Tc2 2.554809 1_555
Si2 Ti0 2.605558 1_555
Si2 Ti3 2.605939 1_555
Si2 Ti4 2.609279 1_555
Si2 Ti5 2.609465 1_556
Si2 Ti1 2.615981 1_555
Si2 Ti2 2.616740 1_656
Si3 Tc0 2.548075 1_556
Si3 Tc3 2.554814 1_555
Si3 Ti1 2.605559 1_545
Si3 Ti2 2.605939 1_545
Si3 Ti5 2.609282 1_556
Si3 Ti4 2.609471 1_555
Si3 Ti0 2.615985 1_556
Si3 Ti3 2.616740 1_455
Si4 Tc4 2.354409 1_455
Si4 Tc0 2.383758 1_545
Si4 Tc1 2.383836 1_555
Si4 Tc2 2.416572 1_444
Si4 Tc3 2.417086 1_554
Si4 Ti0 2.692023 1_555
Si4 Ti2 2.693059 1_545
Si4 Ti4 2.732354 1_544
Si5 Tc4 2.354404 1_556
Si5 Tc1 2.383760 1_555
Si5 Tc0 2.383838 1_545
Si5 Tc3 2.416572 1_655
Si5 Tc2 2.417095 1_545
Si5 Ti1 2.692026 1_545
Si5 Ti3 2.693055 1_555
Si5 Ti5 2.732358 1_545
Tc0 Ti3 2.774698 1_454
Tc0 Ti0 2.775202 1_555
Tc0 Ti1 2.860921 1_555
Tc0 Ti2 2.861897 1_555
Tc0 Ti4 2.867293 1_554
Tc0 Ti5 2.867480 1_555
Tc1 Ti2 2.774698 1_645
Tc1 Ti1 2.775195 1_544
Tc1 Ti0 2.860915 1_555
Tc1 Ti3 2.861896 1_555
Tc1 Ti5 2.867286 1_545
Tc1 Ti4 2.867480 1_544
Tc2 Ti3 2.780656 1_555
Tc2 Ti0 2.782502 1_555
Tc2 Ti4 2.840716 1_655
Tc2 Ti5 2.841283 1_555
Tc2 Ti1 2.868976 1_555
Tc2 Ti2 2.869692 1_656
Tc3 Ti2 2.780663 1_545
Tc3 Ti1 2.782502 1_545
Tc3 Ti5 2.840713 1_445
Tc3 Ti4 2.841278 1_545
Tc3 Ti0 2.868971 1_556
Tc3 Ti3 2.869694 1_455
Tc4 Ti4 2.791212 1_655
Tc4 Ti5 2.791217 1_555
Tc4 Ti0 2.894774 1_655
Tc4 Ti1 2.894777 1_544
Tc4 Ti3 2.895792 1_554
Tc4 Ti2 2.895792 1_645
