# generated using pymatgen
data_ReTcTe4Mo
_symmetry_space_group_name_H-M   'P 1'
_cell_length_a   7.12454137
_cell_length_b   7.15388103
_cell_length_c   7.14171782
_cell_angle_alpha   93.95427915
_cell_angle_beta   93.97270090
_cell_angle_gamma   94.17047725
_symmetry_Int_Tables_number   1
_chemical_formula_structural   ReTcTe4Mo
_chemical_formula_sum   'Re2 Tc2 Te8 Mo2'
_cell_volume   361.16074357
_cell_formula_units_Z   2
loop_
 _symmetry_equiv_pos_site_id
 _symmetry_equiv_pos_as_xyz
  1  'x, y, z'
loop_
 _atom_site_type_symbol
 _atom_site_label
 _atom_site_symmetry_multiplicity
 _atom_site_fract_x
 _atom_site_fract_y
 _atom_site_fract_z
 _atom_site_occupancy
  Re  Re0  1  0.45334738  0.74812996  0.58843255  1
  Re  Re1  1  0.74781462  0.58745503  0.45667538  1
  Tc  Tc0  1  0.58636608  0.45304197  0.75195553  1
  Tc  Tc1  1  0.54585012  0.25167793  0.41189257  1
  Te  Te0  1  0.27640605  0.61717987  0.88000832  1
  Te  Te1  1  0.62113048  0.88546797  0.27891291  1
  Te  Te2  1  0.87640426  0.27764260  0.61985774  1
  Te  Te3  1  0.73253284  0.37844096  0.12016646  1
  Te  Te4  1  0.38079404  0.11648922  0.72086814  1
  Te  Te5  1  0.11549222  0.73227618  0.37919709  1
  Te  Te6  1  0.78806459  0.78748625  0.79184630  1
  Te  Te7  1  0.21307415  0.20585794  0.20567304  1
  Mo  Mo0  1  0.25003617  0.41212314  0.54181050  1
  Mo  Mo1  1  0.41268698  0.54673096  0.25270247  1
loop_
_geom_bond_atom_site_label_1
_geom_bond_atom_site_label_2
_geom_bond_distance
_geom_bond_site_symmetry_2
Re0 Re1 2.661417 1_555
Re0 Tc0 2.682544 1_555
Re0 Te6 2.691173 1_555
Re0 Te0 2.695177 1_555
Re0 Te5 2.734644 1_555
Re0 Te1 2.788441 1_555
Re0 Te4 2.833399 1_565
Re1 Tc0 2.673886 1_555
Re1 Te6 2.689339 1_555
Re1 Tc1 2.696370 1_555
Re1 Te1 2.732387 1_555
Re1 Te3 2.732715 1_555
Re1 Te2 2.759234 1_555
Re1 Te5 2.850731 1_655
Tc0 Te2 2.686717 1_555
Tc0 Te6 2.686961 1_555
Tc0 Te4 2.712842 1_555
Tc0 Tc1 2.723341 1_555
Tc0 Te0 2.756940 1_555
Tc0 Te3 2.859953 1_556
Tc1 Te2 2.683340 1_555
Tc1 Te7 2.689626 1_555
Tc1 Te3 2.720500 1_555
Tc1 Te4 2.770525 1_555
Tc1 Te1 2.825749 1_545
Mo0 Mo1 2.641345 1_555
Mo0 Tc1 2.663827 1_555
Mo0 Re0 2.702480 1_555
Mo0 Te7 2.716051 1_555
Mo0 Tc0 2.723770 1_555
Mo0 Te0 2.725683 1_555
Mo0 Te4 2.733235 1_555
Mo0 Te5 2.836392 1_555
Mo0 Te2 2.868678 1_455
Mo1 Tc1 2.668475 1_555
Mo1 Re1 2.695559 1_555
Mo1 Re0 2.697274 1_555
Mo1 Te7 2.719992 1_555
Mo1 Te1 2.736467 1_555
Mo1 Te5 2.751318 1_555
Mo1 Te3 2.842327 1_555
Mo1 Te0 2.859954 1_554
