# generated using pymatgen
data_LuCd(NiPt)2
_symmetry_space_group_name_H-M   'P 1'
_cell_length_a   4.94617131
_cell_length_b   5.09337793
_cell_length_c   5.09337844
_cell_angle_alpha   63.67300015
_cell_angle_beta   60.95154364
_cell_angle_gamma   60.95154283
_symmetry_Int_Tables_number   1
_chemical_formula_structural   LuCd(NiPt)2
_chemical_formula_sum   'Lu1 Cd1 Ni2 Pt2'
_cell_volume   94.37223202
_cell_formula_units_Z   1
loop_
 _symmetry_equiv_pos_site_id
 _symmetry_equiv_pos_as_xyz
  1  'x, y, z'
loop_
 _atom_site_type_symbol
 _atom_site_label
 _atom_site_symmetry_multiplicity
 _atom_site_fract_x
 _atom_site_fract_y
 _atom_site_fract_z
 _atom_site_occupancy
  Lu  Lu0  1  0.24840183  0.25159817  0.25159817  1
  Cd  Cd0  1  0.00716015  0.99283985  0.99283985  1
  Ni  Ni0  1  0.12173411  0.62729897  0.62729897  1
  Ni  Ni1  1  0.62366796  0.62729897  0.62729897  1
  Pt  Pt0  1  0.62451798  0.62607911  0.12488593  1
  Pt  Pt1  1  0.62451798  0.12488593  0.62607911  1
loop_
_geom_bond_atom_site_label_1
_geom_bond_atom_site_label_2
_geom_bond_distance
_geom_bond_site_symmetry_2
Lu0 Ni0 2.938645 1_555
Lu0 Ni1 2.938645 1_455
Lu0 Pt0 2.950151 1_455
Lu0 Pt1 2.950151 1_455
Lu0 Pt0 2.950155 1_555
Lu0 Pt1 2.950155 1_555
Lu0 Pt0 2.988339 1_545
Lu0 Pt1 2.988339 1_554
Lu0 Ni0 3.088470 1_545
Lu0 Ni1 3.088470 1_545
Lu0 Ni1 3.088470 1_554
Lu0 Ni0 3.088470 1_554
Cd0 Ni0 2.877411 1_555
Cd0 Ni1 2.877411 1_555
Cd0 Pt0 2.933727 1_456
Cd0 Pt1 2.933728 1_465
Cd0 Pt0 2.933732 1_556
Cd0 Pt1 2.933732 1_565
Cd0 Pt0 3.032681 1_466
Cd0 Pt1 3.032681 1_466
Cd0 Lu0 3.081040 1_566
Cd0 Lu0 3.081040 1_466
Cd0 Ni0 3.106054 1_565
Cd0 Ni1 3.106054 1_465
Cd0 Ni1 3.106054 1_456
Cd0 Ni0 3.106054 1_556
Cd0 Lu0 3.186463 1_556
Cd0 Lu0 3.186463 1_565
Ni0 Ni1 2.463520 1_455
Ni0 Ni1 2.482651 1_555
Ni0 Pt1 2.533688 1_465
Ni0 Pt0 2.533688 1_456
Ni0 Pt1 2.559702 1_555
Ni0 Pt0 2.559702 1_555
Ni1 Pt1 2.533690 1_565
Ni1 Pt0 2.533691 1_556
Ni1 Pt1 2.559700 1_555
Ni1 Pt0 2.559700 1_555
Pt0 Pt1 2.680331 1_564
Pt0 Pt1 2.693154 1_555
