# generated using pymatgen
data_CsYTe4
_symmetry_space_group_name_H-M   'P 1'
_cell_length_a   6.90365871
_cell_length_b   6.90365871
_cell_length_c   9.53967580
_cell_angle_alpha   90.00000000
_cell_angle_beta   90.00000000
_cell_angle_gamma   90.00000000
_symmetry_Int_Tables_number   1
_chemical_formula_structural   CsYTe4
_chemical_formula_sum   'Cs2 Y2 Te8'
_cell_volume   454.66575253
_cell_formula_units_Z   2
loop_
 _symmetry_equiv_pos_site_id
 _symmetry_equiv_pos_as_xyz
  1  'x, y, z'
loop_
 _atom_site_type_symbol
 _atom_site_label
 _atom_site_symmetry_multiplicity
 _atom_site_fract_x
 _atom_site_fract_y
 _atom_site_fract_z
 _atom_site_occupancy
  Cs  Cs0  1  0.50000000  0.50000000  0.00000000  1
  Cs  Cs1  1  0.00000000  0.00000000  0.00000000  1
  Y  Y0  1  0.50000000  0.50000000  0.50000000  1
  Y  Y1  1  0.00000000  0.00000000  0.50000000  1
  Te  Te0  1  0.35615938  0.85615938  0.30879228  1
  Te  Te1  1  0.85615938  0.64384062  0.30879228  1
  Te  Te2  1  0.14384062  0.35615938  0.30879228  1
  Te  Te3  1  0.64384062  0.14384062  0.30879228  1
  Te  Te4  1  0.14384062  0.64384062  0.69120772  1
  Te  Te5  1  0.64384062  0.85615938  0.69120772  1
  Te  Te6  1  0.35615938  0.14384062  0.69120772  1
  Te  Te7  1  0.85615938  0.35615938  0.69120772  1
loop_
_geom_bond_atom_site_label_1
_geom_bond_atom_site_label_2
_geom_bond_distance
_geom_bond_site_symmetry_2
Cs0 Te1 3.963511 1_555
Cs0 Te0 3.963511 1_555
Cs0 Te3 3.963511 1_555
Cs0 Te2 3.963511 1_555
Cs0 Te5 3.963511 1_554
Cs0 Te7 3.963511 1_554
Cs0 Te4 3.963511 1_554
Cs0 Te6 3.963511 1_554
Cs1 Te2 3.963511 1_555
Cs1 Te0 3.963511 1_545
Cs1 Te3 3.963511 1_455
Cs1 Te1 3.963511 1_445
Cs1 Te6 3.963511 1_554
Cs1 Te7 3.963511 1_454
Cs1 Te4 3.963511 1_544
Cs1 Te5 3.963511 1_444
Te0 Te3 2.808703 1_565
Te0 Y1 3.218541 1_565
Te0 Y0 3.218541 1_555
Te1 Te2 2.808703 1_655
Te1 Y0 3.218541 1_555
Te1 Y1 3.218541 1_665
Te2 Y1 3.218541 1_555
Te2 Y0 3.218541 1_555
Te3 Y0 3.218541 1_555
Te3 Y1 3.218541 1_655
Te4 Te7 2.808703 1_455
Te4 Y0 3.218541 1_555
Te4 Y1 3.218541 1_565
Te5 Te6 2.808703 1_565
Te5 Y0 3.218541 1_555
Te5 Y1 3.218541 1_665
Te6 Y1 3.218541 1_555
Te6 Y0 3.218541 1_555
Te7 Y1 3.218541 1_655
Te7 Y0 3.218541 1_555
