# generated using pymatgen
data_Ti3B2Ru4Rh
_symmetry_space_group_name_H-M   'P 1'
_cell_length_a   5.98784537
_cell_length_b   18.36739177
_cell_length_c   18.50530001
_cell_angle_alpha   89.86081620
_cell_angle_beta   90.00000000
_cell_angle_gamma   90.00000000
_symmetry_Int_Tables_number   1
_chemical_formula_structural   Ti3B2Ru4Rh
_chemical_formula_sum   'Ti48 B32 Ru64 Rh16'
_cell_volume   2035.22727767
_cell_formula_units_Z   16
loop_
 _symmetry_equiv_pos_site_id
 _symmetry_equiv_pos_as_xyz
  1  'x, y, z'
loop_
 _atom_site_type_symbol
 _atom_site_label
 _atom_site_symmetry_multiplicity
 _atom_site_fract_x
 _atom_site_fract_y
 _atom_site_fract_z
 _atom_site_occupancy
  Ti  Ti0_0  1  0.00000000  0.41348692  0.34123122  1
  Ti  Ti0_1  1  0.00000000  0.41348692  0.84123122  1
  Ti  Ti0_2  1  0.00000000  0.91348692  0.34123122  1
  Ti  Ti0_3  1  0.00000000  0.91348692  0.84123122  1
  Ti  Ti0_4  1  0.50000000  0.41348692  0.34123122  1
  Ti  Ti0_5  1  0.50000000  0.41348692  0.84123122  1
  Ti  Ti0_6  1  0.50000000  0.91348692  0.34123122  1
  Ti  Ti0_7  1  0.50000000  0.91348692  0.84123122  1
  Ti  Ti1_0  1  0.00000000  0.08651308  0.15876878  1
  Ti  Ti1_1  1  0.00000000  0.08651308  0.65876878  1
  Ti  Ti1_2  1  0.00000000  0.58651308  0.15876878  1
  Ti  Ti1_3  1  0.00000000  0.58651308  0.65876878  1
  Ti  Ti1_4  1  0.50000000  0.08651308  0.15876878  1
  Ti  Ti1_5  1  0.50000000  0.08651308  0.65876878  1
  Ti  Ti1_6  1  0.50000000  0.58651308  0.15876878  1
  Ti  Ti1_7  1  0.50000000  0.58651308  0.65876878  1
  Ti  Ti2_0  1  0.00000000  0.33826653  0.08456920  1
  Ti  Ti2_1  1  0.00000000  0.33826653  0.58456920  1
  Ti  Ti2_2  1  0.00000000  0.83826653  0.08456920  1
  Ti  Ti2_3  1  0.00000000  0.83826653  0.58456920  1
  Ti  Ti2_4  1  0.50000000  0.33826653  0.08456920  1
  Ti  Ti2_5  1  0.50000000  0.33826653  0.58456920  1
  Ti  Ti2_6  1  0.50000000  0.83826653  0.08456920  1
  Ti  Ti2_7  1  0.50000000  0.83826653  0.58456920  1
  Ti  Ti3_0  1  0.00000000  0.16173347  0.41543080  1
  Ti  Ti3_1  1  0.00000000  0.16173347  0.91543080  1
  Ti  Ti3_2  1  0.00000000  0.66173347  0.41543080  1
  Ti  Ti3_3  1  0.00000000  0.66173347  0.91543080  1
  Ti  Ti3_4  1  0.50000000  0.16173347  0.41543080  1
  Ti  Ti3_5  1  0.50000000  0.16173347  0.91543080  1
  Ti  Ti3_6  1  0.50000000  0.66173347  0.41543080  1
  Ti  Ti3_7  1  0.50000000  0.66173347  0.91543080  1
  Ti  Ti4_0  1  0.00000000  0.25000000  0.25000000  1
  Ti  Ti4_1  1  0.00000000  0.25000000  0.75000000  1
  Ti  Ti4_2  1  0.00000000  0.75000000  0.25000000  1
  Ti  Ti4_3  1  0.00000000  0.75000000  0.75000000  1
  Ti  Ti4_4  1  0.50000000  0.25000000  0.25000000  1
  Ti  Ti4_5  1  0.50000000  0.25000000  0.75000000  1
  Ti  Ti4_6  1  0.50000000  0.75000000  0.25000000  1
  Ti  Ti4_7  1  0.50000000  0.75000000  0.75000000  1
  Ti  Ti5_0  1  0.00000000  0.00000000  0.00000000  1
  Ti  Ti5_1  1  0.00000000  0.00000000  0.50000000  1
  Ti  Ti5_2  1  0.00000000  0.50000000  0.00000000  1
  Ti  Ti5_3  1  0.00000000  0.50000000  0.50000000  1
  Ti  Ti5_4  1  0.50000000  0.00000000  0.00000000  1
  Ti  Ti5_5  1  0.50000000  0.00000000  0.50000000  1
  Ti  Ti5_6  1  0.50000000  0.50000000  0.00000000  1
  Ti  Ti5_7  1  0.50000000  0.50000000  0.50000000  1
  B  B0_0  1  0.00000000  0.18846121  0.06241529  1
  B  B0_1  1  0.00000000  0.18846121  0.56241529  1
  B  B0_2  1  0.00000000  0.68846121  0.06241529  1
  B  B0_3  1  0.00000000  0.68846121  0.56241529  1
  B  B0_4  1  0.50000000  0.18846121  0.06241529  1
  B  B0_5  1  0.50000000  0.18846121  0.56241529  1
  B  B0_6  1  0.50000000  0.68846121  0.06241529  1
  B  B0_7  1  0.50000000  0.68846121  0.56241529  1
  B  B1_0  1  0.00000000  0.31153879  0.43758471  1
  B  B1_1  1  0.00000000  0.31153879  0.93758471  1
  B  B1_2  1  0.00000000  0.81153879  0.43758471  1
  B  B1_3  1  0.00000000  0.81153879  0.93758471  1
  B  B1_4  1  0.50000000  0.31153879  0.43758471  1
  B  B1_5  1  0.50000000  0.31153879  0.93758471  1
  B  B1_6  1  0.50000000  0.81153879  0.43758471  1
  B  B1_7  1  0.50000000  0.81153879  0.93758471  1
  B  B2_0  1  0.00000000  0.05859352  0.31366899  1
  B  B2_1  1  0.00000000  0.05859352  0.81366899  1
  B  B2_2  1  0.00000000  0.55859352  0.31366899  1
  B  B2_3  1  0.00000000  0.55859352  0.81366899  1
  B  B2_4  1  0.50000000  0.05859352  0.31366899  1
  B  B2_5  1  0.50000000  0.05859352  0.81366899  1
  B  B2_6  1  0.50000000  0.55859352  0.31366899  1
  B  B2_7  1  0.50000000  0.55859352  0.81366899  1
  B  B3_0  1  0.00000000  0.44140648  0.18633101  1
  B  B3_1  1  0.00000000  0.44140648  0.68633101  1
  B  B3_2  1  0.00000000  0.94140648  0.18633101  1
  B  B3_3  1  0.00000000  0.94140648  0.68633101  1
  B  B3_4  1  0.50000000  0.44140648  0.18633101  1
  B  B3_5  1  0.50000000  0.44140648  0.68633101  1
  B  B3_6  1  0.50000000  0.94140648  0.18633101  1
  B  B3_7  1  0.50000000  0.94140648  0.68633101  1
  Ru  Ru0_0  1  0.25000000  0.10719272  0.03684667  1
  Ru  Ru0_1  1  0.25000000  0.10719272  0.53684667  1
  Ru  Ru0_2  1  0.25000000  0.60719272  0.03684667  1
  Ru  Ru0_3  1  0.25000000  0.60719272  0.53684667  1
  Ru  Ru0_4  1  0.75000000  0.10719272  0.03684667  1
  Ru  Ru0_5  1  0.75000000  0.10719272  0.53684667  1
  Ru  Ru0_6  1  0.75000000  0.60719272  0.03684667  1
  Ru  Ru0_7  1  0.75000000  0.60719272  0.53684667  1
  Ru  Ru1_0  1  0.25000000  0.39280728  0.46315333  1
  Ru  Ru1_1  1  0.25000000  0.39280728  0.96315333  1
  Ru  Ru1_2  1  0.25000000  0.89280728  0.46315333  1
  Ru  Ru1_3  1  0.25000000  0.89280728  0.96315333  1
  Ru  Ru1_4  1  0.75000000  0.39280728  0.46315333  1
  Ru  Ru1_5  1  0.75000000  0.39280728  0.96315333  1
  Ru  Ru1_6  1  0.75000000  0.89280728  0.46315333  1
  Ru  Ru1_7  1  0.75000000  0.89280728  0.96315333  1
  Ru  Ru2_0  1  0.25000000  0.21411736  0.14328255  1
  Ru  Ru2_1  1  0.25000000  0.21411736  0.64328255  1
  Ru  Ru2_2  1  0.25000000  0.71411736  0.14328255  1
  Ru  Ru2_3  1  0.25000000  0.71411736  0.64328255  1
  Ru  Ru2_4  1  0.75000000  0.21411736  0.14328255  1
  Ru  Ru2_5  1  0.75000000  0.21411736  0.64328255  1
  Ru  Ru2_6  1  0.75000000  0.71411736  0.14328255  1
  Ru  Ru2_7  1  0.75000000  0.71411736  0.64328255  1
  Ru  Ru3_0  1  0.25000000  0.28588264  0.35671745  1
  Ru  Ru3_1  1  0.25000000  0.28588264  0.85671745  1
  Ru  Ru3_2  1  0.25000000  0.78588264  0.35671745  1
  Ru  Ru3_3  1  0.25000000  0.78588264  0.85671745  1
  Ru  Ru3_4  1  0.75000000  0.28588264  0.35671745  1
  Ru  Ru3_5  1  0.75000000  0.28588264  0.85671745  1
  Ru  Ru3_6  1  0.75000000  0.78588264  0.35671745  1
  Ru  Ru3_7  1  0.75000000  0.78588264  0.85671745  1
  Ru  Ru4_0  1  0.25000000  0.46249650  0.10727585  1
  Ru  Ru4_1  1  0.25000000  0.46249650  0.60727585  1
  Ru  Ru4_2  1  0.25000000  0.96249650  0.10727585  1
  Ru  Ru4_3  1  0.25000000  0.96249650  0.60727585  1
  Ru  Ru4_4  1  0.75000000  0.46249650  0.10727585  1
  Ru  Ru4_5  1  0.75000000  0.46249650  0.60727585  1
  Ru  Ru4_6  1  0.75000000  0.96249650  0.10727585  1
  Ru  Ru4_7  1  0.75000000  0.96249650  0.60727585  1
  Ru  Ru5_0  1  0.25000000  0.03750350  0.39272415  1
  Ru  Ru5_1  1  0.25000000  0.03750350  0.89272415  1
  Ru  Ru5_2  1  0.25000000  0.53750350  0.39272415  1
  Ru  Ru5_3  1  0.25000000  0.53750350  0.89272415  1
  Ru  Ru5_4  1  0.75000000  0.03750350  0.39272415  1
  Ru  Ru5_5  1  0.75000000  0.03750350  0.89272415  1
  Ru  Ru5_6  1  0.75000000  0.53750350  0.39272415  1
  Ru  Ru5_7  1  0.75000000  0.53750350  0.89272415  1
  Ru  Ru6_0  1  0.25000000  0.00000000  0.25000000  1
  Ru  Ru6_1  1  0.25000000  0.00000000  0.75000000  1
  Ru  Ru6_2  1  0.25000000  0.50000000  0.25000000  1
  Ru  Ru6_3  1  0.25000000  0.50000000  0.75000000  1
  Ru  Ru6_4  1  0.75000000  0.00000000  0.25000000  1
  Ru  Ru6_5  1  0.75000000  0.00000000  0.75000000  1
  Ru  Ru6_6  1  0.75000000  0.50000000  0.25000000  1
  Ru  Ru6_7  1  0.75000000  0.50000000  0.75000000  1
  Ru  Ru7_0  1  0.25000000  0.25000000  0.00000000  1
  Ru  Ru7_1  1  0.25000000  0.25000000  0.50000000  1
  Ru  Ru7_2  1  0.25000000  0.75000000  0.00000000  1
  Ru  Ru7_3  1  0.25000000  0.75000000  0.50000000  1
  Ru  Ru7_4  1  0.75000000  0.25000000  0.00000000  1
  Ru  Ru7_5  1  0.75000000  0.25000000  0.50000000  1
  Ru  Ru7_6  1  0.75000000  0.75000000  0.00000000  1
  Ru  Ru7_7  1  0.75000000  0.75000000  0.50000000  1
  Rh  Rh0_0  1  0.25000000  0.14216577  0.28597830  1
  Rh  Rh0_1  1  0.25000000  0.14216577  0.78597830  1
  Rh  Rh0_2  1  0.25000000  0.64216577  0.28597830  1
  Rh  Rh0_3  1  0.25000000  0.64216577  0.78597830  1
  Rh  Rh0_4  1  0.75000000  0.14216577  0.28597830  1
  Rh  Rh0_5  1  0.75000000  0.14216577  0.78597830  1
  Rh  Rh0_6  1  0.75000000  0.64216577  0.28597830  1
  Rh  Rh0_7  1  0.75000000  0.64216577  0.78597830  1
  Rh  Rh1_0  1  0.25000000  0.35783423  0.21402170  1
  Rh  Rh1_1  1  0.25000000  0.35783423  0.71402170  1
  Rh  Rh1_2  1  0.25000000  0.85783423  0.21402170  1
  Rh  Rh1_3  1  0.25000000  0.85783423  0.71402170  1
  Rh  Rh1_4  1  0.75000000  0.35783423  0.21402170  1
  Rh  Rh1_5  1  0.75000000  0.35783423  0.71402170  1
  Rh  Rh1_6  1  0.75000000  0.85783423  0.21402170  1
  Rh  Rh1_7  1  0.75000000  0.85783423  0.71402170  1
loop_
_geom_bond_atom_site_label_1
_geom_bond_atom_site_label_2
_geom_bond_distance
_geom_bond_site_symmetry_2
Ti0_0 Ti0_4 2.993923 1_555
Ti0_0 Ti0_4 2.993923 1_455
Ti0_1 Ti0_5 2.993923 1_455
Ti0_1 Ti0_5 2.993923 1_555
Ti0_2 Ti0_6 2.993923 1_555
Ti0_2 Ti0_6 2.993923 1_455
Ti0_3 Ti0_7 2.993923 1_455
Ti0_3 Ti0_7 2.993923 1_555
Ti1_0 Ti1_4 2.993923 1_555
Ti1_0 Ti1_4 2.993923 1_455
Ti1_1 Ti1_5 2.993923 1_455
Ti1_1 Ti1_5 2.993923 1_555
Ti1_2 Ti1_6 2.993923 1_455
Ti1_2 Ti1_6 2.993923 1_555
Ti1_3 Ti1_7 2.993923 1_555
Ti1_3 Ti1_7 2.993923 1_455
B0_0 Ru0_4 2.167101 1_455
B0_0 Ru0_0 2.167101 1_555
B0_0 Ru2_4 2.169289 1_455
B0_0 Ru2_0 2.169289 1_555
B0_0 Ru7_4 2.201409 1_455
B0_0 Ru7_0 2.201409 1_555
B0_0 Ti1_0 2.582515 1_555
B0_0 Ti3_1 2.765112 1_554
B0_0 Ti2_0 2.782891 1_555
B0_1 Ru0_5 2.167101 1_455
B0_1 Ru0_1 2.167101 1_555
B0_1 Ru2_5 2.169289 1_455
B0_1 Ru2_1 2.169289 1_555
B0_1 Ru7_5 2.201409 1_455
B0_1 Ru7_1 2.201409 1_555
B0_1 Ti1_1 2.582515 1_555
B0_1 Ti3_0 2.765112 1_555
B0_1 Ti2_1 2.782891 1_555
B0_2 Ru0_6 2.167101 1_455
B0_2 Ru0_2 2.167101 1_555
B0_2 Ru2_6 2.169289 1_455
B0_2 Ru2_2 2.169289 1_555
B0_2 Ru7_6 2.201409 1_455
B0_2 Ru7_2 2.201409 1_555
B0_2 Ti1_2 2.582515 1_555
B0_2 Ti3_3 2.765112 1_554
B0_2 Ti2_2 2.782891 1_555
B0_3 Ru0_7 2.167101 1_455
B0_3 Ru0_3 2.167101 1_555
B0_3 Ru2_7 2.169289 1_455
B0_3 Ru2_3 2.169289 1_555
B0_3 Ru7_7 2.201409 1_455
B0_3 Ru7_3 2.201409 1_555
B0_3 Ti1_3 2.582515 1_555
B0_3 Ti3_2 2.765112 1_555
B0_3 Ti2_3 2.782891 1_555
B0_4 Ru0_0 2.167101 1_555
B0_4 Ru0_4 2.167101 1_555
B0_4 Ru2_0 2.169289 1_555
B0_4 Ru2_4 2.169289 1_555
B0_4 Ru7_0 2.201409 1_555
B0_4 Ru7_4 2.201409 1_555
B0_4 Ti1_4 2.582515 1_555
B0_4 Ti3_5 2.765112 1_554
B0_4 Ti2_4 2.782891 1_555
B0_5 Ru0_1 2.167101 1_555
B0_5 Ru0_5 2.167101 1_555
B0_5 Ru2_1 2.169289 1_555
B0_5 Ru2_5 2.169289 1_555
B0_5 Ru7_1 2.201409 1_555
B0_5 Ru7_5 2.201409 1_555
B0_5 Ti1_5 2.582515 1_555
B0_5 Ti3_4 2.765112 1_555
B0_5 Ti2_5 2.782891 1_555
B0_6 Ru0_2 2.167101 1_555
B0_6 Ru0_6 2.167101 1_555
B0_6 Ru2_2 2.169289 1_555
B0_6 Ru2_6 2.169289 1_555
B0_6 Ru7_2 2.201409 1_555
B0_6 Ru7_6 2.201409 1_555
B0_6 Ti1_6 2.582515 1_555
B0_6 Ti3_7 2.765112 1_554
B0_6 Ti2_6 2.782891 1_555
B0_7 Ru0_7 2.167101 1_555
B0_7 Ru0_3 2.167101 1_555
B0_7 Ru2_3 2.169289 1_555
B0_7 Ru2_7 2.169289 1_555
B0_7 Ru7_3 2.201409 1_555
B0_7 Ru7_7 2.201409 1_555
B0_7 Ti1_7 2.582515 1_555
B0_7 Ti3_6 2.765112 1_555
B0_7 Ti2_7 2.782891 1_555
B1_0 Ru1_4 2.167101 1_455
B1_0 Ru1_0 2.167101 1_555
B1_0 Ru3_4 2.169289 1_455
B1_0 Ru3_0 2.169289 1_555
B1_0 Ru7_5 2.201409 1_455
B1_0 Ru7_1 2.201409 1_555
B1_0 Ti0_0 2.582515 1_555
B1_0 Ti2_1 2.765112 1_555
B1_0 Ti3_0 2.782891 1_555
B1_1 Ru1_5 2.167101 1_455
B1_1 Ru1_1 2.167101 1_555
B1_1 Ru3_5 2.169289 1_455
B1_1 Ru3_1 2.169289 1_555
B1_1 Ru7_4 2.201409 1_456
B1_1 Ru7_0 2.201409 1_556
B1_1 Ti0_1 2.582515 1_555
B1_1 Ti2_0 2.765112 1_556
B1_1 Ti3_1 2.782891 1_555
B1_2 Ru1_6 2.167101 1_455
B1_2 Ru1_2 2.167101 1_555
B1_2 Ru3_6 2.169289 1_455
B1_2 Ru3_2 2.169289 1_555
B1_2 Ru7_7 2.201409 1_455
B1_2 Ru7_3 2.201409 1_555
B1_2 Ti0_2 2.582515 1_555
B1_2 Ti2_3 2.765112 1_555
B1_2 Ti3_2 2.782891 1_555
B1_3 Ru1_7 2.167101 1_455
B1_3 Ru1_3 2.167101 1_555
B1_3 Ru3_7 2.169289 1_455
B1_3 Ru3_3 2.169289 1_555
B1_3 Ru7_2 2.201409 1_556
B1_3 Ru7_6 2.201409 1_456
B1_3 Ti0_3 2.582515 1_555
B1_3 Ti2_2 2.765112 1_556
B1_3 Ti3_3 2.782891 1_555
B1_4 Ru1_4 2.167101 1_555
B1_4 Ru1_0 2.167101 1_555
B1_4 Ru3_0 2.169289 1_555
B1_4 Ru3_4 2.169289 1_555
B1_4 Ru7_1 2.201409 1_555
B1_4 Ru7_5 2.201409 1_555
B1_4 Ti0_4 2.582515 1_555
B1_4 Ti2_5 2.765112 1_555
B1_4 Ti3_4 2.782891 1_555
B1_5 Ru1_1 2.167101 1_555
B1_5 Ru1_5 2.167101 1_555
B1_5 Ru3_1 2.169289 1_555
B1_5 Ru3_5 2.169289 1_555
B1_5 Ru7_0 2.201409 1_556
B1_5 Ru7_4 2.201409 1_556
B1_5 Ti0_5 2.582515 1_555
B1_5 Ti2_4 2.765112 1_556
B1_5 Ti3_5 2.782891 1_555
B1_6 Ru1_6 2.167101 1_555
B1_6 Ru1_2 2.167101 1_555
B1_6 Ru3_2 2.169289 1_555
B1_6 Ru3_6 2.169289 1_555
B1_6 Ru7_3 2.201409 1_555
B1_6 Ru7_7 2.201409 1_555
B1_6 Ti0_6 2.582515 1_555
B1_6 Ti2_7 2.765112 1_555
B1_6 Ti3_6 2.782891 1_555
B1_7 Ru1_3 2.167101 1_555
B1_7 Ru1_7 2.167101 1_555
B1_7 Ru3_3 2.169289 1_555
B1_7 Ru3_7 2.169289 1_555
B1_7 Ru7_2 2.201409 1_556
B1_7 Ru7_6 2.201409 1_556
B1_7 Ti0_7 2.582515 1_555
B1_7 Ti2_6 2.765112 1_556
B1_7 Ti3_7 2.782891 1_555
B2_0 Ru5_4 2.128001 1_455
B2_0 Ru5_0 2.128001 1_555
B2_0 Ru6_4 2.189399 1_455
B2_0 Ru6_0 2.189399 1_555
B2_0 Rh0_4 2.203608 1_455
B2_0 Rh0_0 2.203608 1_555
B2_0 Ti3_0 2.674382 1_555
B2_0 Ti0_2 2.712378 1_545
B2_0 Ti1_0 2.910758 1_555
B2_1 Ru5_5 2.128001 1_455
B2_1 Ru5_1 2.128001 1_555
B2_1 Ru6_5 2.189399 1_455
B2_1 Ru6_1 2.189399 1_555
B2_1 Rh0_5 2.203608 1_455
B2_1 Rh0_1 2.203608 1_555
B2_1 Ti3_1 2.674382 1_555
B2_1 Ti0_3 2.712378 1_545
B2_1 Ti1_1 2.910758 1_555
B2_2 Ru5_6 2.128001 1_455
B2_2 Ru5_2 2.128001 1_555
B2_2 Ru6_6 2.189399 1_455
B2_2 Ru6_2 2.189399 1_555
B2_2 Rh0_6 2.203608 1_455
B2_2 Rh0_2 2.203608 1_555
B2_2 Ti3_2 2.674382 1_555
B2_2 Ti0_0 2.712378 1_555
B2_2 Ti1_2 2.910758 1_555
B2_3 Ru5_7 2.128001 1_455
B2_3 Ru5_3 2.128001 1_555
B2_3 Ru6_7 2.189399 1_455
B2_3 Ru6_3 2.189399 1_555
B2_3 Rh0_7 2.203608 1_455
B2_3 Rh0_3 2.203608 1_555
B2_3 Ti3_3 2.674382 1_555
B2_3 Ti0_1 2.712378 1_555
B2_3 Ti1_3 2.910758 1_555
B2_4 Ru5_0 2.128001 1_555
B2_4 Ru5_4 2.128001 1_555
B2_4 Ru6_0 2.189399 1_555
B2_4 Ru6_4 2.189399 1_555
B2_4 Rh0_0 2.203608 1_555
B2_4 Rh0_4 2.203608 1_555
B2_4 Ti3_4 2.674382 1_555
B2_4 Ti0_6 2.712378 1_545
B2_4 Ti1_4 2.910758 1_555
B2_5 Ru5_1 2.128001 1_555
B2_5 Ru5_5 2.128001 1_555
B2_5 Ru6_1 2.189399 1_555
B2_5 Ru6_5 2.189399 1_555
B2_5 Rh0_1 2.203608 1_555
B2_5 Rh0_5 2.203608 1_555
B2_5 Ti3_5 2.674382 1_555
B2_5 Ti0_7 2.712378 1_545
B2_5 Ti1_5 2.910758 1_555
B2_6 Ru5_2 2.128001 1_555
B2_6 Ru5_6 2.128001 1_555
B2_6 Ru6_2 2.189399 1_555
B2_6 Ru6_6 2.189399 1_555
B2_6 Rh0_2 2.203608 1_555
B2_6 Rh0_6 2.203608 1_555
B2_6 Ti3_6 2.674382 1_555
B2_6 Ti0_4 2.712378 1_555
B2_6 Ti1_6 2.910758 1_555
B2_7 Ru5_3 2.128001 1_555
B2_7 Ru5_7 2.128001 1_555
B2_7 Ru6_3 2.189399 1_555
B2_7 Ru6_7 2.189399 1_555
B2_7 Rh0_3 2.203608 1_555
B2_7 Rh0_7 2.203608 1_555
B2_7 Ti3_7 2.674382 1_555
B2_7 Ti0_5 2.712378 1_555
B2_7 Ti1_7 2.910758 1_555
B3_0 Ru4_4 2.128001 1_455
B3_0 Ru4_0 2.128001 1_555
B3_0 Ru6_6 2.189399 1_455
B3_0 Ru6_2 2.189399 1_555
B3_0 Rh1_4 2.203608 1_455
B3_0 Rh1_0 2.203608 1_555
B3_0 Ti2_0 2.674382 1_555
B3_0 Ti1_2 2.712378 1_555
B3_0 Ti0_0 2.910758 1_555
B3_1 Ru4_5 2.128001 1_455
B3_1 Ru4_1 2.128001 1_555
B3_1 Ru6_7 2.189399 1_455
B3_1 Ru6_3 2.189399 1_555
B3_1 Rh1_5 2.203608 1_455
B3_1 Rh1_1 2.203608 1_555
B3_1 Ti2_1 2.674382 1_555
B3_1 Ti1_3 2.712378 1_555
B3_1 Ti0_1 2.910758 1_555
B3_2 Ru4_6 2.128001 1_455
B3_2 Ru4_2 2.128001 1_555
B3_2 Ru6_4 2.189399 1_465
B3_2 Ru6_0 2.189399 1_565
B3_2 Rh1_6 2.203608 1_455
B3_2 Rh1_2 2.203608 1_555
B3_2 Ti2_2 2.674382 1_555
B3_2 Ti1_0 2.712378 1_565
B3_2 Ti0_2 2.910758 1_555
B3_3 Ru4_7 2.128001 1_455
B3_3 Ru4_3 2.128001 1_555
B3_3 Ru6_5 2.189399 1_465
B3_3 Ru6_1 2.189399 1_565
B3_3 Rh1_7 2.203608 1_455
B3_3 Rh1_3 2.203608 1_555
B3_3 Ti2_3 2.674382 1_555
B3_3 Ti1_1 2.712378 1_565
B3_3 Ti0_3 2.910758 1_555
B3_4 Ru4_0 2.128001 1_555
B3_4 Ru4_4 2.128001 1_555
B3_4 Ru6_2 2.189399 1_555
B3_4 Ru6_6 2.189399 1_555
B3_4 Rh1_0 2.203608 1_555
B3_4 Rh1_4 2.203608 1_555
B3_4 Ti2_4 2.674382 1_555
B3_4 Ti1_6 2.712378 1_555
B3_4 Ti0_4 2.910758 1_555
B3_5 Ru4_1 2.128001 1_555
B3_5 Ru4_5 2.128001 1_555
B3_5 Ru6_7 2.189399 1_555
B3_5 Ru6_3 2.189399 1_555
B3_5 Rh1_1 2.203608 1_555
B3_5 Rh1_5 2.203608 1_555
B3_5 Ti2_5 2.674382 1_555
B3_5 Ti1_7 2.712378 1_555
B3_5 Ti0_5 2.910758 1_555
B3_6 Ru4_2 2.128001 1_555
B3_6 Ru4_6 2.128001 1_555
B3_6 Ru6_0 2.189399 1_565
B3_6 Ru6_4 2.189399 1_565
B3_6 Rh1_2 2.203608 1_555
B3_6 Rh1_6 2.203608 1_555
B3_6 Ti2_6 2.674382 1_555
B3_6 Ti1_4 2.712378 1_565
B3_6 Ti0_6 2.910758 1_555
B3_7 Ru4_3 2.128001 1_555
B3_7 Ru4_7 2.128001 1_555
B3_7 Ru6_1 2.189399 1_565
B3_7 Ru6_5 2.189399 1_565
B3_7 Rh1_3 2.203608 1_555
B3_7 Rh1_7 2.203608 1_555
B3_7 Ti2_7 2.674382 1_555
B3_7 Ti1_5 2.712378 1_565
B3_7 Ti0_7 2.910758 1_555
Ru0_0 Ti5_0 2.566850 1_555
Ru0_0 Ti5_4 2.566850 1_555
Ru0_0 Ti1_4 2.733398 1_555
Ru0_0 Ti1_0 2.733398 1_555
Ru0_0 Ti3_1 2.877808 1_554
Ru0_0 Ti3_5 2.877808 1_554
Ru0_1 Ti5_1 2.566850 1_555
Ru0_1 Ti5_5 2.566850 1_555
Ru0_1 Ti1_1 2.733398 1_555
Ru0_1 Ti1_5 2.733398 1_555
Ru0_1 Ti3_4 2.877808 1_555
Ru0_1 Ti3_0 2.877808 1_555
Ru0_2 Ti5_2 2.566850 1_555
Ru0_2 Ti5_6 2.566850 1_555
Ru0_2 Ti1_2 2.733398 1_555
Ru0_2 Ti1_6 2.733398 1_555
Ru0_2 Ti3_7 2.877808 1_554
Ru0_2 Ti3_3 2.877808 1_554
Ru0_3 Ti5_3 2.566850 1_555
Ru0_3 Ti5_7 2.566850 1_555
Ru0_3 Ti1_3 2.733398 1_555
Ru0_3 Ti1_7 2.733398 1_555
Ru0_3 Ti3_2 2.877808 1_555
Ru0_3 Ti3_6 2.877808 1_555
Ru0_4 Ti5_0 2.566850 1_655
Ru0_4 Ti5_4 2.566850 1_555
Ru0_4 Ti1_0 2.733398 1_655
Ru0_4 Ti1_4 2.733398 1_555
Ru0_4 Ti3_1 2.877808 1_654
Ru0_4 Ti3_5 2.877808 1_554
Ru0_5 Ti5_1 2.566850 1_655
Ru0_5 Ti5_5 2.566850 1_555
Ru0_5 Ti1_1 2.733398 1_655
Ru0_5 Ti1_5 2.733398 1_555
Ru0_5 Ti3_0 2.877808 1_655
Ru0_5 Ti3_4 2.877808 1_555
Ru0_6 Ti5_2 2.566850 1_655
Ru0_6 Ti5_6 2.566850 1_555
Ru0_6 Ti1_2 2.733398 1_655
Ru0_6 Ti1_6 2.733398 1_555
Ru0_6 Ti3_3 2.877808 1_654
Ru0_6 Ti3_7 2.877808 1_554
Ru0_7 Ti5_3 2.566850 1_655
Ru0_7 Ti5_7 2.566850 1_555
Ru0_7 Ti1_3 2.733398 1_655
Ru0_7 Ti1_7 2.733398 1_555
Ru0_7 Ti3_2 2.877808 1_655
Ru0_7 Ti3_6 2.877808 1_555
Ru1_0 Ti5_3 2.566850 1_555
Ru1_0 Ti5_7 2.566850 1_555
Ru1_0 Ti0_0 2.733398 1_555
Ru1_0 Ti0_4 2.733398 1_555
Ru1_0 Ti2_1 2.877808 1_555
Ru1_0 Ti2_5 2.877808 1_555
Ru1_1 Ti5_6 2.566850 1_556
Ru1_1 Ti5_2 2.566850 1_556
Ru1_1 Ti0_5 2.733398 1_555
Ru1_1 Ti0_1 2.733398 1_555
Ru1_1 Ti2_4 2.877808 1_556
Ru1_1 Ti2_0 2.877808 1_556
Ru1_2 Ti5_1 2.566850 1_565
Ru1_2 Ti5_5 2.566850 1_565
Ru1_2 Ti0_6 2.733398 1_555
Ru1_2 Ti0_2 2.733398 1_555
Ru1_2 Ti2_3 2.877808 1_555
Ru1_2 Ti2_7 2.877808 1_555
Ru1_3 Ti5_0 2.566850 1_566
Ru1_3 Ti5_4 2.566850 1_566
Ru1_3 Ti0_3 2.733398 1_555
Ru1_3 Ti0_7 2.733398 1_555
Ru1_3 Ti2_2 2.877808 1_556
Ru1_3 Ti2_6 2.877808 1_556
Ru1_4 Ti5_3 2.566850 1_655
Ru1_4 Ti5_7 2.566850 1_555
Ru1_4 Ti0_0 2.733398 1_655
Ru1_4 Ti0_4 2.733398 1_555
Ru1_4 Ti2_1 2.877808 1_655
Ru1_4 Ti2_5 2.877808 1_555
Ru1_5 Ti5_2 2.566850 1_656
Ru1_5 Ti5_6 2.566850 1_556
Ru1_5 Ti0_1 2.733398 1_655
Ru1_5 Ti0_5 2.733398 1_555
Ru1_5 Ti2_0 2.877808 1_656
Ru1_5 Ti2_4 2.877808 1_556
Ru1_6 Ti5_1 2.566850 1_665
Ru1_6 Ti5_5 2.566850 1_565
Ru1_6 Ti0_2 2.733398 1_655
Ru1_6 Ti0_6 2.733398 1_555
Ru1_6 Ti2_3 2.877808 1_655
Ru1_6 Ti2_7 2.877808 1_555
Ru1_7 Ti5_0 2.566850 1_666
Ru1_7 Ti5_4 2.566850 1_566
Ru1_7 Ti0_3 2.733398 1_655
Ru1_7 Ti0_7 2.733398 1_555
Ru1_7 Ti2_2 2.877808 1_656
Ru1_7 Ti2_6 2.877808 1_556
Ru2_0 Ti4_0 2.565459 1_555
Ru2_0 Ti4_4 2.565459 1_555
Ru2_0 Ti1_4 2.795167 1_555
Ru2_0 Ti1_0 2.795167 1_555
Ru2_0 Ti2_0 2.934128 1_555
Ru2_0 Ti2_4 2.934128 1_555
Ru2_1 Ti4_5 2.565459 1_555
Ru2_1 Ti4_1 2.565459 1_555
Ru2_1 Ti1_1 2.795167 1_555
Ru2_1 Ti1_5 2.795167 1_555
Ru2_1 Ti2_5 2.934128 1_555
Ru2_1 Ti2_1 2.934128 1_555
Ru2_2 Ti4_2 2.565459 1_555
Ru2_2 Ti4_6 2.565459 1_555
Ru2_2 Ti1_2 2.795167 1_555
Ru2_2 Ti1_6 2.795167 1_555
Ru2_2 Ti2_2 2.934128 1_555
Ru2_2 Ti2_6 2.934128 1_555
Ru2_3 Ti4_7 2.565459 1_555
Ru2_3 Ti4_3 2.565459 1_555
Ru2_3 Ti1_3 2.795167 1_555
Ru2_3 Ti1_7 2.795167 1_555
Ru2_3 Ti2_7 2.934128 1_555
Ru2_3 Ti2_3 2.934128 1_555
Ru2_4 Ti4_0 2.565459 1_655
Ru2_4 Ti4_4 2.565459 1_555
Ru2_4 Ti1_0 2.795167 1_655
Ru2_4 Ti1_4 2.795167 1_555
Ru2_4 Ti2_0 2.934128 1_655
Ru2_4 Ti2_4 2.934128 1_555
Ru2_5 Ti4_1 2.565459 1_655
Ru2_5 Ti4_5 2.565459 1_555
Ru2_5 Ti1_1 2.795167 1_655
Ru2_5 Ti1_5 2.795167 1_555
Ru2_5 Ti2_1 2.934128 1_655
Ru2_5 Ti2_5 2.934128 1_555
Ru2_6 Ti4_2 2.565459 1_655
Ru2_6 Ti4_6 2.565459 1_555
Ru2_6 Ti1_2 2.795167 1_655
Ru2_6 Ti1_6 2.795167 1_555
Ru2_6 Ti2_2 2.934128 1_655
Ru2_6 Ti2_6 2.934128 1_555
Ru2_7 Ti4_3 2.565459 1_655
Ru2_7 Ti4_7 2.565459 1_555
Ru2_7 Ti1_3 2.795167 1_655
Ru2_7 Ti1_7 2.795167 1_555
Ru2_7 Ti2_3 2.934128 1_655
Ru2_7 Ti2_7 2.934128 1_555
Ru3_0 Ti4_0 2.565459 1_555
Ru3_0 Ti4_4 2.565459 1_555
Ru3_0 Ti0_0 2.795167 1_555
Ru3_0 Ti0_4 2.795167 1_555
Ru3_0 Ti3_0 2.934128 1_555
Ru3_0 Ti3_4 2.934128 1_555
Ru3_1 Ti4_5 2.565459 1_555
Ru3_1 Ti4_1 2.565459 1_555
Ru3_1 Ti0_1 2.795167 1_555
Ru3_1 Ti0_5 2.795167 1_555
Ru3_1 Ti3_1 2.934128 1_555
Ru3_1 Ti3_5 2.934128 1_555
Ru3_2 Ti4_2 2.565459 1_555
Ru3_2 Ti4_6 2.565459 1_555
Ru3_2 Ti0_6 2.795167 1_555
Ru3_2 Ti0_2 2.795167 1_555
Ru3_2 Ti3_2 2.934128 1_555
Ru3_2 Ti3_6 2.934128 1_555
Ru3_3 Ti4_3 2.565459 1_555
Ru3_3 Ti4_7 2.565459 1_555
Ru3_3 Ti0_3 2.795167 1_555
Ru3_3 Ti0_7 2.795167 1_555
Ru3_3 Ti3_3 2.934128 1_555
Ru3_3 Ti3_7 2.934128 1_555
Ru3_4 Ti4_0 2.565459 1_655
Ru3_4 Ti4_4 2.565459 1_555
Ru3_4 Ti0_0 2.795167 1_655
Ru3_4 Ti0_4 2.795167 1_555
Ru3_4 Ti3_0 2.934128 1_655
Ru3_4 Ti3_4 2.934128 1_555
Ru3_5 Ti4_1 2.565459 1_655
Ru3_5 Ti4_5 2.565459 1_555
Ru3_5 Ti0_1 2.795167 1_655
Ru3_5 Ti0_5 2.795167 1_555
Ru3_5 Ti3_1 2.934128 1_655
Ru3_5 Ti3_5 2.934128 1_555
Ru3_6 Ti4_2 2.565459 1_655
Ru3_6 Ti4_6 2.565459 1_555
Ru3_6 Ti0_2 2.795167 1_655
Ru3_6 Ti0_6 2.795167 1_555
Ru3_6 Ti3_2 2.934128 1_655
Ru3_6 Ti3_6 2.934128 1_555
Ru3_7 Ti4_3 2.565459 1_655
Ru3_7 Ti4_7 2.565459 1_555
Ru3_7 Ti0_3 2.795167 1_655
Ru3_7 Ti0_7 2.795167 1_555
Ru3_7 Ti3_3 2.934128 1_655
Ru3_7 Ti3_7 2.934128 1_555
Ru4_0 Ti5_2 2.578693 1_555
Ru4_0 Ti5_6 2.578693 1_555
Ru4_0 Ti2_0 2.761999 1_555
Ru4_0 Ti2_4 2.761999 1_555
Ru4_0 Ti1_2 2.889307 1_555
Ru4_0 Ti1_6 2.889307 1_555
Ru4_1 Ti5_7 2.578693 1_555
Ru4_1 Ti5_3 2.578693 1_555
Ru4_1 Ti2_1 2.761999 1_555
Ru4_1 Ti2_5 2.761999 1_555
Ru4_1 Ti1_3 2.889307 1_555
Ru4_1 Ti1_7 2.889307 1_555
Ru4_2 Ti5_0 2.578693 1_565
Ru4_2 Ti5_4 2.578693 1_565
Ru4_2 Ti2_2 2.761999 1_555
Ru4_2 Ti2_6 2.761999 1_555
Ru4_2 Ti1_0 2.889307 1_565
Ru4_2 Ti1_4 2.889307 1_565
Ru4_3 Ti5_1 2.578693 1_565
Ru4_3 Ti5_5 2.578693 1_565
Ru4_3 Ti2_3 2.761999 1_555
Ru4_3 Ti2_7 2.761999 1_555
Ru4_3 Ti1_1 2.889307 1_565
Ru4_3 Ti1_5 2.889307 1_565
Ru4_4 Ti5_2 2.578693 1_655
Ru4_4 Ti5_6 2.578693 1_555
Ru4_4 Ti2_0 2.761999 1_655
Ru4_4 Ti2_4 2.761999 1_555
Ru4_4 Ti1_2 2.889307 1_655
Ru4_4 Ti1_6 2.889307 1_555
Ru4_5 Ti5_3 2.578693 1_655
Ru4_5 Ti5_7 2.578693 1_555
Ru4_5 Ti2_1 2.761999 1_655
Ru4_5 Ti2_5 2.761999 1_555
Ru4_5 Ti1_3 2.889307 1_655
Ru4_5 Ti1_7 2.889307 1_555
Ru4_6 Ti5_0 2.578693 1_665
Ru4_6 Ti5_4 2.578693 1_565
Ru4_6 Ti2_2 2.761999 1_655
Ru4_6 Ti2_6 2.761999 1_555
Ru4_6 Ti1_0 2.889307 1_665
Ru4_6 Ti1_4 2.889307 1_565
Ru4_7 Ti5_1 2.578693 1_665
Ru4_7 Ti5_5 2.578693 1_565
Ru4_7 Ti2_3 2.761999 1_655
Ru4_7 Ti2_7 2.761999 1_555
Ru4_7 Ti1_1 2.889307 1_665
Ru4_7 Ti1_5 2.889307 1_565
Ru5_0 Ti5_1 2.578693 1_555
Ru5_0 Ti5_5 2.578693 1_555
Ru5_0 Ti3_0 2.761999 1_555
Ru5_0 Ti3_4 2.761999 1_555
Ru5_0 Ti0_2 2.889307 1_545
Ru5_0 Ti0_6 2.889307 1_545
Ru5_1 Ti5_0 2.578693 1_556
Ru5_1 Ti5_4 2.578693 1_556
Ru5_1 Ti3_5 2.761999 1_555
Ru5_1 Ti3_1 2.761999 1_555
Ru5_1 Ti0_3 2.889307 1_545
Ru5_1 Ti0_7 2.889307 1_545
Ru5_2 Ti5_3 2.578693 1_555
Ru5_2 Ti5_7 2.578693 1_555
Ru5_2 Ti3_2 2.761999 1_555
Ru5_2 Ti3_6 2.761999 1_555
Ru5_2 Ti0_0 2.889307 1_555
Ru5_2 Ti0_4 2.889307 1_555
Ru5_3 Ti5_6 2.578693 1_556
Ru5_3 Ti5_2 2.578693 1_556
Ru5_3 Ti3_3 2.761999 1_555
Ru5_3 Ti3_7 2.761999 1_555
Ru5_3 Ti0_1 2.889307 1_555
Ru5_3 Ti0_5 2.889307 1_555
Ru5_4 Ti5_1 2.578693 1_655
Ru5_4 Ti5_5 2.578693 1_555
Ru5_4 Ti3_0 2.761999 1_655
Ru5_4 Ti3_4 2.761999 1_555
Ru5_4 Ti0_2 2.889307 1_645
Ru5_4 Ti0_6 2.889307 1_545
Ru5_5 Ti5_0 2.578693 1_656
Ru5_5 Ti5_4 2.578693 1_556
Ru5_5 Ti3_1 2.761999 1_655
Ru5_5 Ti3_5 2.761999 1_555
Ru5_5 Ti0_3 2.889307 1_645
Ru5_5 Ti0_7 2.889307 1_545
Ru5_6 Ti5_3 2.578693 1_655
Ru5_6 Ti5_7 2.578693 1_555
Ru5_6 Ti3_2 2.761999 1_655
Ru5_6 Ti3_6 2.761999 1_555
Ru5_6 Ti0_0 2.889307 1_655
Ru5_6 Ti0_4 2.889307 1_555
Ru5_7 Ti5_2 2.578693 1_656
Ru5_7 Ti5_6 2.578693 1_556
Ru5_7 Ti3_3 2.761999 1_655
Ru5_7 Ti3_7 2.761999 1_555
Ru5_7 Ti0_1 2.889307 1_655
Ru5_7 Ti0_5 2.889307 1_555
Ru6_0 Ti0_2 2.757366 1_545
Ru6_0 Ti1_4 2.757366 1_555
Ru6_0 Ti0_6 2.757366 1_545
Ru6_0 Ti1_0 2.757366 1_555
Ru6_1 Ti0_7 2.757366 1_545
Ru6_1 Ti0_3 2.757366 1_545
Ru6_1 Ti1_1 2.757366 1_555
Ru6_1 Ti1_5 2.757366 1_555
Ru6_2 Ti0_0 2.757366 1_555
Ru6_2 Ti0_4 2.757366 1_555
Ru6_2 Ti1_2 2.757366 1_555
Ru6_2 Ti1_6 2.757366 1_555
Ru6_3 Ti0_1 2.757366 1_555
Ru6_3 Ti0_5 2.757366 1_555
Ru6_3 Ti1_3 2.757366 1_555
Ru6_3 Ti1_7 2.757366 1_555
Ru6_4 Ti0_2 2.757366 1_645
Ru6_4 Ti1_0 2.757366 1_655
Ru6_4 Ti1_4 2.757366 1_555
Ru6_4 Ti0_6 2.757366 1_545
Ru6_5 Ti0_3 2.757366 1_645
Ru6_5 Ti0_7 2.757366 1_545
Ru6_5 Ti1_1 2.757366 1_655
Ru6_5 Ti1_5 2.757366 1_555
Ru6_6 Ti0_0 2.757366 1_655
Ru6_6 Ti1_2 2.757366 1_655
Ru6_6 Ti0_4 2.757366 1_555
Ru6_6 Ti1_6 2.757366 1_555
Ru6_7 Ti0_1 2.757366 1_655
Ru6_7 Ti0_5 2.757366 1_555
Ru6_7 Ti1_3 2.757366 1_655
Ru6_7 Ti1_7 2.757366 1_555
Ru7_0 Ti3_5 2.707536 1_554
Ru7_0 Ti3_1 2.707536 1_554
Ru7_0 Ti2_0 2.707536 1_555
Ru7_0 Ti2_4 2.707536 1_555
Ru7_1 Ti3_0 2.707536 1_555
Ru7_1 Ti3_4 2.707536 1_555
Ru7_1 Ti2_5 2.707536 1_555
Ru7_1 Ti2_1 2.707536 1_555
Ru7_2 Ti3_3 2.707536 1_554
Ru7_2 Ti3_7 2.707536 1_554
Ru7_2 Ti2_2 2.707536 1_555
Ru7_2 Ti2_6 2.707536 1_555
Ru7_3 Ti3_2 2.707536 1_555
Ru7_3 Ti3_6 2.707536 1_555
Ru7_3 Ti2_7 2.707536 1_555
Ru7_3 Ti2_3 2.707536 1_555
Ru7_4 Ti3_1 2.707536 1_654
Ru7_4 Ti3_5 2.707536 1_554
Ru7_4 Ti2_0 2.707536 1_655
Ru7_4 Ti2_4 2.707536 1_555
Ru7_5 Ti3_0 2.707536 1_655
Ru7_5 Ti3_4 2.707536 1_555
Ru7_5 Ti2_1 2.707536 1_655
Ru7_5 Ti2_5 2.707536 1_555
Ru7_6 Ti3_3 2.707536 1_654
Ru7_6 Ti3_7 2.707536 1_554
Ru7_6 Ti2_2 2.707536 1_655
Ru7_6 Ti2_6 2.707536 1_555
Ru7_7 Ti3_2 2.707536 1_655
Ru7_7 Ti3_6 2.707536 1_555
Ru7_7 Ti2_3 2.707536 1_655
Ru7_7 Ti2_7 2.707536 1_555
Rh0_0 Ti4_4 2.569177 1_555
Rh0_0 Ti4_0 2.569177 1_555
Rh0_0 Ti3_0 2.848323 1_555
Rh0_0 Ti3_4 2.848323 1_555
Rh0_0 Ti1_4 2.973049 1_555
Rh0_0 Ti1_0 2.973049 1_555
Rh0_1 Ti4_1 2.569177 1_555
Rh0_1 Ti4_5 2.569177 1_555
Rh0_1 Ti3_1 2.848323 1_555
Rh0_1 Ti3_5 2.848323 1_555
Rh0_1 Ti1_1 2.973049 1_555
Rh0_1 Ti1_5 2.973049 1_555
Rh0_2 Ti4_6 2.569177 1_555
Rh0_2 Ti4_2 2.569177 1_555
Rh0_2 Ti3_2 2.848323 1_555
Rh0_2 Ti3_6 2.848323 1_555
Rh0_2 Ti1_2 2.973049 1_555
Rh0_2 Ti1_6 2.973049 1_555
Rh0_3 Ti4_3 2.569177 1_555
Rh0_3 Ti4_7 2.569177 1_555
Rh0_3 Ti3_3 2.848323 1_555
Rh0_3 Ti3_7 2.848323 1_555
Rh0_3 Ti1_3 2.973049 1_555
Rh0_3 Ti1_7 2.973049 1_555
Rh0_4 Ti4_0 2.569177 1_655
Rh0_4 Ti4_4 2.569177 1_555
Rh0_4 Ti3_0 2.848323 1_655
Rh0_4 Ti3_4 2.848323 1_555
Rh0_4 Ti1_0 2.973049 1_655
Rh0_4 Ti1_4 2.973049 1_555
Rh0_5 Ti4_1 2.569177 1_655
Rh0_5 Ti4_5 2.569177 1_555
Rh0_5 Ti3_1 2.848323 1_655
Rh0_5 Ti3_5 2.848323 1_555
Rh0_5 Ti1_1 2.973049 1_655
Rh0_5 Ti1_5 2.973049 1_555
Rh0_6 Ti4_2 2.569177 1_655
Rh0_6 Ti4_6 2.569177 1_555
Rh0_6 Ti3_2 2.848323 1_655
Rh0_6 Ti3_6 2.848323 1_555
Rh0_6 Ti1_2 2.973049 1_655
Rh0_6 Ti1_6 2.973049 1_555
Rh0_7 Ti4_3 2.569177 1_655
Rh0_7 Ti4_7 2.569177 1_555
Rh0_7 Ti3_3 2.848323 1_655
Rh0_7 Ti3_7 2.848323 1_555
Rh0_7 Ti1_3 2.973049 1_655
Rh0_7 Ti1_7 2.973049 1_555
Rh1_0 Ti4_0 2.569177 1_555
Rh1_0 Ti4_4 2.569177 1_555
Rh1_0 Ti2_0 2.848323 1_555
Rh1_0 Ti2_4 2.848323 1_555
Rh1_0 Ti0_0 2.973049 1_555
Rh1_0 Ti0_4 2.973049 1_555
Rh1_1 Ti4_5 2.569177 1_555
Rh1_1 Ti4_1 2.569177 1_555
Rh1_1 Ti2_1 2.848323 1_555
Rh1_1 Ti2_5 2.848323 1_555
Rh1_1 Ti0_1 2.973049 1_555
Rh1_1 Ti0_5 2.973049 1_555
Rh1_2 Ti4_2 2.569177 1_555
Rh1_2 Ti4_6 2.569177 1_555
Rh1_2 Ti2_6 2.848323 1_555
Rh1_2 Ti2_2 2.848323 1_555
Rh1_2 Ti0_6 2.973049 1_555
Rh1_2 Ti0_2 2.973049 1_555
Rh1_3 Ti4_3 2.569177 1_555
Rh1_3 Ti4_7 2.569177 1_555
Rh1_3 Ti2_3 2.848323 1_555
Rh1_3 Ti2_7 2.848323 1_555
Rh1_3 Ti0_3 2.973049 1_555
Rh1_3 Ti0_7 2.973049 1_555
Rh1_4 Ti4_0 2.569177 1_655
Rh1_4 Ti4_4 2.569177 1_555
Rh1_4 Ti2_0 2.848323 1_655
Rh1_4 Ti2_4 2.848323 1_555
Rh1_4 Ti0_0 2.973049 1_655
Rh1_4 Ti0_4 2.973049 1_555
Rh1_5 Ti4_1 2.569177 1_655
Rh1_5 Ti4_5 2.569177 1_555
Rh1_5 Ti2_1 2.848323 1_655
Rh1_5 Ti2_5 2.848323 1_555
Rh1_5 Ti0_1 2.973049 1_655
Rh1_5 Ti0_5 2.973049 1_555
Rh1_6 Ti4_2 2.569177 1_655
Rh1_6 Ti4_6 2.569177 1_555
Rh1_6 Ti2_2 2.848323 1_655
Rh1_6 Ti2_6 2.848323 1_555
Rh1_6 Ti0_2 2.973049 1_655
Rh1_6 Ti0_6 2.973049 1_555
Rh1_7 Ti4_3 2.569177 1_655
Rh1_7 Ti4_7 2.569177 1_555
Rh1_7 Ti2_3 2.848323 1_655
Rh1_7 Ti2_7 2.848323 1_555
Rh1_7 Ti0_3 2.973049 1_655
Rh1_7 Ti0_7 2.973049 1_555
