# generated using pymatgen
data_Hf6Pt2CN
_symmetry_space_group_name_H-M   'P 1'
_cell_length_a   5.95602299
_cell_length_b   5.95602359
_cell_length_c   8.80473535
_cell_angle_alpha   90.20473591
_cell_angle_beta   89.79526328
_cell_angle_gamma   147.79421675
_symmetry_Int_Tables_number   1
_chemical_formula_structural   Hf6Pt2CN
_chemical_formula_sum   'Hf6 Pt2 C1 N1'
_cell_volume   166.46466700
_cell_formula_units_Z   1
loop_
 _symmetry_equiv_pos_site_id
 _symmetry_equiv_pos_as_xyz
  1  'x, y, z'
loop_
 _atom_site_type_symbol
 _atom_site_label
 _atom_site_symmetry_multiplicity
 _atom_site_fract_x
 _atom_site_fract_y
 _atom_site_fract_z
 _atom_site_occupancy
  Hf  Hf0  1  0.62949329  0.37050671  0.94065190  1
  Hf  Hf1  1  0.37182114  0.62817886  0.44451164  1
  Hf  Hf2  1  0.37050671  0.62949329  0.05934810  1
  Hf  Hf3  1  0.62817886  0.37182114  0.55548836  1
  Hf  Hf4  1  0.94583904  0.05416096  0.75034743  1
  Hf  Hf5  1  0.05416096  0.94583904  0.24965257  1
  Pt  Pt0  1  0.25219228  0.74780772  0.74506757  1
  Pt  Pt1  1  0.74780772  0.25219228  0.25493243  1
  C  C0  1  0.00000000  0.00000000  0.00000000  1
  N  N0  1  0.00000000  0.00000000  0.50000000  1
loop_
_geom_bond_atom_site_label_1
_geom_bond_atom_site_label_2
_geom_bond_distance
_geom_bond_site_symmetry_2
Hf0 Pt0 2.765591 1_655
Hf0 Pt0 2.765591 1_545
Hf0 Pt1 3.085212 1_556
Hf1 N0 2.263858 1_665
Hf1 N0 2.263858 1_555
Hf1 Pt1 2.747230 1_455
Hf1 Pt1 2.747230 1_565
Hf1 Pt0 2.974980 1_555
Hf2 Pt1 2.765591 1_455
Hf2 Pt1 2.765591 1_565
Hf2 Pt0 3.085212 1_554
Hf3 N0 2.263858 1_555
Hf3 N0 2.263858 1_665
Hf3 Pt0 2.747230 1_655
Hf3 Pt0 2.747230 1_545
Hf3 Pt1 2.974980 1_555
Hf4 N0 2.287519 1_655
Hf4 Pt0 2.764710 1_545
Hf4 Pt0 2.764711 1_655
Hf5 N0 2.287519 1_565
Hf5 Pt1 2.764710 1_565
Hf5 Pt1 2.764711 1_455
C0 Hf0 2.278746 1_554
C0 Hf2 2.278746 1_445
C0 Hf2 2.278747 1_555
C0 Hf0 2.278747 1_444
C0 Hf5 2.286068 1_545
C0 Hf4 2.286068 1_454
