# generated using pymatgen
data_Cs2TaCuSe4
_symmetry_space_group_name_H-M   'P 1'
_cell_length_a   14.93428494
_cell_length_b   13.29597504
_cell_length_c   7.93706026
_cell_angle_alpha   85.44899809
_cell_angle_beta   62.55973087
_cell_angle_gamma   31.99126765
_symmetry_Int_Tables_number   1
_chemical_formula_structural   Cs2TaCuSe4
_chemical_formula_sum   'Cs4 Ta2 Cu2 Se8'
_cell_volume   555.08093334
_cell_formula_units_Z   2
loop_
 _symmetry_equiv_pos_site_id
 _symmetry_equiv_pos_as_xyz
  1  'x, y, z'
loop_
 _atom_site_type_symbol
 _atom_site_label
 _atom_site_symmetry_multiplicity
 _atom_site_fract_x
 _atom_site_fract_y
 _atom_site_fract_z
 _atom_site_occupancy
  Cs  Cs0  1  0.82226700  0.82226700  0.17773300  1
  Cs  Cs1  1  0.17773300  0.17773300  0.82226700  1
  Cs  Cs2  1  0.42773300  0.42773300  0.07226700  1
  Cs  Cs3  1  0.07226700  0.07226700  0.42773300  1
  Ta  Ta0  1  0.00000000  0.00000000  0.00000000  1
  Ta  Ta1  1  0.25000000  0.25000000  0.25000000  1
  Cu  Cu0  1  0.50000000  0.50000000  0.50000000  1
  Cu  Cu1  1  0.75000000  0.75000000  0.75000000  1
  Se  Se0  1  0.53524862  0.85875633  0.15207371  1
  Se  Se1  1  0.45392134  0.15207371  0.85875633  1
  Se  Se2  1  0.79607866  0.09792629  0.39124367  1
  Se  Se3  1  0.71475138  0.39124367  0.09792629  1
  Se  Se4  1  0.39124367  0.71475138  0.79607866  1
  Se  Se5  1  0.09792629  0.79607866  0.71475138  1
  Se  Se6  1  0.15207371  0.45392134  0.53524862  1
  Se  Se7  1  0.85875633  0.53524862  0.45392134  1
loop_
_geom_bond_atom_site_label_1
_geom_bond_atom_site_label_2
_geom_bond_distance
_geom_bond_site_symmetry_2
Cs0 Se1 3.712631 1_654
Cs0 Se6 3.712631 1_565
Cs0 Se6 3.761167 1_654
Cs0 Se1 3.761167 1_565
Cs0 Se2 3.794928 1_565
Cs0 Se5 3.794928 1_654
Cs0 Se7 3.988929 1_555
Cs0 Se0 3.988929 1_555
Cs1 Se7 3.712632 1_456
Cs1 Se0 3.712632 1_545
Cs1 Se0 3.761166 1_456
Cs1 Se7 3.761166 1_545
Cs1 Se4 3.794928 1_545
Cs1 Se3 3.794928 1_456
Cs1 Se6 3.988929 1_555
Cs1 Se1 3.988929 1_555
Cs2 Se2 3.712631 1_465
Cs2 Se5 3.712631 1_644
Cs2 Se5 3.761167 1_555
Cs2 Se2 3.761167 1_554
Cs2 Se1 3.794928 1_554
Cs2 Se6 3.794928 1_555
Cs2 Se4 3.988929 1_554
Cs2 Se3 3.988929 1_555
Cs3 Se4 3.712632 1_544
Cs3 Se3 3.712632 1_456
Cs3 Se3 3.761166 1_545
Cs3 Se4 3.761166 1_455
Cs3 Se7 3.794928 1_455
Cs3 Se0 3.794928 1_545
Cs3 Se5 3.988929 1_545
Cs3 Se2 3.988929 1_455
Cu0 Se2 2.448230 1_555
Cu0 Se5 2.448230 1_555
Cu0 Se4 2.448231 1_555
Cu0 Se3 2.448231 1_555
Cu1 Se1 2.448230 1_565
Cu1 Se6 2.448230 1_655
Cu1 Se7 2.448231 1_555
Cu1 Se0 2.448231 1_556
Se0 Ta1 2.410905 1_565
Se1 Ta1 2.410905 1_556
Se2 Ta0 2.410905 1_655
Se3 Ta0 2.410905 1_655
Se4 Ta0 2.410905 1_566
Se5 Ta0 2.410905 1_566
Se6 Ta1 2.410905 1_555
Se7 Ta1 2.410905 1_655
