# generated using pymatgen
data_LiY19(Cd3Ni)2
_symmetry_space_group_name_H-M   'P 1'
_cell_length_a   9.61642922
_cell_length_b   9.61642897
_cell_length_c   9.67564250
_cell_angle_alpha   90.00000000
_cell_angle_beta   90.00000000
_cell_angle_gamma   119.99999398
_symmetry_Int_Tables_number   1
_chemical_formula_structural   LiY19(Cd3Ni)2
_chemical_formula_sum   'Li1 Y19 Cd6 Ni2'
_cell_volume   774.88657959
_cell_formula_units_Z   1
loop_
 _symmetry_equiv_pos_site_id
 _symmetry_equiv_pos_as_xyz
  1  'x, y, z'
loop_
 _atom_site_type_symbol
 _atom_site_label
 _atom_site_symmetry_multiplicity
 _atom_site_fract_x
 _atom_site_fract_y
 _atom_site_fract_z
 _atom_site_occupancy
  Li  Li0  1  0.00000000  0.00000000  0.50000000  1
  Y  Y0  1  0.00000000  0.00000000  0.00000000  1
  Y  Y1  1  0.54415538  0.45584462  0.25364753  1
  Y  Y2  1  0.54415538  0.08830977  0.25364753  1
  Y  Y3  1  0.91169023  0.45584462  0.25364753  1
  Y  Y4  1  0.45584462  0.54415538  0.74635247  1
  Y  Y5  1  0.45584462  0.91169023  0.74635247  1
  Y  Y6  1  0.08830977  0.54415538  0.74635247  1
  Y  Y7  1  0.20658265  0.79341735  0.43239137  1
  Y  Y8  1  0.20658265  0.41316730  0.43239137  1
  Y  Y9  1  0.58683270  0.79341735  0.43239137  1
  Y  Y10  1  0.79341735  0.20658265  0.56760863  1
  Y  Y11  1  0.79341735  0.58683270  0.56760863  1
  Y  Y12  1  0.41316730  0.20658265  0.56760863  1
  Y  Y13  1  0.78923392  0.21076608  0.93742581  1
  Y  Y14  1  0.78923392  0.57846683  0.93742581  1
  Y  Y15  1  0.42153317  0.21076608  0.93742581  1
  Y  Y16  1  0.21076608  0.78923392  0.06257419  1
  Y  Y17  1  0.21076608  0.42153317  0.06257419  1
  Y  Y18  1  0.57846683  0.78923392  0.06257419  1
  Cd  Cd0  1  0.88860432  0.11139568  0.25863668  1
  Cd  Cd1  1  0.88860432  0.77720864  0.25863668  1
  Cd  Cd2  1  0.22279136  0.11139568  0.25863668  1
  Cd  Cd3  1  0.11139568  0.88860432  0.74136332  1
  Cd  Cd4  1  0.11139568  0.22279136  0.74136332  1
  Cd  Cd5  1  0.77720864  0.88860432  0.74136332  1
  Ni  Ni0  1  0.33333300  0.66666700  0.25059066  1
  Ni  Ni1  1  0.66666700  0.33333300  0.74940934  1
loop_
_geom_bond_atom_site_label_1
_geom_bond_atom_site_label_2
_geom_bond_distance
_geom_bond_site_symmetry_2
Y1 Y9 3.516433 1_555
Y1 Y8 3.516433 1_555
Y1 Y2 3.534373 1_555
Y1 Y3 3.534373 1_555
Y1 Y18 3.570359 1_555
Y1 Y17 3.570359 1_555
Y1 Y15 3.677942 1_554
Y1 Y14 3.677942 1_554
Y1 Y12 3.679818 1_555
Y1 Y11 3.679818 1_555
Y2 Y9 3.516408 1_545
Y2 Y7 3.516423 1_545
Y2 Y3 3.534373 1_555
Y3 Y8 3.516408 1_655
Y3 Y7 3.516423 1_655
Y4 Y5 3.534373 1_555
Y4 Y6 3.534373 1_555
Y4 Y9 3.679818 1_555
Y4 Y8 3.679818 1_555
Y5 Y6 3.534373 1_555
Y5 Y9 3.679813 1_555
Y5 Y7 3.679818 1_555
Y6 Y8 3.679813 1_555
Y6 Y7 3.679818 1_555
Y10 Y6 3.516423 1_655
Y10 Y5 3.516423 1_545
Y10 Y3 3.679818 1_555
Y10 Y2 3.679818 1_555
Y11 Y6 3.516408 1_655
Y11 Y4 3.516433 1_555
Y11 Y3 3.679813 1_555
Y12 Y5 3.516408 1_545
Y12 Y4 3.516433 1_555
Y12 Y2 3.679813 1_555
Y13 Y6 3.570353 1_655
Y13 Y5 3.570353 1_545
Y13 Y3 3.677942 1_556
Y13 Y2 3.677942 1_556
Y14 Y6 3.570343 1_655
Y14 Y4 3.570359 1_555
Y14 Y3 3.677942 1_556
Y15 Y5 3.570343 1_545
Y15 Y4 3.570359 1_555
Y15 Y2 3.677942 1_556
Y16 Y3 3.570353 1_455
Y16 Y2 3.570353 1_565
Y16 Y6 3.677942 1_554
Y16 Y5 3.677942 1_554
Y17 Y3 3.570343 1_455
Y17 Y6 3.677942 1_554
Y17 Y4 3.677942 1_554
Y18 Y2 3.570343 1_565
Y18 Y5 3.677942 1_554
Y18 Y4 3.677942 1_554
Cd0 Li0 2.982688 1_655
Cd0 Y0 3.115281 1_655
Cd0 Y3 3.207498 1_555
Cd0 Y2 3.207498 1_555
Cd0 Cd1 3.213686 1_545
Cd0 Cd2 3.213686 1_655
Cd0 Y10 3.383898 1_555
Cd0 Y9 3.424086 1_545
Cd0 Y8 3.424086 1_655
Cd0 Y13 3.521168 1_554
Cd0 Y18 3.584935 1_545
Cd0 Y17 3.584935 1_655
Cd1 Li0 2.982688 1_665
Cd1 Y0 3.115282 1_665
Cd1 Y1 3.207503 1_555
Cd1 Y3 3.207508 1_555
Cd1 Cd2 3.213686 1_665
Cd1 Y11 3.383906 1_555
Cd1 Y7 3.424078 1_655
Cd1 Y9 3.424094 1_555
Cd1 Y14 3.521172 1_554
Cd1 Y16 3.584930 1_655
Cd1 Y18 3.584939 1_555
Cd2 Li0 2.982688 1_555
Cd2 Y0 3.115282 1_555
Cd2 Y1 3.207503 1_555
Cd2 Y2 3.207508 1_555
Cd2 Y12 3.383906 1_555
Cd2 Y7 3.424078 1_545
Cd2 Y8 3.424094 1_555
Cd2 Y15 3.521172 1_554
Cd2 Y16 3.584930 1_545
Cd2 Y17 3.584939 1_555
Cd3 Li0 2.982688 1_565
Cd3 Y0 3.115281 1_566
Cd3 Y6 3.207498 1_555
Cd3 Y5 3.207498 1_555
Cd3 Cd4 3.213686 1_565
Cd3 Cd5 3.213686 1_455
Cd3 Y7 3.383898 1_555
Cd3 Y12 3.424086 1_565
Cd3 Y11 3.424086 1_455
Cd3 Y16 3.521168 1_556
Cd3 Y15 3.584935 1_565
Cd3 Y14 3.584935 1_455
Cd4 Li0 2.982688 1_555
Cd4 Y0 3.115282 1_556
Cd4 Y4 3.207503 1_555
Cd4 Y6 3.207508 1_555
Cd4 Cd5 3.213686 1_445
Cd4 Y8 3.383906 1_555
Cd4 Y10 3.424078 1_455
Cd4 Y12 3.424094 1_555
Cd4 Y17 3.521172 1_556
Cd4 Y13 3.584930 1_455
Cd4 Y15 3.584939 1_555
Cd5 Li0 2.982688 1_665
Cd5 Y0 3.115282 1_666
Cd5 Y4 3.207503 1_555
Cd5 Y5 3.207508 1_555
Cd5 Y9 3.383906 1_555
Cd5 Y10 3.424078 1_565
Cd5 Y11 3.424094 1_555
Cd5 Y18 3.521172 1_556
Cd5 Y13 3.584930 1_565
Cd5 Y14 3.584939 1_555
Ni0 Y16 2.734430 1_555
Ni0 Y17 2.734430 1_555
Ni0 Y18 2.734430 1_555
Ni0 Y8 2.747950 1_555
Ni0 Y9 2.747950 1_555
Ni0 Y7 2.747956 1_555
Ni0 Y2 3.511596 1_565
Ni0 Y3 3.511596 1_455
Ni0 Y1 3.511612 1_555
Ni1 Y13 2.734430 1_555
Ni1 Y14 2.734430 1_555
Ni1 Y15 2.734430 1_555
Ni1 Y11 2.747950 1_555
Ni1 Y12 2.747950 1_555
Ni1 Y10 2.747956 1_555
Ni1 Y5 3.511596 1_545
Ni1 Y6 3.511596 1_655
Ni1 Y4 3.511612 1_555
