# generated using pymatgen
data_Sc16Hg7Rh
_symmetry_space_group_name_H-M   'P 1'
_cell_length_a   9.13045634
_cell_length_b   9.13045668
_cell_length_c   9.13045790
_cell_angle_alpha   59.94579822
_cell_angle_beta   59.94579909
_cell_angle_gamma   59.94579485
_symmetry_Int_Tables_number   1
_chemical_formula_structural   Sc16Hg7Rh
_chemical_formula_sum   'Sc16 Hg7 Rh1'
_cell_volume   537.56170950
_cell_formula_units_Z   1
loop_
 _symmetry_equiv_pos_site_id
 _symmetry_equiv_pos_as_xyz
  1  'x, y, z'
loop_
 _atom_site_type_symbol
 _atom_site_label
 _atom_site_symmetry_multiplicity
 _atom_site_fract_x
 _atom_site_fract_y
 _atom_site_fract_z
 _atom_site_occupancy
  Sc  Sc0  1  0.10685233  0.63695455  0.63695455  1
  Sc  Sc1  1  0.63695455  0.10685233  0.63695455  1
  Sc  Sc2  1  0.63695455  0.63695455  0.10685233  1
  Sc  Sc3  1  0.62269417  0.62269417  0.62269417  1
  Sc  Sc4  1  0.81579544  0.81579544  0.17168863  1
  Sc  Sc5  1  0.18711172  0.18711172  0.81364651  1
  Sc  Sc6  1  0.81579544  0.17168863  0.81579544  1
  Sc  Sc7  1  0.18711172  0.81364651  0.18711172  1
  Sc  Sc8  1  0.17168863  0.81579544  0.81579544  1
  Sc  Sc9  1  0.81364651  0.18711172  0.18711172  1
  Sc  Sc10  1  0.43802900  0.43802900  0.06468070  1
  Sc  Sc11  1  0.06479950  0.06479950  0.43883685  1
  Sc  Sc12  1  0.43802900  0.06468070  0.43802900  1
  Sc  Sc13  1  0.06479950  0.43883685  0.06479950  1
  Sc  Sc14  1  0.06468070  0.43802900  0.43802900  1
  Sc  Sc15  1  0.43883685  0.06479950  0.06479950  1
  Hg  Hg0  1  0.77985012  0.40425756  0.40425756  1
  Hg  Hg1  1  0.40425756  0.77985012  0.40425756  1
  Hg  Hg2  1  0.40425756  0.40425756  0.77985012  1
  Hg  Hg3  1  0.41004914  0.41004914  0.41004914  1
  Hg  Hg4  1  0.46558419  0.84121917  0.84121917  1
  Hg  Hg5  1  0.84121917  0.46558419  0.84121917  1
  Hg  Hg6  1  0.84121917  0.84121917  0.46558419  1
  Rh  Rh0  1  0.84978246  0.84978246  0.84978246  1
loop_
_geom_bond_atom_site_label_1
_geom_bond_atom_site_label_2
_geom_bond_distance
_geom_bond_site_symmetry_2
Hg0 Sc11 2.870637 1_655
Hg0 Sc13 2.870638 1_655
Hg0 Sc3 2.875009 1_555
Hg0 Sc1 2.929723 1_555
Hg0 Sc2 2.929723 1_555
Hg0 Sc14 2.941958 1_655
Hg0 Sc9 3.266291 1_555
Hg0 Sc4 3.358714 1_555
Hg0 Sc6 3.358715 1_555
Hg1 Sc11 2.870637 1_565
Hg1 Sc15 2.870638 1_565
Hg1 Sc3 2.875008 1_555
Hg1 Sc0 2.929723 1_555
Hg1 Sc2 2.929723 1_555
Hg1 Sc12 2.941958 1_565
Hg1 Sc7 3.266291 1_555
Hg1 Sc4 3.358714 1_555
Hg1 Sc8 3.358715 1_555
Hg2 Sc13 2.870638 1_556
Hg2 Sc15 2.870638 1_556
Hg2 Sc3 2.875008 1_555
Hg2 Sc0 2.929723 1_555
Hg2 Sc1 2.929723 1_555
Hg2 Sc10 2.941958 1_556
Hg2 Sc5 3.266291 1_555
Hg2 Sc6 3.358714 1_555
Hg2 Sc8 3.358714 1_555
Hg3 Sc14 2.919903 1_555
Hg3 Sc12 2.919903 1_555
Hg3 Sc10 2.919904 1_555
Hg3 Sc1 3.009610 1_555
Hg3 Sc0 3.009610 1_555
Hg3 Sc2 3.009610 1_555
Hg3 Sc7 3.315083 1_555
Hg3 Sc9 3.315083 1_555
Hg3 Sc5 3.315083 1_555
Hg4 Sc1 2.855928 1_565
Hg4 Sc2 2.855928 1_556
Hg4 Sc3 2.876368 1_555
Hg4 Sc5 2.881632 1_565
Hg4 Sc7 2.881632 1_556
Hg4 Sc8 2.934317 1_555
Hg4 Sc10 3.266256 1_556
Hg4 Sc12 3.266256 1_565
Hg4 Sc15 3.401409 1_566
Hg5 Sc0 2.855928 1_655
Hg5 Sc2 2.855928 1_556
Hg5 Sc3 2.876368 1_555
Hg5 Sc5 2.881632 1_655
Hg5 Sc9 2.881632 1_556
Hg5 Sc6 2.934318 1_555
Hg5 Sc10 3.266256 1_556
Hg5 Sc14 3.266257 1_655
Hg5 Sc13 3.401409 1_656
Hg6 Sc0 2.855928 1_655
Hg6 Sc1 2.855928 1_565
Hg6 Sc3 2.876368 1_555
Hg6 Sc7 2.881632 1_655
Hg6 Sc9 2.881632 1_565
Hg6 Sc4 2.934318 1_555
Hg6 Sc12 3.266256 1_565
Hg6 Sc14 3.266256 1_655
Hg6 Sc11 3.401409 1_665
Rh0 Sc8 2.664681 1_655
Rh0 Sc6 2.664681 1_565
Rh0 Sc4 2.664682 1_556
Rh0 Sc1 2.776076 1_565
Rh0 Sc0 2.776076 1_655
Rh0 Sc2 2.776076 1_556
