# generated using pymatgen
data_Cs4Al3GaI16
_symmetry_space_group_name_H-M   'P 1'
_cell_length_a   18.77794953
_cell_length_b   7.44717809
_cell_length_c   8.55144790
_cell_angle_alpha   72.00553305
_cell_angle_beta   90.01245803
_cell_angle_gamma   90.09161797
_symmetry_Int_Tables_number   1
_chemical_formula_structural   Cs4Al3GaI16
_chemical_formula_sum   'Cs4 Al3 Ga1 I16'
_cell_volume   1137.36258622
_cell_formula_units_Z   1
loop_
 _symmetry_equiv_pos_site_id
 _symmetry_equiv_pos_as_xyz
  1  'x, y, z'
loop_
 _atom_site_type_symbol
 _atom_site_label
 _atom_site_symmetry_multiplicity
 _atom_site_fract_x
 _atom_site_fract_y
 _atom_site_fract_z
 _atom_site_occupancy
  Cs  Cs0  1  0.87040415  0.17989452  0.70292711  1
  Cs  Cs1  1  0.62994090  0.18032522  0.20310361  1
  Cs  Cs2  1  0.37048261  0.81774056  0.79943798  1
  Cs  Cs3  1  0.13000056  0.82219692  0.29870509  1
  Al  Al0  1  0.87196460  0.80478925  0.29788293  1
  Al  Al1  1  0.37133645  0.19194366  0.20179442  1
  Al  Al2  1  0.62855345  0.80450747  0.79785187  1
  Ga  Ga0  1  0.12767192  0.19761894  0.70256975  1
  I  I0  1  0.24346872  0.38602920  0.63742782  1
  I  I1  1  0.05436199  0.27325916  0.43507455  1
  I  I2  1  0.75594478  0.62208504  0.35795707  1
  I  I3  1  0.55614926  0.72905881  0.06423680  1
  I  I4  1  0.65688883  0.15854964  0.70237847  1
  I  I5  1  0.84470039  0.15922191  0.20308626  1
  I  I6  1  0.44402406  0.27095672  0.93573712  1
  I  I7  1  0.25502408  0.37213530  0.14179188  1
  I  I8  1  0.74428085  0.62157290  0.85782229  1
  I  I9  1  0.94404397  0.72901990  0.56452364  1
  I  I10  1  0.44436129  0.27293394  0.42171658  1
  I  I11  1  0.94559056  0.72508198  0.07830226  1
  I  I12  1  0.34519891  0.83693702  0.29505525  1
  I  I13  1  0.15720824  0.84184778  0.79776911  1
  I  I14  1  0.55445861  0.72575744  0.57848766  1
  I  I15  1  0.05393883  0.27653671  0.92435548  1
loop_
_geom_bond_atom_site_label_1
_geom_bond_atom_site_label_2
_geom_bond_distance
_geom_bond_site_symmetry_2
Cs0 I4 4.012335 1_555
Cs0 I1 4.083414 1_655
Cs0 I15 4.100292 1_655
Cs0 I9 4.126574 1_555
Cs0 I9 4.130171 1_545
Cs0 I11 4.131030 1_546
Cs0 I5 4.259571 1_556
Cs0 I2 4.264279 1_555
Cs0 I5 4.351125 1_555
Cs1 I5 4.036057 1_555
Cs1 I10 4.113576 1_555
Cs1 I6 4.113599 1_554
Cs1 I14 4.128685 1_545
Cs1 I3 4.129037 1_555
Cs1 I3 4.132118 1_545
Cs1 I4 4.252379 1_555
Cs1 I8 4.255780 1_554
Cs1 I4 4.364341 1_554
Cs2 I13 4.008989 1_555
Cs2 I14 4.096857 1_555
Cs2 I3 4.098650 1_556
Cs2 I6 4.114803 1_555
Cs2 I10 4.131712 1_565
Cs2 I6 4.131877 1_565
Cs2 I7 4.273302 1_556
Cs2 I12 4.297432 1_555
Cs2 I12 4.310919 1_556
Cs3 I12 4.042164 1_555
Cs3 I9 4.106462 1_455
Cs3 I11 4.110721 1_455
Cs3 I15 4.130071 1_564
Cs3 I1 4.134898 1_565
Cs3 I1 4.138358 1_555
Cs3 I0 4.205616 1_555
Cs3 I13 4.271551 1_554
Cs3 I13 4.345177 1_555
Al0 I2 2.533915 1_555
Al0 I11 2.545993 1_555
Al0 I9 2.560406 1_555
Al0 I5 2.562899 1_565
Al1 I7 2.533342 1_555
Al1 I10 2.545203 1_555
Al1 I6 2.560724 1_554
Al1 I12 2.561229 1_545
Al2 I8 2.533529 1_555
Al2 I14 2.544544 1_555
Al2 I3 2.561541 1_556
Al2 I4 2.562639 1_565
Ga0 I0 2.552459 1_555
Ga0 I15 2.559666 1_555
Ga0 I1 2.578735 1_555
Ga0 I13 2.581087 1_545
