# generated using pymatgen
data_Ba3GaHO4
_symmetry_space_group_name_H-M   'P 1'
_cell_length_a   7.31675847
_cell_length_b   8.30308198
_cell_length_c   10.60704545
_cell_angle_alpha   90.00000000
_cell_angle_beta   90.00000000
_cell_angle_gamma   90.00000000
_symmetry_Int_Tables_number   1
_chemical_formula_structural   Ba3GaHO4
_chemical_formula_sum   'Ba12 Ga4 H4 O16'
_cell_volume   644.39546368
_cell_formula_units_Z   4
loop_
 _symmetry_equiv_pos_site_id
 _symmetry_equiv_pos_as_xyz
  1  'x, y, z'
loop_
 _atom_site_type_symbol
 _atom_site_label
 _atom_site_symmetry_multiplicity
 _atom_site_fract_x
 _atom_site_fract_y
 _atom_site_fract_z
 _atom_site_occupancy
  Ba  Ba0  1  0.40171692  0.02448037  0.83510954  1
  Ba  Ba1  1  0.09828308  0.47551963  0.33510954  1
  Ba  Ba2  1  0.59828308  0.52448037  0.16489046  1
  Ba  Ba3  1  0.90171692  0.97551963  0.66489046  1
  Ba  Ba4  1  0.59828308  0.97551963  0.16489046  1
  Ba  Ba5  1  0.90171692  0.52448037  0.66489046  1
  Ba  Ba6  1  0.40171692  0.47551963  0.83510954  1
  Ba  Ba7  1  0.09828308  0.02448037  0.33510954  1
  Ba  Ba8  1  0.90199154  0.25000000  0.96560102  1
  Ba  Ba9  1  0.59800846  0.25000000  0.46560102  1
  Ba  Ba10  1  0.09800846  0.75000000  0.03439898  1
  Ba  Ba11  1  0.40199154  0.75000000  0.53439898  1
  Ga  Ga0  1  0.19293348  0.25000000  0.60463365  1
  Ga  Ga1  1  0.30706652  0.25000000  0.10463365  1
  Ga  Ga2  1  0.80706652  0.75000000  0.39536635  1
  Ga  Ga3  1  0.69293348  0.75000000  0.89536635  1
  H  H0  1  0.65937144  0.25000000  0.72867611  1
  H  H1  1  0.84062856  0.25000000  0.22867611  1
  H  H2  1  0.34062856  0.75000000  0.27132389  1
  H  H3  1  0.15937144  0.75000000  0.77132389  1
  O  O0  1  0.30752950  0.05664286  0.57408541  1
  O  O1  1  0.19247050  0.44335714  0.07408541  1
  O  O2  1  0.69247050  0.55664286  0.42591459  1
  O  O3  1  0.80752950  0.94335714  0.92591459  1
  O  O4  1  0.69247050  0.94335714  0.42591459  1
  O  O5  1  0.80752950  0.55664286  0.92591459  1
  O  O6  1  0.30752950  0.44335714  0.57408541  1
  O  O7  1  0.19247050  0.05664286  0.07408541  1
  O  O8  1  0.97662270  0.25000000  0.51019219  1
  O  O9  1  0.52337730  0.25000000  0.01019219  1
  O  O10  1  0.02337730  0.75000000  0.48980781  1
  O  O11  1  0.47662270  0.75000000  0.98980781  1
  O  O12  1  0.13142144  0.25000000  0.77598656  1
  O  O13  1  0.36857856  0.25000000  0.27598656  1
  O  O14  1  0.86857856  0.75000000  0.22401344  1
  O  O15  1  0.63142144  0.75000000  0.72401344  1
loop_
_geom_bond_atom_site_label_1
_geom_bond_atom_site_label_2
_geom_bond_distance
_geom_bond_site_symmetry_2
Ba0 O9 2.783438 1_556
Ba0 O12 2.794783 1_555
Ba0 O11 2.861275 1_545
Ba0 O0 2.865643 1_555
Ba0 H0 2.886999 1_555
Ba0 H3 2.965793 1_545
Ba0 O7 2.973322 1_556
Ba0 O15 3.067140 1_545
Ba0 O3 3.193391 1_545
Ba1 O8 2.783438 1_455
Ba1 O13 2.794783 1_555
Ba1 O10 2.861275 1_555
Ba1 O1 2.865643 1_555
Ba1 H1 2.886999 1_455
Ba1 H2 2.965793 1_555
Ba1 O6 2.973322 1_555
Ba1 O14 3.067140 1_455
Ba1 O2 3.193391 1_455
Ba2 O11 2.783438 1_554
Ba2 O14 2.794783 1_555
Ba2 O9 2.861275 1_555
Ba2 O2 2.865643 1_555
Ba2 H2 2.886999 1_555
Ba2 H1 2.965793 1_555
Ba2 O5 2.973322 1_554
Ba2 O13 3.067140 1_555
Ba2 O1 3.193391 1_555
Ba3 O10 2.783438 1_655
Ba3 O15 2.794783 1_555
Ba3 O8 2.861275 1_565
Ba3 O3 2.865643 1_555
Ba3 H3 2.886999 1_655
Ba3 H0 2.965793 1_565
Ba3 O4 2.973322 1_555
Ba3 O12 3.067140 1_665
Ba3 O0 3.193391 1_665
Ba4 O11 2.783438 1_554
Ba4 O14 2.794783 1_555
Ba4 O9 2.861275 1_565
Ba4 O4 2.865643 1_555
Ba4 H2 2.886999 1_555
Ba4 H1 2.965793 1_565
Ba4 O3 2.973322 1_554
Ba4 O13 3.067140 1_565
Ba4 O7 3.193391 1_565
Ba5 O10 2.783438 1_655
Ba5 O15 2.794783 1_555
Ba5 O8 2.861275 1_555
Ba5 O5 2.865643 1_555
Ba5 H3 2.886999 1_655
Ba5 H0 2.965793 1_555
Ba5 O2 2.973322 1_555
Ba5 O12 3.067140 1_655
Ba5 O6 3.193391 1_655
Ba6 O9 2.783438 1_556
Ba6 O12 2.794783 1_555
Ba6 O11 2.861275 1_555
Ba6 O6 2.865643 1_555
Ba6 H0 2.886999 1_555
Ba6 H3 2.965793 1_555
Ba6 O1 2.973322 1_556
Ba6 O15 3.067140 1_555
Ba6 O5 3.193391 1_555
Ba7 O8 2.783438 1_455
Ba7 O13 2.794783 1_555
Ba7 O10 2.861275 1_545
Ba7 O7 2.865643 1_555
Ba7 H1 2.886999 1_455
Ba7 H2 2.965793 1_545
Ba7 O0 2.973322 1_555
Ba7 O14 3.067140 1_445
Ba7 O4 3.193391 1_445
Ba8 O12 2.619752 1_655
Ba8 O5 2.671596 1_555
Ba8 O3 2.671596 1_545
Ba8 O9 2.810317 1_556
Ba8 H1 2.826339 1_556
Ba8 O1 2.901514 1_656
Ba8 O7 2.901514 1_656
Ba8 H0 3.076824 1_555
Ba9 O13 2.619752 1_555
Ba9 O2 2.671596 1_555
Ba9 O4 2.671596 1_545
Ba9 O8 2.810317 1_555
Ba9 H0 2.826339 1_555
Ba9 O6 2.901514 1_555
Ba9 O0 2.901514 1_555
Ba9 H1 3.076824 1_555
Ba10 O14 2.619752 1_455
Ba10 O7 2.671596 1_565
Ba10 O1 2.671596 1_555
Ba10 O11 2.810317 1_554
Ba10 H3 2.826339 1_554
Ba10 O3 2.901514 1_454
Ba10 O5 2.901514 1_454
Ba10 H2 3.076824 1_555
Ba11 O15 2.619752 1_555
Ba11 O0 2.671596 1_565
Ba11 O6 2.671596 1_555
Ba11 O10 2.810317 1_555
Ba11 H2 2.826339 1_555
Ba11 O4 2.901514 1_555
Ba11 O2 2.901514 1_555
Ba11 H3 3.076824 1_555
Ga0 O6 1.839981 1_555
Ga0 O0 1.839981 1_555
Ga0 O12 1.872443 1_555
Ga0 O8 1.873076 1_455
Ga1 O1 1.839981 1_555
Ga1 O7 1.839981 1_555
Ga1 O13 1.872443 1_555
Ga1 O9 1.873076 1_555
Ga2 O4 1.839981 1_555
Ga2 O2 1.839981 1_555
Ga2 O14 1.872443 1_555
Ga2 O10 1.873076 1_655
Ga3 O3 1.839981 1_555
Ga3 O5 1.839981 1_555
Ga3 O15 1.872443 1_555
Ga3 O11 1.873076 1_555
