# generated using pymatgen
data_Li4MnSi2Se7
_symmetry_space_group_name_H-M   'P 1'
_cell_length_a   9.46997932
_cell_length_b   9.46997861
_cell_length_c   10.62222684
_cell_angle_alpha   85.78848501
_cell_angle_beta   85.78848607
_cell_angle_gamma   43.13895233
_symmetry_Int_Tables_number   1
_chemical_formula_structural   Li4MnSi2Se7
_chemical_formula_sum   'Li8 Mn2 Si4 Se14'
_cell_volume   649.32970763
_cell_formula_units_Z   2
loop_
 _symmetry_equiv_pos_site_id
 _symmetry_equiv_pos_as_xyz
  1  'x, y, z'
loop_
 _atom_site_type_symbol
 _atom_site_label
 _atom_site_symmetry_multiplicity
 _atom_site_fract_x
 _atom_site_fract_y
 _atom_site_fract_z
 _atom_site_occupancy
  Li  Li0  1  0.56039592  0.27782357  0.29329209  1
  Li  Li1  1  0.27782357  0.56039592  0.79329209  1
  Li  Li2  1  0.02845131  0.67609478  0.13772303  1
  Li  Li3  1  0.67609478  0.02845131  0.63772303  1
  Li  Li4  1  0.97697128  0.30878511  0.22093950  1
  Li  Li5  1  0.30878511  0.97697128  0.72093950  1
  Li  Li6  1  0.89745589  0.52693352  0.85629833  1
  Li  Li7  1  0.52693352  0.89745589  0.35629833  1
  Mn  Mn0  1  0.81391937  0.17178922  0.94377324  1
  Mn  Mn1  1  0.17178922  0.81391937  0.44377324  1
  Si  Si0  1  0.45118683  0.11190469  0.01864782  1
  Si  Si1  1  0.11190469  0.45118683  0.51864782  1
  Si  Si2  1  0.39537978  0.74484075  0.08057052  1
  Si  Si3  1  0.74484075  0.39537978  0.58057052  1
  Se  Se0  1  0.50760006  0.84800449  0.93460018  1
  Se  Se1  1  0.84800449  0.50760006  0.43460018  1
  Se  Se2  1  0.67038514  0.40458003  0.12961902  1
  Se  Se3  1  0.40458003  0.67038514  0.62961902  1
  Se  Se4  1  0.27164032  0.92245869  0.26025432  1
  Se  Se5  1  0.92245869  0.27164032  0.76025432  1
  Se  Se6  1  0.15463758  0.79323346  0.98683199  1
  Se  Se7  1  0.79323346  0.15463758  0.48683199  1
  Se  Se8  1  0.64939952  0.98613451  0.18543102  1
  Se  Se9  1  0.98613451  0.64939952  0.68543102  1
  Se  Se10  1  0.11061376  0.38534620  0.04945161  1
  Se  Se11  1  0.38534620  0.11061376  0.54945161  1
  Se  Se12  1  0.57071741  0.17703281  0.85558933  1
  Se  Se13  1  0.17703281  0.57071741  0.35558933  1
loop_
_geom_bond_atom_site_label_1
_geom_bond_atom_site_label_2
_geom_bond_distance
_geom_bond_site_symmetry_2
Li0 Se13 2.555853 1_555
Li0 Se8 2.564866 1_545
Li0 Se2 2.607809 1_555
Li0 Se7 2.647414 1_555
Li1 Se12 2.555853 1_555
Li1 Se9 2.564867 1_455
Li1 Se3 2.607809 1_555
Li1 Se6 2.647414 1_555
Li2 Se10 2.492227 1_555
Li2 Se8 2.516527 1_455
Li2 Se13 2.534007 1_555
Li2 Se6 2.572858 1_554
Li3 Se11 2.492228 1_555
Li3 Se9 2.516527 1_545
Li3 Se12 2.534007 1_555
Li3 Se7 2.572858 1_555
Li4 Se10 2.500420 1_655
Li4 Se4 2.528567 1_645
Li4 Se2 2.575656 1_555
Li4 Se1 2.655558 1_555
Li5 Se11 2.500420 1_565
Li5 Se5 2.528568 1_465
Li5 Se3 2.575656 1_555
Li5 Se0 2.655558 1_555
Li6 Se9 2.496554 1_555
Li6 Se10 2.517214 1_656
Li6 Se5 2.536364 1_555
Li6 Se0 2.665530 1_555
Li7 Se8 2.496554 1_555
Li7 Se11 2.517214 1_565
Li7 Se4 2.536365 1_555
Li7 Se1 2.665530 1_555
Mn0 Se12 2.515427 1_555
Mn0 Se2 2.544905 1_556
Mn0 Se6 2.562563 1_645
Mn0 Se5 2.569849 1_555
Mn1 Se13 2.515427 1_555
Mn1 Se3 2.544905 1_555
Mn1 Se7 2.562563 1_465
Mn1 Se4 2.569849 1_555
Se0 Si2 2.353435 1_556
Se0 Si0 2.374297 1_566
Se1 Si3 2.353435 1_555
Se1 Si1 2.374297 1_655
Se2 Si2 2.267740 1_555
Se3 Si3 2.267740 1_555
Se4 Si2 2.260936 1_555
Se5 Si3 2.260936 1_555
Se6 Si2 2.267308 1_556
Se7 Si3 2.267308 1_555
Se8 Si0 2.235253 1_565
Se9 Si1 2.235253 1_655
Se10 Si0 2.235088 1_555
Se11 Si1 2.235087 1_555
Se12 Si0 2.288163 1_556
Se13 Si1 2.288163 1_555
