# generated using pymatgen
data_Ba2VWO6
_symmetry_space_group_name_H-M   'P 1'
_cell_length_a   5.74892424
_cell_length_b   5.74898064
_cell_length_c   9.95745917
_cell_angle_alpha   73.22409154
_cell_angle_beta   89.99822445
_cell_angle_gamma   120.00352096
_symmetry_Int_Tables_number   1
_chemical_formula_structural   Ba2VWO6
_chemical_formula_sum   'Ba4 V2 W2 O12'
_cell_volume   268.70064931
_cell_formula_units_Z   2
loop_
 _symmetry_equiv_pos_site_id
 _symmetry_equiv_pos_as_xyz
  1  'x, y, z'
loop_
 _atom_site_type_symbol
 _atom_site_label
 _atom_site_symmetry_multiplicity
 _atom_site_fract_x
 _atom_site_fract_y
 _atom_site_fract_z
 _atom_site_occupancy
  Ba  Ba0  1  0.62498741  0.24983882  0.12504088  1
  Ba  Ba1  1  0.12502641  0.25024950  0.62492980  1
  Ba  Ba2  1  0.87481352  0.75018883  0.37496062  1
  Ba  Ba3  1  0.37519579  0.74993121  0.87501428  1
  V  V0  1  0.75003898  0.50000485  0.75000001  1
  V  V1  1  0.24995992  0.49999462  0.25000003  1
  W  W0  1  0.00006981  0.99976847  0.99998809  1
  W  W1  1  0.49993434  0.00021531  0.50001579  1
  O  O0  1  0.11972305  0.23969375  0.12002453  1
  O  O1  1  0.61963521  0.24017839  0.61999618  1
  O  O2  1  0.38013444  0.24018622  0.37991900  1
  O  O3  1  0.88015328  0.23970969  0.87985000  1
  O  O4  1  0.63992020  0.75974633  0.11983055  1
  O  O5  1  0.13978408  0.76017000  0.61983244  1
  O  O6  1  0.38026740  0.76033707  0.37994783  1
  O  O7  1  0.88044034  0.75982543  0.88000209  1
  O  O8  1  0.11989687  0.75986849  0.12009105  1
  O  O9  1  0.61971393  0.76013630  0.62019335  1
  O  O10  1  0.86011389  0.24013625  0.38022272  1
  O  O11  1  0.36018914  0.23981745  0.88014175  1
loop_
_geom_bond_atom_site_label_1
_geom_bond_atom_site_label_2
_geom_bond_distance
_geom_bond_site_symmetry_2
Ba0 O6 2.873702 1_545
Ba0 O11 2.874193 1_554
Ba0 O0 2.874532 1_655
Ba0 O4 2.874713 1_555
Ba0 O2 2.875069 1_555
Ba0 O8 2.875450 1_655
Ba0 O8 2.875512 1_545
Ba0 O7 2.875802 1_554
Ba0 O4 2.876601 1_545
Ba0 O0 2.876733 1_555
Ba0 O10 2.877597 1_555
Ba0 O3 2.878084 1_554
Ba1 O10 2.872902 1_455
Ba1 O3 2.873046 1_455
Ba1 O1 2.873563 1_555
Ba1 O9 2.875001 1_555
Ba1 O5 2.875582 1_555
Ba1 O5 2.875666 1_545
Ba1 O6 2.875789 1_555
Ba1 O9 2.875933 1_445
Ba1 O2 2.876183 1_555
Ba1 O7 2.877236 1_445
Ba1 O1 2.877646 1_455
Ba1 O11 2.877961 1_555
Ba2 O6 2.873445 1_555
Ba2 O0 2.873885 1_665
Ba2 O5 2.874476 1_655
Ba2 O2 2.874711 1_555
Ba2 O10 2.875227 1_565
Ba2 O8 2.875556 1_655
Ba2 O1 2.875854 1_555
Ba2 O10 2.876048 1_555
Ba2 O2 2.876301 1_665
Ba2 O4 2.876503 1_555
Ba2 O9 2.877699 1_555
Ba2 O6 2.877806 1_655
Ba3 O9 2.872122 1_555
Ba3 O4 2.873268 1_556
Ba3 O7 2.873889 1_455
Ba3 O3 2.874245 1_565
Ba3 O11 2.875389 1_565
Ba3 O11 2.875922 1_555
Ba3 O0 2.876394 1_556
Ba3 O1 2.876425 1_565
Ba3 O3 2.876706 1_455
Ba3 O8 2.876938 1_556
Ba3 O7 2.877304 1_555
Ba3 O5 2.878384 1_555
O0 W0 1.951204 1_544
O0 V1 2.114835 1_555
O1 W1 1.950902 1_555
O1 V0 2.113139 1_555
O2 W1 1.950801 1_555
O2 V1 2.113551 1_555
O3 W0 1.951322 1_645
O3 V0 2.115006 1_555
O4 W0 1.951141 1_654
O4 V1 2.114299 1_555
O5 W1 1.951039 1_565
O5 V0 2.113417 1_455
O6 W1 1.951269 1_565
O6 V1 2.114780 1_555
O7 W0 1.950866 1_655
O7 V0 2.113101 1_555
O8 W0 1.950648 1_554
O8 V1 2.113324 1_555
O9 W1 1.951486 1_565
O9 V0 2.115022 1_555
O10 W1 1.951063 1_555
O10 V1 2.114051 1_655
O11 W0 1.951034 1_545
O11 V0 2.113737 1_555
