# generated using pymatgen
data_Li11(NiO2)12
_symmetry_space_group_name_H-M   'P 1'
_cell_length_a   7.64183258
_cell_length_b   7.64183258
_cell_length_c   9.75054535
_cell_angle_alpha   58.90321132
_cell_angle_beta   58.90321132
_cell_angle_gamma   69.75806331
_symmetry_Int_Tables_number   1
_chemical_formula_structural   Li11(NiO2)12
_chemical_formula_sum   'Li11 Ni12 O24'
_cell_volume   415.07031712
_cell_formula_units_Z   1
loop_
 _symmetry_equiv_pos_site_id
 _symmetry_equiv_pos_as_xyz
  1  'x, y, z'
loop_
 _atom_site_type_symbol
 _atom_site_label
 _atom_site_symmetry_multiplicity
 _atom_site_fract_x
 _atom_site_fract_y
 _atom_site_fract_z
 _atom_site_occupancy
  Li  Li0  1  0.74918200  0.74918200  0.74972100  1
  Li  Li1  1  0.91850500  0.59212000  0.24610800  1
  Li  Li2  1  0.50000000  0.50000000  0.50000000  1
  Li  Li3  1  0.67426800  0.32573200  0.00000000  1
  Li  Li4  1  0.25081800  0.25081800  0.25027900  1
  Li  Li5  1  0.83045600  0.16954400  0.50000000  1
  Li  Li6  1  0.40788000  0.08149500  0.75389200  1
  Li  Li7  1  0.59212000  0.91850500  0.24610800  1
  Li  Li8  1  0.16954400  0.83045600  0.50000000  1
  Li  Li9  1  0.32573200  0.67426800  0.00000000  1
  Li  Li10  1  0.08149500  0.40788000  0.75389200  1
  Ni  Ni0  1  0.87528700  0.87528700  0.37641100  1
  Ni  Ni1  1  0.62343600  0.62343600  0.12791300  1
  Ni  Ni2  1  0.78932800  0.45801400  0.62452700  1
  Ni  Ni3  1  0.37656400  0.37656400  0.87208700  1
  Ni  Ni4  1  0.95945600  0.29252800  0.12360100  1
  Ni  Ni5  1  0.54198600  0.21067200  0.37547300  1
  Ni  Ni6  1  0.12471300  0.12471300  0.62358900  1
  Ni  Ni7  1  0.70747200  0.04054400  0.87639900  1
  Ni  Ni8  1  0.29252800  0.95945600  0.12360100  1
  Ni  Ni9  1  0.45801400  0.78932800  0.62452700  1
  Ni  Ni10  1  0.04054400  0.70747200  0.87639900  1
  Ni  Ni11  1  0.21067200  0.54198600  0.37547300  1
  O  O0  1  0.93020200  0.93020200  0.70807600  1
  O  O1  1  0.68193600  0.68193600  0.45945400  1
  O  O2  1  0.86024500  0.52329100  0.94951300  1
  O  O3  1  0.44669100  0.44669100  0.19025100  1
  O  O4  1  0.97303500  0.63110300  0.56328100  1
  O  O5  1  0.60953300  0.27913200  0.69160300  1
  O  O6  1  0.20320400  0.20320400  0.93365000  1
  O  O7  1  0.72086800  0.39046700  0.30839700  1
  O  O8  1  0.76357100  0.12215900  0.20268000  1
  O  O9  1  0.36889700  0.02696500  0.43671900  1
  O  O10  1  0.87784100  0.23642900  0.79732000  1
  O  O11  1  0.47670900  0.13975500  0.05048700  1
  O  O12  1  0.52329100  0.86024500  0.94951300  1
  O  O13  1  0.12215900  0.76357100  0.20268000  1
  O  O14  1  0.63110300  0.97303500  0.56328100  1
  O  O15  1  0.23642900  0.87784100  0.79732000  1
  O  O16  1  0.27913200  0.60953300  0.69160300  1
  O  O17  1  0.79679600  0.79679600  0.06635000  1
  O  O18  1  0.39046700  0.72086800  0.30839700  1
  O  O19  1  0.02696500  0.36889700  0.43671900  1
  O  O20  1  0.55330900  0.55330900  0.80974900  1
  O  O21  1  0.13975500  0.47670900  0.05048700  1
  O  O22  1  0.31806400  0.31806400  0.54054600  1
  O  O23  1  0.06979800  0.06979800  0.29192400  1
loop_
_geom_bond_atom_site_label_1
_geom_bond_atom_site_label_2
_geom_bond_distance
_geom_bond_site_symmetry_2
Li0 O0 2.038562 1_555
Li0 O14 2.111702 1_555
Li0 O4 2.111702 1_555
Li0 O20 2.136341 1_555
Li0 O2 2.171544 1_555
Li0 O12 2.171544 1_555
Li1 O17 2.056454 1_555
Li1 O19 2.095003 1_655
Li1 O13 2.115444 1_655
Li1 O21 2.156220 1_655
Li1 O7 2.172728 1_555
Li1 O1 2.190495 1_555
Li2 O22 2.055315 1_555
Li2 O1 2.055315 1_555
Li2 O5 2.102429 1_555
Li2 O16 2.102429 1_555
Li2 O18 2.102429 1_555
Li2 O7 2.102429 1_555
Li3 O10 2.067393 1_554
Li3 O8 2.067393 1_555
Li3 O11 2.129718 1_555
Li3 O2 2.129718 1_554
Li3 O20 2.155575 1_554
Li3 O3 2.155575 1_555
Li4 O23 2.038562 1_555
Li4 O9 2.111702 1_555
Li4 O19 2.111702 1_555
Li4 O3 2.136341 1_555
Li4 O21 2.171544 1_555
Li4 O11 2.171544 1_555
Li5 O5 2.102759 1_555
Li5 O7 2.102759 1_555
Li5 O19 2.147445 1_655
Li5 O14 2.147445 1_545
Li5 O23 2.200490 1_655
Li5 O0 2.200490 1_545
Li6 O6 2.056454 1_555
Li6 O14 2.095003 1_545
Li6 O15 2.115444 1_545
Li6 O12 2.156220 1_545
Li6 O5 2.172728 1_555
Li6 O22 2.190495 1_555
Li7 O17 2.056454 1_555
Li7 O9 2.095003 1_565
Li7 O8 2.115444 1_565
Li7 O11 2.156220 1_565
Li7 O18 2.172728 1_555
Li7 O1 2.190495 1_555
Li8 O16 2.102759 1_555
Li8 O18 2.102759 1_555
Li8 O9 2.147445 1_565
Li8 O4 2.147445 1_455
Li8 O23 2.200490 1_565
Li8 O0 2.200490 1_455
Li9 O15 2.067393 1_554
Li9 O13 2.067393 1_555
Li9 O12 2.129718 1_554
Li9 O21 2.129718 1_555
Li9 O20 2.155575 1_554
Li9 O3 2.155575 1_555
Li10 O6 2.056454 1_555
Li10 O4 2.095003 1_455
Li10 O10 2.115444 1_455
Li10 O2 2.156220 1_455
Li10 O16 2.172728 1_555
Li10 O22 2.190495 1_555
Ni0 O1 2.015188 1_555
Ni0 O23 2.024017 1_665
Ni0 O8 2.058081 1_565
Ni0 O13 2.058081 1_655
Ni0 O4 2.071049 1_555
Ni0 O14 2.071049 1_555
Ni1 O17 1.855262 1_555
Ni1 O3 1.893216 1_555
Ni1 O7 2.005184 1_555
Ni1 O18 2.005184 1_555
Ni1 O12 2.012831 1_554
Ni1 O2 2.012831 1_554
Ni2 O10 1.897658 1_555
Ni2 O5 1.905798 1_555
Ni2 O4 1.918333 1_555
Ni2 O1 1.933899 1_555
Ni2 O19 2.027881 1_655
Ni2 O20 2.032234 1_555
Ni3 O6 1.855262 1_555
Ni3 O20 1.893216 1_555
Ni3 O16 2.005184 1_555
Ni3 O5 2.005184 1_555
Ni3 O11 2.012831 1_556
Ni3 O21 2.012831 1_556
Ni4 O8 1.910409 1_555
Ni4 O21 1.917914 1_655
Ni4 O23 1.962788 1_655
Ni4 O2 1.969278 1_554
Ni4 O7 2.046051 1_555
Ni4 O6 2.056296 1_654
Ni5 O8 1.897658 1_555
Ni5 O7 1.905798 1_555
Ni5 O9 1.918333 1_555
Ni5 O22 1.933899 1_555
Ni5 O14 2.027881 1_545
Ni5 O3 2.032234 1_555
Ni6 O22 2.015188 1_555
Ni6 O0 2.024017 1_445
Ni6 O10 2.058081 1_455
Ni6 O15 2.058081 1_545
Ni6 O9 2.071049 1_555
Ni6 O19 2.071049 1_555
Ni7 O10 1.910409 1_555
Ni7 O12 1.917914 1_545
Ni7 O0 1.962788 1_545
Ni7 O11 1.969278 1_556
Ni7 O5 2.046051 1_555
Ni7 O17 2.056296 1_546
Ni8 O13 1.910409 1_555
Ni8 O11 1.917914 1_565
Ni8 O23 1.962788 1_565
Ni8 O12 1.969278 1_554
Ni8 O18 2.046051 1_555
Ni8 O6 2.056296 1_564
Ni9 O15 1.897658 1_555
Ni9 O16 1.905798 1_555
Ni9 O14 1.918333 1_555
Ni9 O1 1.933899 1_555
Ni9 O9 2.027881 1_565
Ni9 O20 2.032234 1_555
Ni10 O15 1.910409 1_555
Ni10 O2 1.917914 1_455
Ni10 O0 1.962788 1_455
Ni10 O21 1.969278 1_556
Ni10 O16 2.046051 1_555
Ni10 O17 2.056296 1_456
Ni11 O13 1.897658 1_555
Ni11 O18 1.905798 1_555
Ni11 O19 1.918333 1_555
Ni11 O22 1.933899 1_555
Ni11 O4 2.027881 1_455
Ni11 O3 2.032234 1_555
