# generated using pymatgen
data_Ti13Al9CrRh7
_symmetry_space_group_name_H-M   'P 1'
_cell_length_a   8.67818072
_cell_length_b   8.67818032
_cell_length_c   8.67818118
_cell_angle_alpha   59.75295274
_cell_angle_beta   59.75295234
_cell_angle_gamma   59.75296707
_symmetry_Int_Tables_number   1
_chemical_formula_structural   Ti13Al9CrRh7
_chemical_formula_sum   'Ti13 Al9 Cr1 Rh7'
_cell_volume   459.54489704
_cell_formula_units_Z   1
loop_
 _symmetry_equiv_pos_site_id
 _symmetry_equiv_pos_as_xyz
  1  'x, y, z'
loop_
 _atom_site_type_symbol
 _atom_site_label
 _atom_site_symmetry_multiplicity
 _atom_site_fract_x
 _atom_site_fract_y
 _atom_site_fract_z
 _atom_site_occupancy
  Ti  Ti0  1  0.20868102  0.20868102  0.79197505  1
  Ti  Ti1  1  0.79197505  0.20868102  0.20868102  1
  Ti  Ti2  1  0.20868102  0.79197505  0.20868102  1
  Ti  Ti3  1  0.80218027  0.80218027  0.18067102  1
  Ti  Ti4  1  0.18067102  0.80218027  0.80218027  1
  Ti  Ti5  1  0.80218027  0.18067102  0.80218027  1
  Ti  Ti6  1  0.37862758  0.37862758  0.37862758  1
  Ti  Ti7  1  0.37950909  0.86673788  0.37950909  1
  Ti  Ti8  1  0.86673788  0.37950909  0.37950909  1
  Ti  Ti9  1  0.37950909  0.37950909  0.86673788  1
  Ti  Ti10  1  0.84740227  0.46080259  0.84740227  1
  Ti  Ti11  1  0.46080259  0.84740227  0.84740227  1
  Ti  Ti12  1  0.84740227  0.84740227  0.46080259  1
  Al  Al0  1  0.15109411  0.15109411  0.15109411  1
  Al  Al1  1  0.15582205  0.53993536  0.15582205  1
  Al  Al2  1  0.53993536  0.15582205  0.15582205  1
  Al  Al3  1  0.15582205  0.15582205  0.53993536  1
  Al  Al4  1  0.61935501  0.61935501  0.61935501  1
  Al  Al5  1  0.62026686  0.14235593  0.62026686  1
  Al  Al6  1  0.14235593  0.62026686  0.62026686  1
  Al  Al7  1  0.62026686  0.62026686  0.14235593  1
  Al  Al8  1  0.82878246  0.82878246  0.82878246  1
  Cr  Cr0  1  0.00295523  0.00295523  0.00295523  1
  Rh  Rh0  1  0.00457531  0.00457531  0.49838397  1
  Rh  Rh1  1  0.49838397  0.00457531  0.00457531  1
  Rh  Rh2  1  0.00457531  0.49838397  0.00457531  1
  Rh  Rh3  1  0.49995466  0.49995466  0.00134873  1
  Rh  Rh4  1  0.00134873  0.49995466  0.49995466  1
  Rh  Rh5  1  0.49995466  0.00134873  0.49995466  1
  Rh  Rh6  1  0.50019304  0.50019304  0.50019304  1
loop_
_geom_bond_atom_site_label_1
_geom_bond_atom_site_label_2
_geom_bond_distance
_geom_bond_site_symmetry_2
Ti0 Ti11 2.734644 1_545
Ti0 Ti10 2.734644 1_455
Ti0 Ti6 2.957913 1_555
Ti0 Ti9 2.994759 1_555
Ti1 Ti10 2.734644 1_554
Ti1 Ti12 2.734644 1_545
Ti1 Ti6 2.957913 1_555
Ti1 Ti8 2.994759 1_555
Ti2 Ti6 2.957913 1_555
Ti2 Ti7 2.994759 1_555
Ti3 Ti8 3.045130 1_555
Ti3 Ti7 3.045130 1_555
Ti4 Ti7 3.045130 1_555
Ti4 Ti9 3.045130 1_555
Ti5 Ti8 3.045130 1_555
Ti5 Ti9 3.045130 1_555
Ti10 Ti5 2.880179 1_555
Ti11 Ti2 2.734644 1_556
Ti11 Ti4 2.880179 1_555
Ti12 Ti2 2.734644 1_655
Ti12 Ti3 2.880179 1_555
Al0 Rh0 2.494816 1_555
Al0 Rh2 2.494816 1_555
Al0 Rh1 2.494816 1_555
Al0 Ti2 2.706568 1_545
Al0 Ti1 2.706568 1_455
Al0 Ti0 2.706568 1_554
Al0 Ti9 2.837333 1_554
Al0 Ti8 2.837334 1_455
Al0 Ti7 2.837334 1_545
Al1 Rh3 2.495526 1_555
Al1 Rh4 2.495526 1_555
Al1 Rh2 2.502969 1_555
Al1 Ti4 2.726825 1_554
Al1 Ti3 2.726825 1_455
Al1 Ti2 2.727365 1_555
Al1 Ti6 2.783799 1_555
Al1 Ti8 2.808904 1_455
Al1 Ti9 2.808905 1_554
Al2 Rh3 2.495526 1_555
Al2 Rh5 2.495526 1_555
Al2 Rh1 2.502969 1_555
Al2 Ti5 2.726825 1_554
Al2 Ti3 2.726825 1_545
Al2 Ti1 2.727365 1_555
Al2 Ti6 2.783799 1_555
Al2 Ti7 2.808904 1_545
Al2 Ti9 2.808905 1_554
Al3 Rh4 2.495526 1_555
Al3 Rh5 2.495526 1_555
Al3 Rh0 2.502969 1_555
Al3 Ti4 2.726825 1_545
Al3 Ti5 2.726825 1_455
Al3 Ti0 2.727365 1_555
Al3 Ti6 2.783799 1_555
Al3 Ti7 2.808905 1_545
Al3 Ti8 2.808905 1_455
Al4 Rh6 2.537759 1_555
Al4 Rh3 2.701328 1_556
Al4 Rh5 2.701328 1_565
Al4 Rh4 2.701329 1_655
Al4 Ti12 2.861026 1_555
Al4 Ti11 2.861026 1_555
Al4 Ti10 2.861026 1_555
Al4 Ti9 2.938469 1_555
Al4 Ti8 2.938470 1_555
Al4 Ti7 2.938470 1_555
Al4 Ti3 3.145367 1_555
Al4 Ti5 3.145367 1_555
Al4 Ti4 3.145368 1_555
Al5 Rh6 2.527622 1_555
Al5 Al8 2.707587 1_545
Al5 Rh5 2.711135 1_555
Al5 Rh1 2.715523 1_556
Al5 Rh0 2.715523 1_655
Al5 Ti11 2.844248 1_545
Al5 Ti12 2.844249 1_545
Al5 Ti5 2.943380 1_555
Al5 Ti1 2.956411 1_555
Al5 Ti0 2.956411 1_555
Al5 Ti6 2.960669 1_555
Al5 Ti8 2.962508 1_555
Al5 Ti9 2.962509 1_555
Al6 Rh6 2.527622 1_555
Al6 Al8 2.707587 1_455
Al6 Rh4 2.711135 1_555
Al6 Rh2 2.715523 1_556
Al6 Rh0 2.715523 1_565
Al6 Ti10 2.844248 1_455
Al6 Ti12 2.844249 1_455
Al6 Ti4 2.943380 1_555
Al6 Ti0 2.956411 1_555
Al6 Ti2 2.956411 1_555
Al6 Ti6 2.960668 1_555
Al6 Ti7 2.962508 1_555
Al6 Ti9 2.962509 1_555
Al7 Rh6 2.527622 1_555
Al7 Al8 2.707586 1_554
Al7 Rh3 2.711135 1_555
Al7 Rh1 2.715523 1_565
Al7 Rh2 2.715523 1_655
Al7 Ti10 2.844248 1_554
Al7 Ti11 2.844249 1_554
Al7 Ti3 2.943379 1_555
Al7 Ti1 2.956411 1_555
Al7 Ti2 2.956411 1_555
Al7 Ti6 2.960668 1_555
Al7 Ti7 2.962509 1_555
Al7 Ti8 2.962509 1_555
Al8 Rh0 2.531192 1_665
Al8 Rh2 2.531192 1_656
Al8 Rh1 2.531192 1_566
Al8 Ti5 2.839930 1_565
Al8 Ti4 2.839930 1_655
Al8 Ti3 2.839930 1_556
Al8 Ti10 3.039175 1_555
Al8 Ti11 3.039176 1_555
Al8 Ti12 3.039176 1_555
Cr0 Ti3 2.468653 1_445
Cr0 Ti4 2.468654 1_544
Cr0 Ti5 2.468654 1_454
Cr0 Ti0 2.520290 1_554
Cr0 Ti1 2.520291 1_455
Cr0 Ti2 2.520291 1_545
Rh0 Ti12 2.568630 1_445
Rh0 Ti8 2.649978 1_455
Rh0 Ti7 2.649978 1_545
Rh0 Ti5 3.010087 1_455
Rh0 Ti4 3.010087 1_545
Rh0 Ti2 3.123524 1_545
Rh0 Ti1 3.123524 1_455
Rh1 Ti11 2.568630 1_544
Rh1 Ti7 2.649978 1_545
Rh1 Ti9 2.649978 1_554
Rh1 Ti5 3.010086 1_554
Rh1 Ti3 3.010087 1_545
Rh1 Ti2 3.123524 1_545
Rh1 Ti0 3.123524 1_554
Rh2 Ti10 2.568630 1_454
Rh2 Ti8 2.649978 1_455
Rh2 Ti9 2.649978 1_554
Rh2 Ti4 3.010086 1_554
Rh2 Ti3 3.010087 1_455
Rh2 Ti1 3.123524 1_455
Rh2 Ti0 3.123524 1_554
Rh3 Ti11 2.521642 1_554
Rh3 Ti10 2.521642 1_554
Rh3 Ti6 2.666035 1_555
Rh3 Ti9 2.666591 1_554
Rh3 Ti2 3.099540 1_555
Rh3 Ti1 3.099540 1_555
Rh4 Ti10 2.521642 1_455
Rh4 Ti12 2.521642 1_455
Rh4 Ti6 2.666035 1_555
Rh4 Ti8 2.666591 1_455
Rh4 Ti2 3.099539 1_555
Rh4 Ti0 3.099540 1_555
Rh5 Ti11 2.521642 1_545
Rh5 Ti12 2.521642 1_545
Rh5 Ti6 2.666035 1_555
Rh5 Ti7 2.666591 1_545
Rh5 Ti1 3.099539 1_555
Rh5 Ti0 3.099540 1_555
Rh6 Ti6 2.588945 1_555
Rh6 Ti9 2.589322 1_555
Rh6 Ti7 2.589322 1_555
Rh6 Ti8 2.589322 1_555
