# generated using pymatgen
data_MnGa10Pb3O20
_symmetry_space_group_name_H-M   'P 1'
_cell_length_a   9.78284183
_cell_length_b   9.78284139
_cell_length_c   5.12132150
_cell_angle_alpha   74.85756904
_cell_angle_beta   74.85757117
_cell_angle_gamma   73.63854869
_symmetry_Int_Tables_number   1
_chemical_formula_structural   MnGa10Pb3O20
_chemical_formula_sum   'Mn1 Ga10 Pb3 O20'
_cell_volume   444.54078410
_cell_formula_units_Z   1
loop_
 _symmetry_equiv_pos_site_id
 _symmetry_equiv_pos_as_xyz
  1  'x, y, z'
loop_
 _atom_site_type_symbol
 _atom_site_label
 _atom_site_symmetry_multiplicity
 _atom_site_fract_x
 _atom_site_fract_y
 _atom_site_fract_z
 _atom_site_occupancy
  Mn  Mn0  1  0.50000000  0.50000000  0.00000000  1
  Ga  Ga0  1  0.63262988  0.36737012  0.50000000  1
  Ga  Ga1  1  0.36737012  0.63262988  0.50000000  1
  Ga  Ga2  1  0.27945989  0.00662768  0.37479335  1
  Ga  Ga3  1  0.99337232  0.72054011  0.62520665  1
  Ga  Ga4  1  0.72054011  0.99337232  0.62520665  1
  Ga  Ga5  1  0.00662768  0.27945989  0.37479335  1
  Ga  Ga6  1  0.57766647  0.15224594  0.10512590  1
  Ga  Ga7  1  0.84775406  0.42233353  0.89487410  1
  Ga  Ga8  1  0.42233353  0.84775406  0.89487410  1
  Ga  Ga9  1  0.15224594  0.57766647  0.10512590  1
  Pb  Pb0  1  0.00000000  0.00000000  0.00000000  1
  Pb  Pb1  1  0.72318427  0.72318427  0.21808156  1
  Pb  Pb2  1  0.27681573  0.27681573  0.78191844  1
  O  O0  1  0.56676446  0.56676446  0.25071745  1
  O  O1  1  0.43323554  0.43323554  0.74928255  1
  O  O2  1  0.09690841  0.09690841  0.30594387  1
  O  O3  1  0.90309159  0.90309159  0.69405613  1
  O  O4  1  0.39558276  0.12432206  0.13354028  1
  O  O5  1  0.87567794  0.60441724  0.86645972  1
  O  O6  1  0.60441724  0.87567794  0.86645972  1
  O  O7  1  0.12432206  0.39558276  0.13354028  1
  O  O8  1  0.34006327  0.82698396  0.27129989  1
  O  O9  1  0.17301604  0.65993673  0.72870011  1
  O  O10  1  0.65993673  0.17301604  0.72870011  1
  O  O11  1  0.82698396  0.34006327  0.27129989  1
  O  O12  1  0.99024972  0.28115093  0.73891694  1
  O  O13  1  0.71884907  0.00975028  0.26108306  1
  O  O14  1  0.00975028  0.71884907  0.26108306  1
  O  O15  1  0.28115093  0.99024972  0.73891694  1
  O  O16  1  0.68292306  0.45430575  0.75706412  1
  O  O17  1  0.54569425  0.31707694  0.24293588  1
  O  O18  1  0.31707694  0.54569425  0.24293588  1
  O  O19  1  0.45430575  0.68292306  0.75706412  1
loop_
_geom_bond_atom_site_label_1
_geom_bond_atom_site_label_2
_geom_bond_distance
_geom_bond_site_symmetry_2
Mn0 O0 1.902233 1_555
Mn0 O1 1.902233 1_554
Mn0 O19 1.904413 1_554
Mn0 O17 1.904413 1_555
Mn0 O16 1.904413 1_554
Mn0 O18 1.904413 1_555
Ga0 O10 1.942196 1_555
Ga0 O11 1.942196 1_555
Ga0 O16 1.964099 1_555
Ga0 O17 1.964099 1_555
Ga0 O0 2.066557 1_555
Ga0 O1 2.066557 1_555
Ga1 O8 1.942196 1_555
Ga1 O9 1.942196 1_555
Ga1 O18 1.964099 1_555
Ga1 O19 1.964099 1_555
Ga1 O1 2.066557 1_555
Ga1 O0 2.066557 1_555
Ga2 O15 1.833557 1_545
Ga2 O2 1.836128 1_555
Ga2 O4 1.844769 1_555
Ga2 O8 1.859146 1_545
Ga3 O14 1.833557 1_655
Ga3 O3 1.836128 1_555
Ga3 O5 1.844769 1_555
Ga3 O9 1.859146 1_655
Ga4 O13 1.833557 1_565
Ga4 O3 1.836128 1_555
Ga4 O6 1.844769 1_555
Ga4 O10 1.859146 1_565
Ga5 O12 1.833557 1_455
Ga5 O2 1.836128 1_555
Ga5 O7 1.844769 1_555
Ga5 O11 1.859146 1_455
Ga6 O4 1.840319 1_555
Ga6 O17 1.841531 1_555
Ga6 O13 1.843565 1_555
Ga6 O10 1.866104 1_554
Ga7 O5 1.840319 1_555
Ga7 O16 1.841531 1_555
Ga7 O12 1.843565 1_555
Ga7 O11 1.866104 1_556
Ga8 O6 1.840319 1_555
Ga8 O19 1.841531 1_555
Ga8 O15 1.843565 1_555
Ga8 O8 1.866104 1_556
Ga9 O7 1.840319 1_555
Ga9 O18 1.841531 1_555
Ga9 O14 1.843565 1_555
Ga9 O9 1.866104 1_554
O0 Pb1 2.400656 1_555
O1 Pb2 2.400656 1_555
O2 Pb0 2.512168 1_555
O3 Pb0 2.512168 1_666
O4 Pb2 2.351875 1_554
O5 Pb1 2.351875 1_556
O6 Pb1 2.351875 1_556
O7 Pb2 2.351875 1_554
O12 Pb0 2.712823 1_656
O13 Pb0 2.712823 1_655
O14 Pb0 2.712823 1_565
O15 Pb0 2.712823 1_566
