# generated using pymatgen
data_Ti4Si5GeMo6
_symmetry_space_group_name_H-M   'P 1'
_cell_length_a   7.30621721
_cell_length_b   7.30657289
_cell_length_c   7.32050509
_cell_angle_alpha   96.58249330
_cell_angle_beta   96.52229084
_cell_angle_gamma   140.48267223
_symmetry_Int_Tables_number   1
_chemical_formula_structural   Ti4Si5GeMo6
_chemical_formula_sum   'Ti4 Si5 Ge1 Mo6'
_cell_volume   234.07159401
_cell_formula_units_Z   1
loop_
 _symmetry_equiv_pos_site_id
 _symmetry_equiv_pos_as_xyz
  1  'x, y, z'
loop_
 _atom_site_type_symbol
 _atom_site_label
 _atom_site_symmetry_multiplicity
 _atom_site_fract_x
 _atom_site_fract_y
 _atom_site_fract_z
 _atom_site_occupancy
  Ti  Ti0  1  0.72446141  0.57751340  0.30211241  1
  Ti  Ti1  1  0.27612078  0.42150041  0.69745507  1
  Ti  Ti2  1  0.57580029  0.27574463  0.85146338  1
  Ti  Ti3  1  0.42595374  0.72513782  0.15116122  1
  Si  Si0  1  0.33356987  0.16566766  0.49918691  1
  Si  Si1  1  0.66680792  0.83555894  0.50242069  1
  Si  Si2  1  0.83444848  0.33283404  0.16721757  1
  Si  Si3  1  0.75325741  0.75316955  0.99986375  1
  Si  Si4  1  0.24668379  0.24657506  0.99982608  1
  Ge  Ge0  1  0.16702247  0.66693395  0.83398784  1
  Mo  Mo0  1  0.07559949  0.22033845  0.29581878  1
  Mo  Mo1  1  0.78003742  0.07411253  0.85428819  1
  Mo  Mo2  1  0.22181481  0.92823676  0.14999753  1
  Mo  Mo3  1  0.92220178  0.78003588  0.70236953  1
  Mo  Mo4  1  0.74758983  0.24778983  0.49640012  1
  Mo  Mo5  1  0.24863151  0.74885010  0.49643293  1
loop_
_geom_bond_atom_site_label_1
_geom_bond_atom_site_label_2
_geom_bond_distance
_geom_bond_site_symmetry_2
Si0 Ti1 2.550264 1_555
Si0 Ti2 2.592477 1_555
Si0 Ti0 2.822200 1_555
Si0 Ti0 2.822635 1_445
Si1 Ti0 2.571825 1_555
Si1 Ti3 2.581775 1_555
Si1 Ti1 2.816296 1_555
Si1 Ti1 2.816871 1_665
Si2 Ti2 2.580402 1_554
Si2 Ti0 2.609420 1_555
Si2 Ti3 2.826144 1_655
Si2 Ti3 2.826879 1_545
Si3 Si4 2.437561 1_665
Si3 Si4 2.502425 1_555
Si3 Ti2 2.619709 1_555
Si3 Ti3 2.623981 1_556
Si3 Ti1 2.628468 1_555
Si3 Ti0 2.631988 1_556
Si4 Ti2 2.619689 1_555
Si4 Ti3 2.624037 1_556
Si4 Ti1 2.629085 1_555
Si4 Ti0 2.631447 1_556
Ge0 Ti3 2.585597 1_556
Ge0 Mo2 2.598995 1_556
Ge0 Ti1 2.612593 1_555
Ge0 Mo3 2.623433 1_455
Ge0 Mo4 2.634750 1_455
Ge0 Mo5 2.634986 1_555
Ge0 Ti2 2.829363 1_455
Ge0 Ti2 2.830002 1_565
Ge0 Mo1 2.849914 1_565
Ge0 Mo1 2.850596 1_455
Mo0 Si0 2.566880 1_555
Mo0 Si3 2.575677 1_444
Mo0 Si4 2.575874 1_554
Mo0 Si2 2.588662 1_455
Mo0 Ti1 2.767616 1_555
Mo0 Si1 2.855095 1_555
Mo0 Si1 2.856184 1_445
Mo0 Ti3 2.867470 1_555
Mo0 Ti3 2.867874 1_445
Mo0 Ti0 3.181475 1_555
Mo0 Ti0 3.182708 1_445
Mo1 Si3 2.566199 1_545
Mo1 Si4 2.566239 1_655
Mo1 Si1 2.572794 1_545
Mo1 Si2 2.572960 1_556
Mo1 Ti2 2.790929 1_555
Mo1 Ti1 2.882509 1_545
Mo1 Ti1 2.883943 1_655
Mo1 Ti3 3.207220 1_656
Mo1 Ti3 3.207431 1_546
Mo2 Si0 2.556228 1_565
Mo2 Si3 2.574958 1_454
Mo2 Si4 2.575113 1_564
Mo2 Ti3 2.800277 1_555
Mo2 Si2 2.856744 1_565
Mo2 Si2 2.856918 1_455
Mo2 Ti0 2.865702 1_565
Mo2 Ti0 2.866658 1_455
Mo2 Ti2 3.214463 1_454
Mo2 Ti2 3.215040 1_564
Mo3 Si1 2.544107 1_555
Mo3 Si4 2.576612 1_665
Mo3 Si3 2.576792 1_555
Mo3 Ti0 2.758288 1_555
Mo3 Si0 2.844113 1_555
Mo3 Si0 2.845240 1_665
Mo3 Ti2 2.887028 1_555
Mo3 Ti2 2.887522 1_665
Mo3 Ti1 3.163402 1_555
Mo3 Ti1 3.164796 1_665
Mo4 Mo5 2.464882 1_545
Mo4 Mo5 2.475104 1_655
Mo4 Si2 2.584224 1_555
Mo4 Si1 2.591522 1_545
Mo4 Si0 2.593655 1_555
Mo4 Ti3 3.014172 1_545
Mo4 Ti0 3.035545 1_555
Mo4 Ti2 3.064001 1_555
Mo4 Ti1 3.067164 1_655
Mo5 Si2 2.583975 1_455
Mo5 Si1 2.591299 1_555
Mo5 Si0 2.593790 1_565
Mo5 Ti3 3.014447 1_555
Mo5 Ti0 3.035532 1_455
Mo5 Ti2 3.063685 1_565
Mo5 Ti1 3.067181 1_555
