# generated using pymatgen
data_Mg5Si16Pd9Ru
_symmetry_space_group_name_H-M   'P 1'
_cell_length_a   8.86780854
_cell_length_b   8.86780827
_cell_length_c   8.88630982
_cell_angle_alpha   59.93096296
_cell_angle_beta   59.93096399
_cell_angle_gamma   60.20697355
_symmetry_Int_Tables_number   1
_chemical_formula_structural   Mg5Si16Pd9Ru
_chemical_formula_sum   'Mg5 Si16 Pd9 Ru1'
_cell_volume   494.37714051
_cell_formula_units_Z   1
loop_
 _symmetry_equiv_pos_site_id
 _symmetry_equiv_pos_as_xyz
  1  'x, y, z'
loop_
 _atom_site_type_symbol
 _atom_site_label
 _atom_site_symmetry_multiplicity
 _atom_site_fract_x
 _atom_site_fract_y
 _atom_site_fract_z
 _atom_site_occupancy
  Mg  Mg0  1  0.19739861  0.60203861  0.60028189  1
  Mg  Mg1  1  0.60056061  0.60056061  0.19857114  1
  Mg  Mg2  1  0.60056061  0.60056061  0.60030664  1
  Mg  Mg3  1  0.60203861  0.19739861  0.60028189  1
  Mg  Mg4  1  0.24172140  0.24172140  0.25827860  1
  Si  Si0  1  0.20623573  0.66200318  0.20470843  1
  Si  Si1  1  0.92851436  0.66491661  0.20328401  1
  Si  Si2  1  0.20040885  0.20040885  0.66661897  1
  Si  Si3  1  0.66200318  0.20623573  0.20470843  1
  Si  Si4  1  0.92567852  0.20031849  0.65927800  1
  Si  Si5  1  0.20623573  0.66200318  0.92705366  1
  Si  Si6  1  0.92567852  0.20031849  0.21472499  1
  Si  Si7  1  0.66491661  0.92851436  0.20328401  1
  Si  Si8  1  0.20031849  0.92567852  0.21472499  1
  Si  Si9  1  0.20031849  0.92567852  0.65927800  1
  Si  Si10  1  0.54015053  0.82263710  0.81860618  1
  Si  Si11  1  0.82899472  0.82899472  0.81193250  1
  Si  Si12  1  0.66200318  0.20623573  0.92705366  1
  Si  Si13  1  0.82899472  0.82899472  0.53007707  1
  Si  Si14  1  0.82263710  0.54015053  0.81860618  1
  Si  Si15  1  0.20040885  0.20040885  0.93256233  1
  Pd  Pd0  1  0.51402160  0.98597977  0.51355377  1
  Pd  Pd1  1  0.98597977  0.51402160  0.98644385  1
  Pd  Pd2  1  0.37621803  0.37621803  0.86712271  1
  Pd  Pd3  1  0.37621803  0.37621803  0.38044123  1
  Pd  Pd4  1  0.85932069  0.38632919  0.37717506  1
  Pd  Pd5  1  0.98597977  0.51402160  0.51355377  1
  Pd  Pd6  1  0.51417231  0.51417231  0.98582769  1
  Pd  Pd7  1  0.38632919  0.85932069  0.37717506  1
  Pd  Pd8  1  0.51402160  0.98597977  0.98644385  1
  Ru  Ru0  1  0.99195860  0.99195860  0.50804140  1
loop_
_geom_bond_atom_site_label_1
_geom_bond_atom_site_label_2
_geom_bond_distance
_geom_bond_site_symmetry_2
Mg0 Pd7 2.807169 1_555
Mg0 Pd2 2.828683 1_555
Mg0 Pd3 2.828690 1_555
Mg0 Pd1 2.867568 1_455
Mg0 Pd5 2.867581 1_455
Mg0 Ru0 2.888456 1_455
Mg1 Pd7 2.772993 1_555
Mg1 Pd4 2.772993 1_555
Mg1 Pd3 2.831390 1_555
Mg1 Pd8 2.865449 1_554
Mg1 Pd1 2.865449 1_554
Mg1 Pd6 2.869411 1_554
Mg2 Pd7 2.772987 1_555
Mg2 Pd4 2.772987 1_555
Mg2 Pd2 2.831391 1_555
Mg2 Pd0 2.865448 1_555
Mg2 Pd5 2.865449 1_555
Mg2 Pd6 2.869420 1_555
Mg3 Pd4 2.807169 1_555
Mg3 Pd2 2.828683 1_555
Mg3 Pd3 2.828690 1_555
Mg3 Pd8 2.867568 1_545
Mg3 Pd0 2.867581 1_545
Mg3 Ru0 2.888456 1_545
Mg4 Pd7 2.775986 1_545
Mg4 Pd4 2.775986 1_455
Mg4 Pd3 2.834079 1_555
Mg4 Pd2 2.834080 1_554
Mg4 Ru0 3.124083 1_445
Si0 Si8 2.357947 1_555
Si0 Si1 2.456378 1_455
Si0 Si5 2.467326 1_554
Si1 Si7 2.344843 1_555
Si1 Si5 2.456369 1_654
Si2 Si9 2.469990 1_545
Si2 Si4 2.469990 1_455
Si3 Si6 2.357947 1_555
Si3 Si7 2.456378 1_545
Si4 Si9 2.443070 1_645
Si5 Si9 2.357952 1_555
Si6 Si8 2.443070 1_645
Si12 Si4 2.357952 1_555
Si12 Si7 2.456369 1_546
Si12 Si3 2.467326 1_556
Si15 Si2 2.363255 1_555
Si15 Si8 2.469995 1_546
Si15 Si6 2.469995 1_456
Pd0 Si10 2.421022 1_555
Pd0 Si13 2.470469 1_555
Pd0 Si3 2.575962 1_565
Pd0 Si7 2.585611 1_555
Pd0 Si2 2.597347 1_565
Pd0 Si9 2.622222 1_555
Pd1 Si14 2.421014 1_555
Pd1 Si11 2.470469 1_555
Pd1 Si5 2.575969 1_655
Pd1 Si1 2.585610 1_556
Pd1 Si15 2.597346 1_655
Pd1 Si6 2.622223 1_556
Pd2 Si5 2.393797 1_555
Pd2 Si12 2.393797 1_555
Pd2 Si15 2.407857 1_555
Pd3 Si0 2.393793 1_555
Pd3 Si3 2.393793 1_555
Pd3 Si2 2.407853 1_555
Pd4 Si1 2.366064 1_555
Pd4 Si6 2.391950 1_555
Pd4 Si4 2.391950 1_555
Pd5 Si14 2.421022 1_555
Pd5 Si13 2.470469 1_555
Pd5 Si0 2.575962 1_655
Pd5 Si1 2.585611 1_555
Pd5 Si2 2.597346 1_655
Pd5 Si4 2.622222 1_555
Pd6 Si10 2.439997 1_555
Pd6 Si14 2.439997 1_555
Pd6 Si12 2.575632 1_555
Pd6 Si5 2.575632 1_555
Pd6 Si3 2.575636 1_556
Pd6 Si0 2.575636 1_556
Pd7 Si7 2.366064 1_555
Pd7 Si8 2.391950 1_555
Pd7 Si9 2.391950 1_555
Pd8 Si10 2.421014 1_555
Pd8 Si11 2.470469 1_555
Pd8 Si12 2.575969 1_565
Pd8 Si7 2.585611 1_556
Pd8 Si15 2.597346 1_565
Pd8 Si8 2.622223 1_556
Ru0 Si11 2.392347 1_555
Ru0 Si13 2.392352 1_555
Ru0 Si4 2.486606 1_565
Ru0 Si9 2.486606 1_655
Ru0 Si6 2.486606 1_565
Ru0 Si8 2.486606 1_655
