# generated using pymatgen
data_LuSc7(AgRh)2
_symmetry_space_group_name_H-M   'P 1'
_cell_length_a   8.92293163
_cell_length_b   8.92293192
_cell_length_c   8.95256005
_cell_angle_alpha   59.89010317
_cell_angle_beta   59.89010209
_cell_angle_gamma   60.21980404
_symmetry_Int_Tables_number   1
_chemical_formula_structural   LuSc7(AgRh)2
_chemical_formula_sum   'Lu2 Sc14 Ag4 Rh4'
_cell_volume   504.00844268
_cell_formula_units_Z   2
loop_
 _symmetry_equiv_pos_site_id
 _symmetry_equiv_pos_as_xyz
  1  'x, y, z'
loop_
 _atom_site_type_symbol
 _atom_site_label
 _atom_site_symmetry_multiplicity
 _atom_site_fract_x
 _atom_site_fract_y
 _atom_site_fract_z
 _atom_site_occupancy
  Lu  Lu0  1  0.80988275  0.80988275  0.19011725  1
  Lu  Lu1  1  0.19011725  0.19011725  0.80988275  1
  Sc  Sc0  1  0.60483506  0.60483506  0.61740826  1
  Sc  Sc1  1  0.60483506  0.60483506  0.17292362  1
  Sc  Sc2  1  0.61740826  0.17292362  0.60483506  1
  Sc  Sc3  1  0.17292362  0.61740826  0.60483506  1
  Sc  Sc4  1  0.06523384  0.43476616  0.43476616  1
  Sc  Sc5  1  0.43476616  0.06523384  0.06523384  1
  Sc  Sc6  1  0.43476616  0.06523384  0.43476616  1
  Sc  Sc7  1  0.06523384  0.43476616  0.06523384  1
  Sc  Sc8  1  0.43316832  0.43316832  0.06683168  1
  Sc  Sc9  1  0.06683168  0.06683168  0.43316832  1
  Sc  Sc10  1  0.18486221  0.81513779  0.81513779  1
  Sc  Sc11  1  0.81513779  0.18486221  0.18486221  1
  Sc  Sc12  1  0.81513779  0.18486221  0.81513779  1
  Sc  Sc13  1  0.18486221  0.81513779  0.18486221  1
  Ag  Ag0  1  0.83374749  0.83374749  0.83125632  1
  Ag  Ag1  1  0.83374749  0.83374749  0.50124769  1
  Ag  Ag2  1  0.83125632  0.50124769  0.83374749  1
  Ag  Ag3  1  0.50124769  0.83125632  0.83374749  1
  Rh  Rh0  1  0.39436298  0.39436298  0.40494127  1
  Rh  Rh1  1  0.39436298  0.39436298  0.80633077  1
  Rh  Rh2  1  0.40494127  0.80633077  0.39436298  1
  Rh  Rh3  1  0.80633077  0.40494127  0.39436298  1
loop_
_geom_bond_atom_site_label_1
_geom_bond_atom_site_label_2
_geom_bond_distance
_geom_bond_site_symmetry_2
Lu0 Rh2 3.134792 1_555
Lu0 Rh3 3.134792 1_555
Lu0 Sc1 3.257170 1_555
Lu0 Sc0 3.257181 1_555
Lu0 Sc13 3.345933 1_655
Lu0 Sc11 3.345933 1_565
Lu0 Sc10 3.345933 1_654
Lu0 Sc12 3.345933 1_564
Lu0 Sc5 3.356769 1_565
Lu0 Sc6 3.356769 1_565
Lu0 Sc7 3.356769 1_655
Lu0 Sc4 3.356769 1_655
Lu1 Rh1 3.134777 1_555
Lu1 Rh0 3.134787 1_555
Lu1 Sc2 3.257185 1_555
Lu1 Sc3 3.257185 1_555
Lu1 Sc12 3.345933 1_455
Lu1 Sc10 3.345933 1_545
Lu1 Sc11 3.345933 1_456
Lu1 Sc13 3.345933 1_546
Lu1 Sc5 3.356768 1_556
Lu1 Sc7 3.356768 1_556
Lu1 Sc6 3.356769 1_555
Lu1 Sc4 3.356769 1_555
Sc0 Sc10 3.223313 1_555
Sc0 Sc12 3.223313 1_555
Sc1 Sc13 3.223318 1_555
Sc1 Sc11 3.223318 1_555
Sc10 Sc3 3.223302 1_555
Sc10 Sc13 3.309980 1_556
Sc10 Sc12 3.309980 1_465
Sc10 Sc7 3.353864 1_556
Sc10 Sc6 3.353864 1_565
Sc10 Sc9 3.377154 1_565
Sc10 Sc8 3.377154 1_556
Sc11 Sc2 3.223318 1_555
Sc11 Sc12 3.309980 1_554
Sc11 Sc13 3.309980 1_645
Sc11 Sc7 3.353863 1_655
Sc11 Sc6 3.353863 1_555
Sc11 Sc9 3.377154 1_655
Sc11 Sc8 3.377154 1_555
Sc12 Sc2 3.223302 1_555
Sc12 Sc5 3.353863 1_556
Sc12 Sc4 3.353864 1_655
Sc12 Sc9 3.377154 1_655
Sc12 Sc8 3.377154 1_556
Sc13 Sc3 3.223318 1_555
Sc13 Sc5 3.353863 1_565
Sc13 Sc4 3.353864 1_555
Sc13 Sc9 3.377154 1_565
Sc13 Sc8 3.377154 1_555
Ag0 Ag1 2.954422 1_555
Ag0 Ag3 2.966808 1_555
Ag0 Ag2 2.966809 1_555
Ag0 Sc10 2.986232 1_655
Ag0 Sc12 2.986232 1_565
Ag0 Sc3 2.993691 1_655
Ag0 Sc2 2.993691 1_565
Ag0 Lu0 3.014055 1_556
Ag0 Sc1 3.050846 1_556
Ag0 Sc9 3.282633 1_665
Ag0 Sc5 3.298910 1_566
Ag0 Sc7 3.298910 1_656
Ag1 Ag3 2.966809 1_555
Ag1 Ag2 2.966809 1_555
Ag1 Sc13 2.986228 1_655
Ag1 Sc11 2.986228 1_565
Ag1 Sc3 2.993704 1_655
Ag1 Sc2 2.993704 1_565
Ag1 Lu0 3.014046 1_555
Ag1 Sc0 3.050837 1_555
Ag1 Sc9 3.282637 1_665
Ag1 Sc6 3.298906 1_565
Ag1 Sc4 3.298907 1_655
Ag2 Ag3 2.954422 1_555
Ag2 Sc12 2.986223 1_555
Ag2 Sc11 2.986228 1_556
Ag2 Sc0 2.993682 1_555
Ag2 Sc1 2.993704 1_556
Ag2 Lu1 3.014051 1_655
Ag2 Sc3 3.050859 1_655
Ag2 Sc8 3.282630 1_556
Ag2 Sc4 3.298907 1_655
Ag2 Sc7 3.298914 1_656
Ag3 Sc10 2.986223 1_555
Ag3 Sc13 2.986228 1_556
Ag3 Sc0 2.993682 1_555
Ag3 Sc1 2.993704 1_556
Ag3 Lu1 3.014051 1_565
Ag3 Sc2 3.050859 1_565
Ag3 Sc8 3.282630 1_556
Ag3 Sc6 3.298907 1_565
Ag3 Sc5 3.298914 1_566
Rh0 Sc1 2.654103 1_555
Rh0 Sc4 2.661607 1_555
Rh0 Sc6 2.661607 1_555
Rh0 Sc2 2.680871 1_555
Rh0 Sc3 2.680871 1_555
Rh0 Sc8 2.723623 1_555
Rh0 Sc11 3.282456 1_555
Rh0 Sc13 3.282456 1_555
Rh1 Sc0 2.654105 1_555
Rh1 Sc7 2.661614 1_556
Rh1 Sc5 2.661614 1_556
Rh1 Sc2 2.680847 1_555
Rh1 Sc3 2.680847 1_555
Rh1 Sc8 2.723641 1_556
Rh1 Sc12 3.282461 1_555
Rh1 Sc10 3.282462 1_555
Rh2 Sc3 2.654079 1_555
Rh2 Sc5 2.661613 1_565
Rh2 Sc6 2.661624 1_565
Rh2 Sc1 2.680846 1_555
Rh2 Sc0 2.680872 1_555
Rh2 Sc9 2.723630 1_565
Rh2 Sc13 3.282446 1_555
Rh2 Sc10 3.282461 1_555
Rh3 Sc2 2.654079 1_555
Rh3 Sc7 2.661613 1_655
Rh3 Sc4 2.661624 1_655
Rh3 Sc1 2.680846 1_555
Rh3 Sc0 2.680872 1_555
Rh3 Sc9 2.723630 1_655
Rh3 Sc11 3.282446 1_555
Rh3 Sc12 3.282461 1_555
