# generated using pymatgen
data_ScH2Br
_symmetry_space_group_name_H-M   'P 1'
_cell_length_a   10.42140995
_cell_length_b   10.42140971
_cell_length_c   10.42140954
_cell_angle_alpha   19.37107227
_cell_angle_beta   19.37107793
_cell_angle_gamma   19.37107271
_symmetry_Int_Tables_number   1
_chemical_formula_structural   ScH2Br
_chemical_formula_sum   'Sc2 H4 Br2'
_cell_volume   108.86234641
_cell_formula_units_Z   2
loop_
 _symmetry_equiv_pos_site_id
 _symmetry_equiv_pos_as_xyz
  1  'x, y, z'
loop_
 _atom_site_type_symbol
 _atom_site_label
 _atom_site_symmetry_multiplicity
 _atom_site_fract_x
 _atom_site_fract_y
 _atom_site_fract_z
 _atom_site_occupancy
  Sc  Sc0  1  0.88164505  0.88164505  0.88164505  1
  Sc  Sc1  1  0.11835495  0.11835495  0.11835495  1
  H  H0  1  0.81503289  0.81503289  0.81503289  1
  H  H1  1  0.18496711  0.18496711  0.18496711  1
  H  H2  1  0.54243435  0.54243435  0.54243435  1
  H  H3  1  0.45756565  0.45756565  0.45756565  1
  Br  Br0  1  0.72408205  0.72408205  0.72408205  1
  Br  Br1  1  0.27591795  0.27591795  0.27591795  1
loop_
_geom_bond_atom_site_label_1
_geom_bond_atom_site_label_2
_geom_bond_distance
_geom_bond_site_symmetry_2
H0 Sc0 2.042902 1_555
H0 Sc1 2.223940 1_656
H0 Sc1 2.223940 1_665
H0 Sc1 2.223940 1_566
H1 Sc1 2.042902 1_555
H1 Sc0 2.223940 1_454
H1 Sc0 2.223940 1_445
H1 Sc0 2.223940 1_544
H2 Sc0 2.032549 1_545
H2 Sc0 2.032549 1_554
H2 Sc0 2.032549 1_455
H3 Sc1 2.032549 1_565
H3 Sc1 2.032549 1_556
H3 Sc1 2.032549 1_655
Br0 Sc1 2.755298 1_656
Br0 Sc1 2.755298 1_566
Br0 Sc1 2.755299 1_665
Br1 Sc0 2.755298 1_454
Br1 Sc0 2.755298 1_544
Br1 Sc0 2.755299 1_445
