# generated using pymatgen
data_Hf11Ga10
_symmetry_space_group_name_H-M   'P 1'
_cell_length_a   10.32357420
_cell_length_b   10.32357420
_cell_length_c   10.32357420
_cell_angle_alpha   120.32811278
_cell_angle_beta   120.32811278
_cell_angle_gamma   89.43262532
_symmetry_Int_Tables_number   1
_chemical_formula_structural   Hf11Ga10
_chemical_formula_sum   'Hf22 Ga20'
_cell_volume   774.09268611
_cell_formula_units_Z   2
loop_
 _symmetry_equiv_pos_site_id
 _symmetry_equiv_pos_as_xyz
  1  'x, y, z'
loop_
 _atom_site_type_symbol
 _atom_site_label
 _atom_site_symmetry_multiplicity
 _atom_site_fract_x
 _atom_site_fract_y
 _atom_site_fract_z
 _atom_site_occupancy
  Hf  Hf0  1  0.32284039  0.32284039  0.00000000  1
  Hf  Hf1  1  0.67715961  0.67715961  -0.00000000  1
  Hf  Hf2  1  0.17517775  0.17517775  0.35035551  1
  Hf  Hf3  1  0.17517775  0.82482225  0.00000000  1
  Hf  Hf4  1  0.82482225  0.17517775  -0.00000000  1
  Hf  Hf5  1  0.82482225  0.82482225  0.64964449  1
  Hf  Hf6  1  0.43925326  0.18830161  0.25095164  1
  Hf  Hf7  1  0.18830161  0.93734997  0.74904836  1
  Hf  Hf8  1  0.18830161  0.43925326  0.25095164  1
  Hf  Hf9  1  0.56074674  0.81169839  0.74904836  1
  Hf  Hf10  1  0.06265003  0.81169839  0.25095164  1
  Hf  Hf11  1  0.81169839  0.06265003  0.25095164  1
  Hf  Hf12  1  0.81169839  0.56074674  0.74904836  1
  Hf  Hf13  1  0.93734997  0.18830161  0.74904836  1
  Hf  Hf14  1  0.73033820  0.39655838  0.33377982  1
  Hf  Hf15  1  0.39655838  0.06277957  0.66622018  1
  Hf  Hf16  1  0.39655838  0.73033820  0.33377982  1
  Hf  Hf17  1  0.26966180  0.60344162  0.66622018  1
  Hf  Hf18  1  0.93722043  0.60344162  0.33377982  1
  Hf  Hf19  1  0.60344162  0.93722043  0.33377982  1
  Hf  Hf20  1  0.60344162  0.26966180  0.66622018  1
  Hf  Hf21  1  0.06277957  0.39655838  0.66622018  1
  Ga  Ga0  1  0.75000000  0.25000000  0.50000000  1
  Ga  Ga1  1  0.25000000  0.75000000  0.50000000  1
  Ga  Ga2  1  0.10796474  0.10796474  0.00000000  1
  Ga  Ga3  1  0.89203526  0.89203526  -0.00000000  1
  Ga  Ga4  1  0.37298853  0.37298853  0.74597706  1
  Ga  Ga5  1  0.37298853  0.62701147  -0.00000000  1
  Ga  Ga6  1  0.62701147  0.37298853  -0.00000000  1
  Ga  Ga7  1  0.62701147  0.62701147  0.25402294  1
  Ga  Ga8  1  0.00000000  0.35678090  0.35678090  1
  Ga  Ga9  1  0.35678090  0.00000000  0.35678090  1
  Ga  Ga10  1  0.64321910  0.00000000  0.64321910  1
  Ga  Ga11  1  0.00000000  0.64321910  0.64321910  1
  Ga  Ga12  1  0.53333893  0.53333893  0.41315200  1
  Ga  Ga13  1  0.53333893  0.12018693  -0.00000000  1
  Ga  Ga14  1  0.12018693  0.53333893  -0.00000000  1
  Ga  Ga15  1  0.46666107  0.87981307  0.00000000  1
  Ga  Ga16  1  0.87981307  0.46666107  0.00000000  1
  Ga  Ga17  1  0.87981307  0.87981307  0.41315200  1
  Ga  Ga18  1  0.46666107  0.46666107  0.58684800  1
  Ga  Ga19  1  0.12018693  0.12018693  0.58684800  1
loop_
_geom_bond_atom_site_label_1
_geom_bond_atom_site_label_2
_geom_bond_distance
_geom_bond_site_symmetry_2
Ga0 Hf6 2.713739 1_555
Ga0 Hf12 2.713739 1_555
Ga0 Hf11 2.713739 1_555
Ga0 Hf13 2.713739 1_555
Ga0 Hf14 2.745754 1_555
Ga0 Hf20 2.745754 1_555
Ga0 Hf19 2.745763 1_545
Ga0 Hf21 2.745763 1_655
Ga1 Hf8 2.713739 1_555
Ga1 Hf9 2.713739 1_555
Ga1 Hf10 2.713739 1_555
Ga1 Hf7 2.713739 1_555
Ga1 Hf16 2.745754 1_555
Ga1 Hf17 2.745754 1_555
Ga1 Hf15 2.745763 1_565
Ga1 Hf18 2.745763 1_455
Ga2 Hf13 2.834549 1_454
Ga2 Hf7 2.834549 1_544
Ga2 Hf6 2.834549 1_555
Ga2 Hf8 2.834549 1_555
Ga2 Hf3 2.997578 1_545
Ga2 Hf4 2.997578 1_455
Ga2 Hf5 2.997578 1_444
Ga2 Hf2 2.997578 1_555
Ga2 Hf0 3.152623 1_555
Ga3 Hf10 2.834549 1_655
Ga3 Hf11 2.834549 1_565
Ga3 Hf9 2.834549 1_554
Ga3 Hf12 2.834549 1_554
Ga3 Hf4 2.997578 1_565
Ga3 Hf3 2.997578 1_655
Ga3 Hf2 2.997578 1_665
Ga3 Hf5 2.997578 1_554
Ga3 Hf1 3.152623 1_555
Ga4 Ga5 2.609408 1_556
Ga4 Ga6 2.609408 1_556
Ga4 Hf2 2.873651 1_555
Ga4 Hf21 2.918372 1_555
Ga4 Hf15 2.918372 1_555
Ga4 Hf20 2.918382 1_555
Ga4 Hf17 2.918382 1_555
Ga4 Hf0 3.187578 1_556
Ga4 Hf1 3.187578 1_556
Ga5 Ga7 2.609408 1_555
Ga5 Hf3 2.873651 1_555
Ga5 Hf19 2.918376 1_555
Ga5 Hf21 2.918376 1_554
Ga5 Hf17 2.918382 1_554
Ga5 Hf16 2.918382 1_555
Ga5 Hf1 3.187578 1_555
Ga5 Hf0 3.187578 1_555
Ga6 Ga7 2.609408 1_555
Ga6 Hf4 2.873651 1_555
Ga6 Hf18 2.918376 1_555
Ga6 Hf15 2.918376 1_554
Ga6 Hf20 2.918382 1_554
Ga6 Hf14 2.918382 1_555
Ga6 Hf0 3.187578 1_555
Ga6 Hf1 3.187578 1_555
Ga7 Hf5 2.873651 1_555
Ga7 Hf19 2.918372 1_555
Ga7 Hf18 2.918372 1_555
Ga7 Hf16 2.918382 1_555
Ga7 Hf14 2.918382 1_555
Ga7 Hf0 3.187578 1_555
Ga7 Hf1 3.187578 1_555
Ga8 Hf2 2.591947 1_555
Ga8 Hf4 2.591947 1_455
Ga8 Hf21 2.717203 1_555
Ga8 Hf17 2.717207 1_555
Ga8 Hf14 2.717207 1_455
Ga8 Hf18 2.717209 1_455
Ga8 Hf11 2.968923 1_455
Ga8 Hf8 2.968923 1_555
Ga9 Hf2 2.591947 1_555
Ga9 Hf3 2.591947 1_545
Ga9 Hf15 2.717203 1_555
Ga9 Hf20 2.717207 1_555
Ga9 Hf16 2.717207 1_545
Ga9 Hf19 2.717209 1_545
Ga9 Hf10 2.968923 1_545
Ga9 Hf6 2.968923 1_555
Ga10 Hf5 2.591947 1_545
Ga10 Hf4 2.591947 1_556
Ga10 Hf19 2.717203 1_545
Ga10 Hf20 2.717207 1_555
Ga10 Hf16 2.717207 1_545
Ga10 Hf15 2.717209 1_555
Ga10 Hf13 2.968923 1_555
Ga10 Hf9 2.968923 1_545
Ga11 Hf5 2.591947 1_455
Ga11 Hf3 2.591947 1_556
Ga11 Hf18 2.717203 1_455
Ga11 Hf17 2.717207 1_555
Ga11 Hf14 2.717207 1_455
Ga11 Hf21 2.717209 1_555
Ga11 Hf7 2.968923 1_555
Ga11 Hf12 2.968923 1_455
Ga12 Ga18 2.581780 1_555
Ga12 Hf16 2.694254 1_555
Ga12 Hf14 2.694254 1_555
Ga12 Ga7 2.792182 1_555
Ga12 Hf6 2.972823 1_555
Ga12 Hf8 2.972823 1_555
Ga12 Hf0 3.001538 1_555
Ga12 Hf12 3.053571 1_555
Ga12 Hf9 3.053571 1_555
Ga12 Hf5 3.067752 1_555
Ga13 Ga15 2.581780 1_545
Ga13 Hf14 2.694254 1_555
Ga13 Hf15 2.694258 1_554
Ga13 Ga6 2.792182 1_555
Ga13 Hf6 2.972822 1_555
Ga13 Hf7 2.972823 1_544
Ga13 Hf0 3.001538 1_555
Ga13 Hf9 3.053571 1_544
Ga13 Hf11 3.053571 1_555
Ga13 Hf4 3.067752 1_555
Ga14 Ga16 2.581780 1_455
Ga14 Hf16 2.694254 1_555
Ga14 Hf21 2.694258 1_554
Ga14 Ga5 2.792182 1_555
Ga14 Hf8 2.972822 1_555
Ga14 Hf13 2.972823 1_454
Ga14 Hf0 3.001538 1_555
Ga14 Hf12 3.053571 1_454
Ga14 Hf10 3.053571 1_555
Ga14 Hf3 3.067752 1_555
Ga15 Hf17 2.694254 1_554
Ga15 Hf19 2.694258 1_555
Ga15 Ga5 2.792182 1_555
Ga15 Hf9 2.972822 1_554
Ga15 Hf11 2.972823 1_565
Ga15 Hf1 3.001538 1_555
Ga15 Hf6 3.053571 1_565
Ga15 Hf7 3.053571 1_554
Ga15 Hf3 3.067752 1_555
Ga16 Hf20 2.694254 1_554
Ga16 Hf18 2.694258 1_555
Ga16 Ga6 2.792182 1_555
Ga16 Hf12 2.972822 1_554
Ga16 Hf10 2.972823 1_655
Ga16 Hf1 3.001538 1_555
Ga16 Hf8 3.053571 1_655
Ga16 Hf13 3.053571 1_554
Ga16 Hf4 3.067752 1_555
Ga17 Ga19 2.581780 1_665
Ga17 Hf19 2.694250 1_555
Ga17 Hf18 2.694250 1_555
Ga17 Ga7 2.792182 1_555
Ga17 Hf10 2.972823 1_655
Ga17 Hf11 2.972823 1_565
Ga17 Hf1 3.001538 1_555
Ga17 Hf7 3.053571 1_655
Ga17 Hf13 3.053571 1_565
Ga17 Hf5 3.067751 1_555
Ga18 Hf17 2.694254 1_555
Ga18 Hf20 2.694254 1_555
Ga18 Ga4 2.792182 1_555
Ga18 Hf12 2.972823 1_555
Ga18 Hf9 2.972823 1_555
Ga18 Hf1 3.001538 1_556
Ga18 Hf6 3.053571 1_555
Ga18 Hf8 3.053571 1_555
Ga18 Hf2 3.067752 1_555
Ga19 Hf15 2.694250 1_555
Ga19 Hf21 2.694250 1_555
Ga19 Ga4 2.792182 1_555
Ga19 Hf7 2.972823 1_545
Ga19 Hf13 2.972823 1_455
Ga19 Hf0 3.001538 1_556
Ga19 Hf11 3.053571 1_455
Ga19 Hf10 3.053571 1_545
Ga19 Hf2 3.067751 1_555
