# generated using pymatgen
data_Na6CrCoH12
_symmetry_space_group_name_H-M   'P 1'
_cell_length_a   5.26743575
_cell_length_b   5.26789942
_cell_length_c   9.16472380
_cell_angle_alpha   54.80948643
_cell_angle_beta   89.82350208
_cell_angle_gamma   89.96774734
_symmetry_Int_Tables_number   1
_chemical_formula_structural   Na6CrCoH12
_chemical_formula_sum   'Na6 Cr1 Co1 H12'
_cell_volume   207.82766224
_cell_formula_units_Z   1
loop_
 _symmetry_equiv_pos_site_id
 _symmetry_equiv_pos_as_xyz
  1  'x, y, z'
loop_
 _atom_site_type_symbol
 _atom_site_label
 _atom_site_symmetry_multiplicity
 _atom_site_fract_x
 _atom_site_fract_y
 _atom_site_fract_z
 _atom_site_occupancy
  Na  Na0  1  0.00000000  0.50000000  0.50000000  1
  Na  Na1  1  0.50000000  0.50000000  0.00000000  1
  Na  Na2  1  0.01586075  0.23913712  0.26112798  1
  Na  Na3  1  0.51616781  0.73615185  0.26163807  1
  Na  Na4  1  0.98413925  0.76086288  0.73887202  1
  Na  Na5  1  0.48383219  0.26384815  0.73836193  1
  Cr  Cr0  1  0.00000000  0.00000000  0.00000000  1
  Co  Co0  1  0.50000000  0.00000000  0.50000000  1
  H  H0  1  0.27669881  0.78861432  0.52424715  1
  H  H1  1  0.72843240  0.20637741  0.96036439  1
  H  H2  1  0.72330119  0.21138568  0.47575285  1
  H  H3  1  0.27156760  0.79362259  0.03963561  1
  H  H4  1  0.17038057  0.30158320  0.97018030  1
  H  H5  1  0.69085727  0.75612455  0.52391035  1
  H  H6  1  0.82961943  0.69841680  0.02981970  1
  H  H7  1  0.30914273  0.24387545  0.47608965  1
  H  H8  1  0.02694839  0.16012881  0.77688358  1
  H  H9  1  0.50408766  0.84383727  0.70314675  1
  H  H10  1  0.97305161  0.83987119  0.22311642  1
  H  H11  1  0.49591234  0.15616273  0.29685325  1
loop_
_geom_bond_atom_site_label_1
_geom_bond_atom_site_label_2
_geom_bond_distance
_geom_bond_site_symmetry_2
Cr0 H4 1.704054 1_554
Cr0 H6 1.704054 1_445
Cr0 H3 1.704818 1_545
Cr0 H1 1.704818 1_454
Cr0 H10 1.709733 1_445
Cr0 H8 1.709733 1_554
Co0 H9 1.542198 1_545
Co0 H11 1.542198 1_555
Co0 H7 1.544219 1_555
Co0 H5 1.544219 1_545
Co0 H2 1.545170 1_555
Co0 H0 1.545170 1_545
H0 Na0 2.208882 1_555
H0 Na4 2.432142 1_455
H0 Na5 2.537804 1_555
H0 Na2 2.599165 1_565
H1 Na1 2.148277 1_556
H1 Na5 2.279688 1_555
H1 Na3 2.666591 1_546
H2 Na0 2.208882 1_655
H2 Na2 2.432142 1_655
H2 Na3 2.537804 1_555
H2 Na4 2.599165 1_545
H3 Na1 2.148277 1_555
H3 Na3 2.279688 1_555
H3 Na5 2.666591 1_564
H4 Na1 2.125084 1_556
H4 Na4 2.325626 1_455
H4 Na2 2.618510 1_556
H5 Na0 2.203683 1_655
H5 Na5 2.427429 1_555
H5 Na4 2.518689 1_555
H5 Na3 2.634492 1_555
H6 Na1 2.125084 1_555
H6 Na2 2.325626 1_655
H6 Na4 2.618510 1_554
H7 Na0 2.203683 1_555
H7 Na3 2.427429 1_555
H7 Na2 2.518689 1_555
H7 Na5 2.634492 1_555
H8 Na0 2.104831 1_555
H8 Na4 2.332721 1_445
H8 Na5 2.447211 1_555
H9 Na1 2.236686 1_556
H9 Na5 2.415284 1_565
H9 Na4 2.555619 1_555
H10 Na0 2.104831 1_655
H10 Na2 2.332721 1_665
H10 Na3 2.447211 1_555
H11 Na1 2.236686 1_555
H11 Na3 2.415284 1_545
H11 Na2 2.555619 1_555
