# generated using pymatgen
data_Zr2TcSn2Au
_symmetry_space_group_name_H-M   'P 1'
_cell_length_a   7.52093362
_cell_length_b   7.52093266
_cell_length_c   7.37623902
_cell_angle_alpha   90.00000000
_cell_angle_beta   90.00000000
_cell_angle_gamma   119.99999876
_symmetry_Int_Tables_number   1
_chemical_formula_structural   Zr2TcSn2Au
_chemical_formula_sum   'Zr6 Tc3 Sn6 Au3'
_cell_volume   361.33420419
_cell_formula_units_Z   3
loop_
 _symmetry_equiv_pos_site_id
 _symmetry_equiv_pos_as_xyz
  1  'x, y, z'
loop_
 _atom_site_type_symbol
 _atom_site_label
 _atom_site_symmetry_multiplicity
 _atom_site_fract_x
 _atom_site_fract_y
 _atom_site_fract_z
 _atom_site_occupancy
  Zr  Zr0  1  0.40438435  0.03690610  0.26144038  1
  Zr  Zr1  1  0.61446954  0.61988300  0.74052371  1
  Zr  Zr2  1  0.63252375  0.59561565  0.26144038  1
  Zr  Zr3  1  0.96309390  0.36747625  0.26144038  1
  Zr  Zr4  1  0.00541046  0.38553046  0.74052371  1
  Zr  Zr5  1  0.38011700  0.99458954  0.74052371  1
  Tc  Tc0  1  0.66666700  0.33333300  0.51841948  1
  Tc  Tc1  1  0.00000000  0.00000000  0.72830123  1
  Tc  Tc2  1  0.00000000  0.00000000  0.28083773  1
  Sn  Sn0  1  0.28074053  0.28202189  0.50473084  1
  Sn  Sn1  1  0.25488180  0.26069676  0.00311291  1
  Sn  Sn2  1  0.73930324  0.99418504  0.00311291  1
  Sn  Sn3  1  0.00128136  0.71925947  0.50473084  1
  Sn  Sn4  1  0.71797811  0.99871864  0.50473084  1
  Sn  Sn5  1  0.00581496  0.74511820  0.00311291  1
  Au  Au0  1  0.66666700  0.33333300  0.94812897  1
  Au  Au1  1  0.33333300  0.66666700  0.03844568  1
  Au  Au2  1  0.33333300  0.66666700  0.45644539  1
loop_
_geom_bond_atom_site_label_1
_geom_bond_atom_site_label_2
_geom_bond_distance
_geom_bond_site_symmetry_2
Tc0 Zr2 2.838441 1_555
Tc0 Zr0 2.838444 1_555
Tc0 Zr3 2.838446 1_555
Tc0 Zr4 2.885928 1_655
Tc0 Zr5 2.885937 1_545
Tc0 Zr1 2.885953 1_555
Tc1 Zr5 2.880807 1_545
Tc1 Zr1 2.880819 1_445
Tc1 Zr4 2.880830 1_555
Tc2 Zr3 2.915997 1_455
Tc2 Zr2 2.916006 1_445
Tc2 Zr0 2.916013 1_555
Sn0 Tc1 2.682935 1_555
Sn0 Tc2 2.684399 1_555
Sn0 Tc0 2.731973 1_555
Sn0 Zr0 3.032823 1_555
Sn0 Zr1 3.066574 1_555
Sn0 Zr4 3.087242 1_555
Sn0 Zr2 3.089173 1_555
Sn0 Zr5 3.142064 1_545
Sn0 Zr3 3.297917 1_455
Sn1 Tc1 2.805260 1_554
Sn1 Tc2 2.820826 1_555
Sn1 Zr0 3.101695 1_555
Sn1 Zr4 3.148813 1_554
Sn1 Zr5 3.244900 1_544
Sn1 Zr3 3.294556 1_455
Sn1 Zr2 3.299751 1_555
Sn1 Zr1 3.325278 1_554
Sn1 Sn5 3.358768 1_545
Sn1 Sn2 3.358769 1_445
Sn2 Tc1 2.805260 1_664
Sn2 Tc2 2.820826 1_665
Sn2 Zr3 3.101686 1_565
Sn2 Zr1 3.148797 1_554
Sn2 Zr4 3.244914 1_664
Sn2 Zr2 3.294567 1_555
Sn2 Zr0 3.299744 1_565
Sn2 Zr5 3.325287 1_554
Sn2 Sn5 3.358768 1_655
Sn3 Tc1 2.682935 1_565
Sn3 Tc2 2.684399 1_565
Sn3 Tc0 2.731970 1_455
Sn3 Zr2 3.032811 1_455
Sn3 Zr4 3.066564 1_555
Sn3 Zr5 3.087229 1_555
Sn3 Zr3 3.089178 1_455
Sn3 Zr1 3.142082 1_455
Sn3 Zr0 3.297925 1_565
Sn4 Tc1 2.682935 1_665
Sn4 Tc2 2.684399 1_665
Sn4 Tc0 2.731965 1_565
Sn4 Zr3 3.032813 1_565
Sn4 Zr5 3.066583 1_555
Sn4 Zr1 3.087224 1_555
Sn4 Zr0 3.089166 1_565
Sn4 Zr4 3.142077 1_665
Sn4 Zr2 3.297929 1_555
Sn5 Tc1 2.805259 1_564
Sn5 Tc2 2.820826 1_565
Sn5 Zr2 3.101684 1_455
Sn5 Zr5 3.148800 1_554
Sn5 Zr1 3.244917 1_454
Sn5 Zr0 3.294564 1_565
Sn5 Zr3 3.299756 1_455
Sn5 Zr4 3.325269 1_554
Au0 Zr4 2.826587 1_655
Au0 Zr5 2.826596 1_545
Au0 Zr1 2.826612 1_555
Au0 Sn2 2.891794 1_546
Au0 Sn5 2.891799 1_656
Au0 Sn1 2.891802 1_556
Au0 Zr2 3.131242 1_556
Au0 Zr0 3.131245 1_556
Au0 Zr3 3.131247 1_556
Au0 Tc0 3.169640 1_555
Au1 Sn5 2.817266 1_555
Au1 Sn2 2.817271 1_555
Au1 Sn1 2.817274 1_555
Au1 Zr0 3.042503 1_565
Au1 Zr3 3.042510 1_455
Au1 Zr2 3.042522 1_555
Au1 Au2 3.083266 1_555
Au1 Zr1 3.188684 1_554
Au1 Zr4 3.188690 1_554
Au1 Zr5 3.188694 1_554
Au2 Sn3 2.740039 1_555
Au2 Sn4 2.740044 1_555
Au2 Sn0 2.740046 1_555
Au2 Zr0 2.936027 1_565
Au2 Zr3 2.936034 1_455
Au2 Zr2 2.936047 1_555
Au2 Zr1 3.119188 1_555
Au2 Zr4 3.119194 1_555
Au2 Zr5 3.119198 1_555
