# generated using pymatgen
data_Al13Pd12Rh
_symmetry_space_group_name_H-M   'P 1'
_cell_length_a   9.19028991
_cell_length_b   9.19029057
_cell_length_c   9.19029122
_cell_angle_alpha   116.45968302
_cell_angle_beta   116.45968798
_cell_angle_gamma   116.45968690
_symmetry_Int_Tables_number   1
_chemical_formula_structural   Al13Pd12Rh
_chemical_formula_sum   'Al13 Pd12 Rh1'
_cell_volume   370.22721514
_cell_formula_units_Z   1
loop_
 _symmetry_equiv_pos_site_id
 _symmetry_equiv_pos_as_xyz
  1  'x, y, z'
loop_
 _atom_site_type_symbol
 _atom_site_label
 _atom_site_symmetry_multiplicity
 _atom_site_fract_x
 _atom_site_fract_y
 _atom_site_fract_z
 _atom_site_occupancy
  Al  Al0  1  0.34378602  0.09818324  0.05609084  1
  Al  Al1  1  0.05609184  0.34378602  0.09818224  1
  Al  Al2  1  0.09818224  0.05609284  0.34378502  1
  Al  Al3  1  0.65621298  0.90181576  0.94390716  1
  Al  Al4  1  0.94390716  0.65621298  0.90181576  1
  Al  Al5  1  0.90181576  0.94390616  0.65621298  1
  Al  Al6  1  0.15476694  0.59708114  0.75253325  1
  Al  Al7  1  0.75253325  0.15476694  0.59708114  1
  Al  Al8  1  0.59708114  0.75253225  0.15476694  1
  Al  Al9  1  0.84523306  0.40291886  0.24746775  1
  Al  Al10  1  0.24746775  0.84523306  0.40291886  1
  Al  Al11  1  0.40291886  0.24746775  0.84523306  1
  Al  Al12  1  0.50000100  0.50000100  0.50000100  1
  Pd  Pd0  1  0.65314511  0.09793424  0.25028163  1
  Pd  Pd1  1  0.25028163  0.65314511  0.09793424  1
  Pd  Pd2  1  0.09793424  0.25028163  0.65314511  1
  Pd  Pd3  1  0.34685689  0.90206776  0.74972037  1
  Pd  Pd4  1  0.74972137  0.34685689  0.90206776  1
  Pd  Pd5  1  0.90206776  0.74972137  0.34685689  1
  Pd  Pd6  1  0.84509998  0.59837137  0.55635177  1
  Pd  Pd7  1  0.55635077  0.84509898  0.59837237  1
  Pd  Pd8  1  0.59837237  0.55635177  0.84509898  1
  Pd  Pd9  1  0.15490202  0.40163063  0.44365023  1
  Pd  Pd10  1  0.44365123  0.15490302  0.40162963  1
  Pd  Pd11  1  0.40163063  0.44365023  0.15490302  1
  Rh  Rh0  1  0.00000000  0.00000000  0.00000000  1
loop_
_geom_bond_atom_site_label_1
_geom_bond_atom_site_label_2
_geom_bond_distance
_geom_bond_site_symmetry_2
Al0 Rh0 2.579901 1_555
Al0 Pd11 2.585327 1_555
Al0 Pd10 2.588394 1_555
Al0 Pd0 2.599247 1_555
Al0 Pd3 2.602097 1_544
Al0 Pd6 2.622976 1_444
Al0 Pd6 2.629149 1_555
Al0 Al11 2.928506 1_554
Al0 Al5 2.989437 1_444
Al0 Al4 2.989453 1_444
Al0 Al12 2.995405 1_555
Al0 Al9 3.010096 1_555
Al0 Al6 3.018655 1_544
Al1 Rh0 2.579899 1_555
Al1 Pd9 2.585342 1_555
Al1 Pd11 2.588392 1_555
Al1 Pd1 2.599238 1_555
Al1 Pd4 2.602094 1_454
Al1 Pd7 2.622977 1_444
Al1 Pd7 2.629147 1_555
Al1 Al9 2.928521 1_455
Al1 Al5 2.989446 1_444
Al1 Al3 2.989453 1_444
Al1 Al12 2.995402 1_555
Al1 Al10 3.010101 1_555
Al1 Al7 3.018647 1_454
Al2 Rh0 2.579886 1_555
Al2 Pd10 2.585350 1_555
Al2 Pd9 2.588385 1_555
Al2 Pd2 2.599244 1_555
Al2 Pd5 2.602109 1_445
Al2 Pd8 2.622976 1_444
Al2 Pd8 2.629149 1_555
Al2 Al3 2.989431 1_444
Al2 Al4 2.989452 1_444
Al2 Al8 3.018650 1_445
Al3 Rh0 2.579898 1_666
Al3 Pd8 2.585329 1_555
Al3 Pd7 2.588380 1_555
Al3 Pd3 2.599240 1_555
Al3 Pd0 2.602109 1_566
Al3 Pd9 2.622993 1_666
Al3 Pd9 2.629131 1_555
Al3 Al8 2.928515 1_556
Al3 Al6 3.010103 1_555
Al3 Al9 3.018657 1_566
Al4 Rh0 2.579898 1_666
Al4 Pd6 2.585327 1_555
Al4 Pd8 2.588382 1_555
Al4 Pd4 2.599238 1_555
Al4 Pd1 2.602109 1_656
Al4 Pd10 2.622995 1_666
Al4 Pd10 2.629129 1_555
Al4 Al6 2.928508 1_655
Al4 Al7 3.010103 1_555
Al5 Rh0 2.579894 1_666
Al5 Pd7 2.585340 1_555
Al5 Pd6 2.588387 1_555
Al5 Pd5 2.599237 1_555
Al5 Pd2 2.602116 1_665
Al5 Pd11 2.622997 1_666
Al5 Pd11 2.629128 1_555
Al5 Al7 2.928517 1_565
Al5 Al8 3.010103 1_555
Al6 Pd3 2.582491 1_555
Al6 Pd9 2.597315 1_555
Al6 Pd2 2.600461 1_555
Al6 Pd1 2.601685 1_556
Al6 Pd6 2.612803 1_455
Al6 Pd0 2.620881 1_566
Al6 Pd0 2.631456 1_455
Al6 Al7 2.992981 1_455
Al6 Al8 2.992988 1_556
Al6 Al9 3.024984 1_455
Al7 Pd4 2.582484 1_555
Al7 Pd10 2.597316 1_555
Al7 Pd0 2.600462 1_555
Al7 Pd2 2.601685 1_655
Al7 Pd7 2.612820 1_545
Al7 Pd1 2.620882 1_656
Al7 Pd1 2.631456 1_545
Al7 Al8 2.992986 1_545
Al8 Pd5 2.582477 1_555
Al8 Pd11 2.597314 1_555
Al8 Pd1 2.600464 1_555
Al8 Pd0 2.601694 1_565
Al8 Pd8 2.612817 1_554
Al8 Pd2 2.620883 1_665
Al8 Pd2 2.631455 1_554
Al9 Pd0 2.582481 1_555
Al9 Pd6 2.597311 1_555
Al9 Pd5 2.600477 1_555
Al9 Pd4 2.601693 1_554
Al9 Pd9 2.612805 1_655
Al9 Pd3 2.620873 1_544
Al9 Pd3 2.631465 1_655
Al10 Pd1 2.582481 1_555
Al10 Pd7 2.597313 1_555
Al10 Pd3 2.600468 1_555
Al10 Pd5 2.601693 1_455
Al10 Pd10 2.612822 1_565
Al10 Pd4 2.620871 1_454
Al10 Pd4 2.631467 1_565
Al10 Al2 2.928532 1_565
Al10 Al9 2.992992 1_455
Al10 Al11 2.992992 1_565
Al10 Al4 3.018657 1_454
Al10 Al7 3.024983 1_565
Al11 Pd2 2.582480 1_555
Al11 Pd8 2.597320 1_555
Al11 Pd4 2.600476 1_555
Al11 Pd3 2.601691 1_545
Al11 Pd11 2.612813 1_556
Al11 Pd5 2.620871 1_445
Al11 Pd5 2.631467 1_556
Al11 Al9 2.992992 1_556
Al11 Al2 3.010114 1_555
Al11 Al5 3.018657 1_445
Al11 Al8 3.024976 1_556
Al12 Pd8 2.590025 1_555
Al12 Pd11 2.590027 1_555
Al12 Pd10 2.590029 1_555
Al12 Pd7 2.590029 1_555
Al12 Pd9 2.590036 1_555
Al12 Pd6 2.590036 1_555
Al12 Rh0 2.626038 1_666
Al12 Rh0 2.626049 1_555
Al12 Al5 2.995384 1_555
Al12 Al4 2.995389 1_555
Al12 Al3 2.995390 1_555
Al12 Al2 2.995391 1_555
Pd0 Pd10 2.924275 1_555
Pd0 Pd3 2.981989 1_544
Pd0 Pd6 2.999320 1_555
Pd0 Pd9 3.003357 1_655
Pd0 Pd1 3.028404 1_545
Pd0 Pd2 3.028404 1_655
Pd1 Pd11 2.924290 1_555
Pd1 Pd4 2.981980 1_454
Pd1 Pd7 2.999333 1_555
Pd1 Pd10 3.003361 1_565
Pd1 Pd2 3.028404 1_554
Pd2 Pd9 2.924288 1_555
Pd2 Pd5 2.981981 1_445
Pd2 Pd8 2.999332 1_555
Pd3 Pd7 2.924275 1_555
Pd3 Pd9 2.999320 1_555
Pd3 Pd6 3.003357 1_455
Pd3 Pd4 3.028407 1_565
Pd3 Pd5 3.028410 1_455
Pd4 Pd8 2.924290 1_555
Pd4 Pd7 3.003356 1_545
Pd4 Pd5 3.028414 1_556
Pd5 Pd6 2.924294 1_555
Pd5 Pd8 3.003361 1_554
Pd6 Rh0 3.001437 1_666
Pd7 Pd9 3.000873 1_555
Pd7 Rh0 3.001432 1_666
Pd8 Pd9 3.000890 1_555
Pd8 Rh0 3.001427 1_666
Pd9 Rh0 3.001443 1_555
Pd10 Pd4 2.999333 1_555
Pd10 Pd6 3.000873 1_555
Pd10 Pd8 3.000886 1_555
Pd10 Rh0 3.001438 1_555
Pd11 Pd5 2.999324 1_555
Pd11 Pd6 3.000885 1_555
Pd11 Pd7 3.000892 1_555
Pd11 Rh0 3.001437 1_555
Pd11 Pd2 3.003366 1_554
