# generated using pymatgen
data_Sc4GeAsSe2
_symmetry_space_group_name_H-M   'P 1'
_cell_length_a   6.73372322
_cell_length_b   6.73372313
_cell_length_c   6.73372329
_cell_angle_alpha   132.02843295
_cell_angle_beta   132.02842855
_cell_angle_gamma   70.18412272
_symmetry_Int_Tables_number   1
_chemical_formula_structural   Sc4GeAsSe2
_chemical_formula_sum   'Sc4 Ge1 As1 Se2'
_cell_volume   165.13656916
_cell_formula_units_Z   1
loop_
 _symmetry_equiv_pos_site_id
 _symmetry_equiv_pos_as_xyz
  1  'x, y, z'
loop_
 _atom_site_type_symbol
 _atom_site_label
 _atom_site_symmetry_multiplicity
 _atom_site_fract_x
 _atom_site_fract_y
 _atom_site_fract_z
 _atom_site_occupancy
  Sc  Sc0  1  0.75704257  0.75704257  1.00000000  1
  Sc  Sc1  1  0.24295843  0.24295843  0.00000000  1
  Sc  Sc2  1  0.00467823  0.50467823  0.50000000  1
  Sc  Sc3  1  0.49532177  0.99532177  0.50000000  1
  Ge  Ge0  1  0.00000000  0.00000000  0.00000000  1
  As  As0  1  0.25000000  0.75000000  0.50000000  1
  Se  Se0  1  0.50000000  0.50000000  0.00000000  1
  Se  Se1  1  0.75000000  0.25000000  0.50000000  1
loop_
_geom_bond_atom_site_label_1
_geom_bond_atom_site_label_2
_geom_bond_distance
_geom_bond_site_symmetry_2
Sc0 Se1 2.738425 1_566
Sc0 Se1 2.738425 1_555
Sc0 Se0 2.832470 1_556
Sc1 Se1 2.738425 1_454
Sc1 Se1 2.738425 1_555
Sc1 Se0 2.832459 1_555
Sc2 Se0 2.737811 1_556
Sc2 Se0 2.737811 1_455
Sc2 Se1 2.806417 1_455
Sc3 Se0 2.737811 1_555
Sc3 Se0 2.737811 1_566
Sc3 Se1 2.806417 1_565
Ge0 Sc0 2.677260 1_444
Ge0 Sc1 2.677271 1_555
Ge0 Sc2 2.737811 1_544
Ge0 Sc2 2.737811 1_555
Ge0 Sc3 2.737811 1_545
Ge0 Sc3 2.737811 1_444
As0 Sc3 2.703313 1_555
As0 Sc2 2.703313 1_555
As0 Sc1 2.738425 1_566
As0 Sc1 2.738425 1_555
As0 Sc0 2.738426 1_454
As0 Sc0 2.738426 1_555
