# generated using pymatgen
data_Ca3Ge4(AsPd10)2
_symmetry_space_group_name_H-M   'P 1'
_cell_length_a   8.76967755
_cell_length_b   8.82102840
_cell_length_c   8.82102767
_cell_angle_alpha   59.61522973
_cell_angle_beta   60.19238948
_cell_angle_gamma   60.19238546
_symmetry_Int_Tables_number   1
_chemical_formula_structural   Ca3Ge4(AsPd10)2
_chemical_formula_sum   'Ca3 Ge4 As2 Pd20'
_cell_volume   482.47829494
_cell_formula_units_Z   1
loop_
 _symmetry_equiv_pos_site_id
 _symmetry_equiv_pos_as_xyz
  1  'x, y, z'
loop_
 _atom_site_type_symbol
 _atom_site_label
 _atom_site_symmetry_multiplicity
 _atom_site_fract_x
 _atom_site_fract_y
 _atom_site_fract_z
 _atom_site_occupancy
  Ca  Ca0  1  0.25000000  0.25000000  0.25000000  1
  Ca  Ca1  1  0.75000000  0.75000000  0.75000000  1
  Ca  Ca2  1  0.00000000  0.00000000  0.00000000  1
  Ge  Ge0  1  0.26708483  0.73291517  0.26708483  1
  Ge  Ge1  1  0.73291517  0.26708483  0.73291517  1
  Ge  Ge2  1  0.26708483  0.26708483  0.73291517  1
  Ge  Ge3  1  0.73291517  0.73291517  0.26708483  1
  As  As0  1  0.73513586  0.26486414  0.26486414  1
  As  As1  1  0.26486414  0.73513586  0.73513586  1
  Pd  Pd0  1  0.34866864  0.00000000  0.00000000  1
  Pd  Pd1  1  0.65133136  0.00000000  1.00000000  1
  Pd  Pd2  1  1.00000000  0.34866864  0.65133136  1
  Pd  Pd3  1  0.00000000  0.65133136  0.34866864  1
  Pd  Pd4  1  0.00187218  0.34788004  0.99812782  1
  Pd  Pd5  1  0.65211996  0.99812782  0.34788004  1
  Pd  Pd6  1  0.99812782  0.65211996  0.00187218  1
  Pd  Pd7  1  0.34788004  0.00187218  0.65211996  1
  Pd  Pd8  1  0.00187218  0.99812782  0.34788004  1
  Pd  Pd9  1  0.99812782  0.00187218  0.65211996  1
  Pd  Pd10  1  0.65211996  0.34788004  0.99812782  1
  Pd  Pd11  1  0.34788004  0.65211996  0.00187218  1
  Pd  Pd12  1  0.38384716  0.38366434  0.38366434  1
  Pd  Pd13  1  0.61615284  0.61633566  0.61633566  1
  Pd  Pd14  1  0.38366434  0.38384716  0.84882316  1
  Pd  Pd15  1  0.38366434  0.84882316  0.38384716  1
  Pd  Pd16  1  0.61633566  0.61615284  0.15117684  1
  Pd  Pd17  1  0.61633566  0.15117684  0.61615284  1
  Pd  Pd18  1  0.84882316  0.38366434  0.38366434  1
  Pd  Pd19  1  0.15117684  0.61633566  0.61633566  1
loop_
_geom_bond_atom_site_label_1
_geom_bond_atom_site_label_2
_geom_bond_distance
_geom_bond_site_symmetry_2
Ca0 Pd12 2.883799 1_555
Ca0 Pd14 2.883806 1_554
Ca0 Pd15 2.883806 1_545
Ca0 Pd18 2.883806 1_455
Ca0 Pd7 3.378574 1_555
Ca0 Pd4 3.378574 1_554
Ca0 Pd6 3.378574 1_455
Ca0 Pd5 3.378575 1_545
Ca0 Pd11 3.378575 1_555
Ca0 Pd9 3.378575 1_455
Ca0 Pd8 3.378575 1_545
Ca0 Pd10 3.378575 1_554
Ca0 Pd0 3.405950 1_555
Ca0 Pd2 3.405950 1_455
Ca0 Pd3 3.405950 1_555
Ca0 Pd1 3.405950 1_554
Ca1 Pd13 2.883799 1_555
Ca1 Pd16 2.883806 1_556
Ca1 Pd17 2.883806 1_565
Ca1 Pd19 2.883806 1_655
Ca1 Pd5 3.378574 1_555
Ca1 Pd6 3.378574 1_556
Ca1 Pd4 3.378574 1_655
Ca1 Pd7 3.378575 1_565
Ca1 Pd10 3.378575 1_555
Ca1 Pd8 3.378575 1_655
Ca1 Pd9 3.378575 1_565
Ca1 Pd11 3.378575 1_556
Ca1 Pd1 3.405950 1_565
Ca1 Pd3 3.405950 1_655
Ca1 Pd2 3.405950 1_555
Ca1 Pd0 3.405950 1_566
Ca2 Pd3 3.057711 1_545
Ca2 Pd2 3.057711 1_454
Ca2 Pd0 3.057712 1_555
Ca2 Pd1 3.057712 1_454
Ca2 Pd8 3.068512 1_545
Ca2 Pd9 3.068512 1_454
Ca2 Pd4 3.068512 1_554
Ca2 Pd6 3.068512 1_445
Ca2 Pd11 3.068512 1_545
Ca2 Pd10 3.068512 1_454
Ca2 Pd7 3.068513 1_554
Ca2 Pd5 3.068513 1_445
Ge0 Pd0 2.449084 1_565
Ge0 Pd3 2.449084 1_555
Ge0 Pd11 2.453501 1_555
Ge0 Pd8 2.453501 1_555
Ge0 Pd15 2.510534 1_555
Ge0 Pd19 2.510541 1_555
Ge0 Pd12 2.510541 1_555
Ge0 Pd16 2.510541 1_555
Ge1 Pd1 2.449084 1_555
Ge1 Pd2 2.449084 1_555
Ge1 Pd10 2.453501 1_555
Ge1 Pd9 2.453501 1_555
Ge1 Pd17 2.510534 1_555
Ge1 Pd18 2.510541 1_555
Ge1 Pd13 2.510541 1_555
Ge1 Pd14 2.510541 1_555
Ge2 Pd0 2.449084 1_556
Ge2 Pd2 2.449084 1_455
Ge2 Pd7 2.453501 1_555
Ge2 Pd4 2.453501 1_555
Ge2 Pd14 2.510534 1_555
Ge2 Pd12 2.510541 1_555
Ge2 Pd19 2.510541 1_555
Ge2 Pd17 2.510541 1_555
Ge3 Pd1 2.449084 1_564
Ge3 Pd3 2.449084 1_655
Ge3 Pd5 2.453501 1_555
Ge3 Pd6 2.453501 1_555
Ge3 Pd16 2.510534 1_555
Ge3 Pd13 2.510541 1_555
Ge3 Pd18 2.510541 1_555
Ge3 Pd15 2.510541 1_555
As0 Pd10 2.456079 1_554
As0 Pd8 2.456079 1_645
As0 Pd5 2.456079 1_545
As0 Pd4 2.456079 1_654
As0 Pd18 2.525614 1_555
As0 Pd17 2.525621 1_555
As0 Pd12 2.525621 1_555
As0 Pd16 2.525621 1_555
As0 Ca2 3.323255 1_655
As1 Pd11 2.456079 1_556
As1 Pd9 2.456079 1_465
As1 Pd7 2.456079 1_565
As1 Pd6 2.456079 1_456
As1 Pd19 2.525614 1_555
As1 Pd15 2.525621 1_555
As1 Pd13 2.525621 1_555
As1 Pd14 2.525621 1_555
As1 Ca2 3.323255 1_566
Pd0 Pd1 2.654255 1_554
Pd0 Pd7 3.063774 1_554
Pd0 Pd11 3.063774 1_545
Pd0 Pd4 3.063774 1_554
Pd0 Pd8 3.063774 1_545
Pd0 Pd15 3.065216 1_545
Pd0 Pd14 3.065216 1_554
Pd0 Pd16 3.065220 1_545
Pd0 Pd17 3.065220 1_554
Pd1 Pd5 3.063774 1_546
Pd1 Pd10 3.063774 1_555
Pd1 Pd6 3.063774 1_546
Pd1 Pd9 3.063774 1_555
Pd1 Pd17 3.065216 1_555
Pd1 Pd16 3.065216 1_546
Pd1 Pd14 3.065220 1_555
Pd1 Pd15 3.065220 1_546
Pd2 Pd3 2.654254 1_655
Pd2 Pd4 3.063774 1_655
Pd2 Pd9 3.063774 1_555
Pd2 Pd7 3.063774 1_655
Pd3 Pd6 3.063774 1_455
Pd3 Pd8 3.063774 1_555
Pd3 Pd5 3.063774 1_455
Pd4 Pd6 2.684296 1_456
Pd5 Pd7 2.684296 1_565
Pd8 Pd9 2.684295 1_465
Pd10 Pd11 2.684296 1_556
Pd10 Pd2 3.063774 1_555
Pd11 Pd3 3.063774 1_555
Pd12 Pd3 3.065217 1_555
Pd12 Pd2 3.065218 1_455
Pd13 Pd2 3.065217 1_555
Pd13 Pd3 3.065218 1_655
Pd18 Pd2 3.065224 1_555
Pd18 Pd3 3.065224 1_655
Pd19 Pd3 3.065224 1_555
Pd19 Pd2 3.065224 1_455
