# generated using pymatgen
data_TiPb2(SeO3)4
_symmetry_space_group_name_H-M   'P 1'
_cell_length_a   6.75168402
_cell_length_b   9.07969612
_cell_length_c   9.52097432
_cell_angle_alpha   83.92798902
_cell_angle_beta   90.00000000
_cell_angle_gamma   90.00000000
_symmetry_Int_Tables_number   1
_chemical_formula_structural   TiPb2(SeO3)4
_chemical_formula_sum   'Ti2 Pb4 Se8 O24'
_cell_volume   580.39204294
_cell_formula_units_Z   2
loop_
 _symmetry_equiv_pos_site_id
 _symmetry_equiv_pos_as_xyz
  1  'x, y, z'
loop_
 _atom_site_type_symbol
 _atom_site_label
 _atom_site_symmetry_multiplicity
 _atom_site_fract_x
 _atom_site_fract_y
 _atom_site_fract_z
 _atom_site_occupancy
  Ti  Ti0  1  0.00000000  0.00000000  0.50000000  1
  Ti  Ti1  1  0.50000000  0.00000000  0.00000000  1
  Pb  Pb0  1  0.23873788  0.53491280  0.59755738  1
  Pb  Pb1  1  0.73873788  0.46508720  0.90244262  1
  Pb  Pb2  1  0.76126212  0.46508720  0.40244262  1
  Pb  Pb3  1  0.26126212  0.53491280  0.09755738  1
  Se  Se0  1  0.18543161  0.83516015  0.79409662  1
  Se  Se1  1  0.68543161  0.16483985  0.70590338  1
  Se  Se2  1  0.81456839  0.16483985  0.20590338  1
  Se  Se3  1  0.31456839  0.83516015  0.29409662  1
  Se  Se4  1  0.18422960  0.24254979  0.86695683  1
  Se  Se5  1  0.68422960  0.75745021  0.63304317  1
  Se  Se6  1  0.81577040  0.75745021  0.13304317  1
  Se  Se7  1  0.31577040  0.24254979  0.36695683  1
  O  O0  1  0.37412448  0.95883524  0.82725300  1
  O  O1  1  0.87412448  0.04116476  0.67274700  1
  O  O2  1  0.62587552  0.04116476  0.17274700  1
  O  O3  1  0.12587552  0.95883524  0.32725300  1
  O  O4  1  0.18903077  0.86668037  0.61162495  1
  O  O5  1  0.68903077  0.13331963  0.88837505  1
  O  O6  1  0.81096923  0.13331963  0.38837505  1
  O  O7  1  0.31096923  0.86668037  0.11162495  1
  O  O8  1  0.30520363  0.67199941  0.81436693  1
  O  O9  1  0.80520363  0.32800059  0.68563307  1
  O  O10  1  0.69479637  0.32800059  0.18563307  1
  O  O11  1  0.19479637  0.67199941  0.31436693  1
  O  O12  1  0.35912457  0.34732018  0.77453776  1
  O  O13  1  0.85912457  0.65267982  0.72546224  1
  O  O14  1  0.64087543  0.65267982  0.22546224  1
  O  O15  1  0.14087543  0.34732018  0.27453776  1
  O  O16  1  0.05997888  0.37720510  0.94629459  1
  O  O17  1  0.55997888  0.62279490  0.55370541  1
  O  O18  1  0.94002112  0.62279490  0.05370541  1
  O  O19  1  0.44002112  0.37720510  0.44629459  1
  O  O20  1  0.32302567  0.17214873  0.01084178  1
  O  O21  1  0.82302567  0.82785127  0.48915822  1
  O  O22  1  0.67697433  0.82785127  0.98915822  1
  O  O23  1  0.17697433  0.17214873  0.51084178  1
loop_
_geom_bond_atom_site_label_1
_geom_bond_atom_site_label_2
_geom_bond_distance
_geom_bond_site_symmetry_2
O0 Se0 1.748911 1_555
O0 Ti1 1.922794 1_566
O1 Se1 1.748911 1_555
O1 Ti0 1.922794 1_655
O2 Se2 1.748911 1_555
O2 Ti1 1.922794 1_555
O3 Se3 1.748911 1_555
O3 Ti0 1.922794 1_565
O4 Se0 1.730766 1_555
O4 Ti0 1.987845 1_565
O5 Se1 1.730766 1_555
O5 Ti1 1.987845 1_556
O6 Se2 1.730766 1_555
O6 Ti0 1.987845 1_655
O7 Se3 1.730766 1_555
O7 Ti1 1.987845 1_565
O8 Se0 1.680890 1_555
O8 Pb0 2.560335 1_555
O9 Se1 1.680890 1_555
O9 Pb1 2.560335 1_555
O10 Se2 1.680890 1_555
O10 Pb2 2.560335 1_555
O11 Se3 1.680890 1_555
O11 Pb3 2.560335 1_555
O12 Se4 1.701907 1_555
O12 Pb0 2.407066 1_555
O13 Se5 1.701907 1_555
O13 Pb1 2.407066 1_555
O14 Se6 1.701907 1_555
O14 Pb2 2.407066 1_555
O15 Se7 1.701907 1_555
O15 Pb3 2.407066 1_555
O16 Se4 1.721786 1_555
O16 Pb1 2.333400 1_455
O16 Pb3 2.531343 1_556
O17 Se5 1.721786 1_555
O17 Pb0 2.333400 1_555
O17 Pb2 2.531343 1_555
O18 Se6 1.721786 1_555
O18 Pb3 2.333400 1_655
O18 Pb1 2.531343 1_554
O19 Se7 1.721786 1_555
O19 Pb2 2.333400 1_555
O19 Pb0 2.531343 1_555
O20 Se4 1.725749 1_554
O20 Ti1 1.978804 1_555
O21 Se5 1.725749 1_555
O21 Ti0 1.978804 1_665
O22 Se6 1.725749 1_556
O22 Ti1 1.978804 1_566
O23 Se7 1.725749 1_555
O23 Ti0 1.978804 1_555
