# generated using pymatgen
data_Hf3Zr8Si16Mo9
_symmetry_space_group_name_H-M   'P 1'
_cell_length_a   6.78077147
_cell_length_b   6.78077092
_cell_length_c   12.62799116
_cell_angle_alpha   90.15302907
_cell_angle_beta   89.84697202
_cell_angle_gamma   89.66848733
_symmetry_Int_Tables_number   1
_chemical_formula_structural   Hf3Zr8Si16Mo9
_chemical_formula_sum   'Hf3 Zr8 Si16 Mo9'
_cell_volume   580.60672759
_cell_formula_units_Z   1
loop_
 _symmetry_equiv_pos_site_id
 _symmetry_equiv_pos_as_xyz
  1  'x, y, z'
loop_
 _atom_site_type_symbol
 _atom_site_label
 _atom_site_symmetry_multiplicity
 _atom_site_fract_x
 _atom_site_fract_y
 _atom_site_fract_z
 _atom_site_occupancy
  Hf  Hf0  1  0.83337259  0.83337259  0.50000000  1
  Hf  Hf1  1  0.33437053  0.66337674  0.24670590  1
  Hf  Hf2  1  0.66337674  0.33437053  0.75329410  1
  Zr  Zr0  1  0.00909975  0.33466264  0.21639031  1
  Zr  Zr1  1  0.99766715  0.66424784  0.71912934  1
  Zr  Zr2  1  0.16109832  0.50253458  0.46837567  1
  Zr  Zr3  1  0.49594782  0.84028469  0.03325368  1
  Zr  Zr4  1  0.84028469  0.49594782  0.96674632  1
  Zr  Zr5  1  0.50253458  0.16109832  0.53162433  1
  Zr  Zr6  1  0.33466264  0.00909975  0.78360969  1
  Zr  Zr7  1  0.66424784  0.99766715  0.28087066  1
  Si  Si0  1  0.37365134  0.28594947  0.32496123  1
  Si  Si1  1  0.62435960  0.71383222  0.82379871  1
  Si  Si2  1  0.21095626  0.87294952  0.57366409  1
  Si  Si3  1  0.12248993  0.80049633  0.92981027  1
  Si  Si4  1  0.80049633  0.12248993  0.07018973  1
  Si  Si5  1  0.87294952  0.21095626  0.42633591  1
  Si  Si6  1  0.28594947  0.37365134  0.67503877  1
  Si  Si7  1  0.71383222  0.62435960  0.17620129  1
  Si  Si8  1  0.29083318  0.04399083  0.18397379  1
  Si  Si9  1  0.70225167  0.95888704  0.68905019  1
  Si  Si10  1  0.45605900  0.79512465  0.43722692  1
  Si  Si11  1  0.22164156  0.52689243  0.05419251  1
  Si  Si12  1  0.52689243  0.22164156  0.94580749  1
  Si  Si13  1  0.79512465  0.45605900  0.56277308  1
  Si  Si14  1  0.04399083  0.29083318  0.81602621  1
  Si  Si15  1  0.95888704  0.70225167  0.31094981  1
  Mo  Mo0  1  0.16881775  0.16881775  0.00000000  1
  Mo  Mo1  1  0.15871725  0.99563712  0.37661604  1
  Mo  Mo2  1  0.82693835  0.00614596  0.87640679  1
  Mo  Mo3  1  0.50448290  0.65974728  0.62444022  1
  Mo  Mo4  1  0.33021219  0.51227552  0.86156873  1
  Mo  Mo5  1  0.51227552  0.33021219  0.13843127  1
  Mo  Mo6  1  0.65974728  0.50448290  0.37555978  1
  Mo  Mo7  1  0.99563712  0.15871725  0.62338396  1
  Mo  Mo8  1  0.00614596  0.82693835  0.12359321  1
loop_
_geom_bond_atom_site_label_1
_geom_bond_atom_site_label_2
_geom_bond_distance
_geom_bond_site_symmetry_2
Hf0 Si15 2.680152 1_555
Hf0 Si9 2.680152 1_555
Hf0 Si13 2.694226 1_555
Hf0 Si10 2.694226 1_555
Hf0 Si5 2.740778 1_565
Hf0 Si2 2.740778 1_655
Hf0 Mo7 2.919584 1_565
Hf0 Mo1 2.919584 1_655
Hf0 Mo6 2.974973 1_555
Hf0 Mo3 2.974973 1_555
Hf1 Si15 2.681449 1_455
Hf1 Si10 2.697209 1_555
Hf1 Si11 2.712364 1_555
Hf1 Si8 2.716409 1_565
Hf1 Si7 2.731641 1_555
Hf1 Si0 2.757585 1_555
Hf1 Mo5 2.893349 1_555
Hf1 Mo8 2.932495 1_555
Hf1 Mo6 2.945730 1_555
Hf1 Mo1 3.020692 1_555
Hf2 Si9 2.681448 1_545
Hf2 Si13 2.697209 1_555
Hf2 Si12 2.712364 1_555
Hf2 Si14 2.716409 1_655
Hf2 Si1 2.731641 1_555
Hf2 Si6 2.757585 1_555
Hf2 Mo4 2.893349 1_555
Hf2 Mo2 2.932495 1_555
Hf2 Mo3 2.945730 1_555
Hf2 Mo7 3.020692 1_555
Si0 Si8 2.485423 1_555
Si0 Zr2 2.731539 1_555
Si0 Zr7 2.820930 1_545
Si0 Zr0 2.847877 1_555
Si0 Zr5 2.882121 1_555
Si1 Si9 2.440490 1_555
Si1 Zr4 2.754696 1_555
Si1 Zr6 2.844314 1_565
Si1 Zr1 2.870114 1_555
Si1 Zr3 2.907977 1_556
Si2 Zr1 2.737163 1_455
Si2 Zr5 2.837800 1_565
Si2 Zr2 2.860962 1_555
Si2 Zr6 2.931299 1_565
Si3 Zr6 2.739063 1_565
Si3 Zr4 2.861807 1_455
Si3 Zr3 2.866281 1_556
Si3 Zr1 2.942109 1_455
Si4 Zr0 2.739063 1_655
Si4 Zr3 2.861807 1_545
Si4 Zr4 2.866281 1_554
Si4 Zr7 2.942109 1_545
Si5 Zr7 2.737163 1_545
Si5 Zr2 2.837800 1_655
Si5 Zr5 2.860962 1_555
Si5 Zr0 2.931299 1_655
Si6 Zr5 2.731539 1_555
Si6 Zr1 2.820930 1_455
Si6 Zr6 2.847877 1_555
Si6 Zr2 2.882121 1_555
Si7 Zr3 2.754696 1_555
Si7 Zr0 2.844314 1_655
Si7 Zr7 2.870114 1_555
Si7 Zr4 2.907977 1_554
Si8 Zr3 2.722954 1_545
Si8 Zr0 2.765824 1_555
Si8 Zr7 2.831345 1_545
Si9 Zr5 2.770107 1_565
Si9 Zr6 2.779684 1_565
Si9 Zr1 2.847842 1_555
Si10 Si2 2.445170 1_555
Si10 Zr5 2.770164 1_565
Si10 Zr7 2.792777 1_555
Si10 Zr2 2.852552 1_555
Si11 Si3 2.523454 1_554
Si11 Zr4 2.823222 1_454
Si11 Zr0 2.826935 1_555
Si11 Zr3 2.844549 1_555
Si12 Si4 2.523454 1_556
Si12 Zr3 2.823222 1_546
Si12 Zr6 2.826935 1_555
Si12 Zr4 2.844549 1_555
Si13 Si5 2.445169 1_555
Si13 Zr2 2.770164 1_655
Si13 Zr1 2.792776 1_555
Si13 Zr5 2.852552 1_555
Si14 Si6 2.485423 1_555
Si14 Zr4 2.722954 1_455
Si14 Zr6 2.765824 1_555
Si14 Zr1 2.831345 1_455
Si15 Si7 2.440490 1_555
Si15 Zr2 2.770107 1_655
Si15 Zr0 2.779684 1_655
Si15 Zr7 2.847842 1_555
Mo0 Si11 2.548414 1_555
Mo0 Si12 2.548414 1_554
Mo0 Si8 2.609783 1_555
Mo0 Si14 2.609783 1_554
Mo0 Si3 2.668440 1_544
Mo0 Si4 2.668440 1_455
Mo1 Si5 2.497307 1_465
Mo1 Si0 2.541593 1_565
Mo1 Si10 2.545896 1_555
Mo1 Si15 2.551406 1_455
Mo1 Si8 2.612282 1_565
Mo1 Si2 2.649841 1_555
Mo1 Zr0 3.227487 1_565
Mo1 Zr5 3.250916 1_565
Mo2 Si1 2.507259 1_545
Mo2 Si3 2.528934 1_645
Mo2 Si9 2.534747 1_545
Mo2 Si14 2.551218 1_655
Mo2 Si4 2.574581 1_556
Mo2 Si12 2.644209 1_555
Mo3 Si13 2.520427 1_555
Mo3 Si6 2.530279 1_555
Mo3 Si2 2.537918 1_555
Mo3 Si10 2.559653 1_555
Mo3 Si9 2.570391 1_555
Mo3 Si1 2.672541 1_555
Mo3 Zr2 3.237886 1_555
Mo3 Zr6 3.302767 1_565
Mo4 Si1 2.470536 1_555
Mo4 Si14 2.527289 1_555
Mo4 Si11 2.541048 1_556
Mo4 Si3 2.549260 1_555
Mo4 Si6 2.552887 1_555
Mo4 Si12 2.604288 1_555
Mo4 Zr1 3.063759 1_455
Mo5 Si7 2.470535 1_555
Mo5 Si8 2.527288 1_555
Mo5 Si12 2.541048 1_554
Mo5 Si4 2.549260 1_555
Mo5 Si0 2.552887 1_555
Mo5 Si11 2.604288 1_555
Mo5 Zr7 3.063759 1_545
Mo6 Si10 2.520426 1_555
Mo6 Si0 2.530279 1_555
Mo6 Si5 2.537918 1_555
Mo6 Si13 2.559653 1_555
Mo6 Si15 2.570391 1_555
Mo6 Si7 2.672541 1_555
Mo6 Zr5 3.237886 1_555
Mo6 Zr0 3.302767 1_655
Mo7 Si2 2.497307 1_645
Mo7 Si6 2.541593 1_655
Mo7 Si13 2.545896 1_555
Mo7 Si9 2.551406 1_545
Mo7 Si14 2.612282 1_655
Mo7 Si5 2.649841 1_555
Mo7 Zr6 3.227487 1_655
Mo7 Zr2 3.250916 1_655
Mo8 Si7 2.507259 1_455
Mo8 Si4 2.528933 1_465
Mo8 Si15 2.534747 1_455
Mo8 Si8 2.551218 1_565
Mo8 Si3 2.574581 1_554
Mo8 Si11 2.644209 1_555
