# generated using pymatgen
data_Nb3Ni2MoN
_symmetry_space_group_name_H-M   'P 1'
_cell_length_a   8.14448152
_cell_length_b   8.14448059
_cell_length_c   8.14448088
_cell_angle_alpha   59.99999883
_cell_angle_beta   60.00000260
_cell_angle_gamma   60.00000029
_symmetry_Int_Tables_number   1
_chemical_formula_structural   Nb3Ni2MoN
_chemical_formula_sum   'Nb12 Ni8 Mo4 N4'
_cell_volume   382.01045702
_cell_formula_units_Z   4
loop_
 _symmetry_equiv_pos_site_id
 _symmetry_equiv_pos_as_xyz
  1  'x, y, z'
loop_
 _atom_site_type_symbol
 _atom_site_label
 _atom_site_symmetry_multiplicity
 _atom_site_fract_x
 _atom_site_fract_y
 _atom_site_fract_z
 _atom_site_occupancy
  Nb  Nb0  1  0.31209907  0.68790093  0.68790093  1
  Nb  Nb1  1  0.56209907  0.56209907  0.93790093  1
  Nb  Nb2  1  0.31209907  0.68790093  0.31209907  1
  Nb  Nb3  1  0.31209907  0.31209907  0.68790093  1
  Nb  Nb4  1  0.68790093  0.31209907  0.31209907  1
  Nb  Nb5  1  0.93790093  0.93790093  0.56209907  1
  Nb  Nb6  1  0.93790093  0.56209907  0.93790093  1
  Nb  Nb7  1  0.93790093  0.56209907  0.56209907  1
  Nb  Nb8  1  0.56209907  0.93790093  0.93790093  1
  Nb  Nb9  1  0.68790093  0.68790093  0.31209907  1
  Nb  Nb10  1  0.68790093  0.31209907  0.68790093  1
  Nb  Nb11  1  0.56209907  0.93790093  0.56209907  1
  Ni  Ni0  1  0.01386287  0.32871271  0.32871271  1
  Ni  Ni1  1  0.92128729  0.92128729  0.92128729  1
  Ni  Ni2  1  0.32871271  0.32871271  0.01386287  1
  Ni  Ni3  1  0.92128729  0.92128729  0.23613713  1
  Ni  Ni4  1  0.23613713  0.92128729  0.92128729  1
  Ni  Ni5  1  0.32871271  0.01386287  0.32871271  1
  Ni  Ni6  1  0.92128729  0.23613713  0.92128729  1
  Ni  Ni7  1  0.32871271  0.32871271  0.32871271  1
  Mo  Mo0  1  0.12500000  0.12500000  0.62500000  1
  Mo  Mo1  1  0.12500000  0.12500000  0.12500000  1
  Mo  Mo2  1  0.62500000  0.12500000  0.12500000  1
  Mo  Mo3  1  0.12500000  0.62500000  0.12500000  1
  N  N0  1  0.62500000  0.12500000  0.62500000  1
  N  N1  1  0.62500000  0.62500000  0.12500000  1
  N  N2  1  0.12500000  0.62500000  0.62500000  1
  N  N3  1  0.62500000  0.62500000  0.62500000  1
loop_
_geom_bond_atom_site_label_1
_geom_bond_atom_site_label_2
_geom_bond_distance
_geom_bond_site_symmetry_2
Nb0 Ni2 2.796650 1_556
Nb0 Ni5 2.796650 1_565
Nb0 Ni4 2.978262 1_555
Nb0 Ni1 2.978266 1_455
Nb1 Ni4 2.796650 1_555
Nb1 Ni6 2.796650 1_555
Nb1 Ni2 2.978262 1_556
Nb1 Ni7 2.978266 1_556
Nb2 Ni7 2.796646 1_555
Nb2 Ni5 2.796654 1_565
Nb2 Ni4 2.978269 1_554
Nb2 Ni3 2.978269 1_455
Nb3 Ni7 2.796646 1_555
Nb3 Ni2 2.796655 1_556
Nb3 Ni4 2.978269 1_545
Nb3 Ni6 2.978270 1_455
Nb4 Ni7 2.796647 1_555
Nb4 Ni0 2.796655 1_655
Nb4 Ni3 2.978269 1_545
Nb4 Ni6 2.978269 1_554
Nb5 Ni1 2.796646 1_555
Nb5 Ni3 2.796655 1_555
Nb5 Ni0 2.978269 1_665
Nb5 Ni5 2.978270 1_665
Nb6 Ni1 2.796646 1_555
Nb6 Ni6 2.796654 1_555
Nb6 Ni0 2.978269 1_656
Nb6 Ni2 2.978269 1_656
Nb7 Ni3 2.796650 1_555
Nb7 Ni6 2.796650 1_555
Nb7 Ni0 2.978262 1_655
Nb7 Ni7 2.978266 1_655
Nb8 Ni1 2.796647 1_555
Nb8 Ni4 2.796655 1_555
Nb8 Ni2 2.978269 1_566
Nb8 Ni5 2.978269 1_566
Nb9 Ni0 2.796650 1_655
Nb9 Ni5 2.796650 1_565
Nb9 Ni3 2.978262 1_555
Nb9 Ni1 2.978266 1_554
Nb10 Ni0 2.796650 1_655
Nb10 Ni2 2.796650 1_556
Nb10 Ni6 2.978262 1_555
Nb10 Ni1 2.978266 1_545
Nb11 Ni4 2.796650 1_555
Nb11 Ni3 2.796650 1_555
Nb11 Ni5 2.978262 1_565
Nb11 Ni7 2.978266 1_565
Ni0 Ni5 2.564289 1_555
Ni0 Ni2 2.564289 1_555
Ni0 Ni7 2.564289 1_555
Ni1 Ni6 2.564288 1_565
Ni1 Ni3 2.564288 1_556
Ni1 Ni4 2.564289 1_655
Ni2 Ni5 2.564288 1_555
Ni2 Ni7 2.564288 1_555
Ni3 Ni6 2.564288 1_564
Ni3 Ni4 2.564289 1_654
Ni4 Ni6 2.564289 1_465
Ni5 Ni7 2.564288 1_555
Mo0 Ni4 2.464530 1_545
Mo0 Ni0 2.464530 1_555
Mo0 Ni6 2.464530 1_455
Mo0 Ni5 2.464530 1_555
Mo0 Ni7 2.464534 1_555
Mo0 Ni1 2.464534 1_445
Mo0 Nb7 2.964771 1_455
Mo0 Nb0 2.964771 1_545
Mo0 Nb3 2.964771 1_555
Mo0 Nb5 2.964771 1_445
Mo0 Nb11 2.964772 1_545
Mo0 Nb10 2.964772 1_455
Mo1 Ni0 2.464536 1_555
Mo1 Ni4 2.464536 1_544
Mo1 Ni5 2.464536 1_555
Mo1 Ni6 2.464536 1_454
Mo1 Ni2 2.464536 1_555
Mo1 Ni3 2.464536 1_445
Mo1 Nb6 2.964771 1_454
Mo1 Nb2 2.964771 1_545
Mo1 Nb5 2.964771 1_445
Mo1 Nb3 2.964771 1_554
Mo1 Nb8 2.964772 1_544
Mo1 Nb4 2.964772 1_455
Mo2 Ni3 2.464530 1_545
Mo2 Ni2 2.464530 1_555
Mo2 Ni6 2.464530 1_554
Mo2 Ni5 2.464530 1_555
Mo2 Ni7 2.464534 1_555
Mo2 Ni1 2.464534 1_544
Mo2 Nb1 2.964771 1_554
Mo2 Nb9 2.964771 1_545
Mo2 Nb11 2.964771 1_545
Mo2 Nb10 2.964771 1_554
Mo2 Nb4 2.964771 1_555
Mo2 Nb8 2.964771 1_544
Mo3 Ni4 2.464529 1_554
Mo3 Ni0 2.464529 1_555
Mo3 Ni3 2.464530 1_455
Mo3 Ni2 2.464530 1_555
Mo3 Ni7 2.464534 1_555
Mo3 Ni1 2.464534 1_454
Mo3 Nb2 2.964772 1_555
Mo3 Nb6 2.964772 1_454
Mo3 Nb7 2.964772 1_455
Mo3 Nb0 2.964772 1_554
Mo3 Nb1 2.964772 1_554
Mo3 Nb9 2.964772 1_455
N0 Nb8 2.161175 1_545
N0 Nb4 2.161175 1_555
N0 Nb10 2.161175 1_555
N0 Nb11 2.161175 1_545
N0 Nb5 2.161175 1_545
N0 Nb3 2.161175 1_555
N1 Nb8 2.161175 1_554
N1 Nb4 2.161175 1_555
N1 Nb9 2.161175 1_555
N1 Nb1 2.161175 1_554
N1 Nb6 2.161176 1_554
N1 Nb2 2.161176 1_555
N2 Nb5 2.161175 1_455
N2 Nb3 2.161175 1_555
N2 Nb0 2.161175 1_555
N2 Nb7 2.161175 1_455
N2 Nb6 2.161175 1_455
N2 Nb2 2.161175 1_555
N3 Nb11 2.161175 1_555
N3 Nb10 2.161175 1_555
N3 Nb1 2.161175 1_555
N3 Nb9 2.161175 1_555
N3 Nb7 2.161176 1_555
N3 Nb0 2.161176 1_555
