# generated using pymatgen
data_Li2InIr
_symmetry_space_group_name_H-M   'P 1'
_cell_length_a   4.43131762
_cell_length_b   4.43131746
_cell_length_c   4.43131791
_cell_angle_alpha   60.00000416
_cell_angle_beta   60.00000538
_cell_angle_gamma   60.00001543
_symmetry_Int_Tables_number   1
_chemical_formula_structural   Li2InIr
_chemical_formula_sum   'Li2 In1 Ir1'
_cell_volume   61.52954958
_cell_formula_units_Z   1
loop_
 _symmetry_equiv_pos_site_id
 _symmetry_equiv_pos_as_xyz
  1  'x, y, z'
loop_
 _atom_site_type_symbol
 _atom_site_label
 _atom_site_symmetry_multiplicity
 _atom_site_fract_x
 _atom_site_fract_y
 _atom_site_fract_z
 _atom_site_occupancy
  Li  Li0  1  0.50000000  0.50000000  0.50000000  1
  Li  Li1  1  0.25000000  0.25000000  0.25000000  1
  In  In0  1  0.75000000  0.75000000  0.75000000  1
  Ir  Ir0  1  -0.00000000  -0.00000000  -0.00000000  1
loop_
_geom_bond_atom_site_label_1
_geom_bond_atom_site_label_2
_geom_bond_distance
_geom_bond_site_symmetry_2
Li0 Li1 2.713617 1_555
Li0 Li1 2.713617 1_565
Li0 Li1 2.713617 1_556
Li0 Li1 2.713617 1_655
In0 Li0 2.713617 1_555
In0 Ir0 2.713617 1_666
In0 Ir0 2.713617 1_656
In0 Li0 2.713617 1_565
In0 Ir0 2.713617 1_665
In0 Li0 2.713617 1_556
In0 Li0 2.713617 1_655
In0 Ir0 2.713617 1_566
Ir0 Li1 2.713617 1_555
Ir0 Li1 2.713617 1_545
Ir0 Li1 2.713617 1_554
Ir0 Li1 2.713617 1_455
