# generated using pymatgen
data_HgIr4Pb3O13
_symmetry_space_group_name_H-M   'P 1'
_cell_length_a   7.29416640
_cell_length_b   7.29416668
_cell_length_c   7.21821280
_cell_angle_alpha   120.34869625
_cell_angle_beta   90.00000000
_cell_angle_gamma   119.99999877
_symmetry_Int_Tables_number   1
_chemical_formula_structural   HgIr4Pb3O13
_chemical_formula_sum   'Hg1 Ir4 Pb3 O13'
_cell_volume   270.12006970
_cell_formula_units_Z   1
loop_
 _symmetry_equiv_pos_site_id
 _symmetry_equiv_pos_as_xyz
  1  'x, y, z'
loop_
 _atom_site_type_symbol
 _atom_site_label
 _atom_site_symmetry_multiplicity
 _atom_site_fract_x
 _atom_site_fract_y
 _atom_site_fract_z
 _atom_site_occupancy
  Hg  Hg0  1  0.12005105  0.24010010  0.36015114  1
  Ir  Ir0  1  0.62599905  0.25199810  0.37503767  1
  Ir  Ir1  1  0.12303957  0.74903762  0.37503767  1
  Ir  Ir2  1  0.62599905  0.74903762  0.37503767  1
  Ir  Ir3  1  0.62501754  0.25003409  0.87505163  1
  Pb  Pb0  1  0.12553597  0.25107094  0.87875981  1
  Pb  Pb1  1  0.12553597  0.75322384  0.87875981  1
  Pb  Pb2  1  0.62768887  0.75322384  0.87875981  1
  O  O0  1  0.54583605  0.09167110  0.04481988  1
  O  O1  1  0.54583605  0.49898483  0.04481988  1
  O  O2  1  0.95314878  0.49898483  0.04482088  1
  O  O3  1  0.29731283  0.00077336  0.29808520  1
  O  O4  1  0.70346053  0.00077336  0.29808520  1
  O  O5  1  0.29731283  0.59462367  0.29808520  1
  O  O6  1  0.95181325  0.49805394  0.44986419  1
  O  O7  1  0.95181325  0.90362351  0.44986419  1
  O  O8  1  0.54624068  0.49805394  0.44986519  1
  O  O9  1  0.29867278  0.99983144  0.70099111  1
  O  O10  1  0.70115966  0.99983144  0.70099111  1
  O  O11  1  0.70115966  0.40231833  0.70099111  1
  O  O12  1  0.25737455  0.51474911  0.77212366  1
loop_
_geom_bond_atom_site_label_1
_geom_bond_atom_site_label_2
_geom_bond_distance
_geom_bond_site_symmetry_2
Hg0 O12 2.415144 1_555
Hg0 O3 2.527203 1_555
Hg0 O5 2.527210 1_555
Hg0 O4 2.527216 1_455
Hg0 O8 2.557958 1_555
Hg0 O7 2.557959 1_445
Hg0 O6 2.557972 1_455
Ir0 O11 1.957152 1_555
Ir0 O0 1.972400 1_555
Ir0 O8 1.978875 1_555
Ir0 O6 1.978876 1_555
Ir0 O3 1.998136 1_555
Ir0 O4 1.998136 1_555
Ir1 O9 1.957152 1_555
Ir1 O2 1.972395 1_455
Ir1 O6 1.978851 1_455
Ir1 O7 1.978862 1_455
Ir1 O5 1.998143 1_555
Ir1 O3 1.998148 1_565
Ir2 O10 1.957152 1_555
Ir2 O1 1.972399 1_555
Ir2 O8 1.978855 1_555
Ir2 O7 1.978875 1_555
Ir2 O5 1.998136 1_555
Ir2 O4 1.998149 1_565
Ir3 O10 1.978440 1_545
Ir3 O9 1.978440 1_545
Ir3 O11 1.978440 1_555
Ir3 O0 1.983132 1_556
Ir3 O2 1.983133 1_556
Ir3 O1 1.983137 1_556
O0 Pb2 2.524154 1_544
O0 Pb1 2.524154 1_544
O1 Pb2 2.524148 1_554
O1 Pb0 2.524153 1_554
O2 Pb1 2.524155 1_654
O2 Pb0 2.524160 1_654
O3 Pb1 2.491275 1_544
O4 Pb2 2.491276 1_544
O5 Pb0 2.491275 1_554
O6 Pb1 2.544207 1_655
O7 Pb0 2.544207 1_665
O8 Pb2 2.544200 1_555
O9 Pb0 2.556925 1_565
O9 Pb1 2.556925 1_555
O10 Pb0 2.556925 1_665
O10 Pb2 2.556925 1_555
O11 Pb1 2.556925 1_655
O11 Pb2 2.556925 1_555
O12 Pb1 2.205173 1_555
O12 Pb2 2.205179 1_555
O12 Pb0 2.205179 1_555
