# generated using pymatgen
data_NaClO4
_symmetry_space_group_name_H-M   'P 1'
_cell_length_a   4.69801769
_cell_length_b   4.92540851
_cell_length_c   4.69801799
_cell_angle_alpha   58.38555270
_cell_angle_beta   63.22890477
_cell_angle_gamma   58.38553869
_symmetry_Int_Tables_number   1
_chemical_formula_structural   NaClO4
_chemical_formula_sum   'Na1 Cl1 O4'
_cell_volume   76.49120119
_cell_formula_units_Z   1
loop_
 _symmetry_equiv_pos_site_id
 _symmetry_equiv_pos_as_xyz
  1  'x, y, z'
loop_
 _atom_site_type_symbol
 _atom_site_label
 _atom_site_symmetry_multiplicity
 _atom_site_fract_x
 _atom_site_fract_y
 _atom_site_fract_z
 _atom_site_occupancy
  Na  Na0  1  0.50000000  0.50000000  0.50000000  1
  Cl  Cl0  1  -0.00000000  0.00000000  -0.00000000  1
  O  O0  1  0.30214582  0.03449681  0.96550319  1
  O  O1  1  0.69785418  0.30214582  0.03449681  1
  O  O2  1  0.03449681  0.96550319  0.69785418  1
  O  O3  1  0.96550319  0.69785418  0.30214582  1
loop_
_geom_bond_atom_site_label_1
_geom_bond_atom_site_label_2
_geom_bond_distance
_geom_bond_site_symmetry_2
Na0 O2 2.459637 1_555
Na0 O1 2.459638 1_555
Na0 O3 2.459638 1_555
Na0 O0 2.459638 1_555
Na0 O2 2.589726 1_645
Na0 O3 2.589726 1_455
Na0 O0 2.589726 1_564
Na0 O1 2.589726 1_556
Cl0 O1 1.444584 1_455
Cl0 O0 1.444585 1_554
Cl0 O2 1.444585 1_544
Cl0 O3 1.444585 1_445
