# generated using pymatgen
data_K4Ge9O20
_symmetry_space_group_name_H-M   'P 1'
_cell_length_a   11.92853469
_cell_length_b   11.92853469
_cell_length_c   11.92853469
_cell_angle_alpha   95.88611078
_cell_angle_beta   95.88611078
_cell_angle_gamma   142.64554600
_symmetry_Int_Tables_number   1
_chemical_formula_structural   K4Ge9O20
_chemical_formula_sum   'K8 Ge18 O40'
_cell_volume   975.59974631
_cell_formula_units_Z   2
loop_
 _symmetry_equiv_pos_site_id
 _symmetry_equiv_pos_as_xyz
  1  'x, y, z'
loop_
 _atom_site_type_symbol
 _atom_site_label
 _atom_site_symmetry_multiplicity
 _atom_site_fract_x
 _atom_site_fract_y
 _atom_site_fract_z
 _atom_site_occupancy
  K  K0  1  0.41032600  0.80358100  0.77921900  1
  K  K1  1  0.88110700  0.16032600  0.10674500  1
  K  K2  1  0.05358100  0.77436100  0.89325500  1
  K  K3  1  0.02436100  0.63110700  0.22078100  1
  K  K4  1  0.83967400  0.94641900  0.72078100  1
  K  K5  1  0.36889300  0.58967400  0.39325500  1
  K  K6  1  0.19641900  0.97563900  0.60674500  1
  K  K7  1  0.22563900  0.11889300  0.27921900  1
  Ge  Ge0  1  0.66697800  0.50101400  0.55173200  1
  Ge  Ge1  1  0.58302200  0.24898600  0.94826800  1
  Ge  Ge2  1  0.30071700  0.63475400  0.05173200  1
  Ge  Ge3  1  0.88475400  0.33302200  0.83403700  1
  Ge  Ge4  1  0.75101400  0.69928300  0.33403700  1
  Ge  Ge5  1  0.49898600  0.05071700  0.16596300  1
  Ge  Ge6  1  0.94928300  0.11524600  0.44826800  1
  Ge  Ge7  1  0.36524600  0.41697800  0.66596300  1
  Ge  Ge8  1  0.52450700  0.14031500  0.43163300  1
  Ge  Ge9  1  0.34287400  0.27450700  0.88419200  1
  Ge  Ge10  1  0.39031500  0.45868200  0.11580800  1
  Ge  Ge11  1  0.70868200  0.09287400  0.56836700  1
  Ge  Ge12  1  0.72549300  0.60968500  0.06836700  1
  Ge  Ge13  1  0.90712600  0.47549300  0.61580800  1
  Ge  Ge14  1  0.85968500  0.29131800  0.38419200  1
  Ge  Ge15  1  0.54131800  0.65712600  0.93163300  1
  Ge  Ge16  1  0.25000000  0.75000000  0.50000000  1
  Ge  Ge17  1  0.00000000  0.00000000  0.00000000  1
  O  O0  1  0.32662000  0.79643200  0.12274600  1
  O  O1  1  0.67368600  0.20387400  0.87725400  1
  O  O2  1  0.92338000  0.95356800  0.37725400  1
  O  O3  1  0.79612600  0.67338000  0.46981200  1
  O  O4  1  0.20356800  0.32631400  0.53018800  1
  O  O5  1  0.57631400  0.54612600  0.62274600  1
  O  O6  1  0.47207300  0.25095900  0.47584800  1
  O  O7  1  0.24622500  0.22207300  0.72111400  1
  O  O8  1  0.41828900  0.07390600  0.26870400  1
  O  O9  1  0.39958600  0.16828900  0.84438400  1
  O  O10  1  0.32390600  0.55520200  0.15561600  1
  O  O11  1  0.80520200  0.14958600  0.73129600  1
  O  O12  1  0.83171100  0.67609400  0.23129600  1
  O  O13  1  0.85041400  0.58171100  0.65561600  1
  O  O14  1  0.92609400  0.19479800  0.34438400  1
  O  O15  1  0.44479800  0.60041400  0.76870400  1
  O  O16  1  0.15166800  0.21246400  0.11781300  1
  O  O17  1  0.45387400  0.07662000  0.03018800  1
  O  O18  1  0.78753600  0.90535000  0.93920500  1
  O  O19  1  0.09833200  0.53753600  0.38218700  1
  O  O20  1  0.15535000  0.71614500  0.61781300  1
  O  O21  1  0.96614500  0.84833200  0.06079500  1
  O  O22  1  0.46246400  0.84465000  0.56079500  1
  O  O23  1  0.50095900  0.52511200  0.27888600  1
  O  O24  1  0.09465000  0.03385500  0.88218700  1
  O  O25  1  0.28385500  0.90166800  0.43920500  1
  O  O26  1  0.30200600  0.40199300  0.94243200  1
  O  O27  1  0.60957400  0.05200600  0.40001300  1
  O  O28  1  0.65199300  0.20956100  0.59998700  1
  O  O29  1  0.45956100  0.35957400  0.05756800  1
  O  O30  1  0.94799400  0.34800700  0.55756800  1
  O  O31  1  0.64042600  0.69799400  0.09998700  1
  O  O32  1  0.59800700  0.54043900  0.90001300  1
  O  O33  1  0.79043900  0.39042600  0.44243200  1
  O  O34  1  0.47488800  0.75377500  0.97584800  1
  O  O35  1  0.74904100  0.22488800  0.22111400  1
  O  O36  1  0.00377500  0.52792700  0.77888600  1
  O  O37  1  0.77792700  0.49904100  0.02415200  1
  O  O38  1  0.77511200  0.99622500  0.52415200  1
  O  O39  1  0.04643200  0.42368600  0.96981200  1
loop_
_geom_bond_atom_site_label_1
_geom_bond_atom_site_label_2
_geom_bond_distance
_geom_bond_site_symmetry_2
K0 O34 2.662733 1_555
K0 O20 2.718325 1_555
K0 O22 2.743188 1_555
K0 O15 2.755108 1_555
K0 O1 2.879243 1_565
K0 O36 2.995422 1_555
K0 O11 3.110884 1_565
K1 O35 2.662729 1_555
K1 O18 2.718318 1_544
K1 O16 2.743177 1_655
K1 O14 2.755108 1_555
K1 O39 2.879243 1_654
K1 O34 2.995425 1_544
K1 O10 3.110884 1_655
K2 O36 2.662727 1_555
K2 O21 2.718331 1_456
K2 O24 2.743198 1_565
K2 O13 2.755107 1_455
K2 O17 2.879242 1_566
K2 O37 2.995418 1_456
K2 O9 3.110884 1_565
K3 O37 2.662731 1_455
K3 O19 2.718341 1_555
K3 O25 2.743187 1_555
K3 O12 2.755084 1_455
K3 O0 2.879252 1_555
K3 O35 2.995433 1_455
K3 O8 3.110884 1_565
K4 O38 2.662733 1_555
K4 O24 2.718325 1_665
K4 O18 2.743188 1_555
K4 O11 2.755108 1_565
K4 O5 2.879243 1_555
K4 O7 2.995422 1_665
K4 O15 3.110884 1_555
K5 O23 2.662729 1_555
K5 O22 2.718318 1_555
K5 O19 2.743177 1_555
K5 O10 2.755108 1_555
K5 O4 2.879243 1_555
K5 O38 2.995425 1_555
K5 O14 3.110884 1_455
K6 O7 2.662727 1_565
K6 O25 2.718331 1_555
K6 O20 2.743198 1_555
K6 O9 2.755107 1_565
K6 O3 2.879242 1_455
K6 O6 2.995418 1_565
K6 O13 3.110884 1_455
K7 O6 2.662731 1_555
K7 O16 2.718341 1_555
K7 O21 2.743187 1_445
K7 O8 2.755084 1_555
K7 O2 2.879252 1_445
K7 O23 2.995433 1_555
K7 O12 3.110884 1_445
Ge0 O13 1.760884 1_555
Ge0 O6 1.763920 1_555
Ge0 O5 1.787841 1_555
Ge0 O3 1.800229 1_555
Ge1 O9 1.760884 1_555
Ge1 O37 1.763920 1_556
Ge1 O1 1.787841 1_555
Ge1 O17 1.800229 1_556
Ge2 O10 1.760896 1_555
Ge2 O34 1.763920 1_554
Ge2 O0 1.787833 1_555
Ge2 O39 1.800223 1_554
Ge3 O11 1.760896 1_555
Ge3 O36 1.763927 1_655
Ge3 O39 1.787833 1_655
Ge3 O1 1.800223 1_555
Ge4 O12 1.760914 1_555
Ge4 O23 1.763921 1_555
Ge4 O3 1.787837 1_555
Ge4 O2 1.800220 1_555
Ge5 O8 1.760914 1_555
Ge5 O35 1.763921 1_555
Ge5 O17 1.787837 1_555
Ge5 O0 1.800220 1_545
Ge6 O14 1.760896 1_555
Ge6 O38 1.763920 1_545
Ge6 O2 1.787833 1_545
Ge6 O4 1.800223 1_655
Ge7 O15 1.760896 1_555
Ge7 O7 1.763927 1_555
Ge7 O4 1.787833 1_555
Ge7 O5 1.800223 1_555
Ge8 O25 1.861929 1_545
Ge8 O8 1.895677 1_555
Ge8 O6 1.910120 1_555
Ge8 O33 1.942109 1_555
Ge8 O27 1.994474 1_555
Ge8 O28 2.015996 1_555
Ge9 O24 1.861929 1_555
Ge9 O9 1.895686 1_555
Ge9 O7 1.910120 1_555
Ge9 O32 1.942109 1_555
Ge9 O29 1.994474 1_556
Ge9 O26 2.015996 1_555
Ge10 O16 1.861925 1_555
Ge10 O10 1.895675 1_555
Ge10 O23 1.910117 1_555
Ge10 O31 1.942109 1_555
Ge10 O26 1.994474 1_554
Ge10 O29 2.015996 1_555
Ge11 O22 1.861925 1_545
Ge11 O11 1.895675 1_555
Ge11 O38 1.910131 1_545
Ge11 O30 1.942109 1_555
Ge11 O28 1.994474 1_555
Ge11 O27 2.015996 1_555
Ge12 O21 1.861929 1_555
Ge12 O12 1.895677 1_555
Ge12 O37 1.910120 1_555
Ge12 O29 1.942109 1_555
Ge12 O31 1.994474 1_555
Ge12 O32 2.015996 1_554
Ge13 O20 1.861929 1_655
Ge13 O13 1.895686 1_555
Ge13 O36 1.910120 1_655
Ge13 O28 1.942109 1_555
Ge13 O33 1.994474 1_555
Ge13 O30 2.015996 1_555
Ge14 O19 1.861925 1_655
Ge14 O14 1.895675 1_555
Ge14 O35 1.910117 1_555
Ge14 O27 1.942109 1_555
Ge14 O30 1.994474 1_555
Ge14 O33 2.015996 1_555
Ge15 O18 1.861925 1_555
Ge15 O15 1.895675 1_555
Ge15 O34 1.910131 1_555
Ge15 O26 1.942109 1_555
Ge15 O32 1.994474 1_555
Ge15 O31 2.015996 1_556
Ge16 O20 1.769109 1_555
Ge16 O25 1.769109 1_555
Ge16 O19 1.769115 1_555
Ge16 O22 1.769119 1_555
Ge17 O24 1.769109 1_554
Ge17 O21 1.769109 1_445
Ge17 O16 1.769115 1_555
Ge17 O18 1.769119 1_444
