# generated using pymatgen
data_Zr10AlZnSb6
_symmetry_space_group_name_H-M   'P 1'
_cell_length_a   8.66432379
_cell_length_b   8.66432389
_cell_length_c   5.84801538
_cell_angle_alpha   90.00000000
_cell_angle_beta   90.00000000
_cell_angle_gamma   120.00000337
_symmetry_Int_Tables_number   1
_chemical_formula_structural   Zr10AlZnSb6
_chemical_formula_sum   'Zr10 Al1 Zn1 Sb6'
_cell_volume   380.19681570
_cell_formula_units_Z   1
loop_
 _symmetry_equiv_pos_site_id
 _symmetry_equiv_pos_as_xyz
  1  'x, y, z'
loop_
 _atom_site_type_symbol
 _atom_site_label
 _atom_site_symmetry_multiplicity
 _atom_site_fract_x
 _atom_site_fract_y
 _atom_site_fract_z
 _atom_site_occupancy
  Zr  Zr0  1  0.73053136  0.73053136  0.75132828  1
  Zr  Zr1  1  0.26946864  1.00000000  0.75132828  1
  Zr  Zr2  1  1.00000000  0.26946864  0.75132828  1
  Zr  Zr3  1  0.26946864  0.26946864  0.24867172  1
  Zr  Zr4  1  0.73053136  0.00000000  0.24867172  1
  Zr  Zr5  1  0.00000000  0.73053136  0.24867172  1
  Zr  Zr6  1  0.66666700  0.33333300  0.00000000  1
  Zr  Zr7  1  0.33333300  0.66666700  0.00000000  1
  Zr  Zr8  1  0.33333300  0.66666700  0.50000000  1
  Zr  Zr9  1  0.66666700  0.33333300  0.50000000  1
  Al  Al0  1  0.00000000  0.00000000  0.50000000  1
  Zn  Zn0  1  0.00000000  0.00000000  0.00000000  1
  Sb  Sb0  1  0.38616827  0.38616827  0.74998513  1
  Sb  Sb1  1  0.61383173  0.00000000  0.74998513  1
  Sb  Sb2  1  0.00000000  0.61383173  0.74998513  1
  Sb  Sb3  1  0.61383173  0.61383173  0.25001487  1
  Sb  Sb4  1  0.38616827  1.00000000  0.25001487  1
  Sb  Sb5  1  1.00000000  0.38616827  0.25001487  1
loop_
_geom_bond_atom_site_label_1
_geom_bond_atom_site_label_2
_geom_bond_distance
_geom_bond_site_symmetry_2
Al0 Zr3 2.758867 1_555
Al0 Zr0 2.758867 1_445
Al0 Zr1 2.758867 1_545
Al0 Zr4 2.758867 1_455
Al0 Zr5 2.758867 1_545
Al0 Zr2 2.758867 1_455
Al0 Zn0 2.924008 1_556
Al0 Zn0 2.924008 1_555
Zn0 Zr3 2.750622 1_555
Zn0 Zr0 2.750622 1_444
Zn0 Zr1 2.750622 1_544
Zn0 Zr4 2.750622 1_455
Zn0 Zr5 2.750622 1_545
Zn0 Zr2 2.750622 1_454
Sb0 Zr2 2.972253 1_455
Sb0 Zr1 2.972253 1_545
Sb0 Zr0 2.983683 1_555
Sb0 Zr9 3.060366 1_555
Sb0 Zr8 3.060366 1_555
Sb0 Zr6 3.060449 1_556
Sb0 Zr7 3.060449 1_556
Sb0 Zr3 3.086638 1_556
Sb0 Zr3 3.101156 1_555
Sb1 Zr2 2.972253 1_555
Sb1 Zr0 2.972253 1_545
Sb1 Zr1 2.983684 1_545
Sb1 Zr9 3.060358 1_555
Sb1 Zr8 3.060361 1_545
Sb1 Zr6 3.060442 1_556
Sb1 Zr7 3.060444 1_546
Sb1 Zr4 3.086638 1_556
Sb1 Zr4 3.101156 1_555
Sb2 Zr1 2.972253 1_555
Sb2 Zr0 2.972253 1_455
Sb2 Zr2 2.983684 1_455
Sb2 Zr8 3.060358 1_555
Sb2 Zr9 3.060361 1_455
Sb2 Zr7 3.060441 1_556
Sb2 Zr6 3.060444 1_456
Sb2 Zr5 3.086638 1_556
Sb2 Zr5 3.101156 1_555
Sb3 Zr5 2.972253 1_655
Sb3 Zr4 2.972253 1_565
Sb3 Zr3 2.983683 1_555
Sb3 Zr8 3.060366 1_555
Sb3 Zr9 3.060366 1_555
Sb3 Zr7 3.060449 1_555
Sb3 Zr6 3.060449 1_555
Sb3 Zr0 3.086638 1_554
Sb3 Zr0 3.101156 1_555
Sb4 Zr5 2.972253 1_555
Sb4 Zr3 2.972253 1_565
Sb4 Zr4 2.983684 1_565
Sb4 Zr8 3.060358 1_555
Sb4 Zr9 3.060361 1_565
Sb4 Zr7 3.060442 1_555
Sb4 Zr6 3.060444 1_565
Sb4 Zr1 3.086638 1_554
Sb4 Zr1 3.101156 1_555
Sb5 Zr4 2.972253 1_555
Sb5 Zr3 2.972253 1_655
Sb5 Zr5 2.983684 1_655
Sb5 Zr9 3.060358 1_555
Sb5 Zr8 3.060361 1_655
Sb5 Zr6 3.060441 1_555
Sb5 Zr7 3.060444 1_655
Sb5 Zr2 3.086638 1_554
Sb5 Zr2 3.101156 1_555
