# generated using pymatgen
data_K3Rh(IO3)6
_symmetry_space_group_name_H-M   'P 1'
_cell_length_a   6.88461382
_cell_length_b   6.88342069
_cell_length_c   10.46331771
_cell_angle_alpha   88.13810135
_cell_angle_beta   109.28408670
_cell_angle_gamma   106.90029125
_symmetry_Int_Tables_number   1
_chemical_formula_structural   K3Rh(IO3)6
_chemical_formula_sum   'K3 Rh1 I6 O18'
_cell_volume   446.71022284
_cell_formula_units_Z   1
loop_
 _symmetry_equiv_pos_site_id
 _symmetry_equiv_pos_as_xyz
  1  'x, y, z'
loop_
 _atom_site_type_symbol
 _atom_site_label
 _atom_site_symmetry_multiplicity
 _atom_site_fract_x
 _atom_site_fract_y
 _atom_site_fract_z
 _atom_site_occupancy
  K  K0  1  0.00000000  0.00000000  0.00000000  1
  K  K1  1  0.83201638  0.02062146  0.60585006  1
  K  K2  1  0.16798362  0.97937854  0.39414994  1
  Rh  Rh0  1  0.50000000  0.50000000  0.00000000  1
  I  I0  1  0.03555393  0.47119101  0.18903546  1
  I  I1  1  0.96444607  0.52880899  0.81096454  1
  I  I2  1  0.55833135  0.96053942  0.19086008  1
  I  I3  1  0.44166865  0.03946058  0.80913992  1
  I  I4  1  0.39726712  0.54904939  0.63509506  1
  I  I5  1  0.60273288  0.45095061  0.36490494  1
  O  O0  1  0.82370623  0.54071195  0.04640869  1
  O  O1  1  0.17629377  0.45928805  0.95359131  1
  O  O2  1  0.96378687  0.54787630  0.32688485  1
  O  O3  1  0.03621313  0.45212370  0.67311515  1
  O  O4  1  0.92595413  0.19657039  0.18428517  1
  O  O5  1  0.07404587  0.80342961  0.81571483  1
  O  O6  1  0.56921771  0.80663460  0.05082881  1
  O  O7  1  0.43078229  0.19336540  0.94917119  1
  O  O8  1  0.28350718  0.84810555  0.18742245  1
  O  O9  1  0.71649282  0.15189445  0.81257755  1
  O  O10  1  0.70057888  0.83983463  0.33254149  1
  O  O11  1  0.29942112  0.16016537  0.66745851  1
  O  O12  1  0.52635462  0.60821198  0.82114484  1
  O  O13  1  0.47364538  0.39178802  0.17885516  1
  O  O14  1  0.66119038  0.57256215  0.61779215  1
  O  O15  1  0.33880962  0.42743785  0.38220785  1
  O  O16  1  0.40144082  0.80986340  0.60196312  1
  O  O17  1  0.59855918  0.19013660  0.39803688  1
loop_
_geom_bond_atom_site_label_1
_geom_bond_atom_site_label_2
_geom_bond_distance
_geom_bond_site_symmetry_2
K0 O4 2.651153 1_455
K0 O5 2.651153 1_544
K0 O8 2.696980 1_545
K0 O9 2.696980 1_454
K0 O7 3.090460 1_554
K0 O6 3.090460 1_445
K0 O1 3.124480 1_554
K0 O0 3.124480 1_445
K1 O17 2.700011 1_555
K1 O9 2.794464 1_555
K1 O16 2.884004 1_545
K1 O3 2.889362 1_655
K1 O10 2.900470 1_545
K1 O11 2.926787 1_655
K1 O5 2.941390 1_645
K1 O14 2.978932 1_545
K2 O16 2.700011 1_555
K2 O8 2.794464 1_555
K2 O17 2.884004 1_565
K2 O2 2.889362 1_455
K2 O11 2.900470 1_565
K2 O10 2.926787 1_455
K2 O4 2.941390 1_465
K2 O15 2.978932 1_565
I0 O2 1.809693 1_455
I0 O4 1.815819 1_455
I0 O0 1.872179 1_455
I0 O8 2.662092 1_555
I1 O3 1.809693 1_655
I1 O5 1.815819 1_655
I1 O1 1.872179 1_655
I1 O9 2.662092 1_555
I2 O10 1.811410 1_555
I2 O8 1.812630 1_555
I2 O6 1.869298 1_555
I2 O4 2.601346 1_565
I2 O17 2.616328 1_565
I3 O11 1.811410 1_555
I3 O9 1.812630 1_555
I3 O7 1.869298 1_555
I3 O5 2.601346 1_545
I3 O16 2.616328 1_545
I4 O16 1.811139 1_555
I4 O14 1.845235 1_555
I4 O12 1.855713 1_555
I4 O3 2.540442 1_555
I4 O11 2.603332 1_555
I5 O17 1.811139 1_555
I5 O15 1.845235 1_555
I5 O13 1.855713 1_555
I5 O2 2.540442 1_555
I5 O10 2.603332 1_555
O0 Rh0 2.052291 1_555
O1 Rh0 2.052291 1_556
O6 Rh0 2.070197 1_555
O7 Rh0 2.070197 1_556
O12 Rh0 2.035945 1_556
O13 Rh0 2.035945 1_555
