# generated using pymatgen
data_Sr6Sn8PI
_symmetry_space_group_name_H-M   'P 1'
_cell_length_a   8.97500470
_cell_length_b   8.97500417
_cell_length_c   8.97500448
_cell_angle_alpha   120.47563238
_cell_angle_beta   120.47562507
_cell_angle_gamma   89.17814075
_symmetry_Int_Tables_number   1
_chemical_formula_structural   Sr6Sn8PI
_chemical_formula_sum   'Sr6 Sn8 P1 I1'
_cell_volume   507.46618903
_cell_formula_units_Z   1
loop_
 _symmetry_equiv_pos_site_id
 _symmetry_equiv_pos_as_xyz
  1  'x, y, z'
loop_
 _atom_site_type_symbol
 _atom_site_label
 _atom_site_symmetry_multiplicity
 _atom_site_fract_x
 _atom_site_fract_y
 _atom_site_fract_z
 _atom_site_occupancy
  Sr  Sr0  1  0.26820251  0.26820251  0.00000000  1
  Sr  Sr1  1  0.73179749  0.73179749  0.00000000  1
  Sr  Sr2  1  0.18895023  0.64413251  0.83308273  1
  Sr  Sr3  1  0.81104977  0.35586749  0.16691727  1
  Sr  Sr4  1  0.64413251  0.81104977  0.45518228  1
  Sr  Sr5  1  0.35586749  0.18895023  0.54481772  1
  Sn  Sn0  1  0.83552276  0.33002026  0.78363101  1
  Sn  Sn1  1  0.16447724  0.66997974  0.21636899  1
  Sn  Sn2  1  0.54639026  0.05189075  0.21636899  1
  Sn  Sn3  1  0.33002026  0.54639026  0.49449850  1
  Sn  Sn4  1  0.94810925  0.16447724  0.49449850  1
  Sn  Sn5  1  0.45360974  0.94810925  0.78363101  1
  Sn  Sn6  1  0.66997974  0.45360974  0.50550150  1
  Sn  Sn7  1  0.05189075  0.83552276  0.50550150  1
  P  P0  1  0.50000000  0.50000000  0.00000000  1
  I  I0  1  0.00000000  0.00000000  0.00000000  1
loop_
_geom_bond_atom_site_label_1
_geom_bond_atom_site_label_2
_geom_bond_distance
_geom_bond_site_symmetry_2
Sn0 Sn4 2.944185 1_555
Sn0 Sn6 2.944185 1_555
Sn0 Sn1 3.117278 1_656
Sn0 Sr3 3.448352 1_556
Sn0 Sr1 3.503583 1_556
Sn0 Sr0 3.541290 1_656
Sn0 Sr5 3.574026 1_555
Sn0 Sr4 3.808035 1_545
Sn1 Sn7 2.944185 1_555
Sn1 Sn3 2.944185 1_555
Sn1 Sr2 3.448352 1_554
Sn1 Sr0 3.503583 1_555
Sn1 Sr1 3.541290 1_455
Sn1 Sr4 3.574026 1_555
Sn1 Sr5 3.808035 1_565
Sn2 Sn6 2.944185 1_555
Sn2 Sn4 2.944186 1_555
Sn2 Sn5 3.117278 1_544
Sn2 Sr2 3.448351 1_544
Sn2 Sr1 3.503572 1_545
Sn2 Sr0 3.541301 1_555
Sn2 Sr4 3.574018 1_545
Sn2 Sr5 3.808042 1_555
Sn3 Sn5 2.944185 1_555
Sn3 Sn6 3.117289 1_555
Sn3 Sr5 3.448356 1_555
Sn3 Sr1 3.503580 1_556
Sn3 Sr0 3.541297 1_555
Sn3 Sr2 3.574019 1_555
Sn3 Sr3 3.808035 1_455
Sn4 Sn7 3.117267 1_645
Sn4 Sr5 3.448347 1_655
Sn4 Sr0 3.503575 1_656
Sn4 Sr1 3.541293 1_545
Sn4 Sr2 3.574025 1_655
Sn4 Sr3 3.808042 1_555
Sn5 Sn7 2.944186 1_555
Sn5 Sr3 3.448351 1_566
Sn5 Sr0 3.503572 1_566
Sn5 Sr1 3.541301 1_556
Sn5 Sr5 3.574018 1_565
Sn5 Sr4 3.808042 1_555
Sn6 Sr4 3.448356 1_555
Sn6 Sr0 3.503580 1_555
Sn6 Sr1 3.541297 1_556
Sn6 Sr3 3.574019 1_555
Sn6 Sr2 3.808035 1_655
Sn7 Sr4 3.448347 1_455
Sn7 Sr1 3.503575 1_455
Sn7 Sr0 3.541293 1_566
Sn7 Sr3 3.574025 1_455
Sn7 Sr2 3.808042 1_555
P0 Sr1 2.963132 1_555
P0 Sr0 2.963132 1_555
P0 Sr4 3.054673 1_555
P0 Sr5 3.054673 1_554
P0 Sr3 3.054673 1_555
P0 Sr2 3.054673 1_554
I0 Sr0 3.428507 1_555
I0 Sr1 3.428507 1_445
I0 Sr3 3.590173 1_455
I0 Sr2 3.590173 1_544
I0 Sr5 3.590173 1_555
I0 Sr4 3.590173 1_444
