# generated using pymatgen
data_K2Zr3(ScSe5)2
_symmetry_space_group_name_H-M   'P 1'
_cell_length_a   6.65643167
_cell_length_b   11.26165813
_cell_length_c   9.01191640
_cell_angle_alpha   59.25596830
_cell_angle_beta   68.51151545
_cell_angle_gamma   90.12623954
_symmetry_Int_Tables_number   1
_chemical_formula_structural   K2Zr3(ScSe5)2
_chemical_formula_sum   'K2 Zr3 Sc2 Se10'
_cell_volume   524.87427905
_cell_formula_units_Z   1
loop_
 _symmetry_equiv_pos_site_id
 _symmetry_equiv_pos_as_xyz
  1  'x, y, z'
loop_
 _atom_site_type_symbol
 _atom_site_label
 _atom_site_symmetry_multiplicity
 _atom_site_fract_x
 _atom_site_fract_y
 _atom_site_fract_z
 _atom_site_occupancy
  K  K0  1  0.78754913  0.07453145  0.42649460  1
  K  K1  1  0.01231149  0.52607344  0.97367005  1
  Zr  Zr0  1  0.39514467  0.79238261  0.20679821  1
  Zr  Zr1  1  0.60286525  0.20792105  0.79887828  1
  Zr  Zr2  1  0.99957689  0.99928135  0.99776544  1
  Sc  Sc0  1  0.79941765  0.59889703  0.40349492  1
  Sc  Sc1  1  0.20257935  0.40092604  0.59328305  1
  Se  Se0  1  0.99412742  0.83827406  0.34937073  1
  Se  Se1  1  0.59215517  0.03637089  0.15207500  1
  Se  Se2  1  0.18795540  0.23682190  0.95378851  1
  Se  Se3  1  0.79077042  0.43639760  0.75398269  1
  Se  Se4  1  0.39226929  0.63817599  0.54795631  1
  Se  Se5  1  0.40653483  0.96402787  0.85095097  1
  Se  Se6  1  0.00549915  0.16085442  0.65019805  1
  Se  Se7  1  0.61305590  0.35914788  0.44987778  1
  Se  Se8  1  0.21113429  0.56458791  0.24429730  1
  Se  Se9  1  0.80705569  0.76532951  0.04711711  1
loop_
_geom_bond_atom_site_label_1
_geom_bond_atom_site_label_2
_geom_bond_distance
_geom_bond_site_symmetry_2
K0 Se5 3.259530 1_545
K0 Se0 3.264900 1_545
K0 Se6 3.354745 1_655
K0 Se1 3.381261 1_555
K0 Se7 3.492105 1_555
K0 Se2 3.505925 1_654
K1 Se4 3.261038 1_555
K1 Se9 3.277466 1_456
K1 Se3 3.360175 1_455
K1 Se8 3.366223 1_556
K1 Se7 3.519664 1_456
K1 Se2 3.531298 1_555
Sc0 Se4 2.691586 1_555
Sc0 Se3 2.699149 1_555
Sc0 Se0 2.713309 1_555
Sc0 Se8 2.721970 1_655
Sc0 Se7 2.730368 1_555
Sc0 Se9 2.748771 1_555
Sc1 Se8 2.689482 1_555
Sc1 Se6 2.714246 1_555
Sc1 Se4 2.718685 1_555
Sc1 Se7 2.719815 1_555
Sc1 Se3 2.731091 1_455
Sc1 Se2 2.758391 1_555
Se0 Zr0 2.686191 1_655
Se0 Zr2 2.714898 1_554
Se1 Zr2 2.701662 1_544
Se1 Zr1 2.723025 1_554
Se1 Zr0 2.763648 1_545
Se2 Zr1 2.706711 1_555
Se2 Zr2 2.724474 1_445
Se3 Zr1 2.626653 1_555
Se4 Zr0 2.639428 1_555
Se5 Zr2 2.676233 1_455
Se5 Zr0 2.740380 1_556
Se5 Zr1 2.772943 1_565
Se6 Zr2 2.684314 1_445
Se6 Zr1 2.713061 1_455
Se7 Zr1 2.676534 1_555
Se8 Zr0 2.644241 1_555
Se9 Zr2 2.674162 1_554
Se9 Zr0 2.691220 1_555
