# generated using pymatgen
data_CaCu
_symmetry_space_group_name_H-M   'P 1'
_cell_length_a   4.18824810
_cell_length_b   5.78721891
_cell_length_c   19.55808670
_cell_angle_alpha   94.56103236
_cell_angle_beta   90.00000000
_cell_angle_gamma   90.00000000
_symmetry_Int_Tables_number   1
_chemical_formula_structural   CaCu
_chemical_formula_sum   'Ca10 Cu10'
_cell_volume   472.55370050
_cell_formula_units_Z   10
loop_
 _symmetry_equiv_pos_site_id
 _symmetry_equiv_pos_as_xyz
  1  'x, y, z'
loop_
 _atom_site_type_symbol
 _atom_site_label
 _atom_site_symmetry_multiplicity
 _atom_site_fract_x
 _atom_site_fract_y
 _atom_site_fract_z
 _atom_site_occupancy
  Ca  Ca0  1  0.25000000  0.65484869  0.12847456  1
  Ca  Ca1  1  0.75000000  0.34515131  0.87152544  1
  Ca  Ca2  1  0.25000000  0.45414684  0.32869588  1
  Ca  Ca3  1  0.75000000  0.54585316  0.67130412  1
  Ca  Ca4  1  0.25000000  0.75915979  0.52776821  1
  Ca  Ca5  1  0.75000000  0.24084021  0.47223179  1
  Ca  Ca6  1  0.25000000  0.05999918  0.72830452  1
  Ca  Ca7  1  0.75000000  0.94000082  0.27169548  1
  Ca  Ca8  1  0.25000000  0.85543353  0.92792303  1
  Ca  Ca9  1  0.75000000  0.14456647  0.07207697  1
  Cu  Cu0  1  0.25000000  0.19508271  0.18864468  1
  Cu  Cu1  1  0.75000000  0.80491729  0.81135532  1
  Cu  Cu2  1  0.25000000  0.94715251  0.38850313  1
  Cu  Cu3  1  0.75000000  0.05284749  0.61149687  1
  Cu  Cu4  1  0.25000000  0.25001142  0.58846707  1
  Cu  Cu5  1  0.75000000  0.74998858  0.41153293  1
  Cu  Cu6  1  0.25000000  0.59644354  0.78836363  1
  Cu  Cu7  1  0.75000000  0.40355646  0.21163637  1
  Cu  Cu8  1  0.25000000  0.39575330  0.98874046  1
  Cu  Cu9  1  0.75000000  0.60424670  0.01125954  1
loop_
_geom_bond_atom_site_label_1
_geom_bond_atom_site_label_2
_geom_bond_distance
_geom_bond_site_symmetry_2
Ca0 Cu0 2.993754 1_555
Ca0 Cu8 3.010898 1_554
Ca0 Cu7 3.085765 1_555
Ca0 Cu7 3.085765 1_455
Ca0 Cu9 3.101597 1_555
Ca0 Cu9 3.101597 1_455
Ca0 Cu0 3.251836 1_565
Ca1 Cu1 2.993754 1_555
Ca1 Cu9 3.010898 1_556
Ca1 Cu6 3.085765 1_655
Ca1 Cu6 3.085765 1_555
Ca1 Cu8 3.101597 1_655
Ca1 Cu8 3.101597 1_555
Ca1 Cu1 3.251836 1_545
Ca2 Cu2 2.996300 1_555
Ca2 Cu0 3.016207 1_555
Ca2 Cu5 3.082260 1_555
Ca2 Cu5 3.082260 1_455
Ca2 Cu7 3.099370 1_555
Ca2 Cu7 3.099370 1_455
Ca2 Cu2 3.243908 1_545
Ca3 Cu3 2.996300 1_555
Ca3 Cu1 3.016207 1_555
Ca3 Cu4 3.082260 1_555
Ca3 Cu4 3.082260 1_655
Ca3 Cu6 3.099370 1_555
Ca3 Cu6 3.099370 1_655
Ca3 Cu3 3.243908 1_565
Ca4 Cu4 2.990381 1_565
Ca4 Cu2 3.012275 1_555
Ca4 Cu3 3.084331 1_465
Ca4 Cu3 3.084331 1_565
Ca4 Cu5 3.088212 1_455
Ca4 Cu5 3.088212 1_555
Ca4 Cu4 3.263103 1_555
Ca5 Cu5 2.990381 1_545
Ca5 Cu3 3.012275 1_555
Ca5 Cu2 3.084331 1_545
Ca5 Cu2 3.084331 1_645
Ca5 Cu4 3.088212 1_655
Ca5 Cu4 3.088212 1_555
Ca5 Cu5 3.263103 1_555
Ca6 Cu6 3.012943 1_545
Ca6 Cu4 3.027787 1_555
Ca6 Cu1 3.095855 1_445
Ca6 Cu1 3.095855 1_545
Ca6 Cu3 3.096954 1_555
Ca6 Cu3 3.096954 1_455
Ca6 Cu6 3.230767 1_555
Ca7 Cu7 3.012943 1_565
Ca7 Cu5 3.027787 1_555
Ca7 Cu0 3.095855 1_565
Ca7 Cu0 3.095855 1_665
Ca7 Cu2 3.096954 1_555
Ca7 Cu2 3.096954 1_655
Ca7 Cu7 3.230767 1_555
Ca8 Cu8 2.999190 1_555
Ca8 Cu6 3.007673 1_555
Ca8 Cu9 3.087382 1_456
Ca8 Cu9 3.087382 1_556
Ca8 Cu1 3.092329 1_455
Ca8 Cu1 3.092329 1_555
Ca8 Cu8 3.255935 1_565
Ca9 Cu9 2.999190 1_555
Ca9 Cu7 3.007673 1_555
Ca9 Cu8 3.087382 1_654
Ca9 Cu8 3.087382 1_554
Ca9 Cu0 3.092329 1_655
Ca9 Cu0 3.092329 1_555
Ca9 Cu9 3.255935 1_545
Cu0 Cu7 2.440672 1_555
Cu0 Cu7 2.440672 1_455
Cu1 Cu6 2.440672 1_555
Cu1 Cu6 2.440672 1_655
Cu2 Cu5 2.443752 1_555
Cu2 Cu5 2.443752 1_455
Cu3 Cu4 2.443752 1_655
Cu3 Cu4 2.443752 1_555
Cu8 Cu9 2.439404 1_456
Cu8 Cu9 2.439404 1_556
