# generated using pymatgen
data_Ba2NaAlSb3
_symmetry_space_group_name_H-M   'P 1'
_cell_length_a   9.19482353
_cell_length_b   9.19482526
_cell_length_c   13.15108653
_cell_angle_alpha   76.06468910
_cell_angle_beta   76.06468630
_cell_angle_gamma   67.49201057
_symmetry_Int_Tables_number   1
_chemical_formula_structural   Ba2NaAlSb3
_chemical_formula_sum   'Ba8 Na4 Al4 Sb12'
_cell_volume   983.13740057
_cell_formula_units_Z   4
loop_
 _symmetry_equiv_pos_site_id
 _symmetry_equiv_pos_as_xyz
  1  'x, y, z'
loop_
 _atom_site_type_symbol
 _atom_site_label
 _atom_site_symmetry_multiplicity
 _atom_site_fract_x
 _atom_site_fract_y
 _atom_site_fract_z
 _atom_site_occupancy
  Ba  Ba0  1  0.74171301  0.19890358  0.68482143  1
  Ba  Ba1  1  0.25828699  0.80109642  0.31517857  1
  Ba  Ba2  1  0.19890358  0.74171301  0.68482143  1
  Ba  Ba3  1  0.50000000  0.00000000  0.50000000  1
  Ba  Ba4  1  0.80109642  0.25828699  0.31517857  1
  Ba  Ba5  1  0.00000000  0.50000000  0.00000000  1
  Ba  Ba6  1  0.50000000  0.00000000  0.00000000  1
  Ba  Ba7  1  0.00000000  0.50000000  0.50000000  1
  Na  Na0  1  0.28246916  0.71753084  1.00000000  1
  Na  Na1  1  0.35967978  0.35967978  0.20908186  1
  Na  Na2  1  0.64032022  0.64032022  0.79091814  1
  Na  Na3  1  0.71753084  0.28246916  0.00000000  1
  Al  Al0  1  0.69701485  0.69701485  0.25961707  1
  Al  Al1  1  0.09340113  0.09340113  0.88421798  1
  Al  Al2  1  0.90659887  0.90659887  0.11578202  1
  Al  Al3  1  0.30298515  0.30298515  0.74038293  1
  Sb  Sb0  1  0.02288097  0.61057873  0.22752808  1
  Sb  Sb1  1  0.58629293  0.58629293  0.12927841  1
  Sb  Sb2  1  0.97711903  0.38942127  0.77247192  1
  Sb  Sb3  1  0.09635160  0.09635160  0.48251925  1
  Sb  Sb4  1  0.59619076  0.59619076  0.48149265  1
  Sb  Sb5  1  0.91343582  0.91343582  0.90408590  1
  Sb  Sb6  1  0.08656418  0.08656418  0.09591410  1
  Sb  Sb7  1  0.41370707  0.41370707  0.87072159  1
  Sb  Sb8  1  0.61057873  0.02288097  0.22752808  1
  Sb  Sb9  1  0.90364840  0.90364840  0.51748075  1
  Sb  Sb10  1  0.38942127  0.97711903  0.77247192  1
  Sb  Sb11  1  0.40380924  0.40380924  0.51850735  1
loop_
_geom_bond_atom_site_label_1
_geom_bond_atom_site_label_2
_geom_bond_distance
_geom_bond_site_symmetry_2
Ba0 Sb9 3.554562 1_545
Ba0 Sb5 3.615533 1_545
Ba0 Sb7 3.631476 1_555
Ba0 Sb3 3.643636 1_655
Ba0 Sb2 3.762972 1_555
Ba0 Sb11 3.846215 1_555
Ba0 Sb4 3.944764 1_555
Ba1 Sb3 3.554562 1_565
Ba1 Sb6 3.615533 1_565
Ba1 Sb1 3.631476 1_555
Ba1 Sb9 3.643636 1_455
Ba1 Sb0 3.762972 1_555
Ba1 Sb4 3.846215 1_555
Ba1 Sb11 3.944764 1_555
Ba2 Sb9 3.554562 1_455
Ba2 Sb5 3.615532 1_455
Ba2 Sb7 3.631476 1_555
Ba2 Sb3 3.643636 1_565
Ba2 Sb10 3.762972 1_555
Ba2 Sb11 3.846215 1_555
Ba2 Sb4 3.944764 1_555
Ba3 Sb10 3.458894 1_545
Ba3 Sb8 3.458894 1_555
Ba3 Sb9 3.522524 1_545
Ba3 Sb3 3.522524 1_555
Ba3 Sb11 3.527727 1_555
Ba3 Sb4 3.527727 1_545
Ba4 Sb3 3.554562 1_655
Ba4 Sb6 3.615532 1_655
Ba4 Sb1 3.631476 1_555
Ba4 Sb9 3.643636 1_545
Ba4 Sb8 3.762972 1_555
Ba4 Sb4 3.846215 1_555
Ba4 Sb11 3.944764 1_555
Ba5 Sb0 3.458888 1_555
Ba5 Sb2 3.458888 1_454
Ba5 Sb5 3.540224 1_454
Ba5 Sb6 3.540224 1_555
Ba5 Sb7 3.635122 1_554
Ba5 Sb1 3.635122 1_455
Ba6 Sb8 3.458888 1_555
Ba6 Sb10 3.458888 1_544
Ba6 Sb5 3.540223 1_544
Ba6 Sb6 3.540223 1_555
Ba6 Sb1 3.635123 1_545
Ba6 Sb7 3.635123 1_554
Ba7 Sb2 3.458894 1_455
Ba7 Sb0 3.458894 1_555
Ba7 Sb9 3.522525 1_455
Ba7 Sb3 3.522525 1_555
Ba7 Sb11 3.527726 1_555
Ba7 Sb4 3.527726 1_455
Na0 Sb1 3.296878 1_556
Na0 Sb7 3.296878 1_555
Na0 Sb0 3.543663 1_556
Na0 Sb10 3.543663 1_555
Na0 Sb5 3.554864 1_455
Na0 Sb6 3.554865 1_566
Na1 Sb0 3.067422 1_555
Na1 Sb8 3.067422 1_555
Na1 Sb1 3.316975 1_555
Na2 Sb2 3.067422 1_555
Na2 Sb10 3.067422 1_555
Na2 Sb7 3.316975 1_555
Na3 Sb7 3.296878 1_554
Na3 Sb1 3.296878 1_555
Na3 Sb2 3.543663 1_554
Na3 Sb8 3.543663 1_555
Na3 Sb6 3.554864 1_655
Na3 Sb5 3.554865 1_544
Al0 Sb1 2.735987 1_555
Al0 Sb0 2.741669 1_655
Al0 Sb8 2.741670 1_565
Al0 Sb4 2.878411 1_555
Al0 Ba1 3.699249 1_555
Al0 Ba4 3.699250 1_555
Al1 Sb5 2.687861 1_445
Al1 Sb10 2.704334 1_545
Al1 Sb2 2.704334 1_455
Al1 Sb6 2.755573 1_556
Al1 Na3 3.380141 1_456
Al1 Na0 3.380141 1_545
Al2 Sb6 2.687861 1_665
Al2 Sb8 2.704334 1_565
Al2 Sb0 2.704334 1_655
Al2 Sb5 2.755573 1_554
Al2 Na0 3.380141 1_654
Al2 Na3 3.380141 1_565
Al3 Sb7 2.735987 1_555
Al3 Sb2 2.741669 1_455
Al3 Sb10 2.741670 1_545
Al3 Sb11 2.878411 1_555
Al3 Ba0 3.699249 1_555
Al3 Ba2 3.699250 1_555
Sb3 Sb9 2.847698 1_445
Sb11 Sb4 2.839239 1_555
