# generated using pymatgen
data_Ba6Sn8HgAs
_symmetry_space_group_name_H-M   'P 1'
_cell_length_a   9.18175285
_cell_length_b   9.18175251
_cell_length_c   9.29107542
_cell_angle_alpha   119.61153350
_cell_angle_beta   119.61152886
_cell_angle_gamma   90.00000196
_symmetry_Int_Tables_number   1
_chemical_formula_structural   Ba6Sn8HgAs
_chemical_formula_sum   'Ba6 Sn8 Hg1 As1'
_cell_volume   560.30387788
_cell_formula_units_Z   1
loop_
 _symmetry_equiv_pos_site_id
 _symmetry_equiv_pos_as_xyz
  1  'x, y, z'
loop_
 _atom_site_type_symbol
 _atom_site_label
 _atom_site_symmetry_multiplicity
 _atom_site_fract_x
 _atom_site_fract_y
 _atom_site_fract_z
 _atom_site_occupancy
  Ba  Ba0  1  0.23597117  0.23597117  0.47194333  1
  Ba  Ba1  1  0.76402883  0.76402883  0.52805667  1
  Ba  Ba2  1  0.67957461  0.15013326  1.00000000  1
  Ba  Ba3  1  0.32042539  0.84986674  0.00000000  1
  Ba  Ba4  1  0.84986674  0.67957461  1.00000000  1
  Ba  Ba5  1  0.15013326  0.32042539  0.00000000  1
  Sn  Sn0  1  0.34122310  0.82951189  0.38825903  1
  Sn  Sn1  1  0.65877690  0.17048811  0.61174097  1
  Sn  Sn2  1  0.04703692  0.55874813  0.38825903  1
  Sn  Sn3  1  0.55874813  0.34122310  0.38825903  1
  Sn  Sn4  1  0.17048811  0.95296308  0.61174097  1
  Sn  Sn5  1  0.95296308  0.44125187  0.61174097  1
  Sn  Sn6  1  0.44125187  0.65877690  0.61174097  1
  Sn  Sn7  1  0.82951189  0.04703692  0.38825903  1
  Hg  Hg0  1  0.50000000  0.50000000  0.00000000  1
  As  As0  1  0.00000000  0.00000000  0.00000000  1
loop_
_geom_bond_atom_site_label_1
_geom_bond_atom_site_label_2
_geom_bond_distance
_geom_bond_site_symmetry_2
Ba0 Hg0 3.509562 1_556
Ba0 Sn6 3.592769 1_555
Ba0 Sn5 3.592769 1_455
Ba0 Sn4 3.592769 1_545
Ba0 Sn1 3.592769 1_555
Ba0 Sn7 3.652572 1_455
Ba0 Sn0 3.652579 1_545
Ba0 Sn2 3.652589 1_555
Ba0 Sn3 3.652596 1_555
Ba1 Hg0 3.509562 1_555
Ba1 Sn3 3.592769 1_555
Ba1 Sn2 3.592769 1_655
Ba1 Sn7 3.592769 1_565
Ba1 Sn0 3.592769 1_555
Ba1 Sn4 3.652572 1_655
Ba1 Sn1 3.652579 1_565
Ba1 Sn5 3.652589 1_555
Ba1 Sn6 3.652596 1_555
Ba2 Hg0 3.610820 1_556
Ba2 Sn1 3.615222 1_555
Ba2 Sn2 3.615230 1_656
Ba2 Sn7 3.777706 1_556
Ba2 Sn6 3.777713 1_545
Ba2 Sn3 3.875854 1_556
Ba2 Sn4 3.875861 1_545
Ba2 Sn0 4.078916 1_545
Ba2 Sn5 4.078918 1_556
Ba3 Hg0 3.610820 1_555
Ba3 Sn0 3.615222 1_555
Ba3 Sn5 3.615230 1_454
Ba3 Sn4 3.777706 1_554
Ba3 Sn3 3.777713 1_565
Ba3 Sn6 3.875854 1_554
Ba3 Sn7 3.875861 1_565
Ba3 Sn1 4.078916 1_565
Ba3 Sn2 4.078918 1_554
Ba4 Hg0 3.610820 1_556
Ba4 Sn7 3.615226 1_566
Ba4 Sn6 3.615227 1_555
Ba4 Sn5 3.777706 1_555
Ba4 Sn0 3.777712 1_656
Ba4 Sn2 3.875854 1_656
Ba4 Sn1 3.875860 1_555
Ba4 Sn3 4.078917 1_555
Ba4 Sn4 4.078917 1_656
Ba5 Hg0 3.610820 1_555
Ba5 Sn4 3.615226 1_544
Ba5 Sn3 3.615227 1_555
Ba5 Sn2 3.777706 1_555
Ba5 Sn1 3.777712 1_454
Ba5 Sn5 3.875854 1_454
Ba5 Sn0 3.875860 1_555
Ba5 Sn6 4.078917 1_555
Ba5 Sn7 4.078917 1_454
Sn0 Sn4 2.990748 1_555
Sn0 Sn6 2.990749 1_555
Sn0 Sn1 3.194883 1_565
Sn1 Sn7 2.990748 1_555
Sn1 Sn3 2.990749 1_555
Sn2 Sn4 2.990732 1_555
Sn2 Sn6 2.990732 1_555
Sn2 Sn5 3.194906 1_455
Sn3 Sn5 2.990732 1_555
Sn3 Sn6 3.194895 1_555
Sn4 Sn7 3.194894 1_465
Sn5 Sn7 2.990732 1_555
As0 Ba0 3.136623 1_555
As0 Ba1 3.136623 1_444
As0 Ba5 3.248997 1_555
As0 Ba4 3.248997 1_444
As0 Ba3 3.248997 1_545
As0 Ba2 3.248997 1_454
