# generated using pymatgen
data_Sr6Mg23
_symmetry_space_group_name_H-M   'P 1'
_cell_length_a   10.50909801
_cell_length_b   10.50909711
_cell_length_c   10.50909749
_cell_angle_alpha   59.99985776
_cell_angle_beta   59.99985592
_cell_angle_gamma   59.99985936
_symmetry_Int_Tables_number   1
_chemical_formula_structural   Sr6Mg23
_chemical_formula_sum   'Sr6 Mg23'
_cell_volume   820.69137547
_cell_formula_units_Z   1
loop_
 _symmetry_equiv_pos_site_id
 _symmetry_equiv_pos_as_xyz
  1  'x, y, z'
loop_
 _atom_site_type_symbol
 _atom_site_label
 _atom_site_symmetry_multiplicity
 _atom_site_fract_x
 _atom_site_fract_y
 _atom_site_fract_z
 _atom_site_occupancy
  Sr  Sr0  1  0.79321712  0.20678288  0.20678288  1
  Sr  Sr1  1  0.79321712  0.79321712  0.20678288  1
  Sr  Sr2  1  0.20678288  0.20678288  0.79321712  1
  Sr  Sr3  1  0.79321712  0.20678288  0.79321712  1
  Sr  Sr4  1  0.20678288  0.79321712  0.20678288  1
  Sr  Sr5  1  0.20678288  0.79321712  0.79321712  1
  Mg  Mg0  1  0.50000000  0.50000000  0.50000000  1
  Mg  Mg1  1  0.50000000  -0.00000000  0.00000000  1
  Mg  Mg2  1  0.00000000  -0.00000000  0.50000000  1
  Mg  Mg3  1  0.50000000  0.50000000  0.00000000  1
  Mg  Mg4  1  0.00000000  0.50000000  0.50000000  1
  Mg  Mg5  1  0.00000000  0.50000000  0.00000000  1
  Mg  Mg6  1  0.50000000  -0.00000000  0.50000000  1
  Mg  Mg7  1  0.37777367  0.37777367  0.37777367  1
  Mg  Mg8  1  0.62222533  0.62222533  0.13332402  1
  Mg  Mg9  1  0.13332402  0.62222533  0.62222533  1
  Mg  Mg10  1  0.62222533  0.13332402  0.62222533  1
  Mg  Mg11  1  0.86667598  0.37777467  0.37777467  1
  Mg  Mg12  1  0.37777467  0.86667598  0.37777467  1
  Mg  Mg13  1  0.37777467  0.37777467  0.86667598  1
  Mg  Mg14  1  0.62222633  0.62222633  0.62222633  1
  Mg  Mg15  1  0.17455460  0.17455460  0.17455460  1
  Mg  Mg16  1  0.82544540  0.82544440  0.52366781  1
  Mg  Mg17  1  0.52366781  0.82544540  0.82544540  1
  Mg  Mg18  1  0.82544540  0.52366781  0.82544440  1
  Mg  Mg19  1  0.47633219  0.17455460  0.17455460  1
  Mg  Mg20  1  0.17455460  0.47633219  0.17455460  1
  Mg  Mg21  1  0.17455460  0.17455460  0.47633219  1
  Mg  Mg22  1  0.82544540  0.82544540  0.82544540  1
loop_
_geom_bond_atom_site_label_1
_geom_bond_atom_site_label_2
_geom_bond_distance
_geom_bond_site_symmetry_2
Mg0 Mg12 3.146310 1_555
Mg0 Mg10 3.146310 1_555
Mg0 Mg8 3.146310 1_555
Mg0 Mg13 3.146310 1_555
Mg0 Mg11 3.146310 1_555
Mg0 Mg9 3.146310 1_555
Mg0 Mg7 3.146345 1_555
Mg0 Mg14 3.146345 1_555
Mg1 Mg19 3.040482 1_555
Mg1 Mg17 3.040482 1_544
Mg1 Mg15 3.040496 1_555
Mg1 Mg22 3.040496 1_544
Mg1 Mg8 3.242243 1_545
Mg1 Mg13 3.242243 1_554
Mg1 Mg12 3.242243 1_545
Mg1 Mg10 3.242243 1_554
Mg1 Sr3 3.770632 1_554
Mg1 Sr4 3.770632 1_545
Mg1 Sr1 3.770632 1_545
Mg1 Sr2 3.770632 1_554
Mg2 Mg21 3.040483 1_555
Mg2 Mg22 3.040496 1_445
Mg2 Mg9 3.242243 1_545
Mg2 Sr4 3.770632 1_545
Mg2 Sr3 3.770632 1_455
Mg2 Sr0 3.770632 1_455
Mg2 Sr5 3.770632 1_545
Mg3 Mg7 3.242234 1_555
Mg3 Mg8 3.242252 1_555
Mg3 Sr4 3.770629 1_555
Mg3 Sr3 3.770629 1_554
Mg3 Sr5 3.770630 1_554
Mg3 Sr0 3.770630 1_555
Mg4 Mg7 3.242234 1_555
Mg4 Mg9 3.242252 1_555
Mg4 Sr3 3.770629 1_455
Mg4 Sr4 3.770629 1_555
Mg4 Sr1 3.770630 1_455
Mg4 Sr2 3.770630 1_555
Mg5 Mg9 3.242243 1_554
Mg5 Mg8 3.242243 1_455
Mg5 Sr2 3.770632 1_554
Mg5 Sr1 3.770632 1_455
Mg5 Sr0 3.770632 1_455
Mg5 Sr5 3.770632 1_554
Mg6 Mg7 3.242234 1_555
Mg6 Sr2 3.770629 1_555
Mg6 Sr1 3.770629 1_545
Mg6 Sr5 3.770629 1_545
Mg6 Sr0 3.770629 1_555
Mg7 Sr2 3.613545 1_555
Mg7 Sr4 3.613545 1_555
Mg7 Sr0 3.613546 1_555
Mg8 Sr0 3.613542 1_555
Mg8 Sr4 3.613543 1_555
Mg8 Sr1 3.613552 1_555
Mg9 Sr2 3.613542 1_555
Mg9 Sr4 3.613543 1_555
Mg9 Sr5 3.613552 1_555
Mg10 Mg17 3.214286 1_545
Mg10 Mg16 3.214294 1_545
Mg10 Mg22 3.214304 1_545
Mg10 Mg2 3.242243 1_655
Mg10 Mg6 3.242252 1_555
Mg10 Sr0 3.613542 1_555
Mg10 Sr2 3.613543 1_555
Mg10 Sr3 3.613552 1_555
Mg11 Mg20 3.214286 1_655
Mg11 Mg21 3.214286 1_655
Mg11 Mg15 3.214304 1_655
Mg11 Mg5 3.242243 1_655
Mg11 Mg2 3.242243 1_655
Mg11 Mg4 3.242252 1_655
Mg11 Sr1 3.613542 1_555
Mg11 Sr3 3.613543 1_555
Mg11 Sr0 3.613552 1_555
Mg12 Mg19 3.214286 1_565
Mg12 Mg21 3.214286 1_565
Mg12 Mg15 3.214304 1_565
Mg12 Mg2 3.242243 1_565
Mg12 Mg6 3.242252 1_565
Mg12 Sr5 3.613542 1_555
Mg12 Sr1 3.613543 1_555
Mg12 Sr4 3.613552 1_555
Mg13 Mg20 3.214286 1_556
Mg13 Mg19 3.214286 1_556
Mg13 Mg15 3.214304 1_556
Mg13 Mg5 3.242243 1_556
Mg13 Mg3 3.242252 1_556
Mg13 Sr5 3.613542 1_555
Mg13 Sr3 3.613543 1_555
Mg13 Sr2 3.613552 1_555
Mg14 Mg16 3.214295 1_555
Mg14 Mg18 3.214295 1_555
Mg14 Mg17 3.214303 1_555
Mg14 Mg6 3.242234 1_565
Mg14 Mg3 3.242234 1_556
Mg14 Mg4 3.242234 1_655
Mg14 Sr1 3.613545 1_555
Mg14 Sr3 3.613545 1_555
Mg14 Sr5 3.613546 1_555
Mg15 Mg2 3.040496 1_555
Mg15 Mg5 3.040496 1_555
Mg15 Mg20 3.171410 1_555
Mg15 Mg21 3.171410 1_555
Mg15 Mg19 3.171410 1_555
Mg15 Sr4 3.699955 1_545
Mg15 Sr2 3.699955 1_554
Mg15 Sr0 3.699956 1_455
Mg16 Mg2 3.040492 1_665
Mg16 Mg4 3.040504 1_655
Mg16 Mg6 3.040513 1_565
Mg16 Mg18 3.171393 1_555
Mg16 Mg17 3.171403 1_555
Mg16 Mg22 3.171415 1_555
Mg16 Mg9 3.214286 1_655
Mg16 Sr4 3.699966 1_655
Mg16 Sr0 3.699972 1_565
Mg16 Sr1 3.699994 1_555
Mg17 Mg3 3.040513 1_556
Mg17 Mg6 3.040513 1_565
Mg17 Mg18 3.171403 1_555
Mg17 Mg22 3.171410 1_555
Mg17 Mg8 3.214286 1_556
Mg17 Sr4 3.699966 1_556
Mg17 Sr2 3.699966 1_565
Mg17 Sr5 3.700000 1_555
Mg18 Mg5 3.040492 1_656
Mg18 Mg4 3.040504 1_655
Mg18 Mg3 3.040513 1_556
Mg18 Mg22 3.171415 1_555
Mg18 Mg9 3.214286 1_655
Mg18 Mg8 3.214294 1_556
Mg18 Sr2 3.699966 1_655
Mg18 Sr0 3.699972 1_556
Mg18 Sr3 3.699994 1_555
Mg19 Mg3 3.040513 1_555
Mg19 Mg6 3.040513 1_555
Mg19 Mg21 3.171403 1_555
Mg19 Mg20 3.171403 1_555
Mg19 Mg7 3.214303 1_555
Mg19 Sr3 3.699966 1_554
Mg19 Sr1 3.699966 1_545
Mg19 Sr0 3.700000 1_555
Mg20 Mg5 3.040483 1_555
Mg20 Mg4 3.040513 1_555
Mg20 Mg3 3.040513 1_555
Mg20 Mg21 3.171403 1_555
Mg20 Mg7 3.214304 1_555
Mg20 Sr5 3.699966 1_554
Mg20 Sr1 3.699966 1_455
Mg20 Sr4 3.700000 1_555
Mg21 Mg4 3.040513 1_555
Mg21 Mg6 3.040513 1_555
Mg21 Mg7 3.214304 1_555
Mg21 Sr5 3.699966 1_545
Mg21 Sr3 3.699966 1_455
Mg21 Sr2 3.700000 1_555
Mg22 Mg5 3.040496 1_656
Mg22 Mg8 3.214304 1_556
Mg22 Mg9 3.214304 1_655
Mg22 Sr3 3.699955 1_565
Mg22 Sr1 3.699955 1_556
Mg22 Sr5 3.699956 1_655
