# generated using pymatgen
data_Sr4TaNiO8
_symmetry_space_group_name_H-M   'P 1'
_cell_length_a   6.83522694
_cell_length_b   6.83522765
_cell_length_c   5.55047827
_cell_angle_alpha   90.00000000
_cell_angle_beta   90.00000000
_cell_angle_gamma   131.91414735
_symmetry_Int_Tables_number   1
_chemical_formula_structural   Sr4TaNiO8
_chemical_formula_sum   'Sr4 Ta1 Ni1 O8'
_cell_volume   192.97224272
_cell_formula_units_Z   1
loop_
 _symmetry_equiv_pos_site_id
 _symmetry_equiv_pos_as_xyz
  1  'x, y, z'
loop_
 _atom_site_type_symbol
 _atom_site_label
 _atom_site_symmetry_multiplicity
 _atom_site_fract_x
 _atom_site_fract_y
 _atom_site_fract_z
 _atom_site_occupancy
  Sr  Sr0  1  0.64635092  0.35364908  0.00000000  1
  Sr  Sr1  1  0.14234074  0.85765926  0.50000000  1
  Sr  Sr2  1  0.85765926  0.14234074  0.50000000  1
  Sr  Sr3  1  0.35364908  0.64635092  0.00000000  1
  Ta  Ta0  1  0.50000000  0.50000000  0.50000000  1
  Ni  Ni0  1  0.00000000  0.00000000  0.00000000  1
  O  O0  1  0.74835466  0.74835466  0.74927781  1
  O  O1  1  0.25164534  0.25164534  0.25072219  1
  O  O2  1  0.25164534  0.25164534  0.74927781  1
  O  O3  1  0.74835466  0.74835466  0.25072219  1
  O  O4  1  0.84444575  0.15555425  0.00000000  1
  O  O5  1  0.33809464  0.66190536  0.50000000  1
  O  O6  1  0.66190536  0.33809464  0.50000000  1
  O  O7  1  0.15555425  0.84444575  0.00000000  1
loop_
_geom_bond_atom_site_label_1
_geom_bond_atom_site_label_2
_geom_bond_distance
_geom_bond_site_symmetry_2
Ni0 O7 1.942003 1_545
Ni0 O4 1.942003 1_455
Ni0 O1 1.975103 1_555
Ni0 O3 1.975103 1_445
Ni0 O2 1.975103 1_554
Ni0 O0 1.975103 1_444
O0 Ta0 1.956462 1_555
O0 Sr1 2.652669 1_655
O0 Sr2 2.652670 1_565
O0 Sr3 2.681101 1_556
O0 Sr0 2.681102 1_556
O1 Ta0 1.956462 1_555
O1 Sr2 2.652669 1_455
O1 Sr1 2.652670 1_545
O1 Sr0 2.681101 1_555
O1 Sr3 2.681102 1_555
O2 Ta0 1.956462 1_555
O2 Sr2 2.652669 1_455
O2 Sr1 2.652670 1_545
O2 Sr0 2.681101 1_556
O2 Sr3 2.681102 1_556
O3 Ta0 1.956462 1_555
O3 Sr1 2.652669 1_655
O3 Sr2 2.652670 1_565
O3 Sr3 2.681101 1_555
O3 Sr0 2.681102 1_555
O4 Sr0 2.473098 1_555
O4 Sr2 2.780138 1_555
O4 Sr2 2.780138 1_554
O4 Sr3 2.787184 1_655
O4 Sr3 2.787184 1_545
O5 Ta0 2.021293 1_555
O5 Sr1 2.443872 1_555
O5 Sr3 2.782025 1_555
O5 Sr3 2.782025 1_556
O5 Sr2 2.795506 1_565
O5 Sr2 2.795506 1_455
O6 Ta0 2.021293 1_555
O6 Sr2 2.443872 1_555
O6 Sr0 2.782025 1_555
O6 Sr0 2.782025 1_556
O6 Sr1 2.795506 1_545
O6 Sr1 2.795506 1_655
O7 Sr3 2.473098 1_555
O7 Sr1 2.780138 1_554
O7 Sr1 2.780138 1_555
O7 Sr0 2.787184 1_455
O7 Sr0 2.787184 1_565
