# generated using pymatgen
data_CdIr2PbO7
_symmetry_space_group_name_H-M   'P 1'
_cell_length_a   7.22053603
_cell_length_b   7.22053597
_cell_length_c   7.27838987
_cell_angle_alpha   59.73460021
_cell_angle_beta   59.73460046
_cell_angle_gamma   59.63988621
_symmetry_Int_Tables_number   1
_chemical_formula_structural   CdIr2PbO7
_chemical_formula_sum   'Cd2 Ir4 Pb2 O14'
_cell_volume   266.51331935
_cell_formula_units_Z   2
loop_
 _symmetry_equiv_pos_site_id
 _symmetry_equiv_pos_as_xyz
  1  'x, y, z'
loop_
 _atom_site_type_symbol
 _atom_site_label
 _atom_site_symmetry_multiplicity
 _atom_site_fract_x
 _atom_site_fract_y
 _atom_site_fract_z
 _atom_site_occupancy
  Cd  Cd0  1  0.62500000  0.12500000  0.12500000  1
  Cd  Cd1  1  0.12500000  0.62500000  0.12500000  1
  Ir  Ir0  1  0.12500000  0.62500000  0.62500000  1
  Ir  Ir1  1  0.62500000  0.12500000  0.62500000  1
  Ir  Ir2  1  0.62500000  0.62500000  0.12500000  1
  Ir  Ir3  1  0.62500000  0.62500000  0.62500000  1
  Pb  Pb0  1  0.12500000  0.12500000  0.62500000  1
  Pb  Pb1  1  0.12500000  0.12500000  0.12500000  1
  O  O0  1  0.69773258  0.69773258  0.30226742  1
  O  O1  1  0.29271593  0.29271593  0.70728407  1
  O  O2  1  0.71205103  0.29621984  0.69209308  1
  O  O3  1  0.29621984  0.71205103  0.29963606  1
  O  O4  1  0.29621984  0.71205103  0.69209308  1
  O  O5  1  0.71205103  0.29621984  0.29963606  1
  O  O6  1  0.55226742  0.55226742  0.94773258  1
  O  O7  1  0.95728407  0.95728407  0.54271593  1
  O  O8  1  0.53794897  0.95378016  0.55790692  1
  O  O9  1  0.95378016  0.53794897  0.95036394  1
  O  O10  1  0.95378016  0.53794897  0.55790692  1
  O  O11  1  0.53794897  0.95378016  0.95036394  1
  O  O12  1  0.25905599  0.25905599  0.24094401  1
  O  O13  1  0.99094401  0.99094401  0.00905599  1
loop_
_geom_bond_atom_site_label_1
_geom_bond_atom_site_label_2
_geom_bond_distance
_geom_bond_site_symmetry_2
Cd0 O13 2.149692 1_545
Cd0 O12 2.149692 1_555
Cd0 O6 2.547777 1_554
Cd0 O0 2.547777 1_545
Cd0 O5 2.591141 1_555
Cd0 O11 2.591141 1_544
Cd0 O8 2.591141 1_545
Cd0 O2 2.591141 1_554
Cd1 O13 2.149692 1_455
Cd1 O12 2.149692 1_555
Cd1 O6 2.547777 1_554
Cd1 O0 2.547777 1_455
Cd1 O3 2.591141 1_555
Cd1 O9 2.591141 1_454
Cd1 O10 2.591141 1_455
Cd1 O4 2.591141 1_554
Ir0 O4 1.966079 1_555
Ir0 O10 1.966079 1_455
Ir0 O9 1.966080 1_455
Ir0 O3 1.966080 1_555
Ir0 O7 1.981729 1_455
Ir0 O1 1.981729 1_555
Ir1 O2 1.966079 1_555
Ir1 O8 1.966079 1_545
Ir1 O11 1.966080 1_545
Ir1 O5 1.966080 1_555
Ir1 O7 1.981729 1_545
Ir1 O1 1.981729 1_555
Ir2 O0 1.964968 1_555
Ir2 O6 1.964968 1_554
Ir2 O11 1.975278 1_554
Ir2 O5 1.975278 1_555
Ir2 O9 1.975278 1_554
Ir2 O3 1.975278 1_555
Ir3 O6 1.964968 1_555
Ir3 O0 1.964968 1_555
Ir3 O8 1.975278 1_555
Ir3 O2 1.975278 1_555
Ir3 O10 1.975278 1_555
Ir3 O4 1.975278 1_555
O1 Pb0 2.497261 1_555
O1 Pb1 2.497261 1_556
O2 Pb0 2.464143 1_655
O3 Pb1 2.464143 1_565
O4 Pb0 2.464143 1_565
O5 Pb1 2.464143 1_655
O7 Pb0 2.497261 1_665
O7 Pb1 2.497261 1_665
O8 Pb0 2.464143 1_565
O9 Pb1 2.464143 1_656
O10 Pb0 2.464143 1_655
O11 Pb1 2.464143 1_566
O12 Pb1 2.275944 1_555
O12 Pb0 2.275944 1_555
O13 Pb1 2.275944 1_665
O13 Pb0 2.275944 1_664
