# generated using pymatgen
data_La2PbS4
_symmetry_space_group_name_H-M   'P 1'
_cell_length_a   7.62937678
_cell_length_b   7.62937095
_cell_length_c   7.62936899
_cell_angle_alpha   109.34353107
_cell_angle_beta   109.34358565
_cell_angle_gamma   109.72681114
_symmetry_Int_Tables_number   1
_chemical_formula_structural   La2PbS4
_chemical_formula_sum   'La4 Pb2 S8'
_cell_volume   341.85208647
_cell_formula_units_Z   2
loop_
 _symmetry_equiv_pos_site_id
 _symmetry_equiv_pos_as_xyz
  1  'x, y, z'
loop_
 _atom_site_type_symbol
 _atom_site_label
 _atom_site_symmetry_multiplicity
 _atom_site_fract_x
 _atom_site_fract_y
 _atom_site_fract_z
 _atom_site_occupancy
  La  La0  1  0.62500052  0.01027575  0.88527633  1
  La  La1  1  0.12500013  0.73972275  0.11472193  1
  La  La2  1  0.98972255  0.87500076  0.61472195  1
  La  La3  1  0.26027888  0.37499954  0.38527933  1
  Pb  Pb0  1  0.50000038  0.50000015  0.00000001  1
  Pb  Pb1  1  0.74999831  0.24999873  0.49999831  1
  S  S0  1  0.51543150  0.76685042  0.39970197  1
  S  S1  1  0.88285164  0.98315120  0.24858243  1
  S  S2  1  0.73456786  0.63426998  0.75141847  1
  S  S3  1  0.01685032  0.26543264  0.89970165  1
  S  S4  1  0.88426880  0.48456733  0.25141719  1
  S  S5  1  0.36572957  0.11714762  0.10029853  1
  S  S6  1  0.23315041  0.63285192  0.74858270  1
  S  S7  1  0.36714913  0.11573119  0.60029919  1
loop_
_geom_bond_atom_site_label_1
_geom_bond_atom_site_label_2
_geom_bond_distance
_geom_bond_site_symmetry_2
La0 S6 2.906986 1_545
La0 S3 2.906989 1_655
La0 S1 2.939092 1_546
La0 S7 2.939102 1_555
La0 S4 3.101791 1_556
La0 S5 3.101802 1_556
La0 S2 3.196044 1_545
La0 S0 3.196048 1_545
La1 S5 2.906976 1_565
La1 S4 2.906994 1_455
La1 S2 2.939097 1_454
La1 S0 2.939098 1_555
La1 S6 3.101775 1_554
La1 S3 3.101781 1_554
La1 S7 3.196071 1_565
La1 S1 3.196072 1_455
La2 S7 2.906987 1_665
La2 S2 2.906996 1_555
La2 S3 2.939099 1_665
La2 S4 2.939105 1_555
La2 S1 3.101777 1_555
La2 S0 3.101787 1_555
La2 S5 3.196066 1_666
La2 S6 3.196070 1_655
La3 S1 2.906984 1_445
La3 S0 2.906995 1_555
La3 S5 2.939096 1_555
La3 S6 2.939099 1_555
La3 S7 3.101766 1_555
La3 S2 3.101774 1_555
La3 S3 3.196077 1_554
La3 S4 3.196079 1_455
Pb0 S4 2.990900 1_555
Pb0 S7 2.990900 1_554
Pb0 S6 2.990902 1_554
Pb0 S0 2.990911 1_555
Pb0 S2 3.185391 1_554
Pb0 S3 3.185398 1_554
Pb0 S1 3.185402 1_555
Pb0 S5 3.185403 1_555
Pb1 S5 2.990895 1_555
Pb1 S1 2.990896 1_545
Pb1 S3 2.990911 1_655
Pb1 S2 2.990914 1_555
Pb1 S0 3.185389 1_545
Pb1 S7 3.185392 1_555
Pb1 S4 3.185394 1_555
Pb1 S6 3.185411 1_655
