# generated using pymatgen
data_CsCdH6Ir
_symmetry_space_group_name_H-M   'P 1'
_cell_length_a   7.16767678
_cell_length_b   7.17760611
_cell_length_c   7.19043700
_cell_angle_alpha   40.37484470
_cell_angle_beta   40.39687072
_cell_angle_gamma   40.42625219
_symmetry_Int_Tables_number   1
_chemical_formula_structural   CsCdH6Ir
_chemical_formula_sum   'Cs1 Cd1 H6 Ir1'
_cell_volume   140.11484615
_cell_formula_units_Z   1
loop_
 _symmetry_equiv_pos_site_id
 _symmetry_equiv_pos_as_xyz
  1  'x, y, z'
loop_
 _atom_site_type_symbol
 _atom_site_label
 _atom_site_symmetry_multiplicity
 _atom_site_fract_x
 _atom_site_fract_y
 _atom_site_fract_z
 _atom_site_occupancy
  Cs  Cs0  1  0.79026466  0.78915102  0.78767542  1
  Cd  Cd0  1  0.30709220  0.30835633  0.30974852  1
  H  H0  1  0.77771502  0.77742106  0.24269952  1
  H  H1  1  0.18386213  0.75049216  0.18569557  1
  H  H2  1  0.74961575  0.18427147  0.18525125  1
  H  H3  1  0.18442950  0.18522610  0.75147914  1
  H  H4  1  0.77798644  0.24479303  0.77735681  1
  H  H5  1  0.24659793  0.77786949  0.77760754  1
  Ir  Ir0  1  0.98243635  0.98241634  0.98248522  1
loop_
_geom_bond_atom_site_label_1
_geom_bond_atom_site_label_2
_geom_bond_distance
_geom_bond_site_symmetry_2
Cs0 H3 2.965344 1_655
Cs0 H3 2.967398 1_565
Cs0 H1 2.968206 1_655
Cs0 H2 2.972900 1_565
Cs0 H1 2.973030 1_556
Cs0 H2 2.975432 1_556
Cs0 H0 3.140629 1_556
Cs0 H4 3.148162 1_565
Cs0 H5 3.155200 1_655
Cd0 H2 2.060166 1_555
Cd0 H1 2.065483 1_555
Cd0 H3 2.072449 1_555
H0 Ir0 1.652156 1_554
H1 Ir0 1.684818 1_454
H2 Ir0 1.685593 1_544
H3 Ir0 1.684018 1_445
H4 Ir0 1.651632 1_545
H5 Ir0 1.650855 1_455
