# generated using pymatgen
data_K2NaYBi2
_symmetry_space_group_name_H-M   'P 1'
_cell_length_a   9.88242171
_cell_length_b   9.88242129
_cell_length_c   9.88242135
_cell_angle_alpha   135.50438844
_cell_angle_beta   65.01643441
_cell_angle_gamma   135.15800720
_symmetry_Int_Tables_number   1
_chemical_formula_structural   K2NaYBi2
_chemical_formula_sum   'K4 Na2 Y2 Bi4'
_cell_volume   470.13917884
_cell_formula_units_Z   2
loop_
 _symmetry_equiv_pos_site_id
 _symmetry_equiv_pos_as_xyz
  1  'x, y, z'
loop_
 _atom_site_type_symbol
 _atom_site_label
 _atom_site_symmetry_multiplicity
 _atom_site_fract_x
 _atom_site_fract_y
 _atom_site_fract_z
 _atom_site_occupancy
  K  K0  1  0.32211506  0.77749860  0.09961366  1
  K  K1  1  0.17788494  0.27749860  0.45538354  1
  K  K2  1  0.82211506  0.72250240  0.54461646  1
  K  K3  1  0.67788494  0.22250140  0.90038534  1
  Na  Na0  1  0.75000000  0.25000000  0.50000000  1
  Na  Na1  1  0.25000000  0.75000000  0.50000000  1
  Y  Y0  1  0.25000000  0.25000000  0.00000000  1
  Y  Y1  1  0.75000100  0.75000100  0.00000000  1
  Bi  Bi0  1  0.89453458  0.22929348  0.12382606  1
  Bi  Bi1  1  0.60546642  0.72929248  0.33475790  1
  Bi  Bi2  1  0.39453358  0.27070752  0.66524210  1
  Bi  Bi3  1  0.10546642  0.77070752  0.87617394  1
loop_
_geom_bond_atom_site_label_1
_geom_bond_atom_site_label_2
_geom_bond_distance
_geom_bond_site_symmetry_2
K0 Na1 3.887833 1_555
K0 Na0 3.887833 1_565
K0 Y0 4.081070 1_555
K0 Y1 4.081073 1_555
K0 K1 4.447360 1_565
K0 K1 4.447361 1_554
K0 K3 4.489537 1_454
K0 K3 4.489543 1_564
K1 Na1 3.887833 1_555
K1 Na0 3.887833 1_455
K1 Y1 4.081066 1_445
K1 Y0 4.081070 1_555
K1 K2 4.489527 1_445
K1 K2 4.489534 1_555
K2 Na1 3.887839 1_655
K2 Na0 3.887842 1_555
K2 Y1 4.081072 1_556
K2 Y0 4.081072 1_666
K2 K3 4.447354 1_565
K2 K3 4.447367 1_554
K3 Na0 3.887823 1_555
K3 Na1 3.887827 1_545
K3 Y1 4.081067 1_556
K3 Y0 4.081067 1_556
Na0 Y1 3.741615 1_545
Na0 Y1 3.741615 1_556
Na0 Na1 3.769246 1_545
Na0 Na1 3.769246 1_655
Na1 Y0 3.741615 1_555
Na1 Y0 3.741615 1_566
Bi0 Y0 3.096153 1_655
Bi0 Y1 3.096158 1_545
Bi0 Na1 3.278073 1_655
Bi0 Na0 3.278081 1_555
Bi0 K3 3.611460 1_554
Bi0 K2 3.883174 1_555
Bi0 K0 3.974205 1_655
Bi0 K0 3.974220 1_545
Bi0 K2 3.979895 1_544
Bi1 Y1 3.096153 1_555
Bi1 Y0 3.096154 1_555
Bi1 Na0 3.278073 1_565
Bi1 Na1 3.278077 1_555
Bi1 K2 3.611452 1_555
Bi1 K3 3.883168 1_565
Bi1 K1 3.974212 1_665
Bi1 K1 3.974219 1_555
Bi1 K3 3.979896 1_554
Bi2 Y0 3.096149 1_556
Bi2 Y1 3.096158 1_556
Bi2 Na1 3.278073 1_545
Bi2 Na0 3.278077 1_555
Bi2 K1 3.611460 1_555
Bi2 K0 3.883174 1_545
Bi2 K2 3.974211 1_445
Bi2 K2 3.974225 1_555
Bi2 K0 3.979895 1_556
Bi3 Y1 3.096153 1_456
Bi3 Y0 3.096158 1_566
Bi3 Na1 3.278077 1_555
Bi3 Na0 3.278077 1_455
Bi3 K0 3.611452 1_556
Bi3 K1 3.883168 1_555
Bi3 K3 3.974207 1_455
Bi3 K3 3.974214 1_565
Bi3 K1 3.979896 1_566
