# generated using pymatgen
data_Rb4HgAs2Pd
_symmetry_space_group_name_H-M   'P 1'
_cell_length_a   6.61792154
_cell_length_b   6.61792087
_cell_length_c   6.23746533
_cell_angle_alpha   89.30588971
_cell_angle_beta   90.69410257
_cell_angle_gamma   74.34000536
_symmetry_Int_Tables_number   1
_chemical_formula_structural   Rb4HgAs2Pd
_chemical_formula_sum   'Rb4 Hg1 As2 Pd1'
_cell_volume   262.98827277
_cell_formula_units_Z   1
loop_
 _symmetry_equiv_pos_site_id
 _symmetry_equiv_pos_as_xyz
  1  'x, y, z'
loop_
 _atom_site_type_symbol
 _atom_site_label
 _atom_site_symmetry_multiplicity
 _atom_site_fract_x
 _atom_site_fract_y
 _atom_site_fract_z
 _atom_site_occupancy
  Rb  Rb0  1  0.47733406  0.18150006  0.25651110  1
  Rb  Rb1  1  0.81849994  0.52266594  0.25651110  1
  Rb  Rb2  1  0.18150006  0.47733406  0.74348990  1
  Rb  Rb3  1  0.52266594  0.81849994  0.74348990  1
  Hg  Hg0  1  0.00000000  0.00000000  0.00000000  1
  As  As0  1  0.24885641  0.75114259  0.25913072  1
  As  As1  1  0.75114259  0.24885641  0.74087028  1
  Pd  Pd0  1  0.00000000  0.00000000  0.49999900  1
loop_
_geom_bond_atom_site_label_1
_geom_bond_atom_site_label_2
_geom_bond_distance
_geom_bond_site_symmetry_2
Hg0 Pd0 3.118726 1_555
Hg0 Pd0 3.118739 1_554
Hg0 Rb2 3.728912 1_544
Hg0 Rb3 3.728912 1_544
Hg0 Rb1 3.728914 1_455
Hg0 Rb0 3.728915 1_455
As0 Pd0 2.517443 1_565
As0 Hg0 2.538482 1_565
As0 Rb1 3.566835 1_455
As0 Rb0 3.566845 1_565
As0 Rb2 3.598019 1_555
As0 Rb3 3.598025 1_555
As0 Rb0 3.663758 1_555
As0 Rb1 3.663764 1_555
As0 Rb2 3.790681 1_554
As0 Rb3 3.790686 1_554
As1 Pd0 2.517454 1_655
As1 Hg0 2.538478 1_656
As1 Rb3 3.566835 1_545
As1 Rb2 3.566845 1_655
As1 Rb0 3.598019 1_555
As1 Rb1 3.598024 1_555
As1 Rb2 3.663758 1_555
As1 Rb3 3.663763 1_555
As1 Rb0 3.790681 1_556
As1 Rb1 3.790686 1_556
Pd0 Rb1 3.646826 1_455
Pd0 Rb0 3.646826 1_455
Pd0 Rb2 3.646833 1_545
Pd0 Rb3 3.646834 1_545
Pd0 Rb0 3.981062 1_555
Pd0 Rb1 3.981062 1_445
Pd0 Rb3 3.981069 1_445
Pd0 Rb2 3.981069 1_555
