# generated using pymatgen
data_Ba5P5I3
_symmetry_space_group_name_H-M   'P 1'
_cell_length_a   21.70147607
_cell_length_b   21.70147607
_cell_length_c   9.57214164
_cell_angle_alpha   87.59456316
_cell_angle_beta   87.59456316
_cell_angle_gamma   12.18707874
_symmetry_Int_Tables_number   1
_chemical_formula_structural   Ba5P5I3
_chemical_formula_sum   'Ba10 P10 I6'
_cell_volume   950.81859452
_cell_formula_units_Z   2
loop_
 _symmetry_equiv_pos_site_id
 _symmetry_equiv_pos_as_xyz
  1  'x, y, z'
loop_
 _atom_site_type_symbol
 _atom_site_label
 _atom_site_symmetry_multiplicity
 _atom_site_fract_x
 _atom_site_fract_y
 _atom_site_fract_z
 _atom_site_occupancy
  Ba  Ba0  1  0.94036700  0.94036700  0.79284600  1
  Ba  Ba1  1  0.05963300  0.05963300  0.20715400  1
  Ba  Ba2  1  0.95833800  0.95833800  0.35097200  1
  Ba  Ba3  1  0.04166200  0.04166200  0.64902800  1
  Ba  Ba4  1  0.36153300  0.36153300  0.58665400  1
  Ba  Ba5  1  0.63846700  0.63846700  0.41334600  1
  Ba  Ba6  1  0.34202900  0.34202900  0.04744000  1
  Ba  Ba7  1  0.65797100  0.65797100  0.95256000  1
  Ba  Ba8  1  0.26008000  0.26008000  0.77795100  1
  Ba  Ba9  1  0.73992000  0.73992000  0.22204900  1
  P  P0  1  0.79089200  0.79089200  0.97224900  1
  P  P1  1  0.20910800  0.20910800  0.02775100  1
  P  P2  1  0.82021600  0.82021600  0.78275100  1
  P  P3  1  0.17978400  0.17978400  0.21724900  1
  P  P4  1  0.86936300  0.86936300  0.82633800  1
  P  P5  1  0.13063700  0.13063700  0.17366200  1
  P  P6  1  0.43660000  0.43660000  0.55999200  1
  P  P7  1  0.56340000  0.56340000  0.44000800  1
  P  P8  1  0.48582100  0.48582100  0.60413200  1
  P  P9  1  0.51417900  0.51417900  0.39586800  1
  I  I0  1  0.87503100  0.87503100  0.29953800  1
  I  I1  1  0.12496900  0.12496900  0.70046200  1
  I  I2  1  0.28985200  0.28985200  0.39556400  1
  I  I3  1  0.71014800  0.71014800  0.60443600  1
  I  I4  1  0.44886100  0.44886100  0.06798100  1
  I  I5  1  0.55113900  0.55113900  0.93201900  1
loop_
_geom_bond_atom_site_label_1
_geom_bond_atom_site_label_2
_geom_bond_distance
_geom_bond_site_symmetry_2
Ba0 P4 3.067607 1_555
Ba0 P6 3.214326 1_655
Ba0 P6 3.214326 1_565
Ba0 P8 3.481233 1_565
Ba0 P8 3.481233 1_655
Ba0 I4 3.529691 1_566
Ba0 I4 3.529691 1_656
Ba1 P5 3.067607 1_555
Ba1 P7 3.214326 1_545
Ba1 P7 3.214326 1_455
Ba1 P9 3.481233 1_455
Ba1 P9 3.481233 1_545
Ba1 I5 3.529691 1_454
Ba1 I5 3.529691 1_544
Ba2 P6 3.167269 1_565
Ba2 P6 3.167269 1_655
Ba2 P9 3.374447 1_655
Ba2 P9 3.374447 1_565
Ba2 P8 3.581704 1_565
Ba2 P8 3.581704 1_655
Ba2 I4 3.592408 1_565
Ba2 I4 3.592408 1_655
Ba2 I0 3.649424 1_555
Ba3 P7 3.167269 1_545
Ba3 P7 3.167269 1_455
Ba3 P8 3.374447 1_455
Ba3 P8 3.374447 1_545
Ba3 P9 3.581704 1_545
Ba3 P9 3.581704 1_455
Ba3 I5 3.592408 1_455
Ba3 I5 3.592408 1_545
Ba3 I1 3.649424 1_555
Ba4 P6 3.239001 1_555
Ba4 P4 3.278754 1_455
Ba4 P4 3.278754 1_545
Ba4 P2 3.424510 1_545
Ba4 P2 3.424510 1_455
Ba4 I0 3.614451 1_545
Ba4 I0 3.614451 1_455
Ba4 I2 3.659745 1_555
Ba5 P7 3.239001 1_555
Ba5 P5 3.278754 1_655
Ba5 P5 3.278754 1_565
Ba5 P3 3.424510 1_565
Ba5 P3 3.424510 1_655
Ba5 I1 3.614451 1_655
Ba5 I1 3.614451 1_565
Ba5 I3 3.659745 1_555
Ba6 P0 3.290835 1_544
Ba6 P0 3.290835 1_454
Ba6 P4 3.311634 1_544
Ba6 P4 3.311634 1_454
Ba6 P2 3.579628 1_544
Ba6 P2 3.579628 1_454
Ba6 I0 3.667248 1_545
Ba6 I0 3.667248 1_455
Ba6 I2 3.942271 1_555
Ba7 P1 3.290835 1_566
Ba7 P1 3.290835 1_656
Ba7 P5 3.311634 1_656
Ba7 P5 3.311634 1_566
Ba7 P3 3.579628 1_566
Ba7 P3 3.579628 1_656
Ba7 I1 3.667248 1_565
Ba7 I1 3.667248 1_655
Ba7 I3 3.942271 1_555
Ba8 P1 3.180046 1_556
Ba8 P0 3.277643 1_455
Ba8 P0 3.277643 1_545
Ba8 P2 3.471995 1_455
Ba8 P2 3.471995 1_545
Ba8 I3 3.607133 1_545
Ba8 I3 3.607133 1_455
Ba8 I2 3.827721 1_555
Ba9 P0 3.180046 1_554
Ba9 P1 3.277643 1_655
Ba9 P1 3.277643 1_565
Ba9 P3 3.471995 1_655
Ba9 P3 3.471995 1_565
Ba9 I2 3.607133 1_655
Ba9 I2 3.607133 1_565
Ba9 I3 3.827721 1_555
P0 P2 2.167507 1_555
P1 P3 2.167507 1_555
P2 P4 2.178928 1_555
P3 P5 2.178928 1_555
P6 P8 2.183299 1_555
P7 P9 2.183299 1_555
P8 P9 2.294789 1_555
