# generated using pymatgen
data_Rb3NaCdCl6
_symmetry_space_group_name_H-M   'P 1'
_cell_length_a   8.67296511
_cell_length_b   8.67296612
_cell_length_c   8.67296461
_cell_angle_alpha   92.93377623
_cell_angle_beta   92.93378123
_cell_angle_gamma   92.93378625
_symmetry_Int_Tables_number   1
_chemical_formula_structural   Rb3NaCdCl6
_chemical_formula_sum   'Rb6 Na2 Cd2 Cl12'
_cell_volume   649.72695654
_cell_formula_units_Z   2
loop_
 _symmetry_equiv_pos_site_id
 _symmetry_equiv_pos_as_xyz
  1  'x, y, z'
loop_
 _atom_site_type_symbol
 _atom_site_label
 _atom_site_symmetry_multiplicity
 _atom_site_fract_x
 _atom_site_fract_y
 _atom_site_fract_z
 _atom_site_occupancy
  Rb  Rb0  1  0.74781115  0.36965863  0.12595866  1
  Rb  Rb1  1  0.62595866  0.86965863  0.24781015  1
  Rb  Rb2  1  0.12595966  0.74781015  0.36965963  1
  Rb  Rb3  1  0.86965963  0.24781015  0.62595966  1
  Rb  Rb4  1  0.36965963  0.12595966  0.74781015  1
  Rb  Rb5  1  0.24781015  0.62595866  0.86965863  1
  Na  Na0  1  0.24815935  0.24815935  0.24815935  1
  Na  Na1  1  0.74815935  0.74815935  0.74815935  1
  Cd  Cd0  1  0.49783523  0.49783523  0.49783523  1
  Cd  Cd1  1  0.99783623  0.99783523  0.99783623  1
  Cl  Cl0  1  0.91086761  0.70605867  0.03721789  1
  Cl  Cl1  1  0.28946508  0.95849541  0.08477230  1
  Cl  Cl2  1  0.41086861  0.53721689  0.20605867  1
  Cl  Cl3  1  0.95849541  0.08477230  0.28946408  1
  Cl  Cl4  1  0.53721689  0.20605867  0.41086861  1
  Cl  Cl5  1  0.78946408  0.58477230  0.45849541  1
  Cl  Cl6  1  0.20605867  0.41086861  0.53721689  1
  Cl  Cl7  1  0.45849541  0.78946408  0.58477230  1
  Cl  Cl8  1  0.03721789  0.91086861  0.70605767  1
  Cl  Cl9  1  0.58477230  0.45849541  0.78946508  1
  Cl  Cl10  1  0.70605867  0.03721689  0.91086861  1
  Cl  Cl11  1  0.08477330  0.28946408  0.95849541  1
loop_
_geom_bond_atom_site_label_1
_geom_bond_atom_site_label_2
_geom_bond_distance
_geom_bond_site_symmetry_2
Cd0 Cl5 2.646069 1_555
Cd0 Cl7 2.646069 1_555
Cd0 Cl9 2.646077 1_555
Cd0 Cl2 2.647415 1_555
Cd0 Cl6 2.647415 1_555
Cd0 Cl4 2.647415 1_555
Cd1 Cl3 2.646062 1_566
Cd1 Cl1 2.646066 1_656
Cd1 Cl11 2.646070 1_665
Cd1 Cl0 2.647419 1_556
Cd1 Cl10 2.647425 1_565
Cd1 Cl8 2.647431 1_655
Cl0 Na1 2.862523 1_554
Cl0 Rb0 3.320165 1_555
Cl0 Rb2 3.346300 1_655
Cl0 Rb5 3.416647 1_654
Cl0 Rb1 3.465645 1_555
Cl1 Na0 2.868349 1_565
Cl1 Rb1 3.321055 1_555
Cl1 Rb5 3.347048 1_554
Cl1 Rb4 3.416605 1_564
Cl1 Rb2 3.465596 1_555
Cl2 Na0 2.862520 1_555
Cl2 Rb5 3.320174 1_554
Cl2 Rb1 3.346291 1_555
Cl2 Rb0 3.416643 1_555
Cl2 Rb2 3.465653 1_555
Cl3 Na0 2.868347 1_655
Cl3 Rb3 3.321068 1_555
Cl3 Rb1 3.347047 1_545
Cl3 Rb2 3.416607 1_645
Cl3 Rb0 3.465585 1_555
Cl4 Na0 2.862519 1_555
Cl4 Rb1 3.320175 1_545
Cl4 Rb3 3.346303 1_555
Cl4 Rb4 3.416629 1_555
Cl4 Rb0 3.465660 1_555
Cl5 Na1 2.868347 1_555
Cl5 Rb2 3.321067 1_655
Cl5 Rb0 3.347047 1_555
Cl5 Rb3 3.416607 1_555
Cl5 Rb1 3.465590 1_555
Cl6 Na0 2.862519 1_555
Cl6 Rb3 3.320169 1_455
Cl6 Rb5 3.346291 1_555
Cl6 Rb2 3.416629 1_555
Cl6 Rb4 3.465653 1_555
Cl7 Na1 2.868347 1_555
Cl7 Rb4 3.321068 1_565
Cl7 Rb2 3.347035 1_555
Cl7 Rb1 3.416601 1_555
Cl7 Rb5 3.465589 1_555
Cl8 Na1 2.862528 1_455
Cl8 Rb2 3.320159 1_555
Cl8 Rb4 3.346296 1_565
Cl8 Rb3 3.416632 1_465
Cl8 Rb5 3.465655 1_555
Cl9 Na1 2.868349 1_555
Cl9 Rb0 3.321058 1_556
Cl9 Rb4 3.347036 1_555
Cl9 Rb5 3.416599 1_555
Cl9 Rb3 3.465596 1_555
Cl10 Na1 2.862520 1_545
Cl10 Rb4 3.320169 1_555
Cl10 Rb0 3.346292 1_556
Cl10 Rb1 3.416635 1_546
Cl10 Rb3 3.465653 1_555
Cl11 Na0 2.868343 1_556
Cl11 Rb5 3.321059 1_555
Cl11 Rb3 3.347040 1_455
Cl11 Rb0 3.416601 1_456
Cl11 Rb4 3.465586 1_555
