# generated using pymatgen
data_Sc3Ga2
_symmetry_space_group_name_H-M   'P 1'
_cell_length_a   10.34670299
_cell_length_b   10.34666127
_cell_length_c   10.34666148
_cell_angle_alpha   95.54750463
_cell_angle_beta   116.85037870
_cell_angle_gamma   116.85038895
_symmetry_Int_Tables_number   1
_chemical_formula_structural   Sc3Ga2
_chemical_formula_sum   'Sc24 Ga16'
_cell_volume   816.37284802
_cell_formula_units_Z   8
loop_
 _symmetry_equiv_pos_site_id
 _symmetry_equiv_pos_as_xyz
  1  'x, y, z'
loop_
 _atom_site_type_symbol
 _atom_site_label
 _atom_site_symmetry_multiplicity
 _atom_site_fract_x
 _atom_site_fract_y
 _atom_site_fract_z
 _atom_site_occupancy
  Sc  Sc0  1  0.72979947  0.43226164  0.56962344  1
  Sc  Sc1  1  0.27020349  0.83982943  0.70246475  1
  Sc  Sc2  1  0.27020053  0.93037656  0.06773836  1
  Sc  Sc3  1  0.86262599  0.70245621  0.43225381  1
  Sc  Sc4  1  0.13737357  0.56963159  0.83983242  1
  Sc  Sc5  1  0.13737401  0.06774619  0.79754379  1
  Sc  Sc6  1  0.86262643  0.66016758  0.93036841  1
  Sc  Sc7  1  0.72979651  0.79753525  0.66017057  1
  Sc  Sc8  1  0.27020053  0.56773836  0.43037656  1
  Sc  Sc9  1  0.72979651  0.16017057  0.29753525  1
  Sc  Sc10  1  0.72979947  0.06962344  0.93226164  1
  Sc  Sc11  1  0.13737401  0.29754379  0.56774619  1
  Sc  Sc12  1  0.86262643  0.43036841  0.16016758  1
  Sc  Sc13  1  0.86262599  0.93225381  0.20245621  1
  Sc  Sc14  1  0.13737357  0.33983242  0.06963159  1
  Sc  Sc15  1  0.27020349  0.20246475  0.33982943  1
  Sc  Sc16  1  0.50000139  0.64691567  0.14691567  1
  Sc  Sc17  1  0.50000305  0.14692362  0.64692362  1
  Sc  Sc18  1  0.49999695  0.85307638  0.35307638  1
  Sc  Sc19  1  0.49999861  0.35308433  0.85308433  1
  Sc  Sc20  1  0.83927151  0.16963556  0.66963556  1
  Sc  Sc21  1  0.50000000  0.66963275  0.83036725  1
  Sc  Sc22  1  0.50000000  0.33036725  0.16963275  1
  Sc  Sc23  1  0.16072849  0.83036444  0.33036444  1
  Ga  Ga0  1  0.85352572  0.37654112  0.87654112  1
  Ga  Ga1  1  0.14648046  0.02302397  0.52302397  1
  Ga  Ga2  1  0.14647428  0.62345888  0.12345888  1
  Ga  Ga3  1  0.49998640  0.52300917  0.37652827  1
  Ga  Ga4  1  0.49998640  0.87652827  0.02300917  1
  Ga  Ga5  1  0.50001360  0.12347173  0.97699083  1
  Ga  Ga6  1  0.50001360  0.47699083  0.62347173  1
  Ga  Ga7  1  0.85351954  0.97697603  0.47697603  1
  Ga  Ga8  1  0.26352466  0.38176240  0.88176240  1
  Ga  Ga9  1  0.50000000  0.88176292  0.61823708  1
  Ga  Ga10  1  0.50000000  0.11823708  0.38176292  1
  Ga  Ga11  1  0.73647534  0.61823760  0.11823760  1
  Ga  Ga12  1  0.00000000  0.50000000  0.50000000  1
  Ga  Ga13  1  0.00000000  0.00000000  0.00000000  1
  Ga  Ga14  1  -0.00000000  0.75000054  0.74999946  1
  Ga  Ga15  1  0.00000000  0.24999946  0.25000054  1
loop_
_geom_bond_atom_site_label_1
_geom_bond_atom_site_label_2
_geom_bond_distance
_geom_bond_site_symmetry_2
Sc0 Sc22 3.449021 1_555
Sc0 Sc20 3.464481 1_555
Sc1 Sc21 3.449042 1_555
Sc1 Sc23 3.464486 1_555
Sc2 Sc22 3.449021 1_565
Sc2 Sc23 3.464481 1_555
Sc10 Sc21 3.449021 1_545
Sc10 Sc20 3.464481 1_555
Sc11 Sc20 3.449041 1_455
Sc11 Sc21 3.464409 1_555
Sc12 Sc23 3.449074 1_655
Sc12 Sc22 3.464430 1_555
Sc13 Sc23 3.449041 1_655
Sc13 Sc21 3.464409 1_554
Sc14 Sc20 3.449075 1_454
Sc14 Sc22 3.464431 1_555
Sc15 Sc22 3.449042 1_555
Sc15 Sc23 3.464486 1_545
Sc16 Sc18 2.867139 1_555
Sc16 Sc22 3.306223 1_555
Sc16 Sc21 3.306223 1_554
Sc17 Sc19 2.867139 1_555
Sc17 Sc20 3.306319 1_555
Sc17 Sc23 3.306355 1_545
Sc18 Sc23 3.306319 1_555
Sc18 Sc20 3.306355 1_565
Sc19 Sc21 3.306223 1_555
Sc19 Sc22 3.306223 1_556
Sc20 Sc5 3.449041 1_655
Sc20 Sc4 3.449074 1_655
Sc20 Sc7 3.464486 1_545
Sc20 Sc9 3.464486 1_555
Sc21 Sc8 3.449021 1_555
Sc21 Sc7 3.449042 1_555
Sc21 Sc4 3.464430 1_555
Sc21 Sc6 3.464431 1_555
Sc22 Sc9 3.449042 1_555
Sc22 Sc3 3.464409 1_555
Sc22 Sc5 3.464409 1_554
Sc23 Sc3 3.449041 1_455
Sc23 Sc6 3.449075 1_454
Sc23 Sc8 3.464481 1_555
Ga0 Ga2 2.643679 1_656
Ga0 Sc20 2.780495 1_555
Ga0 Sc17 2.806570 1_555
Ga0 Sc6 2.884071 1_555
Ga0 Sc12 2.884071 1_556
Ga0 Sc4 2.935146 1_655
Ga0 Sc14 2.935146 1_656
Ga0 Sc10 3.066574 1_555
Ga0 Sc0 3.066574 1_555
Ga1 Ga7 2.643676 1_445
Ga1 Sc23 2.780564 1_545
Ga1 Sc17 2.806588 1_555
Ga1 Sc11 2.884039 1_555
Ga1 Sc5 2.884039 1_555
Ga1 Sc3 2.935214 1_445
Ga1 Sc13 2.935214 1_445
Ga1 Sc15 3.066558 1_555
Ga1 Sc1 3.066558 1_545
Ga2 Sc23 2.780495 1_555
Ga2 Sc18 2.806570 1_555
Ga2 Sc14 2.884071 1_555
Ga2 Sc4 2.884071 1_554
Ga2 Sc12 2.935146 1_455
Ga2 Sc6 2.935146 1_454
Ga2 Sc2 3.066574 1_555
Ga2 Sc8 3.066574 1_555
Ga3 Ga6 2.643789 1_555
Ga3 Sc22 2.780454 1_555
Ga3 Sc16 2.806538 1_555
Ga3 Sc8 2.884076 1_555
Ga3 Sc7 2.884163 1_555
Ga3 Sc15 2.935043 1_555
Ga3 Sc0 2.935175 1_555
Ga3 Sc14 3.066381 1_555
Ga3 Sc3 3.066582 1_555
Ga4 Ga5 2.643789 1_564
Ga4 Sc21 2.780454 1_554
Ga4 Sc16 2.806538 1_555
Ga4 Sc2 2.884076 1_555
Ga4 Sc9 2.884163 1_565
Ga4 Sc1 2.935043 1_554
Ga4 Sc10 2.935175 1_564
Ga4 Sc4 3.066380 1_554
Ga4 Sc13 3.066582 1_555
Ga5 Sc22 2.780454 1_556
Ga5 Sc19 2.806538 1_555
Ga5 Sc10 2.884076 1_555
Ga5 Sc1 2.884163 1_545
Ga5 Sc9 2.935043 1_556
Ga5 Sc2 2.935175 1_546
Ga5 Sc12 3.066380 1_556
Ga5 Sc5 3.066582 1_555
Ga6 Sc21 2.780454 1_555
Ga6 Sc19 2.806538 1_555
Ga6 Sc0 2.884076 1_555
Ga6 Sc15 2.884163 1_555
Ga6 Sc7 2.935043 1_555
Ga6 Sc8 2.935175 1_555
Ga6 Sc6 3.066381 1_555
Ga6 Sc11 3.066582 1_555
Ga7 Sc20 2.780564 1_565
Ga7 Sc18 2.806588 1_555
Ga7 Sc3 2.884039 1_555
Ga7 Sc13 2.884039 1_555
Ga7 Sc11 2.935214 1_665
Ga7 Sc5 2.935214 1_665
Ga7 Sc7 3.066558 1_555
Ga7 Sc9 3.066558 1_565
Ga8 Sc19 2.730779 1_555
Ga8 Sc16 2.730794 1_556
Ga8 Sc5 2.759261 1_555
Ga8 Sc11 2.759261 1_555
Ga8 Sc14 2.759298 1_556
Ga8 Sc4 2.759298 1_555
Ga8 Sc21 3.168474 1_555
Ga8 Sc22 3.168474 1_556
Ga8 Sc20 3.250514 1_455
Ga9 Sc17 2.730845 1_565
Ga9 Sc18 2.730845 1_555
Ga9 Sc8 2.759320 1_555
Ga9 Sc1 2.759320 1_555
Ga9 Sc10 2.759320 1_565
Ga9 Sc7 2.759320 1_555
Ga9 Sc20 3.168515 1_565
Ga9 Sc23 3.168516 1_555
Ga9 Sc21 3.250543 1_555
Ga10 Sc18 2.730845 1_545
Ga10 Sc17 2.730845 1_555
Ga10 Sc0 2.759320 1_555
Ga10 Sc9 2.759320 1_555
Ga10 Sc2 2.759320 1_545
Ga10 Sc15 2.759320 1_555
Ga10 Sc23 3.168515 1_545
Ga10 Sc20 3.168516 1_555
Ga10 Sc22 3.250543 1_555
Ga11 Sc16 2.730779 1_555
Ga11 Sc19 2.730794 1_554
Ga11 Sc13 2.759261 1_555
Ga11 Sc3 2.759261 1_555
Ga11 Sc6 2.759298 1_554
Ga11 Sc12 2.759298 1_555
Ga11 Sc22 3.168474 1_555
Ga11 Sc21 3.168474 1_554
Ga11 Sc23 3.250514 1_655
Ga12 Sc8 2.995475 1_555
Ga12 Sc0 2.995475 1_455
Ga12 Sc11 2.995503 1_555
Ga12 Sc3 2.995503 1_455
Ga12 Sc4 2.995523 1_555
Ga12 Sc12 2.995523 1_455
Ga12 Sc1 2.995523 1_555
Ga12 Sc9 2.995523 1_455
Ga13 Sc2 2.995475 1_545
Ga13 Sc10 2.995475 1_454
Ga13 Sc13 2.995503 1_445
Ga13 Sc5 2.995503 1_554
Ga13 Sc14 2.995522 1_555
Ga13 Sc6 2.995522 1_444
Ga13 Sc15 2.995523 1_555
Ga13 Sc7 2.995523 1_444
Ga14 Sc1 2.811582 1_555
Ga14 Sc7 2.811582 1_455
Ga14 Sc0 2.811585 1_455
Ga14 Sc2 2.811585 1_556
Ga14 Sc6 2.811594 1_455
Ga14 Sc4 2.811594 1_555
Ga14 Sc5 2.811618 1_565
Ga14 Sc3 2.811618 1_455
Ga15 Sc9 2.811582 1_455
Ga15 Sc15 2.811582 1_555
Ga15 Sc8 2.811585 1_555
Ga15 Sc10 2.811585 1_454
Ga15 Sc14 2.811594 1_555
Ga15 Sc12 2.811594 1_455
Ga15 Sc13 2.811618 1_445
Ga15 Sc11 2.811618 1_555
