# generated using pymatgen
data_Cs6Cr(IrBr6)3
_symmetry_space_group_name_H-M   'P 1'
_cell_length_a   7.59829167
_cell_length_b   7.59829102
_cell_length_c   19.19906912
_cell_angle_alpha   90.00000000
_cell_angle_beta   90.00000000
_cell_angle_gamma   119.99999470
_symmetry_Int_Tables_number   1
_chemical_formula_structural   Cs6Cr(IrBr6)3
_chemical_formula_sum   'Cs6 Cr1 Ir3 Br18'
_cell_volume   959.93695332
_cell_formula_units_Z   1
loop_
 _symmetry_equiv_pos_site_id
 _symmetry_equiv_pos_as_xyz
  1  'x, y, z'
loop_
 _atom_site_type_symbol
 _atom_site_label
 _atom_site_symmetry_multiplicity
 _atom_site_fract_x
 _atom_site_fract_y
 _atom_site_fract_z
 _atom_site_occupancy
  Cs  Cs0  1  0.66666700  0.33333300  0.92967237  1
  Cs  Cs1  1  0.33333300  0.66666700  0.43042752  1
  Cs  Cs2  1  0.66666700  0.33333300  0.57266762  1
  Cs  Cs3  1  0.33333300  0.66666700  0.07033560  1
  Cs  Cs4  1  0.00000000  0.00000000  0.74829013  1
  Cs  Cs5  1  0.00000000  0.00000000  0.25050288  1
  Cr  Cr0  1  0.33333300  0.66666700  0.83654176  1
  Ir  Ir0  1  0.33333300  0.66666700  0.66694410  1
  Ir  Ir1  1  0.66666700  0.33333300  0.16438247  1
  Ir  Ir2  1  0.66666700  0.33333300  0.33568913  1
  Br  Br0  1  0.82229933  0.64459765  0.40818386  1
  Br  Br1  1  0.17639991  0.35280082  0.90598487  1
  Br  Br2  1  0.17639991  0.82360009  0.90598487  1
  Br  Br3  1  0.17813984  0.35628068  0.59348348  1
  Br  Br4  1  0.64719918  0.82360009  0.90598487  1
  Br  Br5  1  0.35540235  0.17770067  0.40818386  1
  Br  Br6  1  0.02996700  0.51498300  0.74864571  1
  Br  Br7  1  0.82229933  0.17770067  0.40818386  1
  Br  Br8  1  0.51825518  0.03651137  0.24995798  1
  Br  Br9  1  0.48501700  0.51498300  0.74864571  1
  Br  Br10  1  0.51825518  0.48174482  0.24995798  1
  Br  Br11  1  0.96348863  0.48174482  0.24995798  1
  Br  Br12  1  0.35499928  0.17749964  0.09192591  1
  Br  Br13  1  0.48501700  0.97003300  0.74864571  1
  Br  Br14  1  0.82250036  0.64500072  0.09192591  1
  Br  Br15  1  0.17813984  0.82186016  0.59348348  1
  Br  Br16  1  0.64371932  0.82186016  0.59348348  1
  Br  Br17  1  0.82250036  0.17749964  0.09192591  1
loop_
_geom_bond_atom_site_label_1
_geom_bond_atom_site_label_2
_geom_bond_distance
_geom_bond_site_symmetry_2
Br0 Ir2 2.476367 1_555
Br0 Cs2 3.764008 1_555
Br0 Cs5 3.825446 1_665
Br0 Cs1 3.825823 1_655
Br0 Cs1 3.825838 1_555
Br1 Cr0 2.458284 1_555
Br1 Cs3 3.771213 1_556
Br1 Cs4 3.815215 1_555
Br1 Cs0 3.828405 1_455
Br1 Cs0 3.828420 1_555
Br2 Cr0 2.458283 1_555
Br2 Cs3 3.771213 1_556
Br2 Cs4 3.815211 1_565
Br2 Cs0 3.828412 1_565
Br2 Cs0 3.828412 1_455
Br3 Ir0 2.482079 1_555
Br3 Cs1 3.737878 1_555
Br3 Cs4 3.785503 1_555
Br3 Cs2 3.823084 1_455
Br3 Cs2 3.823099 1_555
Br4 Cr0 2.458284 1_555
Br4 Cs3 3.771213 1_556
Br4 Cs4 3.815215 1_665
Br4 Cs0 3.828405 1_565
Br4 Cs0 3.828420 1_555
Br5 Ir2 2.476368 1_555
Br5 Cs2 3.764008 1_555
Br5 Cs5 3.825447 1_555
Br5 Cs1 3.825822 1_545
Br5 Cs1 3.825837 1_555
Br6 Ir0 2.538795 1_555
Br6 Cr0 2.613947 1_555
Br6 Cs4 3.804262 1_555
Br6 Cs4 3.804270 1_565
Br6 Cs2 4.138858 1_455
Br6 Cs0 4.218353 1_455
Br7 Ir2 2.476367 1_555
Br7 Cs2 3.764008 1_555
Br7 Cs5 3.825442 1_655
Br7 Cs1 3.825830 1_545
Br7 Cs1 3.825830 1_655
Br8 Ir1 2.552305 1_555
Br8 Ir2 2.554229 1_555
Br8 Cs5 3.806746 1_555
Br8 Cs5 3.806753 1_655
Br8 Cs3 4.220850 1_545
Br8 Cs1 4.234150 1_545
Br9 Ir0 2.538805 1_555
Br9 Cr0 2.613957 1_555
Br9 Cs4 3.804266 1_555
Br9 Cs4 3.804266 1_665
Br9 Cs2 4.138858 1_555
Br9 Cs0 4.218353 1_555
Br10 Ir1 2.552315 1_555
Br10 Ir2 2.554240 1_555
Br10 Cs5 3.806749 1_665
Br10 Cs5 3.806749 1_555
Br10 Cs3 4.220850 1_555
Br10 Cs1 4.234150 1_555
Br11 Ir1 2.552305 1_555
Br11 Ir2 2.554230 1_555
Br11 Cs5 3.806745 1_665
Br11 Cs5 3.806753 1_655
Br11 Cs3 4.220850 1_655
Br11 Cs1 4.234150 1_655
Br12 Ir1 2.478150 1_555
Br12 Cs0 3.729615 1_554
Br12 Cs3 3.824346 1_545
Br12 Cs3 3.824354 1_555
Br12 Cs5 3.837459 1_555
Br13 Ir0 2.538794 1_555
Br13 Cr0 2.613947 1_555
Br13 Cs4 3.804262 1_665
Br13 Cs4 3.804270 1_565
Br13 Cs2 4.138858 1_565
Br13 Cs0 4.218353 1_565
Br14 Ir1 2.478150 1_555
Br14 Cs0 3.729615 1_554
Br14 Cs3 3.824347 1_655
Br14 Cs3 3.824354 1_555
Br14 Cs5 3.837459 1_665
Br15 Ir0 2.482079 1_555
Br15 Cs1 3.737878 1_555
Br15 Cs4 3.785498 1_565
Br15 Cs2 3.823091 1_565
Br15 Cs2 3.823091 1_455
Br16 Ir0 2.482079 1_555
Br16 Cs1 3.737878 1_555
Br16 Cs4 3.785503 1_665
Br16 Cs2 3.823083 1_565
Br16 Cs2 3.823099 1_555
Br17 Ir1 2.478145 1_555
Br17 Cs0 3.729611 1_554
Br17 Cs3 3.824350 1_545
Br17 Cs3 3.824350 1_655
Br17 Cs5 3.837459 1_655
