# generated using pymatgen
data_CsK2BiS3
_symmetry_space_group_name_H-M   'P 1'
_cell_length_a   9.78907710
_cell_length_b   9.78907710
_cell_length_c   9.78907710
_cell_angle_alpha   90.00000000
_cell_angle_beta   90.00000000
_cell_angle_gamma   90.00000000
_symmetry_Int_Tables_number   1
_chemical_formula_structural   CsK2BiS3
_chemical_formula_sum   'Cs4 K8 Bi4 S12'
_cell_volume   938.04840039
_cell_formula_units_Z   4
loop_
 _symmetry_equiv_pos_site_id
 _symmetry_equiv_pos_as_xyz
  1  'x, y, z'
loop_
 _atom_site_type_symbol
 _atom_site_label
 _atom_site_symmetry_multiplicity
 _atom_site_fract_x
 _atom_site_fract_y
 _atom_site_fract_z
 _atom_site_occupancy
  Cs  Cs0  1  0.92980852  0.42980852  0.07019148  1
  Cs  Cs1  1  0.42980852  0.07019148  0.92980852  1
  Cs  Cs2  1  0.07019148  0.92980852  0.42980852  1
  Cs  Cs3  1  0.57019148  0.57019148  0.57019148  1
  K  K0  1  0.18470148  0.68470148  0.81529852  1
  K  K1  1  0.68470148  0.81529852  0.18470148  1
  K  K2  1  0.81529852  0.18470148  0.68470148  1
  K  K3  1  0.31529852  0.31529852  0.31529852  1
  K  K4  1  0.69060928  0.19060928  0.30939072  1
  K  K5  1  0.19060928  0.30939072  0.69060928  1
  K  K6  1  0.30939072  0.69060928  0.19060928  1
  K  K7  1  0.80939072  0.80939072  0.80939072  1
  Bi  Bi0  1  0.47161877  0.97161877  0.52838123  1
  Bi  Bi1  1  0.97161877  0.52838123  0.47161877  1
  Bi  Bi2  1  0.52838123  0.47161877  0.97161877  1
  Bi  Bi3  1  0.02838123  0.02838123  0.02838123  1
  S  S0  1  0.00359439  0.77863058  0.09150864  1
  S  S1  1  0.90849136  0.50359439  0.72136942  1
  S  S2  1  0.27863058  0.40849136  0.99640561  1
  S  S3  1  0.50359439  0.72136942  0.90849136  1
  S  S4  1  0.40849136  0.99640561  0.27863058  1
  S  S5  1  0.77863058  0.09150864  0.00359439  1
  S  S6  1  0.99640561  0.27863058  0.40849136  1
  S  S7  1  0.09150864  0.00359439  0.77863058  1
  S  S8  1  0.72136942  0.90849136  0.50359439  1
  S  S9  1  0.49640561  0.22136942  0.59150864  1
  S  S10  1  0.59150864  0.49640561  0.22136942  1
  S  S11  1  0.22136942  0.59150864  0.49640561  1
loop_
_geom_bond_atom_site_label_1
_geom_bond_atom_site_label_2
_geom_bond_distance
_geom_bond_site_symmetry_2
Cs0 S1 3.496436 1_554
Cs0 S0 3.496436 1_655
Cs0 S2 3.496436 1_654
Cs0 S10 3.685386 1_555
Cs0 S6 3.685386 1_555
Cs0 S5 3.685386 1_555
Cs1 S3 3.496436 1_545
Cs1 S5 3.496436 1_556
Cs1 S4 3.496436 1_546
Cs1 S9 3.685386 1_555
Cs1 S7 3.685386 1_555
Cs1 S2 3.685386 1_555
Cs2 S8 3.496436 1_455
Cs2 S7 3.496436 1_565
Cs2 S6 3.496436 1_465
Cs2 S11 3.685386 1_555
Cs2 S0 3.685386 1_555
Cs2 S4 3.685386 1_555
Cs3 S9 3.496436 1_555
Cs3 S11 3.496436 1_555
Cs3 S10 3.496436 1_555
Cs3 S1 3.685386 1_555
Cs3 S8 3.685386 1_555
Cs3 S3 3.685386 1_555
K0 S3 3.271985 1_555
K0 S7 3.271985 1_565
K0 S11 3.271985 1_555
K0 S0 3.361440 1_556
K0 S1 3.361440 1_455
K0 S2 3.361440 1_555
K1 S8 3.271985 1_555
K1 S0 3.271985 1_655
K1 S10 3.271985 1_555
K1 S5 3.361440 1_565
K1 S4 3.361440 1_555
K1 S3 3.361440 1_554
K2 S5 3.271985 1_556
K2 S1 3.271985 1_555
K2 S9 3.271985 1_555
K2 S7 3.361440 1_655
K2 S6 3.361440 1_555
K2 S8 3.361440 1_545
K3 S4 3.271985 1_545
K3 S6 3.271985 1_455
K3 S2 3.271985 1_554
K3 S9 3.361440 1_555
K3 S10 3.361440 1_555
K3 S11 3.361440 1_555
K4 S10 3.262570 1_555
K4 S5 3.262570 1_555
K4 S6 3.262570 1_555
K4 S4 3.366244 1_545
K4 S8 3.366244 1_545
K4 S9 3.366244 1_555
K5 S9 3.262570 1_555
K5 S7 3.262570 1_555
K5 S2 3.262570 1_555
K5 S6 3.366244 1_455
K5 S1 3.366244 1_455
K5 S11 3.366244 1_555
K6 S11 3.262570 1_555
K6 S0 3.262570 1_555
K6 S4 3.262570 1_555
K6 S2 3.366244 1_554
K6 S3 3.366244 1_554
K6 S10 3.366244 1_555
K7 S8 3.262570 1_555
K7 S3 3.262570 1_555
K7 S1 3.262570 1_555
K7 S0 3.366244 1_656
K7 S7 3.366244 1_665
K7 S5 3.366244 1_566
Bi0 S9 2.533364 1_565
Bi0 S4 2.533364 1_555
Bi0 S8 2.533364 1_555
Bi1 S11 2.533364 1_655
Bi1 S6 2.533364 1_555
Bi1 S1 2.533364 1_555
Bi2 S10 2.533364 1_556
Bi2 S2 2.533364 1_555
Bi2 S3 2.533364 1_555
Bi3 S5 2.533364 1_455
Bi3 S7 2.533364 1_554
Bi3 S0 2.533364 1_545
