# generated using pymatgen
data_SrTcP2Os
_symmetry_space_group_name_H-M   'P 1'
_cell_length_a   6.31673867
_cell_length_b   6.31673899
_cell_length_c   6.31673863
_cell_angle_alpha   142.30909815
_cell_angle_beta   142.30909619
_cell_angle_gamma   54.36346932
_symmetry_Int_Tables_number   1
_chemical_formula_structural   SrTcP2Os
_chemical_formula_sum   'Sr1 Tc1 P2 Os1'
_cell_volume   93.57601173
_cell_formula_units_Z   1
loop_
 _symmetry_equiv_pos_site_id
 _symmetry_equiv_pos_as_xyz
  1  'x, y, z'
loop_
 _atom_site_type_symbol
 _atom_site_label
 _atom_site_symmetry_multiplicity
 _atom_site_fract_x
 _atom_site_fract_y
 _atom_site_fract_z
 _atom_site_occupancy
  Sr  Sr0  1  0.00000000  0.00000000  0.00000000  1
  Tc  Tc0  1  0.75000000  0.25000000  0.50000000  1
  P  P0  1  0.35009761  0.35009761  0.00000000  1
  P  P1  1  0.64990239  0.64990239  1.00000000  1
  Os  Os0  1  0.25000000  0.75000000  0.50000000  1
loop_
_geom_bond_atom_site_label_1
_geom_bond_atom_site_label_2
_geom_bond_distance
_geom_bond_site_symmetry_2
Sr0 Tc0 3.472310 1_455
Sr0 Tc0 3.472310 1_454
Sr0 Tc0 3.472310 1_555
Sr0 Tc0 3.472310 1_444
P0 Tc0 2.329963 1_555
P0 Tc0 2.329964 1_454
P0 Sr0 3.341343 1_655
P0 Sr0 3.341343 1_554
P0 Sr0 3.341343 1_565
P0 Sr0 3.341344 1_666
P1 Tc0 2.329963 1_555
P1 Tc0 2.329964 1_566
P1 Sr0 3.341343 1_566
P1 Sr0 3.341343 1_667
P1 Sr0 3.341343 1_656
P1 Sr0 3.341344 1_555
Os0 P0 2.329963 1_555
Os0 P1 2.329963 1_555
Os0 P1 2.329964 1_454
Os0 P0 2.329964 1_566
Os0 Tc0 2.885577 1_465
Os0 Tc0 2.885577 1_555
Os0 Tc0 2.885577 1_566
Os0 Tc0 2.885577 1_454
Os0 Sr0 3.472310 1_566
Os0 Sr0 3.472310 1_565
Os0 Sr0 3.472310 1_666
Os0 Sr0 3.472310 1_555
