# generated using pymatgen
data_Rb2Nb6SnCl18
_symmetry_space_group_name_H-M   'P 1'
_cell_length_a   10.28944366
_cell_length_b   10.29039217
_cell_length_c   10.29038041
_cell_angle_alpha   54.62414035
_cell_angle_beta   54.62979472
_cell_angle_gamma   54.63162214
_symmetry_Int_Tables_number   1
_chemical_formula_structural   Rb2Nb6SnCl18
_chemical_formula_sum   'Rb2 Nb6 Sn1 Cl18'
_cell_volume   674.01028675
_cell_formula_units_Z   1
loop_
 _symmetry_equiv_pos_site_id
 _symmetry_equiv_pos_as_xyz
  1  'x, y, z'
loop_
 _atom_site_type_symbol
 _atom_site_label
 _atom_site_symmetry_multiplicity
 _atom_site_fract_x
 _atom_site_fract_y
 _atom_site_fract_z
 _atom_site_occupancy
  Rb  Rb0  1  0.72285906  0.72285066  0.72285794  1
  Rb  Rb1  1  0.27714094  0.27714934  0.27714206  1
  Nb  Nb0  1  0.57986506  0.35144403  0.70559934  1
  Nb  Nb1  1  0.35148941  0.70558738  0.57980532  1
  Nb  Nb2  1  0.70562819  0.57984932  0.35144712  1
  Nb  Nb3  1  0.64851059  0.29441262  0.42019468  1
  Nb  Nb4  1  0.42013494  0.64855597  0.29440066  1
  Nb  Nb5  1  0.29437181  0.42015068  0.64855288  1
  Sn  Sn0  1  0.00000000  0.00000000  0.00000000  1
  Cl  Cl0  1  0.91665934  0.35261305  0.22989234  1
  Cl  Cl1  1  0.83695875  0.42001545  0.56827021  1
  Cl  Cl2  1  0.77010812  0.08332400  0.64739537  1
  Cl  Cl3  1  0.08334066  0.64738695  0.77010766  1
  Cl  Cl4  1  0.67386651  0.16707993  0.97136123  1
  Cl  Cl5  1  0.22989188  0.91667600  0.35260463  1
  Cl  Cl6  1  0.43171835  0.16300096  0.57999866  1
  Cl  Cl7  1  0.64736401  0.77007038  0.08339922  1
  Cl  Cl8  1  0.57999912  0.43171841  0.16298043  1
  Cl  Cl9  1  0.02864319  0.32615247  0.83291172  1
  Cl  Cl10  1  0.56828165  0.83699904  0.42000134  1
  Cl  Cl11  1  0.35263599  0.22992962  0.91660078  1
  Cl  Cl12  1  0.97135681  0.67384753  0.16708828  1
  Cl  Cl13  1  0.16304125  0.57998455  0.43172979  1
  Cl  Cl14  1  0.83294605  0.02859213  0.32613508  1
  Cl  Cl15  1  0.42000088  0.56828159  0.83701957  1
  Cl  Cl16  1  0.16705395  0.97140787  0.67386492  1
  Cl  Cl17  1  0.32613349  0.83292007  0.02863877  1
loop_
_geom_bond_atom_site_label_1
_geom_bond_atom_site_label_2
_geom_bond_distance
_geom_bond_site_symmetry_2
Cl0 Nb3 2.471019 1_555
Cl0 Nb2 2.472182 1_555
Cl0 Rb1 3.593536 1_655
Cl1 Nb0 2.484200 1_555
Cl1 Nb2 2.485545 1_555
Cl1 Rb0 3.600349 1_555
Cl1 Rb1 3.651386 1_655
Cl2 Nb0 2.471163 1_555
Cl2 Nb3 2.471835 1_555
Cl2 Rb0 3.593675 1_545
Cl3 Nb1 2.471019 1_555
Cl3 Nb5 2.472182 1_555
Cl3 Rb0 3.593536 1_455
Cl4 Nb0 2.635225 1_555
Cl4 Sn0 2.860570 1_656
Cl4 Rb1 3.427982 1_556
Cl5 Nb4 2.471163 1_555
Cl5 Nb1 2.471835 1_555
Cl5 Rb1 3.593675 1_565
Cl6 Nb5 2.484978 1_555
Cl6 Nb3 2.485811 1_555
Cl6 Rb1 3.599894 1_555
Cl6 Rb0 3.651180 1_545
Cl7 Nb2 2.470537 1_555
Cl7 Nb4 2.471473 1_555
Cl7 Rb0 3.594203 1_554
Cl8 Nb3 2.485136 1_555
Cl8 Nb4 2.486586 1_555
Cl8 Rb1 3.599623 1_555
Cl8 Rb0 3.650787 1_554
Cl9 Nb5 2.634826 1_555
Cl9 Sn0 2.860804 1_556
Cl9 Rb0 3.427763 1_455
Cl10 Nb2 2.484978 1_555
Cl10 Nb1 2.485811 1_555
Cl10 Rb0 3.599894 1_555
Cl10 Rb1 3.651180 1_565
Cl11 Nb5 2.470537 1_555
Cl11 Nb0 2.471473 1_555
Cl11 Rb1 3.594203 1_556
Cl12 Nb2 2.634826 1_555
Cl12 Sn0 2.860804 1_665
Cl12 Rb1 3.427763 1_655
Cl13 Nb4 2.484200 1_555
Cl13 Nb5 2.485545 1_555
Cl13 Rb1 3.600349 1_555
Cl13 Rb0 3.651386 1_455
Cl14 Nb3 2.636328 1_555
Cl14 Sn0 2.860700 1_655
Cl14 Rb0 3.427541 1_545
Cl15 Nb1 2.485136 1_555
Cl15 Nb0 2.486586 1_555
Cl15 Rb0 3.599623 1_555
Cl15 Rb1 3.650787 1_556
Cl16 Nb1 2.636328 1_555
Cl16 Sn0 2.860700 1_566
Cl16 Rb1 3.427541 1_565
Cl17 Nb4 2.635225 1_555
Cl17 Sn0 2.860570 1_565
Cl17 Rb0 3.427982 1_554
