# generated using pymatgen
data_K3Sr3AlP4
_symmetry_space_group_name_H-M   'P 1'
_cell_length_a   9.94755235
_cell_length_b   9.94755275
_cell_length_c   7.44047316
_cell_angle_alpha   90.00000000
_cell_angle_beta   90.00000000
_cell_angle_gamma   119.99999540
_symmetry_Int_Tables_number   1
_chemical_formula_structural   K3Sr3AlP4
_chemical_formula_sum   'K6 Sr6 Al2 P8'
_cell_volume   637.62258378
_cell_formula_units_Z   2
loop_
 _symmetry_equiv_pos_site_id
 _symmetry_equiv_pos_as_xyz
  1  'x, y, z'
loop_
 _atom_site_type_symbol
 _atom_site_label
 _atom_site_symmetry_multiplicity
 _atom_site_fract_x
 _atom_site_fract_y
 _atom_site_fract_z
 _atom_site_occupancy
  K  K0  1  0.73034147  0.86517024  0.17545553  1
  K  K1  1  0.86517024  0.13482976  0.67545553  1
  K  K2  1  0.86517024  0.73034147  0.67545553  1
  K  K3  1  0.13482976  0.26965853  0.17545553  1
  K  K4  1  0.13482976  0.86517024  0.17545553  1
  K  K5  1  0.26965853  0.13482976  0.67545553  1
  Sr  Sr0  1  0.05363887  0.52681994  0.49792235  1
  Sr  Sr1  1  0.47318006  0.94636113  0.49792235  1
  Sr  Sr2  1  0.47318006  0.52681994  0.49792235  1
  Sr  Sr3  1  0.52681994  0.47318006  0.99792235  1
  Sr  Sr4  1  0.52681994  0.05363887  0.99792235  1
  Sr  Sr5  1  0.94636113  0.47318006  0.99792235  1
  Al  Al0  1  0.33333300  0.66666700  0.87952028  1
  Al  Al1  1  0.66666700  0.33333300  0.37952028  1
  P  P0  1  0.66666700  0.33333300  0.71181721  1
  P  P1  1  0.59628478  0.79814339  0.77257663  1
  P  P2  1  0.79814339  0.20185661  0.27257663  1
  P  P3  1  0.79814339  0.59628478  0.27257663  1
  P  P4  1  0.33333300  0.66666700  0.21181721  1
  P  P5  1  0.20185661  0.40371522  0.77257663  1
  P  P6  1  0.20185661  0.79814339  0.77257663  1
  P  P7  1  0.40371522  0.20185661  0.27257663  1
loop_
_geom_bond_atom_site_label_1
_geom_bond_atom_site_label_2
_geom_bond_distance
_geom_bond_site_symmetry_2
K0 P2 3.152039 1_565
K0 P3 3.152049 1_555
K0 P1 3.212383 1_554
K0 P4 3.430846 1_555
K1 P5 3.152043 1_655
K1 P1 3.152043 1_545
K1 P2 3.212373 1_555
K1 P0 3.430829 1_555
K2 P6 3.152039 1_655
K2 P1 3.152049 1_555
K2 P3 3.212383 1_555
K2 P0 3.430846 1_555
K3 P2 3.152039 1_455
K3 P7 3.152049 1_555
K3 P5 3.212383 1_554
K3 P4 3.430846 1_555
K4 P3 3.152043 1_455
K4 P7 3.152043 1_565
K4 P6 3.212373 1_554
K4 P4 3.430829 1_555
K5 P6 3.152039 1_545
K5 P5 3.152049 1_555
K5 P7 3.212383 1_555
K5 P0 3.430846 1_555
Al0 P1 2.400974 1_555
Al0 P5 2.400974 1_555
Al0 P6 2.400982 1_555
Al0 P4 2.472446 1_556
Al1 P7 2.400974 1_555
Al1 P3 2.400974 1_555
Al1 P2 2.400982 1_555
Al1 P0 2.472446 1_555
P0 Sr3 3.215181 1_555
P0 Sr5 3.215181 1_555
P0 Sr4 3.215181 1_555
P1 Sr1 3.107275 1_555
P1 Sr2 3.107282 1_555
P1 Sr4 3.391824 1_565
P1 Sr3 3.391849 1_555
P2 Sr4 3.107281 1_554
P2 Sr5 3.107281 1_554
P2 Sr1 3.391841 1_545
P2 Sr0 3.391841 1_655
P3 Sr5 3.107275 1_554
P3 Sr3 3.107282 1_554
P3 Sr0 3.391824 1_655
P3 Sr2 3.391849 1_555
P4 Sr2 3.215181 1_555
P4 Sr0 3.215181 1_555
P4 Sr1 3.215181 1_555
P5 Sr0 3.107275 1_555
P5 Sr2 3.107282 1_555
P5 Sr5 3.391824 1_455
P5 Sr3 3.391849 1_555
P6 Sr1 3.107281 1_555
P6 Sr0 3.107281 1_555
P6 Sr4 3.391841 1_565
P6 Sr5 3.391841 1_455
P7 Sr4 3.107275 1_554
P7 Sr3 3.107282 1_554
P7 Sr1 3.391824 1_545
P7 Sr2 3.391849 1_555
