# generated using pymatgen
data_Ti8Al15IrPt6
_symmetry_space_group_name_H-M   'P 1'
_cell_length_a   8.65790496
_cell_length_b   8.65790582
_cell_length_c   8.65790482
_cell_angle_alpha   120.07426263
_cell_angle_beta   119.91136661
_cell_angle_gamma   90.01250714
_symmetry_Int_Tables_number   1
_chemical_formula_structural   Ti8Al15IrPt6
_chemical_formula_sum   'Ti8 Al15 Ir1 Pt6'
_cell_volume   458.95438628
_cell_formula_units_Z   1
loop_
 _symmetry_equiv_pos_site_id
 _symmetry_equiv_pos_as_xyz
  1  'x, y, z'
loop_
 _atom_site_type_symbol
 _atom_site_label
 _atom_site_symmetry_multiplicity
 _atom_site_fract_x
 _atom_site_fract_y
 _atom_site_fract_z
 _atom_site_occupancy
  Ti  Ti0  1  0.78477701  0.28808084  0.07350839  1
  Ti  Ti1  1  0.21457144  0.28808084  0.50330382  1
  Ti  Ti2  1  0.21567093  0.71567093  0.50000000  1
  Ti  Ti3  1  0.21457144  0.71126762  0.92649161  1
  Ti  Ti4  1  0.78477701  0.71126762  0.49669618  1
  Ti  Ti5  1  0.78963306  0.28963306  0.50000000  1
  Ti  Ti6  1  0.38053567  0.12173212  0.74119645  1
  Ti  Ti7  1  0.38053567  0.63934022  0.25880355  1
  Al  Al0  1  0.00301597  0.50301597  0.50000000  1
  Al  Al1  1  0.15278857  0.34737678  0.19458720  1
  Al  Al2  1  0.15278857  0.95820137  0.80541280  1
  Al  Al3  1  0.15497171  0.34396668  0.81100403  1
  Al  Al4  1  0.53296164  0.34396668  0.18899597  1
  Al  Al5  1  0.84697616  0.65282695  0.80585180  1
  Al  Al6  1  0.84697616  0.04112536  0.19414820  1
  Al  Al7  1  0.84696314  0.65199705  0.19496509  1
  Al  Al8  1  0.45703195  0.65199705  0.80503491  1
  Al  Al9  1  0.38012060  0.12050858  0.25961302  1
  Al  Al10  1  0.86089556  0.12050858  0.74038698  1
  Al  Al11  1  0.62203579  0.87926063  0.25722583  1
  Al  Al12  1  0.62203579  0.36480996  0.74277417  1
  Al  Al13  1  0.62314474  0.87859136  0.74455438  1
  Al  Al14  1  0.13403597  0.87859136  0.25544562  1
  Ir  Ir0  1  0.49948114  0.99948114  0.50000000  1
  Pt  Pt0  1  0.99783963  0.99952935  0.49868444  1
  Pt  Pt1  1  0.50084492  0.99952935  0.00168972  1
  Pt  Pt2  1  0.50108539  0.50108539  0.00000000  1
  Pt  Pt3  1  0.50084492  0.49915419  0.50131556  1
  Pt  Pt4  1  0.99783963  0.49915419  0.99831028  1
  Pt  Pt5  1  0.00024881  0.00024881  0.00000000  1
loop_
_geom_bond_atom_site_label_1
_geom_bond_atom_site_label_2
_geom_bond_distance
_geom_bond_site_symmetry_2
Ti0 Ti6 2.898873 1_554
Ti1 Ti6 2.898874 1_555
Ti2 Ti6 2.902582 1_565
Ti2 Ti7 2.902583 1_555
Ti3 Ti7 2.898860 1_556
Ti4 Ti7 2.898875 1_555
Al0 Ti2 2.603490 1_555
Al0 Ti4 2.611736 1_455
Al0 Ti1 2.611736 1_555
Al0 Ti0 2.611742 1_455
Al0 Ti3 2.611742 1_555
Al0 Ti5 2.612402 1_455
Al1 Pt5 2.513870 1_555
Al1 Pt4 2.525770 1_454
Al1 Pt3 2.525785 1_555
Al1 Ti2 2.751170 1_555
Al1 Ti0 2.764632 1_455
Al1 Ti1 2.764640 1_555
Al1 Al10 2.837922 1_454
Al1 Al9 2.837924 1_555
Al1 Ti7 2.843029 1_555
Al2 Pt5 2.513863 1_566
Al2 Pt1 2.525785 1_556
Al2 Pt0 2.525785 1_455
Al2 Ti2 2.751175 1_555
Al2 Ti4 2.764635 1_455
Al2 Ti3 2.764641 1_555
Al2 Al9 2.837922 1_566
Al2 Ti6 2.843029 1_565
Al3 Pt0 2.510608 1_445
Al3 Pt4 2.510614 1_455
Al3 Pt2 2.526811 1_556
Al3 Ti1 2.770682 1_555
Al3 Ti3 2.770685 1_555
Al3 Ti5 2.777099 1_455
Al3 Ti6 2.809723 1_555
Al3 Ti7 2.809731 1_556
Al4 Pt3 2.510603 1_555
Al4 Pt1 2.510610 1_545
Al4 Pt2 2.526821 1_555
Al4 Ti4 2.770690 1_555
Al4 Ti0 2.770702 1_555
Al4 Ti5 2.777096 1_555
Al4 Al9 2.803416 1_555
Al4 Ti6 2.809731 1_554
Al4 Ti7 2.809732 1_555
Al5 Pt3 2.510947 1_555
Al5 Pt4 2.510947 1_555
Al5 Pt5 2.518010 1_666
Al5 Ti5 2.736638 1_555
Al5 Ti3 2.762297 1_655
Al5 Ti4 2.762305 1_555
Al6 Pt1 2.510945 1_545
Al6 Pt0 2.510953 1_545
Al6 Pt5 2.518001 1_655
Al6 Ti5 2.736641 1_555
Al6 Ti1 2.762297 1_655
Al6 Ti0 2.762297 1_555
Al7 Pt2 2.504103 1_555
Al7 Pt4 2.513391 1_554
Al7 Pt0 2.513397 1_555
Al7 Ti0 2.727062 1_555
Al7 Ti4 2.727070 1_555
Al7 Ti2 2.756999 1_655
Al8 Pt2 2.504096 1_556
Al8 Pt3 2.513397 1_555
Al8 Pt1 2.513397 1_556
Al8 Ti1 2.727065 1_555
Al8 Ti3 2.727070 1_555
Al8 Ti2 2.757005 1_555
Al9 Ir0 2.557084 1_545
Al9 Pt3 2.675852 1_555
Al9 Pt1 2.675866 1_545
Al9 Pt5 2.689497 1_555
Al9 Ti1 2.925700 1_555
Al9 Ti3 2.925706 1_544
Al9 Ti5 2.937762 1_555
Al10 Ir0 2.557084 1_545
Al10 Pt4 2.675852 1_555
Al10 Pt0 2.675859 1_545
Al10 Pt5 2.689504 1_656
Al10 Al3 2.803422 1_655
Al10 Al2 2.837923 1_645
Al10 Ti0 2.925699 1_556
Al10 Ti4 2.925707 1_545
Al10 Ti5 2.937755 1_555
Al10 Al11 2.958325 1_545
Al10 Al12 2.958325 1_555
Al10 Al13 2.961968 1_545
Al11 Ir0 2.580575 1_555
Al11 Pt0 2.659721 1_555
Al11 Pt1 2.659728 1_555
Al11 Pt2 2.672304 1_555
Al11 Al6 2.807417 1_565
Al11 Al8 2.817811 1_554
Al11 Al7 2.817813 1_555
Al11 Ti4 2.917043 1_555
Al11 Ti3 2.917049 1_554
Al11 Ti5 2.935694 1_565
Al11 Ti7 2.956655 1_555
Al11 Al9 2.958338 1_565
Al12 Ir0 2.580575 1_545
Al12 Pt3 2.659714 1_555
Al12 Pt4 2.659720 1_555
Al12 Pt2 2.672311 1_556
Al12 Al5 2.807400 1_555
Al12 Al7 2.817811 1_556
Al12 Al8 2.817811 1_555
Al12 Ti0 2.917042 1_556
Al12 Ti1 2.917050 1_555
Al12 Ti5 2.935687 1_555
Al12 Ti6 2.956667 1_555
Al12 Al9 2.958325 1_555
Al13 Ir0 2.585649 1_555
Al13 Pt5 2.668861 1_666
Al13 Pt1 2.681217 1_556
Al13 Pt3 2.681232 1_555
Al13 Al6 2.805947 1_566
Al13 Al5 2.805961 1_555
Al13 Al8 2.823259 1_555
Al13 Ti2 2.910925 1_555
Al13 Ti0 2.922680 1_566
Al13 Ti4 2.922689 1_555
Al13 Ti6 2.974333 1_565
Al13 Ti7 2.974339 1_555
Al14 Ir0 2.585656 1_555
Al14 Pt5 2.668854 1_565
Al14 Pt0 2.681217 1_455
Al14 Pt4 2.681231 1_454
Al14 Al5 2.805947 1_454
Al14 Al6 2.805947 1_465
Al14 Al7 2.823250 1_455
Al14 Ti2 2.910932 1_555
Al14 Ti3 2.922680 1_554
Al14 Ti1 2.922680 1_565
Al14 Al9 2.961962 1_565
Al14 Ti6 2.974339 1_565
Al14 Ti7 2.974339 1_555
Ir0 Ti7 2.543930 1_555
Ir0 Ti6 2.543937 1_565
Pt0 Ti6 2.709242 1_665
Pt0 Ti5 3.090629 1_565
Pt0 Ti4 3.091136 1_555
Pt0 Ti1 3.096267 1_665
Pt1 Ti6 2.709242 1_564
Pt1 Ti5 3.090628 1_565
Pt1 Ti3 3.091141 1_554
Pt1 Ti0 3.096272 1_565
Pt2 Ti6 2.680976 1_554
Pt2 Ti7 2.680976 1_555
Pt2 Ti0 3.075406 1_555
Pt2 Ti3 3.075406 1_554
Pt2 Ti1 3.075406 1_554
Pt2 Ti4 3.075406 1_555
Pt3 Ti7 2.709257 1_555
Pt3 Ti5 3.090623 1_555
Pt3 Ti1 3.091131 1_555
Pt3 Ti4 3.096272 1_555
Pt4 Ti7 2.709243 1_656
Pt4 Ti5 3.090629 1_555
Pt4 Ti0 3.091123 1_556
Pt4 Ti3 3.096266 1_655
Pt5 Ti0 3.113199 1_455
Pt5 Ti3 3.113199 1_544
Pt5 Ti1 3.113200 1_555
Pt5 Ti4 3.113200 1_444
