# generated using pymatgen
data_Ca4Sn4Sb2Rh7
_symmetry_space_group_name_H-M   'P 1'
_cell_length_a   7.58610839
_cell_length_b   7.59022287
_cell_length_c   7.58610954
_cell_angle_alpha   109.48565513
_cell_angle_beta   109.42038857
_cell_angle_gamma   109.48565116
_symmetry_Int_Tables_number   1
_chemical_formula_structural   Ca4Sn4Sb2Rh7
_chemical_formula_sum   'Ca4 Sn4 Sb2 Rh7'
_cell_volume   336.34759911
_cell_formula_units_Z   1
loop_
 _symmetry_equiv_pos_site_id
 _symmetry_equiv_pos_as_xyz
  1  'x, y, z'
loop_
 _atom_site_type_symbol
 _atom_site_label
 _atom_site_symmetry_multiplicity
 _atom_site_fract_x
 _atom_site_fract_y
 _atom_site_fract_z
 _atom_site_occupancy
  Ca  Ca0  1  0.49992788  0.99985677  0.99992788  1
  Ca  Ca1  1  0.99973807  0.49071467  0.99973807  1
  Ca  Ca2  1  0.99992788  0.99985677  0.49992788  1
  Ca  Ca3  1  0.49097560  0.49071467  0.49097560  1
  Sn  Sn0  1  0.31790444  0.99332413  0.31790444  1
  Sn  Sn1  1  0.99649849  0.68446976  0.68797128  1
  Sn  Sn2  1  0.68797128  0.68446976  0.99649849  1
  Sn  Sn3  1  0.67541869  0.99332413  0.67541869  1
  Sb  Sb0  1  0.99708828  0.32311640  0.32602812  1
  Sb  Sb1  1  0.32602812  0.32311640  0.99708828  1
  Rh  Rh0  1  0.25161312  0.50322523  0.75161312  1
  Rh  Rh1  1  0.50181163  0.25062087  0.74880824  1
  Rh  Rh2  1  0.74880824  0.25062087  0.50181163  1
  Rh  Rh3  1  0.50182499  0.74754053  0.24571555  1
  Rh  Rh4  1  0.00713163  0.01426327  0.00713163  1
  Rh  Rh5  1  0.24571555  0.74754053  0.50182499  1
  Rh  Rh6  1  0.75161312  0.50322523  0.25161312  1
loop_
_geom_bond_atom_site_label_1
_geom_bond_atom_site_label_2
_geom_bond_distance
_geom_bond_site_symmetry_2
Ca0 Rh0 3.077689 1_555
Ca0 Rh5 3.086647 1_555
Ca0 Rh3 3.086654 1_556
Ca0 Rh2 3.109829 1_566
Ca0 Rh1 3.109829 1_565
Ca0 Rh6 3.119438 1_566
Ca0 Sb1 3.152275 1_565
Ca0 Sb0 3.152280 1_566
Ca0 Sn3 3.158651 1_555
Ca0 Sn0 3.158651 1_556
Ca0 Sn1 3.166620 1_455
Ca0 Sn2 3.166626 1_555
Ca1 Rh1 3.086180 1_555
Ca1 Rh2 3.086181 1_555
Ca1 Rh6 3.097253 1_556
Ca1 Rh0 3.097253 1_655
Ca1 Rh3 3.111756 1_656
Ca1 Rh5 3.111756 1_656
Ca1 Sb1 3.140440 1_655
Ca1 Sb0 3.140441 1_556
Ca1 Sn3 3.152860 1_545
Ca1 Sn0 3.169390 1_656
Ca1 Sn2 3.172224 1_555
Ca1 Sn1 3.172224 1_555
Ca2 Rh6 3.077689 1_555
Ca2 Rh3 3.086647 1_555
Ca2 Rh5 3.086653 1_655
Ca2 Rh1 3.109829 1_665
Ca2 Rh2 3.109829 1_565
Ca2 Rh0 3.119438 1_665
Ca2 Sb0 3.152275 1_565
Ca2 Sb1 3.152280 1_665
Ca2 Sn3 3.158651 1_555
Ca2 Sn0 3.158651 1_655
Ca2 Sn2 3.166620 1_554
Ca2 Sn1 3.166627 1_555
Ca3 Rh2 3.086181 1_555
Ca3 Rh1 3.086181 1_555
Ca3 Rh6 3.097253 1_555
Ca3 Rh0 3.097253 1_555
Ca3 Rh5 3.111750 1_555
Ca3 Rh3 3.111750 1_555
Ca3 Sb0 3.140434 1_455
Ca3 Sb1 3.140435 1_554
Ca3 Sn0 3.152860 1_545
Ca3 Sn3 3.169390 1_555
Ca3 Sn1 3.172230 1_555
Ca3 Sn2 3.172230 1_555
Rh0 Sb1 2.677594 1_555
Rh0 Sb0 2.677601 1_455
Rh0 Sn2 2.732948 1_555
Rh0 Sn1 2.732955 1_455
Rh1 Sb1 2.663995 1_555
Rh1 Sn0 2.708608 1_545
Rh1 Sn3 2.708608 1_545
Rh1 Sn2 2.715478 1_555
Rh2 Sb0 2.663995 1_555
Rh2 Sn0 2.708607 1_545
Rh2 Sn3 2.708608 1_545
Rh2 Sn1 2.715478 1_555
Rh3 Sb1 2.668592 1_554
Rh3 Sn3 2.699979 1_555
Rh3 Sn0 2.699984 1_555
Rh3 Sn2 2.723996 1_554
Rh4 Sb1 2.795006 1_554
Rh4 Sb0 2.795006 1_455
Rh4 Sn2 2.797631 1_444
Rh4 Sn1 2.797631 1_444
Rh4 Sn0 2.818735 1_545
Rh4 Sn3 2.818744 1_444
Rh5 Sb0 2.668592 1_455
Rh5 Sn3 2.699979 1_555
Rh5 Sn0 2.699985 1_555
Rh5 Sn1 2.723996 1_455
Rh6 Sb0 2.677593 1_555
Rh6 Sb1 2.677600 1_554
Rh6 Sn1 2.732948 1_555
Rh6 Sn2 2.732956 1_554
