# generated using pymatgen
data_Rb2Ti(Te2Au)2
_symmetry_space_group_name_H-M   'P 1'
_cell_length_a   6.36097093
_cell_length_b   6.36097093
_cell_length_c   14.85447811
_cell_angle_alpha   90.00000000
_cell_angle_beta   90.00000000
_cell_angle_gamma   90.00000000
_symmetry_Int_Tables_number   1
_chemical_formula_structural   Rb2Ti(Te2Au)2
_chemical_formula_sum   'Rb4 Ti2 Te8 Au4'
_cell_volume   601.04116705
_cell_formula_units_Z   2
loop_
 _symmetry_equiv_pos_site_id
 _symmetry_equiv_pos_as_xyz
  1  'x, y, z'
loop_
 _atom_site_type_symbol
 _atom_site_label
 _atom_site_symmetry_multiplicity
 _atom_site_fract_x
 _atom_site_fract_y
 _atom_site_fract_z
 _atom_site_occupancy
  Rb  Rb0  1  0.25726569  0.25726569  0.00000000  1
  Rb  Rb1  1  0.74273431  0.74273431  0.00000000  1
  Rb  Rb2  1  0.74273431  0.25726569  0.50000000  1
  Rb  Rb3  1  0.25726569  0.74273431  0.50000000  1
  Ti  Ti0  1  0.00000000  0.00000000  0.25000000  1
  Ti  Ti1  1  0.00000000  0.00000000  0.75000000  1
  Te  Te0  1  0.23633311  0.23633311  0.35700186  1
  Te  Te1  1  0.76366689  0.76366689  0.64299814  1
  Te  Te2  1  0.76366689  0.76366689  0.35700186  1
  Te  Te3  1  0.76366689  0.23633311  0.85700186  1
  Te  Te4  1  0.76366689  0.23633311  0.14299814  1
  Te  Te5  1  0.23633311  0.23633311  0.64299814  1
  Te  Te6  1  0.23633311  0.76366689  0.14299814  1
  Te  Te7  1  0.23633311  0.76366689  0.85700186  1
  Au  Au0  1  0.00000000  0.50000000  0.25000000  1
  Au  Au1  1  0.00000000  0.50000000  0.75000000  1
  Au  Au2  1  0.50000000  0.00000000  0.75000000  1
  Au  Au3  1  0.50000000  0.00000000  0.25000000  1
loop_
_geom_bond_atom_site_label_1
_geom_bond_atom_site_label_2
_geom_bond_distance
_geom_bond_site_symmetry_2
Rb0 Te6 3.793144 1_545
Rb0 Te4 3.793144 1_455
Rb0 Te3 3.793144 1_454
Rb0 Te7 3.793144 1_544
Rb0 Te6 3.860822 1_555
Rb0 Te4 3.860822 1_555
Rb0 Te3 3.860822 1_554
Rb0 Te7 3.860822 1_554
Rb1 Te4 3.793144 1_565
Rb1 Te6 3.793144 1_655
Rb1 Te3 3.793144 1_564
Rb1 Te7 3.793144 1_654
Rb1 Te6 3.860822 1_555
Rb1 Te4 3.860822 1_555
Rb1 Te3 3.860822 1_554
Rb1 Te7 3.860822 1_554
Rb2 Te5 3.793144 1_655
Rb2 Te1 3.793144 1_545
Rb2 Te2 3.793144 1_545
Rb2 Te0 3.793144 1_655
Rb2 Te1 3.860822 1_555
Rb2 Te5 3.860822 1_555
Rb2 Te2 3.860822 1_555
Rb2 Te0 3.860822 1_555
Rb3 Te1 3.793144 1_455
Rb3 Te5 3.793144 1_565
Rb3 Te2 3.793144 1_455
Rb3 Te0 3.793144 1_565
Rb3 Te1 3.860822 1_555
Rb3 Te5 3.860822 1_555
Rb3 Te2 3.860822 1_555
Rb3 Te0 3.860822 1_555
Te0 Ti0 2.654476 1_555
Te1 Ti1 2.654476 1_665
Te2 Ti0 2.654476 1_665
Te3 Ti1 2.654476 1_655
Te4 Ti0 2.654476 1_655
Te5 Ti1 2.654476 1_555
Te6 Ti0 2.654476 1_565
Te7 Ti1 2.654476 1_565
Au0 Te2 2.756670 1_455
Au0 Te0 2.756670 1_555
Au0 Te6 2.756670 1_555
Au0 Te4 2.756670 1_455
Au0 Ti0 3.180485 1_555
Au0 Ti0 3.180485 1_565
Au1 Te7 2.756670 1_555
Au1 Te3 2.756670 1_455
Au1 Te1 2.756670 1_455
Au1 Te5 2.756670 1_555
Au1 Ti1 3.180485 1_565
Au1 Ti1 3.180485 1_555
Au2 Te3 2.756670 1_555
Au2 Te7 2.756670 1_545
Au2 Te1 2.756670 1_545
Au2 Te5 2.756670 1_555
Au2 Ti1 3.180485 1_655
Au2 Ti1 3.180485 1_555
Au3 Te2 2.756670 1_545
Au3 Te0 2.756670 1_555
Au3 Te4 2.756670 1_555
Au3 Te6 2.756670 1_545
Au3 Ti0 3.180485 1_555
Au3 Ti0 3.180485 1_655
