# generated using pymatgen
data_Ba2SnB2Pt7
_symmetry_space_group_name_H-M   'P 1'
_cell_length_a   5.81173399
_cell_length_b   5.81173471
_cell_length_c   7.38641200
_cell_angle_alpha   90.00000000
_cell_angle_beta   90.00000000
_cell_angle_gamma   119.99999589
_symmetry_Int_Tables_number   1
_chemical_formula_structural   Ba2SnB2Pt7
_chemical_formula_sum   'Ba2 Sn1 B2 Pt7'
_cell_volume   216.06065476
_cell_formula_units_Z   1
loop_
 _symmetry_equiv_pos_site_id
 _symmetry_equiv_pos_as_xyz
  1  'x, y, z'
loop_
 _atom_site_type_symbol
 _atom_site_label
 _atom_site_symmetry_multiplicity
 _atom_site_fract_x
 _atom_site_fract_y
 _atom_site_fract_z
 _atom_site_occupancy
  Ba  Ba0  1  0.00000000  0.00000000  0.00000000  1
  Ba  Ba1  1  0.00000000  0.00000000  0.50000000  1
  Sn  Sn0  1  0.66666700  0.33333400  0.50000000  1
  B  B0  1  0.66666700  0.33333400  0.00000000  1
  B  B1  1  0.33333400  0.66666700  0.00000000  1
  Pt  Pt0  1  0.50025792  0.00051584  0.19551473  1
  Pt  Pt1  1  0.99948416  0.49974208  0.19551473  1
  Pt  Pt2  1  0.50025692  0.49974208  0.19551473  1
  Pt  Pt3  1  0.33333400  0.66666700  0.50000000  1
  Pt  Pt4  1  0.50025792  0.00051584  0.80448527  1
  Pt  Pt5  1  0.99948416  0.49974208  0.80448527  1
  Pt  Pt6  1  0.50025692  0.49974208  0.80448527  1
loop_
_geom_bond_atom_site_label_1
_geom_bond_atom_site_label_2
_geom_bond_distance
_geom_bond_site_symmetry_2
Ba0 Pt2 3.244939 1_555
Ba0 Pt6 3.244939 1_554
Ba0 Pt0 3.244942 1_555
Ba0 Pt4 3.244942 1_554
Ba0 Pt0 3.244942 1_455
Ba0 Pt4 3.244942 1_454
Ba0 Pt1 3.244942 1_455
Ba0 Pt5 3.244942 1_454
Ba0 Pt1 3.244942 1_445
Ba0 Pt5 3.244942 1_444
Ba0 Pt2 3.244944 1_445
Ba0 Pt6 3.244944 1_444
Ba1 Pt3 3.355403 1_445
Ba1 Sn0 3.355403 1_445
Ba1 Pt3 3.355408 1_545
Ba1 Sn0 3.355408 1_555
Ba1 Sn0 3.355408 1_455
Ba1 Pt3 3.355408 1_555
B0 Pt1 2.211686 1_555
B0 Pt5 2.211686 1_554
B0 Pt2 2.211689 1_555
B0 Pt6 2.211689 1_554
B0 Pt0 2.211690 1_555
B0 Pt4 2.211690 1_554
B1 Pt2 2.215617 1_555
B1 Pt6 2.215617 1_554
B1 Pt0 2.215621 1_565
B1 Pt4 2.215621 1_564
B1 Pt1 2.215625 1_455
B1 Pt5 2.215625 1_454
Pt0 Sn0 2.804325 1_555
Pt0 Pt3 2.807427 1_545
Pt1 Sn0 2.804322 1_555
Pt1 Pt3 2.807429 1_655
Pt2 Sn0 2.804325 1_555
Pt2 Pt3 2.807423 1_555
Pt3 Pt6 2.807423 1_555
Pt3 Pt4 2.807427 1_565
Pt3 Pt5 2.807429 1_455
Pt3 Sn0 3.355403 1_555
Pt3 Sn0 3.355408 1_455
Pt3 Sn0 3.355408 1_565
Pt4 Sn0 2.804325 1_555
Pt5 Sn0 2.804322 1_555
Pt6 Sn0 2.804325 1_555
