# generated using pymatgen
data_ZrAg4Te3O14
_symmetry_space_group_name_H-M   'P 1'
_cell_length_a   7.44179889
_cell_length_b   7.44179800
_cell_length_c   7.28691973
_cell_angle_alpha   120.26215529
_cell_angle_beta   120.23004524
_cell_angle_gamma   90.77560204
_symmetry_Int_Tables_number   1
_chemical_formula_structural   ZrAg4Te3O14
_chemical_formula_sum   'Zr1 Ag4 Te3 O14'
_cell_volume   281.18344349
_cell_formula_units_Z   1
loop_
 _symmetry_equiv_pos_site_id
 _symmetry_equiv_pos_as_xyz
  1  'x, y, z'
loop_
 _atom_site_type_symbol
 _atom_site_label
 _atom_site_symmetry_multiplicity
 _atom_site_fract_x
 _atom_site_fract_y
 _atom_site_fract_z
 _atom_site_occupancy
  Zr  Zr0  1  0.50000000  0.00000000  0.00000000  1
  Ag  Ag0  1  0.00000000  0.50000000  0.50000000  1
  Ag  Ag1  1  0.50000000  0.00000000  0.50000000  1
  Ag  Ag2  1  0.00000000  0.50000000  0.00000000  1
  Ag  Ag3  1  0.00000000  0.00000000  0.50000000  1
  Te  Te0  1  0.50000000  0.50000000  0.00000000  1
  Te  Te1  1  0.00000000  0.00000000  0.00000000  1
  Te  Te2  1  0.50000000  0.50000000  0.50000000  1
  O  O0  1  0.55274339  0.42853005  0.73775901  1
  O  O1  1  0.45387947  0.19622166  0.86749069  1
  O  O2  1  0.82873098  0.08638778  0.13250931  1
  O  O3  1  0.19077204  0.31498438  0.26224099  1
  O  O4  1  0.44725661  0.57146995  0.26224099  1
  O  O5  1  0.54612053  0.80377834  0.13250931  1
  O  O6  1  0.17126902  0.91361222  0.86749069  1
  O  O7  1  0.80922796  0.68501562  0.73775901  1
  O  O8  1  0.59402038  0.26722629  0.36124667  1
  O  O9  1  0.40597962  0.73277371  0.63875333  1
  O  O10  1  0.18101914  0.40698146  0.75708681  1
  O  O11  1  0.81898086  0.59301854  0.24291319  1
  O  O12  1  0.85010534  0.07606767  0.75708681  1
  O  O13  1  0.14989466  0.92393233  0.24291319  1
loop_
_geom_bond_atom_site_label_1
_geom_bond_atom_site_label_2
_geom_bond_distance
_geom_bond_site_symmetry_2
Ag0 O10 2.143487 1_555
Ag0 O11 2.143487 1_455
Ag0 O2 2.533556 1_455
Ag0 O6 2.533556 1_555
Ag0 O3 2.652966 1_555
Ag0 O7 2.652966 1_455
Ag1 O12 2.143487 1_555
Ag1 O13 2.143487 1_545
Ag1 O1 2.533551 1_555
Ag1 O5 2.533551 1_545
Ag1 O0 2.652960 1_555
Ag1 O4 2.652960 1_545
Ag2 O13 2.572625 1_555
Ag2 O12 2.572625 1_454
Ag2 O10 2.572626 1_554
Ag2 O11 2.572626 1_455
Ag2 O4 2.745160 1_555
Ag2 O0 2.745160 1_454
Ag2 O7 2.745161 1_454
Ag2 O3 2.745161 1_555
Ag3 O10 2.475223 1_555
Ag3 O11 2.475223 1_445
Ag3 O13 2.475224 1_545
Ag3 O12 2.475224 1_455
Ag3 O2 2.743967 1_455
Ag3 O6 2.743967 1_545
Ag3 O1 2.743973 1_555
Ag3 O5 2.743973 1_445
O0 Te2 1.920487 1_555
O0 Te0 1.955787 1_556
O1 Te0 1.898914 1_556
O1 Zr0 2.069654 1_556
O2 Te1 1.898914 1_655
O2 Zr0 2.069653 1_555
O3 Te2 1.920481 1_555
O3 Te1 1.955788 1_555
O4 Te2 1.920487 1_555
O4 Te0 1.955787 1_555
O5 Te0 1.898914 1_555
O5 Zr0 2.069654 1_565
O6 Te1 1.898914 1_566
O6 Zr0 2.069653 1_566
O7 Te2 1.920481 1_555
O7 Te1 1.955788 1_666
O8 Te2 1.868796 1_555
O8 Zr0 2.050630 1_555
O9 Te2 1.868796 1_555
O9 Zr0 2.050630 1_566
O10 Te0 1.933076 1_556
O11 Te0 1.933076 1_555
O12 Te1 1.933076 1_656
O13 Te1 1.933076 1_565
