# generated using pymatgen
data_Cs4Ta2PdS8
_symmetry_space_group_name_H-M   'P 1'
_cell_length_a   13.67945855
_cell_length_b   7.56055540
_cell_length_c   9.85061599
_cell_angle_alpha   85.52216372
_cell_angle_beta   90.00000000
_cell_angle_gamma   90.00000000
_symmetry_Int_Tables_number   1
_chemical_formula_structural   Cs4Ta2PdS8
_chemical_formula_sum   'Cs8 Ta4 Pd2 S16'
_cell_volume   1015.68335024
_cell_formula_units_Z   2
loop_
 _symmetry_equiv_pos_site_id
 _symmetry_equiv_pos_as_xyz
  1  'x, y, z'
loop_
 _atom_site_type_symbol
 _atom_site_label
 _atom_site_symmetry_multiplicity
 _atom_site_fract_x
 _atom_site_fract_y
 _atom_site_fract_z
 _atom_site_occupancy
  Cs  Cs0  1  0.13669556  0.82079398  0.68219880  1
  Cs  Cs1  1  0.63669556  0.17920602  0.81780120  1
  Cs  Cs2  1  0.86330444  0.17920602  0.31780120  1
  Cs  Cs3  1  0.36330444  0.82079398  0.18219880  1
  Cs  Cs4  1  0.34253764  0.27043892  0.53886378  1
  Cs  Cs5  1  0.84253764  0.72956108  0.96113622  1
  Cs  Cs6  1  0.65746236  0.72956108  0.46113622  1
  Cs  Cs7  1  0.15746236  0.27043892  0.03886378  1
  Ta  Ta0  1  0.42699917  0.75090247  0.76864476  1
  Ta  Ta1  1  0.92699917  0.24909753  0.73135524  1
  Ta  Ta2  1  0.57300083  0.24909753  0.23135524  1
  Ta  Ta3  1  0.07300083  0.75090247  0.26864476  1
  Pd  Pd0  1  0.00000000  0.50000000  0.50000000  1
  Pd  Pd1  1  0.50000000  0.50000000  0.00000000  1
  S  S0  1  0.08624842  0.31079205  0.66556452  1
  S  S1  1  0.58624842  0.68920795  0.83443548  1
  S  S2  1  0.91375158  0.68920795  0.33443548  1
  S  S3  1  0.41375158  0.31079205  0.16556452  1
  S  S4  1  0.40228710  0.74960529  0.54291581  1
  S  S5  1  0.90228710  0.25039471  0.95708419  1
  S  S6  1  0.59771290  0.25039471  0.45708419  1
  S  S7  1  0.09771290  0.74960529  0.04291581  1
  S  S8  1  0.15325556  0.52120917  0.38602254  1
  S  S9  1  0.65325556  0.47879083  0.11397746  1
  S  S10  1  0.84674444  0.47879083  0.61397746  1
  S  S11  1  0.34674444  0.52120917  0.88602254  1
  S  S12  1  0.37528966  0.01008260  0.84020998  1
  S  S13  1  0.87528966  0.98991740  0.65979002  1
  S  S14  1  0.62471034  0.98991740  0.15979002  1
  S  S15  1  0.12471034  0.01008260  0.34020998  1
loop_
_geom_bond_atom_site_label_1
_geom_bond_atom_site_label_2
_geom_bond_distance
_geom_bond_site_symmetry_2
Cs0 S15 3.559636 1_565
Cs0 S7 3.591833 1_556
Cs0 Pd0 3.644171 1_555
Cs0 S0 3.759358 1_565
Cs0 S13 3.798242 1_455
Cs0 S8 3.837374 1_555
Cs0 S0 3.933151 1_555
Cs0 S12 3.933358 1_565
Cs0 S4 3.935379 1_555
Cs0 S11 4.087496 1_555
Cs1 S14 3.559636 1_546
Cs1 S6 3.591833 1_555
Cs1 Pd1 3.644171 1_556
Cs1 S1 3.759358 1_545
Cs1 S12 3.798242 1_555
Cs1 S9 3.837374 1_556
Cs1 S1 3.933151 1_555
Cs1 S13 3.933358 1_545
Cs1 S5 3.935379 1_555
Cs1 S10 4.087496 1_555
Cs2 S13 3.559636 1_545
Cs2 S5 3.591833 1_554
Cs2 Pd0 3.644171 1_655
Cs2 S2 3.759358 1_545
Cs2 S15 3.798242 1_655
Cs2 S10 3.837374 1_555
Cs2 S2 3.933151 1_555
Cs2 S14 3.933358 1_545
Cs2 S6 3.935379 1_555
Cs2 S9 4.087496 1_555
Cs3 S12 3.559636 1_564
Cs3 S4 3.591833 1_555
Cs3 Pd1 3.644171 1_555
Cs3 S3 3.759358 1_565
Cs3 S14 3.798242 1_555
Cs3 S11 3.837374 1_554
Cs3 S3 3.933151 1_555
Cs3 S15 3.933358 1_565
Cs3 S7 3.935379 1_555
Cs3 S8 4.087496 1_555
Cs4 S12 3.460456 1_555
Cs4 S8 3.481389 1_555
Cs4 S6 3.588271 1_555
Cs4 S4 3.717074 1_555
Cs4 S0 3.741866 1_555
Cs4 S3 3.793271 1_555
Cs4 S4 4.018868 1_545
Cs4 S11 4.037936 1_555
Cs4 S15 4.145419 1_555
Cs5 S13 3.460456 1_555
Cs5 S9 3.481389 1_556
Cs5 S7 3.588271 1_656
Cs5 S5 3.717074 1_555
Cs5 S1 3.741866 1_555
Cs5 S2 3.793271 1_556
Cs5 S5 4.018868 1_565
Cs5 S10 4.037936 1_555
Cs5 S14 4.145419 1_556
Cs6 S14 3.460456 1_555
Cs6 S10 3.481389 1_555
Cs6 S4 3.588271 1_555
Cs6 S6 3.717074 1_555
Cs6 S2 3.741866 1_555
Cs6 S1 3.793271 1_555
Cs6 S6 4.018868 1_565
Cs6 S9 4.037936 1_555
Cs6 S13 4.145419 1_555
Cs7 S15 3.460456 1_555
Cs7 S11 3.481389 1_554
Cs7 S5 3.588271 1_454
Cs7 S7 3.717074 1_555
Cs7 S3 3.741866 1_555
Cs7 S0 3.793271 1_554
Cs7 S7 4.018868 1_545
Cs7 S8 4.037936 1_555
Cs7 S12 4.145419 1_554
Pd0 S8 2.377663 1_555
Pd0 S10 2.377663 1_455
Pd0 S0 2.394569 1_555
Pd0 S2 2.394569 1_455
Pd1 S9 2.377663 1_555
Pd1 S11 2.377663 1_554
Pd1 S1 2.394569 1_554
Pd1 S3 2.394569 1_555
S0 Ta1 2.309976 1_455
S1 Ta0 2.309976 1_555
S2 Ta3 2.309976 1_655
S3 Ta2 2.309976 1_555
S4 Ta0 2.249897 1_555
S5 Ta1 2.249897 1_555
S6 Ta2 2.249897 1_555
S7 Ta3 2.249897 1_555
S8 Ta3 2.290072 1_555
S9 Ta2 2.290072 1_555
S10 Ta1 2.290072 1_555
S11 Ta0 2.290072 1_555
S12 Ta0 2.247854 1_545
S13 Ta1 2.247854 1_565
S14 Ta2 2.247854 1_565
S15 Ta3 2.247854 1_545
