# generated using pymatgen
data_Al3SiTc3Ge2
_symmetry_space_group_name_H-M   'P 1'
_cell_length_a   4.64882645
_cell_length_b   4.64882698
_cell_length_c   6.65174083
_cell_angle_alpha   90.14967603
_cell_angle_beta   90.14967099
_cell_angle_gamma   119.98304074
_symmetry_Int_Tables_number   1
_chemical_formula_structural   Al3SiTc3Ge2
_chemical_formula_sum   'Al3 Si1 Tc3 Ge2'
_cell_volume   124.51478857
_cell_formula_units_Z   1
loop_
 _symmetry_equiv_pos_site_id
 _symmetry_equiv_pos_as_xyz
  1  'x, y, z'
loop_
 _atom_site_type_symbol
 _atom_site_label
 _atom_site_symmetry_multiplicity
 _atom_site_fract_x
 _atom_site_fract_y
 _atom_site_fract_z
 _atom_site_occupancy
  Al  Al0  1  0.32985418  0.16257597  0.17014126  1
  Al  Al1  1  0.83742403  0.67014582  0.82985874  1
  Al  Al2  1  0.83458829  0.16541171  0.50000000  1
  Si  Si0  1  0.16879272  0.83120728  0.50000000  1
  Tc  Tc0  1  0.99781210  0.50259721  0.16941379  1
  Tc  Tc1  1  0.49740279  0.00218790  0.83058621  1
  Tc  Tc2  1  0.50131201  0.49868799  0.50000000  1
  Ge  Ge0  1  0.66593179  0.83273292  0.16599456  1
  Ge  Ge1  1  0.16726708  0.33406821  0.83400544  1
loop_
_geom_bond_atom_site_label_1
_geom_bond_atom_site_label_2
_geom_bond_distance
_geom_bond_site_symmetry_2
Al0 Tc2 2.572777 1_555
Al0 Si0 2.573193 1_545
Al0 Ge1 2.609375 1_554
Al0 Tc1 2.616279 1_554
Al0 Tc0 2.657532 1_445
Al0 Ge0 2.673443 1_445
Al0 Ge0 2.680951 1_545
Al0 Tc0 2.689841 1_555
Al0 Ge0 2.698786 1_555
Al0 Tc0 2.705565 1_455
Al1 Tc2 2.572777 1_555
Al1 Si0 2.573193 1_655
Al1 Ge0 2.609375 1_556
Al1 Tc0 2.616279 1_556
Al1 Tc1 2.657532 1_665
Al1 Ge1 2.673443 1_665
Al1 Ge1 2.680951 1_655
Al1 Tc1 2.689841 1_555
Al1 Ge1 2.698785 1_555
Al1 Tc1 2.705565 1_565
Al2 Ge1 2.589134 1_655
Al2 Ge0 2.589134 1_545
Al2 Tc1 2.589648 1_555
Al2 Tc0 2.589648 1_555
Al2 Si0 2.680961 1_545
Al2 Si0 2.680961 1_655
Al2 Tc2 2.683313 1_555
Al2 Tc2 2.684690 1_655
Al2 Tc2 2.684690 1_545
Al2 Si0 2.690786 1_645
Si0 Tc1 2.561382 1_565
Si0 Tc0 2.561382 1_455
Si0 Tc2 2.677218 1_555
Si0 Tc2 2.687742 1_455
Si0 Tc2 2.687742 1_565
Ge0 Tc2 2.602371 1_555
Ge0 Tc1 2.613215 1_564
Ge0 Tc0 2.665150 1_555
Ge0 Tc0 2.690566 1_455
Ge0 Tc0 2.697362 1_565
Ge1 Tc2 2.602371 1_555
Ge1 Tc0 2.613214 1_456
Ge1 Tc1 2.665150 1_555
Ge1 Tc1 2.690566 1_565
Ge1 Tc1 2.697362 1_455
