# generated using pymatgen
data_Sr6Sn8SbBr
_symmetry_space_group_name_H-M   'P 1'
_cell_length_a   8.97471642
_cell_length_b   8.97471602
_cell_length_c   8.97471665
_cell_angle_alpha   120.31415228
_cell_angle_beta   120.31415051
_cell_angle_gamma   89.45673342
_symmetry_Int_Tables_number   1
_chemical_formula_structural   Sr6Sn8SbBr
_chemical_formula_sum   'Sr6 Sn8 Sb1 Br1'
_cell_volume   508.69668762
_cell_formula_units_Z   1
loop_
 _symmetry_equiv_pos_site_id
 _symmetry_equiv_pos_as_xyz
  1  'x, y, z'
loop_
 _atom_site_type_symbol
 _atom_site_label
 _atom_site_symmetry_multiplicity
 _atom_site_fract_x
 _atom_site_fract_y
 _atom_site_fract_z
 _atom_site_occupancy
  Sr  Sr0  1  0.24817297  0.24817297  1.00000000  1
  Sr  Sr1  1  0.75182703  0.75182703  0.00000000  1
  Sr  Sr2  1  0.16818056  0.65900043  0.82718099  1
  Sr  Sr3  1  0.83181944  0.34099957  0.17281901  1
  Sr  Sr4  1  0.65900043  0.83181944  0.49082088  1
  Sr  Sr5  1  0.34099957  0.16818056  0.50917912  1
  Sn  Sn0  1  0.83250302  0.33205286  0.78404912  1
  Sn  Sn1  1  0.16749698  0.66794714  0.21595088  1
  Sn  Sn2  1  0.54800375  0.04845391  0.21595088  1
  Sn  Sn3  1  0.33205286  0.54800375  0.49954884  1
  Sn  Sn4  1  0.95154609  0.16749698  0.49954884  1
  Sn  Sn5  1  0.45199625  0.95154609  0.78404912  1
  Sn  Sn6  1  0.66794714  0.45199625  0.50045116  1
  Sn  Sn7  1  0.04845391  0.83250302  0.50045116  1
  Sb  Sb0  1  0.50000000  0.50000000  0.00000000  1
  Br  Br0  1  0.00000000  0.00000000  0.00000000  1
loop_
_geom_bond_atom_site_label_1
_geom_bond_atom_site_label_2
_geom_bond_distance
_geom_bond_site_symmetry_2
Sn0 Sn6 2.959570 1_555
Sn0 Sn4 2.959584 1_555
Sn0 Sn1 3.124615 1_656
Sn0 Sr3 3.452403 1_556
Sn0 Sr0 3.515767 1_655
Sn0 Sr1 3.530940 1_556
Sn0 Sr5 3.630708 1_555
Sn0 Sr4 3.684377 1_545
Sn0 Sr2 3.959716 1_655
Sn1 Sn3 2.959570 1_555
Sn1 Sn7 2.959584 1_555
Sn1 Sr2 3.452403 1_554
Sn1 Sr1 3.515767 1_455
Sn1 Sr0 3.530940 1_554
Sn1 Sr4 3.630708 1_555
Sn1 Sr5 3.684377 1_565
Sn1 Sr3 3.959716 1_455
Sn2 Sn4 2.959576 1_555
Sn2 Sn6 2.959577 1_555
Sn2 Sn5 3.124615 1_544
Sn2 Sr2 3.452403 1_544
Sn2 Sr0 3.515767 1_554
Sn2 Sr1 3.530940 1_545
Sn2 Sr4 3.630717 1_545
Sn2 Sr5 3.684369 1_555
Sn2 Sr3 3.959716 1_555
Sn3 Sn5 2.959577 1_555
Sn3 Sn6 3.124609 1_555
Sn3 Sr5 3.452403 1_555
Sn3 Sr0 3.515760 1_554
Sn3 Sr1 3.530944 1_556
Sn3 Sr2 3.630717 1_555
Sn3 Sr3 3.684377 1_455
Sn3 Sr4 3.959703 1_555
Sn4 Sn7 3.124621 1_645
Sn4 Sr5 3.452403 1_655
Sn4 Sr1 3.515762 1_545
Sn4 Sr0 3.530947 1_655
Sn4 Sr2 3.630708 1_655
Sn4 Sr3 3.684368 1_555
Sn4 Sr4 3.959728 1_545
Sn5 Sn7 2.959576 1_555
Sn5 Sr3 3.452403 1_566
Sn5 Sr1 3.515767 1_556
Sn5 Sr0 3.530940 1_565
Sn5 Sr5 3.630717 1_565
Sn5 Sr4 3.684369 1_555
Sn5 Sr2 3.959716 1_555
Sn6 Sr4 3.452403 1_555
Sn6 Sr1 3.515760 1_556
Sn6 Sr0 3.530944 1_554
Sn6 Sr3 3.630717 1_555
Sn6 Sr2 3.684377 1_655
Sn6 Sr5 3.959703 1_555
Sn7 Sr4 3.452403 1_455
Sn7 Sr0 3.515762 1_565
Sn7 Sr1 3.530947 1_455
Sn7 Sr3 3.630708 1_455
Sn7 Sr2 3.684368 1_555
Sn7 Sr5 3.959728 1_565
Sb0 Sr1 3.211347 1_555
Sb0 Sr0 3.211347 1_554
Sb0 Sr2 3.286531 1_554
Sb0 Sr3 3.286531 1_555
Sb0 Sr4 3.286537 1_555
Sb0 Sr5 3.286537 1_554
Br0 Sr0 3.164750 1_554
Br0 Sr1 3.164750 1_445
Br0 Sr5 3.396123 1_555
Br0 Sr4 3.396123 1_444
Br0 Sr3 3.396129 1_455
Br0 Sr2 3.396129 1_544
