# generated using pymatgen
data_K3Ba3GaAs4
_symmetry_space_group_name_H-M   'P 1'
_cell_length_a   10.39426111
_cell_length_b   10.39426021
_cell_length_c   8.01357792
_cell_angle_alpha   90.00000000
_cell_angle_beta   90.00000000
_cell_angle_gamma   119.99999346
_symmetry_Int_Tables_number   1
_chemical_formula_structural   K3Ba3GaAs4
_chemical_formula_sum   'K6 Ba6 Ga2 As8'
_cell_volume   749.79809263
_cell_formula_units_Z   2
loop_
 _symmetry_equiv_pos_site_id
 _symmetry_equiv_pos_as_xyz
  1  'x, y, z'
loop_
 _atom_site_type_symbol
 _atom_site_label
 _atom_site_symmetry_multiplicity
 _atom_site_fract_x
 _atom_site_fract_y
 _atom_site_fract_z
 _atom_site_occupancy
  K  K0  1  0.13506924  0.86493076  0.17395192  1
  K  K1  1  0.27013947  0.13506924  0.67395192  1
  K  K2  1  0.86493076  0.72986053  0.67395192  1
  K  K3  1  0.72986053  0.86493076  0.17395192  1
  K  K4  1  0.86493076  0.13506924  0.67395192  1
  K  K5  1  0.13506924  0.27013947  0.17395192  1
  Ba  Ba0  1  0.95506218  0.47753109  0.99719509  1
  Ba  Ba1  1  0.52246891  0.04493782  0.99719509  1
  Ba  Ba2  1  0.47753109  0.95506218  0.49719509  1
  Ba  Ba3  1  0.04493782  0.52246891  0.49719509  1
  Ba  Ba4  1  0.52246891  0.47753109  0.99719509  1
  Ba  Ba5  1  0.47753109  0.52246891  0.49719509  1
  Ga  Ga0  1  0.66666700  0.33333300  0.37650557  1
  Ga  Ga1  1  0.33333300  0.66666700  0.87650557  1
  As  As0  1  0.80119848  0.19880152  0.27831466  1
  As  As1  1  0.19880152  0.39760204  0.77831466  1
  As  As2  1  0.80119848  0.60239796  0.27831466  1
  As  As3  1  0.66666700  0.33333300  0.70620943  1
  As  As4  1  0.60239796  0.80119848  0.77831466  1
  As  As5  1  0.33333300  0.66666700  0.20620943  1
  As  As6  1  0.19880152  0.80119848  0.77831466  1
  As  As7  1  0.39760204  0.19880152  0.27831466  1
loop_
_geom_bond_atom_site_label_1
_geom_bond_atom_site_label_2
_geom_bond_distance
_geom_bond_site_symmetry_2
As0 Ga0 2.546633 1_555
As0 K3 3.274025 1_545
As0 K5 3.274026 1_655
As0 K4 3.371706 1_555
As0 Ba0 3.375348 1_554
As0 Ba1 3.375348 1_554
As0 Ba3 3.505733 1_655
As0 Ba2 3.505734 1_545
As1 Ga1 2.546651 1_555
As1 K1 3.274025 1_555
As1 K4 3.274026 1_455
As1 K5 3.371700 1_556
As1 Ba5 3.375348 1_555
As1 Ba3 3.375354 1_555
As1 Ba4 3.505731 1_555
As1 Ba0 3.505739 1_455
As2 Ga0 2.546651 1_555
As2 K3 3.274025 1_555
As2 K0 3.274026 1_655
As2 K2 3.371700 1_555
As2 Ba4 3.375348 1_554
As2 Ba0 3.375354 1_554
As2 Ba5 3.505731 1_555
As2 Ba3 3.505739 1_655
As3 Ga0 2.642108 1_555
As3 Ba1 3.489543 1_555
As3 Ba0 3.489543 1_555
As3 Ba4 3.489550 1_555
As3 K4 3.578767 1_555
As3 K2 3.578767 1_555
As3 K1 3.578768 1_555
As3 Ba2 3.794736 1_545
As3 Ba3 3.794737 1_655
As3 Ba5 3.794744 1_555
As4 Ga1 2.546651 1_555
As4 K2 3.274025 1_555
As4 K4 3.274025 1_565
As4 K3 3.371700 1_556
As4 Ba5 3.375348 1_555
As4 Ba2 3.375354 1_555
As4 Ba4 3.505731 1_555
As4 Ba1 3.505739 1_565
As5 Ga1 2.642108 1_554
As5 Ba2 3.489543 1_555
As5 Ba3 3.489543 1_555
As5 Ba5 3.489550 1_555
As5 K0 3.578767 1_555
As5 K5 3.578767 1_555
As5 K3 3.578768 1_555
As5 Ba1 3.794736 1_564
As5 Ba0 3.794737 1_454
As5 Ba4 3.794744 1_554
As6 Ga1 2.546633 1_555
As6 K1 3.274025 1_565
As6 K2 3.274026 1_455
As6 K0 3.371706 1_556
As6 Ba3 3.375348 1_555
As6 Ba2 3.375348 1_555
As6 Ba0 3.505733 1_455
As6 Ba1 3.505734 1_565
As7 Ga0 2.546651 1_555
As7 K5 3.274025 1_555
As7 K0 3.274025 1_545
As7 K1 3.371700 1_555
As7 Ba4 3.375348 1_554
As7 Ba1 3.375354 1_554
As7 Ba5 3.505731 1_555
As7 Ba2 3.505739 1_545
