# generated using pymatgen
data_Nb16FeCu7N4
_symmetry_space_group_name_H-M   'P 1'
_cell_length_a   8.28010380
_cell_length_b   8.28010302
_cell_length_c   8.28012375
_cell_angle_alpha   60.00934334
_cell_angle_beta   60.00934854
_cell_angle_gamma   60.00917081
_symmetry_Int_Tables_number   1
_chemical_formula_structural   Nb16FeCu7N4
_chemical_formula_sum   'Nb16 Fe1 Cu7 N4'
_cell_volume   401.49929455
_cell_formula_units_Z   1
loop_
 _symmetry_equiv_pos_site_id
 _symmetry_equiv_pos_as_xyz
  1  'x, y, z'
loop_
 _atom_site_type_symbol
 _atom_site_label
 _atom_site_symmetry_multiplicity
 _atom_site_fract_x
 _atom_site_fract_y
 _atom_site_fract_z
 _atom_site_occupancy
  Nb  Nb0  1  0.12033037  0.63118756  0.63118756  1
  Nb  Nb1  1  0.63118756  0.12033037  0.63118756  1
  Nb  Nb2  1  0.63118756  0.63118756  0.12033137  1
  Nb  Nb3  1  0.62494330  0.62494330  0.62494230  1
  Nb  Nb4  1  0.81637295  0.81637295  0.18055903  1
  Nb  Nb5  1  0.18498490  0.18498490  0.81509094  1
  Nb  Nb6  1  0.81637295  0.18055803  0.81637295  1
  Nb  Nb7  1  0.18498390  0.81509194  0.18498490  1
  Nb  Nb8  1  0.18055803  0.81637295  0.81637295  1
  Nb  Nb9  1  0.81509194  0.18498390  0.18498490  1
  Nb  Nb10  1  0.43544185  0.43544185  0.06597082  1
  Nb  Nb11  1  0.06505042  0.06505042  0.43466507  1
  Nb  Nb12  1  0.43544185  0.06597082  0.43544185  1
  Nb  Nb13  1  0.06505142  0.43466507  0.06505042  1
  Nb  Nb14  1  0.06597082  0.43544185  0.43544185  1
  Nb  Nb15  1  0.43466507  0.06505142  0.06505042  1
  Fe  Fe0  1  0.82433656  0.82433656  0.82433756  1
  Cu  Cu0  1  0.74880766  0.41802671  0.41802671  1
  Cu  Cu1  1  0.41802671  0.74880766  0.41802671  1
  Cu  Cu2  1  0.41802771  0.41802771  0.74880566  1
  Cu  Cu3  1  0.41780352  0.41780352  0.41780352  1
  Cu  Cu4  1  0.50090861  0.83210718  0.83210718  1
  Cu  Cu5  1  0.83210718  0.50090861  0.83210718  1
  Cu  Cu6  1  0.83210818  0.83210818  0.50091261  1
  N  N0  1  0.62373341  0.12567693  0.12567693  1
  N  N1  1  0.12567693  0.62373341  0.12567693  1
  N  N2  1  0.12567693  0.12567693  0.62373241  1
  N  N3  1  0.12515069  0.12515069  0.12515069  1
loop_
_geom_bond_atom_site_label_1
_geom_bond_atom_site_label_2
_geom_bond_distance
_geom_bond_site_symmetry_2
Fe0 Nb1 2.417053 1_565
Fe0 Nb0 2.417053 1_655
Fe0 Nb2 2.417056 1_556
Fe0 Nb6 2.885133 1_565
Fe0 Nb8 2.885133 1_655
Fe0 Nb4 2.885145 1_556
Fe0 Nb13 3.077159 1_656
Fe0 Nb15 3.077159 1_566
Fe0 Nb11 3.077172 1_665
Cu0 Nb3 2.518685 1_555
Cu0 Nb2 2.543971 1_555
Cu0 Nb1 2.543978 1_555
Cu0 Cu2 2.739278 1_555
Cu0 Cu1 2.739280 1_555
Cu0 Cu3 2.742597 1_555
Cu0 Nb14 2.777800 1_655
Cu0 Nb11 2.779357 1_655
Cu0 Nb13 2.779373 1_655
Cu0 Nb4 3.052821 1_555
Cu0 Nb6 3.052825 1_555
Cu0 Nb9 3.058255 1_555
Cu1 Nb3 2.518685 1_555
Cu1 Nb2 2.543972 1_555
Cu1 Nb0 2.543978 1_555
Cu1 Cu2 2.739278 1_555
Cu1 Cu3 2.742597 1_555
Cu1 Nb12 2.777799 1_565
Cu1 Nb11 2.779357 1_565
Cu1 Nb15 2.779372 1_565
Cu1 Nb4 3.052821 1_555
Cu1 Nb8 3.052825 1_555
Cu1 Nb7 3.058255 1_555
Cu2 Nb3 2.518681 1_555
Cu2 Nb1 2.543970 1_555
Cu2 Nb0 2.543970 1_555
Cu2 Cu3 2.742596 1_555
Cu2 Nb10 2.777813 1_556
Cu2 Nb15 2.779374 1_556
Cu2 Nb13 2.779375 1_556
Cu2 Nb8 3.052814 1_555
Cu2 Nb6 3.052814 1_555
Cu2 Nb5 3.058258 1_555
Cu3 Nb1 2.594188 1_555
Cu3 Nb0 2.594189 1_555
Cu3 Nb2 2.594193 1_555
Cu3 Nb12 2.774903 1_555
Cu3 Nb14 2.774903 1_555
Cu3 Nb10 2.774911 1_555
Cu3 Nb7 3.047891 1_555
Cu3 Nb9 3.047891 1_555
Cu3 Nb5 3.047894 1_555
Cu4 Nb3 2.521658 1_555
Cu4 Nb1 2.537164 1_565
Cu4 Nb2 2.537172 1_556
Cu4 Fe0 2.615281 1_555
Cu4 Cu6 2.742737 1_555
Cu4 Cu5 2.742739 1_555
Cu4 Nb5 2.777723 1_565
Cu4 Nb7 2.777739 1_556
Cu4 Nb8 2.788874 1_555
Cu4 Nb10 3.033698 1_556
Cu4 Nb12 3.033703 1_565
Cu4 Nb15 3.057009 1_566
Cu5 Nb3 2.521658 1_555
Cu5 Nb0 2.537164 1_655
Cu5 Nb2 2.537172 1_556
Cu5 Fe0 2.615281 1_555
Cu5 Cu6 2.742737 1_555
Cu5 Nb5 2.777723 1_655
Cu5 Nb9 2.777738 1_556
Cu5 Nb6 2.788874 1_555
Cu5 Nb10 3.033699 1_556
Cu5 Nb14 3.033703 1_655
Cu5 Nb13 3.057009 1_656
Cu6 Nb3 2.521677 1_555
Cu6 Nb1 2.537133 1_565
Cu6 Nb0 2.537133 1_655
Cu6 Fe0 2.615251 1_555
Cu6 Nb9 2.777738 1_565
Cu6 Nb7 2.777738 1_655
Cu6 Nb4 2.788914 1_555
Cu6 Nb14 3.033712 1_655
Cu6 Nb12 3.033712 1_565
Cu6 Nb11 3.056972 1_665
N0 Nb10 2.181493 1_555
N0 Nb12 2.181503 1_555
N0 Nb15 2.185867 1_555
N0 Nb4 2.187928 1_545
N0 Nb6 2.187938 1_554
N0 Nb9 2.188532 1_555
N1 Nb10 2.181493 1_555
N1 Nb14 2.181503 1_555
N1 Nb13 2.185867 1_555
N1 Nb4 2.187928 1_455
N1 Nb8 2.187938 1_554
N1 Nb7 2.188532 1_555
N2 Nb14 2.181495 1_555
N2 Nb12 2.181495 1_555
N2 Nb11 2.185867 1_555
N2 Nb8 2.187934 1_545
N2 Nb6 2.187935 1_455
N2 Nb5 2.188540 1_555
N3 Nb13 2.181944 1_555
N3 Nb15 2.181945 1_555
N3 Nb11 2.181951 1_555
N3 Nb7 2.187297 1_545
N3 Nb9 2.187297 1_455
N3 Nb5 2.187311 1_554
