# generated using pymatgen
data_Nd(CuGe)2
_symmetry_space_group_name_H-M   'P 1'
_cell_length_a   4.13741014
_cell_length_b   4.13741052
_cell_length_c   5.86464595
_cell_angle_alpha   110.65509812
_cell_angle_beta   110.65508661
_cell_angle_gamma   90.00000961
_symmetry_Int_Tables_number   1
_chemical_formula_structural   Nd(CuGe)2
_chemical_formula_sum   'Nd1 Cu2 Ge2'
_cell_volume   87.00844098
_cell_formula_units_Z   1
loop_
 _symmetry_equiv_pos_site_id
 _symmetry_equiv_pos_as_xyz
  1  'x, y, z'
loop_
 _atom_site_type_symbol
 _atom_site_label
 _atom_site_symmetry_multiplicity
 _atom_site_fract_x
 _atom_site_fract_y
 _atom_site_fract_z
 _atom_site_occupancy
  Nd  Nd0  1  -0.00000000  0.00000000  0.00000000  1
  Cu  Cu0  1  0.25000000  0.75000000  0.50000000  1
  Cu  Cu1  1  0.75000000  0.25000000  0.50000000  1
  Ge  Ge0  1  0.62350021  0.62350021  0.24699942  1
  Ge  Ge1  1  0.37649979  0.37649979  0.75300058  1
loop_
_geom_bond_atom_site_label_1
_geom_bond_atom_site_label_2
_geom_bond_distance
_geom_bond_site_symmetry_2
Cu0 Ge1 2.435819 1_565
Cu0 Ge0 2.435819 1_455
Cu0 Ge0 2.435822 1_555
Cu0 Ge1 2.435822 1_555
Cu0 Nd0 3.276933 1_566
Cu0 Nd0 3.276933 1_565
Cu0 Nd0 3.276933 1_555
Cu0 Nd0 3.276933 1_666
Cu1 Ge0 2.435819 1_545
Cu1 Ge1 2.435819 1_655
Cu1 Ge1 2.435822 1_555
Cu1 Ge0 2.435822 1_555
Cu1 Nd0 3.276933 1_655
Cu1 Nd0 3.276933 1_656
Cu1 Nd0 3.276933 1_666
Cu1 Nd0 3.276933 1_555
Ge0 Ge1 2.510904 1_554
Ge0 Nd0 3.183586 1_665
Ge0 Nd0 3.183590 1_655
Ge0 Nd0 3.183590 1_565
Ge0 Nd0 3.183592 1_555
Ge1 Nd0 3.183586 1_556
Ge1 Nd0 3.183590 1_566
Ge1 Nd0 3.183590 1_656
Ge1 Nd0 3.183592 1_666
