# generated using pymatgen
data_TmAg3
_symmetry_space_group_name_H-M   'P 1'
_cell_length_a   4.36573400
_cell_length_b   4.36573400
_cell_length_c   4.36573400
_cell_angle_alpha   90.00000000
_cell_angle_beta   90.00000000
_cell_angle_gamma   90.00000000
_symmetry_Int_Tables_number   1
_chemical_formula_structural   TmAg3
_chemical_formula_sum   'Tm1 Ag3'
_cell_volume   83.20928938
_cell_formula_units_Z   1
loop_
 _symmetry_equiv_pos_site_id
 _symmetry_equiv_pos_as_xyz
  1  'x, y, z'
loop_
 _atom_site_type_symbol
 _atom_site_label
 _atom_site_symmetry_multiplicity
 _atom_site_fract_x
 _atom_site_fract_y
 _atom_site_fract_z
 _atom_site_occupancy
  Tm  Tm0  1  0.00000000  0.00000000  0.00000000  1
  Ag  Ag0  1  0.00000000  0.50000000  0.50000000  1
  Ag  Ag1  1  0.50000000  0.50000000  0.00000000  1
  Ag  Ag2  1  0.50000000  0.00000000  0.50000000  1
loop_
_geom_bond_atom_site_label_1
_geom_bond_atom_site_label_2
_geom_bond_distance
_geom_bond_site_symmetry_2
Ag0 Ag2 3.087040 1_465
Ag0 Ag1 3.087040 1_556
Ag0 Tm0 3.087040 1_565
Ag0 Tm0 3.087040 1_555
Ag0 Tm0 3.087040 1_556
Ag0 Ag2 3.087040 1_565
Ag0 Ag1 3.087040 1_555
Ag0 Tm0 3.087040 1_566
Ag0 Ag1 3.087040 1_456
Ag0 Ag1 3.087040 1_455
Ag0 Ag2 3.087040 1_455
Ag0 Ag2 3.087040 1_555
Ag1 Ag2 3.087040 1_564
Ag1 Ag2 3.087040 1_554
Ag1 Tm0 3.087040 1_565
Ag1 Tm0 3.087040 1_555
Ag1 Tm0 3.087040 1_655
Ag1 Ag2 3.087040 1_565
Ag1 Ag2 3.087040 1_555
Ag1 Tm0 3.087040 1_665
Ag2 Tm0 3.087040 1_555
Ag2 Tm0 3.087040 1_655
Ag2 Tm0 3.087040 1_556
Ag2 Tm0 3.087040 1_656
