# generated using pymatgen
data_K2RbAsSe4
_symmetry_space_group_name_H-M   'P 1'
_cell_length_a   9.67091576
_cell_length_b   9.99189887
_cell_length_c   10.94818966
_cell_angle_alpha   90.00000000
_cell_angle_beta   90.00000000
_cell_angle_gamma   90.00000000
_symmetry_Int_Tables_number   1
_chemical_formula_structural   K2RbAsSe4
_chemical_formula_sum   'K8 Rb4 As4 Se16'
_cell_volume   1057.93245960
_cell_formula_units_Z   4
loop_
 _symmetry_equiv_pos_site_id
 _symmetry_equiv_pos_as_xyz
  1  'x, y, z'
loop_
 _atom_site_type_symbol
 _atom_site_label
 _atom_site_symmetry_multiplicity
 _atom_site_fract_x
 _atom_site_fract_y
 _atom_site_fract_z
 _atom_site_occupancy
  K  K0  1  0.56423761  0.19569667  0.04719849  1
  K  K1  1  0.06423761  0.30430333  0.45280151  1
  K  K2  1  0.43576239  0.80430333  0.54719849  1
  K  K3  1  0.93576239  0.69569667  0.95280151  1
  K  K4  1  0.43576239  0.80430333  0.95280151  1
  K  K5  1  0.93576239  0.69569667  0.54719849  1
  K  K6  1  0.56423761  0.19569667  0.45280151  1
  K  K7  1  0.06423761  0.30430333  0.04719849  1
  Rb  Rb0  1  0.64861563  0.41076684  0.75000000  1
  Rb  Rb1  1  0.14861563  0.08923316  0.75000000  1
  Rb  Rb2  1  0.35138437  0.58923316  0.25000000  1
  Rb  Rb3  1  0.85138437  0.91076684  0.25000000  1
  As  As0  1  0.72359560  0.97514530  0.75000000  1
  As  As1  1  0.22359560  0.52485470  0.75000000  1
  As  As2  1  0.27640440  0.02485470  0.25000000  1
  As  As3  1  0.77640440  0.47514530  0.25000000  1
  Se  Se0  1  0.84582256  0.03141031  0.57470138  1
  Se  Se1  1  0.34582256  0.46858969  0.92529862  1
  Se  Se2  1  0.15417744  0.96858969  0.07470138  1
  Se  Se3  1  0.65417744  0.53141031  0.42529862  1
  Se  Se4  1  0.15417744  0.96858969  0.42529862  1
  Se  Se5  1  0.65417744  0.53141031  0.07470138  1
  Se  Se6  1  0.84582256  0.03141031  0.92529862  1
  Se  Se7  1  0.34582256  0.46858969  0.57470138  1
  Se  Se8  1  0.68157569  0.74642218  0.75000000  1
  Se  Se9  1  0.18157569  0.75357782  0.75000000  1
  Se  Se10  1  0.31842431  0.25357782  0.25000000  1
  Se  Se11  1  0.81842431  0.24642218  0.25000000  1
  Se  Se12  1  0.50988575  0.08506747  0.75000000  1
  Se  Se13  1  0.00988575  0.41493253  0.75000000  1
  Se  Se14  1  0.49011425  0.91493253  0.25000000  1
  Se  Se15  1  0.99011425  0.58506747  0.25000000  1
loop_
_geom_bond_atom_site_label_1
_geom_bond_atom_site_label_2
_geom_bond_distance
_geom_bond_site_symmetry_2
K0 Se10 3.303865 1_555
K0 Se11 3.351045 1_555
K0 Se6 3.448402 1_554
K0 Se12 3.476393 1_554
K0 Se5 3.478409 1_555
K0 Se14 3.648797 1_545
K0 Se1 3.698352 1_554
K1 Se11 3.303865 1_455
K1 Se10 3.351045 1_555
K1 Se7 3.448402 1_555
K1 Se13 3.476393 1_555
K1 Se4 3.478409 1_545
K1 Se15 3.648797 1_455
K1 Se0 3.698352 1_455
K2 Se8 3.303865 1_555
K2 Se9 3.351045 1_555
K2 Se4 3.448402 1_555
K2 Se14 3.476393 1_555
K2 Se7 3.478409 1_555
K2 Se12 3.648797 1_565
K2 Se3 3.698352 1_555
K3 Se9 3.303865 1_655
K3 Se8 3.351045 1_555
K3 Se5 3.448402 1_556
K3 Se15 3.476393 1_556
K3 Se6 3.478409 1_565
K3 Se13 3.648797 1_655
K3 Se2 3.698352 1_656
K4 Se8 3.303865 1_555
K4 Se9 3.351045 1_555
K4 Se2 3.448402 1_556
K4 Se14 3.476393 1_556
K4 Se1 3.478409 1_555
K4 Se12 3.648797 1_565
K4 Se5 3.698352 1_556
K5 Se9 3.303865 1_655
K5 Se8 3.351045 1_555
K5 Se3 3.448402 1_555
K5 Se15 3.476393 1_555
K5 Se0 3.478409 1_565
K5 Se13 3.648797 1_655
K5 Se4 3.698352 1_655
K6 Se10 3.303865 1_555
K6 Se11 3.351045 1_555
K6 Se0 3.448402 1_555
K6 Se12 3.476393 1_555
K6 Se3 3.478409 1_555
K6 Se14 3.648797 1_545
K6 Se7 3.698352 1_555
K7 Se11 3.303865 1_455
K7 Se10 3.351045 1_555
K7 Se1 3.448402 1_554
K7 Se13 3.476393 1_554
K7 Se2 3.478409 1_545
K7 Se15 3.648797 1_455
K7 Se6 3.698352 1_454
Rb0 Se8 3.368948 1_555
Rb0 Se13 3.494061 1_655
Rb0 Se12 3.520062 1_555
Rb0 Se1 3.548522 1_555
Rb0 Se7 3.548522 1_555
Rb0 Se5 3.754102 1_556
Rb0 Se3 3.754102 1_555
Rb1 Se9 3.368948 1_545
Rb1 Se12 3.494061 1_555
Rb1 Se13 3.520062 1_555
Rb1 Se6 3.548522 1_455
Rb1 Se0 3.548522 1_455
Rb1 Se2 3.754102 1_546
Rb1 Se4 3.754102 1_545
Rb2 Se10 3.368948 1_555
Rb2 Se15 3.494061 1_455
Rb2 Se14 3.520062 1_555
Rb2 Se3 3.548522 1_555
Rb2 Se5 3.548522 1_555
Rb2 Se7 3.754102 1_555
Rb2 Se1 3.754102 1_554
Rb3 Se11 3.368948 1_565
Rb3 Se14 3.494061 1_555
Rb3 Se15 3.520062 1_555
Rb3 Se4 3.548522 1_655
Rb3 Se2 3.548522 1_655
Rb3 Se0 3.754102 1_565
Rb3 Se6 3.754102 1_564
As0 Se8 2.321226 1_555
As0 Se6 2.323066 1_565
As0 Se0 2.323066 1_565
As0 Se12 2.340485 1_565
As1 Se9 2.321226 1_555
As1 Se1 2.323066 1_555
As1 Se7 2.323066 1_555
As1 Se13 2.340485 1_555
As2 Se10 2.321226 1_555
As2 Se4 2.323066 1_545
As2 Se2 2.323066 1_545
As2 Se14 2.340485 1_545
As3 Se11 2.321226 1_555
As3 Se3 2.323066 1_555
As3 Se5 2.323066 1_555
As3 Se15 2.340485 1_555
