# generated using pymatgen
data_K2Zr3(SbSe5)2
_symmetry_space_group_name_H-M   'P 1'
_cell_length_a   6.79899718
_cell_length_b   11.39673308
_cell_length_c   8.99317328
_cell_angle_alpha   60.85655159
_cell_angle_beta   67.98859986
_cell_angle_gamma   90.14323971
_symmetry_Int_Tables_number   1
_chemical_formula_structural   K2Zr3(SbSe5)2
_chemical_formula_sum   'K2 Zr3 Sb2 Se10'
_cell_volume   549.33827903
_cell_formula_units_Z   1
loop_
 _symmetry_equiv_pos_site_id
 _symmetry_equiv_pos_as_xyz
  1  'x, y, z'
loop_
 _atom_site_type_symbol
 _atom_site_label
 _atom_site_symmetry_multiplicity
 _atom_site_fract_x
 _atom_site_fract_y
 _atom_site_fract_z
 _atom_site_occupancy
  K  K0  1  0.78188962  0.07221211  0.42793031  1
  K  K1  1  0.00797391  0.52293409  0.97858034  1
  Zr  Zr0  1  0.40301999  0.80121416  0.19772023  1
  Zr  Zr1  1  0.59722667  0.19997987  0.80614203  1
  Zr  Zr2  1  0.00080476  0.00011020  0.99667618  1
  Sb  Sb0  1  0.79883193  0.60141095  0.40568061  1
  Sb  Sb1  1  0.20171318  0.40150172  0.58867483  1
  Se  Se0  1  0.00248226  0.84531298  0.34254166  1
  Se  Se1  1  0.59634459  0.03676600  0.15164863  1
  Se  Se2  1  0.18772933  0.22911850  0.96168465  1
  Se  Se3  1  0.77203793  0.42679431  0.76958497  1
  Se  Se4  1  0.38282470  0.65015385  0.54221858  1
  Se  Se5  1  0.40414186  0.96372710  0.85126895  1
  Se  Se6  1  0.99781888  0.15288977  0.65665761  1
  Se  Se7  1  0.62236416  0.34795778  0.45660139  1
  Se  Se8  1  0.23286241  0.57566324  0.22749809  1
  Se  Se9  1  0.80993383  0.77225138  0.03889195  1
loop_
_geom_bond_atom_site_label_1
_geom_bond_atom_site_label_2
_geom_bond_distance
_geom_bond_site_symmetry_2
K0 Se0 3.258258 1_645
K0 Se5 3.269457 1_545
K0 Se1 3.354504 1_555
K0 Se6 3.366146 1_555
K0 Se7 3.422783 1_555
K0 Se2 3.520324 1_654
K1 Se4 3.307619 1_555
K1 Se9 3.339690 1_456
K1 Se3 3.400500 1_455
K1 Se8 3.403161 1_556
K1 Se7 3.536489 1_456
K1 Se2 3.620261 1_555
Sb0 Se0 2.796489 1_655
Sb0 Se4 2.808073 1_555
Sb0 Se3 2.812770 1_555
Sb0 Se9 2.869586 1_555
Sb0 Se7 2.876688 1_555
Sb0 Se8 2.877476 1_655
Sb1 Se8 2.781670 1_555
Sb1 Se6 2.825127 1_455
Sb1 Se7 2.851513 1_555
Sb1 Se3 2.857045 1_455
Sb1 Se4 2.857474 1_555
Sb1 Se2 2.909070 1_555
Se0 Zr0 2.711226 1_555
Se0 Zr2 2.732994 1_564
Se1 Zr2 2.716431 1_654
Se1 Zr1 2.733364 1_554
Se1 Zr0 2.756227 1_545
Se2 Zr1 2.712263 1_555
Se2 Zr2 2.722079 1_555
Se3 Zr1 2.658318 1_555
Se4 Zr0 2.658212 1_555
Se5 Zr2 2.692189 1_565
Se5 Zr0 2.738522 1_556
Se5 Zr1 2.767017 1_565
Se6 Zr2 2.691365 1_655
Se6 Zr1 2.734747 1_555
Se7 Zr1 2.680890 1_555
Se8 Zr0 2.664628 1_555
Se9 Zr2 2.688015 1_664
Se9 Zr0 2.702764 1_555
