# generated using pymatgen
data_NbBMoC
_symmetry_space_group_name_H-M   'P 1'
_cell_length_a   8.94810218
_cell_length_b   8.94810206
_cell_length_c   3.13572096
_cell_angle_alpha   90.00000000
_cell_angle_beta   90.00000000
_cell_angle_gamma   159.66662676
_symmetry_Int_Tables_number   1
_chemical_formula_structural   NbBMoC
_chemical_formula_sum   'Nb2 B2 Mo2 C2'
_cell_volume   87.24317139
_cell_formula_units_Z   2
loop_
 _symmetry_equiv_pos_site_id
 _symmetry_equiv_pos_as_xyz
  1  'x, y, z'
loop_
 _atom_site_type_symbol
 _atom_site_label
 _atom_site_symmetry_multiplicity
 _atom_site_fract_x
 _atom_site_fract_y
 _atom_site_fract_z
 _atom_site_occupancy
  Nb  Nb0  1  0.31624660  0.68375440  0.25000000  1
  Nb  Nb1  1  0.68375440  0.31624560  0.75000000  1
  B  B0  1  0.52940110  0.47059890  0.75000000  1
  B  B1  1  0.47059890  0.52940110  0.25000000  1
  Mo  Mo0  1  0.06870351  0.93129649  0.25000000  1
  Mo  Mo1  1  0.93129649  0.06870351  0.75000000  1
  C  C0  1  0.81052443  0.18947557  0.75000000  1
  C  C1  1  0.18947557  0.81052443  0.25000000  1
loop_
_geom_bond_atom_site_label_1
_geom_bond_atom_site_label_2
_geom_bond_distance
_geom_bond_site_symmetry_2
B0 B1 1.879121 1_556
B0 B1 1.879121 1_555
B0 Mo0 2.330700 1_545
B0 Mo0 2.330700 1_546
B0 Mo0 2.330700 1_656
B0 Mo0 2.330700 1_655
B0 Mo1 2.341177 1_565
B0 Mo1 2.341177 1_455
B0 Nb1 2.718965 1_555
B1 Mo1 2.330700 1_564
B1 Mo1 2.330700 1_565
B1 Mo1 2.330700 1_455
B1 Mo1 2.330700 1_454
B1 Mo0 2.341177 1_545
B1 Mo0 2.341177 1_655
B1 Nb0 2.718956 1_555
C0 Mo1 2.127425 1_555
C0 Nb0 2.227781 1_546
C0 Nb0 2.227781 1_545
C0 Nb0 2.227783 1_655
C0 Nb0 2.227783 1_656
C0 Nb1 2.233080 1_555
C1 Mo0 2.127425 1_555
C1 Nb1 2.227782 1_565
C1 Nb1 2.227782 1_564
C1 Nb1 2.227782 1_455
C1 Nb1 2.227782 1_454
C1 Nb0 2.233089 1_555
