# generated using pymatgen
data_Ta3P6RhO24
_symmetry_space_group_name_H-M   'P 1'
_cell_length_a   8.55622757
_cell_length_b   8.90358688
_cell_length_c   8.55634790
_cell_angle_alpha   89.99871867
_cell_angle_beta   60.00086941
_cell_angle_gamma   118.71787204
_symmetry_Int_Tables_number   1
_chemical_formula_structural   Ta3P6RhO24
_chemical_formula_sum   'Ta3 P6 Rh1 O24'
_cell_volume   469.64717551
_cell_formula_units_Z   1
loop_
 _symmetry_equiv_pos_site_id
 _symmetry_equiv_pos_as_xyz
  1  'x, y, z'
loop_
 _atom_site_type_symbol
 _atom_site_label
 _atom_site_symmetry_multiplicity
 _atom_site_fract_x
 _atom_site_fract_y
 _atom_site_fract_z
 _atom_site_occupancy
  Ta  Ta0  1  0.28629489  0.92936332  0.35682036  1
  Ta  Ta1  1  0.27924640  0.41877542  0.86034331  1
  Ta  Ta2  1  0.71497804  0.57236291  0.14247965  1
  P  P0  1  0.77916726  0.75574940  0.75339658  1
  P  P1  1  0.50491818  0.24586825  0.53400516  1
  P  P2  1  0.50927566  0.75575210  0.46735611  1
  P  P3  1  0.20701726  0.24588047  0.25892047  1
  P  P4  1  0.77998314  0.24586246  0.96102339  1
  P  P5  1  0.22326475  0.75575353  0.02328907  1
  Rh  Rh0  1  0.70924513  0.06376498  0.64533800  1
  O  O0  1  0.68140097  0.91246778  0.47510103  1
  O  O1  1  0.00141509  0.72069261  0.09314420  1
  O  O2  1  0.21206089  0.58103978  0.99838873  1
  O  O3  1  0.25100945  0.78841798  0.18750686  1
  O  O4  1  0.99217721  0.26966650  0.91101167  1
  O  O5  1  0.79417933  0.41719532  0.00609692  1
  O  O6  1  0.74717547  0.22727929  0.80498080  1
  O  O7  1  0.81398860  0.72072792  0.90539221  1
  O  O8  1  0.97603515  0.78841620  0.56142528  1
  O  O9  1  0.67521370  0.22729362  0.51975633  1
  O  O10  1  0.75596628  0.91243164  0.76884308  1
  O  O11  1  0.57957185  0.58100754  0.78950577  1
  O  O12  1  0.59702365  0.08687386  0.14737674  1
  O  O13  1  0.61697299  0.41720544  0.37686413  1
  O  O14  1  0.18080097  0.26966657  0.09673987  1
  O  O15  1  0.36652324  0.26964563  0.72240671  1
  O  O16  1  0.62622802  0.72071524  0.28056299  1
  O  O17  1  0.34252942  0.08686382  0.51005413  1
  O  O18  1  0.38768441  0.91245717  0.84341247  1
  O  O19  1  0.37070031  0.58102929  0.63084994  1
  O  O20  1  0.23434340  0.08687898  0.25555065  1
  O  O21  1  0.42342322  0.41721079  0.19965347  1
  O  O22  1  0.34993176  0.78839385  0.46249059  1
  O  O23  1  0.03238491  0.22729231  0.44778334  1
loop_
_geom_bond_atom_site_label_1
_geom_bond_atom_site_label_2
_geom_bond_distance
_geom_bond_site_symmetry_2
O0 P2 1.497699 1_555
O0 Rh0 2.007933 1_565
O1 P5 1.534231 1_555
O1 Ta2 1.945211 1_455
O2 P5 1.533474 1_556
O2 Ta1 1.982947 1_555
O3 P5 1.543527 1_555
O3 Ta0 1.959100 1_555
O4 P4 1.541972 1_555
O4 Ta1 1.945503 1_655
O5 P4 1.536026 1_554
O5 Ta2 1.959249 1_555
O6 P4 1.489621 1_555
O6 Rh0 2.019911 1_555
O7 P0 1.534307 1_555
O7 Ta2 1.945211 1_556
O8 P0 1.543506 1_555
O8 Ta0 1.959087 1_655
O9 P1 1.489716 1_555
O9 Rh0 2.019780 1_555
O10 P0 1.497631 1_555
O10 Rh0 2.007994 1_565
O11 P0 1.533479 1_555
O11 Ta1 1.983046 1_555
O12 P4 1.539868 1_554
O12 Ta0 1.974631 1_545
O13 P1 1.536073 1_555
O13 Ta2 1.959212 1_555
O14 P3 1.541982 1_555
O14 Ta1 1.945465 1_554
O15 P1 1.541995 1_555
O15 Ta1 1.945568 1_555
O16 P2 1.534219 1_555
O16 Ta2 1.945264 1_555
O17 P1 1.539869 1_555
O17 Ta0 1.974729 1_545
O18 P5 1.497684 1_556
O18 Rh0 2.008034 1_565
O19 P2 1.533487 1_555
O19 Ta1 1.982967 1_555
O20 P3 1.539807 1_555
O20 Ta0 1.974709 1_545
O21 P3 1.535999 1_555
O21 Ta2 1.959251 1_555
O22 P2 1.543551 1_555
O22 Ta0 1.959161 1_555
O23 P3 1.489701 1_555
O23 Rh0 2.019771 1_455
