# generated using pymatgen
data_ZnNi20(SnB3)2
_symmetry_space_group_name_H-M   'P 1'
_cell_length_a   7.43291386
_cell_length_b   7.43291321
_cell_length_c   7.43291375
_cell_angle_alpha   60.00000194
_cell_angle_beta   60.00000485
_cell_angle_gamma   60.00000283
_symmetry_Int_Tables_number   1
_chemical_formula_structural   ZnNi20(SnB3)2
_chemical_formula_sum   'Zn1 Ni20 Sn2 B6'
_cell_volume   290.37704977
_cell_formula_units_Z   1
loop_
 _symmetry_equiv_pos_site_id
 _symmetry_equiv_pos_as_xyz
  1  'x, y, z'
loop_
 _atom_site_type_symbol
 _atom_site_label
 _atom_site_symmetry_multiplicity
 _atom_site_fract_x
 _atom_site_fract_y
 _atom_site_fract_z
 _atom_site_occupancy
  Zn  Zn0  1  0.00000000  0.00000000  0.00000000  1
  Ni  Ni0  1  0.00000000  0.00000000  0.66272111  1
  Ni  Ni1  1  0.38530345  0.84409066  0.38530345  1
  Ni  Ni2  1  0.66272111  0.33727889  0.00000000  1
  Ni  Ni3  1  0.00000000  0.33727889  0.66272111  1
  Ni  Ni4  1  0.66272111  0.00000000  0.00000000  1
  Ni  Ni5  1  1.00000000  1.00000000  0.33727889  1
  Ni  Ni6  1  0.66272111  0.00000000  0.33727889  1
  Ni  Ni7  1  1.00000000  0.33727889  0.00000000  1
  Ni  Ni8  1  1.00000000  0.66272111  0.33727889  1
  Ni  Ni9  1  0.33727889  1.00000000  1.00000000  1
  Ni  Ni10  1  0.00000000  0.66272111  1.00000000  1
  Ni  Ni11  1  0.33727889  1.00000000  0.66272111  1
  Ni  Ni12  1  0.38530345  0.38530345  0.38530345  1
  Ni  Ni13  1  0.33727889  0.66272111  1.00000000  1
  Ni  Ni14  1  0.61469655  0.15590934  0.61469655  1
  Ni  Ni15  1  0.38530345  0.38530345  0.84409066  1
  Ni  Ni16  1  0.84409066  0.38530345  0.38530345  1
  Ni  Ni17  1  0.61469655  0.61469655  0.61469655  1
  Ni  Ni18  1  0.15590934  0.61469655  0.61469655  1
  Ni  Ni19  1  0.61469655  0.61469655  0.15590934  1
  Sn  Sn0  1  0.25000000  0.25000000  0.25000000  1
  Sn  Sn1  1  0.75000000  0.75000000  0.75000000  1
  B  B0  1  0.72680170  0.72680170  0.27319830  1
  B  B1  1  0.72680170  0.27319830  0.72680170  1
  B  B2  1  0.27319830  0.72680170  0.27319830  1
  B  B3  1  0.72680170  0.27319830  0.27319830  1
  B  B4  1  0.27319830  0.72680170  0.72680170  1
  B  B5  1  0.27319830  0.27319830  0.72680170  1
loop_
_geom_bond_atom_site_label_1
_geom_bond_atom_site_label_2
_geom_bond_distance
_geom_bond_site_symmetry_2
Ni0 Zn0 2.506965 1_556
Ni1 Sn0 2.463443 1_565
Ni2 Zn0 2.506965 1_655
Ni3 Zn0 2.506965 1_556
Ni4 Zn0 2.506965 1_655
Ni5 Zn0 2.506965 1_665
Ni6 Zn0 2.506965 1_655
Ni7 Zn0 2.506965 1_655
Ni8 Zn0 2.506965 1_665
Ni9 Zn0 2.506965 1_566
Ni10 Zn0 2.506965 1_566
Ni11 Zn0 2.506965 1_566
Ni12 Sn0 2.463449 1_555
Ni13 Zn0 2.506965 1_566
Ni14 Sn1 2.463443 1_545
Ni15 Sn0 2.463443 1_556
Ni16 Sn0 2.463443 1_655
Ni17 Sn1 2.463449 1_555
Ni18 Sn1 2.463443 1_455
Ni19 Sn1 2.463443 1_554
B0 Ni16 2.072655 1_555
B0 Ni17 2.072655 1_555
B0 Ni1 2.072655 1_555
B0 Ni19 2.072661 1_555
B0 Ni6 2.085772 1_565
B0 Ni4 2.085772 1_565
B0 Ni8 2.085772 1_555
B0 Ni10 2.085772 1_654
B1 Ni17 2.072655 1_555
B1 Ni16 2.072655 1_555
B1 Ni15 2.072655 1_555
B1 Ni14 2.072661 1_555
B1 Ni4 2.085772 1_556
B1 Ni2 2.085772 1_556
B1 Ni3 2.085772 1_655
B1 Ni0 2.085772 1_655
B2 Ni12 2.072655 1_555
B2 Ni18 2.072655 1_555
B2 Ni19 2.072655 1_555
B2 Ni1 2.072661 1_555
B2 Ni9 2.085772 1_554
B2 Ni13 2.085772 1_554
B2 Ni8 2.085772 1_455
B2 Ni5 2.085772 1_455
B3 Ni19 2.072655 1_555
B3 Ni12 2.072655 1_555
B3 Ni14 2.072655 1_555
B3 Ni16 2.072661 1_555
B3 Ni6 2.085772 1_555
B3 Ni2 2.085772 1_555
B3 Ni5 2.085772 1_545
B3 Ni7 2.085772 1_555
B4 Ni15 2.072655 1_555
B4 Ni17 2.072655 1_555
B4 Ni1 2.072655 1_555
B4 Ni18 2.072661 1_555
B4 Ni11 2.085772 1_555
B4 Ni13 2.085772 1_555
B4 Ni0 2.085772 1_565
B4 Ni10 2.085772 1_555
B5 Ni18 2.072655 1_555
B5 Ni12 2.072655 1_555
B5 Ni14 2.072655 1_555
B5 Ni15 2.072661 1_555
B5 Ni11 2.085772 1_545
B5 Ni9 2.085772 1_545
B5 Ni3 2.085772 1_555
B5 Ni7 2.085772 1_456
