# generated using pymatgen
data_Rb4RhWBr12
_symmetry_space_group_name_H-M   'P 1'
_cell_length_a   7.52986026
_cell_length_b   7.52986026
_cell_length_c   10.25054551
_cell_angle_alpha   90.00000000
_cell_angle_beta   90.00000000
_cell_angle_gamma   90.00000000
_symmetry_Int_Tables_number   1
_chemical_formula_structural   Rb4RhWBr12
_chemical_formula_sum   'Rb4 Rh1 W1 Br12'
_cell_volume   581.19358418
_cell_formula_units_Z   1
loop_
 _symmetry_equiv_pos_site_id
 _symmetry_equiv_pos_as_xyz
  1  'x, y, z'
loop_
 _atom_site_type_symbol
 _atom_site_label
 _atom_site_symmetry_multiplicity
 _atom_site_fract_x
 _atom_site_fract_y
 _atom_site_fract_z
 _atom_site_occupancy
  Rb  Rb0  1  0.50000000  0.00000000  0.76954833  1
  Rb  Rb1  1  0.00000000  0.50000000  0.23045167  1
  Rb  Rb2  1  0.50000000  0.00000000  0.23045167  1
  Rb  Rb3  1  0.00000000  0.50000000  0.76954833  1
  Rh  Rh0  1  0.00000000  0.00000000  0.00000000  1
  W  W0  1  0.50000000  0.50000000  0.50000000  1
  Br  Br0  1  0.00000000  0.00000000  0.75616003  1
  Br  Br1  1  0.50000000  0.50000000  0.25758906  1
  Br  Br2  1  0.73637697  0.73637697  0.50000000  1
  Br  Br3  1  0.23550798  0.23550798  0.00000000  1
  Br  Br4  1  0.73637697  0.26362303  0.50000000  1
  Br  Br5  1  0.23550798  0.76449202  0.00000000  1
  Br  Br6  1  0.00000000  0.00000000  0.24383997  1
  Br  Br7  1  0.50000000  0.50000000  0.74241094  1
  Br  Br8  1  0.26362303  0.26362303  0.50000000  1
  Br  Br9  1  0.76449202  0.76449202  0.00000000  1
  Br  Br10  1  0.26362303  0.73637697  0.50000000  1
  Br  Br11  1  0.76449202  0.23550798  0.00000000  1
loop_
_geom_bond_atom_site_label_1
_geom_bond_atom_site_label_2
_geom_bond_distance
_geom_bond_site_symmetry_2
Br0 Rh0 2.499493 1_556
Br0 Rb3 3.767431 1_545
Br0 Rb3 3.767431 1_555
Br0 Rb0 3.767431 1_455
Br0 Rb0 3.767431 1_555
Br1 W0 2.484844 1_555
Br1 Rb1 3.775193 1_555
Br1 Rb2 3.775193 1_555
Br1 Rb2 3.775193 1_565
Br1 Rb1 3.775193 1_655
Br2 W0 2.517138 1_555
Br2 Rb0 3.839617 1_565
Br2 Rb3 3.839617 1_655
Br2 Rb1 3.839617 1_655
Br2 Rb2 3.839617 1_565
Br3 Rh0 2.507885 1_555
Br3 Rb2 3.562501 1_555
Br3 Rb1 3.562501 1_555
Br3 Rb0 3.562501 1_554
Br3 Rb3 3.562501 1_554
Br4 W0 2.517138 1_555
Br4 Rb3 3.839617 1_655
Br4 Rb0 3.839617 1_555
Br4 Rb1 3.839617 1_655
Br4 Rb2 3.839617 1_555
Br5 Rh0 2.507885 1_565
Br5 Rb2 3.562501 1_565
Br5 Rb1 3.562501 1_555
Br5 Rb0 3.562501 1_564
Br5 Rb3 3.562501 1_554
Br6 Rh0 2.499493 1_555
Br6 Rb2 3.767431 1_455
Br6 Rb1 3.767431 1_545
Br6 Rb1 3.767431 1_555
Br6 Rb2 3.767431 1_555
Br7 W0 2.484844 1_555
Br7 Rb3 3.775193 1_555
Br7 Rb0 3.775193 1_565
Br7 Rb3 3.775193 1_655
Br7 Rb0 3.775193 1_555
Br8 W0 2.517138 1_555
Br8 Rb3 3.839617 1_555
Br8 Rb0 3.839617 1_555
Br8 Rb1 3.839617 1_555
Br8 Rb2 3.839617 1_555
Br9 Rh0 2.507885 1_665
Br9 Rb1 3.562501 1_655
Br9 Rb2 3.562501 1_565
Br9 Rb3 3.562501 1_654
Br9 Rb0 3.562501 1_564
Br10 W0 2.517138 1_555
Br10 Rb0 3.839617 1_565
Br10 Rb3 3.839617 1_555
Br10 Rb2 3.839617 1_565
Br10 Rb1 3.839617 1_555
Br11 Rh0 2.507885 1_655
Br11 Rb1 3.562501 1_655
Br11 Rb2 3.562501 1_555
Br11 Rb3 3.562501 1_654
Br11 Rb0 3.562501 1_554
