# generated using pymatgen
data_CsReP2Pt
_symmetry_space_group_name_H-M   'P 1'
_cell_length_a   7.78739560
_cell_length_b   7.78739515
_cell_length_c   7.78739583
_cell_angle_alpha   150.08584036
_cell_angle_beta   150.08583526
_cell_angle_gamma   42.81541619
_symmetry_Int_Tables_number   1
_chemical_formula_structural   CsReP2Pt
_chemical_formula_sum   'Cs1 Re1 P2 Pt1'
_cell_volume   117.15210713
_cell_formula_units_Z   1
loop_
 _symmetry_equiv_pos_site_id
 _symmetry_equiv_pos_as_xyz
  1  'x, y, z'
loop_
 _atom_site_type_symbol
 _atom_site_label
 _atom_site_symmetry_multiplicity
 _atom_site_fract_x
 _atom_site_fract_y
 _atom_site_fract_z
 _atom_site_occupancy
  Cs  Cs0  1  0.00000000  0.00000000  0.00000000  1
  Re  Re0  1  0.25000000  0.75000000  0.50000000  1
  P  P0  1  0.33695221  0.33695221  1.00000000  1
  P  P1  1  0.66304779  0.66304779  0.00000000  1
  Pt  Pt0  1  0.75000000  0.25000000  0.50000000  1
loop_
_geom_bond_atom_site_label_1
_geom_bond_atom_site_label_2
_geom_bond_distance
_geom_bond_site_symmetry_2
Cs0 P1 3.697149 1_455
Cs0 P0 3.697149 1_544
Cs0 P1 3.697149 1_556
Cs0 P0 3.697149 1_443
Cs0 P1 3.697150 1_545
Cs0 P0 3.697150 1_454
Cs0 P1 3.697150 1_444
Cs0 P0 3.697150 1_555
P0 Re0 2.372624 1_545
P0 Re0 2.372625 1_556
P0 Pt0 2.372625 1_455
P0 Pt0 2.372625 1_556
P1 Pt0 2.372624 1_565
P1 Pt0 2.372625 1_554
P1 Re0 2.372625 1_655
P1 Re0 2.372625 1_554
Pt0 Re0 2.842415 1_645
Pt0 Re0 2.842415 1_555
Pt0 Re0 2.842415 1_544
Pt0 Re0 2.842415 1_656
