# generated using pymatgen
data_Hg4PdRu3O14
_symmetry_space_group_name_H-M   'P 1'
_cell_length_a   7.23487356
_cell_length_b   7.19926851
_cell_length_c   7.23487328
_cell_angle_alpha   59.83626526
_cell_angle_beta   60.00000129
_cell_angle_gamma   59.83626229
_symmetry_Int_Tables_number   1
_chemical_formula_structural   Hg4PdRu3O14
_chemical_formula_sum   'Hg4 Pd1 Ru3 O14'
_cell_volume   265.80061644
_cell_formula_units_Z   1
loop_
 _symmetry_equiv_pos_site_id
 _symmetry_equiv_pos_as_xyz
  1  'x, y, z'
loop_
 _atom_site_type_symbol
 _atom_site_label
 _atom_site_symmetry_multiplicity
 _atom_site_fract_x
 _atom_site_fract_y
 _atom_site_fract_z
 _atom_site_occupancy
  Hg  Hg0  1  0.12500000  0.62500000  0.12500000  1
  Hg  Hg1  1  0.12500000  0.12500000  0.62500000  1
  Hg  Hg2  1  0.62500000  0.12500000  0.12500000  1
  Hg  Hg3  1  0.12500000  0.12500000  0.12500000  1
  Pd  Pd0  1  0.62500000  0.12500000  0.62500000  1
  Ru  Ru0  1  0.62500000  0.62500000  0.12500000  1
  Ru  Ru1  1  0.12500000  0.62500000  0.62500000  1
  Ru  Ru2  1  0.62500000  0.62500000  0.62500000  1
  O  O0  1  0.69513643  0.67350181  0.31568088  1
  O  O1  1  0.93431912  0.57649819  0.55486357  1
  O  O2  1  0.54671102  0.94680958  0.95976939  1
  O  O3  1  0.95976939  0.94680958  0.54671102  1
  O  O4  1  0.93431912  0.57649819  0.93431912  1
  O  O5  1  0.54671102  0.94680958  0.54671102  1
  O  O6  1  0.31568088  0.67350181  0.31568088  1
  O  O7  1  0.31568088  0.67350181  0.69513643  1
  O  O8  1  0.70328898  0.30319042  0.29023061  1
  O  O9  1  0.70328898  0.30319042  0.70328898  1
  O  O10  1  0.55486357  0.57649819  0.93431912  1
  O  O11  1  0.29023061  0.30319042  0.70328898  1
  O  O12  1  0.24659602  0.26021194  0.24659602  1
  O  O13  1  0.00340398  0.98978806  0.00340398  1
loop_
_geom_bond_atom_site_label_1
_geom_bond_atom_site_label_2
_geom_bond_distance
_geom_bond_site_symmetry_2
Hg0 O13 2.138967 1_555
Hg0 O12 2.138967 1_555
Hg0 O1 2.607604 1_455
Hg0 O7 2.607604 1_554
Hg0 O6 2.607604 1_555
Hg0 O4 2.607604 1_454
Hg0 O10 2.607604 1_554
Hg0 O0 2.607604 1_455
Hg1 O13 2.233948 1_546
Hg1 O12 2.233948 1_555
Hg1 O11 2.518723 1_555
Hg1 O3 2.518723 1_445
Hg1 O5 2.518729 1_545
Hg1 O9 2.518729 1_455
Hg2 O13 2.233948 1_645
Hg2 O12 2.233948 1_555
Hg2 O8 2.518723 1_555
Hg2 O2 2.518723 1_544
Hg2 O5 2.518729 1_545
Hg2 O9 2.518729 1_554
Hg3 O12 2.233948 1_555
Hg3 O13 2.233948 1_545
Hg3 O2 2.518728 1_544
Hg3 O8 2.518728 1_455
Hg3 O3 2.518728 1_445
Hg3 O11 2.518728 1_554
O0 Ru2 1.909122 1_555
O0 Ru0 1.909122 1_555
O1 Ru1 1.909122 1_655
O1 Ru2 1.909122 1_555
O2 Ru0 1.921587 1_556
O2 Pd0 2.017073 1_565
O3 Ru1 1.921587 1_655
O3 Pd0 2.017073 1_565
O4 Ru1 1.909122 1_655
O4 Ru0 1.909122 1_556
O5 Ru2 1.921588 1_555
O5 Pd0 2.017067 1_565
O6 Ru1 1.909122 1_555
O6 Ru0 1.909122 1_555
O7 Ru1 1.909122 1_555
O7 Ru2 1.909122 1_555
O8 Ru0 1.921587 1_555
O8 Pd0 2.017073 1_555
O9 Ru2 1.921588 1_555
O9 Pd0 2.017067 1_555
O10 Ru2 1.909122 1_555
O10 Ru0 1.909122 1_556
O11 Ru1 1.921587 1_555
O11 Pd0 2.017073 1_555
