# generated using pymatgen
data_Ba6YCd(BO3)6
_symmetry_space_group_name_H-M   'P 1'
_cell_length_a   8.11204161
_cell_length_b   8.11204136
_cell_length_c   8.11204253
_cell_angle_alpha   105.55390174
_cell_angle_beta   105.55390012
_cell_angle_gamma   105.55390455
_symmetry_Int_Tables_number   1
_chemical_formula_structural   Ba6YCd(BO3)6
_chemical_formula_sum   'Ba6 Y1 Cd1 B6 O18'
_cell_volume   460.98076176
_cell_formula_units_Z   1
loop_
 _symmetry_equiv_pos_site_id
 _symmetry_equiv_pos_as_xyz
  1  'x, y, z'
loop_
 _atom_site_type_symbol
 _atom_site_label
 _atom_site_symmetry_multiplicity
 _atom_site_fract_x
 _atom_site_fract_y
 _atom_site_fract_z
 _atom_site_occupancy
  Ba  Ba0  1  0.65024663  0.26856123  0.16651240  1
  Ba  Ba1  1  0.16651240  0.65024663  0.26856023  1
  Ba  Ba2  1  0.73143877  0.83348760  0.34975337  1
  Ba  Ba3  1  0.26856123  0.16651240  0.65024663  1
  Ba  Ba4  1  0.83348760  0.34975337  0.73143877  1
  Ba  Ba5  1  0.34975337  0.73143877  0.83348760  1
  Y  Y0  1  0.00000000  0.00000000  0.00000000  1
  Cd  Cd0  1  0.50000000  0.50000000  0.50000000  1
  B  B0  1  0.29327203  0.37194202  0.04311098  1
  B  B1  1  0.37194202  0.04311198  0.29327203  1
  B  B2  1  0.04311198  0.29327203  0.37194202  1
  B  B3  1  0.95688802  0.70672797  0.62805798  1
  B  B4  1  0.62805798  0.95688802  0.70672797  1
  B  B5  1  0.70672797  0.62805798  0.95688802  1
  O  O0  1  0.73589110  0.81431135  0.00765840  1
  O  O1  1  0.80677255  0.56436339  0.07259081  1
  O  O2  1  0.99234160  0.26410890  0.18568865  1
  O  O3  1  0.43563561  0.92740819  0.19322745  1
  O  O4  1  0.43174258  0.49758029  0.20618063  1
  O  O5  1  0.18568865  0.99234160  0.26410890  1
  O  O6  1  0.49758029  0.20618063  0.43174158  1
  O  O7  1  0.92740819  0.19322845  0.43563561  1
  O  O8  1  0.20618063  0.43174258  0.49758029  1
  O  O9  1  0.79381937  0.56825742  0.50241971  1
  O  O10  1  0.07259181  0.80677155  0.56436439  1
  O  O11  1  0.50241971  0.79381937  0.56825842  1
  O  O12  1  0.81431135  0.00765840  0.73589110  1
  O  O13  1  0.56825742  0.50241971  0.79381937  1
  O  O14  1  0.56436439  0.07259181  0.80677255  1
  O  O15  1  0.00765840  0.73589110  0.81431135  1
  O  O16  1  0.19322745  0.43563661  0.92740919  1
  O  O17  1  0.26410890  0.18568865  0.99234160  1
loop_
_geom_bond_atom_site_label_1
_geom_bond_atom_site_label_2
_geom_bond_distance
_geom_bond_site_symmetry_2
Ba0 O14 2.712268 1_554
Ba0 O2 2.748067 1_555
Ba0 O1 2.795694 1_555
Ba0 O9 2.814037 1_555
Ba0 O6 2.845301 1_555
Ba0 O17 2.871891 1_554
Ba0 O4 2.906562 1_555
Ba0 O3 2.945630 1_545
Ba0 O7 3.002428 1_555
Ba1 O1 2.712266 1_455
Ba1 O5 2.748065 1_555
Ba1 O10 2.795700 1_555
Ba1 O11 2.814045 1_555
Ba1 O4 2.845306 1_555
Ba1 O2 2.871892 1_455
Ba1 O8 2.906568 1_555
Ba1 O16 2.945615 1_554
Ba1 O3 3.002427 1_555
Ba2 O7 2.712274 1_565
Ba2 O0 2.748068 1_555
Ba2 O3 2.795696 1_555
Ba2 O4 2.814037 1_555
Ba2 O9 2.845308 1_555
Ba2 O12 2.871891 1_565
Ba2 O11 2.906568 1_555
Ba2 O10 2.945634 1_655
Ba2 O1 3.002442 1_555
Ba3 O10 2.712274 1_545
Ba3 O17 2.748068 1_555
Ba3 O14 2.795696 1_555
Ba3 O13 2.814037 1_555
Ba3 O8 2.845308 1_555
Ba3 O5 2.871891 1_545
Ba3 O6 2.906568 1_555
Ba3 O7 2.945634 1_455
Ba3 O16 3.002442 1_555
Ba4 O16 2.712268 1_655
Ba4 O12 2.748067 1_555
Ba4 O7 2.795694 1_555
Ba4 O6 2.814041 1_555
Ba4 O13 2.845308 1_555
Ba4 O15 2.871891 1_655
Ba4 O9 2.906562 1_555
Ba4 O1 2.945621 1_556
Ba4 O14 3.002432 1_555
Ba5 O3 2.712268 1_556
Ba5 O15 2.748067 1_555
Ba5 O16 2.795694 1_555
Ba5 O8 2.814037 1_555
Ba5 O11 2.845301 1_555
Ba5 O0 2.871891 1_556
Ba5 O13 2.906562 1_555
Ba5 O14 2.945630 1_565
Ba5 O10 3.002428 1_555
Cd0 O6 2.291123 1_555
Cd0 O11 2.291123 1_555
Cd0 O9 2.291123 1_555
Cd0 O8 2.291123 1_555
Cd0 O13 2.291123 1_555
Cd0 O4 2.291123 1_555
B0 O16 1.372224 1_554
B0 O4 1.384378 1_555
B0 O17 1.389510 1_554
B1 O3 1.372228 1_545
B1 O6 1.384370 1_555
B1 O5 1.389510 1_545
B2 O7 1.372224 1_455
B2 O8 1.384373 1_555
B2 O2 1.389510 1_455
B3 O10 1.372224 1_655
B3 O9 1.384373 1_555
B3 O15 1.389510 1_655
B4 O14 1.372228 1_565
B4 O11 1.384370 1_555
B4 O12 1.389510 1_565
B5 O1 1.372229 1_556
B5 O13 1.384373 1_555
B5 O0 1.389509 1_556
O0 Y0 2.292123 1_665
O2 Y0 2.292123 1_655
O5 Y0 2.292123 1_565
O12 Y0 2.292123 1_656
O15 Y0 2.292123 1_566
O17 Y0 2.292123 1_556
