# generated using pymatgen
data_Ti8Be(Al2Co)7
_symmetry_space_group_name_H-M   'P 1'
_cell_length_a   8.32026506
_cell_length_b   8.32026699
_cell_length_c   8.32027075
_cell_angle_alpha   120.15024643
_cell_angle_beta   119.87564079
_cell_angle_gamma   89.97788740
_symmetry_Int_Tables_number   1
_chemical_formula_structural   Ti8Be(Al2Co)7
_chemical_formula_sum   'Ti8 Be1 Al14 Co7'
_cell_volume   407.20042677
_cell_formula_units_Z   1
loop_
 _symmetry_equiv_pos_site_id
 _symmetry_equiv_pos_as_xyz
  1  'x, y, z'
loop_
 _atom_site_type_symbol
 _atom_site_label
 _atom_site_symmetry_multiplicity
 _atom_site_fract_x
 _atom_site_fract_y
 _atom_site_fract_z
 _atom_site_occupancy
  Ti  Ti0  1  0.80091865  0.29758349  0.09191988  1
  Ti  Ti1  1  0.20567309  0.29758397  0.49665805  1
  Ti  Ti2  1  0.19930820  0.69931281  0.50000447  1
  Ti  Ti3  1  0.20567151  0.70901839  0.90808990  1
  Ti  Ti4  1  0.80092898  0.70900873  0.50333870  1
  Ti  Ti5  1  0.79138838  0.29139174  0.49998795  1
  Ti  Ti6  1  0.38018542  0.11998376  0.73979759  1
  Ti  Ti7  1  0.38018606  0.64038605  0.26020330  1
  Be  Be0  1  0.99405584  0.49405198  0.50003835  1
  Al  Al0  1  0.15963212  0.33801022  0.17836378  1
  Al  Al1  1  0.15964063  0.98128323  0.82163463  1
  Al  Al2  1  0.15493383  0.34194755  0.81298191  1
  Al  Al3  1  0.52895518  0.34195210  0.18700883  1
  Al  Al4  1  0.84092068  0.65770880  0.81677703  1
  Al  Al5  1  0.84092665  0.02413333  0.18320851  1
  Al  Al6  1  0.83965516  0.65943926  0.18020486  1
  Al  Al7  1  0.47924590  0.65944938  0.81979619  1
  Al  Al8  1  0.38073448  0.11921534  0.26152458  1
  Al  Al9  1  0.85767871  0.11920769  0.73846871  1
  Al  Al10  1  0.62038453  0.88024106  0.25985213  1
  Al  Al11  1  0.62038358  0.36052659  0.74013621  1
  Al  Al12  1  0.62132007  0.87979993  0.74151527  1
  Al  Al13  1  0.13829245  0.87979862  0.25848520  1
  Co  Co0  1  0.00378888  0.00076066  0.50286691  1
  Co  Co1  1  0.49789393  0.00076331  0.99697145  1
  Co  Co2  1  0.49744557  0.49743813  0.00000921  1
  Co  Co3  1  0.49789236  0.50092340  0.49712698  1
  Co  Co4  1  0.00379679  0.50093132  0.00303429  1
  Co  Co5  1  0.00012526  0.00012466  0.99999752  1
  Co  Co6  1  0.49802912  0.99802151  0.49999761  1
loop_
_geom_bond_atom_site_label_1
_geom_bond_atom_site_label_2
_geom_bond_distance
_geom_bond_site_symmetry_2
Ti0 Ti6 2.908442 1_554
Ti1 Ti6 2.908475 1_555
Ti2 Ti6 2.914449 1_565
Ti2 Ti7 2.914497 1_555
Ti3 Ti7 2.908510 1_556
Ti4 Ti7 2.908498 1_555
Be0 Ti5 2.384835 1_555
Be0 Ti3 2.402703 1_655
Be0 Ti4 2.402895 1_555
Be0 Ti1 2.402906 1_655
Be0 Ti0 2.403092 1_555
Be0 Ti2 2.415844 1_655
Al0 Co5 2.390983 1_554
Al0 Co4 2.397386 1_555
Al0 Co3 2.397442 1_555
Al0 Ti1 2.675329 1_555
Al0 Ti0 2.675337 1_455
Al0 Al9 2.677963 1_454
Al0 Al8 2.677985 1_555
Al0 Ti7 2.682994 1_555
Al0 Ti2 2.710507 1_555
Al0 Al1 2.961366 1_544
Al0 Al3 3.037477 1_555
Al0 Al2 3.037485 1_554
Al1 Co5 2.390972 1_565
Al1 Co0 2.397379 1_565
Al1 Co1 2.397429 1_565
Al1 Ti4 2.675337 1_455
Al1 Ti3 2.675361 1_555
Al1 Al9 2.677947 1_465
Al1 Al8 2.677952 1_566
Al1 Ti6 2.682973 1_565
Al1 Ti2 2.710501 1_555
Al1 Al3 3.037396 1_566
Al1 Al2 3.037396 1_565
Al2 Co0 2.389540 1_555
Al2 Co4 2.389571 1_556
Al2 Co2 2.403979 1_556
Al2 Ti5 2.676044 1_455
Al2 Al9 2.694000 1_455
Al2 Ti6 2.701569 1_555
Al2 Ti7 2.701597 1_556
Al2 Ti1 2.715193 1_555
Al2 Ti3 2.715238 1_555
Al3 Co3 2.389519 1_555
Al3 Co1 2.389576 1_554
Al3 Co2 2.403845 1_555
Al3 Ti5 2.676001 1_555
Al3 Al8 2.693956 1_555
Al3 Ti7 2.701506 1_555
Al3 Ti6 2.701556 1_554
Al3 Ti0 2.715144 1_555
Al3 Ti4 2.715190 1_555
Al4 Co5 2.413227 1_665
Al4 Co3 2.424145 1_555
Al4 Co4 2.424193 1_656
Al4 Ti5 2.693593 1_555
Al4 Ti4 2.710641 1_555
Al4 Ti3 2.710679 1_655
Al5 Co5 2.413201 1_654
Al5 Co0 2.424180 1_655
Al5 Co1 2.424195 1_554
Al5 Ti5 2.693604 1_555
Al5 Ti0 2.710651 1_555
Al5 Ti1 2.710687 1_655
Al6 Co4 2.414281 1_655
Al6 Co0 2.414347 1_665
Al6 Co2 2.427293 1_555
Al6 Ti0 2.692821 1_555
Al6 Ti4 2.692829 1_555
Al6 Ti2 2.706702 1_655
Al7 Co1 2.414319 1_565
Al7 Co3 2.414337 1_555
Al7 Co2 2.427393 1_556
Al7 Ti1 2.692874 1_555
Al7 Ti3 2.692900 1_555
Al7 Ti2 2.706751 1_555
Al8 Co6 2.446649 1_545
Al8 Co5 2.591671 1_554
Al8 Co3 2.593091 1_555
Al8 Co1 2.593124 1_554
Al8 Ti5 2.838650 1_555
Al8 Ti1 2.841133 1_555
Al8 Ti3 2.841145 1_544
Al9 Co6 2.446527 1_545
Al9 Co5 2.591697 1_655
Al9 Co0 2.593123 1_655
Al9 Co4 2.593198 1_656
Al9 Ti5 2.838730 1_555
Al9 Ti4 2.841181 1_545
Al9 Ti0 2.841256 1_556
Al10 Co6 2.459221 1_555
Al10 Co2 2.597497 1_555
Al10 Co1 2.609594 1_564
Al10 Co0 2.609598 1_665
Al10 Al7 2.668531 1_554
Al10 Al6 2.668613 1_555
Al10 Al5 2.672355 1_565
Al10 Al9 2.815315 1_565
Al10 Al8 2.815365 1_565
Al10 Ti7 2.826919 1_555
Al10 Ti5 2.832765 1_565
Al10 Ti3 2.873335 1_554
Al10 Ti4 2.873396 1_555
Al11 Co6 2.459245 1_545
Al11 Co2 2.597557 1_556
Al11 Co3 2.609617 1_555
Al11 Co4 2.609661 1_656
Al11 Al7 2.668566 1_555
Al11 Al6 2.668579 1_556
Al11 Al4 2.672348 1_555
Al11 Al8 2.815285 1_555
Al11 Al9 2.815305 1_555
Al11 Ti6 2.826906 1_555
Al11 Ti5 2.832784 1_555
Al11 Ti1 2.873330 1_555
Al11 Ti0 2.873448 1_556
Al12 Co6 2.447260 1_555
Al12 Co3 2.570943 1_555
Al12 Co1 2.570987 1_565
Al12 Co5 2.578351 1_665
Al12 Al7 2.674146 1_555
Al12 Al4 2.676761 1_555
Al12 Al5 2.676779 1_566
Al12 Al9 2.817666 1_565
Al12 Ti7 2.831222 1_555
Al12 Ti6 2.831266 1_565
Al12 Ti0 2.880867 1_566
Al12 Ti4 2.880880 1_555
Al12 Ti2 2.926693 1_555
Al13 Co6 2.447237 1_555
Al13 Co4 2.570881 1_555
Al13 Co0 2.571008 1_565
Al13 Co5 2.578416 1_564
Al13 Al6 2.674205 1_455
Al13 Al5 2.676828 1_465
Al13 Al4 2.676870 1_454
Al13 Al8 2.817703 1_565
Al13 Ti7 2.831194 1_555
Al13 Ti6 2.831224 1_565
Al13 Ti3 2.880810 1_554
Al13 Ti1 2.880882 1_565
Al13 Ti2 2.926662 1_555
Co0 Ti6 2.562305 1_555
Co0 Ti2 2.985481 1_545
Co0 Ti5 2.997287 1_455
Co1 Ti6 2.562295 1_555
Co1 Ti2 2.985477 1_545
Co1 Ti5 2.997189 1_556
Co2 Ti7 2.563188 1_555
Co2 Ti6 2.563190 1_554
Co3 Ti7 2.562241 1_555
Co3 Ti2 2.985525 1_555
Co3 Ti5 2.997257 1_555
Co4 Ti7 2.562252 1_555
Co4 Ti2 2.985508 1_555
Co4 Ti5 2.997357 1_454
Co6 Ti7 2.426096 1_555
Co6 Ti6 2.426157 1_565
