# generated using pymatgen
data_YGaSiRh2
_symmetry_space_group_name_H-M   'P 1'
_cell_length_a   5.79676207
_cell_length_b   5.79676241
_cell_length_c   5.79676140
_cell_angle_alpha   138.40897398
_cell_angle_beta   138.40897248
_cell_angle_gamma   60.27721268
_symmetry_Int_Tables_number   1
_chemical_formula_structural   YGaSiRh2
_chemical_formula_sum   'Y1 Ga1 Si1 Rh2'
_cell_volume   84.93331071
_cell_formula_units_Z   1
loop_
 _symmetry_equiv_pos_site_id
 _symmetry_equiv_pos_as_xyz
  1  'x, y, z'
loop_
 _atom_site_type_symbol
 _atom_site_label
 _atom_site_symmetry_multiplicity
 _atom_site_fract_x
 _atom_site_fract_y
 _atom_site_fract_z
 _atom_site_occupancy
  Y  Y0  1  0.99787372  0.99787372  0.00000000  1
  Ga  Ga0  1  0.61923289  0.61923289  1.00000000  1
  Si  Si0  1  0.36931610  0.36931610  0.00000000  1
  Rh  Rh0  1  0.25678914  0.75678914  0.50000000  1
  Rh  Rh1  1  0.75678914  0.25678914  0.50000000  1
loop_
_geom_bond_atom_site_label_1
_geom_bond_atom_site_label_2
_geom_bond_distance
_geom_bond_site_symmetry_2
Ga0 Rh1 2.477431 1_555
Ga0 Rh0 2.477431 1_555
Ga0 Rh0 2.477432 1_656
Ga0 Rh1 2.477432 1_566
Ga0 Si0 2.505724 1_556
Ga0 Y0 3.154623 1_557
Ga0 Y0 3.154624 1_445
Ga0 Y0 3.154624 1_456
Ga0 Y0 3.154624 1_546
Si0 Y0 3.183158 1_444
Si0 Y0 3.183158 1_556
Si0 Y0 3.183158 1_545
Si0 Y0 3.183159 1_455
Rh0 Si0 2.347006 1_555
Rh0 Si0 2.347006 1_566
Rh0 Y0 3.174628 1_455
Rh0 Y0 3.174629 1_556
Rh0 Y0 3.312777 1_456
Rh0 Y0 3.312778 1_445
Rh1 Si0 2.347006 1_555
Rh1 Si0 2.347006 1_656
Rh1 Y0 3.174628 1_545
Rh1 Y0 3.174629 1_556
Rh1 Y0 3.312777 1_546
Rh1 Y0 3.312777 1_445
