# generated using pymatgen
data_VAs(SeO3)4
_symmetry_space_group_name_H-M   'P 1'
_cell_length_a   7.85134521
_cell_length_b   7.94349484
_cell_length_c   7.88541342
_cell_angle_alpha   89.41924653
_cell_angle_beta   90.00000000
_cell_angle_gamma   90.00000000
_symmetry_Int_Tables_number   1
_chemical_formula_structural   VAs(SeO3)4
_chemical_formula_sum   'V2 As2 Se8 O24'
_cell_volume   491.76526324
_cell_formula_units_Z   2
loop_
 _symmetry_equiv_pos_site_id
 _symmetry_equiv_pos_as_xyz
  1  'x, y, z'
loop_
 _atom_site_type_symbol
 _atom_site_label
 _atom_site_symmetry_multiplicity
 _atom_site_fract_x
 _atom_site_fract_y
 _atom_site_fract_z
 _atom_site_occupancy
  V  V0  1  0.00000000  0.50000000  0.00000000  1
  V  V1  1  0.50000000  0.50000000  0.50000000  1
  As  As0  1  0.00000000  0.00000000  0.50000000  1
  As  As1  1  0.50000000  0.00000000  0.00000000  1
  Se  Se0  1  0.33591872  0.67375845  0.16361511  1
  Se  Se1  1  0.83591872  0.32624155  0.33638489  1
  Se  Se2  1  0.67856153  0.83440922  0.67825190  1
  Se  Se3  1  0.17856153  0.16559078  0.82174810  1
  Se  Se4  1  0.66408128  0.32624155  0.83638489  1
  Se  Se5  1  0.16408128  0.67375845  0.66361511  1
  Se  Se6  1  0.32143847  0.16559078  0.32174810  1
  Se  Se7  1  0.82143847  0.83440922  0.17825190  1
  O  O0  1  0.24758302  0.54286541  0.02154799  1
  O  O1  1  0.74758302  0.45713459  0.47845201  1
  O  O2  1  0.76804120  0.98668719  0.53990184  1
  O  O3  1  0.26804120  0.01331281  0.96009816  1
  O  O4  1  0.53830813  0.98159120  0.76923947  1
  O  O5  1  0.47935966  0.54225972  0.25328836  1
  O  O6  1  0.97935966  0.45774028  0.24671164  1
  O  O7  1  0.03830813  0.01840880  0.73076053  1
  O  O8  1  0.98516191  0.22716606  0.47994531  1
  O  O9  1  0.54377213  0.74859020  0.54133510  1
  O  O10  1  0.48516191  0.77283394  0.02005469  1
  O  O11  1  0.04377213  0.25140980  0.95866490  1
  O  O12  1  0.75241698  0.45713459  0.97845201  1
  O  O13  1  0.25241698  0.54286541  0.52154799  1
  O  O14  1  0.23195880  0.01331281  0.46009816  1
  O  O15  1  0.73195880  0.98668719  0.03990184  1
  O  O16  1  0.46169187  0.01840880  0.23076053  1
  O  O17  1  0.52064034  0.45774028  0.74671164  1
  O  O18  1  0.02064034  0.54225972  0.75328836  1
  O  O19  1  0.96169187  0.98159120  0.26923947  1
  O  O20  1  0.01483809  0.77283394  0.52005469  1
  O  O21  1  0.45622787  0.25140980  0.45866490  1
  O  O22  1  0.51483809  0.22716606  0.97994531  1
  O  O23  1  0.95622787  0.74859020  0.04133510  1
loop_
_geom_bond_atom_site_label_1
_geom_bond_atom_site_label_2
_geom_bond_distance
_geom_bond_site_symmetry_2
As0 O20 1.813557 1_545
As0 O8 1.813557 1_455
As0 O14 1.851010 1_555
As0 O2 1.851010 1_445
As0 O7 1.851577 1_555
As0 O19 1.851577 1_445
As1 O22 1.813557 1_554
As1 O10 1.813557 1_545
As1 O15 1.851010 1_545
As1 O3 1.851010 1_554
As1 O16 1.851577 1_555
As1 O4 1.851577 1_544
O0 Se0 1.685433 1_555
O0 V0 1.981054 1_555
O1 Se1 1.685433 1_555
O1 V1 1.981054 1_555
O2 Se2 1.766395 1_555
O3 Se3 1.766395 1_555
O4 Se2 1.763875 1_555
O5 Se0 1.686557 1_555
O5 V1 1.977469 1_555
O6 Se1 1.686557 1_555
O6 V0 1.977469 1_655
O7 Se3 1.763875 1_555
O8 Se1 1.804394 1_555
O9 Se2 1.662897 1_555
O9 V1 2.033897 1_555
O10 Se0 1.804394 1_555
O11 Se3 1.662897 1_555
O11 V0 2.033897 1_556
O12 Se4 1.685433 1_555
O12 V0 1.981054 1_656
O13 Se5 1.685433 1_555
O13 V1 1.981054 1_555
O14 Se6 1.766395 1_555
O15 Se7 1.766395 1_555
O16 Se6 1.763875 1_555
O17 Se4 1.686557 1_555
O17 V1 1.977469 1_555
O18 Se5 1.686557 1_555
O18 V0 1.977469 1_556
O19 Se7 1.763875 1_555
O20 Se5 1.804394 1_555
O21 Se6 1.662897 1_555
O21 V1 2.033897 1_555
O22 Se4 1.804394 1_555
O23 Se7 1.662897 1_555
O23 V0 2.033897 1_655
