# generated using pymatgen
data_Sr2In8CuPd
_symmetry_space_group_name_H-M   'P 1'
_cell_length_a   8.87202313
_cell_length_b   8.87202346
_cell_length_c   7.50492157
_cell_angle_alpha   90.00000000
_cell_angle_beta   90.00000000
_cell_angle_gamma   150.10119271
_symmetry_Int_Tables_number   1
_chemical_formula_structural   Sr2In8CuPd
_chemical_formula_sum   'Sr2 In8 Cu1 Pd1'
_cell_volume   294.46268245
_cell_formula_units_Z   1
loop_
 _symmetry_equiv_pos_site_id
 _symmetry_equiv_pos_as_xyz
  1  'x, y, z'
loop_
 _atom_site_type_symbol
 _atom_site_label
 _atom_site_symmetry_multiplicity
 _atom_site_fract_x
 _atom_site_fract_y
 _atom_site_fract_z
 _atom_site_occupancy
  Sr  Sr0  1  0.12301464  0.87698536  0.75000000  1
  Sr  Sr1  1  0.87743503  0.12256497  0.25000000  1
  In  In0  1  0.31493691  0.68506309  0.94687413  1
  In  In1  1  0.68656834  0.31343166  0.04968378  1
  In  In2  1  0.31493691  0.68506309  0.55312587  1
  In  In3  1  0.50021397  0.49978603  0.99869889  1
  In  In4  1  0.68656834  0.31343166  0.45031622  1
  In  In5  1  0.50021397  0.49978603  0.50130111  1
  In  In6  1  0.06894933  0.93105067  0.25000000  1
  In  In7  1  0.92853449  0.07146551  0.75000000  1
  Cu  Cu0  1  0.77339207  0.22660793  0.75000000  1
  Pd  Pd0  1  0.22523399  0.77476601  0.25000000  1
loop_
_geom_bond_atom_site_label_1
_geom_bond_atom_site_label_2
_geom_bond_distance
_geom_bond_site_symmetry_2
In0 Pd0 2.745947 1_556
In0 In3 3.200018 1_555
In0 Sr1 3.400200 1_566
In0 Sr1 3.400201 1_456
In0 Sr0 3.606744 1_555
In1 Pd0 2.817362 1_655
In1 Pd0 2.817362 1_545
In1 In3 3.217595 1_554
In1 Sr0 3.388746 1_544
In1 Sr0 3.388746 1_654
In1 Sr1 3.600951 1_555
In2 Pd0 2.745947 1_555
In2 In5 3.200018 1_555
In2 Sr1 3.400200 1_565
In2 Sr1 3.400201 1_455
In2 Sr0 3.606744 1_555
In3 In6 3.191171 1_656
In3 In6 3.191171 1_546
In3 In7 3.198717 1_455
In3 In7 3.198717 1_565
In3 Sr0 3.626809 1_655
In3 Sr0 3.626810 1_545
In3 Sr1 3.636683 1_456
In3 Sr1 3.636683 1_566
In4 Pd0 2.817362 1_655
In4 Pd0 2.817362 1_545
In4 In5 3.217595 1_555
In4 Sr0 3.388746 1_545
In4 Sr0 3.388746 1_655
In4 Sr1 3.600951 1_555
In5 In6 3.191171 1_655
In5 In6 3.191171 1_545
In5 In7 3.198717 1_455
In5 In7 3.198717 1_565
In5 Sr0 3.626809 1_655
In5 Sr0 3.626810 1_545
In5 Sr1 3.636683 1_455
In5 Sr1 3.636683 1_565
In6 Pd0 2.679263 1_555
In6 Sr1 3.283222 1_465
In6 Sr0 3.865236 1_555
In6 Sr0 3.865236 1_554
In7 Sr0 3.334067 1_645
In7 Sr1 3.853359 1_555
In7 Sr1 3.853359 1_556
Cu0 In7 2.659681 1_555
Cu0 In1 2.697032 1_556
Cu0 In4 2.697032 1_555
Cu0 In0 2.815741 1_655
Cu0 In2 2.815741 1_655
Cu0 In0 2.815741 1_545
Cu0 In2 2.815741 1_545
Cu0 Sr0 3.447333 1_545
Cu0 Sr0 3.447333 1_655
Pd0 Sr1 3.470774 1_565
Pd0 Sr1 3.470774 1_455
