# generated using pymatgen
data_Cs6CdSe4
_symmetry_space_group_name_H-M   'P 1'
_cell_length_a   11.18385558
_cell_length_b   11.18385555
_cell_length_c   8.73987201
_cell_angle_alpha   90.00000000
_cell_angle_beta   90.00000000
_cell_angle_gamma   120.00000010
_symmetry_Int_Tables_number   1
_chemical_formula_structural   Cs6CdSe4
_chemical_formula_sum   'Cs12 Cd2 Se8'
_cell_volume   946.71400842
_cell_formula_units_Z   2
loop_
 _symmetry_equiv_pos_site_id
 _symmetry_equiv_pos_as_xyz
  1  'x, y, z'
loop_
 _atom_site_type_symbol
 _atom_site_label
 _atom_site_symmetry_multiplicity
 _atom_site_fract_x
 _atom_site_fract_y
 _atom_site_fract_z
 _atom_site_occupancy
  Cs  Cs0  1  0.14765865  0.85234135  0.54352537  1
  Cs  Cs1  1  0.29531830  0.14765865  0.04352537  1
  Cs  Cs2  1  0.85234135  0.70468170  0.04352537  1
  Cs  Cs3  1  0.14765865  0.29531830  0.54352537  1
  Cs  Cs4  1  0.70468170  0.85234135  0.54352537  1
  Cs  Cs5  1  0.85234135  0.14765865  0.04352537  1
  Cs  Cs6  1  0.52926277  0.47073723  0.36663865  1
  Cs  Cs7  1  0.05852654  0.52926277  0.86663865  1
  Cs  Cs8  1  0.47073723  0.94147346  0.86663865  1
  Cs  Cs9  1  0.52926277  0.05852654  0.36663865  1
  Cs  Cs10  1  0.94147346  0.47073723  0.36663865  1
  Cs  Cs11  1  0.47073723  0.52926277  0.86663865  1
  Cd  Cd0  1  0.33333300  0.66666700  0.25086527  1
  Cd  Cd1  1  0.66666700  0.33333300  0.75086527  1
  Se  Se0  1  0.33333300  0.66666700  0.56512905  1
  Se  Se1  1  0.66666700  0.33333300  0.06512905  1
  Se  Se2  1  0.19875952  0.80124048  0.15440521  1
  Se  Se3  1  0.39751904  0.19875952  0.65440521  1
  Se  Se4  1  0.80124048  0.60248096  0.65440521  1
  Se  Se5  1  0.19875952  0.39751904  0.15440521  1
  Se  Se6  1  0.60248096  0.80124048  0.15440521  1
  Se  Se7  1  0.80124048  0.19875952  0.65440521  1
loop_
_geom_bond_atom_site_label_1
_geom_bond_atom_site_label_2
_geom_bond_distance
_geom_bond_site_symmetry_2
Cs0 Se2 3.541992 1_555
Cs0 Se3 3.596053 1_565
Cs0 Se4 3.596053 1_455
Cs0 Se0 3.601652 1_555
Cs1 Se3 3.541989 1_554
Cs1 Se2 3.596050 1_545
Cs1 Se5 3.596060 1_555
Cs1 Se1 3.601652 1_555
Cs2 Se4 3.541989 1_554
Cs2 Se2 3.596050 1_655
Cs2 Se6 3.596060 1_555
Cs2 Se1 3.601652 1_555
Cs3 Se5 3.541989 1_555
Cs3 Se7 3.596050 1_455
Cs3 Se3 3.596060 1_555
Cs3 Se0 3.601652 1_555
Cs4 Se6 3.541989 1_555
Cs4 Se7 3.596050 1_565
Cs4 Se4 3.596060 1_555
Cs4 Se0 3.601652 1_555
Cs5 Se7 3.541992 1_554
Cs5 Se6 3.596053 1_545
Cs5 Se5 3.596053 1_655
Cs5 Se1 3.601652 1_555
Cs6 Se3 3.642378 1_555
Cs6 Se4 3.642378 1_555
Cs6 Se1 3.745460 1_555
Cs6 Se6 3.840188 1_555
Cs6 Se5 3.840188 1_555
Cs7 Se5 3.642371 1_556
Cs7 Se2 3.642378 1_556
Cs7 Se0 3.745446 1_555
Cs7 Se7 3.840191 1_455
Cs7 Se4 3.840197 1_455
Cs8 Se6 3.642371 1_556
Cs8 Se2 3.642378 1_556
Cs8 Se0 3.745446 1_555
Cs8 Se7 3.840191 1_565
Cs8 Se3 3.840197 1_565
Cs9 Se3 3.642371 1_555
Cs9 Se7 3.642378 1_555
Cs9 Se1 3.745446 1_555
Cs9 Se2 3.840191 1_545
Cs9 Se6 3.840197 1_545
Cs10 Se4 3.642371 1_555
Cs10 Se7 3.642378 1_555
Cs10 Se1 3.745446 1_555
Cs10 Se2 3.840191 1_655
Cs10 Se5 3.840197 1_655
Cs11 Se6 3.642378 1_556
Cs11 Se5 3.642378 1_556
Cs11 Se0 3.745460 1_555
Cs11 Se3 3.840188 1_555
Cs11 Se4 3.840188 1_555
Cd0 Se2 2.739756 1_555
Cd0 Se5 2.739765 1_555
Cd0 Se6 2.739765 1_555
Cd0 Se0 2.746625 1_555
Cd1 Se7 2.739756 1_555
Cd1 Se4 2.739765 1_555
Cd1 Se3 2.739765 1_555
Cd1 Se1 2.746625 1_556
