# generated using pymatgen
data_Ta6Al2Zn4N
_symmetry_space_group_name_H-M   'P 1'
_cell_length_a   8.15074506
_cell_length_b   8.14113342
_cell_length_c   8.15074483
_cell_angle_alpha   59.96093846
_cell_angle_beta   60.00000096
_cell_angle_gamma   59.96094275
_symmetry_Int_Tables_number   1
_chemical_formula_structural   Ta6Al2Zn4N
_chemical_formula_sum   'Ta12 Al4 Zn8 N2'
_cell_volume   382.21509246
_cell_formula_units_Z   2
loop_
 _symmetry_equiv_pos_site_id
 _symmetry_equiv_pos_as_xyz
  1  'x, y, z'
loop_
 _atom_site_type_symbol
 _atom_site_label
 _atom_site_symmetry_multiplicity
 _atom_site_fract_x
 _atom_site_fract_y
 _atom_site_fract_z
 _atom_site_occupancy
  Ta  Ta0  1  0.18876965  0.81125256  0.18876965  1
  Ta  Ta1  1  0.43853580  0.06044406  0.43853580  1
  Ta  Ta2  1  0.43853580  0.06044406  0.06248435  1
  Ta  Ta3  1  0.43866393  0.43860673  0.06136467  1
  Ta  Ta4  1  0.18876965  0.81125256  0.81120813  1
  Ta  Ta5  1  0.06136467  0.43860673  0.06136467  1
  Ta  Ta6  1  0.81120813  0.81125256  0.18876965  1
  Ta  Ta7  1  0.06136467  0.43860673  0.43866393  1
  Ta  Ta8  1  0.19003825  0.18846301  0.81074937  1
  Ta  Ta9  1  0.81074937  0.18846301  0.19003825  1
  Ta  Ta10  1  0.81074937  0.18846301  0.81074937  1
  Ta  Ta11  1  0.06248435  0.06044406  0.43853580  1
  Al  Al0  1  0.83347694  0.49957119  0.83347694  1
  Al  Al1  1  0.41542279  0.41622889  0.75292353  1
  Al  Al2  1  0.75292353  0.41622889  0.41542279  1
  Al  Al3  1  0.41542279  0.41622889  0.41542279  1
  Zn  Zn0  1  0.83345696  0.83324170  0.49984538  1
  Zn  Zn1  1  0.41678588  0.74964135  0.41678588  1
  Zn  Zn2  1  0.83345696  0.83324170  0.83345696  1
  Zn  Zn3  1  0.49984538  0.83324170  0.83345696  1
  Zn  Zn4  1  0.62605653  0.12182941  0.62605653  1
  Zn  Zn5  1  0.62367929  0.62901244  0.12362797  1
  Zn  Zn6  1  0.12362797  0.62901244  0.62367929  1
  Zn  Zn7  1  0.62367929  0.62901244  0.62367929  1
  N  N0  1  0.00046774  0.99859777  0.00046774  1
  N  N1  1  0.25046129  0.24861512  0.25046129  1
loop_
_geom_bond_atom_site_label_1
_geom_bond_atom_site_label_2
_geom_bond_distance
_geom_bond_site_symmetry_2
Ta0 Zn3 2.727709 1_554
Ta0 Zn0 2.727709 1_455
Ta0 Zn6 2.947886 1_555
Ta0 Zn5 2.947886 1_555
Ta0 Zn1 2.957547 1_555
Ta1 Zn1 2.719342 1_545
Ta1 Zn7 2.924918 1_545
Ta1 Zn3 2.958806 1_545
Ta1 Zn0 2.958806 1_545
Ta1 Zn4 2.964378 1_555
Ta2 Zn1 2.719337 1_545
Ta2 Zn5 2.924919 1_545
Ta2 Zn3 2.958799 1_544
Ta2 Zn2 2.958802 1_544
Ta2 Zn4 2.964385 1_554
Ta3 Zn3 2.953619 1_554
Ta3 Zn5 2.971159 1_555
Ta3 Zn7 2.971164 1_554
Ta4 Zn2 2.727705 1_455
Ta4 Zn3 2.727713 1_555
Ta4 Zn7 2.947887 1_555
Ta4 Zn6 2.947893 1_555
Ta4 Zn1 2.957554 1_555
Ta5 Zn2 2.953616 1_454
Ta5 Zn6 2.971166 1_554
Ta5 Zn5 2.971166 1_455
Ta6 Zn2 2.727705 1_554
Ta6 Zn0 2.727713 1_555
Ta6 Zn7 2.947887 1_555
Ta6 Zn5 2.947893 1_555
Ta6 Zn1 2.957554 1_555
Ta7 Zn0 2.953620 1_455
Ta7 Zn6 2.971159 1_555
Ta7 Zn7 2.971164 1_455
Ta8 Zn3 2.719218 1_545
Ta8 Zn4 2.954314 1_555
Ta8 Zn6 2.981264 1_555
Ta9 Zn0 2.719217 1_545
Ta9 Zn4 2.954314 1_555
Ta9 Zn5 2.981264 1_555
Ta10 Zn2 2.719214 1_545
Ta10 Zn4 2.954321 1_555
Ta10 Zn7 2.981265 1_555
Ta11 Zn1 2.719337 1_545
Ta11 Zn6 2.924919 1_545
Ta11 Zn0 2.958798 1_445
Ta11 Zn2 2.958802 1_445
Ta11 Zn4 2.964385 1_455
Al0 Zn6 2.504896 1_655
Al0 Zn5 2.504896 1_556
Al0 Zn7 2.504916 1_555
Al0 Zn2 2.716293 1_555
Al0 Zn0 2.716297 1_555
Al0 Zn3 2.716297 1_555
Al0 Ta9 2.730810 1_556
Al0 Ta8 2.730810 1_655
Al0 Ta10 2.730819 1_555
Al0 Ta5 2.958173 1_656
Al0 Ta7 2.958187 1_655
Al0 Ta3 2.958187 1_556
Al1 Zn6 2.514092 1_555
Al1 Zn7 2.514099 1_555
Al1 Zn4 2.519427 1_555
Al1 Ta5 2.712690 1_556
Al1 Ta3 2.712699 1_556
Al1 Ta2 2.720947 1_556
Al1 Zn1 2.725520 1_555
Al1 Al3 2.750882 1_555
Al1 Al2 2.750883 1_555
Al1 Ta4 2.946973 1_555
Al1 Ta8 2.950391 1_555
Al1 Ta10 2.950405 1_555
Al2 Zn5 2.514092 1_555
Al2 Zn7 2.514099 1_555
Al2 Zn4 2.519427 1_555
Al2 Ta5 2.712690 1_655
Al2 Ta7 2.712699 1_655
Al2 Ta11 2.720948 1_655
Al2 Zn1 2.725520 1_555
Al2 Al3 2.750883 1_555
Al2 Ta6 2.946973 1_555
Al2 Ta9 2.950391 1_555
Al2 Ta10 2.950405 1_555
Al3 Zn5 2.514097 1_555
Al3 Zn6 2.514097 1_555
Al3 Zn4 2.519432 1_555
Al3 Ta3 2.712683 1_555
Al3 Ta7 2.712683 1_555
Al3 Ta1 2.720940 1_555
Al3 Zn1 2.725524 1_555
Al3 Ta0 2.946966 1_555
Al3 Ta8 2.950399 1_555
Al3 Ta9 2.950399 1_555
Zn0 Zn4 2.477938 1_565
Zn0 Zn6 2.479306 1_655
Zn0 Zn7 2.479320 1_555
Zn0 Zn2 2.719183 1_555
Zn0 Zn3 2.719183 1_555
Zn1 Zn6 2.485871 1_555
Zn1 Zn5 2.485871 1_555
Zn1 Zn7 2.485871 1_555
Zn2 Zn4 2.477947 1_565
Zn2 Zn5 2.479315 1_556
Zn2 Zn6 2.479315 1_655
Zn2 Zn3 2.719183 1_555
Zn3 Zn4 2.477937 1_565
Zn3 Zn5 2.479306 1_556
Zn3 Zn7 2.479320 1_555
N0 Ta0 2.169284 1_555
N0 Ta6 2.169289 1_455
N0 Ta4 2.169290 1_554
N0 Ta8 2.185567 1_564
N0 Ta9 2.185567 1_465
N0 Ta10 2.185573 1_464
N1 Ta11 2.166630 1_555
N1 Ta2 2.166630 1_555
N1 Ta1 2.166636 1_555
N1 Ta5 2.178412 1_555
N1 Ta3 2.178418 1_555
N1 Ta7 2.178418 1_555
