# generated using pymatgen
data_P2I2Br7Cl5
_symmetry_space_group_name_H-M   'P 1'
_cell_length_a   10.02713082
_cell_length_b   10.03165902
_cell_length_c   5.91780289
_cell_angle_alpha   90.24581114
_cell_angle_beta   89.93490019
_cell_angle_gamma   88.97100253
_symmetry_Int_Tables_number   1
_chemical_formula_structural   P2I2Br7Cl5
_chemical_formula_sum   'P2 I2 Br7 Cl5'
_cell_volume   595.16252748
_cell_formula_units_Z   1
loop_
 _symmetry_equiv_pos_site_id
 _symmetry_equiv_pos_as_xyz
  1  'x, y, z'
loop_
 _atom_site_type_symbol
 _atom_site_label
 _atom_site_symmetry_multiplicity
 _atom_site_fract_x
 _atom_site_fract_y
 _atom_site_fract_z
 _atom_site_occupancy
  P  P0  1  0.00172835  0.99564038  0.50548495  1
  P  P1  1  0.50285880  0.50146717  0.49389917  1
  I  I0  1  0.99143928  0.51172681  0.13377706  1
  I  I1  1  0.49811739  0.99571535  0.86378125  1
  Br  Br0  1  0.30695270  0.80970365  0.86152966  1
  Br  Br1  1  0.08567260  0.13817903  0.73417221  1
  Br  Br2  1  0.18782115  0.31262683  0.13058243  1
  Br  Br3  1  0.69396648  0.18404622  0.86410639  1
  Br  Br4  1  0.36054456  0.41622477  0.72181775  1
  Br  Br5  1  0.80136532  0.70186564  0.13496687  1
  Br  Br6  1  0.59082366  0.35787905  0.26277491  1
  Cl  Cl0  1  0.13659237  0.91528225  0.30381757  1
  Cl  Cl1  1  0.41698285  0.63961242  0.30571319  1
  Cl  Cl2  1  0.63924666  0.58447807  0.68445891  1
  Cl  Cl3  1  0.86616175  0.07815089  0.30945813  1
  Cl  Cl4  1  0.91972706  0.85740347  0.68966055  1
loop_
_geom_bond_atom_site_label_1
_geom_bond_atom_site_label_2
_geom_bond_distance
_geom_bond_site_symmetry_2
Br0 I1 2.699022 1_555
Br1 P0 2.147978 1_545
Br2 I0 2.779469 1_455
Br3 I1 2.749384 1_545
Br4 P1 2.153166 1_555
Br5 I0 2.672074 1_555
Br6 P1 2.158303 1_555
Cl0 P0 1.962586 1_555
Cl1 P1 1.968441 1_555
Cl2 P1 1.967681 1_555
Cl3 P0 1.962155 1_645
Cl4 P0 1.959321 1_655
