# generated using pymatgen
data_KNb(MoSe3)2
_symmetry_space_group_name_H-M   'P 1'
_cell_length_a   5.88296672
_cell_length_b   5.88296734
_cell_length_c   17.40424477
_cell_angle_alpha   90.00000000
_cell_angle_beta   90.00000000
_cell_angle_gamma   120.00000210
_symmetry_Int_Tables_number   1
_chemical_formula_structural   KNb(MoSe3)2
_chemical_formula_sum   'K2 Nb2 Mo4 Se12'
_cell_volume   521.64930623
_cell_formula_units_Z   2
loop_
 _symmetry_equiv_pos_site_id
 _symmetry_equiv_pos_as_xyz
  1  'x, y, z'
loop_
 _atom_site_type_symbol
 _atom_site_label
 _atom_site_symmetry_multiplicity
 _atom_site_fract_x
 _atom_site_fract_y
 _atom_site_fract_z
 _atom_site_occupancy
  K  K0  1  0.00000000  0.00000000  0.00000000  1
  K  K1  1  0.00000000  0.00000000  0.50000000  1
  Nb  Nb0  1  0.66666700  0.33333300  0.25000000  1
  Nb  Nb1  1  0.33333300  0.66666700  0.75000000  1
  Mo  Mo0  1  0.00000000  0.00000000  0.75000000  1
  Mo  Mo1  1  0.00000000  0.00000000  0.25000000  1
  Mo  Mo2  1  0.33333300  0.66666700  0.25000000  1
  Mo  Mo3  1  0.66666700  0.33333300  0.75000000  1
  Se  Se0  1  0.32834975  0.99345625  0.15539864  1
  Se  Se1  1  0.00654375  0.33489250  0.15539864  1
  Se  Se2  1  0.66510750  0.67165025  0.15539864  1
  Se  Se3  1  0.33489250  0.32834975  0.65539864  1
  Se  Se4  1  0.66510750  0.67165025  0.34460136  1
  Se  Se5  1  0.67165025  0.00654375  0.65539864  1
  Se  Se6  1  0.99345625  0.66510750  0.65539864  1
  Se  Se7  1  0.99345625  0.66510750  0.84460136  1
  Se  Se8  1  0.33489250  0.32834975  0.84460136  1
  Se  Se9  1  0.00654375  0.33489250  0.34460136  1
  Se  Se10  1  0.32834975  0.99345625  0.34460136  1
  Se  Se11  1  0.67165025  0.00654375  0.84460136  1
loop_
_geom_bond_atom_site_label_1
_geom_bond_atom_site_label_2
_geom_bond_distance
_geom_bond_site_symmetry_2
K0 Se1 3.334968 1_555
K0 Se7 3.334968 1_444
K0 Se8 3.334970 1_554
K0 Se2 3.334970 1_445
K0 Se0 3.334972 1_545
K0 Se11 3.334972 1_454
K1 Se9 3.334968 1_555
K1 Se6 3.334968 1_445
K1 Se3 3.334970 1_555
K1 Se4 3.334970 1_445
K1 Se10 3.334972 1_545
K1 Se5 3.334972 1_455
Nb0 Se1 2.586604 1_655
Nb0 Se9 2.586604 1_655
Nb0 Se0 2.586604 1_545
Nb0 Se10 2.586604 1_545
Nb0 Se2 2.586605 1_555
Nb0 Se4 2.586605 1_555
Nb1 Se6 2.586604 1_455
Nb1 Se7 2.586604 1_455
Nb1 Se5 2.586604 1_565
Nb1 Se11 2.586604 1_565
Nb1 Se3 2.586605 1_555
Nb1 Se8 2.586605 1_555
Mo0 Se6 2.553042 1_445
Mo0 Se7 2.553042 1_445
Mo0 Se3 2.553044 1_555
Mo0 Se8 2.553044 1_555
Mo0 Se5 2.553046 1_455
Mo0 Se11 2.553046 1_455
Mo1 Se1 2.553042 1_555
Mo1 Se9 2.553042 1_555
Mo1 Se2 2.553044 1_445
Mo1 Se4 2.553044 1_445
Mo1 Se0 2.553046 1_545
Mo1 Se10 2.553046 1_545
Mo2 Se0 2.542447 1_555
Mo2 Se10 2.542447 1_555
Mo2 Se1 2.542452 1_555
Mo2 Se9 2.542452 1_555
Mo2 Se4 2.542456 1_555
Mo2 Se2 2.542456 1_555
Mo3 Se5 2.542447 1_555
Mo3 Se11 2.542447 1_555
Mo3 Se6 2.542452 1_555
Mo3 Se7 2.542452 1_555
Mo3 Se3 2.542456 1_555
Mo3 Se8 2.542456 1_555
