# generated using pymatgen
data_Cs8LuBi4
_symmetry_space_group_name_H-M   'P 1'
_cell_length_a   12.75417079
_cell_length_b   12.75417064
_cell_length_c   12.75417102
_cell_angle_alpha   59.99999901
_cell_angle_beta   59.99999941
_cell_angle_gamma   59.99999921
_symmetry_Int_Tables_number   1
_chemical_formula_structural   Cs8LuBi4
_chemical_formula_sum   'Cs16 Lu2 Bi8'
_cell_volume   1467.03907725
_cell_formula_units_Z   2
loop_
 _symmetry_equiv_pos_site_id
 _symmetry_equiv_pos_as_xyz
  1  'x, y, z'
loop_
 _atom_site_type_symbol
 _atom_site_label
 _atom_site_symmetry_multiplicity
 _atom_site_fract_x
 _atom_site_fract_y
 _atom_site_fract_z
 _atom_site_occupancy
  Cs  Cs0  1  0.62500000  0.12500000  0.62500000  1
  Cs  Cs1  1  0.62500000  0.62500000  0.12500000  1
  Cs  Cs2  1  0.12500000  0.62500000  0.62500000  1
  Cs  Cs3  1  0.62500000  0.62500000  0.62500000  1
  Cs  Cs4  1  0.02808441  0.02808441  0.47191559  1
  Cs  Cs5  1  0.77808441  0.22191559  0.22191559  1
  Cs  Cs6  1  0.22191559  0.77808441  0.77808441  1
  Cs  Cs7  1  0.77808441  0.77808441  0.22191559  1
  Cs  Cs8  1  0.77808441  0.22191559  0.77808441  1
  Cs  Cs9  1  0.22191559  0.77808441  0.22191559  1
  Cs  Cs10  1  0.47191559  0.02808441  0.47191559  1
  Cs  Cs11  1  0.47191559  0.02808441  0.02808441  1
  Cs  Cs12  1  0.02808441  0.47191559  0.47191559  1
  Cs  Cs13  1  0.02808441  0.47191559  0.02808441  1
  Cs  Cs14  1  0.22191559  0.22191559  0.77808441  1
  Cs  Cs15  1  0.47191559  0.47191559  0.02808441  1
  Lu  Lu0  1  0.75000000  0.75000000  0.75000000  1
  Lu  Lu1  1  0.50000000  0.50000000  0.50000000  1
  Bi  Bi0  1  0.40087118  0.79738745  0.40087118  1
  Bi  Bi1  1  0.84912882  0.84912882  0.45261255  1
  Bi  Bi2  1  0.45261255  0.84912882  0.84912882  1
  Bi  Bi3  1  0.84912882  0.84912882  0.84912882  1
  Bi  Bi4  1  0.79738745  0.40087118  0.40087118  1
  Bi  Bi5  1  0.40087118  0.40087118  0.40087118  1
  Bi  Bi6  1  0.40087118  0.40087118  0.79738745  1
  Bi  Bi7  1  0.84912882  0.45261255  0.84912882  1
loop_
_geom_bond_atom_site_label_1
_geom_bond_atom_site_label_2
_geom_bond_distance
_geom_bond_site_symmetry_2
Cs0 Lu0 3.905151 1_545
Cs0 Lu1 3.905151 1_555
Cs0 Cs4 4.217943 1_655
Cs0 Cs14 4.217943 1_555
Cs0 Cs11 4.217943 1_556
Cs0 Cs5 4.217943 1_555
Cs0 Cs8 4.217943 1_555
Cs0 Cs10 4.217943 1_555
Cs1 Lu1 3.905151 1_555
Cs1 Lu0 3.905151 1_554
Cs1 Cs11 4.217943 1_565
Cs1 Cs5 4.217943 1_555
Cs1 Cs13 4.217943 1_655
Cs1 Cs9 4.217943 1_555
Cs1 Cs7 4.217943 1_555
Cs1 Cs15 4.217943 1_555
Cs2 Lu0 3.905151 1_455
Cs2 Lu1 3.905151 1_555
Cs2 Cs4 4.217943 1_565
Cs2 Cs6 4.217943 1_555
Cs2 Cs9 4.217943 1_555
Cs3 Lu1 3.905151 1_555
Cs3 Lu0 3.905151 1_555
Cs3 Cs8 4.217943 1_555
Cs3 Cs6 4.217943 1_555
Cs3 Cs7 4.217943 1_555
Cs4 Cs9 4.565832 1_545
Cs4 Cs6 4.565832 1_545
Cs4 Cs5 4.565832 1_455
Cs4 Cs8 4.565832 1_455
Cs10 Cs3 4.217943 1_545
Cs10 Cs6 4.565832 1_545
Cs10 Cs5 4.565832 1_555
Cs10 Cs7 4.565832 1_545
Cs10 Cs14 4.565832 1_555
Cs11 Cs9 4.565832 1_545
Cs11 Cs8 4.565832 1_554
Cs11 Cs7 4.565832 1_545
Cs11 Cs14 4.565832 1_554
Cs12 Cs3 4.217943 1_455
Cs12 Cs2 4.217943 1_555
Cs12 Cs9 4.565832 1_555
Cs12 Cs8 4.565832 1_455
Cs12 Cs7 4.565832 1_455
Cs12 Cs14 4.565832 1_555
Cs13 Cs2 4.217943 1_554
Cs13 Cs6 4.565832 1_554
Cs13 Cs5 4.565832 1_455
Cs13 Cs7 4.565832 1_455
Cs13 Cs14 4.565832 1_554
Cs14 Cs2 4.217943 1_555
Cs15 Cs3 4.217943 1_554
Cs15 Cs6 4.565832 1_554
Cs15 Cs9 4.565832 1_555
Cs15 Cs8 4.565832 1_554
Cs15 Cs5 4.565832 1_555
Bi0 Lu1 3.096915 1_555
Bi0 Cs10 4.056197 1_565
Bi0 Cs4 4.056205 1_565
Bi0 Cs11 4.056206 1_565
Bi0 Cs3 4.096147 1_555
Bi0 Cs2 4.096157 1_555
Bi0 Cs1 4.096157 1_555
Bi0 Cs7 4.100345 1_555
Bi0 Cs6 4.100345 1_555
Bi0 Cs9 4.100356 1_555
Bi1 Lu0 3.096915 1_555
Bi1 Cs7 4.056197 1_555
Bi1 Cs5 4.056205 1_565
Bi1 Cs9 4.056206 1_655
Bi1 Cs3 4.096147 1_555
Bi1 Cs0 4.096157 1_565
Bi1 Cs2 4.096157 1_655
Bi1 Cs12 4.100345 1_655
Bi1 Cs10 4.100345 1_565
Bi1 Cs4 4.100356 1_665
Bi2 Lu0 3.096915 1_555
Bi2 Cs6 4.056197 1_555
Bi2 Cs14 4.056205 1_565
Bi2 Cs9 4.056206 1_556
Bi2 Cs3 4.096147 1_555
Bi2 Cs0 4.096157 1_565
Bi2 Cs1 4.096157 1_556
Bi2 Cs15 4.100345 1_556
Bi2 Cs10 4.100345 1_565
Bi2 Cs11 4.100356 1_566
Bi3 Lu0 3.096904 1_555
Bi3 Cs8 4.056209 1_565
Bi3 Cs6 4.056209 1_655
Bi3 Cs7 4.056209 1_556
Bi3 Cs1 4.096149 1_556
Bi3 Cs0 4.096149 1_565
Bi3 Cs2 4.096149 1_655
Bi3 Cs13 4.100348 1_656
Bi3 Cs11 4.100348 1_566
Bi3 Cs4 4.100348 1_665
Bi4 Lu1 3.096915 1_555
Bi4 Cs12 4.056197 1_655
Bi4 Cs4 4.056205 1_655
Bi4 Cs13 4.056206 1_655
Bi4 Cs3 4.096147 1_555
Bi4 Cs0 4.096157 1_555
Bi4 Cs1 4.096157 1_555
Bi4 Cs7 4.100345 1_555
Bi4 Cs8 4.100345 1_555
Bi4 Cs5 4.100356 1_555
Bi5 Lu1 3.096904 1_555
Bi5 Cs10 4.056209 1_555
Bi5 Cs12 4.056209 1_555
Bi5 Cs15 4.056209 1_555
Bi5 Cs1 4.096149 1_555
Bi5 Cs0 4.096149 1_555
Bi5 Cs2 4.096149 1_555
Bi5 Cs9 4.100348 1_555
Bi5 Cs5 4.100348 1_555
Bi5 Cs14 4.100348 1_555
Bi6 Lu1 3.096915 1_555
Bi6 Cs15 4.056197 1_556
Bi6 Cs11 4.056205 1_556
Bi6 Cs13 4.056206 1_556
Bi6 Cs3 4.096147 1_555
Bi6 Cs0 4.096157 1_555
Bi6 Cs2 4.096157 1_555
Bi6 Cs6 4.100345 1_555
Bi6 Cs8 4.100345 1_555
Bi6 Cs14 4.100356 1_555
Bi7 Lu0 3.096915 1_555
Bi7 Cs8 4.056197 1_555
Bi7 Cs14 4.056205 1_655
Bi7 Cs5 4.056206 1_556
Bi7 Cs3 4.096147 1_555
Bi7 Cs2 4.096157 1_655
Bi7 Cs1 4.096157 1_556
Bi7 Cs15 4.100345 1_556
Bi7 Cs12 4.100345 1_655
Bi7 Cs13 4.100356 1_656
