# generated using pymatgen
data_Li6ReTc2H27
_symmetry_space_group_name_H-M   'P 1'
_cell_length_a   8.06845955
_cell_length_b   8.06845971
_cell_length_c   4.78734928
_cell_angle_alpha   90.00000000
_cell_angle_beta   90.00000000
_cell_angle_gamma   119.99999937
_symmetry_Int_Tables_number   1
_chemical_formula_structural   Li6ReTc2H27
_chemical_formula_sum   'Li6 Re1 Tc2 H27'
_cell_volume   269.90256371
_cell_formula_units_Z   1
loop_
 _symmetry_equiv_pos_site_id
 _symmetry_equiv_pos_as_xyz
  1  'x, y, z'
loop_
 _atom_site_type_symbol
 _atom_site_label
 _atom_site_symmetry_multiplicity
 _atom_site_fract_x
 _atom_site_fract_y
 _atom_site_fract_z
 _atom_site_occupancy
  Li  Li0  1  0.27761808  0.00006229  0.50000000  1
  Li  Li1  1  0.99993771  0.27755580  0.50000000  1
  Li  Li2  1  0.72244420  0.72238192  0.50000000  1
  Li  Li3  1  0.61753223  0.00034425  0.00000000  1
  Li  Li4  1  0.99965575  0.61718797  0.00000000  1
  Li  Li5  1  0.38281203  0.38246777  0.00000000  1
  Re  Re0  1  0.33333300  0.66666700  0.50000000  1
  Tc  Tc0  1  0.00000000  0.00000000  0.00000000  1
  Tc  Tc1  1  0.66666700  0.33333300  0.50000000  1
  H  H0  1  0.85230003  0.00002453  0.24670073  1
  H  H1  1  0.99997547  0.85227550  0.24670073  1
  H  H2  1  0.85230003  0.00002453  0.75329927  1
  H  H3  1  0.99997547  0.85227550  0.75329927  1
  H  H4  1  0.14772450  0.14769997  0.24670073  1
  H  H5  1  0.14772450  0.14769997  0.75329927  1
  H  H6  1  0.20413974  0.00000490  0.00000000  1
  H  H7  1  0.99999510  0.20413484  0.00000000  1
  H  H8  1  0.79586516  0.79586026  0.00000000  1
  H  H9  1  0.17404703  0.53504056  0.24763444  1
  H  H10  1  0.46495944  0.63900548  0.24763444  1
  H  H11  1  0.17404703  0.53504056  0.75236556  1
  H  H12  1  0.53616754  0.17588264  0.74943151  1
  H  H13  1  0.36099452  0.82595297  0.24763444  1
  H  H14  1  0.46495944  0.63900548  0.75236556  1
  H  H15  1  0.63971510  0.46383246  0.74943151  1
  H  H16  1  0.53616754  0.17588264  0.25056849  1
  H  H17  1  0.36099452  0.82595297  0.75236556  1
  H  H18  1  0.63971510  0.46383246  0.25056849  1
  H  H19  1  0.82411736  0.36028490  0.74943151  1
  H  H20  1  0.82411736  0.36028490  0.25056849  1
  H  H21  1  0.29609340  0.44468559  0.50000000  1
  H  H22  1  0.55531441  0.85140781  0.50000000  1
  H  H23  1  0.44757427  0.29661221  0.50000000  1
  H  H24  1  0.14859219  0.70390660  0.50000000  1
  H  H25  1  0.84903694  0.55242573  0.50000000  1
  H  H26  1  0.70338779  0.15096306  0.50000000  1
loop_
_geom_bond_atom_site_label_1
_geom_bond_atom_site_label_2
_geom_bond_distance
_geom_bond_site_symmetry_2
H0 Tc0 1.677878 1_655
H0 Li3 2.233339 1_555
H0 Li1 2.288292 1_555
H0 Li2 2.288975 1_545
H1 Tc0 1.677878 1_665
H1 Li4 2.233339 1_555
H1 Li2 2.288292 1_555
H1 Li0 2.288975 1_665
H2 Tc0 1.677878 1_656
H2 Li3 2.233339 1_556
H2 Li1 2.288292 1_555
H2 Li2 2.288975 1_545
H3 Tc0 1.677878 1_666
H3 Li4 2.233339 1_556
H3 Li2 2.288292 1_555
H3 Li0 2.288975 1_665
H4 Tc0 1.677878 1_555
H4 Li5 2.233339 1_555
H4 Li0 2.288292 1_555
H4 Li1 2.288975 1_455
H5 Tc0 1.677878 1_556
H5 Li5 2.233339 1_556
H5 Li0 2.288292 1_555
H5 Li1 2.288975 1_455
H6 Tc0 1.647073 1_555
H7 Tc0 1.647074 1_655
H8 Tc0 1.647074 1_665
H9 Re0 1.695395 1_555
H9 Li4 2.181101 1_455
H9 Li1 2.197877 1_455
H10 Re0 1.695402 1_555
H10 Li5 2.181094 1_555
H10 Li2 2.197876 1_555
H11 Re0 1.695395 1_555
H11 Li4 2.181101 1_456
H11 Li1 2.197877 1_455
H12 Tc1 1.676550 1_555
H12 Li3 2.192189 1_556
H12 Li0 2.197908 1_555
H13 Re0 1.695391 1_555
H13 Li3 2.181096 1_565
H13 Li0 2.197882 1_565
H14 Re0 1.695402 1_555
H14 Li5 2.181094 1_556
H14 Li2 2.197876 1_555
H15 Tc1 1.676554 1_555
H15 Li5 2.192189 1_556
H15 Li2 2.197908 1_555
H16 Tc1 1.676550 1_555
H16 Li3 2.192189 1_555
H16 Li0 2.197908 1_555
H17 Re0 1.695391 1_555
H17 Li3 2.181096 1_566
H17 Li0 2.197882 1_565
H18 Tc1 1.676554 1_555
H18 Li5 2.192189 1_555
H18 Li2 2.197908 1_555
H19 Tc1 1.676548 1_555
H19 Li4 2.192189 1_556
H19 Li1 2.197908 1_555
H20 Tc1 1.676548 1_555
H20 Li4 2.192189 1_555
H20 Li1 2.197908 1_555
H21 Re0 1.661320 1_555
H21 Li1 2.075087 1_455
H22 Re0 1.661317 1_555
H22 Li2 2.075087 1_555
H23 Tc1 1.639800 1_555
H23 Li0 2.079511 1_555
H24 Re0 1.661312 1_555
H24 Li0 2.075087 1_565
H25 Tc1 1.639794 1_555
H25 Li2 2.079504 1_555
H26 Tc1 1.639784 1_555
H26 Li1 2.079512 1_555
