# generated using pymatgen
data_Cs4LiFeS4
_symmetry_space_group_name_H-M   'P 1'
_cell_length_a   8.47953166
_cell_length_b   8.47953137
_cell_length_c   8.47953180
_cell_angle_alpha   135.46005198
_cell_angle_beta   129.14995905
_cell_angle_gamma   69.87228922
_symmetry_Int_Tables_number   1
_chemical_formula_structural   Cs4LiFeS4
_chemical_formula_sum   'Cs4 Li1 Fe1 S4'
_cell_volume   325.29371743
_cell_formula_units_Z   1
loop_
 _symmetry_equiv_pos_site_id
 _symmetry_equiv_pos_as_xyz
  1  'x, y, z'
loop_
 _atom_site_type_symbol
 _atom_site_label
 _atom_site_symmetry_multiplicity
 _atom_site_fract_x
 _atom_site_fract_y
 _atom_site_fract_z
 _atom_site_occupancy
  Cs  Cs0  1  0.51893987  0.86544351  0.68280495  1
  Cs  Cs1  1  0.48106013  0.16386608  0.34650364  1
  Cs  Cs2  1  0.81736244  0.63455649  0.15349636  1
  Cs  Cs3  1  0.18263756  0.33613392  0.81719505  1
  Li  Li0  1  0.00000000  0.25000000  0.25000000  1
  Fe  Fe0  1  0.00000000  0.75000000  0.75000000  1
  S  S0  1  0.07829466  0.88266130  0.14614758  1
  S  S1  1  0.73651372  0.43214709  0.35385242  1
  S  S2  1  0.92170534  0.06785291  0.80436663  1
  S  S3  1  0.26348728  0.61733870  0.69563337  1
loop_
_geom_bond_atom_site_label_1
_geom_bond_atom_site_label_2
_geom_bond_distance
_geom_bond_site_symmetry_2
Cs0 S1 3.450660 1_555
Cs0 S2 3.569220 1_565
Cs0 S1 3.569384 1_566
Cs0 S3 3.590267 1_555
Cs0 S0 3.713778 1_555
Cs1 S3 3.450664 1_544
Cs1 S0 3.569225 1_545
Cs1 S3 3.569376 1_555
Cs1 S1 3.590267 1_555
Cs1 S2 3.713783 1_555
Cs2 S2 3.450664 1_565
Cs2 S1 3.569225 1_555
Cs2 S2 3.569381 1_554
Cs2 S0 3.590267 1_655
Cs2 S3 3.713778 1_554
Cs3 S0 3.450663 1_556
Cs3 S3 3.569238 1_555
Cs3 S0 3.569387 1_545
Cs3 S2 3.590260 1_455
Cs3 S1 3.713781 1_556
Li0 S0 2.514636 1_545
Li0 S1 2.514636 1_455
Li0 S2 2.514636 1_454
Li0 S3 2.514639 1_555
Fe0 S2 2.302468 1_465
Fe0 S1 2.302468 1_455
Fe0 S0 2.302468 1_556
Fe0 S3 2.302476 1_555
