# generated using pymatgen
data_Sr7Ca5(ScSb3)4
_symmetry_space_group_name_H-M   'P 1'
_cell_length_a   4.73140407
_cell_length_b   13.35374596
_cell_length_c   15.04103132
_cell_angle_alpha   90.02261323
_cell_angle_beta   90.00000000
_cell_angle_gamma   90.00000000
_symmetry_Int_Tables_number   1
_chemical_formula_structural   Sr7Ca5(ScSb3)4
_chemical_formula_sum   'Sr7 Ca5 Sc4 Sb12'
_cell_volume   950.32188564
_cell_formula_units_Z   1
loop_
 _symmetry_equiv_pos_site_id
 _symmetry_equiv_pos_as_xyz
  1  'x, y, z'
loop_
 _atom_site_type_symbol
 _atom_site_label
 _atom_site_symmetry_multiplicity
 _atom_site_fract_x
 _atom_site_fract_y
 _atom_site_fract_z
 _atom_site_occupancy
  Sr  Sr0  1  0.25000000  0.06381227  0.89384335  1
  Sr  Sr1  1  0.75000000  0.93461963  0.10520659  1
  Sr  Sr2  1  0.25000000  0.56486142  0.60598958  1
  Sr  Sr3  1  0.75000000  0.43654086  0.39409396  1
  Sr  Sr4  1  0.25000000  0.84491553  0.49625217  1
  Sr  Sr5  1  0.75000000  0.15439315  0.50419570  1
  Sr  Sr6  1  0.25000000  0.34571665  0.00359445  1
  Ca  Ca0  1  0.75000000  0.65442964  0.99849399  1
  Ca  Ca1  1  0.75000000  0.23030722  0.21478080  1
  Ca  Ca2  1  0.25000000  0.76897604  0.78735758  1
  Ca  Ca3  1  0.75000000  0.72821822  0.28082600  1
  Ca  Ca4  1  0.25000000  0.27144900  0.71616099  1
  Sc  Sc0  1  0.25000000  0.05538180  0.29539343  1
  Sc  Sc1  1  0.75000000  0.94370104  0.70543936  1
  Sc  Sc2  1  0.25000000  0.55467196  0.20207085  1
  Sc  Sc3  1  0.75000000  0.44791491  0.79843696  1
  Sb  Sb0  1  0.25000000  0.25116974  0.36737753  1
  Sb  Sb1  1  0.75000000  0.74857145  0.63346804  1
  Sb  Sb2  1  0.25000000  0.74762854  0.12535300  1
  Sb  Sb3  1  0.75000000  0.25015589  0.86756094  1
  Sb  Sb4  1  0.25000000  0.11372022  0.11358818  1
  Sb  Sb5  1  0.75000000  0.88402975  0.88750268  1
  Sb  Sb6  1  0.25000000  0.61463901  0.38430666  1
  Sb  Sb7  1  0.75000000  0.38792079  0.61529543  1
  Sb  Sb8  1  0.25000000  0.04510568  0.64646932  1
  Sb  Sb9  1  0.75000000  0.95331291  0.35303832  1
  Sb  Sb10  1  0.25000000  0.54775990  0.86055343  1
  Sb  Sb11  1  0.75000000  0.45607180  0.14335070  1
loop_
_geom_bond_atom_site_label_1
_geom_bond_atom_site_label_2
_geom_bond_distance
_geom_bond_site_symmetry_2
Ca0 Sb2 3.283960 1_656
Ca0 Sb2 3.283960 1_556
Ca0 Sb11 3.430444 1_556
Ca0 Sb10 3.453680 1_655
Ca0 Sb10 3.453680 1_555
Ca0 Sb5 3.491633 1_555
Ca1 Sb11 3.200920 1_555
Ca1 Sb4 3.214831 1_555
Ca1 Sb4 3.214831 1_655
Ca1 Sb0 3.307817 1_555
Ca1 Sb0 3.307817 1_655
Ca2 Sb10 3.152956 1_555
Ca2 Sb5 3.197520 1_555
Ca2 Sb5 3.197520 1_455
Ca2 Sb1 3.320833 1_455
Ca2 Sb1 3.320833 1_555
Ca3 Sb9 3.195672 1_555
Ca3 Sb6 3.212689 1_555
Ca3 Sb6 3.212689 1_655
Ca3 Sb2 3.336566 1_555
Ca3 Sb2 3.336566 1_655
Ca4 Sb8 3.198748 1_555
Ca4 Sb7 3.212341 1_555
Ca4 Sb7 3.212341 1_455
Ca4 Sb3 3.295997 1_455
Ca4 Sb3 3.295997 1_555
Sb0 Sc0 2.829428 1_555
Sb0 Sr5 3.391704 1_555
Sb0 Sr5 3.391704 1_455
Sb0 Sr3 3.447439 1_455
Sb0 Sr3 3.447439 1_555
Sb1 Sc1 2.821234 1_555
Sb1 Sr4 3.393142 1_655
Sb1 Sr4 3.393142 1_555
Sb1 Sr2 3.432906 1_555
Sb1 Sr2 3.432906 1_655
Sb2 Sc2 2.823688 1_555
Sb2 Sr1 3.453134 1_455
Sb2 Sr1 3.453134 1_555
Sb3 Sc3 2.838500 1_555
Sb3 Sr6 3.377775 1_556
Sb3 Sr6 3.377775 1_656
Sb3 Sr0 3.456249 1_555
Sb3 Sr0 3.456249 1_655
Sb4 Sc0 2.843638 1_555
Sb4 Sr1 3.366342 1_545
Sb4 Sr1 3.366342 1_445
Sb4 Sr0 3.371454 1_554
Sb4 Sr6 3.512675 1_555
Sb5 Sc1 2.852300 1_555
Sb5 Sr1 3.343192 1_556
Sb5 Sr0 3.371818 1_565
Sb5 Sr0 3.371818 1_665
Sb6 Sc2 2.855291 1_555
Sb6 Sr3 3.357782 1_455
Sb6 Sr3 3.357782 1_555
Sb6 Sr2 3.400209 1_555
Sb6 Sr4 3.505278 1_555
Sb7 Sc3 2.868470 1_555
Sb7 Sr2 3.346538 1_555
Sb7 Sr2 3.346538 1_655
Sb7 Sr3 3.390107 1_555
Sb7 Sr5 3.537394 1_555
Sb8 Sc1 2.866685 1_445
Sb8 Sc1 2.866685 1_545
Sb8 Sr4 3.499527 1_545
Sb8 Sr5 3.508305 1_455
Sb8 Sr5 3.508305 1_555
Sb8 Sr0 3.729038 1_555
Sb9 Sc0 2.864788 1_565
Sb9 Sc0 2.864788 1_665
Sb9 Sr4 3.512033 1_555
Sb9 Sr4 3.512033 1_655
Sb9 Sr5 3.517731 1_565
Sb9 Sr1 3.735895 1_555
Sb10 Sc3 2.871615 1_555
Sb10 Sc3 2.871615 1_455
Sb10 Sr6 3.451501 1_556
Sb10 Sr2 3.835797 1_555
Sb11 Sc2 2.847691 1_555
Sb11 Sc2 2.847691 1_655
Sb11 Sr6 3.490629 1_655
Sb11 Sr6 3.490629 1_555
Sb11 Sr3 3.780547 1_555
