# generated using pymatgen
data_FeCoRhO4
_symmetry_space_group_name_H-M   'P 1'
_cell_length_a   5.97421797
_cell_length_b   5.94890475
_cell_length_c   5.97421759
_cell_angle_alpha   60.14006166
_cell_angle_beta   60.89094378
_cell_angle_gamma   60.14006621
_symmetry_Int_Tables_number   1
_chemical_formula_structural   FeCoRhO4
_chemical_formula_sum   'Fe2 Co2 Rh2 O8'
_cell_volume   151.44397145
_cell_formula_units_Z   2
loop_
 _symmetry_equiv_pos_site_id
 _symmetry_equiv_pos_as_xyz
  1  'x, y, z'
loop_
 _atom_site_type_symbol
 _atom_site_label
 _atom_site_symmetry_multiplicity
 _atom_site_fract_x
 _atom_site_fract_y
 _atom_site_fract_z
 _atom_site_occupancy
  Fe  Fe0  1  0.12500000  0.12500000  0.12500000  1
  Fe  Fe1  1  0.12500000  0.62500000  0.12500000  1
  Co  Co0  1  0.50307466  0.49692534  0.50307466  1
  Co  Co1  1  0.74692534  0.75307466  0.74692534  1
  Rh  Rh0  1  0.62500000  0.12500000  0.12500000  1
  Rh  Rh1  1  0.12500000  0.12500000  0.62500000  1
  O  O0  1  0.36804044  0.36422178  0.36804044  1
  O  O1  1  0.34811059  0.88121869  0.88945304  1
  O  O2  1  0.88945304  0.88121869  0.34811059  1
  O  O3  1  0.88195956  0.35030266  0.88195956  1
  O  O4  1  0.36054696  0.36878131  0.90188941  1
  O  O5  1  0.36804044  0.89969734  0.36804044  1
  O  O6  1  0.88195956  0.88577822  0.88195956  1
  O  O7  1  0.90188941  0.36878131  0.36054696  1
loop_
_geom_bond_atom_site_label_1
_geom_bond_atom_site_label_2
_geom_bond_distance
_geom_bond_site_symmetry_2
Fe0 O4 2.035292 1_554
Fe0 O2 2.035292 1_445
Fe0 O7 2.035292 1_455
Fe0 O1 2.035292 1_544
Fe0 O5 2.046558 1_545
Fe0 O3 2.046558 1_454
Fe1 O1 2.035296 1_554
Fe1 O7 2.035296 1_455
Fe1 O2 2.035296 1_455
Fe1 O4 2.035296 1_554
Fe1 O0 2.046558 1_555
Fe1 O6 2.046558 1_454
Co0 O0 1.956105 1_555
Co0 O5 1.956105 1_555
Co0 O4 1.961337 1_555
Co0 O7 1.961337 1_555
Co1 O6 1.956105 1_555
Co1 O3 1.956105 1_555
Co1 O2 1.961337 1_555
Co1 O1 1.961337 1_555
O0 Rh1 2.050265 1_555
O0 Rh0 2.050266 1_555
O1 Rh1 2.053887 1_565
O2 Rh0 2.053887 1_565
O3 Rh0 2.050265 1_556
O3 Rh1 2.050265 1_655
O4 Rh0 2.053887 1_556
O5 Rh0 2.050265 1_565
O5 Rh1 2.050265 1_565
O6 Rh1 2.050265 1_665
O6 Rh0 2.050266 1_566
O7 Rh1 2.053887 1_655
