# generated using pymatgen
data_Zr9In14Co6Re
_symmetry_space_group_name_H-M   'P 1'
_cell_length_a   9.40204607
_cell_length_b   9.40204665
_cell_length_c   9.40204673
_cell_angle_alpha   60.00000314
_cell_angle_beta   60.00000109
_cell_angle_gamma   60.00000673
_symmetry_Int_Tables_number   1
_chemical_formula_structural   Zr9In14Co6Re
_chemical_formula_sum   'Zr9 In14 Co6 Re1'
_cell_volume   587.69530306
_cell_formula_units_Z   1
loop_
 _symmetry_equiv_pos_site_id
 _symmetry_equiv_pos_as_xyz
  1  'x, y, z'
loop_
 _atom_site_type_symbol
 _atom_site_label
 _atom_site_symmetry_multiplicity
 _atom_site_fract_x
 _atom_site_fract_y
 _atom_site_fract_z
 _atom_site_occupancy
  Zr  Zr0  1  0.12181808  0.63454577  0.12181808  1
  Zr  Zr1  1  0.36545423  0.87818192  0.87818192  1
  Zr  Zr2  1  0.87818192  0.87818192  0.87818192  1
  Zr  Zr3  1  0.63454577  0.12181808  0.12181808  1
  Zr  Zr4  1  0.50000000  0.50000000  0.50000000  1
  Zr  Zr5  1  0.87818192  0.87818192  0.36545423  1
  Zr  Zr6  1  0.12181808  0.12181808  0.12181808  1
  Zr  Zr7  1  0.87818192  0.36545423  0.87818192  1
  Zr  Zr8  1  0.12181808  0.12181808  0.63454577  1
  In  In0  1  0.50000000  0.84150584  0.15849416  1
  In  In1  1  0.50000000  0.84150584  0.50000000  1
  In  In2  1  0.50000000  0.15849416  0.50000000  1
  In  In3  1  0.50000000  0.50000000  0.84150584  1
  In  In4  1  0.15849416  0.50000000  0.50000000  1
  In  In5  1  0.84150584  0.15849416  0.50000000  1
  In  In6  1  0.15849416  0.84150584  0.50000000  1
  In  In7  1  0.50000000  0.15849416  0.84150584  1
  In  In8  1  0.15849416  0.50000000  0.84150584  1
  In  In9  1  0.50000000  0.50000000  0.15849416  1
  In  In10  1  0.84150584  0.50000000  0.50000000  1
  In  In11  1  0.84150584  0.50000000  0.15849416  1
  In  In12  1  0.25000000  0.25000000  0.25000000  1
  In  In13  1  0.75000000  0.75000000  0.75000000  1
  Co  Co0  1  0.77635206  0.77635206  0.22364794  1
  Co  Co1  1  0.22364794  0.77635206  0.22364794  1
  Co  Co2  1  0.22364794  0.77635206  0.77635206  1
  Co  Co3  1  0.22364794  0.22364794  0.77635206  1
  Co  Co4  1  0.77635206  0.22364794  0.77635206  1
  Co  Co5  1  0.77635206  0.22364794  0.22364794  1
  Re  Re0  1  0.00000000  0.00000000  0.00000000  1
loop_
_geom_bond_atom_site_label_1
_geom_bond_atom_site_label_2
_geom_bond_distance
_geom_bond_site_symmetry_2
In0 In7 2.980339 1_564
In0 In6 3.210854 1_555
In0 In9 3.210854 1_555
In0 In1 3.210854 1_555
In0 Zr4 3.210854 1_555
In0 In11 3.210854 1_555
In0 Zr3 3.264042 1_565
In0 Zr2 3.264042 1_554
In0 Zr1 3.264042 1_554
In0 Zr6 3.264042 1_565
In1 In2 2.980339 1_565
In1 In6 3.210854 1_555
In1 Zr4 3.210854 1_555
In1 In3 3.210854 1_555
In1 In10 3.210854 1_555
In1 Zr5 3.264042 1_555
In1 Zr3 3.264042 1_565
In1 Zr1 3.264042 1_555
In1 Zr8 3.264042 1_565
In2 In5 3.210854 1_555
In2 Zr4 3.210854 1_555
In2 In7 3.210854 1_555
In2 In9 3.210854 1_555
In2 In4 3.210854 1_555
In2 Zr8 3.264042 1_555
In2 Zr1 3.264042 1_545
In2 Zr3 3.264042 1_555
In2 Zr5 3.264042 1_545
In3 In9 2.980339 1_556
In3 In8 3.210854 1_555
In3 In7 3.210854 1_555
In3 Zr4 3.210854 1_555
In3 Zr7 3.264042 1_555
In3 Zr0 3.264042 1_556
In3 Zr1 3.264042 1_555
In3 Zr3 3.264042 1_556
In4 Zr4 3.210854 1_555
In4 In9 3.210854 1_555
In4 In6 3.210854 1_555
In4 In8 3.210854 1_555
In4 Zr7 3.264042 1_455
In4 Zr8 3.264042 1_555
In4 Zr0 3.264042 1_555
In4 Zr5 3.264042 1_455
In5 In6 2.980339 1_645
In5 In7 3.210854 1_555
In5 Zr4 3.210854 1_555
In5 Zr8 3.264042 1_655
In5 Zr5 3.264042 1_545
In5 Zr6 3.264042 1_655
In5 Zr2 3.264042 1_545
In6 In8 3.210854 1_555
In6 Zr4 3.210854 1_555
In6 Zr5 3.264042 1_455
In6 Zr8 3.264042 1_565
In6 Zr2 3.264042 1_455
In6 Zr6 3.264042 1_565
In7 Zr4 3.210854 1_555
In7 In8 3.210854 1_555
In7 Zr1 3.264042 1_545
In7 Zr6 3.264042 1_556
In7 Zr3 3.264042 1_556
In7 Zr2 3.264042 1_545
In8 Zr4 3.210854 1_555
In8 Zr7 3.264042 1_455
In8 Zr0 3.264042 1_556
In8 Zr6 3.264042 1_556
In8 Zr2 3.264042 1_455
In9 Zr4 3.210854 1_555
In9 Zr0 3.264042 1_555
In9 Zr7 3.264042 1_554
In9 Zr3 3.264042 1_555
In9 Zr1 3.264042 1_554
In10 In4 2.980339 1_655
In10 Zr4 3.210854 1_555
In10 In3 3.210854 1_555
In10 In5 3.210854 1_555
In10 In11 3.210854 1_555
In10 Zr0 3.264042 1_655
In10 Zr5 3.264042 1_555
In10 Zr7 3.264042 1_555
In10 Zr8 3.264042 1_655
In11 In8 2.980339 1_654
In11 In9 3.210854 1_555
In11 Zr4 3.210854 1_555
In11 In5 3.210854 1_555
In11 Zr0 3.264042 1_655
In11 Zr7 3.264042 1_554
In11 Zr2 3.264042 1_554
In11 Zr6 3.264042 1_655
In12 Zr6 2.952057 1_555
In12 Zr3 2.952057 1_555
In12 Zr8 2.952058 1_555
In12 Zr0 2.952058 1_555
In13 Zr2 2.952057 1_555
In13 Zr1 2.952057 1_555
In13 Zr5 2.952058 1_555
In13 Zr7 2.952058 1_555
Co0 Zr5 2.660916 1_555
Co0 Zr0 2.660916 1_655
Co0 Zr2 2.660916 1_554
Co0 Zr3 2.660916 1_565
Co0 In0 2.669510 1_555
Co0 In1 2.669510 1_555
Co0 In11 2.669510 1_555
Co0 In10 2.669511 1_555
Co1 Zr0 2.660916 1_555
Co1 Zr5 2.660916 1_455
Co1 Zr1 2.660916 1_554
Co1 Zr6 2.660916 1_565
Co1 In0 2.669510 1_555
Co1 In6 2.669510 1_555
Co1 In4 2.669510 1_555
Co1 In9 2.669511 1_555
Co2 Zr1 2.660916 1_555
Co2 Zr2 2.660916 1_455
Co2 Zr0 2.660916 1_556
Co2 Zr8 2.660916 1_565
Co2 In1 2.669510 1_555
Co2 In8 2.669510 1_555
Co2 In6 2.669510 1_555
Co2 In3 2.669511 1_555
Co3 Zr8 2.660916 1_555
Co3 Zr7 2.660916 1_455
Co3 Zr6 2.660916 1_556
Co3 Zr1 2.660916 1_545
Co3 In7 2.669510 1_555
Co3 In2 2.669510 1_555
Co3 In8 2.669510 1_555
Co3 In4 2.669511 1_555
Co4 Zr7 2.660916 1_555
Co4 Zr8 2.660916 1_655
Co4 Zr3 2.660916 1_556
Co4 Zr2 2.660916 1_545
Co4 In7 2.669510 1_555
Co4 In5 2.669510 1_555
Co4 In10 2.669510 1_555
Co4 In3 2.669511 1_555
Co5 Zr3 2.660916 1_555
Co5 Zr6 2.660916 1_655
Co5 Zr7 2.660916 1_554
Co5 Zr5 2.660916 1_545
Co5 In2 2.669510 1_555
Co5 In11 2.669510 1_555
Co5 In5 2.669510 1_555
Co5 In9 2.669511 1_555
Re0 Zr6 2.805497 1_555
Re0 Zr2 2.805497 1_444
Re0 Zr1 2.805497 1_544
Re0 Zr3 2.805497 1_455
Re0 Zr5 2.805497 1_445
Re0 Zr8 2.805497 1_554
Re0 Zr7 2.805497 1_454
Re0 Zr0 2.805497 1_545
