# generated using pymatgen
data_Y9Mg(Ga2Hg)2
_symmetry_space_group_name_H-M   'P 1'
_cell_length_a   7.50826774
_cell_length_b   7.50826774
_cell_length_c   14.71581150
_cell_angle_alpha   90.00000000
_cell_angle_beta   90.00000000
_cell_angle_gamma   90.00000000
_symmetry_Int_Tables_number   1
_chemical_formula_structural   Y9Mg(Ga2Hg)2
_chemical_formula_sum   'Y18 Mg2 Ga8 Hg4'
_cell_volume   829.59040081
_cell_formula_units_Z   2
loop_
 _symmetry_equiv_pos_site_id
 _symmetry_equiv_pos_as_xyz
  1  'x, y, z'
loop_
 _atom_site_type_symbol
 _atom_site_label
 _atom_site_symmetry_multiplicity
 _atom_site_fract_x
 _atom_site_fract_y
 _atom_site_fract_z
 _atom_site_occupancy
  Y  Y0  1  0.82312382  0.83304358  0.89224818  1
  Y  Y1  1  0.17804748  0.16550958  0.60750956  1
  Y  Y2  1  0.83449042  0.17804748  0.39249044  1
  Y  Y3  1  0.16550958  0.82195252  0.39249044  1
  Y  Y4  1  0.32195252  0.33449042  0.39249044  1
  Y  Y5  1  0.83304358  0.17687618  0.10775182  1
  Y  Y6  1  0.33304358  0.67687618  0.89224818  1
  Y  Y7  1  0.16695642  0.82312382  0.10775182  1
  Y  Y8  1  0.33449042  0.67804748  0.60750956  1
  Y  Y9  1  0.67687618  0.66695642  0.10775182  1
  Y  Y10  1  0.66550958  0.32195252  0.60750956  1
  Y  Y11  1  0.00000000  0.50000000  0.74865188  1
  Y  Y12  1  0.82195252  0.83449042  0.60750956  1
  Y  Y13  1  0.66695642  0.32312382  0.89224818  1
  Y  Y14  1  0.17687618  0.16695642  0.89224818  1
  Y  Y15  1  0.50000000  0.00000000  0.25134812  1
  Y  Y16  1  0.67804748  0.66550958  0.39249044  1
  Y  Y17  1  0.32312382  0.33304358  0.10775182  1
  Mg  Mg0  1  0.50000000  0.00000000  0.75109203  1
  Mg  Mg1  1  0.00000000  0.50000000  0.24890797  1
  Ga  Ga0  1  0.62107280  0.37721995  0.25007170  1
  Ga  Ga1  1  0.37892720  0.62278005  0.25007170  1
  Ga  Ga2  1  0.12278005  0.12107280  0.25007170  1
  Ga  Ga3  1  0.37721995  0.37892720  0.74992830  1
  Ga  Ga4  1  0.12107280  0.87721995  0.74992830  1
  Ga  Ga5  1  0.87721995  0.87892720  0.25007170  1
  Ga  Ga6  1  0.62278005  0.62107280  0.74992830  1
  Ga  Ga7  1  0.87892720  0.12278005  0.74992830  1
  Hg  Hg0  1  0.00000000  0.50000000  0.99567663  1
  Hg  Hg1  1  0.50000000  0.00000000  0.00432337  1
  Hg  Hg2  1  0.50000000  0.00000000  0.49448281  1
  Hg  Hg3  1  0.00000000  0.50000000  0.50551719  1
loop_
_geom_bond_atom_site_label_1
_geom_bond_atom_site_label_2
_geom_bond_distance
_geom_bond_site_symmetry_2
Ga0 Ga1 2.589365 1_555
Ga0 Y15 2.974637 1_555
Ga0 Mg1 2.990761 1_655
Ga0 Y5 3.030184 1_555
Ga0 Y2 3.032561 1_555
Ga0 Y16 3.043141 1_555
Ga0 Y9 3.048657 1_555
Ga0 Y17 3.082347 1_555
Ga0 Y4 3.088574 1_555
Ga1 Y15 2.974637 1_565
Ga1 Mg1 2.990761 1_555
Ga1 Y7 3.030184 1_555
Ga1 Y3 3.032561 1_555
Ga1 Y4 3.043141 1_555
Ga1 Y17 3.048657 1_555
Ga1 Y9 3.082347 1_555
Ga1 Y16 3.088574 1_555
Ga2 Ga5 2.589365 1_445
Ga2 Y15 2.974637 1_555
Ga2 Mg1 2.990761 1_555
Ga2 Y17 3.030184 1_555
Ga2 Y4 3.032561 1_555
Ga2 Y2 3.043141 1_455
Ga2 Y5 3.048657 1_455
Ga2 Y7 3.082347 1_545
Ga2 Y3 3.088574 1_545
Ga3 Ga6 2.589365 1_555
Ga3 Y11 2.974637 1_555
Ga3 Mg0 2.990761 1_555
Ga3 Y14 3.030184 1_555
Ga3 Y1 3.032561 1_555
Ga3 Y10 3.043141 1_555
Ga3 Y13 3.048657 1_555
Ga3 Y6 3.082347 1_555
Ga3 Y8 3.088574 1_555
Ga4 Ga7 2.589365 1_465
Ga4 Y11 2.974637 1_555
Ga4 Mg0 2.990761 1_565
Ga4 Y6 3.030184 1_555
Ga4 Y8 3.032561 1_555
Ga4 Y1 3.043141 1_565
Ga4 Y14 3.048657 1_565
Ga4 Y0 3.082347 1_455
Ga4 Y12 3.088574 1_455
Ga5 Y15 2.974637 1_565
Ga5 Mg1 2.990761 1_655
Ga5 Y9 3.030184 1_555
Ga5 Y16 3.032561 1_555
Ga5 Y3 3.043141 1_655
Ga5 Y7 3.048657 1_655
Ga5 Y5 3.082347 1_565
Ga5 Y2 3.088574 1_565
Ga6 Y11 2.974637 1_655
Ga6 Mg0 2.990761 1_565
Ga6 Y0 3.030184 1_555
Ga6 Y12 3.032561 1_555
Ga6 Y8 3.043141 1_555
Ga6 Y6 3.048657 1_555
Ga6 Y13 3.082347 1_555
Ga6 Y10 3.088574 1_555
Ga7 Y11 2.974637 1_655
Ga7 Mg0 2.990761 1_555
Ga7 Y13 3.030184 1_555
Ga7 Y10 3.032561 1_555
Ga7 Y12 3.043141 1_545
Ga7 Y0 3.048657 1_545
Ga7 Y14 3.082347 1_655
Ga7 Y1 3.088574 1_655
Hg0 Y17 3.190215 1_556
Hg0 Y7 3.190215 1_556
Hg0 Y5 3.190215 1_456
Hg0 Y9 3.190215 1_456
Hg0 Y14 3.214524 1_555
Hg0 Y6 3.214524 1_555
Hg0 Y13 3.214524 1_455
Hg0 Y0 3.214524 1_455
Hg0 Y11 3.635170 1_555
Hg1 Y0 3.190215 1_544
Hg1 Y13 3.190215 1_554
Hg1 Y6 3.190215 1_544
Hg1 Y14 3.190215 1_554
Hg1 Y9 3.214524 1_545
Hg1 Y5 3.214524 1_555
Hg1 Y17 3.214524 1_555
Hg1 Y7 3.214524 1_545
Hg1 Y15 3.635170 1_555
Hg2 Y1 3.186557 1_555
Hg2 Y10 3.186557 1_555
Hg2 Y8 3.186557 1_545
Hg2 Y12 3.186557 1_545
Hg2 Y4 3.216700 1_555
Hg2 Y2 3.216700 1_555
Hg2 Y3 3.216700 1_545
Hg2 Y16 3.216700 1_545
Hg2 Y15 3.577924 1_555
Hg3 Y16 3.186557 1_455
Hg3 Y3 3.186557 1_555
Hg3 Y2 3.186557 1_455
Hg3 Y4 3.186557 1_555
Hg3 Y12 3.216700 1_455
Hg3 Y8 3.216700 1_555
Hg3 Y1 3.216700 1_555
Hg3 Y10 3.216700 1_455
Hg3 Y11 3.577924 1_555
