# generated using pymatgen
data_CsTcP2Ir
_symmetry_space_group_name_H-M   'P 1'
_cell_length_a   7.65553265
_cell_length_b   7.65553231
_cell_length_c   7.65553264
_cell_angle_alpha   149.27442264
_cell_angle_beta   149.27441924
_cell_angle_gamma   44.00753092
_symmetry_Int_Tables_number   1
_chemical_formula_structural   CsTcP2Ir
_chemical_formula_sum   'Cs1 Tc1 P2 Ir1'
_cell_volume   116.78917808
_cell_formula_units_Z   1
loop_
 _symmetry_equiv_pos_site_id
 _symmetry_equiv_pos_as_xyz
  1  'x, y, z'
loop_
 _atom_site_type_symbol
 _atom_site_label
 _atom_site_symmetry_multiplicity
 _atom_site_fract_x
 _atom_site_fract_y
 _atom_site_fract_z
 _atom_site_occupancy
  Cs  Cs0  1  0.00000000  0.00000000  0.00000000  1
  Tc  Tc0  1  0.75000000  0.25000000  0.50000000  1
  P  P0  1  0.33047145  0.33047145  1.00000000  1
  P  P1  1  0.66952855  0.66952855  0.00000000  1
  Ir  Ir0  1  0.25000000  0.75000000  0.50000000  1
loop_
_geom_bond_atom_site_label_1
_geom_bond_atom_site_label_2
_geom_bond_distance
_geom_bond_site_symmetry_2
Cs0 P1 3.744157 1_556
Cs0 P0 3.744157 1_443
Cs0 P1 3.744157 1_455
Cs0 P0 3.744157 1_544
Cs0 P1 3.744157 1_444
Cs0 P0 3.744157 1_555
Cs0 P1 3.744158 1_545
Cs0 P0 3.744158 1_454
P0 Tc0 2.327765 1_455
P0 Tc0 2.327765 1_556
P1 Tc0 2.327765 1_565
P1 Tc0 2.327765 1_554
Ir0 P0 2.327765 1_565
Ir0 P0 2.327765 1_554
Ir0 P1 2.327765 1_455
Ir0 P1 2.327765 1_556
