# generated using pymatgen
data_Y7ReO14
_symmetry_space_group_name_H-M   'P 1'
_cell_length_a   7.57337900
_cell_length_b   7.63039800
_cell_length_c   10.67491300
_cell_angle_alpha   90.00000000
_cell_angle_beta   90.00000000
_cell_angle_gamma   90.00000000
_symmetry_Int_Tables_number   1
_chemical_formula_structural   Y7ReO14
_chemical_formula_sum   'Y14 Re2 O28'
_cell_volume   616.88076198
_cell_formula_units_Z   2
loop_
 _symmetry_equiv_pos_site_id
 _symmetry_equiv_pos_as_xyz
  1  'x, y, z'
loop_
 _atom_site_type_symbol
 _atom_site_label
 _atom_site_symmetry_multiplicity
 _atom_site_fract_x
 _atom_site_fract_y
 _atom_site_fract_z
 _atom_site_occupancy
  Y  Y0  1  0.00000000  0.00000000  0.00000000  1
  Y  Y1  1  0.50000000  0.50000000  0.50000000  1
  Y  Y2  1  0.50000000  0.00000000  0.00000000  1
  Y  Y3  1  0.73289400  0.25853500  0.23538300  1
  Y  Y4  1  0.00000000  0.50000000  0.50000000  1
  Y  Y5  1  0.23289400  0.24146500  0.73538300  1
  Y  Y6  1  0.26710600  0.25853500  0.23538300  1
  Y  Y7  1  0.26710600  0.74146500  0.76461700  1
  Y  Y8  1  0.50000000  0.00000000  0.50000000  1
  Y  Y9  1  0.76710600  0.75853500  0.26461700  1
  Y  Y10  1  0.73289400  0.74146500  0.76461700  1
  Y  Y11  1  0.76710600  0.24146500  0.73538300  1
  Y  Y12  1  0.00000000  0.50000000  0.00000000  1
  Y  Y13  1  0.23289400  0.75853500  0.26461700  1
  Re  Re0  1  0.50000000  0.50000000  0.00000000  1
  Re  Re1  1  0.00000000  0.00000000  0.50000000  1
  O  O0  1  0.50000000  0.23182100  0.36267200  1
  O  O1  1  0.76983500  0.51084900  0.63459300  1
  O  O2  1  0.00000000  0.26817900  0.86267200  1
  O  O3  1  0.00000000  0.22520500  0.58126500  1
  O  O4  1  0.00000000  0.72607600  0.86565900  1
  O  O5  1  0.23016500  0.51084900  0.63459300  1
  O  O6  1  0.26983500  0.98915100  0.13459300  1
  O  O7  1  0.26983500  0.01084900  0.86540700  1
  O  O8  1  0.32062600  0.56327200  0.11205400  1
  O  O9  1  0.32062600  0.43672800  0.88794600  1
  O  O10  1  0.50000000  0.72520500  0.91873500  1
  O  O11  1  0.50000000  0.22607600  0.63434100  1
  O  O12  1  0.50000000  0.77392400  0.36565900  1
  O  O13  1  0.50000000  0.27479500  0.08126500  1
  O  O14  1  0.67937400  0.43672800  0.88794600  1
  O  O15  1  0.67937400  0.56327200  0.11205400  1
  O  O16  1  0.73016500  0.98915100  0.13459300  1
  O  O17  1  0.73016500  0.01084900  0.86540700  1
  O  O18  1  0.76983500  0.48915100  0.36540700  1
  O  O19  1  0.82062600  0.93672800  0.61205400  1
  O  O20  1  0.82062600  0.06327200  0.38794600  1
  O  O21  1  0.00000000  0.27392400  0.13434100  1
  O  O22  1  0.00000000  0.73182100  0.13732800  1
  O  O23  1  0.00000000  0.77479500  0.41873500  1
  O  O24  1  0.17937400  0.06327200  0.38794600  1
  O  O25  1  0.17937400  0.93672800  0.61205400  1
  O  O26  1  0.23016500  0.48915100  0.36540700  1
  O  O27  1  0.50000000  0.76817900  0.63732800  1
loop_
_geom_bond_atom_site_label_1
_geom_bond_atom_site_label_2
_geom_bond_distance
_geom_bond_site_symmetry_2
O0 Y6 2.235812 1_555
O0 Y3 2.235812 1_555
O0 Y8 2.297392 1_555
O0 Y1 2.517230 1_555
O1 Y10 2.258609 1_555
O1 Y4 2.260453 1_655
O1 Y11 2.320162 1_555
O1 Y1 2.499461 1_555
O2 Y5 2.235812 1_555
O2 Y11 2.235812 1_455
O2 Y12 2.297392 1_556
O2 Y0 2.517230 1_556
O3 Re1 1.924958 1_555
O3 Y4 2.269163 1_555
O3 Y11 2.415168 1_455
O3 Y5 2.415168 1_555
O4 Y12 2.243296 1_556
O4 Y10 2.295496 1_455
O4 Y7 2.295496 1_555
O4 Y0 2.534818 1_566
O5 Y7 2.258609 1_555
O5 Y4 2.260453 1_555
O5 Y5 2.320162 1_555
O5 Y1 2.499461 1_555
O6 Y13 2.258609 1_555
O6 Y2 2.260453 1_565
O6 Y6 2.320162 1_565
O6 Y0 2.499461 1_565
O7 Y5 2.258609 1_555
O7 Y2 2.260453 1_556
O7 Y7 2.320162 1_545
O7 Y0 2.499461 1_556
O8 Re0 1.873322 1_555
O8 Y13 2.305146 1_555
O8 Y6 2.702663 1_555
O8 Y12 2.749575 1_555
O9 Re0 1.873322 1_556
O9 Y5 2.305146 1_555
O9 Y7 2.702663 1_555
O9 Y12 2.749575 1_556
O10 Re0 1.924958 1_556
O10 Y2 2.269163 1_566
O10 Y7 2.415168 1_555
O10 Y10 2.415168 1_555
O11 Y8 2.243296 1_555
O11 Y5 2.295496 1_555
O11 Y11 2.295496 1_555
O11 Y1 2.534818 1_555
O12 Y8 2.243296 1_565
O12 Y9 2.295496 1_555
O12 Y13 2.295496 1_555
O12 Y1 2.534818 1_555
O13 Re0 1.924958 1_555
O13 Y2 2.269163 1_555
O13 Y6 2.415168 1_555
O13 Y3 2.415168 1_555
O14 Re0 1.873322 1_556
O14 Y11 2.305146 1_555
O14 Y10 2.702663 1_555
O14 Y12 2.749575 1_656
O15 Re0 1.873322 1_555
O15 Y9 2.305146 1_555
O15 Y3 2.702663 1_555
O15 Y12 2.749575 1_655
O16 Y9 2.258609 1_555
O16 Y2 2.260453 1_565
O16 Y3 2.320162 1_565
O16 Y0 2.499461 1_665
O17 Y11 2.258609 1_555
O17 Y2 2.260453 1_556
O17 Y10 2.320162 1_545
O17 Y0 2.499461 1_656
O18 Y3 2.258609 1_555
O18 Y4 2.260453 1_655
O18 Y9 2.320162 1_555
O18 Y1 2.499461 1_555
O19 Re1 1.873322 1_665
O19 Y10 2.305146 1_555
O19 Y11 2.702663 1_565
O19 Y8 2.749575 1_565
O20 Re1 1.873322 1_655
O20 Y3 2.305146 1_555
O20 Y9 2.702663 1_545
O20 Y8 2.749575 1_555
O21 Y12 2.243296 1_555
O21 Y3 2.295496 1_455
O21 Y6 2.295496 1_555
O21 Y0 2.534818 1_555
O22 Y13 2.235812 1_555
O22 Y9 2.235812 1_455
O22 Y12 2.297392 1_555
O22 Y0 2.517230 1_565
O23 Re1 1.924958 1_565
O23 Y4 2.269163 1_555
O23 Y9 2.415168 1_455
O23 Y13 2.415168 1_555
O24 Re1 1.873322 1_555
O24 Y6 2.305146 1_555
O24 Y13 2.702663 1_545
O24 Y8 2.749575 1_555
O25 Re1 1.873322 1_565
O25 Y7 2.305146 1_555
O25 Y5 2.702663 1_565
O25 Y8 2.749575 1_565
O26 Y6 2.258609 1_555
O26 Y4 2.260453 1_555
O26 Y13 2.320162 1_555
O26 Y1 2.499461 1_555
O27 Y7 2.235812 1_555
O27 Y10 2.235812 1_555
O27 Y8 2.297392 1_565
O27 Y1 2.517230 1_555
