# generated using pymatgen
data_Cs3Hf2AgTe10
_symmetry_space_group_name_H-M   'P 1'
_cell_length_a   10.14852764
_cell_length_b   11.23824856
_cell_length_c   11.46987389
_cell_angle_alpha   88.54456283
_cell_angle_beta   89.88625755
_cell_angle_gamma   78.08514103
_symmetry_Int_Tables_number   1
_chemical_formula_structural   Cs3Hf2AgTe10
_chemical_formula_sum   'Cs6 Hf4 Ag2 Te20'
_cell_volume   1279.55464920
_cell_formula_units_Z   2
loop_
 _symmetry_equiv_pos_site_id
 _symmetry_equiv_pos_as_xyz
  1  'x, y, z'
loop_
 _atom_site_type_symbol
 _atom_site_label
 _atom_site_symmetry_multiplicity
 _atom_site_fract_x
 _atom_site_fract_y
 _atom_site_fract_z
 _atom_site_occupancy
  Cs  Cs0  1  0.87814569  0.89123908  0.25629895  1
  Cs  Cs1  1  0.12185431  0.10876092  0.74370105  1
  Cs  Cs2  1  0.44324904  0.76540765  0.38630263  1
  Cs  Cs3  1  0.55675096  0.23459235  0.61369737  1
  Cs  Cs4  1  0.30058648  0.62848733  0.89114324  1
  Cs  Cs5  1  0.69941352  0.37151267  0.10885676  1
  Hf  Hf0  1  0.10648265  0.37695307  0.36364689  1
  Hf  Hf1  1  0.89351735  0.62304693  0.63635311  1
  Hf  Hf2  1  0.30940126  0.15696704  0.14440187  1
  Hf  Hf3  1  0.69059874  0.84303296  0.85559813  1
  Ag  Ag0  1  0.90872059  0.36070301  0.56437906  1
  Ag  Ag1  1  0.09127941  0.63929699  0.43562094  1
  Te  Te0  1  0.83948897  0.56328692  0.39833656  1
  Te  Te1  1  0.16051103  0.43671308  0.60166344  1
  Te  Te2  1  0.92769323  0.20000518  0.39130987  1
  Te  Te3  1  0.07230677  0.79999482  0.60869013  1
  Te  Te4  1  0.19963250  0.58229058  0.22486725  1
  Te  Te5  1  0.80036750  0.41770942  0.77513275  1
  Te  Te6  1  0.21210474  0.11652083  0.38919836  1
  Te  Te7  1  0.78789526  0.88347917  0.61080164  1
  Te  Te8  1  0.07965076  0.36038462  0.10901341  1
  Te  Te9  1  0.92034924  0.63961538  0.89098659  1
  Te  Te10  1  0.39036542  0.35371588  0.29149312  1
  Te  Te11  1  0.60963458  0.64628412  0.70850688  1
  Te  Te12  1  0.04482358  0.12319290  0.06717399  1
  Te  Te13  1  0.95517642  0.87680710  0.93282601  1
  Te  Te14  1  0.52506544  0.08721041  0.30789280  1
  Te  Te15  1  0.47493456  0.91278959  0.69210720  1
  Te  Te16  1  0.33220270  0.91329534  0.06835366  1
  Te  Te17  1  0.66779730  0.08670466  0.93164634  1
  Te  Te18  1  0.41053377  0.24503551  0.93356102  1
  Te  Te19  1  0.58946623  0.75496449  0.06643898  1
loop_
_geom_bond_atom_site_label_1
_geom_bond_atom_site_label_2
_geom_bond_distance
_geom_bond_site_symmetry_2
Cs0 Te13 3.790735 1_554
Cs0 Te14 3.852206 1_565
Cs0 Te2 3.960837 1_565
Cs0 Te12 3.985092 1_665
Cs0 Te0 4.084266 1_555
Cs0 Te7 4.168915 1_555
Cs0 Te19 4.209285 1_555
Cs0 Te4 4.267451 1_655
Cs1 Te12 3.790735 1_556
Cs1 Te15 3.852206 1_545
Cs1 Te3 3.960837 1_545
Cs1 Te13 3.985092 1_445
Cs1 Te1 4.084266 1_555
Cs1 Te6 4.168915 1_555
Cs1 Te18 4.209285 1_555
Cs1 Te5 4.267451 1_455
Cs2 Te19 3.950204 1_555
Cs2 Te14 3.955889 1_565
Cs2 Te15 3.958426 1_555
Cs2 Te4 4.011075 1_555
Cs2 Te16 4.033200 1_555
Cs2 Te11 4.140204 1_555
Cs2 Te6 4.154297 1_565
Cs2 Te0 4.190915 1_555
Cs2 Te3 4.498564 1_555
Cs3 Te18 3.950204 1_555
Cs3 Te15 3.955889 1_545
Cs3 Te14 3.958426 1_555
Cs3 Te5 4.011075 1_555
Cs3 Te17 4.033200 1_555
Cs3 Te10 4.140204 1_555
Cs3 Te7 4.154297 1_545
Cs3 Te1 4.190915 1_555
Cs3 Te2 4.498564 1_555
Cs4 Te11 3.804840 1_555
Cs4 Te9 3.834984 1_455
Cs4 Te16 3.903361 1_556
Cs4 Te4 4.009259 1_556
Cs4 Te13 4.040558 1_455
Cs4 Te19 4.067805 1_556
Cs4 Te3 4.176914 1_555
Cs4 Te18 4.238187 1_555
Cs4 Te1 4.397436 1_555
Cs5 Te10 3.804840 1_555
Cs5 Te8 3.834984 1_655
Cs5 Te17 3.903361 1_554
Cs5 Te5 4.009259 1_554
Cs5 Te12 4.040558 1_655
Cs5 Te18 4.067805 1_554
Cs5 Te2 4.176914 1_555
Cs5 Te19 4.238187 1_555
Cs5 Te0 4.397436 1_555
Hf0 Te1 2.907891 1_555
Hf0 Te6 2.909175 1_555
Hf0 Te8 2.947970 1_555
Hf0 Te10 2.957039 1_555
Hf0 Te2 2.966969 1_455
Hf0 Te4 3.075843 1_555
Hf0 Te0 3.095231 1_455
Hf1 Te0 2.907891 1_555
Hf1 Te7 2.909175 1_555
Hf1 Te9 2.947970 1_555
Hf1 Te11 2.957039 1_555
Hf1 Te3 2.966969 1_655
Hf1 Te5 3.075843 1_555
Hf1 Te1 3.095231 1_655
Hf2 Te14 2.855600 1_555
Hf2 Te18 2.858186 1_554
Hf2 Te16 2.858731 1_545
Hf2 Te8 2.929674 1_555
Hf2 Te12 2.930131 1_555
Hf2 Te6 3.028984 1_555
Hf2 Te10 3.058711 1_555
Hf3 Te15 2.855600 1_555
Hf3 Te19 2.858186 1_556
Hf3 Te17 2.858731 1_565
Hf3 Te9 2.929674 1_555
Hf3 Te13 2.930131 1_555
Hf3 Te7 3.028984 1_555
Hf3 Te11 3.058711 1_555
Ag0 Te5 2.690774 1_555
Ag0 Te2 2.697431 1_555
Ag0 Te1 2.892464 1_655
Ag0 Te0 2.903201 1_555
Ag0 Hf1 3.054997 1_555
Ag0 Hf0 3.077975 1_655
Ag0 Cs1 3.757492 1_655
Ag0 Cs3 4.138747 1_555
Ag1 Te4 2.690774 1_555
Ag1 Te3 2.697431 1_555
Ag1 Te0 2.892464 1_455
Ag1 Te1 2.903201 1_555
Ag1 Hf0 3.054997 1_555
Ag1 Hf1 3.077975 1_455
Ag1 Cs0 3.757492 1_455
Ag1 Cs2 4.138747 1_555
Te2 Te6 2.845099 1_655
Te3 Te7 2.845099 1_455
Te4 Te8 3.300948 1_555
Te5 Te9 3.300948 1_555
Te10 Te4 2.963513 1_555
Te10 Te14 3.025931 1_555
Te11 Te5 2.963513 1_555
Te11 Te15 3.025931 1_555
Te12 Te8 2.813438 1_555
Te13 Te9 2.813438 1_555
Te16 Te19 2.840181 1_555
Te17 Te18 2.840181 1_555
