# generated using pymatgen
data_Sr2Nb3Ni9P7
_symmetry_space_group_name_H-M   'P 1'
_cell_length_a   3.75902200
_cell_length_b   9.39709910
_cell_length_c   9.39709939
_cell_angle_alpha   120.00000102
_cell_angle_beta   90.00000000
_cell_angle_gamma   90.00000000
_symmetry_Int_Tables_number   1
_chemical_formula_structural   Sr2Nb3Ni9P7
_chemical_formula_sum   'Sr2 Nb3 Ni9 P7'
_cell_volume   287.47039224
_cell_formula_units_Z   1
loop_
 _symmetry_equiv_pos_site_id
 _symmetry_equiv_pos_as_xyz
  1  'x, y, z'
loop_
 _atom_site_type_symbol
 _atom_site_label
 _atom_site_symmetry_multiplicity
 _atom_site_fract_x
 _atom_site_fract_y
 _atom_site_fract_z
 _atom_site_occupancy
  Sr  Sr0  1  0.00000000  0.66666700  0.33333300  1
  Sr  Sr1  1  0.50000000  0.33333300  0.66666700  1
  Nb  Nb0  1  0.50000000  0.77762365  0.89325559  1
  Nb  Nb1  1  0.50000000  0.11563194  0.22237635  1
  Nb  Nb2  1  0.50000000  0.10674441  0.88436806  1
  Ni  Ni0  1  0.00000000  0.57383579  0.93896640  1
  Ni  Ni1  1  0.00000000  0.36512861  0.42616421  1
  Ni  Ni2  1  0.00000000  0.06103360  0.63487139  1
  Ni  Ni3  1  0.00000000  0.87216328  0.15206728  1
  Ni  Ni4  1  0.00000000  0.27990501  0.12783672  1
  Ni  Ni5  1  0.00000000  0.84793272  0.72009499  1
  Ni  Ni6  1  0.50000000  0.94674077  0.38641734  1
  Ni  Ni7  1  0.50000000  0.43967757  0.05325923  1
  Ni  Ni8  1  0.50000000  0.61358266  0.56032243  1
  P  P0  1  0.50000000  0.70785032  0.11116211  1
  P  P1  1  0.50000000  0.40331279  0.29214968  1
  P  P2  1  0.50000000  0.88883789  0.59668721  1
  P  P3  1  0.00000000  0.00000000  0.00000000  1
  P  P4  1  0.00000000  0.59074859  0.68933098  1
  P  P5  1  0.00000000  0.09858240  0.40925141  1
  P  P6  1  0.00000000  0.31066902  0.90141760  1
loop_
_geom_bond_atom_site_label_1
_geom_bond_atom_site_label_2
_geom_bond_distance
_geom_bond_site_symmetry_2
Nb0 P0 2.442444 1_556
Nb0 P3 2.609486 1_666
Nb0 P3 2.609486 1_566
Nb0 P4 2.631238 1_655
Nb0 P4 2.631238 1_555
Nb0 Ni8 2.709548 1_555
Nb0 Ni5 2.773444 1_555
Nb0 Ni5 2.773444 1_655
Nb0 Ni3 2.841860 1_556
Nb0 Ni3 2.841860 1_656
Nb0 Ni0 2.864777 1_555
Nb0 Ni0 2.864777 1_655
Nb1 P1 2.442453 1_555
Nb1 P3 2.609486 1_655
Nb1 P3 2.609486 1_555
Nb1 P5 2.631238 1_655
Nb1 P5 2.631238 1_555
Nb1 Ni6 2.709540 1_545
Nb1 Ni3 2.773437 1_645
Nb1 Ni3 2.773437 1_545
Nb1 Ni4 2.841866 1_555
Nb1 Ni4 2.841866 1_655
Nb1 Ni1 2.864768 1_655
Nb1 Ni1 2.864768 1_555
Nb2 P2 2.442450 1_545
Nb2 P3 2.609486 1_556
Nb2 P3 2.609486 1_656
Nb2 P6 2.631238 1_555
Nb2 P6 2.631238 1_655
Nb2 Ni7 2.709548 1_556
Nb2 Ni4 2.773439 1_656
Nb2 Ni4 2.773439 1_556
Nb2 Ni5 2.841861 1_645
Nb2 Ni5 2.841861 1_545
Nb2 Ni2 2.864763 1_555
Nb2 Ni2 2.864763 1_655
Ni0 P6 2.316820 1_555
Ni0 P0 2.387278 1_456
Ni0 P0 2.387278 1_556
Ni0 P4 2.429217 1_555
Ni0 Sr1 3.066734 1_455
Ni0 Sr1 3.066734 1_555
Ni0 Sr0 3.355871 1_556
Ni1 P4 2.316827 1_555
Ni1 P1 2.387289 1_455
Ni1 P1 2.387289 1_555
Ni1 P5 2.429198 1_555
Ni1 Sr1 3.066730 1_455
Ni1 Sr1 3.066730 1_555
Ni1 Sr0 3.355899 1_555
Ni2 P5 2.316838 1_555
Ni2 P2 2.387272 1_445
Ni2 P2 2.387272 1_545
Ni2 P6 2.429206 1_555
Ni2 Sr1 3.066737 1_455
Ni2 Sr1 3.066737 1_555
Ni2 Sr0 3.355880 1_545
Ni3 P3 2.280738 1_565
Ni3 P5 2.285986 1_565
Ni3 P0 2.339002 1_555
Ni3 P0 2.339002 1_455
Ni3 Sr0 3.149576 1_555
Ni4 P3 2.280746 1_555
Ni4 P6 2.285980 1_554
Ni4 P1 2.339002 1_555
Ni4 P1 2.339002 1_455
Ni4 Sr0 3.149576 1_555
Ni5 P3 2.280745 1_566
Ni5 P4 2.285990 1_555
Ni5 P2 2.339002 1_455
Ni5 P2 2.339002 1_555
Ni5 Sr0 3.149576 1_555
Ni6 P2 2.296844 1_555
Ni6 P5 2.303995 1_665
Ni6 P5 2.303995 1_565
Ni6 P0 2.433799 1_555
Ni6 Sr0 3.065178 1_655
Ni6 Sr0 3.065178 1_555
Ni7 P0 2.296844 1_555
Ni7 P6 2.303997 1_654
Ni7 P6 2.303997 1_554
Ni7 P1 2.433799 1_555
Ni7 Sr0 3.065178 1_655
Ni7 Sr0 3.065178 1_555
Ni8 P1 2.296844 1_555
Ni8 P4 2.304001 1_655
Ni8 P4 2.304001 1_555
Ni8 P2 2.433799 1_555
Ni8 Sr0 3.065178 1_555
Ni8 Sr0 3.065178 1_655
P0 Sr0 2.974736 1_655
P0 Sr0 2.974736 1_555
P1 Sr0 2.974736 1_655
P1 Sr0 2.974736 1_555
P2 Sr0 2.974736 1_555
P2 Sr0 2.974736 1_655
P4 Sr1 2.985650 1_455
P4 Sr1 2.985650 1_555
P5 Sr1 2.985647 1_455
P5 Sr1 2.985647 1_555
P6 Sr1 2.985643 1_555
P6 Sr1 2.985643 1_455
