# generated using pymatgen
data_Y3Al10(SiOs2)2
_symmetry_space_group_name_H-M   'P 1'
_cell_length_a   8.66424168
_cell_length_b   8.66424150
_cell_length_c   9.57574260
_cell_angle_alpha   90.00000000
_cell_angle_beta   90.00000000
_cell_angle_gamma   119.99999315
_symmetry_Int_Tables_number   1
_chemical_formula_structural   Y3Al10(SiOs2)2
_chemical_formula_sum   'Y6 Al20 Si4 Os8'
_cell_volume   622.53565795
_cell_formula_units_Z   2
loop_
 _symmetry_equiv_pos_site_id
 _symmetry_equiv_pos_as_xyz
  1  'x, y, z'
loop_
 _atom_site_type_symbol
 _atom_site_label
 _atom_site_symmetry_multiplicity
 _atom_site_fract_x
 _atom_site_fract_y
 _atom_site_fract_z
 _atom_site_occupancy
  Y  Y0  1  0.19482097  0.38964194  0.25000000  1
  Y  Y1  1  0.80517903  0.61035806  0.75000000  1
  Y  Y2  1  0.61035806  0.80517903  0.25000000  1
  Y  Y3  1  0.38964194  0.19482097  0.75000000  1
  Y  Y4  1  0.19482097  0.80517903  0.25000000  1
  Y  Y5  1  0.80517903  0.19482097  0.75000000  1
  Al  Al0  1  0.16510641  0.33021283  0.57545481  1
  Al  Al1  1  0.83489359  0.66978717  0.42454519  1
  Al  Al2  1  0.66978717  0.83489359  0.57545481  1
  Al  Al3  1  0.83489359  0.66978717  0.07545481  1
  Al  Al4  1  0.33021283  0.16510641  0.42454519  1
  Al  Al5  1  0.16510641  0.33021283  0.92454519  1
  Al  Al6  1  0.16510641  0.83489359  0.57545481  1
  Al  Al7  1  0.33021283  0.16510641  0.07545481  1
  Al  Al8  1  0.83489359  0.16510641  0.42454519  1
  Al  Al9  1  0.66978717  0.83489359  0.92454519  1
  Al  Al10  1  0.83489359  0.16510641  0.07545481  1
  Al  Al11  1  0.16510641  0.83489359  0.92454519  1
  Al  Al12  1  0.56392495  0.12784891  0.25000000  1
  Al  Al13  1  0.43607505  0.87215109  0.75000000  1
  Al  Al14  1  0.87215109  0.43607505  0.25000000  1
  Al  Al15  1  0.12784891  0.56392495  0.75000000  1
  Al  Al16  1  0.56392495  0.43607505  0.25000000  1
  Al  Al17  1  0.43607505  0.56392495  0.75000000  1
  Al  Al18  1  0.00000000  0.00000000  0.25000000  1
  Al  Al19  1  0.00000000  0.00000000  0.75000000  1
  Si  Si0  1  0.33333300  0.66666700  0.03433930  1
  Si  Si1  1  0.66666700  0.33333300  0.96566070  1
  Si  Si2  1  0.66666700  0.33333300  0.53433930  1
  Si  Si3  1  0.33333300  0.66666700  0.46566070  1
  Os  Os0  1  0.50000000  0.00000000  0.00000000  1
  Os  Os1  1  0.00000000  0.50000000  0.00000000  1
  Os  Os2  1  0.50000000  0.00000000  0.50000000  1
  Os  Os3  1  0.50000000  0.50000000  0.00000000  1
  Os  Os4  1  0.00000000  0.50000000  0.50000000  1
  Os  Os5  1  0.50000000  0.50000000  0.50000000  1
  Os  Os6  1  0.00000000  0.00000000  0.00000000  1
  Os  Os7  1  0.00000000  0.00000000  0.50000000  1
loop_
_geom_bond_atom_site_label_1
_geom_bond_atom_site_label_2
_geom_bond_distance
_geom_bond_site_symmetry_2
Al0 Os7 2.580937 1_555
Al0 Os4 2.614752 1_555
Al0 Os5 2.614752 1_555
Al0 Si3 2.734740 1_555
Al0 Al17 2.766189 1_555
Al0 Al15 2.766193 1_555
Al0 Al4 2.868346 1_555
Al0 Al8 2.868346 1_455
Al0 Al19 2.988772 1_555
Al0 Y0 3.148213 1_555
Al0 Y3 3.199451 1_555
Al0 Y5 3.199451 1_455
Al1 Os7 2.580937 1_665
Al1 Os4 2.614752 1_655
Al1 Os5 2.614752 1_555
Al1 Si2 2.734740 1_555
Al1 Al16 2.766189 1_555
Al1 Al14 2.766193 1_555
Al1 Al2 2.868346 1_555
Al1 Al6 2.868346 1_655
Al1 Al18 2.988772 1_665
Al1 Y1 3.148213 1_555
Al1 Y2 3.199451 1_555
Al1 Y4 3.199451 1_655
Al2 Os7 2.580937 1_665
Al2 Os2 2.614752 1_565
Al2 Os5 2.614752 1_555
Al2 Si3 2.734740 1_555
Al2 Al8 2.868346 1_565
Al2 Y2 3.148213 1_555
Al2 Y1 3.199451 1_555
Al2 Y5 3.199451 1_565
Al3 Os6 2.580937 1_665
Al3 Os1 2.614752 1_655
Al3 Os3 2.614752 1_555
Al3 Si1 2.734740 1_554
Al3 Al9 2.868346 1_554
Al3 Y1 3.148213 1_554
Al3 Y2 3.199451 1_555
Al3 Y4 3.199451 1_655
Al4 Os7 2.580937 1_555
Al4 Os2 2.614752 1_555
Al4 Os5 2.614752 1_555
Al4 Si2 2.734740 1_555
Al4 Al6 2.868346 1_545
Al4 Y3 3.148213 1_555
Al4 Y0 3.199451 1_555
Al4 Y4 3.199451 1_545
Al5 Os6 2.580937 1_556
Al5 Os1 2.614752 1_556
Al5 Os3 2.614752 1_556
Al5 Si0 2.734740 1_556
Al5 Al7 2.868346 1_556
Al5 Y0 3.148213 1_556
Al5 Y3 3.199451 1_555
Al5 Y5 3.199451 1_455
Al6 Os7 2.580937 1_565
Al6 Os4 2.614752 1_555
Al6 Os2 2.614752 1_565
Al6 Si3 2.734733 1_555
Al6 Y4 3.148213 1_555
Al6 Y3 3.199451 1_565
Al6 Y1 3.199451 1_455
Al7 Os6 2.580937 1_555
Al7 Os0 2.614752 1_555
Al7 Os3 2.614752 1_555
Al7 Si1 2.734740 1_554
Al7 Y3 3.148213 1_554
Al7 Y0 3.199451 1_555
Al7 Y4 3.199451 1_545
Al8 Os7 2.580937 1_655
Al8 Os4 2.614752 1_655
Al8 Os2 2.614752 1_555
Al8 Si2 2.734733 1_555
Al8 Y5 3.148213 1_555
Al8 Y2 3.199451 1_545
Al8 Y0 3.199451 1_655
Al9 Os6 2.580937 1_666
Al9 Os0 2.614752 1_566
Al9 Os3 2.614752 1_556
Al9 Si0 2.734740 1_556
Al9 Y2 3.148213 1_556
Al9 Y1 3.199451 1_555
Al9 Y5 3.199451 1_565
Al10 Os6 2.580937 1_655
Al10 Os1 2.614752 1_655
Al10 Os0 2.614752 1_555
Al10 Si1 2.734733 1_554
Al10 Al14 2.766186 1_555
Al10 Al12 2.766186 1_555
Al10 Al9 2.868346 1_544
Al10 Al5 2.868346 1_654
Al10 Al18 2.988772 1_655
Al10 Y5 3.148213 1_554
Al10 Y2 3.199451 1_545
Al10 Y0 3.199451 1_655
Al11 Os6 2.580937 1_566
Al11 Os1 2.614752 1_556
Al11 Os0 2.614752 1_566
Al11 Si0 2.734733 1_556
Al11 Al15 2.766186 1_555
Al11 Al13 2.766186 1_555
Al11 Al7 2.868346 1_566
Al11 Al3 2.868346 1_456
Al11 Al19 2.988772 1_565
Al11 Y4 3.148213 1_556
Al11 Y3 3.199451 1_565
Al11 Y1 3.199451 1_455
Al12 Os0 2.578992 1_555
Al12 Os2 2.578992 1_555
Al12 Al8 2.766186 1_555
Al12 Al4 2.766193 1_555
Al12 Al7 2.766193 1_555
Al12 Y2 3.017028 1_545
Al12 Y4 3.017034 1_545
Al13 Os0 2.578992 1_566
Al13 Os2 2.578992 1_565
Al13 Al6 2.766186 1_555
Al13 Al9 2.766193 1_555
Al13 Al2 2.766193 1_555
Al13 Y3 3.017028 1_565
Al13 Y5 3.017034 1_565
Al14 Os1 2.578992 1_655
Al14 Os4 2.578992 1_655
Al14 Al8 2.766186 1_555
Al14 Al3 2.766193 1_555
Al14 Y0 3.017028 1_655
Al14 Y4 3.017034 1_655
Al15 Os1 2.578992 1_556
Al15 Os4 2.578992 1_555
Al15 Al6 2.766186 1_555
Al15 Al5 2.766193 1_555
Al15 Y1 3.017028 1_455
Al15 Y5 3.017034 1_455
Al16 Os3 2.578995 1_555
Al16 Os5 2.578995 1_555
Al16 Al4 2.766189 1_555
Al16 Al7 2.766189 1_555
Al16 Al3 2.766189 1_555
Al16 Y2 3.017037 1_555
Al16 Y0 3.017037 1_555
Al17 Os5 2.578995 1_555
Al17 Os3 2.578995 1_556
Al17 Al9 2.766189 1_555
Al17 Al2 2.766189 1_555
Al17 Al5 2.766189 1_555
Al17 Y3 3.017037 1_555
Al17 Y1 3.017037 1_555
Al18 Os7 2.393936 1_555
Al18 Os6 2.393936 1_555
Al18 Y4 2.923660 1_545
Al18 Y0 2.923660 1_555
Al18 Y2 2.923660 1_445
Al18 Al8 2.988772 1_455
Al18 Al3 2.988772 1_445
Al18 Al4 2.988772 1_555
Al18 Al7 2.988772 1_555
Al19 Os7 2.393936 1_555
Al19 Os6 2.393936 1_556
Al19 Y5 2.923660 1_455
Al19 Y1 2.923660 1_445
Al19 Y3 2.923660 1_555
Al19 Al6 2.988772 1_545
Al19 Al5 2.988772 1_555
Al19 Al9 2.988772 1_445
Al19 Al2 2.988772 1_445
Si0 Y4 2.930088 1_555
Si0 Y0 2.930094 1_555
Si0 Y2 2.930094 1_555
Si1 Y5 2.930088 1_555
Si1 Y1 2.930094 1_555
Si1 Y3 2.930094 1_555
Si2 Y5 2.930088 1_555
Si2 Y1 2.930094 1_555
Si2 Y3 2.930094 1_555
Si3 Y4 2.930088 1_555
Si3 Y0 2.930094 1_555
Si3 Y2 2.930094 1_555
Os0 Si1 2.522671 1_554
Os0 Si0 2.522671 1_545
Os0 Y3 3.332933 1_554
Os0 Y2 3.332933 1_545
Os0 Y5 3.332933 1_554
Os0 Y4 3.332933 1_545
Os1 Si0 2.522671 1_555
Os1 Si1 2.522671 1_454
Os1 Y0 3.332933 1_555
Os1 Y1 3.332933 1_454
Os1 Y4 3.332933 1_555
Os1 Y5 3.332933 1_454
Os2 Si2 2.522671 1_555
Os2 Si3 2.522671 1_545
Os2 Y3 3.332933 1_555
Os2 Y2 3.332933 1_545
Os2 Y5 3.332933 1_555
Os2 Y4 3.332933 1_545
Os3 Si0 2.522679 1_555
Os3 Si1 2.522679 1_554
Os3 Y2 3.332933 1_555
Os3 Y3 3.332933 1_554
Os3 Y1 3.332933 1_554
Os3 Y0 3.332933 1_555
Os4 Si3 2.522671 1_555
Os4 Si2 2.522671 1_455
Os4 Y0 3.332933 1_555
Os4 Y1 3.332933 1_455
Os4 Y4 3.332933 1_555
Os4 Y5 3.332933 1_455
Os5 Si2 2.522679 1_555
Os5 Si3 2.522679 1_555
Os5 Y2 3.332933 1_555
Os5 Y3 3.332933 1_555
Os5 Y1 3.332933 1_555
Os5 Y0 3.332933 1_555
