# generated using pymatgen
data_Sc16CdAg3Rh4
_symmetry_space_group_name_H-M   'P 1'
_cell_length_a   8.92045222
_cell_length_b   8.92203234
_cell_length_c   8.92203294
_cell_angle_alpha   59.99999777
_cell_angle_beta   59.99413803
_cell_angle_gamma   59.99414237
_symmetry_Int_Tables_number   1
_chemical_formula_structural   Sc16CdAg3Rh4
_chemical_formula_sum   'Sc16 Cd1 Ag3 Rh4'
_cell_volume   502.06622951
_cell_formula_units_Z   1
loop_
 _symmetry_equiv_pos_site_id
 _symmetry_equiv_pos_as_xyz
  1  'x, y, z'
loop_
 _atom_site_type_symbol
 _atom_site_label
 _atom_site_symmetry_multiplicity
 _atom_site_fract_x
 _atom_site_fract_y
 _atom_site_fract_z
 _atom_site_occupancy
  Sc  Sc0  1  0.35780773  0.35488481  0.35488481  1
  Sc  Sc1  1  0.35780773  0.35488481  0.93242466  1
  Sc  Sc2  1  0.35780773  0.93242466  0.35488481  1
  Sc  Sc3  1  0.92521288  0.35826271  0.35826271  1
  Sc  Sc4  1  0.81376552  0.18665558  0.18665558  1
  Sc  Sc5  1  0.18734508  0.81310478  0.81310478  1
  Sc  Sc6  1  0.18734508  0.81310478  0.18644637  1
  Sc  Sc7  1  0.81376552  0.18665558  0.81292133  1
  Sc  Sc8  1  0.18734508  0.18644637  0.81310478  1
  Sc  Sc9  1  0.81376552  0.81292133  0.18665558  1
  Sc  Sc10  1  0.93299852  0.56429682  0.56429682  1
  Sc  Sc11  1  0.56472964  0.93529051  0.93529051  1
  Sc  Sc12  1  0.56472964  0.93529051  0.56468933  1
  Sc  Sc13  1  0.93299852  0.56429682  0.93840785  1
  Sc  Sc14  1  0.56472964  0.56468933  0.93529051  1
  Sc  Sc15  1  0.93299852  0.93840785  0.56429682  1
  Cd  Cd0  1  0.25654916  0.58115028  0.58115028  1
  Ag  Ag0  1  0.58349439  0.58366879  0.58366879  1
  Ag  Ag1  1  0.58349439  0.58366879  0.24916602  1
  Ag  Ag2  1  0.58349439  0.24916602  0.58366879  1
  Rh  Rh0  1  0.14418960  0.14711520  0.14711520  1
  Rh  Rh1  1  0.14418960  0.14711520  0.56157800  1
  Rh  Rh2  1  0.14418960  0.56157800  0.14711520  1
  Rh  Rh3  1  0.56524657  0.14491748  0.14491748  1
loop_
_geom_bond_atom_site_label_1
_geom_bond_atom_site_label_2
_geom_bond_distance
_geom_bond_site_symmetry_2
Sc0 Sc14 3.234602 1_554
Sc0 Sc12 3.234602 1_545
Sc0 Sc10 3.266473 1_455
Sc0 Sc4 3.330157 1_555
Sc0 Sc6 3.347909 1_555
Sc0 Sc8 3.347909 1_555
Sc1 Sc14 3.234592 1_555
Sc1 Sc11 3.234607 1_545
Sc1 Sc13 3.266478 1_455
Sc1 Sc7 3.330154 1_555
Sc1 Sc5 3.347908 1_555
Sc1 Sc8 3.347915 1_555
Sc2 Sc9 3.330154 1_555
Sc2 Sc5 3.347908 1_555
Sc2 Sc6 3.347916 1_555
Sc3 Sc9 3.326513 1_555
Sc3 Sc7 3.326514 1_555
Sc3 Sc4 3.326536 1_555
Sc10 Sc3 3.224534 1_555
Sc10 Sc14 3.297365 1_555
Sc10 Sc12 3.297365 1_555
Sc10 Sc15 3.337831 1_555
Sc10 Sc13 3.337831 1_555
Sc10 Sc7 3.339877 1_555
Sc10 Sc9 3.339877 1_555
Sc10 Sc6 3.368134 1_655
Sc10 Sc8 3.368134 1_655
Sc11 Sc2 3.234607 1_556
Sc11 Sc15 3.297365 1_555
Sc11 Sc13 3.297365 1_555
Sc11 Sc14 3.306516 1_555
Sc11 Sc12 3.306516 1_555
Sc11 Sc6 3.350437 1_556
Sc11 Sc8 3.350438 1_565
Sc11 Sc7 3.356401 1_565
Sc11 Sc9 3.356402 1_556
Sc12 Sc2 3.234592 1_555
Sc12 Sc15 3.297365 1_555
Sc12 Sc14 3.306516 1_555
Sc12 Sc5 3.350437 1_555
Sc12 Sc8 3.350442 1_565
Sc12 Sc4 3.356407 1_565
Sc12 Sc9 3.356417 1_555
Sc13 Sc3 3.224542 1_556
Sc13 Sc14 3.297365 1_555
Sc13 Sc15 3.337831 1_555
Sc13 Sc9 3.339862 1_556
Sc13 Sc4 3.339877 1_556
Sc13 Sc8 3.368130 1_655
Sc13 Sc5 3.368137 1_655
Sc14 Sc5 3.350438 1_555
Sc14 Sc6 3.350442 1_556
Sc14 Sc4 3.356408 1_556
Sc14 Sc7 3.356416 1_555
Sc15 Sc3 3.224541 1_565
Sc15 Sc2 3.266478 1_655
Sc15 Sc7 3.339862 1_565
Sc15 Sc4 3.339877 1_565
Sc15 Sc6 3.368130 1_655
Sc15 Sc5 3.368137 1_655
Cd0 Sc10 3.044047 1_455
Cd0 Sc13 3.044047 1_455
Cd0 Sc15 3.044047 1_455
Cd0 Sc0 3.065017 1_555
Cd0 Sc2 3.065031 1_555
Cd0 Sc1 3.065032 1_555
Cd0 Sc8 3.267111 1_555
Cd0 Sc6 3.267111 1_555
Cd0 Sc5 3.267119 1_555
Ag0 Cd0 2.939145 1_555
Ag0 Sc10 2.954992 1_555
Ag0 Sc12 2.978336 1_555
Ag0 Sc14 2.978336 1_555
Ag0 Ag2 2.984445 1_555
Ag0 Ag1 2.984445 1_555
Ag0 Sc3 3.026963 1_555
Ag0 Sc1 3.065122 1_555
Ag0 Sc2 3.065123 1_555
Ag0 Sc5 3.254029 1_555
Ag0 Sc9 3.260335 1_555
Ag0 Sc7 3.260335 1_555
Ag1 Cd0 2.939154 1_555
Ag1 Sc13 2.954984 1_554
Ag1 Sc14 2.978318 1_554
Ag1 Sc11 2.978328 1_554
Ag1 Ag2 2.984445 1_555
Ag1 Sc3 3.026977 1_555
Ag1 Sc0 3.065110 1_555
Ag1 Sc2 3.065140 1_555
Ag1 Sc6 3.254018 1_555
Ag1 Sc9 3.260335 1_555
Ag1 Sc4 3.260335 1_555
Ag2 Cd0 2.939154 1_555
Ag2 Sc15 2.954984 1_545
Ag2 Sc12 2.978318 1_545
Ag2 Sc11 2.978328 1_545
Ag2 Sc3 3.026976 1_555
Ag2 Sc0 3.065110 1_555
Ag2 Sc1 3.065140 1_555
Ag2 Sc8 3.254018 1_555
Ag2 Sc4 3.260335 1_555
Ag2 Sc7 3.260335 1_555
Rh0 Sc4 2.642211 1_455
Rh0 Sc1 2.658588 1_554
Rh0 Sc2 2.658589 1_545
Rh0 Sc6 2.663456 1_545
Rh0 Sc8 2.663456 1_554
Rh0 Sc3 2.664849 1_455
Rh0 Sc15 3.230322 1_445
Rh0 Sc13 3.230322 1_454
Rh0 Sc11 3.256711 1_544
Rh1 Sc7 2.642211 1_455
Rh1 Sc2 2.658564 1_545
Rh1 Sc0 2.658589 1_555
Rh1 Sc5 2.663465 1_545
Rh1 Sc8 2.663482 1_555
Rh1 Sc3 2.664831 1_455
Rh1 Sc15 3.230312 1_445
Rh1 Sc10 3.230328 1_455
Rh1 Sc12 3.256716 1_545
Rh2 Sc9 2.642211 1_455
Rh2 Sc1 2.658564 1_554
Rh2 Sc0 2.658589 1_555
Rh2 Sc5 2.663466 1_554
Rh2 Sc6 2.663482 1_555
Rh2 Sc3 2.664831 1_455
Rh2 Sc13 3.230312 1_454
Rh2 Sc10 3.230328 1_455
Rh2 Sc14 3.256716 1_554
Rh3 Sc4 2.642359 1_555
Rh3 Sc7 2.642365 1_554
Rh3 Sc9 2.642365 1_545
Rh3 Sc2 2.649144 1_545
Rh3 Sc1 2.649144 1_554
Rh3 Sc0 2.649163 1_555
Rh3 Sc11 3.242117 1_544
Rh3 Sc14 3.242125 1_554
Rh3 Sc12 3.242125 1_545
