# generated using pymatgen
data_TiMn(AlRh2)2
_symmetry_space_group_name_H-M   'P 1'
_cell_length_a   7.39385782
_cell_length_b   7.39385800
_cell_length_c   7.39385769
_cell_angle_alpha   131.65346933
_cell_angle_beta   131.65346497
_cell_angle_gamma   70.77688618
_symmetry_Int_Tables_number   1
_chemical_formula_structural   TiMn(AlRh2)2
_chemical_formula_sum   'Ti2 Mn2 Al4 Rh8'
_cell_volume   221.03626254
_cell_formula_units_Z   2
loop_
 _symmetry_equiv_pos_site_id
 _symmetry_equiv_pos_as_xyz
  1  'x, y, z'
loop_
 _atom_site_type_symbol
 _atom_site_label
 _atom_site_symmetry_multiplicity
 _atom_site_fract_x
 _atom_site_fract_y
 _atom_site_fract_z
 _atom_site_occupancy
  Ti  Ti0  1  0.25000000  0.25000000  0.00000000  1
  Ti  Ti1  1  0.50000100  0.00000000  0.50000100  1
  Mn  Mn0  1  0.75000000  0.75000000  0.00000000  1
  Mn  Mn1  1  0.00000000  0.50000100  0.50000100  1
  Al  Al0  1  0.99984597  0.99984597  1.00000000  1
  Al  Al1  1  0.50015403  0.50015403  0.00000000  1
  Al  Al2  1  0.75015403  0.25015403  0.50000100  1
  Al  Al3  1  0.24984597  0.74984697  0.50000100  1
  Rh  Rh0  1  0.87499900  0.37216756  0.99716656  1
  Rh  Rh1  1  0.62216856  0.12500100  0.99716856  1
  Rh  Rh2  1  0.12783244  0.12500000  0.50283244  1
  Rh  Rh3  1  0.87499900  0.87783244  0.50283244  1
  Rh  Rh4  1  0.37499900  0.37216756  0.49716756  1
  Rh  Rh5  1  0.62216856  0.62500000  0.49716756  1
  Rh  Rh6  1  0.12783244  0.62500000  0.00283244  1
  Rh  Rh7  1  0.37499900  0.87783344  0.00283244  1
loop_
_geom_bond_atom_site_label_1
_geom_bond_atom_site_label_2
_geom_bond_distance
_geom_bond_site_symmetry_2
Mn0 Rh0 2.628077 1_554
Mn0 Rh6 2.628081 1_655
Mn0 Rh2 2.628081 1_665
Mn0 Rh5 2.628084 1_554
Mn0 Rh1 2.628084 1_564
Mn0 Rh3 2.628084 1_555
Mn0 Rh4 2.628085 1_554
Mn0 Rh7 2.628088 1_555
Mn1 Rh5 2.628070 1_455
Mn1 Rh6 2.628077 1_556
Mn1 Rh4 2.628077 1_555
Mn1 Rh3 2.628077 1_455
Mn1 Rh7 2.628078 1_556
Mn1 Rh1 2.628078 1_454
Mn1 Rh2 2.628084 1_555
Mn1 Rh0 2.628088 1_454
Al0 Rh7 2.609312 1_656
Al0 Rh3 2.609315 1_555
Al0 Rh4 2.609316 1_666
Al0 Rh0 2.609322 1_565
Al0 Rh1 2.627013 1_565
Al0 Rh5 2.627013 1_555
Al0 Rh2 2.627016 1_666
Al0 Rh6 2.627016 1_656
Al1 Rh5 2.609315 1_555
Al1 Rh1 2.609315 1_554
Al1 Rh6 2.609319 1_555
Al1 Rh2 2.609319 1_554
Al1 Rh0 2.627013 1_554
Al1 Rh4 2.627013 1_554
Al1 Rh3 2.627013 1_555
Al1 Rh7 2.627023 1_555
Al2 Rh0 2.609308 1_555
Al2 Rh3 2.609315 1_545
Al2 Rh7 2.609319 1_545
Al2 Rh4 2.609322 1_555
Al2 Rh6 2.627017 1_656
Al2 Rh2 2.627020 1_655
Al2 Rh5 2.627020 1_555
Al2 Rh1 2.627023 1_554
Al3 Rh2 2.609315 1_565
Al3 Rh6 2.609322 1_555
Al3 Rh1 2.609323 1_565
Al3 Rh5 2.609329 1_555
Al3 Rh7 2.627013 1_556
Al3 Rh3 2.627020 1_455
Al3 Rh4 2.627020 1_555
Al3 Rh0 2.627024 1_454
Rh0 Ti1 2.608239 1_555
Rh0 Ti0 2.608249 1_656
Rh1 Ti1 2.608242 1_555
Rh1 Ti0 2.608249 1_556
Rh2 Ti0 2.608245 1_556
Rh2 Ti1 2.608249 1_555
Rh3 Ti1 2.608235 1_565
Rh3 Ti0 2.608249 1_666
Rh4 Ti0 2.608249 1_555
Rh4 Ti1 2.608249 1_555
Rh5 Ti1 2.608242 1_565
Rh5 Ti0 2.608249 1_555
Rh6 Ti0 2.608246 1_555
Rh6 Ti1 2.608249 1_565
Rh7 Ti0 2.608239 1_565
Rh7 Ti1 2.608249 1_565
