# generated using pymatgen
data_KSiSbS4
_symmetry_space_group_name_H-M   'P 1'
_cell_length_a   7.01110280
_cell_length_b   6.47362273
_cell_length_c   8.65879081
_cell_angle_alpha   72.46659137
_cell_angle_beta   90.00000000
_cell_angle_gamma   90.00000000
_symmetry_Int_Tables_number   1
_chemical_formula_structural   KSiSbS4
_chemical_formula_sum   'K2 Si2 Sb2 S8'
_cell_volume   374.74042472
_cell_formula_units_Z   2
loop_
 _symmetry_equiv_pos_site_id
 _symmetry_equiv_pos_as_xyz
  1  'x, y, z'
loop_
 _atom_site_type_symbol
 _atom_site_label
 _atom_site_symmetry_multiplicity
 _atom_site_fract_x
 _atom_site_fract_y
 _atom_site_fract_z
 _atom_site_occupancy
  K  K0  1  0.95704148  0.71240886  0.07001356  1
  K  K1  1  0.45704148  0.28759114  0.92998644  1
  Si  Si0  1  0.44426617  0.79814534  0.30762960  1
  Si  Si1  1  0.94426617  0.20185466  0.69237040  1
  Sb  Sb0  1  0.56878978  0.23679975  0.43865208  1
  Sb  Sb1  1  0.06878978  0.76320025  0.56134792  1
  S  S0  1  0.49964425  0.57399160  0.17759593  1
  S  S1  1  0.20364299  0.99297550  0.24485492  1
  S  S2  1  0.69232846  0.99977627  0.27591712  1
  S  S3  1  0.90128787  0.38050606  0.43984506  1
  S  S4  1  0.40128787  0.61949394  0.56015494  1
  S  S5  1  0.19232846  0.00022373  0.72408288  1
  S  S6  1  0.70364299  0.00702450  0.75514508  1
  S  S7  1  0.99964425  0.42600840  0.82240407  1
loop_
_geom_bond_atom_site_label_1
_geom_bond_atom_site_label_2
_geom_bond_distance
_geom_bond_site_symmetry_2
K0 S1 3.199506 1_655
K0 S7 3.243227 1_554
K0 S3 3.298236 1_555
K0 S6 3.330761 1_564
K0 S0 3.384035 1_555
K0 S5 3.435434 1_664
K0 S2 3.475954 1_555
K1 S6 3.199506 1_555
K1 S0 3.243227 1_556
K1 S4 3.298236 1_555
K1 S1 3.330761 1_546
K1 S7 3.384035 1_455
K1 S2 3.435434 1_546
K1 S5 3.475954 1_555
S0 Si0 2.123334 1_555
S0 Sb0 2.671413 1_555
S1 Si0 2.078277 1_555
S1 Sb1 2.856651 1_555
S2 Si0 2.141959 1_555
S2 Sb0 2.528406 1_565
S3 Si1 2.164656 1_555
S3 Sb0 2.511125 1_555
S4 Si0 2.164656 1_555
S4 Sb1 2.511125 1_555
S5 Si1 2.141959 1_455
S5 Sb1 2.528406 1_545
S6 Si1 2.078277 1_555
S6 Sb0 2.856651 1_555
S7 Si1 2.123334 1_555
S7 Sb1 2.671413 1_655
