# generated using pymatgen
data_NaSr2Hg2Sb3
_symmetry_space_group_name_H-M   'P 1'
_cell_length_a   4.76931434
_cell_length_b   12.77977633
_cell_length_c   16.24239593
_cell_angle_alpha   90.00000000
_cell_angle_beta   90.00000000
_cell_angle_gamma   90.00000000
_symmetry_Int_Tables_number   1
_chemical_formula_structural   NaSr2Hg2Sb3
_chemical_formula_sum   'Na4 Sr8 Hg8 Sb12'
_cell_volume   989.98654643
_cell_formula_units_Z   4
loop_
 _symmetry_equiv_pos_site_id
 _symmetry_equiv_pos_as_xyz
  1  'x, y, z'
loop_
 _atom_site_type_symbol
 _atom_site_label
 _atom_site_symmetry_multiplicity
 _atom_site_fract_x
 _atom_site_fract_y
 _atom_site_fract_z
 _atom_site_occupancy
  Na  Na0  1  0.25000000  0.39225947  0.55157347  1
  Na  Na1  1  0.75000000  0.10774053  0.05157347  1
  Na  Na2  1  0.25000000  0.89225947  0.94842653  1
  Na  Na3  1  0.75000000  0.60774053  0.44842653  1
  Sr  Sr0  1  0.25000000  0.37148037  0.28450778  1
  Sr  Sr1  1  0.75000000  0.12851963  0.78450778  1
  Sr  Sr2  1  0.25000000  0.87148037  0.21549222  1
  Sr  Sr3  1  0.75000000  0.62851963  0.71549222  1
  Sr  Sr4  1  0.25000000  0.10737392  0.42767438  1
  Sr  Sr5  1  0.75000000  0.39262608  0.92767438  1
  Sr  Sr6  1  0.25000000  0.60737392  0.07232562  1
  Sr  Sr7  1  0.75000000  0.89262608  0.57232562  1
  Hg  Hg0  1  0.25000000  0.30995942  0.07906458  1
  Hg  Hg1  1  0.75000000  0.19004058  0.57906458  1
  Hg  Hg2  1  0.25000000  0.80995942  0.42093542  1
  Hg  Hg3  1  0.75000000  0.69004058  0.92093542  1
  Hg  Hg4  1  0.25000000  0.34402962  0.78414496  1
  Hg  Hg5  1  0.75000000  0.15597038  0.28414496  1
  Hg  Hg6  1  0.25000000  0.84402962  0.71585504  1
  Hg  Hg7  1  0.75000000  0.65597038  0.21585504  1
  Sb  Sb0  1  0.25000000  0.12948214  0.19146806  1
  Sb  Sb1  1  0.75000000  0.37051786  0.69146806  1
  Sb  Sb2  1  0.25000000  0.62948214  0.30853194  1
  Sb  Sb3  1  0.75000000  0.87051786  0.80853194  1
  Sb  Sb4  1  0.25000000  0.69365733  0.57377093  1
  Sb  Sb5  1  0.75000000  0.80634267  0.07377093  1
  Sb  Sb6  1  0.25000000  0.19365733  0.92622907  1
  Sb  Sb7  1  0.75000000  0.30634267  0.42622907  1
  Sb  Sb8  1  0.25000000  0.07047172  0.63257243  1
  Sb  Sb9  1  0.75000000  0.42952828  0.13257243  1
  Sb  Sb10  1  0.25000000  0.57047172  0.86742757  1
  Sb  Sb11  1  0.75000000  0.92952828  0.36742757  1
loop_
_geom_bond_atom_site_label_1
_geom_bond_atom_site_label_2
_geom_bond_distance
_geom_bond_site_symmetry_2
Na0 Sb1 3.305570 1_455
Na0 Sb1 3.305570 1_555
Na0 Sb7 3.322206 1_455
Na0 Sb7 3.322206 1_555
Na1 Sb0 3.305570 1_555
Na1 Sb0 3.305570 1_655
Na1 Sb6 3.322206 1_654
Na1 Sb6 3.322206 1_554
Na2 Sb3 3.305570 1_455
Na2 Sb3 3.305570 1_555
Na2 Sb5 3.322206 1_556
Na2 Sb5 3.322206 1_456
Na3 Sb2 3.305570 1_655
Na3 Sb2 3.305570 1_555
Na3 Sb4 3.322206 1_555
Na3 Sb4 3.322206 1_655
Hg0 Sb6 2.893357 1_554
Hg0 Sb0 2.941588 1_555
Hg0 Sb9 2.962582 1_455
Hg0 Sb9 2.962582 1_555
Hg0 Sr0 3.428262 1_555
Hg0 Na1 3.544664 1_455
Hg0 Na1 3.544664 1_555
Hg0 Sr5 3.584562 1_554
Hg0 Sr5 3.584562 1_454
Hg0 Sr6 3.802467 1_555
Hg1 Sb7 2.893357 1_555
Hg1 Sb1 2.941588 1_555
Hg1 Sb8 2.962582 1_555
Hg1 Sb8 2.962582 1_655
Hg1 Sr1 3.428262 1_555
Hg1 Na0 3.544664 1_555
Hg1 Na0 3.544664 1_655
Hg1 Sr4 3.584562 1_555
Hg1 Sr4 3.584562 1_655
Hg1 Sr7 3.802467 1_545
Hg2 Sb4 2.893357 1_555
Hg2 Sb2 2.941588 1_555
Hg2 Sb11 2.962582 1_455
Hg2 Sb11 2.962582 1_555
Hg2 Sr2 3.428262 1_555
Hg2 Na3 3.544664 1_455
Hg2 Na3 3.544664 1_555
Hg2 Sr7 3.584562 1_555
Hg2 Sr7 3.584562 1_455
Hg2 Sr4 3.802467 1_565
Hg3 Sb5 2.893357 1_556
Hg3 Sb3 2.941588 1_555
Hg3 Sb10 2.962582 1_555
Hg3 Sb10 2.962582 1_655
Hg3 Sr3 3.428262 1_555
Hg3 Na2 3.544664 1_555
Hg3 Na2 3.544664 1_655
Hg3 Sr6 3.584562 1_656
Hg3 Sr6 3.584562 1_556
Hg3 Sr5 3.802467 1_555
Hg4 Sb1 2.840263 1_455
Hg4 Sb1 2.840263 1_555
Hg4 Sb6 3.003149 1_555
Hg4 Sb10 3.194426 1_555
Hg4 Sr5 3.392208 1_455
Hg4 Sr5 3.392208 1_555
Hg4 Sr1 3.643086 1_455
Hg4 Sr1 3.643086 1_555
Hg5 Sb0 2.840263 1_555
Hg5 Sb0 2.840263 1_655
Hg5 Sb7 3.003149 1_555
Hg5 Sb11 3.194426 1_545
Hg5 Sr4 3.392208 1_555
Hg5 Sr4 3.392208 1_655
Hg5 Sr0 3.643086 1_555
Hg5 Sr0 3.643086 1_655
Hg6 Sb3 2.840263 1_555
Hg6 Sb3 2.840263 1_455
Hg6 Sb4 3.003149 1_555
Hg6 Sb8 3.194426 1_565
Hg6 Sr7 3.392208 1_455
Hg6 Sr7 3.392208 1_555
Hg6 Sr3 3.643086 1_455
Hg6 Sr3 3.643086 1_555
Hg7 Sb2 2.840263 1_555
Hg7 Sb2 2.840263 1_655
Hg7 Sb5 3.003149 1_555
Hg7 Sb9 3.194426 1_555
Hg7 Sr6 3.392208 1_655
Hg7 Sr6 3.392208 1_555
Hg7 Sr2 3.643086 1_555
Hg7 Sr2 3.643086 1_655
Sb0 Sr2 3.320214 1_545
Sb0 Sr0 3.442147 1_555
Sb0 Sr4 3.846946 1_555
Sb1 Sr3 3.320214 1_555
Sb1 Sr1 3.442147 1_555
Sb1 Sr5 3.846946 1_555
Sb2 Sr0 3.320214 1_555
Sb2 Sr2 3.442147 1_555
Sb2 Sr6 3.846946 1_555
Sb3 Sr1 3.320214 1_565
Sb3 Sr3 3.442147 1_555
Sb3 Sr7 3.846946 1_555
Sb4 Sr3 3.417348 1_455
Sb4 Sr3 3.417348 1_555
Sb4 Sr7 3.486094 1_555
Sb4 Sr7 3.486094 1_455
Sb5 Sr2 3.417348 1_655
Sb5 Sr2 3.417348 1_555
Sb5 Sr6 3.486094 1_555
Sb5 Sr6 3.486094 1_655
Sb6 Sr1 3.417348 1_555
Sb6 Sr1 3.417348 1_455
Sb6 Sr5 3.486094 1_555
Sb6 Sr5 3.486094 1_455
Sb7 Sr0 3.417348 1_655
Sb7 Sr0 3.417348 1_555
Sb7 Sr4 3.486094 1_555
Sb7 Sr4 3.486094 1_655
Sb8 Sr4 3.361284 1_555
Sb8 Sr7 3.436553 1_545
Sb8 Sr7 3.436553 1_445
Sb8 Sr1 3.510972 1_455
Sb8 Sr1 3.510972 1_555
Sb9 Sr5 3.361284 1_554
Sb9 Sr6 3.436553 1_655
Sb9 Sr6 3.436553 1_555
Sb9 Sr0 3.510972 1_555
Sb9 Sr0 3.510972 1_655
Sb10 Sr6 3.361284 1_556
Sb10 Sr5 3.436553 1_455
Sb10 Sr5 3.436553 1_555
Sb10 Sr3 3.510972 1_455
Sb10 Sr3 3.510972 1_555
Sb11 Sr7 3.361284 1_555
Sb11 Sr4 3.436553 1_565
Sb11 Sr4 3.436553 1_665
Sb11 Sr2 3.510972 1_655
Sb11 Sr2 3.510972 1_555
