# generated using pymatgen
data_Ti6Tc5P6W
_symmetry_space_group_name_H-M   'P 1'
_cell_length_a   7.35322270
_cell_length_b   7.33701844
_cell_length_c   7.33700419
_cell_angle_alpha   127.08370855
_cell_angle_beta   125.10850982
_cell_angle_gamma   79.68951548
_symmetry_Int_Tables_number   1
_chemical_formula_structural   Ti6Tc5P6W
_chemical_formula_sum   'Ti6 Tc5 P6 W1'
_cell_volume   249.64308907
_cell_formula_units_Z   1
loop_
 _symmetry_equiv_pos_site_id
 _symmetry_equiv_pos_as_xyz
  1  'x, y, z'
loop_
 _atom_site_type_symbol
 _atom_site_label
 _atom_site_symmetry_multiplicity
 _atom_site_fract_x
 _atom_site_fract_y
 _atom_site_fract_z
 _atom_site_occupancy
  Ti  Ti0  1  0.46097739  0.25003436  0.29177742  1
  Ti  Ti1  1  0.53902279  0.83080644  0.78906237  1
  Ti  Ti2  1  0.74514421  0.65154844  0.40510954  1
  Ti  Ti3  1  0.25485747  0.65996181  0.90640516  1
  Ti  Ti4  1  0.05477360  0.84356888  0.28993358  1
  Ti  Ti5  1  0.94522902  0.23516390  0.78879819  1
  Tc  Tc0  1  0.65835049  0.50272435  0.90509207  1
  Tc  Tc1  1  0.34164876  0.24674208  0.84437329  1
  Tc  Tc2  1  0.90028048  0.24424871  0.39927208  1
  Tc  Tc3  1  0.09971951  0.49898801  0.34396817  1
  Tc  Tc4  1  0.99999760  0.99174948  0.99174573  1
  P  P0  1  0.83436705  0.57584204  0.74637527  1
  P  P1  1  0.16563002  0.91201375  0.74148268  1
  P  P2  1  0.67004183  0.91157494  0.24478278  1
  P  P3  1  0.32995968  0.57473544  0.24153313  1
  P  P4  1  0.27073210  0.28007350  0.50841672  1
  P  P5  1  0.72926964  0.23768949  0.00934558  1
  W  W0  1  0.49999936  0.99293339  0.49292723  1
loop_
_geom_bond_atom_site_label_1
_geom_bond_atom_site_label_2
_geom_bond_distance
_geom_bond_site_symmetry_2
Ti0 W0 2.914661 1_545
Ti1 W0 2.914733 1_555
Ti2 W0 2.777008 1_555
Ti3 W0 2.776970 1_556
Ti4 W0 2.800823 1_555
Ti5 W0 2.800822 1_545
Tc0 Ti4 2.711135 1_656
Tc0 Ti5 2.756751 1_555
Tc0 Ti2 2.789951 1_556
Tc0 W0 2.891195 1_545
Tc0 Ti3 2.988002 1_555
Tc1 Ti5 2.711121 1_455
Tc1 Ti4 2.756748 1_545
Tc1 Ti3 2.789925 1_555
Tc1 W0 2.891222 1_545
Tc1 Ti2 2.988014 1_556
Tc2 Ti5 2.723400 1_555
Tc2 Ti4 2.754123 1_645
Tc2 Ti3 2.819052 1_655
Tc2 Ti2 2.985805 1_555
Tc3 Ti4 2.723437 1_555
Tc3 Ti5 2.754110 1_454
Tc3 Ti2 2.819065 1_455
Tc3 Ti3 2.985799 1_555
Tc4 Ti2 2.776374 1_555
Tc4 Ti3 2.776430 1_655
Tc4 Ti5 2.797990 1_565
Tc4 Ti4 2.798011 1_656
Tc4 Ti1 2.934718 1_555
Tc4 Ti0 2.934729 1_666
P0 Tc0 2.460622 1_555
P0 Tc2 2.483003 1_555
P0 Tc4 2.493868 1_555
P0 Ti0 2.564760 1_555
P0 Ti4 2.578305 1_656
P0 Ti2 2.581777 1_555
P0 Ti5 2.631771 1_555
P0 Ti1 2.633533 1_555
P0 Ti3 2.636866 1_655
P1 Tc1 2.460635 1_565
P1 Tc3 2.483064 1_555
P1 Tc4 2.493797 1_455
P1 Ti1 2.564790 1_555
P1 Ti5 2.578284 1_465
P1 Ti3 2.581801 1_555
P1 Ti4 2.631822 1_555
P1 Ti0 2.633466 1_566
P1 Ti2 2.636849 1_455
P2 Tc2 2.458478 1_565
P2 Tc0 2.459105 1_554
P2 W0 2.505022 1_555
P2 Ti1 2.562946 1_554
P2 Ti3 2.581501 1_554
P2 Ti5 2.581511 1_565
P2 Ti0 2.619052 1_565
P2 Ti2 2.628788 1_555
P2 Ti4 2.641610 1_655
P3 Tc3 2.458478 1_555
P3 Tc1 2.459086 1_554
P3 W0 2.505104 1_555
P3 Ti0 2.562927 1_555
P3 Ti2 2.581497 1_555
P3 Ti4 2.581531 1_555
P3 Ti1 2.619067 1_555
P3 Ti3 2.628791 1_554
P3 Ti5 2.641576 1_454
P4 Tc3 2.342173 1_555
P4 Tc1 2.368617 1_555
P4 Tc2 2.371484 1_455
P4 Tc0 2.377875 1_555
P4 W0 2.440018 1_545
P4 Tc4 2.442253 1_444
P4 Ti0 2.560627 1_555
P4 Ti3 2.601816 1_555
P4 Ti4 2.837164 1_545
P5 Tc2 2.342189 1_555
P5 Tc0 2.368610 1_554
P5 Tc3 2.371453 1_655
P5 Tc1 2.377884 1_554
P5 W0 2.440068 1_544
P5 Tc4 2.442245 1_544
P5 Ti1 2.560628 1_544
P5 Ti2 2.601804 1_555
P5 Ti5 2.837172 1_554
