# generated using pymatgen
data_K4PbS4
_symmetry_space_group_name_H-M   'P 1'
_cell_length_a   8.13939989
_cell_length_b   10.01636082
_cell_length_c   14.21628630
_cell_angle_alpha   90.00000000
_cell_angle_beta   90.00000000
_cell_angle_gamma   90.00000000
_symmetry_Int_Tables_number   1
_chemical_formula_structural   K4PbS4
_chemical_formula_sum   'K16 Pb4 S16'
_cell_volume   1159.01353525
_cell_formula_units_Z   4
loop_
 _symmetry_equiv_pos_site_id
 _symmetry_equiv_pos_as_xyz
  1  'x, y, z'
loop_
 _atom_site_type_symbol
 _atom_site_label
 _atom_site_symmetry_multiplicity
 _atom_site_fract_x
 _atom_site_fract_y
 _atom_site_fract_z
 _atom_site_occupancy
  K  K0  1  0.00000000  0.00000000  0.00000000  1
  K  K1  1  0.50000000  0.00000000  0.50000000  1
  K  K2  1  0.00000000  0.50000000  0.00000000  1
  K  K3  1  0.50000000  0.50000000  0.50000000  1
  K  K4  1  0.98657051  0.75000000  0.42504590  1
  K  K5  1  0.48657051  0.25000000  0.07495410  1
  K  K6  1  0.01342949  0.25000000  0.57495410  1
  K  K7  1  0.51342949  0.75000000  0.92504590  1
  K  K8  1  0.84320042  0.05262550  0.27377610  1
  K  K9  1  0.34320042  0.94737450  0.22622390  1
  K  K10  1  0.15679958  0.55262550  0.72622390  1
  K  K11  1  0.65679958  0.44737450  0.77377610  1
  K  K12  1  0.15679958  0.94737450  0.72622390  1
  K  K13  1  0.65679958  0.05262550  0.77377610  1
  K  K14  1  0.84320042  0.44737450  0.27377610  1
  K  K15  1  0.34320042  0.55262550  0.22622390  1
  Pb  Pb0  1  0.75854351  0.75000000  0.66629926  1
  Pb  Pb1  1  0.24145649  0.25000000  0.33370074  1
  Pb  Pb2  1  0.74145649  0.75000000  0.16629926  1
  Pb  Pb3  1  0.25854351  0.25000000  0.83370074  1
  S  S0  1  0.95079518  0.25000000  0.82592756  1
  S  S1  1  0.54920482  0.25000000  0.32592756  1
  S  S2  1  0.45079518  0.75000000  0.67407244  1
  S  S3  1  0.04920482  0.75000000  0.17407244  1
  S  S4  1  0.64643834  0.54583318  0.08533501  1
  S  S5  1  0.14643834  0.45416682  0.41466499  1
  S  S6  1  0.35356166  0.04583318  0.91466499  1
  S  S7  1  0.85356166  0.95416682  0.58533501  1
  S  S8  1  0.35356166  0.45416682  0.91466499  1
  S  S9  1  0.85356166  0.54583318  0.58533501  1
  S  S10  1  0.64643834  0.95416682  0.08533501  1
  S  S11  1  0.14643834  0.04583318  0.41466499  1
  S  S12  1  0.62104553  0.75000000  0.32988249  1
  S  S13  1  0.12104553  0.25000000  0.17011751  1
  S  S14  1  0.37895447  0.25000000  0.67011751  1
  S  S15  1  0.87895447  0.75000000  0.82988249  1
loop_
_geom_bond_atom_site_label_1
_geom_bond_atom_site_label_2
_geom_bond_distance
_geom_bond_site_symmetry_2
K0 S6 3.156596 1_554
K0 S10 3.156596 1_445
K0 S3 3.543279 1_545
K0 S0 3.543279 1_454
K0 S13 3.618012 1_555
K0 S15 3.618012 1_444
K1 S7 3.156596 1_545
K1 S11 3.156596 1_555
K1 S2 3.543279 1_545
K1 S1 3.543279 1_555
K1 S14 3.618012 1_555
K1 S12 3.618012 1_545
K2 S8 3.156596 1_554
K2 S4 3.156596 1_455
K2 S3 3.543279 1_555
K2 S0 3.543279 1_454
K2 S13 3.618012 1_555
K2 S15 3.618012 1_454
K3 S9 3.156596 1_555
K3 S5 3.156596 1_555
K3 S2 3.543279 1_555
K3 S1 3.543279 1_555
K3 S14 3.618012 1_555
K3 S12 3.618012 1_555
K4 S11 3.239655 1_665
K4 S5 3.239655 1_655
K4 S7 3.247561 1_555
K4 S9 3.247561 1_555
K4 S12 3.268302 1_555
K4 S3 3.604149 1_655
K5 S4 3.239655 1_555
K5 S10 3.239655 1_545
K5 S8 3.247561 1_554
K5 S6 3.247561 1_554
K5 S13 3.268302 1_555
K5 S1 3.604149 1_555
K6 S9 3.239655 1_455
K6 S7 3.239655 1_445
K6 S5 3.247561 1_555
K6 S11 3.247561 1_555
K6 S14 3.268302 1_555
K6 S0 3.604149 1_455
K7 S6 3.239655 1_565
K7 S8 3.239655 1_555
K7 S10 3.247561 1_556
K7 S4 3.247561 1_556
K7 S15 3.268302 1_555
K7 S2 3.604149 1_555
K8 S11 3.179338 1_655
K8 S1 3.191285 1_555
K8 S10 3.273247 1_545
K8 S13 3.345802 1_655
K8 S12 3.618567 1_545
K8 S3 3.742830 1_645
K9 S10 3.179338 1_555
K9 S3 3.191285 1_555
K9 S11 3.273247 1_565
K9 S12 3.345802 1_555
K9 S13 3.618567 1_565
K9 S1 3.742830 1_565
K10 S9 3.179338 1_455
K10 S2 3.191285 1_555
K10 S8 3.273247 1_555
K10 S15 3.345802 1_455
K10 S14 3.618567 1_555
K10 S0 3.742830 1_455
K11 S8 3.179338 1_555
K11 S0 3.191285 1_555
K11 S9 3.273247 1_555
K11 S14 3.345802 1_555
K11 S15 3.618567 1_555
K11 S2 3.742830 1_555
K12 S7 3.179338 1_455
K12 S2 3.191285 1_555
K12 S6 3.273247 1_565
K12 S15 3.345802 1_455
K12 S14 3.618567 1_565
K12 S0 3.742830 1_465
K13 S6 3.179338 1_555
K13 S0 3.191285 1_555
K13 S7 3.273247 1_545
K13 S14 3.345802 1_555
K13 S15 3.618567 1_545
K13 S2 3.742830 1_545
K14 S5 3.179338 1_655
K14 S1 3.191285 1_555
K14 S4 3.273247 1_555
K14 S13 3.345802 1_655
K14 S12 3.618567 1_555
K14 S3 3.742830 1_655
K15 S4 3.179338 1_555
K15 S3 3.191285 1_555
K15 S5 3.273247 1_555
K15 S12 3.345802 1_555
K15 S13 3.618567 1_555
K15 S1 3.742830 1_555
Pb0 S7 2.470834 1_555
Pb0 S9 2.470834 1_555
Pb0 S2 2.507323 1_555
Pb0 S15 2.523630 1_555
Pb1 S5 2.470834 1_555
Pb1 S11 2.470834 1_555
Pb1 S1 2.507323 1_555
Pb1 S13 2.523630 1_555
Pb2 S10 2.470834 1_555
Pb2 S4 2.470834 1_555
Pb2 S3 2.507323 1_655
Pb2 S12 2.523630 1_555
Pb3 S8 2.470834 1_555
Pb3 S6 2.470834 1_555
Pb3 S0 2.507323 1_455
Pb3 S14 2.523630 1_555
