# generated using pymatgen
data_HoSnPt
_symmetry_space_group_name_H-M   'P 1'
_cell_length_a   7.45022232
_cell_length_b   7.45022232
_cell_length_c   3.99946054
_cell_angle_alpha   90.00000000
_cell_angle_beta   90.00000000
_cell_angle_gamma   119.99999546
_symmetry_Int_Tables_number   1
_chemical_formula_structural   HoSnPt
_chemical_formula_sum   'Ho3 Sn3 Pt3'
_cell_volume   192.25185245
_cell_formula_units_Z   3
loop_
 _symmetry_equiv_pos_site_id
 _symmetry_equiv_pos_as_xyz
  1  'x, y, z'
loop_
 _atom_site_type_symbol
 _atom_site_label
 _atom_site_symmetry_multiplicity
 _atom_site_fract_x
 _atom_site_fract_y
 _atom_site_fract_z
 _atom_site_occupancy
  Ho  Ho0  1  0.40544015  0.40544015  0.50000000  1
  Ho  Ho1  1  0.59455985  0.00000000  0.50000000  1
  Ho  Ho2  1  0.00000000  0.59455985  0.50000000  1
  Sn  Sn0  1  0.00000000  0.25926425  0.00000000  1
  Sn  Sn1  1  0.74073575  0.74073575  -0.00000000  1
  Sn  Sn2  1  0.25926425  0.00000000  0.00000000  1
  Pt  Pt0  1  0.66666700  0.33333300  0.00000000  1
  Pt  Pt1  1  0.00000000  0.00000000  0.50000000  1
  Pt  Pt2  1  0.33333300  0.66666700  -0.00000000  1
loop_
_geom_bond_atom_site_label_1
_geom_bond_atom_site_label_2
_geom_bond_distance
_geom_bond_site_symmetry_2
Ho0 Pt0 3.020055 1_556
Ho0 Pt0 3.020055 1_555
Ho0 Pt2 3.020055 1_555
Ho0 Pt2 3.020055 1_556
Ho0 Pt1 3.020619 1_555
Ho0 Sn1 3.199853 1_555
Ho0 Sn1 3.199853 1_556
Ho0 Sn0 3.319562 1_555
Ho0 Sn0 3.319562 1_556
Ho0 Sn2 3.319562 1_556
Ho0 Sn2 3.319562 1_555
Ho1 Pt0 3.020050 1_556
Ho1 Pt0 3.020050 1_555
Ho1 Pt2 3.020051 1_545
Ho1 Pt2 3.020051 1_546
Ho1 Pt1 3.020619 1_655
Ho1 Sn2 3.199853 1_555
Ho1 Sn2 3.199853 1_556
Ho1 Sn1 3.319562 1_545
Ho1 Sn1 3.319562 1_546
Ho1 Sn0 3.319562 1_656
Ho1 Sn0 3.319562 1_655
Ho2 Pt2 3.020050 1_556
Ho2 Pt2 3.020050 1_555
Ho2 Pt0 3.020051 1_456
Ho2 Pt0 3.020051 1_455
Ho2 Pt1 3.020619 1_565
Ho2 Sn0 3.199853 1_555
Ho2 Sn0 3.199853 1_556
Ho2 Sn1 3.319562 1_455
Ho2 Sn1 3.319562 1_456
Ho2 Sn2 3.319562 1_565
Ho2 Sn2 3.319562 1_566
Sn0 Sn2 3.345588 1_555
Sn0 Sn1 3.345588 1_445
Sn1 Sn2 3.345588 1_665
Pt0 Sn0 2.800398 1_655
Pt0 Sn2 2.800403 1_555
Pt0 Sn1 2.800405 1_555
Pt1 Sn2 2.780271 1_555
Pt1 Sn2 2.780271 1_556
Pt1 Sn0 2.780271 1_555
Pt1 Sn0 2.780271 1_556
Pt1 Sn1 2.780271 1_445
Pt1 Sn1 2.780271 1_446
Pt2 Sn2 2.800398 1_565
Pt2 Sn0 2.800403 1_555
Pt2 Sn1 2.800405 1_555
