# generated using pymatgen
data_Ca3Ga3SiNi4
_symmetry_space_group_name_H-M   'P 1'
_cell_length_a   6.35149645
_cell_length_b   6.17206897
_cell_length_c   6.35149561
_cell_angle_alpha   108.89996044
_cell_angle_beta   110.03638808
_cell_angle_gamma   108.89996200
_symmetry_Int_Tables_number   1
_chemical_formula_structural   Ca3Ga3SiNi4
_chemical_formula_sum   'Ca3 Ga3 Si1 Ni4'
_cell_volume   193.00755690
_cell_formula_units_Z   1
loop_
 _symmetry_equiv_pos_site_id
 _symmetry_equiv_pos_as_xyz
  1  'x, y, z'
loop_
 _atom_site_type_symbol
 _atom_site_label
 _atom_site_symmetry_multiplicity
 _atom_site_fract_x
 _atom_site_fract_y
 _atom_site_fract_z
 _atom_site_occupancy
  Ca  Ca0  1  0.50155035  0.49888830  0.00000000  1
  Ca  Ca1  1  0.00000000  0.49888830  0.50155035  1
  Ca  Ca2  1  0.49844965  0.99733796  0.49844965  1
  Ga  Ga0  1  0.00000000  0.00517549  0.61487090  1
  Ga  Ga1  1  0.38512910  0.39030559  0.38512910  1
  Ga  Ga2  1  0.61487090  0.00517549  1.00000000  1
  Si  Si0  1  1.00000000  0.61771616  1.00000000  1
  Ni  Ni0  1  0.24359398  0.98992159  0.00000000  1
  Ni  Ni1  1  1.00000000  0.98992159  0.24359398  1
  Ni  Ni2  1  0.00000000  0.26034290  0.00000000  1
  Ni  Ni3  1  0.75640602  0.74632762  0.75640602  1
loop_
_geom_bond_atom_site_label_1
_geom_bond_atom_site_label_2
_geom_bond_distance
_geom_bond_site_symmetry_2
Ca0 Ga2 2.970793 1_564
Ca0 Ga1 2.993325 1_555
Ca0 Ga0 2.993328 1_554
Ca0 Ni3 2.998628 1_554
Ca0 Ni1 2.998628 1_555
Ca0 Si0 3.009420 1_554
Ca0 Ni0 3.036170 1_545
Ca0 Ni2 3.045860 1_555
Ca0 Ga2 3.350302 1_554
Ca0 Si0 3.492776 1_454
Ca0 Ga0 3.500320 1_665
Ca0 Ga1 3.500322 1_554
Ca1 Ga0 2.970794 1_565
Ca1 Ga1 2.993325 1_555
Ca1 Ga2 2.993328 1_454
Ca1 Ni0 2.998628 1_556
Ca1 Ni3 2.998628 1_455
Ca1 Si0 3.009420 1_455
Ca1 Ni1 3.036170 1_445
Ca1 Ni2 3.045860 1_555
Ca1 Ga0 3.350302 1_555
Ca1 Si0 3.492776 1_454
Ca1 Ga2 3.500321 1_565
Ca1 Ga1 3.500322 1_455
Ca2 Ga1 2.970799 1_565
Ca2 Ga2 2.993327 1_565
Ca2 Ga0 2.993328 1_665
Ca2 Ni0 2.998627 1_555
Ca2 Ni1 2.998628 1_455
Ca2 Si0 3.009420 1_454
Ca2 Ni3 3.036170 1_555
Ca2 Ni2 3.045860 1_666
Ca2 Ga1 3.350296 1_555
Ca2 Si0 3.492776 1_565
Ca2 Ga2 3.500320 1_564
Ca2 Ga0 3.500320 1_565
Ga0 Ni1 2.329371 1_445
Ga0 Ni2 2.442994 1_556
Ga0 Ni0 2.456924 1_546
Ga0 Ni3 2.456924 1_445
Ga1 Ni3 2.329370 1_555
Ga1 Ni2 2.442992 1_555
Ga1 Ni0 2.456928 1_545
Ga1 Ni1 2.456928 1_445
Ga2 Ni0 2.329372 1_546
Ga2 Ni2 2.442994 1_656
Ga2 Ni3 2.456924 1_545
Ga2 Ni1 2.456924 1_546
Ni0 Si0 2.317038 1_454
Ni0 Ni1 2.535325 1_455
Ni0 Ni3 2.535325 1_454
Ni0 Ni2 2.617723 1_565
Ni1 Si0 2.317038 1_554
Ni1 Ni3 2.535325 1_554
Ni1 Ni2 2.617723 1_665
Ni2 Si0 2.205732 1_454
Ni2 Ni3 2.617723 1_444
Ni3 Si0 2.317038 1_555
