# generated using pymatgen
data_In2PdPtO7
_symmetry_space_group_name_H-M   'P 1'
_cell_length_a   7.06115167
_cell_length_b   7.06115164
_cell_length_c   7.07728823
_cell_angle_alpha   59.92437979
_cell_angle_beta   59.92437992
_cell_angle_gamma   59.82918813
_symmetry_Int_Tables_number   1
_chemical_formula_structural   In2PdPtO7
_chemical_formula_sum   'In4 Pd2 Pt2 O14'
_cell_volume   248.91044832
_cell_formula_units_Z   2
loop_
 _symmetry_equiv_pos_site_id
 _symmetry_equiv_pos_as_xyz
  1  'x, y, z'
loop_
 _atom_site_type_symbol
 _atom_site_label
 _atom_site_symmetry_multiplicity
 _atom_site_fract_x
 _atom_site_fract_y
 _atom_site_fract_z
 _atom_site_occupancy
  In  In0  1  0.12500000  0.12500000  0.12500000  1
  In  In1  1  0.62500000  0.12500000  0.12500000  1
  In  In2  1  0.12500000  0.62500000  0.12500000  1
  In  In3  1  0.12500000  0.12500000  0.62500000  1
  Pd  Pd0  1  0.62500000  0.62500000  0.12500000  1
  Pd  Pd1  1  0.62500000  0.62500000  0.62500000  1
  Pt  Pt0  1  0.62500000  0.12500000  0.62500000  1
  Pt  Pt1  1  0.12500000  0.62500000  0.62500000  1
  O  O0  1  0.25026492  0.25026492  0.24973508  1
  O  O1  1  0.71682793  0.28267990  0.28317001  1
  O  O2  1  0.71682793  0.28267990  0.71732216  1
  O  O3  1  0.28267990  0.71682793  0.28317001  1
  O  O4  1  0.71534083  0.71534083  0.28465917  1
  O  O5  1  0.28093207  0.28093207  0.71906793  1
  O  O6  1  0.96732010  0.53317207  0.53267784  1
  O  O7  1  0.28267990  0.71682793  0.71732216  1
  O  O8  1  0.96906793  0.96906793  0.53093207  1
  O  O9  1  0.53317207  0.96732010  0.53267784  1
  O  O10  1  0.53465917  0.53465917  0.96534083  1
  O  O11  1  0.96732010  0.53317207  0.96682999  1
  O  O12  1  0.53317207  0.96732010  0.96682999  1
  O  O13  1  0.99973508  0.99973508  0.00026492  1
loop_
_geom_bond_atom_site_label_1
_geom_bond_atom_site_label_2
_geom_bond_distance
_geom_bond_site_symmetry_2
In0 O0 2.166954 1_555
In0 O13 2.166954 1_445
In0 O8 2.357090 1_445
In0 O5 2.357090 1_554
In0 O11 2.364225 1_454
In0 O3 2.364225 1_545
In0 O12 2.364225 1_544
In0 O1 2.364225 1_455
In1 O13 2.156882 1_545
In1 O0 2.156882 1_555
In1 O1 2.369718 1_555
In1 O12 2.369718 1_544
In1 O9 2.369718 1_545
In1 O2 2.369718 1_554
In1 O10 2.375472 1_554
In1 O4 2.375472 1_545
In2 O13 2.156882 1_455
In2 O0 2.156882 1_555
In2 O3 2.369718 1_555
In2 O11 2.369718 1_454
In2 O6 2.369718 1_455
In2 O7 2.369718 1_554
In2 O10 2.375472 1_554
In2 O4 2.375472 1_455
In3 O13 2.166954 1_446
In3 O0 2.166954 1_555
In3 O5 2.357090 1_555
In3 O8 2.357090 1_445
In3 O6 2.364225 1_455
In3 O7 2.364225 1_545
In3 O9 2.364225 1_545
In3 O2 2.364225 1_455
O1 Pd0 1.989056 1_555
O1 Pt0 1.991600 1_555
O2 Pd1 1.989056 1_555
O2 Pt0 1.991599 1_555
O3 Pd0 1.989056 1_555
O3 Pt1 1.991600 1_555
O4 Pd0 1.986101 1_555
O4 Pd1 1.986101 1_555
O5 Pt1 1.995700 1_555
O5 Pt0 1.995700 1_555
O6 Pd1 1.989056 1_555
O6 Pt1 1.991599 1_655
O7 Pd1 1.989056 1_555
O7 Pt1 1.991599 1_555
O8 Pt1 1.995700 1_655
O8 Pt0 1.995700 1_565
O9 Pd1 1.989056 1_555
O9 Pt0 1.991599 1_565
O10 Pd0 1.986101 1_556
O10 Pd1 1.986101 1_555
O11 Pd0 1.989056 1_556
O11 Pt1 1.991600 1_655
O12 Pd0 1.989056 1_556
O12 Pt0 1.991600 1_565
