# generated using pymatgen
data_LuGaNi3Ag
_symmetry_space_group_name_H-M   'P 1'
_cell_length_a   4.99233264
_cell_length_b   4.99233165
_cell_length_c   4.85532912
_cell_angle_alpha   59.06211278
_cell_angle_beta   59.06211083
_cell_angle_gamma   59.99999179
_symmetry_Int_Tables_number   1
_chemical_formula_structural   LuGaNi3Ag
_chemical_formula_sum   'Lu1 Ga1 Ni3 Ag1'
_cell_volume   84.33468777
_cell_formula_units_Z   1
loop_
 _symmetry_equiv_pos_site_id
 _symmetry_equiv_pos_as_xyz
  1  'x, y, z'
loop_
 _atom_site_type_symbol
 _atom_site_label
 _atom_site_symmetry_multiplicity
 _atom_site_fract_x
 _atom_site_fract_y
 _atom_site_fract_z
 _atom_site_occupancy
  Lu  Lu0  1  0.00372055  0.00372055  0.98883634  1
  Ga  Ga0  1  0.62263200  0.62263200  0.13210099  1
  Ni  Ni0  1  0.62337874  0.12555963  0.62768189  1
  Ni  Ni1  1  0.12555963  0.62337874  0.62768189  1
  Ni  Ni2  1  0.62337874  0.62337874  0.62768189  1
  Ag  Ag0  1  0.25132833  0.25132833  0.24601600  1
loop_
_geom_bond_atom_site_label_1
_geom_bond_atom_site_label_2
_geom_bond_distance
_geom_bond_site_symmetry_2
Lu0 Ni1 2.867422 1_545
Lu0 Ni0 2.867423 1_455
Lu0 Ni2 2.867424 1_455
Lu0 Ni2 2.867424 1_545
Lu0 Ni1 2.867426 1_555
Lu0 Ni0 2.867427 1_555
Lu0 Ni2 2.885427 1_446
Lu0 Ni0 2.885429 1_456
Lu0 Ni1 2.885429 1_546
Ga0 Ni0 2.410042 1_555
Ga0 Ni1 2.410042 1_555
Ga0 Ni2 2.410047 1_555
Ga0 Ni2 2.445293 1_554
Ga0 Ni0 2.445298 1_564
Ga0 Ni1 2.445298 1_654
Ga0 Lu0 2.936175 1_654
Ga0 Lu0 2.936175 1_564
Ga0 Lu0 2.936180 1_664
Ni0 Ni1 2.485278 1_555
Ni0 Ni2 2.485278 1_555
Ni0 Ni1 2.507054 1_645
Ni0 Ni2 2.507054 1_545
Ni1 Ni2 2.485279 1_555
Ni1 Ni2 2.507054 1_455
Ag0 Ni2 2.809942 1_554
Ag0 Ni0 2.809946 1_554
Ag0 Ni1 2.809946 1_554
Ag0 Lu0 2.902368 1_555
Ag0 Ni1 2.907697 1_555
Ag0 Ni0 2.907697 1_555
Ag0 Ni2 2.907701 1_545
Ag0 Ni2 2.907701 1_455
Ag0 Ni1 2.907705 1_545
Ag0 Ni0 2.907706 1_455
Ag0 Ga0 2.916476 1_555
Ag0 Ga0 2.916493 1_545
Ag0 Ga0 2.916493 1_455
Ag0 Lu0 3.052459 1_564
Ag0 Lu0 3.052460 1_654
Ag0 Lu0 3.052472 1_554
