# generated using pymatgen
data_Sc3Ti2Sn3
_symmetry_space_group_name_H-M   'P 1'
_cell_length_a   8.32200856
_cell_length_b   8.32200965
_cell_length_c   5.77172244
_cell_angle_alpha   90.00000000
_cell_angle_beta   90.00000000
_cell_angle_gamma   119.99999565
_symmetry_Int_Tables_number   1
_chemical_formula_structural   Sc3Ti2Sn3
_chemical_formula_sum   'Sc6 Ti4 Sn6'
_cell_volume   346.17241836
_cell_formula_units_Z   2
loop_
 _symmetry_equiv_pos_site_id
 _symmetry_equiv_pos_as_xyz
  1  'x, y, z'
loop_
 _atom_site_type_symbol
 _atom_site_label
 _atom_site_symmetry_multiplicity
 _atom_site_fract_x
 _atom_site_fract_y
 _atom_site_fract_z
 _atom_site_occupancy
  Sc  Sc0  1  0.23998594  0.00000000  0.25000000  1
  Sc  Sc1  1  0.23998594  0.23998594  0.75000000  1
  Sc  Sc2  1  0.00000000  0.76001406  0.75000000  1
  Sc  Sc3  1  1.00000000  0.23998594  0.25000000  1
  Sc  Sc4  1  0.76001406  0.76001406  0.25000000  1
  Sc  Sc5  1  0.76001406  0.00000000  0.75000000  1
  Ti  Ti0  1  0.33333300  0.66666700  0.00000000  1
  Ti  Ti1  1  0.66666700  0.33333300  0.50000000  1
  Ti  Ti2  1  0.66666700  0.33333300  0.00000000  1
  Ti  Ti3  1  0.33333300  0.66666700  0.50000000  1
  Sn  Sn0  1  0.60231230  0.00000000  0.25000000  1
  Sn  Sn1  1  0.60231230  0.60231230  0.75000000  1
  Sn  Sn2  1  0.00000000  0.39768770  0.75000000  1
  Sn  Sn3  1  1.00000000  0.60231230  0.25000000  1
  Sn  Sn4  1  0.39768770  0.39768770  0.25000000  1
  Sn  Sn5  1  0.39768770  0.00000000  0.75000000  1
loop_
_geom_bond_atom_site_label_1
_geom_bond_atom_site_label_2
_geom_bond_distance
_geom_bond_site_symmetry_2
Sc0 Sn3 2.886542 1_445
Sc0 Sn4 2.886542 1_555
Sc0 Sn0 3.015283 1_555
Sc0 Sn5 3.170264 1_554
Sc0 Sn5 3.170264 1_555
Sc0 Sc3 3.459191 1_455
Sc0 Sc4 3.459191 1_445
Sc0 Sc1 3.509539 1_555
Sc0 Sc1 3.509539 1_554
Sc0 Sc2 3.509539 1_544
Sc0 Sc2 3.509539 1_545
Sc0 Ti0 3.540557 1_545
Sc0 Ti3 3.540557 1_545
Sc0 Ti2 3.540562 1_555
Sc0 Ti1 3.540562 1_555
Sc1 Sn2 2.886541 1_555
Sc1 Sn5 2.886541 1_555
Sc1 Sn1 3.015284 1_555
Sc1 Sn4 3.170265 1_555
Sc1 Sn4 3.170265 1_556
Sc1 Sc5 3.459191 1_455
Sc1 Sc2 3.459192 1_545
Sc1 Sc3 3.509539 1_455
Sc1 Sc3 3.509539 1_456
Sc1 Ti1 3.540564 1_555
Sc1 Ti2 3.540564 1_556
Sc1 Ti3 3.540564 1_555
Sc1 Ti0 3.540564 1_556
Sc2 Sn1 2.886541 1_455
Sc2 Sn5 2.886541 1_565
Sc2 Sn2 3.015284 1_555
Sc2 Sn3 3.170265 1_455
Sc2 Sn3 3.170265 1_456
Sc2 Sc5 3.459191 1_465
Sc2 Sc4 3.509539 1_455
Sc2 Sc4 3.509539 1_456
Sc2 Ti3 3.540556 1_555
Sc2 Ti0 3.540556 1_556
Sc2 Ti1 3.540562 1_455
Sc2 Ti2 3.540562 1_456
Sc3 Sn4 2.886541 1_655
Sc3 Sn0 2.886541 1_555
Sc3 Sn3 3.015284 1_555
Sc3 Sn2 3.170265 1_654
Sc3 Sn2 3.170265 1_655
Sc3 Sc4 3.459192 1_545
Sc3 Sc5 3.509539 1_555
Sc3 Sc5 3.509539 1_554
Sc3 Ti2 3.540556 1_555
Sc3 Ti1 3.540556 1_555
Sc3 Ti3 3.540562 1_655
Sc3 Ti0 3.540562 1_655
Sc4 Sn3 2.886541 1_555
Sc4 Sn0 2.886541 1_565
Sc4 Sn4 3.015284 1_555
Sc4 Sn1 3.170265 1_555
Sc4 Sn1 3.170265 1_554
Sc4 Sc5 3.509539 1_564
Sc4 Sc5 3.509539 1_565
Sc4 Ti3 3.540564 1_555
Sc4 Ti0 3.540564 1_555
Sc4 Ti2 3.540564 1_555
Sc4 Ti1 3.540564 1_555
Sc5 Sn2 2.886542 1_655
Sc5 Sn1 2.886542 1_545
Sc5 Sn5 3.015283 1_555
Sc5 Sn0 3.170264 1_556
Sc5 Sn0 3.170264 1_555
Sc5 Ti1 3.540557 1_555
Sc5 Ti2 3.540557 1_556
Sc5 Ti3 3.540562 1_545
Sc5 Ti0 3.540562 1_546
Ti0 Ti3 2.885861 1_555
Ti0 Ti3 2.885861 1_554
Ti1 Ti2 2.885861 1_556
Ti1 Ti2 2.885861 1_555
Sn0 Ti1 2.928875 1_555
Sn0 Ti2 2.928875 1_555
Sn0 Ti0 2.928877 1_545
Sn0 Ti3 2.928877 1_545
Sn0 Sn5 3.350824 1_554
Sn0 Sn5 3.350824 1_555
Sn1 Ti3 2.928882 1_555
Sn1 Ti0 2.928882 1_556
Sn1 Ti1 2.928882 1_555
Sn1 Ti2 2.928882 1_556
Sn1 Sn4 3.350824 1_555
Sn1 Sn4 3.350824 1_556
Sn2 Ti2 2.928874 1_456
Sn2 Ti1 2.928874 1_455
Sn2 Ti0 2.928877 1_556
Sn2 Ti3 2.928877 1_555
Sn2 Sn3 3.350824 1_455
Sn2 Sn3 3.350824 1_456
Sn3 Ti0 2.928874 1_655
Sn3 Ti3 2.928874 1_655
Sn3 Ti1 2.928877 1_555
Sn3 Ti2 2.928877 1_555
Sn4 Ti1 2.928882 1_555
Sn4 Ti2 2.928882 1_555
Sn4 Ti0 2.928882 1_555
Sn4 Ti3 2.928882 1_555
Sn5 Ti3 2.928875 1_545
Sn5 Ti0 2.928875 1_546
Sn5 Ti1 2.928877 1_555
Sn5 Ti2 2.928877 1_556
