# generated using pymatgen
data_Al20CoNiRh6
_symmetry_space_group_name_H-M   'P 1'
_cell_length_a   7.81781335
_cell_length_b   7.81781290
_cell_length_c   7.74255249
_cell_angle_alpha   90.00000000
_cell_angle_beta   90.00000000
_cell_angle_gamma   120.00000190
_symmetry_Int_Tables_number   1
_chemical_formula_structural   Al20CoNiRh6
_chemical_formula_sum   'Al20 Co1 Ni1 Rh6'
_cell_volume   409.81264226
_cell_formula_units_Z   1
loop_
 _symmetry_equiv_pos_site_id
 _symmetry_equiv_pos_as_xyz
  1  'x, y, z'
loop_
 _atom_site_type_symbol
 _atom_site_label
 _atom_site_symmetry_multiplicity
 _atom_site_fract_x
 _atom_site_fract_y
 _atom_site_fract_z
 _atom_site_occupancy
  Al  Al0  1  0.00000000  0.00000000  0.99878346  1
  Al  Al1  1  0.00000000  0.00000000  0.50121654  1
  Al  Al2  1  0.47345414  0.94690929  0.25000000  1
  Al  Al3  1  0.52450823  0.47549177  0.75000000  1
  Al  Al4  1  0.95098254  0.47549177  0.75000000  1
  Al  Al5  1  0.05309071  0.52654586  0.25000000  1
  Al  Al6  1  0.47345414  0.52654586  0.25000000  1
  Al  Al7  1  0.52450823  0.04901746  0.75000000  1
  Al  Al8  1  0.19750485  0.39500870  0.93899601  1
  Al  Al9  1  0.80404237  0.19595763  0.43917313  1
  Al  Al10  1  0.39191327  0.19595763  0.43917313  1
  Al  Al11  1  0.60499130  0.80249515  0.93899601  1
  Al  Al12  1  0.19750485  0.80249515  0.93899601  1
  Al  Al13  1  0.80404237  0.60808673  0.06082687  1
  Al  Al14  1  0.80404237  0.19595763  0.06082687  1
  Al  Al15  1  0.80404237  0.60808673  0.43917313  1
  Al  Al16  1  0.39191327  0.19595763  0.06082687  1
  Al  Al17  1  0.60499130  0.80249515  0.56100399  1
  Al  Al18  1  0.19750485  0.39500870  0.56100399  1
  Al  Al19  1  0.19750485  0.80249515  0.56100399  1
  Co  Co0  1  0.33333300  0.66666700  0.75000000  1
  Ni  Ni0  1  0.66666700  0.33333300  0.25000000  1
  Rh  Rh0  1  0.12917809  0.25835819  0.25000000  1
  Rh  Rh1  1  0.87029721  0.12970279  0.75000000  1
  Rh  Rh2  1  0.25940658  0.12970279  0.75000000  1
  Rh  Rh3  1  0.74164181  0.87082191  0.25000000  1
  Rh  Rh4  1  0.12917809  0.87082191  0.25000000  1
  Rh  Rh5  1  0.87029721  0.74059342  0.75000000  1
loop_
_geom_bond_atom_site_label_1
_geom_bond_atom_site_label_2
_geom_bond_distance
_geom_bond_site_symmetry_2
Al0 Rh1 2.606695 1_455
Al0 Rh5 2.606700 1_445
Al0 Rh2 2.606700 1_555
Al0 Rh4 2.615890 1_546
Al0 Rh0 2.615899 1_556
Al0 Rh3 2.615899 1_446
Al1 Rh1 2.606695 1_455
Al1 Rh5 2.606700 1_445
Al1 Rh2 2.606700 1_555
Al1 Rh4 2.615890 1_545
Al1 Rh0 2.615899 1_555
Al1 Rh3 2.615899 1_445
Al2 Rh3 2.448856 1_555
Al2 Rh4 2.448863 1_555
Al2 Ni0 2.616253 1_565
Al3 Rh2 2.449605 1_555
Al3 Rh5 2.449605 1_555
Al3 Co0 2.588675 1_555
Al4 Rh5 2.449594 1_555
Al4 Rh1 2.449610 1_555
Al4 Co0 2.588675 1_655
Al5 Rh0 2.448856 1_555
Al5 Rh4 2.448863 1_555
Al5 Ni0 2.616253 1_455
Al6 Rh3 2.448861 1_555
Al6 Rh0 2.448861 1_555
Al6 Ni0 2.616266 1_555
Al7 Rh2 2.449595 1_555
Al7 Rh1 2.449610 1_555
Al7 Co0 2.588675 1_545
Al8 Co0 2.350339 1_555
Al8 Rh0 2.579584 1_556
Al8 Rh1 2.771489 1_455
Al8 Rh2 2.771489 1_555
Al9 Ni0 2.367607 1_555
Al9 Rh1 2.568378 1_555
Al9 Rh3 2.757585 1_545
Al9 Rh0 2.757585 1_655
Al10 Ni0 2.367623 1_555
Al10 Rh2 2.568371 1_555
Al10 Rh4 2.757585 1_545
Al10 Rh0 2.757585 1_555
Al11 Co0 2.350339 1_555
Al11 Rh3 2.579584 1_556
Al11 Rh1 2.771489 1_565
Al11 Rh5 2.771489 1_555
Al12 Co0 2.350328 1_555
Al12 Rh4 2.579592 1_556
Al12 Rh2 2.771489 1_565
Al12 Rh5 2.771489 1_455
Al13 Ni0 2.367623 1_555
Al13 Rh5 2.568371 1_554
Al13 Rh3 2.757585 1_555
Al13 Rh4 2.757585 1_655
Al14 Ni0 2.367607 1_555
Al14 Rh1 2.568378 1_554
Al14 Rh3 2.757585 1_545
Al14 Rh0 2.757585 1_655
Al15 Ni0 2.367623 1_555
Al15 Rh5 2.568371 1_555
Al15 Rh3 2.757585 1_555
Al15 Rh4 2.757585 1_655
Al16 Ni0 2.367623 1_555
Al16 Rh2 2.568371 1_554
Al16 Rh4 2.757585 1_545
Al16 Rh0 2.757585 1_555
Al17 Co0 2.350339 1_555
Al17 Rh3 2.579584 1_555
Al17 Rh1 2.771489 1_565
Al17 Rh5 2.771489 1_555
Al18 Co0 2.350339 1_555
Al18 Rh0 2.579584 1_555
Al18 Rh1 2.771489 1_455
Al18 Rh2 2.771489 1_555
Al19 Co0 2.350328 1_555
Al19 Rh4 2.579592 1_555
Al19 Rh2 2.771489 1_565
Al19 Rh5 2.771489 1_455
