# generated using pymatgen
data_Sr2In4IrPt
_symmetry_space_group_name_H-M   'P 1'
_cell_length_a   5.88996719
_cell_length_b   5.88996686
_cell_length_c   8.11757244
_cell_angle_alpha   90.00000000
_cell_angle_beta   90.00000000
_cell_angle_gamma   135.84528421
_symmetry_Int_Tables_number   1
_chemical_formula_structural   Sr2In4IrPt
_chemical_formula_sum   'Sr2 In4 Ir1 Pt1'
_cell_volume   196.17076737
_cell_formula_units_Z   1
loop_
 _symmetry_equiv_pos_site_id
 _symmetry_equiv_pos_as_xyz
  1  'x, y, z'
loop_
 _atom_site_type_symbol
 _atom_site_label
 _atom_site_symmetry_multiplicity
 _atom_site_fract_x
 _atom_site_fract_y
 _atom_site_fract_z
 _atom_site_occupancy
  Sr  Sr0  1  0.93967522  0.06032478  0.75000000  1
  Sr  Sr1  1  0.05986907  0.94013093  0.25000000  1
  In  In0  1  0.65646945  0.34353055  0.94909276  1
  In  In1  1  0.65646945  0.34353055  0.55090724  1
  In  In2  1  0.34333242  0.65666758  0.05720703  1
  In  In3  1  0.34333242  0.65666758  0.44279297  1
  Ir  Ir0  1  0.78077788  0.21922212  0.25000000  1
  Pt  Pt0  1  0.22007608  0.77992392  0.75000000  1
loop_
_geom_bond_atom_site_label_1
_geom_bond_atom_site_label_2
_geom_bond_distance
_geom_bond_site_symmetry_2
In0 Ir0 2.794254 1_556
In0 Pt0 2.827530 1_545
In0 Pt0 2.827530 1_655
In0 Sr1 3.461118 1_656
In0 Sr1 3.461118 1_546
In0 Sr0 3.488481 1_555
In0 Sr0 3.621251 1_565
In0 Sr0 3.621251 1_455
In1 Ir0 2.794254 1_555
In1 Pt0 2.827530 1_545
In1 Pt0 2.827530 1_655
In1 Sr1 3.461118 1_655
In1 Sr1 3.461118 1_545
In1 Sr0 3.488481 1_555
In1 Sr0 3.621251 1_565
In1 Sr0 3.621251 1_455
In2 Ir0 2.795787 1_565
In2 Ir0 2.795788 1_455
In2 Pt0 2.833595 1_554
In2 Sr1 3.467594 1_555
In2 Sr0 3.496549 1_454
In2 Sr0 3.496549 1_564
In2 Sr1 3.596871 1_545
In2 Sr1 3.596871 1_655
In3 Ir0 2.795787 1_565
In3 Ir0 2.795788 1_455
In3 Pt0 2.833595 1_555
In3 Sr1 3.467594 1_555
In3 Sr0 3.496549 1_455
In3 Sr0 3.496549 1_565
In3 Sr1 3.596871 1_545
In3 Sr1 3.596871 1_655
Ir0 Sr1 3.046614 1_645
Ir0 Sr1 3.273550 1_655
Ir0 Sr1 3.273550 1_545
Pt0 Sr0 3.060911 1_465
Pt0 Sr0 3.263032 1_455
Pt0 Sr0 3.263033 1_565
