# generated using pymatgen
data_Sn4Ir
_symmetry_space_group_name_H-M   'P 1'
_cell_length_a   6.30565029
_cell_length_b   6.30565046
_cell_length_c   12.50036787
_cell_angle_alpha   104.60883776
_cell_angle_beta   104.60884099
_cell_angle_gamma   90.00000313
_symmetry_Int_Tables_number   1
_chemical_formula_structural   Sn4Ir
_chemical_formula_sum   'Sn16 Ir4'
_cell_volume   464.33652332
_cell_formula_units_Z   4
loop_
 _symmetry_equiv_pos_site_id
 _symmetry_equiv_pos_as_xyz
  1  'x, y, z'
loop_
 _atom_site_type_symbol
 _atom_site_label
 _atom_site_symmetry_multiplicity
 _atom_site_fract_x
 _atom_site_fract_y
 _atom_site_fract_z
 _atom_site_occupancy
  Sn  Sn0  1  0.86493303  0.11708082  0.87808490  1
  Sn  Sn1  1  0.23899592  0.48684713  0.62191510  1
  Sn  Sn2  1  0.88291918  0.13506697  0.62191510  1
  Sn  Sn3  1  0.98684713  0.38291918  0.12191510  1
  Sn  Sn4  1  0.48684713  0.23899592  0.12191510  1
  Sn  Sn5  1  0.38291918  0.98684713  0.62191510  1
  Sn  Sn6  1  0.73899592  0.63506697  0.62191510  1
  Sn  Sn7  1  0.36493303  0.26100408  0.87808490  1
  Sn  Sn8  1  0.01315287  0.61708082  0.87808490  1
  Sn  Sn9  1  0.11708082  0.86493303  0.37808490  1
  Sn  Sn10  1  0.76100408  0.51315287  0.37808490  1
  Sn  Sn11  1  0.13506697  0.88291918  0.12191510  1
  Sn  Sn12  1  0.51315287  0.76100408  0.87808490  1
  Sn  Sn13  1  0.61708082  0.01315287  0.37808490  1
  Sn  Sn14  1  0.26100408  0.36493303  0.37808490  1
  Sn  Sn15  1  0.63506697  0.73899592  0.12191510  1
  Ir  Ir0  1  0.37500000  0.62500000  0.25000000  1
  Ir  Ir1  1  0.12500000  0.87500000  0.75000000  1
  Ir  Ir2  1  0.62500000  0.37500000  0.75000000  1
  Ir  Ir3  1  0.87500000  0.12500000  0.25000000  1
loop_
_geom_bond_atom_site_label_1
_geom_bond_atom_site_label_2
_geom_bond_distance
_geom_bond_site_symmetry_2
Ir0 Sn10 2.754834 1_555
Ir0 Sn4 2.754834 1_555
Ir0 Sn11 2.754837 1_555
Ir0 Sn9 2.754837 1_555
Ir0 Sn14 2.770293 1_555
Ir0 Sn15 2.770293 1_555
Ir0 Sn3 2.770298 1_455
Ir0 Sn13 2.770298 1_565
Ir1 Sn8 2.754834 1_555
Ir1 Sn5 2.754834 1_555
Ir1 Sn6 2.754836 1_455
Ir1 Sn7 2.754837 1_565
Ir1 Sn2 2.770293 1_465
Ir1 Sn0 2.770293 1_465
Ir1 Sn12 2.770298 1_555
Ir1 Sn1 2.770298 1_555
Ir2 Sn1 2.754834 1_555
Ir2 Sn12 2.754834 1_555
Ir2 Sn0 2.754837 1_555
Ir2 Sn2 2.754837 1_555
Ir2 Sn6 2.770293 1_555
Ir2 Sn7 2.770293 1_555
Ir2 Sn8 2.770298 1_655
Ir2 Sn5 2.770298 1_545
Ir3 Sn3 2.754834 1_555
Ir3 Sn13 2.754834 1_555
Ir3 Sn14 2.754836 1_655
Ir3 Sn15 2.754837 1_545
Ir3 Sn9 2.770293 1_645
Ir3 Sn11 2.770293 1_645
Ir3 Sn4 2.770298 1_555
Ir3 Sn10 2.770298 1_555
