# generated using pymatgen
data_Zr6Zn21PAu2
_symmetry_space_group_name_H-M   'P 1'
_cell_length_a   8.71316276
_cell_length_b   8.71316186
_cell_length_c   8.69707044
_cell_angle_alpha   60.06107636
_cell_angle_beta   60.06107977
_cell_angle_gamma   59.84307354
_symmetry_Int_Tables_number   1
_chemical_formula_structural   Zr6Zn21PAu2
_chemical_formula_sum   'Zr6 Zn21 P1 Au2'
_cell_volume   466.75745706
_cell_formula_units_Z   1
loop_
 _symmetry_equiv_pos_site_id
 _symmetry_equiv_pos_as_xyz
  1  'x, y, z'
loop_
 _atom_site_type_symbol
 _atom_site_label
 _atom_site_symmetry_multiplicity
 _atom_site_fract_x
 _atom_site_fract_y
 _atom_site_fract_z
 _atom_site_occupancy
  Zr  Zr0  1  0.70391909  0.29608091  0.29240718  1
  Zr  Zr1  1  0.29608091  0.70391909  0.70759282  1
  Zr  Zr2  1  0.29608091  0.70391909  0.29240718  1
  Zr  Zr3  1  0.70391909  0.29608091  0.70759282  1
  Zr  Zr4  1  0.29336710  0.29336710  0.70663290  1
  Zr  Zr5  1  0.70663290  0.70663290  0.29336710  1
  Zn  Zn0  1  0.12530217  0.12530217  0.12147419  1
  Zn  Zn1  1  0.87469783  0.87469783  0.87852581  1
  Zn  Zn2  1  0.12530217  0.12530217  0.62792247  1
  Zn  Zn3  1  0.12464198  0.62818490  0.12358706  1
  Zn  Zn4  1  0.87469783  0.87469783  0.37207753  1
  Zn  Zn5  1  0.87535802  0.37181510  0.87641294  1
  Zn  Zn6  1  0.62818490  0.12464198  0.12358706  1
  Zn  Zn7  1  0.37181510  0.87535802  0.87641294  1
  Zn  Zn8  1  0.50000000  0.00000000  0.00000000  1
  Zn  Zn9  1  0.00000000  0.50000000  0.50000000  1
  Zn  Zn10  1  0.00000000  0.50000000  0.00000000  1
  Zn  Zn11  1  0.50000000  0.00000000  0.50000000  1
  Zn  Zn12  1  0.50000000  0.50000000  0.00000000  1
  Zn  Zn13  1  0.33191712  0.33191712  0.33219118  1
  Zn  Zn14  1  0.66808288  0.66808288  0.66780882  1
  Zn  Zn15  1  0.33191712  0.33191712  0.00397558  1
  Zn  Zn16  1  0.33885435  0.00069567  0.33022599  1
  Zn  Zn17  1  0.66808288  0.66808288  0.99602442  1
  Zn  Zn18  1  0.66114565  0.99930433  0.66977401  1
  Zn  Zn19  1  0.00069567  0.33885435  0.33022599  1
  Zn  Zn20  1  0.99930433  0.66114565  0.66977401  1
  P  P0  1  0.50000000  0.50000000  0.50000000  1
  Au  Au0  1  0.00000000  0.00000000  0.50000000  1
  Au  Au1  1  0.00000000  0.00000000  0.00000000  1
loop_
_geom_bond_atom_site_label_1
_geom_bond_atom_site_label_2
_geom_bond_distance
_geom_bond_site_symmetry_2
Zn0 Zn10 2.663497 1_555
Zn0 Zn8 2.663497 1_555
Zn0 Zn15 2.666452 1_555
Zn1 Zn10 2.663497 1_656
Zn1 Zn8 2.663497 1_566
Zn1 Zn17 2.666452 1_555
Zn2 Zn9 2.663497 1_555
Zn3 Zn9 2.676624 1_555
Zn4 Zn9 2.663497 1_655
Zn5 Zn9 2.676624 1_655
Zn6 Zn8 2.676631 1_555
Zn7 Zn8 2.676631 1_566
Zn8 Zr5 3.120363 1_545
Zn8 Zr4 3.120363 1_554
Zn8 Zr3 3.134705 1_554
Zn8 Zr2 3.134705 1_545
Zn9 Zr4 3.120363 1_555
Zn9 Zr5 3.120363 1_455
Zn9 Zr2 3.134705 1_555
Zn9 Zr3 3.134705 1_455
Zn10 Zn19 2.490705 1_555
Zn10 Zn20 2.490705 1_454
Zn10 Zn15 2.510714 1_555
Zn10 Zn17 2.510714 1_454
Zn10 Zn3 2.676631 1_555
Zn10 Zn5 2.676631 1_454
Zn10 Zr5 3.120363 1_455
Zn10 Zr4 3.120363 1_554
Zn10 Zr1 3.134705 1_554
Zn10 Zr0 3.134705 1_455
Zn11 Zn18 2.490690 1_545
Zn11 Zn16 2.490690 1_555
Zn11 Zn14 2.510711 1_545
Zn11 Zn13 2.510711 1_555
Zn11 Zn4 2.663497 1_545
Zn11 Zn2 2.663497 1_555
Zn11 Zn7 2.676624 1_545
Zn11 Zn6 2.676624 1_555
Zn11 Zr4 3.120363 1_555
Zn11 Zr5 3.120363 1_545
Zn11 Zr0 3.134705 1_555
Zn11 Zr1 3.134705 1_545
Zn12 Zn17 2.518898 1_554
Zn12 Zn15 2.518898 1_555
Zn12 Zn14 2.518903 1_554
Zn12 Zn13 2.518903 1_555
Zn12 Zn7 2.668055 1_554
Zn12 Zn6 2.668055 1_555
Zn12 Zn5 2.668056 1_554
Zn12 Zn3 2.668056 1_555
Zn12 Zr0 3.099882 1_555
Zn12 Zr2 3.099882 1_555
Zn12 Zr1 3.099882 1_554
Zn12 Zr3 3.099882 1_554
Zn13 Zn9 2.510711 1_555
Zn13 Zn2 2.666453 1_555
Zn13 Zn3 2.669940 1_555
Zn13 Zn6 2.669940 1_555
Zn13 Zn15 2.854514 1_555
Zn13 Zn16 2.864576 1_555
Zn13 Zn19 2.864576 1_555
Zn13 Zr2 2.948702 1_555
Zn13 Zr0 2.948703 1_555
Zn13 Zr4 2.959804 1_555
Zn14 Zn9 2.510711 1_655
Zn14 Zn4 2.666453 1_555
Zn14 Zn5 2.669940 1_555
Zn14 Zn7 2.669940 1_555
Zn14 Zn17 2.854514 1_555
Zn14 Zn18 2.864576 1_555
Zn14 Zn20 2.864576 1_555
Zn14 Zr3 2.948702 1_555
Zn14 Zr1 2.948703 1_555
Zn14 Zr5 2.959804 1_555
Zn15 Zn8 2.510713 1_555
Zn15 Zn3 2.669940 1_555
Zn15 Zn6 2.669940 1_555
Zn15 Zn16 2.864580 1_555
Zn15 Zn19 2.864580 1_555
Zn15 Zr1 2.948706 1_554
Zn15 Zr3 2.948706 1_554
Zn15 Zr4 2.959812 1_554
Zn16 Zn8 2.490705 1_555
Zn17 Zn8 2.510713 1_566
Zn17 Zn5 2.669940 1_555
Zn17 Zn7 2.669940 1_555
Zn17 Zn18 2.864580 1_555
Zn17 Zn20 2.864580 1_555
Zn17 Zr0 2.948706 1_556
Zn17 Zr2 2.948706 1_556
Zn17 Zr5 2.959812 1_556
Zn18 Zn8 2.490705 1_566
Zn19 Zn9 2.490689 1_555
Zn20 Zn9 2.490689 1_655
P0 Zr3 2.530144 1_555
P0 Zr2 2.530144 1_555
P0 Zr1 2.530144 1_555
P0 Zr0 2.530144 1_555
P0 Zr5 2.551548 1_555
P0 Zr4 2.551548 1_555
Au0 Zn19 2.560283 1_555
Au0 Zn20 2.560283 1_445
Au0 Zn16 2.560283 1_555
Au0 Zn18 2.560283 1_445
Au0 Zn1 2.691496 1_445
Au0 Zn0 2.691496 1_555
Au0 Zn2 2.691503 1_555
Au0 Zn4 2.691503 1_445
Au0 Zr1 3.143799 1_545
Au0 Zr3 3.143799 1_455
Au0 Zr0 3.143799 1_455
Au0 Zr2 3.143799 1_545
Au1 Zn5 2.642853 1_454
Au1 Zn3 2.642853 1_545
Au1 Zn7 2.642853 1_544
Au1 Zn6 2.642853 1_455
Au1 Zn4 2.645804 1_445
Au1 Zn2 2.645804 1_554
Au1 Zn0 2.645811 1_555
Au1 Zn1 2.645811 1_444
