# generated using pymatgen
data_HfZr5(Ti3Sn5)2
_symmetry_space_group_name_H-M   'P 1'
_cell_length_a   9.54871088
_cell_length_b   9.54919585
_cell_length_c   5.80252333
_cell_angle_alpha   90.00000000
_cell_angle_beta   90.00000000
_cell_angle_gamma   119.99832342
_symmetry_Int_Tables_number   1
_chemical_formula_structural   HfZr5(Ti3Sn5)2
_chemical_formula_sum   'Hf1 Zr5 Ti6 Sn10'
_cell_volume   458.21194626
_cell_formula_units_Z   1
loop_
 _symmetry_equiv_pos_site_id
 _symmetry_equiv_pos_as_xyz
  1  'x, y, z'
loop_
 _atom_site_type_symbol
 _atom_site_label
 _atom_site_symmetry_multiplicity
 _atom_site_fract_x
 _atom_site_fract_y
 _atom_site_fract_z
 _atom_site_occupancy
  Hf  Hf0  1  0.15487943  0.30975887  0.25000000  1
  Zr  Zr0  1  0.84656237  0.69312575  0.75000000  1
  Zr  Zr1  1  0.15372984  0.84517024  0.25000000  1
  Zr  Zr2  1  0.69144039  0.84517024  0.25000000  1
  Zr  Zr3  1  0.30792896  0.15396991  0.75000000  1
  Zr  Zr4  1  0.84603995  0.15396991  0.75000000  1
  Ti  Ti0  1  0.50001879  0.00003759  0.50007807  1
  Ti  Ti1  1  0.49874774  0.49943966  0.00135417  1
  Ti  Ti2  1  0.00069292  0.49943966  0.00135417  1
  Ti  Ti3  1  0.00069292  0.49943966  0.49864583  1
  Ti  Ti4  1  0.50001879  0.00003759  0.99992193  1
  Ti  Ti5  1  0.49874774  0.49943966  0.49864583  1
  Sn  Sn0  1  0.21098924  0.42197747  0.75000000  1
  Sn  Sn1  1  0.78904225  0.21085745  0.25000000  1
  Sn  Sn2  1  0.42181520  0.21085745  0.25000000  1
  Sn  Sn3  1  0.57742215  0.78847325  0.75000000  1
  Sn  Sn4  1  0.21105210  0.78847325  0.75000000  1
  Sn  Sn5  1  0.78865510  0.57731019  0.25000000  1
  Sn  Sn6  1  0.66688222  0.33376345  0.75000000  1
  Sn  Sn7  1  0.33309399  0.66618899  0.25000000  1
  Sn  Sn8  1  0.00077494  0.00154888  0.49866505  1
  Sn  Sn9  1  0.00077494  0.00154888  0.00133495  1
loop_
_geom_bond_atom_site_label_1
_geom_bond_atom_site_label_2
_geom_bond_distance
_geom_bond_site_symmetry_2
Hf0 Sn8 2.928953 1_555
Hf0 Sn9 2.928953 1_555
Hf0 Sn7 2.947672 1_555
Hf0 Sn0 3.046078 1_554
Hf0 Sn0 3.046078 1_555
Hf0 Sn1 3.129844 1_455
Hf0 Sn2 3.129844 1_555
Hf0 Ti2 3.193215 1_555
Hf0 Ti3 3.193215 1_555
Hf0 Ti1 3.193222 1_555
Hf0 Ti5 3.193222 1_555
Ti0 Ti4 2.900356 1_555
Ti0 Ti4 2.902168 1_554
Ti0 Zr4 3.213100 1_555
Ti0 Zr3 3.213108 1_555
Ti0 Zr1 3.215057 1_545
Ti0 Zr2 3.215057 1_545
Ti1 Ti5 2.885546 1_555
Ti1 Ti5 2.916977 1_554
Ti1 Zr2 3.208175 1_555
Ti1 Zr3 3.212418 1_554
Ti1 Zr0 3.230463 1_554
Ti2 Ti3 2.885546 1_555
Ti2 Ti3 2.916977 1_554
Ti2 Zr1 3.208176 1_555
Ti2 Zr4 3.212417 1_454
Ti2 Zr0 3.230477 1_454
Ti3 Zr1 3.208176 1_555
Ti3 Zr4 3.212417 1_455
Ti3 Zr0 3.230477 1_455
Ti4 Zr4 3.213100 1_555
Ti4 Zr3 3.213108 1_555
Ti4 Zr1 3.215057 1_546
Ti4 Zr2 3.215057 1_546
Ti5 Zr2 3.208175 1_555
Ti5 Zr3 3.212418 1_555
Ti5 Zr0 3.230463 1_555
Sn0 Ti5 2.862156 1_555
Sn0 Ti1 2.862156 1_556
Sn0 Ti3 2.862156 1_555
Sn0 Ti2 2.862156 1_556
Sn0 Zr3 3.126576 1_555
Sn0 Zr4 3.126589 1_455
Sn1 Ti2 2.861995 1_655
Sn1 Ti3 2.861995 1_655
Sn1 Ti0 2.866936 1_555
Sn1 Ti4 2.866936 1_554
Sn1 Zr4 3.050290 1_555
Sn1 Zr4 3.050290 1_554
Sn1 Zr2 3.131847 1_545
Sn2 Ti1 2.861993 1_555
Sn2 Ti5 2.861993 1_555
Sn2 Ti0 2.866936 1_555
Sn2 Ti4 2.866936 1_554
Sn2 Zr3 3.050293 1_555
Sn2 Zr3 3.050293 1_554
Sn2 Zr1 3.131847 1_545
Sn3 Ti4 2.867732 1_565
Sn3 Ti0 2.867732 1_565
Sn3 Ti5 2.869846 1_555
Sn3 Ti1 2.869846 1_556
Sn3 Zr2 3.050632 1_555
Sn3 Zr2 3.050632 1_556
Sn3 Zr0 3.126242 1_555
Sn3 Zr4 3.131890 1_565
Sn4 Ti4 2.867726 1_565
Sn4 Ti0 2.867726 1_565
Sn4 Ti3 2.869846 1_555
Sn4 Ti2 2.869846 1_556
Sn4 Zr1 3.050634 1_556
Sn4 Zr1 3.050634 1_555
Sn4 Zr0 3.126261 1_455
Sn4 Zr3 3.131895 1_565
Sn5 Ti5 2.870424 1_555
Sn5 Ti1 2.870424 1_555
Sn5 Ti2 2.870432 1_655
Sn5 Ti3 2.870432 1_655
Sn5 Zr0 3.055272 1_555
Sn5 Zr0 3.055272 1_554
Sn5 Zr1 3.127067 1_655
Sn5 Zr2 3.127067 1_555
Sn6 Zr4 2.968373 1_555
Sn6 Zr3 2.968389 1_555
Sn6 Zr0 2.971921 1_555
Sn6 Ti4 3.117709 1_555
Sn6 Ti0 3.117709 1_555
Sn6 Ti3 3.122101 1_655
Sn6 Ti2 3.122101 1_656
Sn6 Ti1 3.122101 1_556
Sn6 Ti5 3.122101 1_555
Sn7 Zr1 2.963362 1_555
Sn7 Zr2 2.963370 1_555
Sn7 Ti3 3.104447 1_555
Sn7 Ti2 3.104447 1_555
Sn7 Ti5 3.104462 1_555
Sn7 Ti1 3.104462 1_555
Sn7 Ti0 3.119029 1_565
Sn7 Ti4 3.119029 1_564
Sn8 Sn9 2.885769 1_555
Sn8 Sn9 2.916754 1_556
Sn8 Zr3 2.928948 1_555
Sn8 Zr4 2.928962 1_455
Sn8 Zr1 2.936976 1_545
Sn8 Zr2 2.936983 1_445
Sn8 Zr0 2.938146 1_445
Sn9 Zr3 2.928948 1_554
Sn9 Zr4 2.928962 1_454
Sn9 Zr1 2.936976 1_545
Sn9 Zr2 2.936983 1_445
Sn9 Zr0 2.938146 1_444
