# generated using pymatgen
data_NaHf2CuS5
_symmetry_space_group_name_H-M   'P 1'
_cell_length_a   6.80360295
_cell_length_b   6.80360346
_cell_length_c   15.62668081
_cell_angle_alpha   90.00000000
_cell_angle_beta   90.00000000
_cell_angle_gamma   148.82780381
_symmetry_Int_Tables_number   1
_chemical_formula_structural   NaHf2CuS5
_chemical_formula_sum   'Na2 Hf4 Cu2 S10'
_cell_volume   374.41127671
_cell_formula_units_Z   2
loop_
 _symmetry_equiv_pos_site_id
 _symmetry_equiv_pos_as_xyz
  1  'x, y, z'
loop_
 _atom_site_type_symbol
 _atom_site_label
 _atom_site_symmetry_multiplicity
 _atom_site_fract_x
 _atom_site_fract_y
 _atom_site_fract_z
 _atom_site_occupancy
  Na  Na0  1  0.03780783  0.96219217  0.25000000  1
  Na  Na1  1  0.96219217  0.03780783  0.75000000  1
  Hf  Hf0  1  0.20949825  0.79050175  0.90224868  1
  Hf  Hf1  1  0.79050175  0.20949825  0.40224868  1
  Hf  Hf2  1  0.20949825  0.79050175  0.59775132  1
  Hf  Hf3  1  0.79050175  0.20949825  0.09775132  1
  Cu  Cu0  1  0.31953545  0.68046455  0.25000000  1
  Cu  Cu1  1  0.68046455  0.31953545  0.75000000  1
  S  S0  1  0.16157661  0.83842339  0.44065974  1
  S  S1  1  0.83842339  0.16157661  0.94065974  1
  S  S2  1  0.28936742  0.71063258  0.75000000  1
  S  S3  1  0.41861457  0.58138543  0.36932755  1
  S  S4  1  0.16157661  0.83842339  0.05934026  1
  S  S5  1  0.58138543  0.41861457  0.86932755  1
  S  S6  1  0.58138543  0.41861457  0.63067245  1
  S  S7  1  0.41861457  0.58138543  0.13067245  1
  S  S8  1  0.83842339  0.16157661  0.55934026  1
  S  S9  1  0.71063258  0.28936742  0.25000000  1
loop_
_geom_bond_atom_site_label_1
_geom_bond_atom_site_label_2
_geom_bond_distance
_geom_bond_site_symmetry_2
Na0 S9 2.910803 1_565
Na0 S9 2.910804 1_455
Na0 S3 3.042927 1_455
Na0 S7 3.042927 1_455
Na0 S3 3.042927 1_565
Na0 S7 3.042927 1_565
Na1 S2 2.910803 1_545
Na1 S2 2.910804 1_655
Na1 S5 3.042927 1_655
Na1 S6 3.042927 1_655
Na1 S5 3.042927 1_545
Na1 S6 3.042927 1_545
Hf0 S4 2.533901 1_556
Hf0 S5 2.534940 1_455
Hf0 S5 2.534941 1_565
Hf0 S1 2.560746 1_565
Hf0 S1 2.560746 1_455
Hf0 S2 2.599264 1_555
Hf1 S8 2.533901 1_555
Hf1 S3 2.534940 1_655
Hf1 S3 2.534941 1_545
Hf1 S0 2.560746 1_545
Hf1 S0 2.560746 1_655
Hf1 S9 2.599264 1_555
Hf2 S0 2.533901 1_555
Hf2 S6 2.534940 1_455
Hf2 S6 2.534941 1_565
Hf2 S8 2.560746 1_565
Hf2 S8 2.560746 1_455
Hf2 S2 2.599264 1_555
Hf3 S1 2.533901 1_554
Hf3 S7 2.534940 1_655
Hf3 S7 2.534941 1_545
Hf3 S4 2.560746 1_545
Hf3 S4 2.560746 1_655
Hf3 S9 2.599264 1_555
Cu0 S3 2.272329 1_555
Cu0 S7 2.272329 1_555
Cu0 S9 2.319288 1_455
Cu0 S9 2.319289 1_565
Cu1 S5 2.272329 1_555
Cu1 S6 2.272329 1_555
Cu1 S2 2.319288 1_655
Cu1 S2 2.319289 1_545
