# generated using pymatgen
data_Sr3Sc2MoO9
_symmetry_space_group_name_H-M   'P 1'
_cell_length_a   9.84524509
_cell_length_b   9.84524395
_cell_length_c   5.65965689
_cell_angle_alpha   73.23189531
_cell_angle_beta   73.23188575
_cell_angle_gamma   48.92996574
_symmetry_Int_Tables_number   1
_chemical_formula_structural   Sr3Sc2MoO9
_chemical_formula_sum   'Sr6 Sc4 Mo2 O18'
_cell_volume   392.25705378
_cell_formula_units_Z   2
loop_
 _symmetry_equiv_pos_site_id
 _symmetry_equiv_pos_as_xyz
  1  'x, y, z'
loop_
 _atom_site_type_symbol
 _atom_site_label
 _atom_site_symmetry_multiplicity
 _atom_site_fract_x
 _atom_site_fract_y
 _atom_site_fract_z
 _atom_site_occupancy
  Sr  Sr0  1  0.91771602  0.40404450  0.84536146  1
  Sr  Sr1  1  0.23807881  0.76192135  0.49999980  1
  Sr  Sr2  1  0.59595531  0.08228407  0.15463863  1
  Sr  Sr3  1  0.76192119  0.23807865  0.50000020  1
  Sr  Sr4  1  0.08228398  0.59595550  0.15463854  1
  Sr  Sr5  1  0.40404469  0.91771593  0.84536137  1
  Sc  Sc0  1  0.50000000  0.50000000  0.00000000  1
  Sc  Sc1  1  0.83350289  0.83350280  0.66260643  1
  Sc  Sc2  1  0.16649711  0.16649720  0.33739357  1
  Sc  Sc3  1  0.00000000  0.00000000  0.00000000  1
  Mo  Mo0  1  0.33312775  0.33312749  0.66309181  1
  Mo  Mo1  1  0.66687225  0.66687251  0.33690819  1
  O  O0  1  0.43380338  0.90712220  0.32970541  1
  O  O1  1  0.74577986  0.25422022  0.99999994  1
  O  O2  1  0.09287774  0.56619667  0.67029449  1
  O  O3  1  0.90712226  0.43380333  0.32970551  1
  O  O4  1  0.25422014  0.74577978  0.00000006  1
  O  O5  1  0.56619662  0.09287780  0.67029459  1
  O  O6  1  0.07193391  0.07193399  0.22673041  1
  O  O7  1  0.39762739  0.39762746  0.87908947  1
  O  O8  1  0.72567284  0.72567287  0.56402557  1
  O  O9  1  0.60237261  0.60237254  0.12091053  1
  O  O10  1  0.92806609  0.92806601  0.77326959  1
  O  O11  1  0.27432716  0.27432713  0.43597443  1
  O  O12  1  0.57227049  0.57227056  0.61565531  1
  O  O13  1  0.89653493  0.89653508  0.30602390  1
  O  O14  1  0.24089427  0.24089416  0.94890693  1
  O  O15  1  0.10346507  0.10346492  0.69397610  1
  O  O16  1  0.42772951  0.42772944  0.38434469  1
  O  O17  1  0.75910573  0.75910584  0.05109307  1
loop_
_geom_bond_atom_site_label_1
_geom_bond_atom_site_label_2
_geom_bond_distance
_geom_bond_site_symmetry_2
Mo0 O11 1.903051 1_555
Mo0 O14 1.911594 1_555
Mo0 O16 1.915198 1_555
Mo0 O7 1.930444 1_555
Mo0 O5 1.930925 1_555
Mo0 O2 1.930927 1_555
Mo1 O8 1.903051 1_555
Mo1 O17 1.911594 1_555
Mo1 O12 1.915198 1_555
Mo1 O9 1.930444 1_555
Mo1 O0 1.930925 1_555
Mo1 O3 1.930927 1_555
O0 Sc2 2.148587 1_565
O0 Sr5 2.805226 1_554
O0 Sr2 2.867588 1_565
O0 Sr5 2.873343 1_555
O0 Sr1 2.904924 1_555
O1 Sc0 2.004226 1_556
O1 Sc3 2.073054 1_656
O1 Sr0 2.736479 1_555
O1 Sr2 2.736481 1_556
O1 Sr3 2.832887 1_555
O1 Sr3 2.832889 1_556
O2 Sc1 2.148586 1_455
O2 Sr4 2.805227 1_556
O2 Sr0 2.867589 1_455
O2 Sr4 2.873343 1_555
O2 Sr1 2.904927 1_555
O3 Sc2 2.148586 1_655
O3 Sr0 2.805227 1_554
O3 Sr4 2.867589 1_655
O3 Sr0 2.873343 1_555
O3 Sr3 2.904927 1_555
O4 Sc0 2.004226 1_555
O4 Sc3 2.073054 1_565
O4 Sr4 2.736479 1_555
O4 Sr5 2.736481 1_554
O4 Sr1 2.832887 1_555
O4 Sr1 2.832889 1_554
O5 Sc1 2.148587 1_545
O5 Sr2 2.805226 1_556
O5 Sr5 2.867588 1_545
O5 Sr2 2.873343 1_555
O5 Sr3 2.904924 1_555
O6 Sc2 1.984330 1_555
O6 Sc3 2.087467 1_555
O6 Sr1 2.561112 1_545
O6 Sr3 2.561113 1_455
O6 Sr0 2.991782 1_454
O6 Sr5 2.991783 1_544
O7 Sc0 2.151887 1_556
O7 Sr4 2.623251 1_556
O7 Sr2 2.623251 1_556
O7 Sr3 3.167978 1_555
O7 Sr1 3.167980 1_555
O8 Sc1 2.174792 1_555
O8 Sr5 2.664230 1_555
O8 Sr0 2.664232 1_555
O8 Sr4 3.232348 1_655
O8 Sr2 3.232348 1_565
O9 Sc0 2.151887 1_555
O9 Sr0 2.623251 1_554
O9 Sr5 2.623251 1_554
O9 Sr1 3.167978 1_555
O9 Sr3 3.167980 1_555
O10 Sc1 1.984330 1_555
O10 Sc3 2.087467 1_666
O10 Sr3 2.561112 1_565
O10 Sr1 2.561113 1_655
O10 Sr4 2.991782 1_656
O10 Sr2 2.991783 1_566
O11 Sc2 2.174792 1_555
O11 Sr2 2.664230 1_555
O11 Sr4 2.664232 1_555
O11 Sr0 3.232348 1_455
O11 Sr5 3.232348 1_545
O12 Sc0 2.150209 1_556
O12 Sr1 2.684310 1_555
O12 Sr3 2.684311 1_555
O12 Sr5 3.147617 1_555
O12 Sr0 3.147619 1_555
O13 Sc1 1.975813 1_555
O13 Sc3 2.098207 1_665
O13 Sr4 2.506745 1_655
O13 Sr2 2.506746 1_565
O13 Sr3 3.115051 1_565
O13 Sr1 3.115053 1_655
O14 Sc2 2.180309 1_556
O14 Sr5 2.620033 1_545
O14 Sr0 2.620034 1_455
O14 Sr2 3.184462 1_556
O14 Sr4 3.184463 1_556
O15 Sc2 1.975813 1_555
O15 Sc3 2.098207 1_556
O15 Sr0 2.506745 1_455
O15 Sr5 2.506746 1_545
O15 Sr1 3.115051 1_545
O15 Sr3 3.115053 1_455
O16 Sc0 2.150209 1_555
O16 Sr3 2.684310 1_555
O16 Sr1 2.684311 1_555
O16 Sr2 3.147617 1_555
O16 Sr4 3.147619 1_555
O17 Sc1 2.180309 1_554
O17 Sr2 2.620033 1_565
O17 Sr4 2.620034 1_655
O17 Sr5 3.184462 1_554
O17 Sr0 3.184463 1_554
