# generated using pymatgen
data_HfSeBr8
_symmetry_space_group_name_H-M   'P 1'
_cell_length_a   6.71878233
_cell_length_b   7.88883722
_cell_length_c   6.61228258
_cell_angle_alpha   90.00000000
_cell_angle_beta   106.98272936
_cell_angle_gamma   90.00000000
_symmetry_Int_Tables_number   1
_chemical_formula_structural   HfSeBr8
_chemical_formula_sum   'Hf1 Se1 Br8'
_cell_volume   335.19018157
_cell_formula_units_Z   1
loop_
 _symmetry_equiv_pos_site_id
 _symmetry_equiv_pos_as_xyz
  1  'x, y, z'
loop_
 _atom_site_type_symbol
 _atom_site_label
 _atom_site_symmetry_multiplicity
 _atom_site_fract_x
 _atom_site_fract_y
 _atom_site_fract_z
 _atom_site_occupancy
  Hf  Hf0  1  0.00000000  0.34268252  0.75000100  1
  Se  Se0  1  0.00000000  0.65977614  0.25000000  1
  Br  Br0  1  0.76286670  0.39010217  0.99244459  1
  Br  Br1  1  0.76589144  0.85821188  0.03999148  1
  Br  Br2  1  0.23410856  0.85821188  0.46000852  1
  Br  Br3  1  0.23713430  0.39010217  0.50755541  1
  Br  Br4  1  0.77485926  0.61260515  0.51225396  1
  Br  Br5  1  0.75061790  0.13784947  0.52758709  1
  Br  Br6  1  0.24938210  0.13784947  0.97241291  1
  Br  Br7  1  0.22514074  0.61260515  0.98774604  1
loop_
_geom_bond_atom_site_label_1
_geom_bond_atom_site_label_2
_geom_bond_distance
_geom_bond_site_symmetry_2
Br0 Hf0 2.596222 1_655
Br0 Se0 2.894752 1_656
Br1 Se0 2.361570 1_655
Br2 Se0 2.361570 1_555
Br3 Hf0 2.596238 1_555
Br3 Se0 2.894754 1_555
Br4 Se0 2.639334 1_655
Br4 Hf0 2.811514 1_655
Br5 Hf0 2.478292 1_655
Br6 Hf0 2.478287 1_555
Br7 Se0 2.639334 1_556
Br7 Hf0 2.811509 1_555
