# generated using pymatgen
data_BaLi2Bi2Pb
_symmetry_space_group_name_H-M   'P 1'
_cell_length_a   5.02633795
_cell_length_b   8.26468935
_cell_length_c   8.70527692
_cell_angle_alpha   90.06432610
_cell_angle_beta   90.00000000
_cell_angle_gamma   90.00000000
_symmetry_Int_Tables_number   1
_chemical_formula_structural   BaLi2Bi2Pb
_chemical_formula_sum   'Ba2 Li4 Bi4 Pb2'
_cell_volume   361.62674025
_cell_formula_units_Z   2
loop_
 _symmetry_equiv_pos_site_id
 _symmetry_equiv_pos_as_xyz
  1  'x, y, z'
loop_
 _atom_site_type_symbol
 _atom_site_label
 _atom_site_symmetry_multiplicity
 _atom_site_fract_x
 _atom_site_fract_y
 _atom_site_fract_z
 _atom_site_occupancy
  Ba  Ba0  1  0.75000000  0.99985278  0.75054443  1
  Ba  Ba1  1  0.25000000  0.00014722  0.24945557  1
  Li  Li0  1  0.75000000  0.36123643  0.08333286  1
  Li  Li1  1  0.25000000  0.63876357  0.91666714  1
  Li  Li2  1  0.75000000  0.64429508  0.41555319  1
  Li  Li3  1  0.25000000  0.35570492  0.58444681  1
  Bi  Bi0  1  0.75000000  0.73415488  0.08314412  1
  Bi  Bi1  1  0.25000000  0.26584512  0.91685588  1
  Bi  Bi2  1  0.75000000  0.26587887  0.41686381  1
  Bi  Bi3  1  0.25000000  0.73412113  0.58313619  1
  Pb  Pb0  1  0.75000000  0.49979736  0.74847332  1
  Pb  Pb1  1  0.25000000  0.50020264  0.25152668  1
loop_
_geom_bond_atom_site_label_1
_geom_bond_atom_site_label_2
_geom_bond_distance
_geom_bond_site_symmetry_2
Ba0 Bi0 3.635860 1_556
Ba0 Bi1 3.638362 1_565
Ba0 Bi1 3.638362 1_665
Ba0 Bi3 3.640866 1_655
Ba0 Bi3 3.640866 1_555
Ba0 Bi2 3.645002 1_565
Ba1 Bi1 3.635860 1_554
Ba1 Bi0 3.638362 1_445
Ba1 Bi0 3.638362 1_545
Ba1 Bi2 3.640866 1_555
Ba1 Bi2 3.640866 1_455
Ba1 Bi3 3.645002 1_545
Li0 Pb1 3.126520 1_555
Li0 Pb1 3.126520 1_655
Li0 Pb0 3.133110 1_554
Li1 Pb0 3.126520 1_455
Li1 Pb0 3.126520 1_555
Li1 Pb1 3.133110 1_556
Li2 Pb1 3.125585 1_555
Li2 Pb1 3.125585 1_655
Li2 Pb0 3.135809 1_555
Li3 Pb0 3.125585 1_455
Li3 Pb0 3.125585 1_555
Li3 Pb1 3.135809 1_555
Bi0 Li2 2.988302 1_555
Bi0 Li1 3.005870 1_554
Bi0 Li1 3.005870 1_654
Bi0 Li0 3.082057 1_555
Bi0 Pb1 3.494222 1_655
Bi0 Pb1 3.494222 1_555
Bi0 Pb0 3.496683 1_554
Bi1 Li3 2.988302 1_555
Bi1 Li0 3.005870 1_556
Bi1 Li0 3.005870 1_456
Bi1 Li1 3.082057 1_555
Bi1 Pb0 3.494222 1_455
Bi1 Pb0 3.494222 1_555
Bi1 Pb1 3.496683 1_556
Bi2 Li3 2.998830 1_555
Bi2 Li3 2.998830 1_655
Bi2 Li0 3.009391 1_555
Bi2 Li2 3.127526 1_555
Bi2 Pb0 3.472509 1_555
Bi2 Pb1 3.484874 1_555
Bi2 Pb1 3.484874 1_655
Bi3 Li2 2.998830 1_455
Bi3 Li2 2.998830 1_555
Bi3 Li1 3.009391 1_555
Bi3 Li3 3.127526 1_555
Bi3 Pb1 3.472509 1_555
Bi3 Pb0 3.484874 1_455
Bi3 Pb0 3.484874 1_555
