# generated using pymatgen
data_V2HN
_symmetry_space_group_name_H-M   'P 1'
_cell_length_a   5.01015787
_cell_length_b   5.01015782
_cell_length_c   5.01015915
_cell_angle_alpha   32.47432347
_cell_angle_beta   32.47432597
_cell_angle_gamma   32.47431244
_symmetry_Int_Tables_number   1
_chemical_formula_structural   V2HN
_chemical_formula_sum   'V2 H1 N1'
_cell_volume   32.23717179
_cell_formula_units_Z   1
loop_
 _symmetry_equiv_pos_site_id
 _symmetry_equiv_pos_as_xyz
  1  'x, y, z'
loop_
 _atom_site_type_symbol
 _atom_site_label
 _atom_site_symmetry_multiplicity
 _atom_site_fract_x
 _atom_site_fract_y
 _atom_site_fract_z
 _atom_site_occupancy
  V  V0  1  0.25075198  0.25075198  0.25075198  1
  V  V1  1  0.74924802  0.74924802  0.74924802  1
  H  H0  1  0.00000000  0.00000000  0.00000000  1
  N  N0  1  0.50000000  0.50000000  0.50000000  1
loop_
_geom_bond_atom_site_label_1
_geom_bond_atom_site_label_2
_geom_bond_distance
_geom_bond_site_symmetry_2
H0 V1 1.999197 1_454
H0 V0 1.999197 1_545
H0 V1 1.999198 1_544
H0 V0 1.999198 1_455
H0 V1 1.999199 1_445
H0 V0 1.999199 1_554
N0 V0 2.011844 1_565
N0 V1 2.011844 1_545
N0 V0 2.011844 1_655
N0 V1 2.011844 1_455
N0 V0 2.011845 1_556
N0 V1 2.011845 1_554
