# generated using pymatgen
data_Y4HgRh
_symmetry_space_group_name_H-M   'P 1'
_cell_length_a   9.58934489
_cell_length_b   9.58934492
_cell_length_c   9.58934590
_cell_angle_alpha   60.00000343
_cell_angle_beta   60.00000333
_cell_angle_gamma   60.00000232
_symmetry_Int_Tables_number   1
_chemical_formula_structural   Y4HgRh
_chemical_formula_sum   'Y16 Hg4 Rh4'
_cell_volume   623.52216361
_cell_formula_units_Z   4
loop_
 _symmetry_equiv_pos_site_id
 _symmetry_equiv_pos_as_xyz
  1  'x, y, z'
loop_
 _atom_site_type_symbol
 _atom_site_label
 _atom_site_symmetry_multiplicity
 _atom_site_fract_x
 _atom_site_fract_y
 _atom_site_fract_z
 _atom_site_occupancy
  Y  Y0  1  0.60166318  0.60166318  0.60166318  1
  Y  Y1  1  0.60166318  0.60166318  0.19501146  1
  Y  Y2  1  0.60166318  0.19501146  0.60166318  1
  Y  Y3  1  0.19501146  0.60166318  0.60166318  1
  Y  Y4  1  0.05943214  0.44056786  0.44056786  1
  Y  Y5  1  0.44056786  0.05943214  0.05943214  1
  Y  Y6  1  0.44056786  0.05943214  0.44056786  1
  Y  Y7  1  0.05943214  0.44056786  0.05943214  1
  Y  Y8  1  0.44056786  0.44056786  0.05943214  1
  Y  Y9  1  0.05943214  0.05943214  0.44056786  1
  Y  Y10  1  0.18723572  0.81276428  0.81276428  1
  Y  Y11  1  0.81276428  0.18723572  0.18723572  1
  Y  Y12  1  0.81276428  0.18723572  0.81276428  1
  Y  Y13  1  0.18723572  0.81276428  0.18723572  1
  Y  Y14  1  0.81276428  0.81276428  0.18723572  1
  Y  Y15  1  0.18723572  0.18723572  0.81276428  1
  Hg  Hg0  1  0.83472165  0.83472165  0.83472165  1
  Hg  Hg1  1  0.83472165  0.83472165  0.49583406  1
  Hg  Hg2  1  0.83472165  0.49583406  0.83472165  1
  Hg  Hg3  1  0.49583406  0.83472165  0.83472165  1
  Rh  Rh0  1  0.39249361  0.39249361  0.39249361  1
  Rh  Rh1  1  0.39249361  0.39249361  0.82252018  1
  Rh  Rh2  1  0.39249361  0.82252018  0.39249361  1
  Rh  Rh3  1  0.82252018  0.39249361  0.39249361  1
loop_
_geom_bond_atom_site_label_1
_geom_bond_atom_site_label_2
_geom_bond_distance
_geom_bond_site_symmetry_2
Hg0 Y10 3.183778 1_655
Hg0 Y12 3.183778 1_565
Hg0 Y14 3.183778 1_556
Hg0 Y3 3.387908 1_655
Hg0 Y2 3.387908 1_565
Hg0 Y1 3.387908 1_556
Hg0 Y5 3.453505 1_566
Hg0 Y7 3.453505 1_656
Hg0 Y9 3.453505 1_665
Hg1 Y14 3.183769 1_555
Hg1 Y13 3.183774 1_655
Hg1 Y11 3.183774 1_565
Hg1 Y0 3.387901 1_555
Hg1 Y3 3.387917 1_655
Hg1 Y2 3.387917 1_565
Hg1 Y6 3.453501 1_565
Hg1 Y4 3.453501 1_655
Hg1 Y9 3.453509 1_665
Hg2 Y12 3.183768 1_555
Hg2 Y15 3.183774 1_655
Hg2 Y11 3.183774 1_556
Hg2 Y0 3.387901 1_555
Hg2 Y3 3.387917 1_655
Hg2 Y1 3.387917 1_556
Hg2 Y8 3.453501 1_556
Hg2 Y4 3.453501 1_655
Hg2 Y7 3.453509 1_656
Hg3 Y10 3.183768 1_555
Hg3 Y15 3.183774 1_565
Hg3 Y13 3.183774 1_556
Hg3 Y0 3.387901 1_555
Hg3 Y2 3.387917 1_565
Hg3 Y1 3.387917 1_556
Hg3 Y8 3.453501 1_556
Hg3 Y6 3.453501 1_565
Hg3 Y5 3.453509 1_566
Rh0 Y4 2.809530 1_555
Rh0 Y6 2.809530 1_555
Rh0 Y8 2.809531 1_555
Rh0 Y1 2.838842 1_555
Rh0 Y2 2.838842 1_555
Rh0 Y3 2.838842 1_555
Rh0 Y11 3.464025 1_555
Rh0 Y13 3.464025 1_555
Rh0 Y15 3.464026 1_555
Rh1 Y8 2.809521 1_556
Rh1 Y7 2.809528 1_556
Rh1 Y5 2.809528 1_556
Rh1 Y0 2.838842 1_555
Rh1 Y2 2.838842 1_555
Rh1 Y3 2.838842 1_555
Rh1 Y12 3.464023 1_555
Rh1 Y10 3.464023 1_555
Rh1 Y15 3.464031 1_555
Rh2 Y6 2.809521 1_565
Rh2 Y9 2.809527 1_565
Rh2 Y5 2.809528 1_565
Rh2 Y3 2.838842 1_555
Rh2 Y1 2.838842 1_555
Rh2 Y0 2.838842 1_555
Rh2 Y14 3.464023 1_555
Rh2 Y10 3.464023 1_555
Rh2 Y13 3.464031 1_555
Rh3 Y4 2.809521 1_655
Rh3 Y9 2.809527 1_655
Rh3 Y7 2.809528 1_655
Rh3 Y2 2.838842 1_555
Rh3 Y1 2.838842 1_555
Rh3 Y0 2.838842 1_555
Rh3 Y14 3.464023 1_555
Rh3 Y12 3.464023 1_555
Rh3 Y11 3.464031 1_555
