# generated using pymatgen
data_Sr2ScIO3
_symmetry_space_group_name_H-M   'P 1'
_cell_length_a   5.83175299
_cell_length_b   5.83254870
_cell_length_c   17.07191780
_cell_angle_alpha   80.19135548
_cell_angle_beta   79.98902394
_cell_angle_gamma   90.00437078
_symmetry_Int_Tables_number   1
_chemical_formula_structural   Sr2ScIO3
_chemical_formula_sum   'Sr8 Sc4 I4 O12'
_cell_volume   563.21980351
_cell_formula_units_Z   4
loop_
 _symmetry_equiv_pos_site_id
 _symmetry_equiv_pos_as_xyz
  1  'x, y, z'
loop_
 _atom_site_type_symbol
 _atom_site_label
 _atom_site_symmetry_multiplicity
 _atom_site_fract_x
 _atom_site_fract_y
 _atom_site_fract_z
 _atom_site_occupancy
  Sr  Sr0  1  0.14913981  0.39646417  0.70573838  1
  Sr  Sr1  1  0.64916657  0.89652000  0.70573783  1
  Sr  Sr2  1  0.35068247  0.10360002  0.29426030  1
  Sr  Sr3  1  0.85067187  0.60357356  0.29425838  1
  Sr  Sr4  1  0.46036065  0.20939137  0.08187704  1
  Sr  Sr5  1  0.95968135  0.70866431  0.08187699  1
  Sr  Sr6  1  0.04064554  0.29039213  0.91814303  1
  Sr  Sr7  1  0.53975434  0.79125115  0.91812464  1
  Sc  Sc0  1  0.09184363  0.84041830  0.81803936  1
  Sc  Sc1  1  0.40830406  0.65954965  0.18195655  1
  Sc  Sc2  1  0.59177061  0.34041717  0.81804534  1
  Sc  Sc3  1  0.90824271  0.15955676  0.18196303  1
  I  I0  1  0.29800269  0.55274719  0.39545275  1
  I  I1  1  0.79804869  0.05282421  0.39533956  1
  I  I2  1  0.20147716  0.94732204  0.60459802  1
  I  I3  1  0.70146043  0.44741077  0.60462369  1
  O  O0  1  0.46867288  0.71854359  0.06289423  1
  O  O1  1  0.96708400  0.21983886  0.06289934  1
  O  O2  1  0.03337875  0.78153026  0.93710149  1
  O  O3  1  0.53139511  0.28003711  0.93710975  1
  O  O4  1  0.85122049  0.59969858  0.79947948  1
  O  O5  1  0.35138767  0.09984047  0.79918104  1
  O  O6  1  0.35124325  0.59967240  0.79934935  1
  O  O7  1  0.85120730  0.09964088  0.79939024  1
  O  O8  1  0.14893468  0.90042257  0.20049309  1
  O  O9  1  0.64872041  0.40022289  0.20075014  1
  O  O10  1  0.64877629  0.90017973  0.20068075  1
  O  O11  1  0.14872761  0.40027085  0.20063721  1
loop_
_geom_bond_atom_site_label_1
_geom_bond_atom_site_label_2
_geom_bond_distance
_geom_bond_site_symmetry_2
I0 Sr3 3.357137 1_455
I0 Sr2 3.361405 1_555
I0 Sr2 3.365352 1_565
I0 Sr3 3.368952 1_555
I0 Sc1 3.535186 1_555
I1 Sr2 3.356069 1_555
I1 Sr3 3.360730 1_545
I1 Sr3 3.364192 1_555
I1 Sr2 3.368122 1_655
I1 Sc3 3.533203 1_555
I2 Sr1 3.358358 1_555
I2 Sr0 3.360815 1_565
I2 Sr0 3.365077 1_555
I2 Sr1 3.366829 1_455
I2 Sc0 3.534270 1_555
I3 Sr0 3.358036 1_655
I3 Sr1 3.360366 1_555
I3 Sr1 3.365093 1_545
I3 Sr0 3.366739 1_555
I3 Sc2 3.533945 1_555
O0 Sc1 1.971492 1_555
O0 Sr7 2.397214 1_554
O0 Sr5 2.928889 1_455
O0 Sr4 2.931355 1_555
O0 Sr4 2.934996 1_565
O0 Sr5 2.936652 1_555
O1 Sc3 1.971547 1_555
O1 Sr6 2.396963 1_654
O1 Sr4 2.915749 1_555
O1 Sr5 2.923264 1_555
O1 Sr5 2.943107 1_545
O1 Sr4 2.949784 1_655
O2 Sc0 1.971529 1_555
O2 Sr5 2.397265 1_456
O2 Sr7 2.913729 1_555
O2 Sr6 2.929721 1_565
O2 Sr6 2.936588 1_555
O2 Sr7 2.951791 1_455
O3 Sc2 1.971535 1_555
O3 Sr4 2.397193 1_556
O3 Sr7 2.923050 1_545
O3 Sr6 2.930413 1_655
O3 Sr6 2.935079 1_555
O3 Sr7 2.943308 1_555
O4 Sc2 2.084789 1_555
O4 Sc0 2.084855 1_655
O4 Sr1 2.580441 1_555
O4 Sr0 2.581610 1_655
O4 Sr6 2.848152 1_655
O4 Sr7 2.853485 1_555
O5 Sc0 2.085265 1_545
O5 Sc2 2.085292 1_555
O5 Sr0 2.577443 1_555
O5 Sr1 2.578478 1_545
O5 Sr7 2.846072 1_545
O5 Sr6 2.851941 1_555
O6 Sc0 2.084962 1_555
O6 Sc2 2.085059 1_555
O6 Sr0 2.578350 1_555
O6 Sr1 2.581033 1_555
O6 Sr7 2.848791 1_555
O6 Sr6 2.850219 1_555
O7 Sc2 2.085153 1_555
O7 Sc0 2.085254 1_645
O7 Sr1 2.578406 1_545
O7 Sr0 2.581250 1_655
O7 Sr6 2.848753 1_655
O7 Sr7 2.849624 1_545
O8 Sc3 2.084824 1_465
O8 Sc1 2.084987 1_555
O8 Sr2 2.579153 1_565
O8 Sr3 2.583176 1_455
O8 Sr5 2.849241 1_455
O8 Sr4 2.850273 1_565
O9 Sc1 2.085143 1_555
O9 Sc3 2.085372 1_555
O9 Sr3 2.576956 1_555
O9 Sr2 2.580000 1_555
O9 Sr4 2.847519 1_555
O9 Sr5 2.849475 1_555
O10 Sc1 2.084952 1_555
O10 Sc3 2.084994 1_565
O10 Sr3 2.577571 1_555
O10 Sr2 2.581196 1_565
O10 Sr4 2.846469 1_565
O10 Sr5 2.853501 1_555
O11 Sc3 2.085017 1_455
O11 Sc1 2.085103 1_555
O11 Sr2 2.578434 1_555
O11 Sr3 2.581096 1_455
O11 Sr5 2.845407 1_455
O11 Sr4 2.853282 1_555
