# generated using pymatgen
data_Hf6Zn22GeRh
_symmetry_space_group_name_H-M   'P 1'
_cell_length_a   8.62360689
_cell_length_b   8.62360717
_cell_length_c   8.62360729
_cell_angle_alpha   60.00000323
_cell_angle_beta   60.00000214
_cell_angle_gamma   60.00000038
_symmetry_Int_Tables_number   1
_chemical_formula_structural   Hf6Zn22GeRh
_chemical_formula_sum   'Hf6 Zn22 Ge1 Rh1'
_cell_volume   453.47349517
_cell_formula_units_Z   1
loop_
 _symmetry_equiv_pos_site_id
 _symmetry_equiv_pos_as_xyz
  1  'x, y, z'
loop_
 _atom_site_type_symbol
 _atom_site_label
 _atom_site_symmetry_multiplicity
 _atom_site_fract_x
 _atom_site_fract_y
 _atom_site_fract_z
 _atom_site_occupancy
  Hf  Hf0  1  0.71357044  0.28642956  0.28642956  1
  Hf  Hf1  1  0.28642956  0.71357044  0.71357044  1
  Hf  Hf2  1  0.28642956  0.71357044  0.28642956  1
  Hf  Hf3  1  0.71357044  0.28642956  0.71357044  1
  Hf  Hf4  1  0.28642956  0.28642956  0.71357044  1
  Hf  Hf5  1  0.71357044  0.71357044  0.28642956  1
  Zn  Zn0  1  0.12170435  0.12170435  0.12170435  1
  Zn  Zn1  1  0.87829565  0.87829565  0.87829565  1
  Zn  Zn2  1  0.12170435  0.12170435  0.63488795  1
  Zn  Zn3  1  0.12170435  0.63488795  0.12170435  1
  Zn  Zn4  1  0.87829565  0.87829565  0.36511205  1
  Zn  Zn5  1  0.87829565  0.36511205  0.87829565  1
  Zn  Zn6  1  0.63488795  0.12170435  0.12170435  1
  Zn  Zn7  1  0.36511205  0.87829565  0.87829565  1
  Zn  Zn8  1  0.50000000  0.00000000  0.00000000  1
  Zn  Zn9  1  0.00000000  0.50000000  0.50000000  1
  Zn  Zn10  1  0.00000000  0.50000000  0.00000000  1
  Zn  Zn11  1  0.50000000  0.00000000  0.50000000  1
  Zn  Zn12  1  0.00000000  0.00000000  0.50000000  1
  Zn  Zn13  1  0.50000000  0.50000000  0.00000000  1
  Zn  Zn14  1  0.33595209  0.33595209  0.33595209  1
  Zn  Zn15  1  0.66404791  0.66404791  0.66404791  1
  Zn  Zn16  1  0.33595209  0.33595209  0.99214474  1
  Zn  Zn17  1  0.33595209  0.99214474  0.33595209  1
  Zn  Zn18  1  0.66404791  0.66404791  0.00785526  1
  Zn  Zn19  1  0.66404791  0.00785526  0.66404791  1
  Zn  Zn20  1  0.99214474  0.33595209  0.33595209  1
  Zn  Zn21  1  0.00785526  0.66404791  0.66404791  1
  Ge  Ge0  1  0.50000000  0.50000000  0.50000000  1
  Rh  Rh0  1  0.00000000  0.00000000  0.00000000  1
loop_
_geom_bond_atom_site_label_1
_geom_bond_atom_site_label_2
_geom_bond_distance
_geom_bond_site_symmetry_2
Hf0 Zn14 2.893112 1_555
Hf0 Zn18 2.893115 1_555
Hf0 Zn19 2.893115 1_555
Hf0 Zn20 2.893120 1_555
Hf0 Zn12 3.081105 1_655
Hf0 Zn13 3.081105 1_555
Hf0 Zn11 3.081106 1_555
Hf0 Zn10 3.081106 1_655
Hf1 Zn15 2.893112 1_555
Hf1 Zn16 2.893115 1_555
Hf1 Zn17 2.893115 1_555
Hf1 Zn21 2.893120 1_555
Hf1 Zn12 3.081105 1_565
Hf1 Zn13 3.081105 1_556
Hf1 Zn11 3.081106 1_565
Hf1 Zn10 3.081106 1_556
Hf2 Zn14 2.893112 1_555
Hf2 Zn18 2.893115 1_555
Hf2 Zn21 2.893115 1_555
Hf2 Zn17 2.893120 1_555
Hf2 Zn12 3.081105 1_565
Hf2 Zn13 3.081105 1_555
Hf2 Zn9 3.081105 1_555
Hf2 Zn8 3.081106 1_565
Hf3 Zn15 2.893112 1_555
Hf3 Zn16 2.893115 1_555
Hf3 Zn20 2.893115 1_555
Hf3 Zn19 2.893120 1_555
Hf3 Zn12 3.081105 1_655
Hf3 Zn13 3.081105 1_556
Hf3 Zn9 3.081105 1_655
Hf3 Zn8 3.081106 1_556
Hf4 Zn14 2.893112 1_555
Hf4 Zn19 2.893115 1_555
Hf4 Zn21 2.893115 1_555
Hf4 Zn16 2.893120 1_555
Hf4 Zn9 3.081105 1_555
Hf4 Zn11 3.081105 1_555
Hf4 Zn10 3.081105 1_556
Hf4 Zn8 3.081105 1_556
Hf5 Zn15 2.893112 1_555
Hf5 Zn17 2.893115 1_555
Hf5 Zn20 2.893115 1_555
Hf5 Zn18 2.893120 1_555
Hf5 Zn9 3.081105 1_655
Hf5 Zn11 3.081105 1_565
Hf5 Zn10 3.081105 1_655
Hf5 Zn8 3.081105 1_565
Zn0 Zn8 2.664443 1_555
Zn0 Zn10 2.664443 1_555
Zn0 Zn12 2.664443 1_555
Zn0 Zn17 2.713029 1_545
Zn0 Zn20 2.713029 1_455
Zn0 Zn16 2.713029 1_554
Zn1 Zn8 2.664443 1_566
Zn1 Zn10 2.664443 1_656
Zn1 Zn12 2.664443 1_665
Zn1 Zn19 2.713029 1_565
Zn1 Zn21 2.713029 1_655
Zn1 Zn18 2.713029 1_556
Zn2 Zn9 2.664444 1_555
Zn2 Zn20 2.713029 1_455
Zn3 Zn9 2.664444 1_555
Zn4 Zn9 2.664444 1_655
Zn5 Zn9 2.664444 1_655
Zn6 Zn8 2.664450 1_555
Zn7 Zn8 2.664450 1_566
Zn10 Zn16 2.490038 1_554
Zn10 Zn18 2.490038 1_455
Zn10 Zn20 2.490038 1_455
Zn10 Zn21 2.490038 1_554
Zn10 Zn3 2.664450 1_555
Zn10 Zn5 2.664450 1_454
Zn11 Zn19 2.490030 1_555
Zn11 Zn17 2.490030 1_545
Zn11 Zn14 2.490036 1_555
Zn11 Zn15 2.490036 1_545
Zn11 Zn2 2.664443 1_555
Zn11 Zn4 2.664443 1_545
Zn11 Zn6 2.664444 1_555
Zn11 Zn7 2.664444 1_545
Zn12 Zn17 2.490038 1_545
Zn12 Zn19 2.490038 1_455
Zn12 Zn20 2.490038 1_455
Zn12 Zn21 2.490038 1_545
Zn12 Zn2 2.664450 1_555
Zn12 Zn4 2.664450 1_445
Zn13 Zn18 2.490030 1_555
Zn13 Zn16 2.490030 1_554
Zn13 Zn14 2.490036 1_555
Zn13 Zn15 2.490036 1_554
Zn13 Zn5 2.664443 1_554
Zn13 Zn3 2.664443 1_555
Zn13 Zn7 2.664444 1_554
Zn13 Zn6 2.664444 1_555
Zn14 Zn9 2.490035 1_555
Zn14 Zn6 2.713029 1_555
Zn14 Zn3 2.713029 1_555
Zn14 Zn2 2.713030 1_555
Zn14 Zn20 2.964859 1_455
Zn14 Zn17 2.964860 1_545
Zn14 Zn16 2.964860 1_554
Zn15 Zn9 2.490035 1_655
Zn15 Zn7 2.713029 1_555
Zn15 Zn5 2.713029 1_555
Zn15 Zn4 2.713030 1_555
Zn15 Zn21 2.964859 1_655
Zn15 Zn19 2.964860 1_565
Zn15 Zn18 2.964860 1_556
Zn16 Zn8 2.490038 1_556
Zn16 Zn6 2.713029 1_556
Zn16 Zn3 2.713029 1_556
Zn16 Zn20 2.964860 1_456
Zn16 Zn17 2.964860 1_546
Zn17 Zn8 2.490038 1_565
Zn17 Zn6 2.713029 1_565
Zn17 Zn2 2.713029 1_565
Zn17 Zn20 2.964860 1_465
Zn18 Zn8 2.490038 1_565
Zn18 Zn7 2.713029 1_554
Zn18 Zn5 2.713029 1_554
Zn18 Zn21 2.964860 1_654
Zn18 Zn19 2.964860 1_564
Zn19 Zn8 2.490038 1_556
Zn19 Zn7 2.713029 1_545
Zn19 Zn4 2.713029 1_545
Zn19 Zn21 2.964860 1_645
Zn20 Zn9 2.490030 1_655
Zn20 Zn3 2.713029 1_655
Zn21 Zn9 2.490030 1_555
Zn21 Zn4 2.713029 1_455
Zn21 Zn5 2.713029 1_455
Ge0 Hf1 2.604624 1_555
Ge0 Hf0 2.604624 1_555
Ge0 Hf2 2.604624 1_555
Ge0 Hf3 2.604624 1_555
Ge0 Hf5 2.604624 1_555
Ge0 Hf4 2.604624 1_555
Rh0 Zn7 2.570807 1_544
Rh0 Zn6 2.570807 1_455
Rh0 Zn5 2.570807 1_454
Rh0 Zn3 2.570807 1_545
Rh0 Zn4 2.570807 1_445
Rh0 Zn2 2.570807 1_554
Rh0 Zn0 2.570814 1_555
Rh0 Zn1 2.570814 1_444
