# generated using pymatgen
data_Sc5Si7Ni16Mo
_symmetry_space_group_name_H-M   'P 1'
_cell_length_a   7.99050490
_cell_length_b   7.99050500
_cell_length_c   7.95772311
_cell_angle_alpha   60.13562457
_cell_angle_beta   60.13562417
_cell_angle_gamma   59.72876499
_symmetry_Int_Tables_number   1
_chemical_formula_structural   Sc5Si7Ni16Mo
_chemical_formula_sum   'Sc5 Si7 Ni16 Mo1'
_cell_volume   359.25908626
_cell_formula_units_Z   1
loop_
 _symmetry_equiv_pos_site_id
 _symmetry_equiv_pos_as_xyz
  1  'x, y, z'
loop_
 _atom_site_type_symbol
 _atom_site_label
 _atom_site_symmetry_multiplicity
 _atom_site_fract_x
 _atom_site_fract_y
 _atom_site_fract_z
 _atom_site_occupancy
  Sc  Sc0  1  0.29966618  0.70564550  0.29435450  1
  Sc  Sc1  1  0.70564550  0.29966618  0.29435450  1
  Sc  Sc2  1  0.28667514  0.28667514  0.71332486  1
  Sc  Sc3  1  0.70564550  0.29966618  0.70033382  1
  Sc  Sc4  1  0.29966618  0.70564550  0.70033382  1
  Si  Si0  1  0.00470851  0.00470851  0.99529149  1
  Si  Si1  1  0.99781568  0.99781568  0.50218432  1
  Si  Si2  1  0.50731371  0.99337150  0.49268629  1
  Si  Si3  1  0.99337150  0.50731371  0.49268629  1
  Si  Si4  1  0.49781568  0.49781568  0.00218432  1
  Si  Si5  1  0.99337150  0.50731371  0.00662850  1
  Si  Si6  1  0.50731371  0.99337150  0.00662850  1
  Ni  Ni0  1  0.88143284  0.88143284  0.35215266  1
  Ni  Ni1  1  0.87930673  0.35884271  0.88092428  1
  Ni  Ni2  1  0.35884271  0.87930673  0.88092428  1
  Ni  Ni3  1  0.88143284  0.88143284  0.88497966  1
  Ni  Ni4  1  0.11907572  0.11907572  0.64115729  1
  Ni  Ni5  1  0.11502034  0.64784734  0.11856716  1
  Ni  Ni6  1  0.64784734  0.11502034  0.11856716  1
  Ni  Ni7  1  0.11907572  0.11907572  0.12069327  1
  Ni  Ni8  1  0.66851440  0.66851440  0.99060338  1
  Ni  Ni9  1  0.66698710  0.99252660  0.67024215  1
  Ni  Ni10  1  0.99252660  0.66698710  0.67024215  1
  Ni  Ni11  1  0.66851440  0.66851440  0.67236683  1
  Ni  Ni12  1  0.32975785  0.32975785  0.00747340  1
  Ni  Ni13  1  0.32763317  0.00939662  0.33148560  1
  Ni  Ni14  1  0.00939662  0.32763317  0.33148560  1
  Ni  Ni15  1  0.32975785  0.32975785  0.33301290  1
  Mo  Mo0  1  0.70586496  0.70586496  0.29413504  1
loop_
_geom_bond_atom_site_label_1
_geom_bond_atom_site_label_2
_geom_bond_distance
_geom_bond_site_symmetry_2
Sc0 Si6 2.846260 1_555
Sc0 Si4 2.863316 1_555
Sc0 Si1 2.863316 1_455
Sc0 Si3 2.926607 1_455
Sc1 Si5 2.846260 1_555
Sc1 Si4 2.863316 1_555
Sc1 Si1 2.863316 1_545
Sc1 Si2 2.926607 1_545
Sc2 Si3 2.921167 1_455
Sc2 Si2 2.921167 1_545
Sc2 Si5 2.921167 1_456
Sc2 Si6 2.921167 1_546
Sc3 Si3 2.846260 1_555
Sc3 Si4 2.863316 1_556
Sc3 Si1 2.863316 1_545
Sc3 Si6 2.926607 1_546
Sc4 Si2 2.846260 1_555
Sc4 Si4 2.863316 1_556
Sc4 Si1 2.863316 1_455
Sc4 Si5 2.926607 1_456
Ni0 Si0 2.326295 1_664
Ni0 Si2 2.440947 1_555
Ni0 Si3 2.440947 1_555
Ni0 Si1 2.497685 1_555
Ni0 Ni9 2.552670 1_555
Ni0 Ni10 2.552670 1_555
Ni0 Ni11 2.562313 1_555
Ni0 Ni5 2.628753 1_655
Ni0 Ni6 2.628753 1_565
Ni0 Ni7 2.696852 1_665
Ni0 Sc0 2.780802 1_655
Ni0 Sc1 2.780802 1_565
Ni1 Si0 2.307464 1_655
Ni1 Si4 2.486248 1_556
Ni1 Ni11 2.491269 1_555
Ni1 Ni8 2.491273 1_555
Ni1 Ni10 2.513162 1_555
Ni1 Si3 2.533521 1_555
Ni1 Si5 2.533534 1_556
Ni1 Sc2 2.693853 1_655
Ni1 Ni6 2.696829 1_556
Ni1 Ni4 2.698319 1_655
Ni1 Ni7 2.698341 1_656
Ni1 Sc3 2.745651 1_555
Ni1 Sc1 2.745665 1_556
Ni2 Si0 2.307464 1_565
Ni2 Si4 2.486248 1_556
Ni2 Ni8 2.491273 1_555
Ni2 Ni9 2.513162 1_555
Ni2 Si2 2.533521 1_555
Ni2 Si6 2.533534 1_556
Ni2 Sc2 2.693853 1_565
Ni2 Ni5 2.696829 1_556
Ni2 Ni4 2.698319 1_565
Ni2 Ni7 2.698341 1_566
Ni2 Sc4 2.745651 1_555
Ni2 Sc0 2.745665 1_556
Ni3 Si0 2.326307 1_665
Ni3 Si6 2.440946 1_556
Ni3 Si5 2.440946 1_556
Ni3 Si1 2.497671 1_555
Ni3 Ni9 2.552670 1_555
Ni3 Ni8 2.562310 1_555
Ni3 Ni5 2.628775 1_656
Ni3 Ni6 2.628775 1_566
Ni3 Ni4 2.696852 1_665
Ni3 Sc4 2.780799 1_655
Ni3 Sc3 2.780799 1_565
Ni4 Si0 2.307464 1_555
Ni4 Si1 2.486261 1_445
Ni4 Si2 2.533522 1_545
Ni4 Si3 2.533522 1_455
Ni4 Sc2 2.693839 1_555
Ni4 Sc3 2.745665 1_455
Ni4 Sc4 2.745665 1_545
Ni5 Si0 2.326294 1_564
Ni5 Si3 2.440947 1_455
Ni5 Si5 2.440960 1_455
Ni5 Si4 2.497672 1_555
Ni5 Sc0 2.780788 1_555
Ni5 Sc4 2.780802 1_554
Ni6 Si0 2.326294 1_654
Ni6 Si2 2.440947 1_545
Ni6 Si6 2.440960 1_545
Ni6 Si4 2.497672 1_555
Ni6 Sc1 2.780788 1_555
Ni6 Sc3 2.780802 1_554
Ni7 Si0 2.307477 1_554
Ni7 Si1 2.486247 1_445
Ni7 Si6 2.533521 1_545
Ni7 Si5 2.533521 1_455
Ni7 Sc2 2.693850 1_554
Ni7 Sc1 2.745662 1_455
Ni7 Sc0 2.745662 1_545
Ni8 Si5 2.282232 1_556
Ni8 Si6 2.282232 1_556
Ni8 Si4 2.313999 1_556
Ni8 Ni9 2.574537 1_555
Ni8 Sc0 2.712005 1_556
Ni8 Sc1 2.712005 1_556
Ni9 Si1 2.305190 1_555
Ni9 Si2 2.324100 1_555
Ni9 Si6 2.324114 1_556
Ni9 Sc2 2.727742 1_565
Ni9 Sc1 2.756639 1_565
Ni9 Sc3 2.756649 1_565
Ni10 Si1 2.305190 1_555
Ni10 Si3 2.324100 1_555
Ni10 Si5 2.324114 1_556
Ni10 Ni3 2.552670 1_555
Ni10 Ni11 2.574533 1_555
Ni10 Ni8 2.574537 1_555
Ni10 Ni9 2.590553 1_555
Ni10 Sc2 2.727742 1_655
Ni10 Sc0 2.756639 1_655
Ni10 Sc4 2.756649 1_655
Ni11 Si3 2.282230 1_555
Ni11 Si2 2.282230 1_555
Ni11 Si4 2.314003 1_556
Ni11 Ni2 2.491269 1_555
Ni11 Ni8 2.532438 1_555
Ni11 Ni9 2.574533 1_555
Ni11 Sc4 2.712002 1_555
Ni11 Sc3 2.712002 1_555
Ni12 Si4 2.305176 1_555
Ni12 Si5 2.324114 1_455
Ni12 Si6 2.324114 1_545
Ni12 Ni7 2.513162 1_555
Ni12 Ni6 2.552670 1_555
Ni12 Ni5 2.552670 1_555
Ni12 Ni14 2.574537 1_555
Ni12 Ni13 2.574537 1_555
Ni12 Ni15 2.590553 1_555
Ni12 Sc2 2.727752 1_554
Ni12 Sc3 2.756639 1_554
Ni12 Sc4 2.756639 1_554
Ni13 Si2 2.282225 1_545
Ni13 Si6 2.282232 1_545
Ni13 Si1 2.314006 1_445
Ni13 Ni7 2.491266 1_555
Ni13 Ni4 2.491273 1_555
Ni13 Ni14 2.532439 1_555
Ni13 Ni6 2.562317 1_555
Ni13 Ni15 2.574541 1_555
Ni13 Sc4 2.712005 1_545
Ni13 Sc0 2.712010 1_545
Ni14 Si3 2.282225 1_455
Ni14 Si5 2.282232 1_455
Ni14 Si1 2.314006 1_445
Ni14 Ni7 2.491266 1_555
Ni14 Ni4 2.491273 1_555
Ni14 Ni5 2.562317 1_555
Ni14 Ni15 2.574541 1_555
Ni14 Sc3 2.712005 1_455
Ni14 Sc1 2.712010 1_455
Ni15 Si4 2.305185 1_555
Ni15 Si3 2.324110 1_455
Ni15 Si2 2.324110 1_545
Ni15 Ni4 2.513162 1_555
Ni15 Ni6 2.552670 1_555
Ni15 Ni5 2.552670 1_555
Ni15 Sc2 2.727736 1_555
Ni15 Sc1 2.756633 1_555
Ni15 Sc0 2.756633 1_555
Mo0 Ni0 2.724614 1_555
Mo0 Ni3 2.724625 1_554
Mo0 Ni5 2.724628 1_655
Mo0 Ni6 2.724628 1_565
Mo0 Ni11 2.745544 1_555
Mo0 Ni13 2.745547 1_565
Mo0 Ni14 2.745547 1_655
Mo0 Ni8 2.745552 1_554
Mo0 Si3 2.781198 1_555
Mo0 Si2 2.781198 1_555
Mo0 Si5 2.781198 1_555
Mo0 Si6 2.781198 1_555
Mo0 Sc0 3.245748 1_555
Mo0 Sc1 3.245748 1_555
Mo0 Sc4 3.245748 1_555
Mo0 Sc3 3.245748 1_555
