# generated using pymatgen
data_NaCo(PdO3)2
_symmetry_space_group_name_H-M   'P 1'
_cell_length_a   5.11861685
_cell_length_b   5.12708670
_cell_length_c   5.77814236
_cell_angle_alpha   72.96341145
_cell_angle_beta   98.42957457
_cell_angle_gamma   120.05406540
_symmetry_Int_Tables_number   1
_chemical_formula_structural   NaCo(PdO3)2
_chemical_formula_sum   'Na1 Co1 Pd2 O6'
_cell_volume   125.49219491
_cell_formula_units_Z   1
loop_
 _symmetry_equiv_pos_site_id
 _symmetry_equiv_pos_as_xyz
  1  'x, y, z'
loop_
 _atom_site_type_symbol
 _atom_site_label
 _atom_site_symmetry_multiplicity
 _atom_site_fract_x
 _atom_site_fract_y
 _atom_site_fract_z
 _atom_site_occupancy
  Na  Na0  1  0.32564768  0.16288645  0.49997284  1
  Co  Co0  1  0.99948440  0.99972796  0.00001031  1
  Pd  Pd0  1  0.66955664  0.33478862  0.99999368  1
  Pd  Pd1  1  0.33464838  0.66731554  0.00000167  1
  O  O0  1  0.32153418  0.94305915  0.18006892  1
  O  O1  1  0.00319755  0.26024786  0.18083653  1
  O  O2  1  0.67714423  0.61611712  0.18235298  1
  O  O3  1  0.67721848  0.06103410  0.81764941  1
  O  O4  1  0.32160428  0.37850174  0.81993969  1
  O  O5  1  0.00330017  0.74298746  0.81917297  1
loop_
_geom_bond_atom_site_label_1
_geom_bond_atom_site_label_2
_geom_bond_distance
_geom_bond_site_symmetry_2
Na0 O5 2.401361 1_545
Na0 O1 2.401511 1_555
Na0 O4 2.423297 1_555
Na0 O0 2.423446 1_545
Na0 O2 2.507286 1_555
Na0 O3 2.508304 1_555
Co0 O5 1.913799 1_654
Co0 O1 1.913815 1_665
Co0 O0 1.919379 1_655
Co0 O4 1.919449 1_664
Co0 O2 1.935381 1_555
Co0 O3 1.935405 1_564
O0 Pd0 2.006252 1_564
O0 Pd1 2.015746 1_555
O1 Pd1 2.005307 1_555
O1 Pd0 2.012709 1_454
O2 Pd1 2.002442 1_555
O2 Pd0 2.003687 1_554
O3 Pd1 2.002428 1_546
O3 Pd0 2.003847 1_555
O4 Pd0 2.006148 1_555
O4 Pd1 2.015686 1_556
O5 Pd1 2.005196 1_556
O5 Pd0 2.012693 1_455
