# generated using pymatgen
data_Ta2Mn3O8
_symmetry_space_group_name_H-M   'P 1'
_cell_length_a   9.47934217
_cell_length_b   9.47934217
_cell_length_c   9.47934217
_cell_angle_alpha   105.98038984
_cell_angle_beta   105.98038984
_cell_angle_gamma   116.70412573
_symmetry_Int_Tables_number   1
_chemical_formula_structural   Ta2Mn3O8
_chemical_formula_sum   'Ta8 Mn12 O32'
_cell_volume   647.78001160
_cell_formula_units_Z   4
loop_
 _symmetry_equiv_pos_site_id
 _symmetry_equiv_pos_as_xyz
  1  'x, y, z'
loop_
 _atom_site_type_symbol
 _atom_site_label
 _atom_site_symmetry_multiplicity
 _atom_site_fract_x
 _atom_site_fract_y
 _atom_site_fract_z
 _atom_site_occupancy
  Ta  Ta0  1  0.80853500  0.42838100  0.22792500  1
  Ta  Ta1  1  0.67838100  0.95045500  0.11984500  1
  Ta  Ta2  1  0.83061000  0.55853500  0.88015500  1
  Ta  Ta3  1  0.20045500  0.58061000  0.77207500  1
  Ta  Ta4  1  0.44146500  0.32161900  0.27207500  1
  Ta  Ta5  1  0.57161900  0.79954500  0.38015500  1
  Ta  Ta6  1  0.41939000  0.19146500  0.61984500  1
  Ta  Ta7  1  0.04954500  0.16939000  0.72792500  1
  Mn  Mn0  1  0.50000000  0.50000000  0.00000000  1
  Mn  Mn1  1  0.75000000  0.25000000  0.50000000  1
  Mn  Mn2  1  0.00000000  0.00000000  0.00000000  1
  Mn  Mn3  1  0.25000000  0.75000000  0.50000000  1
  Mn  Mn4  1  0.26525500  0.85696400  0.18252900  1
  Mn  Mn5  1  0.10696400  0.42443500  0.09170900  1
  Mn  Mn6  1  0.33272600  0.01525500  0.90829100  1
  Mn  Mn7  1  0.67443500  0.08272600  0.81747100  1
  Mn  Mn8  1  0.98474500  0.89303600  0.31747100  1
  Mn  Mn9  1  0.14303600  0.32556500  0.40829100  1
  Mn  Mn10  1  0.91727400  0.73474500  0.59170900  1
  Mn  Mn11  1  0.57556500  0.66727400  0.68252900  1
  O  O0  1  0.82921900  0.44590700  0.03415700  1
  O  O1  1  0.69590700  0.16174900  0.11668800  1
  O  O2  1  0.04506100  0.57921900  0.88331200  1
  O  O3  1  0.41174900  0.79506100  0.96584300  1
  O  O4  1  0.42078100  0.30409300  0.46584300  1
  O  O5  1  0.55409300  0.58825100  0.38331200  1
  O  O6  1  0.20493900  0.17078100  0.61668800  1
  O  O7  1  0.83825100  0.95493900  0.53415700  1
  O  O8  1  0.93290000  0.06679200  0.25877500  1
  O  O9  1  0.31679200  0.55801700  0.63389200  1
  O  O10  1  0.92412500  0.68290000  0.36610800  1
  O  O11  1  0.80801700  0.67412500  0.74122500  1
  O  O12  1  0.31710000  0.68320800  0.24122500  1
  O  O13  1  0.93320800  0.19198300  0.86610800  1
  O  O14  1  0.32587500  0.06710000  0.13389200  1
  O  O15  1  0.44198300  0.07587500  0.75877500  1
  O  O16  1  0.54056500  0.35543300  0.10897500  1
  O  O17  1  0.60543300  0.99645800  0.31486800  1
  O  O18  1  0.68159000  0.29056500  0.68513200  1
  O  O19  1  0.24645800  0.43159000  0.89102500  1
  O  O20  1  0.10544600  0.02846200  0.81870300  1
  O  O21  1  0.27846200  0.95976000  0.42301600  1
  O  O22  1  0.53674400  0.85544600  0.57698400  1
  O  O23  1  0.20976000  0.28674400  0.18129700  1
  O  O24  1  0.14455400  0.72153800  0.68129700  1
  O  O25  1  0.97153800  0.79024000  0.07698400  1
  O  O26  1  0.71325600  0.89455400  0.92301600  1
  O  O27  1  0.04024000  0.46325600  0.31870300  1
  O  O28  1  0.00354200  0.31841000  0.60897500  1
  O  O29  1  0.56841000  0.45943500  0.81486800  1
  O  O30  1  0.64456700  0.75354200  0.18513200  1
  O  O31  1  0.70943500  0.39456700  0.39102500  1
loop_
_geom_bond_atom_site_label_1
_geom_bond_atom_site_label_2
_geom_bond_distance
_geom_bond_site_symmetry_2
Mn0 O16 2.031586 1_555
Mn0 O30 2.031586 1_555
Mn0 O19 2.031586 1_554
Mn0 O29 2.031586 1_554
Mn1 O28 2.031586 1_655
Mn1 O18 2.031586 1_555
Mn1 O17 2.031586 1_545
Mn1 O31 2.031586 1_555
Mn2 O20 2.232532 1_554
Mn2 O23 2.232539 1_555
Mn2 O25 2.232541 1_445
Mn2 O26 2.232541 1_444
Mn2 O14 2.681163 1_555
Mn2 O8 2.681163 1_455
Mn2 O13 2.681163 1_454
Mn2 O11 2.681163 1_444
Mn3 O24 2.232532 1_555
Mn3 O27 2.232539 1_555
Mn3 O21 2.232541 1_555
Mn3 O22 2.232541 1_555
Mn3 O9 2.681163 1_555
Mn3 O10 2.681163 1_455
Mn3 O15 2.681163 1_565
Mn3 O12 2.681163 1_555
Mn4 O14 2.033082 1_565
Mn4 O12 2.084609 1_555
Mn4 O21 2.161510 1_555
Mn4 O25 2.384964 1_455
Mn4 O17 2.597608 1_555
Mn4 O2 2.650058 1_554
Mn5 O12 2.033082 1_555
Mn5 O13 2.084609 1_454
Mn5 O23 2.161506 1_555
Mn5 O27 2.384973 1_555
Mn5 O19 2.597608 1_554
Mn5 O0 2.650057 1_455
Mn6 O15 2.033082 1_555
Mn6 O14 2.084609 1_556
Mn6 O20 2.161509 1_555
Mn6 O24 2.384968 1_545
Mn6 O16 2.597608 1_556
Mn6 O3 2.650061 1_545
Mn7 O13 2.033082 1_555
Mn7 O15 2.084609 1_555
Mn7 O22 2.161510 1_545
Mn7 O26 2.384964 1_545
Mn7 O18 2.597608 1_555
Mn7 O1 2.650058 1_556
Mn8 O10 2.033082 1_555
Mn8 O8 2.084609 1_565
Mn8 O25 2.161510 1_555
Mn8 O21 2.384964 1_655
Mn8 O30 2.597608 1_555
Mn8 O6 2.650058 1_665
Mn9 O8 2.033082 1_455
Mn9 O9 2.084609 1_555
Mn9 O27 2.161506 1_555
Mn9 O23 2.384973 1_555
Mn9 O28 2.597608 1_555
Mn9 O4 2.650057 1_555
Mn10 O11 2.033082 1_555
Mn10 O10 2.084609 1_555
Mn10 O24 2.161509 1_655
Mn10 O20 2.384968 1_665
Mn10 O31 2.597608 1_555
Mn10 O7 2.650061 1_555
Mn11 O9 2.033082 1_555
Mn11 O11 2.084609 1_555
Mn11 O26 2.161510 1_555
Mn11 O22 2.384964 1_555
Mn11 O29 2.597608 1_555
Mn11 O5 2.650058 1_555
O0 Ta0 1.943425 1_555
O0 Ta2 2.031571 1_554
O1 Ta1 1.943422 1_545
O1 Ta0 2.031587 1_555
O2 Ta2 1.943418 1_455
O2 Ta3 2.031579 1_555
O3 Ta3 1.943422 1_555
O3 Ta1 2.031584 1_556
O4 Ta4 1.943425 1_555
O4 Ta6 2.031571 1_555
O5 Ta5 1.943422 1_555
O5 Ta4 2.031587 1_555
O6 Ta6 1.943418 1_555
O6 Ta7 2.031579 1_555
O7 Ta7 1.943422 1_665
O7 Ta5 2.031584 1_555
O8 Ta1 1.957292 1_545
O9 Ta3 1.957299 1_555
O10 Ta0 1.957292 1_555
O11 Ta2 1.957299 1_555
O12 Ta5 1.957292 1_555
O13 Ta7 1.957299 1_655
O14 Ta4 1.957292 1_555
O15 Ta6 1.957299 1_555
O16 Ta4 2.043903 1_555
O16 Ta0 2.148713 1_555
O17 Ta5 2.043900 1_555
O17 Ta1 2.148722 1_555
O18 Ta6 2.043901 1_555
O18 Ta2 2.148716 1_555
O19 Ta7 2.043901 1_555
O19 Ta3 2.148716 1_555
O20 Ta7 1.955521 1_555
O21 Ta6 1.955515 1_565
O22 Ta5 1.955510 1_555
O23 Ta4 1.955521 1_555
O24 Ta3 1.955521 1_555
O25 Ta2 1.955515 1_554
O26 Ta1 1.955510 1_556
O27 Ta0 1.955521 1_455
O28 Ta3 2.043901 1_555
O28 Ta7 2.148716 1_555
O29 Ta2 2.043901 1_555
O29 Ta6 2.148716 1_555
O30 Ta1 2.043900 1_555
O30 Ta5 2.148722 1_555
O31 Ta0 2.043903 1_555
O31 Ta4 2.148713 1_555
