# generated using pymatgen
data_CuSiIrS4
_symmetry_space_group_name_H-M   'P 1'
_cell_length_a   6.88619652
_cell_length_b   6.88619634
_cell_length_c   6.83441187
_cell_angle_alpha   60.24844602
_cell_angle_beta   60.24844687
_cell_angle_gamma   61.67723359
_symmetry_Int_Tables_number   1
_chemical_formula_structural   CuSiIrS4
_chemical_formula_sum   'Cu2 Si2 Ir2 S8'
_cell_volume   232.81562209
_cell_formula_units_Z   2
loop_
 _symmetry_equiv_pos_site_id
 _symmetry_equiv_pos_as_xyz
  1  'x, y, z'
loop_
 _atom_site_type_symbol
 _atom_site_label
 _atom_site_symmetry_multiplicity
 _atom_site_fract_x
 _atom_site_fract_y
 _atom_site_fract_z
 _atom_site_occupancy
  Cu  Cu0  1  0.99631147  0.99631147  0.00368853  1
  Cu  Cu1  1  0.25368853  0.25368853  0.24631147  1
  Si  Si0  1  0.62500000  0.62500000  0.62500000  1
  Si  Si1  1  0.62500000  0.62500000  0.12500000  1
  Ir  Ir0  1  0.12500000  0.62500000  0.62500000  1
  Ir  Ir1  1  0.62500000  0.12500000  0.62500000  1
  S  S0  1  0.38896067  0.38896067  0.84006440  1
  S  S1  1  0.38896067  0.38896067  0.38201526  1
  S  S2  1  0.86103933  0.86103933  0.86798474  1
  S  S3  1  0.86103933  0.86103933  0.40993560  1
  S  S4  1  0.38971098  0.84899544  0.38064679  1
  S  S5  1  0.84899544  0.38971098  0.38064679  1
  S  S6  1  0.40100456  0.86028902  0.86935321  1
  S  S7  1  0.86028902  0.40100456  0.86935321  1
loop_
_geom_bond_atom_site_label_1
_geom_bond_atom_site_label_2
_geom_bond_distance
_geom_bond_site_symmetry_2
Cu0 S3 2.265789 1_555
Cu0 S2 2.265794 1_554
Cu0 S7 2.307337 1_564
Cu0 S6 2.307337 1_654
Cu1 S0 2.265789 1_554
Cu1 S1 2.265794 1_555
Cu1 S4 2.307337 1_545
Cu1 S5 2.307337 1_455
Ir0 S4 2.362424 1_555
Ir0 S7 2.362424 1_455
Ir0 S2 2.362920 1_455
Ir0 S1 2.362920 1_555
Ir0 S0 2.362924 1_555
Ir0 S3 2.362924 1_455
Ir1 S5 2.362424 1_555
Ir1 S6 2.362424 1_545
Ir1 S2 2.362920 1_545
Ir1 S1 2.362920 1_555
Ir1 S0 2.362924 1_555
Ir1 S3 2.362924 1_545
S0 Si0 2.282324 1_555
S1 Si1 2.282325 1_555
S2 Si1 2.282325 1_556
S3 Si0 2.282324 1_555
S4 Si1 2.356023 1_555
S4 Si0 2.356023 1_555
S5 Si1 2.356023 1_555
S5 Si0 2.356023 1_555
S6 Si1 2.356023 1_556
S6 Si0 2.356023 1_555
S7 Si1 2.356023 1_556
S7 Si0 2.356023 1_555
