# generated using pymatgen
data_Cs4Ba(AsSe4)2
_symmetry_space_group_name_H-M   'P 1'
_cell_length_a   12.48198209
_cell_length_b   12.48198260
_cell_length_c   12.48198156
_cell_angle_alpha   133.03484993
_cell_angle_beta   127.37748295
_cell_angle_gamma   73.17157598
_symmetry_Int_Tables_number   1
_chemical_formula_structural   Cs4Ba(AsSe4)2
_chemical_formula_sum   'Cs8 Ba2 As4 Se16'
_cell_volume   1103.18764524
_cell_formula_units_Z   2
loop_
 _symmetry_equiv_pos_site_id
 _symmetry_equiv_pos_as_xyz
  1  'x, y, z'
loop_
 _atom_site_type_symbol
 _atom_site_label
 _atom_site_symmetry_multiplicity
 _atom_site_fract_x
 _atom_site_fract_y
 _atom_site_fract_z
 _atom_site_occupancy
  Cs  Cs0  1  0.48943713  0.23943713  0.25000000  1
  Cs  Cs1  1  0.01056287  0.76056287  0.25000000  1
  Cs  Cs2  1  0.58806218  0.70641700  0.11835482  1
  Cs  Cs3  1  0.41193782  0.29358300  0.88164518  1
  Cs  Cs4  1  0.51056287  0.76056287  0.75000000  1
  Cs  Cs5  1  0.08806218  0.46970836  0.38164518  1
  Cs  Cs6  1  0.91193782  0.53029164  0.61835482  1
  Cs  Cs7  1  0.98943713  0.23943713  0.75000000  1
  Ba  Ba0  1  0.25000000  0.00000000  0.25000000  1
  Ba  Ba1  1  0.75000000  0.00000000  0.75000000  1
  As  As0  1  0.12556584  0.91927489  0.79370905  1
  As  As1  1  0.87443416  0.08072511  0.20629095  1
  As  As2  1  0.37443416  0.66814321  0.29370905  1
  As  As3  1  0.62556584  0.33185679  0.70629095  1
  Se  Se0  1  0.59703214  0.63232993  0.37750828  1
  Se  Se1  1  0.76239366  0.02277450  0.26037984  1
  Se  Se2  1  0.89350724  0.86749100  0.97398376  1
  Se  Se3  1  0.74517735  0.36767007  0.96470121  1
  Se  Se4  1  0.75482265  0.21952386  0.12249172  1
  Se  Se5  1  0.73760634  0.49798519  0.76037984  1
  Se  Se6  1  0.23760634  0.97722550  0.73962016  1
  Se  Se7  1  0.25482265  0.63232993  0.03529879  1
  Se  Se8  1  0.26239366  0.50201481  0.23962016  1
  Se  Se9  1  0.24517735  0.78047614  0.87750828  1
  Se  Se10  1  0.10649276  0.13250900  0.02601624  1
  Se  Se11  1  0.90296786  0.78047614  0.53529879  1
  Se  Se12  1  0.09703214  0.21952386  0.46470121  1
  Se  Se13  1  0.60649276  0.08047552  0.47398376  1
  Se  Se14  1  0.40296786  0.36767007  0.62249172  1
  Se  Se15  1  0.39350724  0.91952448  0.52601624  1
loop_
_geom_bond_atom_site_label_1
_geom_bond_atom_site_label_2
_geom_bond_distance
_geom_bond_site_symmetry_2
Cs0 Se1 3.680444 1_555
Cs0 Se8 3.680459 1_555
Cs0 Se6 3.789775 1_544
Cs0 Se5 3.789776 1_555
Cs0 Se10 3.849815 1_555
Cs0 Se13 3.849826 1_555
Cs1 Se5 3.680451 1_454
Cs1 Se6 3.680453 1_555
Cs1 Se8 3.789769 1_555
Cs1 Se1 3.789783 1_465
Cs1 Se2 3.849815 1_454
Cs1 Se15 3.849819 1_555
Cs2 Se13 3.556814 1_565
Cs2 Se11 3.753695 1_555
Cs2 Se9 3.753696 1_554
Cs2 Se3 3.754907 1_554
Cs2 Se14 3.754913 1_554
Cs2 Se1 3.769300 1_565
Cs2 Se7 3.861921 1_555
Cs2 Se0 3.861927 1_555
Cs3 Se15 3.556814 1_545
Cs3 Se12 3.753695 1_555
Cs3 Se4 3.753696 1_556
Cs3 Se7 3.754907 1_556
Cs3 Se0 3.754913 1_556
Cs3 Se6 3.769300 1_545
Cs3 Se3 3.861921 1_555
Cs3 Se14 3.861927 1_555
Cs4 Se6 3.680444 1_555
Cs4 Se5 3.680459 1_555
Cs4 Se1 3.789775 1_566
Cs4 Se8 3.789776 1_555
Cs4 Se2 3.849815 1_555
Cs4 Se15 3.849826 1_555
Cs5 Se10 3.556824 1_555
Cs5 Se3 3.753695 1_454
Cs5 Se14 3.753696 1_555
Cs5 Se11 3.754909 1_455
Cs5 Se9 3.754914 1_555
Cs5 Se8 3.769289 1_555
Cs5 Se4 3.861924 1_455
Cs5 Se12 3.861929 1_555
Cs6 Se2 3.556824 1_555
Cs6 Se7 3.753695 1_656
Cs6 Se0 3.753696 1_555
Cs6 Se12 3.754909 1_655
Cs6 Se4 3.754914 1_555
Cs6 Se5 3.769289 1_555
Cs6 Se9 3.861924 1_655
Cs6 Se11 3.861929 1_555
Cs7 Se8 3.680451 1_656
Cs7 Se1 3.680453 1_555
Cs7 Se5 3.789769 1_555
Cs7 Se6 3.789783 1_645
Cs7 Se10 3.849815 1_656
Cs7 Se13 3.849819 1_555
Ba0 Se9 3.390602 1_544
Ba0 Se12 3.390602 1_555
Ba0 Se14 3.390610 1_555
Ba0 Se7 3.390613 1_545
Ba0 Se15 3.503733 1_545
Ba0 Se13 3.503742 1_555
Ba0 Se10 3.503743 1_555
Ba0 Se2 3.503743 1_444
Ba1 Se4 3.390602 1_556
Ba1 Se11 3.390602 1_545
Ba1 Se0 3.390610 1_545
Ba1 Se3 3.390613 1_555
Ba1 Se13 3.503733 1_555
Ba1 Se15 3.503742 1_545
Ba1 Se2 3.503743 1_545
Ba1 Se10 3.503743 1_656
As0 Se6 2.309416 1_555
As0 Se11 2.324709 1_455
As0 Se9 2.324709 1_555
As0 Se10 2.342265 1_566
As1 Se1 2.309416 1_555
As1 Se12 2.324709 1_655
As1 Se4 2.324709 1_555
As1 Se2 2.342265 1_544
As2 Se8 2.309414 1_555
As2 Se7 2.324701 1_555
As2 Se0 2.324711 1_555
As2 Se15 2.342272 1_555
As3 Se5 2.309414 1_555
As3 Se3 2.324701 1_555
As3 Se14 2.324711 1_555
As3 Se13 2.342272 1_555
