# generated using pymatgen
data_Sr4NbRhO8
_symmetry_space_group_name_H-M   'P 1'
_cell_length_a   6.95989767
_cell_length_b   6.95989873
_cell_length_c   5.58004563
_cell_angle_alpha   90.00000000
_cell_angle_beta   90.00000000
_cell_angle_gamma   132.60984475
_symmetry_Int_Tables_number   1
_chemical_formula_structural   Sr4NbRhO8
_chemical_formula_sum   'Sr4 Nb1 Rh1 O8'
_cell_volume   198.93444831
_cell_formula_units_Z   1
loop_
 _symmetry_equiv_pos_site_id
 _symmetry_equiv_pos_as_xyz
  1  'x, y, z'
loop_
 _atom_site_type_symbol
 _atom_site_label
 _atom_site_symmetry_multiplicity
 _atom_site_fract_x
 _atom_site_fract_y
 _atom_site_fract_z
 _atom_site_occupancy
  Sr  Sr0  1  0.64783023  0.35216977  0.00000000  1
  Sr  Sr1  1  0.14512265  0.85487735  0.50000000  1
  Sr  Sr2  1  0.85487735  0.14512265  0.50000000  1
  Sr  Sr3  1  0.35216977  0.64783023  0.00000000  1
  Nb  Nb0  1  0.50000000  0.50000000  0.50000000  1
  Rh  Rh0  1  0.00000000  0.00000000  0.00000000  1
  O  O0  1  0.83607042  0.16392958  0.00000000  1
  O  O1  1  0.33838186  0.66161814  0.50000000  1
  O  O2  1  0.66161814  0.33838186  0.50000000  1
  O  O3  1  0.16392958  0.83607042  0.00000000  1
  O  O4  1  0.74865645  0.74865645  0.74804737  1
  O  O5  1  0.25134355  0.25134355  0.25195263  1
  O  O6  1  0.25134355  0.25134355  0.74804737  1
  O  O7  1  0.74865645  0.74865645  0.25195263  1
loop_
_geom_bond_atom_site_label_1
_geom_bond_atom_site_label_2
_geom_bond_distance
_geom_bond_site_symmetry_2
Nb0 O4 1.962287 1_555
Nb0 O7 1.962287 1_555
Nb0 O6 1.962287 1_555
Nb0 O5 1.962287 1_555
Nb0 O2 2.060036 1_555
Nb0 O1 2.060036 1_555
O0 Rh0 2.089499 1_655
O0 Sr0 2.399369 1_555
O0 Sr2 2.800302 1_555
O0 Sr2 2.800302 1_554
O0 Sr3 2.804486 1_655
O0 Sr3 2.804486 1_545
O1 Sr1 2.463343 1_555
O1 Sr3 2.795552 1_555
O1 Sr3 2.795552 1_556
O1 Sr2 2.804860 1_565
O1 Sr2 2.804860 1_455
O2 Sr2 2.463343 1_555
O2 Sr0 2.795552 1_555
O2 Sr0 2.795552 1_556
O2 Sr1 2.804860 1_545
O2 Sr1 2.804860 1_655
O3 Rh0 2.089499 1_565
O3 Sr3 2.399369 1_555
O3 Sr1 2.800302 1_554
O3 Sr1 2.800302 1_555
O3 Sr0 2.804486 1_455
O3 Sr0 2.804486 1_565
O4 Rh0 1.988318 1_666
O4 Sr1 2.704495 1_655
O4 Sr2 2.704496 1_565
O4 Sr3 2.731651 1_556
O4 Sr0 2.731652 1_556
O5 Rh0 1.988318 1_555
O5 Sr2 2.704495 1_455
O5 Sr1 2.704496 1_545
O5 Sr0 2.731651 1_555
O5 Sr3 2.731652 1_555
O6 Rh0 1.988318 1_556
O6 Sr2 2.704495 1_455
O6 Sr1 2.704496 1_545
O6 Sr0 2.731651 1_556
O6 Sr3 2.731652 1_556
O7 Rh0 1.988318 1_665
O7 Sr1 2.704495 1_655
O7 Sr2 2.704496 1_565
O7 Sr3 2.731651 1_555
O7 Sr0 2.731652 1_555
