# generated using pymatgen
data_BaPt4PbO8
_symmetry_space_group_name_H-M   'P 1'
_cell_length_a   5.75644515
_cell_length_b   6.19479636
_cell_length_c   6.86255871
_cell_angle_alpha   116.22700323
_cell_angle_beta   96.51819358
_cell_angle_gamma   109.31621141
_symmetry_Int_Tables_number   1
_chemical_formula_structural   BaPt4PbO8
_chemical_formula_sum   'Ba1 Pt4 Pb1 O8'
_cell_volume   197.17835113
_cell_formula_units_Z   1
loop_
 _symmetry_equiv_pos_site_id
 _symmetry_equiv_pos_as_xyz
  1  'x, y, z'
loop_
 _atom_site_type_symbol
 _atom_site_label
 _atom_site_symmetry_multiplicity
 _atom_site_fract_x
 _atom_site_fract_y
 _atom_site_fract_z
 _atom_site_occupancy
  Ba  Ba0  1  0.87158021  0.24866415  0.12333045  1
  Pt  Pt0  1  0.49948183  0.50020576  0.50261040  1
  Pt  Pt1  1  0.99945501  0.00034489  0.50327751  1
  Pt  Pt2  1  0.49907209  0.50530246  0.00205475  1
  Pt  Pt3  1  0.49652241  0.00128063  0.50076742  1
  Pb  Pb0  1  0.14052404  0.73700634  0.83701112  1
  O  O0  1  0.51176053  0.86106080  0.71854744  1
  O  O1  1  0.47299009  0.13626661  0.28478732  1
  O  O2  1  0.83957720  0.81363168  0.16678450  1
  O  O3  1  0.16319521  0.18198497  0.83682809  1
  O  O4  1  0.86659914  0.65977676  0.50216874  1
  O  O5  1  0.13816926  0.34938618  0.51676329  1
  O  O6  1  0.37699655  0.60647062  0.27953255  1
  O  O7  1  0.62407647  0.39861816  0.72553641  1
loop_
_geom_bond_atom_site_label_1
_geom_bond_atom_site_label_2
_geom_bond_distance
_geom_bond_site_symmetry_2
Ba0 O5 2.640255 1_655
Ba0 O1 2.679405 1_555
Ba0 O0 2.698189 1_544
Ba0 O3 2.710071 1_654
Ba0 O6 2.729894 1_655
Ba0 O4 2.731103 1_555
Ba0 O2 2.789245 1_545
O0 Pt0 2.035161 1_555
O0 Pt3 2.040563 1_565
O0 Pb0 2.382947 1_555
O1 Pt3 2.009791 1_555
O1 Pt0 2.020579 1_555
O1 Pb0 2.835219 1_544
O2 Pt2 1.969735 1_555
O2 Pt1 1.992434 1_565
O3 Pt1 1.981445 1_455
O3 Pt2 1.992132 1_556
O3 Pb0 2.716747 1_545
O4 Pt1 1.988229 1_565
O4 Pt0 2.016247 1_555
O4 Pb0 2.387914 1_655
O5 Pt1 1.996392 1_455
O5 Pt0 2.012146 1_555
O5 Pb0 2.429699 1_555
O6 Pt2 2.013198 1_555
O6 Pt3 2.031698 1_565
O6 Pt0 2.055921 1_555
O7 Pt2 2.017849 1_556
O7 Pt0 2.037471 1_555
O7 Pt3 2.041682 1_555
O7 Pb0 2.785871 1_655
