# generated using pymatgen
data_Y9ScIn3Ru
_symmetry_space_group_name_H-M   'P 1'
_cell_length_a   9.71695512
_cell_length_b   9.71695474
_cell_length_c   9.62635657
_cell_angle_alpha   90.00000000
_cell_angle_beta   90.00000000
_cell_angle_gamma   120.00000472
_symmetry_Int_Tables_number   1
_chemical_formula_structural   Y9ScIn3Ru
_chemical_formula_sum   'Y18 Sc2 In6 Ru2'
_cell_volume   787.14172121
_cell_formula_units_Z   2
loop_
 _symmetry_equiv_pos_site_id
 _symmetry_equiv_pos_as_xyz
  1  'x, y, z'
loop_
 _atom_site_type_symbol
 _atom_site_label
 _atom_site_symmetry_multiplicity
 _atom_site_fract_x
 _atom_site_fract_y
 _atom_site_fract_z
 _atom_site_occupancy
  Y  Y0  1  0.20878560  0.79121440  0.43925659  1
  Y  Y1  1  0.20878560  0.41757220  0.43925659  1
  Y  Y2  1  0.58242780  0.79121440  0.43925659  1
  Y  Y3  1  0.79121440  0.20878560  0.56074341  1
  Y  Y4  1  0.79121440  0.58242780  0.56074341  1
  Y  Y5  1  0.41757220  0.20878560  0.56074341  1
  Y  Y6  1  0.79121440  0.20878560  0.93925659  1
  Y  Y7  1  0.79121440  0.58242780  0.93925659  1
  Y  Y8  1  0.41757220  0.20878560  0.93925659  1
  Y  Y9  1  0.20878560  0.79121440  0.06074341  1
  Y  Y10  1  0.20878560  0.41757220  0.06074341  1
  Y  Y11  1  0.58242780  0.79121440  0.06074341  1
  Y  Y12  1  0.53997415  0.46002585  0.25000000  1
  Y  Y13  1  0.53997415  0.07994830  0.25000000  1
  Y  Y14  1  0.92005170  0.46002585  0.25000000  1
  Y  Y15  1  0.46002585  0.53997415  0.75000000  1
  Y  Y16  1  0.46002585  0.92005170  0.75000000  1
  Y  Y17  1  0.07994830  0.53997415  0.75000000  1
  Sc  Sc0  1  0.00000000  0.00000000  0.50000000  1
  Sc  Sc1  1  0.00000000  0.00000000  0.00000000  1
  In  In0  1  0.88732831  0.11267169  0.25000000  1
  In  In1  1  0.88732831  0.77465963  0.25000000  1
  In  In2  1  0.22534037  0.11267169  0.25000000  1
  In  In3  1  0.11267169  0.88732831  0.75000000  1
  In  In4  1  0.11267169  0.22534037  0.75000000  1
  In  In5  1  0.77465963  0.88732831  0.75000000  1
  Ru  Ru0  1  0.33333300  0.66666700  0.25000000  1
  Ru  Ru1  1  0.66666700  0.33333300  0.75000000  1
loop_
_geom_bond_atom_site_label_1
_geom_bond_atom_site_label_2
_geom_bond_distance
_geom_bond_site_symmetry_2
In0 Sc0 3.063919 1_655
In0 Sc1 3.063919 1_655
In0 Y14 3.228006 1_555
In0 Y13 3.228006 1_555
In0 In1 3.284448 1_545
In0 In2 3.284448 1_655
In0 Y3 3.400697 1_555
In0 Y6 3.400697 1_554
In0 Y2 3.549547 1_545
In0 Y11 3.549547 1_545
In0 Y1 3.549547 1_655
In0 Y10 3.549547 1_655
In1 Sc0 3.063904 1_665
In1 Sc1 3.063904 1_665
In1 Y12 3.228018 1_555
In1 Y14 3.228035 1_555
In1 In2 3.284448 1_665
In1 Y4 3.400713 1_555
In1 Y7 3.400713 1_554
In1 Y2 3.549539 1_555
In1 Y11 3.549539 1_555
In1 Y0 3.549555 1_655
In1 Y9 3.549555 1_655
In2 Sc0 3.063904 1_555
In2 Sc1 3.063904 1_555
In2 Y12 3.228018 1_555
In2 Y13 3.228035 1_555
In2 Y5 3.400713 1_555
In2 Y8 3.400713 1_554
In2 Y1 3.549539 1_555
In2 Y10 3.549539 1_555
In2 Y0 3.549555 1_545
In2 Y9 3.549555 1_545
In3 Sc0 3.063919 1_565
In3 Sc1 3.063919 1_566
In3 Y17 3.228006 1_555
In3 Y16 3.228006 1_555
In3 In4 3.284448 1_565
In3 In5 3.284448 1_455
In3 Y9 3.400697 1_556
In3 Y0 3.400697 1_555
In3 Y8 3.549547 1_565
In3 Y5 3.549547 1_565
In3 Y7 3.549547 1_455
In3 Y4 3.549547 1_455
In4 Sc0 3.063904 1_555
In4 Sc1 3.063904 1_556
In4 Y15 3.228018 1_555
In4 Y17 3.228035 1_555
In4 In5 3.284448 1_445
In4 Y10 3.400713 1_556
In4 Y1 3.400713 1_555
In4 Y8 3.549539 1_555
In4 Y5 3.549539 1_555
In4 Y6 3.549555 1_455
In4 Y3 3.549555 1_455
In5 Sc1 3.063904 1_666
In5 Sc0 3.063904 1_665
In5 Y15 3.228018 1_555
In5 Y16 3.228035 1_555
In5 Y11 3.400713 1_556
In5 Y2 3.400713 1_555
In5 Y7 3.549539 1_555
In5 Y4 3.549539 1_555
In5 Y6 3.549555 1_565
In5 Y3 3.549555 1_565
Ru0 Y1 2.777238 1_555
Ru0 Y10 2.777238 1_555
Ru0 Y2 2.777238 1_555
Ru0 Y11 2.777238 1_555
Ru0 Y0 2.777238 1_555
Ru0 Y9 2.777238 1_555
Ru0 Y13 3.477816 1_565
Ru0 Y14 3.477816 1_455
Ru0 Y12 3.477824 1_555
Ru1 Y7 2.777238 1_555
Ru1 Y4 2.777238 1_555
Ru1 Y8 2.777238 1_555
Ru1 Y5 2.777238 1_555
Ru1 Y6 2.777238 1_555
Ru1 Y3 2.777238 1_555
Ru1 Y16 3.477816 1_545
Ru1 Y17 3.477816 1_655
Ru1 Y15 3.477824 1_555
