# generated using pymatgen
data_RbP5Ru3O19
_symmetry_space_group_name_H-M   'P 1'
_cell_length_a   8.41451499
_cell_length_b   8.41451395
_cell_length_c   6.32695047
_cell_angle_alpha   81.61150273
_cell_angle_beta   81.61151176
_cell_angle_gamma   112.90118434
_symmetry_Int_Tables_number   1
_chemical_formula_structural   RbP5Ru3O19
_chemical_formula_sum   'Rb1 P5 Ru3 O19'
_cell_volume   398.02651715
_cell_formula_units_Z   1
loop_
 _symmetry_equiv_pos_site_id
 _symmetry_equiv_pos_as_xyz
  1  'x, y, z'
loop_
 _atom_site_type_symbol
 _atom_site_label
 _atom_site_symmetry_multiplicity
 _atom_site_fract_x
 _atom_site_fract_y
 _atom_site_fract_z
 _atom_site_occupancy
  Rb  Rb0  1  0.09600936  0.09600936  0.45399137  1
  P  P0  1  0.81388599  0.18487024  0.99724161  1
  P  P1  1  0.18487024  0.81388599  0.99724161  1
  P  P2  1  0.67445522  0.67445522  0.70460216  1
  P  P3  1  0.60503011  0.31500381  0.27281494  1
  P  P4  1  0.31500381  0.60503011  0.27281494  1
  Ru  Ru0  1  0.24251900  0.48902318  0.82135351  1
  Ru  Ru1  1  0.76538205  0.76538205  0.15982014  1
  Ru  Ru2  1  0.48902318  0.24251900  0.82135351  1
  O  O0  1  0.67728676  0.49272404  0.75167916  1
  O  O1  1  0.22463529  0.51466155  0.50768313  1
  O  O2  1  0.24393350  0.46315262  0.14339902  1
  O  O3  1  0.67280643  0.15353035  0.86271624  1
  O  O4  1  0.32293990  0.98734669  0.86162206  1
  O  O5  1  0.78949075  0.78949075  0.84298835  1
  O  O6  1  0.51231495  0.70907109  0.23159624  1
  O  O7  1  0.77634879  0.77634879  0.46848552  1
  O  O8  1  0.33081463  0.33081463  0.80581889  1
  O  O9  1  0.70907109  0.51231495  0.23159624  1
  O  O10  1  0.15353035  0.67280643  0.86271624  1
  O  O11  1  0.24845890  0.75419972  0.20732616  1
  O  O12  1  0.02353918  0.83699389  0.09802021  1
  O  O13  1  0.46315262  0.24393350  0.14339902  1
  O  O14  1  0.51466155  0.22463529  0.50768313  1
  O  O15  1  0.49272404  0.67728676  0.75167916  1
  O  O16  1  0.98734669  0.32293990  0.86162206  1
  O  O17  1  0.83699389  0.02353918  0.09802021  1
  O  O18  1  0.75419972  0.24845890  0.20732616  1
loop_
_geom_bond_atom_site_label_1
_geom_bond_atom_site_label_2
_geom_bond_distance
_geom_bond_site_symmetry_2
O0 P2 1.524864 1_555
O0 Ru2 2.016455 1_555
O1 P4 1.501744 1_555
O1 Ru0 1.998804 1_555
O1 Rb0 3.344494 1_555
O2 P4 1.525037 1_555
O2 Ru0 2.019624 1_554
O2 Rb0 3.078505 1_555
O3 P0 1.523110 1_555
O3 Ru2 1.995700 1_555
O4 P1 1.496788 1_555
O4 Ru2 2.007320 1_565
O4 Rb0 3.638887 1_565
O5 P2 1.551086 1_555
O5 Ru1 1.957375 1_556
O5 Rb0 3.237334 1_665
O6 P4 1.505580 1_555
O6 Ru1 1.958324 1_555
O7 P2 1.543504 1_555
O7 Ru1 1.982278 1_555
O7 Rb0 2.950174 1_665
O8 Ru0 1.766502 1_555
O8 Ru2 1.766502 1_555
O8 Rb0 3.505804 1_555
O9 P3 1.505580 1_555
O9 Ru1 1.958323 1_555
O10 P1 1.523110 1_555
O10 Ru0 1.995700 1_555
O11 P4 1.588608 1_555
O11 P1 1.589708 1_554
O12 P1 1.508739 1_554
O12 Ru1 1.974695 1_455
O12 Rb0 3.315572 1_565
O13 P3 1.525037 1_555
O13 Ru2 2.019624 1_554
O13 Rb0 3.078506 1_555
O14 P3 1.501744 1_555
O14 Ru2 1.998804 1_555
O14 Rb0 3.344494 1_555
O15 P2 1.524864 1_555
O15 Ru0 2.016455 1_555
O16 P0 1.496788 1_555
O16 Ru0 2.007320 1_655
O16 Rb0 3.638887 1_655
O17 P0 1.508739 1_554
O17 Ru1 1.974695 1_545
O17 Rb0 3.315572 1_655
O18 P3 1.588608 1_555
O18 P0 1.589709 1_554
