# generated using pymatgen
data_Rb3Al2As2P
_symmetry_space_group_name_H-M   'P 1'
_cell_length_a   5.94893367
_cell_length_b   7.78170556
_cell_length_c   10.64490632
_cell_angle_alpha   70.10128491
_cell_angle_beta   90.00000000
_cell_angle_gamma   90.00000000
_symmetry_Int_Tables_number   1
_chemical_formula_structural   Rb3Al2As2P
_chemical_formula_sum   'Rb6 Al4 As4 P2'
_cell_volume   463.36181592
_cell_formula_units_Z   2
loop_
 _symmetry_equiv_pos_site_id
 _symmetry_equiv_pos_as_xyz
  1  'x, y, z'
loop_
 _atom_site_type_symbol
 _atom_site_label
 _atom_site_symmetry_multiplicity
 _atom_site_fract_x
 _atom_site_fract_y
 _atom_site_fract_z
 _atom_site_occupancy
  Rb  Rb0  1  0.25000000  0.46631226  0.41070971  1
  Rb  Rb1  1  0.75000000  0.13855235  0.93489772  1
  Rb  Rb2  1  0.75000000  0.46978657  0.15090036  1
  Rb  Rb3  1  0.25000000  0.53021343  0.84909964  1
  Rb  Rb4  1  0.75000000  0.53368774  0.58929029  1
  Rb  Rb5  1  0.25000000  0.86144765  0.06510228  1
  Al  Al0  1  0.99998699  0.01525920  0.35240454  1
  Al  Al1  1  0.49998699  0.98474080  0.64759546  1
  Al  Al2  1  0.50001301  0.01525920  0.35240454  1
  Al  Al3  1  0.00001301  0.98474080  0.64759546  1
  As  As0  1  0.25000000  0.22965990  0.18709946  1
  As  As1  1  0.75000000  0.77034010  0.81290054  1
  As  As2  1  0.25000000  0.16977435  0.73292527  1
  As  As3  1  0.75000000  0.83022565  0.26707473  1
  P  P0  1  0.25000000  0.83141780  0.53246518  1
  P  P1  1  0.75000000  0.16858220  0.46753482  1
loop_
_geom_bond_atom_site_label_1
_geom_bond_atom_site_label_2
_geom_bond_distance
_geom_bond_site_symmetry_2
Al0 As3 2.449537 1_545
Al0 P0 2.462922 1_645
Al0 As0 2.468521 1_655
Al0 P1 2.476387 1_555
Al1 As2 2.449537 1_565
Al1 P1 2.462922 1_565
Al1 As1 2.468521 1_555
Al1 P0 2.476387 1_555
Al2 As3 2.449537 1_545
Al2 P0 2.462922 1_545
Al2 As0 2.468521 1_555
Al2 P1 2.476387 1_555
Al3 As2 2.449537 1_565
Al3 P1 2.462922 1_465
Al3 As1 2.468521 1_455
Al3 P0 2.476387 1_555
As0 Rb2 3.463732 1_555
As0 Rb2 3.463732 1_455
As0 Rb0 3.470033 1_555
As0 Rb5 3.525552 1_545
As0 Rb3 3.561919 1_554
As1 Rb3 3.463732 1_655
As1 Rb3 3.463732 1_555
As1 Rb4 3.470033 1_555
As1 Rb1 3.525552 1_565
As1 Rb2 3.561919 1_556
As2 Rb0 3.420773 1_555
As2 Rb3 3.428932 1_555
As2 Rb5 3.533379 1_546
As2 Rb1 3.629505 1_555
As2 Rb1 3.629505 1_455
As3 Rb4 3.420773 1_555
As3 Rb2 3.428932 1_555
As3 Rb1 3.533379 1_564
As3 Rb5 3.629505 1_555
As3 Rb5 3.629505 1_655
P0 Rb3 3.387711 1_555
P0 Rb0 3.501220 1_555
P0 Rb4 3.691496 1_455
P0 Rb4 3.691496 1_555
P1 Rb2 3.387711 1_555
P1 Rb4 3.501220 1_555
P1 Rb0 3.691496 1_655
P1 Rb0 3.691496 1_555
