# generated using pymatgen
data_Hf4Pt2C
_symmetry_space_group_name_H-M   'P 1'
_cell_length_a   8.77098296
_cell_length_b   8.77095338
_cell_length_c   8.77054022
_cell_angle_alpha   60.00147304
_cell_angle_beta   60.00162121
_cell_angle_gamma   60.00280920
_symmetry_Int_Tables_number   1
_chemical_formula_structural   Hf4Pt2C
_chemical_formula_sum   'Hf16 Pt8 C4'
_cell_volume   477.11798954
_cell_formula_units_Z   4
loop_
 _symmetry_equiv_pos_site_id
 _symmetry_equiv_pos_as_xyz
  1  'x, y, z'
loop_
 _atom_site_type_symbol
 _atom_site_label
 _atom_site_symmetry_multiplicity
 _atom_site_fract_x
 _atom_site_fract_y
 _atom_site_fract_z
 _atom_site_occupancy
  Hf  Hf0  1  0.12500000  0.62500000  0.62500000  1
  Hf  Hf1  1  0.62500000  0.12500000  0.62500000  1
  Hf  Hf2  1  0.62500000  0.62500000  0.12500000  1
  Hf  Hf3  1  0.62500000  0.62500000  0.62500000  1
  Hf  Hf4  1  0.81772813  0.81770281  0.18229123  1
  Hf  Hf5  1  0.18239985  0.18241928  0.81758012  1
  Hf  Hf6  1  0.81774463  0.18228165  0.81756414  1
  Hf  Hf7  1  0.18226841  0.81771798  0.18242940  1
  Hf  Hf8  1  0.18227952  0.81772410  0.81756934  1
  Hf  Hf9  1  0.81773858  0.18227009  0.18241216  1
  Hf  Hf10  1  0.43227187  0.43229719  0.06770877  1
  Hf  Hf11  1  0.06760015  0.06758072  0.43241988  1
  Hf  Hf12  1  0.43225537  0.06771835  0.43243586  1
  Hf  Hf13  1  0.06773159  0.43228202  0.06757060  1
  Hf  Hf14  1  0.06772048  0.43227590  0.43243066  1
  Hf  Hf15  1  0.43226142  0.06772991  0.06758784  1
  Pt  Pt0  1  0.77437306  0.40842916  0.40860536  1
  Pt  Pt1  1  0.40841368  0.77436817  0.40861678  1
  Pt  Pt2  1  0.40849037  0.40851392  0.77431887  1
  Pt  Pt3  1  0.40848376  0.40850748  0.40868465  1
  Pt  Pt4  1  0.47562694  0.84157084  0.84139464  1
  Pt  Pt5  1  0.84158632  0.47563183  0.84138322  1
  Pt  Pt6  1  0.84150963  0.84148608  0.47568113  1
  Pt  Pt7  1  0.84151624  0.84149252  0.84131535  1
  C  C0  1  0.62500000  0.12500000  0.12500000  1
  C  C1  1  0.12500000  0.62500000  0.12500000  1
  C  C2  1  0.12500000  0.12500000  0.62500000  1
  C  C3  1  0.12500000  0.12500000  0.12500000  1
loop_
_geom_bond_atom_site_label_1
_geom_bond_atom_site_label_2
_geom_bond_distance
_geom_bond_site_symmetry_2
Hf0 Pt1 2.747751 1_555
Hf0 Pt5 2.747751 1_455
Hf0 Pt7 2.748033 1_455
Hf0 Pt3 2.748033 1_555
Hf0 Pt2 2.748052 1_555
Hf0 Pt6 2.748052 1_455
Hf1 Pt0 2.747879 1_555
Hf1 Pt4 2.747879 1_545
Hf1 Pt7 2.748194 1_545
Hf1 Pt3 2.748194 1_555
Hf1 Pt2 2.748215 1_555
Hf1 Pt6 2.748215 1_545
Hf2 Pt0 2.749056 1_555
Hf2 Pt4 2.749056 1_554
Hf2 Pt1 2.749115 1_555
Hf2 Pt5 2.749115 1_554
Hf2 Pt7 2.749407 1_554
Hf2 Pt3 2.749407 1_555
Hf3 Pt4 2.748968 1_555
Hf3 Pt0 2.748968 1_555
Hf3 Pt5 2.749007 1_555
Hf3 Pt1 2.749007 1_555
Hf3 Pt6 2.749327 1_555
Hf3 Pt2 2.749327 1_555
Hf4 Pt6 2.797371 1_555
Hf4 Pt7 2.797507 1_554
Hf5 Pt5 2.796259 1_455
Hf5 Pt4 2.796485 1_545
Hf6 Pt7 2.796230 1_545
Hf6 Pt5 2.797618 1_555
Hf7 Pt6 2.796033 1_455
Hf7 Pt4 2.797773 1_554
Hf8 Pt7 2.796047 1_455
Hf8 Pt4 2.797658 1_555
Hf9 Pt6 2.796211 1_545
Hf9 Pt5 2.797747 1_554
Hf10 Pt2 2.797371 1_554
Hf10 Pt3 2.797507 1_555
Hf11 Pt1 2.796259 1_545
Hf11 Pt0 2.796485 1_455
Hf12 Pt3 2.796230 1_555
Hf12 Pt1 2.797618 1_545
Hf13 Pt2 2.796033 1_554
Hf13 Pt0 2.797773 1_455
Hf14 Pt3 2.796047 1_555
Hf14 Pt0 2.797658 1_455
Hf15 Pt2 2.796211 1_554
Hf15 Pt1 2.797747 1_545
C0 Hf10 2.305188 1_555
C0 Hf4 2.305188 1_545
C0 Hf9 2.305837 1_555
C0 Hf15 2.305837 1_555
C0 Hf12 2.305939 1_555
C0 Hf6 2.305939 1_554
C1 Hf10 2.304984 1_555
C1 Hf4 2.304984 1_455
C1 Hf7 2.305756 1_555
C1 Hf13 2.305756 1_555
C1 Hf14 2.305856 1_555
C1 Hf8 2.305856 1_554
C2 Hf12 2.304525 1_555
C2 Hf6 2.304525 1_455
C2 Hf8 2.304650 1_545
C2 Hf14 2.304650 1_555
C2 Hf5 2.305289 1_555
C2 Hf11 2.305289 1_555
C3 Hf15 2.304596 1_555
C3 Hf9 2.304596 1_455
C3 Hf13 2.304723 1_555
C3 Hf7 2.304723 1_545
C3 Hf11 2.305459 1_555
C3 Hf5 2.305459 1_554
