# generated using pymatgen
data_Bi3Pt4AuO14
_symmetry_space_group_name_H-M   'P 1'
_cell_length_a   7.37393408
_cell_length_b   7.24713093
_cell_length_c   7.37393489
_cell_angle_alpha   59.41949641
_cell_angle_beta   60.00000070
_cell_angle_gamma   59.41949358
_symmetry_Int_Tables_number   1
_chemical_formula_structural   Bi3Pt4AuO14
_chemical_formula_sum   'Bi3 Pt4 Au1 O14'
_cell_volume   276.17398268
_cell_formula_units_Z   1
loop_
 _symmetry_equiv_pos_site_id
 _symmetry_equiv_pos_as_xyz
  1  'x, y, z'
loop_
 _atom_site_type_symbol
 _atom_site_label
 _atom_site_symmetry_multiplicity
 _atom_site_fract_x
 _atom_site_fract_y
 _atom_site_fract_z
 _atom_site_occupancy
  Bi  Bi0  1  0.12500000  0.12500000  0.62500000  1
  Bi  Bi1  1  0.62500000  0.12500000  0.12500000  1
  Bi  Bi2  1  0.12500000  0.12500000  0.12500000  1
  Pt  Pt0  1  0.62500000  0.62500000  0.12500000  1
  Pt  Pt1  1  0.62500000  0.12500000  0.62500000  1
  Pt  Pt2  1  0.12500000  0.62500000  0.62500000  1
  Pt  Pt3  1  0.62500000  0.62500000  0.62500000  1
  Au  Au0  1  0.12500000  0.62500000  0.12500000  1
  O  O0  1  0.23899048  0.28302757  0.23899048  1
  O  O1  1  0.01100952  0.96697243  0.01100952  1
  O  O2  1  0.53975218  0.96248262  0.53975218  1
  O  O3  1  0.29613117  0.70863428  0.29613117  1
  O  O4  1  0.55089662  0.54136572  0.95386883  1
  O  O5  1  0.95386883  0.54136572  0.55089662  1
  O  O6  1  0.53975218  0.96248262  0.95801202  1
  O  O7  1  0.95801202  0.96248262  0.53975218  1
  O  O8  1  0.95386883  0.54136572  0.95386883  1
  O  O9  1  0.71024782  0.28751738  0.29198798  1
  O  O10  1  0.29613117  0.70863428  0.69910338  1
  O  O11  1  0.71024782  0.28751738  0.71024782  1
  O  O12  1  0.29198798  0.28751738  0.71024782  1
  O  O13  1  0.69910338  0.70863428  0.29613117  1
loop_
_geom_bond_atom_site_label_1
_geom_bond_atom_site_label_2
_geom_bond_distance
_geom_bond_site_symmetry_2
Bi0 O0 2.321683 1_555
Bi0 O1 2.321683 1_546
Bi0 O5 2.476596 1_455
Bi0 O10 2.476596 1_545
Bi0 O2 2.510291 1_545
Bi0 O11 2.510291 1_455
Bi0 O12 2.510298 1_555
Bi0 O7 2.510298 1_445
Bi1 O1 2.321683 1_645
Bi1 O0 2.321683 1_555
Bi1 O4 2.476596 1_554
Bi1 O13 2.476596 1_545
Bi1 O2 2.510292 1_545
Bi1 O11 2.510292 1_554
Bi1 O9 2.510298 1_555
Bi1 O6 2.510298 1_544
Bi2 O0 2.321677 1_555
Bi2 O1 2.321677 1_545
Bi2 O8 2.476596 1_454
Bi2 O3 2.476596 1_545
Bi2 O6 2.510292 1_544
Bi2 O9 2.510292 1_455
Bi2 O7 2.510292 1_445
Bi2 O12 2.510292 1_554
Au0 O1 2.005602 1_555
Au0 O0 2.005602 1_555
Au0 O4 2.588647 1_554
Au0 O13 2.588647 1_455
Au0 O8 2.588647 1_454
Au0 O3 2.588647 1_555
Au0 O5 2.588647 1_455
Au0 O10 2.588647 1_554
O2 Pt3 2.009629 1_555
O2 Pt1 2.019723 1_565
O3 Pt0 2.015727 1_555
O3 Pt2 2.015727 1_555
O4 Pt0 2.015727 1_556
O4 Pt3 2.015727 1_555
O5 Pt3 2.015727 1_555
O5 Pt2 2.015727 1_655
O6 Pt0 2.009630 1_556
O6 Pt1 2.019718 1_565
O7 Pt2 2.009630 1_655
O7 Pt1 2.019718 1_565
O8 Pt0 2.015727 1_556
O8 Pt2 2.015727 1_655
O9 Pt0 2.009630 1_555
O9 Pt1 2.019718 1_555
O10 Pt3 2.015727 1_555
O10 Pt2 2.015727 1_555
O11 Pt3 2.009629 1_555
O11 Pt1 2.019723 1_555
O12 Pt2 2.009630 1_555
O12 Pt1 2.019718 1_555
O13 Pt0 2.015727 1_555
O13 Pt3 2.015727 1_555
