# generated using pymatgen
data_Ca2B4OsRh3
_symmetry_space_group_name_H-M   'P 1'
_cell_length_a   6.91560366
_cell_length_b   6.00607261
_cell_length_c   5.51598822
_cell_angle_alpha   73.63077924
_cell_angle_beta   56.43695300
_cell_angle_gamma   50.06676709
_symmetry_Int_Tables_number   1
_chemical_formula_structural   Ca2B4OsRh3
_chemical_formula_sum   'Ca2 B4 Os1 Rh3'
_cell_volume   145.43039031
_cell_formula_units_Z   1
loop_
 _symmetry_equiv_pos_site_id
 _symmetry_equiv_pos_as_xyz
  1  'x, y, z'
loop_
 _atom_site_type_symbol
 _atom_site_label
 _atom_site_symmetry_multiplicity
 _atom_site_fract_x
 _atom_site_fract_y
 _atom_site_fract_z
 _atom_site_occupancy
  Ca  Ca0  1  0.49834028  0.49834028  0.50165972  1
  Ca  Ca1  1  0.75390197  0.75390197  0.74609803  1
  B  B0  1  0.81845051  0.19195690  0.83153594  1
  B  B1  1  0.05850780  0.43367386  0.07538720  1
  B  B2  1  0.19195690  0.81845051  0.15805665  1
  B  B3  1  0.43367386  0.05850780  0.43243114  1
  Os  Os0  1  0.13293489  0.13293489  0.86706511  1
  Rh  Rh0  1  0.37956628  0.37956628  0.12043372  1
  Rh  Rh1  1  0.11555559  0.11555559  0.38444441  1
  Rh  Rh2  1  0.86711192  0.86711192  0.13288808  1
loop_
_geom_bond_atom_site_label_1
_geom_bond_atom_site_label_2
_geom_bond_distance
_geom_bond_site_symmetry_2
Ca0 Rh1 3.018474 1_565
Ca0 Rh1 3.018474 1_655
Ca0 Rh0 3.018795 1_556
Ca0 Rh0 3.018795 1_555
Ca1 Rh2 2.995876 1_555
Ca1 Rh2 2.995876 1_556
Ca1 Os0 3.034241 1_655
Ca1 Os0 3.034241 1_565
Ca1 Rh0 3.325739 1_566
Ca1 Rh0 3.325739 1_655
Ca1 Rh1 3.379070 1_655
Ca1 Rh1 3.379070 1_566
B0 Rh0 2.072393 1_556
B0 Os0 2.082404 1_655
B0 Rh1 2.082984 1_655
B0 Rh2 2.151867 1_546
B0 Ca0 2.989103 1_555
B0 Ca1 3.035532 1_555
B0 Ca1 3.127733 1_545
B1 Os0 2.042139 1_554
B1 Rh2 2.051135 1_455
B1 Rh1 2.156949 1_555
B1 Rh0 2.176081 1_555
B1 Ca1 2.914801 1_454
B1 Ca0 3.032846 1_455
B1 Ca0 3.098106 1_554
B2 Rh0 2.072393 1_555
B2 Os0 2.082404 1_564
B2 Rh1 2.082984 1_565
B2 Rh2 2.151867 1_455
B2 Ca0 2.989103 1_555
B2 Ca1 3.035532 1_554
B2 Ca1 3.127734 1_455
B3 Os0 2.042139 1_555
B3 Rh2 2.051135 1_545
B3 Rh1 2.156949 1_555
B3 Rh0 2.176081 1_555
B3 Ca1 2.914801 1_545
B3 Ca0 3.032845 1_545
B3 Ca0 3.098106 1_555
