# generated using pymatgen
data_Rb8Hf6BeI20
_symmetry_space_group_name_H-M   'P 1'
_cell_length_a   12.68046237
_cell_length_b   12.68046248
_cell_length_c   12.68046192
_cell_angle_alpha   59.99999901
_cell_angle_beta   59.99999872
_cell_angle_gamma   59.99999518
_symmetry_Int_Tables_number   1
_chemical_formula_structural   Rb8Hf6BeI20
_chemical_formula_sum   'Rb8 Hf6 Be1 I20'
_cell_volume   1441.75091672
_cell_formula_units_Z   1
loop_
 _symmetry_equiv_pos_site_id
 _symmetry_equiv_pos_as_xyz
  1  'x, y, z'
loop_
 _atom_site_type_symbol
 _atom_site_label
 _atom_site_symmetry_multiplicity
 _atom_site_fract_x
 _atom_site_fract_y
 _atom_site_fract_z
 _atom_site_occupancy
  Rb  Rb0  1  0.36117193  0.36117193  0.36117193  1
  Rb  Rb1  1  0.63882807  0.63882807  0.63882807  1
  Rb  Rb2  1  0.36117193  0.36117193  0.91648620  1
  Rb  Rb3  1  0.36117193  0.91648620  0.36117193  1
  Rb  Rb4  1  0.63882807  0.63882807  0.08351380  1
  Rb  Rb5  1  0.63882807  0.08351380  0.63882807  1
  Rb  Rb6  1  0.91648620  0.36117193  0.36117193  1
  Rb  Rb7  1  0.08351380  0.63882807  0.63882807  1
  Hf  Hf0  1  0.86727199  0.13272801  0.13272801  1
  Hf  Hf1  1  0.13272801  0.86727199  0.86727199  1
  Hf  Hf2  1  0.13272801  0.86727199  0.13272801  1
  Hf  Hf3  1  0.86727199  0.13272801  0.86727199  1
  Hf  Hf4  1  0.13272801  0.13272801  0.86727199  1
  Hf  Hf5  1  0.86727199  0.86727199  0.13272801  1
  Be  Be0  1  0.00000000  0.00000000  0.00000000  1
  I  I0  1  0.32091088  0.00000000  1.00000000  1
  I  I1  1  0.67908912  1.00000000  0.00000000  1
  I  I2  1  0.00000000  0.32091088  0.67908912  1
  I  I3  1  1.00000000  0.67908912  0.32091088  1
  I  I4  1  0.00000000  0.32091088  1.00000000  1
  I  I5  1  0.67908912  1.00000000  0.32091088  1
  I  I6  1  1.00000000  0.67908912  0.00000000  1
  I  I7  1  0.32091088  0.00000000  0.67908912  1
  I  I8  1  0.00000000  0.00000000  0.32091088  1
  I  I9  1  1.00000000  1.00000000  0.67908912  1
  I  I10  1  0.67908912  0.32091088  1.00000000  1
  I  I11  1  0.32091088  0.67908912  0.00000000  1
  I  I12  1  0.68911695  0.31088305  0.31088305  1
  I  I13  1  0.31088305  0.68911695  0.68911695  1
  I  I14  1  0.31088305  0.68911695  0.31088305  1
  I  I15  1  0.68911695  0.31088305  0.68911695  1
  I  I16  1  0.31088305  0.31088305  0.68911695  1
  I  I17  1  0.68911695  0.68911695  0.31088305  1
  I  I18  1  0.25000000  0.25000000  0.25000000  1
  I  I19  1  0.75000000  0.75000000  0.75000000  1
loop_
_geom_bond_atom_site_label_1
_geom_bond_atom_site_label_2
_geom_bond_distance
_geom_bond_site_symmetry_2
Hf0 I10 2.920074 1_554
Hf0 I8 2.920074 1_655
Hf0 I5 2.920075 1_545
Hf0 I4 2.920075 1_654
Hf0 I12 3.194833 1_555
Hf1 I11 2.920074 1_556
Hf1 I9 2.920074 1_455
Hf1 I7 2.920075 1_565
Hf1 I6 2.920075 1_456
Hf1 I13 3.194833 1_555
Hf2 I11 2.920074 1_555
Hf2 I8 2.920074 1_565
Hf2 I3 2.920075 1_455
Hf2 I0 2.920075 1_564
Hf2 I14 3.194833 1_555
Hf3 I10 2.920074 1_555
Hf3 I9 2.920074 1_545
Hf3 I2 2.920075 1_655
Hf3 I1 2.920075 1_546
Hf3 I15 3.194833 1_555
Hf4 I7 2.920074 1_555
Hf4 I2 2.920074 1_555
Hf4 I0 2.920074 1_555
Hf4 I4 2.920074 1_555
Hf4 I16 3.194833 1_555
Hf5 I5 2.920074 1_555
Hf5 I3 2.920074 1_555
Hf5 I1 2.920074 1_555
Hf5 I6 2.920074 1_555
Hf5 I17 3.194833 1_555
Be0 Hf0 2.380196 1_455
Be0 Hf1 2.380196 1_544
Be0 Hf2 2.380196 1_545
Be0 Hf3 2.380196 1_454
Be0 Hf4 2.380196 1_554
Be0 Hf5 2.380196 1_445
I12 Rb0 3.634471 1_555
I12 Rb5 3.634478 1_555
I12 Rb4 3.634479 1_555
I12 Rb6 3.634495 1_555
I13 Rb1 3.634471 1_555
I13 Rb3 3.634478 1_555
I13 Rb2 3.634479 1_555
I13 Rb7 3.634495 1_555
I14 Rb0 3.634471 1_555
I14 Rb4 3.634478 1_555
I14 Rb7 3.634478 1_555
I14 Rb3 3.634495 1_555
I15 Rb1 3.634471 1_555
I15 Rb2 3.634478 1_555
I15 Rb6 3.634478 1_555
I15 Rb5 3.634495 1_555
I16 Rb0 3.634471 1_555
I16 Rb5 3.634478 1_555
I16 Rb7 3.634478 1_555
I16 Rb2 3.634495 1_555
I17 Rb1 3.634471 1_555
I17 Rb3 3.634478 1_555
I17 Rb6 3.634478 1_555
I17 Rb4 3.634495 1_555
I18 Rb6 3.453053 1_455
I18 Rb2 3.453053 1_554
I18 Rb3 3.453053 1_545
I18 Rb0 3.453074 1_555
I19 Rb7 3.453053 1_655
I19 Rb4 3.453053 1_556
I19 Rb5 3.453053 1_565
I19 Rb1 3.453074 1_555
