# generated using pymatgen
data_TaP2HO8
_symmetry_space_group_name_H-M   'P 1'
_cell_length_a   5.18054724
_cell_length_b   9.04402029
_cell_length_c   9.02642074
_cell_angle_alpha   62.25592027
_cell_angle_beta   90.00000000
_cell_angle_gamma   90.00000000
_symmetry_Int_Tables_number   1
_chemical_formula_structural   TaP2HO8
_chemical_formula_sum   'Ta2 P4 H2 O16'
_cell_volume   374.29458977
_cell_formula_units_Z   2
loop_
 _symmetry_equiv_pos_site_id
 _symmetry_equiv_pos_as_xyz
  1  'x, y, z'
loop_
 _atom_site_type_symbol
 _atom_site_label
 _atom_site_symmetry_multiplicity
 _atom_site_fract_x
 _atom_site_fract_y
 _atom_site_fract_z
 _atom_site_occupancy
  Ta  Ta0  1  0.00000000  0.00000000  0.00000000  1
  Ta  Ta1  1  0.50000000  0.00000000  0.50000000  1
  P  P0  1  0.50709349  0.20928534  0.07418917  1
  P  P1  1  0.49290651  0.79071466  0.92581083  1
  P  P2  1  0.00709349  0.79071466  0.42581083  1
  P  P3  1  0.99290651  0.20928534  0.57418917  1
  H  H0  1  0.00000000  0.50000000  0.50000000  1
  H  H1  1  0.50000000  0.50000000  0.00000000  1
  O  O0  1  0.76879827  0.14610678  0.04536956  1
  O  O1  1  0.23120173  0.85389322  0.95463044  1
  O  O2  1  0.26879827  0.85389322  0.45463044  1
  O  O3  1  0.73120173  0.14610678  0.54536956  1
  O  O4  1  0.46986439  0.39130897  0.96282130  1
  O  O5  1  0.53013561  0.60869103  0.03717870  1
  O  O6  1  0.96986439  0.60869103  0.53717870  1
  O  O7  1  0.03013561  0.39130897  0.46282130  1
  O  O8  1  0.29825293  0.10755581  0.04021757  1
  O  O9  1  0.70174707  0.89244419  0.95978243  1
  O  O10  1  0.79825293  0.89244419  0.45978243  1
  O  O11  1  0.20174707  0.10755581  0.54021757  1
  O  O12  1  0.00719551  0.16328053  0.76069598  1
  O  O13  1  0.99280449  0.83671947  0.23930402  1
  O  O14  1  0.50719551  0.83671947  0.73930402  1
  O  O15  1  0.49280449  0.16328053  0.26069598  1
loop_
_geom_bond_atom_site_label_1
_geom_bond_atom_site_label_2
_geom_bond_distance
_geom_bond_site_symmetry_2
H0 O6 1.187616 1_455
H0 O7 1.187616 1_555
H1 O5 1.187616 1_555
H1 O4 1.187616 1_554
O0 P0 1.539698 1_555
O0 Ta0 1.962709 1_655
O1 P1 1.539698 1_555
O1 Ta0 1.962709 1_566
O2 P2 1.539698 1_555
O2 Ta1 1.962709 1_565
O3 P3 1.539698 1_555
O3 Ta1 1.962709 1_555
O4 P0 1.488968 1_556
O5 P1 1.488968 1_554
O6 P2 1.488968 1_655
O7 P3 1.488968 1_455
O8 P0 1.540684 1_555
O8 Ta0 1.947858 1_555
O9 P1 1.540684 1_555
O9 Ta0 1.947858 1_666
O10 P2 1.540684 1_655
O10 Ta1 1.947858 1_565
O11 P3 1.540684 1_455
O11 Ta1 1.947858 1_555
O12 P3 1.536418 1_455
O12 Ta0 1.969285 1_556
O13 P2 1.536418 1_655
O13 Ta0 1.969285 1_665
O14 P1 1.536418 1_555
O14 Ta1 1.969285 1_565
O15 P0 1.536418 1_555
O15 Ta1 1.969285 1_555
