# generated using pymatgen
data_LiZr3(Si4Os3)2
_symmetry_space_group_name_H-M   'P 1'
_cell_length_a   9.90069697
_cell_length_b   9.90069761
_cell_length_c   13.27432092
_cell_angle_alpha   54.09435246
_cell_angle_beta   54.09435038
_cell_angle_gamma   31.08480498
_symmetry_Int_Tables_number   1
_chemical_formula_structural   LiZr3(Si4Os3)2
_chemical_formula_sum   'Li2 Zr6 Si16 Os12'
_cell_volume   533.01440016
_cell_formula_units_Z   2
loop_
 _symmetry_equiv_pos_site_id
 _symmetry_equiv_pos_as_xyz
  1  'x, y, z'
loop_
 _atom_site_type_symbol
 _atom_site_label
 _atom_site_symmetry_multiplicity
 _atom_site_fract_x
 _atom_site_fract_y
 _atom_site_fract_z
 _atom_site_occupancy
  Li  Li0  1  0.03773134  0.27165151  0.65256546  1
  Li  Li1  1  0.72834849  0.96226866  0.84743454  1
  Zr  Zr0  1  0.95971850  0.70537946  0.36520143  1
  Zr  Zr1  1  0.29462054  0.04028150  0.13479857  1
  Zr  Zr2  1  0.29375960  0.55338134  0.64747842  1
  Zr  Zr3  1  0.44661866  0.70624040  0.85252158  1
  Zr  Zr4  1  0.70986459  0.44591707  0.34846261  1
  Zr  Zr5  1  0.55408293  0.29013541  0.15153739  1
  Si  Si0  1  0.98436126  0.24977256  0.89024532  1
  Si  Si1  1  0.75022744  0.01563874  0.60975468  1
  Si  Si2  1  0.02225836  0.74844591  0.10689057  1
  Si  Si3  1  0.25155409  0.97774164  0.39310943  1
  Si  Si4  1  0.13667576  0.39088715  0.90153319  1
  Si  Si5  1  0.60911285  0.86332424  0.59846681  1
  Si  Si6  1  0.85365612  0.62289912  0.09277161  1
  Si  Si7  1  0.37710088  0.14634388  0.40722839  1
  Si  Si8  1  0.07473935  0.56502190  0.56832580  1
  Si  Si9  1  0.43497810  0.92526065  0.93167420  1
  Si  Si10  1  0.91870351  0.42404288  0.44102743  1
  Si  Si11  1  0.57595712  0.08129649  0.05897257  1
  Si  Si12  1  0.61945884  0.38054116  0.75000000  1
  Si  Si13  1  0.38327333  0.61672667  0.25000000  1
  Si  Si14  1  0.12326185  0.87673815  0.75000000  1
  Si  Si15  1  0.87893606  0.12106394  0.25000000  1
  Os  Os0  1  0.88794396  0.14475563  0.58472233  1
  Os  Os1  1  0.85524437  0.11205604  0.91527767  1
  Os  Os2  1  0.11088980  0.84972663  0.41643881  1
  Os  Os3  1  0.15027337  0.88911020  0.08356119  1
  Os  Os4  1  0.82746489  0.64963245  0.78442424  1
  Os  Os5  1  0.35036755  0.17253511  0.71557576  1
  Os  Os6  1  0.16416788  0.35552273  0.21762546  1
  Os  Os7  1  0.64447727  0.83583212  0.28237454  1
  Os  Os8  1  0.23956980  0.51434872  0.93249827  1
  Os  Os9  1  0.48565128  0.76043020  0.56750173  1
  Os  Os10  1  0.75027960  0.48533035  0.07263528  1
  Os  Os11  1  0.51466965  0.24972040  0.42736472  1
loop_
_geom_bond_atom_site_label_1
_geom_bond_atom_site_label_2
_geom_bond_distance
_geom_bond_site_symmetry_2
Li0 Si8 2.711817 1_555
Li0 Si14 2.712853 1_545
Li0 Si10 2.723383 1_455
Li0 Si12 2.773241 1_455
Li0 Si0 2.778393 1_455
Li0 Os5 2.848654 1_555
Li0 Si7 2.863451 1_555
Li0 Si5 2.886201 1_545
Li0 Si5 2.983520 1_455
Li0 Os9 2.990681 1_545
Li0 Os1 2.993173 1_455
Li1 Si9 2.711817 1_555
Li1 Si14 2.712852 1_655
Li1 Si11 2.723383 1_566
Li1 Si12 2.773242 1_565
Li1 Si1 2.778393 1_565
Li1 Os4 2.848654 1_555
Li1 Si6 2.863451 1_556
Li1 Si4 2.886201 1_655
Li1 Si4 2.983519 1_565
Li1 Os8 2.990681 1_655
Li1 Os0 2.993173 1_565
Si0 Si9 2.604461 1_645
Si0 Zr3 2.877681 1_555
Si0 Zr3 2.905862 1_645
Si1 Si8 2.604461 1_645
Si1 Zr2 2.877681 1_555
Si1 Zr2 2.905862 1_645
Si2 Zr5 2.872045 1_555
Si2 Zr5 2.919992 1_465
Si2 Zr0 2.927405 1_455
Si3 Zr4 2.872045 1_555
Si3 Zr4 2.919992 1_465
Si3 Zr1 2.927405 1_565
Si4 Si9 2.457084 1_545
Si4 Si6 2.654092 1_456
Si4 Zr1 2.803161 1_556
Si4 Zr2 2.854875 1_555
Si5 Si8 2.457083 1_655
Si5 Si7 2.654092 1_565
Si5 Zr0 2.803161 1_555
Si5 Zr3 2.854875 1_555
Si6 Zr1 2.815869 1_565
Si6 Zr4 2.871716 1_555
Si6 Zr1 2.931381 1_655
Si7 Zr0 2.815869 1_455
Si7 Zr5 2.871716 1_555
Si7 Zr0 2.931381 1_545
Si8 Zr0 2.644677 1_455
Si8 Zr2 2.814549 1_555
Si9 Zr1 2.644677 1_566
Si9 Zr3 2.814549 1_555
Si10 Si7 2.458477 1_655
Si10 Si3 2.585777 1_645
Si10 Zr0 2.665742 1_555
Si10 Zr4 2.780764 1_555
Si11 Si6 2.458477 1_545
Si11 Si2 2.585777 1_645
Si11 Zr1 2.665741 1_555
Si11 Zr5 2.780765 1_555
Si12 Si14 2.632728 1_555
Si12 Si14 2.673084 1_645
Si12 Zr2 2.853588 1_555
Si12 Zr3 2.853588 1_555
Si13 Si15 2.629893 1_555
Si13 Si15 2.675919 1_465
Si13 Zr4 2.832318 1_555
Si13 Zr5 2.832318 1_555
Si13 Zr0 2.905620 1_455
Si13 Zr1 2.905620 1_565
Si14 Zr3 2.847849 1_555
Si14 Zr2 2.847849 1_555
Si15 Zr5 2.828033 1_555
Si15 Zr4 2.828033 1_555
Si15 Zr1 2.886327 1_655
Si15 Zr0 2.886327 1_545
Os0 Si1 2.357860 1_555
Os0 Si14 2.420874 1_645
Os0 Si12 2.422243 1_555
Os0 Si10 2.439630 1_555
Os0 Si3 2.482120 1_645
Os0 Zr4 2.889272 1_555
Os0 Zr2 3.005021 1_645
Os0 Zr2 3.018154 1_555
Os1 Si0 2.357860 1_555
Os1 Si14 2.420874 1_645
Os1 Si12 2.422243 1_555
Os1 Si11 2.439630 1_556
Os1 Si2 2.482120 1_646
Os1 Zr5 2.889272 1_556
Os1 Zr3 3.005020 1_645
Os1 Zr3 3.018155 1_555
Os2 Si3 2.387246 1_555
Os2 Si15 2.407215 1_465
Os2 Si13 2.410298 1_555
Os2 Si1 2.486758 1_465
Os2 Si8 2.520796 1_555
Os2 Zr2 2.855223 1_555
Os2 Zr4 3.038678 1_465
Os2 Zr4 3.051548 1_555
Os3 Si2 2.387246 1_555
Os3 Si15 2.407215 1_465
Os3 Si13 2.410298 1_555
Os3 Si0 2.486759 1_464
Os3 Si9 2.520796 1_554
Os3 Zr3 2.855222 1_554
Os3 Zr5 3.038677 1_465
Os3 Zr5 3.051548 1_555
Os4 Si9 2.356308 1_555
Os4 Si0 2.358501 1_555
Os4 Si4 2.414453 1_655
Os4 Si8 2.448006 1_655
Os4 Si1 2.563326 1_565
Os4 Si5 2.746372 1_555
Os4 Zr3 2.885438 1_555
Os5 Si8 2.356308 1_555
Os5 Si1 2.358500 1_555
Os5 Si5 2.414453 1_545
Os5 Si9 2.448007 1_545
Os5 Si0 2.563326 1_455
Os5 Si4 2.746372 1_555
Os5 Zr2 2.885438 1_555
Os6 Si2 2.371069 1_555
Os6 Si6 2.469136 1_455
Os6 Si11 2.470820 1_555
Os6 Si10 2.498665 1_455
Os6 Si3 2.601250 1_545
Os6 Si7 2.774805 1_555
Os6 Zr1 2.841315 1_555
Os6 Zr5 2.916324 1_555
Os6 Zr4 3.132774 1_455
Os7 Si3 2.371069 1_555
Os7 Si7 2.469136 1_565
Os7 Si10 2.470820 1_555
Os7 Si11 2.498665 1_565
Os7 Si2 2.601250 1_655
Os7 Si6 2.774805 1_555
Os7 Zr0 2.841315 1_555
Os7 Zr4 2.916325 1_555
Os7 Zr5 3.132774 1_565
Os8 Si4 2.431915 1_555
Os8 Si11 2.439445 1_556
Os8 Si14 2.463423 1_555
Os8 Si12 2.512549 1_555
Os8 Si6 2.528660 1_456
Os8 Si2 2.696282 1_556
Os9 Si5 2.431915 1_555
Os9 Si10 2.439445 1_555
Os9 Si14 2.463423 1_555
Os9 Si12 2.512549 1_555
Os9 Si7 2.528660 1_565
Os9 Si3 2.696282 1_555
Os10 Si15 2.421219 1_555
Os10 Si13 2.429101 1_555
Os10 Si6 2.471785 1_555
Os10 Si9 2.494126 1_554
Os10 Si4 2.615502 1_654
Os10 Si0 2.730518 1_554
Os10 Zr1 3.068998 1_655
Os10 Zr5 3.205389 1_555
Os11 Si15 2.421219 1_555
Os11 Si13 2.429101 1_555
Os11 Si7 2.471785 1_555
Os11 Si8 2.494125 1_555
Os11 Si5 2.615502 1_545
Os11 Si1 2.730518 1_555
Os11 Zr0 3.068998 1_545
Os11 Zr4 3.205389 1_555
