# generated using pymatgen
data_Ta2Ti2Pb4O13
_symmetry_space_group_name_H-M   'P 1'
_cell_length_a   7.39274745
_cell_length_b   7.39274756
_cell_length_c   7.39274776
_cell_angle_alpha   120.36093041
_cell_angle_beta   119.66889916
_cell_angle_gamma   89.97521403
_symmetry_Int_Tables_number   1
_chemical_formula_structural   Ta2Ti2Pb4O13
_chemical_formula_sum   'Ta2 Ti2 Pb4 O13'
_cell_volume   285.61753488
_cell_formula_units_Z   1
loop_
 _symmetry_equiv_pos_site_id
 _symmetry_equiv_pos_as_xyz
  1  'x, y, z'
loop_
 _atom_site_type_symbol
 _atom_site_label
 _atom_site_symmetry_multiplicity
 _atom_site_fract_x
 _atom_site_fract_y
 _atom_site_fract_z
 _atom_site_occupancy
  Ta  Ta0  1  0.62528607  0.37526895  0.25001713  1
  Ta  Ta1  1  0.12525082  0.37526895  0.74998287  1
  Ti  Ti0  1  0.62603224  0.87763215  0.25159991  1
  Ti  Ti1  1  0.62603224  0.37443233  0.74840009  1
  Pb  Pb0  1  0.12625963  0.37950244  0.25324381  1
  Pb  Pb1  1  0.12625963  0.87301582  0.74675619  1
  Pb  Pb2  1  0.12567762  0.87285111  0.25282852  1
  Pb  Pb3  1  0.62002259  0.87285111  0.74717148  1
  O  O0  1  0.55959074  0.44128268  0.50104831  1
  O  O1  1  0.94023337  0.44128268  0.88169193  1
  O  O2  1  0.94286312  0.44286312  0.50000000  1
  O  O3  1  0.94023337  0.05854244  0.49895169  1
  O  O4  1  0.55959074  0.05854244  0.11830807  1
  O  O5  1  0.56242268  0.06242268  0.50000000  1
  O  O6  1  0.00045869  0.00045869  0.00000000  1
  O  O7  1  0.30541871  0.69510906  0.00118877  1
  O  O8  1  0.69392029  0.69510906  0.38968935  1
  O  O9  1  0.69213213  0.69213213  1.00000000  1
  O  O10  1  0.69392029  0.30423094  0.99881123  1
  O  O11  1  0.30541871  0.30423094  0.61031065  1
  O  O12  1  0.30326130  0.30326130  0.00000000  1
loop_
_geom_bond_atom_site_label_1
_geom_bond_atom_site_label_2
_geom_bond_distance
_geom_bond_site_symmetry_2
O0 Ti1 1.963028 1_555
O0 Ta0 1.973474 1_555
O0 Pb3 2.649061 1_555
O0 Pb0 2.678195 1_555
O1 Ti1 1.963021 1_555
O1 Ta1 1.973474 1_655
O1 Pb2 2.649061 1_656
O1 Pb0 2.678201 1_656
O2 Ta1 1.987257 1_655
O2 Ta0 1.987259 1_555
O2 Pb0 2.639977 1_655
O2 Pb1 2.639978 1_655
O3 Ti0 1.963023 1_545
O3 Ta1 1.973474 1_655
O3 Pb2 2.649055 1_645
O3 Pb1 2.678197 1_645
O4 Ti0 1.963028 1_545
O4 Ta0 1.973474 1_555
O4 Pb3 2.649061 1_544
O4 Pb1 2.678196 1_544
O5 Ti1 1.943695 1_555
O5 Ti0 1.943695 1_545
O5 Pb3 2.702270 1_545
O5 Pb2 2.702283 1_545
O6 Pb0 2.279784 1_555
O6 Pb1 2.279790 1_544
O6 Pb3 2.304174 1_444
O6 Pb2 2.304174 1_545
O7 Ta1 1.982114 1_554
O7 Ti0 1.999874 1_555
O7 Pb2 2.632031 1_555
O7 Pb1 2.656132 1_554
O8 Ta0 1.982114 1_555
O8 Ti0 1.999869 1_555
O8 Pb3 2.632024 1_555
O8 Pb1 2.656133 1_655
O9 Ti1 1.974781 1_555
O9 Ti0 1.974781 1_556
O9 Pb2 2.664558 1_656
O9 Pb3 2.664571 1_555
O10 Ta0 1.982114 1_556
O10 Ti1 1.999869 1_555
O10 Pb3 2.632024 1_545
O10 Pb0 2.656134 1_656
O11 Ta1 1.982114 1_555
O11 Ti1 1.999876 1_555
O11 Pb2 2.632024 1_545
O11 Pb0 2.656128 1_555
O12 Ta0 2.004375 1_555
O12 Ta1 2.004376 1_554
O12 Pb1 2.625417 1_544
O12 Pb0 2.625418 1_555
