# generated using pymatgen
data_Rb4Zr6FeI18
_symmetry_space_group_name_H-M   'P 1'
_cell_length_a   11.24798852
_cell_length_b   11.48234949
_cell_length_c   11.60940614
_cell_angle_alpha   118.51108845
_cell_angle_beta   100.34154693
_cell_angle_gamma   103.97776095
_symmetry_Int_Tables_number   1
_chemical_formula_structural   Rb4Zr6FeI18
_chemical_formula_sum   'Rb4 Zr6 Fe1 I18'
_cell_volume   1199.69489122
_cell_formula_units_Z   1
loop_
 _symmetry_equiv_pos_site_id
 _symmetry_equiv_pos_as_xyz
  1  'x, y, z'
loop_
 _atom_site_type_symbol
 _atom_site_label
 _atom_site_symmetry_multiplicity
 _atom_site_fract_x
 _atom_site_fract_y
 _atom_site_fract_z
 _atom_site_occupancy
  Rb  Rb0  1  0.65433931  0.53873819  0.22881448  1
  Rb  Rb1  1  0.34566069  0.46126181  0.77118552  1
  Rb  Rb2  1  0.69200104  0.22746135  0.56717095  1
  Rb  Rb3  1  0.30799896  0.77253865  0.43282905  1
  Zr  Zr0  1  0.14755512  0.05475852  0.22308999  1
  Zr  Zr1  1  0.85244488  0.94524148  0.77691001  1
  Zr  Zr2  1  0.86566905  0.12191827  0.12868325  1
  Zr  Zr3  1  0.13433095  0.87808173  0.87131675  1
  Zr  Zr4  1  0.14163097  0.23235264  0.04438372  1
  Zr  Zr5  1  0.85836903  0.76764736  0.95561628  1
  Fe  Fe0  1  0.00000000  0.00000000  0.00000000  1
  I  I0  1  0.00753651  0.41052785  0.19758569  1
  I  I1  1  0.99246349  0.58947215  0.80241431  1
  I  I2  1  0.33232574  0.33596299  0.31286257  1
  I  I3  1  0.66767426  0.66403701  0.68713743  1
  I  I4  1  0.31940351  0.52235882  0.09873474  1
  I  I5  1  0.68059649  0.47764118  0.90126526  1
  I  I6  1  0.00516104  0.79532975  0.20954905  1
  I  I7  1  0.99483896  0.20467025  0.79045095  1
  I  I8  1  0.70161329  0.27214844  0.28584644  1
  I  I9  1  0.29838671  0.72785156  0.71415356  1
  I  I10  1  0.31857061  0.12906065  0.90363225  1
  I  I11  1  0.68142939  0.87093935  0.09636775  1
  I  I12  1  0.01648504  0.20545712  0.40942115  1
  I  I13  1  0.98351496  0.79454288  0.59057885  1
  I  I14  1  0.32306992  0.92261001  0.10989397  1
  I  I15  1  0.67693008  0.07738999  0.89010603  1
  I  I16  1  0.33516304  0.12143555  0.50056174  1
  I  I17  1  0.66483696  0.87856445  0.49943826  1
loop_
_geom_bond_atom_site_label_1
_geom_bond_atom_site_label_2
_geom_bond_distance
_geom_bond_site_symmetry_2
Fe0 Zr0 2.501139 1_555
Fe0 Zr1 2.501139 1_444
Fe0 Zr4 2.502199 1_555
Fe0 Zr5 2.502199 1_444
Fe0 Zr2 2.512027 1_455
Fe0 Zr3 2.512027 1_544
I0 Zr4 2.933255 1_555
I0 Zr2 2.936779 1_455
I0 Rb3 3.901402 1_555
I1 Zr5 2.933255 1_555
I1 Zr3 2.936779 1_655
I1 Rb2 3.901402 1_555
I2 Zr4 2.925406 1_555
I2 Zr0 2.932433 1_555
I3 Zr5 2.925406 1_555
I3 Zr1 2.932433 1_555
I4 Zr4 3.132016 1_555
I4 Rb1 3.605012 1_554
I4 Rb3 3.610026 1_555
I4 Rb0 3.721938 1_555
I5 Zr5 3.132016 1_555
I5 Rb0 3.605012 1_556
I5 Rb2 3.610026 1_555
I5 Rb1 3.721938 1_555
I6 Zr0 2.936195 1_565
I6 Zr5 2.936373 1_454
I6 Rb3 4.037179 1_555
I7 Zr1 2.936195 1_545
I7 Zr4 2.936373 1_656
I7 Rb2 4.037179 1_555
I8 Zr2 3.074358 1_555
I8 Rb2 3.555506 1_555
I8 Rb0 3.561755 1_555
I9 Zr3 3.074358 1_555
I9 Rb3 3.555506 1_555
I9 Rb1 3.561755 1_555
I10 Zr4 2.914702 1_556
I10 Zr3 2.922993 1_545
I11 Zr5 2.914702 1_554
I11 Zr2 2.922993 1_565
I12 Zr0 2.941269 1_555
I12 Zr2 2.943558 1_455
I12 Rb1 4.166747 1_555
I13 Zr1 2.941269 1_555
I13 Zr3 2.943558 1_655
I13 Rb0 4.166747 1_555
I14 Zr0 2.898582 1_565
I14 Zr3 2.907291 1_554
I15 Zr1 2.898582 1_545
I15 Zr2 2.907291 1_556
I16 Zr0 3.136936 1_555
I16 Rb1 3.612647 1_555
I16 Rb3 3.616080 1_545
I16 Rb2 3.717030 1_555
I17 Zr1 3.136936 1_555
I17 Rb0 3.612647 1_555
I17 Rb2 3.616080 1_565
I17 Rb3 3.717030 1_555
