# generated using pymatgen
data_Rb6Sc(AlSb2)3
_symmetry_space_group_name_H-M   'P 1'
_cell_length_a   6.47776263
_cell_length_b   8.38921168
_cell_length_c   11.58718958
_cell_angle_alpha   70.19041579
_cell_angle_beta   89.93817513
_cell_angle_gamma   89.48841697
_symmetry_Int_Tables_number   1
_chemical_formula_structural   Rb6Sc(AlSb2)3
_chemical_formula_sum   'Rb6 Sc1 Al3 Sb6'
_cell_volume   592.39922820
_cell_formula_units_Z   1
loop_
 _symmetry_equiv_pos_site_id
 _symmetry_equiv_pos_as_xyz
  1  'x, y, z'
loop_
 _atom_site_type_symbol
 _atom_site_label
 _atom_site_symmetry_multiplicity
 _atom_site_fract_x
 _atom_site_fract_y
 _atom_site_fract_z
 _atom_site_occupancy
  Rb  Rb0  1  0.25452843  0.44685210  0.41661118  1
  Rb  Rb1  1  0.73966898  0.13137423  0.93396033  1
  Rb  Rb2  1  0.74964373  0.47160882  0.14495151  1
  Rb  Rb3  1  0.25718460  0.53383785  0.84937317  1
  Rb  Rb4  1  0.75816017  0.55290035  0.58760251  1
  Rb  Rb5  1  0.24363448  0.86043141  0.06530254  1
  Sc  Sc0  1  0.99906501  0.01743618  0.34438806  1
  Al  Al0  1  0.50034967  0.98185196  0.66098885  1
  Al  Al1  1  0.50023850  0.02344167  0.34306877  1
  Al  Al2  1  0.00123794  0.97987407  0.65250803  1
  Sb  Sb0  1  0.26393940  0.81329595  0.53706883  1
  Sb  Sb1  1  0.74179156  0.18814711  0.47038066  1
  Sb  Sb2  1  0.25967872  0.24615619  0.17143227  1
  Sb  Sb3  1  0.75778767  0.76268368  0.82179794  1
  Sb  Sb4  1  0.24079721  0.16960210  0.74170662  1
  Sb  Sb5  1  0.73229392  0.82050734  0.25885775  1
loop_
_geom_bond_atom_site_label_1
_geom_bond_atom_site_label_2
_geom_bond_distance
_geom_bond_site_symmetry_2
Rb0 Sb4 3.697578 1_555
Rb0 Sb1 3.745213 1_555
Rb0 Sb2 3.761332 1_555
Rb0 Sb0 3.783417 1_555
Rb0 Sb1 3.916361 1_455
Rb1 Sb3 3.739979 1_545
Rb1 Sb5 3.784638 1_546
Rb1 Sb4 3.875729 1_555
Rb1 Sb4 3.888690 1_655
Rb2 Sb5 3.596403 1_555
Rb2 Sb2 3.668333 1_555
Rb2 Sb3 3.713615 1_554
Rb2 Sb1 3.714906 1_555
Rb2 Sb2 3.752910 1_655
Rb3 Sb0 3.583949 1_555
Rb3 Sb4 3.673490 1_555
Rb3 Sb2 3.694041 1_556
Rb3 Sb3 3.705196 1_455
Rb3 Sb3 3.741216 1_555
Rb4 Sb3 3.701111 1_555
Rb4 Sb5 3.711701 1_555
Rb4 Sb1 3.747386 1_555
Rb4 Sb0 3.791621 1_555
Rb4 Sb0 3.886632 1_655
Rb5 Sb4 3.767556 1_564
Rb5 Sb5 3.827439 1_555
Rb5 Sb2 3.833765 1_565
Rb5 Sb5 3.950748 1_455
Al0 Sb4 2.670258 1_565
Al0 Sb3 2.695073 1_555
Al0 Sb1 2.787359 1_565
Al0 Sb0 2.797523 1_555
Al1 Sb5 2.680893 1_545
Al1 Sb2 2.703808 1_555
Al1 Sb0 2.803363 1_545
Al1 Sb1 2.821156 1_555
Al2 Sb4 2.678126 1_565
Al2 Sb3 2.697560 1_455
Al2 Sb1 2.790511 1_465
Al2 Sb0 2.803131 1_555
Sb0 Sc0 2.868052 1_465
Sb1 Sc0 2.885991 1_555
Sb2 Sc0 2.827049 1_455
Sb5 Sc0 2.803968 1_565
