# generated using pymatgen
data_Sr2LiHC3
_symmetry_space_group_name_H-M   'P 1'
_cell_length_a   7.17454686
_cell_length_b   7.17454686
_cell_length_c   3.96948599
_cell_angle_alpha   90.00000000
_cell_angle_beta   90.00000000
_cell_angle_gamma   90.00000000
_symmetry_Int_Tables_number   1
_chemical_formula_structural   Sr2LiHC3
_chemical_formula_sum   'Sr4 Li2 H2 C6'
_cell_volume   204.32580844
_cell_formula_units_Z   2
loop_
 _symmetry_equiv_pos_site_id
 _symmetry_equiv_pos_as_xyz
  1  'x, y, z'
loop_
 _atom_site_type_symbol
 _atom_site_label
 _atom_site_symmetry_multiplicity
 _atom_site_fract_x
 _atom_site_fract_y
 _atom_site_fract_z
 _atom_site_occupancy
  Sr  Sr0  1  0.68189704  0.18189704  0.50000000  1
  Sr  Sr1  1  0.31810296  0.81810296  0.50000000  1
  Sr  Sr2  1  0.18189704  0.31810296  0.50000000  1
  Sr  Sr3  1  0.81810296  0.68189704  0.50000000  1
  Li  Li0  1  0.50000000  0.50000000  0.00000000  1
  Li  Li1  1  0.00000000  0.00000000  0.00000000  1
  H  H0  1  0.50000000  0.50000000  0.50000000  1
  H  H1  1  0.00000000  0.00000000  0.50000000  1
  C  C0  1  0.13086609  0.63086609  0.00000000  1
  C  C1  1  0.86913391  0.36913391  0.00000000  1
  C  C2  1  0.63086609  0.86913391  0.00000000  1
  C  C3  1  0.36913391  0.13086609  0.00000000  1
  C  C4  1  0.50000000  0.00000000  0.00000000  1
  C  C5  1  0.00000000  0.50000000  0.00000000  1
loop_
_geom_bond_atom_site_label_1
_geom_bond_atom_site_label_2
_geom_bond_distance
_geom_bond_site_symmetry_2
H0 Li0 1.984743 1_555
H0 Li0 1.984743 1_556
H0 Sr3 2.629019 1_555
H0 Sr1 2.629019 1_555
H0 Sr0 2.629019 1_555
H0 Sr2 2.629019 1_555
H1 Li1 1.984743 1_555
H1 Li1 1.984743 1_556
H1 Sr2 2.629019 1_555
H1 Sr1 2.629019 1_545
H1 Sr0 2.629019 1_455
H1 Sr3 2.629019 1_445
C0 C5 1.327812 1_555
C0 Sr1 2.747422 1_554
C0 Sr1 2.747422 1_555
C1 C5 1.327812 1_655
C1 Sr0 2.747422 1_555
C1 Sr0 2.747422 1_554
C2 C4 1.327812 1_565
C2 Sr3 2.747422 1_554
C2 Sr3 2.747422 1_555
C3 C4 1.327812 1_555
C3 Sr2 2.747422 1_554
C3 Sr2 2.747422 1_555
C4 Sr0 2.710241 1_555
C4 Sr0 2.710241 1_554
C4 Sr1 2.710241 1_544
C4 Sr1 2.710241 1_545
C5 Sr2 2.710241 1_555
C5 Sr2 2.710241 1_554
C5 Sr3 2.710241 1_455
C5 Sr3 2.710241 1_454
