# generated using pymatgen
data_Rb2BaCdBi2
_symmetry_space_group_name_H-M   'P 1'
_cell_length_a   5.25541124
_cell_length_b   8.80133185
_cell_length_c   10.44647314
_cell_angle_alpha   90.00000000
_cell_angle_beta   90.00000000
_cell_angle_gamma   90.00000000
_symmetry_Int_Tables_number   1
_chemical_formula_structural   Rb2BaCdBi2
_chemical_formula_sum   'Rb4 Ba2 Cd2 Bi4'
_cell_volume   483.19762762
_cell_formula_units_Z   2
loop_
 _symmetry_equiv_pos_site_id
 _symmetry_equiv_pos_as_xyz
  1  'x, y, z'
loop_
 _atom_site_type_symbol
 _atom_site_label
 _atom_site_symmetry_multiplicity
 _atom_site_fract_x
 _atom_site_fract_y
 _atom_site_fract_z
 _atom_site_occupancy
  Rb  Rb0  1  0.50000000  0.01874834  0.41768913  1
  Rb  Rb1  1  0.00000000  0.34201784  0.34005053  1
  Rb  Rb2  1  0.50000000  0.51874834  0.58231087  1
  Rb  Rb3  1  0.00000000  0.84201784  0.65994947  1
  Ba  Ba0  1  0.00000000  0.99959568  0.04337944  1
  Ba  Ba1  1  0.00000000  0.49959568  0.95662056  1
  Cd  Cd0  1  0.50000000  0.15453254  0.82832526  1
  Cd  Cd1  1  0.50000000  0.65453254  0.17167474  1
  Bi  Bi0  1  0.00000000  0.24324322  0.68991895  1
  Bi  Bi1  1  0.50000000  0.28746439  0.10859422  1
  Bi  Bi2  1  0.00000000  0.74324322  0.31008105  1
  Bi  Bi3  1  0.50000000  0.78746439  0.89140578  1
loop_
_geom_bond_atom_site_label_1
_geom_bond_atom_site_label_2
_geom_bond_distance
_geom_bond_site_symmetry_2
Rb0 Rb1 3.956996 1_655
Rb0 Rb1 3.956996 1_555
Rb0 Rb3 3.965991 1_545
Rb0 Rb3 3.965991 1_645
Rb1 Rb2 3.965991 1_555
Rb1 Rb2 3.965991 1_455
Rb2 Rb3 3.956996 1_655
Rb2 Rb3 3.956996 1_555
Ba0 Bi2 3.585099 1_555
Ba0 Bi3 3.593203 1_454
Ba0 Bi3 3.593203 1_554
Ba0 Bi1 3.713250 1_565
Ba0 Bi1 3.713250 1_465
Ba0 Cd0 3.716369 1_564
Ba0 Cd0 3.716369 1_464
Ba0 Rb3 4.238801 1_554
Ba0 Rb1 4.322921 1_565
Ba1 Bi0 3.585099 1_555
Ba1 Bi1 3.593203 1_556
Ba1 Bi1 3.593203 1_456
Ba1 Bi3 3.713250 1_455
Ba1 Bi3 3.713250 1_555
Ba1 Cd1 3.716369 1_456
Ba1 Cd1 3.716369 1_556
Ba1 Rb1 4.238801 1_556
Ba1 Rb3 4.322921 1_555
Cd0 Rb3 4.190965 1_645
Cd0 Rb3 4.190965 1_545
Cd1 Rb1 4.190965 1_555
Cd1 Rb1 4.190965 1_655
Bi0 Cd0 3.099185 1_455
Bi0 Cd0 3.099185 1_555
Bi0 Rb3 3.545169 1_545
Bi0 Rb2 3.748094 1_555
Bi0 Rb2 3.748094 1_455
Bi0 Rb1 3.756860 1_555
Bi1 Cd0 3.152933 1_554
Bi1 Cd1 3.297209 1_555
Bi1 Rb1 3.603002 1_655
Bi1 Rb1 3.603002 1_555
Bi1 Rb0 4.002453 1_555
Bi2 Cd1 3.099185 1_455
Bi2 Cd1 3.099185 1_555
Bi2 Rb1 3.545169 1_555
Bi2 Rb0 3.748094 1_565
Bi2 Rb0 3.748094 1_465
Bi2 Rb3 3.756860 1_555
Bi3 Cd1 3.152933 1_556
Bi3 Cd0 3.297209 1_565
Bi3 Rb3 3.603002 1_555
Bi3 Rb3 3.603002 1_655
Bi3 Rb2 4.002453 1_555
