# generated using pymatgen
data_Na8HfSb4
_symmetry_space_group_name_H-M   'P 1'
_cell_length_a   10.41343733
_cell_length_b   10.41343830
_cell_length_c   10.41343496
_cell_angle_alpha   59.98751146
_cell_angle_beta   59.98750681
_cell_angle_gamma   59.98750702
_symmetry_Int_Tables_number   1
_chemical_formula_structural   Na8HfSb4
_chemical_formula_sum   'Na16 Hf2 Sb8'
_cell_volume   798.25976703
_cell_formula_units_Z   2
loop_
 _symmetry_equiv_pos_site_id
 _symmetry_equiv_pos_as_xyz
  1  'x, y, z'
loop_
 _atom_site_type_symbol
 _atom_site_label
 _atom_site_symmetry_multiplicity
 _atom_site_fract_x
 _atom_site_fract_y
 _atom_site_fract_z
 _atom_site_occupancy
  Na  Na0  1  0.62500000  0.12500000  0.62500000  1
  Na  Na1  1  0.62500000  0.62500000  0.12500000  1
  Na  Na2  1  0.12500000  0.62500000  0.62500000  1
  Na  Na3  1  0.62500000  0.62500000  0.62500000  1
  Na  Na4  1  0.02519648  0.02519648  0.47483599  1
  Na  Na5  1  0.77516401  0.22480352  0.22480352  1
  Na  Na6  1  0.22483794  0.77519114  0.77519114  1
  Na  Na7  1  0.77519114  0.77519114  0.22483794  1
  Na  Na8  1  0.77519114  0.22483794  0.77519114  1
  Na  Na9  1  0.22480352  0.77516401  0.22480352  1
  Na  Na10  1  0.47480886  0.02516206  0.47480886  1
  Na  Na11  1  0.47483599  0.02519648  0.02519648  1
  Na  Na12  1  0.02516206  0.47480886  0.47480886  1
  Na  Na13  1  0.02519648  0.47483599  0.02519648  1
  Na  Na14  1  0.22480352  0.22480352  0.77516401  1
  Na  Na15  1  0.47480886  0.47480886  0.02516206  1
  Hf  Hf0  1  0.49999472  0.49999472  0.49999472  1
  Hf  Hf1  1  0.75000528  0.75000528  0.75000528  1
  Sb  Sb0  1  0.42183327  0.85940036  0.85940036  1
  Sb  Sb1  1  0.85939118  0.85939118  0.85939118  1
  Sb  Sb2  1  0.82816673  0.39059964  0.39059964  1
  Sb  Sb3  1  0.39060882  0.39060882  0.39060882  1
  Sb  Sb4  1  0.39059964  0.39059964  0.82816673  1
  Sb  Sb5  1  0.85940036  0.42183327  0.85940036  1
  Sb  Sb6  1  0.85940036  0.85940036  0.42183327  1
  Sb  Sb7  1  0.39059964  0.82816673  0.39059964  1
loop_
_geom_bond_atom_site_label_1
_geom_bond_atom_site_label_2
_geom_bond_distance
_geom_bond_site_symmetry_2
Na0 Na11 3.415636 1_556
Na0 Na5 3.415636 1_555
Na0 Na4 3.415637 1_655
Na0 Na14 3.415637 1_555
Na0 Na8 3.416641 1_555
Na0 Na10 3.416641 1_555
Na0 Sb4 3.466663 1_555
Na0 Sb6 3.466663 1_545
Na0 Sb2 3.466663 1_555
Na0 Sb0 3.466663 1_545
Na0 Sb1 3.466700 1_545
Na0 Sb3 3.466700 1_555
Na1 Na13 3.415637 1_655
Na1 Na9 3.415637 1_555
Na1 Na11 3.415637 1_565
Na1 Na5 3.415637 1_555
Na1 Na7 3.416641 1_555
Na1 Na15 3.416641 1_555
Na1 Sb7 3.466662 1_555
Na1 Sb5 3.466662 1_554
Na1 Sb2 3.466663 1_555
Na1 Sb0 3.466663 1_554
Na1 Sb1 3.466701 1_554
Na1 Sb3 3.466701 1_555
Na2 Na9 3.415636 1_555
Na2 Na4 3.415637 1_565
Na2 Na6 3.416641 1_555
Na2 Sb4 3.466663 1_555
Na2 Sb6 3.466663 1_455
Na2 Sb7 3.466663 1_555
Na2 Sb5 3.466663 1_455
Na2 Sb1 3.466700 1_455
Na2 Sb3 3.466700 1_555
Na3 Na7 3.415279 1_555
Na3 Na6 3.415279 1_555
Na3 Na8 3.415280 1_555
Na3 Sb0 3.467023 1_555
Na3 Sb2 3.467023 1_555
Na3 Sb5 3.467023 1_555
Na3 Sb7 3.467023 1_555
Na3 Sb6 3.467024 1_555
Na3 Sb4 3.467024 1_555
Na4 Sb7 3.179510 1_545
Na4 Sb2 3.179510 1_455
Na4 Sb1 3.338745 1_445
Na4 Sb6 3.339884 1_445
Na5 Sb5 3.179510 1_554
Na5 Sb6 3.179510 1_545
Na5 Sb3 3.338746 1_555
Na5 Sb2 3.339884 1_555
Na6 Sb1 3.180081 1_455
Na6 Sb0 3.180339 1_555
Na6 Sb7 3.339164 1_555
Na6 Sb4 3.339165 1_555
Na7 Sb1 3.180080 1_554
Na7 Sb6 3.180339 1_555
Na7 Sb7 3.339165 1_555
Na7 Sb2 3.339165 1_555
Na8 Sb1 3.180082 1_545
Na8 Sb5 3.180339 1_555
Na8 Sb2 3.339164 1_555
Na8 Sb4 3.339165 1_555
Na9 Sb0 3.179509 1_554
Na9 Sb6 3.179510 1_455
Na9 Sb3 3.338746 1_555
Na9 Sb7 3.339884 1_555
Na10 Sb3 3.180082 1_555
Na10 Sb7 3.180339 1_545
Na10 Sb0 3.339164 1_545
Na10 Sb6 3.339165 1_545
Na10 Na3 3.415280 1_545
Na11 Sb7 3.179510 1_545
Na11 Sb4 3.179510 1_554
Na11 Sb1 3.338746 1_544
Na11 Sb0 3.339884 1_544
Na12 Sb3 3.180081 1_555
Na12 Sb2 3.180339 1_455
Na12 Sb5 3.339164 1_455
Na12 Sb6 3.339165 1_455
Na12 Na3 3.415279 1_455
Na12 Na2 3.416641 1_555
Na13 Sb2 3.179509 1_455
Na13 Sb4 3.179510 1_554
Na13 Sb1 3.338746 1_454
Na13 Sb5 3.339884 1_454
Na13 Na2 3.415636 1_554
Na14 Sb5 3.179510 1_455
Na14 Sb0 3.179510 1_545
Na14 Sb3 3.338745 1_555
Na14 Sb4 3.339884 1_555
Na14 Na2 3.415637 1_555
Na15 Sb3 3.180080 1_555
Na15 Sb4 3.180339 1_554
Na15 Sb5 3.339165 1_554
Na15 Sb0 3.339165 1_554
Na15 Na3 3.415279 1_554
Hf0 Sb4 2.789855 1_555
Hf0 Sb2 2.789855 1_555
Hf0 Sb7 2.789856 1_555
Hf0 Sb3 2.790436 1_555
Hf0 Na1 3.187904 1_555
Hf0 Na2 3.187904 1_555
Hf0 Na0 3.187905 1_555
Hf0 Na3 3.188887 1_555
Hf1 Sb6 2.789855 1_555
Hf1 Sb0 2.789855 1_555
Hf1 Sb5 2.789856 1_555
Hf1 Sb1 2.790436 1_555
Hf1 Na1 3.187904 1_556
Hf1 Na2 3.187904 1_655
Hf1 Na0 3.187905 1_565
Hf1 Na3 3.188887 1_555
