# generated using pymatgen
data_Cs4TaSbI12
_symmetry_space_group_name_H-M   'P 1'
_cell_length_a   8.41483067
_cell_length_b   8.41483067
_cell_length_c   11.78763876
_cell_angle_alpha   90.00000000
_cell_angle_beta   90.00000000
_cell_angle_gamma   90.00000000
_symmetry_Int_Tables_number   1
_chemical_formula_structural   Cs4TaSbI12
_chemical_formula_sum   'Cs4 Ta1 Sb1 I12'
_cell_volume   834.67533492
_cell_formula_units_Z   1
loop_
 _symmetry_equiv_pos_site_id
 _symmetry_equiv_pos_as_xyz
  1  'x, y, z'
loop_
 _atom_site_type_symbol
 _atom_site_label
 _atom_site_symmetry_multiplicity
 _atom_site_fract_x
 _atom_site_fract_y
 _atom_site_fract_z
 _atom_site_occupancy
  Cs  Cs0  1  0.50000000  0.00000000  0.72697599  1
  Cs  Cs1  1  0.00000000  0.50000000  0.27302401  1
  Cs  Cs2  1  0.50000000  0.00000000  0.27302401  1
  Cs  Cs3  1  0.00000000  0.50000000  0.72697599  1
  Ta  Ta0  1  0.00000000  0.00000000  0.00000000  1
  Sb  Sb0  1  0.50000000  0.50000000  0.50000000  1
  I  I0  1  0.00000000  0.00000000  0.76555192  1
  I  I1  1  0.50000000  0.50000000  0.24230366  1
  I  I2  1  0.75416250  0.75416250  0.50000000  1
  I  I3  1  0.23257913  0.23257913  0.00000000  1
  I  I4  1  0.75416250  0.24583750  0.50000000  1
  I  I5  1  0.23257913  0.76742087  0.00000000  1
  I  I6  1  0.00000000  0.00000000  0.23444808  1
  I  I7  1  0.50000000  0.50000000  0.75769634  1
  I  I8  1  0.24583750  0.24583750  0.50000000  1
  I  I9  1  0.76742087  0.76742087  0.00000000  1
  I  I10  1  0.24583750  0.75416250  0.50000000  1
  I  I11  1  0.76742087  0.23257913  0.00000000  1
loop_
_geom_bond_atom_site_label_1
_geom_bond_atom_site_label_2
_geom_bond_distance
_geom_bond_site_symmetry_2
Cs0 I4 4.001498 1_555
Cs0 I8 4.001498 1_555
Cs0 I2 4.001498 1_545
Cs0 I10 4.001498 1_545
Cs0 I7 4.222970 1_555
Cs0 I7 4.222970 1_545
Cs0 I0 4.231916 1_555
Cs0 I0 4.231916 1_655
Cs0 I11 4.387671 1_556
Cs0 I9 4.387671 1_546
Cs0 I3 4.387671 1_556
Cs0 I5 4.387671 1_546
Cs1 I10 4.001498 1_555
Cs1 I8 4.001498 1_555
Cs1 I2 4.001498 1_455
Cs1 I4 4.001498 1_455
Cs1 I1 4.222970 1_555
Cs1 I1 4.222970 1_455
Cs1 I6 4.231916 1_555
Cs1 I6 4.231916 1_565
Cs1 I5 4.387671 1_555
Cs1 I9 4.387671 1_455
Cs1 I3 4.387671 1_555
Cs1 I11 4.387671 1_455
Cs2 I4 4.001498 1_555
Cs2 I2 4.001498 1_545
Cs2 I8 4.001498 1_555
Cs2 I10 4.001498 1_545
Cs2 I1 4.222970 1_555
Cs2 I1 4.222970 1_545
Cs2 I6 4.231916 1_655
Cs2 I6 4.231916 1_555
Cs2 I11 4.387671 1_555
Cs2 I9 4.387671 1_545
Cs2 I3 4.387671 1_555
Cs2 I5 4.387671 1_545
Cs3 I10 4.001498 1_555
Cs3 I8 4.001498 1_555
Cs3 I2 4.001498 1_455
Cs3 I4 4.001498 1_455
Cs3 I7 4.222970 1_555
Cs3 I7 4.222970 1_455
Cs3 I0 4.231916 1_565
Cs3 I0 4.231916 1_555
Cs3 I5 4.387671 1_556
Cs3 I3 4.387671 1_556
Cs3 I9 4.387671 1_456
Cs3 I11 4.387671 1_456
I0 Ta0 2.763589 1_556
I1 Sb0 3.037631 1_555
I2 Sb0 3.024627 1_555
I3 Ta0 2.767777 1_555
I4 Sb0 3.024627 1_555
I5 Ta0 2.767777 1_565
I6 Ta0 2.763589 1_555
I7 Sb0 3.037631 1_555
I8 Sb0 3.024627 1_555
I9 Ta0 2.767777 1_665
I10 Sb0 3.024627 1_555
I11 Ta0 2.767777 1_655
