# generated using pymatgen
data_Hf2V3Mo
_symmetry_space_group_name_H-M   'P 1'
_cell_length_a   5.26728264
_cell_length_b   5.26728227
_cell_length_c   8.22737970
_cell_angle_alpha   90.00000000
_cell_angle_beta   90.00000000
_cell_angle_gamma   120.00000229
_symmetry_Int_Tables_number   1
_chemical_formula_structural   Hf2V3Mo
_chemical_formula_sum   'Hf4 V6 Mo2'
_cell_volume   197.68120401
_cell_formula_units_Z   2
loop_
 _symmetry_equiv_pos_site_id
 _symmetry_equiv_pos_as_xyz
  1  'x, y, z'
loop_
 _atom_site_type_symbol
 _atom_site_label
 _atom_site_symmetry_multiplicity
 _atom_site_fract_x
 _atom_site_fract_y
 _atom_site_fract_z
 _atom_site_occupancy
  Hf  Hf0  1  0.33333300  0.66666700  0.43684218  1
  Hf  Hf1  1  0.66666700  0.33333300  0.56315782  1
  Hf  Hf2  1  0.66666700  0.33333300  0.93684218  1
  Hf  Hf3  1  0.33333300  0.66666700  0.06315782  1
  V  V0  1  0.82721263  0.17278737  0.25000000  1
  V  V1  1  0.82721263  0.65442425  0.25000000  1
  V  V2  1  0.34557575  0.17278737  0.25000000  1
  V  V3  1  0.17278737  0.82721263  0.75000000  1
  V  V4  1  0.17278737  0.34557575  0.75000000  1
  V  V5  1  0.65442425  0.82721263  0.75000000  1
  Mo  Mo0  1  0.00000000  0.00000000  0.50000000  1
  Mo  Mo1  1  0.00000000  0.00000000  0.00000000  1
loop_
_geom_bond_atom_site_label_1
_geom_bond_atom_site_label_2
_geom_bond_distance
_geom_bond_site_symmetry_2
Hf0 V4 2.963698 1_555
Hf0 V5 2.963698 1_555
Hf0 V3 2.963698 1_555
Hf0 V2 3.049952 1_565
Hf0 V1 3.049952 1_455
Hf0 V0 3.049956 1_565
Hf0 V0 3.049956 1_455
Hf0 V2 3.049961 1_555
Hf0 V1 3.049961 1_555
Hf0 Hf3 3.074443 1_555
Hf0 Mo0 3.085138 1_565
Hf0 Mo0 3.085143 1_555
Hf0 Mo0 3.085143 1_665
Hf0 Hf1 3.213737 1_565
Hf0 Hf1 3.213737 1_455
Hf0 Hf1 3.213745 1_555
Hf1 V1 2.963698 1_555
Hf1 V2 2.963698 1_555
Hf1 V0 2.963698 1_555
Hf1 V5 3.049952 1_545
Hf1 V4 3.049952 1_655
Hf1 V3 3.049956 1_545
Hf1 V3 3.049956 1_655
Hf1 V5 3.049961 1_555
Hf1 V4 3.049961 1_555
Hf1 Hf2 3.074443 1_555
Hf1 Mo0 3.085138 1_655
Hf1 Mo0 3.085143 1_665
Hf1 Mo0 3.085143 1_555
Hf2 V1 2.963698 1_556
Hf2 V2 2.963698 1_556
Hf2 V0 2.963698 1_556
Hf2 V5 3.049952 1_545
Hf2 V4 3.049952 1_655
Hf2 V3 3.049956 1_545
Hf2 V3 3.049956 1_655
Hf2 V5 3.049961 1_555
Hf2 V4 3.049961 1_555
Hf2 Mo1 3.085138 1_656
Hf2 Mo1 3.085143 1_666
Hf2 Mo1 3.085143 1_556
Hf2 Hf3 3.213737 1_546
Hf2 Hf3 3.213737 1_656
Hf2 Hf3 3.213745 1_556
Hf3 V4 2.963698 1_554
Hf3 V5 2.963698 1_554
Hf3 V3 2.963698 1_554
Hf3 V2 3.049952 1_565
Hf3 V1 3.049952 1_455
Hf3 V0 3.049956 1_565
Hf3 V0 3.049956 1_455
Hf3 V2 3.049961 1_555
Hf3 V1 3.049961 1_555
Hf3 Mo1 3.085138 1_565
Hf3 Mo1 3.085143 1_555
Hf3 Mo1 3.085143 1_665
V0 V1 2.536917 1_555
V0 V2 2.536918 1_555
V0 V1 2.730365 1_545
V0 V2 2.730365 1_655
V1 V2 2.536917 1_555
V1 V2 2.730365 1_665
V3 V4 2.536917 1_555
V3 V5 2.536918 1_555
V3 V4 2.730365 1_565
V3 V5 2.730365 1_455
V4 V5 2.536917 1_555
V4 V5 2.730365 1_445
Mo0 V0 2.591441 1_455
Mo0 V3 2.591441 1_545
Mo0 V1 2.591444 1_445
Mo0 V4 2.591444 1_555
Mo0 V2 2.591444 1_555
Mo0 V5 2.591444 1_445
Mo1 V0 2.591441 1_455
Mo1 V3 2.591441 1_544
Mo1 V1 2.591444 1_445
Mo1 V4 2.591444 1_554
Mo1 V2 2.591444 1_555
Mo1 V5 2.591444 1_444
