# generated using pymatgen
data_Sr(PPd)2
_symmetry_space_group_name_H-M   'P 1'
_cell_length_a   4.25239767
_cell_length_b   4.25239777
_cell_length_c   5.73374870
_cell_angle_alpha   111.76629578
_cell_angle_beta   111.76631061
_cell_angle_gamma   90.00001012
_symmetry_Int_Tables_number   1
_chemical_formula_structural   Sr(PPd)2
_chemical_formula_sum   'Sr1 P2 Pd2'
_cell_volume   88.28159294
_cell_formula_units_Z   1
loop_
 _symmetry_equiv_pos_site_id
 _symmetry_equiv_pos_as_xyz
  1  'x, y, z'
loop_
 _atom_site_type_symbol
 _atom_site_label
 _atom_site_symmetry_multiplicity
 _atom_site_fract_x
 _atom_site_fract_y
 _atom_site_fract_z
 _atom_site_occupancy
  Sr  Sr0  1  -0.00000000  -0.00000000  0.00000000  1
  P  P0  1  0.61398072  0.61398072  0.22796144  1
  P  P1  1  0.38601928  0.38601928  0.77203856  1
  Pd  Pd0  1  0.25000000  0.75000000  0.50000000  1
  Pd  Pd1  1  0.75000000  0.25000000  0.50000000  1
loop_
_geom_bond_atom_site_label_1
_geom_bond_atom_site_label_2
_geom_bond_distance
_geom_bond_site_symmetry_2
P0 P1 2.225839 1_554
P0 Pd0 2.506908 1_655
P0 Pd1 2.506908 1_555
P0 Pd0 2.506908 1_555
P0 Pd1 2.506908 1_565
P0 Sr0 3.206249 1_555
P0 Sr0 3.206249 1_665
P0 Sr0 3.206249 1_565
P0 Sr0 3.206250 1_655
P1 Pd1 2.506908 1_455
P1 Pd0 2.506908 1_555
P1 Pd1 2.506908 1_555
P1 Pd0 2.506908 1_545
P1 Sr0 3.206249 1_666
P1 Sr0 3.206249 1_556
P1 Sr0 3.206249 1_656
P1 Sr0 3.206250 1_566
Pd0 Sr0 3.237179 1_666
Pd0 Sr0 3.237179 1_565
Pd0 Sr0 3.237180 1_566
Pd0 Sr0 3.237180 1_555
Pd1 Sr0 3.237179 1_555
Pd1 Sr0 3.237179 1_656
Pd1 Sr0 3.237180 1_655
Pd1 Sr0 3.237180 1_666
