# generated using pymatgen
data_SrSn2F6
_symmetry_space_group_name_H-M   'P 1'
_cell_length_a   4.43285038
_cell_length_b   7.47034670
_cell_length_c   9.95854630
_cell_angle_alpha   98.64338180
_cell_angle_beta   101.69611704
_cell_angle_gamma   93.97191325
_symmetry_Int_Tables_number   1
_chemical_formula_structural   SrSn2F6
_chemical_formula_sum   'Sr2 Sn4 F12'
_cell_volume   317.56307989
_cell_formula_units_Z   2
loop_
 _symmetry_equiv_pos_site_id
 _symmetry_equiv_pos_as_xyz
  1  'x, y, z'
loop_
 _atom_site_type_symbol
 _atom_site_label
 _atom_site_symmetry_multiplicity
 _atom_site_fract_x
 _atom_site_fract_y
 _atom_site_fract_z
 _atom_site_occupancy
  Sr  Sr0  1  0.37141613  0.25458346  0.05301072  1
  Sr  Sr1  1  0.62858387  0.74541654  0.94698928  1
  Sn  Sn0  1  0.36217345  0.79291392  0.27558350  1
  Sn  Sn1  1  0.63782655  0.20708608  0.72441650  1
  Sn  Sn2  1  0.99612352  0.72726470  0.61733378  1
  Sn  Sn3  1  0.00387648  0.27273530  0.38266622  1
  F  F0  1  0.91046254  0.45003039  0.61052006  1
  F  F1  1  0.08953746  0.54996961  0.38947994  1
  F  F2  1  0.07490078  0.74088064  0.83727164  1
  F  F3  1  0.92509922  0.25911936  0.16272836  1
  F  F4  1  0.88350481  0.79078946  0.19795849  1
  F  F5  1  0.11649519  0.20921054  0.80204151  1
  F  F6  1  0.64652821  0.05417403  0.89118281  1
  F  F7  1  0.35347179  0.94582597  0.10881719  1
  F  F8  1  0.52001559  0.31045490  0.32043555  1
  F  F9  1  0.47998441  0.68954510  0.67956445  1
  F  F10  1  0.67121263  0.41520842  0.89469303  1
  F  F11  1  0.32878737  0.58479158  0.10530697  1
loop_
_geom_bond_atom_site_label_1
_geom_bond_atom_site_label_2
_geom_bond_distance
_geom_bond_site_symmetry_2
F0 Sn2 2.067935 1_555
F0 Sn3 2.574504 1_655
F0 Sn1 2.628980 1_555
F1 Sn3 2.067935 1_555
F1 Sn2 2.574504 1_455
F1 Sn0 2.628980 1_555
F2 Sn2 2.132499 1_455
F2 Sr1 2.446198 1_455
F2 Sr1 2.471659 1_555
F3 Sn3 2.132499 1_655
F3 Sr0 2.446198 1_655
F3 Sr0 2.471659 1_555
F4 Sn0 2.103987 1_655
F4 Sr1 2.487073 1_554
F4 Sn0 2.581507 1_555
F5 Sn1 2.103987 1_455
F5 Sr0 2.487073 1_556
F5 Sn1 2.581507 1_555
F6 Sn1 2.148203 1_555
F6 Sr1 2.452150 1_545
F6 Sr0 2.578836 1_556
F7 Sn0 2.148203 1_555
F7 Sr0 2.452150 1_565
F7 Sr1 2.578836 1_554
F8 Sn3 2.158997 1_655
F8 Sn3 2.497261 1_555
F8 Sr0 2.572374 1_555
F9 Sn2 2.158997 1_455
F9 Sn2 2.497261 1_555
F9 Sr1 2.572374 1_555
F10 Sn1 2.094879 1_555
F10 Sr1 2.471888 1_555
F10 Sr0 2.624662 1_556
F11 Sn0 2.094879 1_555
F11 Sr0 2.471888 1_555
F11 Sr1 2.624662 1_554
