# generated using pymatgen
data_Zr6Al16Tc4Pd3
_symmetry_space_group_name_H-M   'P 1'
_cell_length_a   8.71063192
_cell_length_b   8.71063236
_cell_length_c   8.87817387
_cell_angle_alpha   59.36167374
_cell_angle_beta   59.36167203
_cell_angle_gamma   61.27665621
_symmetry_Int_Tables_number   1
_chemical_formula_structural   Zr6Al16Tc4Pd3
_chemical_formula_sum   'Zr6 Al16 Tc4 Pd3'
_cell_volume   475.97068580
_cell_formula_units_Z   1
loop_
 _symmetry_equiv_pos_site_id
 _symmetry_equiv_pos_as_xyz
  1  'x, y, z'
loop_
 _atom_site_type_symbol
 _atom_site_label
 _atom_site_symmetry_multiplicity
 _atom_site_fract_x
 _atom_site_fract_y
 _atom_site_fract_z
 _atom_site_occupancy
  Zr  Zr0  1  0.68256816  0.68256816  0.31743184  1
  Zr  Zr1  1  0.28853375  0.71146625  0.28853375  1
  Zr  Zr2  1  0.71146625  0.28853375  0.28853375  1
  Zr  Zr3  1  0.31743184  0.31743184  0.68256816  1
  Zr  Zr4  1  0.71146625  0.28853375  0.71146625  1
  Zr  Zr5  1  0.28853375  0.71146625  0.71146625  1
  Al  Al0  1  0.87452099  0.87452099  0.36370002  1
  Al  Al1  1  0.88726001  0.36370002  0.87452099  1
  Al  Al2  1  0.36370002  0.88726001  0.87452099  1
  Al  Al3  1  0.87452099  0.87452099  0.88726001  1
  Al  Al4  1  0.12547901  0.12547901  0.63629998  1
  Al  Al5  1  0.11273999  0.63629998  0.12547901  1
  Al  Al6  1  0.63629998  0.11273999  0.12547901  1
  Al  Al7  1  0.12547901  0.12547901  0.11273999  1
  Al  Al8  1  0.66322024  0.66322024  0.01084327  1
  Al  Al9  1  0.66271624  0.01084327  0.66322024  1
  Al  Al10  1  0.01084327  0.66271624  0.66322024  1
  Al  Al11  1  0.66322024  0.66322024  0.66271624  1
  Al  Al12  1  0.33677976  0.33677976  0.98915673  1
  Al  Al13  1  0.33728376  0.98915673  0.33677976  1
  Al  Al14  1  0.98915673  0.33728376  0.33677976  1
  Al  Al15  1  0.33677976  0.33677976  0.33728376  1
  Tc  Tc0  1  0.50000000  0.00000000  0.50000000  1
  Tc  Tc1  1  0.00000000  0.50000000  0.50000000  1
  Tc  Tc2  1  0.00000000  0.50000000  0.00000000  1
  Tc  Tc3  1  0.50000000  0.00000000  0.00000000  1
  Pd  Pd0  1  0.00000000  0.00000000  0.00000000  1
  Pd  Pd1  1  0.00000000  0.00000000  0.50000000  1
  Pd  Pd2  1  0.50000000  0.50000000  0.00000000  1
loop_
_geom_bond_atom_site_label_1
_geom_bond_atom_site_label_2
_geom_bond_distance
_geom_bond_site_symmetry_2
Zr0 Zr5 3.451243 1_555
Zr0 Zr1 3.451243 1_555
Zr0 Zr4 3.451243 1_555
Zr0 Zr2 3.451243 1_555
Zr1 Zr3 3.451243 1_555
Zr2 Zr3 3.451243 1_555
Zr3 Zr4 3.451243 1_555
Zr3 Zr5 3.451243 1_555
Al0 Pd0 2.601845 1_665
Al0 Al11 2.668081 1_555
Al0 Tc0 2.683074 1_565
Al0 Tc1 2.683074 1_655
Al0 Pd1 2.774534 1_665
Al0 Al9 2.827976 1_565
Al0 Al10 2.827976 1_655
Al0 Al6 2.991016 1_565
Al0 Al5 2.991016 1_655
Al0 Zr1 3.009668 1_655
Al0 Zr2 3.009668 1_565
Al0 Al7 3.030847 1_665
Al0 Zr0 3.138041 1_555
Al1 Pd0 2.601845 1_656
Al1 Al10 2.668073 1_655
Al1 Tc2 2.683060 1_656
Al1 Tc1 2.683075 1_655
Al1 Pd2 2.774548 1_556
Al1 Al8 2.827976 1_556
Al1 Al11 2.827986 1_555
Al1 Al7 2.990991 1_656
Al1 Al4 2.991016 1_655
Al1 Zr2 3.009668 1_556
Al1 Zr4 3.009683 1_555
Al1 Al6 3.030871 1_556
Al1 Zr3 3.138026 1_655
Al2 Pd0 2.601844 1_566
Al2 Al9 2.668072 1_565
Al2 Tc3 2.683060 1_566
Al2 Tc0 2.683074 1_565
Al2 Pd2 2.774548 1_556
Al2 Al8 2.827976 1_556
Al2 Al7 2.990991 1_566
Al2 Al4 2.991016 1_565
Al2 Zr1 3.009668 1_556
Al2 Zr5 3.009683 1_555
Al2 Al5 3.030871 1_556
Al2 Zr3 3.138026 1_565
Al3 Pd0 2.601830 1_666
Al3 Al8 2.668087 1_556
Al3 Tc3 2.683074 1_566
Al3 Tc2 2.683074 1_656
Al3 Pd1 2.774549 1_665
Al3 Al9 2.827990 1_565
Al3 Al6 2.990991 1_566
Al3 Al5 2.990991 1_656
Al3 Zr5 3.009671 1_655
Al3 Zr4 3.009671 1_565
Al3 Al4 3.030847 1_665
Al3 Zr0 3.138029 1_556
Al4 Pd0 2.601845 1_556
Al4 Tc0 2.683074 1_555
Al4 Tc1 2.683074 1_555
Al4 Pd1 2.774534 1_555
Al4 Zr4 3.009668 1_455
Al4 Zr5 3.009668 1_545
Al4 Zr3 3.138041 1_555
Al5 Pd0 2.601845 1_565
Al5 Tc2 2.683060 1_555
Al5 Tc1 2.683075 1_555
Al5 Pd2 2.774548 1_555
Al5 Zr5 3.009668 1_554
Al5 Zr1 3.009683 1_555
Al5 Zr0 3.138026 1_455
Al6 Pd0 2.601844 1_655
Al6 Tc3 2.683060 1_555
Al6 Tc0 2.683074 1_555
Al6 Pd2 2.774548 1_555
Al6 Zr4 3.009668 1_554
Al6 Zr2 3.009683 1_555
Al6 Zr0 3.138026 1_545
Al7 Pd0 2.601830 1_555
Al7 Tc3 2.683074 1_555
Al7 Tc2 2.683074 1_555
Al7 Pd1 2.774549 1_555
Al7 Zr2 3.009671 1_455
Al7 Zr1 3.009671 1_545
Al7 Zr3 3.138029 1_554
Al8 Pd2 2.504775 1_555
Al8 Tc2 2.545446 1_655
Al8 Tc3 2.545446 1_565
Al8 Zr0 2.903140 1_555
Al8 Zr1 2.905742 1_555
Al8 Zr2 2.905742 1_555
Al8 Al9 3.028190 1_564
Al9 Pd1 2.504775 1_655
Al9 Tc0 2.545446 1_555
Al9 Tc3 2.545446 1_556
Al9 Zr3 2.903140 1_555
Al9 Zr2 2.905742 1_555
Al9 Zr4 2.905742 1_555
Al10 Pd1 2.504775 1_565
Al10 Tc1 2.545446 1_555
Al10 Tc2 2.545446 1_556
Al10 Al3 2.827990 1_455
Al10 Zr3 2.903140 1_555
Al10 Zr5 2.905742 1_555
Al10 Zr1 2.905742 1_555
Al10 Al8 3.028190 1_456
Al10 Al11 3.028190 1_455
Al10 Al9 3.090732 1_465
Al11 Pd2 2.504775 1_556
Al11 Tc1 2.545446 1_655
Al11 Tc0 2.545446 1_565
Al11 Al2 2.827986 1_555
Al11 Zr0 2.903140 1_555
Al11 Zr5 2.905742 1_555
Al11 Zr4 2.905742 1_555
Al11 Al9 3.028190 1_565
Al11 Al8 3.090732 1_556
Al12 Pd2 2.504775 1_556
Al12 Tc2 2.545446 1_556
Al12 Tc3 2.545446 1_556
Al12 Al7 2.668087 1_556
Al12 Al6 2.827976 1_556
Al12 Al5 2.827976 1_556
Al12 Zr3 2.903140 1_555
Al12 Zr4 2.905742 1_555
Al12 Zr5 2.905742 1_555
Al12 Al14 3.028190 1_456
Al12 Al13 3.028190 1_546
Al12 Al15 3.090732 1_556
Al13 Pd1 2.504775 1_565
Al13 Tc0 2.545446 1_565
Al13 Tc3 2.545446 1_565
Al13 Al6 2.668072 1_565
Al13 Al4 2.827976 1_565
Al13 Al7 2.827990 1_565
Al13 Zr0 2.903140 1_555
Al13 Zr5 2.905742 1_555
Al13 Zr1 2.905742 1_555
Al13 Al15 3.028190 1_565
Al13 Al14 3.090732 1_465
Al14 Pd1 2.504775 1_655
Al14 Tc2 2.545446 1_655
Al14 Tc1 2.545446 1_655
Al14 Al5 2.668073 1_655
Al14 Al4 2.827976 1_655
Al14 Al7 2.827990 1_655
Al14 Zr0 2.903140 1_555
Al14 Zr4 2.905742 1_555
Al14 Zr2 2.905742 1_555
Al14 Al15 3.028190 1_655
Al15 Pd2 2.504775 1_555
Al15 Tc1 2.545446 1_555
Al15 Tc0 2.545446 1_555
Al15 Al4 2.668081 1_555
Al15 Al6 2.827986 1_555
Al15 Al5 2.827986 1_555
Al15 Zr3 2.903140 1_555
Al15 Zr2 2.905742 1_555
Al15 Zr1 2.905742 1_555
Tc0 Zr2 3.057795 1_555
Tc0 Zr5 3.057795 1_545
Tc0 Zr3 3.242833 1_555
Tc0 Zr0 3.242833 1_545
Tc1 Zr1 3.057795 1_555
Tc1 Zr4 3.057795 1_455
Tc1 Zr3 3.242833 1_555
Tc1 Zr0 3.242833 1_455
Tc2 Zr5 3.057795 1_554
Tc2 Zr2 3.057795 1_455
Tc2 Zr0 3.242833 1_455
Tc2 Zr3 3.242833 1_554
Tc3 Zr4 3.057795 1_554
Tc3 Zr1 3.057795 1_545
Tc3 Zr0 3.242833 1_545
Tc3 Zr3 3.242833 1_554
Pd1 Zr5 3.175976 1_545
Pd1 Zr4 3.175976 1_455
Pd1 Zr1 3.175976 1_545
Pd1 Zr2 3.175976 1_455
Pd2 Zr2 3.175976 1_555
Pd2 Zr1 3.175976 1_555
Pd2 Zr5 3.175976 1_554
Pd2 Zr4 3.175976 1_554
