# generated using pymatgen
data_KRbWSe4
_symmetry_space_group_name_H-M   'P 1'
_cell_length_a   7.28570348
_cell_length_b   9.98581250
_cell_length_c   12.76573934
_cell_angle_alpha   90.00000000
_cell_angle_beta   90.00000000
_cell_angle_gamma   90.00000000
_symmetry_Int_Tables_number   1
_chemical_formula_structural   KRbWSe4
_chemical_formula_sum   'K4 Rb4 W4 Se16'
_cell_volume   928.75437248
_cell_formula_units_Z   4
loop_
 _symmetry_equiv_pos_site_id
 _symmetry_equiv_pos_as_xyz
  1  'x, y, z'
loop_
 _atom_site_type_symbol
 _atom_site_label
 _atom_site_symmetry_multiplicity
 _atom_site_fract_x
 _atom_site_fract_y
 _atom_site_fract_z
 _atom_site_occupancy
  K  K0  1  0.25000000  0.45374298  0.84146060  1
  K  K1  1  0.25000000  0.95374298  0.65853940  1
  K  K2  1  0.75000000  0.54625702  0.15853940  1
  K  K3  1  0.75000000  0.04625702  0.34146060  1
  Rb  Rb0  1  0.25000000  0.15700790  0.11490715  1
  Rb  Rb1  1  0.25000000  0.65700790  0.38509285  1
  Rb  Rb2  1  0.75000000  0.84299210  0.88509285  1
  Rb  Rb3  1  0.75000000  0.34299210  0.61490715  1
  W  W0  1  0.25000000  0.24528427  0.43302735  1
  W  W1  1  0.25000000  0.74528427  0.06697265  1
  W  W2  1  0.75000000  0.75471573  0.56697265  1
  W  W3  1  0.75000000  0.25471573  0.93302735  1
  Se  Se0  1  0.00602822  0.15354865  0.86094133  1
  Se  Se1  1  0.49397178  0.65354865  0.63905867  1
  Se  Se2  1  0.50602822  0.84645135  0.13905867  1
  Se  Se3  1  0.99397178  0.34645135  0.36094133  1
  Se  Se4  1  0.99397178  0.84645135  0.13905867  1
  Se  Se5  1  0.50602822  0.34645135  0.36094133  1
  Se  Se6  1  0.49397178  0.15354865  0.86094133  1
  Se  Se7  1  0.00602822  0.65354865  0.63905867  1
  Se  Se8  1  0.25000000  0.01738899  0.39284619  1
  Se  Se9  1  0.25000000  0.51738899  0.10715381  1
  Se  Se10  1  0.75000000  0.98261101  0.60715381  1
  Se  Se11  1  0.75000000  0.48261101  0.89284619  1
  Se  Se12  1  0.25000000  0.27985063  0.61287161  1
  Se  Se13  1  0.25000000  0.77985063  0.88712839  1
  Se  Se14  1  0.75000000  0.72014937  0.38712839  1
  Se  Se15  1  0.75000000  0.22014937  0.11287161  1
loop_
_geom_bond_atom_site_label_1
_geom_bond_atom_site_label_2
_geom_bond_distance
_geom_bond_site_symmetry_2
K0 Se13 3.308222 1_555
K0 Se12 3.395678 1_555
K0 Se9 3.450803 1_556
K0 Se6 3.493921 1_555
K0 Se0 3.493921 1_555
K0 Se11 3.712650 1_455
K0 Se11 3.712650 1_555
K0 Se1 3.717057 1_555
K0 Se7 3.717057 1_555
K1 Se12 3.308222 1_565
K1 Se13 3.395678 1_555
K1 Se8 3.450803 1_565
K1 Se1 3.493921 1_555
K1 Se7 3.493921 1_555
K1 Se10 3.712650 1_455
K1 Se10 3.712650 1_555
K1 Se6 3.717057 1_565
K1 Se0 3.717057 1_565
K2 Se15 3.308222 1_555
K2 Se14 3.395678 1_555
K2 Se11 3.450803 1_554
K2 Se4 3.493921 1_555
K2 Se2 3.493921 1_555
K2 Se9 3.712650 1_555
K2 Se9 3.712650 1_655
K2 Se3 3.717057 1_555
K2 Se5 3.717057 1_555
K3 Se14 3.308222 1_545
K3 Se15 3.395678 1_555
K3 Se10 3.450803 1_545
K3 Se3 3.493921 1_555
K3 Se5 3.493921 1_555
K3 Se8 3.712650 1_655
K3 Se8 3.712650 1_555
K3 Se4 3.717057 1_545
K3 Se2 3.717057 1_545
Rb0 Se9 3.600059 1_555
Rb0 Se2 3.632046 1_545
Rb0 Se4 3.632046 1_445
Rb0 Se15 3.697107 1_555
Rb0 Se15 3.697107 1_455
Rb0 Se6 3.697524 1_554
Rb0 Se0 3.697524 1_554
Rb0 Se8 3.812192 1_555
Rb1 Se8 3.600059 1_565
Rb1 Se5 3.632046 1_555
Rb1 Se3 3.632046 1_455
Rb1 Se14 3.697107 1_455
Rb1 Se14 3.697107 1_555
Rb1 Se1 3.697524 1_555
Rb1 Se7 3.697524 1_555
Rb1 Se9 3.812192 1_555
Rb2 Se11 3.600059 1_555
Rb2 Se0 3.632046 1_665
Rb2 Se6 3.632046 1_565
Rb2 Se13 3.697107 1_655
Rb2 Se13 3.697107 1_555
Rb2 Se4 3.697524 1_556
Rb2 Se2 3.697524 1_556
Rb2 Se10 3.812192 1_555
Rb3 Se10 3.600059 1_545
Rb3 Se7 3.632046 1_655
Rb3 Se1 3.632046 1_555
Rb3 Se12 3.697107 1_655
Rb3 Se12 3.697107 1_555
Rb3 Se3 3.697524 1_555
Rb3 Se5 3.697524 1_555
Rb3 Se11 3.812192 1_555
Se0 W3 2.312340 1_455
Se1 W2 2.312340 1_555
Se2 W1 2.312340 1_555
Se3 W0 2.312340 1_655
Se4 W1 2.312340 1_655
Se5 W0 2.312340 1_555
Se6 W3 2.312340 1_555
Se7 W2 2.312340 1_455
Se8 W0 2.332811 1_555
Se9 W1 2.332811 1_555
Se10 W2 2.332811 1_555
Se11 W3 2.332811 1_555
Se12 W0 2.321648 1_555
Se13 W1 2.321648 1_556
Se14 W2 2.321648 1_555
Se15 W3 2.321648 1_554
