# generated using pymatgen
data_Y2Si2Tc
_symmetry_space_group_name_H-M   'P 1'
_cell_length_a   5.80497160
_cell_length_b   5.80497169
_cell_length_c   10.11967092
_cell_angle_alpha   63.43150660
_cell_angle_beta   63.43150539
_cell_angle_gamma   42.35646607
_symmetry_Int_Tables_number   1
_chemical_formula_structural   Y2Si2Tc
_chemical_formula_sum   'Y4 Si4 Tc2'
_cell_volume   201.59665979
_cell_formula_units_Z   2
loop_
 _symmetry_equiv_pos_site_id
 _symmetry_equiv_pos_as_xyz
  1  'x, y, z'
loop_
 _atom_site_type_symbol
 _atom_site_label
 _atom_site_symmetry_multiplicity
 _atom_site_fract_x
 _atom_site_fract_y
 _atom_site_fract_z
 _atom_site_occupancy
  Y  Y0  1  0.00433820  0.00433820  0.32377563  1
  Y  Y1  1  0.18617982  0.18617982  0.89112727  1
  Y  Y2  1  0.99566180  0.99566180  0.67622437  1
  Y  Y3  1  0.81382018  0.81382018  0.10887273  1
  Si  Si0  1  0.35320641  0.35320641  0.56079622  1
  Si  Si1  1  0.49944785  0.49944785  0.87718279  1
  Si  Si2  1  0.64679359  0.64679359  0.43920378  1
  Si  Si3  1  0.50055215  0.50055215  0.12281721  1
  Tc  Tc0  1  0.72714435  0.72714435  0.62964150  1
  Tc  Tc1  1  0.27285565  0.27285565  0.37035850  1
loop_
_geom_bond_atom_site_label_1
_geom_bond_atom_site_label_2
_geom_bond_distance
_geom_bond_site_symmetry_2
Si0 Tc0 2.415332 1_455
Si0 Tc0 2.415333 1_545
Si0 Tc1 2.465527 1_555
Si0 Si2 2.804286 1_555
Si0 Y1 2.940324 1_555
Si0 Y0 3.010548 1_655
Si0 Y0 3.010548 1_565
Si0 Y2 3.141508 1_545
Si0 Y2 3.141508 1_455
Si0 Y2 3.465460 1_445
Si1 Si3 2.491496 1_556
Si1 Tc0 2.535286 1_555
Si1 Y2 2.935201 1_545
Si1 Y2 2.935201 1_455
Si1 Y1 2.962810 1_655
Si1 Y1 2.962810 1_565
Si1 Y3 3.068174 1_456
Si1 Y3 3.068174 1_546
Si1 Y1 3.326002 1_555
Si2 Tc1 2.415332 1_655
Si2 Tc1 2.415333 1_565
Si2 Tc0 2.465527 1_555
Si2 Y3 2.940324 1_555
Si2 Y2 3.010548 1_455
Si2 Y2 3.010548 1_545
Si2 Y0 3.141508 1_565
Si2 Y0 3.141508 1_655
Si2 Y0 3.465460 1_665
Si3 Tc1 2.535286 1_555
Si3 Y0 2.935201 1_565
Si3 Y0 2.935201 1_655
Si3 Y3 2.962810 1_455
Si3 Y3 2.962810 1_545
Si3 Y1 3.068174 1_654
Si3 Y1 3.068174 1_564
Si3 Y3 3.326002 1_555
Tc0 Y0 3.110486 1_665
Tc0 Y2 3.125222 1_455
Tc0 Y2 3.125222 1_545
Tc0 Y2 3.160223 1_555
Tc0 Y1 3.235909 1_565
Tc0 Y1 3.235909 1_655
Tc1 Y2 3.110486 1_445
Tc1 Y0 3.125222 1_655
Tc1 Y0 3.125222 1_565
Tc1 Y0 3.160223 1_555
Tc1 Y3 3.235909 1_545
Tc1 Y3 3.235909 1_455
