# generated using pymatgen
data_Cs10Mn4Sn4S17
_symmetry_space_group_name_H-M   'P 1'
_cell_length_a   10.62036728
_cell_length_b   10.62036825
_cell_length_c   10.62036931
_cell_angle_alpha   89.42681927
_cell_angle_beta   89.42681584
_cell_angle_gamma   89.42681522
_symmetry_Int_Tables_number   1
_chemical_formula_structural   Cs10Mn4Sn4S17
_chemical_formula_sum   'Cs10 Mn4 Sn4 S17'
_cell_volume   1197.71630761
_cell_formula_units_Z   1
loop_
 _symmetry_equiv_pos_site_id
 _symmetry_equiv_pos_as_xyz
  1  'x, y, z'
loop_
 _atom_site_type_symbol
 _atom_site_label
 _atom_site_symmetry_multiplicity
 _atom_site_fract_x
 _atom_site_fract_y
 _atom_site_fract_z
 _atom_site_occupancy
  Cs  Cs0  1  0.99918197  0.99918197  0.49893098  1
  Cs  Cs1  1  0.49893098  0.99918197  0.99918197  1
  Cs  Cs2  1  0.99918197  0.49893098  0.99918197  1
  Cs  Cs3  1  0.49689419  0.97922982  0.49689419  1
  Cs  Cs4  1  0.49689419  0.49689419  0.97922982  1
  Cs  Cs5  1  0.97922982  0.49689419  0.49689419  1
  Cs  Cs6  1  0.66313555  0.32809040  0.32809040  1
  Cs  Cs7  1  0.32809040  0.66313555  0.32809040  1
  Cs  Cs8  1  0.32809040  0.32809040  0.66313555  1
  Cs  Cs9  1  0.67431776  0.67431776  0.67431776  1
  Mn  Mn0  1  0.86755241  0.12907244  0.12907244  1
  Mn  Mn1  1  0.12907244  0.86755241  0.12907244  1
  Mn  Mn2  1  0.12907244  0.12907244  0.86755241  1
  Mn  Mn3  1  0.86964604  0.86964604  0.86964604  1
  Sn  Sn0  1  0.21321019  0.21321019  0.21321019  1
  Sn  Sn1  1  0.21823946  0.78226433  0.78226433  1
  Sn  Sn2  1  0.78226433  0.78226433  0.21823946  1
  Sn  Sn3  1  0.78226433  0.21823946  0.78226433  1
  S  S0  1  0.99867261  0.99867261  0.99867261  1
  S  S1  1  0.34018539  0.34018539  0.34018539  1
  S  S2  1  0.35191889  0.65564881  0.65564881  1
  S  S3  1  0.65564881  0.65564881  0.35191889  1
  S  S4  1  0.65564881  0.35191889  0.65564881  1
  S  S5  1  0.26084705  0.99436155  0.26084705  1
  S  S6  1  0.26084705  0.26084705  0.99436155  1
  S  S7  1  0.99436155  0.26084705  0.26084705  1
  S  S8  1  0.26317131  0.00082454  0.73460801  1
  S  S9  1  0.26317131  0.73460801  0.00082454  1
  S  S10  1  0.00042571  0.73638226  0.73638226  1
  S  S11  1  0.73460801  0.00082454  0.26317131  1
  S  S12  1  0.73638226  0.73638226  0.00042571  1
  S  S13  1  0.00082454  0.73460801  0.26317131  1
  S  S14  1  0.73638226  0.00042571  0.73638226  1
  S  S15  1  0.73460801  0.26317131  0.00082454  1
  S  S16  1  0.00082454  0.26317131  0.73460801  1
loop_
_geom_bond_atom_site_label_1
_geom_bond_atom_site_label_2
_geom_bond_distance
_geom_bond_site_symmetry_2
Cs0 S5 3.738718 1_655
Cs0 S7 3.738718 1_565
Cs0 S14 3.742820 1_565
Cs0 S10 3.742821 1_655
Cs0 S8 3.777299 1_665
Cs0 S16 3.777299 1_665
Cs0 S11 3.782048 1_565
Cs0 S13 3.782048 1_655
Cs1 S6 3.738718 1_565
Cs1 S5 3.738718 1_556
Cs1 S12 3.742820 1_556
Cs1 S14 3.742820 1_565
Cs1 S15 3.777299 1_566
Cs1 S11 3.777299 1_566
Cs1 S9 3.782048 1_556
Cs1 S8 3.782048 1_565
Cs2 S6 3.738718 1_655
Cs2 S7 3.738718 1_556
Cs2 S12 3.742820 1_556
Cs2 S10 3.742821 1_655
Cs2 S9 3.777298 1_656
Cs2 S13 3.777299 1_656
Cs2 S15 3.782048 1_556
Cs2 S16 3.782048 1_655
Cs3 S8 3.530225 1_565
Cs3 S11 3.530225 1_565
Cs3 S5 3.564353 1_555
Cs3 S14 3.625094 1_565
Cs4 S9 3.530225 1_556
Cs4 S15 3.530225 1_556
Cs4 S6 3.564353 1_555
Cs4 S12 3.625094 1_556
Cs5 S13 3.530226 1_655
Cs5 S16 3.530226 1_655
Cs5 S7 3.564353 1_555
Cs5 S10 3.625094 1_655
Cs6 S1 3.432137 1_555
Cs6 S3 3.490563 1_555
Cs6 S4 3.490563 1_555
Cs6 S11 3.621686 1_555
Cs6 S15 3.621686 1_555
Cs6 S7 3.647493 1_555
Cs7 S1 3.432138 1_555
Cs7 S3 3.490563 1_555
Cs7 S2 3.490563 1_555
Cs7 S13 3.621685 1_555
Cs7 S9 3.621686 1_555
Cs7 S5 3.647493 1_555
Cs8 S1 3.432138 1_555
Cs8 S4 3.490563 1_555
Cs8 S2 3.490563 1_555
Cs8 S16 3.621685 1_555
Cs8 S8 3.621686 1_555
Cs8 S6 3.647493 1_555
Cs9 S2 3.439522 1_555
Cs9 S4 3.439522 1_555
Cs9 S3 3.439523 1_555
Cs9 S10 3.600561 1_655
Cs9 S14 3.600561 1_565
Cs9 S12 3.600561 1_556
Mn0 S0 2.395046 1_544
Mn0 S15 2.415862 1_555
Mn0 S11 2.415862 1_555
Mn0 S7 2.417755 1_555
Mn1 S0 2.395047 1_454
Mn1 S9 2.415862 1_555
Mn1 S13 2.415862 1_555
Mn1 S5 2.417755 1_555
Mn2 S0 2.395047 1_445
Mn2 S8 2.415862 1_555
Mn2 S16 2.415862 1_555
Mn2 S6 2.417755 1_555
Mn3 S0 2.397072 1_555
Mn3 S10 2.428322 1_655
Mn3 S14 2.428322 1_565
Mn3 S12 2.428322 1_556
S1 Sn0 2.358961 1_555
S2 Sn1 2.364711 1_555
S3 Sn2 2.364711 1_555
S4 Sn3 2.364711 1_555
S5 Sn0 2.423248 1_565
S6 Sn0 2.423249 1_556
S7 Sn0 2.423248 1_655
S8 Sn1 2.421905 1_545
S9 Sn1 2.421905 1_554
S10 Sn1 2.424032 1_555
S11 Sn2 2.421905 1_545
S12 Sn2 2.424032 1_555
S13 Sn2 2.421905 1_455
S14 Sn3 2.424032 1_555
S15 Sn3 2.421905 1_554
S16 Sn3 2.421905 1_455
