# generated using pymatgen
data_Ti8Al14GaCo7
_symmetry_space_group_name_H-M   'P 1'
_cell_length_a   8.35463417
_cell_length_b   8.35464315
_cell_length_c   8.35462386
_cell_angle_alpha   120.11026973
_cell_angle_beta   119.89793909
_cell_angle_gamma   89.99313072
_symmetry_Int_Tables_number   1
_chemical_formula_structural   Ti8Al14GaCo7
_chemical_formula_sum   'Ti8 Al14 Ga1 Co7'
_cell_volume   412.32332170
_cell_formula_units_Z   1
loop_
 _symmetry_equiv_pos_site_id
 _symmetry_equiv_pos_as_xyz
  1  'x, y, z'
loop_
 _atom_site_type_symbol
 _atom_site_label
 _atom_site_symmetry_multiplicity
 _atom_site_fract_x
 _atom_site_fract_y
 _atom_site_fract_z
 _atom_site_occupancy
  Ti  Ti0  1  0.79254221  0.28876766  0.07469435  1
  Ti  Ti1  1  0.21407450  0.28876135  0.49621561  1
  Ti  Ti2  1  0.20885706  0.70886131  0.50000022  1
  Ti  Ti3  1  0.21407541  0.71787773  0.92532007  1
  Ti  Ti4  1  0.79255403  0.71786995  0.50379003  1
  Ti  Ti5  1  0.78394102  0.28391679  0.49997782  1
  Ti  Ti6  1  0.38040215  0.12078544  0.74039137  1
  Ti  Ti7  1  0.38039919  0.64001312  0.25961519  1
  Al  Al0  1  0.15942660  0.33879086  0.17934281  1
  Al  Al1  1  0.15945752  0.98011242  0.82066017  1
  Al  Al2  1  0.15536675  0.34155139  0.81382512  1
  Al  Al3  1  0.52772344  0.34155638  0.18619446  1
  Al  Al4  1  0.84024684  0.65812907  0.81786672  1
  Al  Al5  1  0.84026170  0.02235096  0.18208992  1
  Al  Al6  1  0.83946891  0.65908635  0.18037889  1
  Al  Al7  1  0.47871638  0.65909945  0.81963140  1
  Al  Al8  1  0.38074500  0.11989921  0.26085622  1
  Al  Al9  1  0.85903868  0.11988987  0.73915067  1
  Al  Al10  1  0.62025157  0.87956326  0.25931944  1
  Al  Al11  1  0.62024964  0.36094091  0.74068893  1
  Al  Al12  1  0.62081684  0.87938431  0.74142344  1
  Al  Al13  1  0.13795650  0.87937952  0.25856972  1
  Ga  Ga0  1  0.99584237  0.49583784  0.50001007  1
  Co  Co0  1  0.00296956  0.00063148  0.50254548  1
  Co  Co1  1  0.49810144  0.00064067  0.99767753  1
  Co  Co2  1  0.49729395  0.49729312  0.00000559  1
  Co  Co3  1  0.49807104  0.50043119  0.49745315  1
  Co  Co4  1  0.00296412  0.50042406  0.00233435  1
  Co  Co5  1  0.00005692  0.00002828  0.99997653  1
  Co  Co6  1  0.49812464  0.99812104  0.49999473  1
loop_
_geom_bond_atom_site_label_1
_geom_bond_atom_site_label_2
_geom_bond_distance
_geom_bond_site_symmetry_2
Ti0 Ti6 2.847375 1_554
Ti1 Ti6 2.847452 1_555
Ti2 Ti6 2.851011 1_565
Ti2 Ti7 2.851029 1_555
Ti3 Ti7 2.847488 1_556
Ti4 Ti7 2.847462 1_555
Al0 Co5 2.405233 1_554
Al0 Co4 2.407350 1_555
Al0 Co3 2.407387 1_555
Al0 Al9 2.686966 1_454
Al0 Al8 2.687098 1_555
Al0 Ti7 2.695324 1_555
Al0 Ti0 2.701204 1_455
Al0 Ti1 2.701270 1_555
Al0 Ti2 2.737449 1_555
Al1 Co5 2.405067 1_565
Al1 Co0 2.407341 1_565
Al1 Co1 2.407398 1_565
Al1 Al8 2.687030 1_566
Al1 Al9 2.687061 1_465
Al1 Ti6 2.695136 1_565
Al1 Ti3 2.701258 1_555
Al1 Ti4 2.701320 1_455
Al1 Ti2 2.737458 1_555
Al2 Co4 2.400977 1_556
Al2 Co0 2.401026 1_555
Al2 Co2 2.411139 1_556
Al2 Al9 2.692590 1_455
Al2 Ti7 2.706716 1_556
Al2 Ti6 2.706795 1_555
Al2 Ti5 2.712673 1_455
Al2 Ti1 2.756704 1_555
Al2 Ti3 2.756791 1_555
Al3 Co3 2.400941 1_555
Al3 Co1 2.401034 1_554
Al3 Co2 2.411147 1_555
Al3 Al8 2.692488 1_555
Al3 Ti7 2.706675 1_555
Al3 Ti6 2.706817 1_554
Al3 Ti5 2.712672 1_555
Al3 Ti4 2.756714 1_555
Al3 Ti0 2.756714 1_555
Al4 Co5 2.423245 1_665
Al4 Co3 2.430530 1_555
Al4 Co4 2.430537 1_656
Al4 Ti5 2.733711 1_555
Al4 Ti4 2.750434 1_555
Al4 Ti3 2.750472 1_655
Al5 Co5 2.423267 1_654
Al5 Co1 2.430522 1_554
Al5 Co0 2.430609 1_655
Al5 Ti5 2.733645 1_555
Al5 Ti1 2.750471 1_655
Al5 Ti0 2.750492 1_555
Al6 Co4 2.425356 1_655
Al6 Co0 2.425399 1_665
Al6 Co2 2.435766 1_555
Al6 Ti0 2.723921 1_555
Al6 Ti4 2.723940 1_555
Al6 Ti2 2.738297 1_655
Al7 Co3 2.425360 1_555
Al7 Co1 2.425362 1_565
Al7 Co2 2.435815 1_556
Al7 Ti3 2.724000 1_555
Al7 Ti1 2.724042 1_555
Al7 Ti2 2.738361 1_555
Al8 Co6 2.464648 1_545
Al8 Co3 2.596035 1_555
Al8 Co1 2.596049 1_554
Al8 Co5 2.601745 1_554
Al8 Ti3 2.782326 1_544
Al8 Ti1 2.782373 1_555
Al8 Ti5 2.785964 1_555
Al9 Co6 2.464626 1_545
Al9 Co4 2.596045 1_656
Al9 Co0 2.596060 1_655
Al9 Co5 2.601747 1_655
Al9 Ti4 2.782320 1_545
Al9 Ti0 2.782445 1_556
Al9 Ti5 2.786001 1_555
Al10 Co6 2.472254 1_555
Al10 Co2 2.605518 1_555
Al10 Co0 2.614826 1_665
Al10 Co1 2.614837 1_564
Al10 Al7 2.677029 1_554
Al10 Al6 2.677078 1_555
Al10 Al5 2.678279 1_565
Al10 Ti5 2.787516 1_565
Al10 Ti4 2.811680 1_555
Al10 Ti3 2.811753 1_554
Al10 Ti7 2.834047 1_555
Al10 Al9 2.834468 1_565
Al10 Al8 2.834547 1_565
Al11 Co6 2.472374 1_545
Al11 Co2 2.605532 1_556
Al11 Co4 2.614800 1_656
Al11 Co3 2.614883 1_555
Al11 Al6 2.677022 1_556
Al11 Al7 2.677068 1_555
Al11 Al4 2.678082 1_555
Al11 Ti5 2.787803 1_555
Al11 Ti1 2.811743 1_555
Al11 Ti0 2.811775 1_556
Al11 Ti6 2.834089 1_555
Al11 Al8 2.834477 1_555
Al11 Al9 2.834532 1_555
Al12 Co6 2.459557 1_555
Al12 Co3 2.583050 1_555
Al12 Co1 2.583162 1_565
Al12 Co5 2.591161 1_665
Al12 Al5 2.683590 1_566
Al12 Al4 2.683686 1_555
Al12 Al7 2.683991 1_555
Al12 Ti4 2.823556 1_555
Al12 Ti0 2.823648 1_566
Al12 Al9 2.841801 1_565
Al12 Ti7 2.846210 1_555
Al12 Ti6 2.846266 1_565
Al12 Ti2 2.853276 1_555
Al13 Co6 2.459572 1_555
Al13 Co4 2.583067 1_555
Al13 Co0 2.583114 1_565
Al13 Co5 2.591174 1_564
Al13 Al5 2.683588 1_465
Al13 Al4 2.683781 1_454
Al13 Al6 2.683963 1_455
Al13 Ti3 2.823540 1_554
Al13 Ti1 2.823637 1_565
Al13 Al8 2.841928 1_565
Al13 Ti7 2.846227 1_555
Al13 Ti6 2.846289 1_565
Al13 Ti2 2.853200 1_555
Ga0 Ti5 2.503742 1_555
Ga0 Ti1 2.513992 1_655
Ga0 Ti3 2.513992 1_655
Ga0 Ti0 2.514021 1_555
Ga0 Ti4 2.514064 1_555
Ga0 Ti2 2.517081 1_655
Co0 Ti6 2.579227 1_555
Co0 Ti4 2.952142 1_445
Co0 Ti2 2.980732 1_545
Co0 Ti1 3.021572 1_555
Co1 Ti6 2.579218 1_555
Co1 Ti3 2.952209 1_545
Co1 Ti2 2.980842 1_545
Co1 Ti0 3.021482 1_556
Co2 Ti7 2.568351 1_555
Co2 Ti6 2.568374 1_554
Co2 Ti0 3.010694 1_555
Co2 Ti4 3.010742 1_555
Co2 Ti1 3.010777 1_554
Co2 Ti3 3.010866 1_554
Co3 Ti7 2.579144 1_555
Co3 Ti1 2.952166 1_555
Co3 Ti2 2.980646 1_555
Co3 Ti4 3.021707 1_555
Co4 Ti7 2.579244 1_555
Co4 Ti0 2.952251 1_455
Co4 Ti2 2.980766 1_555
Co4 Ti3 3.021648 1_554
Co5 Ti3 2.962847 1_545
Co5 Ti4 2.962936 1_445
Co5 Ti1 2.963294 1_556
Co5 Ti0 2.963395 1_456
Co6 Ti7 2.440256 1_555
Co6 Ti6 2.440332 1_565
