# generated using pymatgen
data_CaS4(IO8)2
_symmetry_space_group_name_H-M   'P 1'
_cell_length_a   6.43638544
_cell_length_b   6.43638408
_cell_length_c   8.93597359
_cell_angle_alpha   76.28646733
_cell_angle_beta   76.28647040
_cell_angle_gamma   91.07243502
_symmetry_Int_Tables_number   1
_chemical_formula_structural   CaS4(IO8)2
_chemical_formula_sum   'Ca1 S4 I2 O16'
_cell_volume   348.28342035
_cell_formula_units_Z   1
loop_
 _symmetry_equiv_pos_site_id
 _symmetry_equiv_pos_as_xyz
  1  'x, y, z'
loop_
 _atom_site_type_symbol
 _atom_site_label
 _atom_site_symmetry_multiplicity
 _atom_site_fract_x
 _atom_site_fract_y
 _atom_site_fract_z
 _atom_site_occupancy
  Ca  Ca0  1  0.00000000  0.00000000  0.00000000  1
  S  S0  1  0.08132001  0.58227105  0.75181750  1
  S  S1  1  0.58227105  0.08132001  0.75181750  1
  S  S2  1  0.91867999  0.41772895  0.24818250  1
  S  S3  1  0.41772895  0.91867999  0.24818250  1
  I  I0  1  0.00000000  0.00000000  0.50000000  1
  I  I1  1  0.50000000  0.50000000  0.50000000  1
  O  O0  1  0.32275021  0.63898487  0.68142286  1
  O  O1  1  0.63898487  0.32275021  0.68142286  1
  O  O2  1  0.67724979  0.36101513  0.31857714  1
  O  O3  1  0.36101513  0.67724979  0.31857714  1
  O  O4  1  0.01486332  0.70191832  0.86881194  1
  O  O5  1  0.70191832  0.01486332  0.86881194  1
  O  O6  1  0.98513668  0.29808168  0.13118806  1
  O  O7  1  0.29808168  0.98513668  0.13118806  1
  O  O8  1  0.98207069  0.66358845  0.61014963  1
  O  O9  1  0.66358845  0.98207069  0.61014963  1
  O  O10  1  0.01792931  0.33641155  0.38985037  1
  O  O11  1  0.33641155  0.01792931  0.38985037  1
  O  O12  1  0.03451598  0.35423471  0.80159741  1
  O  O13  1  0.35423471  0.03451598  0.80159741  1
  O  O14  1  0.96548402  0.64576529  0.19840259  1
  O  O15  1  0.64576529  0.96548402  0.19840259  1
loop_
_geom_bond_atom_site_label_1
_geom_bond_atom_site_label_2
_geom_bond_distance
_geom_bond_site_symmetry_2
Ca0 O6 2.466660 1_455
Ca0 O4 2.466660 1_544
Ca0 O7 2.466661 1_545
Ca0 O5 2.466661 1_454
Ca0 O12 2.503734 1_554
Ca0 O14 2.503734 1_445
Ca0 O13 2.503734 1_554
Ca0 O15 2.503734 1_445
I0 O10 2.144026 1_555
I0 O8 2.144026 1_445
I0 O11 2.144026 1_555
I0 O9 2.144026 1_445
I1 O1 2.139841 1_555
I1 O3 2.139841 1_555
I1 O0 2.139841 1_555
I1 O2 2.139841 1_555
O0 S0 1.533003 1_555
O1 S1 1.533003 1_555
O2 S2 1.533003 1_555
O3 S3 1.533003 1_555
O4 S0 1.432141 1_555
O5 S1 1.432141 1_555
O6 S2 1.432141 1_555
O7 S3 1.432141 1_555
O8 S0 1.538313 1_655
O9 S1 1.538313 1_565
O10 S2 1.538313 1_455
O11 S3 1.538313 1_545
O12 S0 1.432902 1_555
O13 S1 1.432903 1_555
O14 S2 1.432902 1_555
O15 S3 1.432903 1_555
