# generated using pymatgen
data_AgRh2PbO7
_symmetry_space_group_name_H-M   'P 1'
_cell_length_a   7.11877615
_cell_length_b   7.06095745
_cell_length_c   7.11877594
_cell_angle_alpha   60.26830010
_cell_angle_beta   60.85349873
_cell_angle_gamma   60.26831326
_symmetry_Int_Tables_number   1
_chemical_formula_structural   AgRh2PbO7
_chemical_formula_sum   'Ag2 Rh4 Pb2 O14'
_cell_volume   255.65528147
_cell_formula_units_Z   2
loop_
 _symmetry_equiv_pos_site_id
 _symmetry_equiv_pos_as_xyz
  1  'x, y, z'
loop_
 _atom_site_type_symbol
 _atom_site_label
 _atom_site_symmetry_multiplicity
 _atom_site_fract_x
 _atom_site_fract_y
 _atom_site_fract_z
 _atom_site_occupancy
  Ag  Ag0  1  0.12500000  0.12500000  0.12500000  1
  Ag  Ag1  1  0.12500000  0.62500000  0.12500000  1
  Rh  Rh0  1  0.62500000  0.62500000  0.62500000  1
  Rh  Rh1  1  0.62500000  0.62500000  0.12500000  1
  Rh  Rh2  1  0.12500000  0.62500000  0.62500000  1
  Rh  Rh3  1  0.62500000  0.12500000  0.62500000  1
  Pb  Pb0  1  0.62500000  0.12500000  0.12500000  1
  Pb  Pb1  1  0.12500000  0.12500000  0.62500000  1
  O  O0  1  0.23403191  0.26596809  0.23403191  1
  O  O1  1  0.30282687  0.69717313  0.30282687  1
  O  O2  1  0.95157196  0.95512300  0.55433475  1
  O  O3  1  0.53914527  0.96085473  0.53914527  1
  O  O4  1  0.69566525  0.71102971  0.29842804  1
  O  O5  1  0.95157196  0.53897029  0.55433475  1
  O  O6  1  0.71085473  0.28914527  0.71085473  1
  O  O7  1  0.29842804  0.29487700  0.69566525  1
  O  O8  1  0.69566525  0.29487700  0.29842804  1
  O  O9  1  0.29842804  0.71102971  0.69566525  1
  O  O10  1  0.94717313  0.55282687  0.94717313  1
  O  O11  1  0.55433475  0.53897029  0.95157196  1
  O  O12  1  0.01596809  0.98403191  0.01596809  1
  O  O13  1  0.55433475  0.95512300  0.95157196  1
loop_
_geom_bond_atom_site_label_1
_geom_bond_atom_site_label_2
_geom_bond_distance
_geom_bond_site_symmetry_2
Ag0 O0 2.077281 1_555
Ag0 O12 2.077281 1_545
Ag0 O10 2.511081 1_454
Ag0 O1 2.511081 1_545
Ag0 O2 2.541893 1_445
Ag0 O7 2.541893 1_554
Ag0 O13 2.541894 1_544
Ag0 O8 2.541894 1_455
Ag1 O12 2.077281 1_555
Ag1 O0 2.077281 1_555
Ag1 O1 2.511081 1_555
Ag1 O10 2.511081 1_454
Ag1 O5 2.541893 1_455
Ag1 O9 2.541893 1_554
Ag1 O11 2.541894 1_554
Ag1 O4 2.541894 1_455
O0 Pb1 2.292091 1_555
O0 Pb0 2.292092 1_555
O1 Rh2 1.942874 1_555
O1 Rh1 1.942874 1_555
O2 Rh3 1.946767 1_565
O2 Rh2 1.948902 1_655
O2 Pb1 2.426605 1_665
O3 Rh0 1.964565 1_555
O3 Rh3 1.964566 1_565
O3 Pb0 2.442731 1_565
O3 Pb1 2.442732 1_565
O4 Rh0 1.946767 1_555
O4 Rh1 1.948902 1_555
O4 Pb0 2.426604 1_565
O5 Rh0 1.946767 1_555
O5 Rh2 1.948902 1_655
O5 Pb1 2.426604 1_655
O6 Rh0 1.964565 1_555
O6 Rh3 1.964566 1_555
O6 Pb0 2.442731 1_556
O6 Pb1 2.442732 1_655
O7 Rh3 1.946767 1_555
O7 Rh2 1.948902 1_555
O7 Pb1 2.426605 1_555
O8 Rh3 1.946766 1_555
O8 Rh1 1.948901 1_555
O8 Pb0 2.426605 1_555
O9 Rh0 1.946767 1_555
O9 Rh2 1.948902 1_555
O9 Pb1 2.426604 1_565
O10 Rh2 1.942874 1_655
O10 Rh1 1.942874 1_556
O11 Rh0 1.946767 1_555
O11 Rh1 1.948902 1_556
O11 Pb0 2.426604 1_556
O12 Pb1 2.292091 1_564
O12 Pb0 2.292092 1_465
O13 Rh3 1.946766 1_565
O13 Rh1 1.948901 1_556
O13 Pb0 2.426605 1_566
