# generated using pymatgen
data_Pd2PtCl6
_symmetry_space_group_name_H-M   'P 1'
_cell_length_a   8.19488590
_cell_length_b   8.13193581
_cell_length_c   8.19488584
_cell_angle_alpha   107.38765085
_cell_angle_beta   107.14417300
_cell_angle_gamma   107.38764866
_symmetry_Int_Tables_number   1
_chemical_formula_structural   Pd2PtCl6
_chemical_formula_sum   'Pd4 Pt2 Cl12'
_cell_volume   450.94662378
_cell_formula_units_Z   2
loop_
 _symmetry_equiv_pos_site_id
 _symmetry_equiv_pos_as_xyz
  1  'x, y, z'
loop_
 _atom_site_type_symbol
 _atom_site_label
 _atom_site_symmetry_multiplicity
 _atom_site_fract_x
 _atom_site_fract_y
 _atom_site_fract_z
 _atom_site_occupancy
  Pd  Pd0  1  0.93149471  0.93215457  0.68025370  1
  Pd  Pd1  1  0.68025370  0.93215457  0.93149471  1
  Pd  Pd2  1  0.92920061  0.67600858  0.92920061  1
  Pd  Pd3  1  0.06977045  0.32319672  0.06977045  1
  Pt  Pt0  1  0.06711783  0.06750533  0.31954193  1
  Pt  Pt1  1  0.31954193  0.06750533  0.06711783  1
  Cl  Cl0  1  0.00239746  0.25172174  0.75423546  1
  Cl  Cl1  1  0.75420663  0.00072961  0.24883204  1
  Cl  Cl2  1  0.24742366  0.75067041  0.99800891  1
  Cl  Cl3  1  0.99800891  0.75067041  0.24742366  1
  Cl  Cl4  1  0.24883204  0.00072961  0.75420663  1
  Cl  Cl5  1  0.75423546  0.25172174  0.00239746  1
  Cl  Cl6  1  0.13418223  0.38258401  0.38394448  1
  Cl  Cl7  1  0.38394448  0.38258401  0.13418223  1
  Cl  Cl8  1  0.37903740  0.13106950  0.37903740  1
  Cl  Cl9  1  0.61861411  0.86826984  0.61861411  1
  Cl  Cl10  1  0.86528223  0.61536251  0.61645717  1
  Cl  Cl11  1  0.61645717  0.61536251  0.86528223  1
loop_
_geom_bond_atom_site_label_1
_geom_bond_atom_site_label_2
_geom_bond_distance
_geom_bond_site_symmetry_2
Cl0 Pd3 2.323178 1_556
Cl0 Pd0 2.325218 1_445
Cl1 Pt0 2.304308 1_655
Cl1 Pd1 2.333068 1_544
Cl2 Pt1 2.308415 1_566
Cl2 Pd2 2.338668 1_455
Cl3 Pt0 2.308415 1_665
Cl3 Pd2 2.338668 1_554
Cl4 Pt1 2.304308 1_556
Cl4 Pd0 2.333068 1_445
Cl5 Pd3 2.323178 1_655
Cl5 Pd1 2.325218 1_544
Cl6 Pt0 2.307518 1_555
Cl6 Pd3 2.333201 1_555
Cl7 Pt1 2.307518 1_555
Cl7 Pd3 2.333201 1_555
Cl8 Pt1 2.315972 1_555
Cl8 Pt0 2.315972 1_555
Cl9 Pd1 2.320070 1_555
Cl9 Pd0 2.320070 1_555
Cl10 Pd2 2.320509 1_555
Cl10 Pd0 2.323053 1_555
Cl11 Pd2 2.320509 1_555
Cl11 Pd1 2.323053 1_555
