# generated using pymatgen
data_SrCdSnSe4
_symmetry_space_group_name_H-M   'P 1'
_cell_length_a   6.50150974
_cell_length_b   6.50150935
_cell_length_c   11.03626774
_cell_angle_alpha   90.00000000
_cell_angle_beta   90.00000000
_cell_angle_gamma   116.08473995
_symmetry_Int_Tables_number   1
_chemical_formula_structural   SrCdSnSe4
_chemical_formula_sum   'Sr2 Cd2 Sn2 Se8'
_cell_volume   418.98353460
_cell_formula_units_Z   2
loop_
 _symmetry_equiv_pos_site_id
 _symmetry_equiv_pos_as_xyz
  1  'x, y, z'
loop_
 _atom_site_type_symbol
 _atom_site_label
 _atom_site_symmetry_multiplicity
 _atom_site_fract_x
 _atom_site_fract_y
 _atom_site_fract_z
 _atom_site_occupancy
  Sr  Sr0  1  0.95248330  0.95248330  0.50000000  1
  Sr  Sr1  1  0.95248330  0.95248330  0.00000000  1
  Cd  Cd0  1  0.67015475  0.35024707  0.75000000  1
  Cd  Cd1  1  0.35024707  0.67015475  0.25000000  1
  Sn  Sn0  1  0.24005890  0.67634408  0.75000000  1
  Sn  Sn1  1  0.67634408  0.24005890  0.25000000  1
  Se  Se0  1  0.98800433  0.46429937  0.57084707  1
  Se  Se1  1  0.46429937  0.98800433  0.42915293  1
  Se  Se2  1  0.65671685  0.77122503  0.75000000  1
  Se  Se3  1  0.77122503  0.65671685  0.25000000  1
  Se  Se4  1  0.98800433  0.46429937  0.92915293  1
  Se  Se5  1  0.46429937  0.98800433  0.07084707  1
  Se  Se6  1  0.23639748  0.07008286  0.75000000  1
  Se  Se7  1  0.07008286  0.23639748  0.25000000  1
loop_
_geom_bond_atom_site_label_1
_geom_bond_atom_site_label_2
_geom_bond_distance
_geom_bond_site_symmetry_2
Cd0 Se6 2.598732 1_555
Cd0 Se4 2.716979 1_555
Cd0 Se0 2.716979 1_555
Cd0 Se2 2.776516 1_555
Cd1 Se7 2.598732 1_555
Cd1 Se1 2.716979 1_555
Cd1 Se5 2.716979 1_555
Cd1 Se3 2.776516 1_555
Se0 Sn0 2.551184 1_655
Se0 Sr0 3.325907 1_545
Se0 Sr0 3.373888 1_555
Se1 Sn1 2.551184 1_565
Se1 Sr0 3.325907 1_455
Se1 Sr0 3.373888 1_555
Se2 Sn0 2.499837 1_555
Se2 Sr0 3.272012 1_555
Se2 Sr1 3.272012 1_556
Se3 Sn1 2.499837 1_555
Se3 Sr1 3.272012 1_555
Se3 Sr0 3.272012 1_555
Se4 Sn0 2.551184 1_655
Se4 Sr1 3.325907 1_546
Se4 Sr1 3.373888 1_556
Se5 Sn1 2.551184 1_565
Se5 Sr1 3.325907 1_455
Se5 Sr1 3.373888 1_555
Se6 Sn0 2.570452 1_545
Se6 Sr1 3.219186 1_446
Se6 Sr0 3.219186 1_445
Se7 Sn1 2.570452 1_455
Se7 Sr1 3.219186 1_445
Se7 Sr0 3.219186 1_445
