# generated using pymatgen
data_Na4Ti(TeSe)2
_symmetry_space_group_name_H-M   'P 1'
_cell_length_a   7.61665157
_cell_length_b   9.28038340
_cell_length_c   14.75373302
_cell_angle_alpha   90.00000000
_cell_angle_beta   90.00000000
_cell_angle_gamma   90.00000000
_symmetry_Int_Tables_number   1
_chemical_formula_structural   Na4Ti(TeSe)2
_chemical_formula_sum   'Na16 Ti4 Te8 Se8'
_cell_volume   1042.87421043
_cell_formula_units_Z   4
loop_
 _symmetry_equiv_pos_site_id
 _symmetry_equiv_pos_as_xyz
  1  'x, y, z'
loop_
 _atom_site_type_symbol
 _atom_site_label
 _atom_site_symmetry_multiplicity
 _atom_site_fract_x
 _atom_site_fract_y
 _atom_site_fract_z
 _atom_site_occupancy
  Na  Na0  1  0.50000000  0.50000000  0.50000000  1
  Na  Na1  1  0.10507463  0.45890104  0.26376927  1
  Na  Na2  1  0.10507463  0.04109896  0.26376927  1
  Na  Na3  1  0.98543005  0.75000000  0.47024114  1
  Na  Na4  1  0.01456995  0.25000000  0.52975886  1
  Na  Na5  1  0.60507463  0.95890104  0.23623073  1
  Na  Na6  1  0.39492537  0.04109896  0.76376927  1
  Na  Na7  1  0.89492537  0.95890104  0.73623073  1
  Na  Na8  1  0.39492537  0.45890104  0.76376927  1
  Na  Na9  1  0.00000000  0.50000000  0.00000000  1
  Na  Na10  1  0.48543005  0.25000000  0.02975886  1
  Na  Na11  1  0.60507463  0.54109896  0.23623073  1
  Na  Na12  1  0.51456995  0.75000000  0.97024114  1
  Na  Na13  1  0.00000000  0.00000000  0.00000000  1
  Na  Na14  1  0.89492537  0.54109896  0.73623073  1
  Na  Na15  1  0.50000000  0.00000000  0.50000000  1
  Ti  Ti0  1  0.77239362  0.25000000  0.83935450  1
  Ti  Ti1  1  0.72760638  0.25000000  0.33935450  1
  Ti  Ti2  1  0.27239362  0.75000000  0.66064550  1
  Ti  Ti3  1  0.22760638  0.75000000  0.16064550  1
  Te  Te0  1  0.61504884  0.75000000  0.64610603  1
  Te  Te1  1  0.38495116  0.25000000  0.35389397  1
  Te  Te2  1  0.32174940  0.75000000  0.33268176  1
  Te  Te3  1  0.17825060  0.75000000  0.83268176  1
  Te  Te4  1  0.11504884  0.25000000  0.85389397  1
  Te  Te5  1  0.88495116  0.75000000  0.14610603  1
  Te  Te6  1  0.67825060  0.25000000  0.66731824  1
  Te  Te7  1  0.82174940  0.25000000  0.16731824  1
  Se  Se0  1  0.83349851  0.46648611  0.40407703  1
  Se  Se1  1  0.66650149  0.03351389  0.90407703  1
  Se  Se2  1  0.33349851  0.96648611  0.09592297  1
  Se  Se3  1  0.33349851  0.53351389  0.09592297  1
  Se  Se4  1  0.16650149  0.53351389  0.59592297  1
  Se  Se5  1  0.83349851  0.03351389  0.40407703  1
  Se  Se6  1  0.16650149  0.96648611  0.59592297  1
  Se  Se7  1  0.66650149  0.46648611  0.90407703  1
loop_
_geom_bond_atom_site_label_1
_geom_bond_atom_site_label_2
_geom_bond_distance
_geom_bond_site_symmetry_2
Na0 Se4 2.924365 1_555
Na0 Se0 2.924365 1_555
Na0 Te0 3.285936 1_555
Na0 Te1 3.285936 1_555
Na0 Te6 3.649651 1_555
Na0 Te2 3.649651 1_555
Na1 Se0 2.927253 1_455
Na1 Se3 3.104644 1_555
Na1 Te1 3.173447 1_555
Na1 Te7 3.231156 1_455
Na1 Ti3 3.237903 1_555
Na1 Te2 3.324978 1_555
Na1 Te5 3.622534 1_455
Na2 Se5 2.927253 1_455
Na2 Se2 3.104644 1_545
Na2 Te1 3.173447 1_555
Na2 Te7 3.231156 1_455
Na2 Ti3 3.237903 1_545
Na2 Te2 3.324978 1_545
Na2 Te5 3.622534 1_445
Na3 Se5 3.035592 1_565
Na3 Se0 3.035592 1_555
Na3 Se6 3.062156 1_655
Na3 Se4 3.062156 1_655
Na3 Te2 3.268159 1_655
Na4 Se4 3.035592 1_555
Na4 Se6 3.035592 1_545
Na4 Se0 3.062156 1_455
Na4 Se5 3.062156 1_455
Na4 Te6 3.268159 1_455
Na5 Se2 2.927253 1_555
Na5 Se5 3.104644 1_565
Na5 Te5 3.173447 1_555
Na5 Te2 3.231156 1_555
Na5 Ti1 3.237903 1_565
Na5 Te7 3.324978 1_565
Na5 Te1 3.622534 1_565
Na6 Se1 2.927253 1_555
Na6 Se6 3.104644 1_545
Na6 Te4 3.173447 1_555
Na6 Te6 3.231156 1_555
Na6 Ti2 3.237903 1_545
Na6 Te3 3.324978 1_545
Na6 Te0 3.622534 1_545
Na7 Se6 2.927253 1_655
Na7 Se1 3.104644 1_565
Na7 Te0 3.173447 1_555
Na7 Te3 3.231156 1_655
Na7 Ti0 3.237903 1_565
Na7 Te6 3.324978 1_565
Na7 Te4 3.622534 1_665
Na8 Se7 2.927253 1_555
Na8 Se4 3.104644 1_555
Na8 Te4 3.173447 1_555
Na8 Te6 3.231156 1_555
Na8 Ti2 3.237903 1_555
Na8 Te3 3.324978 1_555
Na8 Te0 3.622534 1_555
Na9 Se3 2.924365 1_555
Na9 Se7 2.924365 1_454
Na9 Te5 3.285936 1_455
Na9 Te4 3.285936 1_554
Na9 Te7 3.649651 1_455
Na9 Te3 3.649651 1_554
Na10 Se3 3.035592 1_555
Na10 Se2 3.035592 1_545
Na10 Se7 3.062156 1_554
Na10 Se1 3.062156 1_554
Na10 Te7 3.268159 1_555
Na11 Se3 2.927253 1_555
Na11 Se0 3.104644 1_555
Na11 Te5 3.173447 1_555
Na11 Te2 3.231156 1_555
Na11 Ti1 3.237903 1_555
Na11 Te7 3.324978 1_555
Na11 Te1 3.622534 1_555
Na12 Se1 3.035592 1_565
Na12 Se7 3.035592 1_555
Na12 Se2 3.062156 1_556
Na12 Se3 3.062156 1_556
Na12 Te3 3.268159 1_555
Na13 Se2 2.924365 1_545
Na13 Se1 2.924365 1_454
Na13 Te5 3.285936 1_445
Na13 Te4 3.285936 1_554
Na13 Te7 3.649651 1_455
Na13 Te3 3.649651 1_544
Na14 Se4 2.927253 1_655
Na14 Se7 3.104644 1_555
Na14 Te0 3.173447 1_555
Na14 Te3 3.231156 1_655
Na14 Ti0 3.237903 1_555
Na14 Te6 3.324978 1_555
Na14 Te4 3.622534 1_655
Na15 Se5 2.924365 1_555
Na15 Se6 2.924365 1_545
Na15 Te0 3.285936 1_545
Na15 Te1 3.285936 1_555
Na15 Te6 3.649651 1_555
Na15 Te2 3.649651 1_545
Te0 Ti2 2.618686 1_555
Te1 Ti1 2.618686 1_555
Te2 Ti3 2.637520 1_555
Te3 Ti2 2.637520 1_555
Te4 Ti0 2.618686 1_455
Te5 Ti3 2.618686 1_655
Te6 Ti0 2.637520 1_555
Te7 Ti1 2.637520 1_555
Se0 Ti1 2.366162 1_555
Se1 Ti0 2.366162 1_555
Se2 Ti3 2.366162 1_555
Se3 Ti3 2.366162 1_555
Se4 Ti2 2.366162 1_555
Se5 Ti1 2.366162 1_555
Se6 Ti2 2.366162 1_555
Se7 Ti0 2.366162 1_555
