# generated using pymatgen
data_Y4LuOs2
_symmetry_space_group_name_H-M   'P 1'
_cell_length_a   6.33276840
_cell_length_b   7.34246938
_cell_length_c   8.39524204
_cell_angle_alpha   96.86416477
_cell_angle_beta   112.15812883
_cell_angle_gamma   89.99999293
_symmetry_Int_Tables_number   1
_chemical_formula_structural   Y4LuOs2
_chemical_formula_sum   'Y8 Lu2 Os4'
_cell_volume   358.51063787
_cell_formula_units_Z   2
loop_
 _symmetry_equiv_pos_site_id
 _symmetry_equiv_pos_as_xyz
  1  'x, y, z'
loop_
 _atom_site_type_symbol
 _atom_site_label
 _atom_site_symmetry_multiplicity
 _atom_site_fract_x
 _atom_site_fract_y
 _atom_site_fract_z
 _atom_site_occupancy
  Y  Y0  1  0.52583470  0.08366207  0.81854869  1
  Y  Y1  1  0.47416530  0.91633793  0.18145131  1
  Y  Y2  1  0.70728501  0.41633793  0.18145131  1
  Y  Y3  1  0.29271499  0.58366207  0.81854869  1
  Y  Y4  1  0.29473722  0.31839275  0.43305430  1
  Y  Y5  1  0.70526278  0.68160725  0.56694570  1
  Y  Y6  1  0.86168292  0.18160725  0.56694570  1
  Y  Y7  1  0.13831708  0.81839275  0.43305430  1
  Lu  Lu0  1  0.07716701  0.25000000  0.00000000  1
  Lu  Lu1  1  0.92283299  0.75000000  1.00000000  1
  Os  Os0  1  0.31607004  0.57739393  0.21478307  1
  Os  Os1  1  0.68392996  0.42260607  0.78521693  1
  Os  Os2  1  0.10128697  0.92260607  0.78521693  1
  Os  Os3  1  0.89871303  0.07739393  0.21478307  1
loop_
_geom_bond_atom_site_label_1
_geom_bond_atom_site_label_2
_geom_bond_distance
_geom_bond_site_symmetry_2
Lu0 Os1 2.866721 1_454
Lu0 Os3 2.866721 1_455
Lu0 Os2 2.867926 1_544
Lu0 Os0 2.867927 1_555
Lu1 Os0 2.866721 1_656
Lu1 Os2 2.866721 1_655
Lu1 Os3 2.867926 1_566
Lu1 Os1 2.867927 1_555
Os0 Y1 2.766228 1_555
Os0 Y4 2.830599 1_555
Os0 Y2 2.838742 1_555
Os0 Y7 2.921829 1_555
Os0 Y5 3.059994 1_555
Os0 Y3 3.279475 1_554
Os1 Y0 2.766228 1_555
Os1 Y5 2.830599 1_555
Os1 Y3 2.838742 1_555
Os1 Y6 2.921829 1_555
Os1 Y4 3.059994 1_555
Os1 Y2 3.279475 1_556
Os2 Y3 2.766231 1_555
Os2 Y6 2.830598 1_465
Os2 Y0 2.838748 1_565
Os2 Y5 2.921829 1_455
Os2 Y7 3.059994 1_555
Os2 Y1 3.279473 1_556
Os3 Y2 2.766231 1_555
Os3 Y7 2.830598 1_645
Os3 Y1 2.838748 1_545
Os3 Y4 2.921829 1_655
Os3 Y6 3.059994 1_555
Os3 Y0 3.279473 1_554
