# generated using pymatgen
data_Hf4Tc(GeIr)6
_symmetry_space_group_name_H-M   'P 1'
_cell_length_a   7.05722126
_cell_length_b   7.05722229
_cell_length_c   7.05722130
_cell_angle_alpha   109.47121779
_cell_angle_beta   109.47122074
_cell_angle_gamma   109.47122154
_symmetry_Int_Tables_number   1
_chemical_formula_structural   Hf4Tc(GeIr)6
_chemical_formula_sum   'Hf4 Tc1 Ge6 Ir6'
_cell_volume   270.56984087
_cell_formula_units_Z   1
loop_
 _symmetry_equiv_pos_site_id
 _symmetry_equiv_pos_as_xyz
  1  'x, y, z'
loop_
 _atom_site_type_symbol
 _atom_site_label
 _atom_site_symmetry_multiplicity
 _atom_site_fract_x
 _atom_site_fract_y
 _atom_site_fract_z
 _atom_site_occupancy
  Hf  Hf0  1  0.50000000  0.50000000  0.50000000  1
  Hf  Hf1  1  0.00000000  0.00000000  0.50000000  1
  Hf  Hf2  1  0.50000000  0.00000000  0.00000000  1
  Hf  Hf3  1  0.00000000  0.50000000  0.00000000  1
  Tc  Tc0  1  0.00000000  0.00000000  0.00000000  1
  Ge  Ge0  1  0.31173340  0.31173340  1.00000000  1
  Ge  Ge1  1  1.00000000  0.31173340  0.31173340  1
  Ge  Ge2  1  0.00000000  0.68826660  0.68826660  1
  Ge  Ge3  1  0.68826660  1.00000000  0.68826660  1
  Ge  Ge4  1  0.31173340  0.00000000  0.31173340  1
  Ge  Ge5  1  0.68826660  0.68826660  0.00000000  1
  Ir  Ir0  1  0.75000000  0.25000000  0.50000000  1
  Ir  Ir1  1  0.50000000  0.25000000  0.75000000  1
  Ir  Ir2  1  0.50000000  0.75000000  0.25000000  1
  Ir  Ir3  1  0.25000000  0.50000000  0.75000000  1
  Ir  Ir4  1  0.75000000  0.50000000  0.25000000  1
  Ir  Ir5  1  0.25000000  0.75000000  0.50000000  1
loop_
_geom_bond_atom_site_label_1
_geom_bond_atom_site_label_2
_geom_bond_distance
_geom_bond_site_symmetry_2
Hf0 Ir3 2.881099 1_555
Hf0 Ir4 2.881099 1_555
Hf0 Ir2 2.881099 1_555
Hf0 Ir1 2.881099 1_555
Hf0 Ir0 2.881099 1_555
Hf0 Ir5 2.881099 1_555
Hf1 Ir1 2.881099 1_555
Hf1 Ir2 2.881099 1_445
Hf1 Ir0 2.881099 1_455
Hf1 Ir5 2.881099 1_545
Hf1 Ir4 2.881099 1_445
Hf1 Ir3 2.881099 1_555
Hf2 Ir5 2.881099 1_544
Hf2 Ir0 2.881099 1_555
Hf2 Ir2 2.881099 1_545
Hf2 Ir1 2.881099 1_554
Hf2 Ir4 2.881099 1_555
Hf2 Ir3 2.881099 1_544
Hf3 Ir3 2.881099 1_554
Hf3 Ir4 2.881099 1_455
Hf3 Ir2 2.881099 1_555
Hf3 Ir1 2.881099 1_454
Hf3 Ir0 2.881099 1_454
Hf3 Ir5 2.881099 1_555
Ge0 Tc0 2.540309 1_556
Ge0 Ir4 2.550308 1_556
Ge0 Ir1 2.550309 1_555
Ge0 Ir3 2.550309 1_555
Ge0 Ir2 2.550309 1_556
Ge0 Hf0 2.924688 1_556
Ge0 Hf1 2.924689 1_555
Ge0 Hf3 2.924689 1_556
Ge0 Hf2 2.924689 1_556
Ge1 Tc0 2.540309 1_655
Ge1 Ir0 2.550308 1_555
Ge1 Ir3 2.550309 1_655
Ge1 Ir4 2.550309 1_555
Ge1 Ir5 2.550309 1_655
Ge1 Hf0 2.924688 1_655
Ge1 Hf2 2.924688 1_555
Ge1 Hf3 2.924688 1_655
Ge1 Hf1 2.924689 1_655
Ge2 Tc0 2.540309 1_566
Ge2 Ir5 2.550308 1_555
Ge2 Ir4 2.550309 1_455
Ge2 Ir3 2.550309 1_555
Ge2 Ir0 2.550309 1_455
Ge2 Hf0 2.924688 1_455
Ge2 Hf2 2.924688 1_566
Ge2 Hf3 2.924688 1_556
Ge2 Hf1 2.924689 1_565
Ge3 Tc0 2.540308 1_666
Ge3 Ir5 2.550309 1_555
Ge3 Ir2 2.550309 1_555
Ge3 Ir0 2.550309 1_565
Ge3 Ir1 2.550309 1_565
Ge3 Hf1 2.924688 1_665
Ge3 Hf2 2.924688 1_566
Ge3 Hf3 2.924689 1_666
Ge3 Hf0 2.924689 1_555
Ge4 Tc0 2.540308 1_555
Ge4 Ir0 2.550309 1_555
Ge4 Ir1 2.550309 1_555
Ge4 Ir5 2.550309 1_545
Ge4 Ir2 2.550309 1_545
Ge4 Hf1 2.924688 1_555
Ge4 Hf2 2.924688 1_555
Ge4 Hf3 2.924689 1_545
Ge4 Hf0 2.924689 1_555
Ge5 Tc0 2.540309 1_665
Ge5 Ir3 2.550308 1_554
Ge5 Ir2 2.550309 1_555
Ge5 Ir4 2.550309 1_555
Ge5 Ir1 2.550309 1_554
Ge5 Hf0 2.924688 1_554
Ge5 Hf1 2.924689 1_665
Ge5 Hf3 2.924689 1_655
Ge5 Hf2 2.924689 1_565
