# generated using pymatgen
data_K6ScTe4I
_symmetry_space_group_name_H-M   'P 1'
_cell_length_a   11.44277965
_cell_length_b   11.44277939
_cell_length_c   8.50616878
_cell_angle_alpha   90.00000000
_cell_angle_beta   90.00000000
_cell_angle_gamma   120.00000073
_symmetry_Int_Tables_number   1
_chemical_formula_structural   K6ScTe4I
_chemical_formula_sum   'K12 Sc2 Te8 I2'
_cell_volume   964.55652775
_cell_formula_units_Z   2
loop_
 _symmetry_equiv_pos_site_id
 _symmetry_equiv_pos_as_xyz
  1  'x, y, z'
loop_
 _atom_site_type_symbol
 _atom_site_label
 _atom_site_symmetry_multiplicity
 _atom_site_fract_x
 _atom_site_fract_y
 _atom_site_fract_z
 _atom_site_occupancy
  K  K0  1  0.13563518  0.86436482  0.51050432  1
  K  K1  1  0.72872764  0.86436482  0.51050432  1
  K  K2  1  0.94392229  0.47196115  0.32177701  1
  K  K3  1  0.52803885  0.47196115  0.32177701  1
  K  K4  1  0.86436482  0.72872764  0.01050432  1
  K  K5  1  0.27127236  0.13563518  0.01050432  1
  K  K6  1  0.52803885  0.05607771  0.32177701  1
  K  K7  1  0.13563518  0.27127236  0.51050432  1
  K  K8  1  0.86436482  0.13563518  0.01050432  1
  K  K9  1  0.05607771  0.52803885  0.82177701  1
  K  K10  1  0.47196115  0.94392229  0.82177701  1
  K  K11  1  0.47196115  0.52803885  0.82177701  1
  Sc  Sc0  1  0.66666700  0.33333300  0.71372092  1
  Sc  Sc1  1  0.33333300  0.66666700  0.21372092  1
  Te  Te0  1  0.40351463  0.20175782  0.60453057  1
  Te  Te1  1  0.59648537  0.79824218  0.10453057  1
  Te  Te2  1  0.66666700  0.33333300  0.04562931  1
  Te  Te3  1  0.79824218  0.59648537  0.60453057  1
  Te  Te4  1  0.20175782  0.40351463  0.10453057  1
  Te  Te5  1  0.33333300  0.66666700  0.54562931  1
  Te  Te6  1  0.20175782  0.79824218  0.10453057  1
  Te  Te7  1  0.79824218  0.20175782  0.60453057  1
  I  I0  1  0.00000000  0.00000000  0.27081908  1
  I  I1  1  0.00000000  0.00000000  0.77081908  1
loop_
_geom_bond_atom_site_label_1
_geom_bond_atom_site_label_2
_geom_bond_distance
_geom_bond_site_symmetry_2
K0 Te0 3.620301 1_565
K0 Te3 3.620301 1_455
K0 Te6 3.693590 1_555
K0 Te5 3.929642 1_555
K1 Te7 3.620298 1_565
K1 Te3 3.620309 1_555
K1 Te1 3.693579 1_555
K1 Te5 3.929632 1_555
K2 Te7 3.601274 1_555
K2 Te3 3.601281 1_555
K2 Te2 3.614763 1_555
K2 Te6 3.878609 1_655
K2 Te4 3.878616 1_655
K3 Te0 3.601274 1_555
K3 Te3 3.601274 1_555
K3 Te2 3.614771 1_555
K3 Te1 3.878606 1_555
K3 Te4 3.878606 1_555
K4 Te6 3.620298 1_655
K4 Te1 3.620309 1_555
K4 Te3 3.693579 1_554
K4 Te2 3.929632 1_555
K5 Te6 3.620298 1_545
K5 Te4 3.620309 1_555
K5 Te0 3.693579 1_554
K5 Te2 3.929632 1_555
K6 Te7 3.601274 1_555
K6 Te0 3.601281 1_555
K6 Te2 3.614763 1_555
K6 Te6 3.878609 1_545
K6 Te1 3.878616 1_545
K7 Te7 3.620298 1_455
K7 Te0 3.620309 1_555
K7 Te4 3.693579 1_555
K7 Te5 3.929632 1_555
K8 Te1 3.620301 1_545
K8 Te4 3.620301 1_655
K8 Te7 3.693590 1_554
K8 Te2 3.929642 1_555
K9 Te6 3.601274 1_556
K9 Te4 3.601281 1_556
K9 Te5 3.614763 1_555
K9 Te7 3.878609 1_455
K9 Te3 3.878616 1_455
K10 Te6 3.601274 1_556
K10 Te1 3.601281 1_556
K10 Te5 3.614763 1_555
K10 Te7 3.878609 1_565
K10 Te0 3.878616 1_565
K11 Te1 3.601274 1_556
K11 Te4 3.601274 1_556
K11 Te5 3.614771 1_555
K11 Te0 3.878606 1_555
K11 Te3 3.878606 1_555
Sc0 Te7 2.768216 1_555
Sc0 Te3 2.768235 1_555
Sc0 Te0 2.768235 1_555
Sc0 Te2 2.823269 1_556
Sc1 Te6 2.768216 1_555
Sc1 Te4 2.768235 1_555
Sc1 Te1 2.768235 1_555
Sc1 Te5 2.823269 1_555
I0 K0 3.373905 1_545
I0 K7 3.373921 1_555
I0 K1 3.373921 1_445
I0 K8 3.482752 1_455
I0 K4 3.482767 1_445
I0 K5 3.482767 1_555
I1 K8 3.373905 1_456
I1 K4 3.373921 1_446
I1 K5 3.373921 1_556
I1 K0 3.482752 1_545
I1 K7 3.482767 1_555
I1 K1 3.482767 1_445
