# generated using pymatgen
data_MgZr3Si6Ir7
_symmetry_space_group_name_H-M   'P 1'
_cell_length_a   6.94541227
_cell_length_b   6.94541152
_cell_length_c   6.94541168
_cell_angle_alpha   109.20712430
_cell_angle_beta   109.20712891
_cell_angle_gamma   109.20713441
_symmetry_Int_Tables_number   1
_chemical_formula_structural   MgZr3Si6Ir7
_chemical_formula_sum   'Mg1 Zr3 Si6 Ir7'
_cell_volume   260.40360094
_cell_formula_units_Z   1
loop_
 _symmetry_equiv_pos_site_id
 _symmetry_equiv_pos_as_xyz
  1  'x, y, z'
loop_
 _atom_site_type_symbol
 _atom_site_label
 _atom_site_symmetry_multiplicity
 _atom_site_fract_x
 _atom_site_fract_y
 _atom_site_fract_z
 _atom_site_occupancy
  Mg  Mg0  1  0.50000000  0.50000000  0.50000000  1
  Zr  Zr0  1  0.00000000  0.00000000  0.50000000  1
  Zr  Zr1  1  0.00000000  0.50000000  0.00000000  1
  Zr  Zr2  1  0.50000000  0.00000000  0.00000000  1
  Si  Si0  1  0.00749318  0.32300206  0.32300206  1
  Si  Si1  1  0.99250682  0.67699794  0.67699794  1
  Si  Si2  1  0.32300206  0.00749318  0.32300206  1
  Si  Si3  1  0.67699794  0.99250682  0.67699794  1
  Si  Si4  1  0.32300206  0.32300206  0.00749318  1
  Si  Si5  1  0.67699794  0.67699794  0.99250682  1
  Ir  Ir0  1  0.50000000  0.75015783  0.24984217  1
  Ir  Ir1  1  0.50000000  0.24984217  0.75015783  1
  Ir  Ir2  1  0.24984217  0.50000000  0.75015783  1
  Ir  Ir3  1  0.75015783  0.50000000  0.24984217  1
  Ir  Ir4  1  0.75015783  0.24984217  0.50000000  1
  Ir  Ir5  1  0.24984217  0.75015783  0.50000000  1
  Ir  Ir6  1  0.00000000  0.00000000  0.00000000  1
loop_
_geom_bond_atom_site_label_1
_geom_bond_atom_site_label_2
_geom_bond_distance
_geom_bond_site_symmetry_2
Mg0 Si3 2.862763 1_555
Mg0 Si2 2.862763 1_555
Mg0 Si5 2.862763 1_555
Mg0 Si4 2.862763 1_555
Mg0 Si1 2.862763 1_555
Mg0 Si0 2.862763 1_555
Si0 Zr0 2.885577 1_555
Si0 Zr1 2.885577 1_555
Si0 Zr2 2.961824 1_455
Si1 Zr0 2.885577 1_665
Si1 Zr1 2.885577 1_656
Si1 Zr2 2.961824 1_666
Si2 Zr2 2.885578 1_555
Si2 Zr0 2.885578 1_555
Si2 Zr1 2.961824 1_545
Si3 Zr2 2.885578 1_566
Si3 Zr0 2.885578 1_665
Si3 Zr1 2.961824 1_666
Si4 Zr2 2.885578 1_555
Si4 Zr1 2.885578 1_555
Si4 Zr0 2.961824 1_554
Si5 Zr2 2.885578 1_566
Si5 Zr1 2.885578 1_656
Si5 Zr0 2.961824 1_666
Ir0 Si4 2.469678 1_555
Ir0 Si3 2.469678 1_555
Ir0 Si5 2.494592 1_554
Ir0 Si2 2.494592 1_565
Ir0 Zr2 2.829037 1_565
Ir0 Mg0 2.832611 1_555
Ir0 Zr1 2.858482 1_555
Ir0 Zr0 2.858482 1_665
Ir1 Si5 2.469678 1_555
Ir1 Si2 2.469678 1_555
Ir1 Si4 2.494592 1_556
Ir1 Si3 2.494592 1_545
Ir1 Zr2 2.829037 1_556
Ir1 Mg0 2.832611 1_555
Ir1 Zr1 2.858482 1_656
Ir1 Zr0 2.858482 1_555
Ir2 Si0 2.469678 1_555
Ir2 Si5 2.469679 1_555
Ir2 Si4 2.494592 1_556
Ir2 Si1 2.494592 1_455
Ir2 Zr1 2.829037 1_556
Ir2 Mg0 2.832611 1_555
Ir2 Zr2 2.858482 1_566
Ir2 Zr0 2.858482 1_555
Ir3 Si1 2.469678 1_555
Ir3 Si4 2.469679 1_555
Ir3 Si5 2.494592 1_554
Ir3 Si0 2.494592 1_655
Ir3 Zr1 2.829037 1_655
Ir3 Mg0 2.832611 1_555
Ir3 Zr2 2.858482 1_555
Ir3 Zr0 2.858482 1_665
Ir4 Si1 2.469678 1_555
Ir4 Si2 2.469678 1_555
Ir4 Si3 2.494592 1_545
Ir4 Si0 2.494592 1_655
Ir4 Zr0 2.829037 1_655
Ir4 Mg0 2.832612 1_555
Ir4 Zr2 2.858482 1_555
Ir4 Zr1 2.858482 1_656
Ir5 Si0 2.469678 1_555
Ir5 Si3 2.469678 1_555
Ir5 Si2 2.494592 1_565
Ir5 Si1 2.494592 1_455
Ir5 Zr0 2.829037 1_565
Ir5 Mg0 2.832612 1_555
Ir5 Zr2 2.858482 1_566
Ir5 Zr1 2.858482 1_555
Ir6 Si4 2.569669 1_555
Ir6 Si5 2.569669 1_444
Ir6 Si2 2.569669 1_555
Ir6 Si3 2.569669 1_444
Ir6 Si0 2.569669 1_555
Ir6 Si1 2.569669 1_444
