# generated using pymatgen
data_Y6CrB14W
_symmetry_space_group_name_H-M   'P 1'
_cell_length_a   8.14464094
_cell_length_b   8.14463951
_cell_length_c   9.42430005
_cell_angle_alpha   90.00000000
_cell_angle_beta   90.00000000
_cell_angle_gamma   155.45757883
_symmetry_Int_Tables_number   1
_chemical_formula_structural   Y6CrB14W
_chemical_formula_sum   'Y6 Cr1 B14 W1'
_cell_volume   259.67177824
_cell_formula_units_Z   1
loop_
 _symmetry_equiv_pos_site_id
 _symmetry_equiv_pos_as_xyz
  1  'x, y, z'
loop_
 _atom_site_type_symbol
 _atom_site_label
 _atom_site_symmetry_multiplicity
 _atom_site_fract_x
 _atom_site_fract_y
 _atom_site_fract_z
 _atom_site_occupancy
  Y  Y0  1  0.89441320  0.10558680  0.93758524  1
  Y  Y1  1  0.10615766  0.89384234  0.05785341  1
  Y  Y2  1  0.75559752  0.24440248  0.25000000  1
  Y  Y3  1  0.24113351  0.75886649  0.75000000  1
  Y  Y4  1  0.89441320  0.10558680  0.56241476  1
  Y  Y5  1  0.10615766  0.89384234  0.44214659  1
  Cr  Cr0  1  0.05397475  0.94602525  0.75000000  1
  B  B0  1  0.54456333  0.45543667  0.25000000  1
  B  B1  1  0.46029546  0.53970454  0.75000000  1
  B  B2  1  0.52170026  0.47829974  0.90236922  1
  B  B3  1  0.48062798  0.51937202  0.09145819  1
  B  B4  1  0.48062798  0.51937202  0.40854181  1
  B  B5  1  0.52170026  0.47829974  0.59763078  1
  B  B6  1  0.63080931  0.36919069  0.84797054  1
  B  B7  1  0.36564634  0.63435366  0.14623408  1
  B  B8  1  0.72685025  0.27314975  0.96546000  1
  B  B9  1  0.27273575  0.72726425  0.03127835  1
  B  B10  1  0.27273575  0.72726425  0.46872165  1
  B  B11  1  0.72685025  0.27314975  0.53454000  1
  B  B12  1  0.63080931  0.36919069  0.65202946  1
  B  B13  1  0.36564634  0.63435366  0.35376592  1
  W  W0  1  0.94655493  0.05344507  0.25000000  1
loop_
_geom_bond_atom_site_label_1
_geom_bond_atom_site_label_2
_geom_bond_distance
_geom_bond_site_symmetry_2
B0 B4 1.807793 1_555
B0 B3 1.807793 1_555
B0 W0 2.330277 1_565
B0 W0 2.330278 1_455
B0 Y5 2.690152 1_545
B0 Y1 2.690152 1_545
B0 Y5 2.690152 1_655
B0 Y1 2.690152 1_655
B1 B2 1.737039 1_555
B1 B5 1.737039 1_555
B1 Cr0 2.284720 1_545
B1 Cr0 2.284721 1_655
B1 Y0 2.687297 1_565
B1 Y4 2.687297 1_565
B1 Y0 2.687297 1_455
B1 Y4 2.687297 1_455
B2 B6 1.810790 1_555
B2 B3 1.898164 1_556
B2 Cr0 2.307051 1_545
B2 Cr0 2.307051 1_655
B2 Y1 2.636463 1_546
B2 Y1 2.636464 1_656
B2 Y0 2.685433 1_565
B2 Y0 2.685434 1_455
B3 B7 1.901586 1_555
B3 W0 2.350142 1_565
B3 W0 2.350142 1_455
B3 Y0 2.642472 1_564
B3 Y0 2.642473 1_454
B3 Y1 2.662544 1_545
B3 Y1 2.662545 1_655
B4 B5 1.898164 1_555
B4 W0 2.350142 1_565
B4 W0 2.350142 1_455
B4 Y4 2.642472 1_565
B4 Y4 2.642473 1_455
B4 Y5 2.662544 1_545
B4 Y5 2.662545 1_655
B5 Cr0 2.307051 1_545
B5 Cr0 2.307051 1_655
B5 Y5 2.636463 1_545
B5 Y5 2.636464 1_655
B5 Y4 2.685433 1_565
B5 Y4 2.685434 1_455
B6 B8 1.887570 1_555
B6 Cr0 2.311869 1_655
B6 Cr0 2.311870 1_545
B6 Y3 2.633008 1_545
B6 Y3 2.633009 1_655
B6 Y1 2.657631 1_656
B6 Y1 2.657631 1_546
B7 B9 1.833237 1_555
B7 W0 2.368838 1_455
B7 W0 2.368839 1_565
B7 Y2 2.649754 1_565
B7 Y2 2.649755 1_455
B7 Y0 2.659478 1_454
B7 Y0 2.659479 1_564
B8 B9 1.978573 1_546
B8 B9 1.978574 1_656
B8 Y3 2.677950 1_545
B8 Y3 2.677951 1_655
B8 Y0 2.680024 1_555
B8 Y2 2.720349 1_556
B8 Y1 2.728605 1_656
B8 Y1 2.728606 1_546
B9 Y1 2.663244 1_555
B9 Y3 2.698155 1_554
B9 Y2 2.705536 1_565
B9 Y2 2.705536 1_455
B9 Y0 2.743583 1_454
B9 Y0 2.743584 1_564
B10 B13 1.833237 1_555
B10 B11 1.978573 1_565
B10 B11 1.978574 1_455
B10 Y5 2.663244 1_555
B10 Y3 2.698155 1_555
B10 Y2 2.705536 1_565
B10 Y2 2.705536 1_455
B10 Y4 2.743583 1_455
B10 Y4 2.743584 1_565
B11 B12 1.887570 1_555
B11 Y3 2.677950 1_545
B11 Y3 2.677951 1_655
B11 Y4 2.680024 1_555
B11 Y2 2.720349 1_555
B11 Y5 2.728605 1_655
B11 Y5 2.728606 1_545
B12 B5 1.810790 1_555
B12 B6 1.846608 1_555
B12 Cr0 2.311869 1_655
B12 Cr0 2.311870 1_545
B12 Y3 2.633008 1_545
B12 Y3 2.633009 1_655
B12 Y5 2.657631 1_655
B12 Y5 2.657631 1_545
B13 B4 1.901586 1_555
B13 B7 1.955842 1_555
B13 W0 2.368838 1_455
B13 W0 2.368839 1_565
B13 Y2 2.649754 1_565
B13 Y2 2.649755 1_455
B13 Y4 2.659478 1_455
B13 Y4 2.659479 1_565
