# generated using pymatgen
data_Ta4(Nb3Sn)3
_symmetry_space_group_name_H-M   'P 1'
_cell_length_a   5.31072562
_cell_length_b   5.32458468
_cell_length_c   10.60881871
_cell_angle_alpha   90.00000000
_cell_angle_beta   90.00000000
_cell_angle_gamma   90.00000000
_symmetry_Int_Tables_number   1
_chemical_formula_structural   Ta4(Nb3Sn)3
_chemical_formula_sum   'Ta4 Nb9 Sn3'
_cell_volume   299.98989813
_cell_formula_units_Z   1
loop_
 _symmetry_equiv_pos_site_id
 _symmetry_equiv_pos_as_xyz
  1  'x, y, z'
loop_
 _atom_site_type_symbol
 _atom_site_label
 _atom_site_symmetry_multiplicity
 _atom_site_fract_x
 _atom_site_fract_y
 _atom_site_fract_z
 _atom_site_occupancy
  Ta  Ta0  1  0.00000000  0.50000000  0.37935912  1
  Ta  Ta1  1  0.50000000  0.24423700  0.49951390  1
  Ta  Ta2  1  0.50000000  0.75576300  0.49951390  1
  Ta  Ta3  1  0.00000000  0.00000000  0.49984244  1
  Nb  Nb0  1  0.00000000  0.50000000  0.87416415  1
  Nb  Nb1  1  0.50000000  0.24962441  0.00001750  1
  Nb  Nb2  1  0.75453650  0.00000000  0.25670194  1
  Nb  Nb3  1  0.75421308  0.00000000  0.74378521  1
  Nb  Nb4  1  0.00000000  0.50000000  0.12501314  1
  Nb  Nb5  1  0.00000000  0.50000000  0.62186189  1
  Nb  Nb6  1  0.50000000  0.75037559  0.00001750  1
  Nb  Nb7  1  0.24546350  0.00000000  0.25670194  1
  Nb  Nb8  1  0.24578692  0.00000000  0.74378521  1
  Sn  Sn0  1  0.50000000  0.50000000  0.24959604  1
  Sn  Sn1  1  0.50000000  0.50000000  0.74999951  1
  Sn  Sn2  1  0.00000000  0.00000000  0.00012563  1
loop_
_geom_bond_atom_site_label_1
_geom_bond_atom_site_label_2
_geom_bond_distance
_geom_bond_site_symmetry_2
Ta0 Ta3 2.953229 1_565
Ta0 Ta3 2.953229 1_555
Ta0 Ta2 3.245057 1_455
Ta0 Ta2 3.245057 1_555
Ta0 Ta1 3.245057 1_455
Ta0 Ta1 3.245057 1_555
Ta1 Ta2 2.600921 1_545
Ta1 Ta2 2.723664 1_555
Ta1 Ta3 2.956715 1_555
Ta1 Ta3 2.956715 1_655
Ta2 Ta3 2.956715 1_565
Ta2 Ta3 2.956715 1_665
Nb0 Nb4 2.661211 1_556
Nb0 Nb5 2.676629 1_555
Nb0 Sn1 2.964131 1_455
Nb0 Sn1 2.964131 1_555
Nb0 Sn2 2.978843 1_566
Nb0 Sn2 2.978843 1_556
Nb0 Nb3 3.271815 1_455
Nb0 Nb8 3.271815 1_555
Nb0 Nb8 3.271815 1_565
Nb0 Nb3 3.271815 1_465
Nb1 Nb6 2.658293 1_545
Nb1 Nb6 2.666292 1_555
Nb1 Sn0 2.964417 1_555
Nb1 Sn1 2.968582 1_554
Nb1 Sn2 2.969442 1_655
Nb1 Sn2 2.969442 1_555
Nb1 Nb8 3.313390 1_554
Nb1 Nb3 3.313390 1_554
Nb1 Nb2 3.318026 1_555
Nb1 Nb7 3.318026 1_555
Nb2 Nb7 2.607179 1_655
Nb2 Nb7 2.703547 1_555
Nb2 Ta3 2.890125 1_655
Nb2 Sn0 2.986767 1_545
Nb2 Sn0 2.986767 1_555
Nb2 Sn2 3.018025 1_655
Nb2 Ta1 3.186534 1_555
Nb2 Ta2 3.186534 1_545
Nb2 Ta0 3.237343 1_645
Nb2 Ta0 3.237343 1_655
Nb2 Nb4 3.277031 1_645
Nb2 Nb4 3.277031 1_655
Nb2 Nb6 3.318026 1_545
Nb3 Nb8 2.610614 1_655
Nb3 Nb8 2.700112 1_555
Nb3 Ta3 2.898497 1_655
Nb3 Sn1 2.985766 1_555
Nb3 Sn1 2.985766 1_545
Nb3 Sn2 3.016511 1_656
Nb3 Ta1 3.198337 1_555
Nb3 Ta2 3.198337 1_545
Nb3 Nb5 3.234914 1_645
Nb3 Nb5 3.234914 1_655
Nb3 Nb6 3.313390 1_546
Nb4 Ta0 2.698310 1_555
Nb4 Sn0 2.966106 1_555
Nb4 Sn0 2.966106 1_455
Nb4 Sn2 2.973749 1_555
Nb4 Sn2 2.973749 1_565
Nb4 Nb7 3.277031 1_555
Nb4 Nb7 3.277031 1_565
Nb5 Ta0 2.572668 1_555
Nb5 Ta3 2.960318 1_565
Nb5 Ta3 2.960318 1_555
Nb5 Sn1 2.983101 1_455
Nb5 Sn1 2.983101 1_555
Nb5 Nb8 3.234914 1_565
Nb5 Nb8 3.234914 1_555
Nb5 Ta2 3.254268 1_455
Nb5 Ta2 3.254268 1_555
Nb5 Ta1 3.254268 1_555
Nb5 Ta1 3.254268 1_455
Nb6 Sn0 2.964417 1_555
Nb6 Sn1 2.968582 1_554
Nb6 Sn2 2.969442 1_565
Nb6 Sn2 2.969442 1_665
Nb6 Nb8 3.313390 1_564
Nb6 Nb7 3.318026 1_565
Nb7 Ta3 2.890125 1_555
Nb7 Sn0 2.986767 1_545
Nb7 Sn0 2.986767 1_555
Nb7 Sn2 3.018025 1_555
Nb7 Ta1 3.186534 1_555
Nb7 Ta2 3.186534 1_545
Nb7 Ta0 3.237343 1_545
Nb7 Ta0 3.237343 1_555
Nb8 Ta3 2.898497 1_555
Nb8 Sn1 2.985766 1_555
Nb8 Sn1 2.985766 1_545
Nb8 Sn2 3.016511 1_556
Nb8 Ta1 3.198337 1_555
Nb8 Ta2 3.198337 1_545
Sn0 Ta2 2.980630 1_555
Sn0 Ta1 2.980630 1_555
Sn0 Ta0 2.990998 1_655
Sn0 Ta0 2.990998 1_555
Sn1 Ta2 2.985989 1_555
Sn1 Ta1 2.985989 1_555
