# generated using pymatgen
data_K5SrTaP4
_symmetry_space_group_name_H-M   'P 1'
_cell_length_a   10.15049950
_cell_length_b   10.15049996
_cell_length_c   7.76271483
_cell_angle_alpha   88.55456482
_cell_angle_beta   88.55456698
_cell_angle_gamma   120.54019530
_symmetry_Int_Tables_number   1
_chemical_formula_structural   K5SrTaP4
_chemical_formula_sum   'K10 Sr2 Ta2 P8'
_cell_volume   687.96556411
_cell_formula_units_Z   2
loop_
 _symmetry_equiv_pos_site_id
 _symmetry_equiv_pos_as_xyz
  1  'x, y, z'
loop_
 _atom_site_type_symbol
 _atom_site_label
 _atom_site_symmetry_multiplicity
 _atom_site_fract_x
 _atom_site_fract_y
 _atom_site_fract_z
 _atom_site_occupancy
  K  K0  1  0.46562084  0.52577447  0.49849447  1
  K  K1  1  0.05916549  0.52787781  0.50120211  1
  K  K2  1  0.52577447  0.46562084  0.99849447  1
  K  K3  1  0.52787781  0.05916549  0.00120211  1
  K  K4  1  0.86469909  0.14254133  0.67891840  1
  K  K5  1  0.29477972  0.15441754  0.71772876  1
  K  K6  1  0.85478626  0.71635528  0.65638804  1
  K  K7  1  0.14254133  0.86469909  0.17891840  1
  K  K8  1  0.71635528  0.85478626  0.15638804  1
  K  K9  1  0.15441754  0.29477972  0.21772876  1
  Sr  Sr0  1  0.46389015  0.93459319  0.49397996  1
  Sr  Sr1  1  0.93459319  0.46389015  0.99397996  1
  Ta  Ta0  1  0.66954498  0.33107664  0.39258666  1
  Ta  Ta1  1  0.33107664  0.66954498  0.89258666  1
  P  P0  1  0.68505210  0.33860765  0.70095738  1
  P  P1  1  0.33860765  0.68505210  0.20095738  1
  P  P2  1  0.79270295  0.19710232  0.28676976  1
  P  P3  1  0.40487356  0.19033626  0.31993113  1
  P  P4  1  0.79962654  0.58657582  0.26733335  1
  P  P5  1  0.19710232  0.79270295  0.78676976  1
  P  P6  1  0.58657582  0.79962654  0.76733335  1
  P  P7  1  0.19033626  0.40487356  0.81993113  1
loop_
_geom_bond_atom_site_label_1
_geom_bond_atom_site_label_2
_geom_bond_distance
_geom_bond_site_symmetry_2
K0 P6 3.247008 1_555
K0 P7 3.398368 1_555
K0 P1 3.419195 1_555
K0 P3 3.470193 1_555
K0 P4 3.550485 1_555
K1 P5 3.276068 1_555
K1 P1 3.301970 1_555
K1 P7 3.339630 1_555
K1 P4 3.517545 1_455
K1 P2 3.555194 1_455
K1 P0 3.557277 1_455
K2 P4 3.247008 1_556
K2 P3 3.398368 1_556
K2 P0 3.419195 1_555
K2 P7 3.470193 1_555
K2 P6 3.550485 1_555
K3 P2 3.276068 1_555
K3 P0 3.301970 1_554
K3 P3 3.339630 1_555
K3 P6 3.517546 1_544
K3 P5 3.555194 1_544
K3 P1 3.557277 1_545
K4 P6 3.217417 1_545
K4 P2 3.247470 1_555
K4 P7 3.255607 1_655
K4 P0 3.317357 1_555
K5 P3 3.205069 1_555
K5 P5 3.305320 1_545
K5 P7 3.318856 1_555
K5 P0 3.411781 1_555
K6 P4 3.272064 1_555
K6 P0 3.313520 1_555
K6 P6 3.335427 1_555
K6 P5 3.343460 1_655
K7 P4 3.217417 1_455
K7 P5 3.247470 1_554
K7 P3 3.255607 1_565
K7 P1 3.317357 1_555
K8 P6 3.272064 1_554
K8 P1 3.313519 1_555
K8 P4 3.335427 1_555
K8 P2 3.343460 1_565
K9 P7 3.205069 1_554
K9 P2 3.305320 1_455
K9 P3 3.318856 1_555
K9 P1 3.411781 1_555
P0 Ta0 2.403514 1_555
P0 Sr1 3.220272 1_555
P1 Ta1 2.403514 1_554
P1 Sr0 3.220272 1_555
P2 Ta0 2.412291 1_555
P2 Sr1 3.183418 1_554
P2 Sr0 3.361809 1_545
P3 Ta0 2.406890 1_555
P3 Sr0 3.219845 1_545
P4 Ta0 2.396383 1_555
P4 Sr1 3.106590 1_554
P5 Ta1 2.412291 1_555
P5 Sr0 3.183417 1_555
P5 Sr1 3.361809 1_455
P6 Ta1 2.396383 1_555
P6 Sr0 3.106590 1_555
P7 Ta1 2.406890 1_555
P7 Sr1 3.219845 1_455
