# generated using pymatgen
data_K16HfSnBi8
_symmetry_space_group_name_H-M   'P 1'
_cell_length_a   11.76365524
_cell_length_b   11.76365514
_cell_length_c   11.76365539
_cell_angle_alpha   59.99999657
_cell_angle_beta   59.99999683
_cell_angle_gamma   60.00000236
_symmetry_Int_Tables_number   1
_chemical_formula_structural   K16HfSnBi8
_chemical_formula_sum   'K16 Hf1 Sn1 Bi8'
_cell_volume   1151.09682050
_cell_formula_units_Z   1
loop_
 _symmetry_equiv_pos_site_id
 _symmetry_equiv_pos_as_xyz
  1  'x, y, z'
loop_
 _atom_site_type_symbol
 _atom_site_label
 _atom_site_symmetry_multiplicity
 _atom_site_fract_x
 _atom_site_fract_y
 _atom_site_fract_z
 _atom_site_occupancy
  K  K0  1  0.62213699  0.13358902  0.62213699  1
  K  K1  1  0.62213699  0.62213699  0.13358902  1
  K  K2  1  0.13358902  0.62213699  0.62213699  1
  K  K3  1  0.62213699  0.62213699  0.62213699  1
  K  K4  1  0.02050658  0.02050658  0.47949342  1
  K  K5  1  0.77927289  0.22072711  0.22072711  1
  K  K6  1  0.22072711  0.77927289  0.77927289  1
  K  K7  1  0.77927289  0.77927289  0.22072711  1
  K  K8  1  0.77927289  0.22072711  0.77927289  1
  K  K9  1  0.22072711  0.77927289  0.22072711  1
  K  K10  1  0.47949342  0.02050658  0.47949342  1
  K  K11  1  0.47949342  0.02050658  0.02050658  1
  K  K12  1  0.02050658  0.47949342  0.47949342  1
  K  K13  1  0.02050658  0.47949342  0.02050658  1
  K  K14  1  0.22072711  0.22072711  0.77927289  1
  K  K15  1  0.47949342  0.47949342  0.02050658  1
  Hf  Hf0  1  0.75000000  0.75000000  0.75000000  1
  Sn  Sn0  1  0.50000000  0.50000000  0.50000000  1
  Bi  Bi0  1  0.39559049  0.81322752  0.39559049  1
  Bi  Bi1  1  0.85120181  0.85120181  0.44639258  1
  Bi  Bi2  1  0.44639258  0.85120181  0.85120181  1
  Bi  Bi3  1  0.85120181  0.85120181  0.85120181  1
  Bi  Bi4  1  0.81322752  0.39559049  0.39559049  1
  Bi  Bi5  1  0.39559049  0.39559049  0.39559049  1
  Bi  Bi6  1  0.39559049  0.39559049  0.81322752  1
  Bi  Bi7  1  0.85120181  0.44639258  0.85120181  1
loop_
_geom_bond_atom_site_label_1
_geom_bond_atom_site_label_2
_geom_bond_distance
_geom_bond_site_symmetry_2
K0 Sn0 3.519372 1_555
K1 Sn0 3.519372 1_555
K2 Sn0 3.519372 1_555
K3 Sn0 3.519372 1_555
Hf0 K1 3.684366 1_556
Hf0 K0 3.684366 1_565
Hf0 K2 3.684367 1_655
Hf0 K3 3.684367 1_555
Bi0 Sn0 3.008545 1_555
Bi0 K11 3.698840 1_565
Bi0 K4 3.698840 1_565
Bi0 K10 3.698849 1_565
Bi0 K2 3.791900 1_555
Bi0 K1 3.791900 1_555
Bi0 K3 3.791909 1_555
Bi0 K9 3.807490 1_555
Bi0 K6 3.807500 1_555
Bi0 K7 3.807500 1_555
Bi1 Hf0 2.916144 1_555
Bi1 K12 3.688148 1_655
Bi1 K10 3.688148 1_565
Bi1 K4 3.688168 1_665
Bi1 K7 3.699664 1_555
Bi1 K5 3.699680 1_565
Bi1 K9 3.699680 1_655
Bi1 K3 3.862071 1_555
Bi1 K0 3.862090 1_565
Bi1 K2 3.862090 1_655
Bi2 Hf0 2.916145 1_555
Bi2 K15 3.688148 1_556
Bi2 K10 3.688148 1_565
Bi2 K11 3.688169 1_566
Bi2 K6 3.699664 1_555
Bi2 K9 3.699680 1_556
Bi2 K14 3.699681 1_565
Bi2 K3 3.862072 1_555
Bi2 K0 3.862090 1_565
Bi2 K1 3.862090 1_556
Bi3 Hf0 2.916125 1_555
Bi3 K4 3.688153 1_665
Bi3 K13 3.688153 1_656
Bi3 K11 3.688153 1_566
Bi3 K7 3.699686 1_556
Bi3 K8 3.699686 1_565
Bi3 K6 3.699686 1_655
Bi3 K1 3.862075 1_556
Bi3 K0 3.862076 1_565
Bi3 K2 3.862076 1_655
Bi4 Sn0 3.008545 1_555
Bi4 K13 3.698840 1_655
Bi4 K4 3.698840 1_655
Bi4 K12 3.698849 1_655
Bi4 K0 3.791900 1_555
Bi4 K1 3.791900 1_555
Bi4 K3 3.791909 1_555
Bi4 K5 3.807490 1_555
Bi4 K7 3.807500 1_555
Bi4 K8 3.807500 1_555
Bi5 Sn0 3.008555 1_555
Bi5 K15 3.698838 1_555
Bi5 K10 3.698838 1_555
Bi5 K12 3.698838 1_555
Bi5 K1 3.791908 1_555
Bi5 K0 3.791908 1_555
Bi5 K2 3.791908 1_555
Bi5 K14 3.807497 1_555
Bi5 K9 3.807497 1_555
Bi5 K5 3.807497 1_555
Bi6 Sn0 3.008545 1_555
Bi6 K11 3.698840 1_556
Bi6 K13 3.698840 1_556
Bi6 K15 3.698849 1_556
Bi6 K0 3.791900 1_555
Bi6 K2 3.791900 1_555
Bi6 K3 3.791909 1_555
Bi6 K14 3.807490 1_555
Bi6 K6 3.807500 1_555
Bi6 K8 3.807500 1_555
Bi7 Hf0 2.916145 1_555
Bi7 K12 3.688148 1_655
Bi7 K15 3.688148 1_556
Bi7 K13 3.688169 1_656
Bi7 K8 3.699664 1_555
Bi7 K5 3.699680 1_556
Bi7 K14 3.699681 1_655
Bi7 K3 3.862072 1_555
Bi7 K2 3.862090 1_655
Bi7 K1 3.862090 1_556
