# generated using pymatgen
data_Hf3Zr(CrRe3)2
_symmetry_space_group_name_H-M   'P 1'
_cell_length_a   5.13898825
_cell_length_b   5.26518465
_cell_length_c   8.56618696
_cell_angle_alpha   89.99999718
_cell_angle_beta   89.93329265
_cell_angle_gamma   120.81570515
_symmetry_Int_Tables_number   1
_chemical_formula_structural   Hf3Zr(CrRe3)2
_chemical_formula_sum   'Hf3 Zr1 Cr2 Re6'
_cell_volume   199.05829620
_cell_formula_units_Z   1
loop_
 _symmetry_equiv_pos_site_id
 _symmetry_equiv_pos_as_xyz
  1  'x, y, z'
loop_
 _atom_site_type_symbol
 _atom_site_label
 _atom_site_symmetry_multiplicity
 _atom_site_fract_x
 _atom_site_fract_y
 _atom_site_fract_z
 _atom_site_occupancy
  Hf  Hf0  1  0.33609137  0.66804618  0.43952406  1
  Hf  Hf1  1  0.66390062  0.33194981  0.93814715  1
  Hf  Hf2  1  0.66382697  0.33191348  0.56131008  1
  Zr  Zr0  1  0.33612306  0.66806203  0.06135422  1
  Cr  Cr0  1  0.66073961  0.83037030  0.74902606  1
  Cr  Cr1  1  0.33952544  0.16976222  0.25090520  1
  Re  Re0  1  0.82604532  0.17149203  0.25080806  1
  Re  Re1  1  0.17373589  0.34511193  0.74924578  1
  Re  Re2  1  0.17373589  0.82862396  0.74924578  1
  Re  Re3  1  0.82604532  0.65455429  0.25080806  1
  Re  Re4  1  0.99994347  0.99997173  0.49972179  1
  Re  Re5  1  0.00028506  0.00014303  0.99990377  1
loop_
_geom_bond_atom_site_label_1
_geom_bond_atom_site_label_2
_geom_bond_distance
_geom_bond_site_symmetry_2
Hf0 Re4 2.975608 1_555
Hf0 Re3 3.021887 1_555
Hf0 Re0 3.021887 1_565
Hf0 Re2 3.027813 1_555
Hf0 Re1 3.027815 1_555
Hf0 Re3 3.050858 1_455
Hf0 Re0 3.050858 1_455
Hf0 Re4 3.065186 1_455
Hf0 Re4 3.065190 1_445
Hf0 Hf2 3.143745 1_455
Hf0 Hf2 3.180438 1_565
Hf0 Hf2 3.180443 1_555
Hf0 Zr0 3.239473 1_555
Hf1 Re5 2.975530 1_555
Hf1 Re2 3.026004 1_545
Hf1 Re1 3.026007 1_555
Hf1 Re1 3.048270 1_655
Hf1 Re2 3.048273 1_655
Hf1 Re0 3.050883 1_556
Hf1 Re3 3.050887 1_556
Hf1 Re5 3.068648 1_655
Hf1 Re5 3.068657 1_665
Hf1 Zr0 3.150312 1_656
Hf1 Zr0 3.183241 1_546
Hf1 Zr0 3.183250 1_556
Hf1 Hf2 3.228057 1_555
Hf2 Re4 2.977848 1_445
Hf2 Re1 3.018222 1_555
Hf2 Re2 3.018222 1_545
Hf2 Re0 3.033031 1_555
Hf2 Re3 3.033033 1_555
Hf2 Re1 3.047362 1_655
Hf2 Re2 3.047362 1_655
Hf2 Re4 3.067140 1_545
Hf2 Re4 3.067140 1_555
Cr0 Re2 2.498007 1_555
Cr0 Re1 2.498010 1_555
Cr0 Re4 2.606389 1_555
Cr0 Re5 2.621627 1_665
Cr0 Re1 2.641004 1_665
Cr0 Re2 2.641007 1_655
Cr0 Hf0 3.015364 1_555
Cr0 Zr0 3.033197 1_556
Cr0 Hf2 3.084858 1_565
Cr0 Hf2 3.084863 1_555
Cr0 Hf1 3.091168 1_565
Cr0 Hf1 3.091177 1_555
Cr1 Re0 2.495566 1_555
Cr1 Re3 2.495571 1_555
Cr1 Re4 2.603929 1_445
Cr1 Re5 2.621726 1_554
Cr1 Re3 2.643441 1_445
Cr1 Re0 2.643447 1_455
Cr1 Hf2 3.021444 1_555
Cr1 Hf1 3.035942 1_554
Cr1 Hf0 3.088901 1_545
Cr1 Hf0 3.088910 1_555
Cr1 Zr0 3.093106 1_545
Cr1 Zr0 3.093115 1_555
Re0 Re3 2.543412 1_555
Re0 Re4 2.644231 1_545
Re0 Re5 2.656756 1_654
Re0 Re3 2.721773 1_545
Re0 Zr0 3.028310 1_545
Re0 Zr0 3.051077 1_655
Re1 Re2 2.545780 1_555
Re1 Re4 2.647705 1_445
Re1 Re5 2.653439 1_555
Re1 Re2 2.719405 1_545
Re1 Zr0 3.047478 1_556
Re2 Re4 2.647704 1_455
Re2 Re5 2.653442 1_565
Re2 Zr0 3.047476 1_556
Re3 Re4 2.644228 1_555
Re3 Re5 2.656756 1_664
Re3 Zr0 3.028310 1_555
Re3 Zr0 3.051077 1_655
Re5 Zr0 2.977442 1_446
Re5 Zr0 3.067033 1_546
Re5 Zr0 3.067033 1_556
