# generated using pymatgen
data_Zr3SnRh2N
_symmetry_space_group_name_H-M   'P 1'
_cell_length_a   8.69234105
_cell_length_b   8.69234052
_cell_length_c   8.69234117
_cell_angle_alpha   59.99999752
_cell_angle_beta   59.99999955
_cell_angle_gamma   59.99999983
_symmetry_Int_Tables_number   1
_chemical_formula_structural   Zr3SnRh2N
_chemical_formula_sum   'Zr12 Sn4 Rh8 N4'
_cell_volume   464.40324369
_cell_formula_units_Z   4
loop_
 _symmetry_equiv_pos_site_id
 _symmetry_equiv_pos_as_xyz
  1  'x, y, z'
loop_
 _atom_site_type_symbol
 _atom_site_label
 _atom_site_symmetry_multiplicity
 _atom_site_fract_x
 _atom_site_fract_y
 _atom_site_fract_z
 _atom_site_occupancy
  Zr  Zr0  1  0.81292202  0.81292202  0.18707798  1
  Zr  Zr1  1  0.18707798  0.18707798  0.81292202  1
  Zr  Zr2  1  0.81292202  0.18707798  0.81292202  1
  Zr  Zr3  1  0.18707798  0.81292202  0.18707798  1
  Zr  Zr4  1  0.18707798  0.81292202  0.81292202  1
  Zr  Zr5  1  0.81292202  0.18707798  0.18707798  1
  Zr  Zr6  1  0.43707798  0.43707798  0.06292202  1
  Zr  Zr7  1  0.06292202  0.06292202  0.43707798  1
  Zr  Zr8  1  0.43707798  0.06292202  0.43707798  1
  Zr  Zr9  1  0.06292202  0.43707798  0.06292202  1
  Zr  Zr10  1  0.06292202  0.43707798  0.43707798  1
  Zr  Zr11  1  0.43707798  0.06292202  0.06292202  1
  Sn  Sn0  1  0.12500000  0.62500000  0.62500000  1
  Sn  Sn1  1  0.62500000  0.12500000  0.62500000  1
  Sn  Sn2  1  0.62500000  0.62500000  0.12500000  1
  Sn  Sn3  1  0.62500000  0.62500000  0.62500000  1
  Rh  Rh0  1  0.77493229  0.40835557  0.40835557  1
  Rh  Rh1  1  0.40835557  0.77493229  0.40835557  1
  Rh  Rh2  1  0.40835557  0.40835557  0.77493229  1
  Rh  Rh3  1  0.40835557  0.40835557  0.40835557  1
  Rh  Rh4  1  0.47506771  0.84164443  0.84164443  1
  Rh  Rh5  1  0.84164443  0.47506771  0.84164443  1
  Rh  Rh6  1  0.84164443  0.84164443  0.47506771  1
  Rh  Rh7  1  0.84164443  0.84164443  0.84164443  1
  N  N0  1  0.62500000  0.12500000  0.12500000  1
  N  N1  1  0.12500000  0.62500000  0.12500000  1
  N  N2  1  0.12500000  0.12500000  0.62500000  1
  N  N3  1  0.12500000  0.12500000  0.12500000  1
loop_
_geom_bond_atom_site_label_1
_geom_bond_atom_site_label_2
_geom_bond_distance
_geom_bond_site_symmetry_2
Sn0 Zr7 3.171565 1_565
Sn0 Zr1 3.171565 1_555
Sn0 Zr4 3.171566 1_555
Sn0 Zr9 3.171566 1_556
Sn0 Zr3 3.171566 1_555
Sn0 Zr10 3.171566 1_555
Sn1 Zr7 3.171566 1_655
Sn1 Zr1 3.171566 1_555
Sn1 Zr2 3.171566 1_555
Sn1 Zr5 3.171566 1_555
Sn1 Zr8 3.171566 1_555
Sn1 Zr11 3.171566 1_556
Sn2 Zr5 3.171565 1_555
Sn2 Zr11 3.171565 1_565
Sn2 Zr0 3.171566 1_555
Sn2 Zr6 3.171566 1_555
Sn2 Zr9 3.171566 1_655
Sn2 Zr3 3.171566 1_555
Sn3 Zr8 3.171565 1_565
Sn3 Zr2 3.171565 1_555
Sn3 Zr0 3.171566 1_555
Sn3 Zr6 3.171566 1_556
Sn3 Zr4 3.171566 1_555
Sn3 Zr10 3.171566 1_655
Rh0 Sn1 2.725567 1_555
Rh0 Sn2 2.725567 1_555
Rh0 Sn3 2.725574 1_555
Rh0 Zr7 2.775514 1_655
Rh0 Zr9 2.775514 1_655
Rh0 Zr10 2.775520 1_655
Rh0 Zr5 3.152361 1_555
Rh0 Zr0 3.152368 1_555
Rh0 Zr2 3.152368 1_555
Rh1 Sn0 2.725567 1_555
Rh1 Sn2 2.725567 1_555
Rh1 Sn3 2.725574 1_555
Rh1 Zr11 2.775514 1_565
Rh1 Zr7 2.775514 1_565
Rh1 Zr8 2.775519 1_565
Rh1 Zr3 3.152361 1_555
Rh1 Zr0 3.152368 1_555
Rh1 Zr4 3.152368 1_555
Rh2 Sn1 2.725567 1_555
Rh2 Sn0 2.725567 1_555
Rh2 Sn3 2.725574 1_555
Rh2 Zr11 2.775514 1_556
Rh2 Zr9 2.775514 1_556
Rh2 Zr6 2.775520 1_556
Rh2 Zr1 3.152361 1_555
Rh2 Zr4 3.152368 1_555
Rh2 Zr2 3.152368 1_555
Rh3 Sn2 2.725572 1_555
Rh3 Sn1 2.725572 1_555
Rh3 Sn0 2.725572 1_555
Rh3 Zr8 2.775511 1_555
Rh3 Zr10 2.775511 1_555
Rh3 Zr6 2.775511 1_555
Rh3 Zr3 3.152365 1_555
Rh3 Zr1 3.152365 1_555
Rh3 Zr5 3.152365 1_555
Rh4 Sn1 2.725567 1_565
Rh4 Sn2 2.725567 1_556
Rh4 Sn3 2.725574 1_555
Rh4 Zr1 2.775514 1_565
Rh4 Zr3 2.775514 1_556
Rh4 Zr4 2.775520 1_555
Rh4 Zr11 3.152361 1_566
Rh4 Zr6 3.152368 1_556
Rh4 Zr8 3.152368 1_565
Rh5 Sn0 2.725567 1_655
Rh5 Sn2 2.725567 1_556
Rh5 Sn3 2.725574 1_555
Rh5 Zr5 2.775514 1_556
Rh5 Zr1 2.775514 1_655
Rh5 Zr2 2.775519 1_555
Rh5 Zr9 3.152361 1_656
Rh5 Zr6 3.152368 1_556
Rh5 Zr10 3.152368 1_655
Rh6 Sn1 2.725567 1_565
Rh6 Sn0 2.725567 1_655
Rh6 Sn3 2.725574 1_555
Rh6 Zr5 2.775514 1_565
Rh6 Zr3 2.775514 1_655
Rh6 Zr0 2.775520 1_555
Rh6 Zr7 3.152361 1_665
Rh6 Zr10 3.152368 1_655
Rh6 Zr8 3.152368 1_565
Rh7 Sn2 2.725572 1_556
Rh7 Sn1 2.725572 1_565
Rh7 Sn0 2.725572 1_655
Rh7 Zr2 2.775511 1_565
Rh7 Zr4 2.775511 1_655
Rh7 Zr0 2.775511 1_556
Rh7 Zr9 3.152365 1_656
Rh7 Zr7 3.152365 1_665
Rh7 Zr11 3.152365 1_566
N0 Zr6 2.303181 1_555
N0 Zr0 2.303181 1_545
N0 Zr11 2.303181 1_555
N0 Zr5 2.303181 1_555
N0 Zr8 2.303181 1_555
N0 Zr2 2.303181 1_554
N1 Zr10 2.303181 1_555
N1 Zr3 2.303181 1_555
N1 Zr4 2.303181 1_554
N1 Zr9 2.303181 1_555
N1 Zr6 2.303181 1_555
N1 Zr0 2.303181 1_455
N2 Zr4 2.303181 1_545
N2 Zr10 2.303181 1_555
N2 Zr8 2.303181 1_555
N2 Zr2 2.303181 1_455
N2 Zr1 2.303181 1_555
N2 Zr7 2.303181 1_555
N3 Zr9 2.303181 1_555
N3 Zr3 2.303181 1_545
N3 Zr5 2.303181 1_455
N3 Zr11 2.303181 1_555
N3 Zr7 2.303181 1_555
N3 Zr1 2.303181 1_554
