# generated using pymatgen
data_YCuAuO4
_symmetry_space_group_name_H-M   'P 1'
_cell_length_a   6.43413286
_cell_length_b   6.43413303
_cell_length_c   6.38798598
_cell_angle_alpha   126.20582663
_cell_angle_beta   126.14960935
_cell_angle_gamma   80.08912366
_symmetry_Int_Tables_number   1
_chemical_formula_structural   YCuAuO4
_chemical_formula_sum   'Y2 Cu2 Au2 O8'
_cell_volume   165.87437069
_cell_formula_units_Z   2
loop_
 _symmetry_equiv_pos_site_id
 _symmetry_equiv_pos_as_xyz
  1  'x, y, z'
loop_
 _atom_site_type_symbol
 _atom_site_label
 _atom_site_symmetry_multiplicity
 _atom_site_fract_x
 _atom_site_fract_y
 _atom_site_fract_z
 _atom_site_occupancy
  Y  Y0  1  0.99977570  0.99977570  0.00000000  1
  Y  Y1  1  0.75022430  0.25022430  0.50000000  1
  Cu  Cu0  1  0.87500000  0.62500000  0.25000000  1
  Cu  Cu1  1  0.37500000  0.62500000  0.75000000  1
  Au  Au0  1  0.37500000  0.12500000  0.75000000  1
  Au  Au1  1  0.37500000  0.62500000  0.25000000  1
  O  O0  1  0.34958566  0.98934564  0.95138611  1
  O  O1  1  0.03795952  0.39819955  0.04861389  1
  O  O2  1  0.71204048  0.85180045  0.45138611  1
  O  O3  1  0.40041434  0.26065436  0.54861389  1
  O  O4  1  0.13903905  0.60038045  0.84140001  1
  O  O5  1  0.75897944  0.29763804  0.15859999  1
  O  O6  1  0.61096095  0.64961955  0.65859999  1
  O  O7  1  0.99102056  0.95236196  0.34140001  1
loop_
_geom_bond_atom_site_label_1
_geom_bond_atom_site_label_2
_geom_bond_distance
_geom_bond_site_symmetry_2
Cu0 O1 1.931496 1_655
Cu0 O2 1.931496 1_555
Cu0 O7 1.977070 1_555
Cu0 O5 1.977070 1_555
Cu1 O0 1.931496 1_555
Cu1 O3 1.931496 1_555
Cu1 O6 1.977061 1_555
Cu1 O4 1.977061 1_555
Au0 O5 2.015432 1_556
Au0 O7 2.015432 1_445
Au0 O3 2.016758 1_555
Au0 O0 2.016758 1_545
Au1 O6 2.015436 1_555
Au1 O4 2.015436 1_554
Au1 O2 2.016758 1_555
Au1 O1 2.016758 1_555
O0 Y1 2.371932 1_566
O0 Y0 2.432016 1_456
O1 Y1 2.371932 1_454
O1 Y0 2.432016 1_445
O2 Y0 2.371932 1_556
O2 Y1 2.432016 1_565
O3 Y0 2.371932 1_445
O3 Y1 2.432016 1_555
O4 Y0 2.373956 1_456
O4 Y1 2.406087 1_455
O5 Y0 2.373958 1_545
O5 Y1 2.406079 1_555
O6 Y1 2.373956 1_555
O6 Y0 2.406087 1_556
O7 Y1 2.373958 1_565
O7 Y0 2.406079 1_555
