# generated using pymatgen
data_Hf6CoI15
_symmetry_space_group_name_H-M   'P 1'
_cell_length_a   9.96280075
_cell_length_b   9.96280215
_cell_length_c   9.96280168
_cell_angle_alpha   109.47122362
_cell_angle_beta   109.47122648
_cell_angle_gamma   109.47121751
_symmetry_Int_Tables_number   1
_chemical_formula_structural   Hf6CoI15
_chemical_formula_sum   'Hf6 Co1 I15'
_cell_volume   761.24160171
_cell_formula_units_Z   1
loop_
 _symmetry_equiv_pos_site_id
 _symmetry_equiv_pos_as_xyz
  1  'x, y, z'
loop_
 _atom_site_type_symbol
 _atom_site_label
 _atom_site_symmetry_multiplicity
 _atom_site_fract_x
 _atom_site_fract_y
 _atom_site_fract_z
 _atom_site_occupancy
  Hf  Hf0  1  0.78527691  0.78527691  0.00000000  1
  Hf  Hf1  1  0.21472309  1.00000000  0.21472309  1
  Hf  Hf2  1  0.78527691  0.00000000  0.78527691  1
  Hf  Hf3  1  0.00000000  0.78527691  0.78527691  1
  Hf  Hf4  1  1.00000000  0.21472309  0.21472309  1
  Hf  Hf5  1  0.21472309  0.21472309  1.00000000  1
  Co  Co0  1  0.00000000  0.00000000  0.00000000  1
  I  I0  1  0.50000000  0.00000000  0.50000000  1
  I  I1  1  0.00000000  0.50000000  0.50000000  1
  I  I2  1  0.50000000  0.50000000  0.00000000  1
  I  I3  1  0.50520869  0.75260434  0.75260434  1
  I  I4  1  0.75260434  1.00000000  0.24739566  1
  I  I5  1  0.49479131  0.24739566  0.24739566  1
  I  I6  1  0.24739566  0.24739566  0.49479131  1
  I  I7  1  0.24739566  0.75260434  1.00000000  1
  I  I8  1  0.00000000  0.24739566  0.75260434  1
  I  I9  1  1.00000000  0.75260434  0.24739566  1
  I  I10  1  0.24739566  0.00000000  0.75260434  1
  I  I11  1  0.24739566  0.49479131  0.24739566  1
  I  I12  1  0.75260434  0.24739566  0.00000000  1
  I  I13  1  0.75260434  0.50520869  0.75260434  1
  I  I14  1  0.75260434  0.75260434  0.50520869  1
loop_
_geom_bond_atom_site_label_1
_geom_bond_atom_site_label_2
_geom_bond_distance
_geom_bond_site_symmetry_2
Hf0 I3 2.870765 1_554
Hf0 I9 2.870765 1_555
Hf0 I4 2.870765 1_555
Hf0 I13 2.870765 1_554
Hf0 I2 3.281841 1_555
Hf1 I6 2.870765 1_565
Hf1 I5 2.870765 1_565
Hf1 I7 2.870765 1_554
Hf1 I9 2.870765 1_455
Hf1 I0 3.281840 1_565
Hf2 I14 2.870765 1_545
Hf2 I3 2.870765 1_545
Hf2 I12 2.870765 1_556
Hf2 I8 2.870765 1_655
Hf2 I0 3.281840 1_555
Hf3 I14 2.870765 1_455
Hf3 I7 2.870765 1_555
Hf3 I10 2.870765 1_565
Hf3 I13 2.870765 1_455
Hf3 I1 3.281840 1_555
Hf4 I6 2.870765 1_655
Hf4 I12 2.870765 1_555
Hf4 I4 2.870765 1_545
Hf4 I11 2.870765 1_655
Hf4 I1 3.281840 1_655
Hf5 I5 2.870765 1_556
Hf5 I8 2.870765 1_555
Hf5 I10 2.870765 1_555
Hf5 I11 2.870765 1_556
Hf5 I2 3.281841 1_556
Co0 Hf1 2.470185 1_545
Co0 Hf2 2.470185 1_454
Co0 Hf4 2.470186 1_455
Co0 Hf3 2.470186 1_544
Co0 Hf5 2.470186 1_554
Co0 Hf0 2.470186 1_445
