# generated using pymatgen
data_Rb5Au(ClO)2
_symmetry_space_group_name_H-M   'P 1'
_cell_length_a   5.57034018
_cell_length_b   7.35642752
_cell_length_c   14.14996118
_cell_angle_alpha   90.00000000
_cell_angle_beta   90.00000000
_cell_angle_gamma   90.00000000
_symmetry_Int_Tables_number   1
_chemical_formula_structural   Rb5Au(ClO)2
_chemical_formula_sum   'Rb10 Au2 Cl4 O4'
_cell_volume   579.83433306
_cell_formula_units_Z   2
loop_
 _symmetry_equiv_pos_site_id
 _symmetry_equiv_pos_as_xyz
  1  'x, y, z'
loop_
 _atom_site_type_symbol
 _atom_site_label
 _atom_site_symmetry_multiplicity
 _atom_site_fract_x
 _atom_site_fract_y
 _atom_site_fract_z
 _atom_site_occupancy
  Rb  Rb0  1  0.50000000  0.32020300  0.60496936  1
  Rb  Rb1  1  0.50000000  0.17979700  0.10496936  1
  Rb  Rb2  1  0.00000000  0.63443929  0.72794526  1
  Rb  Rb3  1  0.00000000  0.50000000  0.00000000  1
  Rb  Rb4  1  0.50000000  0.67979700  0.39503064  1
  Rb  Rb5  1  0.50000000  0.82020300  0.89503064  1
  Rb  Rb6  1  0.00000000  0.86556071  0.22794526  1
  Rb  Rb7  1  0.00000000  0.36556071  0.27205474  1
  Rb  Rb8  1  0.00000000  0.13443929  0.77205474  1
  Rb  Rb9  1  0.00000000  0.00000000  0.50000000  1
  Au  Au0  1  0.00000000  0.50000000  0.50000000  1
  Au  Au1  1  0.00000000  0.00000000  0.00000000  1
  Cl  Cl0  1  0.50000000  0.62108198  0.15251366  1
  Cl  Cl1  1  0.50000000  0.37891802  0.84748634  1
  Cl  Cl2  1  0.50000000  0.12108198  0.34748634  1
  Cl  Cl3  1  0.50000000  0.87891802  0.65251366  1
  O  O0  1  0.00000000  0.67395109  0.39004509  1
  O  O1  1  0.00000000  0.82604891  0.89004509  1
  O  O2  1  0.00000000  0.17395109  0.10995491  1
  O  O3  1  0.00000000  0.32604891  0.60995491  1
loop_
_geom_bond_atom_site_label_1
_geom_bond_atom_site_label_2
_geom_bond_distance
_geom_bond_site_symmetry_2
Au0 O3 2.014502 1_555
Au0 O0 2.014502 1_555
Au1 O2 2.014502 1_555
Au1 O1 2.014502 1_544
Cl0 Rb1 3.315258 1_555
Cl0 Rb4 3.458682 1_555
Cl0 Rb6 3.482956 1_655
Cl0 Rb6 3.482956 1_555
Cl0 Rb3 3.634255 1_555
Cl0 Rb3 3.634255 1_655
Cl0 Rb7 3.761876 1_555
Cl0 Rb7 3.761876 1_655
Cl0 Rb5 3.926815 1_554
Cl1 Rb5 3.315258 1_555
Cl1 Rb0 3.458682 1_555
Cl1 Rb8 3.482956 1_555
Cl1 Rb8 3.482956 1_655
Cl1 Rb3 3.634255 1_556
Cl1 Rb3 3.634255 1_656
Cl1 Rb2 3.761876 1_555
Cl1 Rb2 3.761876 1_655
Cl1 Rb1 3.926815 1_556
Cl2 Rb4 3.315258 1_545
Cl2 Rb1 3.458682 1_555
Cl2 Rb7 3.482956 1_655
Cl2 Rb7 3.482956 1_555
Cl2 Rb9 3.634255 1_655
Cl2 Rb9 3.634255 1_555
Cl2 Rb6 3.761876 1_645
Cl2 Rb6 3.761876 1_545
Cl2 Rb0 3.926815 1_555
Cl3 Rb0 3.315258 1_565
Cl3 Rb5 3.458682 1_555
Cl3 Rb2 3.482956 1_655
Cl3 Rb2 3.482956 1_555
Cl3 Rb9 3.634255 1_565
Cl3 Rb9 3.634255 1_665
Cl3 Rb8 3.761876 1_565
Cl3 Rb8 3.761876 1_665
Cl3 Rb4 3.926815 1_555
O0 Rb6 2.692203 1_555
O0 Rb4 2.786395 1_455
O0 Rb4 2.786395 1_555
O0 Rb7 2.816772 1_555
O0 Rb9 2.858979 1_565
O1 Rb2 2.692203 1_555
O1 Rb5 2.786395 1_455
O1 Rb5 2.786395 1_555
O1 Rb8 2.816772 1_565
O1 Rb3 2.858979 1_556
O2 Rb7 2.692203 1_555
O2 Rb1 2.786395 1_455
O2 Rb1 2.786395 1_555
O2 Rb6 2.816772 1_545
O2 Rb3 2.858979 1_555
O3 Rb8 2.692203 1_555
O3 Rb0 2.786395 1_455
O3 Rb0 2.786395 1_555
O3 Rb2 2.816772 1_555
O3 Rb9 2.858979 1_555
