# generated using pymatgen
data_La5TlS8
_symmetry_space_group_name_H-M   'P 1'
_cell_length_a   7.64752268
_cell_length_b   7.64767847
_cell_length_c   7.64752230
_cell_angle_alpha   109.05603020
_cell_angle_beta   109.05507630
_cell_angle_gamma   110.30524424
_symmetry_Int_Tables_number   1
_chemical_formula_structural   La5TlS8
_chemical_formula_sum   'La5 Tl1 S8'
_cell_volume   344.25718380
_cell_formula_units_Z   1
loop_
 _symmetry_equiv_pos_site_id
 _symmetry_equiv_pos_as_xyz
  1  'x, y, z'
loop_
 _atom_site_type_symbol
 _atom_site_label
 _atom_site_symmetry_multiplicity
 _atom_site_fract_x
 _atom_site_fract_y
 _atom_site_fract_z
 _atom_site_occupancy
  La  La0  1  0.23608530  0.11764283  0.61407373  1
  La  La1  1  0.75000901  0.24998124  0.50000107  1
  La  La2  1  0.88240548  0.49645455  0.11846898  1
  La  La3  1  0.50359135  0.62201411  0.38592087  1
  La  La4  1  0.37797273  0.76391719  0.88155179  1
  Tl  Tl0  1  -0.00001508  0.00000151  -0.00000252  1
  S  S0  1  0.76096274  0.87042888  0.25867944  1
  S  S1  1  0.28556554  0.87029625  0.25989200  1
  S  S2  1  0.12971425  0.38959672  0.41527668  1
  S  S3  1  0.61038568  0.02567045  0.74010576  1
  S  S4  1  0.49771745  0.23904050  0.10945898  1
  S  S5  1  0.61173644  0.50227523  0.74132338  1
  S  S6  1  0.12957131  0.38825416  0.89053427  1
  S  S7  1  0.97429878  0.71442438  0.58471456  1
loop_
_geom_bond_atom_site_label_1
_geom_bond_atom_site_label_2
_geom_bond_distance
_geom_bond_site_symmetry_2
La0 S5 2.879767 1_555
La0 S7 2.921858 1_445
La0 S6 2.975555 1_555
La0 S1 2.979658 1_545
La0 S0 3.097157 1_445
La0 S3 3.107418 1_555
La0 S2 3.119314 1_555
La0 S4 3.268389 1_556
La1 S0 2.934324 1_545
La1 S6 2.934368 1_655
La1 S4 2.934617 1_555
La1 S5 2.934633 1_555
La1 S2 3.085504 1_655
La1 S3 3.085509 1_555
La1 S1 3.085550 1_545
La1 S7 3.085663 1_555
La2 S4 2.880028 1_555
La2 S1 2.921535 1_655
La2 S5 2.975729 1_554
La2 S2 2.979582 1_655
La2 S6 3.096970 1_654
La2 S7 3.107397 1_555
La2 S3 3.119561 1_554
La2 S0 3.268541 1_555
La3 S0 2.879695 1_555
La3 S2 2.921886 1_555
La3 S4 2.975475 1_555
La3 S3 2.979797 1_565
La3 S5 3.097238 1_555
La3 S1 3.107633 1_555
La3 S7 3.119017 1_555
La3 S6 3.268475 1_554
La4 S6 2.879845 1_555
La4 S3 2.921706 1_565
La4 S0 2.975654 1_556
La4 S7 2.979730 1_455
La4 S4 3.097158 1_566
La4 S2 3.107502 1_555
La4 S1 3.119277 1_556
La4 S5 3.268497 1_555
S1 Tl0 3.108170 1_565
S2 Tl0 3.108055 1_555
S3 Tl0 3.108071 1_656
S7 Tl0 3.108118 1_666
