# generated using pymatgen
data_Zr6Be14AlNi8
_symmetry_space_group_name_H-M   'P 1'
_cell_length_a   7.83810569
_cell_length_b   7.83810571
_cell_length_c   7.83810613
_cell_angle_alpha   59.99999825
_cell_angle_beta   59.99999816
_cell_angle_gamma   59.99999644
_symmetry_Int_Tables_number   1
_chemical_formula_structural   Zr6Be14AlNi8
_chemical_formula_sum   'Zr6 Be14 Al1 Ni8'
_cell_volume   340.50096729
_cell_formula_units_Z   1
loop_
 _symmetry_equiv_pos_site_id
 _symmetry_equiv_pos_as_xyz
  1  'x, y, z'
loop_
 _atom_site_type_symbol
 _atom_site_label
 _atom_site_symmetry_multiplicity
 _atom_site_fract_x
 _atom_site_fract_y
 _atom_site_fract_z
 _atom_site_occupancy
  Zr  Zr0  1  0.71201272  0.28798728  0.28798728  1
  Zr  Zr1  1  0.28798728  0.71201272  0.71201272  1
  Zr  Zr2  1  0.28798728  0.71201272  0.28798728  1
  Zr  Zr3  1  0.71201272  0.28798728  0.71201272  1
  Zr  Zr4  1  0.28798728  0.28798728  0.71201272  1
  Zr  Zr5  1  0.71201272  0.71201272  0.28798728  1
  Be  Be0  1  0.32298266  0.32298266  0.32298266  1
  Be  Be1  1  0.67701734  0.67701734  0.67701734  1
  Be  Be2  1  0.32298266  0.32298266  0.03105102  1
  Be  Be3  1  0.32298266  0.03105102  0.32298266  1
  Be  Be4  1  0.67701734  0.67701734  0.96894898  1
  Be  Be5  1  0.67701734  0.96894898  0.67701734  1
  Be  Be6  1  0.03105102  0.32298266  0.32298266  1
  Be  Be7  1  0.96894898  0.67701734  0.67701734  1
  Be  Be8  1  0.50000000  0.00000000  0.00000000  1
  Be  Be9  1  0.00000000  0.50000000  0.50000000  1
  Be  Be10  1  0.00000000  0.50000000  0.00000000  1
  Be  Be11  1  0.50000000  0.00000000  0.50000000  1
  Be  Be12  1  0.00000000  0.00000000  0.50000000  1
  Be  Be13  1  0.50000000  0.50000000  0.00000000  1
  Al  Al0  1  0.00000000  0.00000000  0.00000000  1
  Ni  Ni0  1  0.12715816  0.12715816  0.12715816  1
  Ni  Ni1  1  0.87284184  0.87284184  0.87284184  1
  Ni  Ni2  1  0.12715816  0.12715816  0.61852651  1
  Ni  Ni3  1  0.12715816  0.61852651  0.12715816  1
  Ni  Ni4  1  0.87284184  0.87284184  0.38147349  1
  Ni  Ni5  1  0.87284184  0.38147349  0.87284184  1
  Ni  Ni6  1  0.61852651  0.12715816  0.12715816  1
  Ni  Ni7  1  0.38147349  0.87284184  0.87284184  1
loop_
_geom_bond_atom_site_label_1
_geom_bond_atom_site_label_2
_geom_bond_distance
_geom_bond_site_symmetry_2
Zr0 Zr2 3.323556 1_555
Zr0 Zr4 3.323556 1_555
Zr0 Zr5 3.323556 1_555
Zr0 Zr3 3.323556 1_555
Zr1 Zr3 3.323556 1_555
Zr1 Zr5 3.323556 1_555
Zr1 Zr4 3.323556 1_555
Zr1 Zr2 3.323556 1_555
Zr2 Zr5 3.323556 1_555
Zr2 Zr4 3.323556 1_555
Zr3 Zr4 3.323556 1_555
Zr3 Zr5 3.323556 1_555
Be0 Be9 2.271376 1_555
Be0 Be11 2.271376 1_555
Be0 Be13 2.271376 1_555
Be0 Be6 2.288191 1_555
Be0 Be3 2.288191 1_555
Be0 Be2 2.288191 1_555
Be0 Ni6 2.307100 1_555
Be0 Ni3 2.307100 1_555
Be0 Ni2 2.307100 1_555
Be0 Zr0 2.801944 1_555
Be0 Zr2 2.801944 1_555
Be0 Zr4 2.801944 1_555
Be1 Be9 2.271376 1_655
Be1 Be11 2.271376 1_565
Be1 Be13 2.271376 1_556
Be1 Be7 2.288191 1_555
Be1 Be5 2.288191 1_555
Be1 Be4 2.288191 1_555
Be1 Ni7 2.307100 1_555
Be1 Ni5 2.307100 1_555
Be1 Ni4 2.307100 1_555
Be1 Zr1 2.801944 1_555
Be1 Zr3 2.801944 1_555
Be1 Zr5 2.801944 1_555
Be2 Be8 2.271373 1_555
Be2 Be6 2.288191 1_555
Be2 Be3 2.288191 1_555
Be2 Ni0 2.307094 1_555
Be2 Ni6 2.307107 1_555
Be2 Ni3 2.307107 1_555
Be2 Zr4 2.801936 1_554
Be2 Zr3 2.801941 1_554
Be2 Zr1 2.801941 1_554
Be3 Be8 2.271374 1_555
Be3 Be6 2.288191 1_555
Be3 Ni0 2.307094 1_555
Be3 Ni6 2.307107 1_555
Be3 Ni2 2.307108 1_555
Be3 Zr2 2.801936 1_545
Be3 Zr5 2.801940 1_545
Be3 Zr1 2.801941 1_545
Be4 Be8 2.271373 1_566
Be4 Be7 2.288191 1_555
Be4 Be5 2.288191 1_555
Be4 Ni1 2.307094 1_555
Be4 Ni7 2.307107 1_555
Be4 Ni5 2.307107 1_555
Be4 Zr5 2.801936 1_556
Be4 Zr2 2.801941 1_556
Be4 Zr0 2.801941 1_556
Be5 Be8 2.271374 1_566
Be5 Be7 2.288191 1_555
Be5 Ni1 2.307094 1_555
Be5 Ni7 2.307107 1_555
Be5 Ni4 2.307108 1_555
Be5 Zr3 2.801936 1_565
Be5 Zr4 2.801940 1_565
Be5 Zr0 2.801941 1_565
Be6 Be9 2.271380 1_555
Be6 Ni0 2.307094 1_555
Be6 Ni3 2.307107 1_555
Be6 Ni2 2.307108 1_555
Be6 Zr0 2.801936 1_455
Be6 Zr5 2.801940 1_455
Be6 Zr3 2.801941 1_455
Be7 Be9 2.271380 1_655
Be7 Ni1 2.307094 1_555
Be7 Ni5 2.307107 1_555
Be7 Ni4 2.307108 1_555
Be7 Zr1 2.801936 1_655
Be7 Zr4 2.801940 1_655
Be7 Zr2 2.801941 1_655
Be8 Ni1 2.386428 1_544
Be8 Ni0 2.386428 1_555
Be8 Ni6 2.386434 1_555
Be8 Ni7 2.386434 1_544
Be8 Zr3 2.802998 1_554
Be8 Zr2 2.802998 1_545
Be8 Zr5 2.802998 1_545
Be8 Zr4 2.802998 1_554
Be9 Ni4 2.386428 1_455
Be9 Ni2 2.386428 1_555
Be9 Ni5 2.386428 1_455
Be9 Ni3 2.386428 1_555
Be9 Zr2 2.802998 1_555
Be9 Zr3 2.802998 1_455
Be9 Zr4 2.802998 1_555
Be9 Zr5 2.802998 1_455
Be10 Be2 2.271373 1_555
Be10 Be4 2.271373 1_454
Be10 Be6 2.271374 1_555
Be10 Be7 2.271374 1_454
Be10 Ni1 2.386428 1_454
Be10 Ni0 2.386428 1_555
Be10 Ni3 2.386434 1_555
Be10 Ni5 2.386434 1_454
Be10 Zr1 2.802998 1_554
Be10 Zr0 2.802998 1_455
Be10 Zr5 2.802998 1_455
Be10 Zr4 2.802998 1_554
Be11 Be5 2.271380 1_545
Be11 Be3 2.271380 1_555
Be11 Ni4 2.386428 1_545
Be11 Ni2 2.386428 1_555
Be11 Ni7 2.386428 1_545
Be11 Ni6 2.386428 1_555
Be11 Zr0 2.802998 1_555
Be11 Zr1 2.802998 1_545
Be11 Zr4 2.802998 1_555
Be11 Zr5 2.802998 1_545
Be12 Be3 2.271374 1_555
Be12 Be5 2.271374 1_445
Be12 Be6 2.271374 1_555
Be12 Be7 2.271374 1_445
Be12 Ni1 2.386428 1_445
Be12 Ni0 2.386428 1_555
Be12 Ni2 2.386434 1_555
Be12 Ni4 2.386434 1_445
Be12 Zr3 2.802998 1_455
Be12 Zr1 2.802998 1_545
Be12 Zr0 2.802998 1_455
Be12 Zr2 2.802998 1_545
Be13 Be4 2.271380 1_554
Be13 Be2 2.271380 1_555
Be13 Ni5 2.386428 1_554
Be13 Ni3 2.386428 1_555
Be13 Ni7 2.386428 1_554
Be13 Ni6 2.386428 1_555
Be13 Zr0 2.802998 1_555
Be13 Zr2 2.802998 1_555
Be13 Zr1 2.802998 1_554
Be13 Zr3 2.802998 1_554
Al0 Ni7 2.441349 1_544
Al0 Ni6 2.441349 1_455
Al0 Ni5 2.441349 1_454
Al0 Ni3 2.441349 1_545
Al0 Ni4 2.441349 1_445
Al0 Ni2 2.441349 1_554
Al0 Ni0 2.441355 1_555
Al0 Ni1 2.441355 1_444
Ni0 Zr0 2.674262 1_455
Ni0 Zr2 2.674262 1_545
Ni0 Zr4 2.674263 1_554
Ni0 Ni4 2.819034 1_445
Ni0 Ni5 2.819034 1_454
Ni0 Ni7 2.819034 1_544
Ni1 Zr1 2.674262 1_655
Ni1 Zr3 2.674262 1_565
Ni1 Zr5 2.674263 1_556
Ni1 Ni2 2.819034 1_665
Ni1 Ni3 2.819034 1_656
Ni1 Ni6 2.819034 1_566
Ni2 Zr4 2.674257 1_555
Ni2 Zr3 2.674263 1_455
Ni2 Zr1 2.674263 1_545
Ni2 Ni7 2.819023 1_545
Ni2 Ni5 2.819023 1_455
Ni3 Zr2 2.674257 1_555
Ni3 Zr5 2.674263 1_455
Ni3 Zr1 2.674263 1_554
Ni3 Ni7 2.819023 1_554
Ni3 Ni4 2.819023 1_455
Ni4 Zr5 2.674257 1_555
Ni4 Zr2 2.674263 1_655
Ni4 Zr0 2.674263 1_565
Ni4 Ni6 2.819023 1_565
Ni5 Zr3 2.674257 1_555
Ni5 Zr4 2.674263 1_655
Ni5 Zr0 2.674263 1_556
Ni5 Ni6 2.819023 1_556
Ni6 Zr0 2.674257 1_555
Ni6 Zr5 2.674263 1_545
Ni6 Zr3 2.674263 1_554
Ni7 Zr1 2.674257 1_555
Ni7 Zr4 2.674263 1_565
Ni7 Zr2 2.674263 1_556
