# generated using pymatgen
data_Y(HfH5)3
_symmetry_space_group_name_H-M   'P 1'
_cell_length_a   7.02565586
_cell_length_b   7.03818982
_cell_length_c   7.06704704
_cell_angle_alpha   109.53823984
_cell_angle_beta   109.46660040
_cell_angle_gamma   109.20638036
_symmetry_Int_Tables_number   1
_chemical_formula_structural   Y(HfH5)3
_chemical_formula_sum   'Y2 Hf6 H30'
_cell_volume   269.67533617
_cell_formula_units_Z   2
loop_
 _symmetry_equiv_pos_site_id
 _symmetry_equiv_pos_as_xyz
  1  'x, y, z'
loop_
 _atom_site_type_symbol
 _atom_site_label
 _atom_site_symmetry_multiplicity
 _atom_site_fract_x
 _atom_site_fract_y
 _atom_site_fract_z
 _atom_site_occupancy
  Y  Y0  1  0.90940209  0.90781464  0.90629975  1
  Y  Y1  1  0.50310234  0.00151489  0.09369925  1
  Hf  Hf0  1  0.00737009  0.11680924  0.50692692  1
  Hf  Hf1  1  0.11173737  0.49731003  0.00235109  1
  Hf  Hf2  1  0.00044317  0.60988232  0.49307308  1
  Hf  Hf3  1  0.60938628  0.49495894  0.99764791  1
  Hf  Hf4  1  0.49803011  0.00072607  0.59486327  1
  Hf  Hf5  1  0.40316584  0.40586179  0.40513573  1
  H  H0  1  0.67059850  0.98338541  0.40556117  1
  H  H1  1  0.22204559  0.30405627  0.84672666  1
  H  H2  1  0.19527632  0.42292410  0.53908882  1
  H  H3  1  0.09201145  0.28812699  0.12486470  1
  H  H4  1  0.28127314  0.13613626  0.10893170  1
  H  H5  1  0.12746254  0.10624690  0.29481956  1
  H  H6  1  0.46714775  0.16326329  0.87513530  1
  H  H7  1  0.71912116  0.33680285  0.80893549  1
  H  H8  1  0.62310361  0.38276118  0.24994258  1
  H  H9  1  0.23452909  0.61877965  0.36612292  1
  H  H10  1  0.76279854  0.87316894  0.14339976  1
  H  H11  1  0.11939878  0.72976718  0.85660124  1
  H  H12  1  0.36840617  0.25265673  0.63387708  1
  H  H13  1  0.87316103  0.13281860  0.75005742  1
  H  H14  1  0.76503633  0.57782424  0.59443783  1
  H  H15  1  0.30777541  0.83015314  0.22869683  1
  H  H16  1  0.38413205  0.63834052  0.97434360  1
  H  H17  1  0.98068807  0.38451594  0.66470012  1
  H  H18  1  0.52392534  0.19553477  0.43052654  1
  H  H19  1  0.41018467  0.52786836  0.19106551  1
  H  H20  1  0.86290065  0.24058325  0.33125178  1
  H  H21  1  0.90978745  0.66399691  0.02565640  1
  H  H22  1  0.81598595  0.71981582  0.33529888  1
  H  H23  1  0.15618749  0.88383628  0.46091118  1
  H  H24  1  0.67234144  0.02720456  0.89106730  1
  H  H25  1  0.33264298  0.81142834  0.70518144  1
  H  H26  1  0.87531993  0.45733061  0.15327334  1
  H  H27  1  0.59339880  0.76500822  0.56947346  1
  H  H28  1  0.57907958  0.60145731  0.77130317  1
  H  H29  1  0.03164787  0.90932947  0.66874722  1
loop_
_geom_bond_atom_site_label_1
_geom_bond_atom_site_label_2
_geom_bond_distance
_geom_bond_site_symmetry_2
H0 Hf0 1.987876 1_665
H0 Hf4 2.084169 1_565
H0 Y1 2.194698 1_565
H1 Hf1 1.980219 1_556
H1 Hf0 1.984848 1_555
H1 Hf3 2.247149 1_555
H2 Hf5 2.001180 1_555
H2 Hf0 2.009334 1_555
H2 Hf2 2.210316 1_555
H3 Hf1 1.932552 1_555
H3 Hf5 2.052572 1_555
H3 Y0 2.202473 1_444
H4 Hf5 1.948492 1_555
H4 Y1 2.086479 1_555
H4 Y0 2.159560 1_444
H5 Hf0 1.942682 1_555
H5 Hf5 2.003240 1_555
H5 Y0 2.249465 1_444
H6 Hf3 1.932546 1_555
H6 Hf4 2.052576 1_555
H6 Y1 2.202473 1_556
H7 Hf3 1.966982 1_555
H7 Hf4 1.979723 1_555
H7 Hf1 2.270941 1_656
H8 Hf3 2.165448 1_554
H8 Hf5 2.189190 1_555
H8 Hf2 2.207774 1_655
H8 Y1 2.244854 1_555
H9 Hf2 2.113481 1_555
H9 Hf1 2.156521 1_555
H9 Hf5 2.225351 1_555
H9 Hf4 2.256381 1_565
H10 Hf0 2.159990 1_665
H10 Hf3 2.201557 1_554
H10 Y1 2.266664 1_565
H10 Y0 2.277345 1_554
H11 Hf2 2.159999 1_555
H11 Hf1 2.201541 1_556
H11 Y0 2.266673 1_455
H11 Y1 2.277346 1_566
H12 Hf0 2.113481 1_555
H12 Hf3 2.156516 1_555
H12 Hf4 2.225351 1_555
H12 Hf5 2.256381 1_555
H13 Hf1 2.165442 1_656
H13 Hf4 2.189190 1_555
H13 Hf0 2.207775 1_655
H13 Y0 2.244854 1_545
H14 Hf2 1.987877 1_655
H14 Hf5 2.084169 1_555
H14 Y0 2.194694 1_555
H15 Hf1 1.961077 1_555
H15 Hf4 2.117796 1_565
H15 Y1 2.191185 1_565
H16 Hf1 1.954720 1_556
H16 Hf3 2.130305 1_555
H16 Y1 2.150812 1_566
H17 Hf0 1.948065 1_655
H17 Hf1 1.989867 1_656
H17 Hf2 2.293577 1_655
H18 Hf5 1.961093 1_555
H18 Hf4 2.074512 1_555
H18 Y1 2.239327 1_555
H19 Hf1 1.966979 1_555
H19 Hf5 1.979720 1_555
H19 Hf3 2.270959 1_554
H20 Hf0 1.948259 1_655
H20 Y1 2.126749 1_555
H20 Hf2 2.149454 1_655
H21 Hf3 1.954711 1_554
H21 Hf1 2.130311 1_655
H21 Y0 2.150810 1_554
H22 Hf2 1.948077 1_655
H22 Hf3 1.989866 1_554
H22 Hf0 2.293576 1_665
H23 Hf4 2.001182 1_565
H23 Hf2 2.009340 1_555
H23 Hf0 2.210310 1_565
H24 Hf4 1.948492 1_555
H24 Y0 2.086477 1_545
H24 Y1 2.159560 1_556
H25 Hf2 1.942683 1_555
H25 Hf4 2.003247 1_565
H25 Y1 2.249453 1_566
H26 Hf3 1.980223 1_554
H26 Hf2 1.984849 1_655
H26 Hf1 2.247142 1_655
H27 Hf4 1.961094 1_565
H27 Hf5 2.074518 1_555
H27 Y0 2.239321 1_555
H28 Hf3 1.961076 1_555
H28 Hf5 2.117802 1_555
H28 Y0 2.191171 1_555
H29 Hf2 1.948248 1_555
H29 Y0 2.126748 1_455
H29 Hf0 2.149460 1_565
