# generated using pymatgen
data_Rb2TiBe3P4
_symmetry_space_group_name_H-M   'P 1'
_cell_length_a   7.58515566
_cell_length_b   7.58515427
_cell_length_c   5.40797325
_cell_angle_alpha   90.00000000
_cell_angle_beta   90.00000000
_cell_angle_gamma   138.26903423
_symmetry_Int_Tables_number   1
_chemical_formula_structural   Rb2TiBe3P4
_chemical_formula_sum   'Rb2 Ti1 Be3 P4'
_cell_volume   207.10892045
_cell_formula_units_Z   1
loop_
 _symmetry_equiv_pos_site_id
 _symmetry_equiv_pos_as_xyz
  1  'x, y, z'
loop_
 _atom_site_type_symbol
 _atom_site_label
 _atom_site_symmetry_multiplicity
 _atom_site_fract_x
 _atom_site_fract_y
 _atom_site_fract_z
 _atom_site_occupancy
  Rb  Rb0  1  0.50000000  0.00000000  0.25236495  1
  Rb  Rb1  1  0.00000000  0.50000000  0.74763505  1
  Ti  Ti0  1  0.00000000  0.00000000  0.00000000  1
  Be  Be0  1  0.50000000  0.50000000  0.50000000  1
  Be  Be1  1  0.50000000  0.50000000  0.00000000  1
  Be  Be2  1  0.00000000  0.00000000  0.50000000  1
  P  P0  1  0.65358727  0.83022973  0.74212375  1
  P  P1  1  0.16977027  0.34641273  0.25787625  1
  P  P2  1  0.83022973  0.65358727  0.25787625  1
  P  P3  1  0.34641273  0.16977027  0.74212375  1
loop_
_geom_bond_atom_site_label_1
_geom_bond_atom_site_label_2
_geom_bond_distance
_geom_bond_site_symmetry_2
Be0 P0 2.233947 1_555
Be0 P3 2.233947 1_555
Be0 P2 2.233948 1_555
Be0 P1 2.233948 1_555
Be1 P0 2.284922 1_554
Be1 P3 2.284922 1_554
Be1 P2 2.284923 1_555
Be1 P1 2.284923 1_555
Be2 P1 2.286210 1_555
Be2 P2 2.286210 1_445
Be2 P3 2.286210 1_555
Be2 P0 2.286210 1_445
P0 Ti0 2.336045 1_666
P0 Rb0 3.502807 1_565
P0 Rb1 3.509714 1_555
P0 Rb1 3.576389 1_665
P0 Rb0 3.587295 1_566
P1 Ti0 2.336045 1_555
P1 Rb1 3.502807 1_555
P1 Rb0 3.509713 1_565
P1 Rb0 3.576390 1_455
P1 Rb1 3.587295 1_554
P2 Ti0 2.336045 1_665
P2 Rb1 3.502807 1_655
P2 Rb0 3.509713 1_555
P2 Rb0 3.576390 1_665
P2 Rb1 3.587295 1_654
P3 Ti0 2.336045 1_556
P3 Rb0 3.502807 1_555
P3 Rb1 3.509714 1_655
P3 Rb1 3.576389 1_545
P3 Rb0 3.587295 1_556
