# generated using pymatgen
data_Na2AsPd3
_symmetry_space_group_name_H-M   'P 1'
_cell_length_a   5.05365458
_cell_length_b   5.55525377
_cell_length_c   5.55525418
_cell_angle_alpha   60.00000321
_cell_angle_beta   56.65855088
_cell_angle_gamma   56.65853987
_symmetry_Int_Tables_number   1
_chemical_formula_structural   Na2AsPd3
_chemical_formula_sum   'Na2 As1 Pd3'
_cell_volume   104.37792204
_cell_formula_units_Z   1
loop_
 _symmetry_equiv_pos_site_id
 _symmetry_equiv_pos_as_xyz
  1  'x, y, z'
loop_
 _atom_site_type_symbol
 _atom_site_label
 _atom_site_symmetry_multiplicity
 _atom_site_fract_x
 _atom_site_fract_y
 _atom_site_fract_z
 _atom_site_occupancy
  Na  Na0  1  0.49346389  0.50217837  0.50217837  1
  Na  Na1  1  0.75653611  0.74782163  0.74782163  1
  As  As0  1  0.62500000  0.12500000  0.12500000  1
  Pd  Pd0  1  0.12500000  0.62500000  0.12500000  1
  Pd  Pd1  1  0.12500000  0.12500000  0.62500000  1
  Pd  Pd2  1  0.12500000  0.12500000  0.12500000  1
loop_
_geom_bond_atom_site_label_1
_geom_bond_atom_site_label_2
_geom_bond_distance
_geom_bond_site_symmetry_2
Na0 Na1 2.878029 1_455
Na0 Pd2 2.941937 1_655
Na0 Pd1 2.941939 1_655
Na0 Pd0 2.941940 1_655
Na0 Pd0 3.128252 1_555
Na0 Pd1 3.128252 1_555
Na0 Pd2 3.128254 1_565
Na0 Pd2 3.128255 1_556
Na0 Pd1 3.128256 1_565
Na0 Pd0 3.128257 1_556
Na1 Pd2 2.941937 1_566
Na1 Pd1 2.941939 1_565
Na1 Pd0 2.941940 1_556
Na1 Pd0 3.128252 1_656
Na1 Pd1 3.128252 1_665
Na1 Pd2 3.128254 1_656
Na1 Pd2 3.128255 1_665
Na1 Pd1 3.128256 1_655
Na1 Pd0 3.128257 1_655
As0 Pd0 2.526827 1_645
As0 Pd0 2.526827 1_555
As0 Pd2 2.526827 1_655
As0 Pd2 2.526827 1_555
As0 Pd1 2.526828 1_555
As0 Pd1 2.526828 1_654
As0 Na0 3.248203 1_555
As0 Na1 3.248203 1_544
As0 Na1 3.248208 1_554
As0 Na0 3.248208 1_545
As0 Na1 3.248208 1_545
As0 Na0 3.248208 1_554
Pd0 Pd2 2.777627 1_565
Pd0 Pd2 2.777627 1_555
Pd0 Pd1 2.777627 1_564
Pd0 Pd1 2.777627 1_555
Pd1 Pd2 2.777627 1_556
Pd1 Pd2 2.777627 1_555
