# generated using pymatgen
data_Sr3Nb2NiO9
_symmetry_space_group_name_H-M   'P 1'
_cell_length_a   5.66711698
_cell_length_b   9.82252719
_cell_length_c   6.96555104
_cell_angle_alpha   90.05944369
_cell_angle_beta   89.99388068
_cell_angle_gamma   89.99782826
_symmetry_Int_Tables_number   1
_chemical_formula_structural   Sr3Nb2NiO9
_chemical_formula_sum   'Sr6 Nb4 Ni2 O18'
_cell_volume   387.74004768
_cell_formula_units_Z   2
loop_
 _symmetry_equiv_pos_site_id
 _symmetry_equiv_pos_as_xyz
  1  'x, y, z'
loop_
 _atom_site_type_symbol
 _atom_site_label
 _atom_site_symmetry_multiplicity
 _atom_site_fract_x
 _atom_site_fract_y
 _atom_site_fract_z
 _atom_site_occupancy
  Sr  Sr0  1  0.00000000  0.00000000  0.00000000  1
  Sr  Sr1  1  0.50000000  0.50000000  0.00000000  1
  Sr  Sr2  1  0.49995869  0.16673507  0.33475686  1
  Sr  Sr3  1  0.99994640  0.66674163  0.33476010  1
  Sr  Sr4  1  0.00005260  0.33325837  0.66523990  1
  Sr  Sr5  1  0.50004031  0.83326493  0.66524214  1
  Nb  Nb0  1  0.99989705  0.33413204  0.18197994  1
  Nb  Nb1  1  0.49989317  0.83413686  0.18197369  1
  Nb  Nb2  1  0.50010783  0.16586314  0.81802631  1
  Nb  Nb3  1  0.00010295  0.66586796  0.81802006  1
  Ni  Ni0  1  0.50000000  0.50000000  0.50000000  1
  Ni  Ni1  1  0.00000000  0.00000000  0.50000000  1
  O  O0  1  0.50000000  0.00000000  0.00000000  1
  O  O1  1  0.00000000  0.50000000  0.00000000  1
  O  O2  1  0.24999637  0.24999634  0.00000098  1
  O  O3  1  0.75000463  0.75000366  0.99999902  1
  O  O4  1  0.74999980  0.24999550  0.00000696  1
  O  O5  1  0.25000120  0.75000450  0.99999404  1
  O  O6  1  0.99992243  0.16981795  0.33449075  1
  O  O7  1  0.49991852  0.66981355  0.33448017  1
  O  O8  1  0.50008248  0.33018645  0.66551983  1
  O  O9  1  0.00007857  0.83018205  0.66550925  1
  O  O10  1  0.75021254  0.41854747  0.32835003  1
  O  O11  1  0.25021172  0.91855462  0.32834100  1
  O  O12  1  0.25101650  0.08129023  0.67118533  1
  O  O13  1  0.75101341  0.58129313  0.67118175  1
  O  O14  1  0.74978828  0.08144538  0.67166000  1
  O  O15  1  0.24978746  0.58145253  0.67165097  1
  O  O16  1  0.24898759  0.41870687  0.32881825  1
  O  O17  1  0.74898350  0.91870977  0.32881467  1
loop_
_geom_bond_atom_site_label_1
_geom_bond_atom_site_label_2
_geom_bond_distance
_geom_bond_site_symmetry_2
Nb0 O10 1.930558 1_555
Nb0 O16 1.930696 1_655
Nb0 O6 1.933136 1_555
Nb0 O1 2.065309 1_655
Nb0 O4 2.072093 1_555
Nb0 O2 2.072670 1_655
Nb1 O11 1.930545 1_555
Nb1 O17 1.930697 1_555
Nb1 O7 1.933195 1_555
Nb1 O0 2.065245 1_565
Nb1 O5 2.072084 1_554
Nb1 O3 2.072689 1_554
Nb2 O14 1.930537 1_555
Nb2 O12 1.930701 1_555
Nb2 O8 1.933195 1_555
Nb2 O0 2.065245 1_556
Nb2 O4 2.072088 1_556
Nb2 O2 2.072689 1_556
Nb3 O15 1.930555 1_555
Nb3 O13 1.930692 1_455
Nb3 O9 1.933136 1_555
Nb3 O1 2.065309 1_556
Nb3 O5 2.072101 1_555
Nb3 O3 2.072666 1_455
Ni0 O10 2.019382 1_555
Ni0 O15 2.019386 1_555
Ni0 O16 2.020246 1_555
Ni0 O13 2.020250 1_555
Ni0 O7 2.028663 1_555
Ni0 O8 2.028663 1_555
Ni1 O11 2.019388 1_545
Ni1 O14 2.019392 1_455
Ni1 O17 2.020266 1_445
Ni1 O12 2.020266 1_555
Ni1 O6 2.028656 1_455
Ni1 O9 2.028656 1_545
O0 Sr0 2.833558 1_555
O0 Sr0 2.833558 1_655
O0 Sr2 2.848063 1_555
O0 Sr5 2.848069 1_544
O1 Sr1 2.833558 1_555
O1 Sr1 2.833558 1_455
O1 Sr3 2.848119 1_455
O1 Sr4 2.848119 1_554
O2 Sr0 2.835034 1_555
O2 Sr1 2.835117 1_555
O2 Sr4 2.849048 1_554
O2 Sr2 2.849068 1_555
O3 Sr0 2.835031 1_666
O3 Sr1 2.835120 1_556
O3 Sr3 2.849042 1_556
O3 Sr5 2.849080 1_555
O4 Sr0 2.834945 1_655
O4 Sr1 2.835021 1_555
O4 Sr2 2.849037 1_555
O4 Sr4 2.849175 1_654
O5 Sr0 2.834948 1_566
O5 Sr1 2.835018 1_556
O5 Sr5 2.849043 1_555
O5 Sr3 2.849175 1_456
O6 Sr4 2.806662 1_655
O6 Sr2 2.833516 1_555
O6 Sr2 2.833925 1_655
O6 Sr0 2.864051 1_655
O7 Sr5 2.806797 1_555
O7 Sr3 2.833563 1_455
O7 Sr3 2.833877 1_555
O7 Sr1 2.863966 1_555
O8 Sr2 2.806803 1_555
O8 Sr4 2.833551 1_655
O8 Sr4 2.833888 1_555
O8 Sr1 2.863966 1_556
O9 Sr3 2.806662 1_455
O9 Sr5 2.833505 1_555
O9 Sr5 2.833937 1_455
O9 Sr0 2.864051 1_566
O10 Sr1 2.808237 1_555
O10 Sr3 2.819284 1_555
O10 Sr2 2.851612 1_555
O10 Sr4 2.866683 1_655
O11 Sr0 2.808164 1_565
O11 Sr2 2.819205 1_565
O11 Sr3 2.851651 1_455
O11 Sr5 2.866717 1_555
O12 Sr0 2.812505 1_556
O12 Sr5 2.815687 1_545
O12 Sr4 2.854801 1_555
O12 Sr2 2.861773 1_555
O13 Sr1 2.812525 1_556
O13 Sr4 2.815811 1_655
O13 Sr5 2.854858 1_555
O13 Sr3 2.861719 1_555
O14 Sr0 2.808158 1_656
O14 Sr5 2.819208 1_545
O14 Sr4 2.851648 1_655
O14 Sr2 2.866731 1_555
O15 Sr1 2.808232 1_556
O15 Sr4 2.819287 1_555
O15 Sr5 2.851609 1_555
O15 Sr3 2.866691 1_455
O16 Sr1 2.812522 1_555
O16 Sr3 2.815816 1_455
O16 Sr2 2.854852 1_555
O16 Sr4 2.861725 1_555
O17 Sr0 2.812505 1_665
O17 Sr2 2.815690 1_565
O17 Sr3 2.854799 1_555
O17 Sr5 2.861770 1_555
