# generated using pymatgen
data_Cs4Ba2TiP4
_symmetry_space_group_name_H-M   'P 1'
_cell_length_a   10.77220060
_cell_length_b   10.77220208
_cell_length_c   8.00595415
_cell_angle_alpha   87.47149391
_cell_angle_beta   87.47148992
_cell_angle_gamma   119.05277452
_symmetry_Int_Tables_number   1
_chemical_formula_structural   Cs4Ba2TiP4
_chemical_formula_sum   'Cs8 Ba4 Ti2 P8'
_cell_volume   809.03969040
_cell_formula_units_Z   2
loop_
 _symmetry_equiv_pos_site_id
 _symmetry_equiv_pos_as_xyz
  1  'x, y, z'
loop_
 _atom_site_type_symbol
 _atom_site_label
 _atom_site_symmetry_multiplicity
 _atom_site_fract_x
 _atom_site_fract_y
 _atom_site_fract_z
 _atom_site_occupancy
  Cs  Cs0  1  0.47402605  0.94230008  0.38969703  1
  Cs  Cs1  1  0.94230008  0.47402605  0.88969703  1
  Cs  Cs2  1  0.86881054  0.72525392  0.15414052  1
  Cs  Cs3  1  0.25614805  0.12163194  0.24663263  1
  Cs  Cs4  1  0.85647852  0.14338483  0.18990755  1
  Cs  Cs5  1  0.12163194  0.25614805  0.74663263  1
  Cs  Cs6  1  0.72525392  0.86881054  0.65414052  1
  Cs  Cs7  1  0.14338483  0.85647852  0.68990755  1
  Ba  Ba0  1  0.07172127  0.53495876  0.40009820  1
  Ba  Ba1  1  0.47681694  0.53051478  0.37732248  1
  Ba  Ba2  1  0.53495876  0.07172127  0.90009820  1
  Ba  Ba3  1  0.53051478  0.47681694  0.87732248  1
  Ti  Ti0  1  0.66360849  0.33718937  0.49065406  1
  Ti  Ti1  1  0.33718937  0.66360849  0.99065406  1
  P  P0  1  0.63528898  0.33082910  0.18733159  1
  P  P1  1  0.33082910  0.63528898  0.68733159  1
  P  P2  1  0.22248482  0.42552314  0.13099463  1
  P  P3  1  0.58187134  0.78540336  0.06376604  1
  P  P4  1  0.22257959  0.79298716  0.08712328  1
  P  P5  1  0.78540336  0.58187134  0.56376604  1
  P  P6  1  0.42552314  0.22248482  0.63099463  1
  P  P7  1  0.79298716  0.22257959  0.58712328  1
loop_
_geom_bond_atom_site_label_1
_geom_bond_atom_site_label_2
_geom_bond_distance
_geom_bond_site_symmetry_2
Cs0 P4 3.533145 1_555
Cs0 P1 3.608399 1_555
Cs0 P3 3.611603 1_555
Cs0 P7 3.774171 1_565
Cs0 P6 3.882199 1_565
Cs0 P0 3.905303 1_565
Cs1 P7 3.533145 1_555
Cs1 P0 3.608398 1_556
Cs1 P5 3.611603 1_555
Cs1 P4 3.774171 1_656
Cs1 P2 3.882198 1_656
Cs1 P1 3.905303 1_655
Cs2 P5 3.448611 1_555
Cs2 P4 3.525263 1_655
Cs2 P3 3.549439 1_555
Cs2 P0 3.729862 1_555
Cs3 P2 3.552471 1_555
Cs3 P0 3.574887 1_555
Cs3 P6 3.583780 1_555
Cs3 P4 3.673019 1_545
Cs4 P7 3.452924 1_555
Cs4 P2 3.616032 1_655
Cs4 P3 3.764191 1_545
Cs4 P0 3.798441 1_555
Cs5 P6 3.552471 1_555
Cs5 P1 3.574887 1_555
Cs5 P2 3.583780 1_556
Cs5 P7 3.673018 1_455
Cs6 P3 3.448611 1_556
Cs6 P7 3.525263 1_565
Cs6 P5 3.549439 1_555
Cs6 P1 3.729862 1_555
Cs7 P4 3.452924 1_556
Cs7 P6 3.616032 1_565
Cs7 P5 3.764191 1_455
Cs7 P1 3.798441 1_555
Ba0 P2 3.231667 1_555
Ba0 P4 3.359203 1_555
Ba0 P7 3.453472 1_455
Ba0 P1 3.478864 1_555
Ba0 P5 3.563804 1_455
Ba1 P2 3.215337 1_555
Ba1 P3 3.353305 1_555
Ba1 P1 3.396102 1_555
Ba1 P5 3.508369 1_555
Ba1 P6 3.600794 1_555
Ba1 P0 3.671622 1_555
Ba2 P6 3.231667 1_555
Ba2 P7 3.359203 1_555
Ba2 P4 3.453472 1_546
Ba2 P0 3.478864 1_556
Ba2 P3 3.563805 1_546
Ba3 P6 3.215337 1_555
Ba3 P5 3.353304 1_555
Ba3 P0 3.396102 1_556
Ba3 P3 3.508370 1_556
Ba3 P2 3.600793 1_556
Ba3 P1 3.671622 1_555
P0 Ti0 2.460602 1_555
P1 Ti1 2.460601 1_555
P2 Ti1 2.431517 1_554
P3 Ti1 2.420012 1_554
P4 Ti1 2.396894 1_554
P5 Ti0 2.420012 1_555
P6 Ti0 2.431517 1_555
P7 Ti0 2.396894 1_555
