# generated using pymatgen
data_Rb6Sc3RhBr18
_symmetry_space_group_name_H-M   'P 1'
_cell_length_a   7.54032679
_cell_length_b   7.54051533
_cell_length_c   19.05912202
_cell_angle_alpha   89.99138277
_cell_angle_beta   90.00057122
_cell_angle_gamma   120.00300116
_symmetry_Int_Tables_number   1
_chemical_formula_structural   Rb6Sc3RhBr18
_chemical_formula_sum   'Rb6 Sc3 Rh1 Br18'
_cell_volume   938.45094764
_cell_formula_units_Z   1
loop_
 _symmetry_equiv_pos_site_id
 _symmetry_equiv_pos_as_xyz
  1  'x, y, z'
loop_
 _atom_site_type_symbol
 _atom_site_label
 _atom_site_symmetry_multiplicity
 _atom_site_fract_x
 _atom_site_fract_y
 _atom_site_fract_z
 _atom_site_occupancy
  Rb  Rb0  1  0.33332063  0.66664530  0.06618979  1
  Rb  Rb1  1  0.66665721  0.33332485  0.93368604  1
  Rb  Rb2  1  0.66665037  0.33333850  0.57331254  1
  Rb  Rb3  1  0.33330045  0.66663671  0.43580010  1
  Rb  Rb4  1  0.99999085  0.99999117  0.25238184  1
  Rb  Rb5  1  0.99998791  0.99999525  0.74256006  1
  Sc  Sc0  1  0.66666740  0.33333085  0.34735687  1
  Sc  Sc1  1  0.66668295  0.33333974  0.15672393  1
  Sc  Sc2  1  0.33334657  0.66667963  0.83834825  1
  Rh  Rh0  1  0.33337859  0.66671004  0.66421356  1
  Br  Br0  1  0.17798580  0.35593129  0.59053784  1
  Br  Br1  1  0.83365804  0.66749700  0.41663159  1
  Br  Br2  1  0.64413699  0.82207384  0.59050336  1
  Br  Br3  1  0.83339258  0.66680237  0.08645498  1
  Br  Br4  1  0.33247208  0.16600756  0.41663242  1
  Br  Br5  1  0.16667549  0.33364518  0.90886461  1
  Br  Br6  1  0.17796073  0.82204343  0.59048911  1
  Br  Br7  1  0.33322505  0.16663725  0.08644428  1
  Br  Br8  1  0.83385263  0.16627694  0.41662357  1
  Br  Br9  1  0.66629888  0.83309379  0.90887545  1
  Br  Br10  1  0.83337795  0.16664755  0.08645599  1
  Br  Br11  1  0.16688914  0.83328017  0.90879119  1
  Br  Br12  1  0.50658416  0.01314737  0.25154141  1
  Br  Br13  1  0.49176511  0.98349771  0.74248216  1
  Br  Br14  1  0.98687843  0.49344196  0.25152738  1
  Br  Br15  1  0.01655112  0.50830309  0.74252137  1
  Br  Br16  1  0.50654542  0.49340316  0.25152604  1
  Br  Br17  1  0.49176847  0.50827729  0.74252524  1
loop_
_geom_bond_atom_site_label_1
_geom_bond_atom_site_label_2
_geom_bond_distance
_geom_bond_site_symmetry_2
Br0 Rh0 2.468041 1_555
Br0 Rb3 3.579404 1_555
Br0 Rb5 3.714169 1_445
Br0 Rb2 3.787027 1_555
Br0 Rb2 3.787587 1_455
Br1 Sc0 2.550667 1_555
Br1 Rb2 3.698201 1_555
Br1 Rb3 3.787286 1_555
Br1 Rb3 3.788368 1_655
Br1 Rb4 3.809415 1_555
Br2 Rh0 2.467983 1_555
Br2 Rb3 3.579725 1_555
Br2 Rb5 3.714739 1_555
Br2 Rb2 3.787315 1_555
Br2 Rb2 3.787326 1_565
Br3 Sc1 2.556232 1_555
Br3 Rb1 3.636191 1_554
Br3 Rb0 3.789843 1_555
Br3 Rb0 3.789949 1_655
Br3 Rb4 3.838893 1_555
Br4 Sc0 2.550517 1_555
Br4 Rb2 3.698662 1_555
Br4 Rb3 3.786251 1_545
Br4 Rb3 3.789587 1_555
Br4 Rb4 3.809783 1_445
Br5 Sc2 2.556326 1_555
Br5 Rb0 3.704268 1_556
Br5 Rb1 3.798671 1_455
Br5 Rb1 3.800785 1_555
Br5 Rb5 3.846531 1_445
Br6 Rh0 2.468176 1_555
Br6 Rb3 3.579264 1_555
Br6 Rb5 3.715367 1_455
Br6 Rb2 3.787004 1_565
Br6 Rb2 3.787202 1_455
Br7 Sc1 2.556543 1_555
Br7 Rb1 3.635393 1_554
Br7 Rb0 3.789613 1_555
Br7 Rb0 3.790325 1_545
Br7 Rb4 3.838762 1_445
Br8 Sc0 2.550762 1_555
Br8 Rb2 3.699232 1_555
Br8 Rb3 3.787048 1_655
Br8 Rb3 3.788390 1_545
Br8 Rb4 3.809533 1_545
Br9 Sc2 2.556210 1_555
Br9 Rb0 3.703556 1_556
Br9 Rb1 3.799338 1_555
Br9 Rb1 3.800255 1_565
Br9 Rb5 3.846378 1_555
Br10 Sc1 2.556160 1_555
Br10 Rb1 3.635484 1_554
Br10 Rb0 3.789497 1_655
Br10 Rb0 3.790052 1_545
Br10 Rb4 3.838749 1_545
Br11 Sc2 2.556080 1_555
Br11 Rb0 3.705238 1_556
Br11 Rb1 3.799146 1_565
Br11 Rb1 3.800414 1_455
Br11 Rb5 3.844827 1_455
Br12 Sc1 2.763379 1_555
Br12 Sc0 2.776271 1_555
Br12 Rb4 3.771067 1_545
Br12 Rb4 3.771285 1_445
Br13 Rh0 2.550609 1_555
Br13 Sc2 2.759935 1_555
Br13 Rb5 3.771500 1_555
Br13 Rb5 3.771906 1_455
Br13 Rb2 3.951207 1_565
Br14 Sc1 2.763513 1_555
Br14 Sc0 2.776209 1_555
Br14 Rb4 3.771211 1_555
Br14 Rb4 3.771319 1_545
Br15 Rh0 2.550921 1_555
Br15 Sc2 2.759624 1_555
Br15 Rb5 3.771615 1_455
Br15 Rb5 3.772002 1_445
Br15 Rb2 3.952464 1_455
Br16 Sc1 2.763638 1_555
Br16 Sc0 2.776210 1_555
Br16 Rb4 3.770921 1_445
Br16 Rb4 3.771182 1_555
Br17 Rh0 2.551014 1_555
Br17 Sc2 2.759829 1_555
Br17 Rb5 3.771340 1_555
Br17 Rb5 3.771818 1_445
Br17 Rb2 3.952330 1_555
