# generated using pymatgen
data_LiY16Hg3Rh4
_symmetry_space_group_name_H-M   'P 1'
_cell_length_a   9.64340507
_cell_length_b   9.58616498
_cell_length_c   9.58616464
_cell_angle_alpha   60.00000456
_cell_angle_beta   60.19616153
_cell_angle_gamma   60.19615499
_symmetry_Int_Tables_number   1
_chemical_formula_structural   LiY16Hg3Rh4
_chemical_formula_sum   'Li1 Y16 Hg3 Rh4'
_cell_volume   628.47284844
_cell_formula_units_Z   1
loop_
 _symmetry_equiv_pos_site_id
 _symmetry_equiv_pos_as_xyz
  1  'x, y, z'
loop_
 _atom_site_type_symbol
 _atom_site_label
 _atom_site_symmetry_multiplicity
 _atom_site_fract_x
 _atom_site_fract_y
 _atom_site_fract_z
 _atom_site_occupancy
  Li  Li0  1  0.56103967  0.81298644  0.81298644  1
  Y  Y0  1  0.60112726  0.59757003  0.59757003  1
  Y  Y1  1  0.60112726  0.59757003  0.20373469  1
  Y  Y2  1  0.60112726  0.20373469  0.59757003  1
  Y  Y3  1  0.18574238  0.60475321  0.60475321  1
  Y  Y4  1  0.05716433  0.44167929  0.44167929  1
  Y  Y5  1  0.43672955  0.06297902  0.06297902  1
  Y  Y6  1  0.43672955  0.06297902  0.43731141  1
  Y  Y7  1  0.05716433  0.44167929  0.05947709  1
  Y  Y8  1  0.43672955  0.43731141  0.06297902  1
  Y  Y9  1  0.05716433  0.05947709  0.44167929  1
  Y  Y10  1  0.18418993  0.81259942  0.81259942  1
  Y  Y11  1  0.81290151  0.18602964  0.18602964  1
  Y  Y12  1  0.81290151  0.18602964  0.81503920  1
  Y  Y13  1  0.18418993  0.81259942  0.19061024  1
  Y  Y14  1  0.81290151  0.81503920  0.18602964  1
  Y  Y15  1  0.18418993  0.19061024  0.81259942  1
  Hg  Hg0  1  0.83116712  0.83734339  0.83734339  1
  Hg  Hg1  1  0.83116712  0.83734339  0.49414511  1
  Hg  Hg2  1  0.83116712  0.49414511  0.83734339  1
  Rh  Rh0  1  0.38663879  0.39533789  0.39533789  1
  Rh  Rh1  1  0.38663879  0.39533789  0.82268642  1
  Rh  Rh2  1  0.38663879  0.82268642  0.39533789  1
  Rh  Rh3  1  0.82346347  0.39217884  0.39217884  1
loop_
_geom_bond_atom_site_label_1
_geom_bond_atom_site_label_2
_geom_bond_distance
_geom_bond_site_symmetry_2
Li0 Y15 3.637806 1_565
Li0 Y10 3.637807 1_555
Li0 Y13 3.637807 1_556
Y0 Y10 3.526410 1_555
Y1 Y13 3.526419 1_555
Y10 Y3 3.442451 1_555
Y10 Y9 3.574544 1_565
Y10 Y7 3.574544 1_556
Y10 Y12 3.590877 1_465
Y10 Y14 3.590877 1_456
Y10 Y8 3.619490 1_556
Y10 Y6 3.619491 1_565
Y10 Y13 3.623674 1_556
Y10 Y15 3.623674 1_565
Y11 Y13 3.590877 1_645
Y11 Y15 3.590877 1_654
Y12 Y15 3.590872 1_655
Y13 Y3 3.442476 1_555
Y13 Y4 3.574544 1_555
Y13 Y9 3.574552 1_565
Y13 Y14 3.590872 1_455
Y13 Y8 3.619490 1_555
Y13 Y5 3.619490 1_565
Y13 Y15 3.623674 1_564
Y15 Y3 3.442476 1_555
Y15 Y2 3.526419 1_555
Y15 Y4 3.574544 1_555
Y15 Y7 3.574552 1_556
Y15 Y5 3.619490 1_556
Y15 Y6 3.619490 1_555
Hg0 Li0 2.856317 1_555
Hg0 Y14 3.160215 1_556
Hg0 Y12 3.160215 1_565
Hg0 Y10 3.186362 1_655
Hg0 Y3 3.383558 1_655
Hg0 Y2 3.433774 1_565
Hg0 Y1 3.433775 1_556
Hg0 Y7 3.462613 1_656
Hg0 Y9 3.462613 1_665
Hg0 Y5 3.485207 1_566
Hg1 Li0 2.856317 1_555
Hg1 Y14 3.160206 1_555
Hg1 Y11 3.160211 1_565
Hg1 Y13 3.186362 1_655
Hg1 Y3 3.383572 1_655
Hg1 Y0 3.433764 1_555
Hg1 Y2 3.433788 1_565
Hg1 Y4 3.462609 1_655
Hg1 Y9 3.462618 1_665
Hg1 Y6 3.485207 1_565
Hg2 Li0 2.856317 1_555
Hg2 Y12 3.160206 1_555
Hg2 Y11 3.160211 1_556
Hg2 Y15 3.186362 1_655
Hg2 Y3 3.383573 1_655
Hg2 Y0 3.433764 1_555
Hg2 Y1 3.433788 1_556
Hg2 Y4 3.462610 1_655
Hg2 Y7 3.462618 1_656
Hg2 Y8 3.485207 1_556
Rh0 Y4 2.807284 1_555
Rh0 Y8 2.815583 1_555
Rh0 Y6 2.815583 1_555
Rh0 Y2 2.838823 1_555
Rh0 Y1 2.838823 1_555
Rh0 Y3 2.848003 1_555
Rh0 Y13 3.443620 1_555
Rh0 Y15 3.443620 1_555
Rh1 Y7 2.807281 1_556
Rh1 Y8 2.815564 1_556
Rh1 Y5 2.815577 1_556
Rh1 Y2 2.838816 1_555
Rh1 Y0 2.838823 1_555
Rh1 Y3 2.847996 1_555
Rh1 Y10 3.443615 1_555
Rh1 Y15 3.443631 1_555
Rh2 Y9 2.807281 1_565
Rh2 Y6 2.815564 1_565
Rh2 Y5 2.815577 1_565
Rh2 Y1 2.838816 1_555
Rh2 Y0 2.838822 1_555
Rh2 Y3 2.847997 1_555
Rh2 Y10 3.443615 1_555
Rh2 Y13 3.443631 1_555
Rh3 Y1 2.798923 1_555
Rh3 Y2 2.798923 1_555
Rh3 Y0 2.798935 1_555
Rh3 Y9 2.807253 1_655
Rh3 Y4 2.807253 1_655
Rh3 Y7 2.807253 1_655
