# generated using pymatgen
data_LuSc(Ga2Pt)2
_symmetry_space_group_name_H-M   'P 1'
_cell_length_a   5.35971410
_cell_length_b   5.35971314
_cell_length_c   6.60267016
_cell_angle_alpha   90.00000000
_cell_angle_beta   90.00000000
_cell_angle_gamma   46.76611132
_symmetry_Int_Tables_number   1
_chemical_formula_structural   LuSc(Ga2Pt)2
_chemical_formula_sum   'Lu1 Sc1 Ga4 Pt2'
_cell_volume   138.18797382
_cell_formula_units_Z   1
loop_
 _symmetry_equiv_pos_site_id
 _symmetry_equiv_pos_as_xyz
  1  'x, y, z'
loop_
 _atom_site_type_symbol
 _atom_site_label
 _atom_site_symmetry_multiplicity
 _atom_site_fract_x
 _atom_site_fract_y
 _atom_site_fract_z
 _atom_site_occupancy
  Lu  Lu0  1  0.08367942  0.08367942  0.25000000  1
  Sc  Sc0  1  0.91539448  0.91539448  0.75000100  1
  Ga  Ga0  1  0.37130040  0.37130040  0.04707069  1
  Ga  Ga1  1  0.37130040  0.37130040  0.45293031  1
  Ga  Ga2  1  0.63002455  0.63002455  0.55255821  1
  Ga  Ga3  1  0.63002455  0.63002455  0.94744379  1
  Pt  Pt0  1  0.79559161  0.79559161  0.25000000  1
  Pt  Pt1  1  0.20267561  0.20267561  0.75000100  1
loop_
_geom_bond_atom_site_label_1
_geom_bond_atom_site_label_2
_geom_bond_distance
_geom_bond_site_symmetry_2
Lu0 Pt0 2.834514 1_445
Lu0 Pt0 2.978597 1_455
Lu0 Pt0 2.978597 1_545
Ga0 Pt1 2.569036 1_554
Ga0 Pt0 2.622001 1_545
Ga0 Pt0 2.622001 1_455
Ga0 Ga3 2.629221 1_554
Ga0 Ga1 2.679757 1_555
Ga0 Sc0 2.925792 1_454
Ga0 Sc0 2.925793 1_544
Ga0 Lu0 3.131089 1_555
Ga0 Lu0 3.269018 1_565
Ga0 Lu0 3.269019 1_655
Ga1 Pt1 2.569041 1_555
Ga1 Pt0 2.622004 1_545
Ga1 Pt0 2.622005 1_455
Ga1 Ga2 2.629222 1_555
Ga1 Sc0 2.925797 1_455
Ga1 Sc0 2.925797 1_545
Ga1 Lu0 3.131092 1_555
Ga1 Lu0 3.269021 1_565
Ga1 Lu0 3.269021 1_655
Ga2 Pt0 2.577692 1_555
Ga2 Pt1 2.595228 1_565
Ga2 Pt1 2.595228 1_655
Ga2 Ga3 2.607299 1_555
Ga2 Lu0 2.953548 1_655
Ga2 Lu0 2.953548 1_565
Ga2 Sc0 3.095657 1_555
Ga2 Sc0 3.268603 1_545
Ga2 Sc0 3.268604 1_455
Ga3 Pt0 2.577682 1_556
Ga3 Pt1 2.595228 1_565
Ga3 Pt1 2.595228 1_655
Ga3 Lu0 2.953539 1_656
Ga3 Lu0 2.953539 1_566
Ga3 Sc0 3.095657 1_555
Ga3 Sc0 3.268603 1_545
Ga3 Sc0 3.268604 1_455
Pt1 Sc0 2.826577 1_445
Pt1 Sc0 2.984158 1_455
Pt1 Sc0 2.984158 1_545
