# generated using pymatgen
data_CsZrMnF7
_symmetry_space_group_name_H-M   'P 1'
_cell_length_a   6.54595296
_cell_length_b   6.54595385
_cell_length_c   8.38775361
_cell_angle_alpha   90.00000000
_cell_angle_beta   90.00000000
_cell_angle_gamma   119.02958557
_symmetry_Int_Tables_number   1
_chemical_formula_structural   CsZrMnF7
_chemical_formula_sum   'Cs2 Zr2 Mn2 F14'
_cell_volume   314.25801322
_cell_formula_units_Z   2
loop_
 _symmetry_equiv_pos_site_id
 _symmetry_equiv_pos_as_xyz
  1  'x, y, z'
loop_
 _atom_site_type_symbol
 _atom_site_label
 _atom_site_symmetry_multiplicity
 _atom_site_fract_x
 _atom_site_fract_y
 _atom_site_fract_z
 _atom_site_occupancy
  Cs  Cs0  1  0.50000000  0.50000000  0.50000000  1
  Cs  Cs1  1  0.50000000  0.50000000  0.00000000  1
  Zr  Zr0  1  0.81017239  0.18982761  0.25000000  1
  Zr  Zr1  1  0.18982761  0.81017239  0.75000000  1
  Mn  Mn0  1  0.18858317  0.81141683  0.25000000  1
  Mn  Mn1  1  0.81141683  0.18858317  0.75000000  1
  F  F0  1  0.84300761  0.55251623  0.75000000  1
  F  F1  1  0.15699239  0.44748377  0.25000000  1
  F  F2  1  0.15935599  0.47250582  0.75000000  1
  F  F3  1  0.80415827  0.19584173  0.49351855  1
  F  F4  1  0.44748377  0.15699239  0.75000000  1
  F  F5  1  0.80415827  0.19584173  0.00648145  1
  F  F6  1  0.19584173  0.80415827  0.99351855  1
  F  F7  1  0.84064401  0.52749418  0.25000000  1
  F  F8  1  0.55251623  0.84300761  0.25000000  1
  F  F9  1  0.99346360  0.00653640  0.25000000  1
  F  F10  1  0.00653640  0.99346360  0.75000000  1
  F  F11  1  0.19584173  0.80415827  0.50648145  1
  F  F12  1  0.52749418  0.84064401  0.75000000  1
  F  F13  1  0.47250582  0.15935599  0.25000000  1
loop_
_geom_bond_atom_site_label_1
_geom_bond_atom_site_label_2
_geom_bond_distance
_geom_bond_site_symmetry_2
Cs0 F0 2.967766 1_555
Cs0 F1 2.967766 1_555
Cs0 F8 2.967767 1_555
Cs0 F4 2.967767 1_555
Cs0 F2 3.002039 1_555
Cs0 F7 3.002039 1_555
Cs0 F12 3.002039 1_555
Cs0 F13 3.002039 1_555
Cs1 F0 2.967766 1_554
Cs1 F1 2.967766 1_555
Cs1 F8 2.967767 1_555
Cs1 F4 2.967767 1_554
Cs1 F2 3.002039 1_554
Cs1 F7 3.002039 1_555
Cs1 F12 3.002039 1_554
Cs1 F13 3.002039 1_555
F0 Zr1 2.069439 1_655
F0 Mn1 2.289093 1_555
F1 Zr0 2.069439 1_455
F1 Mn0 2.289093 1_555
F2 Zr1 2.120740 1_555
F2 Mn1 2.129176 1_455
F3 Zr0 2.043700 1_555
F3 Mn1 2.152861 1_555
F4 Zr1 2.069439 1_545
F4 Mn1 2.289093 1_555
F5 Zr0 2.043700 1_555
F5 Mn1 2.152861 1_554
F6 Zr1 2.043700 1_555
F6 Mn0 2.152861 1_556
F7 Zr0 2.120740 1_555
F7 Mn0 2.129176 1_655
F8 Zr0 2.069439 1_565
F8 Mn0 2.289093 1_555
F9 Zr0 2.067907 1_555
F9 Mn0 2.201355 1_645
F10 Zr1 2.067907 1_555
F10 Mn1 2.201355 1_465
F11 Zr1 2.043700 1_555
F11 Mn0 2.152861 1_555
F12 Zr1 2.120740 1_555
F12 Mn1 2.129176 1_565
F13 Zr0 2.120740 1_555
F13 Mn0 2.129176 1_545
