# generated using pymatgen
data_Rb4InPCl12
_symmetry_space_group_name_H-M   'P 1'
_cell_length_a   7.16241104
_cell_length_b   7.16241104
_cell_length_c   9.89885453
_cell_angle_alpha   90.00000000
_cell_angle_beta   90.00000000
_cell_angle_gamma   90.00000000
_symmetry_Int_Tables_number   1
_chemical_formula_structural   Rb4InPCl12
_chemical_formula_sum   'Rb4 In1 P1 Cl12'
_cell_volume   507.81254290
_cell_formula_units_Z   1
loop_
 _symmetry_equiv_pos_site_id
 _symmetry_equiv_pos_as_xyz
  1  'x, y, z'
loop_
 _atom_site_type_symbol
 _atom_site_label
 _atom_site_symmetry_multiplicity
 _atom_site_fract_x
 _atom_site_fract_y
 _atom_site_fract_z
 _atom_site_occupancy
  Rb  Rb0  1  0.50000000  0.00000000  0.77259251  1
  Rb  Rb1  1  0.00000000  0.50000000  0.22740749  1
  Rb  Rb2  1  0.50000000  0.00000000  0.22740749  1
  Rb  Rb3  1  0.00000000  0.50000000  0.77259251  1
  In  In0  1  0.00000000  0.00000000  0.00000000  1
  P  P0  1  0.50000000  0.50000000  0.50000000  1
  Cl  Cl0  1  0.00000000  0.00000000  0.74179172  1
  Cl  Cl1  1  0.50000000  0.50000000  0.28254378  1
  Cl  Cl2  1  0.71383029  0.71383029  0.50000000  1
  Cl  Cl3  1  0.24873795  0.24873795  0.00000000  1
  Cl  Cl4  1  0.71383029  0.28616971  0.50000000  1
  Cl  Cl5  1  0.24873795  0.75126205  0.00000000  1
  Cl  Cl6  1  0.00000000  0.00000000  0.25820828  1
  Cl  Cl7  1  0.50000000  0.50000000  0.71745622  1
  Cl  Cl8  1  0.28616971  0.28616971  0.50000000  1
  Cl  Cl9  1  0.75126205  0.75126205  0.00000000  1
  Cl  Cl10  1  0.28616971  0.71383029  0.50000000  1
  Cl  Cl11  1  0.75126205  0.24873795  0.00000000  1
loop_
_geom_bond_atom_site_label_1
_geom_bond_atom_site_label_2
_geom_bond_distance
_geom_bond_site_symmetry_2
Cl0 In0 2.555966 1_556
Cl0 Rb3 3.594161 1_545
Cl0 Rb3 3.594161 1_555
Cl0 Rb0 3.594161 1_455
Cl0 Rb0 3.594161 1_555
Cl1 P0 2.152567 1_555
Cl1 Rb1 3.622556 1_655
Cl1 Rb1 3.622556 1_555
Cl1 Rb2 3.622556 1_555
Cl1 Rb2 3.622556 1_565
Cl2 P0 2.165925 1_555
Cl2 Rb1 3.718582 1_655
Cl2 Rb2 3.718582 1_565
Cl2 Rb0 3.718582 1_565
Cl2 Rb3 3.718582 1_655
Cl3 In0 2.519511 1_555
Cl3 Rb2 3.388217 1_555
Cl3 Rb1 3.388217 1_555
Cl3 Rb0 3.388217 1_554
Cl3 Rb3 3.388217 1_554
Cl4 P0 2.165925 1_555
Cl4 Rb2 3.718582 1_555
Cl4 Rb0 3.718582 1_555
Cl4 Rb1 3.718582 1_655
Cl4 Rb3 3.718582 1_655
Cl5 In0 2.519511 1_565
Cl5 Rb3 3.388217 1_554
Cl5 Rb1 3.388217 1_555
Cl5 Rb0 3.388217 1_564
Cl5 Rb2 3.388217 1_565
Cl6 In0 2.555966 1_555
Cl6 Rb2 3.594161 1_455
Cl6 Rb1 3.594161 1_545
Cl6 Rb1 3.594161 1_555
Cl6 Rb2 3.594161 1_555
Cl7 P0 2.152567 1_555
Cl7 Rb0 3.622556 1_565
Cl7 Rb3 3.622556 1_655
Cl7 Rb0 3.622556 1_555
Cl7 Rb3 3.622556 1_555
Cl8 P0 2.165925 1_555
Cl8 Rb1 3.718582 1_555
Cl8 Rb2 3.718582 1_555
Cl8 Rb3 3.718582 1_555
Cl8 Rb0 3.718582 1_555
Cl9 In0 2.519511 1_665
Cl9 Rb2 3.388217 1_565
Cl9 Rb1 3.388217 1_655
Cl9 Rb3 3.388217 1_654
Cl9 Rb0 3.388217 1_564
Cl10 P0 2.165925 1_555
Cl10 Rb1 3.718582 1_555
Cl10 Rb3 3.718582 1_555
Cl10 Rb2 3.718582 1_565
Cl10 Rb0 3.718582 1_565
Cl11 In0 2.519511 1_655
Cl11 Rb0 3.388217 1_554
Cl11 Rb2 3.388217 1_555
Cl11 Rb3 3.388217 1_654
Cl11 Rb1 3.388217 1_655
