# generated using pymatgen
data_CsGa4BiO8
_symmetry_space_group_name_H-M   'P 1'
_cell_length_a   6.92002119
_cell_length_b   6.92002107
_cell_length_c   6.92002195
_cell_angle_alpha   102.40109574
_cell_angle_beta   93.62643695
_cell_angle_gamma   136.21943525
_symmetry_Int_Tables_number   1
_chemical_formula_structural   CsGa4BiO8
_chemical_formula_sum   'Cs1 Ga4 Bi1 O8'
_cell_volume   211.92301335
_cell_formula_units_Z   1
loop_
 _symmetry_equiv_pos_site_id
 _symmetry_equiv_pos_as_xyz
  1  'x, y, z'
loop_
 _atom_site_type_symbol
 _atom_site_label
 _atom_site_symmetry_multiplicity
 _atom_site_fract_x
 _atom_site_fract_y
 _atom_site_fract_z
 _atom_site_occupancy
  Cs  Cs0  1  0.99072015  0.99072015  0.00000000  1
  Ga  Ga0  1  0.37265943  0.84355985  0.12841263  1
  Ga  Ga1  1  0.71514721  0.84355985  0.47090141  1
  Ga  Ga2  1  0.37265843  0.24424580  0.52909859  1
  Ga  Ga3  1  0.71514621  0.24424580  0.87158637  1
  Bi  Bi0  1  0.10421187  0.60421187  0.50000000  1
  O  O0  1  0.71968868  0.20515624  0.12710536  1
  O  O1  1  0.40111417  0.64682375  0.24571058  1
  O  O2  1  0.23146741  0.90612361  0.32534380  1
  O  O3  1  0.07805089  0.20515524  0.48546757  1
  O  O4  1  0.71968868  0.59258432  0.51453143  1
  O  O5  1  0.58077981  0.90612361  0.67465620  1
  O  O6  1  0.40111317  0.15540259  0.75428942  1
  O  O7  1  0.07805089  0.59258332  0.87289464  1
loop_
_geom_bond_atom_site_label_1
_geom_bond_atom_site_label_2
_geom_bond_distance
_geom_bond_site_symmetry_2
Cs0 O1 3.004125 1_665
Cs0 O6 3.004126 1_664
Cs0 O5 3.112366 1_554
Cs0 O2 3.112366 1_655
Cs0 O3 3.187502 1_665
Cs0 O7 3.187502 1_654
Cs0 O0 3.187503 1_565
Cs0 O4 3.187507 1_554
Ga0 O0 1.834067 1_565
Ga0 O1 1.841903 1_555
Ga0 O7 1.846982 1_554
Ga0 O2 1.877512 1_555
Ga1 O3 1.834066 1_665
Ga1 O1 1.841899 1_555
Ga1 O4 1.846970 1_555
Ga1 O5 1.877507 1_555
Ga2 O4 1.834074 1_555
Ga2 O6 1.841903 1_555
Ga2 O3 1.846974 1_555
Ga2 O2 1.877507 1_545
Ga3 O7 1.834069 1_655
Ga3 O6 1.841895 1_555
Ga3 O0 1.846987 1_556
Ga3 O5 1.877507 1_545
Bi0 O5 2.272375 1_555
Bi0 O2 2.272375 1_555
Bi0 O0 2.612501 1_455
Bi0 O7 2.612501 1_555
Bi0 O4 2.612505 1_455
Bi0 O3 2.612507 1_555
Bi0 O6 2.685159 1_565
Bi0 O1 2.685164 1_555
