# generated using pymatgen
data_Er3Al5O12
_symmetry_space_group_name_H-M   'P 1'
_cell_length_a   10.32595097
_cell_length_b   10.32595097
_cell_length_c   10.32595097
_cell_angle_alpha   109.47122063
_cell_angle_beta   109.47122063
_cell_angle_gamma   109.47122063
_symmetry_Int_Tables_number   1
_chemical_formula_structural   Er3Al5O12
_chemical_formula_sum   'Er12 Al20 O48'
_cell_volume   847.55576944
_cell_formula_units_Z   4
loop_
 _symmetry_equiv_pos_site_id
 _symmetry_equiv_pos_as_xyz
  1  'x, y, z'
loop_
 _atom_site_type_symbol
 _atom_site_label
 _atom_site_symmetry_multiplicity
 _atom_site_fract_x
 _atom_site_fract_y
 _atom_site_fract_z
 _atom_site_occupancy
  Er  Er0  1  0.87500000  0.75000000  0.62500000  1
  Er  Er1  1  0.87500000  0.62500000  0.25000000  1
  Er  Er2  1  0.62500000  0.87500000  0.75000000  1
  Er  Er3  1  0.25000000  0.87500000  0.62500000  1
  Er  Er4  1  0.75000000  0.62500000  0.87500000  1
  Er  Er5  1  0.62500000  0.25000000  0.87500000  1
  Er  Er6  1  0.12500000  0.25000000  0.37500000  1
  Er  Er7  1  0.12500000  0.37500000  0.75000000  1
  Er  Er8  1  0.37500000  0.12500000  0.25000000  1
  Er  Er9  1  0.75000000  0.12500000  0.37500000  1
  Er  Er10  1  0.25000000  0.37500000  0.12500000  1
  Er  Er11  1  0.37500000  0.75000000  0.12500000  1
  Al  Al0  1  0.12500000  0.75000000  0.87500000  1
  Al  Al1  1  0.87500000  0.25000000  0.12500000  1
  Al  Al2  1  0.75000000  0.37500000  0.62500000  1
  Al  Al3  1  0.12500000  0.87500000  0.25000000  1
  Al  Al4  1  0.25000000  0.12500000  0.87500000  1
  Al  Al5  1  0.37500000  0.62500000  0.75000000  1
  Al  Al6  1  0.37500000  0.25000000  0.62500000  1
  Al  Al7  1  0.87500000  0.12500000  0.75000000  1
  Al  Al8  1  0.62500000  0.37500000  0.25000000  1
  Al  Al9  1  0.75000000  0.87500000  0.12500000  1
  Al  Al10  1  0.25000000  0.62500000  0.37500000  1
  Al  Al11  1  0.62500000  0.75000000  0.37500000  1
  Al  Al12  1  0.50000000  -0.00000000  0.50000000  1
  Al  Al13  1  -0.00000000  0.50000000  0.00000000  1
  Al  Al14  1  0.50000000  0.50000000  0.50000000  1
  Al  Al15  1  -0.00000000  -0.00000000  0.50000000  1
  Al  Al16  1  -0.00000000  -0.00000000  0.00000000  1
  Al  Al17  1  -0.00000000  0.50000000  0.50000000  1
  Al  Al18  1  0.50000000  0.50000000  0.00000000  1
  Al  Al19  1  0.50000000  -0.00000000  0.00000000  1
  O  O0  1  0.88081327  0.40231843  0.08154797  1
  O  O1  1  0.08154797  0.88081327  0.40231843  1
  O  O2  1  0.70073370  0.52150416  0.61918673  1
  O  O3  1  0.67922954  0.09768157  0.97849584  1
  O  O4  1  0.52150416  0.40231843  0.82077046  1
  O  O5  1  0.41845203  0.82077046  0.79926630  1
  O  O6  1  0.08154797  0.70073370  0.67922954  1
  O  O7  1  0.40231843  0.08154797  0.88081327  1
  O  O8  1  0.97849584  0.79926630  0.88081327  1
  O  O9  1  0.67922954  0.08154797  0.70073370  1
  O  O10  1  0.40231843  0.82077046  0.52150416  1
  O  O11  1  0.09768157  0.61918673  0.41845203  1
  O  O12  1  0.61918673  0.41845203  0.09768157  1
  O  O13  1  0.70073370  0.67922954  0.08154797  1
  O  O14  1  0.88081327  0.97849584  0.79926630  1
  O  O15  1  0.79926630  0.88081327  0.97849584  1
  O  O16  1  0.82077046  0.52150416  0.40231843  1
  O  O17  1  0.61918673  0.70073370  0.52150416  1
  O  O18  1  0.82077046  0.79926630  0.41845203  1
  O  O19  1  0.02150416  0.20073370  0.11918673  1
  O  O20  1  0.97849584  0.67922954  0.09768157  1
  O  O21  1  0.09768157  0.97849584  0.67922954  1
  O  O22  1  0.79926630  0.41845203  0.82077046  1
  O  O23  1  0.41845203  0.09768157  0.61918673  1
  O  O24  1  0.11918673  0.59768157  0.91845203  1
  O  O25  1  0.91845203  0.11918673  0.59768157  1
  O  O26  1  0.29926630  0.47849584  0.38081327  1
  O  O27  1  0.32077046  0.90231843  0.02150416  1
  O  O28  1  0.47849584  0.59768157  0.17922954  1
  O  O29  1  0.58154797  0.17922954  0.20073370  1
  O  O30  1  0.91845203  0.29926630  0.32077046  1
  O  O31  1  0.59768157  0.91845203  0.11918673  1
  O  O32  1  0.58154797  0.90231843  0.38081327  1
  O  O33  1  0.20073370  0.58154797  0.17922954  1
  O  O34  1  0.90231843  0.02150416  0.32077046  1
  O  O35  1  0.47849584  0.38081327  0.29926630  1
  O  O36  1  0.02150416  0.32077046  0.90231843  1
  O  O37  1  0.17922954  0.20073370  0.58154797  1
  O  O38  1  0.38081327  0.29926630  0.47849584  1
  O  O39  1  0.17922954  0.47849584  0.59768157  1
  O  O40  1  0.20073370  0.11918673  0.02150416  1
  O  O41  1  0.11918673  0.02150416  0.20073370  1
  O  O42  1  0.29926630  0.32077046  0.91845203  1
  O  O43  1  0.38081327  0.58154797  0.90231843  1
  O  O44  1  0.90231843  0.38081327  0.58154797  1
  O  O45  1  0.59768157  0.17922954  0.47849584  1
  O  O46  1  0.32077046  0.91845203  0.29926630  1
  O  O47  1  0.52150416  0.61918673  0.70073370  1
loop_
_geom_bond_atom_site_label_1
_geom_bond_atom_site_label_2
_geom_bond_distance
_geom_bond_site_symmetry_2
Er0 O17 2.288715 1_555
Er0 O8 2.288715 1_555
Er0 O6 2.288725 1_655
Er0 O18 2.288725 1_555
Er0 O16 2.410742 1_555
Er0 O21 2.410742 1_655
Er0 O14 2.410748 1_555
Er0 O2 2.410748 1_555
Er1 O1 2.288718 1_655
Er1 O12 2.288718 1_555
Er1 O16 2.288725 1_555
Er1 O20 2.288725 1_555
Er1 O11 2.410736 1_655
Er1 O0 2.410736 1_555
Er1 O18 2.410742 1_555
Er1 O13 2.410742 1_555
Er2 O14 2.288715 1_555
Er2 O47 2.288715 1_555
Er2 O9 2.288725 1_565
Er2 O5 2.288725 1_555
Er2 O10 2.410742 1_555
Er2 O3 2.410742 1_565
Er2 O15 2.410748 1_555
Er2 O17 2.410748 1_555
Er3 O7 2.288718 1_565
Er3 O11 2.288718 1_555
Er3 O21 2.288725 1_555
Er3 O10 2.288725 1_555
Er3 O23 2.410736 1_565
Er3 O1 2.410736 1_555
Er3 O5 2.410742 1_555
Er3 O6 2.410742 1_555
Er4 O2 2.288715 1_555
Er4 O15 2.288715 1_555
Er4 O13 2.288725 1_556
Er4 O22 2.288725 1_555
Er4 O20 2.410742 1_556
Er4 O4 2.410742 1_555
Er4 O47 2.410748 1_555
Er4 O8 2.410748 1_555
Er5 O0 2.288718 1_556
Er5 O23 2.288718 1_555
Er5 O3 2.288725 1_555
Er5 O4 2.288725 1_555
Er5 O12 2.410736 1_556
Er5 O7 2.410736 1_555
Er5 O9 2.410742 1_555
Er5 O22 2.410742 1_555
Er6 O38 2.288715 1_555
Er6 O19 2.288715 1_555
Er6 O30 2.288725 1_455
Er6 O37 2.288725 1_555
Er6 O39 2.410742 1_555
Er6 O34 2.410742 1_455
Er6 O26 2.410748 1_555
Er6 O41 2.410748 1_555
Er7 O25 2.288718 1_455
Er7 O43 2.288718 1_555
Er7 O39 2.288725 1_555
Er7 O36 2.288725 1_555
Er7 O44 2.410736 1_455
Er7 O24 2.410736 1_555
Er7 O42 2.410742 1_555
Er7 O37 2.410742 1_555
Er8 O35 2.288715 1_555
Er8 O41 2.288715 1_555
Er8 O29 2.288725 1_555
Er8 O46 2.288725 1_545
Er8 O27 2.410742 1_545
Er8 O45 2.410742 1_555
Er8 O40 2.410748 1_555
Er8 O38 2.410748 1_555
Er9 O31 2.288718 1_545
Er9 O44 2.288718 1_555
Er9 O34 2.288725 1_555
Er9 O45 2.288725 1_555
Er9 O32 2.410736 1_545
Er9 O25 2.410736 1_555
Er9 O30 2.410742 1_555
Er9 O29 2.410742 1_555
Er10 O40 2.288715 1_555
Er10 O26 2.288715 1_555
Er10 O42 2.288725 1_554
Er10 O33 2.288725 1_555
Er10 O36 2.410742 1_554
Er10 O28 2.410742 1_555
Er10 O19 2.410748 1_555
Er10 O35 2.410748 1_555
Er11 O32 2.288718 1_555
Er11 O24 2.288718 1_554
Er11 O27 2.288725 1_555
Er11 O28 2.288725 1_555
Er11 O43 2.410736 1_554
Er11 O31 2.410736 1_555
Er11 O33 2.410742 1_555
Er11 O46 2.410742 1_555
Al0 O8 1.761871 1_455
Al0 O6 1.761874 1_555
Al0 O27 1.761874 1_556
Al0 O24 1.761876 1_555
Al1 O19 1.761871 1_655
Al1 O3 1.761874 1_554
Al1 O30 1.761874 1_555
Al1 O0 1.761876 1_555
Al2 O2 1.761871 1_555
Al2 O22 1.761874 1_555
Al2 O45 1.761874 1_555
Al2 O44 1.761876 1_555
Al3 O41 1.761871 1_565
Al3 O20 1.761874 1_455
Al3 O46 1.761874 1_555
Al3 O1 1.761876 1_555
Al4 O40 1.761871 1_556
Al4 O42 1.761874 1_555
Al4 O21 1.761874 1_545
Al4 O7 1.761876 1_555
Al5 O47 1.761871 1_555
Al5 O5 1.761874 1_555
Al5 O39 1.761874 1_555
Al5 O43 1.761876 1_555
Al6 O38 1.761871 1_555
Al6 O37 1.761874 1_555
Al6 O4 1.761874 1_555
Al6 O23 1.761876 1_555
Al7 O14 1.761871 1_545
Al7 O9 1.761874 1_555
Al7 O36 1.761874 1_655
Al7 O25 1.761876 1_555
Al8 O35 1.761871 1_555
Al8 O16 1.761874 1_555
Al8 O29 1.761874 1_555
Al8 O12 1.761876 1_555
Al9 O15 1.761871 1_554
Al9 O13 1.761874 1_555
Al9 O34 1.761874 1_565
Al9 O31 1.761876 1_555
Al10 O26 1.761871 1_555
Al10 O10 1.761874 1_555
Al10 O33 1.761874 1_555
Al10 O11 1.761876 1_555
Al11 O17 1.761871 1_555
Al11 O18 1.761874 1_555
Al11 O28 1.761874 1_555
Al11 O32 1.761876 1_555
Al12 O45 1.915890 1_555
Al12 O10 1.915890 1_545
Al12 O9 1.915890 1_555
Al12 O46 1.915890 1_545
Al12 O23 1.915896 1_555
Al12 O32 1.915896 1_545
Al13 O33 1.915890 1_555
Al13 O22 1.915890 1_454
Al13 O20 1.915890 1_455
Al13 O36 1.915890 1_554
Al13 O0 1.915896 1_455
Al13 O24 1.915896 1_554
Al14 O35 1.915892 1_555
Al14 O26 1.915892 1_555
Al14 O47 1.915892 1_555
Al14 O2 1.915892 1_555
Al14 O17 1.915892 1_555
Al14 O38 1.915892 1_555
Al15 O37 1.915890 1_555
Al15 O18 1.915890 1_445
Al15 O21 1.915890 1_545
Al15 O34 1.915890 1_455
Al15 O25 1.915896 1_455
Al15 O1 1.915896 1_545
Al16 O41 1.915892 1_555
Al16 O19 1.915892 1_555
Al16 O15 1.915892 1_444
Al16 O14 1.915892 1_444
Al16 O40 1.915892 1_555
Al16 O8 1.915892 1_444
Al17 O39 1.915890 1_555
Al17 O16 1.915890 1_455
Al17 O6 1.915890 1_555
Al17 O30 1.915890 1_455
Al17 O44 1.915896 1_455
Al17 O11 1.915896 1_555
Al18 O28 1.915890 1_555
Al18 O13 1.915890 1_555
Al18 O42 1.915890 1_554
Al18 O4 1.915890 1_554
Al18 O43 1.915896 1_554
Al18 O12 1.915896 1_555
Al19 O29 1.915890 1_555
Al19 O3 1.915890 1_554
Al19 O5 1.915890 1_544
Al19 O27 1.915890 1_545
Al19 O7 1.915896 1_554
Al19 O31 1.915896 1_545
