# generated using pymatgen
data_Zr3TaRe2O
_symmetry_space_group_name_H-M   'P 1'
_cell_length_a   8.73971314
_cell_length_b   8.73971303
_cell_length_c   8.73971423
_cell_angle_alpha   59.99999917
_cell_angle_beta   59.99999958
_cell_angle_gamma   59.99999931
_symmetry_Int_Tables_number   1
_chemical_formula_structural   Zr3TaRe2O
_chemical_formula_sum   'Zr12 Ta4 Re8 O4'
_cell_volume   472.03758389
_cell_formula_units_Z   4
loop_
 _symmetry_equiv_pos_site_id
 _symmetry_equiv_pos_as_xyz
  1  'x, y, z'
loop_
 _atom_site_type_symbol
 _atom_site_label
 _atom_site_symmetry_multiplicity
 _atom_site_fract_x
 _atom_site_fract_y
 _atom_site_fract_z
 _atom_site_occupancy
  Zr  Zr0  1  0.80986132  0.80986132  0.19013868  1
  Zr  Zr1  1  0.19013868  0.19013868  0.80986132  1
  Zr  Zr2  1  0.80986132  0.19013868  0.80986132  1
  Zr  Zr3  1  0.19013868  0.80986132  0.19013868  1
  Zr  Zr4  1  0.19013868  0.80986132  0.80986132  1
  Zr  Zr5  1  0.80986132  0.19013868  0.19013868  1
  Zr  Zr6  1  0.44013868  0.44013868  0.05986132  1
  Zr  Zr7  1  0.05986132  0.05986132  0.44013868  1
  Zr  Zr8  1  0.44013868  0.05986132  0.44013868  1
  Zr  Zr9  1  0.05986132  0.44013868  0.05986132  1
  Zr  Zr10  1  0.05986132  0.44013868  0.44013868  1
  Zr  Zr11  1  0.44013868  0.05986132  0.05986132  1
  Ta  Ta0  1  0.12500000  0.62500000  0.62500000  1
  Ta  Ta1  1  0.62500000  0.12500000  0.62500000  1
  Ta  Ta2  1  0.62500000  0.62500000  0.12500000  1
  Ta  Ta3  1  0.62500000  0.62500000  0.62500000  1
  Re  Re0  1  0.74775390  0.41741437  0.41741437  1
  Re  Re1  1  0.41741437  0.74775390  0.41741437  1
  Re  Re2  1  0.41741437  0.41741437  0.74775390  1
  Re  Re3  1  0.41741437  0.41741437  0.41741437  1
  Re  Re4  1  0.50224610  0.83258563  0.83258563  1
  Re  Re5  1  0.83258563  0.50224610  0.83258563  1
  Re  Re6  1  0.83258563  0.83258563  0.50224610  1
  Re  Re7  1  0.83258563  0.83258563  0.83258563  1
  O  O0  1  0.62500000  0.12500000  0.12500000  1
  O  O1  1  0.12500000  0.62500000  0.12500000  1
  O  O2  1  0.12500000  0.12500000  0.62500000  1
  O  O3  1  0.12500000  0.12500000  0.12500000  1
loop_
_geom_bond_atom_site_label_1
_geom_bond_atom_site_label_2
_geom_bond_distance
_geom_bond_site_symmetry_2
Re0 Ta1 2.670673 1_555
Re0 Ta2 2.670673 1_555
Re0 Ta3 2.670694 1_555
Re0 Re1 2.887073 1_555
Re0 Re3 2.887073 1_555
Re0 Re2 2.887073 1_555
Re0 Zr7 2.939766 1_655
Re0 Zr9 2.939767 1_655
Re0 Zr10 2.939781 1_655
Re0 Zr5 3.158280 1_555
Re0 Zr0 3.158302 1_555
Re0 Zr2 3.158302 1_555
Re1 Ta0 2.670673 1_555
Re1 Ta2 2.670673 1_555
Re1 Ta3 2.670694 1_555
Re1 Re3 2.887073 1_555
Re1 Re2 2.887073 1_555
Re1 Zr7 2.939766 1_565
Re1 Zr11 2.939767 1_565
Re1 Zr8 2.939781 1_565
Re1 Zr3 3.158280 1_555
Re1 Zr0 3.158302 1_555
Re1 Zr4 3.158302 1_555
Re2 Ta1 2.670673 1_555
Re2 Ta0 2.670673 1_555
Re2 Ta3 2.670694 1_555
Re2 Re3 2.887073 1_555
Re2 Zr11 2.939766 1_556
Re2 Zr9 2.939767 1_556
Re2 Zr6 2.939782 1_556
Re2 Zr1 3.158279 1_555
Re2 Zr4 3.158302 1_555
Re2 Zr2 3.158302 1_555
Re3 Ta2 2.670687 1_555
Re3 Ta1 2.670687 1_555
Re3 Ta0 2.670687 1_555
Re3 Zr8 2.939755 1_555
Re3 Zr10 2.939755 1_555
Re3 Zr6 2.939755 1_555
Re3 Zr3 3.158291 1_555
Re3 Zr5 3.158291 1_555
Re3 Zr1 3.158291 1_555
Re4 Ta1 2.670673 1_565
Re4 Ta2 2.670673 1_556
Re4 Ta3 2.670694 1_555
Re4 Re5 2.887073 1_555
Re4 Re7 2.887073 1_555
Re4 Re6 2.887073 1_555
Re4 Zr1 2.939766 1_565
Re4 Zr3 2.939767 1_556
Re4 Zr4 2.939781 1_555
Re4 Zr11 3.158280 1_566
Re4 Zr6 3.158302 1_556
Re4 Zr8 3.158302 1_565
Re5 Ta0 2.670673 1_655
Re5 Ta2 2.670673 1_556
Re5 Ta3 2.670694 1_555
Re5 Re7 2.887073 1_555
Re5 Re6 2.887073 1_555
Re5 Zr1 2.939766 1_655
Re5 Zr5 2.939767 1_556
Re5 Zr2 2.939781 1_555
Re5 Zr9 3.158280 1_656
Re5 Zr6 3.158302 1_556
Re5 Zr10 3.158302 1_655
Re6 Ta1 2.670673 1_565
Re6 Ta0 2.670673 1_655
Re6 Ta3 2.670694 1_555
Re6 Re7 2.887073 1_555
Re6 Zr5 2.939766 1_565
Re6 Zr3 2.939767 1_655
Re6 Zr0 2.939782 1_555
Re6 Zr7 3.158279 1_665
Re6 Zr10 3.158302 1_655
Re6 Zr8 3.158302 1_565
Re7 Ta2 2.670687 1_556
Re7 Ta1 2.670687 1_565
Re7 Ta0 2.670687 1_655
Re7 Zr2 2.939755 1_565
Re7 Zr4 2.939755 1_655
Re7 Zr0 2.939755 1_556
Re7 Zr9 3.158291 1_656
Re7 Zr11 3.158291 1_566
Re7 Zr7 3.158291 1_665
O0 Zr6 2.328541 1_555
O0 Zr0 2.328541 1_545
O0 Zr5 2.328541 1_555
O0 Zr11 2.328541 1_555
O0 Zr2 2.328541 1_554
O0 Zr8 2.328541 1_555
O1 Zr6 2.328541 1_555
O1 Zr0 2.328541 1_455
O1 Zr3 2.328541 1_555
O1 Zr9 2.328541 1_555
O1 Zr10 2.328541 1_555
O1 Zr4 2.328541 1_554
O2 Zr4 2.328541 1_545
O2 Zr10 2.328541 1_555
O2 Zr8 2.328541 1_555
O2 Zr2 2.328541 1_455
O2 Zr1 2.328541 1_555
O2 Zr7 2.328541 1_555
O3 Zr9 2.328541 1_555
O3 Zr3 2.328541 1_545
O3 Zr11 2.328541 1_555
O3 Zr5 2.328541 1_455
O3 Zr7 2.328541 1_555
O3 Zr1 2.328541 1_554
