# generated using pymatgen
data_Ag2GeF6
_symmetry_space_group_name_H-M   'P 1'
_cell_length_a   5.47016991
_cell_length_b   5.47017093
_cell_length_c   5.47016991
_cell_angle_alpha   120.00000465
_cell_angle_beta   90.00000000
_cell_angle_gamma   120.00000465
_symmetry_Int_Tables_number   1
_chemical_formula_structural   Ag2GeF6
_chemical_formula_sum   'Ag2 Ge1 F6'
_cell_volume   115.74106422
_cell_formula_units_Z   1
loop_
 _symmetry_equiv_pos_site_id
 _symmetry_equiv_pos_as_xyz
  1  'x, y, z'
loop_
 _atom_site_type_symbol
 _atom_site_label
 _atom_site_symmetry_multiplicity
 _atom_site_fract_x
 _atom_site_fract_y
 _atom_site_fract_z
 _atom_site_occupancy
  Ag  Ag0  1  0.74999900  0.49999900  0.25000000  1
  Ag  Ag1  1  0.25000000  0.49999900  0.74999900  1
  Ge  Ge0  1  0.00000000  0.00000000  0.00000000  1
  F  F0  1  0.23363563  1.00000000  0.23363563  1
  F  F1  1  0.23363563  0.46727027  0.23363563  1
  F  F2  1  0.76636437  0.00000000  0.23363663  1
  F  F3  1  0.23363663  0.00000000  0.76636437  1
  F  F4  1  0.76636437  0.53272873  0.76636437  1
  F  F5  1  0.76636437  0.00000000  0.76636437  1
loop_
_geom_bond_atom_site_label_1
_geom_bond_atom_site_label_2
_geom_bond_distance
_geom_bond_site_symmetry_2
Ag0 F3 2.738007 1_554
Ag0 F1 2.738008 1_555
Ag0 F0 2.738008 1_545
Ag0 F4 2.738011 1_555
Ag0 F5 2.738013 1_565
Ag0 F5 2.738013 1_554
Ag0 F2 2.738014 1_555
Ag0 F2 2.738014 1_565
Ag0 F4 2.738016 1_554
Ag0 F3 2.738018 1_665
Ag0 F1 2.738019 1_655
Ag0 F0 2.738019 1_655
Ag1 F2 2.738007 1_455
Ag1 F1 2.738008 1_555
Ag1 F0 2.738008 1_545
Ag1 F4 2.738011 1_555
Ag1 F5 2.738013 1_565
Ag1 F5 2.738013 1_455
Ag1 F3 2.738014 1_555
Ag1 F3 2.738014 1_565
Ag1 F4 2.738016 1_455
Ag1 F2 2.738018 1_566
Ag1 F1 2.738019 1_556
Ag1 F0 2.738019 1_556
F0 Ge0 1.807403 1_565
F1 Ge0 1.807399 1_555
F2 Ge0 1.807406 1_655
F3 Ge0 1.807406 1_556
F4 Ge0 1.807403 1_666
F5 Ge0 1.807403 1_656
