# generated using pymatgen
data_CsNiP2Os
_symmetry_space_group_name_H-M   'P 1'
_cell_length_a   7.87917824
_cell_length_b   7.87917770
_cell_length_c   7.87917658
_cell_angle_alpha   152.05795861
_cell_angle_beta   152.05796579
_cell_angle_gamma   39.92866637
_symmetry_Int_Tables_number   1
_chemical_formula_structural   CsNiP2Os
_chemical_formula_sum   'Cs1 Ni1 P2 Os1'
_cell_volume   107.19464694
_cell_formula_units_Z   1
loop_
 _symmetry_equiv_pos_site_id
 _symmetry_equiv_pos_as_xyz
  1  'x, y, z'
loop_
 _atom_site_type_symbol
 _atom_site_label
 _atom_site_symmetry_multiplicity
 _atom_site_fract_x
 _atom_site_fract_y
 _atom_site_fract_z
 _atom_site_occupancy
  Cs  Cs0  1  0.00000000  0.00000000  0.00000000  1
  Ni  Ni0  1  0.75000000  0.25000000  0.50000000  1
  P  P0  1  0.33597258  0.33597258  0.00000000  1
  P  P1  1  0.66402742  0.66402742  1.00000000  1
  Os  Os0  1  0.25000000  0.75000000  0.50000000  1
loop_
_geom_bond_atom_site_label_1
_geom_bond_atom_site_label_2
_geom_bond_distance
_geom_bond_site_symmetry_2
Cs0 P1 3.624864 1_443
Cs0 P0 3.624864 1_556
Cs0 P1 3.624865 1_454
Cs0 P0 3.624865 1_545
Cs0 P1 3.624866 1_544
Cs0 P0 3.624866 1_455
Cs0 P1 3.624866 1_555
Cs0 P0 3.624866 1_444
Ni0 P0 2.289134 1_555
Ni0 P1 2.289134 1_555
Ni0 P0 2.289135 1_656
Ni0 P1 2.289135 1_544
Ni0 Os0 2.690227 1_544
Ni0 Os0 2.690227 1_656
Ni0 Os0 2.690228 1_555
Ni0 Os0 2.690228 1_645
Os0 P1 2.289134 1_555
Os0 P0 2.289134 1_555
Os0 P1 2.289135 1_454
Os0 P0 2.289135 1_566
