# generated using pymatgen
data_K3Nb2Cu3Te8
_symmetry_space_group_name_H-M   'P 1'
_cell_length_a   6.00183540
_cell_length_b   13.38270626
_cell_length_c   14.80654851
_cell_angle_alpha   70.43206921
_cell_angle_beta   78.30656389
_cell_angle_gamma   77.04189653
_symmetry_Int_Tables_number   1
_chemical_formula_structural   K3Nb2Cu3Te8
_chemical_formula_sum   'K6 Nb4 Cu6 Te16'
_cell_volume   1081.46040323
_cell_formula_units_Z   2
loop_
 _symmetry_equiv_pos_site_id
 _symmetry_equiv_pos_as_xyz
  1  'x, y, z'
loop_
 _atom_site_type_symbol
 _atom_site_label
 _atom_site_symmetry_multiplicity
 _atom_site_fract_x
 _atom_site_fract_y
 _atom_site_fract_z
 _atom_site_occupancy
  K  K0  1  0.72869267  0.70594363  0.90522519  1
  K  K1  1  0.33986149  0.79405637  0.59477481  1
  K  K2  1  0.27130733  0.29405637  0.09477481  1
  K  K3  1  0.66013851  0.20594363  0.40522519  1
  K  K4  1  0.00000000  0.50000000  0.50000000  1
  K  K5  1  0.00000000  0.00000000  0.00000000  1
  Nb  Nb0  1  0.15170568  0.46926332  0.77527841  1
  Nb  Nb1  1  0.39624642  0.03073668  0.72472159  1
  Nb  Nb2  1  0.84829432  0.53073668  0.22472159  1
  Nb  Nb3  1  0.60375358  0.96926332  0.27527841  1
  Cu  Cu0  1  0.26801795  0.25000000  0.75000000  1
  Cu  Cu1  1  0.73198205  0.75000000  0.25000000  1
  Cu  Cu2  1  0.89419376  0.03323881  0.72489431  1
  Cu  Cu3  1  0.65232788  0.46676119  0.77510569  1
  Cu  Cu4  1  0.10580624  0.96676119  0.27510569  1
  Cu  Cu5  1  0.34767212  0.53323881  0.22489431  1
  Te  Te0  1  0.93141906  0.30745508  0.87449777  1
  Te  Te1  1  0.11337291  0.19254492  0.62550223  1
  Te  Te2  1  0.06858094  0.69254492  0.12550223  1
  Te  Te3  1  0.88662709  0.80745508  0.37449777  1
  Te  Te4  1  0.49351887  0.40688983  0.65201834  1
  Te  Te5  1  0.55242704  0.09311017  0.84798166  1
  Te  Te6  1  0.50648113  0.59311017  0.34798166  1
  Te  Te7  1  0.44757296  0.90688983  0.15201834  1
  Te  Te8  1  0.86308459  0.63183948  0.68023937  1
  Te  Te9  1  0.17516445  0.86816052  0.81976063  1
  Te  Te10  1  0.13691541  0.36816052  0.31976063  1
  Te  Te11  1  0.82483555  0.13183948  0.18023937  1
  Te  Te12  1  0.74098875  0.96695864  0.60638862  1
  Te  Te13  1  0.31433601  0.53304136  0.89361138  1
  Te  Te14  1  0.25901125  0.03304136  0.39361138  1
  Te  Te15  1  0.68566399  0.46695864  0.10638862  1
loop_
_geom_bond_atom_site_label_1
_geom_bond_atom_site_label_2
_geom_bond_distance
_geom_bond_site_symmetry_2
K0 Te15 3.583967 1_556
K0 Te9 3.590110 1_655
K0 Te8 3.673751 1_555
K0 Te9 3.739052 1_555
K0 Te13 3.756653 1_655
K0 Te13 3.819554 1_555
K0 Te2 4.119755 1_656
K1 Te14 3.583967 1_565
K1 Te8 3.590105 1_555
K1 Te9 3.673751 1_555
K1 Te8 3.739057 1_455
K1 Te12 3.756653 1_555
K1 Te12 3.819554 1_455
K1 Te3 4.119751 1_555
K2 Te13 3.583967 1_554
K2 Te11 3.590110 1_455
K2 Te10 3.673751 1_555
K2 Te11 3.739052 1_555
K2 Te15 3.756653 1_455
K2 Te15 3.819554 1_555
K2 Te0 4.119755 1_454
K3 Te12 3.583967 1_545
K3 Te10 3.590105 1_555
K3 Te11 3.673751 1_555
K3 Te10 3.739057 1_655
K3 Te14 3.756653 1_555
K3 Te14 3.819554 1_655
K3 Te1 4.119751 1_555
K4 Te8 3.539101 1_455
K4 Te10 3.539101 1_555
K4 Te6 3.592502 1_555
K4 Te4 3.592502 1_455
K4 Te4 3.815906 1_555
K4 Te6 3.815906 1_455
K4 Te1 3.870554 1_555
K4 Te3 3.870554 1_455
K5 Te11 3.539101 1_455
K5 Te9 3.539101 1_544
K5 Te7 3.592503 1_545
K5 Te5 3.592503 1_454
K5 Te5 3.815906 1_554
K5 Te7 3.815906 1_445
K5 Te0 3.870554 1_454
K5 Te2 3.870554 1_545
Nb0 Te13 2.611453 1_555
Nb0 Te0 2.638383 1_455
Nb0 Te8 2.638489 1_455
Nb0 Te4 2.640278 1_555
Nb1 Te12 2.611456 1_545
Nb1 Te1 2.638376 1_555
Nb1 Te9 2.638482 1_545
Nb1 Te5 2.640282 1_555
Nb2 Te15 2.611453 1_555
Nb2 Te2 2.638383 1_655
Nb2 Te10 2.638489 1_655
Nb2 Te6 2.640278 1_555
Nb3 Te14 2.611456 1_565
Nb3 Te3 2.638376 1_555
Nb3 Te11 2.638482 1_565
Nb3 Te7 2.640282 1_555
Cu0 Te4 2.604412 1_555
Cu0 Te5 2.604412 1_555
Cu0 Te1 2.610319 1_555
Cu0 Te0 2.610323 1_455
Cu0 Nb1 2.991462 1_555
Cu0 Nb0 2.991462 1_555
Cu1 Te6 2.604412 1_555
Cu1 Te7 2.604412 1_555
Cu1 Te3 2.610319 1_555
Cu1 Te2 2.610323 1_655
Cu1 Nb3 2.991462 1_555
Cu1 Nb2 2.991462 1_555
Cu2 Te12 2.602586 1_545
Cu2 Te1 2.610142 1_655
Cu2 Te5 2.626166 1_555
Cu2 Te9 2.628317 1_645
Cu2 Nb1 2.996812 1_555
Cu2 Nb1 3.005397 1_655
Cu3 Te13 2.602589 1_555
Cu3 Te0 2.610135 1_555
Cu3 Te4 2.626169 1_555
Cu3 Te8 2.628311 1_555
Cu3 Nb0 2.996812 1_555
Cu3 Nb0 3.005397 1_655
Cu4 Te14 2.602586 1_565
Cu4 Te3 2.610142 1_455
Cu4 Te7 2.626166 1_555
Cu4 Te11 2.628317 1_465
Cu4 Nb3 2.996812 1_555
Cu4 Nb3 3.005397 1_455
Cu5 Te15 2.602589 1_555
Cu5 Te2 2.610135 1_555
Cu5 Te6 2.626169 1_555
Cu5 Te10 2.628311 1_555
Cu5 Nb2 2.996812 1_555
Cu5 Nb2 3.005397 1_455
