# generated using pymatgen
data_BaH4S3
_symmetry_space_group_name_H-M   'P 1'
_cell_length_a   8.47298965
_cell_length_b   4.56207750
_cell_length_c   8.18832880
_cell_angle_alpha   89.83960214
_cell_angle_beta   90.00000000
_cell_angle_gamma   90.00000000
_symmetry_Int_Tables_number   1
_chemical_formula_structural   BaH4S3
_chemical_formula_sum   'Ba2 H8 S6'
_cell_volume   316.51398676
_cell_formula_units_Z   2
loop_
 _symmetry_equiv_pos_site_id
 _symmetry_equiv_pos_as_xyz
  1  'x, y, z'
loop_
 _atom_site_type_symbol
 _atom_site_label
 _atom_site_symmetry_multiplicity
 _atom_site_fract_x
 _atom_site_fract_y
 _atom_site_fract_z
 _atom_site_occupancy
  Ba  Ba0  1  0.74709546  0.99890560  0.63270979  1
  Ba  Ba1  1  0.24709546  0.00109440  0.36729021  1
  H  H0  1  0.83486743  0.78159327  0.12636879  1
  H  H1  1  0.83465535  0.21162957  0.12417373  1
  H  H2  1  0.33486743  0.21840673  0.87363121  1
  H  H3  1  0.33465535  0.78837043  0.87582627  1
  H  H4  1  0.60843193  0.49376726  0.96519146  1
  H  H5  1  0.10843193  0.50623274  0.03480854  1
  H  H6  1  0.58547059  0.50340736  0.30607902  1
  H  H7  1  0.08547059  0.49659264  0.69392098  1
  S  S0  1  0.87065180  0.99772198  0.23652474  1
  S  S1  1  0.37065180  0.00227802  0.76347526  1
  S  S2  1  0.75757873  0.49701318  0.90987619  1
  S  S3  1  0.25757873  0.50298682  0.09012381  1
  S  S4  1  0.52085170  0.50059308  0.45582520  1
  S  S5  1  0.02085170  0.49940692  0.54417480  1
loop_
_geom_bond_atom_site_label_1
_geom_bond_atom_site_label_2
_geom_bond_distance
_geom_bond_site_symmetry_2
Ba0 S2 3.217352 1_565
Ba0 S2 3.220583 1_555
Ba0 S4 3.310451 1_555
Ba0 S4 3.315468 1_565
Ba0 S5 3.332830 1_655
Ba0 S5 3.333182 1_665
Ba0 S1 3.364581 1_565
Ba0 S0 3.408849 1_555
Ba1 S3 3.217352 1_545
Ba1 S3 3.220583 1_555
Ba1 S5 3.310451 1_555
Ba1 S5 3.315468 1_545
Ba1 S4 3.332830 1_555
Ba1 S4 3.333182 1_545
Ba1 S0 3.364581 1_445
Ba1 S1 3.408849 1_555
H0 S0 1.372111 1_555
H1 S0 1.373552 1_545
H2 S1 1.372111 1_555
H3 S1 1.373552 1_565
H4 S2 1.342506 1_555
H5 S3 1.342506 1_555
H6 S4 1.342887 1_555
H7 S5 1.342887 1_555
