# generated using pymatgen
data_Rb4HfTeI12
_symmetry_space_group_name_H-M   'P 1'
_cell_length_a   8.10017561
_cell_length_b   8.10017561
_cell_length_c   12.18556850
_cell_angle_alpha   90.00000000
_cell_angle_beta   90.00000000
_cell_angle_gamma   90.00000000
_symmetry_Int_Tables_number   1
_chemical_formula_structural   Rb4HfTeI12
_chemical_formula_sum   'Rb4 Hf1 Te1 I12'
_cell_volume   799.52981679
_cell_formula_units_Z   1
loop_
 _symmetry_equiv_pos_site_id
 _symmetry_equiv_pos_as_xyz
  1  'x, y, z'
loop_
 _atom_site_type_symbol
 _atom_site_label
 _atom_site_symmetry_multiplicity
 _atom_site_fract_x
 _atom_site_fract_y
 _atom_site_fract_z
 _atom_site_occupancy
  Rb  Rb0  1  0.00000000  0.50000000  0.24949323  1
  Rb  Rb1  1  0.50000000  0.00000000  0.24949323  1
  Rb  Rb2  1  0.00000000  0.50000000  0.75050677  1
  Rb  Rb3  1  0.50000000  0.00000000  0.75050677  1
  Hf  Hf0  1  0.00000000  0.00000000  0.00000000  1
  Te  Te0  1  0.50000000  0.50000000  0.50000000  1
  I  I0  1  0.00000000  0.00000000  0.23447745  1
  I  I1  1  0.50000000  0.50000000  0.25668158  1
  I  I2  1  0.00000000  0.00000000  0.76552155  1
  I  I3  1  0.50000000  0.50000000  0.74331842  1
  I  I4  1  0.19491359  0.29204732  0.00000000  1
  I  I5  1  0.70795268  0.19491359  0.00000000  1
  I  I6  1  0.29204732  0.80508641  0.00000000  1
  I  I7  1  0.70353816  0.19639351  0.50000000  1
  I  I8  1  0.29646184  0.80360649  0.50000000  1
  I  I9  1  0.80508641  0.70795268  0.00000000  1
  I  I10  1  0.80360649  0.70353816  0.50000000  1
  I  I11  1  0.19639351  0.29646184  0.50000000  1
loop_
_geom_bond_atom_site_label_1
_geom_bond_atom_site_label_2
_geom_bond_distance
_geom_bond_site_symmetry_2
Hf0 I5 2.844107 1_455
Hf0 I9 2.844107 1_445
Hf0 I4 2.844107 1_555
Hf0 I6 2.844107 1_545
Hf0 I0 2.857241 1_555
Hf0 I2 2.857253 1_554
I0 Rb1 4.054219 1_555
I0 Rb0 4.054219 1_555
I0 Rb1 4.054219 1_455
I0 Rb0 4.054219 1_545
I1 Te0 2.964973 1_555
I1 Rb1 4.051035 1_565
I1 Rb0 4.051035 1_655
I1 Rb1 4.051035 1_555
I1 Rb0 4.051035 1_555
I2 Rb2 4.054218 1_545
I2 Rb2 4.054218 1_555
I2 Rb3 4.054218 1_555
I2 Rb3 4.054218 1_455
I3 Te0 2.964973 1_555
I3 Rb2 4.051035 1_655
I3 Rb3 4.051035 1_555
I3 Rb3 4.051035 1_565
I3 Rb2 4.051035 1_555
I4 Rb2 3.817462 1_554
I4 Rb0 3.817462 1_555
I5 Rb3 3.817462 1_554
I5 Rb1 3.817462 1_555
I6 Rb3 3.817462 1_564
I6 Rb1 3.817462 1_565
I7 Te0 2.960774 1_555
I7 Rb1 3.816684 1_555
I7 Rb3 3.816684 1_555
I8 Te0 2.960774 1_555
I8 Rb1 3.816684 1_565
I8 Rb3 3.816684 1_565
I9 Rb2 3.817462 1_654
I9 Rb0 3.817462 1_655
I10 Te0 2.960774 1_555
I10 Rb0 3.816684 1_655
I10 Rb2 3.816684 1_655
I11 Te0 2.960774 1_555
I11 Rb0 3.816684 1_555
I11 Rb2 3.816684 1_555
