# generated using pymatgen
data_Zr5AlSn2Sb
_symmetry_space_group_name_H-M   'P 1'
_cell_length_a   8.70015829
_cell_length_b   8.71099402
_cell_length_c   5.87018598
_cell_angle_alpha   90.00000000
_cell_angle_beta   90.00000000
_cell_angle_gamma   119.95886018
_symmetry_Int_Tables_number   1
_chemical_formula_structural   Zr5AlSn2Sb
_chemical_formula_sum   'Zr10 Al2 Sn4 Sb2'
_cell_volume   385.44041532
_cell_formula_units_Z   2
loop_
 _symmetry_equiv_pos_site_id
 _symmetry_equiv_pos_as_xyz
  1  'x, y, z'
loop_
 _atom_site_type_symbol
 _atom_site_label
 _atom_site_symmetry_multiplicity
 _atom_site_fract_x
 _atom_site_fract_y
 _atom_site_fract_z
 _atom_site_occupancy
  Zr  Zr0  1  0.66694720  0.33421029  0.00098529  1
  Zr  Zr1  1  0.33273691  0.66578871  0.00098529  1
  Zr  Zr2  1  0.72752452  0.00000000  0.24999900  1
  Zr  Zr3  1  0.27249269  0.27259066  0.24999900  1
  Zr  Zr4  1  0.99990204  0.72740834  0.24999900  1
  Zr  Zr5  1  0.66694720  0.33421029  0.49901371  1
  Zr  Zr6  1  0.33273691  0.66578871  0.49901371  1
  Zr  Zr7  1  0.26729738  0.00000000  0.75000000  1
  Zr  Zr8  1  0.00129328  0.26936271  0.75000000  1
  Zr  Zr9  1  0.73193057  0.73063729  0.75000000  1
  Al  Al0  1  0.99877462  0.00000000  0.00490119  1
  Al  Al1  1  0.99877462  0.00000000  0.49509781  1
  Sn  Sn0  1  0.38533190  0.00000000  0.24999900  1
  Sn  Sn1  1  0.99949997  0.38331590  0.24999900  1
  Sn  Sn2  1  0.61618507  0.61668410  0.24999900  1
  Sn  Sn3  1  0.61316890  0.00000000  0.75000000  1
  Sb  Sb0  1  0.38834419  0.38823517  0.75000000  1
  Sb  Sb1  1  0.00010902  0.61176483  0.75000000  1
loop_
_geom_bond_atom_site_label_1
_geom_bond_atom_site_label_2
_geom_bond_distance
_geom_bond_site_symmetry_2
Al0 Zr2 2.763924 1_555
Al0 Zr8 2.773764 1_654
Al0 Zr9 2.773764 1_544
Al0 Zr7 2.774302 1_654
Al0 Zr3 2.780618 1_655
Al0 Zr4 2.780625 1_545
Al1 Zr2 2.763927 1_555
Al1 Zr8 2.773767 1_655
Al1 Zr9 2.773767 1_545
Al1 Zr7 2.774305 1_655
Al1 Zr3 2.780621 1_655
Al1 Zr4 2.780628 1_545
Sn0 Zr2 2.977130 1_555
Sn0 Zr3 2.988381 1_555
Sn0 Zr4 2.988383 1_445
Sn0 Zr0 3.080795 1_555
Sn0 Zr5 3.080797 1_555
Sn0 Zr1 3.080802 1_545
Sn0 Zr6 3.080805 1_545
Sn0 Zr7 3.109550 1_554
Sn0 Zr7 3.109561 1_555
Sn1 Zr2 2.976108 1_555
Sn1 Zr3 2.976457 1_655
Sn1 Zr4 2.995642 1_555
Sn1 Zr0 3.074833 1_555
Sn1 Zr5 3.074835 1_555
Sn1 Zr1 3.077634 1_655
Sn1 Zr6 3.077637 1_655
Sn1 Zr8 3.100934 1_654
Sn1 Zr8 3.100945 1_655
Sn2 Zr2 2.976110 1_565
Sn2 Zr4 2.976451 1_555
Sn2 Zr3 2.995655 1_555
Sn2 Zr1 3.074835 1_555
Sn2 Zr6 3.074838 1_555
Sn2 Zr0 3.077633 1_555
Sn2 Zr5 3.077635 1_555
Sn2 Zr9 3.100933 1_554
Sn2 Zr9 3.100944 1_555
Sn3 Zr9 2.999113 1_545
Sn3 Zr8 2.999113 1_655
Sn3 Zr7 3.009137 1_555
Sn3 Zr0 3.082995 1_556
Sn3 Zr5 3.082998 1_555
Sn3 Zr1 3.083000 1_546
Sn3 Zr6 3.083003 1_545
Sn3 Zr2 3.099127 1_556
Sn3 Zr2 3.099138 1_555
Sb0 Zr9 2.987821 1_555
Sb0 Zr8 2.988154 1_555
Sb0 Zr7 2.998211 1_555
Sb0 Zr0 3.067036 1_556
Sb0 Zr5 3.067039 1_555
Sb0 Zr1 3.068973 1_556
Sb0 Zr6 3.068976 1_555
Sb0 Zr3 3.103444 1_556
Sb0 Zr3 3.103455 1_555
Sb1 Zr8 2.987821 1_555
Sb1 Zr9 2.988154 1_455
Sb1 Zr7 2.998211 1_565
Sb1 Zr1 3.067039 1_556
Sb1 Zr6 3.067042 1_555
Sb1 Zr0 3.068981 1_456
Sb1 Zr5 3.068984 1_455
Sb1 Zr4 3.103441 1_456
Sb1 Zr4 3.103452 1_455
