# generated using pymatgen
data_Tb12Co7
_symmetry_space_group_name_H-M   'P 1'
_cell_length_a   11.30359800
_cell_length_b   8.31890700
_cell_length_c   11.08054103
_cell_angle_alpha   54.52279816
_cell_angle_beta   90.00000000
_cell_angle_gamma   90.00000000
_symmetry_Int_Tables_number   1
_chemical_formula_structural   Tb12Co7
_chemical_formula_sum   'Tb24 Co14'
_cell_volume   848.50261053
_cell_formula_units_Z   2
loop_
 _symmetry_equiv_pos_site_id
 _symmetry_equiv_pos_as_xyz
  1  'x, y, z'
loop_
 _atom_site_type_symbol
 _atom_site_label
 _atom_site_symmetry_multiplicity
 _atom_site_fract_x
 _atom_site_fract_y
 _atom_site_fract_z
 _atom_site_occupancy
  Tb  Tb0  1  0.70560000  0.23386400  0.53921300  1
  Tb  Tb1  1  0.20560000  0.76613600  0.96078700  1
  Tb  Tb2  1  0.84042500  0.50202100  0.65843700  1
  Tb  Tb3  1  0.34042500  0.49797900  0.84156300  1
  Tb  Tb4  1  0.15957500  0.49797900  0.34156300  1
  Tb  Tb5  1  0.65957500  0.50202100  0.15843700  1
  Tb  Tb6  1  0.00355500  0.84188800  0.35352800  1
  Tb  Tb7  1  0.50355500  0.15811200  0.14647200  1
  Tb  Tb8  1  0.99644500  0.15811200  0.64647200  1
  Tb  Tb9  1  0.49644500  0.84188800  0.85352800  1
  Tb  Tb10  1  0.79440000  0.23386400  0.03921300  1
  Tb  Tb11  1  0.29440000  0.76613600  0.46078700  1
  Tb  Tb12  1  0.92851400  0.76785300  0.08562300  1
  Tb  Tb13  1  0.42851400  0.23214700  0.41437700  1
  Tb  Tb14  1  0.07148600  0.23214700  0.91437700  1
  Tb  Tb15  1  0.57148600  0.76785300  0.58562300  1
  Tb  Tb16  1  0.30083100  0.24861400  0.67638500  1
  Tb  Tb17  1  0.80083100  0.75138600  0.82361500  1
  Tb  Tb18  1  0.69916900  0.75138600  0.32361500  1
  Tb  Tb19  1  0.19916900  0.24861400  0.17638500  1
  Tb  Tb20  1  0.93033400  0.26212200  0.30873400  1
  Tb  Tb21  1  0.43033400  0.73787800  0.19126600  1
  Tb  Tb22  1  0.06966600  0.73787800  0.69126600  1
  Tb  Tb23  1  0.56966600  0.26212200  0.80873400  1
  Co  Co0  1  0.50000000  0.50000000  0.50000000  1
  Co  Co1  1  0.00000000  0.50000000  0.00000000  1
  Co  Co2  1  0.67839000  0.90602300  0.02766200  1
  Co  Co3  1  0.17839000  0.09397700  0.47233800  1
  Co  Co4  1  0.32161000  0.09397700  0.97233800  1
  Co  Co5  1  0.82161000  0.90602300  0.52766200  1
  Co  Co6  1  0.40033100  0.49559000  0.09973000  1
  Co  Co7  1  0.90033100  0.50441000  0.40027000  1
  Co  Co8  1  0.59966900  0.50441000  0.90027000  1
  Co  Co9  1  0.09966900  0.49559000  0.59973000  1
  Co  Co10  1  0.81079800  0.09888500  0.84108600  1
  Co  Co11  1  0.31079800  0.90111500  0.65891400  1
  Co  Co12  1  0.18920200  0.90111500  0.15891400  1
  Co  Co13  1  0.68920200  0.09888500  0.34108600  1
loop_
_geom_bond_atom_site_label_1
_geom_bond_atom_site_label_2
_geom_bond_distance
_geom_bond_site_symmetry_2
Co0 Tb23 2.894998 1_555
Co0 Tb21 2.894998 1_555
Co0 Tb18 2.918454 1_555
Co0 Tb16 2.918454 1_555
Co0 Tb15 2.995335 1_555
Co0 Tb13 2.995335 1_555
Co0 Tb0 3.061841 1_555
Co0 Tb11 3.061841 1_555
Co1 Tb22 2.894998 1_554
Co1 Tb20 2.894998 1_455
Co1 Tb17 2.918454 1_454
Co1 Tb19 2.918454 1_555
Co1 Tb12 2.995335 1_455
Co1 Tb14 2.995335 1_554
Co1 Tb10 3.061841 1_455
Co1 Tb1 3.061841 1_554
Co2 Tb18 2.750861 1_555
Co2 Tb5 2.790586 1_555
Co2 Tb23 2.798067 1_564
Co2 Tb12 2.978322 1_555
Co2 Tb9 3.071206 1_554
Co2 Tb10 3.095029 1_565
Co2 Tb21 3.187715 1_555
Co3 Tb19 2.750861 1_555
Co3 Tb4 2.790586 1_555
Co3 Tb22 2.798067 1_545
Co3 Tb13 2.978322 1_555
Co3 Tb8 3.071206 1_455
Co3 Tb11 3.095029 1_545
Co3 Tb20 3.187715 1_455
Co4 Tb16 2.750861 1_555
Co4 Tb3 2.790586 1_555
Co4 Tb21 2.798067 1_546
Co4 Tb14 2.978322 1_555
Co4 Tb7 3.071206 1_556
Co4 Tb1 3.095029 1_545
Co4 Tb23 3.187715 1_555
Co5 Tb17 2.750861 1_555
Co5 Tb2 2.790586 1_555
Co5 Tb20 2.798067 1_565
Co5 Tb15 2.978322 1_555
Co5 Tb6 3.071206 1_655
Co5 Tb0 3.095029 1_565
Co5 Tb22 3.187715 1_655
Co6 Tb21 2.753045 1_555
Co6 Tb9 2.792723 1_554
Co6 Tb7 2.797077 1_555
Co6 Tb19 2.843848 1_555
Co6 Tb13 2.861943 1_555
Co6 Tb1 2.873801 1_554
Co6 Tb3 2.928506 1_554
Co6 Tb5 3.008920 1_555
Co7 Tb20 2.753045 1_555
Co7 Tb8 2.792723 1_555
Co7 Tb6 2.797077 1_655
Co7 Tb18 2.843848 1_555
Co7 Tb12 2.861943 1_555
Co7 Tb0 2.873801 1_555
Co7 Tb2 2.928506 1_555
Co7 Tb4 3.008920 1_655
Co8 Tb23 2.753045 1_555
Co8 Tb7 2.792723 1_556
Co8 Tb9 2.797077 1_555
Co8 Tb17 2.843848 1_555
Co8 Tb15 2.861943 1_555
Co8 Tb10 2.873801 1_556
Co8 Tb5 2.928506 1_556
Co8 Tb3 3.008920 1_555
Co9 Tb22 2.753045 1_555
Co9 Tb6 2.792723 1_555
Co9 Tb8 2.797077 1_455
Co9 Tb16 2.843848 1_555
Co9 Tb14 2.861943 1_555
Co9 Tb11 2.873801 1_555
Co9 Tb4 2.928506 1_555
Co9 Tb2 3.008920 1_455
Co10 Co2 2.288683 1_546
Co10 Tb2 2.752580 1_555
Co10 Tb12 2.834558 1_546
Co10 Tb8 2.839590 1_555
Co10 Tb23 2.972660 1_555
Co10 Tb10 2.996030 1_556
Co10 Tb17 3.009411 1_545
Co10 Tb0 3.082789 1_555
Co10 Tb14 3.408318 1_655
Co11 Co3 2.288683 1_565
Co11 Tb3 2.752580 1_555
Co11 Tb13 2.834558 1_565
Co11 Tb9 2.839590 1_555
Co11 Tb22 2.972660 1_555
Co11 Tb11 2.996030 1_555
Co11 Tb16 3.009411 1_565
Co11 Tb1 3.082789 1_555
Co11 Tb15 3.408318 1_555
Co12 Co4 2.288683 1_564
Co12 Tb4 2.752580 1_555
Co12 Tb14 2.834558 1_564
Co12 Tb6 2.839590 1_555
Co12 Tb21 2.972660 1_555
Co12 Tb1 2.996030 1_554
Co12 Tb19 3.009411 1_565
Co12 Tb11 3.082789 1_555
Co12 Tb12 3.408318 1_455
Co13 Co5 2.288683 1_545
Co13 Tb5 2.752580 1_555
Co13 Tb15 2.834558 1_545
Co13 Tb7 2.839590 1_555
Co13 Tb20 2.972660 1_555
Co13 Tb0 2.996030 1_555
Co13 Tb18 3.009411 1_545
Co13 Tb10 3.082789 1_555
Co13 Tb13 3.408318 1_555
