# generated using pymatgen
data_Y20Al6OsRu
_symmetry_space_group_name_H-M   'P 1'
_cell_length_a   9.60937528
_cell_length_b   9.60937447
_cell_length_c   9.64167785
_cell_angle_alpha   90.00000000
_cell_angle_beta   90.00000000
_cell_angle_gamma   119.99999935
_symmetry_Int_Tables_number   1
_chemical_formula_structural   Y20Al6OsRu
_chemical_formula_sum   'Y20 Al6 Os1 Ru1'
_cell_volume   771.03398995
_cell_formula_units_Z   1
loop_
 _symmetry_equiv_pos_site_id
 _symmetry_equiv_pos_as_xyz
  1  'x, y, z'
loop_
 _atom_site_type_symbol
 _atom_site_label
 _atom_site_symmetry_multiplicity
 _atom_site_fract_x
 _atom_site_fract_y
 _atom_site_fract_z
 _atom_site_occupancy
  Y  Y0  1  0.00000000  0.00000000  0.49933840  1
  Y  Y1  1  0.00000000  0.00000000  0.00066160  1
  Y  Y2  1  0.20793848  0.79206152  0.44035397  1
  Y  Y3  1  0.20793848  0.41587696  0.44035397  1
  Y  Y4  1  0.58412304  0.79206152  0.44035397  1
  Y  Y5  1  0.79193116  0.20806884  0.56033926  1
  Y  Y6  1  0.79193116  0.58386032  0.56033926  1
  Y  Y7  1  0.41613968  0.20806884  0.56033926  1
  Y  Y8  1  0.79193116  0.20806884  0.93966074  1
  Y  Y9  1  0.79193116  0.58386032  0.93966074  1
  Y  Y10  1  0.41613968  0.20806884  0.93966074  1
  Y  Y11  1  0.20793848  0.79206152  0.05964603  1
  Y  Y12  1  0.20793848  0.41587696  0.05964603  1
  Y  Y13  1  0.58412304  0.79206152  0.05964603  1
  Y  Y14  1  0.53924122  0.46075878  0.25000000  1
  Y  Y15  1  0.53924122  0.07848245  0.25000000  1
  Y  Y16  1  0.92151755  0.46075878  0.25000000  1
  Y  Y17  1  0.45971061  0.54028939  0.75000000  1
  Y  Y18  1  0.45971061  0.91942222  0.75000000  1
  Y  Y19  1  0.08057778  0.54028939  0.75000000  1
  Al  Al0  1  0.88776858  0.11223142  0.25000000  1
  Al  Al1  1  0.88776858  0.77553716  0.25000000  1
  Al  Al2  1  0.22446284  0.11223142  0.25000000  1
  Al  Al3  1  0.11177964  0.88822036  0.75000000  1
  Al  Al4  1  0.11177964  0.22355729  0.75000000  1
  Al  Al5  1  0.77644271  0.88822036  0.75000000  1
  Os  Os0  1  0.33333300  0.66666700  0.25000000  1
  Ru  Ru0  1  0.66666700  0.33333300  0.75000000  1
loop_
_geom_bond_atom_site_label_1
_geom_bond_atom_site_label_2
_geom_bond_distance
_geom_bond_site_symmetry_2
Y0 Y3 3.507327 1_555
Y0 Y2 3.507327 1_545
Y0 Y4 3.507328 1_445
Y0 Y5 3.512671 1_455
Y0 Y6 3.512688 1_445
Y0 Y7 3.512688 1_555
Y1 Y12 3.507327 1_555
Y1 Y11 3.507327 1_545
Y1 Y13 3.507328 1_445
Y1 Y8 3.512671 1_454
Y1 Y9 3.512688 1_444
Y1 Y10 3.512688 1_554
Y10 Y18 3.517679 1_545
Y10 Y17 3.517703 1_555
Y10 Y15 3.657348 1_556
Y10 Y14 3.657358 1_556
Y11 Y16 3.509528 1_455
Y11 Y15 3.509528 1_565
Y11 Y19 3.647393 1_554
Y11 Y18 3.647393 1_554
Y12 Y16 3.509528 1_455
Y12 Y14 3.509528 1_555
Y12 Y17 3.647393 1_554
Y12 Y19 3.647398 1_554
Y13 Y14 3.509528 1_555
Y13 Y15 3.509528 1_565
Y13 Y17 3.647393 1_554
Y13 Y18 3.647398 1_554
Y14 Y4 3.509528 1_555
Y14 Y3 3.509528 1_555
Y14 Y7 3.657358 1_555
Y14 Y6 3.657358 1_555
Y14 Y9 3.657358 1_554
Y14 Y15 3.673436 1_555
Y14 Y16 3.673437 1_555
Y15 Y4 3.509528 1_545
Y15 Y2 3.509528 1_545
Y15 Y7 3.657348 1_555
Y15 Y5 3.657358 1_555
Y15 Y8 3.657358 1_554
Y15 Y16 3.673437 1_555
Y16 Y2 3.509528 1_655
Y16 Y3 3.509528 1_655
Y16 Y6 3.657348 1_555
Y16 Y9 3.657348 1_554
Y16 Y5 3.657358 1_555
Y16 Y8 3.657358 1_554
Y17 Y7 3.517703 1_555
Y17 Y9 3.517703 1_555
Y17 Y6 3.517703 1_555
Y17 Y18 3.643229 1_555
Y17 Y19 3.643230 1_555
Y17 Y4 3.647393 1_555
Y17 Y3 3.647393 1_555
Y18 Y7 3.517679 1_565
Y18 Y8 3.517694 1_565
Y18 Y5 3.517694 1_565
Y18 Y19 3.643229 1_555
Y18 Y2 3.647393 1_555
Y18 Y4 3.647398 1_555
Y19 Y9 3.517679 1_455
Y19 Y6 3.517679 1_455
Y19 Y8 3.517694 1_455
Y19 Y5 3.517694 1_455
Y19 Y2 3.647393 1_555
Y19 Y3 3.647398 1_555
Al0 Y0 3.044459 1_655
Al0 Y1 3.044459 1_655
Al0 Y16 3.199328 1_555
Al0 Y15 3.199329 1_555
Al0 Y5 3.390809 1_555
Al0 Y8 3.390809 1_554
Al0 Y4 3.517213 1_545
Al0 Y13 3.517213 1_545
Al0 Y3 3.517213 1_655
Al0 Y12 3.517213 1_655
Al1 Y0 3.044459 1_665
Al1 Y1 3.044459 1_665
Al1 Y16 3.199328 1_555
Al1 Y14 3.199328 1_555
Al1 Y6 3.390817 1_555
Al1 Y9 3.390817 1_554
Al1 Y4 3.517213 1_555
Al1 Y13 3.517213 1_555
Al1 Y2 3.517213 1_655
Al1 Y11 3.517213 1_655
Al2 Y1 3.044459 1_555
Al2 Y0 3.044459 1_555
Al2 Y14 3.199328 1_555
Al2 Y15 3.199328 1_555
Al2 Y7 3.390817 1_555
Al2 Y10 3.390817 1_554
Al2 Y2 3.517213 1_545
Al2 Y11 3.517213 1_545
Al2 Y3 3.517213 1_555
Al2 Y12 3.517213 1_555
Al3 Y1 3.049950 1_566
Al3 Y0 3.049950 1_565
Al3 Y19 3.204023 1_555
Al3 Y18 3.204023 1_555
Al3 Y11 3.387437 1_556
Al3 Y2 3.387437 1_555
Al3 Y10 3.515015 1_565
Al3 Y7 3.515015 1_565
Al3 Y9 3.515015 1_455
Al3 Y6 3.515015 1_455
Al4 Y0 3.049940 1_555
Al4 Y1 3.049940 1_556
Al4 Y17 3.204035 1_555
Al4 Y19 3.204052 1_555
Al4 Y12 3.387445 1_556
Al4 Y3 3.387445 1_555
Al4 Y10 3.515015 1_555
Al4 Y7 3.515015 1_555
Al4 Y8 3.515015 1_455
Al4 Y5 3.515015 1_455
Al5 Y1 3.049940 1_666
Al5 Y0 3.049940 1_665
Al5 Y17 3.204035 1_555
Al5 Y18 3.204052 1_555
Al5 Y13 3.387445 1_556
Al5 Y4 3.387445 1_555
Al5 Y8 3.515015 1_565
Al5 Y5 3.515015 1_565
Al5 Y9 3.515015 1_555
Al5 Y6 3.515015 1_555
Os0 Y2 2.779253 1_555
Os0 Y11 2.779253 1_555
Os0 Y3 2.779260 1_555
Os0 Y12 2.779260 1_555
Os0 Y4 2.779260 1_555
Os0 Y13 2.779260 1_555
Os0 Y15 3.427113 1_565
Os0 Y16 3.427113 1_455
Os0 Y14 3.427121 1_555
Ru0 Y9 2.773206 1_555
Ru0 Y6 2.773206 1_555
Ru0 Y10 2.773206 1_555
Ru0 Y7 2.773206 1_555
Ru0 Y8 2.773213 1_555
Ru0 Y5 2.773213 1_555
Ru0 Y18 3.444550 1_545
Ru0 Y19 3.444550 1_655
Ru0 Y17 3.444567 1_555
