# generated using pymatgen
data_Cs12Nb3RhS16
_symmetry_space_group_name_H-M   'P 1'
_cell_length_a   9.99405118
_cell_length_b   10.01547763
_cell_length_c   11.66725267
_cell_angle_alpha   90.00000000
_cell_angle_beta   90.00000000
_cell_angle_gamma   89.82568815
_symmetry_Int_Tables_number   1
_chemical_formula_structural   Cs12Nb3RhS16
_chemical_formula_sum   'Cs12 Nb3 Rh1 S16'
_cell_volume   1167.83053889
_cell_formula_units_Z   1
loop_
 _symmetry_equiv_pos_site_id
 _symmetry_equiv_pos_as_xyz
  1  'x, y, z'
loop_
 _atom_site_type_symbol
 _atom_site_label
 _atom_site_symmetry_multiplicity
 _atom_site_fract_x
 _atom_site_fract_y
 _atom_site_fract_z
 _atom_site_occupancy
  Cs  Cs0  1  0.54734982  0.21032599  0.04311040  1
  Cs  Cs1  1  0.04406123  0.29495422  0.45876902  1
  Cs  Cs2  1  0.45427847  0.79064121  0.53860422  1
  Cs  Cs3  1  0.95270144  0.70788545  0.95978209  1
  Cs  Cs4  1  0.45427847  0.79064121  0.96139578  1
  Cs  Cs5  1  0.95270144  0.70788545  0.54021791  1
  Cs  Cs6  1  0.54734982  0.21032599  0.45688960  1
  Cs  Cs7  1  0.04406123  0.29495422  0.04123098  1
  Cs  Cs8  1  0.65263886  0.40975303  0.75000000  1
  Cs  Cs9  1  0.14697821  0.08556370  0.75000000  1
  Cs  Cs10  1  0.35376111  0.58107727  0.25000000  1
  Cs  Cs11  1  0.84856046  0.91681896  0.25000000  1
  Nb  Nb0  1  0.72052408  0.98250160  0.75000000  1
  Nb  Nb1  1  0.22554223  0.51748480  0.75000000  1
  Nb  Nb2  1  0.27558361  0.01548396  0.25000000  1
  Rh  Rh0  1  0.77833095  0.48433093  0.25000000  1
  S  S0  1  0.83028329  0.04826586  0.58762503  1
  S  S1  1  0.33593425  0.45330231  0.91293510  1
  S  S2  1  0.16568765  0.95055387  0.08762494  1
  S  S3  1  0.67324230  0.54486249  0.40623570  1
  S  S4  1  0.16568765  0.95055387  0.41237506  1
  S  S5  1  0.67324230  0.54486249  0.09376430  1
  S  S6  1  0.83028329  0.04826586  0.91237497  1
  S  S7  1  0.33593425  0.45330231  0.58706490  1
  S  S8  1  0.50854943  0.07088920  0.75000000  1
  S  S9  1  0.01364954  0.42932079  0.75000000  1
  S  S10  1  0.48796688  0.92719544  0.25000000  1
  S  S11  1  0.98063229  0.56977894  0.25000000  1
  S  S12  1  0.70580558  0.75420267  0.75000000  1
  S  S13  1  0.20870591  0.74499147  0.75000000  1
  S  S14  1  0.29044824  0.24319629  0.25000000  1
  S  S15  1  0.79525070  0.26582715  0.25000000  1
loop_
_geom_bond_atom_site_label_1
_geom_bond_atom_site_label_2
_geom_bond_distance
_geom_bond_site_symmetry_2
Cs0 S15 3.504588 1_555
Cs0 S14 3.538618 1_555
Cs0 S1 3.558343 1_554
Cs0 S6 3.595662 1_554
Cs0 S5 3.630987 1_555
Cs0 S8 3.714691 1_554
Cs0 S10 3.772290 1_545
Cs1 S15 3.493673 1_455
Cs1 S14 3.501045 1_555
Cs1 S0 3.600187 1_455
Cs1 S7 3.645925 1_555
Cs1 S9 3.666934 1_555
Cs1 S4 3.693633 1_545
Cs1 S11 3.728327 1_455
Cs2 S13 3.510334 1_555
Cs2 S12 3.539751 1_555
Cs2 S4 3.608956 1_555
Cs2 S7 3.627378 1_555
Cs2 S3 3.633259 1_555
Cs2 S10 3.650315 1_555
Cs2 S8 3.776882 1_565
Cs3 S12 3.505337 1_555
Cs3 S13 3.560981 1_655
Cs3 S2 3.562896 1_656
Cs3 S5 3.596900 1_556
Cs3 S6 3.660487 1_565
Cs3 S11 3.667987 1_556
Cs3 S9 3.759681 1_655
Cs4 S13 3.510334 1_555
Cs4 S12 3.539751 1_555
Cs4 S2 3.608956 1_556
Cs4 S1 3.627378 1_555
Cs4 S5 3.633259 1_556
Cs4 S10 3.650315 1_556
Cs4 S8 3.776882 1_565
Cs5 S12 3.505337 1_555
Cs5 S13 3.560981 1_655
Cs5 S4 3.562896 1_655
Cs5 S3 3.596900 1_555
Cs5 S0 3.660487 1_565
Cs5 S11 3.667987 1_555
Cs5 S9 3.759681 1_655
Cs6 S15 3.504588 1_555
Cs6 S14 3.538618 1_555
Cs6 S7 3.558343 1_555
Cs6 S0 3.595662 1_555
Cs6 S3 3.630987 1_555
Cs6 S8 3.714691 1_555
Cs6 S10 3.772290 1_545
Cs7 S15 3.493673 1_455
Cs7 S14 3.501045 1_555
Cs7 S6 3.600187 1_454
Cs7 S1 3.645925 1_554
Cs7 S9 3.666934 1_554
Cs7 S2 3.693633 1_545
Cs7 S11 3.728327 1_455
Cs8 S12 3.492105 1_555
Cs8 S9 3.613873 1_655
Cs8 S8 3.690784 1_555
Cs8 S1 3.716707 1_555
Cs8 S7 3.716707 1_555
Cs9 S13 3.464484 1_545
Cs9 S8 3.616102 1_555
Cs9 S9 3.687971 1_555
Cs9 S0 3.708556 1_455
Cs9 S6 3.708556 1_455
Cs10 S14 3.444579 1_555
Cs10 S3 3.693500 1_555
Cs10 S5 3.693500 1_555
Cs10 S10 3.720774 1_555
Cs10 S11 3.731129 1_455
Cs11 S15 3.534251 1_565
Cs11 S10 3.604973 1_555
Cs11 S4 3.708732 1_655
Cs11 S2 3.708732 1_655
Cs11 S11 3.714202 1_555
Nb0 S0 2.287033 1_565
Nb0 S6 2.287033 1_565
Nb0 S12 2.291696 1_555
Nb0 S8 2.293518 1_565
Nb1 S13 2.284282 1_555
Nb1 S1 2.289085 1_555
Nb1 S7 2.289085 1_555
Nb1 S9 2.296864 1_555
Nb2 S4 2.285288 1_545
Nb2 S2 2.285288 1_545
Nb2 S14 2.285932 1_555
Nb2 S10 2.296907 1_545
Rh0 S3 2.188485 1_555
Rh0 S5 2.188485 1_555
Rh0 S15 2.194430 1_555
Rh0 S11 2.197872 1_555
