# generated using pymatgen
data_Cs4K2(TcH9)3
_symmetry_space_group_name_H-M   'P 1'
_cell_length_a   10.17555799
_cell_length_b   9.89622156
_cell_length_c   5.99521613
_cell_angle_alpha   90.00000000
_cell_angle_beta   90.00000000
_cell_angle_gamma   120.93820100
_symmetry_Int_Tables_number   1
_chemical_formula_structural   Cs4K2(TcH9)3
_chemical_formula_sum   'Cs4 K2 Tc3 H27'
_cell_volume   517.82045146
_cell_formula_units_Z   1
loop_
 _symmetry_equiv_pos_site_id
 _symmetry_equiv_pos_as_xyz
  1  'x, y, z'
loop_
 _atom_site_type_symbol
 _atom_site_label
 _atom_site_symmetry_multiplicity
 _atom_site_fract_x
 _atom_site_fract_y
 _atom_site_fract_z
 _atom_site_occupancy
  Cs  Cs0  1  0.25426488  1.00000000  0.50000000  1
  Cs  Cs1  1  0.58717127  0.00000000  0.00000000  1
  Cs  Cs2  1  0.00511139  0.58727386  0.00000000  1
  Cs  Cs3  1  0.41783753  0.41272614  0.00000000  1
  K  K0  1  0.99533021  0.26037278  0.50000000  1
  K  K1  1  0.73495844  0.73962722  0.50000000  1
  Tc  Tc0  1  0.98148724  1.00000000  0.00000000  1
  Tc  Tc1  1  0.33750554  0.65519521  0.50000000  1
  Tc  Tc2  1  0.68231233  0.34480479  0.50000000  1
  H  H0  1  0.86674201  0.00000000  0.20179194  1
  H  H1  1  0.97791916  0.87610531  0.19512541  1
  H  H2  1  0.86674201  0.00000000  0.79820806  1
  H  H3  1  0.97791916  0.87610531  0.80487459  1
  H  H4  1  0.10181384  0.12389469  0.19512541  1
  H  H5  1  0.10181384  0.12389469  0.80487459  1
  H  H6  1  0.14419259  0.00000000  0.00000000  1
  H  H7  1  0.98091322  0.16725051  0.00000000  1
  H  H8  1  0.81366271  0.83274949  0.00000000  1
  H  H9  1  0.23373842  0.52250133  0.30109859  1
  H  H10  1  0.46814879  0.68597961  0.30290357  1
  H  H11  1  0.23373842  0.52250133  0.69890141  1
  H  H12  1  0.55525963  0.24366882  0.70270729  1
  H  H13  1  0.31159080  0.75633118  0.29729271  1
  H  H14  1  0.46814879  0.68597961  0.69709643  1
  H  H15  1  0.71123709  0.47749867  0.69890141  1
  H  H16  1  0.55525963  0.24366882  0.29729271  1
  H  H17  1  0.31159080  0.75633118  0.70270729  1
  H  H18  1  0.71123709  0.47749867  0.30109859  1
  H  H19  1  0.78216818  0.31402039  0.69709643  1
  H  H20  1  0.78216818  0.31402039  0.30290357  1
  H  H21  1  0.37184115  0.50916580  0.50000000  1
  H  H22  1  0.47764124  0.84193613  0.50000000  1
  H  H23  1  0.54064266  0.38112835  0.50000000  1
  H  H24  1  0.15951531  0.61887165  0.50000000  1
  H  H25  1  0.86267436  0.49083420  0.50000000  1
  H  H26  1  0.63570511  0.15806387  0.50000000  1
loop_
_geom_bond_atom_site_label_1
_geom_bond_atom_site_label_2
_geom_bond_distance
_geom_bond_site_symmetry_2
Cs0 H17 3.013028 1_555
Cs0 H13 3.013028 1_555
Cs0 H12 3.013029 1_565
Cs0 H16 3.013029 1_565
Cs0 H5 3.034180 1_565
Cs0 H4 3.034180 1_565
Cs0 H3 3.034180 1_455
Cs0 H1 3.034180 1_455
Cs0 H6 3.200025 1_565
Cs0 H6 3.200025 1_566
Cs1 H0 3.091343 1_555
Cs1 H2 3.091343 1_554
Cs1 H16 3.146766 1_555
Cs1 H12 3.146766 1_554
Cs1 H13 3.146767 1_545
Cs1 H17 3.146767 1_544
Cs1 H20 3.248369 1_555
Cs1 H19 3.248369 1_554
Cs1 H10 3.248370 1_545
Cs1 H14 3.248370 1_544
Cs1 H26 3.298798 1_555
Cs1 H26 3.298798 1_554
Cs1 H22 3.298798 1_544
Cs1 H22 3.298798 1_545
Cs2 H20 3.073917 1_455
Cs2 H19 3.073917 1_454
Cs2 H18 3.168687 1_455
Cs2 H15 3.168687 1_454
Cs2 H13 3.215062 1_555
Cs2 H17 3.215062 1_554
Cs2 H1 3.229297 1_455
Cs2 H3 3.229297 1_454
Cs2 H25 3.251906 1_454
Cs2 H25 3.251906 1_455
Cs2 H9 3.258060 1_555
Cs2 H11 3.258060 1_554
Cs2 H24 3.323668 1_555
Cs2 H24 3.323668 1_554
Cs3 H10 3.073914 1_555
Cs3 H14 3.073914 1_554
Cs3 H9 3.168687 1_555
Cs3 H11 3.168687 1_554
Cs3 H16 3.215062 1_555
Cs3 H12 3.215062 1_554
Cs3 H4 3.229297 1_555
Cs3 H5 3.229297 1_554
Cs3 H21 3.251903 1_554
Cs3 H21 3.251903 1_555
Cs3 H18 3.258060 1_555
Cs3 H15 3.258060 1_554
Cs3 H23 3.323664 1_554
Cs3 H23 3.323664 1_555
H0 Tc0 1.681328 1_545
H0 K1 2.842729 1_545
H0 K0 2.842729 1_555
H1 Tc0 1.681463 1_555
H1 K1 2.800665 1_555
H2 Tc0 1.681328 1_546
H2 K1 2.842729 1_545
H2 K0 2.842729 1_555
H3 Tc0 1.681463 1_556
H3 K1 2.800665 1_555
H4 Tc0 1.681463 1_445
H4 K0 2.800671 1_455
H5 Tc0 1.681463 1_446
H5 K0 2.800671 1_455
H6 Tc0 1.655618 1_445
H7 Tc0 1.658159 1_545
H8 Tc0 1.658159 1_555
H9 Tc1 1.683914 1_555
H9 K0 2.750577 1_455
H10 Tc1 1.685192 1_555
H10 K1 2.750807 1_555
H11 Tc1 1.683914 1_555
H11 K0 2.750577 1_455
H12 Tc2 1.679155 1_555
H13 Tc1 1.679146 1_555
H14 Tc1 1.685192 1_555
H14 K1 2.750807 1_555
H15 Tc2 1.683919 1_555
H15 K1 2.750573 1_555
H16 Tc2 1.679155 1_555
H17 Tc1 1.679146 1_555
H18 Tc2 1.683919 1_555
H18 K1 2.750573 1_555
H19 Tc2 1.685170 1_555
H19 K0 2.750807 1_555
H20 Tc2 1.685170 1_555
H20 K0 2.750807 1_555
H21 Tc1 1.652168 1_555
H22 Tc1 1.654985 1_555
H23 Tc2 1.655341 1_555
H24 Tc1 1.655311 1_555
H25 Tc2 1.652147 1_555
H26 Tc2 1.654979 1_555
