# generated using pymatgen
data_Ca9Cd4Bi9
_symmetry_space_group_name_H-M   'P 1'
_cell_length_a   4.75825618
_cell_length_b   12.84970959
_cell_length_c   22.67347178
_cell_angle_alpha   90.00000000
_cell_angle_beta   90.00000000
_cell_angle_gamma   90.00000000
_symmetry_Int_Tables_number   1
_chemical_formula_structural   Ca9Cd4Bi9
_chemical_formula_sum   'Ca18 Cd8 Bi18'
_cell_volume   1386.30617454
_cell_formula_units_Z   2
loop_
 _symmetry_equiv_pos_site_id
 _symmetry_equiv_pos_as_xyz
  1  'x, y, z'
loop_
 _atom_site_type_symbol
 _atom_site_label
 _atom_site_symmetry_multiplicity
 _atom_site_fract_x
 _atom_site_fract_y
 _atom_site_fract_z
 _atom_site_occupancy
  Ca  Ca0  1  -0.00000000  0.36787371  0.63589714  1
  Ca  Ca1  1  0.00000000  0.56703460  0.91094057  1
  Ca  Ca2  1  -0.00000000  0.63212602  0.36413484  1
  Ca  Ca3  1  -0.00000000  0.43295314  0.08902884  1
  Ca  Ca4  1  0.00000000  0.13212602  0.13586516  1
  Ca  Ca5  1  -0.00000000  0.86787371  0.86410286  1
  Ca  Ca6  1  0.50000000  0.49999913  0.50001086  1
  Ca  Ca7  1  0.50000000  -0.00000087  -0.00001086  1
  Ca  Ca8  1  0.50000000  0.70873396  0.10065045  1
  Ca  Ca9  1  0.50000000  0.29126483  0.89932277  1
  Ca  Ca10  1  0.50000000  0.20873396  0.39934955  1
  Ca  Ca11  1  0.50000000  0.79126483  0.60067723  1
  Ca  Ca12  1  0.00000000  0.87517090  0.23393346  1
  Ca  Ca13  1  0.00000000  0.12481904  0.76606321  1
  Ca  Ca14  1  0.00000000  0.37517090  0.26606654  1
  Ca  Ca15  1  0.00000000  0.62481904  0.73393679  1
  Ca  Ca16  1  -0.00000000  0.93295314  0.41097116  1
  Ca  Ca17  1  -0.00000000  0.06703460  0.58905943  1
  Cd  Cd0  1  0.50000000  0.73082261  0.95334616  1
  Cd  Cd1  1  0.50000000  0.26923281  0.04669531  1
  Cd  Cd2  1  0.50000000  0.23082261  0.54665384  1
  Cd  Cd3  1  0.50000000  0.76923281  0.45330469  1
  Cd  Cd4  1  0.50000000  0.61358650  0.26018775  1
  Cd  Cd5  1  0.50000000  0.11358650  0.23981225  1
  Cd  Cd6  1  0.50000000  0.38641736  0.73980948  1
  Cd  Cd7  1  0.50000000  0.88641736  0.76019052  1
  Bi  Bi0  1  0.50000000  0.81561112  0.32831565  1
  Bi  Bi1  1  0.50000000  0.18436379  0.67173949  1
  Bi  Bi2  1  0.50000000  0.31561112  0.17168435  1
  Bi  Bi3  1  0.50000000  0.68436379  0.82826051  1
  Bi  Bi4  1  0.50000000  0.95494858  0.14417248  1
  Bi  Bi5  1  0.50000000  0.04506599  0.85581369  1
  Bi  Bi6  1  0.50000000  0.45494858  0.35582752  1
  Bi  Bi7  1  0.50000000  0.54506599  0.64418631  1
  Bi  Bi8  1  0.00000000  0.61819479  0.18668704  1
  Bi  Bi9  1  0.00000000  0.38179818  0.81328975  1
  Bi  Bi10  1  0.00000000  0.11819479  0.31331296  1
  Bi  Bi11  1  0.00000000  0.88179818  0.68671025  1
  Bi  Bi12  1  0.00000000  0.81760769  0.01142884  1
  Bi  Bi13  1  0.00000000  0.18239317  0.98851242  1
  Bi  Bi14  1  0.00000000  0.31760769  0.48857116  1
  Bi  Bi15  1  0.00000000  0.68239317  0.51148758  1
  Bi  Bi16  1  0.50000000  -0.00001794  0.50005125  1
  Bi  Bi17  1  0.50000000  0.49998206  -0.00005125  1
loop_
_geom_bond_atom_site_label_1
_geom_bond_atom_site_label_2
_geom_bond_distance
_geom_bond_site_symmetry_2
Ca0 Cd6 3.356787 1_455
Ca0 Cd6 3.356787 1_555
Ca0 Cd2 3.585524 1_455
Ca0 Cd2 3.585524 1_555
Ca1 Cd0 3.318759 1_455
Ca1 Cd0 3.318759 1_555
Ca2 Cd4 3.357336 1_455
Ca2 Cd4 3.357336 1_555
Ca2 Cd3 3.584936 1_455
Ca2 Cd3 3.584936 1_555
Ca3 Cd1 3.317734 1_455
Ca3 Cd1 3.317734 1_555
Ca4 Cd5 3.357336 1_455
Ca4 Cd5 3.357336 1_555
Ca4 Cd1 3.584936 1_555
Ca4 Cd1 3.584936 1_455
Ca5 Cd7 3.356787 1_455
Ca5 Cd7 3.356787 1_555
Ca5 Cd0 3.585524 1_455
Ca5 Cd0 3.585524 1_555
Ca6 Cd2 3.616905 1_555
Ca6 Cd3 3.618027 1_555
Ca7 Cd0 3.616905 1_544
Ca7 Cd1 3.618027 1_555
Ca8 Cd0 3.351938 1_554
Ca9 Cd1 3.353419 1_556
Ca10 Cd2 3.351938 1_555
Ca11 Cd3 3.353419 1_555
Ca16 Cd3 3.317734 1_555
Ca16 Cd3 3.317734 1_455
Ca17 Cd2 3.318759 1_455
Ca17 Cd2 3.318759 1_555
Bi0 Cd3 2.895919 1_555
Bi0 Cd4 3.020775 1_555
Bi0 Ca12 3.290206 1_555
Bi0 Ca12 3.290206 1_655
Bi0 Ca16 3.383186 1_555
Bi0 Ca16 3.383186 1_655
Bi0 Ca2 3.446552 1_655
Bi0 Ca2 3.446552 1_555
Bi1 Cd2 2.898275 1_555
Bi1 Cd6 3.020424 1_555
Bi1 Ca13 3.289299 1_555
Bi1 Ca13 3.289299 1_655
Bi1 Ca17 3.383421 1_555
Bi1 Ca17 3.383421 1_655
Bi1 Ca0 3.446894 1_655
Bi1 Ca0 3.446894 1_555
Bi2 Cd1 2.895919 1_555
Bi2 Cd5 3.020775 1_555
Bi2 Ca14 3.290206 1_555
Bi2 Ca14 3.290206 1_655
Bi2 Ca3 3.383186 1_555
Bi2 Ca3 3.383186 1_655
Bi2 Ca4 3.446552 1_655
Bi2 Ca4 3.446552 1_555
Bi3 Cd0 2.898275 1_555
Bi3 Cd7 3.020424 1_555
Bi3 Ca15 3.289299 1_655
Bi3 Ca15 3.289299 1_555
Bi3 Ca1 3.383421 1_555
Bi3 Ca1 3.383421 1_655
Bi3 Ca5 3.446894 1_555
Bi3 Ca5 3.446894 1_655
Bi4 Cd5 2.976174 1_565
Bi4 Ca12 3.294409 1_555
Bi4 Ca12 3.294409 1_655
Bi4 Ca4 3.298332 1_665
Bi4 Ca4 3.298332 1_565
Bi4 Ca8 3.314108 1_555
Bi4 Ca7 3.319995 1_565
Bi5 Cd7 2.975994 1_545
Bi5 Ca13 3.294164 1_655
Bi5 Ca13 3.294164 1_555
Bi5 Ca5 3.298440 1_545
Bi5 Ca5 3.298440 1_645
Bi5 Ca9 3.313827 1_555
Bi5 Ca7 3.319855 1_556
Bi6 Cd4 2.976174 1_555
Bi6 Ca14 3.294409 1_655
Bi6 Ca14 3.294409 1_555
Bi6 Ca2 3.298332 1_655
Bi6 Ca2 3.298332 1_555
Bi6 Ca10 3.314108 1_555
Bi6 Ca6 3.319995 1_555
Bi7 Cd6 2.975994 1_555
Bi7 Ca15 3.294164 1_555
Bi7 Ca15 3.294164 1_655
Bi7 Ca0 3.298440 1_555
Bi7 Ca0 3.298440 1_655
Bi7 Ca11 3.313827 1_555
Bi7 Ca6 3.319855 1_555
Bi8 Cd4 2.905346 1_555
Bi8 Cd4 2.905346 1_455
Bi8 Ca3 3.250960 1_555
Bi8 Ca8 3.289251 1_455
Bi8 Ca8 3.289251 1_555
Bi8 Ca12 3.471485 1_555
Bi8 Ca14 3.604318 1_555
Bi9 Cd6 2.905083 1_555
Bi9 Cd6 2.905083 1_455
Bi9 Ca1 3.250797 1_555
Bi9 Ca9 3.289177 1_455
Bi9 Ca9 3.289177 1_555
Bi9 Ca13 3.471383 1_555
Bi9 Ca15 3.603984 1_555
Bi10 Cd5 2.905346 1_455
Bi10 Cd5 2.905346 1_555
Bi10 Ca16 3.250960 1_545
Bi10 Ca10 3.289251 1_555
Bi10 Ca10 3.289251 1_455
Bi10 Ca14 3.471485 1_555
Bi10 Ca12 3.604318 1_545
Bi11 Cd7 2.905083 1_555
Bi11 Cd7 2.905083 1_455
Bi11 Ca17 3.250797 1_565
Bi11 Ca11 3.289177 1_455
Bi11 Ca11 3.289177 1_555
Bi11 Ca15 3.471383 1_555
Bi11 Ca13 3.603984 1_565
Bi12 Cd0 2.939075 1_454
Bi12 Cd0 2.939075 1_554
Bi12 Ca7 3.349679 1_465
Bi12 Ca7 3.349679 1_565
Bi12 Ca5 3.402265 1_554
Bi12 Ca8 3.421962 1_555
Bi12 Ca8 3.421962 1_455
Bi13 Cd1 2.940359 1_556
Bi13 Cd1 2.940359 1_456
Bi13 Ca7 3.349767 1_556
Bi13 Ca7 3.349767 1_456
Bi13 Ca4 3.402863 1_556
Bi13 Ca9 3.421522 1_455
Bi13 Ca9 3.421522 1_555
Bi14 Cd2 2.939075 1_455
Bi14 Cd2 2.939075 1_555
Bi14 Ca6 3.349679 1_555
Bi14 Ca6 3.349679 1_455
Bi14 Ca0 3.402265 1_555
Bi14 Ca10 3.421962 1_455
Bi14 Ca10 3.421962 1_555
Bi15 Cd3 2.940359 1_555
Bi15 Cd3 2.940359 1_455
Bi15 Ca6 3.349767 1_455
Bi15 Ca6 3.349767 1_555
Bi15 Ca2 3.402863 1_555
Bi15 Ca11 3.421522 1_455
Bi15 Ca11 3.421522 1_555
Bi16 Cd3 3.148807 1_545
Bi16 Cd2 3.148815 1_555
Bi16 Ca17 3.236579 1_655
Bi16 Ca17 3.236579 1_555
Bi16 Ca16 3.237515 1_545
Bi16 Ca16 3.237515 1_645
Bi16 Ca11 3.521124 1_545
Bi16 Ca10 3.522576 1_555
Bi17 Cd1 3.148807 1_555
Bi17 Cd0 3.148815 1_554
Bi17 Ca1 3.236579 1_654
Bi17 Ca1 3.236579 1_554
Bi17 Ca3 3.237515 1_655
Bi17 Ca3 3.237515 1_555
Bi17 Ca9 3.521124 1_554
Bi17 Ca8 3.522576 1_555
