# generated using pymatgen
data_Lu6MnFeB14
_symmetry_space_group_name_H-M   'P 1'
_cell_length_a   7.82743768
_cell_length_b   7.82743784
_cell_length_c   9.10812918
_cell_angle_alpha   90.00000000
_cell_angle_beta   90.00000000
_cell_angle_gamma   155.22649370
_symmetry_Int_Tables_number   1
_chemical_formula_structural   Lu6MnFeB14
_chemical_formula_sum   'Lu6 Mn1 Fe1 B14'
_cell_volume   233.83844081
_cell_formula_units_Z   1
loop_
 _symmetry_equiv_pos_site_id
 _symmetry_equiv_pos_as_xyz
  1  'x, y, z'
loop_
 _atom_site_type_symbol
 _atom_site_label
 _atom_site_symmetry_multiplicity
 _atom_site_fract_x
 _atom_site_fract_y
 _atom_site_fract_z
 _atom_site_occupancy
  Lu  Lu0  1  0.89521958  0.10478042  0.43967763  1
  Lu  Lu1  1  0.10511311  0.89488689  0.55765364  1
  Lu  Lu2  1  0.89521958  0.10478042  0.06032237  1
  Lu  Lu3  1  0.10511311  0.89488689  0.94234636  1
  Lu  Lu4  1  0.24141909  0.75858091  0.25000000  1
  Lu  Lu5  1  0.75756733  0.24243267  0.75000000  1
  Mn  Mn0  1  0.05273484  0.94726516  0.25000000  1
  Fe  Fe0  1  0.94653549  0.05346451  0.75000000  1
  B  B0  1  0.72817063  0.27182937  0.46628093  1
  B  B1  1  0.27239556  0.72760444  0.53501438  1
  B  B2  1  0.72817063  0.27182937  0.03371907  1
  B  B3  1  0.27239556  0.72760444  0.96498562  1
  B  B4  1  0.63037069  0.36962931  0.15215195  1
  B  B5  1  0.37002314  0.62997686  0.84762123  1
  B  B6  1  0.63037069  0.36962931  0.34784805  1
  B  B7  1  0.37002314  0.62997686  0.65237877  1
  B  B8  1  0.51985844  0.48014156  0.09728752  1
  B  B9  1  0.48005171  0.51994829  0.90256540  1
  B  B10  1  0.51985844  0.48014156  0.40271248  1
  B  B11  1  0.48005171  0.51994829  0.59743460  1
  B  B12  1  0.45470295  0.54529705  0.25000000  1
  B  B13  1  0.54463459  0.45536541  0.75000000  1
loop_
_geom_bond_atom_site_label_1
_geom_bond_atom_site_label_2
_geom_bond_distance
_geom_bond_site_symmetry_2
B0 B6 1.843865 1_555
B0 B1 1.915315 1_655
B0 B1 1.915315 1_545
B0 Lu0 2.565722 1_555
B0 Lu4 2.596313 1_655
B0 Lu4 2.596313 1_545
B0 Lu5 2.622951 1_555
B0 Lu1 2.655616 1_545
B0 Lu1 2.655616 1_655
B1 B7 1.836045 1_555
B1 Lu1 2.566124 1_555
B1 Lu5 2.589376 1_455
B1 Lu5 2.589376 1_565
B1 Lu4 2.638804 1_555
B1 Lu0 2.664634 1_565
B1 Lu0 2.664634 1_455
B2 B4 1.843865 1_555
B2 B3 1.915315 1_654
B2 B3 1.915315 1_544
B2 Lu2 2.565722 1_555
B2 Lu4 2.596313 1_655
B2 Lu4 2.596313 1_545
B2 Lu5 2.622951 1_554
B2 Lu3 2.655616 1_544
B2 Lu3 2.655616 1_654
B3 B5 1.836045 1_555
B3 Lu3 2.566124 1_555
B3 Lu5 2.589376 1_455
B3 Lu5 2.589376 1_565
B3 Lu4 2.638804 1_556
B3 Lu2 2.664634 1_566
B3 Lu2 2.664634 1_456
B4 B8 1.762124 1_555
B4 B6 1.782425 1_555
B4 Mn0 2.241134 1_545
B4 Mn0 2.241134 1_655
B4 Lu4 2.548851 1_655
B4 Lu4 2.548851 1_545
B4 Lu3 2.572950 1_544
B4 Lu3 2.572950 1_654
B5 B9 1.755240 1_555
B5 B7 1.778294 1_555
B5 Fe0 2.231258 1_565
B5 Fe0 2.231258 1_455
B5 Lu5 2.562520 1_455
B5 Lu5 2.562520 1_565
B5 Lu2 2.592458 1_566
B5 Lu2 2.592458 1_456
B6 Mn0 2.241134 1_545
B6 Mn0 2.241134 1_655
B6 Lu4 2.548851 1_655
B6 Lu4 2.548851 1_545
B6 Lu1 2.572950 1_545
B6 Lu1 2.572950 1_655
B7 Fe0 2.231258 1_565
B7 Fe0 2.231258 1_455
B7 Lu5 2.562520 1_455
B7 Lu5 2.562520 1_565
B7 Lu0 2.592458 1_565
B7 Lu0 2.592458 1_455
B8 B9 1.875091 1_554
B8 Mn0 2.237547 1_655
B8 Mn0 2.237547 1_545
B8 Lu3 2.551495 1_654
B8 Lu3 2.551495 1_544
B8 Lu2 2.562151 1_455
B8 Lu2 2.562151 1_565
B9 Fe0 2.238934 1_455
B9 Fe0 2.238934 1_565
B9 Lu2 2.562492 1_456
B9 Lu2 2.562492 1_566
B9 Lu3 2.570450 1_655
B9 Lu3 2.570450 1_545
B10 B12 1.710906 1_555
B10 B6 1.762124 1_555
B10 B11 1.875091 1_555
B10 Mn0 2.237547 1_655
B10 Mn0 2.237547 1_545
B10 Lu1 2.551495 1_655
B10 Lu1 2.551495 1_545
B10 Lu0 2.562151 1_455
B10 Lu0 2.562151 1_565
B11 B13 1.704731 1_555
B11 B7 1.755240 1_555
B11 Fe0 2.238934 1_455
B11 Fe0 2.238934 1_565
B11 Lu0 2.562492 1_455
B11 Lu0 2.562492 1_565
B11 Lu1 2.570450 1_655
B11 Lu1 2.570450 1_545
B12 B8 1.710906 1_555
B12 Mn0 2.250800 1_655
B12 Mn0 2.250800 1_545
B12 Lu0 2.575095 1_455
B12 Lu2 2.575095 1_455
B12 Lu0 2.575095 1_565
B12 Lu2 2.575095 1_565
B13 B9 1.704731 1_555
B13 Fe0 2.251485 1_455
B13 Fe0 2.251485 1_565
B13 Lu3 2.596845 1_655
B13 Lu1 2.596845 1_655
B13 Lu3 2.596845 1_545
B13 Lu1 2.596845 1_545
B13 Lu5 3.255839 1_555
