# generated using pymatgen
data_K3B2Pd6Pb
_symmetry_space_group_name_H-M   'P 1'
_cell_length_a   8.30751315
_cell_length_b   8.30751330
_cell_length_c   8.30751379
_cell_angle_alpha   40.95008128
_cell_angle_beta   40.95007939
_cell_angle_gamma   40.95007718
_symmetry_Int_Tables_number   1
_chemical_formula_structural   K3B2Pd6Pb
_chemical_formula_sum   'K3 B2 Pd6 Pb1'
_cell_volume   222.31382467
_cell_formula_units_Z   1
loop_
 _symmetry_equiv_pos_site_id
 _symmetry_equiv_pos_as_xyz
  1  'x, y, z'
loop_
 _atom_site_type_symbol
 _atom_site_label
 _atom_site_symmetry_multiplicity
 _atom_site_fract_x
 _atom_site_fract_y
 _atom_site_fract_z
 _atom_site_occupancy
  K  K0  1  0.36180319  0.36180319  0.36180319  1
  K  K1  1  0.50000000  0.50000000  0.50000000  1
  K  K2  1  0.63819681  0.63819681  0.63819681  1
  B  B0  1  0.17009246  0.17009246  0.17009246  1
  B  B1  1  0.82990754  0.82990754  0.82990754  1
  Pd  Pd0  1  0.56525198  0.05854774  0.05854774  1
  Pd  Pd1  1  0.05854774  0.56525198  0.05854774  1
  Pd  Pd2  1  0.94145226  0.94145226  0.43474802  1
  Pd  Pd3  1  0.05854774  0.05854774  0.56525198  1
  Pd  Pd4  1  0.94145226  0.43474802  0.94145226  1
  Pd  Pd5  1  0.43474802  0.94145226  0.94145226  1
  Pb  Pb0  1  0.00000000  0.00000000  0.00000000  1
loop_
_geom_bond_atom_site_label_1
_geom_bond_atom_site_label_2
_geom_bond_distance
_geom_bond_site_symmetry_2
K0 K1 3.150759 1_555
K0 Pd2 3.400038 1_545
K0 Pd2 3.400038 1_455
K0 Pd4 3.400038 1_554
K0 Pd5 3.400038 1_554
K0 Pd4 3.400038 1_455
K0 Pd5 3.400038 1_545
K0 Pb0 3.417719 1_655
K0 Pb0 3.417719 1_565
K0 Pb0 3.417719 1_556
K0 Pd3 3.503389 1_555
K0 Pd0 3.503389 1_555
K0 Pd1 3.503389 1_555
K0 K2 3.597880 1_455
K0 K2 3.597880 1_545
K0 K2 3.597880 1_554
K1 K2 3.150759 1_555
K1 Pd3 3.219553 1_655
K1 Pd2 3.219553 1_455
K1 Pd3 3.219553 1_565
K1 Pd2 3.219553 1_545
K1 Pd1 3.219553 1_655
K1 Pd4 3.219553 1_455
K1 Pd0 3.219553 1_565
K1 Pd5 3.219553 1_545
K1 Pd1 3.219553 1_556
K1 Pd4 3.219553 1_554
K1 Pd0 3.219553 1_556
K1 Pd5 3.219553 1_554
K2 Pd3 3.400038 1_565
K2 Pd3 3.400038 1_655
K2 Pd1 3.400038 1_556
K2 Pd0 3.400038 1_556
K2 Pd1 3.400038 1_655
K2 Pd0 3.400038 1_565
K2 Pb0 3.417719 1_566
K2 Pb0 3.417719 1_656
K2 Pb0 3.417719 1_665
K2 Pd2 3.503389 1_555
K2 Pd5 3.503389 1_555
K2 Pd4 3.503389 1_555
B0 Pd0 2.144968 1_555
B0 Pd1 2.144968 1_555
B0 Pd3 2.144969 1_555
B0 Pd5 2.209720 1_544
B0 Pd2 2.209720 1_445
B0 Pd4 2.209720 1_454
B0 K1 3.356425 1_455
B0 K1 3.356425 1_545
B0 K1 3.356425 1_554
B1 Pd5 2.144968 1_555
B1 Pd4 2.144968 1_555
B1 Pd2 2.144969 1_555
B1 Pd0 2.209720 1_566
B1 Pd3 2.209720 1_665
B1 Pd1 2.209720 1_656
B1 K1 3.356425 1_655
B1 K1 3.356425 1_565
B1 K1 3.356425 1_556
Pb0 Pd5 2.927043 1_544
Pb0 Pd0 2.927043 1_455
Pb0 Pd4 2.927043 1_454
Pb0 Pd1 2.927043 1_545
Pb0 Pd2 2.927043 1_445
Pb0 Pd3 2.927043 1_554
