# generated using pymatgen
data_LuSc(Co3Si2)2
_symmetry_space_group_name_H-M   'P 1'
_cell_length_a   6.11801188
_cell_length_b   6.11801225
_cell_length_c   6.11765426
_cell_angle_alpha   130.38727334
_cell_angle_beta   112.87607982
_cell_angle_gamma   87.90081299
_symmetry_Int_Tables_number   1
_chemical_formula_structural   LuSc(Co3Si2)2
_chemical_formula_sum   'Lu1 Sc1 Co6 Si4'
_cell_volume   152.94923884
_cell_formula_units_Z   1
loop_
 _symmetry_equiv_pos_site_id
 _symmetry_equiv_pos_as_xyz
  1  'x, y, z'
loop_
 _atom_site_type_symbol
 _atom_site_label
 _atom_site_symmetry_multiplicity
 _atom_site_fract_x
 _atom_site_fract_y
 _atom_site_fract_z
 _atom_site_occupancy
  Lu  Lu0  1  0.75001672  0.46776550  0.71778222  1
  Sc  Sc0  1  0.24985573  0.54521741  0.29507314  1
  Co  Co0  1  0.99014211  0.99844069  0.48858180  1
  Co  Co1  1  0.50987851  0.99839243  0.00826994  1
  Co  Co2  1  0.71952279  0.99866472  0.71948890  1
  Co  Co3  1  0.22082517  0.49996711  0.71948890  1
  Co  Co4  1  0.27905091  0.99836041  0.27899917  1
  Co  Co5  1  0.78063776  0.49994726  0.27899917  1
  Si  Si0  1  0.08822065  0.88558917  0.79737505  1
  Si  Si1  1  0.92702809  0.12624616  0.19928283  1
  Si  Si2  1  0.57303567  0.77225674  0.19928283  1
  Si  Si3  1  0.41178588  0.20915340  0.79737505  1
loop_
_geom_bond_atom_site_label_1
_geom_bond_atom_site_label_2
_geom_bond_distance
_geom_bond_site_symmetry_2
Lu0 Si1 2.922400 1_566
Lu0 Si2 2.922404 1_556
Lu0 Si0 3.007324 1_655
Lu0 Si3 3.007328 1_555
Lu0 Si2 3.084837 1_545
Lu0 Si1 3.084845 1_555
Lu0 Sc0 3.404332 1_656
Lu0 Sc0 3.406595 1_555
Sc0 Si1 2.887747 1_455
Sc0 Si2 2.887750 1_555
Sc0 Si3 2.926211 1_554
Sc0 Si0 2.926211 1_544
Sc0 Si3 2.945545 1_565
Sc0 Si0 2.945549 1_555
Co0 Si1 2.265546 1_565
Co0 Si2 2.265555 1_555
Co0 Si3 2.276827 1_665
Co0 Si0 2.276833 1_655
Co0 Co4 2.555238 1_655
Co0 Co5 2.555253 1_555
Co0 Co2 2.559753 1_555
Co0 Co3 2.559754 1_665
Co0 Lu0 2.905849 1_565
Co0 Sc0 2.915568 1_655
Co0 Lu0 3.171528 1_554
Co0 Sc0 3.311148 1_666
Co1 Si2 2.265777 1_555
Co1 Si1 2.265783 1_565
Co1 Si3 2.276967 1_564
Co1 Si0 2.276978 1_554
Co1 Co2 2.555751 1_554
Co1 Co3 2.555751 1_554
Co1 Co5 2.560518 1_565
Co1 Co4 2.560533 1_555
Co1 Lu0 2.905767 1_565
Co1 Sc0 2.916274 1_554
Co1 Lu0 3.171715 1_554
Co1 Sc0 3.312839 1_565
Co2 Si2 2.238453 1_555
Co2 Si1 2.245636 1_566
Co2 Si3 2.270414 1_565
Co2 Si0 2.295867 1_655
Co2 Sc0 2.853647 1_555
Co2 Lu0 2.889841 1_565
Co2 Lu0 3.240047 1_555
Co2 Sc0 3.280437 1_666
Co3 Si1 2.238453 1_455
Co3 Si2 2.245629 1_556
Co3 Si0 2.270413 1_555
Co3 Si3 2.295876 1_555
Co3 Sc0 2.853640 1_555
Co3 Lu0 2.889847 1_455
Co3 Lu0 3.240041 1_555
Co3 Sc0 3.280443 1_556
Co4 Si2 2.238704 1_555
Co4 Si1 2.245609 1_465
Co4 Si3 2.270242 1_565
Co4 Si0 2.295775 1_554
Co4 Sc0 2.851426 1_555
Co4 Lu0 2.891033 1_565
Co4 Lu0 3.238550 1_454
Co4 Sc0 3.283087 1_565
Co5 Si1 2.238712 1_555
Co5 Si2 2.245625 1_555
Co5 Si0 2.270243 1_655
Co5 Si3 2.295772 1_554
Co5 Sc0 2.851433 1_655
Co5 Lu0 2.891026 1_555
Co5 Lu0 3.238556 1_554
Co5 Sc0 3.283081 1_555
Si0 Si1 2.504643 1_466
Si2 Si3 2.504657 1_554
