# generated using pymatgen
data_Hf6GePb2
_symmetry_space_group_name_H-M   'P 1'
_cell_length_a   3.85408502
_cell_length_b   7.62130444
_cell_length_c   7.62130493
_cell_angle_alpha   119.99999374
_cell_angle_beta   90.00000000
_cell_angle_gamma   90.00000000
_symmetry_Int_Tables_number   1
_chemical_formula_structural   Hf6GePb2
_chemical_formula_sum   'Hf6 Ge1 Pb2'
_cell_volume   193.86999454
_cell_formula_units_Z   1
loop_
 _symmetry_equiv_pos_site_id
 _symmetry_equiv_pos_as_xyz
  1  'x, y, z'
loop_
 _atom_site_type_symbol
 _atom_site_label
 _atom_site_symmetry_multiplicity
 _atom_site_fract_x
 _atom_site_fract_y
 _atom_site_fract_z
 _atom_site_occupancy
  Hf  Hf0  1  0.50000000  0.24270029  0.00000000  1
  Hf  Hf1  1  0.00000000  0.61210219  0.00000000  1
  Hf  Hf2  1  0.50000000  0.00000000  0.24270029  1
  Hf  Hf3  1  0.00000000  0.38789881  0.38789881  1
  Hf  Hf4  1  0.00000000  0.00000000  0.61210219  1
  Hf  Hf5  1  0.50000000  0.75729971  0.75729971  1
  Ge  Ge0  1  0.00000000  0.00000000  0.00000000  1
  Pb  Pb0  1  0.50000000  0.66666800  0.33333400  1
  Pb  Pb1  1  0.50000000  0.33333400  0.66666800  1
loop_
_geom_bond_atom_site_label_1
_geom_bond_atom_site_label_2
_geom_bond_distance
_geom_bond_site_symmetry_2
Hf0 Pb1 2.947148 1_554
Hf0 Pb0 2.947163 1_555
Hf1 Pb1 3.046925 1_554
Hf1 Pb1 3.046925 1_454
Hf1 Pb0 3.046932 1_555
Hf1 Pb0 3.046932 1_455
Hf2 Pb0 2.947148 1_545
Hf2 Pb1 2.947163 1_555
Hf3 Pb0 3.046934 1_555
Hf3 Pb0 3.046934 1_455
Hf3 Pb1 3.046934 1_455
Hf3 Pb1 3.046934 1_555
Hf4 Pb0 3.046925 1_445
Hf4 Pb0 3.046925 1_545
Hf4 Pb1 3.046932 1_555
Hf4 Pb1 3.046932 1_455
Hf5 Pb1 2.947153 1_555
Hf5 Pb0 2.947153 1_555
Ge0 Hf0 2.671115 1_455
Ge0 Hf0 2.671115 1_555
Ge0 Hf2 2.671115 1_455
Ge0 Hf2 2.671115 1_555
Ge0 Hf5 2.671115 1_544
Ge0 Hf5 2.671115 1_444
Ge0 Hf1 2.956287 1_545
Ge0 Hf4 2.956287 1_554
Ge0 Hf3 2.956295 1_555
