# generated using pymatgen
data_Zr10InB2Pb5
_symmetry_space_group_name_H-M   'P 1'
_cell_length_a   8.67569602
_cell_length_b   8.65081548
_cell_length_c   5.88243619
_cell_angle_alpha   90.00000000
_cell_angle_beta   90.00000000
_cell_angle_gamma   119.90517391
_symmetry_Int_Tables_number   1
_chemical_formula_structural   Zr10InB2Pb5
_chemical_formula_sum   'Zr10 In1 B2 Pb5'
_cell_volume   382.70436975
_cell_formula_units_Z   1
loop_
 _symmetry_equiv_pos_site_id
 _symmetry_equiv_pos_as_xyz
  1  'x, y, z'
loop_
 _atom_site_type_symbol
 _atom_site_label
 _atom_site_symmetry_multiplicity
 _atom_site_fract_x
 _atom_site_fract_y
 _atom_site_fract_z
 _atom_site_occupancy
  Zr  Zr0  1  0.66789951  0.33345053  0.00151708  1
  Zr  Zr1  1  0.33210049  0.66555302  0.00151708  1
  Zr  Zr2  1  0.33210049  0.66555302  0.49848292  1
  Zr  Zr3  1  0.66789951  0.33345053  0.49848292  1
  Zr  Zr4  1  0.77780764  0.77700495  0.75000000  1
  Zr  Zr5  1  0.22219236  0.99919732  0.75000000  1
  Zr  Zr6  1  0.00000000  0.22246463  0.75000000  1
  Zr  Zr7  1  0.22240548  0.22521940  0.25000000  1
  Zr  Zr8  1  0.77759452  0.00281392  0.25000000  1
  Zr  Zr9  1  1.00000000  0.77622492  0.25000000  1
  In  In0  1  0.00000000  0.39864464  0.25000000  1
  B  B0  1  1.00000000  0.00046743  0.00078293  1
  B  B1  1  1.00000000  0.00046743  0.49921707  1
  Pb  Pb0  1  0.39764592  0.39658403  0.75000000  1
  Pb  Pb1  1  0.60235408  0.99893711  0.75000000  1
  Pb  Pb2  1  0.00000000  0.59939355  0.75000000  1
  Pb  Pb3  1  0.60305920  0.60381589  0.25000000  1
  Pb  Pb4  1  0.39694080  0.00075669  0.25000000  1
loop_
_geom_bond_atom_site_label_1
_geom_bond_atom_site_label_2
_geom_bond_distance
_geom_bond_site_symmetry_2
In0 Zr7 2.976637 1_555
In0 Zr8 2.976637 1_455
In0 Zr3 3.022522 1_455
In0 Zr0 3.022522 1_455
In0 Zr2 3.022528 1_555
In0 Zr1 3.022528 1_555
In0 Zr9 3.266377 1_455
In0 Zr6 3.312650 1_555
In0 Zr6 3.312650 1_554
In0 Pb2 3.415653 1_555
In0 Pb2 3.415653 1_554
B0 Zr6 2.421655 1_654
B0 Zr8 2.431397 1_555
B0 Zr7 2.431397 1_655
B0 Zr9 2.431523 1_545
B0 Zr5 2.431753 1_644
B0 Zr4 2.431753 1_544
B1 Zr6 2.421655 1_655
B1 Zr8 2.431397 1_555
B1 Zr7 2.431397 1_655
B1 Zr9 2.431523 1_545
B1 Zr5 2.431753 1_645
B1 Zr4 2.431753 1_545
Pb0 Zr5 2.986155 1_545
Pb0 Zr6 2.998139 1_555
Pb0 Zr1 3.040680 1_556
Pb0 Zr2 3.040680 1_555
Pb0 Zr0 3.043271 1_556
Pb0 Zr3 3.043271 1_555
Pb0 Zr4 3.299286 1_555
Pb0 Zr7 3.303403 1_555
Pb0 Zr7 3.303403 1_556
Pb1 Zr4 2.986148 1_555
Pb1 Zr6 2.998140 1_665
Pb1 Zr0 3.040672 1_566
Pb1 Zr3 3.040672 1_565
Pb1 Zr1 3.043257 1_556
Pb1 Zr2 3.043257 1_555
Pb1 Zr5 3.299290 1_555
Pb1 Zr8 3.303401 1_565
Pb1 Zr8 3.303401 1_566
Pb2 Zr4 3.005004 1_455
Pb2 Zr5 3.005004 1_555
Pb2 Zr1 3.028801 1_556
Pb2 Zr2 3.028801 1_555
Pb2 Zr0 3.028806 1_456
Pb2 Zr3 3.028806 1_455
Pb2 Zr6 3.260743 1_555
Pb2 Zr9 3.315246 1_456
Pb2 Zr9 3.315246 1_455
Pb3 Zr9 2.993711 1_555
Pb3 Zr8 2.999205 1_565
Pb3 Zr2 3.033100 1_555
Pb3 Zr1 3.033100 1_555
Pb3 Zr3 3.038957 1_555
Pb3 Zr0 3.038957 1_555
Pb3 Zr7 3.293599 1_555
Pb3 Zr4 3.305904 1_554
Pb3 Zr4 3.305904 1_555
Pb4 Zr9 2.993711 1_445
Pb4 Zr7 2.999205 1_555
Pb4 Zr3 3.033090 1_555
Pb4 Zr0 3.033090 1_555
Pb4 Zr2 3.038942 1_545
Pb4 Zr1 3.038942 1_545
Pb4 Zr8 3.293599 1_555
Pb4 Zr5 3.305904 1_545
Pb4 Zr5 3.305904 1_544
