# generated using pymatgen
data_BaMgP3N5O2
_symmetry_space_group_name_H-M   'P 1'
_cell_length_a   6.75683569
_cell_length_b   7.09981050
_cell_length_c   14.20303283
_cell_angle_alpha   60.75286326
_cell_angle_beta   90.00000000
_cell_angle_gamma   90.00000000
_symmetry_Int_Tables_number   1
_chemical_formula_structural   BaMgP3N5O2
_chemical_formula_sum   'Ba4 Mg4 P12 N20 O8'
_cell_volume   594.49308576
_cell_formula_units_Z   4
loop_
 _symmetry_equiv_pos_site_id
 _symmetry_equiv_pos_as_xyz
  1  'x, y, z'
loop_
 _atom_site_type_symbol
 _atom_site_label
 _atom_site_symmetry_multiplicity
 _atom_site_fract_x
 _atom_site_fract_y
 _atom_site_fract_z
 _atom_site_occupancy
  Ba  Ba0  1  0.75076323  0.50343343  0.61470688  1
  Ba  Ba1  1  0.25076323  0.49656657  0.88529312  1
  Ba  Ba2  1  0.24923677  0.49656657  0.38529312  1
  Ba  Ba3  1  0.74923677  0.50343343  0.11470688  1
  Mg  Mg0  1  0.51063235  0.98690751  0.88416838  1
  Mg  Mg1  1  0.01063235  0.01309249  0.61583162  1
  Mg  Mg2  1  0.48936765  0.01309249  0.11583162  1
  Mg  Mg3  1  0.98936765  0.98690751  0.38416838  1
  P  P0  1  0.01464116  0.95557260  0.87500133  1
  P  P1  1  0.51464116  0.04442740  0.62499867  1
  P  P2  1  0.98535884  0.04442740  0.12499867  1
  P  P3  1  0.48535884  0.95557260  0.37500133  1
  P  P4  1  0.28411936  0.74099882  0.58493143  1
  P  P5  1  0.78411936  0.25900118  0.91506857  1
  P  P6  1  0.71588064  0.25900118  0.41506857  1
  P  P7  1  0.21588064  0.74099882  0.08493143  1
  P  P8  1  0.76515758  0.73220779  0.79460811  1
  P  P9  1  0.26515758  0.26779221  0.70539189  1
  P  P10  1  0.23484242  0.26779221  0.20539189  1
  P  P11  1  0.73484242  0.73220779  0.29460811  1
  N  N0  1  0.31343303  0.92068742  0.62316714  1
  N  N1  1  0.81343303  0.07931258  0.87683286  1
  N  N2  1  0.68656697  0.07931258  0.37683286  1
  N  N3  1  0.18656697  0.92068742  0.12316714  1
  N  N4  1  0.70476818  0.88341838  0.66738019  1
  N  N5  1  0.20476818  0.11658162  0.83261981  1
  N  N6  1  0.29523182  0.11658162  0.33261981  1
  N  N7  1  0.79523182  0.88341838  0.16738019  1
  N  N8  1  0.97210671  0.84582724  0.79974512  1
  N  N9  1  0.47210671  0.15417276  0.70025488  1
  N  N10  1  0.02789329  0.15417276  0.20025488  1
  N  N11  1  0.52789329  0.84582724  0.29974512  1
  N  N12  1  0.81067789  0.49491636  0.81113121  1
  N  N13  1  0.31067789  0.50508364  0.68886879  1
  N  N14  1  0.18932211  0.50508364  0.18886879  1
  N  N15  1  0.68932211  0.49491636  0.31113121  1
  N  N16  1  0.56972769  0.24487083  0.50733495  1
  N  N17  1  0.06972769  0.75512917  0.99266505  1
  N  N18  1  0.43027231  0.75512917  0.49266505  1
  N  N19  1  0.93027231  0.24487083  0.00733495  1
  O  O0  1  0.06436079  0.78567311  0.54502864  1
  O  O1  1  0.56436079  0.21432689  0.95497136  1
  O  O2  1  0.93563921  0.21432689  0.45497136  1
  O  O3  1  0.43563921  0.78567311  0.04502864  1
  O  O4  1  0.60552318  0.72227718  0.87500045  1
  O  O5  1  0.10552318  0.27772282  0.62499955  1
  O  O6  1  0.39447682  0.27772282  0.12499955  1
  O  O7  1  0.89447682  0.72227718  0.37500045  1
loop_
_geom_bond_atom_site_label_1
_geom_bond_atom_site_label_2
_geom_bond_distance
_geom_bond_site_symmetry_2
Ba0 O0 2.747155 1_655
Ba0 N12 2.790305 1_555
Ba0 N18 2.803668 1_555
Ba0 O5 2.847164 1_655
Ba0 N9 2.868126 1_555
Ba0 O7 3.127156 1_555
Ba0 N4 3.147491 1_555
Ba0 N16 3.150788 1_555
Ba0 N13 3.156563 1_555
Ba0 N1 3.486065 1_555
Ba1 O1 2.747155 1_555
Ba1 N13 2.790305 1_555
Ba1 N19 2.803668 1_456
Ba1 O4 2.847164 1_555
Ba1 N8 2.868126 1_455
Ba1 O6 3.127156 1_556
Ba1 N5 3.147491 1_555
Ba1 N17 3.150788 1_555
Ba1 N12 3.156563 1_455
Ba1 N0 3.486065 1_555
Ba2 O2 2.747155 1_455
Ba2 N14 2.790305 1_555
Ba2 N16 2.803668 1_555
Ba2 O7 2.847164 1_455
Ba2 N11 2.868126 1_555
Ba2 O5 3.127156 1_555
Ba2 N6 3.147491 1_555
Ba2 N18 3.150788 1_555
Ba2 N15 3.156563 1_555
Ba2 N3 3.486065 1_555
Ba3 O3 2.747155 1_555
Ba3 N15 2.790305 1_555
Ba3 N17 2.803668 1_654
Ba3 O6 2.847164 1_555
Ba3 N10 2.868126 1_655
Ba3 O4 3.127156 1_554
Ba3 N7 3.147491 1_555
Ba3 N19 3.150788 1_555
Ba3 N14 3.156563 1_655
Ba3 N2 3.486065 1_555
Mg0 O4 2.048679 1_555
Mg0 O3 2.080443 1_556
Mg0 N1 2.135530 1_565
Mg0 N5 2.235204 1_565
Mg0 N9 2.295667 1_565
Mg0 O1 2.310133 1_565
Mg1 O5 2.048679 1_555
Mg1 O2 2.080443 1_455
Mg1 N0 2.135530 1_545
Mg1 N4 2.235204 1_445
Mg1 N8 2.295667 1_445
Mg1 O0 2.310133 1_545
Mg2 O6 2.048679 1_555
Mg2 O1 2.080443 1_554
Mg2 N3 2.135530 1_545
Mg2 N7 2.235204 1_545
Mg2 N11 2.295667 1_545
Mg2 O3 2.310133 1_545
Mg3 O7 2.048679 1_555
Mg3 O0 2.080443 1_655
Mg3 N2 2.135530 1_565
Mg3 N6 2.235204 1_665
Mg3 N10 2.295667 1_665
Mg3 O2 2.310133 1_565
N0 P4 1.624404 1_555
N0 P1 1.625776 1_565
N1 P5 1.624404 1_555
N1 P0 1.625776 1_645
N2 P6 1.624404 1_555
N2 P3 1.625776 1_545
N3 P7 1.624404 1_555
N3 P2 1.625776 1_465
N4 P1 1.626976 1_565
N4 P8 1.639735 1_555
N5 P0 1.626976 1_545
N5 P9 1.639735 1_555
N6 P3 1.626976 1_545
N6 P10 1.639735 1_555
N7 P2 1.626976 1_565
N7 P11 1.639735 1_555
N8 P0 1.626648 1_655
N8 P8 1.633666 1_555
N9 P1 1.626648 1_555
N9 P9 1.633666 1_555
N10 P2 1.626648 1_455
N10 P10 1.633666 1_555
N11 P3 1.626648 1_555
N11 P11 1.633666 1_555
N12 P5 1.612697 1_555
N12 P8 1.612958 1_555
N13 P4 1.612697 1_555
N13 P9 1.612958 1_555
N14 P7 1.612697 1_555
N14 P10 1.612958 1_555
N15 P6 1.612697 1_555
N15 P11 1.612958 1_555
N16 P6 1.604409 1_555
N16 P1 1.622556 1_555
N17 P7 1.604409 1_556
N17 P0 1.622556 1_555
N18 P4 1.604409 1_555
N18 P3 1.622556 1_555
N19 P5 1.604409 1_554
N19 P2 1.622556 1_555
O0 P4 1.565565 1_555
O1 P5 1.565565 1_555
O2 P6 1.565565 1_555
O3 P7 1.565565 1_555
O4 P8 1.547086 1_555
O5 P9 1.547086 1_555
O6 P10 1.547086 1_555
O7 P11 1.547086 1_555
