# generated using pymatgen
data_Zr16Ni4Os3Ru
_symmetry_space_group_name_H-M   'P 1'
_cell_length_a   8.68454376
_cell_length_b   8.68454360
_cell_length_c   8.68909386
_cell_angle_alpha   60.01833200
_cell_angle_beta   60.01833095
_cell_angle_gamma   60.00070251
_symmetry_Int_Tables_number   1
_chemical_formula_structural   Zr16Ni4Os3Ru
_chemical_formula_sum   'Zr16 Ni4 Os3 Ru1'
_cell_volume   463.52811831
_cell_formula_units_Z   1
loop_
 _symmetry_equiv_pos_site_id
 _symmetry_equiv_pos_as_xyz
  1  'x, y, z'
loop_
 _atom_site_type_symbol
 _atom_site_label
 _atom_site_symmetry_multiplicity
 _atom_site_fract_x
 _atom_site_fract_y
 _atom_site_fract_z
 _atom_site_occupancy
  Zr  Zr0  1  0.18522498  0.60493733  0.60490354  1
  Zr  Zr1  1  0.60493733  0.18522498  0.60490354  1
  Zr  Zr2  1  0.60493859  0.60493859  0.60489329  1
  Zr  Zr3  1  0.60424670  0.60424670  0.18727265  1
  Zr  Zr4  1  0.45221359  0.45221359  0.04770997  1
  Zr  Zr5  1  0.04801978  0.04801978  0.45233129  1
  Zr  Zr6  1  0.45222984  0.04785169  0.04769429  1
  Zr  Zr7  1  0.04802404  0.45163086  0.45232536  1
  Zr  Zr8  1  0.04785169  0.45222984  0.04769429  1
  Zr  Zr9  1  0.45163086  0.04802404  0.45232536  1
  Zr  Zr10  1  0.81532262  0.81532262  0.18317071  1
  Zr  Zr11  1  0.18504767  0.18504767  0.81485641  1
  Zr  Zr12  1  0.81532160  0.18617421  0.18318455  1
  Zr  Zr13  1  0.18503049  0.81505145  0.81485923  1
  Zr  Zr14  1  0.18617421  0.81532160  0.18318455  1
  Zr  Zr15  1  0.81505145  0.18503049  0.81485923  1
  Ni  Ni0  1  0.82458620  0.39150580  0.39239916  1
  Ni  Ni1  1  0.39150580  0.82458620  0.39239916  1
  Ni  Ni2  1  0.39150326  0.39150326  0.39241971  1
  Ni  Ni3  1  0.39200960  0.39200960  0.82394356  1
  Os  Os0  1  0.50202462  0.83230334  0.83339805  1
  Os  Os1  1  0.83230334  0.50202462  0.83339805  1
  Os  Os2  1  0.83229343  0.83229343  0.83340750  1
  Ru  Ru0  1  0.83251132  0.83251132  0.50247457  1
loop_
_geom_bond_atom_site_label_1
_geom_bond_atom_site_label_2
_geom_bond_distance
_geom_bond_site_symmetry_2
Ni0 Zr7 2.569813 1_655
Ni0 Zr5 2.569823 1_655
Ni0 Zr8 2.578426 1_655
Ni0 Zr3 2.614229 1_555
Ni0 Zr2 2.616919 1_555
Ni0 Zr1 2.616947 1_555
Ni1 Zr9 2.569813 1_565
Ni1 Zr5 2.569824 1_565
Ni1 Zr6 2.578426 1_565
Ni1 Zr3 2.614229 1_555
Ni1 Zr2 2.616919 1_555
Ni1 Zr0 2.616947 1_555
Ni2 Zr9 2.569800 1_555
Ni2 Zr7 2.569800 1_555
Ni2 Zr4 2.578489 1_555
Ni2 Zr3 2.614366 1_555
Ni2 Zr0 2.616861 1_555
Ni2 Zr1 2.616861 1_555
Ni3 Zr8 2.575284 1_556
Ni3 Zr6 2.575284 1_556
Ni3 Zr4 2.575371 1_556
Ni3 Zr1 2.616227 1_555
Ni3 Zr0 2.616227 1_555
Ni3 Zr2 2.616444 1_555
Os0 Os2 2.868232 1_555
Os0 Os1 2.868350 1_555
Os0 Ru0 2.873575 1_555
Os0 Zr14 2.899593 1_556
Os0 Zr11 2.916436 1_565
Os0 Zr13 2.916661 1_555
Os0 Zr1 3.003095 1_565
Os0 Zr2 3.003313 1_555
Os0 Zr6 3.004626 1_566
Os0 Zr4 3.005019 1_556
Os0 Zr3 3.008132 1_556
Os0 Zr9 3.015590 1_565
Os1 Os2 2.868232 1_555
Os1 Ru0 2.873575 1_555
Os1 Zr12 2.899593 1_556
Os1 Zr11 2.916436 1_655
Os1 Zr15 2.916661 1_555
Os1 Zr0 3.003095 1_655
Os1 Zr2 3.003313 1_555
Os1 Zr8 3.004626 1_656
Os1 Zr4 3.005019 1_556
Os1 Zr3 3.008132 1_556
Os1 Zr7 3.015590 1_655
Os2 Ru0 2.873617 1_555
Os2 Zr10 2.899329 1_556
Os2 Zr15 2.916258 1_565
Os2 Zr13 2.916258 1_655
Os2 Zr0 3.003235 1_655
Os2 Zr1 3.003235 1_565
Os2 Zr6 3.004730 1_566
Os2 Zr8 3.004731 1_656
Os2 Zr3 3.008113 1_556
Os2 Zr5 3.015582 1_665
Ru0 Zr14 2.931177 1_655
Ru0 Zr12 2.931177 1_565
Ru0 Zr10 2.931270 1_555
Ru0 Zr1 2.999002 1_565
Ru0 Zr0 2.999002 1_655
Ru0 Zr2 2.999043 1_555
Ru0 Zr5 3.011368 1_665
Ru0 Zr7 3.011461 1_655
Ru0 Zr9 3.011461 1_565
