# generated using pymatgen
data_Hf6Zn20Ni3Ge
_symmetry_space_group_name_H-M   'P 1'
_cell_length_a   8.58118517
_cell_length_b   8.58118552
_cell_length_c   8.54605026
_cell_angle_alpha   59.81392660
_cell_angle_beta   59.81392298
_cell_angle_gamma   59.65877503
_symmetry_Int_Tables_number   1
_chemical_formula_structural   Hf6Zn20Ni3Ge
_chemical_formula_sum   'Hf6 Zn20 Ni3 Ge1'
_cell_volume   442.57982785
_cell_formula_units_Z   1
loop_
 _symmetry_equiv_pos_site_id
 _symmetry_equiv_pos_as_xyz
  1  'x, y, z'
loop_
 _atom_site_type_symbol
 _atom_site_label
 _atom_site_symmetry_multiplicity
 _atom_site_fract_x
 _atom_site_fract_y
 _atom_site_fract_z
 _atom_site_occupancy
  Hf  Hf0  1  0.71101015  0.28363784  0.28918619  1
  Hf  Hf1  1  0.28898985  0.71636216  0.71081381  1
  Hf  Hf2  1  0.28363784  0.71101015  0.28918619  1
  Hf  Hf3  1  0.71636216  0.28898985  0.71081381  1
  Hf  Hf4  1  0.28872905  0.28872905  0.70477347  1
  Hf  Hf5  1  0.71127095  0.71127095  0.29522653  1
  Zn  Zn0  1  0.11958856  0.11958856  0.11825725  1
  Zn  Zn1  1  0.88041144  0.88041144  0.88174275  1
  Zn  Zn2  1  0.12482888  0.12482888  0.63667823  1
  Zn  Zn3  1  0.11584932  0.63886709  0.12935054  1
  Zn  Zn4  1  0.87517112  0.87517112  0.36332177  1
  Zn  Zn5  1  0.88415068  0.36113291  0.87064946  1
  Zn  Zn6  1  0.63886709  0.11584932  0.12935054  1
  Zn  Zn7  1  0.36113291  0.88415068  0.87064946  1
  Zn  Zn8  1  0.50000000  0.00000000  0.00000000  1
  Zn  Zn9  1  0.00000000  0.50000000  0.00000000  1
  Zn  Zn10  1  0.00000000  0.00000000  0.50000000  1
  Zn  Zn11  1  0.50000000  0.50000000  0.00000000  1
  Zn  Zn12  1  0.33147978  0.33147978  0.33919395  1
  Zn  Zn13  1  0.66852022  0.66852022  0.66080605  1
  Zn  Zn14  1  0.33600990  0.33600990  0.99225597  1
  Zn  Zn15  1  0.33779900  0.99572970  0.33839021  1
  Zn  Zn16  1  0.66399010  0.66399010  0.00774403  1
  Zn  Zn17  1  0.66220100  0.00427030  0.66160979  1
  Zn  Zn18  1  0.99572970  0.33779900  0.33839021  1
  Zn  Zn19  1  0.00427030  0.66220100  0.66160979  1
  Ni  Ni0  1  0.00000000  0.50000000  0.50000000  1
  Ni  Ni1  1  0.50000000  0.00000000  0.50000000  1
  Ni  Ni2  1  0.00000000  0.00000000  0.00000000  1
  Ge  Ge0  1  0.50000000  0.50000000  0.50000000  1
loop_
_geom_bond_atom_site_label_1
_geom_bond_atom_site_label_2
_geom_bond_distance
_geom_bond_site_symmetry_2
Hf0 Zn6 2.837414 1_555
Hf0 Zn17 2.837846 1_555
Hf0 Zn0 2.887786 1_655
Hf0 Zn4 2.889214 1_545
Hf0 Zn16 2.889938 1_555
Hf0 Zn12 2.895513 1_555
Hf0 Zn5 2.950512 1_554
Hf0 Zn18 2.956200 1_555
Hf0 Ni1 3.034956 1_555
Hf0 Zn10 3.050395 1_655
Hf0 Zn11 3.053363 1_555
Hf0 Zn9 3.094977 1_655
Hf1 Zn7 2.837414 1_555
Hf1 Zn15 2.837846 1_555
Hf1 Zn1 2.887786 1_455
Hf1 Zn2 2.889214 1_565
Hf1 Zn14 2.889938 1_555
Hf1 Zn13 2.895513 1_555
Hf1 Zn3 2.950512 1_556
Hf1 Zn19 2.956200 1_555
Hf1 Ni1 3.034956 1_565
Hf1 Zn10 3.050395 1_565
Hf1 Zn11 3.053363 1_556
Hf1 Zn9 3.094977 1_556
Hf2 Zn3 2.837414 1_555
Hf2 Zn19 2.837846 1_555
Hf2 Zn0 2.887787 1_565
Hf2 Zn4 2.889214 1_455
Hf2 Zn16 2.889937 1_555
Hf2 Zn12 2.895513 1_555
Hf2 Zn7 2.950512 1_554
Hf2 Zn15 2.956200 1_555
Hf2 Ni0 3.034956 1_555
Hf2 Zn10 3.050394 1_565
Hf2 Zn11 3.053363 1_555
Hf2 Zn8 3.094977 1_565
Hf3 Zn5 2.837414 1_555
Hf3 Zn18 2.837846 1_555
Hf3 Zn1 2.887787 1_545
Hf3 Zn2 2.889214 1_655
Hf3 Zn14 2.889937 1_555
Hf3 Zn13 2.895513 1_555
Hf3 Zn6 2.950512 1_556
Hf3 Zn17 2.956200 1_555
Hf3 Ni0 3.034956 1_655
Hf3 Zn10 3.050394 1_655
Hf3 Zn11 3.053363 1_556
Hf3 Zn8 3.094977 1_556
Hf4 Zn12 2.803742 1_555
Hf4 Zn2 2.817723 1_555
Hf4 Zn17 2.859823 1_555
Hf4 Zn19 2.859824 1_555
Hf4 Zn5 2.864609 1_455
Hf4 Zn7 2.864609 1_545
Hf4 Zn0 2.917703 1_556
Hf4 Zn14 2.921713 1_555
Hf4 Ni1 3.019875 1_555
Hf4 Ni0 3.019875 1_555
Hf4 Zn9 3.092991 1_556
Hf4 Zn8 3.092992 1_556
Hf5 Zn13 2.803742 1_555
Hf5 Zn4 2.817723 1_555
Hf5 Zn15 2.859823 1_555
Hf5 Zn18 2.859824 1_555
Hf5 Zn3 2.864609 1_655
Hf5 Zn6 2.864609 1_565
Hf5 Zn1 2.917703 1_554
Hf5 Zn16 2.921713 1_555
Hf5 Ni1 3.019875 1_565
Hf5 Ni0 3.019875 1_655
Hf5 Zn9 3.092991 1_655
Hf5 Zn8 3.092992 1_565
Zn0 Zn8 2.659239 1_555
Zn0 Zn9 2.659239 1_555
Zn0 Zn10 2.660816 1_555
Zn0 Zn14 2.742260 1_554
Zn0 Zn18 2.774190 1_455
Zn0 Zn15 2.774190 1_545
Zn0 Zn7 2.917788 1_544
Zn0 Zn5 2.917788 1_454
Zn0 Zn4 2.965474 1_445
Zn1 Zn8 2.659239 1_566
Zn1 Zn9 2.659239 1_656
Zn1 Zn10 2.660816 1_665
Zn1 Zn16 2.742260 1_556
Zn1 Zn19 2.774190 1_655
Zn1 Zn17 2.774190 1_565
Zn1 Zn6 2.917788 1_566
Zn1 Zn3 2.917788 1_656
Zn1 Zn2 2.965474 1_665
Zn2 Zn5 2.840579 1_455
Zn2 Zn7 2.840579 1_545
Zn3 Zn9 2.693870 1_555
Zn3 Zn4 2.840579 1_455
Zn3 Zn7 2.977437 1_554
Zn4 Zn6 2.840579 1_565
Zn5 Zn9 2.693870 1_656
Zn5 Zn6 2.977437 1_556
Zn6 Zn8 2.693870 1_555
Zn7 Zn8 2.693870 1_566
Zn10 Zn15 2.495795 1_545
Zn10 Zn17 2.495795 1_455
Zn10 Zn18 2.495795 1_455
Zn10 Zn19 2.495795 1_545
Zn10 Zn2 2.708306 1_555
Zn10 Zn4 2.708306 1_445
Zn11 Zn16 2.480517 1_555
Zn11 Zn14 2.480517 1_554
Zn11 Zn13 2.503415 1_554
Zn11 Zn12 2.503415 1_555
Zn11 Zn5 2.683322 1_554
Zn11 Zn3 2.683322 1_555
Zn11 Zn7 2.683322 1_554
Zn11 Zn6 2.683322 1_555
Zn12 Zn2 2.619606 1_555
Zn12 Zn6 2.691946 1_555
Zn12 Zn3 2.691946 1_555
Zn12 Zn18 2.857552 1_455
Zn12 Zn15 2.857552 1_545
Zn12 Zn14 2.926373 1_554
Zn13 Zn4 2.619606 1_555
Zn13 Zn7 2.691946 1_555
Zn13 Zn5 2.691946 1_555
Zn13 Zn19 2.857552 1_655
Zn13 Zn17 2.857552 1_565
Zn13 Zn16 2.926373 1_556
Zn14 Zn9 2.469996 1_556
Zn14 Zn8 2.469996 1_556
Zn14 Zn3 2.751671 1_556
Zn14 Zn6 2.751671 1_556
Zn14 Zn18 2.931064 1_456
Zn14 Zn15 2.931065 1_546
Zn15 Zn8 2.489763 1_565
Zn15 Zn6 2.669432 1_565
Zn15 Zn2 2.678634 1_565
Zn15 Zn18 2.920208 1_465
Zn16 Zn9 2.469996 1_655
Zn16 Zn8 2.469996 1_565
Zn16 Zn5 2.751671 1_554
Zn16 Zn7 2.751671 1_554
Zn16 Zn19 2.931064 1_654
Zn16 Zn17 2.931065 1_564
Zn17 Zn8 2.489763 1_556
Zn17 Zn7 2.669432 1_545
Zn17 Zn4 2.678634 1_545
Zn17 Zn19 2.920208 1_645
Zn18 Zn9 2.489763 1_655
Zn18 Zn3 2.669433 1_655
Zn18 Zn2 2.678634 1_655
Zn19 Zn9 2.489763 1_556
Zn19 Zn5 2.669433 1_455
Zn19 Zn4 2.678634 1_455
Ni0 Zn19 2.425233 1_555
Ni0 Zn18 2.425233 1_455
Ni0 Zn12 2.445934 1_555
Ni0 Zn13 2.445934 1_455
Ni0 Zn5 2.583841 1_455
Ni0 Zn3 2.583841 1_555
Ni0 Zn4 2.620870 1_455
Ni0 Zn2 2.620870 1_555
Ni1 Zn17 2.425233 1_555
Ni1 Zn15 2.425233 1_545
Ni1 Zn12 2.445934 1_555
Ni1 Zn13 2.445934 1_545
Ni1 Zn7 2.583841 1_545
Ni1 Zn6 2.583841 1_555
Ni1 Zn4 2.620870 1_545
Ni1 Zn2 2.620870 1_555
Ni2 Zn0 2.505485 1_555
Ni2 Zn1 2.505485 1_444
Ni2 Zn7 2.522194 1_544
Ni2 Zn6 2.522194 1_455
Ni2 Zn5 2.522195 1_454
Ni2 Zn3 2.522195 1_545
Ni2 Zn4 2.530923 1_445
Ni2 Zn2 2.530923 1_554
Ge0 Hf5 2.564325 1_555
Ge0 Hf4 2.564325 1_555
Ge0 Hf1 2.580389 1_555
Ge0 Hf0 2.580389 1_555
Ge0 Hf3 2.580389 1_555
Ge0 Hf2 2.580389 1_555
