# generated using pymatgen
data_Ba3Sr2(SiN3)2
_symmetry_space_group_name_H-M   'P 1'
_cell_length_a   6.21811191
_cell_length_b   6.21811228
_cell_length_c   13.62508021
_cell_angle_alpha   81.22782533
_cell_angle_beta   81.22782482
_cell_angle_gamma   67.76784396
_symmetry_Int_Tables_number   1
_chemical_formula_structural   Ba3Sr2(SiN3)2
_chemical_formula_sum   'Ba6 Sr4 Si4 N12'
_cell_volume   479.34945182
_cell_formula_units_Z   2
loop_
 _symmetry_equiv_pos_site_id
 _symmetry_equiv_pos_as_xyz
  1  'x, y, z'
loop_
 _atom_site_type_symbol
 _atom_site_label
 _atom_site_symmetry_multiplicity
 _atom_site_fract_x
 _atom_site_fract_y
 _atom_site_fract_z
 _atom_site_occupancy
  Ba  Ba0  1  0.60201018  0.39798982  0.75000000  1
  Ba  Ba1  1  0.39798982  0.60201018  0.25000000  1
  Ba  Ba2  1  0.20759176  0.67578085  0.99147931  1
  Ba  Ba3  1  0.32421915  0.79240824  0.50852069  1
  Ba  Ba4  1  0.79240824  0.32421915  0.00852069  1
  Ba  Ba5  1  0.67578085  0.20759176  0.49147931  1
  Sr  Sr0  1  0.90566603  0.78502815  0.71267622  1
  Sr  Sr1  1  0.21497185  0.09433397  0.78732378  1
  Sr  Sr2  1  0.09433397  0.21497185  0.28732378  1
  Sr  Sr3  1  0.78502815  0.90566603  0.21267622  1
  Si  Si0  1  0.07788130  0.36881797  0.57609655  1
  Si  Si1  1  0.63118203  0.92211870  0.92390345  1
  Si  Si2  1  0.92211870  0.63118203  0.42390345  1
  Si  Si3  1  0.36881797  0.07788130  0.07609655  1
  N  N0  1  0.01467723  0.12255007  0.62601167  1
  N  N1  1  0.87744993  0.98532277  0.87398833  1
  N  N2  1  0.98532277  0.87744993  0.37398833  1
  N  N3  1  0.12255007  0.01467723  0.12601167  1
  N  N4  1  0.81142915  0.62254025  0.55452287  1
  N  N5  1  0.37745975  0.18857085  0.94547713  1
  N  N6  1  0.18857085  0.37745975  0.44547713  1
  N  N7  1  0.62254025  0.81142915  0.05452287  1
  N  N8  1  0.25187143  0.42621919  0.65109359  1
  N  N9  1  0.57378081  0.74812857  0.84890641  1
  N  N10  1  0.74812857  0.57378081  0.34890641  1
  N  N11  1  0.42621919  0.25187143  0.15109359  1
loop_
_geom_bond_atom_site_label_1
_geom_bond_atom_site_label_2
_geom_bond_distance
_geom_bond_site_symmetry_2
Ba0 N8 2.668451 1_555
Ba0 N9 2.668451 1_555
Ba0 N0 2.933660 1_655
Ba0 N1 2.933660 1_545
Ba0 N5 3.150031 1_555
Ba0 N4 3.150031 1_555
Ba1 N10 2.668451 1_555
Ba1 N11 2.668451 1_555
Ba1 N2 2.933660 1_455
Ba1 N3 2.933660 1_565
Ba1 N7 3.150031 1_555
Ba1 N6 3.150031 1_555
Ba2 N1 2.748477 1_455
Ba2 N3 2.849482 1_566
Ba2 N9 2.884468 1_555
Ba2 N5 2.939785 1_555
Ba2 N11 3.157116 1_556
Ba2 N7 3.263521 1_556
Ba2 N7 3.410218 1_456
Ba3 N0 2.748477 1_565
Ba3 N2 2.849482 1_455
Ba3 N8 2.884468 1_555
Ba3 N4 2.939785 1_555
Ba3 N10 3.157116 1_555
Ba3 N6 3.263521 1_555
Ba3 N6 3.410219 1_565
Ba4 N3 2.748477 1_655
Ba4 N1 2.849482 1_544
Ba4 N11 2.884468 1_555
Ba4 N7 2.939785 1_555
Ba4 N9 3.157116 1_554
Ba4 N5 3.263521 1_554
Ba4 N5 3.410218 1_654
Ba5 N2 2.748477 1_545
Ba5 N0 2.849482 1_655
Ba5 N10 2.884468 1_555
Ba5 N6 2.939785 1_555
Ba5 N8 3.157116 1_555
Ba5 N4 3.263521 1_555
Ba5 N4 3.410219 1_545
N0 Si0 1.737288 1_555
N0 Sr0 2.516951 1_445
N0 Sr1 2.639056 1_555
N1 Si1 1.737288 1_555
N1 Sr1 2.516951 1_665
N1 Sr0 2.639056 1_555
N2 Si2 1.737288 1_555
N2 Sr2 2.516951 1_665
N2 Sr3 2.639056 1_555
N3 Si3 1.737288 1_555
N3 Sr3 2.516951 1_445
N3 Sr2 2.639056 1_555
N4 Si2 1.808079 1_555
N4 Si0 1.830196 1_655
N4 Sr0 2.739493 1_555
N5 Si3 1.808079 1_556
N5 Si1 1.830196 1_545
N5 Sr1 2.739493 1_555
N6 Si0 1.808079 1_555
N6 Si2 1.830196 1_455
N6 Sr2 2.739493 1_555
N7 Si1 1.808079 1_554
N7 Si3 1.830196 1_565
N7 Sr3 2.739493 1_555
N8 Si0 1.755761 1_555
N8 Sr0 2.588769 1_455
N8 Sr1 2.610908 1_555
N9 Si1 1.755761 1_555
N9 Sr1 2.588769 1_565
N9 Sr0 2.610908 1_555
N10 Si2 1.755761 1_555
N10 Sr2 2.588769 1_655
N10 Sr3 2.610908 1_555
N11 Si3 1.755761 1_555
N11 Sr3 2.588769 1_545
N11 Sr2 2.610908 1_555
