# generated using pymatgen
data_Ca3La5Mn7NiO24
_symmetry_space_group_name_H-M   'P 1'
_cell_length_a   5.49531600
_cell_length_b   7.78429903
_cell_length_c   11.05875309
_cell_angle_alpha   90.01445318
_cell_angle_beta   90.08697924
_cell_angle_gamma   90.00466651
_symmetry_Int_Tables_number   1
_chemical_formula_structural   Ca3La5Mn7NiO24
_chemical_formula_sum   'Ca3 La5 Mn7 Ni1 O24'
_cell_volume   473.06174300
_cell_formula_units_Z   1
loop_
 _symmetry_equiv_pos_site_id
 _symmetry_equiv_pos_as_xyz
  1  'x, y, z'
loop_
 _atom_site_type_symbol
 _atom_site_label
 _atom_site_symmetry_multiplicity
 _atom_site_fract_x
 _atom_site_fract_y
 _atom_site_fract_z
 _atom_site_occupancy
  Ca  Ca0  1  0.48696400  0.75165500  0.27017100  1
  Ca  Ca1  1  0.98911500  0.25097000  0.48258500  1
  Ca  Ca2  1  0.51587600  0.24875600  0.72762600  1
  La  La0  1  0.00733100  0.75388700  0.01887100  1
  La  La1  1  0.50520200  0.24768700  0.23786000  1
  La  La2  1  0.00304400  0.74920000  0.51081800  1
  La  La3  1  0.49360200  0.75183500  0.76524500  1
  La  La4  1  0.99540800  0.24611200  0.98339800  1
  Mn  Mn0  1  0.99949500  0.50279200  0.25243700  1
  Mn  Mn1  1  0.49877400  0.49536100  0.50017600  1
  Mn  Mn2  1  0.00043700  0.49331200  0.74735900  1
  Mn  Mn3  1  0.00155700  0.99899800  0.25231500  1
  Mn  Mn4  1  0.49979300  0.00366200  0.50042300  1
  Mn  Mn5  1  0.99852200  0.00478500  0.74762800  1
  Mn  Mn6  1  0.50119100  0.50027400  0.00051400  1
  Ni  Ni0  1  0.50029500  0.00063500  0.99994700  1
  O  O0  1  0.43173700  0.25838200  0.01423400  1
  O  O1  1  0.78956300  0.03632300  0.11361100  1
  O  O2  1  0.78486500  0.46296400  0.10923500  1
  O  O3  1  0.28040700  0.54418800  0.14153500  1
  O  O4  1  0.27320200  0.96074900  0.14557300  1
  O  O5  1  0.91966500  0.75184900  0.24867300  1
  O  O6  1  0.06652100  0.24941100  0.25630300  1
  O  O7  1  0.72047600  0.03803400  0.36165500  1
  O  O8  1  0.71804400  0.46313100  0.36162100  1
  O  O9  1  0.21887100  0.53771800  0.38852900  1
  O  O10  1  0.22138500  0.96111400  0.39036700  1
  O  O11  1  0.56460700  0.75153300  0.49809600  1
  O  O12  1  0.42031600  0.24788800  0.50341800  1
  O  O13  1  0.78366800  0.46008700  0.60858500  1
  O  O14  1  0.78583700  0.04044300  0.60620800  1
  O  O15  1  0.27841800  0.54014300  0.63928700  1
  O  O16  1  0.27943400  0.95924200  0.63893400  1
  O  O17  1  0.93193400  0.75045500  0.74092300  1
  O  O18  1  0.08605500  0.24820100  0.75884900  1
  O  O19  1  0.72565800  0.03980100  0.85334500  1
  O  O20  1  0.72227000  0.45545400  0.85740100  1
  O  O21  1  0.21870000  0.53918900  0.89152300  1
  O  O22  1  0.20990600  0.96140600  0.88690600  1
  O  O23  1  0.57185500  0.74237000  0.98781700  1
loop_
_geom_bond_atom_site_label_1
_geom_bond_atom_site_label_2
_geom_bond_distance
_geom_bond_site_symmetry_2
Ca0 O5 2.390044 1_555
Ca0 O3 2.431855 1_555
Ca0 O4 2.433983 1_555
Ca0 O11 2.555786 1_555
Ca0 O10 2.561342 1_555
Ca0 O9 2.581400 1_555
Ca0 O7 2.763014 1_565
Ca0 O8 2.770803 1_555
Ca1 O12 2.380535 1_655
Ca1 O14 2.409983 1_555
Ca1 O13 2.422801 1_555
Ca1 O6 2.538955 1_655
Ca1 O7 2.589939 1_555
Ca1 O8 2.594502 1_555
Ca1 O9 2.768234 1_655
Ca1 O10 2.786302 1_645
Ca2 O18 2.387629 1_555
Ca2 O19 2.429859 1_555
Ca2 O20 2.434859 1_555
Ca2 O12 2.533688 1_555
Ca2 O13 2.571275 1_555
Ca2 O14 2.576547 1_555
Ca2 O16 2.779171 1_545
Ca2 O15 2.792814 1_555
La0 O23 2.418729 1_454
La0 O22 2.446286 1_554
La0 O21 2.475835 1_554
La0 O4 2.585183 1_555
La0 O5 2.587354 1_455
La0 O3 2.598456 1_555
La0 O1 2.714140 1_465
La0 O2 2.761547 1_455
La1 O6 2.419650 1_555
La1 O7 2.435909 1_555
La1 O8 2.459164 1_555
La1 O0 2.506560 1_555
La1 O1 2.653817 1_555
La1 O2 2.683438 1_555
La1 O4 2.765943 1_545
La1 O3 2.825872 1_555
La1 O12 2.974257 1_555
La1 O6 3.091080 1_655
La1 O10 3.203531 1_545
La1 O9 3.218057 1_555
La2 O11 2.413311 1_455
La2 O10 2.437375 1_555
La2 O9 2.439209 1_555
La2 O17 2.575106 1_455
La2 O15 2.636614 1_555
La2 O16 2.641866 1_555
La2 O14 2.771360 1_465
La2 O13 2.773439 1_455
La2 O5 2.934374 1_455
La2 O11 3.089437 1_555
La2 O8 3.181781 1_455
La2 O7 3.190934 1_465
La3 O17 2.424174 1_555
La3 O16 2.437096 1_555
La3 O15 2.459188 1_555
La3 O23 2.499114 1_555
La3 O22 2.628241 1_555
La3 O21 2.641868 1_555
La3 O19 2.755884 1_565
La3 O20 2.817489 1_555
La3 O11 2.980579 1_555
La3 O17 3.097851 1_455
La3 O13 3.272149 1_555
La3 O14 3.275582 1_565
La4 O0 2.423253 1_656
La4 O1 2.454766 1_556
La4 O2 2.475622 1_556
La4 O18 2.533499 1_655
La4 O19 2.614775 1_555
La4 O20 2.616323 1_555
La4 O22 2.728156 1_645
La4 O21 2.783390 1_655
Mn0 O9 1.945899 1_655
Mn0 O8 1.987755 1_555
Mn0 O5 1.988214 1_555
Mn0 O2 1.997290 1_555
Mn0 O3 1.999216 1_655
Mn0 O6 2.006974 1_655
Mn1 O8 1.966750 1_555
Mn1 O12 1.974375 1_555
Mn1 O13 1.989540 1_555
Mn1 O15 1.989968 1_555
Mn1 O9 1.998396 1_555
Mn1 O11 2.026784 1_555
Mn2 O13 1.958389 1_455
Mn2 O18 1.969297 1_555
Mn2 O15 1.974961 1_555
Mn2 O20 1.977417 1_455
Mn2 O21 2.025265 1_555
Mn2 O17 2.038040 1_455
Mn3 O4 1.927614 1_555
Mn3 O1 1.946604 1_465
Mn3 O10 1.967673 1_555
Mn3 O5 1.976165 1_455
Mn3 O6 1.982150 1_565
Mn3 O7 1.986417 1_465
Mn4 O12 1.950970 1_555
Mn4 O7 1.975624 1_555
Mn4 O14 1.978782 1_555
Mn4 O10 1.981354 1_545
Mn4 O16 1.984455 1_545
Mn4 O11 1.994899 1_545
Mn5 O19 1.922170 1_555
Mn5 O22 1.957199 1_645
Mn5 O18 1.958746 1_655
Mn5 O14 1.970703 1_555
Mn5 O16 1.989737 1_645
Mn5 O17 2.014610 1_545
Mn6 O0 1.927287 1_555
Mn6 O23 1.929303 1_554
Mn6 O21 1.987204 1_554
Mn6 O2 1.988613 1_555
Mn6 O3 2.006622 1_555
Mn6 O20 2.026849 1_554
Ni0 O1 2.043956 1_556
Ni0 O0 2.047585 1_556
Ni0 O22 2.048454 1_545
Ni0 O23 2.052936 1_545
Ni0 O4 2.062423 1_546
Ni0 O19 2.064310 1_555
