# generated using pymatgen
data_NaNdF4
_symmetry_space_group_name_H-M   'P 1'
_cell_length_a   6.21723349
_cell_length_b   6.21723349
_cell_length_c   7.43022400
_cell_angle_alpha   90.00000000
_cell_angle_beta   90.00000000
_cell_angle_gamma   119.99999461
_symmetry_Int_Tables_number   1
_chemical_formula_structural   NaNdF4
_chemical_formula_sum   'Na3 Nd3 F12'
_cell_volume   248.72928297
_cell_formula_units_Z   3
loop_
 _symmetry_equiv_pos_site_id
 _symmetry_equiv_pos_as_xyz
  1  'x, y, z'
loop_
 _atom_site_type_symbol
 _atom_site_label
 _atom_site_symmetry_multiplicity
 _atom_site_fract_x
 _atom_site_fract_y
 _atom_site_fract_z
 _atom_site_occupancy
  Na  Na0  1  0.00000000  0.00000000  0.29370900  1
  Na  Na1  1  0.00000000  0.00000000  0.70629100  1
  Na  Na2  1  0.33333300  0.66666700  0.50000000  1
  Nd  Nd0  1  0.66666700  0.33333300  0.74620600  1
  Nd  Nd1  1  0.66666700  0.33333300  0.25379400  1
  Nd  Nd2  1  0.33333300  0.66666700  0.00000000  1
  F  F0  1  0.91351100  0.31247200  0.00000000  1
  F  F1  1  0.89624100  0.27934300  0.50000000  1
  F  F2  1  0.68752800  0.60103900  0.00000000  1
  F  F3  1  0.72065700  0.61689800  0.50000000  1
  F  F4  1  0.07447200  0.68282900  0.76228000  1
  F  F5  1  0.07447200  0.68282900  0.23772000  1
  F  F6  1  0.39896100  0.08648900  0.00000000  1
  F  F7  1  0.38310200  0.10375900  0.50000000  1
  F  F8  1  0.31717100  0.39164300  0.76228000  1
  F  F9  1  0.31717100  0.39164300  0.23772000  1
  F  F10  1  0.60835700  0.92552800  0.76228000  1
  F  F11  1  0.60835700  0.92552800  0.23772000  1
loop_
_geom_bond_atom_site_label_1
_geom_bond_atom_site_label_2
_geom_bond_distance
_geom_bond_site_symmetry_2
F0 Nd2 2.431930 1_655
F0 Nd0 2.475312 1_554
F0 Nd1 2.475312 1_555
F1 Nd1 2.444501 1_555
F1 Nd0 2.444501 1_555
F1 Na2 2.576765 1_655
F1 Na1 2.627207 1_655
F1 Na0 2.627207 1_655
F2 Nd2 2.431934 1_555
F2 Nd0 2.475316 1_554
F2 Nd1 2.475316 1_555
F3 Nd1 2.444505 1_555
F3 Nd0 2.444505 1_555
F3 Na2 2.576768 1_555
F3 Na1 2.627207 1_665
F3 Na0 2.627207 1_665
F4 Na1 2.277928 1_565
F4 Nd0 2.378002 1_455
F4 Nd2 2.425251 1_556
F4 Na2 2.561210 1_555
F5 Na0 2.277928 1_565
F5 Nd1 2.378002 1_455
F5 Nd2 2.425251 1_555
F5 Na2 2.561210 1_555
F6 Nd2 2.431928 1_545
F6 Nd0 2.475314 1_554
F6 Nd1 2.475314 1_555
F7 Nd1 2.444504 1_555
F7 Nd0 2.444504 1_555
F7 Na2 2.576762 1_545
F7 Na1 2.627207 1_555
F7 Na0 2.627207 1_555
F8 Na1 2.277928 1_555
F8 Nd0 2.378006 1_555
F8 Nd2 2.425255 1_556
F8 Na2 2.561214 1_555
F9 Na0 2.277928 1_555
F9 Nd1 2.378006 1_555
F9 Nd2 2.425255 1_555
F9 Na2 2.561214 1_555
F10 Na1 2.277928 1_665
F10 Nd0 2.378000 1_565
F10 Nd2 2.425253 1_556
F10 Na2 2.561213 1_555
F11 Na0 2.277928 1_665
F11 Nd1 2.378000 1_565
F11 Nd2 2.425253 1_555
F11 Na2 2.561213 1_555
