# generated using pymatgen
data_Ca10NbCrN10
_symmetry_space_group_name_H-M   'P 1'
_cell_length_a   6.87133675
_cell_length_b   6.87133521
_cell_length_c   8.80823932
_cell_angle_alpha   80.87418649
_cell_angle_beta   80.87419729
_cell_angle_gamma   59.59909450
_symmetry_Int_Tables_number   1
_chemical_formula_structural   Ca10NbCrN10
_chemical_formula_sum   'Ca10 Nb1 Cr1 N10'
_cell_volume   352.65957316
_cell_formula_units_Z   1
loop_
 _symmetry_equiv_pos_site_id
 _symmetry_equiv_pos_as_xyz
  1  'x, y, z'
loop_
 _atom_site_type_symbol
 _atom_site_label
 _atom_site_symmetry_multiplicity
 _atom_site_fract_x
 _atom_site_fract_y
 _atom_site_fract_z
 _atom_site_occupancy
  Ca  Ca0  1  0.87737778  0.35329271  0.83639224  1
  Ca  Ca1  1  0.87593179  0.87593179  0.82073733  1
  Ca  Ca2  1  0.73842827  0.73842827  0.52484261  1
  Ca  Ca3  1  0.75064810  0.25383580  0.50155712  1
  Ca  Ca4  1  0.62985343  0.12955452  0.15073120  1
  Ca  Ca5  1  0.35329271  0.87737778  0.83639224  1
  Ca  Ca6  1  0.25383580  0.75064810  0.50155712  1
  Ca  Ca7  1  0.23937847  0.23937847  0.49337832  1
  Ca  Ca8  1  0.13774364  0.13774364  0.16365522  1
  Ca  Ca9  1  0.12955452  0.62985343  0.15073120  1
  Nb  Nb0  1  0.36942584  0.36942584  0.77408779  1
  Cr  Cr0  1  0.63384477  0.63384477  0.22985432  1
  N  N0  1  0.89757169  0.47695166  0.31928748  1
  N  N1  1  0.99617232  0.99617232  0.01489270  1
  N  N2  1  0.68163815  0.68163815  0.03465778  1
  N  N3  1  0.53726824  0.53726824  0.69566726  1
  N  N4  1  0.47695166  0.89757169  0.31928748  1
  N  N5  1  0.53930125  0.08305473  0.67330333  1
  N  N6  1  0.48301797  0.48301797  0.28989652  1
  N  N7  1  0.31591901  0.31591901  0.99644762  1
  N  N8  1  0.06207887  0.06207887  0.64514482  1
  N  N9  1  0.08305473  0.53930125  0.67330333  1
loop_
_geom_bond_atom_site_label_1
_geom_bond_atom_site_label_2
_geom_bond_distance
_geom_bond_site_symmetry_2
Ca0 N3 2.455180 1_555
Ca0 N8 2.504662 1_655
Ca0 N9 2.509254 1_655
Ca0 N1 2.513152 1_546
Ca0 N2 2.717102 1_556
Ca1 N1 2.424296 1_556
Ca1 N8 2.462726 1_665
Ca1 N9 2.469240 1_655
Ca1 N5 2.469240 1_565
Ca1 N2 2.706143 1_556
Ca2 N4 2.473349 1_555
Ca2 N0 2.473349 1_555
Ca2 N5 2.514998 1_565
Ca2 N9 2.514998 1_655
Ca2 N3 2.588324 1_555
Ca3 N8 2.321909 1_655
Ca3 N0 2.493744 1_555
Ca3 N3 2.497410 1_555
Ca3 N5 2.497878 1_555
Ca3 N6 2.561802 1_555
Ca4 N1 2.380139 1_545
Ca4 N7 2.392074 1_554
Ca4 N4 2.509695 1_545
Ca4 N6 2.547822 1_555
Ca5 N3 2.455180 1_555
Ca5 N8 2.504662 1_565
Ca5 N5 2.509254 1_565
Ca5 N1 2.513152 1_456
Ca5 N2 2.717102 1_556
Ca6 N8 2.321909 1_565
Ca6 N4 2.493745 1_555
Ca6 N3 2.497410 1_555
Ca6 N9 2.497878 1_555
Ca6 N6 2.561803 1_555
Ca7 N8 2.285701 1_555
Ca7 N5 2.483591 1_555
Ca7 N9 2.483591 1_555
Ca7 N0 2.645842 1_455
Ca7 N4 2.645842 1_545
Ca8 N1 2.318625 1_445
Ca8 N7 2.353740 1_554
Ca8 N4 2.537370 1_545
Ca8 N0 2.537370 1_455
Ca9 N1 2.380138 1_455
Ca9 N7 2.392074 1_554
Ca9 N0 2.509695 1_455
Ca9 N6 2.547822 1_555
Cr0 N2 1.709609 1_555
Cr0 N6 1.779670 1_555
Cr0 N4 1.809106 1_555
Cr0 N0 1.809106 1_555
N3 Nb0 1.994526 1_555
N5 Nb0 1.980750 1_555
N7 Nb0 1.945875 1_555
N9 Nb0 1.980750 1_555
