# generated using pymatgen
data_ScZnIO6
_symmetry_space_group_name_H-M   'P 1'
_cell_length_a   5.09227384
_cell_length_b   5.09227515
_cell_length_c   4.56373997
_cell_angle_alpha   90.00000000
_cell_angle_beta   90.00000000
_cell_angle_gamma   120.00000399
_symmetry_Int_Tables_number   1
_chemical_formula_structural   ScZnIO6
_chemical_formula_sum   'Sc1 Zn1 I1 O6'
_cell_volume   102.48849526
_cell_formula_units_Z   1
loop_
 _symmetry_equiv_pos_site_id
 _symmetry_equiv_pos_as_xyz
  1  'x, y, z'
loop_
 _atom_site_type_symbol
 _atom_site_label
 _atom_site_symmetry_multiplicity
 _atom_site_fract_x
 _atom_site_fract_y
 _atom_site_fract_z
 _atom_site_occupancy
  Sc  Sc0  1  0.66666700  0.33333300  0.00000000  1
  Zn  Zn0  1  0.00000000  0.00000000  0.50000100  1
  I  I0  1  0.33333300  0.66666600  0.50000100  1
  O  O0  1  0.33491619  0.36262957  0.26849220  1
  O  O1  1  0.02771437  0.66508281  0.26849220  1
  O  O2  1  0.63736843  0.97228563  0.26849220  1
  O  O3  1  0.02771337  0.36262957  0.73150680  1
  O  O4  1  0.63736943  0.66508281  0.73150680  1
  O  O5  1  0.33491619  0.97228563  0.73150680  1
loop_
_geom_bond_atom_site_label_1
_geom_bond_atom_site_label_2
_geom_bond_distance
_geom_bond_site_symmetry_2
I0 O4 1.877723 1_555
I0 O3 1.877723 1_555
I0 O5 1.877724 1_555
I0 O1 1.877727 1_555
I0 O2 1.877729 1_555
I0 O0 1.877731 1_555
O0 Zn0 2.070162 1_555
O0 Sc0 2.151668 1_555
O1 Zn0 2.070169 1_565
O1 Sc0 2.151666 1_455
O2 Zn0 2.070168 1_665
O2 Sc0 2.151664 1_565
O3 Zn0 2.070155 1_555
O3 Sc0 2.151666 1_456
O4 Zn0 2.070159 1_665
O4 Sc0 2.151669 1_556
O5 Zn0 2.070157 1_565
O5 Sc0 2.151670 1_566
