# generated using pymatgen
data_Hf10Sn6B
_symmetry_space_group_name_H-M   'P 1'
_cell_length_a   8.39130541
_cell_length_b   8.39130502
_cell_length_c   5.75381679
_cell_angle_alpha   90.00000000
_cell_angle_beta   90.00000000
_cell_angle_gamma   120.00000153
_symmetry_Int_Tables_number   1
_chemical_formula_structural   Hf10Sn6B
_chemical_formula_sum   'Hf10 Sn6 B1'
_cell_volume   350.86955832
_cell_formula_units_Z   1
loop_
 _symmetry_equiv_pos_site_id
 _symmetry_equiv_pos_as_xyz
  1  'x, y, z'
loop_
 _atom_site_type_symbol
 _atom_site_label
 _atom_site_symmetry_multiplicity
 _atom_site_fract_x
 _atom_site_fract_y
 _atom_site_fract_z
 _atom_site_occupancy
  Hf  Hf0  1  0.66666700  0.33333300  0.50000000  1
  Hf  Hf1  1  0.33333300  0.66666700  0.50000000  1
  Hf  Hf2  1  0.33333300  0.66666700  0.00000000  1
  Hf  Hf3  1  0.66666700  0.33333300  0.00000000  1
  Hf  Hf4  1  0.76561270  0.76561270  0.25956921  1
  Hf  Hf5  1  0.23438730  0.00000000  0.25956921  1
  Hf  Hf6  1  1.00000000  0.23438730  0.25956921  1
  Hf  Hf7  1  0.23438730  0.23438730  0.74043079  1
  Hf  Hf8  1  0.76561270  0.00000000  0.74043079  1
  Hf  Hf9  1  0.00000000  0.76561270  0.74043079  1
  Sn  Sn0  1  0.39805625  0.39805625  0.24872753  1
  Sn  Sn1  1  0.60194375  0.00000000  0.24872753  1
  Sn  Sn2  1  0.00000000  0.60194375  0.24872753  1
  Sn  Sn3  1  0.60194375  0.60194375  0.75127247  1
  Sn  Sn4  1  0.39805625  0.00000000  0.75127247  1
  Sn  Sn5  1  0.00000000  0.39805625  0.75127247  1
  B  B0  1  0.00000000  0.00000000  0.50000000  1
loop_
_geom_bond_atom_site_label_1
_geom_bond_atom_site_label_2
_geom_bond_distance
_geom_bond_site_symmetry_2
Hf0 Sn1 2.947857 1_555
Hf0 Sn5 2.947857 1_655
Hf0 Sn4 2.947859 1_555
Hf0 Sn2 2.947860 1_655
Hf0 Sn3 2.947864 1_555
Hf0 Sn0 2.947864 1_555
Hf1 Sn4 2.947857 1_565
Hf1 Sn2 2.947857 1_555
Hf1 Sn1 2.947859 1_565
Hf1 Sn5 2.947860 1_555
Hf1 Sn0 2.947864 1_555
Hf1 Sn3 2.947864 1_555
Hf2 Sn4 2.940703 1_564
Hf2 Sn2 2.940703 1_555
Hf2 Sn1 2.940706 1_565
Hf2 Sn5 2.940706 1_554
Hf2 Sn0 2.940710 1_555
Hf2 Sn3 2.940710 1_554
Hf3 Sn1 2.940703 1_555
Hf3 Sn5 2.940703 1_654
Hf3 Sn4 2.940706 1_554
Hf3 Sn2 2.940706 1_655
Hf3 Sn3 2.940710 1_554
Hf3 Sn0 2.940710 1_555
Hf4 Sn1 2.908554 1_565
Hf4 Sn2 2.908554 1_655
Hf4 Sn0 3.084909 1_555
Hf4 Sn3 3.144904 1_555
Hf4 Sn3 3.231064 1_554
Hf5 Sn0 2.908554 1_555
Hf5 Sn2 2.908554 1_545
Hf5 Sn1 3.084909 1_555
Hf5 Sn4 3.144904 1_555
Hf5 Sn4 3.231064 1_554
Hf6 Sn1 2.908554 1_555
Hf6 Sn0 2.908554 1_655
Hf6 Sn2 3.084909 1_655
Hf6 Sn5 3.144904 1_655
Hf6 Sn5 3.231064 1_654
Hf7 Sn4 2.908554 1_555
Hf7 Sn5 2.908554 1_555
Hf7 Sn3 3.084909 1_555
Hf7 Sn0 3.144904 1_555
Hf7 Sn0 3.231064 1_556
Hf8 Sn5 2.908554 1_655
Hf8 Sn3 2.908554 1_545
Hf8 Sn4 3.084909 1_555
Hf8 Sn1 3.144904 1_555
Hf8 Sn1 3.231064 1_556
Hf9 Sn4 2.908554 1_565
Hf9 Sn3 2.908554 1_455
Hf9 Sn5 3.084909 1_555
Hf9 Sn2 3.144904 1_555
Hf9 Sn2 3.231064 1_556
B0 Hf7 2.404609 1_555
B0 Hf6 2.404609 1_455
B0 Hf4 2.404609 1_445
B0 Hf9 2.404609 1_545
B0 Hf5 2.404609 1_555
B0 Hf8 2.404609 1_455
