# generated using pymatgen
data_SrCa2(SiIr)4
_symmetry_space_group_name_H-M   'P 1'
_cell_length_a   6.47463364
_cell_length_b   6.47463385
_cell_length_c   6.47463369
_cell_angle_alpha   110.39272403
_cell_angle_beta   107.64352766
_cell_angle_gamma   110.39271940
_symmetry_Int_Tables_number   1
_chemical_formula_structural   SrCa2(SiIr)4
_chemical_formula_sum   'Sr1 Ca2 Si4 Ir4'
_cell_volume   208.78221203
_cell_formula_units_Z   1
loop_
 _symmetry_equiv_pos_site_id
 _symmetry_equiv_pos_as_xyz
  1  'x, y, z'
loop_
 _atom_site_type_symbol
 _atom_site_label
 _atom_site_symmetry_multiplicity
 _atom_site_fract_x
 _atom_site_fract_y
 _atom_site_fract_z
 _atom_site_occupancy
  Sr  Sr0  1  0.50000000  0.00000000  0.50000000  1
  Ca  Ca0  1  0.50000000  0.50000000  0.00000000  1
  Ca  Ca1  1  0.00000000  0.50000000  0.50000000  1
  Si  Si0  1  0.00355668  0.36915610  0.00355668  1
  Si  Si1  1  0.63440058  0.63084390  0.63440058  1
  Si  Si2  1  0.99644332  1.00000000  0.36559942  1
  Si  Si3  1  0.36559942  0.00000000  0.99644332  1
  Ir  Ir0  1  0.99273072  0.71787509  0.99273072  1
  Ir  Ir1  1  0.00726928  1.00000000  0.72514438  1
  Ir  Ir2  1  0.27485562  0.28212491  0.27485562  1
  Ir  Ir3  1  0.72514438  1.00000000  0.00726928  1
loop_
_geom_bond_atom_site_label_1
_geom_bond_atom_site_label_2
_geom_bond_distance
_geom_bond_site_symmetry_2
Ca0 Ir2 3.028340 1_555
Ca0 Ir0 3.028340 1_554
Ca0 Ir3 3.028340 1_555
Ca0 Ir1 3.028340 1_544
Ca0 Si1 3.034903 1_554
Ca0 Si0 3.034903 1_555
Ca0 Si3 3.034903 1_554
Ca0 Si2 3.034903 1_555
Ca1 Ir2 3.028340 1_555
Ca1 Ir0 3.028340 1_455
Ca1 Ir1 3.028340 1_555
Ca1 Ir3 3.028340 1_445
Ca1 Si1 3.034903 1_455
Ca1 Si0 3.034903 1_555
Ca1 Si2 3.034903 1_445
Ca1 Si3 3.034903 1_565
Si0 Sr0 3.109221 1_454
Si1 Sr0 3.109220 1_565
Si2 Sr0 3.109220 1_665
Si3 Sr0 3.109220 1_556
Ir0 Si0 2.307644 1_656
Ir0 Si1 2.449032 1_555
Ir0 Si2 2.454892 1_556
Ir0 Si3 2.454892 1_665
Ir0 Sr0 3.163838 1_666
Ir1 Si2 2.307644 1_455
Ir1 Si3 2.449032 1_565
Ir1 Si0 2.454892 1_566
Ir1 Si1 2.454892 1_455
Ir1 Sr0 3.163838 1_465
Ir2 Si1 2.307644 1_555
Ir2 Si0 2.449032 1_555
Ir2 Si3 2.454892 1_554
Ir2 Si2 2.454892 1_445
Ir2 Sr0 3.163838 1_555
Ir3 Si3 2.307644 1_564
Ir3 Si2 2.449032 1_555
Ir3 Si1 2.454892 1_554
Ir3 Si0 2.454892 1_665
Ir3 Sr0 3.163838 1_564
