# generated using pymatgen
data_Hf3GeN
_symmetry_space_group_name_H-M   'P 1'
_cell_length_a   5.76236696
_cell_length_b   5.76236705
_cell_length_c   8.49671822
_cell_angle_alpha   90.00000000
_cell_angle_beta   90.00000000
_cell_angle_gamma   145.39414225
_symmetry_Int_Tables_number   1
_chemical_formula_structural   Hf3GeN
_chemical_formula_sum   'Hf6 Ge2 N2'
_cell_volume   160.23089110
_cell_formula_units_Z   2
loop_
 _symmetry_equiv_pos_site_id
 _symmetry_equiv_pos_as_xyz
  1  'x, y, z'
loop_
 _atom_site_type_symbol
 _atom_site_label
 _atom_site_symmetry_multiplicity
 _atom_site_fract_x
 _atom_site_fract_y
 _atom_site_fract_z
 _atom_site_occupancy
  Hf  Hf0  1  0.63101306  0.36898694  0.94659637  1
  Hf  Hf1  1  0.36898694  0.63101306  0.44659637  1
  Hf  Hf2  1  0.36898694  0.63101306  0.05340363  1
  Hf  Hf3  1  0.63101306  0.36898694  0.55340363  1
  Hf  Hf4  1  0.94348581  0.05651419  0.75000000  1
  Hf  Hf5  1  0.05651419  0.94348581  0.25000000  1
  Ge  Ge0  1  0.25386892  0.74613108  0.75000000  1
  Ge  Ge1  1  0.74613108  0.25386892  0.25000000  1
  N  N0  1  0.00000000  0.00000000  0.00000000  1
  N  N1  1  0.00000000  0.00000000  0.50000000  1
loop_
_geom_bond_atom_site_label_1
_geom_bond_atom_site_label_2
_geom_bond_distance
_geom_bond_site_symmetry_2
Hf0 N0 2.285022 1_556
Hf0 N0 2.285022 1_666
Hf1 N1 2.285022 1_665
Hf1 N1 2.285022 1_555
Hf2 N0 2.285022 1_665
Hf2 N0 2.285022 1_555
Hf3 N1 2.285022 1_555
Hf3 N1 2.285022 1_665
Hf4 N1 2.213328 1_655
Hf4 N0 2.213328 1_656
Hf5 N0 2.213328 1_565
Hf5 N1 2.213328 1_565
Ge0 Hf4 2.700066 1_565
Ge0 Hf4 2.700066 1_455
Ge0 Hf3 2.748641 1_455
Ge0 Hf0 2.748641 1_455
Ge0 Hf3 2.748641 1_565
Ge0 Hf0 2.748641 1_565
Ge0 Hf1 2.872314 1_555
Ge0 Hf2 2.872314 1_556
Ge1 Hf5 2.700066 1_545
Ge1 Hf5 2.700066 1_655
Ge1 Hf2 2.748641 1_655
Ge1 Hf1 2.748641 1_655
Ge1 Hf2 2.748641 1_545
Ge1 Hf1 2.748641 1_545
Ge1 Hf0 2.872314 1_554
Ge1 Hf3 2.872314 1_555
