# generated using pymatgen
data_Y2B4Ru3Rh
_symmetry_space_group_name_H-M   'P 1'
_cell_length_a   6.66300342
_cell_length_b   5.89399343
_cell_length_c   5.51311061
_cell_angle_alpha   71.39139490
_cell_angle_beta   56.96518625
_cell_angle_gamma   51.99497808
_symmetry_Int_Tables_number   1
_chemical_formula_structural   Y2B4Ru3Rh
_chemical_formula_sum   'Y2 B4 Ru3 Rh1'
_cell_volume   142.97567392
_cell_formula_units_Z   1
loop_
 _symmetry_equiv_pos_site_id
 _symmetry_equiv_pos_as_xyz
  1  'x, y, z'
loop_
 _atom_site_type_symbol
 _atom_site_label
 _atom_site_symmetry_multiplicity
 _atom_site_fract_x
 _atom_site_fract_y
 _atom_site_fract_z
 _atom_site_occupancy
  Y  Y0  1  0.50167024  0.50167024  0.49832976  1
  Y  Y1  1  0.75048849  0.75048749  0.74951151  1
  B  B0  1  0.06656928  0.43559002  0.06643502  1
  B  B1  1  0.18476789  0.80971664  0.19523667  1
  B  B2  1  0.43559202  0.06656828  0.43140367  1
  B  B3  1  0.80971664  0.18476789  0.81027881  1
  Ru  Ru0  1  0.38731531  0.38731331  0.11268469  1
  Ru  Ru1  1  0.86406145  0.86406145  0.13593855  1
  Ru  Ru2  1  0.11289324  0.11289124  0.38710676  1
  Rh  Rh0  1  0.13693245  0.13693245  0.86306755  1
loop_
_geom_bond_atom_site_label_1
_geom_bond_atom_site_label_2
_geom_bond_distance
_geom_bond_site_symmetry_2
B0 Ru1 2.050058 1_455
B0 Rh0 2.060492 1_554
B0 Ru0 2.124213 1_555
B0 Ru2 2.136426 1_555
B0 Y1 2.839341 1_454
B0 Y0 3.000580 1_455
B0 Y0 3.012974 1_554
B1 Ru2 2.035070 1_565
B1 Ru0 2.035339 1_555
B1 Ru1 2.151192 1_455
B1 Rh0 2.190913 1_564
B1 Y0 2.781511 1_555
B1 Y1 2.958903 1_455
B1 Y1 3.032603 1_554
B2 Ru1 2.050048 1_545
B2 Rh0 2.060503 1_555
B2 Ru0 2.124210 1_555
B2 Ru2 2.136429 1_555
B2 Y1 2.839341 1_545
B2 Y0 3.000578 1_545
B2 Y0 3.012975 1_555
B3 Ru2 2.035081 1_655
B3 Ru0 2.035329 1_556
B3 Ru1 2.151192 1_546
B3 Rh0 2.190913 1_655
B3 Y0 2.781511 1_555
B3 Y1 2.958906 1_545
B3 Y1 3.032599 1_555
Ru0 Y0 2.977987 1_554
Ru0 Y0 2.977994 1_555
Ru1 Y1 2.975080 1_555
Ru1 Y1 2.975083 1_554
Ru2 Y0 2.982359 1_545
Ru2 Y0 2.982366 1_455
Rh0 Y1 2.990887 1_455
Rh0 Y1 2.990891 1_545
