# generated using pymatgen
data_TaRe5As14
_symmetry_space_group_name_H-M   'P 1'
_cell_length_a   7.63965973
_cell_length_b   7.63966003
_cell_length_c   7.63965972
_cell_angle_alpha   109.17319264
_cell_angle_beta   110.06891781
_cell_angle_gamma   109.17320678
_symmetry_Int_Tables_number   1
_chemical_formula_structural   TaRe5As14
_chemical_formula_sum   'Ta1 Re5 As14'
_cell_volume   343.21376595
_cell_formula_units_Z   1
loop_
 _symmetry_equiv_pos_site_id
 _symmetry_equiv_pos_as_xyz
  1  'x, y, z'
loop_
 _atom_site_type_symbol
 _atom_site_label
 _atom_site_symmetry_multiplicity
 _atom_site_fract_x
 _atom_site_fract_y
 _atom_site_fract_z
 _atom_site_occupancy
  Ta  Ta0  1  0.34105998  0.00000000  0.34105998  1
  Re  Re0  1  0.00022467  0.34046987  0.34069454  1
  Re  Re1  1  0.00022467  0.65953013  0.65975479  1
  Re  Re2  1  0.34069454  0.34046987  0.00022467  1
  Re  Re3  1  0.65975479  0.65953013  0.00022467  1
  Re  Re4  1  0.66683398  1.00000000  0.66683398  1
  As  As0  1  0.75118079  0.50000000  0.25118079  1
  As  As1  1  0.49947853  0.74735072  0.24683025  1
  As  As2  1  0.49947853  0.25264928  0.75212782  1
  As  As3  1  0.75212782  0.25264928  0.49947853  1
  As  As4  1  0.24683025  0.74735072  0.49947853  1
  As  As5  1  0.25118079  0.50000000  0.75118079  1
  As  As6  1  0.99697230  0.00000000  0.33053560  1
  As  As7  1  0.66815430  0.00000000  0.99980213  1
  As  As8  1  0.99697230  0.66643670  0.99697230  1
  As  As9  1  0.33053560  0.33356330  0.33053560  1
  As  As10  1  0.99980213  0.33164883  0.99980213  1
  As  As11  1  0.66815430  0.66835117  0.66815430  1
  As  As12  1  0.33053560  1.00000000  0.99697230  1
  As  As13  1  0.99980213  1.00000000  0.66815430  1
loop_
_geom_bond_atom_site_label_1
_geom_bond_atom_site_label_2
_geom_bond_distance
_geom_bond_site_symmetry_2
Re4 Ta0 2.852584 1_565
As0 Re0 2.598185 1_655
As0 Re1 2.598185 1_655
As0 Re3 2.612255 1_555
As0 Re2 2.612255 1_555
As1 Re2 2.606020 1_555
As1 Re3 2.606024 1_555
As1 Ta0 2.632132 1_565
As1 Re4 2.674196 1_555
As2 Re2 2.606018 1_556
As2 Re3 2.606018 1_556
As2 Ta0 2.632134 1_555
As2 Re4 2.674202 1_545
As3 Re0 2.606018 1_655
As3 Re1 2.606018 1_655
As3 Ta0 2.632134 1_555
As3 Re4 2.674202 1_545
As4 Re0 2.606020 1_555
As4 Re1 2.606024 1_555
As4 Ta0 2.632132 1_565
As4 Re4 2.674196 1_555
As5 Re2 2.598185 1_556
As5 Re3 2.598185 1_556
As5 Re1 2.612255 1_555
As5 Re0 2.612255 1_555
As6 Re0 2.568239 1_655
As6 Re3 2.568239 1_545
As6 Ta0 2.602219 1_655
As7 Re4 2.540320 1_545
As7 Re3 2.581809 1_546
As7 Re0 2.581809 1_656
As8 Re3 2.568239 1_556
As8 Re1 2.568239 1_655
As8 Ta0 2.602219 1_666
As9 Re2 2.568239 1_555
As9 Re0 2.568239 1_555
As9 Ta0 2.602219 1_555
As10 Re4 2.540323 1_545
As10 As8 2.571946 1_555
As10 Re2 2.581811 1_656
As10 Re0 2.581811 1_656
As11 Re4 2.540327 1_555
As11 As9 2.571951 1_555
As11 Re3 2.581806 1_556
As11 Re1 2.581806 1_655
As12 Re2 2.568239 1_566
As12 Re1 2.568239 1_555
As12 As7 2.571954 1_565
As12 Ta0 2.602219 1_566
As13 Re4 2.540320 1_555
As13 As6 2.571954 1_565
As13 Re1 2.581809 1_655
As13 Re2 2.581809 1_666
