# generated using pymatgen
data_SmCo2
_symmetry_space_group_name_H-M   'P 1'
_cell_length_a   5.12574311
_cell_length_b   5.12566239
_cell_length_c   5.12544597
_cell_angle_alpha   60.00105368
_cell_angle_beta   60.00167307
_cell_angle_gamma   60.00413795
_symmetry_Int_Tables_number   1
_chemical_formula_structural   SmCo2
_chemical_formula_sum   'Sm2 Co4'
_cell_volume   95.22391335
_cell_formula_units_Z   2
loop_
 _symmetry_equiv_pos_site_id
 _symmetry_equiv_pos_as_xyz
  1  'x, y, z'
loop_
 _atom_site_type_symbol
 _atom_site_label
 _atom_site_symmetry_multiplicity
 _atom_site_fract_x
 _atom_site_fract_y
 _atom_site_fract_z
 _atom_site_occupancy
  Sm  Sm0  1  0.87499411  0.87499358  0.87500466  1
  Sm  Sm1  1  0.12500589  0.12500642  0.12499534  1
  Co  Co0  1  0.50000000  0.50000000  0.50000000  1
  Co  Co1  1  0.50000000  0.50000000  0.00000000  1
  Co  Co2  1  -0.00000000  0.50000000  0.50000000  1
  Co  Co3  1  0.50000000  -0.00000000  0.50000000  1
loop_
_geom_bond_atom_site_label_1
_geom_bond_atom_site_label_2
_geom_bond_distance
_geom_bond_site_symmetry_2
Sm0 Sm1 3.138753 1_665
Sm0 Sm1 3.138796 1_666
Sm0 Sm1 3.138871 1_656
Sm0 Sm1 3.138944 1_566
Co0 Co1 2.562723 1_556
Co0 Co1 2.562723 1_555
Co0 Co3 2.562831 1_565
Co0 Co3 2.562831 1_555
Co0 Co2 2.562872 1_655
Co0 Co2 2.562872 1_555
Co0 Sm1 3.005112 1_556
Co0 Sm0 3.005112 1_554
Co0 Sm0 3.005305 1_545
Co0 Sm1 3.005305 1_565
Co0 Sm1 3.005342 1_655
Co0 Sm0 3.005342 1_455
Co1 Co3 2.562818 1_555
Co1 Co3 2.562818 1_564
Co1 Co2 2.562862 1_555
Co1 Co2 2.562862 1_654
Co1 Sm1 3.005120 1_555
Co1 Sm0 3.005120 1_554
Co1 Sm0 3.005320 1_544
Co1 Sm1 3.005320 1_565
Co1 Sm1 3.005350 1_655
Co1 Sm0 3.005350 1_454
Co2 Co3 2.563012 1_465
Co2 Co3 2.563012 1_555
Co2 Sm0 3.005108 1_455
Co2 Sm1 3.005108 1_555
Co2 Sm1 3.005108 1_556
Co2 Sm0 3.005108 1_454
Co2 Sm0 3.005231 1_445
Co2 Sm1 3.005231 1_565
Co3 Sm1 3.005124 1_555
Co3 Sm0 3.005124 1_545
Co3 Sm1 3.005131 1_556
Co3 Sm0 3.005131 1_544
Co3 Sm0 3.005284 1_445
Co3 Sm1 3.005284 1_655
