# generated using pymatgen
data_Zr6Sn6IrRh5
_symmetry_space_group_name_H-M   'P 1'
_cell_length_a   7.36395256
_cell_length_b   7.36395314
_cell_length_c   7.29925198
_cell_angle_alpha   90.00000000
_cell_angle_beta   90.00000000
_cell_angle_gamma   119.99999739
_symmetry_Int_Tables_number   1
_chemical_formula_structural   Zr6Sn6IrRh5
_chemical_formula_sum   'Zr6 Sn6 Ir1 Rh5'
_cell_volume   342.79225297
_cell_formula_units_Z   1
loop_
 _symmetry_equiv_pos_site_id
 _symmetry_equiv_pos_as_xyz
  1  'x, y, z'
loop_
 _atom_site_type_symbol
 _atom_site_label
 _atom_site_symmetry_multiplicity
 _atom_site_fract_x
 _atom_site_fract_y
 _atom_site_fract_z
 _atom_site_occupancy
  Zr  Zr0  1  0.59511128  0.98471076  0.74990983  1
  Zr  Zr1  1  0.38959948  0.40488872  0.74990983  1
  Zr  Zr2  1  0.01528924  0.61040052  0.74990983  1
  Zr  Zr3  1  0.61236995  0.02149441  0.24844529  1
  Zr  Zr4  1  0.40912446  0.38763005  0.24844529  1
  Zr  Zr5  1  0.97850559  0.59087554  0.24844529  1
  Sn  Sn0  1  0.26632851  0.99629429  0.99940794  1
  Sn  Sn1  1  0.72862248  0.72958071  0.49890212  1
  Sn  Sn2  1  0.00095823  0.27137752  0.49890212  1
  Sn  Sn3  1  0.00370571  0.27003523  0.99940794  1
  Sn  Sn4  1  0.72996477  0.73367149  0.99940794  1
  Sn  Sn5  1  0.27041929  0.99904177  0.49890212  1
  Ir  Ir0  1  0.66666700  0.33333300  0.96780963  1
  Rh  Rh0  1  0.66666700  0.33333300  0.54416822  1
  Rh  Rh1  1  0.33333300  0.66666700  0.03594606  1
  Rh  Rh2  1  0.33333300  0.66666700  0.46392439  1
  Rh  Rh3  1  0.00000000  0.00000000  0.74788802  1
  Rh  Rh4  1  0.00000000  0.00000000  0.25027016  1
loop_
_geom_bond_atom_site_label_1
_geom_bond_atom_site_label_2
_geom_bond_distance
_geom_bond_site_symmetry_2
Sn0 Zr3 3.059312 1_566
Sn0 Zr0 3.064687 1_555
Sn0 Zr2 3.091286 1_555
Sn0 Zr4 3.111980 1_566
Sn0 Zr5 3.222116 1_456
Sn0 Zr1 3.234591 1_565
Sn1 Zr4 3.048604 1_555
Sn1 Zr1 3.055695 1_555
Sn1 Zr5 3.106610 1_555
Sn1 Zr0 3.114542 1_555
Sn1 Zr2 3.230496 1_655
Sn1 Zr3 3.245951 1_565
Sn2 Zr5 3.048604 1_455
Sn2 Zr2 3.055695 1_555
Sn2 Zr3 3.106610 1_455
Sn2 Zr1 3.114542 1_555
Sn2 Zr0 3.230496 1_445
Sn2 Zr4 3.245951 1_555
Sn3 Zr5 3.059307 1_456
Sn3 Zr2 3.064682 1_555
Sn3 Zr1 3.091287 1_555
Sn3 Zr3 3.111981 1_456
Sn3 Zr4 3.222117 1_556
Sn3 Zr0 3.234593 1_445
Sn4 Zr4 3.059310 1_556
Sn4 Zr1 3.064684 1_555
Sn4 Zr0 3.091281 1_555
Sn4 Zr5 3.111986 1_556
Sn4 Zr3 3.222111 1_566
Sn4 Zr2 3.234597 1_655
Sn5 Zr3 3.048604 1_565
Sn5 Zr0 3.055695 1_555
Sn5 Zr4 3.106610 1_565
Sn5 Zr2 3.114542 1_555
Sn5 Zr1 3.230496 1_565
Sn5 Zr5 3.245951 1_455
Ir0 Sn3 2.754517 1_655
Ir0 Sn0 2.754526 1_545
Ir0 Sn4 2.754532 1_555
Ir0 Zr0 2.836426 1_545
Ir0 Zr2 2.836428 1_655
Ir0 Zr1 2.836432 1_555
Ir0 Zr3 2.951449 1_556
Ir0 Zr5 2.951451 1_556
Ir0 Zr4 2.951454 1_556
Rh0 Sn2 2.738692 1_655
Rh0 Sn5 2.738697 1_545
Rh0 Sn1 2.738699 1_555
Rh0 Zr0 2.787631 1_545
Rh0 Zr2 2.787633 1_655
Rh0 Zr1 2.787637 1_555
Rh0 Zr3 3.028919 1_555
Rh0 Zr5 3.028920 1_555
Rh0 Zr4 3.028924 1_555
Rh1 Sn4 2.721097 1_554
Rh1 Sn0 2.721097 1_554
Rh1 Sn3 2.721097 1_554
Rh1 Zr5 2.843667 1_455
Rh1 Zr3 2.843669 1_565
Rh1 Zr4 2.843673 1_555
Rh1 Zr2 3.007594 1_554
Rh1 Zr0 3.007596 1_554
Rh1 Zr1 3.007600 1_554
Rh2 Sn5 2.721119 1_555
Rh2 Sn2 2.721123 1_555
Rh2 Sn1 2.721126 1_555
Rh2 Zr5 2.855589 1_455
Rh2 Zr3 2.855591 1_565
Rh2 Zr4 2.855595 1_555
Rh2 Zr2 3.007337 1_555
Rh2 Zr0 3.007339 1_555
Rh2 Zr1 3.007342 1_555
Rh3 Sn0 2.696525 1_545
Rh3 Sn4 2.696527 1_445
Rh3 Sn3 2.696530 1_555
Rh3 Sn5 2.698625 1_545
Rh3 Sn1 2.698625 1_445
Rh3 Sn2 2.698625 1_555
Rh3 Zr0 2.926948 1_445
Rh3 Zr2 2.926949 1_545
Rh3 Zr1 2.926949 1_555
Rh4 Sn0 2.693258 1_544
Rh4 Sn4 2.693261 1_444
Rh4 Sn3 2.693264 1_554
Rh4 Sn5 2.696886 1_545
Rh4 Sn1 2.696886 1_445
Rh4 Sn2 2.696886 1_555
Rh4 Zr3 2.936862 1_455
Rh4 Zr4 2.936862 1_555
Rh4 Zr5 2.936862 1_445
