# generated using pymatgen
data_Li2MgPd3O8
_symmetry_space_group_name_H-M   'P 1'
_cell_length_a   5.97498215
_cell_length_b   5.97499278
_cell_length_c   5.97497883
_cell_angle_alpha   60.35915687
_cell_angle_beta   60.35934379
_cell_angle_gamma   60.35913085
_symmetry_Int_Tables_number   1
_chemical_formula_structural   Li2MgPd3O8
_chemical_formula_sum   'Li2 Mg1 Pd3 O8'
_cell_volume   152.05825118
_cell_formula_units_Z   1
loop_
 _symmetry_equiv_pos_site_id
 _symmetry_equiv_pos_as_xyz
  1  'x, y, z'
loop_
 _atom_site_type_symbol
 _atom_site_label
 _atom_site_symmetry_multiplicity
 _atom_site_fract_x
 _atom_site_fract_y
 _atom_site_fract_z
 _atom_site_occupancy
  Li  Li0  1  0.11059338  0.11059255  0.11059196  1
  Li  Li1  1  0.88938569  0.88938537  0.88938460  1
  Mg  Mg0  1  0.49995388  0.49992353  0.49994170  1
  Pd  Pd0  1  0.50001526  0.50001266  0.99999247  1
  Pd  Pd1  1  0.50000936  0.99999860  0.50000961  1
  Pd  Pd2  1  0.99998678  0.50001762  0.50001894  1
  O  O0  1  0.26271012  0.26271675  0.26271214  1
  O  O1  1  0.71553404  0.25768055  0.25768789  1
  O  O2  1  0.25768719  0.71554947  0.25768445  1
  O  O3  1  0.25768858  0.25768133  0.71554091  1
  O  O4  1  0.74230855  0.74230289  0.28450302  1
  O  O5  1  0.74230949  0.28451350  0.74230564  1
  O  O6  1  0.28449698  0.74230181  0.74230591  1
  O  O7  1  0.73731871  0.73732337  0.73732076  1
loop_
_geom_bond_atom_site_label_1
_geom_bond_atom_site_label_2
_geom_bond_distance
_geom_bond_site_symmetry_2
Li0 O2 1.943302 1_545
Li0 O3 1.943338 1_554
Li0 O1 1.943376 1_455
Li0 O0 2.220319 1_555
Li1 O6 1.943604 1_655
Li1 O4 1.943636 1_556
Li1 O5 1.943677 1_565
Li1 O7 2.219501 1_555
Mg0 O1 2.057494 1_555
Mg0 O3 2.057535 1_555
Mg0 O2 2.057588 1_555
Mg0 O5 2.058545 1_555
Mg0 O4 2.058606 1_555
Mg0 O6 2.058635 1_555
O0 Pd1 2.017479 1_545
O0 Pd0 2.017506 1_554
O0 Pd2 2.017533 1_455
O1 Pd1 2.009256 1_545
O1 Pd0 2.009284 1_554
O2 Pd0 2.009347 1_554
O2 Pd2 2.009366 1_455
O3 Pd1 2.009284 1_545
O3 Pd2 2.009325 1_455
O4 Pd2 2.009191 1_555
O4 Pd1 2.009239 1_555
O5 Pd2 2.009149 1_555
O5 Pd0 2.009171 1_555
O6 Pd0 2.009237 1_555
O6 Pd1 2.009268 1_555
O7 Pd2 2.017505 1_555
O7 Pd0 2.017534 1_555
O7 Pd1 2.017552 1_555
