# generated using pymatgen
data_Sr2CaReN4
_symmetry_space_group_name_H-M   'P 1'
_cell_length_a   10.55225583
_cell_length_b   10.15335642
_cell_length_c   7.78989577
_cell_angle_alpha   70.64629945
_cell_angle_beta   65.20645856
_cell_angle_gamma   44.14724109
_symmetry_Int_Tables_number   1
_chemical_formula_structural   Sr2CaReN4
_chemical_formula_sum   'Sr8 Ca4 Re4 N16'
_cell_volume   527.11700138
_cell_formula_units_Z   4
loop_
 _symmetry_equiv_pos_site_id
 _symmetry_equiv_pos_as_xyz
  1  'x, y, z'
loop_
 _atom_site_type_symbol
 _atom_site_label
 _atom_site_symmetry_multiplicity
 _atom_site_fract_x
 _atom_site_fract_y
 _atom_site_fract_z
 _atom_site_occupancy
  Sr  Sr0  1  0.56821556  0.93178444  0.93178444  1
  Sr  Sr1  1  0.93178444  0.56821556  0.56821556  1
  Sr  Sr2  1  0.31821556  0.68178444  0.68178444  1
  Sr  Sr3  1  0.11254101  0.11254101  0.88745899  1
  Sr  Sr4  1  0.13745899  0.13745899  0.36254101  1
  Sr  Sr5  1  0.36254101  0.36254101  0.13745899  1
  Sr  Sr6  1  0.68178444  0.31821556  0.31821556  1
  Sr  Sr7  1  0.88745899  0.88745899  0.11254101  1
  Ca  Ca0  1  0.33776351  0.33776351  0.66223649  1
  Ca  Ca1  1  0.91223649  0.91223649  0.58776351  1
  Ca  Ca2  1  0.66223649  0.66223649  0.33776351  1
  Ca  Ca3  1  0.58776351  0.58776351  0.91223649  1
  Re  Re0  1  0.49076970  0.00923030  0.49076970  1
  Re  Re1  1  0.00923030  0.49076970  0.00923030  1
  Re  Re2  1  0.75923030  0.24076970  0.75923030  1
  Re  Re3  1  0.24076970  0.75923030  0.24076970  1
  N  N0  1  0.00394582  0.66565867  0.82887795  1
  N  N1  1  0.70323672  0.27008272  0.01313629  1
  N  N2  1  0.66565867  0.00394582  0.50151756  1
  N  N3  1  0.50151756  0.82887795  0.66565867  1
  N  N4  1  0.24605418  0.58434133  0.42112205  1
  N  N5  1  0.74848244  0.42112205  0.58434133  1
  N  N6  1  0.01313629  0.01354327  0.70323672  1
  N  N7  1  0.54676328  0.97991728  0.23686371  1
  N  N8  1  0.42112205  0.74848244  0.24605418  1
  N  N9  1  0.97991728  0.54676328  0.23645673  1
  N  N10  1  0.27008272  0.70323672  0.01354327  1
  N  N11  1  0.82887795  0.50151756  0.00394582  1
  N  N12  1  0.23645673  0.23686371  0.97991728  1
  N  N13  1  0.58434133  0.24605418  0.74848244  1
  N  N14  1  0.23686371  0.23645673  0.54676328  1
  N  N15  1  0.01354327  0.01313629  0.27008272  1
loop_
_geom_bond_atom_site_label_1
_geom_bond_atom_site_label_2
_geom_bond_distance
_geom_bond_site_symmetry_2
Ca0 N4 2.379722 1_555
Ca0 N13 2.379722 1_555
Ca0 N14 2.447244 1_555
Ca0 N12 2.447250 1_555
Ca0 N2 2.715980 1_555
Ca0 N0 2.715980 1_555
Ca1 N0 2.379722 1_655
Ca1 N2 2.379722 1_565
Ca1 N6 2.447244 1_665
Ca1 N15 2.447250 1_665
Ca1 N13 2.715980 1_565
Ca1 N4 2.715980 1_655
Ca2 N5 2.379722 1_555
Ca2 N8 2.379722 1_555
Ca2 N7 2.447253 1_555
Ca2 N9 2.447254 1_555
Ca2 N3 2.715980 1_555
Ca2 N11 2.715980 1_555
Ca3 N3 2.379722 1_555
Ca3 N11 2.379722 1_556
Ca3 N1 2.447253 1_556
Ca3 N10 2.447254 1_556
Ca3 N5 2.715980 1_555
Ca3 N8 2.715980 1_556
N0 Re1 1.843954 1_556
N0 Sr7 2.917690 1_456
N0 Sr1 3.064513 1_455
N0 Sr0 3.098306 1_455
N0 Sr2 3.131326 1_555
N1 Re2 1.872815 1_554
N1 Sr6 2.469380 1_555
N1 Sr5 2.753734 1_555
N1 Sr7 2.810996 1_545
N1 Sr3 3.122248 1_654
N2 Re0 1.843955 1_555
N2 Sr7 2.917690 1_545
N2 Sr0 3.064513 1_545
N2 Sr1 3.098305 1_545
N2 Sr6 3.131326 1_555
N3 Re0 1.843954 1_565
N3 Sr3 2.917691 1_565
N3 Sr1 3.064513 1_555
N3 Sr0 3.098306 1_555
N3 Sr2 3.131326 1_555
N4 Re3 1.843954 1_555
N4 Sr5 2.917690 1_555
N4 Sr2 3.064513 1_555
N4 Sr6 3.098306 1_555
N4 Sr1 3.131326 1_455
N5 Re2 1.843954 1_555
N5 Sr4 2.917691 1_655
N5 Sr2 3.064513 1_555
N5 Sr6 3.098306 1_555
N5 Sr1 3.131326 1_555
N6 Re2 1.872818 1_455
N6 Sr2 2.469375 1_545
N6 Sr4 2.753739 1_555
N6 Sr3 2.811004 1_555
N6 Sr7 3.122244 1_446
N7 Re0 1.872815 1_565
N7 Sr0 2.469380 1_554
N7 Sr7 2.753734 1_555
N7 Sr5 2.810996 1_565
N7 Sr4 3.122248 1_565
N8 Re3 1.843955 1_555
N8 Sr4 2.917690 1_565
N8 Sr6 3.064513 1_555
N8 Sr2 3.098305 1_555
N8 Sr0 3.131326 1_554
N9 Re1 1.872822 1_655
N9 Sr1 2.469372 1_555
N9 Sr7 2.753735 1_555
N9 Sr5 2.810996 1_655
N9 Sr4 3.122247 1_655
N10 Re3 1.872822 1_555
N10 Sr2 2.469372 1_554
N10 Sr5 2.753735 1_555
N10 Sr7 2.810996 1_455
N10 Sr3 3.122247 1_564
N11 Re1 1.843955 1_655
N11 Sr3 2.917690 1_654
N11 Sr0 3.064513 1_554
N11 Sr1 3.098305 1_554
N11 Sr6 3.131326 1_555
N12 Re1 1.872817 1_556
N12 Sr0 2.469375 1_545
N12 Sr3 2.753744 1_555
N12 Sr4 2.810998 1_556
N12 Sr5 3.122239 1_556
N13 Re2 1.843955 1_555
N13 Sr5 2.917690 1_556
N13 Sr6 3.064513 1_555
N13 Sr2 3.098305 1_555
N13 Sr0 3.131326 1_545
N14 Re0 1.872818 1_555
N14 Sr1 2.469375 1_455
N14 Sr3 2.753739 1_555
N14 Sr4 2.811004 1_555
N14 Sr5 3.122244 1_555
N15 Re3 1.872817 1_545
N15 Sr6 2.469375 1_455
N15 Sr4 2.753744 1_555
N15 Sr3 2.810998 1_554
N15 Sr7 3.122239 1_445
