# generated using pymatgen
data_Y2WO6
_symmetry_space_group_name_H-M   'P 1'
_cell_length_a   5.22427324
_cell_length_b   9.05999609
_cell_length_c   9.90758729
_cell_angle_alpha   90.00000000
_cell_angle_beta   90.00000000
_cell_angle_gamma   90.00000000
_symmetry_Int_Tables_number   1
_chemical_formula_structural   Y2WO6
_chemical_formula_sum   'Y8 W4 O24'
_cell_volume   468.94488258
_cell_formula_units_Z   4
loop_
 _symmetry_equiv_pos_site_id
 _symmetry_equiv_pos_as_xyz
  1  'x, y, z'
loop_
 _atom_site_type_symbol
 _atom_site_label
 _atom_site_symmetry_multiplicity
 _atom_site_fract_x
 _atom_site_fract_y
 _atom_site_fract_z
 _atom_site_occupancy
  Y  Y0  1  0.98069318  0.60308108  0.53438090  1
  Y  Y1  1  0.48069318  0.89691892  0.46561910  1
  Y  Y2  1  0.01930682  0.10308108  0.96561910  1
  Y  Y3  1  0.51930682  0.39691892  0.03438090  1
  Y  Y4  1  0.46231020  0.78065269  0.87135061  1
  Y  Y5  1  0.96231020  0.71934731  0.12864939  1
  Y  Y6  1  0.03768980  0.21934731  0.37135061  1
  Y  Y7  1  0.53768980  0.28065269  0.62864939  1
  W  W0  1  0.96114400  0.99522290  0.65254791  1
  W  W1  1  0.46114400  0.50477710  0.34745209  1
  W  W2  1  0.03885600  0.49522290  0.84745209  1
  W  W3  1  0.53885600  0.00477710  0.15254791  1
  O  O0  1  0.75321066  0.08962227  0.50583333  1
  O  O1  1  0.25321066  0.41037773  0.49416667  1
  O  O2  1  0.24678934  0.58962227  0.99416667  1
  O  O3  1  0.74678934  0.91037773  0.00583333  1
  O  O4  1  0.23198549  0.11344343  0.56804482  1
  O  O5  1  0.73198549  0.38655657  0.43195518  1
  O  O6  1  0.76801451  0.61344343  0.93195518  1
  O  O7  1  0.26801451  0.88655657  0.06804482  1
  O  O8  1  0.08378935  0.84353410  0.53082683  1
  O  O9  1  0.58378935  0.65646590  0.46917317  1
  O  O10  1  0.91621065  0.34353410  0.96917317  1
  O  O11  1  0.41621065  0.15646590  0.03082683  1
  O  O12  1  0.69317000  0.86010179  0.26371750  1
  O  O13  1  0.19317000  0.63989821  0.73628250  1
  O  O14  1  0.30683000  0.36010179  0.23628250  1
  O  O15  1  0.80683000  0.13989821  0.76371750  1
  O  O16  1  0.32484407  0.04720536  0.29727677  1
  O  O17  1  0.82484407  0.45279464  0.70272323  1
  O  O18  1  0.68173850  0.86280647  0.68065662  1
  O  O19  1  0.17515593  0.95279464  0.79727677  1
  O  O20  1  0.81826150  0.13719353  0.18065662  1
  O  O21  1  0.31826150  0.36280647  0.81934338  1
  O  O22  1  0.18173850  0.63719353  0.31934338  1
  O  O23  1  0.67515593  0.54720536  0.20272323  1
loop_
_geom_bond_atom_site_label_1
_geom_bond_atom_site_label_2
_geom_bond_distance
_geom_bond_site_symmetry_2
O0 W0 2.006099 1_545
O0 Y1 2.287754 1_545
O0 Y6 2.316337 1_655
O0 Y7 2.396625 1_555
O1 W1 2.006099 1_555
O1 Y0 2.287754 1_455
O1 Y7 2.316337 1_555
O1 Y6 2.396625 1_555
O2 W2 2.006099 1_555
O2 Y3 2.287754 1_556
O2 Y5 2.316337 1_456
O2 Y4 2.396625 1_555
O3 W3 2.006099 1_565
O3 Y2 2.287754 1_664
O3 Y4 2.316337 1_554
O3 Y5 2.396625 1_555
O4 W0 1.962200 1_445
O4 Y7 2.281705 1_555
O4 Y6 2.397632 1_555
O4 Y1 2.562487 1_545
O5 W1 1.962200 1_555
O5 Y6 2.281705 1_655
O5 Y7 2.397632 1_555
O5 Y0 2.562487 1_555
O6 W2 1.962200 1_655
O6 Y4 2.281705 1_555
O6 Y5 2.397632 1_556
O6 Y3 2.562487 1_556
O7 W3 1.962200 1_565
O7 Y5 2.281705 1_455
O7 Y4 2.397632 1_554
O7 Y2 2.562487 1_564
O8 W0 1.937417 1_455
O8 Y1 2.225053 1_555
O8 Y0 2.244373 1_455
O9 W1 1.937417 1_555
O9 Y0 2.225053 1_555
O9 Y1 2.244373 1_555
O10 W2 1.937417 1_655
O10 Y3 2.225053 1_556
O10 Y2 2.244373 1_655
O11 W3 1.937417 1_555
O11 Y2 2.225053 1_554
O11 Y3 2.244373 1_555
O12 W3 1.892390 1_565
O12 Y1 2.311899 1_555
O12 Y5 2.322501 1_555
O13 W2 1.892390 1_555
O13 Y0 2.311899 1_455
O13 Y4 2.322501 1_555
O14 W1 1.892390 1_555
O14 Y3 2.311899 1_555
O14 Y6 2.322501 1_555
O15 W0 1.892390 1_545
O15 Y2 2.311899 1_655
O15 Y7 2.322501 1_555
O16 W3 1.858473 1_555
O16 Y6 2.285057 1_555
O16 Y1 2.301877 1_545
O17 W2 1.858473 1_655
O17 Y7 2.285057 1_555
O17 Y0 2.301877 1_555
O18 W0 1.909847 1_555
O18 Y4 2.331876 1_555
O18 Y1 2.395355 1_555
O19 W0 1.858473 1_455
O19 Y4 2.285057 1_555
O19 Y2 2.301877 1_565
O20 W3 1.909847 1_555
O20 Y6 2.331876 1_655
O20 Y2 2.395355 1_654
O21 W2 1.909847 1_555
O21 Y7 2.331876 1_555
O21 Y3 2.395355 1_556
O22 W1 1.909847 1_555
O22 Y5 2.331876 1_455
O22 Y0 2.395355 1_455
O23 W1 1.858473 1_555
O23 Y5 2.285057 1_555
O23 Y3 2.301877 1_555
