# generated using pymatgen
data_Be15Nb6(CuNi3)2
_symmetry_space_group_name_H-M   'P 1'
_cell_length_a   7.56993158
_cell_length_b   7.56993153
_cell_length_c   7.56993177
_cell_angle_alpha   60.00523144
_cell_angle_beta   60.00523048
_cell_angle_gamma   60.00522955
_symmetry_Int_Tables_number   1
_chemical_formula_structural   Be15Nb6(CuNi3)2
_chemical_formula_sum   'Be15 Nb6 Cu2 Ni6'
_cell_volume   306.76963526
_cell_formula_units_Z   1
loop_
 _symmetry_equiv_pos_site_id
 _symmetry_equiv_pos_as_xyz
  1  'x, y, z'
loop_
 _atom_site_type_symbol
 _atom_site_label
 _atom_site_symmetry_multiplicity
 _atom_site_fract_x
 _atom_site_fract_y
 _atom_site_fract_z
 _atom_site_occupancy
  Be  Be0  1  0.32482697  0.32482697  0.32482697  1
  Be  Be1  1  0.67517303  0.67517303  0.67517303  1
  Be  Be2  1  0.32739061  0.32739061  0.02227860  1
  Be  Be3  1  0.32739061  0.02227860  0.32739061  1
  Be  Be4  1  0.67260939  0.67260939  0.97772140  1
  Be  Be5  1  0.67260939  0.97772140  0.67260939  1
  Be  Be6  1  0.02227860  0.32739061  0.32739061  1
  Be  Be7  1  0.97772140  0.67260939  0.67260939  1
  Be  Be8  1  0.50000000  0.00000000  0.00000000  1
  Be  Be9  1  0.00000000  0.50000000  0.50000000  1
  Be  Be10  1  0.00000000  0.50000000  0.00000000  1
  Be  Be11  1  0.50000000  0.00000000  0.50000000  1
  Be  Be12  1  0.00000000  0.00000000  0.50000000  1
  Be  Be13  1  0.50000000  0.50000000  0.00000000  1
  Be  Be14  1  0.00000000  0.00000000  0.00000000  1
  Nb  Nb0  1  0.69759368  0.29798771  0.29798771  1
  Nb  Nb1  1  0.30240632  0.70201229  0.70201229  1
  Nb  Nb2  1  0.29798771  0.69759368  0.29798771  1
  Nb  Nb3  1  0.70201229  0.30240632  0.70201229  1
  Nb  Nb4  1  0.29798771  0.29798771  0.69759368  1
  Nb  Nb5  1  0.70201229  0.70201229  0.30240632  1
  Cu  Cu0  1  0.12230404  0.12230404  0.12230404  1
  Cu  Cu1  1  0.87769596  0.87769596  0.87769596  1
  Ni  Ni0  1  0.12204089  0.12204089  0.63333460  1
  Ni  Ni1  1  0.12204089  0.63333460  0.12204089  1
  Ni  Ni2  1  0.87795911  0.87795911  0.36666540  1
  Ni  Ni3  1  0.87795911  0.36666540  0.87795911  1
  Ni  Ni4  1  0.63333460  0.12204089  0.12204089  1
  Ni  Ni5  1  0.36666540  0.87795911  0.87795911  1
loop_
_geom_bond_atom_site_label_1
_geom_bond_atom_site_label_2
_geom_bond_distance
_geom_bond_site_symmetry_2
Be0 Be9 2.191108 1_555
Be0 Be11 2.191108 1_555
Be0 Be13 2.191108 1_555
Be0 Be3 2.271033 1_555
Be0 Be6 2.271033 1_555
Be0 Be2 2.271033 1_555
Be0 Ni4 2.313908 1_555
Be0 Ni1 2.313908 1_555
Be0 Ni0 2.313908 1_555
Be0 Nb2 2.634396 1_555
Be0 Nb0 2.634396 1_555
Be0 Nb4 2.634396 1_555
Be1 Be9 2.191108 1_655
Be1 Be11 2.191108 1_565
Be1 Be13 2.191108 1_556
Be1 Be5 2.271033 1_555
Be1 Be7 2.271033 1_555
Be1 Be4 2.271033 1_555
Be1 Ni5 2.313908 1_555
Be1 Ni3 2.313908 1_555
Be1 Ni2 2.313908 1_555
Be1 Nb3 2.634396 1_555
Be1 Nb1 2.634396 1_555
Be1 Nb5 2.634396 1_555
Be2 Be8 2.199465 1_555
Be2 Ni1 2.307788 1_555
Be2 Ni4 2.307788 1_555
Be2 Be6 2.309860 1_555
Be2 Be3 2.309860 1_555
Be2 Cu0 2.335157 1_555
Be2 Nb3 2.646431 1_554
Be2 Nb1 2.646431 1_554
Be2 Nb4 2.698806 1_554
Be3 Be8 2.199465 1_555
Be3 Ni4 2.307788 1_555
Be3 Ni0 2.307788 1_555
Be3 Be6 2.309860 1_555
Be3 Cu0 2.335157 1_555
Be3 Nb5 2.646431 1_545
Be3 Nb1 2.646431 1_545
Be3 Nb2 2.698806 1_545
Be4 Be8 2.199465 1_566
Be4 Ni3 2.307788 1_555
Be4 Ni5 2.307788 1_555
Be4 Be7 2.309860 1_555
Be4 Be5 2.309860 1_555
Be4 Cu1 2.335157 1_555
Be4 Nb2 2.646431 1_556
Be4 Nb0 2.646431 1_556
Be4 Nb5 2.698806 1_556
Be5 Be8 2.199465 1_566
Be5 Ni5 2.307788 1_555
Be5 Ni2 2.307788 1_555
Be5 Be7 2.309860 1_555
Be5 Cu1 2.335157 1_555
Be5 Nb4 2.646431 1_565
Be5 Nb0 2.646431 1_565
Be5 Nb3 2.698806 1_565
Be6 Be9 2.170127 1_555
Be6 Ni1 2.307788 1_555
Be6 Ni0 2.307788 1_555
Be6 Cu0 2.335157 1_555
Be6 Nb5 2.646431 1_455
Be6 Nb3 2.646431 1_455
Be6 Nb0 2.698806 1_455
Be7 Be9 2.170127 1_655
Be7 Ni3 2.307788 1_555
Be7 Ni2 2.307788 1_555
Be7 Cu1 2.335157 1_555
Be7 Nb4 2.646431 1_655
Be7 Nb2 2.646431 1_655
Be7 Nb1 2.698806 1_655
Be8 Ni4 2.333174 1_555
Be8 Ni5 2.333174 1_544
Be8 Cu1 2.335098 1_544
Be8 Cu0 2.335098 1_555
Be8 Nb3 2.748715 1_554
Be8 Nb2 2.748715 1_545
Be8 Nb5 2.748715 1_545
Be8 Nb4 2.748715 1_554
Be9 Ni2 2.336752 1_455
Be9 Ni0 2.336752 1_555
Be9 Ni3 2.336752 1_455
Be9 Ni1 2.336752 1_555
Be9 Nb2 2.702183 1_555
Be9 Nb3 2.702183 1_455
Be9 Nb4 2.702183 1_555
Be9 Nb5 2.702183 1_455
Be10 Be2 2.199465 1_555
Be10 Be4 2.199465 1_454
Be10 Be6 2.199465 1_555
Be10 Be7 2.199465 1_454
Be10 Ni1 2.333174 1_555
Be10 Ni3 2.333174 1_454
Be10 Cu1 2.335098 1_454
Be10 Cu0 2.335098 1_555
Be10 Nb5 2.748715 1_455
Be10 Nb4 2.748715 1_554
Be10 Nb0 2.748715 1_455
Be10 Nb1 2.748715 1_554
Be11 Be5 2.170127 1_545
Be11 Be3 2.170127 1_555
Be11 Ni2 2.336752 1_545
Be11 Ni0 2.336752 1_555
Be11 Ni5 2.336752 1_545
Be11 Ni4 2.336752 1_555
Be11 Nb4 2.702183 1_555
Be11 Nb5 2.702183 1_545
Be11 Nb1 2.702183 1_545
Be11 Nb0 2.702183 1_555
Be12 Be3 2.199465 1_555
Be12 Be5 2.199465 1_445
Be12 Be6 2.199465 1_555
Be12 Be7 2.199465 1_445
Be12 Ni0 2.333174 1_555
Be12 Ni2 2.333174 1_445
Be12 Cu1 2.335098 1_445
Be12 Cu0 2.335098 1_555
Be12 Nb3 2.748715 1_455
Be12 Nb2 2.748715 1_545
Be12 Nb1 2.748715 1_545
Be12 Nb0 2.748715 1_455
Be13 Be4 2.170127 1_554
Be13 Be2 2.170127 1_555
Be13 Ni3 2.336752 1_554
Be13 Ni1 2.336752 1_555
Be13 Ni5 2.336752 1_554
Be13 Ni4 2.336752 1_555
Be13 Nb2 2.702183 1_555
Be13 Nb3 2.702183 1_554
Be13 Nb0 2.702183 1_555
Be13 Nb1 2.702183 1_554
Be14 Ni5 2.266444 1_544
Be14 Ni4 2.266444 1_455
Be14 Ni3 2.266444 1_454
Be14 Ni1 2.266444 1_545
Be14 Ni2 2.266444 1_445
Be14 Ni0 2.266444 1_554
Be14 Cu0 2.267729 1_555
Be14 Cu1 2.267729 1_444
Nb0 Ni4 2.617982 1_555
Nb0 Ni2 2.638301 1_545
Nb0 Ni3 2.638301 1_554
Nb0 Nb2 3.025229 1_555
Nb0 Nb4 3.025229 1_555
Nb0 Nb5 3.092243 1_555
Nb0 Nb3 3.092244 1_555
Nb1 Ni5 2.617982 1_555
Nb1 Ni0 2.638301 1_565
Nb1 Ni1 2.638301 1_556
Nb1 Nb3 3.025229 1_555
Nb1 Nb5 3.025229 1_555
Nb1 Nb4 3.092243 1_555
Nb1 Nb2 3.092244 1_555
Nb2 Ni1 2.617982 1_555
Nb2 Ni2 2.638301 1_455
Nb2 Ni5 2.638301 1_554
Nb2 Nb4 3.025229 1_555
Nb2 Nb5 3.092243 1_555
Nb3 Ni3 2.617982 1_555
Nb3 Ni0 2.638301 1_655
Nb3 Ni4 2.638301 1_556
Nb3 Nb5 3.025229 1_555
Nb3 Nb4 3.092243 1_555
Nb4 Ni0 2.617982 1_555
Nb4 Ni3 2.638301 1_455
Nb4 Ni5 2.638301 1_545
Nb5 Ni2 2.617982 1_555
Nb5 Ni1 2.638301 1_655
Nb5 Ni4 2.638301 1_565
Cu0 Ni5 2.615938 1_544
Cu0 Ni2 2.615938 1_445
Cu0 Ni3 2.615938 1_454
Cu0 Nb0 2.663094 1_455
Cu0 Nb2 2.663094 1_545
Cu0 Nb4 2.663094 1_554
Cu1 Ni4 2.615938 1_566
Cu1 Ni0 2.615938 1_665
Cu1 Ni1 2.615938 1_656
Cu1 Nb1 2.663094 1_655
Cu1 Nb3 2.663094 1_565
Cu1 Nb5 2.663094 1_556
Ni0 Ni3 2.618934 1_455
Ni0 Ni5 2.618934 1_545
Ni1 Ni2 2.618934 1_455
Ni1 Ni5 2.618934 1_554
Ni2 Ni4 2.618934 1_565
Ni3 Ni4 2.618934 1_556
