# generated using pymatgen
data_Sr3P2
_symmetry_space_group_name_H-M   'P 1'
_cell_length_a   24.26459177
_cell_length_b   9.35521677
_cell_length_c   9.35520767
_cell_angle_alpha   90.00146982
_cell_angle_beta   54.66991422
_cell_angle_gamma   54.66974640
_symmetry_Int_Tables_number   1
_chemical_formula_structural   Sr3P2
_chemical_formula_sum   'Sr24 P16'
_cell_volume   1222.06120985
_cell_formula_units_Z   8
loop_
 _symmetry_equiv_pos_site_id
 _symmetry_equiv_pos_as_xyz
  1  'x, y, z'
loop_
 _atom_site_type_symbol
 _atom_site_label
 _atom_site_symmetry_multiplicity
 _atom_site_fract_x
 _atom_site_fract_y
 _atom_site_fract_z
 _atom_site_occupancy
  Sr  Sr0  1  0.13702763  0.47649561  0.98664582  1
  Sr  Sr1  1  0.04622737  0.37109257  0.49073710  1
  Sr  Sr2  1  0.28714157  0.12891325  0.12932583  1
  Sr  Sr3  1  0.04621319  0.99030472  0.37063605  1
  Sr  Sr4  1  0.28710891  0.50974191  0.00924543  1
  Sr  Sr5  1  0.13705548  0.61236082  0.60233239  1
  Sr  Sr6  1  0.19629738  0.88758833  0.51336683  1
  Sr  Sr7  1  0.45485663  0.48615458  0.98059116  1
  Sr  Sr8  1  0.37851098  0.34510800  0.51377659  1
  Sr  Sr9  1  0.19627648  0.02353485  0.89768864  1
  Sr  Sr10  1  0.63704900  0.10234653  0.11237097  1
  Sr  Sr11  1  0.37848656  0.01935041  0.35073564  1
  Sr  Sr12  1  0.63701741  0.48665532  0.97651333  1
  Sr  Sr13  1  0.45485426  0.64927563  0.65481353  1
  Sr  Sr14  1  0.54623371  0.87060484  0.49028173  1
  Sr  Sr15  1  0.78709016  0.50927445  0.00976563  1
  Sr  Sr16  1  0.69628536  0.39767058  0.52352316  1
  Sr  Sr17  1  0.54624474  0.99071086  0.87105989  1
  Sr  Sr18  1  0.95483003  0.15484906  0.14931113  1
  Sr  Sr19  1  0.69630768  0.01335628  0.38757411  1
  Sr  Sr20  1  0.95483490  0.48062232  0.98618867  1
  Sr  Sr21  1  0.78712353  0.62935193  0.62894604  1
  Sr  Sr22  1  0.87846434  0.85076606  0.51938281  1
  Sr  Sr23  1  0.87848772  0.01381284  0.84514548  1
  P  P0  1  0.09088202  0.61370330  0.36370786  1
  P  P1  1  0.16668578  0.24994740  0.62900977  1
  P  P2  1  0.24245242  0.88634162  0.13629079  1
  P  P3  1  0.34179863  0.38518078  0.24861113  1
  P  P4  1  0.34181844  0.08933003  0.72588293  1
  P  P5  1  0.16664216  0.75000664  0.87098692  1
  P  P6  1  0.49153023  0.27412266  0.61481657  1
  P  P7  1  0.66664566  0.37099783  0.25000674  1
  P  P8  1  0.59089632  0.86368459  0.11367984  1
  P  P9  1  0.49154669  0.75131889  0.91067696  1
  P  P10  1  0.66668554  0.12899502  0.74994878  1
  P  P11  1  0.74244133  0.63630786  0.38635695  1
  P  P12  1  0.84179218  0.22591993  0.58935637  1
  P  P13  1  0.99153311  0.41069279  0.25134017  1
  P  P14  1  0.99150535  0.11487293  0.77416781  1
  P  P15  1  0.84178511  0.74863299  0.88520743  1
loop_
_geom_bond_atom_site_label_1
_geom_bond_atom_site_label_2
_geom_bond_distance
_geom_bond_site_symmetry_2
P0 Sr1 3.015446 1_555
P0 Sr3 3.015621 1_555
P0 Sr0 3.018922 1_554
P0 Sr5 3.019170 1_555
P0 Sr4 3.315966 1_555
P0 Sr2 3.316344 1_555
P0 Sr23 3.420297 1_465
P0 Sr22 3.420956 1_455
P1 Sr6 3.076053 1_545
P1 Sr5 3.076144 1_555
P1 Sr11 3.089681 1_555
P1 Sr20 3.090351 1_455
P1 Sr9 3.413002 1_555
P1 Sr0 3.413905 1_555
P1 Sr1 3.470258 1_555
P1 Sr2 3.470867 1_555
P2 Sr2 3.015660 1_565
P2 Sr4 3.015693 1_555
P2 Sr6 3.018963 1_555
P2 Sr9 3.019075 1_564
P2 Sr3 3.315967 1_555
P2 Sr1 3.316193 1_565
P2 Sr13 3.420513 1_554
P2 Sr7 3.420709 1_554
P3 Sr5 2.987046 1_555
P3 Sr8 3.042607 1_555
P3 Sr17 3.043712 1_544
P3 Sr7 3.121989 1_554
P3 Sr4 3.127615 1_555
P3 Sr11 3.298234 1_555
P3 Sr6 3.374037 1_555
P4 Sr0 2.987558 1_555
P4 Sr11 3.041720 1_555
P4 Sr14 3.043728 1_545
P4 Sr13 3.121577 1_545
P4 Sr2 3.127757 1_556
P4 Sr8 3.298008 1_555
P4 Sr9 3.373889 1_555
P5 Sr0 3.076005 1_555
P5 Sr9 3.076256 1_565
P5 Sr18 3.089910 1_466
P5 Sr8 3.090635 1_555
P5 Sr5 3.412658 1_555
P5 Sr6 3.413883 1_555
P5 Sr4 3.470380 1_556
P5 Sr3 3.470733 1_556
P6 Sr19 2.987156 1_555
P6 Sr13 3.041706 1_555
P6 Sr4 3.043607 1_556
P6 Sr8 3.122001 1_555
P6 Sr14 3.128208 1_545
P6 Sr7 3.297309 1_555
P6 Sr10 3.374269 1_555
P7 Sr12 3.076009 1_554
P7 Sr16 3.076186 1_555
P7 Sr13 3.089642 1_555
P7 Sr23 3.090302 1_554
P7 Sr10 3.412794 1_555
P7 Sr19 3.413966 1_555
P7 Sr15 3.470129 1_555
P7 Sr14 3.470486 1_555
P8 Sr17 3.015477 1_554
P8 Sr14 3.015688 1_555
P8 Sr12 3.018877 1_554
P8 Sr10 3.019173 1_565
P8 Sr15 3.315562 1_555
P8 Sr21 3.315939 1_554
P8 Sr8 3.420185 1_565
P8 Sr11 3.420841 1_565
P9 Sr16 2.987205 1_555
P9 Sr7 3.042200 1_555
P9 Sr2 3.043734 1_566
P9 Sr11 3.121387 1_566
P9 Sr17 3.127855 1_555
P9 Sr13 3.298684 1_555
P9 Sr12 3.372778 1_555
P10 Sr19 3.076029 1_555
P10 Sr10 3.076110 1_556
P10 Sr22 3.089395 1_545
P10 Sr7 3.090067 1_555
P10 Sr16 3.413101 1_555
P10 Sr12 3.414004 1_555
P10 Sr17 3.470037 1_545
P10 Sr21 3.470637 1_545
P11 Sr21 3.015697 1_555
P11 Sr15 3.015697 1_555
P11 Sr19 3.018934 1_565
P11 Sr16 3.019073 1_555
P11 Sr14 3.315554 1_555
P11 Sr17 3.315840 1_555
P11 Sr18 3.420354 1_555
P11 Sr20 3.420573 1_554
P12 Sr12 2.987388 1_555
P12 Sr22 3.041730 1_545
P12 Sr3 3.043826 1_645
P12 Sr18 3.121507 1_555
P12 Sr21 3.127720 1_555
P12 Sr23 3.298124 1_555
P12 Sr16 3.373482 1_555
P13 Sr9 2.987255 1_654
P13 Sr20 3.042210 1_554
P13 Sr21 3.043798 1_555
P13 Sr22 3.121454 1_555
P13 Sr1 3.127844 1_655
P13 Sr18 3.298686 1_555
P13 Sr0 3.372996 1_654
P14 Sr6 2.987287 1_645
P14 Sr18 3.041632 1_556
P14 Sr15 3.043501 1_556
P14 Sr23 3.122142 1_555
P14 Sr3 3.128320 1_645
P14 Sr20 3.297108 1_555
P14 Sr5 3.374657 1_645
P15 Sr10 2.986966 1_566
P15 Sr23 3.042585 1_565
P15 Sr1 3.043668 1_655
P15 Sr20 3.121895 1_555
P15 Sr15 3.127631 1_556
P15 Sr22 3.298256 1_555
P15 Sr19 3.373805 1_566
