# generated using pymatgen
data_K2Nb6PbCl18
_symmetry_space_group_name_H-M   'P 1'
_cell_length_a   10.26786630
_cell_length_b   10.26786638
_cell_length_c   10.26786711
_cell_angle_alpha   54.54723388
_cell_angle_beta   54.54722995
_cell_angle_gamma   54.54723434
_symmetry_Int_Tables_number   1
_chemical_formula_structural   K2Nb6PbCl18
_chemical_formula_sum   'K2 Nb6 Pb1 Cl18'
_cell_volume   668.17538284
_cell_formula_units_Z   1
loop_
 _symmetry_equiv_pos_site_id
 _symmetry_equiv_pos_as_xyz
  1  'x, y, z'
loop_
 _atom_site_type_symbol
 _atom_site_label
 _atom_site_symmetry_multiplicity
 _atom_site_fract_x
 _atom_site_fract_y
 _atom_site_fract_z
 _atom_site_occupancy
  K  K0  1  0.22188751  0.22188751  0.22188751  1
  K  K1  1  0.77811249  0.77811249  0.77811249  1
  Nb  Nb0  1  0.92442890  0.79116207  0.14725488  1
  Nb  Nb1  1  0.07557110  0.20883793  0.85274512  1
  Nb  Nb2  1  0.14725488  0.92442890  0.79116207  1
  Nb  Nb3  1  0.85274512  0.07557110  0.20883793  1
  Nb  Nb4  1  0.79116207  0.14725488  0.92442890  1
  Nb  Nb5  1  0.20883793  0.85274512  0.07557110  1
  Pb  Pb0  1  0.50000000  0.50000000  0.50000000  1
  Cl  Cl0  1  0.16173779  0.48058028  0.66953359  1
  Cl  Cl1  1  0.92632766  0.08276938  0.66457561  1
  Cl  Cl2  1  0.33542439  0.07367234  0.91723062  1
  Cl  Cl3  1  0.66457561  0.92632766  0.08276938  1
  Cl  Cl4  1  0.58034829  0.26219801  0.15731850  1
  Cl  Cl5  1  0.08276938  0.66457561  0.92632766  1
  Cl  Cl6  1  0.66953359  0.16173779  0.48058028  1
  Cl  Cl7  1  0.73780199  0.84268150  0.41965171  1
  Cl  Cl8  1  0.41965171  0.73780199  0.84268150  1
  Cl  Cl9  1  0.33046641  0.83826221  0.51941972  1
  Cl  Cl10  1  0.26219801  0.15731850  0.58034829  1
  Cl  Cl11  1  0.84268150  0.41965171  0.73780199  1
  Cl  Cl12  1  0.07367234  0.91723062  0.33542439  1
  Cl  Cl13  1  0.51941972  0.33046641  0.83826221  1
  Cl  Cl14  1  0.15731850  0.58034829  0.26219801  1
  Cl  Cl15  1  0.91723062  0.33542439  0.07367234  1
  Cl  Cl16  1  0.83826221  0.51941972  0.33046641  1
  Cl  Cl17  1  0.48058028  0.66953359  0.16173779  1
loop_
_geom_bond_atom_site_label_1
_geom_bond_atom_site_label_2
_geom_bond_distance
_geom_bond_site_symmetry_2
Cl0 Nb1 2.636448 1_555
Cl0 Pb0 2.918952 1_555
Cl0 K1 3.314921 1_455
Cl1 Nb2 2.483772 1_645
Cl1 Nb4 2.484192 1_555
Cl1 K1 3.562947 1_545
Cl1 K0 3.661386 1_655
Cl2 Nb5 2.483772 1_546
Cl2 Nb1 2.484192 1_555
Cl2 K0 3.562947 1_556
Cl2 K1 3.661386 1_545
Cl3 Nb4 2.483772 1_564
Cl3 Nb0 2.484192 1_555
Cl3 K1 3.562947 1_554
Cl3 K0 3.661386 1_565
Cl4 Nb3 2.469339 1_555
Cl4 Nb4 2.470285 1_554
Cl4 K0 3.574356 1_555
Cl5 Nb0 2.483772 1_456
Cl5 Nb2 2.484192 1_555
Cl5 K1 3.562947 1_455
Cl5 K0 3.661386 1_556
Cl6 Nb3 2.636448 1_555
Cl6 Pb0 2.918952 1_555
Cl6 K1 3.314921 1_545
Cl7 Nb0 2.469339 1_555
Cl7 Nb3 2.470285 1_565
Cl7 K1 3.574357 1_555
Cl8 Nb2 2.469339 1_555
Cl8 Nb5 2.470285 1_556
Cl8 K1 3.574356 1_555
Cl9 Nb2 2.636448 1_555
Cl9 Pb0 2.918952 1_555
Cl9 K0 3.314921 1_565
Cl10 Nb1 2.469339 1_555
Cl10 Nb2 2.470285 1_545
Cl10 K0 3.574357 1_555
Cl11 Nb4 2.469339 1_555
Cl11 Nb1 2.470285 1_655
Cl11 K1 3.574356 1_555
Cl12 Nb3 2.483772 1_465
Cl12 Nb5 2.484192 1_555
Cl12 K0 3.562947 1_565
Cl12 K1 3.661386 1_455
Cl13 Nb4 2.636448 1_555
Cl13 Pb0 2.918953 1_555
Cl13 K0 3.314921 1_556
Cl14 Nb5 2.469339 1_555
Cl14 Nb0 2.470285 1_455
Cl14 K0 3.574356 1_555
Cl15 Nb1 2.483772 1_654
Cl15 Nb3 2.484192 1_555
Cl15 K0 3.562947 1_655
Cl15 K1 3.661386 1_554
Cl16 Nb0 2.636448 1_555
Cl16 Pb0 2.918952 1_555
Cl16 K0 3.314921 1_655
Cl17 Nb5 2.636448 1_555
Cl17 Pb0 2.918953 1_555
Cl17 K1 3.314921 1_554
