# generated using pymatgen
data_Sc6Zn22SiAg
_symmetry_space_group_name_H-M   'P 1'
_cell_length_a   8.74098667
_cell_length_b   8.74098573
_cell_length_c   8.74098529
_cell_angle_alpha   60.00000167
_cell_angle_beta   60.00000522
_cell_angle_gamma   59.99999993
_symmetry_Int_Tables_number   1
_chemical_formula_structural   Sc6Zn22SiAg
_chemical_formula_sum   'Sc6 Zn22 Si1 Ag1'
_cell_volume   472.24381985
_cell_formula_units_Z   1
loop_
 _symmetry_equiv_pos_site_id
 _symmetry_equiv_pos_as_xyz
  1  'x, y, z'
loop_
 _atom_site_type_symbol
 _atom_site_label
 _atom_site_symmetry_multiplicity
 _atom_site_fract_x
 _atom_site_fract_y
 _atom_site_fract_z
 _atom_site_occupancy
  Sc  Sc0  1  0.71134709  0.28865291  0.28865291  1
  Sc  Sc1  1  0.28865291  0.71134709  0.71134709  1
  Sc  Sc2  1  0.28865291  0.71134709  0.28865291  1
  Sc  Sc3  1  0.71134709  0.28865291  0.71134709  1
  Sc  Sc4  1  0.28865291  0.28865291  0.71134709  1
  Sc  Sc5  1  0.71134709  0.71134709  0.28865291  1
  Zn  Zn0  1  0.12494294  0.12494294  0.12494294  1
  Zn  Zn1  1  0.87505706  0.87505706  0.87505706  1
  Zn  Zn2  1  0.12494294  0.12494294  0.62517119  1
  Zn  Zn3  1  0.12494294  0.62517119  0.12494294  1
  Zn  Zn4  1  0.87505706  0.87505706  0.37482881  1
  Zn  Zn5  1  0.87505706  0.37482881  0.87505706  1
  Zn  Zn6  1  0.62517119  0.12494294  0.12494294  1
  Zn  Zn7  1  0.37482881  0.87505706  0.87505706  1
  Zn  Zn8  1  0.50000000  0.00000000  0.00000000  1
  Zn  Zn9  1  0.00000000  0.50000000  0.50000000  1
  Zn  Zn10  1  0.00000000  0.50000000  0.00000000  1
  Zn  Zn11  1  0.50000000  0.00000000  0.50000000  1
  Zn  Zn12  1  0.00000000  0.00000000  0.50000000  1
  Zn  Zn13  1  0.50000000  0.50000000  0.00000000  1
  Zn  Zn14  1  0.33470255  0.33470255  0.33470255  1
  Zn  Zn15  1  0.66529745  0.66529745  0.66529745  1
  Zn  Zn16  1  0.33470255  0.33470255  0.99589136  1
  Zn  Zn17  1  0.33470255  0.99589136  0.33470255  1
  Zn  Zn18  1  0.66529745  0.66529745  0.00410864  1
  Zn  Zn19  1  0.66529745  0.00410864  0.66529745  1
  Zn  Zn20  1  0.99589136  0.33470255  0.33470255  1
  Zn  Zn21  1  0.00410864  0.66529745  0.66529745  1
  Si  Si0  1  0.50000000  0.50000000  0.50000000  1
  Ag  Ag0  1  0.00000000  0.00000000  0.00000000  1
loop_
_geom_bond_atom_site_label_1
_geom_bond_atom_site_label_2
_geom_bond_distance
_geom_bond_site_symmetry_2
Sc0 Si0 2.612593 1_555
Sc0 Zn20 2.945252 1_555
Sc0 Zn18 2.945257 1_555
Sc0 Zn19 2.945257 1_555
Sc0 Zn14 2.945260 1_555
Sc0 Zn6 2.977648 1_555
Sc0 Zn4 2.977648 1_545
Sc0 Zn5 2.977648 1_554
Sc0 Zn0 2.977648 1_655
Sc0 Zn13 3.127125 1_555
Sc0 Zn12 3.127125 1_655
Sc0 Zn11 3.127125 1_555
Sc0 Zn10 3.127125 1_655
Sc1 Si0 2.612593 1_555
Sc1 Zn21 2.945252 1_555
Sc1 Zn16 2.945257 1_555
Sc1 Zn17 2.945257 1_555
Sc1 Zn15 2.945260 1_555
Sc1 Zn7 2.977648 1_555
Sc1 Zn2 2.977648 1_565
Sc1 Zn3 2.977648 1_556
Sc1 Zn1 2.977648 1_455
Sc1 Zn13 3.127125 1_556
Sc1 Zn12 3.127125 1_565
Sc1 Zn11 3.127125 1_565
Sc1 Zn10 3.127125 1_556
Sc2 Si0 2.612593 1_555
Sc2 Zn17 2.945251 1_555
Sc2 Zn21 2.945257 1_555
Sc2 Zn18 2.945257 1_555
Sc2 Zn14 2.945260 1_555
Sc2 Zn7 2.977648 1_554
Sc2 Zn0 2.977648 1_565
Sc2 Zn3 2.977648 1_555
Sc2 Zn4 2.977648 1_455
Sc2 Zn13 3.127125 1_555
Sc2 Zn12 3.127125 1_565
Sc2 Zn8 3.127125 1_565
Sc2 Zn9 3.127125 1_555
Sc3 Si0 2.612593 1_555
Sc3 Zn19 2.945251 1_555
Sc3 Zn20 2.945257 1_555
Sc3 Zn16 2.945257 1_555
Sc3 Zn15 2.945260 1_555
Sc3 Zn6 2.977648 1_556
Sc3 Zn1 2.977648 1_545
Sc3 Zn5 2.977648 1_555
Sc3 Zn2 2.977648 1_655
Sc3 Zn13 3.127125 1_556
Sc3 Zn12 3.127125 1_655
Sc3 Zn8 3.127125 1_556
Sc3 Zn9 3.127125 1_655
Sc4 Si0 2.612593 1_555
Sc4 Zn16 2.945251 1_555
Sc4 Zn21 2.945257 1_555
Sc4 Zn19 2.945257 1_555
Sc4 Zn14 2.945260 1_555
Sc4 Zn7 2.977648 1_545
Sc4 Zn2 2.977648 1_555
Sc4 Zn0 2.977648 1_556
Sc4 Zn5 2.977649 1_455
Sc4 Zn11 3.127125 1_555
Sc4 Zn8 3.127125 1_556
Sc4 Zn9 3.127125 1_555
Sc4 Zn10 3.127125 1_556
Sc5 Si0 2.612593 1_555
Sc5 Zn18 2.945251 1_555
Sc5 Zn20 2.945257 1_555
Sc5 Zn17 2.945257 1_555
Sc5 Zn15 2.945260 1_555
Sc5 Zn6 2.977648 1_565
Sc5 Zn4 2.977648 1_555
Sc5 Zn1 2.977648 1_554
Sc5 Zn3 2.977649 1_655
Sc5 Zn11 3.127125 1_565
Sc5 Zn8 3.127125 1_565
Sc5 Zn9 3.127125 1_655
Sc5 Zn10 3.127125 1_655
Zn0 Zn10 2.676777 1_555
Zn0 Zn12 2.676777 1_555
Zn0 Zn8 2.676777 1_555
Zn0 Zn20 2.687224 1_455
Zn0 Zn17 2.687224 1_545
Zn0 Zn16 2.687224 1_554
Zn1 Zn10 2.676777 1_656
Zn1 Zn12 2.676777 1_665
Zn1 Zn8 2.676777 1_566
Zn1 Zn21 2.687224 1_655
Zn1 Zn19 2.687224 1_565
Zn1 Zn18 2.687224 1_556
Zn2 Zn9 2.676777 1_555
Zn2 Zn20 2.687231 1_455
Zn3 Zn9 2.676777 1_555
Zn4 Zn9 2.676777 1_655
Zn5 Zn9 2.676777 1_655
Zn6 Zn8 2.676777 1_555
Zn7 Zn8 2.676777 1_566
Zn10 Zn20 2.523473 1_455
Zn10 Zn21 2.523473 1_554
Zn10 Zn18 2.523473 1_455
Zn10 Zn16 2.523473 1_554
Zn10 Zn3 2.676777 1_555
Zn10 Zn5 2.676777 1_454
Zn11 Zn14 2.523476 1_555
Zn11 Zn15 2.523476 1_545
Zn11 Zn19 2.523481 1_555
Zn11 Zn17 2.523481 1_545
Zn11 Zn6 2.676777 1_555
Zn11 Zn7 2.676777 1_545
Zn11 Zn2 2.676777 1_555
Zn11 Zn4 2.676777 1_545
Zn12 Zn20 2.523473 1_455
Zn12 Zn21 2.523473 1_545
Zn12 Zn17 2.523473 1_545
Zn12 Zn19 2.523473 1_455
Zn12 Zn4 2.676777 1_445
Zn12 Zn2 2.676777 1_555
Zn13 Zn14 2.523476 1_555
Zn13 Zn15 2.523476 1_554
Zn13 Zn18 2.523481 1_555
Zn13 Zn16 2.523481 1_554
Zn13 Zn7 2.676777 1_554
Zn13 Zn6 2.676777 1_555
Zn13 Zn5 2.676777 1_554
Zn13 Zn3 2.676777 1_555
Zn14 Zn9 2.523476 1_555
Zn14 Zn3 2.687226 1_555
Zn14 Zn6 2.687226 1_555
Zn14 Zn2 2.687226 1_555
Zn14 Zn16 2.961544 1_554
Zn14 Zn17 2.961544 1_545
Zn14 Zn20 2.961544 1_455
Zn15 Zn9 2.523476 1_655
Zn15 Zn5 2.687226 1_555
Zn15 Zn7 2.687226 1_555
Zn15 Zn4 2.687226 1_555
Zn15 Zn18 2.961544 1_556
Zn15 Zn19 2.961544 1_565
Zn15 Zn21 2.961544 1_655
Zn16 Zn8 2.523473 1_556
Zn16 Zn3 2.687231 1_556
Zn16 Zn6 2.687231 1_556
Zn16 Zn17 2.961544 1_546
Zn16 Zn20 2.961544 1_456
Zn17 Zn8 2.523473 1_565
Zn17 Zn2 2.687231 1_565
Zn17 Zn6 2.687231 1_565
Zn17 Zn20 2.961544 1_465
Zn18 Zn8 2.523473 1_565
Zn18 Zn5 2.687231 1_554
Zn18 Zn7 2.687231 1_554
Zn18 Zn19 2.961544 1_564
Zn18 Zn21 2.961544 1_654
Zn19 Zn8 2.523473 1_556
Zn19 Zn4 2.687231 1_545
Zn19 Zn7 2.687231 1_545
Zn19 Zn21 2.961544 1_645
Zn20 Zn9 2.523481 1_655
Zn20 Zn3 2.687231 1_655
Zn21 Zn9 2.523481 1_555
Zn21 Zn4 2.687231 1_455
Zn21 Zn5 2.687231 1_455
Ag0 Zn5 2.675148 1_454
Ag0 Zn3 2.675148 1_545
Ag0 Zn4 2.675148 1_445
Ag0 Zn2 2.675148 1_554
Ag0 Zn1 2.675148 1_444
Ag0 Zn0 2.675148 1_555
Ag0 Zn7 2.675148 1_544
Ag0 Zn6 2.675148 1_455
