# generated using pymatgen
data_Pr2EuS4
_symmetry_space_group_name_H-M   'P 1'
_cell_length_a   7.51796432
_cell_length_b   7.51796342
_cell_length_c   7.51796471
_cell_angle_alpha   109.41532291
_cell_angle_beta   109.41545339
_cell_angle_gamma   109.58295151
_symmetry_Int_Tables_number   1
_chemical_formula_structural   Pr2EuS4
_chemical_formula_sum   'Pr4 Eu2 S8'
_cell_volume   327.09776656
_cell_formula_units_Z   2
loop_
 _symmetry_equiv_pos_site_id
 _symmetry_equiv_pos_as_xyz
  1  'x, y, z'
loop_
 _atom_site_type_symbol
 _atom_site_label
 _atom_site_symmetry_multiplicity
 _atom_site_fract_x
 _atom_site_fract_y
 _atom_site_fract_z
 _atom_site_occupancy
  Pr  Pr0  1  0.12220019  0.75000012  0.87219981  1
  Pr  Pr1  1  0.25000000  0.62220092  0.37220092  1
  Pr  Pr2  1  0.37779981  0.24999962  0.62779993  1
  Pr  Pr3  1  0.75000000  0.87779894  0.12779894  1
  Eu  Eu0  1  0.62499911  0.37499914  0.25000080  1
  Eu  Eu1  1  0.87500089  0.12500169  0.75000003  1
  S  S0  1  0.00453880  0.85447398  0.49995445  1
  S  S1  1  0.00458546  0.35451904  0.50004558  1
  S  S2  1  0.14552676  0.14548000  0.15006652  1
  S  S3  1  0.35447324  0.50453775  -0.00004676  1
  S  S4  1  0.64548047  0.64552751  0.65006699  1
  S  S5  1  0.49546120  0.99541364  0.84993318  1
  S  S6  1  0.49541454  0.99546212  0.34993458  1
  S  S7  1  0.85451953  0.50458551  0.00004704  1
loop_
_geom_bond_atom_site_label_1
_geom_bond_atom_site_label_2
_geom_bond_distance
_geom_bond_site_symmetry_2
Pr0 S5 2.890267 1_555
Pr0 S7 2.890272 1_456
Pr0 S2 2.917579 1_566
Pr0 S1 2.917584 1_555
Pr0 S0 3.084217 1_555
Pr0 S4 3.084222 1_455
Pr0 S6 3.098477 1_556
Pr0 S3 3.098484 1_556
Pr1 S1 2.890262 1_555
Pr1 S6 2.890269 1_555
Pr1 S7 2.917574 1_455
Pr1 S4 2.917576 1_555
Pr1 S2 3.084232 1_555
Pr1 S3 3.084234 1_555
Pr1 S5 3.098464 1_555
Pr1 S0 3.098479 1_555
Pr2 S0 2.890263 1_545
Pr2 S4 2.890268 1_555
Pr2 S6 2.917571 1_545
Pr2 S3 2.917574 1_556
Pr2 S5 3.084220 1_545
Pr2 S7 3.084222 1_556
Pr2 S2 3.098471 1_555
Pr2 S1 3.098474 1_555
Pr3 S2 2.890260 1_665
Pr3 S3 2.890268 1_555
Pr3 S5 2.917574 1_554
Pr3 S0 2.917577 1_655
Pr3 S1 3.084226 1_665
Pr3 S6 3.084236 1_555
Pr3 S4 3.098462 1_554
Pr3 S7 3.098469 1_555
Eu0 S3 2.936260 1_555
Eu0 S1 2.936262 1_655
Eu0 S4 2.936269 1_555
Eu0 S5 2.936277 1_544
Eu0 S6 3.115049 1_545
Eu0 S2 3.115059 1_555
Eu0 S7 3.115074 1_555
Eu0 S0 3.115075 1_655
Eu1 S0 2.936261 1_645
Eu1 S7 2.936262 1_556
Eu1 S6 2.936263 1_545
Eu1 S2 2.936272 1_656
Eu1 S3 3.115054 1_656
Eu1 S1 3.115058 1_655
Eu1 S5 3.115067 1_545
Eu1 S4 3.115075 1_545
