# generated using pymatgen
data_NbSi(BW2)2
_symmetry_space_group_name_H-M   'P 1'
_cell_length_a   7.04631603
_cell_length_b   7.04631614
_cell_length_c   7.05703169
_cell_angle_alpha   128.85685968
_cell_angle_beta   128.85685472
_cell_angle_gamma   75.12792107
_symmetry_Int_Tables_number   1
_chemical_formula_structural   NbSi(BW2)2
_chemical_formula_sum   'Nb2 Si2 B4 W8'
_cell_volume   206.98461143
_cell_formula_units_Z   2
loop_
 _symmetry_equiv_pos_site_id
 _symmetry_equiv_pos_as_xyz
  1  'x, y, z'
loop_
 _atom_site_type_symbol
 _atom_site_label
 _atom_site_symmetry_multiplicity
 _atom_site_fract_x
 _atom_site_fract_y
 _atom_site_fract_z
 _atom_site_occupancy
  Nb  Nb0  1  0.69457444  0.52097812  0.50000000  1
  Nb  Nb1  1  0.97902188  0.80542556  0.50000000  1
  Si  Si0  1  0.24705729  0.25294271  0.00000000  1
  Si  Si1  1  0.74705729  0.75294271  0.00000000  1
  B  B0  1  0.13072710  0.62503289  0.75575899  1
  B  B1  1  0.87496711  0.36927290  0.24424101  1
  B  B2  1  0.61855552  0.88144448  0.50000000  1
  B  B3  1  0.37887200  0.12112800  0.50000000  1
  W  W0  1  0.00007561  0.99990639  0.99997999  1
  W  W1  1  0.50009361  0.49992439  0.00002001  1
  W  W2  1  0.80310147  0.30532421  0.82808970  1
  W  W3  1  0.19467579  0.69689853  0.17191030  1
  W  W4  1  0.47501178  0.97723451  0.17191030  1
  W  W5  1  0.30386018  0.47041957  0.50000000  1
  W  W6  1  0.02958043  0.19613982  0.50000000  1
  W  W7  1  0.52276549  0.02498822  0.82808970  1
loop_
_geom_bond_atom_site_label_1
_geom_bond_atom_site_label_2
_geom_bond_distance
_geom_bond_site_symmetry_2
Nb0 Si0 2.587496 1_555
Nb0 Si1 2.587496 1_556
Nb0 W1 2.780280 1_555
Nb0 W0 2.780292 1_655
Nb0 W6 2.835104 1_655
Nb0 W5 2.865296 1_555
Nb0 W4 3.138653 1_545
Nb0 W2 3.138653 1_555
Nb1 Si0 2.587496 1_666
Nb1 Si1 2.587496 1_555
Nb1 W0 2.780280 1_655
Nb1 W1 2.780292 1_555
Nb1 W5 2.835104 1_655
Nb1 W6 2.865296 1_665
Nb1 W7 3.138653 1_665
Nb1 W3 3.138653 1_655
Si0 W3 2.569281 1_555
Si0 W2 2.569281 1_454
Si0 W5 2.591727 1_555
Si0 W6 2.591728 1_554
Si0 W7 2.595455 1_554
Si0 W4 2.595455 1_545
Si0 W1 2.792823 1_555
Si0 W0 2.792823 1_544
Si1 W4 2.569281 1_555
Si1 W7 2.569281 1_564
Si1 W6 2.591727 1_665
Si1 W5 2.591727 1_554
Si1 W2 2.595455 1_554
Si1 W3 2.595455 1_655
Si1 W0 2.792845 1_654
Si1 W1 2.792846 1_555
B0 B1 2.206339 1_455
B0 W5 2.355024 1_555
B0 W6 2.355031 1_555
B0 W1 2.371081 1_556
B0 W4 2.382195 1_556
B0 W3 2.382203 1_556
B0 Nb1 2.403404 1_455
B0 Nb0 2.403412 1_455
B0 W0 2.413622 1_555
B1 W6 2.355024 1_655
B1 W5 2.355031 1_655
B1 W0 2.371081 1_644
B1 W7 2.382195 1_554
B1 W2 2.382203 1_554
B1 Nb0 2.403404 1_555
B1 Nb1 2.403412 1_555
B1 W1 2.413622 1_555
B2 B3 2.059247 1_565
B2 W2 2.347640 1_565
B2 W3 2.347640 1_555
B2 W7 2.347640 1_565
B2 W4 2.347640 1_555
B2 W1 2.434704 1_555
B2 W0 2.434704 1_655
B2 Nb1 2.457626 1_555
B2 Nb0 2.457626 1_555
B3 W3 2.348957 1_545
B3 W2 2.348958 1_555
B3 W4 2.348958 1_545
B3 W7 2.348958 1_555
B3 W6 2.381006 1_555
B3 W5 2.381006 1_555
B3 W1 2.424015 1_556
B3 W0 2.424015 1_544
