# generated using pymatgen
data_Zr3Al2IrN
_symmetry_space_group_name_H-M   'P 1'
_cell_length_a   8.56156987
_cell_length_b   8.56156949
_cell_length_c   8.56157008
_cell_angle_alpha   60.00000532
_cell_angle_beta   60.00000679
_cell_angle_gamma   60.00000086
_symmetry_Int_Tables_number   1
_chemical_formula_structural   Zr3Al2IrN
_chemical_formula_sum   'Zr12 Al8 Ir4 N4'
_cell_volume   443.75703599
_cell_formula_units_Z   4
loop_
 _symmetry_equiv_pos_site_id
 _symmetry_equiv_pos_as_xyz
  1  'x, y, z'
loop_
 _atom_site_type_symbol
 _atom_site_label
 _atom_site_symmetry_multiplicity
 _atom_site_fract_x
 _atom_site_fract_y
 _atom_site_fract_z
 _atom_site_occupancy
  Zr  Zr0  1  0.80810129  0.80810129  0.19189871  1
  Zr  Zr1  1  0.05810129  0.44189871  0.44189871  1
  Zr  Zr2  1  0.44189871  0.05810129  0.05810129  1
  Zr  Zr3  1  0.05810129  0.05810129  0.44189871  1
  Zr  Zr4  1  0.05810129  0.44189871  0.05810129  1
  Zr  Zr5  1  0.44189871  0.05810129  0.44189871  1
  Zr  Zr6  1  0.19189871  0.80810129  0.19189871  1
  Zr  Zr7  1  0.19189871  0.80810129  0.80810129  1
  Zr  Zr8  1  0.80810129  0.19189871  0.19189871  1
  Zr  Zr9  1  0.80810129  0.19189871  0.80810129  1
  Zr  Zr10  1  0.44189871  0.44189871  0.05810129  1
  Zr  Zr11  1  0.19189871  0.19189871  0.80810129  1
  Al  Al0  1  0.42019083  0.73942650  0.42019083  1
  Al  Al1  1  0.82980917  0.82980917  0.51057350  1
  Al  Al2  1  0.51057350  0.82980917  0.82980917  1
  Al  Al3  1  0.82980917  0.82980917  0.82980917  1
  Al  Al4  1  0.73942650  0.42019083  0.42019083  1
  Al  Al5  1  0.42019083  0.42019083  0.42019083  1
  Al  Al6  1  0.42019083  0.42019083  0.73942650  1
  Al  Al7  1  0.82980917  0.51057350  0.82980917  1
  Ir  Ir0  1  0.62500000  0.12500000  0.62500000  1
  Ir  Ir1  1  0.62500000  0.62500000  0.12500000  1
  Ir  Ir2  1  0.12500000  0.62500000  0.62500000  1
  Ir  Ir3  1  0.62500000  0.62500000  0.62500000  1
  N  N0  1  0.12500000  0.62500000  0.12500000  1
  N  N1  1  0.12500000  0.12500000  0.62500000  1
  N  N2  1  0.62500000  0.12500000  0.12500000  1
  N  N3  1  0.12500000  0.12500000  0.12500000  1
loop_
_geom_bond_atom_site_label_1
_geom_bond_atom_site_label_2
_geom_bond_distance
_geom_bond_site_symmetry_2
Al0 Ir1 2.597729 1_555
Al0 Ir2 2.597729 1_555
Al0 Ir3 2.597736 1_555
Al0 Al5 2.733158 1_555
Al0 Al4 2.733158 1_555
Al0 Al6 2.733159 1_555
Al0 Zr3 2.926034 1_565
Al0 Zr2 2.926034 1_565
Al0 Zr5 2.926039 1_565
Al0 Zr6 3.083500 1_555
Al0 Zr0 3.083508 1_555
Al0 Zr7 3.083508 1_555
Al1 Ir0 2.597729 1_565
Al1 Ir2 2.597729 1_655
Al1 Ir3 2.597736 1_555
Al1 Al3 2.733159 1_555
Al1 Al7 2.733159 1_555
Al1 Al2 2.733159 1_555
Al1 Zr8 2.926034 1_565
Al1 Zr6 2.926034 1_655
Al1 Zr0 2.926039 1_555
Al1 Zr3 3.083500 1_665
Al1 Zr1 3.083507 1_655
Al1 Zr5 3.083507 1_565
Al2 Ir1 2.597729 1_556
Al2 Ir0 2.597729 1_565
Al2 Ir3 2.597736 1_555
Al2 Al7 2.733158 1_555
Al2 Al3 2.733158 1_555
Al2 Zr11 2.926034 1_565
Al2 Zr6 2.926034 1_556
Al2 Zr7 2.926039 1_555
Al2 Zr2 3.083500 1_566
Al2 Zr10 3.083507 1_556
Al2 Zr5 3.083508 1_565
Al3 Ir0 2.597734 1_565
Al3 Ir2 2.597734 1_655
Al3 Ir1 2.597734 1_556
Al3 Al7 2.733158 1_555
Al3 Zr9 2.926030 1_565
Al3 Zr7 2.926030 1_655
Al3 Zr0 2.926030 1_556
Al3 Zr4 3.083504 1_656
Al3 Zr2 3.083504 1_566
Al3 Zr3 3.083504 1_665
Al4 Ir1 2.597729 1_555
Al4 Ir0 2.597729 1_555
Al4 Ir3 2.597736 1_555
Al4 Al5 2.733158 1_555
Al4 Al6 2.733159 1_555
Al4 Zr3 2.926034 1_655
Al4 Zr4 2.926034 1_655
Al4 Zr1 2.926039 1_655
Al4 Zr8 3.083500 1_555
Al4 Zr0 3.083507 1_555
Al4 Zr9 3.083508 1_555
Al5 Ir0 2.597734 1_555
Al5 Ir2 2.597734 1_555
Al5 Ir1 2.597734 1_555
Al5 Al6 2.733159 1_555
Al5 Zr5 2.926030 1_555
Al5 Zr1 2.926030 1_555
Al5 Zr10 2.926030 1_555
Al5 Zr6 3.083504 1_555
Al5 Zr8 3.083504 1_555
Al5 Zr11 3.083504 1_555
Al6 Ir0 2.597729 1_555
Al6 Ir2 2.597729 1_555
Al6 Ir3 2.597736 1_555
Al6 Zr2 2.926034 1_556
Al6 Zr4 2.926034 1_556
Al6 Zr10 2.926039 1_556
Al6 Zr11 3.083500 1_555
Al6 Zr7 3.083507 1_555
Al6 Zr9 3.083507 1_555
Al7 Ir1 2.597729 1_556
Al7 Ir2 2.597729 1_655
Al7 Ir3 2.597736 1_555
Al7 Zr11 2.926034 1_655
Al7 Zr8 2.926034 1_556
Al7 Zr9 2.926039 1_555
Al7 Zr4 3.083500 1_656
Al7 Zr10 3.083508 1_556
Al7 Zr1 3.083508 1_655
Ir0 Zr9 3.081596 1_555
Ir0 Zr5 3.081596 1_555
Ir0 Zr3 3.081596 1_655
Ir0 Zr11 3.081596 1_555
Ir0 Zr2 3.081597 1_556
Ir0 Zr8 3.081597 1_555
Ir1 Zr0 3.081596 1_555
Ir1 Zr10 3.081596 1_555
Ir1 Zr2 3.081596 1_565
Ir1 Zr8 3.081596 1_555
Ir1 Zr4 3.081596 1_655
Ir1 Zr6 3.081596 1_555
Ir2 Zr7 3.081596 1_555
Ir2 Zr1 3.081596 1_555
Ir2 Zr3 3.081596 1_565
Ir2 Zr11 3.081596 1_555
Ir2 Zr4 3.081597 1_556
Ir2 Zr6 3.081597 1_555
Ir3 Zr5 3.081596 1_565
Ir3 Zr9 3.081596 1_555
Ir3 Zr7 3.081596 1_555
Ir3 Zr1 3.081596 1_655
Ir3 Zr10 3.081597 1_556
Ir3 Zr0 3.081597 1_555
N0 Zr6 2.288533 1_555
N0 Zr4 2.288533 1_555
N0 Zr10 2.288533 1_555
N0 Zr0 2.288533 1_455
N0 Zr1 2.288533 1_555
N0 Zr7 2.288533 1_554
N1 Zr11 2.288533 1_555
N1 Zr3 2.288533 1_555
N1 Zr1 2.288533 1_555
N1 Zr7 2.288533 1_545
N1 Zr5 2.288533 1_555
N1 Zr9 2.288533 1_455
N2 Zr8 2.288533 1_555
N2 Zr2 2.288533 1_555
N2 Zr10 2.288533 1_555
N2 Zr0 2.288533 1_545
N2 Zr5 2.288533 1_555
N2 Zr9 2.288533 1_554
N3 Zr4 2.288533 1_555
N3 Zr6 2.288533 1_545
N3 Zr2 2.288533 1_555
N3 Zr8 2.288533 1_455
N3 Zr3 2.288533 1_555
N3 Zr11 2.288533 1_554
