# generated using pymatgen
data_Cs3AsPPt3
_symmetry_space_group_name_H-M   'P 1'
_cell_length_a   8.05021914
_cell_length_b   8.05021823
_cell_length_c   8.05021772
_cell_angle_alpha   45.33491618
_cell_angle_beta   45.33492004
_cell_angle_gamma   45.33491039
_symmetry_Int_Tables_number   1
_chemical_formula_structural   Cs3AsPPt3
_chemical_formula_sum   'Cs3 As1 P1 Pt3'
_cell_volume   240.36802397
_cell_formula_units_Z   1
loop_
 _symmetry_equiv_pos_site_id
 _symmetry_equiv_pos_as_xyz
  1  'x, y, z'
loop_
 _atom_site_type_symbol
 _atom_site_label
 _atom_site_symmetry_multiplicity
 _atom_site_fract_x
 _atom_site_fract_y
 _atom_site_fract_z
 _atom_site_occupancy
  Cs  Cs0  1  0.08855237  0.08855237  0.08855237  1
  Cs  Cs1  1  0.50064933  0.50064933  0.50064933  1
  Cs  Cs2  1  0.91231138  0.91231138  0.91231138  1
  As  As0  1  0.25398448  0.25398448  0.25398448  1
  P  P0  1  0.72552110  0.72552110  0.72552110  1
  Pt  Pt0  1  0.49178103  0.49178103  0.03542028  1
  Pt  Pt1  1  0.49178103  0.03542028  0.49178003  1
  Pt  Pt2  1  0.03542028  0.49178103  0.49178003  1
loop_
_geom_bond_atom_site_label_1
_geom_bond_atom_site_label_2
_geom_bond_distance
_geom_bond_site_symmetry_2
Cs0 Pt0 3.579363 1_545
Cs0 Pt0 3.579364 1_455
Cs0 Pt2 3.579365 1_545
Cs0 Pt1 3.579365 1_455
Cs0 Pt2 3.579370 1_554
Cs0 Pt1 3.579370 1_554
Cs0 P0 3.639478 1_454
Cs0 P0 3.639478 1_544
Cs0 P0 3.639479 1_445
Cs0 Cs1 3.966745 1_545
Cs0 Cs1 3.966746 1_455
Cs0 Cs1 3.966746 1_554
Cs1 Pt0 3.846513 1_555
Cs1 Pt1 3.846519 1_555
Cs1 Pt2 3.846520 1_555
Cs1 Cs2 3.962715 1_545
Cs1 Cs2 3.962715 1_455
Cs1 Cs2 3.962716 1_554
Cs1 Pt1 4.205512 1_565
Cs1 Pt2 4.205513 1_655
Cs1 Pt0 4.205517 1_556
Cs1 P0 4.282042 1_545
Cs1 P0 4.282042 1_554
Cs1 P0 4.282043 1_455
Cs2 Pt2 3.712658 1_656
Cs2 Pt1 3.712658 1_566
Cs2 Pt2 3.712663 1_665
Cs2 Pt1 3.712664 1_665
Cs2 Pt0 3.712664 1_566
Cs2 Pt0 3.712665 1_656
Cs2 P0 4.039833 1_555
As0 Pt2 2.471074 1_555
As0 Pt1 2.471074 1_555
As0 Pt0 2.471081 1_555
As0 Cs0 3.577906 1_555
As0 Cs2 3.586891 1_454
As0 Cs2 3.586892 1_544
As0 Cs2 3.586892 1_445
As0 Cs1 4.043113 1_545
As0 Cs1 4.043113 1_554
As0 Cs1 4.043114 1_455
P0 Pt0 2.254632 1_556
P0 Pt1 2.254636 1_565
P0 Pt2 2.254636 1_655
