# generated using pymatgen
data_Hf16Nb3Ni4Hg
_symmetry_space_group_name_H-M   'P 1'
_cell_length_a   8.76904761
_cell_length_b   8.76904697
_cell_length_c   8.76904854
_cell_angle_alpha   59.61744913
_cell_angle_beta   59.61745026
_cell_angle_gamma   59.61745471
_symmetry_Int_Tables_number   1
_chemical_formula_structural   Hf16Nb3Ni4Hg
_chemical_formula_sum   'Hf16 Nb3 Ni4 Hg1'
_cell_volume   472.66130968
_cell_formula_units_Z   1
loop_
 _symmetry_equiv_pos_site_id
 _symmetry_equiv_pos_as_xyz
  1  'x, y, z'
loop_
 _atom_site_type_symbol
 _atom_site_label
 _atom_site_symmetry_multiplicity
 _atom_site_fract_x
 _atom_site_fract_y
 _atom_site_fract_z
 _atom_site_occupancy
  Hf  Hf0  1  0.70407891  0.09738760  0.09738760  1
  Hf  Hf1  1  0.09738760  0.70407891  0.09738760  1
  Hf  Hf2  1  0.09738760  0.09738760  0.70407891  1
  Hf  Hf3  1  0.10154310  0.10154310  0.10154310  1
  Hf  Hf4  1  0.31574249  0.31574249  0.69289498  1
  Hf  Hf5  1  0.68624645  0.68624645  0.31509296  1
  Hf  Hf6  1  0.31574249  0.69289498  0.31574249  1
  Hf  Hf7  1  0.68624645  0.31509296  0.68624645  1
  Hf  Hf8  1  0.69289498  0.31574249  0.31574249  1
  Hf  Hf9  1  0.31509296  0.68624645  0.68624645  1
  Hf  Hf10  1  0.95010148  0.95010148  0.54799503  1
  Hf  Hf11  1  0.55556657  0.55556657  0.94083567  1
  Hf  Hf12  1  0.95010148  0.54799503  0.95010148  1
  Hf  Hf13  1  0.55556657  0.94083567  0.55556657  1
  Hf  Hf14  1  0.54799503  0.95010148  0.95010148  1
  Hf  Hf15  1  0.94083567  0.55556657  0.55556657  1
  Nb  Nb0  1  0.99487605  0.33187129  0.33187129  1
  Nb  Nb1  1  0.33187129  0.99487605  0.33187129  1
  Nb  Nb2  1  0.33187129  0.33187129  0.99487605  1
  Ni  Ni0  1  0.32547551  0.88963835  0.88963835  1
  Ni  Ni1  1  0.88963835  0.32547551  0.88963835  1
  Ni  Ni2  1  0.88963835  0.88963835  0.32547551  1
  Ni  Ni3  1  0.89108612  0.89108612  0.89108612  1
  Hg  Hg0  1  0.33300921  0.33300921  0.33300921  1
loop_
_geom_bond_atom_site_label_1
_geom_bond_atom_site_label_2
_geom_bond_distance
_geom_bond_site_symmetry_2
Hf0 Ni3 2.558001 1_544
Hf0 Ni1 2.564129 1_554
Hf0 Ni2 2.564129 1_545
Hf0 Hg0 3.137356 1_555
Hf0 Hf5 3.158064 1_545
Hf0 Hf7 3.158065 1_554
Hf0 Nb1 3.162053 1_545
Hf0 Nb2 3.162054 1_554
Hf0 Hf8 3.266649 1_555
Hf1 Ni3 2.558001 1_454
Hf1 Ni0 2.564129 1_554
Hf1 Ni2 2.564129 1_455
Hf1 Hg0 3.137356 1_555
Hf1 Hf5 3.158065 1_455
Hf1 Hf9 3.158065 1_554
Hf1 Nb0 3.162053 1_455
Hf1 Nb2 3.162053 1_554
Hf1 Hf6 3.266650 1_555
Hf2 Ni3 2.558001 1_445
Hf2 Ni1 2.564129 1_455
Hf2 Ni0 2.564129 1_545
Hf2 Hg0 3.137356 1_555
Hf2 Hf9 3.158065 1_545
Hf2 Hf7 3.158065 1_455
Hf2 Nb0 3.162054 1_455
Hf2 Nb1 3.162054 1_545
Hf2 Hf4 3.266649 1_555
Hf3 Ni2 2.621561 1_445
Hf3 Ni0 2.621561 1_544
Hf3 Ni1 2.621561 1_454
Hf3 Nb2 3.055851 1_554
Hf3 Nb0 3.055852 1_455
Hf3 Nb1 3.055852 1_545
Hf3 Hf6 3.138315 1_545
Hf3 Hf4 3.138315 1_554
Hf3 Hf8 3.138315 1_455
Hf4 Nb2 2.798269 1_555
Hf4 Hg0 3.010276 1_555
Hf4 Ni0 3.201705 1_545
Hf4 Ni1 3.201705 1_455
Hf4 Hf9 3.217022 1_555
Hf4 Hf7 3.217022 1_555
Hf4 Hf6 3.288126 1_555
Hf4 Hf8 3.288126 1_555
Hf5 Nb0 2.904476 1_555
Hf5 Nb1 2.904476 1_555
Hf5 Ni2 3.149080 1_555
Hf5 Ni3 3.166976 1_554
Hf5 Hf8 3.217022 1_555
Hf5 Hf6 3.217022 1_555
Hf5 Hf7 3.235825 1_555
Hf5 Hf9 3.235826 1_555
Hf6 Nb1 2.798269 1_555
Hf6 Hg0 3.010276 1_555
Hf6 Ni2 3.201706 1_455
Hf6 Ni0 3.201706 1_554
Hf6 Hf9 3.217022 1_555
Hf6 Hf8 3.288126 1_555
Hf7 Nb2 2.904476 1_555
Hf7 Nb0 2.904476 1_555
Hf7 Ni1 3.149081 1_555
Hf7 Ni3 3.166976 1_545
Hf7 Hf8 3.217022 1_555
Hf7 Hf9 3.235825 1_555
Hf8 Nb0 2.798269 1_555
Hf8 Hg0 3.010276 1_555
Hf8 Ni2 3.201705 1_545
Hf8 Ni1 3.201706 1_554
Hf9 Nb2 2.904476 1_555
Hf9 Nb1 2.904476 1_555
Hf9 Ni0 3.149080 1_555
Hf9 Ni3 3.166976 1_455
Hf10 Ni3 2.590025 1_555
Hf10 Ni2 2.597527 1_555
Hf10 Nb0 3.018679 1_565
Hf10 Nb1 3.018679 1_655
Hf10 Hf8 3.200212 1_565
Hf10 Hf6 3.200212 1_655
Hf10 Hf7 3.265560 1_565
Hf10 Hf9 3.265560 1_655
Hf11 Ni0 2.541933 1_555
Hf11 Ni1 2.541934 1_555
Hf11 Hg0 3.117518 1_556
Hf11 Nb2 3.151499 1_555
Hf11 Hf7 3.236333 1_555
Hf11 Hf9 3.236333 1_555
Hf11 Hf8 3.336219 1_556
Hf11 Hf6 3.336219 1_556
Hf12 Ni3 2.590024 1_555
Hf12 Ni1 2.597527 1_555
Hf12 Nb2 3.018679 1_655
Hf12 Nb0 3.018679 1_556
Hf12 Hf8 3.200212 1_556
Hf12 Hf4 3.200212 1_655
Hf12 Hf9 3.265560 1_655
Hf12 Hf5 3.265561 1_556
Hf13 Ni2 2.541934 1_555
Hf13 Ni0 2.541934 1_555
Hf13 Hg0 3.117518 1_565
Hf13 Nb1 3.151500 1_555
Hf13 Hf9 3.236332 1_555
Hf13 Hf5 3.236333 1_555
Hf13 Hf8 3.336218 1_565
Hf13 Hf4 3.336218 1_565
Hf14 Ni3 2.590025 1_555
Hf14 Ni0 2.597527 1_555
Hf14 Nb2 3.018679 1_565
Hf14 Nb1 3.018679 1_556
Hf14 Hf6 3.200212 1_556
Hf14 Hf4 3.200212 1_565
Hf14 Hf7 3.265560 1_565
Hf14 Hf5 3.265561 1_556
Hf15 Ni2 2.541933 1_555
Hf15 Ni1 2.541934 1_555
Hf15 Hg0 3.117518 1_655
Hf15 Nb0 3.151499 1_555
Hf15 Hf7 3.236332 1_555
Hf15 Hf5 3.236333 1_555
Hf15 Hf6 3.336218 1_655
Hf15 Hf4 3.336218 1_655
Nb0 Nb1 2.938024 1_645
Nb0 Nb2 2.938024 1_654
Nb1 Nb2 2.938024 1_564
Hg0 Nb1 2.975233 1_545
Hg0 Nb0 2.975233 1_455
Hg0 Nb2 2.975233 1_554
