# generated using pymatgen
data_Zr6Ti3Al13Pd7
_symmetry_space_group_name_H-M   'P 1'
_cell_length_a   8.81006557
_cell_length_b   8.81006613
_cell_length_c   8.81006541
_cell_angle_alpha   59.75927341
_cell_angle_beta   59.75927031
_cell_angle_gamma   59.75927587
_symmetry_Int_Tables_number   1
_chemical_formula_structural   Zr6Ti3Al13Pd7
_chemical_formula_sum   'Zr6 Ti3 Al13 Pd7'
_cell_volume   480.88589873
_cell_formula_units_Z   1
loop_
 _symmetry_equiv_pos_site_id
 _symmetry_equiv_pos_as_xyz
  1  'x, y, z'
loop_
 _atom_site_type_symbol
 _atom_site_label
 _atom_site_symmetry_multiplicity
 _atom_site_fract_x
 _atom_site_fract_y
 _atom_site_fract_z
 _atom_site_occupancy
  Zr  Zr0  1  0.68857834  0.68857834  0.31039503  1
  Zr  Zr1  1  0.31044656  0.68769333  0.31044656  1
  Zr  Zr2  1  0.68769333  0.31044656  0.31044656  1
  Zr  Zr3  1  0.31044656  0.31044656  0.68769333  1
  Zr  Zr4  1  0.68857834  0.31039503  0.68857834  1
  Zr  Zr5  1  0.31039503  0.68857834  0.68857834  1
  Ti  Ti0  1  0.88070394  0.88070394  0.35962835  1
  Ti  Ti1  1  0.88070394  0.35962835  0.88070394  1
  Ti  Ti2  1  0.35962835  0.88070394  0.88070394  1
  Al  Al0  1  0.88225643  0.88225643  0.88225643  1
  Al  Al1  1  0.12025143  0.12025143  0.64014016  1
  Al  Al2  1  0.12025143  0.64014016  0.12025143  1
  Al  Al3  1  0.64014016  0.12025143  0.12025143  1
  Al  Al4  1  0.12123921  0.12123921  0.12123921  1
  Al  Al5  1  0.66644164  0.66644164  0.99889905  1
  Al  Al6  1  0.66644164  0.99889905  0.66644164  1
  Al  Al7  1  0.99889905  0.66644164  0.66644164  1
  Al  Al8  1  0.66489421  0.66489421  0.66489421  1
  Al  Al9  1  0.33300002  0.33300002  0.00008170  1
  Al  Al10  1  0.33300002  0.00008170  0.33300002  1
  Al  Al11  1  0.00008170  0.33300002  0.33300002  1
  Al  Al12  1  0.33236898  0.33236898  0.33236898  1
  Pd  Pd0  1  0.00258752  0.00258752  0.00258752  1
  Pd  Pd1  1  0.99862494  0.99862494  0.50502164  1
  Pd  Pd2  1  0.49951694  0.99966577  0.49951694  1
  Pd  Pd3  1  0.99966577  0.49951694  0.49951694  1
  Pd  Pd4  1  0.49951694  0.49951694  0.99966577  1
  Pd  Pd5  1  0.99862494  0.50502164  0.99862494  1
  Pd  Pd6  1  0.50502164  0.99862494  0.99862494  1
loop_
_geom_bond_atom_site_label_1
_geom_bond_atom_site_label_2
_geom_bond_distance
_geom_bond_site_symmetry_2
Zr0 Zr5 3.319689 1_555
Zr0 Zr4 3.319689 1_555
Zr0 Zr1 3.335070 1_555
Zr0 Zr2 3.335071 1_555
Zr1 Zr5 3.335070 1_555
Zr2 Zr4 3.335070 1_555
Zr3 Zr4 3.335070 1_555
Zr3 Zr5 3.335071 1_555
Zr4 Zr5 3.319689 1_555
Ti0 Zr1 3.165198 1_655
Ti0 Zr2 3.165198 1_565
Ti0 Zr0 3.206724 1_555
Ti1 Zr2 3.165198 1_556
Ti1 Zr3 3.165198 1_655
Ti1 Zr4 3.206724 1_555
Ti2 Zr1 3.165198 1_556
Ti2 Zr3 3.165198 1_565
Ti2 Zr5 3.206724 1_555
Al0 Pd0 2.601479 1_666
Al0 Pd1 2.709647 1_555
Al0 Pd6 2.709647 1_555
Al0 Pd5 2.709647 1_555
Al0 Zr0 3.165026 1_556
Al0 Zr5 3.165026 1_655
Al0 Zr4 3.165026 1_565
Al1 Pd0 2.599928 1_556
Al1 Pd2 2.721882 1_545
Al1 Pd3 2.721882 1_455
Al1 Pd1 2.727572 1_445
Al1 Ti1 2.984454 1_455
Al1 Ti2 2.984454 1_545
Al1 Zr3 3.167547 1_555
Al1 Zr4 3.181175 1_455
Al1 Zr5 3.181175 1_545
Al2 Pd0 2.599928 1_565
Al2 Pd3 2.721882 1_455
Al2 Pd4 2.721882 1_554
Al2 Pd5 2.727572 1_454
Al2 Ti2 2.984454 1_554
Al2 Ti0 2.984454 1_455
Al2 Zr1 3.167547 1_555
Al2 Zr5 3.181175 1_554
Al2 Zr0 3.181175 1_455
Al3 Pd0 2.599928 1_655
Al3 Pd2 2.721882 1_545
Al3 Pd4 2.721882 1_554
Al3 Pd6 2.727572 1_544
Al3 Ti1 2.984454 1_554
Al3 Ti0 2.984454 1_545
Al3 Zr2 3.167547 1_555
Al3 Zr4 3.181175 1_554
Al3 Zr0 3.181175 1_545
Al4 Pd0 2.565171 1_555
Al4 Pd1 2.753798 1_445
Al4 Pd6 2.753798 1_544
Al4 Pd5 2.753798 1_454
Al4 Ti0 2.991611 1_445
Al4 Ti2 2.991611 1_544
Al4 Ti1 2.991611 1_454
Al4 Zr3 3.181006 1_554
Al4 Zr2 3.181006 1_455
Al4 Zr1 3.181006 1_545
Al5 Pd5 2.528110 1_555
Al5 Pd6 2.528110 1_555
Al5 Pd4 2.546350 1_555
Al5 Ti2 2.769432 1_555
Al5 Ti1 2.769432 1_555
Al5 Zr1 2.942865 1_556
Al5 Zr2 2.942866 1_556
Al5 Zr0 2.953602 1_556
Al6 Pd6 2.528110 1_555
Al6 Pd1 2.528110 1_555
Al6 Pd2 2.546350 1_555
Al6 Ti2 2.769432 1_555
Al6 Ti0 2.769432 1_555
Al6 Zr2 2.942866 1_565
Al6 Zr3 2.942866 1_565
Al6 Zr4 2.953602 1_565
Al7 Pd5 2.528110 1_555
Al7 Pd1 2.528110 1_555
Al7 Pd3 2.546350 1_555
Al7 Ti0 2.769432 1_555
Al7 Ti1 2.769432 1_555
Al7 Zr1 2.942865 1_655
Al7 Zr3 2.942866 1_655
Al7 Zr5 2.953602 1_655
Al8 Pd4 2.534907 1_555
Al8 Pd3 2.534907 1_555
Al8 Pd2 2.534907 1_555
Al8 Ti0 2.793373 1_555
Al8 Ti2 2.793373 1_555
Al8 Ti1 2.793374 1_555
Al8 Zr0 2.927839 1_555
Al8 Zr5 2.927840 1_555
Al8 Zr4 2.927840 1_555
Al9 Pd4 2.541911 1_554
Al9 Pd5 2.548846 1_454
Al9 Pd6 2.548846 1_544
Al9 Zr4 2.940620 1_554
Al9 Zr5 2.940620 1_554
Al9 Zr3 2.965598 1_554
Al10 Pd2 2.541911 1_545
Al10 Pd6 2.548846 1_544
Al10 Pd1 2.548846 1_445
Al10 Zr5 2.940620 1_545
Al10 Zr0 2.940620 1_545
Al10 Zr1 2.965598 1_545
Al11 Pd3 2.541911 1_455
Al11 Pd5 2.548846 1_454
Al11 Pd1 2.548846 1_445
Al11 Zr4 2.940620 1_455
Al11 Zr0 2.940620 1_455
Al11 Zr2 2.965598 1_455
Al12 Pd4 2.533259 1_554
Al12 Pd3 2.533259 1_455
Al12 Pd2 2.533259 1_545
Al12 Zr3 2.948521 1_555
Al12 Zr2 2.948521 1_555
Al12 Zr1 2.948521 1_555
Pd0 Ti0 2.560768 1_445
Pd0 Ti2 2.560768 1_544
Pd0 Ti1 2.560769 1_454
Pd1 Ti0 2.750878 1_555
Pd1 Zr4 3.176213 1_565
Pd1 Zr5 3.176214 1_655
Pd1 Zr1 3.224247 1_655
Pd1 Zr2 3.224247 1_565
Pd2 Ti2 2.735366 1_555
Pd2 Ti0 2.735366 1_555
Pd2 Zr2 3.196314 1_565
Pd2 Zr3 3.196314 1_565
Pd2 Zr5 3.204372 1_555
Pd2 Zr0 3.204372 1_555
Pd3 Ti1 2.735366 1_555
Pd3 Ti0 2.735367 1_555
Pd3 Zr1 3.196313 1_655
Pd3 Zr3 3.196314 1_655
Pd3 Zr4 3.204371 1_555
Pd3 Zr0 3.204372 1_555
Pd4 Ti1 2.735366 1_555
Pd4 Ti2 2.735367 1_555
Pd4 Zr1 3.196314 1_556
Pd4 Zr2 3.196314 1_556
Pd4 Zr4 3.204371 1_555
Pd4 Zr5 3.204371 1_555
Pd5 Ti1 2.750878 1_555
Pd5 Zr5 3.176213 1_655
Pd5 Zr0 3.176213 1_556
Pd5 Zr2 3.224247 1_556
Pd5 Zr3 3.224247 1_655
Pd6 Ti2 2.750878 1_555
Pd6 Zr4 3.176213 1_565
Pd6 Zr0 3.176213 1_556
Pd6 Zr1 3.224247 1_556
Pd6 Zr3 3.224247 1_565
