# generated using pymatgen
data_V4Ga(SeS)4
_symmetry_space_group_name_H-M   'P 1'
_cell_length_a   7.10665234
_cell_length_b   7.10665194
_cell_length_c   7.10665167
_cell_angle_alpha   60.00000127
_cell_angle_beta   60.00000316
_cell_angle_gamma   59.99999491
_symmetry_Int_Tables_number   1
_chemical_formula_structural   V4Ga(SeS)4
_chemical_formula_sum   'V4 Ga1 Se4 S4'
_cell_volume   253.79329535
_cell_formula_units_Z   1
loop_
 _symmetry_equiv_pos_site_id
 _symmetry_equiv_pos_as_xyz
  1  'x, y, z'
loop_
 _atom_site_type_symbol
 _atom_site_label
 _atom_site_symmetry_multiplicity
 _atom_site_fract_x
 _atom_site_fract_y
 _atom_site_fract_z
 _atom_site_occupancy
  V  V0  1  0.39831597  0.39831597  0.80505009  1
  V  V1  1  0.39831597  0.80505009  0.39831597  1
  V  V2  1  0.80505009  0.39831597  0.39831597  1
  V  V3  1  0.39831597  0.39831597  0.39831597  1
  Ga  Ga0  1  0.00000000  0.00000000  0.00000000  1
  Se  Se0  1  0.13658738  0.13658738  0.59023986  1
  Se  Se1  1  0.13658738  0.59023986  0.13658738  1
  Se  Se2  1  0.59023986  0.13658738  0.13658738  1
  Se  Se3  1  0.13658738  0.13658738  0.13658738  1
  S  S0  1  0.62551912  0.62551912  0.12344265  1
  S  S1  1  0.62551912  0.12344265  0.62551912  1
  S  S2  1  0.12344265  0.62551912  0.62551912  1
  S  S3  1  0.62551912  0.62551912  0.62551912  1
loop_
_geom_bond_atom_site_label_1
_geom_bond_atom_site_label_2
_geom_bond_distance
_geom_bond_site_symmetry_2
Ga0 Se1 2.377657 1_545
Ga0 Se0 2.377657 1_554
Ga0 Se2 2.377657 1_455
Ga0 Se3 2.377668 1_555
Se0 V3 2.676826 1_555
Se0 V1 2.676848 1_545
Se0 V2 2.676848 1_455
Se1 V3 2.676826 1_555
Se1 V0 2.676848 1_554
Se1 V2 2.676849 1_455
Se2 V3 2.676826 1_555
Se2 V0 2.676848 1_554
Se2 V1 2.676849 1_545
Se3 V1 2.676831 1_545
Se3 V2 2.676831 1_455
Se3 V0 2.676831 1_554
S0 V2 2.308450 1_555
S0 V1 2.308450 1_555
S0 V3 2.308459 1_555
S1 V0 2.308450 1_555
S1 V2 2.308450 1_555
S1 V3 2.308459 1_555
S2 V0 2.308450 1_555
S2 V1 2.308450 1_555
S2 V3 2.308459 1_555
S3 V2 2.308461 1_555
S3 V1 2.308461 1_555
S3 V0 2.308461 1_555
