# generated using pymatgen
data_VGaHgO5
_symmetry_space_group_name_H-M   'P 1'
_cell_length_a   5.97841330
_cell_length_b   8.22353763
_cell_length_c   8.56227848
_cell_angle_alpha   90.00000000
_cell_angle_beta   90.00000000
_cell_angle_gamma   90.00000000
_symmetry_Int_Tables_number   1
_chemical_formula_structural   VGaHgO5
_chemical_formula_sum   'V4 Ga4 Hg4 O20'
_cell_volume   420.95334820
_cell_formula_units_Z   4
loop_
 _symmetry_equiv_pos_site_id
 _symmetry_equiv_pos_as_xyz
  1  'x, y, z'
loop_
 _atom_site_type_symbol
 _atom_site_label
 _atom_site_symmetry_multiplicity
 _atom_site_fract_x
 _atom_site_fract_y
 _atom_site_fract_z
 _atom_site_occupancy
  V  V0  1  0.75000000  0.31233688  0.71148912  1
  V  V1  1  0.75000000  0.81233688  0.78851088  1
  V  V2  1  0.25000000  0.68766312  0.28851088  1
  V  V3  1  0.25000000  0.18766312  0.21148912  1
  Ga  Ga0  1  0.00000000  0.00000000  0.50000000  1
  Ga  Ga1  1  0.50000000  0.50000000  0.00000000  1
  Ga  Ga2  1  0.50000000  0.00000000  0.50000000  1
  Ga  Ga3  1  0.00000000  0.50000000  0.00000000  1
  Hg  Hg0  1  0.25000000  0.56702272  0.65954114  1
  Hg  Hg1  1  0.25000000  0.06702272  0.84045886  1
  Hg  Hg2  1  0.75000000  0.43297728  0.34045886  1
  Hg  Hg3  1  0.75000000  0.93297728  0.15954114  1
  O  O0  1  0.52066767  0.33382493  0.82787360  1
  O  O1  1  0.97933233  0.83382493  0.67212640  1
  O  O2  1  0.02066767  0.66617507  0.17212640  1
  O  O3  1  0.47933233  0.16617507  0.32787360  1
  O  O4  1  0.47933233  0.66617507  0.17212640  1
  O  O5  1  0.02066767  0.16617507  0.32787360  1
  O  O6  1  0.97933233  0.33382493  0.82787360  1
  O  O7  1  0.52066767  0.83382493  0.67212640  1
  O  O8  1  0.75000000  0.12620472  0.61028740  1
  O  O9  1  0.75000000  0.62620472  0.88971260  1
  O  O10  1  0.25000000  0.87379528  0.38971260  1
  O  O11  1  0.25000000  0.37379528  0.11028740  1
  O  O12  1  0.25000000  0.09932811  0.60356408  1
  O  O13  1  0.25000000  0.59932811  0.89643592  1
  O  O14  1  0.75000000  0.90067189  0.39643592  1
  O  O15  1  0.75000000  0.40067189  0.10356408  1
  O  O16  1  0.75000000  0.46984726  0.57585815  1
  O  O17  1  0.75000000  0.96984726  0.92414185  1
  O  O18  1  0.25000000  0.53015274  0.42414185  1
  O  O19  1  0.25000000  0.03015274  0.07585815  1
loop_
_geom_bond_atom_site_label_1
_geom_bond_atom_site_label_2
_geom_bond_distance
_geom_bond_site_symmetry_2
Ga0 O12 1.920251 1_555
Ga0 O14 1.920251 1_445
Ga0 O1 2.013650 1_445
Ga0 O5 2.013650 1_555
Ga0 O8 2.050047 1_455
Ga0 O10 2.050047 1_545
Ga1 O15 1.920251 1_555
Ga1 O13 1.920251 1_554
Ga1 O4 2.013650 1_555
Ga1 O0 2.013650 1_554
Ga1 O9 2.050047 1_554
Ga1 O11 2.050047 1_555
Ga2 O12 1.920251 1_555
Ga2 O14 1.920251 1_545
Ga2 O7 2.013650 1_545
Ga2 O3 2.013650 1_555
Ga2 O8 2.050047 1_555
Ga2 O10 2.050047 1_545
Ga3 O15 1.920251 1_455
Ga3 O13 1.920251 1_554
Ga3 O2 2.013650 1_555
Ga3 O6 2.013650 1_454
Ga3 O9 2.050047 1_454
Ga3 O11 2.050047 1_555
Hg0 O18 2.038232 1_555
Hg0 O13 2.045683 1_555
Hg1 O19 2.038232 1_556
Hg1 O12 2.045683 1_555
Hg2 O16 2.038232 1_555
Hg2 O15 2.045683 1_555
Hg3 O17 2.038232 1_554
Hg3 O14 2.045683 1_555
O0 V0 1.704122 1_555
O1 V1 1.704122 1_555
O2 V2 1.704122 1_555
O3 V3 1.704122 1_555
O4 V2 1.704122 1_555
O5 V3 1.704122 1_555
O6 V0 1.704122 1_555
O7 V1 1.704122 1_555
O8 V0 1.758916 1_555
O9 V1 1.758916 1_555
O10 V2 1.758916 1_555
O11 V3 1.758916 1_555
O16 V0 1.739662 1_555
O17 V1 1.739662 1_555
O18 V2 1.739662 1_555
O19 V3 1.739662 1_555
