# generated using pymatgen
data_VIr5RhW
_symmetry_space_group_name_H-M   'P 1'
_cell_length_a   5.47278747
_cell_length_b   5.47278795
_cell_length_c   4.35952180
_cell_angle_alpha   90.00000000
_cell_angle_beta   90.00000000
_cell_angle_gamma   119.92388021
_symmetry_Int_Tables_number   1
_chemical_formula_structural   VIr5RhW
_chemical_formula_sum   'V1 Ir5 Rh1 W1'
_cell_volume   113.16686813
_cell_formula_units_Z   1
loop_
 _symmetry_equiv_pos_site_id
 _symmetry_equiv_pos_as_xyz
  1  'x, y, z'
loop_
 _atom_site_type_symbol
 _atom_site_label
 _atom_site_symmetry_multiplicity
 _atom_site_fract_x
 _atom_site_fract_y
 _atom_site_fract_z
 _atom_site_occupancy
  V  V0  1  0.66629656  0.33370344  0.25000000  1
  Ir  Ir0  1  0.16484308  0.33160466  0.25000000  1
  Ir  Ir1  1  0.66839534  0.83515692  0.25000000  1
  Ir  Ir2  1  0.16587100  0.83412900  0.25000000  1
  Ir  Ir3  1  0.83243830  0.66391261  0.75000000  1
  Ir  Ir4  1  0.33608739  0.16756170  0.75000000  1
  Rh  Rh0  1  0.83197906  0.16802094  0.75000000  1
  W  W0  1  0.33409026  0.66590974  0.75000000  1
loop_
_geom_bond_atom_site_label_1
_geom_bond_atom_site_label_2
_geom_bond_distance
_geom_bond_site_symmetry_2
Ir0 Rh0 2.691520 1_455
Ir0 Rh0 2.691520 1_454
Ir0 W0 2.695536 1_554
Ir0 W0 2.695536 1_555
Ir0 Ir4 2.697241 1_555
Ir0 Ir4 2.697241 1_554
Ir0 Ir1 2.720079 1_445
Ir0 Ir2 2.725389 1_545
Ir0 V0 2.734187 1_455
Ir0 V0 2.738637 1_555
Ir0 Ir2 2.747407 1_555
Ir0 Ir1 2.759005 1_555
Ir1 Rh0 2.691520 1_565
Ir1 Rh0 2.691520 1_564
Ir1 W0 2.695536 1_554
Ir1 W0 2.695536 1_555
Ir1 Ir3 2.697241 1_554
Ir1 Ir3 2.697241 1_555
Ir1 Ir2 2.725389 1_655
Ir1 V0 2.734187 1_565
Ir1 V0 2.738637 1_555
Ir1 Ir2 2.747407 1_555
Ir2 Ir3 2.693154 1_454
Ir2 Ir3 2.693154 1_455
Ir2 Ir4 2.693154 1_565
Ir2 Ir4 2.693154 1_564
Ir2 W0 2.700384 1_554
Ir2 W0 2.700384 1_555
Ir2 V0 2.739545 1_565
Ir2 V0 2.739545 1_455
Ir3 V0 2.684130 1_555
Ir3 V0 2.684130 1_556
Ir3 Rh0 2.712657 1_555
Ir3 Ir4 2.719548 1_555
Ir3 W0 2.732822 1_555
Ir3 W0 2.739999 1_655
Ir3 Ir4 2.759535 1_665
Ir3 Rh0 2.760133 1_565
Ir4 V0 2.684130 1_555
Ir4 V0 2.684130 1_556
Ir4 Rh0 2.712657 1_555
Ir4 W0 2.732822 1_555
Ir4 W0 2.739999 1_545
Ir4 Rh0 2.760132 1_455
Rh0 V0 2.686266 1_556
Rh0 V0 2.686266 1_555
Rh0 W0 2.739615 1_655
Rh0 W0 2.739615 1_545
