# generated using pymatgen
data_Ca7NbV2N9
_symmetry_space_group_name_H-M   'P 1'
_cell_length_a   6.10428846
_cell_length_b   10.04693267
_cell_length_c   9.03902515
_cell_angle_alpha   90.00000000
_cell_angle_beta   92.13756358
_cell_angle_gamma   90.00000000
_symmetry_Int_Tables_number   1
_chemical_formula_structural   Ca7NbV2N9
_chemical_formula_sum   'Ca14 Nb2 V4 N18'
_cell_volume   553.97201779
_cell_formula_units_Z   2
loop_
 _symmetry_equiv_pos_site_id
 _symmetry_equiv_pos_as_xyz
  1  'x, y, z'
loop_
 _atom_site_type_symbol
 _atom_site_label
 _atom_site_symmetry_multiplicity
 _atom_site_fract_x
 _atom_site_fract_y
 _atom_site_fract_z
 _atom_site_occupancy
  Ca  Ca0  1  0.06882027  0.41827591  0.17150647  1
  Ca  Ca1  1  0.93117973  0.91827491  0.82849353  1
  Ca  Ca2  1  0.93117973  0.58172509  0.82849353  1
  Ca  Ca3  1  0.06882027  0.08172509  0.17150647  1
  Ca  Ca4  1  0.24604494  0.91882962  0.50906190  1
  Ca  Ca5  1  0.75395506  0.41882962  0.49093810  1
  Ca  Ca6  1  0.75395506  0.08117038  0.49093810  1
  Ca  Ca7  1  0.24604494  0.58117038  0.50906190  1
  Ca  Ca8  1  0.57781520  0.93239557  0.15900004  1
  Ca  Ca9  1  0.42218480  0.43239557  0.84099996  1
  Ca  Ca10  1  0.42218480  0.06760443  0.84099996  1
  Ca  Ca11  1  0.57781520  0.56760443  0.15900004  1
  Ca  Ca12  1  0.91070881  0.25000000  0.79911872  1
  Ca  Ca13  1  0.08929119  0.75000000  0.20088128  1
  Nb  Nb0  1  0.27756416  0.25000000  0.56234494  1
  Nb  Nb1  1  0.72243584  0.75000000  0.43765506  1
  V  V0  1  0.46002960  0.25000000  0.27502512  1
  V  V1  1  0.53997040  0.75000000  0.72497488  1
  V  V2  1  0.67597774  0.25000000  0.06471742  1
  V  V3  1  0.32402226  0.75000000  0.93528258  1
  N  N0  1  0.11329999  0.40056054  0.65689822  1
  N  N1  1  0.88670001  0.90056054  0.34310178  1
  N  N2  1  0.88670001  0.59943946  0.34310178  1
  N  N3  1  0.11329999  0.09943946  0.65689822  1
  N  N4  1  0.23206243  0.90462175  0.01909617  1
  N  N5  1  0.76793757  0.40462175  0.98090383  1
  N  N6  1  0.76793757  0.09537825  0.98090383  1
  N  N7  1  0.23206243  0.59537825  0.01909617  1
  N  N8  1  0.36800350  0.39377121  0.37243063  1
  N  N9  1  0.63199650  0.89377121  0.62756937  1
  N  N10  1  0.63199650  0.60622879  0.62756937  1
  N  N11  1  0.36800350  0.10622879  0.37243063  1
  N  N12  1  0.35741071  0.25000000  0.06760073  1
  N  N13  1  0.64258929  0.75000000  0.93239927  1
  N  N14  1  0.55315883  0.25000000  0.66882279  1
  N  N15  1  0.44684117  0.75000000  0.33117721  1
  N  N16  1  0.77822822  0.25000000  0.27107853  1
  N  N17  1  0.22177178  0.75000000  0.72892147  1
loop_
_geom_bond_atom_site_label_1
_geom_bond_atom_site_label_2
_geom_bond_distance
_geom_bond_site_symmetry_2
Ca0 N5 2.474751 1_454
Ca0 N7 2.481794 1_555
Ca0 N8 2.539092 1_555
Ca0 N16 2.633259 1_455
Ca0 N12 2.639551 1_555
Ca0 N2 2.661430 1_455
Ca1 N4 2.474751 1_656
Ca1 N6 2.481801 1_565
Ca1 N9 2.539091 1_555
Ca1 N17 2.633252 1_655
Ca1 N13 2.639544 1_555
Ca1 N3 2.661437 1_665
Ca2 N7 2.474751 1_656
Ca2 N5 2.481801 1_555
Ca2 N10 2.539091 1_555
Ca2 N17 2.633252 1_655
Ca2 N13 2.639544 1_555
Ca2 N0 2.661437 1_655
Ca3 N6 2.474751 1_454
Ca3 N4 2.481801 1_545
Ca3 N11 2.539091 1_555
Ca3 N16 2.633252 1_455
Ca3 N12 2.639544 1_555
Ca3 N1 2.661437 1_445
Ca4 N11 2.385994 1_565
Ca4 N3 2.411587 1_565
Ca4 N9 2.563810 1_555
Ca4 N1 2.617291 1_455
Ca4 N17 2.621165 1_555
Ca4 N15 2.666819 1_555
Ca5 N10 2.385994 1_555
Ca5 N2 2.411587 1_555
Ca5 N8 2.563810 1_555
Ca5 N0 2.617291 1_655
Ca5 N16 2.621165 1_555
Ca5 N14 2.666819 1_555
Ca6 N9 2.385994 1_545
Ca6 N1 2.411587 1_545
Ca6 N11 2.563810 1_555
Ca6 N3 2.617291 1_655
Ca6 N16 2.621165 1_555
Ca6 N14 2.666819 1_555
Ca7 N8 2.385994 1_555
Ca7 N0 2.411587 1_555
Ca7 N10 2.563810 1_555
Ca7 N2 2.617291 1_455
Ca7 N17 2.621165 1_555
Ca7 N15 2.666819 1_555
Ca8 N4 2.435670 1_555
Ca8 N1 2.488505 1_555
Ca8 N15 2.551912 1_555
Ca8 N6 2.599829 1_564
Ca8 N13 2.787508 1_554
Ca8 N11 2.932013 1_565
Ca9 N5 2.435670 1_555
Ca9 N0 2.488505 1_555
Ca9 N14 2.551912 1_555
Ca9 N7 2.599829 1_556
Ca9 N12 2.787508 1_556
Ca9 N10 2.932013 1_555
Ca10 N6 2.435670 1_555
Ca10 N3 2.488505 1_555
Ca10 N14 2.551912 1_555
Ca10 N4 2.599829 1_546
Ca10 N12 2.787508 1_556
Ca10 N9 2.932013 1_545
Ca11 N7 2.435670 1_555
Ca11 N2 2.488505 1_555
Ca11 N15 2.551912 1_555
Ca11 N5 2.599829 1_554
Ca11 N13 2.787508 1_554
Ca11 N8 2.932013 1_555
Ca12 N0 2.364050 1_655
Ca12 N3 2.364050 1_655
Ca12 N14 2.441112 1_555
Ca12 N5 2.445327 1_555
Ca12 N6 2.445327 1_555
Ca13 N1 2.364050 1_455
Ca13 N2 2.364050 1_455
Ca13 N15 2.441112 1_555
Ca13 N4 2.445327 1_555
Ca13 N7 2.445327 1_555
N0 Nb0 2.021881 1_555
N1 Nb1 2.021881 1_555
N2 Nb1 2.021881 1_555
N3 Nb0 2.021881 1_555
N4 V3 1.825943 1_554
N5 V2 1.825943 1_556
N6 V2 1.825943 1_556
N7 V3 1.825943 1_554
N8 V0 1.792797 1_555
N8 Nb0 2.325681 1_555
N9 V1 1.792797 1_555
N9 Nb1 2.325681 1_555
N10 V1 1.792797 1_555
N10 Nb1 2.325681 1_555
N11 V0 1.792797 1_555
N11 Nb0 2.325681 1_555
N12 V2 1.945771 1_555
N12 V0 1.954504 1_555
N13 V3 1.945771 1_555
N13 V1 1.954504 1_555
N14 Nb0 1.906752 1_555
N15 Nb1 1.906752 1_555
N16 V0 1.944034 1_555
N16 V2 1.944759 1_555
N17 V1 1.944034 1_555
N17 V3 1.944759 1_555
