# generated using pymatgen
data_YCdNi3Pt
_symmetry_space_group_name_H-M   'P 1'
_cell_length_a   4.98401592
_cell_length_b   4.98401467
_cell_length_c   5.11611129
_cell_angle_alpha   60.85047871
_cell_angle_beta   60.85048472
_cell_angle_gamma   59.99998395
_symmetry_Int_Tables_number   1
_chemical_formula_structural   YCdNi3Pt
_chemical_formula_sum   'Y1 Cd1 Ni3 Pt1'
_cell_volume   91.00149408
_cell_formula_units_Z   1
loop_
 _symmetry_equiv_pos_site_id
 _symmetry_equiv_pos_as_xyz
  1  'x, y, z'
loop_
 _atom_site_type_symbol
 _atom_site_label
 _atom_site_symmetry_multiplicity
 _atom_site_fract_x
 _atom_site_fract_y
 _atom_site_fract_z
 _atom_site_occupancy
  Y  Y0  1  0.24886360  0.24886360  0.25340820  1
  Cd  Cd0  1  0.00544761  0.00544761  0.98365716  1
  Ni  Ni0  1  0.62508969  0.12084651  0.62897511  1
  Ni  Ni1  1  0.12084651  0.62508969  0.62897511  1
  Ni  Ni2  1  0.62508969  0.62508969  0.62897511  1
  Pt  Pt0  1  0.62466289  0.62466289  0.12601132  1
loop_
_geom_bond_atom_site_label_1
_geom_bond_atom_site_label_2
_geom_bond_distance
_geom_bond_site_symmetry_2
Cd0 Ni1 2.908840 1_545
Cd0 Ni0 2.908840 1_455
Cd0 Ni2 2.908841 1_455
Cd0 Ni2 2.908842 1_545
Cd0 Ni1 2.908844 1_555
Cd0 Ni0 2.908844 1_555
Cd0 Pt0 2.939857 1_456
Cd0 Pt0 2.939857 1_546
Cd0 Pt0 2.939858 1_446
Cd0 Ni2 3.080085 1_446
Cd0 Ni1 3.080087 1_546
Cd0 Ni0 3.080087 1_456
Cd0 Y0 3.089087 1_555
Cd0 Y0 3.095517 1_556
Cd0 Y0 3.095519 1_546
Cd0 Y0 3.095520 1_456
Ni0 Ni1 2.470859 1_645
Ni0 Ni2 2.470859 1_545
Ni0 Ni1 2.513155 1_555
Ni0 Ni2 2.513155 1_555
Ni0 Pt0 2.540824 1_546
Ni0 Pt0 2.575290 1_555
Ni0 Y0 2.955376 1_655
Ni0 Y0 2.955385 1_555
Ni0 Y0 3.013744 1_556
Ni1 Ni2 2.470860 1_455
Ni1 Ni2 2.513156 1_555
Ni1 Pt0 2.540824 1_456
Ni1 Pt0 2.575290 1_555
Ni1 Y0 2.955376 1_565
Ni1 Y0 2.955385 1_555
Ni1 Y0 3.013744 1_556
Ni2 Pt0 2.540822 1_556
Ni2 Pt0 2.575293 1_555
Ni2 Y0 2.955380 1_565
Ni2 Y0 2.955380 1_655
Ni2 Y0 3.013748 1_556
Pt0 Y0 2.927550 1_565
Pt0 Y0 2.927551 1_655
Pt0 Y0 2.927555 1_555
