# generated using pymatgen
data_CaYNbIr3
_symmetry_space_group_name_H-M   'P 1'
_cell_length_a   5.23424329
_cell_length_b   5.64942833
_cell_length_c   5.64942872
_cell_angle_alpha   59.99999776
_cell_angle_beta   57.33946929
_cell_angle_gamma   57.33947102
_symmetry_Int_Tables_number   1
_chemical_formula_structural   CaYNbIr3
_chemical_formula_sum   'Ca1 Y1 Nb1 Ir3'
_cell_volume   113.15110792
_cell_formula_units_Z   1
loop_
 _symmetry_equiv_pos_site_id
 _symmetry_equiv_pos_as_xyz
  1  'x, y, z'
loop_
 _atom_site_type_symbol
 _atom_site_label
 _atom_site_symmetry_multiplicity
 _atom_site_fract_x
 _atom_site_fract_y
 _atom_site_fract_z
 _atom_site_occupancy
  Ca  Ca0  1  0.50006317  0.49997861  0.49997861  1
  Y  Y0  1  0.74946435  0.75017855  0.75017855  1
  Nb  Nb0  1  0.62665329  0.12444924  0.12444924  1
  Ir  Ir0  1  0.12460640  0.12568140  0.12568140  1
  Ir  Ir1  1  0.12460640  0.12568140  0.62403081  1
  Ir  Ir2  1  0.12460640  0.62403081  0.12568140  1
loop_
_geom_bond_atom_site_label_1
_geom_bond_atom_site_label_2
_geom_bond_distance
_geom_bond_site_symmetry_2
Ca0 Ir0 3.029670 1_655
Ca0 Ir2 3.029673 1_655
Ca0 Ir1 3.029673 1_655
Ca0 Y0 3.072749 1_455
Ca0 Ir1 3.215812 1_555
Ca0 Ir2 3.215812 1_555
Ca0 Ir0 3.215815 1_556
Ca0 Ir0 3.215815 1_565
Ca0 Ir1 3.215817 1_565
Ca0 Ir2 3.215817 1_556
Ca0 Nb0 3.302605 1_555
Ca0 Nb0 3.302614 1_565
Ca0 Nb0 3.302614 1_556
Ca0 Y0 3.417758 1_545
Ca0 Y0 3.417758 1_554
Ca0 Y0 3.417763 1_555
Nb0 Y0 3.300217 1_554
Nb0 Y0 3.300217 1_545
Nb0 Y0 3.300222 1_544
Ir0 Nb0 2.613938 1_455
Ir0 Nb0 2.620339 1_555
Ir0 Ir2 2.815389 1_555
Ir0 Ir1 2.815389 1_555
Ir0 Ir2 2.834039 1_545
Ir0 Ir1 2.834039 1_554
Ir0 Y0 3.036548 1_544
Ir0 Y0 3.215199 1_445
Ir0 Y0 3.215199 1_454
Ir1 Nb0 2.613941 1_456
Ir1 Nb0 2.620336 1_555
Ir1 Ir2 2.815389 1_555
Ir1 Ir2 2.834039 1_546
Ir1 Y0 3.036548 1_545
Ir1 Y0 3.215199 1_445
Ir1 Y0 3.215199 1_455
Ir2 Nb0 2.613941 1_465
Ir2 Nb0 2.620336 1_555
Ir2 Y0 3.036547 1_554
Ir2 Y0 3.215199 1_455
Ir2 Y0 3.215199 1_454
