# generated using pymatgen
data_RbSb(CO3)2
_symmetry_space_group_name_H-M   'P 1'
_cell_length_a   6.79379024
_cell_length_b   6.79378298
_cell_length_c   7.37054789
_cell_angle_alpha   105.87376022
_cell_angle_beta   105.87416048
_cell_angle_gamma   96.16874373
_symmetry_Int_Tables_number   1
_chemical_formula_structural   RbSb(CO3)2
_chemical_formula_sum   'Rb2 Sb2 C4 O12'
_cell_volume   308.57190174
_cell_formula_units_Z   2
loop_
 _symmetry_equiv_pos_site_id
 _symmetry_equiv_pos_as_xyz
  1  'x, y, z'
loop_
 _atom_site_type_symbol
 _atom_site_label
 _atom_site_symmetry_multiplicity
 _atom_site_fract_x
 _atom_site_fract_y
 _atom_site_fract_z
 _atom_site_occupancy
  Rb  Rb0  1  0.87233404  0.12771638  0.25001720  1
  Rb  Rb1  1  0.12771938  0.87233404  0.75001620  1
  Sb  Sb0  1  0.42730892  0.57264778  0.24999807  1
  Sb  Sb1  1  0.57264378  0.42730792  0.74999607  1
  C  C0  1  0.39274045  0.17416569  0.22158380  1
  C  C1  1  0.82581590  0.60723518  0.27839516  1
  C  C2  1  0.17416669  0.39274045  0.72158480  1
  C  C3  1  0.60723618  0.82581890  0.77839216  1
  O  O0  1  0.66490019  0.47780596  0.12504019  1
  O  O1  1  0.26250120  0.24102631  0.09559775  1
  O  O2  1  0.40442504  0.99020514  0.20231277  1
  O  O3  1  0.00981357  0.59558125  0.29767405  1
  O  O4  1  0.75901224  0.73742290  0.40442423  1
  O  O5  1  0.52221146  0.33512438  0.37496579  1
  O  O6  1  0.47780596  0.66490219  0.62503819  1
  O  O7  1  0.24102431  0.26250320  0.59559975  1
  O  O8  1  0.99020314  0.40442304  0.70231577  1
  O  O9  1  0.59558625  0.00981357  0.79766605  1
  O  O10  1  0.73742590  0.75901424  0.90442223  1
  O  O11  1  0.33512338  0.52221246  0.87496379  1
loop_
_geom_bond_atom_site_label_1
_geom_bond_atom_site_label_2
_geom_bond_distance
_geom_bond_site_symmetry_2
C0 O2 1.232407 1_545
C0 O1 1.311163 1_555
C0 O5 1.349282 1_555
C1 O3 1.232606 1_655
C1 O4 1.310947 1_555
C1 O0 1.348949 1_555
C2 O8 1.232427 1_455
C2 O7 1.311146 1_555
C2 O11 1.349266 1_555
C3 O9 1.232586 1_565
C3 O10 1.310957 1_555
C3 O6 1.348952 1_555
O0 Sb0 2.140338 1_555
O0 Sb1 2.576623 1_554
O0 Rb0 3.114512 1_555
O1 Sb0 2.232228 1_555
O1 Rb1 2.888154 1_544
O1 Rb0 3.256600 1_455
O2 Rb0 3.110026 1_565
O2 Rb1 3.174333 1_554
O3 Rb0 3.109790 1_455
O3 Rb1 3.174681 1_555
O4 Sb0 2.232642 1_555
O4 Rb1 2.888233 1_655
O4 Rb0 3.257314 1_565
O5 Sb0 2.140062 1_555
O5 Sb1 2.576642 1_555
O5 Rb0 3.114562 1_555
O6 Sb1 2.140341 1_555
O6 Sb0 2.576599 1_555
O6 Rb1 3.114499 1_555
O7 Sb1 2.232207 1_555
O7 Rb0 2.888141 1_455
O7 Rb1 3.256583 1_545
O8 Rb1 3.110051 1_655
O8 Rb0 3.174355 1_555
O9 Rb1 3.109817 1_545
O9 Rb0 3.174721 1_556
O10 Sb1 2.232673 1_555
O10 Rb0 2.888234 1_566
O10 Rb1 3.257312 1_655
O11 Sb1 2.140055 1_555
O11 Sb0 2.576664 1_556
O11 Rb1 3.114531 1_555
