# generated using pymatgen
data_Cs3PRhBr9
_symmetry_space_group_name_H-M   'P 1'
_cell_length_a   7.62601077
_cell_length_b   7.62601002
_cell_length_c   19.10446236
_cell_angle_alpha   90.00000000
_cell_angle_beta   90.00000000
_cell_angle_gamma   119.99999921
_symmetry_Int_Tables_number   1
_chemical_formula_structural   Cs3PRhBr9
_chemical_formula_sum   'Cs6 P2 Rh2 Br18'
_cell_volume   962.18867505
_cell_formula_units_Z   2
loop_
 _symmetry_equiv_pos_site_id
 _symmetry_equiv_pos_as_xyz
  1  'x, y, z'
loop_
 _atom_site_type_symbol
 _atom_site_label
 _atom_site_symmetry_multiplicity
 _atom_site_fract_x
 _atom_site_fract_y
 _atom_site_fract_z
 _atom_site_occupancy
  Cs  Cs0  1  0.66666700  0.33333300  0.91182291  1
  Cs  Cs1  1  0.33333300  0.66666700  0.41182291  1
  Cs  Cs2  1  0.66666700  0.33333300  0.57243825  1
  Cs  Cs3  1  0.33333300  0.66666700  0.07243825  1
  Cs  Cs4  1  0.00000000  0.00000000  0.76108706  1
  Cs  Cs5  1  0.00000000  0.00000000  0.26108706  1
  P  P0  1  0.33333300  0.66666700  0.65040500  1
  P  P1  1  0.66666700  0.33333300  0.15040500  1
  Rh  Rh0  1  0.66666700  0.33333300  0.33617899  1
  Rh  Rh1  1  0.33333300  0.66666700  0.83617899  1
  Br  Br0  1  0.82088878  0.64177755  0.41104572  1
  Br  Br1  1  0.17911122  0.35822245  0.91104572  1
  Br  Br2  1  0.17911122  0.82088878  0.91104572  1
  Br  Br3  1  0.17916290  0.35832681  0.58702933  1
  Br  Br4  1  0.64177755  0.82088878  0.91104572  1
  Br  Br5  1  0.35822245  0.17911122  0.41104572  1
  Br  Br6  1  0.02209370  0.51104635  0.75794721  1
  Br  Br7  1  0.82088878  0.17911122  0.41104572  1
  Br  Br8  1  0.51104635  0.02209370  0.25794721  1
  Br  Br9  1  0.48895365  0.51104635  0.75794721  1
  Br  Br10  1  0.51104635  0.48895365  0.25794721  1
  Br  Br11  1  0.97790630  0.48895365  0.25794721  1
  Br  Br12  1  0.35832681  0.17916290  0.08702933  1
  Br  Br13  1  0.48895365  0.97790630  0.75794721  1
  Br  Br14  1  0.82083710  0.64167319  0.08702933  1
  Br  Br15  1  0.17916290  0.82083710  0.58702933  1
  Br  Br16  1  0.64167319  0.82083710  0.58702933  1
  Br  Br17  1  0.82083710  0.17916290  0.08702933  1
loop_
_geom_bond_atom_site_label_1
_geom_bond_atom_site_label_2
_geom_bond_distance
_geom_bond_site_symmetry_2
Br0 Rh0 2.489049 1_555
Br0 Cs2 3.695468 1_555
Br0 Cs5 3.715456 1_665
Br0 Cs1 3.816572 1_655
Br0 Cs1 3.816580 1_555
Br1 Rh1 2.489049 1_555
Br1 Cs3 3.695468 1_556
Br1 Cs4 3.715456 1_555
Br1 Cs0 3.816572 1_455
Br1 Cs0 3.816580 1_555
Br2 Rh1 2.489043 1_555
Br2 Cs3 3.695465 1_556
Br2 Cs4 3.715456 1_565
Br2 Cs0 3.816575 1_565
Br2 Cs0 3.816575 1_455
Br3 P0 2.369128 1_555
Br3 Cs2 3.826735 1_455
Br3 Cs2 3.826751 1_555
Br3 Cs1 3.918002 1_555
Br3 Cs4 4.081400 1_555
Br4 Rh1 2.489049 1_555
Br4 Cs3 3.695468 1_556
Br4 Cs4 3.715456 1_665
Br4 Cs0 3.816572 1_565
Br4 Cs0 3.816579 1_555
Br5 Rh0 2.489049 1_555
Br5 Cs2 3.695468 1_555
Br5 Cs5 3.715456 1_555
Br5 Cs1 3.816572 1_545
Br5 Cs1 3.816579 1_555
Br6 Rh1 2.541444 1_555
Br6 P0 2.906251 1_555
Br6 Cs0 3.761910 1_455
Br6 Cs4 3.816264 1_555
Br6 Cs4 3.816271 1_565
Br6 Cs2 4.250922 1_455
Br7 Rh0 2.489043 1_555
Br7 Cs2 3.695465 1_555
Br7 Cs5 3.715456 1_655
Br7 Cs1 3.816575 1_545
Br7 Cs1 3.816575 1_655
Br8 Rh0 2.541443 1_555
Br8 P1 2.906251 1_555
Br8 Cs1 3.761910 1_545
Br8 Cs5 3.816264 1_555
Br8 Cs5 3.816271 1_655
Br8 Cs3 4.250922 1_545
Br9 Rh1 2.541454 1_555
Br9 P0 2.906260 1_555
Br9 Cs0 3.761910 1_555
Br9 Cs4 3.816267 1_555
Br9 Cs4 3.816267 1_665
Br9 Cs2 4.250922 1_555
Br10 Rh0 2.541454 1_555
Br10 P1 2.906260 1_555
Br10 Cs1 3.761910 1_555
Br10 Cs5 3.816267 1_665
Br10 Cs5 3.816267 1_555
Br10 Cs3 4.250922 1_555
Br11 Rh0 2.541444 1_555
Br11 P1 2.906251 1_555
Br11 Cs1 3.761910 1_655
Br11 Cs5 3.816264 1_665
Br11 Cs5 3.816271 1_655
Br11 Cs3 4.250922 1_655
Br12 P1 2.369128 1_555
Br12 Cs3 3.826735 1_545
Br12 Cs3 3.826750 1_555
Br12 Cs0 3.918002 1_554
Br12 Cs5 4.081400 1_555
Br13 Rh1 2.541443 1_555
Br13 P0 2.906251 1_555
Br13 Cs0 3.761910 1_565
Br13 Cs4 3.816264 1_665
Br13 Cs4 3.816271 1_565
Br13 Cs2 4.250922 1_565
Br14 P1 2.369128 1_555
Br14 Cs3 3.826735 1_655
Br14 Cs3 3.826751 1_555
Br14 Cs0 3.918002 1_554
Br14 Cs5 4.081400 1_665
Br15 P0 2.369128 1_555
Br15 Cs2 3.826742 1_565
Br15 Cs2 3.826742 1_455
Br15 Cs1 3.918002 1_555
Br15 Cs4 4.081396 1_565
Br16 P0 2.369128 1_555
Br16 Cs2 3.826735 1_565
Br16 Cs2 3.826750 1_555
Br16 Cs1 3.918002 1_555
Br16 Cs4 4.081400 1_665
Br17 P1 2.369128 1_555
Br17 Cs3 3.826742 1_545
Br17 Cs3 3.826742 1_655
Br17 Cs0 3.918002 1_554
Br17 Cs5 4.081396 1_655
