# generated using pymatgen
data_BaSiPdS4
_symmetry_space_group_name_H-M   'P 1'
_cell_length_a   8.44760953
_cell_length_b   8.44760953
_cell_length_c   10.69565262
_cell_angle_alpha   90.00000000
_cell_angle_beta   90.00000000
_cell_angle_gamma   90.00000000
_symmetry_Int_Tables_number   1
_chemical_formula_structural   BaSiPdS4
_chemical_formula_sum   'Ba4 Si4 Pd4 S16'
_cell_volume   763.26430379
_cell_formula_units_Z   4
loop_
 _symmetry_equiv_pos_site_id
 _symmetry_equiv_pos_as_xyz
  1  'x, y, z'
loop_
 _atom_site_type_symbol
 _atom_site_label
 _atom_site_symmetry_multiplicity
 _atom_site_fract_x
 _atom_site_fract_y
 _atom_site_fract_z
 _atom_site_occupancy
  Ba  Ba0  1  0.00000000  0.50000000  0.75000000  1
  Ba  Ba1  1  0.50000000  0.00000000  0.75000000  1
  Ba  Ba2  1  0.50000000  0.00000000  0.25000000  1
  Ba  Ba3  1  0.00000000  0.50000000  0.25000000  1
  Si  Si0  1  0.74925014  0.74925014  0.00000000  1
  Si  Si1  1  0.25074986  0.25074986  0.00000000  1
  Si  Si2  1  0.24925014  0.75074986  0.50000000  1
  Si  Si3  1  0.75074986  0.24925014  0.50000000  1
  Pd  Pd0  1  0.50000000  0.50000000  0.50000000  1
  Pd  Pd1  1  0.00000000  0.00000000  0.00000000  1
  Pd  Pd2  1  0.50000000  0.50000000  0.00000000  1
  Pd  Pd3  1  0.00000000  0.00000000  0.50000000  1
  S  S0  1  0.35937858  0.35937858  0.15572899  1
  S  S1  1  0.64062142  0.64062142  0.15572899  1
  S  S2  1  0.14062142  0.85937858  0.34427101  1
  S  S3  1  0.85937858  0.14062142  0.34427101  1
  S  S4  1  0.64062142  0.64062142  0.84427101  1
  S  S5  1  0.35937858  0.35937858  0.84427101  1
  S  S6  1  0.14062142  0.85937858  0.65572899  1
  S  S7  1  0.85937858  0.14062142  0.65572899  1
  S  S8  1  0.50105783  0.22222278  0.50000000  1
  S  S9  1  0.49894217  0.77777722  0.50000000  1
  S  S10  1  0.99894217  0.72222278  0.00000000  1
  S  S11  1  0.00105783  0.27777722  0.00000000  1
  S  S12  1  0.77777722  0.49894217  0.50000000  1
  S  S13  1  0.22222278  0.50105783  0.50000000  1
  S  S14  1  0.27777722  0.00105783  0.00000000  1
  S  S15  1  0.72222278  0.99894217  0.00000000  1
loop_
_geom_bond_atom_site_label_1
_geom_bond_atom_site_label_2
_geom_bond_distance
_geom_bond_site_symmetry_2
Ba0 S13 3.267103 1_555
Ba0 S11 3.267103 1_556
Ba0 S10 3.267103 1_456
Ba0 S12 3.267103 1_455
Ba0 S5 3.412392 1_555
Ba0 S6 3.412392 1_555
Ba0 S4 3.412392 1_455
Ba0 S7 3.412392 1_455
Ba1 S8 3.267103 1_555
Ba1 S14 3.267103 1_556
Ba1 S15 3.267103 1_546
Ba1 S9 3.267103 1_545
Ba1 S5 3.412392 1_555
Ba1 S7 3.412392 1_555
Ba1 S4 3.412392 1_545
Ba1 S6 3.412392 1_545
Ba2 S8 3.267103 1_555
Ba2 S14 3.267103 1_555
Ba2 S15 3.267103 1_545
Ba2 S9 3.267103 1_545
Ba2 S3 3.412392 1_555
Ba2 S0 3.412392 1_555
Ba2 S1 3.412392 1_545
Ba2 S2 3.412392 1_545
Ba3 S13 3.267103 1_555
Ba3 S11 3.267103 1_555
Ba3 S10 3.267103 1_455
Ba3 S12 3.267103 1_455
Ba3 S2 3.412392 1_555
Ba3 S0 3.412392 1_555
Ba3 S1 3.412392 1_455
Ba3 S3 3.412392 1_455
Pd0 S12 2.346570 1_555
Pd0 S9 2.346570 1_555
Pd0 S8 2.346570 1_555
Pd0 S13 2.346570 1_555
Pd1 S10 2.346570 1_445
Pd1 S15 2.346570 1_445
Pd1 S14 2.346570 1_555
Pd1 S11 2.346570 1_555
Pd2 S1 2.365710 1_555
Pd2 S4 2.365710 1_554
Pd2 S0 2.365710 1_555
Pd2 S5 2.365710 1_554
Pd3 S6 2.365710 1_545
Pd3 S7 2.365710 1_455
Pd3 S2 2.365710 1_545
Pd3 S3 2.365710 1_455
S0 Si1 2.111510 1_555
S1 Si0 2.111510 1_555
S2 Si2 2.111510 1_555
S3 Si3 2.111510 1_555
S4 Si0 2.111510 1_556
S5 Si1 2.111510 1_556
S6 Si2 2.111510 1_555
S7 Si3 2.111510 1_555
S8 Si3 2.121622 1_555
S9 Si2 2.121622 1_555
S10 Si0 2.121622 1_555
S11 Si1 2.121622 1_555
S12 Si3 2.121622 1_555
S13 Si2 2.121622 1_555
S14 Si1 2.121622 1_555
S15 Si0 2.121622 1_555
