# generated using pymatgen
data_BaS4(IO8)2
_symmetry_space_group_name_H-M   'P 1'
_cell_length_a   6.72961499
_cell_length_b   6.72961404
_cell_length_c   9.23229114
_cell_angle_alpha   75.91584581
_cell_angle_beta   75.91584448
_cell_angle_gamma   89.44880211
_symmetry_Int_Tables_number   1
_chemical_formula_structural   BaS4(IO8)2
_chemical_formula_sum   'Ba1 S4 I2 O16'
_cell_volume   392.80287449
_cell_formula_units_Z   1
loop_
 _symmetry_equiv_pos_site_id
 _symmetry_equiv_pos_as_xyz
  1  'x, y, z'
loop_
 _atom_site_type_symbol
 _atom_site_label
 _atom_site_symmetry_multiplicity
 _atom_site_fract_x
 _atom_site_fract_y
 _atom_site_fract_z
 _atom_site_occupancy
  Ba  Ba0  1  0.00000000  0.00000000  0.00000000  1
  S  S0  1  0.08270921  0.58308059  0.73516386  1
  S  S1  1  0.58308059  0.08270921  0.73516386  1
  S  S2  1  0.91729079  0.41691941  0.26483614  1
  S  S3  1  0.41691941  0.91729079  0.26483614  1
  I  I0  1  0.00000000  0.00000000  0.50000000  1
  I  I1  1  0.50000000  0.50000000  0.50000000  1
  O  O0  1  0.31484229  0.63114984  0.67292619  1
  O  O1  1  0.63114984  0.31484229  0.67292619  1
  O  O2  1  0.68515771  0.36885016  0.32707381  1
  O  O3  1  0.36885016  0.68515771  0.32707381  1
  O  O4  1  0.01622850  0.68817155  0.85477714  1
  O  O5  1  0.68817155  0.01622850  0.85477714  1
  O  O6  1  0.98377150  0.31182845  0.14522286  1
  O  O7  1  0.31182845  0.98377150  0.14522286  1
  O  O8  1  0.99088983  0.67523626  0.59774737  1
  O  O9  1  0.67523626  0.99088983  0.59774737  1
  O  O10  1  0.00911017  0.32476374  0.40225263  1
  O  O11  1  0.32476374  0.00911017  0.40225263  1
  O  O12  1  0.03655344  0.36614993  0.77513392  1
  O  O13  1  0.36614993  0.03655344  0.77513392  1
  O  O14  1  0.96344656  0.63385007  0.22486608  1
  O  O15  1  0.63385007  0.96344656  0.22486608  1
loop_
_geom_bond_atom_site_label_1
_geom_bond_atom_site_label_2
_geom_bond_distance
_geom_bond_site_symmetry_2
Ba0 O6 2.739854 1_455
Ba0 O4 2.739854 1_544
Ba0 O7 2.739854 1_545
Ba0 O5 2.739854 1_454
Ba0 O14 2.777662 1_445
Ba0 O12 2.777662 1_554
Ba0 O15 2.777662 1_445
Ba0 O13 2.777662 1_554
I0 O10 2.147196 1_555
I0 O8 2.147196 1_445
I0 O11 2.147196 1_555
I0 O9 2.147196 1_445
I1 O0 2.139355 1_555
I1 O2 2.139355 1_555
I1 O1 2.139355 1_555
I1 O3 2.139355 1_555
O0 S0 1.535436 1_555
O1 S1 1.535436 1_555
O2 S2 1.535436 1_555
O3 S3 1.535436 1_555
O4 S0 1.432958 1_555
O5 S1 1.432958 1_555
O6 S2 1.432958 1_555
O7 S3 1.432958 1_555
O8 S0 1.538563 1_655
O9 S1 1.538563 1_565
O10 S2 1.538563 1_455
O11 S3 1.538563 1_545
O12 S0 1.433385 1_555
O13 S1 1.433386 1_555
O14 S2 1.433385 1_555
O15 S3 1.433386 1_555
