# generated using pymatgen
data_SrSb12Os3Pt
_symmetry_space_group_name_H-M   'P 1'
_cell_length_a   8.13053065
_cell_length_b   8.13053039
_cell_length_c   8.15620530
_cell_angle_alpha   109.53519956
_cell_angle_beta   109.53519890
_cell_angle_gamma   109.40716732
_symmetry_Int_Tables_number   1
_chemical_formula_structural   SrSb12Os3Pt
_chemical_formula_sum   'Sr1 Sb12 Os3 Pt1'
_cell_volume   414.72527269
_cell_formula_units_Z   1
loop_
 _symmetry_equiv_pos_site_id
 _symmetry_equiv_pos_as_xyz
  1  'x, y, z'
loop_
 _atom_site_type_symbol
 _atom_site_label
 _atom_site_symmetry_multiplicity
 _atom_site_fract_x
 _atom_site_fract_y
 _atom_site_fract_z
 _atom_site_occupancy
  Sr  Sr0  1  0.00000000  0.00000000  0.00000000  1
  Sb  Sb0  1  0.84222721  0.65197045  0.50187161  1
  Sb  Sb1  1  0.15777279  0.34802955  0.49812839  1
  Sb  Sb2  1  0.15730583  0.66035153  0.81863506  1
  Sb  Sb3  1  0.84269417  0.33964847  0.18136494  1
  Sb  Sb4  1  0.66035153  0.50304670  0.84171747  1
  Sb  Sb5  1  0.33964847  0.49695330  0.15828253  1
  Sb  Sb6  1  0.65197045  0.80974424  0.15009885  1
  Sb  Sb7  1  0.34802955  0.19025576  0.84990115  1
  Sb  Sb8  1  0.50304670  0.84269417  0.66132923  1
  Sb  Sb9  1  0.49695330  0.15730583  0.33867077  1
  Sb  Sb10  1  0.19025576  0.84222721  0.34035461  1
  Sb  Sb11  1  0.80974424  0.15777279  0.65964539  1
  Os  Os0  1  0.50000000  0.50000000  0.50000000  1
  Os  Os1  1  0.50000000  0.00000000  0.00000000  1
  Os  Os2  1  0.00000000  0.50000000  0.00000000  1
  Pt  Pt0  1  0.00000000  0.00000000  0.50000000  1
loop_
_geom_bond_atom_site_label_1
_geom_bond_atom_site_label_2
_geom_bond_distance
_geom_bond_site_symmetry_2
Sb0 Sb2 2.929528 1_655
Sb0 Sb3 2.975825 1_555
Sb0 Sr0 3.545839 1_666
Sb1 Sb3 2.929528 1_455
Sb1 Sb2 2.975825 1_555
Sb1 Sr0 3.545839 1_555
Sb2 Sr0 3.511481 1_566
Sb3 Sr0 3.511481 1_655
Sb4 Sb6 2.929524 1_556
Sb4 Sb7 2.975829 1_555
Sb4 Sr0 3.511477 1_666
Sb5 Sb7 2.929524 1_554
Sb5 Sb6 2.975829 1_555
Sb5 Sr0 3.511477 1_555
Sb6 Sr0 3.545837 1_665
Sb7 Sr0 3.545837 1_556
Sb8 Sr0 3.511475 1_666
Sb9 Sr0 3.511475 1_555
Sb10 Sb9 2.929523 1_565
Sb10 Sb8 2.975839 1_555
Sb10 Sr0 3.545830 1_565
Sb11 Sb8 2.929523 1_545
Sb11 Sb9 2.975839 1_555
Sb11 Sr0 3.545830 1_656
Os0 Sb0 2.635030 1_555
Os0 Sb1 2.635030 1_555
Os0 Sb5 2.640198 1_555
Os0 Sb4 2.640198 1_555
Os0 Sb8 2.641182 1_555
Os0 Sb9 2.641182 1_555
Os1 Sb6 2.635023 1_545
Os1 Sb7 2.635023 1_554
Os1 Sb9 2.640199 1_555
Os1 Sb8 2.640199 1_544
Os1 Sb3 2.641186 1_555
Os1 Sb2 2.641186 1_544
Os2 Sb10 2.635027 1_555
Os2 Sb11 2.635027 1_454
Os2 Sb3 2.640195 1_455
Os2 Sb2 2.640195 1_554
Os2 Sb5 2.641189 1_555
Os2 Sb4 2.641189 1_454
Pt0 Sb11 2.698608 1_455
Pt0 Sb10 2.698608 1_545
Pt0 Sb0 2.698611 1_445
Pt0 Sb1 2.698611 1_555
Pt0 Sb7 2.698613 1_555
Pt0 Sb6 2.698613 1_445
