# generated using pymatgen
data_Sr4LiCuO6
_symmetry_space_group_name_H-M   'P 1'
_cell_length_a   6.80734592
_cell_length_b   6.80734575
_cell_length_c   10.50000397
_cell_angle_alpha   90.00000000
_cell_angle_beta   90.00000000
_cell_angle_gamma   133.87145432
_symmetry_Int_Tables_number   1
_chemical_formula_structural   Sr4LiCuO6
_chemical_formula_sum   'Sr8 Li2 Cu2 O12'
_cell_volume   350.76641312
_cell_formula_units_Z   2
loop_
 _symmetry_equiv_pos_site_id
 _symmetry_equiv_pos_as_xyz
  1  'x, y, z'
loop_
 _atom_site_type_symbol
 _atom_site_label
 _atom_site_symmetry_multiplicity
 _atom_site_fract_x
 _atom_site_fract_y
 _atom_site_fract_z
 _atom_site_occupancy
  Sr  Sr0  1  0.19791275  0.90051227  0.75000000  1
  Sr  Sr1  1  0.64700345  0.35299655  0.50000000  1
  Sr  Sr2  1  0.80208725  0.09948773  0.25000000  1
  Sr  Sr3  1  0.90051227  0.19791275  0.75000000  1
  Sr  Sr4  1  0.09948773  0.80208725  0.25000000  1
  Sr  Sr5  1  0.35299655  0.64700345  0.00000000  1
  Sr  Sr6  1  0.35299655  0.64700345  0.50000000  1
  Sr  Sr7  1  0.64700345  0.35299655  0.00000000  1
  Li  Li0  1  0.51556767  0.51556767  0.25000000  1
  Li  Li1  1  0.48443233  0.48443233  0.75000000  1
  Cu  Cu0  1  0.00000000  0.00000000  0.00000000  1
  Cu  Cu1  1  0.00000000  0.00000000  0.50000000  1
  O  O0  1  0.26277769  0.57400249  0.25000000  1
  O  O1  1  0.15036220  0.84963780  0.50000000  1
  O  O2  1  0.57400249  0.26277769  0.25000000  1
  O  O3  1  0.73846924  0.73846924  0.39153530  1
  O  O4  1  0.15036220  0.84963780  0.00000000  1
  O  O5  1  0.84963780  0.15036220  0.00000000  1
  O  O6  1  0.42599751  0.73722231  0.75000000  1
  O  O7  1  0.73722231  0.42599751  0.75000000  1
  O  O8  1  0.73846924  0.73846924  0.10846470  1
  O  O9  1  0.84963780  0.15036220  0.50000000  1
  O  O10  1  0.26153076  0.26153076  0.60846470  1
  O  O11  1  0.26153076  0.26153076  0.89153530  1
loop_
_geom_bond_atom_site_label_1
_geom_bond_atom_site_label_2
_geom_bond_distance
_geom_bond_site_symmetry_2
Li0 O3 1.903165 1_555
Li0 O8 1.903165 1_555
Li0 O2 2.017000 1_555
Li0 O0 2.017000 1_555
Li1 O11 1.903165 1_555
Li1 O10 1.903165 1_555
Li1 O6 2.017000 1_555
Li1 O7 2.017000 1_555
Cu0 O8 1.800804 1_445
Cu0 O11 1.800804 1_554
Cu0 O5 1.883499 1_455
Cu0 O4 1.883499 1_545
Cu1 O10 1.800804 1_555
Cu1 O3 1.800804 1_445
Cu1 O9 1.883499 1_455
Cu1 O1 1.883499 1_545
O0 Sr4 2.457344 1_555
O0 Sr2 2.495573 1_455
O0 Sr6 2.663031 1_555
O0 Sr5 2.663031 1_555
O0 Sr2 2.840988 1_565
O1 Sr6 2.538282 1_555
O1 Sr0 2.638174 1_555
O1 Sr4 2.638174 1_555
O1 Sr1 2.667201 1_565
O1 Sr1 2.667201 1_455
O2 Sr2 2.457344 1_555
O2 Sr4 2.495573 1_545
O2 Sr7 2.663031 1_555
O2 Sr1 2.663031 1_555
O2 Sr4 2.840988 1_655
O3 Sr1 2.511117 1_555
O3 Sr6 2.511117 1_555
O3 Sr2 2.638291 1_565
O3 Sr4 2.638291 1_655
O4 Sr5 2.538282 1_555
O4 Sr0 2.638174 1_554
O4 Sr4 2.638174 1_555
O4 Sr7 2.667201 1_565
O4 Sr7 2.667201 1_455
O5 Sr7 2.538282 1_555
O5 Sr2 2.638174 1_555
O5 Sr3 2.638174 1_554
O5 Sr5 2.667201 1_545
O5 Sr5 2.667201 1_655
O6 Sr0 2.457344 1_555
O6 Sr3 2.495573 1_565
O6 Sr5 2.663031 1_556
O6 Sr6 2.663031 1_555
O6 Sr3 2.840988 1_455
O7 Sr3 2.457344 1_555
O7 Sr0 2.495573 1_655
O7 Sr7 2.663031 1_556
O7 Sr1 2.663031 1_555
O7 Sr0 2.840988 1_545
O8 Sr7 2.511117 1_555
O8 Sr5 2.511117 1_555
O8 Sr2 2.638291 1_565
O8 Sr4 2.638291 1_655
O9 Sr1 2.538282 1_555
O9 Sr2 2.638174 1_555
O9 Sr3 2.638174 1_555
O9 Sr6 2.667201 1_545
O9 Sr6 2.667201 1_655
O10 Sr6 2.511117 1_555
O10 Sr1 2.511117 1_555
O10 Sr0 2.638291 1_545
O10 Sr3 2.638291 1_455
O11 Sr5 2.511117 1_556
O11 Sr7 2.511117 1_556
O11 Sr0 2.638291 1_545
O11 Sr3 2.638291 1_455
