# generated using pymatgen
data_Si2Ni4W6C
_symmetry_space_group_name_H-M   'P 1'
_cell_length_a   7.68671783
_cell_length_b   7.68671761
_cell_length_c   7.68671808
_cell_angle_alpha   60.00000219
_cell_angle_beta   60.00000311
_cell_angle_gamma   59.99999871
_symmetry_Int_Tables_number   1
_chemical_formula_structural   Si2Ni4W6C
_chemical_formula_sum   'Si4 Ni8 W12 C2'
_cell_volume   321.14993150
_cell_formula_units_Z   2
loop_
 _symmetry_equiv_pos_site_id
 _symmetry_equiv_pos_as_xyz
  1  'x, y, z'
loop_
 _atom_site_type_symbol
 _atom_site_label
 _atom_site_symmetry_multiplicity
 _atom_site_fract_x
 _atom_site_fract_y
 _atom_site_fract_z
 _atom_site_occupancy
  Si  Si0  1  0.62500000  0.62500000  0.12500000  1
  Si  Si1  1  0.62500000  0.12500000  0.62500000  1
  Si  Si2  1  0.12500000  0.62500000  0.62500000  1
  Si  Si3  1  0.62500000  0.62500000  0.62500000  1
  Ni  Ni0  1  0.41919782  0.41919782  0.74240554  1
  Ni  Ni1  1  0.41919782  0.74240554  0.41919782  1
  Ni  Ni2  1  0.74240554  0.41919782  0.41919782  1
  Ni  Ni3  1  0.41919782  0.41919782  0.41919782  1
  Ni  Ni4  1  0.83080218  0.83080218  0.50759446  1
  Ni  Ni5  1  0.83080218  0.50759446  0.83080218  1
  Ni  Ni6  1  0.50759446  0.83080218  0.83080218  1
  Ni  Ni7  1  0.83080218  0.83080218  0.83080218  1
  W  W0  1  0.05414232  0.05414232  0.44585768  1
  W  W1  1  0.44585768  0.05414232  0.44585768  1
  W  W2  1  0.05414232  0.44585768  0.44585768  1
  W  W3  1  0.44585768  0.44585768  0.05414232  1
  W  W4  1  0.05414232  0.44585768  0.05414232  1
  W  W5  1  0.44585768  0.05414232  0.05414232  1
  W  W6  1  0.19585768  0.19585768  0.80414232  1
  W  W7  1  0.80414232  0.19585768  0.80414232  1
  W  W8  1  0.19585768  0.80414232  0.80414232  1
  W  W9  1  0.80414232  0.80414232  0.19585768  1
  W  W10  1  0.19585768  0.80414232  0.19585768  1
  W  W11  1  0.80414232  0.19585768  0.19585768  1
  C  C0  1  0.25000000  0.25000000  0.25000000  1
  C  C1  1  0.00000000  0.00000000  0.00000000  1
loop_
_geom_bond_atom_site_label_1
_geom_bond_atom_site_label_2
_geom_bond_distance
_geom_bond_site_symmetry_2
Si0 W5 2.735909 1_565
Si0 W11 2.735909 1_555
Si0 W9 2.735909 1_555
Si0 W3 2.735909 1_555
Si0 W4 2.735909 1_655
Si0 W10 2.735909 1_555
Si1 W7 2.735909 1_555
Si1 W1 2.735909 1_555
Si1 W0 2.735910 1_655
Si1 W6 2.735910 1_555
Si1 W5 2.735910 1_556
Si1 W11 2.735910 1_555
Si2 W0 2.735909 1_565
Si2 W6 2.735909 1_555
Si2 W8 2.735909 1_555
Si2 W2 2.735909 1_555
Si2 W4 2.735910 1_556
Si2 W10 2.735910 1_555
Si3 W1 2.735909 1_565
Si3 W7 2.735909 1_555
Si3 W2 2.735909 1_655
Si3 W8 2.735909 1_555
Si3 W3 2.735910 1_556
Si3 W9 2.735910 1_555
Ni0 Si1 2.338109 1_555
Ni0 Si2 2.338109 1_555
Ni0 Si3 2.338115 1_555
Ni0 Ni3 2.484407 1_555
Ni0 Ni1 2.484407 1_555
Ni0 Ni2 2.484407 1_555
Ni0 W5 2.617250 1_556
Ni0 W4 2.617250 1_556
Ni0 W3 2.617254 1_556
Ni0 W6 2.727185 1_555
Ni0 W8 2.727192 1_555
Ni0 W7 2.727192 1_555
Ni1 Si0 2.338109 1_555
Ni1 Si2 2.338109 1_555
Ni1 Si3 2.338115 1_555
Ni1 Ni2 2.484406 1_555
Ni1 Ni3 2.484406 1_555
Ni1 W0 2.617250 1_565
Ni1 W5 2.617250 1_565
Ni1 W1 2.617254 1_565
Ni1 W10 2.727185 1_555
Ni1 W9 2.727192 1_555
Ni1 W8 2.727192 1_555
Ni2 Si1 2.338109 1_555
Ni2 Si0 2.338109 1_555
Ni2 Si3 2.338115 1_555
Ni2 Ni3 2.484407 1_555
Ni2 W0 2.617250 1_655
Ni2 W4 2.617250 1_655
Ni2 W2 2.617254 1_655
Ni2 W11 2.727185 1_555
Ni2 W9 2.727192 1_555
Ni2 W7 2.727192 1_555
Ni3 Si1 2.338113 1_555
Ni3 Si2 2.338113 1_555
Ni3 Si0 2.338113 1_555
Ni3 W1 2.617247 1_555
Ni3 W2 2.617247 1_555
Ni3 W3 2.617247 1_555
Ni3 W10 2.727189 1_555
Ni3 W11 2.727189 1_555
Ni3 W6 2.727189 1_555
Ni4 Si1 2.338109 1_565
Ni4 Si2 2.338109 1_655
Ni4 Si3 2.338115 1_555
Ni4 Ni7 2.484407 1_555
Ni4 Ni5 2.484407 1_555
Ni4 Ni6 2.484407 1_555
Ni4 W11 2.617250 1_565
Ni4 W10 2.617250 1_655
Ni4 W9 2.617254 1_555
Ni4 W0 2.727185 1_665
Ni4 W2 2.727192 1_655
Ni4 W1 2.727192 1_565
Ni5 Si0 2.338109 1_556
Ni5 Si2 2.338109 1_655
Ni5 Si3 2.338115 1_555
Ni5 Ni6 2.484406 1_555
Ni5 Ni7 2.484406 1_555
Ni5 W6 2.617250 1_655
Ni5 W11 2.617250 1_556
Ni5 W7 2.617254 1_555
Ni5 W4 2.727185 1_656
Ni5 W3 2.727192 1_556
Ni5 W2 2.727192 1_655
Ni6 Si1 2.338109 1_565
Ni6 Si0 2.338109 1_556
Ni6 Si3 2.338115 1_555
Ni6 Ni7 2.484407 1_555
Ni6 W6 2.617250 1_565
Ni6 W10 2.617250 1_556
Ni6 W8 2.617254 1_555
Ni6 W5 2.727185 1_566
Ni6 W3 2.727192 1_556
Ni6 W1 2.727192 1_565
Ni7 Si1 2.338113 1_565
Ni7 Si2 2.338113 1_655
Ni7 Si0 2.338113 1_556
Ni7 W7 2.617247 1_565
Ni7 W8 2.617247 1_655
Ni7 W9 2.617247 1_556
Ni7 W4 2.727189 1_656
Ni7 W5 2.727189 1_566
Ni7 W0 2.727189 1_665
C0 W1 2.129102 1_555
C0 W2 2.129102 1_555
C0 W4 2.129102 1_555
C0 W5 2.129102 1_555
C0 W3 2.129102 1_555
C0 W0 2.129102 1_555
C1 W10 2.129102 1_545
C1 W11 2.129102 1_455
C1 W8 2.129102 1_544
C1 W7 2.129102 1_454
C1 W6 2.129102 1_554
C1 W9 2.129102 1_445
