# generated using pymatgen
data_Li14FeGeN8
_symmetry_space_group_name_H-M   'P 1'
_cell_length_a   6.69881705
_cell_length_b   6.69881705
_cell_length_c   4.79708082
_cell_angle_alpha   90.00000000
_cell_angle_beta   90.00000000
_cell_angle_gamma   90.00000000
_symmetry_Int_Tables_number   1
_chemical_formula_structural   Li14FeGeN8
_chemical_formula_sum   'Li14 Fe1 Ge1 N8'
_cell_volume   215.26492365
_cell_formula_units_Z   1
loop_
 _symmetry_equiv_pos_site_id
 _symmetry_equiv_pos_as_xyz
  1  'x, y, z'
loop_
 _atom_site_type_symbol
 _atom_site_label
 _atom_site_symmetry_multiplicity
 _atom_site_fract_x
 _atom_site_fract_y
 _atom_site_fract_z
 _atom_site_occupancy
  Li  Li0  1  0.50000000  0.00000000  0.56251474  1
  Li  Li1  1  0.23704588  0.76295412  0.00000000  1
  Li  Li2  1  0.00000000  0.50000000  0.91195441  1
  Li  Li3  1  0.76295412  0.23704588  0.00000000  1
  Li  Li4  1  0.25911663  0.74088337  0.50000000  1
  Li  Li5  1  0.00000000  0.00000000  0.00000000  1
  Li  Li6  1  0.50000000  0.00000000  0.08804559  1
  Li  Li7  1  0.74088337  0.74088337  0.50000000  1
  Li  Li8  1  0.25911663  0.25911663  0.50000000  1
  Li  Li9  1  0.23704588  0.23704588  0.00000000  1
  Li  Li10  1  0.76295412  0.76295412  0.00000000  1
  Li  Li11  1  0.74088337  0.25911663  0.50000000  1
  Li  Li12  1  0.00000000  0.50000000  0.43748526  1
  Li  Li13  1  0.50000000  0.50000000  0.50000000  1
  Fe  Fe0  1  0.50000000  0.50000000  0.00000000  1
  Ge  Ge0  1  0.00000000  0.00000000  0.50000000  1
  N  N0  1  0.00000000  0.23811947  0.71652702  1
  N  N1  1  0.28395113  0.50000000  0.20854190  1
  N  N2  1  0.50000000  0.28395113  0.79145810  1
  N  N3  1  0.00000000  0.76188053  0.71652702  1
  N  N4  1  0.50000000  0.71604887  0.79145810  1
  N  N5  1  0.76188053  0.00000000  0.28347298  1
  N  N6  1  0.71604887  0.50000000  0.20854190  1
  N  N7  1  0.23811947  0.00000000  0.28347298  1
loop_
_geom_bond_atom_site_label_1
_geom_bond_atom_site_label_2
_geom_bond_distance
_geom_bond_site_symmetry_2
Li0 N2 2.196429 1_555
Li0 N4 2.196429 1_545
Li0 N5 2.206659 1_555
Li0 N7 2.206659 1_555
Li1 N1 2.049959 1_555
Li1 N4 2.049959 1_554
Li1 N3 2.090631 1_554
Li1 N7 2.090631 1_565
Li2 N3 1.989071 1_555
Li2 N0 1.989071 1_555
Li2 N1 2.375364 1_556
Li2 N6 2.375364 1_456
Li3 N2 2.049959 1_554
Li3 N6 2.049959 1_555
Li3 N5 2.090631 1_555
Li3 N0 2.090631 1_654
Li4 N3 2.027706 1_555
Li4 N7 2.027706 1_565
Li4 N1 2.141567 1_555
Li4 N4 2.141567 1_555
Li5 N7 2.096086 1_555
Li5 N0 2.096086 1_554
Li5 N5 2.096086 1_455
Li5 N3 2.096086 1_544
Li6 N5 1.989071 1_555
Li6 N7 1.989071 1_555
Li6 N2 2.375364 1_554
Li6 N4 2.375364 1_544
Li7 N3 2.027706 1_655
Li7 N5 2.027706 1_565
Li7 N4 2.141567 1_555
Li7 N6 2.141567 1_555
Li8 N0 2.027706 1_555
Li8 N7 2.027706 1_555
Li8 N2 2.141567 1_555
Li8 N1 2.141567 1_555
Li9 N1 2.049959 1_555
Li9 N2 2.049959 1_554
Li9 N7 2.090631 1_555
Li9 N0 2.090631 1_554
Li10 N6 2.049959 1_555
Li10 N4 2.049959 1_554
Li10 N5 2.090631 1_565
Li10 N3 2.090631 1_654
Li11 N5 2.027706 1_555
Li11 N0 2.027706 1_655
Li11 N2 2.141567 1_555
Li11 N6 2.141567 1_555
Li12 N1 2.196429 1_555
Li12 N6 2.196429 1_455
Li12 N3 2.206659 1_555
Li12 N0 2.206659 1_555
Li13 N4 2.012316 1_555
Li13 N6 2.012316 1_555
Li13 N2 2.012316 1_555
Li13 N1 2.012316 1_555
Fe0 N6 1.759369 1_555
Fe0 N4 1.759369 1_554
Fe0 N1 1.759369 1_555
Fe0 N2 1.759369 1_554
Ge0 N0 1.903496 1_555
Ge0 N7 1.903496 1_555
Ge0 N3 1.903496 1_545
Ge0 N5 1.903496 1_455
