# generated using pymatgen
data_Mg2Cd6BPt4
_symmetry_space_group_name_H-M   'P 1'
_cell_length_a   8.76686300
_cell_length_b   8.76686275
_cell_length_c   8.76686327
_cell_angle_alpha   59.99999801
_cell_angle_beta   59.99999897
_cell_angle_gamma   59.99999413
_symmetry_Int_Tables_number   1
_chemical_formula_structural   Mg2Cd6BPt4
_chemical_formula_sum   'Mg4 Cd12 B2 Pt8'
_cell_volume   476.45033177
_cell_formula_units_Z   2
loop_
 _symmetry_equiv_pos_site_id
 _symmetry_equiv_pos_as_xyz
  1  'x, y, z'
loop_
 _atom_site_type_symbol
 _atom_site_label
 _atom_site_symmetry_multiplicity
 _atom_site_fract_x
 _atom_site_fract_y
 _atom_site_fract_z
 _atom_site_occupancy
  Mg  Mg0  1  0.62500000  0.12500000  0.62500000  1
  Mg  Mg1  1  0.62500000  0.62500000  0.12500000  1
  Mg  Mg2  1  0.62500000  0.62500000  0.62500000  1
  Mg  Mg3  1  0.12500000  0.62500000  0.62500000  1
  Cd  Cd0  1  0.44357189  0.05642811  0.05642811  1
  Cd  Cd1  1  0.44357189  0.44357189  0.05642811  1
  Cd  Cd2  1  0.19357189  0.80642811  0.80642811  1
  Cd  Cd3  1  0.19357189  0.80642811  0.19357189  1
  Cd  Cd4  1  0.80642811  0.80642811  0.19357189  1
  Cd  Cd5  1  0.80642811  0.19357189  0.19357189  1
  Cd  Cd6  1  0.05642811  0.44357189  0.05642811  1
  Cd  Cd7  1  0.44357189  0.05642811  0.44357189  1
  Cd  Cd8  1  0.05642811  0.05642811  0.44357189  1
  Cd  Cd9  1  0.80642811  0.19357189  0.80642811  1
  Cd  Cd10  1  0.19357189  0.19357189  0.80642811  1
  Cd  Cd11  1  0.05642811  0.44357189  0.44357189  1
  B  B0  1  0.75000000  0.75000000  0.75000000  1
  B  B1  1  0.50000000  0.50000000  0.50000000  1
  Pt  Pt0  1  0.40377661  0.78866917  0.40377661  1
  Pt  Pt1  1  0.40377661  0.40377661  0.40377661  1
  Pt  Pt2  1  0.78866917  0.40377661  0.40377661  1
  Pt  Pt3  1  0.46133083  0.84622339  0.84622339  1
  Pt  Pt4  1  0.84622339  0.46133083  0.84622339  1
  Pt  Pt5  1  0.84622339  0.84622339  0.46133083  1
  Pt  Pt6  1  0.84622339  0.84622339  0.84622339  1
  Pt  Pt7  1  0.40377661  0.40377661  0.78866917  1
loop_
_geom_bond_atom_site_label_1
_geom_bond_atom_site_label_2
_geom_bond_distance
_geom_bond_site_symmetry_2
Mg0 Pt7 2.788793 1_555
Mg0 Pt5 2.788793 1_545
Mg0 Pt2 2.788794 1_555
Mg0 Pt3 2.788794 1_545
Mg0 Pt6 2.788799 1_545
Mg0 Pt1 2.788799 1_555
Mg1 Pt2 2.788794 1_555
Mg1 Pt3 2.788794 1_554
Mg1 Pt0 2.788794 1_555
Mg1 Pt4 2.788794 1_554
Mg1 Pt6 2.788799 1_554
Mg1 Pt1 2.788799 1_555
Mg2 Pt3 2.788800 1_555
Mg2 Pt2 2.788800 1_555
Mg2 Pt4 2.788800 1_555
Mg2 Pt0 2.788800 1_555
Mg2 Pt5 2.788801 1_555
Mg2 Pt7 2.788801 1_555
Mg3 Pt7 2.788793 1_555
Mg3 Pt5 2.788793 1_455
Mg3 Pt0 2.788794 1_555
Mg3 Pt4 2.788794 1_455
Mg3 Pt6 2.788799 1_455
Mg3 Pt1 2.788799 1_555
Cd0 Pt7 2.741051 1_554
Cd0 Pt0 2.741051 1_545
Cd0 Pt3 3.104601 1_544
Cd0 Pt6 3.104606 1_544
Cd0 Mg1 3.140597 1_545
Cd0 Mg0 3.140597 1_554
Cd1 Pt1 2.741048 1_555
Cd1 Pt7 2.741057 1_554
Cd1 Pt3 3.104609 1_554
Cd1 Pt4 3.104609 1_554
Cd1 Mg2 3.140597 1_554
Cd1 Mg1 3.140597 1_555
Cd2 Pt6 2.741048 1_455
Cd2 Pt3 2.741057 1_555
Cd2 Pt7 3.104609 1_555
Cd2 Pt0 3.104609 1_555
Cd2 Mg2 3.140597 1_555
Cd2 Mg3 3.140597 1_555
Cd3 Pt5 2.741051 1_455
Cd3 Pt3 2.741051 1_554
Cd3 Pt0 3.104601 1_555
Cd3 Pt1 3.104606 1_555
Cd3 Mg1 3.140597 1_555
Cd3 Mg3 3.140597 1_555
Cd4 Pt6 2.741048 1_554
Cd4 Pt5 2.741057 1_555
Cd4 Pt2 3.104609 1_555
Cd4 Pt0 3.104609 1_555
Cd4 Mg1 3.140597 1_555
Cd4 Mg2 3.140597 1_555
Cd5 Pt5 2.741051 1_545
Cd5 Pt4 2.741051 1_554
Cd5 Pt2 3.104601 1_555
Cd5 Pt1 3.104606 1_555
Cd5 Mg1 3.140597 1_555
Cd5 Mg0 3.140597 1_555
Cd6 Pt7 2.741051 1_554
Cd6 Pt2 2.741051 1_455
Cd6 Pt4 3.104601 1_454
Cd6 Pt6 3.104606 1_454
Cd6 Mg1 3.140597 1_455
Cd6 Mg3 3.140597 1_554
Cd7 Pt1 2.741048 1_555
Cd7 Pt0 2.741056 1_545
Cd7 Pt5 3.104609 1_545
Cd7 Pt3 3.104609 1_545
Cd7 Mg2 3.140597 1_545
Cd7 Mg0 3.140597 1_555
Cd8 Pt2 2.741051 1_455
Cd8 Pt0 2.741051 1_545
Cd8 Pt5 3.104601 1_445
Cd8 Pt6 3.104606 1_445
Cd8 Mg3 3.140597 1_545
Cd8 Mg0 3.140597 1_455
Cd9 Pt6 2.741048 1_545
Cd9 Pt4 2.741056 1_555
Cd9 Pt7 3.104609 1_555
Cd9 Pt2 3.104609 1_555
Cd9 Mg2 3.140597 1_555
Cd9 Mg0 3.140597 1_555
Cd10 Pt3 2.741051 1_545
Cd10 Pt4 2.741051 1_455
Cd10 Pt7 3.104601 1_555
Cd10 Pt1 3.104606 1_555
Cd10 Mg3 3.140597 1_555
Cd10 Mg0 3.140597 1_555
Cd11 Pt1 2.741048 1_555
Cd11 Pt2 2.741057 1_455
Cd11 Pt5 3.104609 1_455
Cd11 Pt4 3.104609 1_455
Cd11 Mg2 3.140597 1_455
Cd11 Mg3 3.140597 1_555
B0 Pt4 2.066327 1_555
B0 Pt3 2.066327 1_555
B0 Pt5 2.066327 1_555
B0 Pt6 2.066334 1_555
B0 Mg0 2.684292 1_565
B0 Mg3 2.684292 1_655
B0 Mg1 2.684293 1_556
B0 Mg2 2.684293 1_555
B1 Pt0 2.066327 1_555
B1 Pt2 2.066327 1_555
B1 Pt7 2.066327 1_555
B1 Pt1 2.066334 1_555
B1 Mg0 2.684292 1_555
B1 Mg3 2.684292 1_555
B1 Mg1 2.684293 1_555
B1 Mg2 2.684293 1_555
