# generated using pymatgen
data_Sr2NiIrBr
_symmetry_space_group_name_H-M   'P 1'
_cell_length_a   4.18644888
_cell_length_b   4.18644790
_cell_length_c   17.17092393
_cell_angle_alpha   90.00000000
_cell_angle_beta   90.00000000
_cell_angle_gamma   119.99999252
_symmetry_Int_Tables_number   1
_chemical_formula_structural   Sr2NiIrBr
_chemical_formula_sum   'Sr4 Ni2 Ir2 Br2'
_cell_volume   260.62484377
_cell_formula_units_Z   2
loop_
 _symmetry_equiv_pos_site_id
 _symmetry_equiv_pos_as_xyz
  1  'x, y, z'
loop_
 _atom_site_type_symbol
 _atom_site_label
 _atom_site_symmetry_multiplicity
 _atom_site_fract_x
 _atom_site_fract_y
 _atom_site_fract_z
 _atom_site_occupancy
  Sr  Sr0  1  0.00000000  0.00000000  0.61508842  1
  Sr  Sr1  1  0.00000000  0.00000000  0.38519364  1
  Sr  Sr2  1  0.00000000  0.00000000  0.11508842  1
  Sr  Sr3  1  0.00000000  0.00000000  0.88519364  1
  Ni  Ni0  1  0.66666700  0.33333300  0.99848909  1
  Ni  Ni1  1  0.33333300  0.66666700  0.49848909  1
  Ir  Ir0  1  0.66666700  0.33333300  0.50150181  1
  Ir  Ir1  1  0.33333300  0.66666700  0.00150181  1
  Br  Br0  1  0.66666700  0.33333300  0.24972705  1
  Br  Br1  1  0.33333300  0.66666700  0.74972705  1
loop_
_geom_bond_atom_site_label_1
_geom_bond_atom_site_label_2
_geom_bond_distance
_geom_bond_site_symmetry_2
Ni0 Sr3 3.102682 1_655
Ni0 Sr3 3.102685 1_665
Ni0 Sr3 3.102686 1_555
Ni0 Sr2 3.138564 1_656
Ni0 Sr2 3.138566 1_666
Ni0 Sr2 3.138567 1_556
Ni1 Sr1 3.102682 1_565
Ni1 Sr1 3.102685 1_555
Ni1 Sr1 3.102686 1_665
Ni1 Sr0 3.138564 1_565
Ni1 Sr0 3.138566 1_555
Ni1 Sr0 3.138567 1_665
Ir0 Ni1 2.417598 1_545
Ir0 Ni1 2.417599 1_655
Ir0 Ni1 2.417605 1_555
Ir0 Sr0 3.105819 1_655
Ir0 Sr0 3.105822 1_665
Ir0 Sr0 3.105823 1_555
Ir0 Sr1 3.135377 1_655
Ir0 Sr1 3.135380 1_665
Ir0 Sr1 3.135380 1_555
Ir1 Ni0 2.417598 1_564
Ir1 Ni0 2.417599 1_454
Ir1 Ni0 2.417605 1_554
Ir1 Sr2 3.105819 1_565
Ir1 Sr2 3.105822 1_555
Ir1 Sr2 3.105823 1_665
Ir1 Sr3 3.135377 1_564
Ir1 Sr3 3.135380 1_554
Ir1 Sr3 3.135380 1_664
Br0 Sr2 3.344674 1_655
Br0 Sr2 3.344677 1_665
Br0 Sr2 3.344677 1_555
Br0 Sr1 3.354517 1_655
Br0 Sr1 3.354519 1_665
Br0 Sr1 3.354520 1_555
Br1 Sr0 3.344674 1_565
Br1 Sr0 3.344677 1_555
Br1 Sr0 3.344677 1_665
Br1 Sr3 3.354517 1_565
Br1 Sr3 3.354519 1_555
Br1 Sr3 3.354520 1_665
