# generated using pymatgen
data_Rb10ZrSnAs6
_symmetry_space_group_name_H-M   'P 1'
_cell_length_a   8.72493394
_cell_length_b   9.45486767
_cell_length_c   18.29207566
_cell_angle_alpha   60.05783753
_cell_angle_beta   90.00000000
_cell_angle_gamma   90.00000000
_symmetry_Int_Tables_number   1
_chemical_formula_structural   Rb10ZrSnAs6
_chemical_formula_sum   'Rb20 Zr2 Sn2 As12'
_cell_volume   1307.56726248
_cell_formula_units_Z   2
loop_
 _symmetry_equiv_pos_site_id
 _symmetry_equiv_pos_as_xyz
  1  'x, y, z'
loop_
 _atom_site_type_symbol
 _atom_site_label
 _atom_site_symmetry_multiplicity
 _atom_site_fract_x
 _atom_site_fract_y
 _atom_site_fract_z
 _atom_site_occupancy
  Rb  Rb0  1  0.17767009  0.84699563  0.73866771  1
  Rb  Rb1  1  0.67767009  0.15300437  0.76133229  1
  Rb  Rb2  1  0.82387579  0.16560704  0.25511507  1
  Rb  Rb3  1  0.32387579  0.83439296  0.24488493  1
  Rb  Rb4  1  0.16380123  0.15831449  0.42057127  1
  Rb  Rb5  1  0.66380123  0.84168551  0.07942873  1
  Rb  Rb6  1  0.83689750  0.84008535  0.58251303  1
  Rb  Rb7  1  0.33689750  0.15991465  0.91748697  1
  Rb  Rb8  1  0.00931333  0.08235320  0.09297111  1
  Rb  Rb9  1  0.50931333  0.91764680  0.40702889  1
  Rb  Rb10  1  0.99518582  0.91385282  0.91046436  1
  Rb  Rb11  1  0.49518582  0.08614718  0.58953564  1
  Rb  Rb12  1  0.50563477  0.27281839  0.07543366  1
  Rb  Rb13  1  0.00563477  0.72718161  0.42456634  1
  Rb  Rb14  1  0.48033182  0.73386658  0.92201950  1
  Rb  Rb15  1  0.98033182  0.26613342  0.57798050  1
  Rb  Rb16  1  0.97826561  0.54282823  0.25280799  1
  Rb  Rb17  1  0.47826561  0.45717177  0.24719201  1
  Rb  Rb18  1  0.01722918  0.45678468  0.74259332  1
  Rb  Rb19  1  0.51722918  0.54321532  0.75740668  1
  Zr  Zr0  1  0.37580522  0.49512277  0.57717434  1
  Zr  Zr1  1  0.87580522  0.50487723  0.92282566  1
  Sn  Sn0  1  0.62932785  0.50791219  0.42022905  1
  Sn  Sn1  1  0.12932785  0.49208781  0.07977095  1
  As  As0  1  0.31705116  0.48127316  0.43690492  1
  As  As1  1  0.81705116  0.51872684  0.06309508  1
  As  As2  1  0.68295372  0.51861834  0.56471822  1
  As  As3  1  0.18295372  0.48138166  0.93528178  1
  As  As4  1  0.20940384  0.21506101  0.21755076  1
  As  As5  1  0.70940384  0.78493899  0.28244924  1
  As  As6  1  0.79417008  0.77447676  0.78639852  1
  As  As7  1  0.29417008  0.22552324  0.71360148  1
  As  As8  1  0.25080990  0.75449030  0.07688603  1
  As  As9  1  0.75080990  0.24550970  0.42311397  1
  As  As10  1  0.75227011  0.24944517  0.92413106  1
  As  As11  1  0.25227011  0.75055483  0.57586894  1
loop_
_geom_bond_atom_site_label_1
_geom_bond_atom_site_label_2
_geom_bond_distance
_geom_bond_site_symmetry_2
Rb16 Sn1 3.674461 1_655
Rb17 Sn0 3.674461 1_555
As0 Zr0 2.683049 1_555
As0 Sn0 2.739197 1_555
As0 Rb3 3.432382 1_555
As0 Rb4 3.480212 1_555
As0 Rb13 3.509336 1_555
As0 Rb11 3.708788 1_555
As0 Rb15 3.766689 1_455
As0 Rb17 3.855178 1_555
As1 Zr1 2.683049 1_554
As1 Sn1 2.739197 1_655
As1 Rb2 3.432382 1_555
As1 Rb5 3.480212 1_555
As1 Rb12 3.509336 1_555
As1 Rb10 3.708788 1_554
As1 Rb14 3.766689 1_554
As1 Rb16 3.855178 1_555
As2 Zr0 2.689300 1_555
As2 Sn0 2.735273 1_555
As2 Rb15 3.451303 1_555
As2 Rb6 3.483639 1_555
As2 Rb1 3.532109 1_555
As2 Rb13 3.652492 1_655
As2 Rb9 3.739750 1_555
As2 Rb19 3.922550 1_555
As3 Zr1 2.689300 1_455
As3 Sn1 2.735273 1_556
As3 Rb14 3.451303 1_555
As3 Rb7 3.483639 1_555
As3 Rb0 3.532109 1_555
As3 Rb12 3.652492 1_556
As3 Rb8 3.739750 1_556
As3 Rb18 3.922550 1_555
As4 Sn1 2.666591 1_555
As4 Rb2 3.418271 1_455
As4 Rb4 3.499783 1_555
As4 Rb17 3.503691 1_555
As4 Rb12 3.509874 1_555
As4 Rb3 3.522085 1_545
As4 Rb8 3.559414 1_555
As5 Sn0 2.666591 1_555
As5 Rb3 3.418271 1_555
As5 Rb5 3.499783 1_555
As5 Rb16 3.503691 1_555
As5 Rb13 3.509874 1_655
As5 Rb2 3.522085 1_565
As5 Rb9 3.559414 1_555
As6 Zr1 2.623451 1_555
As6 Rb0 3.439567 1_655
As6 Rb19 3.472496 1_555
As6 Rb6 3.481871 1_555
As6 Rb1 3.523354 1_565
As6 Rb14 3.584510 1_555
As6 Rb10 3.598359 1_555
As7 Zr0 2.623451 1_555
As7 Rb1 3.439567 1_555
As7 Rb18 3.472496 1_555
As7 Rb7 3.481871 1_555
As7 Rb0 3.523354 1_545
As7 Rb15 3.584510 1_455
As7 Rb11 3.598359 1_555
As8 Sn1 2.674096 1_555
As8 Rb10 3.454398 1_454
As8 Rb7 3.549960 1_564
As8 Rb14 3.553116 1_554
As8 Rb3 3.569075 1_555
As8 Rb17 3.578198 1_555
As8 Rb16 3.685948 1_455
As8 Rb5 3.701897 1_555
As8 Rb8 3.878926 1_565
As9 Sn0 2.674096 1_555
As9 Rb11 3.454398 1_555
As9 Rb6 3.549960 1_545
As9 Rb15 3.553116 1_555
As9 Rb2 3.569075 1_555
As9 Rb16 3.578198 1_555
As9 Rb17 3.685948 1_555
As9 Rb4 3.701897 1_655
As9 Rb9 3.878926 1_545
As10 Zr1 2.633880 1_555
As10 Rb8 3.491885 1_656
As10 Rb5 3.549116 1_546
As10 Rb19 3.572835 1_555
As10 Rb1 3.582425 1_555
As10 Rb12 3.598581 1_556
As10 Rb18 3.703496 1_655
As10 Rb7 3.737395 1_555
As10 Rb10 3.926079 1_545
As11 Zr0 2.633880 1_555
As11 Rb9 3.491885 1_555
As11 Rb4 3.549116 1_565
As11 Rb18 3.572835 1_555
As11 Rb0 3.582425 1_555
As11 Rb13 3.598581 1_555
As11 Rb19 3.703496 1_555
As11 Rb6 3.737395 1_455
As11 Rb11 3.926079 1_565
