# generated using pymatgen
data_YTi2(Nb2Sn3)2
_symmetry_space_group_name_H-M   'P 1'
_cell_length_a   5.74985422
_cell_length_b   5.75814764
_cell_length_c   9.63355739
_cell_angle_alpha   90.00000000
_cell_angle_beta   90.00000000
_cell_angle_gamma   119.95235551
_symmetry_Int_Tables_number   1
_chemical_formula_structural   YTi2(Nb2Sn3)2
_chemical_formula_sum   'Y1 Ti2 Nb4 Sn6'
_cell_volume   276.35368118
_cell_formula_units_Z   1
loop_
 _symmetry_equiv_pos_site_id
 _symmetry_equiv_pos_as_xyz
  1  'x, y, z'
loop_
 _atom_site_type_symbol
 _atom_site_label
 _atom_site_symmetry_multiplicity
 _atom_site_fract_x
 _atom_site_fract_y
 _atom_site_fract_z
 _atom_site_occupancy
  Y  Y0  1  0.00000000  0.00000000  0.00000000  1
  Ti  Ti0  1  0.50000000  0.00000000  0.75042129  1
  Ti  Ti1  1  0.50000000  0.00000000  0.24957871  1
  Nb  Nb0  1  0.00000000  0.50000000  0.75107697  1
  Nb  Nb1  1  0.50000000  0.50000000  0.75107697  1
  Nb  Nb2  1  0.00000000  0.50000000  0.24892303  1
  Nb  Nb3  1  0.50000000  0.50000000  0.24892303  1
  Sn  Sn0  1  0.66347290  0.32694579  0.50000000  1
  Sn  Sn1  1  0.33652710  0.67305421  0.50000000  1
  Sn  Sn2  1  0.66452510  0.32904821  0.00000000  1
  Sn  Sn3  1  0.33547490  0.67095179  0.00000000  1
  Sn  Sn4  1  0.00000000  0.00000000  0.67873419  1
  Sn  Sn5  1  0.00000000  0.00000000  0.32126581  1
loop_
_geom_bond_atom_site_label_1
_geom_bond_atom_site_label_2
_geom_bond_distance
_geom_bond_site_symmetry_2
Nb0 Nb1 2.874927 1_555
Nb0 Nb1 2.874927 1_455
Nb0 Ti0 2.879081 1_565
Nb0 Ti0 2.879081 1_455
Nb0 Sn3 2.923044 1_556
Nb0 Sn2 2.923044 1_456
Nb0 Sn1 2.943154 1_555
Nb0 Sn0 2.943154 1_455
Nb0 Sn4 2.962222 1_565
Nb0 Sn4 2.962222 1_555
Nb1 Ti0 2.879081 1_565
Nb1 Ti0 2.879081 1_555
Nb1 Sn3 2.923050 1_556
Nb1 Sn2 2.923050 1_556
Nb1 Sn0 2.943154 1_555
Nb1 Sn1 2.943154 1_555
Nb1 Sn4 2.962223 1_665
Nb1 Sn4 2.962223 1_555
Nb2 Nb3 2.874927 1_455
Nb2 Nb3 2.874927 1_555
Nb2 Ti1 2.879081 1_455
Nb2 Ti1 2.879081 1_565
Nb2 Sn3 2.923044 1_555
Nb2 Sn2 2.923044 1_455
Nb2 Sn1 2.943154 1_555
Nb2 Sn0 2.943154 1_455
Nb2 Sn5 2.962222 1_555
Nb2 Sn5 2.962222 1_565
Nb3 Ti1 2.879081 1_565
Nb3 Ti1 2.879081 1_555
Nb3 Sn3 2.923050 1_555
Nb3 Sn2 2.923050 1_555
Nb3 Sn0 2.943154 1_555
Nb3 Sn1 2.943154 1_555
Nb3 Sn5 2.962223 1_665
Nb3 Sn5 2.962223 1_555
Sn0 Ti0 2.912147 1_555
Sn0 Ti1 2.912147 1_555
Sn1 Ti0 2.912147 1_565
Sn1 Ti1 2.912147 1_565
Sn2 Ti1 2.911328 1_555
Sn2 Ti0 2.911328 1_554
Sn2 Y0 3.310618 1_655
Sn2 Y0 3.310629 1_555
Sn2 Y0 3.347442 1_665
Sn3 Ti1 2.911328 1_565
Sn3 Ti0 2.911328 1_564
Sn3 Y0 3.310618 1_565
Sn3 Y0 3.310629 1_665
Sn3 Y0 3.347442 1_555
Sn4 Ti0 2.956710 1_555
Sn4 Ti0 2.956710 1_455
Sn4 Y0 3.094933 1_556
Sn5 Ti1 2.956710 1_455
Sn5 Ti1 2.956710 1_555
Sn5 Y0 3.094933 1_555
