# generated using pymatgen
data_LiLuB6Ir
_symmetry_space_group_name_H-M   'P 1'
_cell_length_a   3.47472410
_cell_length_b   8.76589326
_cell_length_c   11.10871246
_cell_angle_alpha   90.00000000
_cell_angle_beta   90.00000000
_cell_angle_gamma   90.00000000
_symmetry_Int_Tables_number   1
_chemical_formula_structural   LiLuB6Ir
_chemical_formula_sum   'Li4 Lu4 B24 Ir4'
_cell_volume   338.36094533
_cell_formula_units_Z   4
loop_
 _symmetry_equiv_pos_site_id
 _symmetry_equiv_pos_as_xyz
  1  'x, y, z'
loop_
 _atom_site_type_symbol
 _atom_site_label
 _atom_site_symmetry_multiplicity
 _atom_site_fract_x
 _atom_site_fract_y
 _atom_site_fract_z
 _atom_site_occupancy
  Li  Li0  1  0.50000000  0.44609057  0.12302832  1
  Li  Li1  1  0.50000000  0.55390943  0.87697168  1
  Li  Li2  1  0.50000000  0.05390943  0.62302832  1
  Li  Li3  1  0.50000000  0.94609057  0.37697168  1
  Lu  Lu0  1  0.50000000  0.31662809  0.41406505  1
  Lu  Lu1  1  0.50000000  0.68337191  0.58593495  1
  Lu  Lu2  1  0.50000000  0.18337191  0.91406505  1
  Lu  Lu3  1  0.50000000  0.81662809  0.08593495  1
  B  B0  1  0.00000000  0.09117169  0.47505617  1
  B  B1  1  0.00000000  0.90882831  0.52494383  1
  B  B2  1  0.00000000  0.40882831  0.97505617  1
  B  B3  1  0.00000000  0.59117169  0.02494383  1
  B  B4  1  0.00000000  0.12427517  0.31930162  1
  B  B5  1  0.00000000  0.87572483  0.68069838  1
  B  B6  1  0.00000000  0.37572483  0.81930162  1
  B  B7  1  0.00000000  0.62427517  0.18069838  1
  B  B8  1  0.00000000  0.05516811  0.06685855  1
  B  B9  1  0.00000000  0.94483189  0.93314145  1
  B  B10  1  0.00000000  0.44483189  0.56685855  1
  B  B11  1  0.00000000  0.55516811  0.43314145  1
  B  B12  1  0.00000000  0.47834683  0.28567227  1
  B  B13  1  0.00000000  0.52165317  0.71432773  1
  B  B14  1  0.00000000  0.02165317  0.78567227  1
  B  B15  1  0.00000000  0.97834683  0.21432773  1
  B  B16  1  0.00000000  0.25827169  0.08110324  1
  B  B17  1  0.00000000  0.74172831  0.91889676  1
  B  B18  1  0.00000000  0.24172831  0.58110324  1
  B  B19  1  0.00000000  0.75827169  0.41889676  1
  B  B20  1  0.00000000  0.29326887  0.23636690  1
  B  B21  1  0.00000000  0.70673113  0.76363310  1
  B  B22  1  0.00000000  0.20673113  0.73636690  1
  B  B23  1  0.00000000  0.79326887  0.26363310  1
  Ir  Ir0  1  0.50000000  0.13990660  0.18157390  1
  Ir  Ir1  1  0.50000000  0.86009340  0.81842610  1
  Ir  Ir2  1  0.50000000  0.36009340  0.68157390  1
  Ir  Ir3  1  0.50000000  0.63990660  0.31842610  1
loop_
_geom_bond_atom_site_label_1
_geom_bond_atom_site_label_2
_geom_bond_distance
_geom_bond_site_symmetry_2
B0 B1 1.691749 1_545
B0 B4 1.754397 1_555
B0 B18 1.769059 1_555
B0 Li3 2.413095 1_545
B0 Li3 2.413095 1_445
B0 Li2 2.413945 1_555
B0 Li2 2.413945 1_455
B0 Lu0 2.717231 1_455
B0 Lu0 2.717231 1_555
B1 B5 1.754397 1_555
B1 B19 1.769059 1_555
B1 Li2 2.413095 1_565
B1 Li2 2.413095 1_465
B1 Li3 2.413945 1_555
B1 Li3 2.413945 1_455
B1 Lu1 2.717231 1_455
B1 Lu1 2.717231 1_555
B2 B3 1.691749 1_556
B2 B6 1.754397 1_555
B2 Li1 2.413095 1_455
B2 Li1 2.413095 1_555
B2 Li0 2.413945 1_456
B2 Li0 2.413945 1_556
B2 Lu2 2.717231 1_555
B2 Lu2 2.717231 1_455
B3 B7 1.754397 1_555
B3 Li0 2.413095 1_555
B3 Li0 2.413095 1_455
B3 Li1 2.413945 1_554
B3 Li1 2.413945 1_454
B3 Lu3 2.717231 1_555
B3 Lu3 2.717231 1_455
B4 Ir0 2.319059 1_455
B4 Ir0 2.319059 1_555
B4 Li3 2.422504 1_545
B4 Li3 2.422504 1_445
B4 Lu0 2.640017 1_455
B4 Lu0 2.640017 1_555
B5 Ir1 2.319059 1_555
B5 Ir1 2.319059 1_455
B5 Li2 2.422504 1_565
B5 Li2 2.422504 1_465
B5 Lu1 2.640017 1_555
B5 Lu1 2.640017 1_455
B6 Ir2 2.319059 1_555
B6 Ir2 2.319059 1_455
B6 Li1 2.422504 1_555
B6 Li1 2.422504 1_455
B6 Lu2 2.640017 1_555
B6 Lu2 2.640017 1_455
B7 Ir3 2.319059 1_555
B7 Ir3 2.319059 1_455
B7 Li0 2.422504 1_555
B7 Li0 2.422504 1_455
B7 Lu3 2.640017 1_455
B7 Lu3 2.640017 1_555
B8 B9 1.772556 1_544
B8 Ir0 2.279064 1_555
B8 Ir0 2.279064 1_455
B8 Lu2 2.676259 1_554
B8 Lu2 2.676259 1_454
B8 Lu3 2.726845 1_545
B8 Lu3 2.726845 1_445
B9 Ir1 2.279064 1_455
B9 Ir1 2.279064 1_555
B9 Lu3 2.676259 1_556
B9 Lu3 2.676259 1_456
B9 Lu2 2.726845 1_565
B9 Lu2 2.726845 1_465
B10 B13 1.771201 1_555
B10 B11 1.772556 1_555
B10 B18 1.787403 1_555
B10 Ir2 2.279064 1_455
B10 Ir2 2.279064 1_555
B10 Lu0 2.676259 1_455
B10 Lu0 2.676259 1_555
B10 Lu1 2.726845 1_455
B10 Lu1 2.726845 1_555
B11 B12 1.771201 1_555
B11 B19 1.787403 1_555
B11 Ir3 2.279064 1_555
B11 Ir3 2.279064 1_455
B11 Lu1 2.676259 1_455
B11 Lu1 2.676259 1_555
B11 Lu0 2.726845 1_555
B11 Lu0 2.726845 1_455
B12 B20 1.712335 1_555
B12 B7 1.730948 1_555
B12 Ir3 2.270789 1_555
B12 Ir3 2.270789 1_455
B12 Li0 2.522454 1_555
B12 Li0 2.522454 1_455
B12 Lu0 2.657501 1_555
B12 Lu0 2.657501 1_455
B13 B21 1.712335 1_555
B13 B6 1.730948 1_555
B13 Ir2 2.270789 1_455
B13 Ir2 2.270789 1_555
B13 Li1 2.522454 1_455
B13 Li1 2.522454 1_555
B13 Lu1 2.657501 1_455
B13 Lu1 2.657501 1_555
B14 B22 1.712335 1_555
B14 B5 1.730948 1_545
B14 B9 1.771201 1_545
B14 Ir1 2.270789 1_445
B14 Ir1 2.270789 1_545
B14 Li2 2.522454 1_455
B14 Li2 2.522454 1_555
B14 Lu2 2.657501 1_555
B14 Lu2 2.657501 1_455
B15 B23 1.712335 1_555
B15 B4 1.730948 1_565
B15 B8 1.771201 1_565
B15 Ir0 2.270789 1_565
B15 Ir0 2.270789 1_465
B15 Li3 2.522454 1_455
B15 Li3 2.522454 1_555
B15 Lu3 2.657501 1_455
B15 Lu3 2.657501 1_555
B16 B20 1.751850 1_555
B16 B2 1.769059 1_554
B16 B8 1.787403 1_555
B16 Ir0 2.310989 1_555
B16 Ir0 2.310989 1_455
B16 Li0 2.438436 1_555
B16 Li0 2.438436 1_455
B16 Lu2 2.625391 1_554
B16 Lu2 2.625391 1_454
B17 B21 1.751850 1_555
B17 B3 1.769059 1_556
B17 B9 1.787403 1_555
B17 Ir1 2.310989 1_455
B17 Ir1 2.310989 1_555
B17 Li1 2.438436 1_455
B17 Li1 2.438436 1_555
B17 Lu3 2.625391 1_456
B17 Lu3 2.625391 1_556
B18 B22 1.751850 1_555
B18 Ir2 2.310989 1_555
B18 Ir2 2.310989 1_455
B18 Li2 2.438436 1_455
B18 Li2 2.438436 1_555
B18 Lu0 2.625391 1_455
B18 Lu0 2.625391 1_555
B19 B23 1.751850 1_555
B19 Ir3 2.310989 1_555
B19 Ir3 2.310989 1_455
B19 Li3 2.438436 1_555
B19 Li3 2.438436 1_455
B19 Lu1 2.625391 1_455
B19 Lu1 2.625391 1_555
B20 B4 1.744500 1_555
B20 Ir0 2.279521 1_555
B20 Ir0 2.279521 1_455
B20 Li0 2.529467 1_455
B20 Li0 2.529467 1_555
B20 Lu0 2.637617 1_455
B20 Lu0 2.637617 1_555
B21 B5 1.744500 1_555
B21 Ir1 2.279521 1_555
B21 Ir1 2.279521 1_455
B21 Li1 2.529467 1_555
B21 Li1 2.529467 1_455
B21 Lu1 2.637617 1_555
B21 Lu1 2.637617 1_455
B22 B6 1.744500 1_555
B22 Ir2 2.279521 1_555
B22 Ir2 2.279521 1_455
B22 Li2 2.529467 1_455
B22 Li2 2.529467 1_555
B22 Lu2 2.637617 1_455
B22 Lu2 2.637617 1_555
B23 B7 1.744500 1_555
B23 Ir3 2.279521 1_455
B23 Ir3 2.279521 1_555
B23 Li3 2.529467 1_455
B23 Li3 2.529467 1_555
B23 Lu3 2.637617 1_555
B23 Lu3 2.637617 1_455
Ir0 Li3 2.756462 1_545
Ir0 Li0 2.761649 1_555
Ir0 Lu2 2.996005 1_554
Ir0 Lu0 3.011644 1_555
Ir0 Lu3 3.026435 1_545
Ir1 Li2 2.756462 1_565
Ir1 Li1 2.761649 1_555
Ir1 Lu3 2.996005 1_556
Ir1 Lu1 3.011644 1_555
Ir1 Lu2 3.026435 1_565
Ir2 Li1 2.756462 1_555
Ir2 Li2 2.761649 1_555
Ir2 Lu0 2.996005 1_555
Ir2 Lu2 3.011644 1_555
Ir2 Lu1 3.026435 1_555
Ir3 Li0 2.756462 1_555
Ir3 Li3 2.761649 1_555
Ir3 Lu1 2.996005 1_555
Ir3 Lu3 3.011644 1_555
Ir3 Lu0 3.026435 1_555
