# generated using pymatgen
data_BaBi6(AsO5)4
_symmetry_space_group_name_H-M   'P 1'
_cell_length_a   7.18224337
_cell_length_b   7.92628129
_cell_length_c   9.31212736
_cell_angle_alpha   107.05725238
_cell_angle_beta   93.73563014
_cell_angle_gamma   111.16697468
_symmetry_Int_Tables_number   1
_chemical_formula_structural   BaBi6(AsO5)4
_chemical_formula_sum   'Ba1 Bi6 As4 O20'
_cell_volume   463.83047932
_cell_formula_units_Z   1
loop_
 _symmetry_equiv_pos_site_id
 _symmetry_equiv_pos_as_xyz
  1  'x, y, z'
loop_
 _atom_site_type_symbol
 _atom_site_label
 _atom_site_symmetry_multiplicity
 _atom_site_fract_x
 _atom_site_fract_y
 _atom_site_fract_z
 _atom_site_occupancy
  Ba  Ba0  1  0.00000000  0.00000000  0.00000000  1
  Bi  Bi0  1  0.33109508  0.11751123  0.50938512  1
  Bi  Bi1  1  0.66890492  0.88248877  0.49061488  1
  Bi  Bi2  1  0.44384793  0.79939752  0.08582419  1
  Bi  Bi3  1  0.55615207  0.20060248  0.91417581  1
  Bi  Bi4  1  0.79881577  0.29101531  0.33109670  1
  Bi  Bi5  1  0.20118423  0.70898469  0.66890330  1
  As  As0  1  0.04593276  0.27624163  0.75312234  1
  As  As1  1  0.95406724  0.72375837  0.24687766  1
  As  As2  1  0.35542720  0.40934364  0.26501920  1
  As  As3  1  0.64457280  0.59065636  0.73498080  1
  O  O0  1  0.12682851  0.27000829  0.29096143  1
  O  O1  1  0.87317149  0.72999171  0.70903857  1
  O  O2  1  0.15656625  0.51950141  0.82947962  1
  O  O3  1  0.84343375  0.48049859  0.17052038  1
  O  O4  1  0.66754869  0.09291833  0.10198960  1
  O  O5  1  0.33245131  0.90708167  0.89801040  1
  O  O6  1  0.55256541  0.02792703  0.36499416  1
  O  O7  1  0.44743459  0.97207297  0.63500584  1
  O  O8  1  0.38587923  0.64341067  0.31734940  1
  O  O9  1  0.61412077  0.35658933  0.68265060  1
  O  O10  1  0.21660934  0.17034176  0.75451354  1
  O  O11  1  0.78339066  0.82965824  0.24548646  1
  O  O12  1  0.53788379  0.38285901  0.37142699  1
  O  O13  1  0.46211621  0.61714099  0.62857301  1
  O  O14  1  0.05829079  0.79878214  0.43632740  1
  O  O15  1  0.94170921  0.20121786  0.56367260  1
  O  O16  1  0.13700592  0.82195847  0.15452124  1
  O  O17  1  0.86299408  0.17804153  0.84547876  1
  O  O18  1  0.35859529  0.32636115  0.07573019  1
  O  O19  1  0.64140471  0.67363885  0.92426981  1
loop_
_geom_bond_atom_site_label_1
_geom_bond_atom_site_label_2
_geom_bond_distance
_geom_bond_site_symmetry_2
Ba0 O17 2.653278 1_454
Ba0 O16 2.653278 1_545
Ba0 O0 2.760428 1_555
Ba0 O1 2.760428 1_444
Ba0 O18 2.775607 1_555
Ba0 O19 2.775607 1_444
Ba0 O5 2.881129 1_544
Ba0 O4 2.881129 1_455
Ba0 O11 3.197858 1_445
Ba0 O10 3.197858 1_554
Bi0 O7 2.180574 1_545
Bi0 O9 2.307263 1_555
Bi0 O6 2.318740 1_555
Bi0 O14 2.434650 1_545
Bi0 O10 2.448370 1_555
Bi0 O12 2.803154 1_555
Bi1 O6 2.180574 1_565
Bi1 O8 2.307263 1_555
Bi1 O7 2.318740 1_555
Bi1 O15 2.434650 1_565
Bi1 O11 2.448370 1_555
Bi1 O13 2.803154 1_555
Bi2 O4 2.253964 1_565
Bi2 O5 2.369397 1_554
Bi2 O19 2.385366 1_554
Bi2 O16 2.387302 1_555
Bi2 O6 2.569161 1_565
Bi2 O11 2.666674 1_555
Bi2 O8 2.767554 1_555
Bi2 O2 2.796974 1_554
Bi3 O5 2.253964 1_545
Bi3 O4 2.369397 1_556
Bi3 O18 2.385366 1_556
Bi3 O17 2.387302 1_555
Bi3 O7 2.569161 1_545
Bi3 O10 2.666674 1_555
Bi3 O9 2.767554 1_555
Bi3 O3 2.796974 1_556
Bi4 O4 2.146997 1_555
Bi4 O12 2.258260 1_555
Bi4 O6 2.317680 1_555
Bi4 O3 2.372067 1_555
Bi4 O0 2.465570 1_655
Bi4 O15 2.718953 1_555
Bi5 O5 2.146997 1_555
Bi5 O13 2.258260 1_555
Bi5 O7 2.317680 1_555
Bi5 O2 2.372067 1_555
Bi5 O1 2.465570 1_455
Bi5 O14 2.718953 1_555
As0 O2 1.694210 1_555
As0 O17 1.695071 1_455
As0 O15 1.708008 1_455
As0 O10 1.718962 1_555
As1 O3 1.694210 1_555
As1 O16 1.695071 1_655
As1 O14 1.708008 1_655
As1 O11 1.718962 1_555
As2 O0 1.694833 1_555
As2 O18 1.695897 1_555
As2 O8 1.700016 1_555
As2 O12 1.701377 1_555
As3 O1 1.694833 1_555
As3 O19 1.695897 1_555
As3 O9 1.700016 1_555
As3 O13 1.701377 1_555
