# generated using pymatgen
data_KMnCoO4
_symmetry_space_group_name_H-M   'P 1'
_cell_length_a   2.88667909
_cell_length_b   4.85042394
_cell_length_c   6.37646587
_cell_angle_alpha   103.69661493
_cell_angle_beta   90.22317792
_cell_angle_gamma   89.98214751
_symmetry_Int_Tables_number   1
_chemical_formula_structural   KMnCoO4
_chemical_formula_sum   'K1 Mn1 Co1 O4'
_cell_volume   86.74129093
_cell_formula_units_Z   1
loop_
 _symmetry_equiv_pos_site_id
 _symmetry_equiv_pos_as_xyz
  1  'x, y, z'
loop_
 _atom_site_type_symbol
 _atom_site_label
 _atom_site_symmetry_multiplicity
 _atom_site_fract_x
 _atom_site_fract_y
 _atom_site_fract_z
 _atom_site_occupancy
  K  K0  1  0.50000000  0.00000000  0.50000000  1
  Mn  Mn0  1  0.50000000  0.50000000  0.00000000  1
  Co  Co0  1  0.00000000  0.00000000  0.00000000  1
  O  O0  1  0.49847036  0.78362268  0.84315779  1
  O  O1  1  0.99877799  0.28703574  0.83927334  1
  O  O2  1  0.00122201  0.71296426  0.16072666  1
  O  O3  1  0.50152964  0.21637732  0.15684221  1
loop_
_geom_bond_atom_site_label_1
_geom_bond_atom_site_label_2
_geom_bond_distance
_geom_bond_site_symmetry_2
K0 O0 2.641412 1_545
K0 O3 2.641412 1_555
K0 O1 2.691134 1_555
K0 O2 2.691134 1_545
K0 O1 2.703463 1_455
K0 O2 2.703463 1_645
Mn0 O3 1.882616 1_555
Mn0 O0 1.882616 1_554
Mn0 O2 1.923237 1_655
Mn0 O1 1.923237 1_454
Mn0 O2 1.923451 1_555
Mn0 O1 1.923451 1_554
Co0 O1 1.914260 1_454
Co0 O2 1.914260 1_545
Co0 O3 1.919740 1_455
Co0 O0 1.919740 1_544
Co0 O3 1.921014 1_555
Co0 O0 1.921014 1_444
