# generated using pymatgen
data_LiTi8(SiSb2)2
_symmetry_space_group_name_H-M   'P 1'
_cell_length_a   4.92818990
_cell_length_b   7.76743581
_cell_length_c   7.76743610
_cell_angle_alpha   95.77587702
_cell_angle_beta   108.49573078
_cell_angle_gamma   71.50427083
_symmetry_Int_Tables_number   1
_chemical_formula_structural   LiTi8(SiSb2)2
_chemical_formula_sum   'Li1 Ti8 Si2 Sb4'
_cell_volume   267.40998569
_cell_formula_units_Z   1
loop_
 _symmetry_equiv_pos_site_id
 _symmetry_equiv_pos_as_xyz
  1  'x, y, z'
loop_
 _atom_site_type_symbol
 _atom_site_label
 _atom_site_symmetry_multiplicity
 _atom_site_fract_x
 _atom_site_fract_y
 _atom_site_fract_z
 _atom_site_occupancy
  Li  Li0  1  0.25000000  0.50000000  0.50000000  1
  Ti  Ti0  1  0.41748875  0.87585885  0.71716773  1
  Ti  Ti1  1  0.57617988  0.12414115  0.28283227  1
  Ti  Ti2  1  0.92382012  0.28283227  0.12414115  1
  Ti  Ti3  1  0.08251125  0.71716773  0.87585885  1
  Ti  Ti4  1  0.70665240  0.71716773  0.12414115  1
  Ti  Ti5  1  0.29967898  0.28283227  0.87585885  1
  Ti  Ti6  1  0.79334760  0.12414115  0.71716773  1
  Ti  Ti7  1  0.20032102  0.87585885  0.28283227  1
  Si  Si0  1  0.25000000  0.00000000  0.00000000  1
  Si  Si1  1  0.75000000  0.00000000  0.00000000  1
  Sb  Sb0  1  0.36487476  0.50000000  0.19425219  1
  Sb  Sb1  1  0.67062257  0.50000000  0.80574781  1
  Sb  Sb2  1  0.82937743  0.80574781  0.50000000  1
  Sb  Sb3  1  0.13512524  0.19425219  0.50000000  1
loop_
_geom_bond_atom_site_label_1
_geom_bond_atom_site_label_2
_geom_bond_distance
_geom_bond_site_symmetry_2
Li0 Sb3 2.610280 1_555
Li0 Sb0 2.610280 1_555
Li0 Sb2 2.610280 1_455
Li0 Sb1 2.610280 1_555
Si0 Si1 2.464095 1_455
Si0 Si1 2.464095 1_555
Si0 Ti3 2.580028 1_544
Si0 Ti1 2.580029 1_555
Si0 Ti0 2.580029 1_544
Si0 Ti2 2.580029 1_455
Si0 Ti5 2.594886 1_554
Si0 Ti7 2.594886 1_545
Si0 Ti4 2.594886 1_545
Si0 Ti6 2.594886 1_454
Si1 Ti4 2.580029 1_545
Si1 Ti6 2.580029 1_554
Si1 Ti5 2.580029 1_554
Si1 Ti7 2.580029 1_645
Si1 Ti2 2.594886 1_555
Si1 Ti0 2.594886 1_544
Si1 Ti1 2.594886 1_555
Si1 Ti3 2.594886 1_644
Sb0 Ti5 2.839882 1_554
Sb0 Ti3 2.839882 1_554
Sb0 Ti7 2.846378 1_555
Sb0 Ti1 2.846378 1_555
Sb0 Ti4 2.923788 1_555
Sb0 Ti2 2.923788 1_555
Sb0 Ti2 3.042514 1_455
Sb0 Ti4 3.042514 1_455
Sb1 Ti4 2.839882 1_556
Sb1 Ti2 2.839882 1_556
Sb1 Ti6 2.846378 1_555
Sb1 Ti0 2.846378 1_555
Sb1 Ti3 2.923788 1_655
Sb1 Ti5 2.923788 1_655
Sb1 Ti5 3.042514 1_555
Sb1 Ti3 3.042514 1_555
Sb2 Ti6 2.839882 1_565
Sb2 Ti1 2.839882 1_565
Sb2 Ti4 2.846378 1_555
Sb2 Ti3 2.846378 1_655
Sb2 Ti0 2.923788 1_555
Sb2 Ti7 2.923788 1_555
Sb2 Ti7 3.042514 1_655
Sb2 Ti0 3.042514 1_655
Sb3 Ti7 2.839882 1_545
Sb3 Ti0 2.839882 1_545
Sb3 Ti5 2.846378 1_555
Sb3 Ti2 2.846378 1_455
Sb3 Ti6 2.923788 1_455
Sb3 Ti1 2.923788 1_455
Sb3 Ti1 3.042514 1_555
Sb3 Ti6 3.042514 1_555
