# generated using pymatgen
data_TaV3GaTe8
_symmetry_space_group_name_H-M   'P 1'
_cell_length_a   7.92117432
_cell_length_b   7.92117503
_cell_length_c   7.92117450
_cell_angle_alpha   60.37522951
_cell_angle_beta   60.37523501
_cell_angle_gamma   60.37524188
_symmetry_Int_Tables_number   1
_chemical_formula_structural   TaV3GaTe8
_chemical_formula_sum   'Ta1 V3 Ga1 Te8'
_cell_volume   354.42482844
_cell_formula_units_Z   1
loop_
 _symmetry_equiv_pos_site_id
 _symmetry_equiv_pos_as_xyz
  1  'x, y, z'
loop_
 _atom_site_type_symbol
 _atom_site_label
 _atom_site_symmetry_multiplicity
 _atom_site_fract_x
 _atom_site_fract_y
 _atom_site_fract_z
 _atom_site_occupancy
  Ta  Ta0  1  0.60367565  0.60367565  0.60367565  1
  V  V0  1  0.61077278  0.16990037  0.61077278  1
  V  V1  1  0.16990037  0.61077278  0.61077278  1
  V  V2  1  0.61077278  0.61077278  0.16990037  1
  Ga  Ga0  1  0.99804432  0.99804432  0.99804432  1
  Te  Te0  1  0.37171192  0.37171192  0.37171192  1
  Te  Te1  1  0.37007586  0.89432579  0.37007586  1
  Te  Te2  1  0.89432579  0.37007586  0.37007586  1
  Te  Te3  1  0.37007586  0.37007586  0.89432579  1
  Te  Te4  1  0.86136227  0.86136227  0.86136227  1
  Te  Te5  1  0.86596450  0.40735341  0.86596450  1
  Te  Te6  1  0.40735341  0.86596450  0.86596450  1
  Te  Te7  1  0.86596450  0.86596450  0.40735341  1
loop_
_geom_bond_atom_site_label_1
_geom_bond_atom_site_label_2
_geom_bond_distance
_geom_bond_site_symmetry_2
Ta0 Te3 2.666455 1_555
Ta0 Te1 2.666455 1_555
Ta0 Te2 2.666456 1_555
Ta0 Te7 2.988405 1_555
Ta0 Te5 2.988405 1_555
Ta0 Te6 2.988405 1_555
Ga0 Te4 2.644474 1_555
Ga0 Te7 2.660109 1_556
Ga0 Te6 2.660109 1_655
Ga0 Te5 2.660109 1_565
Te0 V2 2.699422 1_555
Te0 V0 2.699422 1_555
Te0 V1 2.699422 1_555
Te1 V1 2.737268 1_555
Te1 V2 2.737269 1_555
Te2 V0 2.737268 1_555
Te2 V2 2.737268 1_555
Te3 V1 2.737268 1_555
Te3 V0 2.737269 1_555
Te4 V2 2.855931 1_556
Te4 V0 2.855932 1_565
Te4 V1 2.855932 1_655
Te5 V1 2.877923 1_655
Te5 V2 2.877924 1_556
Te6 V0 2.877923 1_565
Te6 V2 2.877923 1_556
Te7 V1 2.877923 1_655
Te7 V0 2.877924 1_565
