# generated using pymatgen
data_KBaCuF6
_symmetry_space_group_name_H-M   'P 1'
_cell_length_a   5.71082409
_cell_length_b   5.71082442
_cell_length_c   5.71082391
_cell_angle_alpha   59.99999210
_cell_angle_beta   59.99999016
_cell_angle_gamma   59.99999538
_symmetry_Int_Tables_number   1
_chemical_formula_structural   KBaCuF6
_chemical_formula_sum   'K1 Ba1 Cu1 F6'
_cell_volume   131.69863949
_cell_formula_units_Z   1
loop_
 _symmetry_equiv_pos_site_id
 _symmetry_equiv_pos_as_xyz
  1  'x, y, z'
loop_
 _atom_site_type_symbol
 _atom_site_label
 _atom_site_symmetry_multiplicity
 _atom_site_fract_x
 _atom_site_fract_y
 _atom_site_fract_z
 _atom_site_occupancy
  K  K0  1  0.25000000  0.25000000  0.25000000  1
  Ba  Ba0  1  0.75000000  0.75000000  0.75000000  1
  Cu  Cu0  1  0.00000000  0.00000000  0.00000000  1
  F  F0  1  0.76663162  0.76663162  0.23336838  1
  F  F1  1  0.23336838  0.76663162  0.23336838  1
  F  F2  1  0.76663162  0.23336838  0.23336838  1
  F  F3  1  0.23336838  0.23336838  0.76663162  1
  F  F4  1  0.76663162  0.23336838  0.76663162  1
  F  F5  1  0.23336838  0.76663162  0.76663162  1
loop_
_geom_bond_atom_site_label_1
_geom_bond_atom_site_label_2
_geom_bond_distance
_geom_bond_site_symmetry_2
Ba0 F1 2.858569 1_655
Ba0 F1 2.858569 1_556
Ba0 F2 2.858569 1_565
Ba0 F2 2.858569 1_556
Ba0 F3 2.858570 1_565
Ba0 F0 2.858570 1_555
Ba0 F3 2.858570 1_655
Ba0 F0 2.858570 1_556
Ba0 F5 2.858570 1_555
Ba0 F5 2.858570 1_655
Ba0 F4 2.858570 1_555
Ba0 F4 2.858570 1_565
Cu0 F3 1.884759 1_554
Cu0 F0 1.884759 1_445
Cu0 F1 1.884759 1_545
Cu0 F4 1.884759 1_454
Cu0 F2 1.884759 1_455
Cu0 F5 1.884759 1_544
F0 K0 2.858570 1_565
F0 K0 2.858570 1_655
F1 K0 2.858570 1_555
F1 K0 2.858570 1_565
F2 K0 2.858570 1_555
F2 K0 2.858570 1_655
F3 K0 2.858570 1_555
F3 K0 2.858570 1_556
F4 K0 2.858569 1_655
F4 K0 2.858569 1_556
F5 K0 2.858569 1_565
F5 K0 2.858569 1_556
