# generated using pymatgen
data_VFeHgO5
_symmetry_space_group_name_H-M   'P 1'
_cell_length_a   6.05520476
_cell_length_b   8.23169784
_cell_length_c   8.59321227
_cell_angle_alpha   90.00000000
_cell_angle_beta   90.00000000
_cell_angle_gamma   90.00000000
_symmetry_Int_Tables_number   1
_chemical_formula_structural   VFeHgO5
_chemical_formula_sum   'V4 Fe4 Hg4 O20'
_cell_volume   428.32536554
_cell_formula_units_Z   4
loop_
 _symmetry_equiv_pos_site_id
 _symmetry_equiv_pos_as_xyz
  1  'x, y, z'
loop_
 _atom_site_type_symbol
 _atom_site_label
 _atom_site_symmetry_multiplicity
 _atom_site_fract_x
 _atom_site_fract_y
 _atom_site_fract_z
 _atom_site_occupancy
  V  V0  1  0.75000000  0.30973198  0.71482107  1
  V  V1  1  0.75000000  0.80973198  0.78517893  1
  V  V2  1  0.25000000  0.69026802  0.28517893  1
  V  V3  1  0.25000000  0.19026802  0.21482107  1
  Fe  Fe0  1  0.00000000  0.00000000  0.50000000  1
  Fe  Fe1  1  0.50000000  0.50000000  0.00000000  1
  Fe  Fe2  1  0.50000000  0.00000000  0.50000000  1
  Fe  Fe3  1  0.00000000  0.50000000  0.00000000  1
  Hg  Hg0  1  0.25000000  0.57007474  0.65476177  1
  Hg  Hg1  1  0.25000000  0.07007474  0.84523823  1
  Hg  Hg2  1  0.75000000  0.42992526  0.34523823  1
  Hg  Hg3  1  0.75000000  0.92992526  0.15476177  1
  O  O0  1  0.52310686  0.32960512  0.83123489  1
  O  O1  1  0.97689314  0.82960512  0.66876511  1
  O  O2  1  0.02310686  0.67039488  0.16876511  1
  O  O3  1  0.47689314  0.17039488  0.33123489  1
  O  O4  1  0.47689314  0.67039488  0.16876511  1
  O  O5  1  0.02310686  0.17039488  0.33123489  1
  O  O6  1  0.97689314  0.32960512  0.83123489  1
  O  O7  1  0.52310686  0.82960512  0.66876511  1
  O  O8  1  0.75000000  0.12519293  0.61239416  1
  O  O9  1  0.75000000  0.62519293  0.88760584  1
  O  O10  1  0.25000000  0.87480707  0.38760584  1
  O  O11  1  0.25000000  0.37480707  0.11239416  1
  O  O12  1  0.25000000  0.09853443  0.61014658  1
  O  O13  1  0.25000000  0.59853443  0.88985342  1
  O  O14  1  0.75000000  0.90146557  0.38985342  1
  O  O15  1  0.75000000  0.40146557  0.11014658  1
  O  O16  1  0.75000000  0.46745288  0.57978416  1
  O  O17  1  0.75000000  0.96745288  0.92021584  1
  O  O18  1  0.25000000  0.53254712  0.42021584  1
  O  O19  1  0.25000000  0.03254712  0.07978416  1
loop_
_geom_bond_atom_site_label_1
_geom_bond_atom_site_label_2
_geom_bond_distance
_geom_bond_site_symmetry_2
Fe0 O12 1.960962 1_555
Fe0 O14 1.960962 1_445
Fe0 O1 2.022413 1_445
Fe0 O5 2.022413 1_555
Fe0 O8 2.070374 1_455
Fe0 O10 2.070374 1_545
Fe1 O15 1.960962 1_555
Fe1 O13 1.960962 1_554
Fe1 O4 2.022413 1_555
Fe1 O0 2.022413 1_554
Fe1 O9 2.070374 1_554
Fe1 O11 2.070374 1_555
Fe2 O12 1.960962 1_555
Fe2 O14 1.960962 1_545
Fe2 O7 2.022413 1_545
Fe2 O3 2.022413 1_555
Fe2 O8 2.070374 1_555
Fe2 O10 2.070374 1_545
Fe3 O15 1.960962 1_455
Fe3 O13 1.960962 1_554
Fe3 O2 2.022413 1_555
Fe3 O6 2.022413 1_454
Fe3 O9 2.070374 1_454
Fe3 O11 2.070374 1_555
Hg0 O13 2.033731 1_555
Hg0 O18 2.039039 1_555
Hg1 O12 2.033731 1_555
Hg1 O19 2.039039 1_556
Hg2 O15 2.033731 1_555
Hg2 O16 2.039039 1_555
Hg3 O14 2.033731 1_555
Hg3 O17 2.039039 1_554
O0 V0 1.707354 1_555
O1 V1 1.707354 1_555
O2 V2 1.707354 1_555
O3 V3 1.707354 1_555
O4 V2 1.707354 1_555
O5 V3 1.707354 1_555
O6 V0 1.707354 1_555
O7 V1 1.707354 1_555
O8 V0 1.755643 1_555
O9 V1 1.755643 1_555
O10 V2 1.755643 1_555
O11 V3 1.755643 1_555
O16 V0 1.741304 1_555
O17 V1 1.741304 1_555
O18 V2 1.741304 1_555
O19 V3 1.741304 1_555
