# generated using pymatgen
data_YMnHgPt3
_symmetry_space_group_name_H-M   'P 1'
_cell_length_a   5.47975062
_cell_length_b   5.47975005
_cell_length_c   5.22774642
_cell_angle_alpha   58.39215677
_cell_angle_beta   58.39216193
_cell_angle_gamma   60.00000749
_symmetry_Int_Tables_number   1
_chemical_formula_structural   YMnHgPt3
_chemical_formula_sum   'Y1 Mn1 Hg1 Pt3'
_cell_volume   108.22499617
_cell_formula_units_Z   1
loop_
 _symmetry_equiv_pos_site_id
 _symmetry_equiv_pos_as_xyz
  1  'x, y, z'
loop_
 _atom_site_type_symbol
 _atom_site_label
 _atom_site_symmetry_multiplicity
 _atom_site_fract_x
 _atom_site_fract_y
 _atom_site_fract_z
 _atom_site_occupancy
  Y  Y0  1  0.00515587  0.00515587  0.98453238  1
  Mn  Mn0  1  0.62272194  0.62272194  0.13183218  1
  Hg  Hg0  1  0.25173883  0.25173883  0.24478452  1
  Pt  Pt0  1  0.62310152  0.12417832  0.62961664  1
  Pt  Pt1  1  0.62310152  0.62310152  0.62961664  1
  Pt  Pt2  1  0.12417832  0.62310152  0.62961664  1
loop_
_geom_bond_atom_site_label_1
_geom_bond_atom_site_label_2
_geom_bond_distance
_geom_bond_site_symmetry_2
Mn0 Pt1 2.604473 1_555
Mn0 Pt0 2.604473 1_555
Mn0 Pt2 2.604473 1_555
Mn0 Pt1 2.623277 1_554
Mn0 Pt0 2.623277 1_564
Mn0 Pt2 2.623277 1_654
Mn0 Y0 3.222577 1_654
Mn0 Y0 3.222577 1_564
Mn0 Y0 3.222586 1_664
Hg0 Pt1 3.007655 1_554
Hg0 Pt2 3.007662 1_554
Hg0 Pt0 3.007662 1_554
Hg0 Y0 3.078641 1_555
Hg0 Pt2 3.173628 1_555
Hg0 Pt0 3.173628 1_555
Hg0 Pt1 3.173636 1_545
Hg0 Pt1 3.173636 1_455
Hg0 Pt2 3.173643 1_545
Hg0 Pt0 3.173643 1_455
Hg0 Mn0 3.198458 1_555
Hg0 Mn0 3.198472 1_545
Hg0 Mn0 3.198473 1_455
Hg0 Y0 3.343998 1_564
Hg0 Y0 3.343999 1_654
Hg0 Y0 3.344002 1_554
Pt0 Pt1 2.733974 1_555
Pt0 Pt2 2.733975 1_555
Pt0 Pt1 2.745776 1_545
Pt0 Pt2 2.745776 1_645
Pt0 Y0 3.112656 1_555
Pt0 Y0 3.112666 1_655
Pt0 Y0 3.117783 1_654
Pt1 Pt2 2.733975 1_555
Pt1 Pt2 2.745776 1_655
Pt1 Y0 3.112661 1_655
Pt1 Y0 3.112661 1_565
Pt1 Y0 3.117787 1_664
Pt2 Y0 3.112656 1_555
Pt2 Y0 3.112666 1_565
Pt2 Y0 3.117782 1_564
