# generated using pymatgen
data_LiMg3Si3Pd4
_symmetry_space_group_name_H-M   'P 1'
_cell_length_a   10.30015319
_cell_length_b   10.31406432
_cell_length_c   7.20802881
_cell_angle_alpha   72.99493988
_cell_angle_beta   72.96420209
_cell_angle_gamma   29.52945723
_symmetry_Int_Tables_number   1
_chemical_formula_structural   LiMg3Si3Pd4
_chemical_formula_sum   'Li2 Mg6 Si6 Pd8'
_cell_volume   359.71116632
_cell_formula_units_Z   2
loop_
 _symmetry_equiv_pos_site_id
 _symmetry_equiv_pos_as_xyz
  1  'x, y, z'
loop_
 _atom_site_type_symbol
 _atom_site_label
 _atom_site_symmetry_multiplicity
 _atom_site_fract_x
 _atom_site_fract_y
 _atom_site_fract_z
 _atom_site_occupancy
  Li  Li0  1  0.93817088  0.19566862  0.33420047  1
  Li  Li1  1  0.06182912  0.80433138  0.66579953  1
  Mg  Mg0  1  0.80129423  0.06796542  0.17214403  1
  Mg  Mg1  1  0.45904419  0.20444453  0.90373950  1
  Mg  Mg2  1  0.80001157  0.54028874  0.59295116  1
  Mg  Mg3  1  0.19998843  0.45971126  0.40704884  1
  Mg  Mg4  1  0.19870577  0.93203458  0.82785597  1
  Mg  Mg5  1  0.54095581  0.79555547  0.09626050  1
  Si  Si0  1  0.29558541  0.03494383  0.44602354  1
  Si  Si1  1  0.35067226  0.65062429  0.25178047  1
  Si  Si2  1  0.03426105  0.29604906  0.95155259  1
  Si  Si3  1  0.70441459  0.96505617  0.55397646  1
  Si  Si4  1  0.96573895  0.70395094  0.04844741  1
  Si  Si5  1  0.64932774  0.34937571  0.74821953  1
  Pd  Pd0  1  0.56631983  0.30814693  0.51481300  1
  Pd  Pd1  1  0.69629950  0.42759045  0.98389222  1
  Pd  Pd2  1  0.30370050  0.57240955  0.01610778  1
  Pd  Pd3  1  0.43368017  0.69185307  0.48518700  1
  Pd  Pd4  1  0.63207322  0.92259745  0.30589208  1
  Pd  Pd5  1  0.92329110  0.62954145  0.80630207  1
  Pd  Pd6  1  0.36792678  0.07740255  0.69410792  1
  Pd  Pd7  1  0.07670890  0.37045855  0.19369793  1
loop_
_geom_bond_atom_site_label_1
_geom_bond_atom_site_label_2
_geom_bond_distance
_geom_bond_site_symmetry_2
Li0 Si0 2.699561 1_655
Li0 Pd0 2.817786 1_555
Li0 Pd3 2.833710 1_645
Li0 Pd3 2.836110 1_555
Li0 Pd1 2.843747 1_554
Li0 Si2 2.858713 1_654
Li0 Pd7 2.978921 1_655
Li0 Si1 2.986173 1_645
Li1 Si3 2.699561 1_455
Li1 Pd3 2.817786 1_555
Li1 Pd0 2.833710 1_465
Li1 Pd0 2.836110 1_555
Li1 Pd2 2.843747 1_556
Li1 Si4 2.858713 1_456
Li1 Pd5 2.978921 1_455
Li1 Si5 2.986173 1_465
Mg0 Pd1 2.775659 1_554
Mg0 Pd0 2.781690 1_555
Mg0 Si4 2.786851 1_545
Mg0 Pd2 2.844766 1_645
Mg0 Pd2 2.855457 1_555
Mg0 Si3 2.867492 1_545
Mg0 Pd4 2.988842 1_545
Mg0 Si1 2.991548 1_645
Mg1 Si3 2.808566 1_545
Mg1 Si4 2.816306 1_456
Mg1 Pd2 2.844463 1_556
Mg1 Si4 2.851444 1_546
Mg1 Pd7 2.888754 1_556
Mg1 Pd5 2.921375 1_455
Mg1 Pd0 2.951570 1_555
Mg1 Pd6 3.001674 1_555
Mg1 Pd4 3.018601 1_546
Mg1 Pd5 3.105639 1_545
Mg2 Pd3 2.833214 1_555
Mg2 Si0 2.842661 1_565
Mg2 Si0 2.847157 1_655
Mg2 Si2 2.849086 1_655
Mg2 Pd4 2.877018 1_555
Mg2 Pd6 2.929971 1_565
Mg2 Pd5 2.971727 1_555
Mg2 Pd1 2.985644 1_555
Mg2 Pd7 2.987976 1_655
Mg2 Pd6 3.067002 1_655
Mg3 Pd0 2.833214 1_555
Mg3 Si3 2.842661 1_545
Mg3 Si3 2.847157 1_455
Mg3 Si4 2.849086 1_455
Mg3 Pd6 2.877018 1_555
Mg3 Pd4 2.929971 1_545
Mg3 Pd7 2.971727 1_555
Mg3 Pd2 2.985644 1_555
Mg3 Pd5 2.987976 1_455
Mg3 Pd4 3.067002 1_455
Mg4 Pd2 2.775659 1_556
Mg4 Pd3 2.781690 1_555
Mg4 Si2 2.786851 1_565
Mg4 Pd1 2.844766 1_465
Mg4 Pd1 2.855457 1_555
Mg4 Si0 2.867492 1_565
Mg4 Pd6 2.988842 1_565
Mg4 Si5 2.991548 1_465
Mg5 Si0 2.808566 1_565
Mg5 Si2 2.816306 1_654
Mg5 Pd1 2.844463 1_554
Mg5 Si2 2.851444 1_564
Mg5 Pd5 2.888754 1_554
Mg5 Pd7 2.921375 1_655
Mg5 Pd3 2.951570 1_555
Mg5 Pd4 3.001674 1_555
Mg5 Pd6 3.018601 1_564
Mg5 Pd7 3.105639 1_565
Pd0 Si3 2.348806 1_545
Pd0 Si5 2.374090 1_555
Pd0 Si1 2.429478 1_555
Pd1 Si2 2.345977 1_655
Pd1 Si5 2.394346 1_555
Pd1 Si1 2.452155 1_556
Pd2 Si4 2.345977 1_455
Pd2 Si1 2.394346 1_555
Pd2 Si5 2.452155 1_554
Pd3 Si0 2.348806 1_565
Pd3 Si1 2.374090 1_555
Pd3 Si5 2.429478 1_555
Pd4 Si4 2.358868 1_555
Pd4 Si3 2.398177 1_555
Pd4 Si0 2.453526 1_565
Pd5 Si3 2.347445 1_555
Pd5 Si4 2.375105 1_556
Pd5 Si2 2.446826 1_655
Pd6 Si2 2.358868 1_555
Pd6 Si0 2.398177 1_555
Pd6 Si3 2.453526 1_545
Pd7 Si0 2.347445 1_555
Pd7 Si2 2.375105 1_554
Pd7 Si4 2.446826 1_455
