# generated using pymatgen
data_CrSeI
_symmetry_space_group_name_H-M   'P 1'
_cell_length_a   3.79329258
_cell_length_b   5.00612846
_cell_length_c   9.19915416
_cell_angle_alpha   90.00000000
_cell_angle_beta   90.00000000
_cell_angle_gamma   90.00000000
_symmetry_Int_Tables_number   1
_chemical_formula_structural   CrSeI
_chemical_formula_sum   'Cr2 Se2 I2'
_cell_volume   174.68926944
_cell_formula_units_Z   2
loop_
 _symmetry_equiv_pos_site_id
 _symmetry_equiv_pos_as_xyz
  1  'x, y, z'
loop_
 _atom_site_type_symbol
 _atom_site_label
 _atom_site_symmetry_multiplicity
 _atom_site_fract_x
 _atom_site_fract_y
 _atom_site_fract_z
 _atom_site_occupancy
  Cr  Cr0  1  0.00000000  0.50000000  0.11649129  1
  Cr  Cr1  1  0.50000000  0.00000000  0.88351595  1
  Se  Se0  1  0.50000000  0.50000000  0.93310374  1
  Se  Se1  1  0.00000000  0.00000000  0.06689150  1
  I  I0  1  0.50000000  0.50000000  0.32910912  1
  I  I1  1  0.00000000  0.00000000  0.67088939  1
loop_
_geom_bond_atom_site_label_1
_geom_bond_atom_site_label_2
_geom_bond_distance
_geom_bond_site_symmetry_2
Cr0 Se0 2.538360 1_454
Cr0 Se0 2.538360 1_554
Cr0 Se1 2.544311 1_565
Cr0 Se1 2.544311 1_555
Cr0 I0 2.724487 1_555
Cr0 I0 2.724487 1_455
Cr1 Se1 2.538287 1_656
Cr1 Se1 2.538287 1_556
Cr1 Se0 2.544291 1_545
Cr1 Se0 2.544291 1_555
Cr1 I1 2.724544 1_655
Cr1 I1 2.724544 1_555
