# generated using pymatgen
data_Ta10Si5Au
_symmetry_space_group_name_H-M   'P 1'
_cell_length_a   7.54506406
_cell_length_b   7.54506315
_cell_length_c   7.54506345
_cell_angle_alpha   128.09909059
_cell_angle_beta   128.09908652
_cell_angle_gamma   76.46456479
_symmetry_Int_Tables_number   1
_chemical_formula_structural   Ta10Si5Au
_chemical_formula_sum   'Ta10 Si5 Au1'
_cell_volume   258.42932241
_cell_formula_units_Z   1
loop_
 _symmetry_equiv_pos_site_id
 _symmetry_equiv_pos_as_xyz
  1  'x, y, z'
loop_
 _atom_site_type_symbol
 _atom_site_label
 _atom_site_symmetry_multiplicity
 _atom_site_fract_x
 _atom_site_fract_y
 _atom_site_fract_z
 _atom_site_occupancy
  Ta  Ta0  1  0.02147927  0.19465324  0.51398379  1
  Ta  Ta1  1  0.68066946  0.50749548  0.48601621  1
  Ta  Ta2  1  0.50749548  0.02147927  0.82682503  1
  Ta  Ta3  1  0.19465324  0.68066946  0.17317497  1
  Ta  Ta4  1  0.99250452  0.81933054  0.51398379  1
  Ta  Ta5  1  0.30534676  0.47852073  0.48601621  1
  Ta  Ta6  1  0.47852073  0.99250452  0.17317497  1
  Ta  Ta7  1  0.81933054  0.30534676  0.82682503  1
  Ta  Ta8  1  0.99809899  0.99809899  1.00000000  1
  Ta  Ta9  1  0.50190101  0.50190101  0.00000000  1
  Si  Si0  1  0.25000000  0.25000000  0.00000000  1
  Si  Si1  1  0.36992724  0.13007276  0.50000000  1
  Si  Si2  1  0.63007276  0.86992724  0.50000000  1
  Si  Si3  1  0.86992724  0.36992724  0.23985447  1
  Si  Si4  1  0.13007276  0.63007276  0.76014553  1
  Au  Au0  1  0.75000000  0.75000000  0.00000000  1
loop_
_geom_bond_atom_site_label_1
_geom_bond_atom_site_label_2
_geom_bond_distance
_geom_bond_site_symmetry_2
Si0 Ta3 2.690561 1_555
Si0 Ta7 2.690561 1_454
Si0 Ta4 2.690562 1_444
Si0 Ta5 2.690562 1_555
Si0 Ta0 2.690562 1_554
Si0 Ta1 2.690562 1_555
Si0 Ta6 2.690566 1_545
Si0 Ta2 2.690566 1_554
Si0 Ta9 2.985889 1_555
Si0 Ta8 2.985889 1_444
Si1 Si2 2.429380 1_545
Si1 Ta9 2.589461 1_556
Si1 Ta8 2.589461 1_444
Si1 Ta2 2.601169 1_555
Si1 Ta6 2.601169 1_545
Si1 Ta5 2.615290 1_555
Si1 Ta0 2.615290 1_555
Si1 Ta3 2.661460 1_545
Si1 Ta7 2.661460 1_555
Si2 Ta9 2.589461 1_555
Si2 Ta8 2.589461 1_555
Si2 Ta7 2.601176 1_565
Si2 Ta3 2.601177 1_555
Si2 Ta1 2.615290 1_555
Si2 Ta4 2.615290 1_555
Si2 Ta6 2.661452 1_555
Si2 Ta2 2.661452 1_565
Si3 Si4 2.429380 1_655
Si3 Ta8 2.589461 1_544
Si3 Ta9 2.589461 1_555
Si3 Ta1 2.601175 1_555
Si3 Ta5 2.601176 1_655
Si3 Ta2 2.615290 1_554
Si3 Ta7 2.615298 1_554
Si3 Ta4 2.661458 1_555
Si3 Ta0 2.661459 1_655
Si4 Ta8 2.589461 1_455
Si4 Ta9 2.589461 1_556
Si4 Ta0 2.601175 1_555
Si4 Ta4 2.601175 1_455
Si4 Ta6 2.615290 1_556
Si4 Ta3 2.615298 1_556
Si4 Ta5 2.661459 1_555
Si4 Ta1 2.661459 1_455
Au0 Ta7 2.801583 1_554
Au0 Ta3 2.801584 1_655
Au0 Ta0 2.801585 1_665
Au0 Ta1 2.801585 1_554
Au0 Ta4 2.801585 1_555
Au0 Ta5 2.801585 1_554
Au0 Ta2 2.801589 1_564
Au0 Ta6 2.801589 1_555
Au0 Ta8 2.940822 1_554
Au0 Ta9 2.940822 1_555
