# generated using pymatgen
data_Y2VTcB8
_symmetry_space_group_name_H-M   'P 1'
_cell_length_a   5.96548963
_cell_length_b   5.96548904
_cell_length_c   3.54252471
_cell_angle_alpha   90.00000000
_cell_angle_beta   90.00000000
_cell_angle_gamma   104.24426132
_symmetry_Int_Tables_number   1
_chemical_formula_structural   Y2VTcB8
_chemical_formula_sum   'Y2 V1 Tc1 B8'
_cell_volume   122.19215860
_cell_formula_units_Z   1
loop_
 _symmetry_equiv_pos_site_id
 _symmetry_equiv_pos_as_xyz
  1  'x, y, z'
loop_
 _atom_site_type_symbol
 _atom_site_label
 _atom_site_symmetry_multiplicity
 _atom_site_fract_x
 _atom_site_fract_y
 _atom_site_fract_z
 _atom_site_occupancy
  Y  Y0  1  0.30147484  0.69950780  0.00000000  1
  Y  Y1  1  0.69950780  0.30147484  0.00000000  1
  V  V0  1  0.83443961  0.83443961  0.00000000  1
  Tc  Tc0  1  0.16463253  0.16463253  0.00000000  1
  B  B0  1  0.38056437  0.06737078  0.50000000  1
  B  B1  1  0.61900447  0.93380615  0.50000000  1
  B  B2  1  0.06737078  0.38056437  0.50000000  1
  B  B3  1  0.93380615  0.61900447  0.50000000  1
  B  B4  1  0.37251184  0.37251184  0.50000000  1
  B  B5  1  0.62622366  0.62622366  0.50000000  1
  B  B6  1  0.09174175  0.90872222  0.50000000  1
  B  B7  1  0.90872222  0.09174175  0.50000000  1
loop_
_geom_bond_atom_site_label_1
_geom_bond_atom_site_label_2
_geom_bond_distance
_geom_bond_site_symmetry_2
Tc0 V0 2.418791 1_445
B0 B6 1.749818 1_545
B0 B1 1.793278 1_545
B0 B4 1.832727 1_555
B0 Tc0 2.345447 1_556
B0 Tc0 2.345447 1_555
B0 Y1 2.720329 1_556
B0 Y1 2.720329 1_555
B0 Y0 2.768791 1_545
B0 Y0 2.768791 1_546
B1 B7 1.753109 1_565
B1 B5 1.845949 1_555
B1 V0 2.348472 1_555
B1 V0 2.348472 1_556
B1 Y0 2.715901 1_556
B1 Y0 2.715901 1_555
B1 Y1 2.767728 1_565
B1 Y1 2.767728 1_566
B2 B7 1.749818 1_455
B2 B3 1.793278 1_455
B2 B4 1.832727 1_555
B2 Tc0 2.345447 1_555
B2 Tc0 2.345447 1_556
B2 Y0 2.720329 1_556
B2 Y0 2.720329 1_555
B2 Y1 2.768792 1_456
B2 Y1 2.768792 1_455
B3 B6 1.753109 1_655
B3 B5 1.845949 1_555
B3 V0 2.348472 1_555
B3 V0 2.348472 1_556
B3 Y1 2.715901 1_556
B3 Y1 2.715901 1_555
B3 Y0 2.767728 1_655
B3 Y0 2.767728 1_656
B4 B5 1.858537 1_555
B4 Tc0 2.335868 1_556
B4 Tc0 2.335868 1_555
B4 Y0 2.743893 1_555
B4 Y0 2.743893 1_556
B4 Y1 2.743893 1_556
B4 Y1 2.743893 1_555
B5 V0 2.337476 1_555
B5 V0 2.337476 1_556
B5 Y1 2.738312 1_556
B5 Y1 2.738312 1_555
B5 Y0 2.738313 1_556
B5 Y0 2.738313 1_555
B6 B7 1.723564 1_465
B6 Tc0 2.308760 1_566
B6 Tc0 2.308760 1_565
B6 V0 2.314094 1_456
B6 V0 2.314094 1_455
B6 Y0 2.651206 1_556
B6 Y0 2.651206 1_555
B7 Tc0 2.308760 1_655
B7 Tc0 2.308760 1_656
B7 V0 2.314094 1_545
B7 V0 2.314094 1_546
B7 Y1 2.651206 1_556
B7 Y1 2.651206 1_555
