# generated using pymatgen
data_Ta3Nb7(B2P)2
_symmetry_space_group_name_H-M   'P 1'
_cell_length_a   7.26176895
_cell_length_b   7.26176899
_cell_length_c   7.26072285
_cell_angle_alpha   129.38429975
_cell_angle_beta   129.38429286
_cell_angle_gamma   74.39358441
_symmetry_Int_Tables_number   1
_chemical_formula_structural   Ta3Nb7(B2P)2
_chemical_formula_sum   'Ta3 Nb7 B4 P2'
_cell_volume   222.93611177
_cell_formula_units_Z   1
loop_
 _symmetry_equiv_pos_site_id
 _symmetry_equiv_pos_as_xyz
  1  'x, y, z'
loop_
 _atom_site_type_symbol
 _atom_site_label
 _atom_site_symmetry_multiplicity
 _atom_site_fract_x
 _atom_site_fract_y
 _atom_site_fract_z
 _atom_site_occupancy
  Ta  Ta0  1  0.00026442  0.99972578  0.00030078  1
  Ta  Ta1  1  0.49972578  0.50026442  0.00030078  1
  Ta  Ta2  1  0.80775962  0.30775962  0.83513422  1
  Nb  Nb0  1  0.19185579  0.69185579  0.16433275  1
  Nb  Nb1  1  0.47277298  0.97277298  0.16427372  1
  Nb  Nb2  1  0.30865215  0.47188296  0.49953614  1
  Nb  Nb3  1  0.02732782  0.19132376  0.50028636  1
  Nb  Nb4  1  0.52796468  0.02796468  0.83667429  1
  Nb  Nb5  1  0.69132376  0.52732782  0.50028636  1
  Nb  Nb6  1  0.97188296  0.80865215  0.49953614  1
  B  B0  1  0.11419498  0.61419498  0.72865196  1
  B  B1  1  0.88467572  0.38467572  0.26796688  1
  B  B2  1  0.61568377  0.88715150  0.50170083  1
  B  B3  1  0.38715150  0.11568377  0.50170083  1
  P  P0  1  0.24864408  0.25011900  0.99965947  1
  P  P1  1  0.75011900  0.74864408  0.99965947  1
loop_
_geom_bond_atom_site_label_1
_geom_bond_atom_site_label_2
_geom_bond_distance
_geom_bond_site_symmetry_2
Nb0 P0 2.633678 1_554
Nb0 P1 2.633678 1_454
Nb1 P1 2.637472 1_554
Nb1 P0 2.637472 1_564
Nb2 P0 2.628574 1_554
Nb2 P1 2.633383 1_555
Nb3 P0 2.630858 1_555
Nb3 P1 2.639360 1_444
Nb4 P0 2.641964 1_555
Nb4 P1 2.641964 1_545
Nb5 P1 2.630858 1_555
Nb5 P0 2.639360 1_554
Nb6 P1 2.628574 1_554
Nb6 P0 2.633382 1_665
B0 B1 2.022172 1_455
B0 Nb3 2.414615 1_555
B0 Nb5 2.414616 1_455
B0 Nb2 2.417358 1_555
B0 Nb6 2.417359 1_455
B0 Ta0 2.495943 1_556
B0 Ta1 2.495944 1_556
B0 Nb0 2.507218 1_556
B0 Nb1 2.511868 1_556
B1 Nb6 2.415715 1_555
B1 Nb2 2.415715 1_655
B1 Nb5 2.428038 1_555
B1 Nb3 2.428039 1_655
B1 Ta0 2.491829 1_645
B1 Ta1 2.491829 1_555
B1 Ta2 2.492602 1_554
B1 Nb4 2.499678 1_554
B2 B3 2.006575 1_565
B2 Ta2 2.399743 1_565
B2 Nb1 2.413562 1_555
B2 Nb4 2.413761 1_565
B2 Nb0 2.420053 1_555
B2 Ta0 2.493173 1_656
B2 Ta1 2.501720 1_555
B2 Nb6 2.502548 1_555
B2 Nb5 2.515992 1_555
B3 Ta2 2.399743 1_555
B3 Nb1 2.413561 1_545
B3 Nb4 2.413761 1_555
B3 Nb0 2.420053 1_545
B3 Ta1 2.493173 1_556
B3 Ta0 2.501720 1_545
B3 Nb2 2.502548 1_555
B3 Nb3 2.515992 1_555
P0 Ta2 2.629155 1_455
P0 Ta0 2.888857 1_546
P0 Ta1 2.895624 1_556
P1 Ta2 2.629155 1_555
P1 Ta1 2.888857 1_556
P1 Ta0 2.895624 1_656
