# generated using pymatgen
data_Ca(AlZn)2
_symmetry_space_group_name_H-M   'P 1'
_cell_length_a   4.08135728
_cell_length_b   4.08135652
_cell_length_c   6.38603448
_cell_angle_alpha   108.63591178
_cell_angle_beta   108.63590202
_cell_angle_gamma   90.00000889
_symmetry_Int_Tables_number   1
_chemical_formula_structural   Ca(AlZn)2
_chemical_formula_sum   'Ca1 Al2 Zn2'
_cell_volume   94.89308983
_cell_formula_units_Z   1
loop_
 _symmetry_equiv_pos_site_id
 _symmetry_equiv_pos_as_xyz
  1  'x, y, z'
loop_
 _atom_site_type_symbol
 _atom_site_label
 _atom_site_symmetry_multiplicity
 _atom_site_fract_x
 _atom_site_fract_y
 _atom_site_fract_z
 _atom_site_occupancy
  Ca  Ca0  1  -0.00000000  -0.00000000  -0.00000000  1
  Al  Al0  1  0.75000000  0.25000000  0.50000000  1
  Al  Al1  1  0.25000000  0.75000000  0.50000000  1
  Zn  Zn0  1  0.39187008  0.39187008  0.78374115  1
  Zn  Zn1  1  0.60812992  0.60812992  0.21625885  1
loop_
_geom_bond_atom_site_label_1
_geom_bond_atom_site_label_2
_geom_bond_distance
_geom_bond_site_symmetry_2
Ca0 Zn1 3.137907 1_445
Ca0 Zn0 3.137907 1_554
Ca0 Zn0 3.137910 1_544
Ca0 Zn1 3.137910 1_455
Ca0 Zn0 3.137911 1_454
Ca0 Zn1 3.137911 1_545
Ca0 Zn1 3.137913 1_555
Ca0 Zn0 3.137913 1_444
Al0 Zn1 2.603285 1_545
Al0 Zn0 2.603286 1_655
Al0 Zn0 2.603289 1_555
Al0 Zn1 2.603289 1_555
Al0 Al1 2.885955 1_655
Al0 Al1 2.885955 1_545
Al0 Al1 2.885955 1_645
Al0 Al1 2.885955 1_555
Al0 Ca0 3.503932 1_666
Al0 Ca0 3.503933 1_655
Al0 Ca0 3.503933 1_656
Al0 Ca0 3.503933 1_555
Al1 Zn0 2.603285 1_565
Al1 Zn1 2.603286 1_455
Al1 Zn1 2.603289 1_555
Al1 Zn0 2.603289 1_555
Al1 Ca0 3.503932 1_555
Al1 Ca0 3.503933 1_566
Al1 Ca0 3.503933 1_565
Al1 Ca0 3.503933 1_666
Zn0 Zn1 2.463935 1_556
