# generated using pymatgen
data_Si12P12IrRh3
_symmetry_space_group_name_H-M   'P 1'
_cell_length_a   5.86914122
_cell_length_b   6.06620886
_cell_length_c   13.04641892
_cell_angle_alpha   90.03702428
_cell_angle_beta   89.97214424
_cell_angle_gamma   89.90307518
_symmetry_Int_Tables_number   1
_chemical_formula_structural   Si12P12IrRh3
_chemical_formula_sum   'Si12 P12 Ir1 Rh3'
_cell_volume   464.49653062
_cell_formula_units_Z   1
loop_
 _symmetry_equiv_pos_site_id
 _symmetry_equiv_pos_as_xyz
  1  'x, y, z'
loop_
 _atom_site_type_symbol
 _atom_site_label
 _atom_site_symmetry_multiplicity
 _atom_site_fract_x
 _atom_site_fract_y
 _atom_site_fract_z
 _atom_site_occupancy
  Si  Si0  1  0.96530328  0.15816261  0.31845039  1
  Si  Si1  1  0.46775324  0.83967376  0.68212739  1
  Si  Si2  1  0.93011873  0.62903333  0.21451098  1
  Si  Si3  1  0.43116248  0.37333250  0.78510592  1
  Si  Si4  1  0.34034115  0.91522088  0.95124403  1
  Si  Si5  1  0.84000486  0.08636458  0.04870704  1
  Si  Si6  1  0.91506583  0.53139006  0.67275905  1
  Si  Si7  1  0.41684435  0.46858389  0.32735464  1
  Si  Si8  1  0.99691574  0.06167769  0.57052836  1
  Si  Si9  1  0.49842052  0.93674603  0.42966597  1
  Si  Si10  1  0.91072954  0.62782265  0.92799696  1
  Si  Si11  1  0.41065808  0.37340940  0.07206096  1
  P  P0  1  0.57734826  0.03041349  0.82526498  1
  P  P1  1  0.07671574  0.97090090  0.17456091  1
  P  P2  1  0.51890517  0.56165291  0.92997747  1
  P  P3  1  0.01875426  0.43949336  0.06997338  1
  P  P4  1  0.61010242  0.11254302  0.57303661  1
  P  P5  1  0.11146266  0.88635978  0.42725549  1
  P  P6  1  0.54396822  0.64185315  0.18135557  1
  P  P7  1  0.04445409  0.35888574  0.81845339  1
  P  P8  1  0.57857561  0.12984988  0.28886105  1
  P  P9  1  0.07962149  0.86885031  0.71122698  1
  P  P10  1  0.15282165  0.40248435  0.55232680  1
  P  P11  1  0.65457283  0.59518186  0.44750026  1
  Ir  Ir0  1  0.03676227  0.51482209  0.37976437  1
  Rh  Rh0  1  0.96509696  0.98807898  0.87936831  1
  Rh  Rh1  1  0.46447539  0.01286694  0.12041802  1
  Rh  Rh2  1  0.53684818  0.48434287  0.62014670  1
loop_
_geom_bond_atom_site_label_1
_geom_bond_atom_site_label_2
_geom_bond_distance
_geom_bond_site_symmetry_2
P0 Si4 2.264320 1_545
P0 Si1 2.289268 1_545
P0 Si3 2.309493 1_555
P0 Rh0 2.396466 1_545
P1 Si5 2.262103 1_465
P1 Si0 2.288139 1_465
P1 Si2 2.306459 1_455
P1 Rh1 2.396609 1_565
P2 Si3 2.267754 1_555
P2 Si11 2.268876 1_556
P2 Si10 2.335243 1_555
P2 Si4 2.401438 1_555
P3 Si10 2.267054 1_454
P3 Si2 2.267756 1_455
P3 Si11 2.334318 1_555
P3 Si5 2.402819 1_455
P4 Si9 2.250901 1_545
P4 Si8 2.290833 1_555
P4 Si1 2.338836 1_545
P4 Rh2 2.375747 1_555
P5 Si8 2.251828 1_465
P5 Si9 2.292327 1_555
P5 Si0 2.338570 1_465
P6 Si7 2.300750 1_555
P6 Si11 2.302080 1_555
P6 Si2 2.308679 1_555
P6 Rh1 2.431925 1_565
P7 Si6 2.299135 1_455
P7 Si10 2.304686 1_455
P7 Si3 2.312578 1_555
P7 Rh0 2.431824 1_445
P8 Si9 2.229773 1_545
P8 Si0 2.309202 1_555
P8 Si7 2.316715 1_555
P8 Rh1 2.404667 1_555
P9 Si8 2.230491 1_465
P9 Si1 2.315696 1_555
P9 Si6 2.319722 1_455
P9 Rh0 2.404548 1_455
P10 Si6 2.240528 1_455
P10 Si8 2.274788 1_455
P10 Rh2 2.472795 1_555
P11 Si7 2.235552 1_555
P11 Si9 2.276326 1_555
P11 Rh2 2.450487 1_555
Ir0 Si0 2.344778 1_455
Ir0 Si7 2.349175 1_555
Ir0 Si2 2.349836 1_455
Ir0 P5 2.378579 1_555
Ir0 P10 2.449232 1_555
Ir0 P11 2.458455 1_455
Rh0 Si10 2.298740 1_555
Rh0 Si5 2.402206 1_566
Rh0 Si4 2.433990 1_655
Rh1 Si11 2.298031 1_555
Rh1 Si4 2.398825 1_544
Rh1 Si5 2.435921 1_555
Rh2 Si1 2.336457 1_555
Rh2 Si3 2.339204 1_555
Rh2 Si6 2.341696 1_555
