# generated using pymatgen
data_Y20Cd3Ag3Ir2
_symmetry_space_group_name_H-M   'P 1'
_cell_length_a   9.62252934
_cell_length_b   9.62252916
_cell_length_c   9.76244607
_cell_angle_alpha   90.00000000
_cell_angle_beta   90.00000000
_cell_angle_gamma   120.00000062
_symmetry_Int_Tables_number   1
_chemical_formula_structural   Y20Cd3Ag3Ir2
_chemical_formula_sum   'Y20 Cd3 Ag3 Ir2'
_cell_volume   782.83053362
_cell_formula_units_Z   1
loop_
 _symmetry_equiv_pos_site_id
 _symmetry_equiv_pos_as_xyz
  1  'x, y, z'
loop_
 _atom_site_type_symbol
 _atom_site_label
 _atom_site_symmetry_multiplicity
 _atom_site_fract_x
 _atom_site_fract_y
 _atom_site_fract_z
 _atom_site_occupancy
  Y  Y0  1  0.00000000  0.00000000  0.47598495  1
  Y  Y1  1  0.00000000  0.00000000  0.02401505  1
  Y  Y2  1  0.20916836  0.79083164  0.44020659  1
  Y  Y3  1  0.20916836  0.41833773  0.44020659  1
  Y  Y4  1  0.58166227  0.79083164  0.44020659  1
  Y  Y5  1  0.79156961  0.20843039  0.56007364  1
  Y  Y6  1  0.79156961  0.58313823  0.56007364  1
  Y  Y7  1  0.41686177  0.20843039  0.56007364  1
  Y  Y8  1  0.79156961  0.20843039  0.93992636  1
  Y  Y9  1  0.79156961  0.58313823  0.93992636  1
  Y  Y10  1  0.41686177  0.20843039  0.93992636  1
  Y  Y11  1  0.20916836  0.79083164  0.05979341  1
  Y  Y12  1  0.20916836  0.41833773  0.05979341  1
  Y  Y13  1  0.58166227  0.79083164  0.05979341  1
  Y  Y14  1  0.54118982  0.45881018  0.25000000  1
  Y  Y15  1  0.54118982  0.08237864  0.25000000  1
  Y  Y16  1  0.91762136  0.45881018  0.25000000  1
  Y  Y17  1  0.45858776  0.54141224  0.75000000  1
  Y  Y18  1  0.45858776  0.91717352  0.75000000  1
  Y  Y19  1  0.08282648  0.54141224  0.75000000  1
  Cd  Cd0  1  0.11004945  0.88995055  0.75000000  1
  Cd  Cd1  1  0.11004945  0.22009791  0.75000000  1
  Cd  Cd2  1  0.77990209  0.88995055  0.75000000  1
  Ag  Ag0  1  0.87751070  0.12248930  0.25000000  1
  Ag  Ag1  1  0.87751070  0.75502241  0.25000000  1
  Ag  Ag2  1  0.24497759  0.12248930  0.25000000  1
  Ir  Ir0  1  0.33333300  0.66666700  0.25000000  1
  Ir  Ir1  1  0.66666700  0.33333300  0.75000000  1
loop_
_geom_bond_atom_site_label_1
_geom_bond_atom_site_label_2
_geom_bond_distance
_geom_bond_site_symmetry_2
Cd0 Cd1 3.176853 1_565
Cd0 Cd2 3.176853 1_455
Cd0 Y19 3.230818 1_555
Cd0 Y18 3.230818 1_555
Cd0 Y1 3.243468 1_566
Cd0 Y0 3.243468 1_565
Cd0 Y11 3.446114 1_556
Cd0 Y2 3.446114 1_555
Cd0 Y10 3.535259 1_565
Cd0 Y7 3.535259 1_565
Cd0 Y9 3.535259 1_455
Cd0 Y6 3.535259 1_455
Cd1 Cd2 3.176853 1_445
Cd1 Y19 3.230808 1_555
Cd1 Y17 3.230813 1_555
Cd1 Y1 3.243463 1_556
Cd1 Y0 3.243463 1_555
Cd1 Y12 3.446122 1_556
Cd1 Y3 3.446122 1_555
Cd1 Y10 3.535259 1_555
Cd1 Y7 3.535259 1_555
Cd1 Y8 3.535259 1_455
Cd1 Y5 3.535259 1_455
Cd2 Y18 3.230808 1_555
Cd2 Y17 3.230813 1_555
Cd2 Y1 3.243463 1_666
Cd2 Y0 3.243463 1_665
Cd2 Y13 3.446122 1_556
Cd2 Y4 3.446122 1_555
Cd2 Y8 3.535259 1_565
Cd2 Y5 3.535259 1_565
Cd2 Y9 3.535259 1_555
Cd2 Y6 3.535259 1_555
Ag0 Y0 3.005805 1_655
Ag0 Y1 3.005805 1_655
Ag0 Y16 3.061576 1_555
Ag0 Y15 3.061576 1_555
Ag0 Y5 3.348856 1_555
Ag0 Y8 3.348856 1_554
Ag0 Y4 3.556966 1_545
Ag0 Y13 3.556966 1_545
Ag0 Y3 3.556966 1_655
Ag0 Y12 3.556966 1_655
Ag1 Y0 3.005799 1_665
Ag1 Y1 3.005799 1_665
Ag1 Y14 3.061584 1_555
Ag1 Y16 3.061595 1_555
Ag1 Y6 3.348863 1_555
Ag1 Y9 3.348863 1_554
Ag1 Y2 3.556966 1_655
Ag1 Y4 3.556966 1_555
Ag1 Y11 3.556966 1_655
Ag1 Y13 3.556966 1_555
Ag2 Y0 3.005799 1_555
Ag2 Y1 3.005799 1_555
Ag2 Y14 3.061584 1_555
Ag2 Y15 3.061595 1_555
Ag2 Y7 3.348863 1_555
Ag2 Y10 3.348863 1_554
Ag2 Y2 3.556966 1_545
Ag2 Y11 3.556966 1_545
Ag2 Y3 3.556966 1_555
Ag2 Y12 3.556966 1_555
Ir0 Y3 2.780376 1_555
Ir0 Y12 2.780376 1_555
Ir0 Y4 2.780376 1_555
Ir0 Y13 2.780376 1_555
Ir0 Y2 2.780376 1_555
Ir0 Y11 2.780376 1_555
Ir1 Y9 2.787722 1_555
Ir1 Y6 2.787722 1_555
Ir1 Y10 2.787723 1_555
Ir1 Y7 2.787723 1_555
Ir1 Y8 2.787723 1_555
Ir1 Y5 2.787723 1_555
Ir1 Y17 3.467996 1_555
Ir1 Y18 3.468005 1_545
Ir1 Y19 3.468005 1_655
