# generated using pymatgen
data_Ba2Ga6TcRu
_symmetry_space_group_name_H-M   'P 1'
_cell_length_a   6.88157141
_cell_length_b   6.88157198
_cell_length_c   6.88157178
_cell_angle_alpha   60.00000098
_cell_angle_beta   59.99999823
_cell_angle_gamma   59.99999615
_symmetry_Int_Tables_number   1
_chemical_formula_structural   Ba2Ga6TcRu
_chemical_formula_sum   'Ba2 Ga6 Tc1 Ru1'
_cell_volume   230.43471621
_cell_formula_units_Z   1
loop_
 _symmetry_equiv_pos_site_id
 _symmetry_equiv_pos_as_xyz
  1  'x, y, z'
loop_
 _atom_site_type_symbol
 _atom_site_label
 _atom_site_symmetry_multiplicity
 _atom_site_fract_x
 _atom_site_fract_y
 _atom_site_fract_z
 _atom_site_occupancy
  Ba  Ba0  1  0.24999900  0.24999900  0.24999900  1
  Ba  Ba1  1  0.75000000  0.75000000  0.75000000  1
  Ga  Ga0  1  0.74903842  0.74903842  0.25096258  1
  Ga  Ga1  1  0.74903842  0.25096258  0.25096258  1
  Ga  Ga2  1  0.25096258  0.74903842  0.25096258  1
  Ga  Ga3  1  0.25096258  0.25096258  0.74903842  1
  Ga  Ga4  1  0.74903842  0.25096258  0.74903842  1
  Ga  Ga5  1  0.25096258  0.74903842  0.74903842  1
  Tc  Tc0  1  0.00000000  0.00000000  0.00000000  1
  Ru  Ru0  1  0.50000000  0.50000000  0.50000000  1
loop_
_geom_bond_atom_site_label_1
_geom_bond_atom_site_label_2
_geom_bond_distance
_geom_bond_site_symmetry_2
Ba0 Ga1 3.440778 1_455
Ba0 Ga3 3.440778 1_554
Ba0 Ga2 3.440778 1_545
Ba0 Ga0 3.440798 1_455
Ba0 Ga0 3.440798 1_545
Ba0 Ga4 3.440798 1_455
Ba0 Ga4 3.440798 1_554
Ba0 Ga5 3.440799 1_554
Ba0 Ga5 3.440799 1_545
Ba0 Ga1 3.440819 1_555
Ba0 Ga3 3.440819 1_555
Ba0 Ga2 3.440819 1_555
Ba1 Ga5 3.440792 1_555
Ba1 Ga0 3.440792 1_555
Ba1 Ga4 3.440792 1_555
Ba1 Ga3 3.440798 1_655
Ba1 Ga3 3.440798 1_565
Ba1 Ga2 3.440798 1_655
Ba1 Ga2 3.440798 1_556
Ba1 Ga1 3.440799 1_556
Ba1 Ga1 3.440799 1_565
Ba1 Ga5 3.440805 1_655
Ba1 Ga0 3.440805 1_556
Ba1 Ga4 3.440806 1_565
Ga0 Ru0 2.423645 1_555
Ga0 Tc0 2.442361 1_665
Ga1 Ru0 2.423635 1_555
Ga1 Tc0 2.442371 1_655
Ga2 Ru0 2.423635 1_555
Ga2 Tc0 2.442371 1_565
Ga3 Ru0 2.423635 1_555
Ga3 Tc0 2.442371 1_556
Ga4 Ru0 2.423645 1_555
Ga4 Tc0 2.442361 1_656
Ga5 Ru0 2.423645 1_555
Ga5 Tc0 2.442361 1_566
