# generated using pymatgen
data_Sr2AlPtI
_symmetry_space_group_name_H-M   'P 1'
_cell_length_a   4.37592825
_cell_length_b   4.37592862
_cell_length_c   18.55052628
_cell_angle_alpha   90.00000000
_cell_angle_beta   90.00000000
_cell_angle_gamma   120.00001197
_symmetry_Int_Tables_number   1
_chemical_formula_structural   Sr2AlPtI
_chemical_formula_sum   'Sr4 Al2 Pt2 I2'
_cell_volume   307.62897358
_cell_formula_units_Z   2
loop_
 _symmetry_equiv_pos_site_id
 _symmetry_equiv_pos_as_xyz
  1  'x, y, z'
loop_
 _atom_site_type_symbol
 _atom_site_label
 _atom_site_symmetry_multiplicity
 _atom_site_fract_x
 _atom_site_fract_y
 _atom_site_fract_z
 _atom_site_occupancy
  Sr  Sr0  1  0.00000000  0.00000000  0.38592089  1
  Sr  Sr1  1  0.00000000  0.00000000  0.88592089  1
  Sr  Sr2  1  0.00000000  0.00000000  0.61429873  1
  Sr  Sr3  1  0.00000000  0.00000000  0.11429873  1
  Al  Al0  1  0.33333300  0.66666700  0.50093968  1
  Al  Al1  1  0.66666700  0.33333300  0.00093968  1
  Pt  Pt0  1  0.66666700  0.33333300  0.49832615  1
  Pt  Pt1  1  0.33333300  0.66666700  0.99832615  1
  I  I0  1  0.33333300  0.66666700  0.25051455  1
  I  I1  1  0.66666700  0.33333300  0.75051455  1
loop_
_geom_bond_atom_site_label_1
_geom_bond_atom_site_label_2
_geom_bond_distance
_geom_bond_site_symmetry_2
Al0 Pt0 2.526906 1_455
Al0 Pt0 2.526906 1_565
Al0 Pt0 2.526914 1_555
Al0 Sr2 3.287091 1_565
Al0 Sr2 3.287093 1_665
Al0 Sr2 3.287094 1_555
Al0 Sr0 3.306873 1_565
Al0 Sr0 3.306875 1_665
Al0 Sr0 3.306875 1_555
Al1 Pt1 2.526906 1_654
Al1 Pt1 2.526906 1_544
Al1 Pt1 2.526914 1_554
Al1 Sr3 3.287091 1_655
Al1 Sr3 3.287093 1_555
Al1 Sr3 3.287094 1_665
Al1 Sr1 3.306873 1_654
Al1 Sr1 3.306875 1_554
Al1 Sr1 3.306875 1_664
Pt0 Sr0 3.275800 1_655
Pt0 Sr0 3.275803 1_555
Pt0 Sr0 3.275803 1_665
Pt0 Sr2 3.318316 1_655
Pt0 Sr2 3.318318 1_555
Pt0 Sr2 3.318319 1_665
Pt1 Sr1 3.275800 1_565
Pt1 Sr1 3.275803 1_665
Pt1 Sr1 3.275803 1_555
Pt1 Sr3 3.318316 1_566
Pt1 Sr3 3.318318 1_666
Pt1 Sr3 3.318319 1_556
I0 Sr0 3.562631 1_565
I0 Sr0 3.562633 1_665
I0 Sr0 3.562633 1_555
I0 Sr3 3.573234 1_565
I0 Sr3 3.573237 1_665
I0 Sr3 3.573237 1_555
I1 Sr1 3.562631 1_655
I1 Sr1 3.562633 1_555
I1 Sr1 3.562633 1_665
I1 Sr2 3.573234 1_655
I1 Sr2 3.573237 1_555
I1 Sr2 3.573237 1_665
