# generated using pymatgen
data_Lu5GaTcTe2
_symmetry_space_group_name_H-M   'P 1'
_cell_length_a   8.56265477
_cell_length_b   8.56265672
_cell_length_c   7.67466754
_cell_angle_alpha   88.89838070
_cell_angle_beta   88.89838302
_cell_angle_gamma   126.74025970
_symmetry_Int_Tables_number   1
_chemical_formula_structural   Lu5GaTcTe2
_chemical_formula_sum   'Lu10 Ga2 Tc2 Te4'
_cell_volume   450.50736387
_cell_formula_units_Z   2
loop_
 _symmetry_equiv_pos_site_id
 _symmetry_equiv_pos_as_xyz
  1  'x, y, z'
loop_
 _atom_site_type_symbol
 _atom_site_label
 _atom_site_symmetry_multiplicity
 _atom_site_fract_x
 _atom_site_fract_y
 _atom_site_fract_z
 _atom_site_occupancy
  Lu  Lu0  1  0.00000000  0.00000000  0.00000000  1
  Lu  Lu1  1  0.50000000  0.50000000  0.50000000  1
  Lu  Lu2  1  0.78262973  0.53506674  0.15983350  1
  Lu  Lu3  1  0.46493326  0.21737027  0.84016650  1
  Lu  Lu4  1  0.93484571  0.69853855  0.68166084  1
  Lu  Lu5  1  0.30146145  0.06515429  0.31833916  1
  Lu  Lu6  1  0.21737027  0.46493326  0.84016650  1
  Lu  Lu7  1  0.53506674  0.78262973  0.15983350  1
  Lu  Lu8  1  0.06515429  0.30146145  0.31833916  1
  Lu  Lu9  1  0.69853855  0.93484571  0.68166084  1
  Ga  Ga0  1  0.87284808  0.87284808  0.37407656  1
  Ga  Ga1  1  0.12715192  0.12715192  0.62592344  1
  Tc  Tc0  1  0.61403498  0.61403498  0.88674261  1
  Tc  Tc1  1  0.38596502  0.38596502  0.11325739  1
  Te  Te0  1  0.20602164  0.79397836  1.00000000  1
  Te  Te1  1  0.71281276  0.28718724  0.50000000  1
  Te  Te2  1  0.79397836  0.20602164  0.00000000  1
  Te  Te3  1  0.28718724  0.71281276  0.50000000  1
loop_
_geom_bond_atom_site_label_1
_geom_bond_atom_site_label_2
_geom_bond_distance
_geom_bond_site_symmetry_2
Lu0 Tc1 3.123113 1_555
Lu0 Tc0 3.123113 1_444
Lu0 Te2 3.153917 1_455
Lu0 Te0 3.153917 1_544
Lu1 Tc0 3.130308 1_555
Lu1 Tc1 3.130308 1_555
Lu1 Te3 3.257880 1_555
Lu1 Te1 3.257880 1_555
Lu2 Tc0 2.857211 1_554
Lu2 Tc1 2.858378 1_555
Lu2 Te0 3.109933 1_654
Lu2 Te1 3.144339 1_555
Lu2 Te2 3.147750 1_555
Lu3 Tc1 2.857211 1_556
Lu3 Tc0 2.858379 1_555
Lu3 Te0 3.109933 1_545
Lu3 Te1 3.144339 1_555
Lu3 Te2 3.147750 1_556
Lu4 Tc0 2.821129 1_555
Lu4 Te0 3.170667 1_655
Lu4 Te1 3.200596 1_555
Lu4 Te3 3.232863 1_655
Lu5 Tc1 2.821130 1_555
Lu5 Te0 3.170667 1_544
Lu5 Te1 3.200596 1_555
Lu5 Te3 3.232864 1_545
Lu6 Tc1 2.857211 1_556
Lu6 Tc0 2.858378 1_555
Lu6 Te2 3.109933 1_456
Lu6 Te3 3.144339 1_555
Lu6 Te0 3.147750 1_555
Lu7 Tc0 2.857211 1_554
Lu7 Tc1 2.858379 1_555
Lu7 Te2 3.109933 1_565
Lu7 Te3 3.144339 1_555
Lu7 Te0 3.147750 1_554
Lu8 Tc1 2.821129 1_555
Lu8 Te2 3.170667 1_455
Lu8 Te3 3.200596 1_555
Lu8 Te1 3.232863 1_455
Lu9 Tc0 2.821130 1_555
Lu9 Te2 3.170667 1_566
Lu9 Te3 3.200596 1_555
Lu9 Te1 3.232864 1_565
Ga0 Ga1 2.805349 1_665
Ga0 Lu1 2.981212 1_555
Ga0 Lu9 2.990426 1_555
Ga0 Lu4 2.990426 1_555
Ga0 Lu0 2.992386 1_665
Ga0 Lu5 3.007707 1_665
Ga0 Lu8 3.007708 1_665
Ga0 Lu7 3.037159 1_555
Ga0 Lu2 3.037160 1_555
Ga1 Lu1 2.981212 1_555
Ga1 Lu5 2.990426 1_555
Ga1 Lu8 2.990426 1_555
Ga1 Lu0 2.992386 1_556
Ga1 Lu9 3.007707 1_445
Ga1 Lu4 3.007708 1_445
Ga1 Lu3 3.037159 1_555
Ga1 Lu6 3.037160 1_555
Tc0 Tc1 2.413683 1_556
