# generated using pymatgen
data_NaHfAg3Te4
_symmetry_space_group_name_H-M   'P 1'
_cell_length_a   6.63871214
_cell_length_b   6.63871214
_cell_length_c   6.63871214
_cell_angle_alpha   90.00000000
_cell_angle_beta   90.00000000
_cell_angle_gamma   90.00000000
_symmetry_Int_Tables_number   1
_chemical_formula_structural   NaHfAg3Te4
_chemical_formula_sum   'Na1 Hf1 Ag3 Te4'
_cell_volume   292.58463358
_cell_formula_units_Z   1
loop_
 _symmetry_equiv_pos_site_id
 _symmetry_equiv_pos_as_xyz
  1  'x, y, z'
loop_
 _atom_site_type_symbol
 _atom_site_label
 _atom_site_symmetry_multiplicity
 _atom_site_fract_x
 _atom_site_fract_y
 _atom_site_fract_z
 _atom_site_occupancy
  Na  Na0  1  0.50000000  0.50000000  0.50000000  1
  Hf  Hf0  1  0.00000000  0.00000000  0.00000000  1
  Ag  Ag0  1  0.00000000  0.50000000  0.00000000  1
  Ag  Ag1  1  0.00000000  0.00000000  0.50000000  1
  Ag  Ag2  1  0.50000000  0.00000000  0.00000000  1
  Te  Te0  1  0.23755089  0.23755089  0.23755089  1
  Te  Te1  1  0.76244911  0.76244911  0.23755089  1
  Te  Te2  1  0.23755089  0.76244911  0.76244911  1
  Te  Te3  1  0.76244911  0.23755089  0.76244911  1
loop_
_geom_bond_atom_site_label_1
_geom_bond_atom_site_label_2
_geom_bond_distance
_geom_bond_site_symmetry_2
Na0 Te1 3.017794 1_555
Na0 Te2 3.017794 1_555
Na0 Te3 3.017794 1_555
Na0 Te0 3.017794 1_555
Hf0 Te0 2.731500 1_555
Hf0 Te1 2.731500 1_445
Hf0 Te2 2.731500 1_544
Hf0 Te3 2.731500 1_454
Ag0 Te2 2.830151 1_554
Ag0 Te0 2.830151 1_555
Ag0 Te1 2.830151 1_455
Ag0 Te3 2.830151 1_454
Ag0 Hf0 3.319356 1_555
Ag0 Hf0 3.319356 1_565
Ag1 Te3 2.830151 1_455
Ag1 Te2 2.830151 1_545
Ag1 Te0 2.830151 1_555
Ag1 Te1 2.830151 1_445
Ag1 Hf0 3.319356 1_555
Ag1 Hf0 3.319356 1_556
Ag2 Te3 2.830151 1_554
Ag2 Te0 2.830151 1_555
Ag2 Te1 2.830151 1_545
Ag2 Te2 2.830151 1_544
Ag2 Hf0 3.319356 1_655
Ag2 Hf0 3.319356 1_555
