# generated using pymatgen
data_Hf6AlSnC4
_symmetry_space_group_name_H-M   'P 1'
_cell_length_a   3.29868298
_cell_length_b   3.29868305
_cell_length_c   19.61984782
_cell_angle_alpha   90.00000000
_cell_angle_beta   90.00000000
_cell_angle_gamma   119.99999929
_symmetry_Int_Tables_number   1
_chemical_formula_structural   Hf6AlSnC4
_chemical_formula_sum   'Hf6 Al1 Sn1 C4'
_cell_volume   184.88745246
_cell_formula_units_Z   1
loop_
 _symmetry_equiv_pos_site_id
 _symmetry_equiv_pos_as_xyz
  1  'x, y, z'
loop_
 _atom_site_type_symbol
 _atom_site_label
 _atom_site_symmetry_multiplicity
 _atom_site_fract_x
 _atom_site_fract_y
 _atom_site_fract_z
 _atom_site_occupancy
  Hf  Hf0  1  0.00000000  0.00000000  0.99795182  1
  Hf  Hf1  1  0.33333300  0.66666700  0.12686732  1
  Hf  Hf2  1  0.33333300  0.66666700  0.37313268  1
  Hf  Hf3  1  0.00000000  0.00000000  0.50204818  1
  Hf  Hf4  1  0.66666600  0.33333300  0.63169819  1
  Hf  Hf5  1  0.66666600  0.33333300  0.86830181  1
  Al  Al0  1  0.00000000  0.00000000  0.75000000  1
  Sn  Sn0  1  0.00000000  0.00000000  0.25000000  1
  C  C0  1  0.66666600  0.33333300  0.06805928  1
  C  C1  1  0.66666600  0.33333300  0.43194072  1
  C  C2  1  0.33333300  0.66666700  0.57212302  1
  C  C3  1  0.33333300  0.66666700  0.92787698  1
loop_
_geom_bond_atom_site_label_1
_geom_bond_atom_site_label_2
_geom_bond_distance
_geom_bond_site_symmetry_2
Hf1 Sn0 3.076264 1_565
Hf1 Sn0 3.076266 1_665
Hf1 Sn0 3.076266 1_555
Hf2 Sn0 3.076264 1_565
Hf2 Sn0 3.076266 1_665
Hf2 Sn0 3.076266 1_555
Al0 Hf4 3.002404 1_555
Al0 Hf5 3.002404 1_555
Al0 Hf4 3.002406 1_455
Al0 Hf5 3.002406 1_455
Al0 Hf4 3.002406 1_445
Al0 Hf5 3.002406 1_445
C0 Hf1 2.226738 1_545
C0 Hf1 2.226740 1_555
C0 Hf1 2.226740 1_655
C0 Hf0 2.349274 1_554
C0 Hf0 2.349277 1_654
C0 Hf0 2.349277 1_664
C1 Hf2 2.226738 1_545
C1 Hf2 2.226740 1_555
C1 Hf2 2.226740 1_655
C1 Hf3 2.349274 1_555
C1 Hf3 2.349277 1_655
C1 Hf3 2.349277 1_665
C2 Hf4 2.234574 1_565
C2 Hf4 2.234576 1_555
C2 Hf4 2.234576 1_455
C2 Hf3 2.348900 1_565
C2 Hf3 2.348902 1_665
C2 Hf3 2.348902 1_555
C3 Hf5 2.234574 1_565
C3 Hf5 2.234576 1_555
C3 Hf5 2.234576 1_455
C3 Hf0 2.348900 1_565
C3 Hf0 2.348902 1_665
C3 Hf0 2.348902 1_555
