# generated using pymatgen
data_SrCa3(NiH6)2
_symmetry_space_group_name_H-M   'P 1'
_cell_length_a   7.16155576
_cell_length_b   7.16155703
_cell_length_c   5.11527177
_cell_angle_alpha   89.99225285
_cell_angle_beta   89.99224479
_cell_angle_gamma   138.17277866
_symmetry_Int_Tables_number   1
_chemical_formula_structural   SrCa3(NiH6)2
_chemical_formula_sum   'Sr1 Ca3 Ni2 H12'
_cell_volume   174.95867705
_cell_formula_units_Z   1
loop_
 _symmetry_equiv_pos_site_id
 _symmetry_equiv_pos_as_xyz
  1  'x, y, z'
loop_
 _atom_site_type_symbol
 _atom_site_label
 _atom_site_symmetry_multiplicity
 _atom_site_fract_x
 _atom_site_fract_y
 _atom_site_fract_z
 _atom_site_occupancy
  Sr  Sr0  1  0.14448157  0.85551843  0.50000000  1
  Ca  Ca0  1  0.65009387  0.34990613  1.00000000  1
  Ca  Ca1  1  0.35626516  0.64373484  0.00000000  1
  Ca  Ca2  1  0.85495294  0.14504706  0.50000000  1
  Ni  Ni0  1  0.99799007  0.00200993  0.00000000  1
  Ni  Ni1  1  0.49753237  0.50246763  0.50000000  1
  H  H0  1  0.88447518  0.11552482  0.00000000  1
  H  H1  1  0.11293158  0.88706842  1.00000000  1
  H  H2  1  0.61246718  0.38753282  0.50000000  1
  H  H3  1  0.38347339  0.61652661  0.50000000  1
  H  H4  1  0.99936068  0.49016263  0.24387613  1
  H  H5  1  0.99785679  0.48860612  0.75665930  1
  H  H6  1  0.50983737  0.00063932  0.75612387  1
  H  H7  1  0.51139388  0.00214321  0.24334070  1
  H  H8  1  0.22387143  0.23042670  0.22325707  1
  H  H9  1  0.76957330  0.77612857  0.77674293  1
  H  H10  1  0.27348992  0.28005066  0.72781472  1
  H  H11  1  0.71994934  0.72651008  0.27218528  1
loop_
_geom_bond_atom_site_label_1
_geom_bond_atom_site_label_2
_geom_bond_distance
_geom_bond_site_symmetry_2
Ca0 H5 2.247392 1_555
Ca0 H7 2.247393 1_556
Ca0 H4 2.253551 1_556
Ca0 H6 2.253551 1_555
Ca0 H1 2.604293 1_545
Ca0 H1 2.604293 1_655
Ca0 H2 2.606710 1_556
Ca0 H2 2.606710 1_555
Ca0 H10 2.730077 1_555
Ca0 H11 2.730078 1_556
Ca0 H8 2.731290 1_556
Ca0 H9 2.731290 1_555
Ca1 H4 2.260139 1_455
Ca1 H6 2.260139 1_564
Ca1 H5 2.263492 1_454
Ca1 H7 2.263492 1_565
Ca1 H3 2.583413 1_554
Ca1 H3 2.583413 1_555
Ca1 H0 2.584101 1_565
Ca1 H0 2.584102 1_455
Ca1 H11 2.602645 1_555
Ca1 H10 2.602645 1_554
Ca1 H9 2.603972 1_554
Ca1 H8 2.603973 1_555
Ca2 H7 2.252391 1_555
Ca2 H5 2.252392 1_555
Ca2 H6 2.254788 1_555
Ca2 H4 2.254788 1_555
Ca2 H3 2.584711 1_655
Ca2 H3 2.584711 1_545
Ca2 H0 2.587957 1_555
Ca2 H0 2.587957 1_556
Ca2 H8 2.636162 1_655
Ca2 H9 2.636162 1_545
Ca2 H10 2.638065 1_655
Ca2 H11 2.638066 1_545
H0 Ni0 1.518773 1_555
H1 Ni0 1.537860 1_466
H1 Sr0 2.592236 1_555
H1 Sr0 2.592236 1_556
H2 Ni1 1.537770 1_555
H2 Sr0 2.592025 1_655
H2 Sr0 2.592025 1_545
H3 Ni1 1.526052 1_555
H4 Sr0 2.364614 1_655
H5 Sr0 2.370126 1_655
H6 Sr0 2.364613 1_545
H7 Sr0 2.370126 1_545
H8 Ni0 1.629192 1_455
H8 Ni1 1.987883 1_555
H8 Sr0 2.694401 1_545
H9 Ni0 1.629192 1_566
H9 Ni1 1.987883 1_555
H9 Sr0 2.694400 1_655
H10 Ni1 1.630869 1_555
H10 Ni0 1.984870 1_456
H10 Sr0 2.696316 1_545
H11 Ni1 1.630869 1_555
H11 Ni0 1.984870 1_565
H11 Sr0 2.696315 1_655
