# generated using pymatgen
data_Sc3Nb2Sn3P
_symmetry_space_group_name_H-M   'P 1'
_cell_length_a   8.50765364
_cell_length_b   8.50765372
_cell_length_c   5.75406512
_cell_angle_alpha   90.00000000
_cell_angle_beta   90.00000000
_cell_angle_gamma   119.99998806
_symmetry_Int_Tables_number   1
_chemical_formula_structural   Sc3Nb2Sn3P
_chemical_formula_sum   'Sc6 Nb4 Sn6 P2'
_cell_volume   360.68249236
_cell_formula_units_Z   2
loop_
 _symmetry_equiv_pos_site_id
 _symmetry_equiv_pos_as_xyz
  1  'x, y, z'
loop_
 _atom_site_type_symbol
 _atom_site_label
 _atom_site_symmetry_multiplicity
 _atom_site_fract_x
 _atom_site_fract_y
 _atom_site_fract_z
 _atom_site_occupancy
  Sc  Sc0  1  0.74785021  0.74785021  0.75000000  1
  Sc  Sc1  1  0.25214979  1.00000000  0.75000000  1
  Sc  Sc2  1  1.00000000  0.25214979  0.75000000  1
  Sc  Sc3  1  0.25214979  0.25214979  0.25000000  1
  Sc  Sc4  1  0.74785021  0.00000000  0.25000000  1
  Sc  Sc5  1  0.00000000  0.74785021  0.25000000  1
  Nb  Nb0  1  0.66666700  0.33333300  0.00000000  1
  Nb  Nb1  1  0.33333300  0.66666700  0.00000000  1
  Nb  Nb2  1  0.33333300  0.66666700  0.50000000  1
  Nb  Nb3  1  0.66666700  0.33333300  0.50000000  1
  Sn  Sn0  1  0.40039070  0.40039070  0.75000000  1
  Sn  Sn1  1  0.59960930  0.00000000  0.75000000  1
  Sn  Sn2  1  0.00000000  0.59960930  0.75000000  1
  Sn  Sn3  1  0.59960930  0.59960930  0.25000000  1
  Sn  Sn4  1  0.40039070  1.00000000  0.25000000  1
  Sn  Sn5  1  1.00000000  0.40039070  0.25000000  1
  P  P0  1  0.00000000  0.00000000  0.00000000  1
  P  P1  1  0.00000000  0.00000000  0.50000000  1
loop_
_geom_bond_atom_site_label_1
_geom_bond_atom_site_label_2
_geom_bond_distance
_geom_bond_site_symmetry_2
Sc0 Sn0 2.956066 1_555
Sc0 Sn2 2.982946 1_655
Sc0 Sn1 2.982946 1_565
Sc0 Sn3 3.141321 1_555
Sc0 Sn3 3.141321 1_556
Sc1 Sn1 2.956065 1_565
Sc1 Sn0 2.982947 1_565
Sc1 Sn2 2.982947 1_555
Sc1 Sn4 3.141321 1_556
Sc1 Sn4 3.141321 1_555
Sc2 Sn2 2.956065 1_655
Sc2 Sn0 2.982947 1_655
Sc2 Sn1 2.982947 1_555
Sc2 Sn5 3.141321 1_555
Sc2 Sn5 3.141321 1_556
Sc3 Sn3 2.956066 1_555
Sc3 Sn5 2.982946 1_455
Sc3 Sn4 2.982946 1_545
Sc3 Sn0 3.141321 1_554
Sc3 Sn0 3.141321 1_555
Sc4 Sn4 2.956065 1_545
Sc4 Sn3 2.982947 1_545
Sc4 Sn5 2.982947 1_555
Sc4 Sn1 3.141321 1_555
Sc4 Sn1 3.141321 1_554
Sc5 Sn5 2.956065 1_455
Sc5 Sn3 2.982947 1_455
Sc5 Sn4 2.982947 1_555
Sc5 Sn2 3.141321 1_554
Sc5 Sn2 3.141321 1_555
Nb0 Nb3 2.877033 1_554
Nb0 Nb3 2.877033 1_555
Nb0 Sn5 2.969705 1_555
Nb0 Sn1 2.969705 1_554
Nb0 Sn2 2.969708 1_654
Nb0 Sn4 2.969708 1_545
Nb0 Sn0 2.969712 1_554
Nb0 Sn3 2.969712 1_555
Nb0 Sc2 3.542213 1_554
Nb0 Sc4 3.542213 1_555
Nb0 Sc1 3.542219 1_544
Nb0 Sc5 3.542219 1_655
Nb0 Sc3 3.542221 1_555
Nb0 Sc0 3.542221 1_554
Nb1 Nb2 2.877033 1_554
Nb1 Nb2 2.877033 1_555
Nb1 Sn2 2.969705 1_554
Nb1 Sn4 2.969705 1_555
Nb1 Sn5 2.969708 1_455
Nb1 Sn1 2.969708 1_564
Nb1 Sn3 2.969712 1_555
Nb1 Sn0 2.969712 1_554
Nb1 Sc5 3.542213 1_555
Nb1 Sc1 3.542213 1_554
Nb1 Sc4 3.542219 1_565
Nb1 Sc2 3.542219 1_454
Nb1 Sc0 3.542221 1_554
Nb1 Sc3 3.542221 1_555
Nb2 Sn2 2.969705 1_555
Nb2 Sn4 2.969705 1_555
Nb2 Sn5 2.969708 1_455
Nb2 Sn1 2.969708 1_565
Nb2 Sn3 2.969712 1_555
Nb2 Sn0 2.969712 1_555
Nb2 Sc5 3.542213 1_555
Nb2 Sc1 3.542213 1_555
Nb2 Sc4 3.542219 1_565
Nb2 Sc2 3.542219 1_455
Nb2 Sc0 3.542221 1_555
Nb2 Sc3 3.542221 1_555
Nb3 Sn5 2.969705 1_555
Nb3 Sn1 2.969705 1_555
Nb3 Sn2 2.969708 1_655
Nb3 Sn4 2.969708 1_545
Nb3 Sn0 2.969712 1_555
Nb3 Sn3 2.969712 1_555
Nb3 Sc2 3.542213 1_555
Nb3 Sc4 3.542213 1_555
Nb3 Sc1 3.542219 1_545
Nb3 Sc5 3.542219 1_655
Nb3 Sc3 3.542221 1_555
Nb3 Sc0 3.542221 1_555
P0 Sc4 2.582872 1_455
P0 Sc1 2.582872 1_544
P0 Sc2 2.582872 1_454
P0 Sc5 2.582872 1_545
P0 Sc3 2.582872 1_555
P0 Sc0 2.582872 1_444
P1 Sc4 2.582872 1_455
P1 Sc1 2.582872 1_545
P1 Sc2 2.582872 1_455
P1 Sc5 2.582872 1_545
P1 Sc3 2.582872 1_555
P1 Sc0 2.582872 1_445
