# generated using pymatgen
data_TiV(SeO3)4
_symmetry_space_group_name_H-M   'P 1'
_cell_length_a   8.11156564
_cell_length_b   8.03639074
_cell_length_c   7.94765596
_cell_angle_alpha   90.37089268
_cell_angle_beta   90.00113755
_cell_angle_gamma   90.00429150
_symmetry_Int_Tables_number   1
_chemical_formula_structural   TiV(SeO3)4
_chemical_formula_sum   'Ti2 V2 Se8 O24'
_cell_volume   518.07864345
_cell_formula_units_Z   2
loop_
 _symmetry_equiv_pos_site_id
 _symmetry_equiv_pos_as_xyz
  1  'x, y, z'
loop_
 _atom_site_type_symbol
 _atom_site_label
 _atom_site_symmetry_multiplicity
 _atom_site_fract_x
 _atom_site_fract_y
 _atom_site_fract_z
 _atom_site_occupancy
  Ti  Ti0  1  0.00000000  0.00000000  0.50000000  1
  Ti  Ti1  1  0.50000000  0.00000000  0.00000000  1
  V  V0  1  0.00000000  0.50000000  0.00000000  1
  V  V1  1  0.50000000  0.50000000  0.50000000  1
  Se  Se0  1  0.32717995  0.66871568  0.18354124  1
  Se  Se1  1  0.82724609  0.33134449  0.31645689  1
  Se  Se2  1  0.67554056  0.82087353  0.66483230  1
  Se  Se3  1  0.17535307  0.17902476  0.83500798  1
  Se  Se4  1  0.67282005  0.33128432  0.81645876  1
  Se  Se5  1  0.17275391  0.66865551  0.68354311  1
  Se  Se6  1  0.32445944  0.17912647  0.33516770  1
  Se  Se7  1  0.82464693  0.82097524  0.16499202  1
  O  O0  1  0.23129272  0.54938873  0.03437510  1
  O  O1  1  0.73130465  0.45070187  0.46555459  1
  O  O2  1  0.76511284  0.96928664  0.54116430  1
  O  O3  1  0.26515043  0.03053740  0.95836000  1
  O  O4  1  0.53050422  0.94014129  0.76209279  1
  O  O5  1  0.45817753  0.51890025  0.26198615  1
  O  O6  1  0.95827347  0.48107838  0.23802767  1
  O  O7  1  0.03002702  0.05969531  0.73807258  1
  O  O8  1  0.96508449  0.23339510  0.44454607  1
  O  O9  1  0.55406009  0.73129910  0.51159541  1
  O  O10  1  0.46511535  0.76663718  0.05555738  1
  O  O11  1  0.05412160  0.26869232  0.98845683  1
  O  O12  1  0.76870728  0.45061127  0.96562490  1
  O  O13  1  0.26869535  0.54929813  0.53444541  1
  O  O14  1  0.23488716  0.03071336  0.45883570  1
  O  O15  1  0.73484957  0.96946260  0.04164000  1
  O  O16  1  0.46949578  0.05985871  0.23790721  1
  O  O17  1  0.54182247  0.48109975  0.73801385  1
  O  O18  1  0.04172653  0.51892162  0.76197233  1
  O  O19  1  0.96997298  0.94030469  0.26192742  1
  O  O20  1  0.03491551  0.76660490  0.55545393  1
  O  O21  1  0.44593991  0.26870090  0.48840459  1
  O  O22  1  0.53488465  0.23336282  0.94444262  1
  O  O23  1  0.94587840  0.73130768  0.01154317  1
loop_
_geom_bond_atom_site_label_1
_geom_bond_atom_site_label_2
_geom_bond_distance
_geom_bond_site_symmetry_2
O0 Se0 1.707384 1_555
O0 V0 1.936637 1_555
O1 Se1 1.707432 1_555
O1 V1 1.936728 1_555
O2 Se2 1.712181 1_555
O2 Ti0 1.949137 1_665
O3 Se3 1.711983 1_555
O3 Ti1 1.949323 1_556
O4 Se2 1.700266 1_555
O4 Ti1 1.963679 1_566
O5 Se0 1.725469 1_555
O5 V1 1.928784 1_555
O6 Se1 1.725018 1_555
O6 V0 1.928779 1_655
O7 Se3 1.700888 1_555
O7 Ti0 1.964127 1_555
O8 Se1 1.707787 1_555
O8 Ti0 1.950208 1_655
O9 Se2 1.720730 1_555
O9 V1 1.911444 1_555
O10 Se0 1.707647 1_555
O10 Ti1 1.950075 1_565
O11 Se3 1.721162 1_555
O11 V0 1.911673 1_556
O12 Se4 1.707384 1_555
O12 V0 1.936637 1_656
O13 Se5 1.707432 1_555
O13 V1 1.936728 1_555
O14 Se6 1.712181 1_555
O14 Ti0 1.949137 1_555
O15 Se7 1.711983 1_555
O15 Ti1 1.949323 1_565
O16 Se6 1.700266 1_555
O16 Ti1 1.963679 1_555
O17 Se4 1.725469 1_555
O17 V1 1.928784 1_555
O18 Se5 1.725018 1_555
O18 V0 1.928779 1_556
O19 Se7 1.700888 1_555
O19 Ti0 1.964127 1_665
O20 Se5 1.707787 1_555
O20 Ti0 1.950208 1_565
O21 Se6 1.720730 1_555
O21 V1 1.911444 1_555
O22 Se4 1.707647 1_555
O22 Ti1 1.950075 1_556
O23 Se7 1.721162 1_555
O23 V0 1.911673 1_655
