# generated using pymatgen
data_Ca10TaTcN10
_symmetry_space_group_name_H-M   'P 1'
_cell_length_a   6.90445301
_cell_length_b   6.90445148
_cell_length_c   8.88852055
_cell_angle_alpha   80.35027581
_cell_angle_beta   80.35026868
_cell_angle_gamma   59.53546771
_symmetry_Int_Tables_number   1
_chemical_formula_structural   Ca10TaTcN10
_chemical_formula_sum   'Ca10 Ta1 Tc1 N10'
_cell_volume   358.35573922
_cell_formula_units_Z   1
loop_
 _symmetry_equiv_pos_site_id
 _symmetry_equiv_pos_as_xyz
  1  'x, y, z'
loop_
 _atom_site_type_symbol
 _atom_site_label
 _atom_site_symmetry_multiplicity
 _atom_site_fract_x
 _atom_site_fract_y
 _atom_site_fract_z
 _atom_site_occupancy
  Ca  Ca0  1  0.87659829  0.35011667  0.83157086  1
  Ca  Ca1  1  0.87454834  0.87454834  0.82238441  1
  Ca  Ca2  1  0.73801191  0.73801191  0.52513877  1
  Ca  Ca3  1  0.75393630  0.24811933  0.50489848  1
  Ca  Ca4  1  0.63132713  0.13139144  0.15149723  1
  Ca  Ca5  1  0.35011667  0.87659829  0.83157086  1
  Ca  Ca6  1  0.24811933  0.75393630  0.50489848  1
  Ca  Ca7  1  0.24189979  0.24189979  0.49331191  1
  Ca  Ca8  1  0.14072290  0.14072290  0.16039727  1
  Ca  Ca9  1  0.13139144  0.63132713  0.15149723  1
  Ta  Ta0  1  0.36930673  0.36930673  0.77503660  1
  Tc  Tc0  1  0.63001226  0.63001226  0.22397665  1
  N  N0  1  0.90741953  0.47369235  0.32106803  1
  N  N1  1  0.99707152  0.99707152  0.01502175  1
  N  N2  1  0.68223868  0.68223868  0.02165891  1
  N  N3  1  0.53526369  0.53526369  0.69372265  1
  N  N4  1  0.47369235  0.90741953  0.32106803  1
  N  N5  1  0.53794559  0.08431543  0.67853148  1
  N  N6  1  0.47459502  0.47459502  0.29720315  1
  N  N7  1  0.32155087  0.32155087  0.99648218  1
  N  N8  1  0.06220523  0.06220523  0.64633862  1
  N  N9  1  0.08431543  0.53794559  0.67853148  1
loop_
_geom_bond_atom_site_label_1
_geom_bond_atom_site_label_2
_geom_bond_distance
_geom_bond_site_symmetry_2
Ca0 N3 2.465292 1_555
Ca0 N8 2.472122 1_655
Ca0 N9 2.495919 1_655
Ca0 N1 2.521662 1_546
Ca0 N2 2.707840 1_556
Ca1 N1 2.461707 1_556
Ca1 N9 2.469019 1_655
Ca1 N5 2.469019 1_565
Ca1 N8 2.479707 1_665
Ca1 N2 2.621875 1_556
Ca2 N0 2.494561 1_555
Ca2 N4 2.494562 1_555
Ca2 N5 2.568369 1_565
Ca2 N9 2.568370 1_655
Ca2 N3 2.597161 1_555
Ca3 N8 2.311735 1_655
Ca3 N5 2.497690 1_555
Ca3 N3 2.501562 1_555
Ca3 N0 2.541357 1_555
Ca3 N6 2.596319 1_555
Ca4 N1 2.384114 1_545
Ca4 N7 2.393932 1_554
Ca4 N4 2.494593 1_545
Ca4 N6 2.534225 1_555
Ca5 N3 2.465291 1_555
Ca5 N8 2.472122 1_565
Ca5 N5 2.495918 1_565
Ca5 N1 2.521662 1_456
Ca5 N2 2.707841 1_556
Ca6 N8 2.311734 1_565
Ca6 N9 2.497690 1_555
Ca6 N3 2.501562 1_555
Ca6 N4 2.541357 1_555
Ca6 N6 2.596319 1_555
Ca7 N8 2.314757 1_555
Ca7 N9 2.518888 1_555
Ca7 N5 2.518889 1_555
Ca7 N4 2.618152 1_545
Ca7 N0 2.618152 1_455
Ca7 N6 2.990095 1_555
Ca8 N1 2.343933 1_445
Ca8 N7 2.366708 1_554
Ca8 N0 2.548317 1_455
Ca8 N4 2.548317 1_545
Ca9 N1 2.384114 1_455
Ca9 N7 2.393931 1_554
Ca9 N0 2.494593 1_455
Ca9 N6 2.534226 1_555
N0 Tc0 1.929739 1_555
N2 Tc0 1.786342 1_555
N3 Ta0 1.980998 1_555
N4 Tc0 1.929739 1_555
N5 Ta0 1.967540 1_555
N6 Tc0 1.850923 1_555
N7 Ta0 1.940830 1_555
N9 Ta0 1.967540 1_555
