# generated using pymatgen
data_Zn24PtRhAu6
_symmetry_space_group_name_H-M   'P 1'
_cell_length_a   7.81900602
_cell_length_b   7.81900602
_cell_length_c   7.81900602
_cell_angle_alpha   90.00000000
_cell_angle_beta   90.00000000
_cell_angle_gamma   90.00000000
_symmetry_Int_Tables_number   1
_chemical_formula_structural   Zn24PtRhAu6
_chemical_formula_sum   'Zn24 Pt1 Rh1 Au6'
_cell_volume   478.02943836
_cell_formula_units_Z   1
loop_
 _symmetry_equiv_pos_site_id
 _symmetry_equiv_pos_as_xyz
  1  'x, y, z'
loop_
 _atom_site_type_symbol
 _atom_site_label
 _atom_site_symmetry_multiplicity
 _atom_site_fract_x
 _atom_site_fract_y
 _atom_site_fract_z
 _atom_site_occupancy
  Zn  Zn0  1  0.50000000  0.20756903  0.33649411  1
  Zn  Zn1  1  0.50000000  0.79243097  0.66350589  1
  Zn  Zn2  1  0.20756903  0.33649411  0.50000000  1
  Zn  Zn3  1  0.79243097  0.33649411  0.50000000  1
  Zn  Zn4  1  0.33649411  0.50000000  0.20756903  1
  Zn  Zn5  1  0.66350589  0.50000000  0.20756903  1
  Zn  Zn6  1  0.00000000  0.83525827  0.29698625  1
  Zn  Zn7  1  0.00000000  0.16474173  0.70301375  1
  Zn  Zn8  1  0.00000000  0.16474173  0.29698625  1
  Zn  Zn9  1  0.50000000  0.20756903  0.66350589  1
  Zn  Zn10  1  0.50000000  0.79243097  0.33649411  1
  Zn  Zn11  1  0.79243097  0.66350589  0.50000000  1
  Zn  Zn12  1  0.20756903  0.66350589  0.50000000  1
  Zn  Zn13  1  0.33649411  0.50000000  0.79243097  1
  Zn  Zn14  1  0.66350589  0.50000000  0.79243097  1
  Zn  Zn15  1  0.29698625  0.00000000  0.16474173  1
  Zn  Zn16  1  0.16474173  0.29698625  0.00000000  1
  Zn  Zn17  1  0.83525827  0.70301375  0.00000000  1
  Zn  Zn18  1  0.29698625  0.00000000  0.83525827  1
  Zn  Zn19  1  0.83525827  0.29698625  0.00000000  1
  Zn  Zn20  1  0.70301375  0.00000000  0.16474173  1
  Zn  Zn21  1  0.70301375  0.00000000  0.83525827  1
  Zn  Zn22  1  0.16474173  0.70301375  0.00000000  1
  Zn  Zn23  1  0.00000000  0.83525827  0.70301375  1
  Pt  Pt0  1  0.00000000  0.00000000  0.00000000  1
  Rh  Rh0  1  0.50000000  0.50000000  0.50000000  1
  Au  Au0  1  0.50000000  0.24955576  0.00000000  1
  Au  Au1  1  0.50000000  0.75044424  0.00000000  1
  Au  Au2  1  0.00000000  0.50000000  0.75044424  1
  Au  Au3  1  0.00000000  0.50000000  0.24955576  1
  Au  Au4  1  0.75044424  0.00000000  0.50000000  1
  Au  Au5  1  0.24955576  0.00000000  0.50000000  1
loop_
_geom_bond_atom_site_label_1
_geom_bond_atom_site_label_2
_geom_bond_distance
_geom_bond_site_symmetry_2
Zn0 Zn9 2.556907 1_555
Zn0 Zn20 2.637665 1_555
Zn0 Zn15 2.637665 1_555
Zn0 Zn5 2.806922 1_555
Zn0 Zn3 2.806922 1_555
Zn0 Zn4 2.806922 1_555
Zn0 Zn2 2.806922 1_555
Zn1 Zn10 2.556907 1_555
Zn1 Zn21 2.637665 1_565
Zn1 Zn18 2.637665 1_565
Zn1 Zn14 2.806922 1_555
Zn1 Zn11 2.806922 1_555
Zn1 Zn12 2.806922 1_555
Zn1 Zn13 2.806922 1_555
Zn2 Zn7 2.637665 1_555
Zn2 Zn8 2.637665 1_555
Zn2 Zn9 2.806922 1_555
Zn2 Zn4 2.806922 1_555
Zn3 Zn7 2.637665 1_655
Zn3 Zn8 2.637665 1_655
Zn3 Zn9 2.806922 1_555
Zn3 Zn5 2.806922 1_555
Zn4 Zn5 2.556907 1_555
Zn6 Zn8 2.576233 1_565
Zn10 Zn20 2.637665 1_565
Zn10 Zn15 2.637665 1_565
Zn10 Zn5 2.806922 1_555
Zn10 Zn4 2.806922 1_555
Zn10 Zn11 2.806922 1_555
Zn10 Zn12 2.806922 1_555
Zn11 Zn3 2.556907 1_555
Zn11 Zn23 2.637665 1_655
Zn11 Zn6 2.637665 1_655
Zn11 Zn14 2.806922 1_555
Zn11 Zn5 2.806922 1_555
Zn12 Zn2 2.556907 1_555
Zn12 Zn23 2.637665 1_555
Zn12 Zn6 2.637665 1_555
Zn12 Zn13 2.806922 1_555
Zn12 Zn4 2.806922 1_555
Zn13 Zn14 2.556907 1_555
Zn13 Zn22 2.637665 1_556
Zn13 Zn16 2.637665 1_556
Zn13 Zn2 2.806922 1_555
Zn13 Zn9 2.806922 1_555
Zn14 Zn17 2.637665 1_556
Zn14 Zn19 2.637665 1_556
Zn14 Zn9 2.806922 1_555
Zn14 Zn3 2.806922 1_555
Zn15 Zn18 2.576233 1_554
Zn15 Zn16 2.849695 1_555
Zn15 Zn8 2.849695 1_555
Zn15 Zn6 2.849695 1_545
Zn15 Zn22 2.849695 1_545
Zn16 Zn19 2.576233 1_455
Zn16 Zn4 2.637665 1_555
Zn16 Zn8 2.849695 1_555
Zn16 Zn18 2.849695 1_554
Zn16 Zn7 2.849695 1_554
Zn17 Zn22 2.576233 1_655
Zn17 Zn5 2.637665 1_555
Zn17 Zn6 2.849695 1_655
Zn17 Zn20 2.849695 1_565
Zn17 Zn21 2.849695 1_564
Zn17 Zn23 2.849695 1_654
Zn18 Zn9 2.637665 1_555
Zn18 Zn7 2.849695 1_555
Zn18 Zn23 2.849695 1_545
Zn18 Zn22 2.849695 1_546
Zn19 Zn5 2.637665 1_555
Zn19 Zn20 2.849695 1_555
Zn19 Zn8 2.849695 1_655
Zn19 Zn21 2.849695 1_554
Zn19 Zn7 2.849695 1_654
Zn20 Zn21 2.576233 1_554
Zn20 Zn8 2.849695 1_655
Zn20 Zn6 2.849695 1_645
Zn21 Zn9 2.637665 1_555
Zn21 Zn7 2.849695 1_655
Zn21 Zn23 2.849695 1_645
Zn22 Zn4 2.637665 1_555
Zn22 Zn6 2.849695 1_555
Zn22 Zn23 2.849695 1_554
Zn23 Zn7 2.576233 1_565
Pt0 Zn16 2.655478 1_555
Pt0 Zn8 2.655478 1_555
Pt0 Zn15 2.655478 1_555
Pt0 Zn6 2.655478 1_545
Pt0 Zn19 2.655478 1_455
Pt0 Zn18 2.655478 1_554
Pt0 Zn20 2.655478 1_455
Pt0 Zn7 2.655478 1_554
Pt0 Zn22 2.655478 1_545
Pt0 Zn23 2.655478 1_544
Pt0 Zn17 2.655478 1_445
Pt0 Zn21 2.655478 1_454
Rh0 Zn1 2.619659 1_555
Rh0 Zn14 2.619659 1_555
Rh0 Zn11 2.619659 1_555
Rh0 Zn5 2.619659 1_555
Rh0 Zn12 2.619659 1_555
Rh0 Zn9 2.619659 1_555
Rh0 Zn3 2.619659 1_555
Rh0 Zn13 2.619659 1_555
Rh0 Zn10 2.619659 1_555
Rh0 Zn0 2.619659 1_555
Rh0 Zn4 2.619659 1_555
Rh0 Zn2 2.619659 1_555
Au0 Zn19 2.647490 1_555
Au0 Zn16 2.647490 1_555
Au0 Zn0 2.651452 1_555
Au0 Zn9 2.651452 1_554
Au0 Zn20 2.826033 1_555
Au0 Zn21 2.826033 1_554
Au0 Zn15 2.826033 1_555
Au0 Zn18 2.826033 1_554
Au0 Zn5 2.846606 1_555
Au0 Zn14 2.846606 1_554
Au0 Zn4 2.846606 1_555
Au0 Zn13 2.846606 1_554
Au1 Zn17 2.647490 1_555
Au1 Zn22 2.647490 1_555
Au1 Zn10 2.651452 1_555
Au1 Zn1 2.651452 1_554
Au1 Zn20 2.826033 1_565
Au1 Zn21 2.826033 1_564
Au1 Zn15 2.826033 1_565
Au1 Zn18 2.826033 1_564
Au1 Zn5 2.846606 1_555
Au1 Zn14 2.846606 1_554
Au1 Zn4 2.846606 1_555
Au1 Zn13 2.846606 1_554
Au2 Zn23 2.647490 1_555
Au2 Zn7 2.647490 1_555
Au2 Zn13 2.651452 1_555
Au2 Zn14 2.651452 1_455
Au2 Zn22 2.826033 1_556
Au2 Zn17 2.826033 1_456
Au2 Zn16 2.826033 1_556
Au2 Zn19 2.826033 1_456
Au2 Zn12 2.846606 1_555
Au2 Zn11 2.846606 1_455
Au2 Zn2 2.846606 1_555
Au2 Zn3 2.846606 1_455
Au3 Zn6 2.647490 1_555
Au3 Zn8 2.647490 1_555
Au3 Zn4 2.651452 1_555
Au3 Zn5 2.651452 1_455
Au3 Zn22 2.826033 1_555
Au3 Zn17 2.826033 1_455
Au3 Zn16 2.826033 1_555
Au3 Zn19 2.826033 1_455
Au3 Zn12 2.846606 1_555
Au3 Zn11 2.846606 1_455
Au3 Zn2 2.846606 1_555
Au3 Zn3 2.846606 1_455
Au4 Zn21 2.647490 1_555
Au4 Zn20 2.647490 1_555
Au4 Zn3 2.651452 1_555
Au4 Zn11 2.651452 1_545
Au4 Zn7 2.826033 1_655
Au4 Zn23 2.826033 1_645
Au4 Zn8 2.826033 1_655
Au4 Zn6 2.826033 1_645
Au4 Zn9 2.846606 1_555
Au4 Zn1 2.846606 1_545
Au4 Zn0 2.846606 1_555
Au4 Zn10 2.846606 1_545
Au5 Zn18 2.647490 1_555
Au5 Zn15 2.647490 1_555
Au5 Zn2 2.651452 1_555
Au5 Zn12 2.651452 1_545
Au5 Zn7 2.826033 1_555
Au5 Zn23 2.826033 1_545
Au5 Zn8 2.826033 1_555
Au5 Zn6 2.826033 1_545
Au5 Zn9 2.846606 1_555
Au5 Zn1 2.846606 1_545
Au5 Zn0 2.846606 1_555
Au5 Zn10 2.846606 1_545
