# generated using pymatgen
data_K16ZrTiBi8
_symmetry_space_group_name_H-M   'P 1'
_cell_length_a   11.70370058
_cell_length_b   11.70369598
_cell_length_c   11.70362399
_cell_angle_alpha   60.00248298
_cell_angle_beta   60.00238283
_cell_angle_gamma   60.00201147
_symmetry_Int_Tables_number   1
_chemical_formula_structural   K16ZrTiBi8
_chemical_formula_sum   'K16 Zr1 Ti1 Bi8'
_cell_volume   1133.63740775
_cell_formula_units_Z   1
loop_
 _symmetry_equiv_pos_site_id
 _symmetry_equiv_pos_as_xyz
  1  'x, y, z'
loop_
 _atom_site_type_symbol
 _atom_site_label
 _atom_site_symmetry_multiplicity
 _atom_site_fract_x
 _atom_site_fract_y
 _atom_site_fract_z
 _atom_site_occupancy
  K  K0  1  0.62385053  0.12845417  0.62385185  1
  K  K1  1  0.62384162  0.62384162  0.12849372  1
  K  K2  1  0.12845517  0.62384953  0.62384985  1
  K  K3  1  0.62383874  0.62383874  0.62382192  1
  K  K4  1  0.02758331  0.02758331  0.47241119  1
  K  K5  1  0.77809634  0.22188873  0.22185511  1
  K  K6  1  0.22189664  0.77809187  0.77816214  1
  K  K7  1  0.77811850  0.77811950  0.22188803  1
  K  K8  1  0.77809087  0.22189864  0.77815814  1
  K  K9  1  0.22188573  0.77809834  0.22185511  1
  K  K10  1  0.47247662  0.02754894  0.47240400  1
  K  K11  1  0.47247328  0.02756557  0.02757217  1
  K  K12  1  0.02754994  0.47247562  0.47240200  1
  K  K13  1  0.02756757  0.47247128  0.02757317  1
  K  K14  1  0.22181777  0.22181777  0.77819041  1
  K  K15  1  0.47247505  0.47247305  0.02752165  1
  Zr  Zr0  1  0.75000849  0.75000449  0.74998683  1
  Ti  Ti0  1  0.49997834  0.49997934  0.50001293  1
  Bi  Bi0  1  0.40090483  0.79726953  0.40090771  1
  Bi  Bi1  1  0.85247682  0.85247682  0.44257693  1
  Bi  Bi2  1  0.44258523  0.85247452  0.85247272  1
  Bi  Bi3  1  0.85248514  0.85248514  0.85247016  1
  Bi  Bi4  1  0.79726953  0.40090383  0.40090771  1
  Bi  Bi5  1  0.40090118  0.40090218  0.40090525  1
  Bi  Bi6  1  0.40090024  0.40090124  0.79727557  1
  Bi  Bi7  1  0.85247552  0.44258623  0.85247272  1
loop_
_geom_bond_atom_site_label_1
_geom_bond_atom_site_label_2
_geom_bond_distance
_geom_bond_site_symmetry_2
K0 Ti0 3.550404 1_555
K0 Zr0 3.616577 1_545
K0 K8 3.863291 1_555
K0 K5 3.863521 1_555
K0 K14 3.863965 1_555
K0 K10 3.873017 1_555
K0 K11 3.873132 1_556
K0 K4 3.873282 1_655
K1 Ti0 3.550339 1_555
K1 Zr0 3.617115 1_554
K1 K7 3.862937 1_555
K1 K5 3.863177 1_555
K1 K9 3.863205 1_555
K1 K15 3.872768 1_555
K1 K11 3.873148 1_565
K1 K13 3.873167 1_655
K2 Ti0 3.550383 1_555
K2 Zr0 3.616546 1_455
K2 K6 3.863343 1_555
K2 K9 3.863507 1_555
K2 K4 3.873293 1_565
K3 Ti0 3.550271 1_555
K3 Zr0 3.616891 1_555
K3 K7 3.862992 1_555
K3 K8 3.863080 1_555
K3 K6 3.863100 1_555
K4 K9 4.189306 1_545
K4 K5 4.189325 1_455
K4 K8 4.189508 1_455
K4 K6 4.189537 1_545
K10 K3 3.873021 1_545
K10 K7 4.188498 1_545
K10 K5 4.188574 1_555
K10 K6 4.189417 1_545
K10 K14 4.189532 1_555
K11 K8 4.188506 1_554
K11 K7 4.188598 1_545
K11 K14 4.189371 1_554
K11 K9 4.189509 1_545
K12 K2 3.873016 1_555
K12 K3 3.873029 1_455
K12 K7 4.188509 1_455
K12 K9 4.188573 1_555
K12 K8 4.189406 1_455
K12 K14 4.189550 1_555
K13 K2 3.873163 1_554
K13 K6 4.188505 1_554
K13 K7 4.188611 1_455
K13 K14 4.189359 1_554
K13 K5 4.189502 1_455
K14 K2 3.863959 1_555
K15 K3 3.872878 1_554
K15 K8 4.188398 1_554
K15 K6 4.188410 1_554
K15 K5 4.188510 1_555
K15 K9 4.188540 1_555
Bi0 Ti0 2.840993 1_555
Bi0 K10 3.725432 1_565
Bi0 K4 3.725481 1_565
Bi0 K11 3.725551 1_565
Bi0 K1 3.734917 1_555
Bi0 K3 3.734944 1_555
Bi0 K2 3.735222 1_555
Bi0 K7 3.763170 1_555
Bi0 K9 3.763250 1_555
Bi0 K6 3.763480 1_555
Bi1 Zr0 2.937693 1_555
Bi1 K7 3.665840 1_555
Bi1 K9 3.666148 1_655
Bi1 K5 3.666177 1_565
Bi1 K10 3.761692 1_565
Bi1 K12 3.761707 1_655
Bi1 K4 3.762017 1_665
Bi1 K0 3.824523 1_565
Bi1 K2 3.824523 1_655
Bi1 K3 3.824798 1_555
Bi2 Zr0 2.937826 1_555
Bi2 K6 3.665665 1_555
Bi2 K14 3.665722 1_565
Bi2 K9 3.665862 1_556
Bi2 K15 3.761552 1_556
Bi2 K11 3.762174 1_566
Bi2 K10 3.762208 1_565
Bi2 K0 3.824511 1_565
Bi2 K1 3.824785 1_556
Bi2 K3 3.824838 1_555
Bi3 Zr0 2.937855 1_555
Bi3 K7 3.666051 1_556
Bi3 K6 3.666085 1_655
Bi3 K8 3.666094 1_565
Bi3 K11 3.761838 1_566
Bi3 K13 3.761865 1_656
Bi3 K4 3.762236 1_665
Bi3 K0 3.824543 1_565
Bi3 K2 3.824560 1_655
Bi3 K1 3.824917 1_556
Bi4 Ti0 2.841001 1_555
Bi4 K12 3.725428 1_655
Bi4 K4 3.725474 1_655
Bi4 K13 3.725546 1_655
Bi4 K1 3.734924 1_555
Bi4 K3 3.734948 1_555
Bi4 K0 3.735216 1_555
Bi4 K7 3.763190 1_555
Bi4 K5 3.763221 1_555
Bi4 K8 3.763440 1_555
Bi5 Ti0 2.840589 1_555
Bi5 K12 3.725580 1_555
Bi5 K10 3.725590 1_555
Bi5 K15 3.725701 1_555
Bi5 K1 3.735252 1_555
Bi5 K2 3.735366 1_555
Bi5 K0 3.735405 1_555
Bi5 K5 3.763060 1_555
Bi5 K9 3.763078 1_555
Bi5 K14 3.764024 1_555
Bi6 Ti0 2.840723 1_555
Bi6 K13 3.725533 1_556
Bi6 K11 3.725559 1_556
Bi6 K15 3.725690 1_556
Bi6 K3 3.735189 1_555
Bi6 K0 3.735190 1_555
Bi6 K2 3.735192 1_555
Bi6 K8 3.763019 1_555
Bi6 K6 3.763030 1_555
Bi6 K14 3.763599 1_555
Bi7 Zr0 2.937780 1_555
Bi7 K8 3.665703 1_555
Bi7 K14 3.665715 1_655
Bi7 K5 3.665860 1_556
Bi7 K15 3.761548 1_556
Bi7 K13 3.762174 1_656
Bi7 K12 3.762230 1_655
Bi7 K2 3.824495 1_655
Bi7 K1 3.824771 1_556
Bi7 K3 3.824855 1_555
