# generated using pymatgen
data_Pd3Ru(Pb2O7)2
_symmetry_space_group_name_H-M   'P 1'
_cell_length_a   7.32845122
_cell_length_b   7.32845155
_cell_length_c   7.32845204
_cell_angle_alpha   59.21576032
_cell_angle_beta   59.21575928
_cell_angle_gamma   59.21575896
_symmetry_Int_Tables_number   1
_chemical_formula_structural   Pd3Ru(Pb2O7)2
_chemical_formula_sum   'Pd3 Ru1 Pb4 O14'
_cell_volume   273.33317017
_cell_formula_units_Z   1
loop_
 _symmetry_equiv_pos_site_id
 _symmetry_equiv_pos_as_xyz
  1  'x, y, z'
loop_
 _atom_site_type_symbol
 _atom_site_label
 _atom_site_symmetry_multiplicity
 _atom_site_fract_x
 _atom_site_fract_y
 _atom_site_fract_z
 _atom_site_occupancy
  Pd  Pd0  1  0.12500000  0.62500000  0.62500000  1
  Pd  Pd1  1  0.62500000  0.12500000  0.62500000  1
  Pd  Pd2  1  0.62500000  0.62500000  0.12500000  1
  Ru  Ru0  1  0.62500000  0.62500000  0.62500000  1
  Pb  Pb0  1  0.62500000  0.12500000  0.12500000  1
  Pb  Pb1  1  0.12500000  0.62500000  0.12500000  1
  Pb  Pb2  1  0.12500000  0.12500000  0.62500000  1
  Pb  Pb3  1  0.12500000  0.12500000  0.12500000  1
  O  O0  1  0.70323441  0.70323441  0.30091819  1
  O  O1  1  0.29302945  0.29302945  0.71251519  1
  O  O2  1  0.70323441  0.30091819  0.70323441  1
  O  O3  1  0.29302945  0.71251519  0.29302945  1
  O  O4  1  0.30091819  0.70323441  0.70323441  1
  O  O5  1  0.71251519  0.29302945  0.29302945  1
  O  O6  1  0.54676559  0.54676559  0.94908181  1
  O  O7  1  0.95697055  0.95697055  0.53748481  1
  O  O8  1  0.54676559  0.94908181  0.54676559  1
  O  O9  1  0.95697055  0.53748481  0.95697055  1
  O  O10  1  0.94908181  0.54676559  0.54676559  1
  O  O11  1  0.53748481  0.95697055  0.95697055  1
  O  O12  1  0.24045298  0.24045298  0.24045298  1
  O  O13  1  0.00954702  0.00954702  0.00954702  1
loop_
_geom_bond_atom_site_label_1
_geom_bond_atom_site_label_2
_geom_bond_distance
_geom_bond_site_symmetry_2
O0 Ru0 1.961362 1_555
O0 Pd2 2.041856 1_555
O0 Pb1 2.531425 1_655
O0 Pb0 2.531425 1_565
O1 Pd1 1.997768 1_555
O1 Pd0 1.997768 1_555
O1 Pb3 2.470239 1_556
O1 Pb2 2.571566 1_555
O2 Ru0 1.961362 1_555
O2 Pd1 2.041856 1_555
O2 Pb2 2.531425 1_655
O2 Pb0 2.531425 1_556
O3 Pd2 1.997768 1_555
O3 Pd0 1.997768 1_555
O3 Pb3 2.470239 1_565
O3 Pb1 2.571566 1_555
O4 Ru0 1.961361 1_555
O4 Pd0 2.041856 1_555
O4 Pb2 2.531425 1_565
O4 Pb1 2.531425 1_556
O5 Pd2 1.997768 1_555
O5 Pd1 1.997768 1_555
O5 Pb3 2.470239 1_655
O5 Pb0 2.571566 1_555
O6 Ru0 1.961362 1_555
O6 Pd2 2.041856 1_556
O6 Pb1 2.531425 1_556
O6 Pb0 2.531425 1_556
O7 Pd1 1.997768 1_565
O7 Pd0 1.997768 1_655
O7 Pb3 2.470239 1_665
O7 Pb2 2.571566 1_665
O8 Ru0 1.961362 1_555
O8 Pd1 2.041856 1_565
O8 Pb2 2.531425 1_565
O8 Pb0 2.531425 1_565
O9 Pd2 1.997768 1_556
O9 Pd0 1.997768 1_655
O9 Pb3 2.470239 1_656
O9 Pb1 2.571566 1_656
O10 Ru0 1.961361 1_555
O10 Pd0 2.041856 1_655
O10 Pb2 2.531425 1_655
O10 Pb1 2.531425 1_655
O11 Pd2 1.997768 1_556
O11 Pd1 1.997768 1_565
O11 Pb3 2.470239 1_566
O11 Pb0 2.571566 1_566
O12 Pb3 2.084691 1_555
O12 Pb0 2.285824 1_555
O12 Pb1 2.285824 1_555
O12 Pb2 2.285824 1_555
O13 Pb3 2.084691 1_555
O13 Pb0 2.285824 1_455
O13 Pb1 2.285824 1_545
O13 Pb2 2.285824 1_554
