# generated using pymatgen
data_LiSc(Sn4Ru)2
_symmetry_space_group_name_H-M   'P 1'
_cell_length_a   7.43047909
_cell_length_b   7.43047820
_cell_length_c   7.43047835
_cell_angle_alpha   126.34085661
_cell_angle_beta   126.34084657
_cell_angle_gamma   79.32864299
_symmetry_Int_Tables_number   1
_chemical_formula_structural   LiSc(Sn4Ru)2
_chemical_formula_sum   'Li1 Sc1 Sn8 Ru2'
_cell_volume   257.33025441
_cell_formula_units_Z   1
loop_
 _symmetry_equiv_pos_site_id
 _symmetry_equiv_pos_as_xyz
  1  'x, y, z'
loop_
 _atom_site_type_symbol
 _atom_site_label
 _atom_site_symmetry_multiplicity
 _atom_site_fract_x
 _atom_site_fract_y
 _atom_site_fract_z
 _atom_site_occupancy
  Li  Li0  1  0.50000000  0.50000000  0.00000000  1
  Sc  Sc0  1  0.00000000  0.00000000  0.00000000  1
  Sn  Sn0  1  0.69976165  0.51266146  0.49022744  1
  Sn  Sn1  1  0.51266146  0.02243402  0.81289981  1
  Sn  Sn2  1  0.20953421  0.69976165  0.18710019  1
  Sn  Sn3  1  0.79046579  0.30023835  0.81289981  1
  Sn  Sn4  1  0.48733854  0.97756598  0.18710019  1
  Sn  Sn5  1  0.30023835  0.48733854  0.50977256  1
  Sn  Sn6  1  0.97756598  0.79046579  0.49022744  1
  Sn  Sn7  1  0.02243402  0.20953421  0.50977256  1
  Ru  Ru0  1  0.24799255  0.24799255  1.00000000  1
  Ru  Ru1  1  0.75200745  0.75200745  0.00000000  1
loop_
_geom_bond_atom_site_label_1
_geom_bond_atom_site_label_2
_geom_bond_distance
_geom_bond_site_symmetry_2
Li0 Ru1 2.882946 1_555
Li0 Ru0 2.882946 1_554
Li0 Sn4 2.952675 1_555
Li0 Sn1 2.952675 1_554
Li0 Sn3 2.952675 1_554
Li0 Sn2 2.952675 1_555
Li0 Sn0 2.952675 1_555
Li0 Sn5 2.952675 1_554
Li0 Sn6 2.952676 1_555
Li0 Sn7 2.952676 1_554
Sc0 Sn7 3.026209 1_555
Sc0 Sn6 3.026209 1_444
Sc0 Sn3 3.026209 1_454
Sc0 Sn2 3.026209 1_545
Sc0 Sn5 3.026209 1_555
Sc0 Sn0 3.026209 1_444
Sc0 Sn4 3.026209 1_545
Sc0 Sn1 3.026209 1_454
Ru0 Sn2 2.804905 1_556
Ru0 Sn1 2.804905 1_555
Ru0 Sn7 2.804905 1_555
Ru0 Sn0 2.804906 1_556
Ru0 Sc0 2.837016 1_556
Ru0 Sn5 2.861886 1_556
Ru0 Sn6 2.861886 1_445
Ru0 Sn4 2.861886 1_546
Ru0 Sn3 2.861886 1_455
Ru1 Sn3 2.804905 1_554
Ru1 Sn4 2.804905 1_555
Ru1 Sn6 2.804905 1_555
Ru1 Sn5 2.804906 1_554
Ru1 Sc0 2.837016 1_665
Ru1 Sn0 2.861886 1_554
Ru1 Sn7 2.861886 1_665
Ru1 Sn1 2.861886 1_564
Ru1 Sn2 2.861886 1_655
