# generated using pymatgen
data_BaLiPRh2
_symmetry_space_group_name_H-M   'P 1'
_cell_length_a   6.13717060
_cell_length_b   6.13717021
_cell_length_c   6.13717081
_cell_angle_alpha   139.18414790
_cell_angle_beta   139.18414518
_cell_angle_gamma   59.09417886
_symmetry_Int_Tables_number   1
_chemical_formula_structural   BaLiPRh2
_chemical_formula_sum   'Ba1 Li1 P1 Rh2'
_cell_volume   97.80642209
_cell_formula_units_Z   1
loop_
 _symmetry_equiv_pos_site_id
 _symmetry_equiv_pos_as_xyz
  1  'x, y, z'
loop_
 _atom_site_type_symbol
 _atom_site_label
 _atom_site_symmetry_multiplicity
 _atom_site_fract_x
 _atom_site_fract_y
 _atom_site_fract_z
 _atom_site_occupancy
  Ba  Ba0  1  0.00042819  0.00042819  0.00000000  1
  Li  Li0  1  0.63934134  0.63934134  0.00000000  1
  P  P0  1  0.33764815  0.33764815  1.00000000  1
  Rh  Rh0  1  0.76129116  0.26129116  0.50000000  1
  Rh  Rh1  1  0.26129116  0.76129116  0.50000000  1
loop_
_geom_bond_atom_site_label_1
_geom_bond_atom_site_label_2
_geom_bond_distance
_geom_bond_site_symmetry_2
Ba0 Rh0 3.331704 1_444
Ba0 Rh1 3.331705 1_444
Ba0 Rh1 3.331705 1_545
Ba0 Rh0 3.331705 1_455
Ba0 Li0 3.370432 1_556
Ba0 Li0 3.370432 1_455
Ba0 Li0 3.370432 1_545
Ba0 Li0 3.370432 1_444
Ba0 P0 3.490103 1_443
Ba0 P0 3.490103 1_544
Ba0 P0 3.490103 1_454
Ba0 P0 3.490103 1_555
Ba0 Rh1 3.512672 1_555
Ba0 Rh0 3.512672 1_555
Ba0 Rh0 3.512672 1_454
Ba0 Rh1 3.512672 1_544
Ba0 P0 3.600859 1_554
Li0 Rh0 2.505090 1_565
Li0 Rh1 2.505090 1_655
Li0 Rh0 2.505090 1_554
Li0 Rh1 2.505090 1_554
P0 Rh1 2.290102 1_545
P0 Rh1 2.290102 1_556
P0 Rh0 2.290102 1_455
P0 Rh0 2.290102 1_556
