# generated using pymatgen
data_Cs4Ta2Si8O23
_symmetry_space_group_name_H-M   'P 1'
_cell_length_a   7.03446891
_cell_length_b   7.88068443
_cell_length_c   11.10531924
_cell_angle_alpha   103.09766089
_cell_angle_beta   89.70054095
_cell_angle_gamma   108.09963001
_symmetry_Int_Tables_number   1
_chemical_formula_structural   Cs4Ta2Si8O23
_chemical_formula_sum   'Cs4 Ta2 Si8 O23'
_cell_volume   568.53868628
_cell_formula_units_Z   1
loop_
 _symmetry_equiv_pos_site_id
 _symmetry_equiv_pos_as_xyz
  1  'x, y, z'
loop_
 _atom_site_type_symbol
 _atom_site_label
 _atom_site_symmetry_multiplicity
 _atom_site_fract_x
 _atom_site_fract_y
 _atom_site_fract_z
 _atom_site_occupancy
  Cs  Cs0  1  0.79113769  0.21696581  0.98687659  1
  Cs  Cs1  1  0.17258307  0.71130007  0.36226246  1
  Cs  Cs2  1  0.82741693  0.28869993  0.63773754  1
  Cs  Cs3  1  0.20886231  0.78303419  0.01312341  1
  Ta  Ta0  1  0.70750408  0.73998131  0.18617744  1
  Ta  Ta1  1  0.29249592  0.26001869  0.81382256  1
  Si  Si0  1  0.33998613  0.32677716  0.13019726  1
  Si  Si1  1  0.56286294  0.13547532  0.28773996  1
  Si  Si2  1  0.65053758  0.70327881  0.50158563  1
  Si  Si3  1  0.99735607  0.81252529  0.70577367  1
  Si  Si4  1  0.43713706  0.86452468  0.71226004  1
  Si  Si5  1  0.00264393  0.18747471  0.29422633  1
  Si  Si6  1  0.34946242  0.29672119  0.49841437  1
  Si  Si7  1  0.66001387  0.67322284  0.86980274  1
  O  O0  1  0.45166000  0.15151828  0.41797197  1
  O  O1  1  0.52714639  0.76374460  0.79960338  1
  O  O2  1  0.86325882  0.59640543  0.15108652  1
  O  O3  1  0.30144196  0.21960290  0.98658290  1
  O  O4  1  0.87361837  0.70223496  0.80378492  1
  O  O5  1  0.46795983  0.07304260  0.77624488  1
  O  O6  1  0.44258554  0.54480098  0.15016641  1
  O  O7  1  0.68674166  0.73476881  0.36649344  1
  O  O8  1  0.55741446  0.45519902  0.84983359  1
  O  O9  1  0.13538071  0.26683086  0.42673265  1
  O  O10  1  0.53204017  0.92695740  0.22375512  1
  O  O11  1  0.69855804  0.78039710  0.01341710  1
  O  O12  1  0.12638163  0.29776504  0.19621508  1
  O  O13  1  0.19741101  0.74999179  0.67965625  1
  O  O14  1  0.94970142  0.97098169  0.24153084  1
  O  O15  1  0.86461929  0.73316914  0.57326735  1
  O  O16  1  0.50000000  0.50000000  0.50000000  1
  O  O17  1  0.47285361  0.23625540  0.20039662  1
  O  O18  1  0.13674118  0.40359457  0.84891348  1
  O  O19  1  0.05029858  0.02901831  0.75846916  1
  O  O20  1  0.80258899  0.25000821  0.32034375  1
  O  O21  1  0.31325834  0.26523119  0.63350656  1
  O  O22  1  0.54834000  0.84848172  0.58202803  1
loop_
_geom_bond_atom_site_label_1
_geom_bond_atom_site_label_2
_geom_bond_distance
_geom_bond_site_symmetry_2
Cs0 O2 3.019952 1_556
Cs0 O5 3.029403 1_555
Cs0 O18 3.030123 1_655
Cs0 O12 3.134453 1_656
Cs0 O17 3.263631 1_556
Cs0 O11 3.378339 1_546
Cs0 O8 3.432662 1_555
Cs0 O19 3.446455 1_655
Cs0 O3 3.451285 1_555
Cs0 O3 3.583306 1_655
Cs0 O1 3.617099 1_545
Cs0 O20 3.652596 1_556
Cs1 O2 2.986831 1_455
Cs1 O10 3.181526 1_555
Cs1 O15 3.195255 1_455
Cs1 O12 3.278901 1_555
Cs1 O6 3.313304 1_555
Cs1 O0 3.328732 1_565
Cs1 O22 3.347832 1_555
Cs1 O14 3.420965 1_455
Cs1 O13 3.468955 1_555
Cs1 O7 3.479048 1_455
Cs1 O7 3.563719 1_555
Cs1 O9 3.662681 1_555
Cs1 O20 3.684152 1_455
Cs1 O16 3.740532 1_555
Cs2 O18 2.986831 1_655
Cs2 O5 3.181526 1_555
Cs2 O9 3.195255 1_655
Cs2 O4 3.278901 1_555
Cs2 O8 3.313304 1_555
Cs2 O22 3.328732 1_545
Cs2 O0 3.347832 1_555
Cs2 O19 3.420965 1_655
Cs2 O20 3.468955 1_555
Cs2 O21 3.479048 1_655
Cs2 O21 3.563719 1_555
Cs2 O15 3.662681 1_555
Cs2 O13 3.684152 1_655
Cs2 O16 3.740532 1_555
Cs3 O18 3.019952 1_554
Cs3 O10 3.029403 1_555
Cs3 O2 3.030123 1_455
Cs3 O4 3.134453 1_454
Cs3 O1 3.263631 1_554
Cs3 O3 3.378339 1_564
Cs3 O6 3.432662 1_555
Cs3 O14 3.446455 1_455
Cs3 O11 3.451285 1_555
Cs3 O11 3.583306 1_455
Cs3 O17 3.617099 1_565
Cs3 O13 3.652596 1_554
O0 Si6 1.632612 1_555
O0 Si1 1.639008 1_555
O1 Si4 1.624979 1_555
O1 Si7 1.632233 1_555
O2 Ta0 1.788443 1_555
O3 Si0 1.606937 1_556
O3 Ta1 2.019143 1_555
O4 Si3 1.626837 1_555
O4 Si7 1.642732 1_555
O5 Si4 1.582170 1_545
O5 Ta1 2.171362 1_555
O6 Si0 1.606452 1_555
O6 Ta0 1.986623 1_555
O7 Si2 1.581975 1_555
O7 Ta0 2.015785 1_555
O8 Si7 1.606452 1_555
O8 Ta1 1.986623 1_555
O9 Si5 1.631808 1_555
O9 Si6 1.632238 1_555
O10 Si1 1.582170 1_565
O10 Ta0 2.171362 1_555
O11 Si7 1.606937 1_554
O11 Ta0 2.019143 1_555
O12 Si5 1.626837 1_555
O12 Si0 1.642732 1_555
O13 Si3 1.633794 1_455
O13 Si4 1.643798 1_555
O14 Si5 1.595918 1_665
O14 Ta0 2.042359 1_555
O15 Si3 1.631808 1_555
O15 Si2 1.632238 1_555
O16 Si2 1.619066 1_555
O16 Si6 1.619066 1_555
O17 Si1 1.624979 1_555
O17 Si0 1.632233 1_555
O18 Ta1 1.788443 1_555
O19 Si3 1.595918 1_445
O19 Ta1 2.042359 1_555
O20 Si5 1.633794 1_655
O20 Si1 1.643798 1_555
O21 Si6 1.581975 1_555
O21 Ta1 2.015785 1_555
O22 Si2 1.632612 1_555
O22 Si4 1.639008 1_555
