# generated using pymatgen
data_Zr3InPd2N
_symmetry_space_group_name_H-M   'P 1'
_cell_length_a   8.76207383
_cell_length_b   8.76207379
_cell_length_c   8.76207358
_cell_angle_alpha   60.00000076
_cell_angle_beta   60.00000091
_cell_angle_gamma   59.99999618
_symmetry_Int_Tables_number   1
_chemical_formula_structural   Zr3InPd2N
_chemical_formula_sum   'Zr12 In4 Pd8 N4'
_cell_volume   475.66993817
_cell_formula_units_Z   4
loop_
 _symmetry_equiv_pos_site_id
 _symmetry_equiv_pos_as_xyz
  1  'x, y, z'
loop_
 _atom_site_type_symbol
 _atom_site_label
 _atom_site_symmetry_multiplicity
 _atom_site_fract_x
 _atom_site_fract_y
 _atom_site_fract_z
 _atom_site_occupancy
  Zr  Zr0  1  0.81444000  0.81444000  0.18556000  1
  Zr  Zr1  1  0.18556000  0.18556000  0.81444000  1
  Zr  Zr2  1  0.81444000  0.18556000  0.81444000  1
  Zr  Zr3  1  0.18556000  0.81444000  0.18556000  1
  Zr  Zr4  1  0.18556000  0.81444000  0.81444000  1
  Zr  Zr5  1  0.81444000  0.18556000  0.18556000  1
  Zr  Zr6  1  0.43556000  0.43556000  0.06444000  1
  Zr  Zr7  1  0.06444000  0.06444000  0.43556000  1
  Zr  Zr8  1  0.43556000  0.06444000  0.43556000  1
  Zr  Zr9  1  0.06444000  0.43556000  0.06444000  1
  Zr  Zr10  1  0.06444000  0.43556000  0.43556000  1
  Zr  Zr11  1  0.43556000  0.06444000  0.06444000  1
  In  In0  1  0.12500000  0.62500000  0.62500000  1
  In  In1  1  0.62500000  0.12500000  0.62500000  1
  In  In2  1  0.62500000  0.62500000  0.12500000  1
  In  In3  1  0.62500000  0.62500000  0.62500000  1
  Pd  Pd0  1  0.77607418  0.40797527  0.40797527  1
  Pd  Pd1  1  0.40797527  0.77607418  0.40797527  1
  Pd  Pd2  1  0.40797527  0.40797527  0.77607418  1
  Pd  Pd3  1  0.40797527  0.40797527  0.40797527  1
  Pd  Pd4  1  0.47392582  0.84202473  0.84202473  1
  Pd  Pd5  1  0.84202473  0.47392582  0.84202473  1
  Pd  Pd6  1  0.84202473  0.84202473  0.47392582  1
  Pd  Pd7  1  0.84202473  0.84202473  0.84202473  1
  N  N0  1  0.62500000  0.12500000  0.12500000  1
  N  N1  1  0.12500000  0.62500000  0.12500000  1
  N  N2  1  0.12500000  0.12500000  0.62500000  1
  N  N3  1  0.12500000  0.12500000  0.12500000  1
loop_
_geom_bond_atom_site_label_1
_geom_bond_atom_site_label_2
_geom_bond_distance
_geom_bond_site_symmetry_2
In0 Pd2 2.750634 1_555
In0 Pd7 2.750634 1_455
In0 Pd3 2.750634 1_555
In0 Pd6 2.750634 1_455
In0 Pd1 2.750635 1_555
In0 Pd5 2.750635 1_455
In0 Zr4 3.210735 1_555
In0 Zr9 3.210735 1_556
In0 Zr3 3.210735 1_555
In0 Zr10 3.210735 1_555
In0 Zr7 3.210735 1_565
In0 Zr1 3.210735 1_555
In1 Pd2 2.750634 1_555
In1 Pd7 2.750634 1_545
In1 Pd3 2.750634 1_555
In1 Pd6 2.750634 1_545
In1 Pd0 2.750635 1_555
In1 Pd4 2.750635 1_545
In1 Zr2 3.210735 1_555
In1 Zr11 3.210735 1_556
In1 Zr5 3.210735 1_555
In1 Zr8 3.210735 1_555
In1 Zr7 3.210736 1_655
In1 Zr1 3.210736 1_555
In2 Pd0 2.750634 1_555
In2 Pd4 2.750634 1_554
In2 Pd1 2.750634 1_555
In2 Pd5 2.750634 1_554
In2 Pd7 2.750635 1_554
In2 Pd3 2.750635 1_555
In2 Zr11 3.210735 1_565
In2 Zr5 3.210735 1_555
In2 Zr9 3.210735 1_655
In2 Zr3 3.210735 1_555
In2 Zr0 3.210736 1_555
In2 Zr6 3.210736 1_555
In3 Pd4 2.750634 1_555
In3 Pd0 2.750634 1_555
In3 Pd5 2.750634 1_555
In3 Pd1 2.750634 1_555
In3 Pd6 2.750635 1_555
In3 Pd2 2.750635 1_555
In3 Zr8 3.210735 1_565
In3 Zr2 3.210735 1_555
In3 Zr10 3.210735 1_655
In3 Zr4 3.210735 1_555
In3 Zr6 3.210736 1_556
In3 Zr0 3.210736 1_555
Pd0 Zr7 2.789404 1_655
Pd0 Zr10 2.789404 1_655
Pd0 Zr9 2.789404 1_655
Pd0 Zr2 3.193188 1_555
Pd0 Zr5 3.193188 1_555
Pd0 Zr0 3.193188 1_555
Pd1 Zr7 2.789404 1_565
Pd1 Zr11 2.789404 1_565
Pd1 Zr8 2.789404 1_565
Pd1 Zr3 3.193188 1_555
Pd1 Zr4 3.193188 1_555
Pd1 Zr0 3.193188 1_555
Pd2 Zr6 2.789404 1_556
Pd2 Zr11 2.789404 1_556
Pd2 Zr9 2.789404 1_556
Pd2 Zr4 3.193187 1_555
Pd2 Zr2 3.193188 1_555
Pd2 Zr1 3.193188 1_555
Pd3 Zr6 2.789404 1_555
Pd3 Zr8 2.789404 1_555
Pd3 Zr10 2.789404 1_555
Pd3 Zr3 3.193187 1_555
Pd3 Zr5 3.193188 1_555
Pd3 Zr1 3.193188 1_555
Pd4 Zr1 2.789404 1_565
Pd4 Zr4 2.789404 1_555
Pd4 Zr3 2.789404 1_556
Pd4 Zr8 3.193188 1_565
Pd4 Zr11 3.193188 1_566
Pd4 Zr6 3.193188 1_556
Pd5 Zr1 2.789404 1_655
Pd5 Zr5 2.789404 1_556
Pd5 Zr2 2.789404 1_555
Pd5 Zr9 3.193188 1_656
Pd5 Zr10 3.193188 1_655
Pd5 Zr6 3.193188 1_556
Pd6 Zr0 2.789404 1_555
Pd6 Zr5 2.789404 1_565
Pd6 Zr3 2.789404 1_655
Pd6 Zr10 3.193187 1_655
Pd6 Zr8 3.193188 1_565
Pd6 Zr7 3.193188 1_665
Pd7 Zr0 2.789404 1_556
Pd7 Zr2 2.789404 1_565
Pd7 Zr4 2.789404 1_655
Pd7 Zr9 3.193187 1_656
Pd7 Zr11 3.193188 1_566
Pd7 Zr7 3.193188 1_665
N0 Zr6 2.315493 1_555
N0 Zr0 2.315493 1_545
N0 Zr5 2.315493 1_555
N0 Zr8 2.315493 1_555
N0 Zr2 2.315493 1_554
N0 Zr11 2.315493 1_555
N1 Zr6 2.315493 1_555
N1 Zr0 2.315493 1_455
N1 Zr3 2.315493 1_555
N1 Zr10 2.315493 1_555
N1 Zr4 2.315493 1_554
N1 Zr9 2.315493 1_555
N2 Zr1 2.315493 1_555
N2 Zr7 2.315493 1_555
N2 Zr10 2.315493 1_555
N2 Zr4 2.315493 1_545
N2 Zr8 2.315493 1_555
N2 Zr2 2.315493 1_455
N3 Zr7 2.315493 1_555
N3 Zr1 2.315493 1_554
N3 Zr9 2.315493 1_555
N3 Zr3 2.315493 1_545
N3 Zr11 2.315493 1_555
N3 Zr5 2.315493 1_455
