# generated using pymatgen
data_Rb4H11Ru2
_symmetry_space_group_name_H-M   'P 1'
_cell_length_a   6.13772578
_cell_length_b   9.14040768
_cell_length_c   10.40667041
_cell_angle_alpha   70.56069504
_cell_angle_beta   90.12272674
_cell_angle_gamma   89.81282861
_symmetry_Int_Tables_number   1
_chemical_formula_structural   Rb4H11Ru2
_chemical_formula_sum   'Rb8 H22 Ru4'
_cell_volume   550.54037961
_cell_formula_units_Z   2
loop_
 _symmetry_equiv_pos_site_id
 _symmetry_equiv_pos_as_xyz
  1  'x, y, z'
loop_
 _atom_site_type_symbol
 _atom_site_label
 _atom_site_symmetry_multiplicity
 _atom_site_fract_x
 _atom_site_fract_y
 _atom_site_fract_z
 _atom_site_occupancy
  Rb  Rb0  1  0.74419178  0.34676879  0.51488933  1
  Rb  Rb1  1  0.25580162  0.65321933  0.48509995  1
  Rb  Rb2  1  0.75324751  0.50748744  0.11619266  1
  Rb  Rb3  1  0.24676618  0.49252027  0.88378791  1
  Rb  Rb4  1  0.75462676  0.97961816  0.38561989  1
  Rb  Rb5  1  0.24536574  0.02036704  0.61439598  1
  Rb  Rb6  1  0.74357738  0.15645598  0.97172913  1
  Rb  Rb7  1  0.25637333  0.84353180  0.02830742  1
  H  H0  1  0.60984760  0.80262665  0.66202716  1
  H  H1  1  0.39019393  0.19738473  0.33796412  1
  H  H2  1  0.56331034  0.49510982  0.69550926  1
  H  H3  1  0.43669499  0.50491801  0.30445557  1
  H  H4  1  0.75371981  0.02340404  0.64014364  1
  H  H5  1  0.24628027  0.97659928  0.35987619  1
  H  H6  1  0.63117844  0.68233198  0.84445304  1
  H  H7  1  0.36882619  0.31765457  0.15553567  1
  H  H8  1  0.96156426  0.75188177  0.73894493  1
  H  H9  1  0.03844590  0.24811102  0.26107766  1
  H  H10  1  0.75538888  0.66211155  0.54291313  1
  H  H11  1  0.24465813  0.33789496  0.45707688  1
  H  H12  1  0.92397191  0.99623319  0.81002928  1
  H  H13  1  0.07599598  0.00378496  0.18998554  1
  H  H14  1  0.77794189  0.82539379  0.95435935  1
  H  H15  1  0.22203686  0.17461740  0.04565767  1
  H  H16  1  0.78288991  0.47313247  0.86023461  1
  H  H17  1  0.21712589  0.52685308  0.13973880  1
  H  H18  1  0.92701327  0.49619911  0.68464681  1
  H  H19  1  0.07298371  0.50380302  0.31533022  1
  H  H20  1  0.55664547  0.98225212  0.81781619  1
  H  H21  1  0.44332825  0.01772626  0.18220141  1
  Ru  Ru0  1  0.74940211  0.87339842  0.78508180  1
  Ru  Ru1  1  0.25059660  0.12659951  0.21493291  1
  Ru  Ru2  1  0.75100934  0.61638957  0.71352767  1
  Ru  Ru3  1  0.24900475  0.38361989  0.28645822  1
loop_
_geom_bond_atom_site_label_1
_geom_bond_atom_site_label_2
_geom_bond_distance
_geom_bond_site_symmetry_2
H0 Ru2 1.821205 1_555
H0 Ru0 1.828210 1_555
H0 Rb5 2.919045 1_565
H0 Rb4 2.933235 1_555
H1 Ru3 1.821269 1_555
H1 Ru1 1.828206 1_555
H1 Rb4 2.918949 1_545
H1 Rb5 2.933585 1_555
H2 Ru2 1.654394 1_555
H2 Rb3 2.756824 1_555
H2 Rb0 2.880903 1_555
H2 Rb1 2.881601 1_555
H3 Ru3 1.654403 1_555
H3 Rb2 2.756785 1_555
H3 Rb1 2.880888 1_555
H3 Rb0 2.881793 1_555
H4 Ru0 1.667199 1_545
H4 Rb0 2.805833 1_555
H4 Rb4 2.807439 1_545
H4 Rb5 3.030886 1_655
H4 Rb5 3.132054 1_555
H5 Ru1 1.667207 1_565
H5 Rb1 2.805921 1_555
H5 Rb5 2.807323 1_565
H5 Rb4 3.030923 1_455
H5 Rb4 3.131997 1_555
H6 Ru0 1.802845 1_555
H6 Ru2 1.818973 1_555
H6 Rb2 2.843831 1_556
H6 Rb3 2.881432 1_555
H7 Ru1 1.802777 1_555
H7 Ru3 1.819045 1_555
H7 Rb3 2.843929 1_554
H7 Rb2 2.881581 1_555
H8 Ru2 1.871064 1_555
H8 Ru0 1.872994 1_555
H8 Rb3 2.922230 1_655
H8 Rb5 2.942281 1_665
H9 Ru3 1.871052 1_555
H9 Ru1 1.872951 1_555
H9 Rb2 2.922411 1_455
H9 Rb4 2.942381 1_445
H10 Ru2 1.683525 1_555
H10 Rb4 2.817754 1_555
H10 Rb0 2.993076 1_555
H10 Rb1 3.130053 1_555
H10 Rb1 3.137019 1_655
H11 Ru3 1.683560 1_555
H11 Rb5 2.817982 1_555
H11 Rb1 2.992897 1_555
H11 Rb0 3.129714 1_555
H11 Rb0 3.137325 1_455
H12 Ru0 1.636066 1_555
H12 Rb5 2.793902 1_665
H12 Rb6 2.800016 1_565
H12 Rb7 3.020202 1_656
H13 Ru1 1.636053 1_555
H13 Rb4 2.793754 1_445
H13 Rb7 2.799999 1_545
H13 Rb6 3.020080 1_454
H14 Ru0 1.676360 1_555
H14 Rb2 2.837173 1_556
H14 Rb7 3.053038 1_656
H14 Rb6 3.097447 1_565
H15 Ru1 1.676338 1_555
H15 Rb3 2.837255 1_554
H15 Rb6 3.053179 1_454
H15 Rb7 3.097571 1_545
H16 Ru2 1.658367 1_555
H16 Rb6 2.748309 1_555
H16 Rb2 2.790216 1_556
H16 Rb3 2.868264 1_655
H17 Ru3 1.658346 1_555
H17 Rb7 2.748244 1_555
H17 Rb3 2.790054 1_554
H17 Rb2 2.868250 1_455
H18 Ru2 1.636342 1_555
H18 Rb0 2.802357 1_555
H18 Rb3 2.843122 1_655
H18 Rb1 2.915074 1_655
H19 Ru3 1.636325 1_555
H19 Rb1 2.802359 1_555
H19 Rb2 2.843012 1_455
H19 Rb0 2.915193 1_455
H20 Ru0 1.650861 1_555
H20 Rb5 2.782154 1_565
H20 Rb7 2.826039 1_556
H20 Rb6 2.849378 1_565
H21 Ru1 1.650859 1_555
H21 Rb4 2.782228 1_545
H21 Rb6 2.825840 1_554
H21 Rb7 2.849223 1_545
