# generated using pymatgen
data_ZnAgPSe4
_symmetry_space_group_name_H-M   'P 1'
_cell_length_a   6.42201471
_cell_length_b   7.95797695
_cell_length_c   13.17139859
_cell_angle_alpha   90.00000000
_cell_angle_beta   90.00000000
_cell_angle_gamma   90.00000000
_symmetry_Int_Tables_number   1
_chemical_formula_structural   ZnAgPSe4
_chemical_formula_sum   'Zn4 Ag4 P4 Se16'
_cell_volume   673.14072363
_cell_formula_units_Z   4
loop_
 _symmetry_equiv_pos_site_id
 _symmetry_equiv_pos_as_xyz
  1  'x, y, z'
loop_
 _atom_site_type_symbol
 _atom_site_label
 _atom_site_symmetry_multiplicity
 _atom_site_fract_x
 _atom_site_fract_y
 _atom_site_fract_z
 _atom_site_occupancy
  Zn  Zn0  1  0.50293083  0.51122581  0.66039092  1
  Zn  Zn1  1  0.00293083  0.48877419  0.33960908  1
  Zn  Zn2  1  0.50293083  0.98877419  0.16039092  1
  Zn  Zn3  1  0.00293083  0.01122581  0.83960908  1
  Ag  Ag0  1  0.50093911  0.23250486  0.42675188  1
  Ag  Ag1  1  0.00093911  0.73250486  0.07324812  1
  Ag  Ag2  1  0.00093911  0.76749514  0.57324812  1
  Ag  Ag3  1  0.50093911  0.26749514  0.92675188  1
  P  P0  1  0.50596452  0.73414865  0.40706283  1
  P  P1  1  0.00596452  0.23414865  0.09293717  1
  P  P2  1  0.50596452  0.76585135  0.90706283  1
  P  P3  1  0.00596452  0.26585135  0.59293717  1
  Se  Se0  1  0.61775656  0.99076268  0.82281087  1
  Se  Se1  1  0.11775656  0.49076268  0.67718913  1
  Se  Se2  1  0.16035957  0.74199792  0.88635850  1
  Se  Se3  1  0.16035957  0.75800208  0.38635850  1
  Se  Se4  1  0.65183045  0.54319179  0.83427687  1
  Se  Se5  1  0.65183045  0.95680821  0.33427687  1
  Se  Se6  1  0.58951697  0.77020205  0.56989418  1
  Se  Se7  1  0.11775656  0.00923732  0.17718913  1
  Se  Se8  1  0.58951697  0.72979795  0.06989418  1
  Se  Se9  1  0.66035957  0.24199792  0.61364150  1
  Se  Se10  1  0.08951697  0.22979795  0.43010582  1
  Se  Se11  1  0.15183045  0.45680821  0.16572313  1
  Se  Se12  1  0.15183045  0.04319179  0.66572313  1
  Se  Se13  1  0.66035957  0.25800208  0.11364150  1
  Se  Se14  1  0.08951697  0.27020205  0.93010582  1
  Se  Se15  1  0.61775656  0.50923732  0.32281087  1
loop_
_geom_bond_atom_site_label_1
_geom_bond_atom_site_label_2
_geom_bond_distance
_geom_bond_site_symmetry_2
Ag0 Se10 2.642616 1_555
Ag0 Se9 2.667084 1_555
Ag0 Se5 2.690015 1_545
Ag0 Se15 2.699429 1_555
Ag1 Se8 2.642616 1_455
Ag1 Se2 2.667084 1_554
Ag1 Se11 2.690015 1_555
Ag1 Se7 2.699429 1_565
Ag2 Se6 2.642616 1_455
Ag2 Se3 2.667084 1_555
Ag2 Se12 2.690015 1_565
Ag2 Se1 2.699429 1_555
Ag3 Se14 2.642616 1_555
Ag3 Se13 2.667084 1_556
Ag3 Se4 2.690015 1_555
Ag3 Se0 2.699429 1_545
P0 Se5 2.221778 1_555
P0 Se15 2.224954 1_555
P0 Se6 2.229359 1_555
P0 Se3 2.244213 1_555
P1 Se11 2.221778 1_555
P1 Se7 2.224954 1_555
P1 Se14 2.229359 1_554
P1 Se13 2.244213 1_455
P2 Se4 2.221778 1_555
P2 Se0 2.224954 1_555
P2 Se8 2.229359 1_556
P2 Se2 2.244213 1_555
P3 Se12 2.221778 1_555
P3 Se1 2.224954 1_555
P3 Se10 2.229359 1_555
P3 Se9 2.244213 1_455
Se0 Zn3 2.488804 1_665
Se1 Zn0 2.488804 1_555
Se2 Zn3 2.447783 1_565
Se3 Zn1 2.447783 1_555
Se4 Zn0 2.494929 1_555
Se5 Zn2 2.494929 1_555
Se6 Zn0 2.444874 1_555
Se7 Zn2 2.488804 1_545
Se8 Zn2 2.444874 1_555
Se9 Zn0 2.447783 1_555
Se10 Zn1 2.444874 1_555
Se11 Zn1 2.494929 1_555
Se12 Zn3 2.494929 1_555
Se13 Zn2 2.447783 1_545
Se14 Zn3 2.444874 1_555
Se15 Zn1 2.488804 1_655
