# generated using pymatgen
data_Sr4AlSi6Pd
_symmetry_space_group_name_H-M   'P 1'
_cell_length_a   11.87207114
_cell_length_b   10.31079869
_cell_length_c   8.32051160
_cell_angle_alpha   78.36727678
_cell_angle_beta   58.28279541
_cell_angle_gamma   43.34993080
_symmetry_Int_Tables_number   1
_chemical_formula_structural   Sr4AlSi6Pd
_chemical_formula_sum   'Sr8 Al2 Si12 Pd2'
_cell_volume   565.56686648
_cell_formula_units_Z   2
loop_
 _symmetry_equiv_pos_site_id
 _symmetry_equiv_pos_as_xyz
  1  'x, y, z'
loop_
 _atom_site_type_symbol
 _atom_site_label
 _atom_site_symmetry_multiplicity
 _atom_site_fract_x
 _atom_site_fract_y
 _atom_site_fract_z
 _atom_site_occupancy
  Sr  Sr0  1  0.11813628  0.13060486  0.87886959  1
  Sr  Sr1  1  0.87887059  0.87239127  0.11813528  1
  Sr  Sr2  1  0.11939614  0.13186472  0.37760873  1
  Sr  Sr3  1  0.37760973  0.37113041  0.11939514  1
  Sr  Sr4  1  0.62968516  0.61831368  0.37338968  1
  Sr  Sr5  1  0.37338968  0.37861247  0.62968516  1
  Sr  Sr6  1  0.63168732  0.62031484  0.87138753  1
  Sr  Sr7  1  0.87138853  0.87661132  0.63168632  1
  Al  Al0  1  0.16731236  0.83268764  0.16731236  1
  Al  Al1  1  0.41731236  0.08268764  0.41731236  1
  Si  Si0  1  0.92283040  0.58395418  0.40693597  1
  Si  Si1  1  0.06967745  0.43185663  0.58963900  1
  Si  Si2  1  0.40693597  0.08627845  0.92283040  1
  Si  Si3  1  0.58963900  0.90882792  0.06967745  1
  Si  Si4  1  0.34117208  0.66036100  0.81814337  1
  Si  Si5  1  0.66604582  0.32716960  0.16372155  1
  Si  Si6  1  0.81814337  0.18032255  0.34117208  1
  Si  Si7  1  0.16372155  0.84306403  0.66604582  1
  Si  Si8  1  0.91973971  0.58026129  0.91973871  1
  Si  Si9  1  0.59086518  0.90913582  0.59086418  1
  Si  Si10  1  0.34086518  0.65913582  0.34086518  1
  Si  Si11  1  0.66973871  0.33026129  0.66973871  1
  Pd  Pd0  1  0.08292122  0.41707878  0.08292122  1
  Pd  Pd1  1  0.83292122  0.16707878  0.83292122  1
loop_
_geom_bond_atom_site_label_1
_geom_bond_atom_site_label_2
_geom_bond_distance
_geom_bond_site_symmetry_2
Al0 Si10 2.501383 1_555
Al0 Si6 2.510131 1_465
Al0 Si4 2.510134 1_554
Al0 Sr1 3.380602 1_455
Al0 Sr0 3.380622 1_564
Al0 Sr3 3.388070 1_555
Al0 Sr2 3.388074 1_565
Al0 Sr7 3.405253 1_455
Al0 Sr6 3.405266 1_554
Al1 Si9 2.501375 1_545
Al1 Si3 2.510127 1_545
Al1 Si1 2.510131 1_555
Al1 Sr2 3.380614 1_555
Al1 Sr3 3.380621 1_555
Al1 Sr0 3.388065 1_555
Al1 Sr1 3.388083 1_545
Al1 Sr4 3.405257 1_545
Al1 Sr5 3.405266 1_555
Si0 Si9 2.371895 1_555
Si0 Si1 2.378795 1_655
Si0 Sr3 3.315804 1_655
Si0 Sr1 3.327269 1_555
Si0 Sr2 3.357616 1_655
Si0 Sr7 3.371962 1_555
Si0 Sr4 3.391734 1_555
Si0 Sr6 3.417135 1_555
Si1 Si8 2.376271 1_455
Si1 Sr6 3.261125 1_455
Si1 Sr7 3.282423 1_455
Si1 Sr2 3.388043 1_555
Si1 Sr0 3.407773 1_555
Si1 Sr3 3.418315 1_555
Si1 Sr5 3.424040 1_555
Si2 Si9 2.371892 1_545
Si2 Si3 2.378795 1_546
Si2 Sr2 3.315791 1_556
Si2 Sr0 3.327242 1_555
Si2 Sr3 3.357630 1_556
Si2 Sr6 3.371940 1_545
Si2 Sr5 3.391748 1_555
Si2 Sr7 3.417153 1_545
Si3 Si8 2.376275 1_554
Si3 Sr7 3.261134 1_554
Si3 Sr6 3.282419 1_554
Si3 Sr3 3.388038 1_565
Si3 Sr1 3.407785 1_555
Si3 Sr2 3.418309 1_565
Si3 Sr4 3.424041 1_555
Si4 Si7 2.378781 1_555
Si4 Sr5 3.261116 1_555
Si4 Sr4 3.282418 1_555
Si4 Sr1 3.388024 1_456
Si4 Sr3 3.407773 1_556
Si4 Sr0 3.418323 1_565
Si4 Sr6 3.424052 1_555
Si5 Si6 2.378780 1_555
Si5 Sr1 3.315791 1_545
Si5 Sr3 3.327266 1_555
Si5 Sr0 3.357629 1_654
Si5 Sr5 3.371943 1_555
Si5 Sr6 3.391746 1_554
Si5 Sr4 3.417140 1_555
Si6 Sr4 3.261135 1_555
Si6 Sr5 3.282409 1_555
Si6 Sr0 3.388045 1_654
Si6 Sr2 3.407785 1_655
Si6 Sr1 3.418292 1_545
Si6 Sr7 3.424033 1_545
Si7 Sr0 3.315804 1_565
Si7 Sr2 3.327266 1_565
Si7 Sr1 3.357616 1_456
Si7 Sr4 3.371943 1_555
Si7 Sr7 3.391739 1_455
Si7 Sr5 3.417140 1_555
Si8 Sr0 3.327252 1_655
Si8 Sr1 3.327261 1_556
Si8 Sr5 3.350376 1_655
Si8 Sr4 3.350385 1_556
Si8 Sr6 3.369404 1_555
Si8 Sr7 3.369404 1_555
Si9 Sr7 3.292191 1_555
Si9 Sr6 3.292191 1_555
Si9 Sr5 3.432162 1_565
Si9 Sr4 3.432166 1_555
Si9 Sr0 3.446995 1_565
Si9 Sr1 3.446999 1_555
Si10 Si7 2.371892 1_555
Si10 Si5 2.371896 1_555
Si10 Sr4 3.292179 1_555
Si10 Sr5 3.292186 1_555
Si10 Sr7 3.432162 1_455
Si10 Sr6 3.432167 1_554
Si10 Sr2 3.446996 1_565
Si10 Sr3 3.447010 1_555
Si11 Si4 2.376271 1_555
Si11 Si6 2.376274 1_555
Si11 Sr3 3.327252 1_556
Si11 Sr2 3.327261 1_655
Si11 Sr7 3.350372 1_545
Si11 Sr6 3.350385 1_555
Si11 Sr5 3.369392 1_555
Si11 Sr4 3.369399 1_555
Pd0 Si8 2.351910 1_454
Pd0 Si0 2.359680 1_455
Pd0 Si2 2.359684 1_554
Pd0 Sr2 3.347279 1_555
Pd0 Sr3 3.347285 1_555
Pd0 Sr4 3.348281 1_455
Pd0 Sr5 3.348285 1_554
Pd0 Sr0 3.355926 1_554
Pd0 Sr1 3.355948 1_455
Pd1 Si11 2.351917 1_555
Pd1 Si7 2.359684 1_645
Pd1 Si5 2.359688 1_556
Pd1 Sr1 3.347277 1_546
Pd1 Sr0 3.347297 1_655
Pd1 Sr7 3.348272 1_545
Pd1 Sr6 3.348286 1_555
Pd1 Sr3 3.355935 1_556
Pd1 Sr2 3.355944 1_655
