# generated using pymatgen
data_RbScP2Se7
_symmetry_space_group_name_H-M   'P 1'
_cell_length_a   6.97052239
_cell_length_b   6.97052164
_cell_length_c   7.11347889
_cell_angle_alpha   82.04776125
_cell_angle_beta   82.04776110
_cell_angle_gamma   97.07113004
_symmetry_Int_Tables_number   1
_chemical_formula_structural   RbScP2Se7
_chemical_formula_sum   'Rb1 Sc1 P2 Se7'
_cell_volume   335.43189308
_cell_formula_units_Z   1
loop_
 _symmetry_equiv_pos_site_id
 _symmetry_equiv_pos_as_xyz
  1  'x, y, z'
loop_
 _atom_site_type_symbol
 _atom_site_label
 _atom_site_symmetry_multiplicity
 _atom_site_fract_x
 _atom_site_fract_y
 _atom_site_fract_z
 _atom_site_occupancy
  Rb  Rb0  1  0.00997449  0.99002551  0.50000000  1
  Sc  Sc0  1  0.51250752  0.48749248  1.00000000  1
  P  P0  1  0.65830444  0.93274623  0.08354717  1
  P  P1  1  0.06725377  0.34169556  0.91645283  1
  Se  Se0  1  0.99430972  0.00569028  1.00000000  1
  Se  Se1  1  0.84943154  0.45967815  0.75874510  1
  Se  Se2  1  0.64105143  0.66062044  0.28265911  1
  Se  Se3  1  0.33937956  0.35894857  0.71734089  1
  Se  Se4  1  0.13232890  0.46496122  0.16949697  1
  Se  Se5  1  0.53503878  0.86767110  0.83050303  1
  Se  Se6  1  0.54032185  0.15056846  0.24125490  1
loop_
_geom_bond_atom_site_label_1
_geom_bond_atom_site_label_2
_geom_bond_distance
_geom_bond_site_symmetry_2
Rb0 Se0 3.560502 1_465
Rb0 Se0 3.560502 1_464
Rb0 Se4 3.716306 1_565
Rb0 Se5 3.716306 1_455
Rb0 Se1 3.851649 1_455
Rb0 Se6 3.851649 1_565
Rb0 Se3 3.860583 1_565
Rb0 Se2 3.860583 1_455
Sc0 Se2 2.684351 1_556
Sc0 Se3 2.684351 1_555
Sc0 Se5 2.731699 1_555
Sc0 Se4 2.731699 1_556
Sc0 Se6 2.754520 1_556
Sc0 Se1 2.754520 1_555
P0 Se5 2.177619 1_554
P0 Se6 2.182587 1_565
P0 Se2 2.184486 1_555
P0 Se0 2.309840 1_564
P1 Se4 2.177619 1_556
P1 Se1 2.182587 1_455
P1 Se3 2.184486 1_555
P1 Se0 2.309840 1_455
