# generated using pymatgen
data_RbLuSiS4
_symmetry_space_group_name_H-M   'P 1'
_cell_length_a   6.60284674
_cell_length_b   6.29676795
_cell_length_c   8.91858005
_cell_angle_alpha   71.99511047
_cell_angle_beta   90.00000000
_cell_angle_gamma   90.00000000
_symmetry_Int_Tables_number   1
_chemical_formula_structural   RbLuSiS4
_chemical_formula_sum   'Rb2 Lu2 Si2 S8'
_cell_volume   352.64595108
_cell_formula_units_Z   2
loop_
 _symmetry_equiv_pos_site_id
 _symmetry_equiv_pos_as_xyz
  1  'x, y, z'
loop_
 _atom_site_type_symbol
 _atom_site_label
 _atom_site_symmetry_multiplicity
 _atom_site_fract_x
 _atom_site_fract_y
 _atom_site_fract_z
 _atom_site_occupancy
  Rb  Rb0  1  0.97654965  0.73310184  0.06336261  1
  Rb  Rb1  1  0.47654965  0.26689816  0.93663739  1
  Lu  Lu0  1  0.50182865  0.23040521  0.45331214  1
  Lu  Lu1  1  0.00182865  0.76959479  0.54668786  1
  Si  Si0  1  0.46236986  0.78096695  0.33416295  1
  Si  Si1  1  0.96236986  0.21903305  0.66583705  1
  S  S0  1  0.46682899  0.58200507  0.18399516  1
  S  S1  1  0.23007159  0.02550959  0.29153388  1
  S  S2  1  0.72704070  0.98175985  0.31212343  1
  S  S3  1  0.90231157  0.42963034  0.43485935  1
  S  S4  1  0.40231157  0.57036966  0.56514065  1
  S  S5  1  0.22704070  0.01824015  0.68787657  1
  S  S6  1  0.73007159  0.97449041  0.70846612  1
  S  S7  1  0.96682899  0.41799493  0.81600484  1
loop_
_geom_bond_atom_site_label_1
_geom_bond_atom_site_label_2
_geom_bond_distance
_geom_bond_site_symmetry_2
Rb0 S3 3.309879 1_555
Rb0 S7 3.393192 1_554
Rb0 S0 3.451033 1_655
Rb0 S6 3.464552 1_554
Rb0 S2 3.497901 1_555
Rb0 S1 3.556630 1_665
Rb0 S0 3.571726 1_555
Rb0 S5 3.668339 1_664
Rb1 S4 3.309879 1_555
Rb1 S0 3.393192 1_556
Rb1 S7 3.451033 1_555
Rb1 S1 3.464552 1_556
Rb1 S5 3.497901 1_555
Rb1 S6 3.556630 1_545
Rb1 S7 3.571726 1_455
Rb1 S2 3.668339 1_546
Lu0 S4 2.707183 1_555
Lu0 S0 2.727049 1_555
Lu0 S2 2.732571 1_545
Lu0 S5 2.779463 1_555
Lu0 S6 2.789160 1_545
Lu0 S1 2.849013 1_555
Lu0 S3 2.909575 1_555
Lu1 S3 2.707183 1_455
Lu1 S7 2.727049 1_455
Lu1 S5 2.732571 1_565
Lu1 S2 2.779463 1_455
Lu1 S1 2.789160 1_565
Lu1 S6 2.849013 1_455
Lu1 S4 2.909575 1_555
S0 Si0 2.097940 1_555
S1 Si0 2.122814 1_545
S2 Si0 2.130167 1_555
S3 Si1 2.114375 1_555
S4 Si0 2.114375 1_555
S5 Si1 2.130167 1_455
S6 Si1 2.122814 1_565
S7 Si1 2.097940 1_555
