# generated using pymatgen
data_NbReMoSe6
_symmetry_space_group_name_H-M   'P 1'
_cell_length_a   5.79452658
_cell_length_b   5.79574817
_cell_length_c   7.09724540
_cell_angle_alpha   82.27854463
_cell_angle_beta   82.18345453
_cell_angle_gamma   120.00303384
_symmetry_Int_Tables_number   1
_chemical_formula_structural   NbReMoSe6
_chemical_formula_sum   'Nb1 Re1 Mo1 Se6'
_cell_volume   198.72418215
_cell_formula_units_Z   1
loop_
 _symmetry_equiv_pos_site_id
 _symmetry_equiv_pos_as_xyz
  1  'x, y, z'
loop_
 _atom_site_type_symbol
 _atom_site_label
 _atom_site_symmetry_multiplicity
 _atom_site_fract_x
 _atom_site_fract_y
 _atom_site_fract_z
 _atom_site_occupancy
  Nb  Nb0  1  0.49976543  0.83340188  0.49990588  1
  Re  Re0  1  0.83330028  0.49983036  0.50007353  1
  Mo  Mo0  1  0.16697558  0.16685243  0.50003430  1
  Se  Se0  1  0.58342486  0.25711449  0.25698479  1
  Se  Se1  1  0.23716401  0.57268840  0.25684694  1
  Se  Se2  1  0.92121197  0.91082331  0.25740714  1
  Se  Se3  1  0.76014758  0.75058880  0.74273266  1
  Se  Se4  1  0.42222586  0.09662401  0.74325326  1
  Se  Se5  1  0.07568843  0.41198132  0.74306049  1
loop_
_geom_bond_atom_site_label_1
_geom_bond_atom_site_label_2
_geom_bond_distance
_geom_bond_site_symmetry_2
Nb0 Se2 2.584677 1_555
Nb0 Se0 2.585041 1_565
Nb0 Se3 2.585762 1_555
Nb0 Se1 2.586383 1_555
Nb0 Se5 2.587197 1_555
Nb0 Se4 2.587382 1_565
Re0 Se5 2.518735 1_655
Re0 Se4 2.518863 1_555
Re0 Se2 2.518951 1_555
Re0 Se0 2.519219 1_555
Re0 Se3 2.519520 1_555
Re0 Se1 2.520271 1_655
Mo0 Se5 2.536746 1_555
Mo0 Se0 2.536765 1_555
Mo0 Se2 2.536814 1_445
Mo0 Se3 2.536858 1_445
Mo0 Se1 2.537378 1_555
Mo0 Se4 2.537856 1_555
