# generated using pymatgen
data_LuMnBPt6
_symmetry_space_group_name_H-M   'P 1'
_cell_length_a   5.78381078
_cell_length_b   5.78381030
_cell_length_c   5.78381015
_cell_angle_alpha   59.99999529
_cell_angle_beta   59.99999804
_cell_angle_gamma   59.99999594
_symmetry_Int_Tables_number   1
_chemical_formula_structural   LuMnBPt6
_chemical_formula_sum   'Lu1 Mn1 B1 Pt6'
_cell_volume   136.81292012
_cell_formula_units_Z   1
loop_
 _symmetry_equiv_pos_site_id
 _symmetry_equiv_pos_as_xyz
  1  'x, y, z'
loop_
 _atom_site_type_symbol
 _atom_site_label
 _atom_site_symmetry_multiplicity
 _atom_site_fract_x
 _atom_site_fract_y
 _atom_site_fract_z
 _atom_site_occupancy
  Lu  Lu0  1  0.25000100  0.25000100  0.25000100  1
  Mn  Mn0  1  0.75000000  0.75000000  0.75000000  1
  B  B0  1  0.50000000  0.50000000  0.50000000  1
  Pt  Pt0  1  0.75690735  0.75690735  0.24309265  1
  Pt  Pt1  1  0.24309265  0.75690735  0.24309265  1
  Pt  Pt2  1  0.75690735  0.24309265  0.24309265  1
  Pt  Pt3  1  0.24309265  0.24309265  0.75690735  1
  Pt  Pt4  1  0.75690735  0.24309265  0.75690735  1
  Pt  Pt5  1  0.24309265  0.75690735  0.75690735  1
loop_
_geom_bond_atom_site_label_1
_geom_bond_atom_site_label_2
_geom_bond_distance
_geom_bond_site_symmetry_2
Lu0 Pt3 2.892446 1_555
Lu0 Pt1 2.892446 1_555
Lu0 Pt2 2.892446 1_555
Lu0 Pt5 2.892457 1_545
Lu0 Pt5 2.892457 1_554
Lu0 Pt0 2.892457 1_455
Lu0 Pt0 2.892457 1_545
Lu0 Pt4 2.892457 1_455
Lu0 Pt4 2.892457 1_554
Lu0 Pt3 2.892469 1_554
Lu0 Pt1 2.892469 1_545
Lu0 Pt2 2.892469 1_455
Mn0 Pt2 2.892457 1_565
Mn0 Pt2 2.892457 1_556
Mn0 Pt0 2.892457 1_555
Mn0 Pt0 2.892457 1_556
Mn0 Pt3 2.892457 1_655
Mn0 Pt3 2.892457 1_565
Mn0 Pt1 2.892457 1_655
Mn0 Pt4 2.892457 1_555
Mn0 Pt1 2.892457 1_556
Mn0 Pt4 2.892457 1_565
Mn0 Pt5 2.892457 1_655
Mn0 Pt5 2.892457 1_555
B0 Pt5 2.101385 1_555
B0 Pt2 2.101385 1_555
B0 Pt4 2.101385 1_555
B0 Pt1 2.101385 1_555
B0 Pt0 2.101385 1_555
B0 Pt3 2.101385 1_555
