# generated using pymatgen
data_TaHS2
_symmetry_space_group_name_H-M   'P 1'
_cell_length_a   3.33691627
_cell_length_b   3.33691539
_cell_length_c   13.52411753
_cell_angle_alpha   90.00000000
_cell_angle_beta   90.00000000
_cell_angle_gamma   119.99996939
_symmetry_Int_Tables_number   1
_chemical_formula_structural   TaHS2
_chemical_formula_sum   'Ta2 H2 S4'
_cell_volume   130.41579900
_cell_formula_units_Z   2
loop_
 _symmetry_equiv_pos_site_id
 _symmetry_equiv_pos_as_xyz
  1  'x, y, z'
loop_
 _atom_site_type_symbol
 _atom_site_label
 _atom_site_symmetry_multiplicity
 _atom_site_fract_x
 _atom_site_fract_y
 _atom_site_fract_z
 _atom_site_occupancy
  Ta  Ta0  1  0.33333300  0.66666700  0.32204306  1
  Ta  Ta1  1  0.66666700  0.33333300  0.80294791  1
  H  H0  1  0.00000000  0.00000000  0.80244618  1
  H  H1  1  0.00000000  0.00000000  0.32255124  1
  S  S0  1  0.33333300  0.66666700  0.92318663  1
  S  S1  1  0.33333300  0.66666700  0.68272730  1
  S  S2  1  0.66666700  0.33333300  0.44227815  1
  S  S3  1  0.66666700  0.33333300  0.20181952  1
loop_
_geom_bond_atom_site_label_1
_geom_bond_atom_site_label_2
_geom_bond_distance
_geom_bond_site_symmetry_2
H0 Ta1 1.926579 1_455
H0 Ta1 1.926583 1_445
H0 Ta1 1.926583 1_555
H1 Ta0 1.926579 1_545
H1 Ta0 1.926583 1_555
H1 Ta0 1.926583 1_445
S0 Ta1 2.521098 1_565
S0 Ta1 2.521099 1_455
S0 Ta1 2.521102 1_555
S1 Ta1 2.520941 1_565
S1 Ta1 2.520941 1_455
S1 Ta1 2.520944 1_555
S2 Ta0 2.521067 1_545
S2 Ta0 2.521067 1_655
S2 Ta0 2.521071 1_555
S3 Ta0 2.520966 1_545
S3 Ta0 2.520966 1_655
S3 Ta0 2.520970 1_555
