# generated using pymatgen
data_Sc3SnSb3Au4
_symmetry_space_group_name_H-M   'P 1'
_cell_length_a   7.87448236
_cell_length_b   7.87448229
_cell_length_c   7.85491339
_cell_angle_alpha   131.52106951
_cell_angle_beta   131.52107109
_cell_angle_gamma   71.18604637
_symmetry_Int_Tables_number   1
_chemical_formula_structural   Sc3SnSb3Au4
_chemical_formula_sum   'Sc3 Sn1 Sb3 Au4'
_cell_volume   267.02654999
_cell_formula_units_Z   1
loop_
 _symmetry_equiv_pos_site_id
 _symmetry_equiv_pos_as_xyz
  1  'x, y, z'
loop_
 _atom_site_type_symbol
 _atom_site_label
 _atom_site_symmetry_multiplicity
 _atom_site_fract_x
 _atom_site_fract_y
 _atom_site_fract_z
 _atom_site_occupancy
  Sc  Sc0  1  0.00036771  0.00036771  1.00000000  1
  Sc  Sc1  1  0.74862212  0.24862112  0.50000100  1
  Sc  Sc2  1  0.24862112  0.74862212  0.50000100  1
  Sn  Sn0  1  0.25934927  0.25934927  0.00000000  1
  Sb  Sb0  1  0.74436553  0.74436553  1.00000000  1
  Sb  Sb1  1  0.49918313  0.99918213  0.50000100  1
  Sb  Sb2  1  0.99918213  0.49918313  0.50000100  1
  Au  Au0  1  0.62512396  0.12234225  0.00000000  1
  Au  Au1  1  0.12234225  0.62512396  0.00000000  1
  Au  Au2  1  0.88372501  0.88372501  0.51460624  1
  Au  Au3  1  0.36911978  0.36911978  0.48539476  1
loop_
_geom_bond_atom_site_label_1
_geom_bond_atom_site_label_2
_geom_bond_distance
_geom_bond_site_symmetry_2
Sc0 Sn0 3.316676 1_556
Sc1 Sn0 3.231789 1_656
Sc1 Sn0 3.231802 1_555
Sc2 Sn0 3.231789 1_566
Sc2 Sn0 3.231802 1_555
Sb0 Sc2 3.229333 1_656
Sb0 Sc1 3.229333 1_566
Sb0 Sc2 3.229333 1_555
Sb0 Sc1 3.229333 1_555
Sb0 Sc0 3.278520 1_665
Sb1 Sc1 3.194468 1_565
Sb1 Sc2 3.208837 1_555
Sb1 Sc0 3.228903 1_665
Sb1 Sc0 3.228916 1_564
Sb2 Sc2 3.194468 1_655
Sb2 Sc1 3.208837 1_555
Sb2 Sc0 3.228903 1_665
Sb2 Sc0 3.228916 1_654
Au0 Sn0 2.730517 1_555
Au0 Sc2 2.782394 1_544
Au0 Sc1 2.782401 1_555
Au0 Sb1 2.784882 1_544
Au0 Sb2 2.784890 1_555
Au0 Sc0 2.796985 1_654
Au0 Sb0 2.817423 1_544
Au1 Sn0 2.730517 1_555
Au1 Sc1 2.782394 1_454
Au1 Sc2 2.782401 1_555
Au1 Sb2 2.784882 1_454
Au1 Sb1 2.784890 1_555
Au1 Sc0 2.796985 1_564
Au1 Sb0 2.817423 1_454
Au2 Sc0 2.735415 1_665
Au2 Sc1 2.775748 1_565
Au2 Sc2 2.775748 1_655
Au2 Sb0 2.786135 1_554
Au2 Sn0 2.788268 1_666
Au2 Sb2 2.812647 1_555
Au2 Sb1 2.812647 1_555
Au3 Sc0 2.735422 1_554
Au3 Sc2 2.775752 1_555
Au3 Sc1 2.775752 1_555
Au3 Sb0 2.786128 1_555
Au3 Sn0 2.788267 1_555
Au3 Sb1 2.812659 1_545
Au3 Sb2 2.812659 1_455
