# generated using pymatgen
data_Sm4Sb3
_symmetry_space_group_name_H-M   'P 1'
_cell_length_a   8.12342599
_cell_length_b   8.12342631
_cell_length_c   8.12342567
_cell_angle_alpha   109.47122423
_cell_angle_beta   109.47122501
_cell_angle_gamma   109.47121183
_symmetry_Int_Tables_number   1
_chemical_formula_structural   Sm4Sb3
_chemical_formula_sum   'Sm8 Sb6'
_cell_volume   412.66325371
_cell_formula_units_Z   2
loop_
 _symmetry_equiv_pos_site_id
 _symmetry_equiv_pos_as_xyz
  1  'x, y, z'
loop_
 _atom_site_type_symbol
 _atom_site_label
 _atom_site_symmetry_multiplicity
 _atom_site_fract_x
 _atom_site_fract_y
 _atom_site_fract_z
 _atom_site_occupancy
  Sm  Sm0  1  0.35818956  0.50000000  1.00000000  1
  Sm  Sm1  1  0.64181044  0.64181044  0.64181044  1
  Sm  Sm2  1  0.50000000  0.00000000  0.35818956  1
  Sm  Sm3  1  1.00000000  0.35818956  0.50000000  1
  Sm  Sm4  1  0.50000000  0.00000000  0.85818956  1
  Sm  Sm5  1  1.00000000  0.85818956  0.50000000  1
  Sm  Sm6  1  0.85818956  0.50000000  1.00000000  1
  Sm  Sm7  1  0.14181044  0.14181044  0.14181044  1
  Sb  Sb0  1  0.75000000  0.87500000  0.12500000  1
  Sb  Sb1  1  0.62500000  0.37500000  0.25000000  1
  Sb  Sb2  1  0.87500000  0.12500000  0.75000000  1
  Sb  Sb3  1  0.12500000  0.75000000  0.87500000  1
  Sb  Sb4  1  0.37500000  0.25000000  0.62500000  1
  Sb  Sb5  1  0.25000000  0.62500000  0.37500000  1
loop_
_geom_bond_atom_site_label_1
_geom_bond_atom_site_label_2
_geom_bond_distance
_geom_bond_site_symmetry_2
Sb0 Sm5 3.124214 1_555
Sb0 Sm4 3.124214 1_564
Sb0 Sm7 3.124215 1_665
Sb0 Sm0 3.124215 1_554
Sb0 Sm1 3.376533 1_554
Sb0 Sm2 3.376534 1_565
Sb0 Sm6 3.376534 1_554
Sb0 Sm3 3.376534 1_565
Sb1 Sm1 3.124214 1_555
Sb1 Sm3 3.124214 1_555
Sb1 Sm0 3.124214 1_554
Sb1 Sm4 3.124214 1_554
Sb1 Sm6 3.376534 1_554
Sb1 Sm7 3.376534 1_555
Sb1 Sm2 3.376534 1_555
Sb1 Sm5 3.376534 1_555
Sb2 Sm7 3.124214 1_656
Sb2 Sm2 3.124214 1_555
Sb2 Sm5 3.124214 1_545
Sb2 Sm6 3.124214 1_555
Sb2 Sm3 3.376534 1_555
Sb2 Sm4 3.376534 1_555
Sb2 Sm0 3.376534 1_655
Sb2 Sm1 3.376534 1_545
Sb3 Sm3 3.124214 1_455
Sb3 Sm7 3.124214 1_566
Sb3 Sm6 3.124215 1_455
Sb3 Sm4 3.124215 1_565
Sb3 Sm2 3.376533 1_566
Sb3 Sm5 3.376534 1_455
Sb3 Sm0 3.376534 1_555
Sb3 Sm1 3.376534 1_455
Sb4 Sm0 3.124214 1_555
Sb4 Sm2 3.124214 1_555
Sb4 Sm5 3.124215 1_445
Sb4 Sm1 3.124215 1_555
Sb4 Sm7 3.376533 1_555
Sb4 Sm3 3.376534 1_455
Sb4 Sm6 3.376534 1_555
Sb4 Sm4 3.376534 1_555
Sb5 Sm6 3.124214 1_454
Sb5 Sm1 3.124214 1_555
Sb5 Sm3 3.124215 1_455
Sb5 Sm2 3.124215 1_565
Sb5 Sm4 3.376534 1_565
Sb5 Sm0 3.376534 1_554
Sb5 Sm5 3.376534 1_455
Sb5 Sm7 3.376534 1_555
