# generated using pymatgen
data_TaCu2AgSe4
_symmetry_space_group_name_H-M   'P 1'
_cell_length_a   6.13737570
_cell_length_b   5.70859736
_cell_length_c   5.70859736
_cell_angle_alpha   90.00000000
_cell_angle_beta   90.00000000
_cell_angle_gamma   90.00000000
_symmetry_Int_Tables_number   1
_chemical_formula_structural   TaCu2AgSe4
_chemical_formula_sum   'Ta1 Cu2 Ag1 Se4'
_cell_volume   200.00531379
_cell_formula_units_Z   1
loop_
 _symmetry_equiv_pos_site_id
 _symmetry_equiv_pos_as_xyz
  1  'x, y, z'
loop_
 _atom_site_type_symbol
 _atom_site_label
 _atom_site_symmetry_multiplicity
 _atom_site_fract_x
 _atom_site_fract_y
 _atom_site_fract_z
 _atom_site_occupancy
  Ta  Ta0  1  0.00000000  0.00000000  0.00000000  1
  Cu  Cu0  1  0.00000000  0.00000000  0.50000000  1
  Cu  Cu1  1  0.00000000  0.50000000  0.00000000  1
  Ag  Ag0  1  0.50000000  0.00000000  0.00000000  1
  Se  Se0  1  0.22191711  0.25255214  0.25255214  1
  Se  Se1  1  0.77808289  0.74744786  0.25255214  1
  Se  Se2  1  0.77808289  0.25255214  0.74744786  1
  Se  Se3  1  0.22191711  0.74744786  0.74744786  1
loop_
_geom_bond_atom_site_label_1
_geom_bond_atom_site_label_2
_geom_bond_distance
_geom_bond_site_symmetry_2
Cu0 Se3 2.434943 1_545
Cu0 Se2 2.434943 1_455
Cu0 Se0 2.434943 1_555
Cu0 Se1 2.434943 1_445
Cu1 Se3 2.434943 1_554
Cu1 Se1 2.434943 1_455
Cu1 Se0 2.434943 1_555
Cu1 Se2 2.434943 1_454
Ag0 Se1 2.658933 1_545
Ag0 Se2 2.658933 1_554
Ag0 Se0 2.658933 1_555
Ag0 Se3 2.658933 1_544
Se0 Ta0 2.451962 1_555
Se1 Ta0 2.451962 1_665
Se2 Ta0 2.451962 1_656
Se3 Ta0 2.451962 1_566
