# generated using pymatgen
data_Hf4AlSi5Ir7
_symmetry_space_group_name_H-M   'P 1'
_cell_length_a   6.97626206
_cell_length_b   6.97626239
_cell_length_c   6.97626092
_cell_angle_alpha   108.75983962
_cell_angle_beta   109.82806841
_cell_angle_gamma   109.82807824
_symmetry_Int_Tables_number   1
_chemical_formula_structural   Hf4AlSi5Ir7
_chemical_formula_sum   'Hf4 Al1 Si5 Ir7'
_cell_volume   261.33424741
_cell_formula_units_Z   1
loop_
 _symmetry_equiv_pos_site_id
 _symmetry_equiv_pos_as_xyz
  1  'x, y, z'
loop_
 _atom_site_type_symbol
 _atom_site_label
 _atom_site_symmetry_multiplicity
 _atom_site_fract_x
 _atom_site_fract_y
 _atom_site_fract_z
 _atom_site_occupancy
  Hf  Hf0  1  0.53128018  0.52895985  0.52895985  1
  Hf  Hf1  1  1.00000000  0.99767966  0.52895985  1
  Hf  Hf2  1  1.00000000  0.52895985  0.99767966  1
  Hf  Hf3  1  0.46871982  0.99767966  0.99767966  1
  Al  Al0  1  1.00000000  0.29943931  0.29943931  1
  Si  Si0  1  0.31840559  0.00819879  0.32660438  1
  Si  Si1  1  0.31840559  0.32660438  0.00819879  1
  Si  Si2  1  0.00000000  0.65759526  0.65759526  1
  Si  Si3  1  0.68159441  0.00819879  0.68979320  1
  Si  Si4  1  0.68159441  0.68979320  0.00819879  1
  Ir  Ir0  1  0.50000000  0.75052370  0.25052370  1
  Ir  Ir1  1  0.25311709  0.49728490  0.75040198  1
  Ir  Ir2  1  0.74688291  0.24416781  0.49728490  1
  Ir  Ir3  1  0.74688291  0.49728490  0.24416781  1
  Ir  Ir4  1  0.50000000  0.25052370  0.75052370  1
  Ir  Ir5  1  0.25311709  0.75040198  0.49728490  1
  Ir  Ir6  1  0.00000000  0.96670126  0.96670126  1
loop_
_geom_bond_atom_site_label_1
_geom_bond_atom_site_label_2
_geom_bond_distance
_geom_bond_site_symmetry_2
Hf0 Si2 2.793491 1_655
Hf0 Si4 2.819006 1_556
Hf0 Si3 2.819006 1_565
Hf0 Ir0 2.842936 1_555
Hf0 Ir4 2.842936 1_555
Hf0 Ir1 2.857171 1_555
Hf0 Ir5 2.857171 1_555
Hf0 Ir3 2.868592 1_555
Hf0 Ir2 2.868593 1_555
Hf0 Si1 3.002609 1_555
Hf0 Si0 3.002610 1_555
Hf0 Ir6 3.129998 1_655
Hf1 Si2 2.793491 1_655
Hf1 Si3 2.819006 1_565
Hf1 Si1 2.819006 1_666
Hf1 Ir4 2.842936 1_665
Hf1 Ir0 2.842936 1_555
Hf1 Ir2 2.857171 1_565
Hf1 Ir1 2.857171 1_665
Hf1 Ir5 2.868593 1_655
Hf1 Ir3 2.868593 1_555
Hf1 Si0 3.002609 1_665
Hf1 Si4 3.002609 1_555
Hf1 Ir6 3.129997 1_655
Hf2 Si2 2.793491 1_655
Hf2 Si4 2.819006 1_556
Hf2 Si0 2.819006 1_666
Hf2 Ir0 2.842936 1_656
Hf2 Ir4 2.842936 1_555
Hf2 Ir3 2.857171 1_556
Hf2 Ir5 2.857171 1_656
Hf2 Ir1 2.868593 1_655
Hf2 Ir2 2.868593 1_555
Hf2 Si1 3.002609 1_656
Hf2 Si3 3.002610 1_555
Hf2 Ir6 3.129998 1_655
Hf3 Si2 2.793492 1_555
Hf3 Si0 2.819006 1_566
Hf3 Si1 2.819006 1_566
Hf3 Ir4 2.842936 1_565
Hf3 Ir0 2.842936 1_556
Hf3 Ir2 2.857171 1_566
Hf3 Ir3 2.857171 1_566
Hf3 Ir5 2.868593 1_555
Hf3 Ir1 2.868593 1_555
Hf3 Si3 3.002609 1_565
Hf3 Si4 3.002609 1_556
Hf3 Ir6 3.129998 1_555
Al0 Ir2 2.589515 1_555
Al0 Ir1 2.589515 1_655
Al0 Ir3 2.589515 1_555
Al0 Ir5 2.589515 1_655
Al0 Ir6 2.703849 1_644
Al0 Hf2 3.027142 1_554
Al0 Hf1 3.027142 1_545
Al0 Hf0 3.027143 1_655
Al0 Hf3 3.027143 1_544
Ir0 Si4 2.449202 1_555
Ir0 Si1 2.449202 1_555
Ir0 Si3 2.550568 1_565
Ir0 Si0 2.550568 1_565
Ir1 Si2 2.412028 1_555
Ir1 Si1 2.459532 1_556
Ir1 Si4 2.459532 1_556
Ir2 Si2 2.412028 1_655
Ir2 Si3 2.459532 1_555
Ir2 Si0 2.459532 1_555
Ir3 Si2 2.412028 1_655
Ir3 Si4 2.459532 1_555
Ir3 Si1 2.459532 1_555
Ir4 Si0 2.449202 1_555
Ir4 Si3 2.449202 1_555
Ir4 Si1 2.550568 1_556
Ir4 Si4 2.550569 1_556
Ir5 Si2 2.412028 1_555
Ir5 Si0 2.459532 1_565
Ir5 Si3 2.459532 1_565
Ir6 Si2 2.511814 1_555
Ir6 Si4 2.575774 1_456
Ir6 Si0 2.575774 1_566
Ir6 Si3 2.575774 1_465
Ir6 Si1 2.575774 1_566
