# generated using pymatgen
data_Cs2TiCdS4
_symmetry_space_group_name_H-M   'P 1'
_cell_length_a   14.29099850
_cell_length_b   12.74457282
_cell_length_c   7.75991761
_cell_angle_alpha   84.66000498
_cell_angle_beta   62.61299402
_cell_angle_gamma   32.72699847
_symmetry_Int_Tables_number   1
_chemical_formula_structural   Cs2TiCdS4
_chemical_formula_sum   'Cs4 Ti2 Cd2 S8'
_cell_volume   536.42849628
_cell_formula_units_Z   2
loop_
 _symmetry_equiv_pos_site_id
 _symmetry_equiv_pos_as_xyz
  1  'x, y, z'
loop_
 _atom_site_type_symbol
 _atom_site_label
 _atom_site_symmetry_multiplicity
 _atom_site_fract_x
 _atom_site_fract_y
 _atom_site_fract_z
 _atom_site_occupancy
  Cs  Cs0  1  0.67847503  0.67847503  0.32152497  1
  Cs  Cs1  1  0.32152497  0.32152497  0.67847503  1
  Cs  Cs2  1  0.92847503  0.92847503  0.57152497  1
  Cs  Cs3  1  0.57152497  0.57152497  0.92847503  1
  Ti  Ti0  1  0.75000000  0.75000000  0.75000000  1
  Ti  Ti1  1  0.50000000  0.50000000  0.50000000  1
  Cd  Cd0  1  0.00000000  0.00000000  0.00000000  1
  Cd  Cd1  1  0.25000000  0.25000000  0.25000000  1
  S  S0  1  0.38819776  0.00695812  0.92465493  1
  S  S1  1  0.68019119  0.92465493  0.00695812  1
  S  S2  1  0.92465493  0.68019119  0.38819776  1
  S  S3  1  0.00695812  0.38819776  0.68019119  1
  S  S4  1  0.24304188  0.86180224  0.56980881  1
  S  S5  1  0.56980881  0.32534507  0.24304188  1
  S  S6  1  0.32534507  0.56980881  0.86180224  1
  S  S7  1  0.86180224  0.24304188  0.32534507  1
loop_
_geom_bond_atom_site_label_1
_geom_bond_atom_site_label_2
_geom_bond_distance
_geom_bond_site_symmetry_2
Cs0 S3 3.633810 1_654
Cs0 S0 3.633823 1_565
Cs0 S7 3.638618 1_555
Cs0 S4 3.638620 1_555
Cs0 S1 3.801536 1_555
Cs0 S2 3.801544 1_555
Cs0 S3 3.965142 1_565
Cs0 S0 3.965145 1_654
Cs1 S1 3.633811 1_456
Cs1 S2 3.633816 1_545
Cs1 S6 3.638594 1_555
Cs1 S5 3.638601 1_555
Cs1 S3 3.801516 1_555
Cs1 S0 3.801524 1_555
Cs1 S1 3.965134 1_545
Cs1 S2 3.965147 1_456
Cs2 S5 3.633811 1_655
Cs2 S6 3.633816 1_565
Cs2 S2 3.638594 1_555
Cs2 S1 3.638601 1_556
Cs2 S4 3.801516 1_655
Cs2 S7 3.801524 1_565
Cs2 S5 3.965134 1_566
Cs2 S6 3.965147 1_654
Cs3 S4 3.633810 1_556
Cs3 S7 3.633823 1_555
Cs3 S0 3.638618 1_565
Cs3 S3 3.638620 1_655
Cs3 S5 3.801536 1_556
Cs3 S6 3.801544 1_555
Cs3 S4 3.965142 1_645
Cs3 S7 3.965145 1_466
Cd0 S7 2.538573 1_455
Cd0 S4 2.538584 1_544
Cd0 S6 2.538590 1_544
Cd0 S5 2.538592 1_455
Cd1 S0 2.538573 1_554
Cd1 S3 2.538584 1_555
Cd1 S2 2.538590 1_455
Cd1 S1 2.538592 1_545
S0 Ti0 2.277169 1_545
S1 Ti0 2.277191 1_554
S2 Ti0 2.277179 1_555
S3 Ti0 2.277174 1_455
S4 Ti1 2.277174 1_555
S5 Ti1 2.277191 1_555
S6 Ti1 2.277179 1_555
S7 Ti1 2.277169 1_555
