# generated using pymatgen
data_Nb2V(Ni10B3)2
_symmetry_space_group_name_H-M   'P 1'
_cell_length_a   7.39740748
_cell_length_b   7.39740448
_cell_length_c   7.39740609
_cell_angle_alpha   60.00000873
_cell_angle_beta   60.00000618
_cell_angle_gamma   60.00001706
_symmetry_Int_Tables_number   1
_chemical_formula_structural   Nb2V(Ni10B3)2
_chemical_formula_sum   'Nb2 V1 Ni20 B6'
_cell_volume   286.23548676
_cell_formula_units_Z   1
loop_
 _symmetry_equiv_pos_site_id
 _symmetry_equiv_pos_as_xyz
  1  'x, y, z'
loop_
 _atom_site_type_symbol
 _atom_site_label
 _atom_site_symmetry_multiplicity
 _atom_site_fract_x
 _atom_site_fract_y
 _atom_site_fract_z
 _atom_site_occupancy
  Nb  Nb0  1  0.24999900  0.25000200  0.25000100  1
  Nb  Nb1  1  0.75000100  0.74999800  0.74999900  1
  V  V0  1  0.00000000  0.00000000  0.00000000  1
  Ni  Ni0  1  0.34068800  0.99999900  0.00000100  1
  Ni  Ni1  1  0.65931200  0.00000100  0.99999900  1
  Ni  Ni2  1  0.99999900  0.34069200  0.65930800  1
  Ni  Ni3  1  0.00000100  0.65930800  0.34069200  1
  Ni  Ni4  1  0.00000000  0.34068900  0.00000000  1
  Ni  Ni5  1  0.65931100  1.00000000  0.34068900  1
  Ni  Ni6  1  1.00000000  0.65931100  0.00000000  1
  Ni  Ni7  1  0.34068900  0.00000000  0.65931100  1
  Ni  Ni8  1  1.00000000  0.99999900  0.34068900  1
  Ni  Ni9  1  0.00000000  0.00000100  0.65931100  1
  Ni  Ni10  1  0.65931000  0.34069000  0.99999900  1
  Ni  Ni11  1  0.34069000  0.65931000  0.00000100  1
  Ni  Ni12  1  0.38447778  0.38447878  0.38447778  1
  Ni  Ni13  1  0.61552222  0.61552122  0.61552222  1
  Ni  Ni14  1  0.38447878  0.38447878  0.84656766  1
  Ni  Ni15  1  0.38447778  0.84656766  0.38447878  1
  Ni  Ni16  1  0.61552122  0.61552122  0.15343234  1
  Ni  Ni17  1  0.61552222  0.15343234  0.61552122  1
  Ni  Ni18  1  0.84656766  0.38447878  0.38447878  1
  Ni  Ni19  1  0.15343234  0.61552122  0.61552122  1
  B  B0  1  0.73276792  0.26723208  0.26723108  1
  B  B1  1  0.26723208  0.73276792  0.73276892  1
  B  B2  1  0.26723008  0.73276692  0.26723208  1
  B  B3  1  0.73276992  0.26723308  0.73276792  1
  B  B4  1  0.26723008  0.26723208  0.73276692  1
  B  B5  1  0.73276992  0.73276792  0.26723308  1
loop_
_geom_bond_atom_site_label_1
_geom_bond_atom_site_label_2
_geom_bond_distance
_geom_bond_site_symmetry_2
Nb0 Ni18 2.436709 1_455
Nb0 Ni12 2.436714 1_555
Nb0 Ni14 2.436720 1_554
Nb0 Ni15 2.436726 1_545
Nb1 Ni19 2.436709 1_655
Nb1 Ni13 2.436714 1_555
Nb1 Ni16 2.436720 1_556
Nb1 Ni17 2.436726 1_565
Ni0 V0 2.520208 1_565
Ni1 V0 2.520208 1_656
Ni2 V0 2.520237 1_656
Ni3 V0 2.520237 1_565
Ni4 V0 2.520214 1_555
Ni5 V0 2.520215 1_665
Ni6 V0 2.520214 1_665
Ni7 V0 2.520215 1_556
Ni8 V0 2.520211 1_665
Ni9 V0 2.520211 1_556
Ni10 V0 2.520223 1_656
Ni11 V0 2.520223 1_565
B0 Ni5 2.050145 1_545
B0 Ni4 2.050146 1_655
B0 Ni10 2.050150 1_554
B0 Ni8 2.050153 1_545
B0 Ni16 2.103703 1_555
B0 Ni17 2.103709 1_555
B0 Ni12 2.103710 1_555
B0 Ni18 2.103733 1_555
B1 Ni7 2.050145 1_565
B1 Ni6 2.050146 1_456
B1 Ni11 2.050150 1_556
B1 Ni9 2.050153 1_565
B1 Ni14 2.103703 1_555
B1 Ni15 2.103709 1_555
B1 Ni13 2.103710 1_555
B1 Ni19 2.103733 1_555
B2 Ni3 2.050128 1_555
B2 Ni11 2.050133 1_555
B2 Ni8 2.050143 1_455
B2 Ni0 2.050147 1_555
B2 Ni12 2.103697 1_555
B2 Ni19 2.103703 1_555
B2 Ni16 2.103716 1_555
B2 Ni15 2.103739 1_555
B3 Ni2 2.050128 1_555
B3 Ni10 2.050133 1_555
B3 Ni9 2.050143 1_655
B3 Ni1 2.050147 1_555
B3 Ni13 2.103697 1_555
B3 Ni18 2.103703 1_555
B3 Ni14 2.103716 1_555
B3 Ni17 2.103739 1_555
B4 Ni7 2.050138 1_555
B4 Ni2 2.050143 1_455
B4 Ni4 2.050148 1_556
B4 Ni0 2.050162 1_546
B4 Ni19 2.103703 1_555
B4 Ni12 2.103703 1_555
B4 Ni17 2.103722 1_555
B4 Ni14 2.103745 1_555
B5 Ni5 2.050138 1_555
B5 Ni3 2.050143 1_655
B5 Ni6 2.050148 1_555
B5 Ni1 2.050162 1_564
B5 Ni18 2.103703 1_555
B5 Ni13 2.103703 1_555
B5 Ni15 2.103722 1_555
B5 Ni16 2.103745 1_555
