# generated using pymatgen
data_ScAl3V2Ga
_symmetry_space_group_name_H-M   'P 1'
_cell_length_a   5.30429326
_cell_length_b   5.30429305
_cell_length_c   5.28082840
_cell_angle_alpha   103.53827339
_cell_angle_beta   103.53827778
_cell_angle_gamma   122.26807715
_symmetry_Int_Tables_number   1
_chemical_formula_structural   ScAl3V2Ga
_chemical_formula_sum   'Sc1 Al3 V2 Ga1'
_cell_volume   109.87366416
_cell_formula_units_Z   1
loop_
 _symmetry_equiv_pos_site_id
 _symmetry_equiv_pos_as_xyz
  1  'x, y, z'
loop_
 _atom_site_type_symbol
 _atom_site_label
 _atom_site_symmetry_multiplicity
 _atom_site_fract_x
 _atom_site_fract_y
 _atom_site_fract_z
 _atom_site_occupancy
  Sc  Sc0  1  0.00277949  0.99722051  0.00000000  1
  Al  Al0  1  0.30260579  0.30402639  0.60663219  1
  Al  Al1  1  0.69597361  0.69739421  0.39336781  1
  Al  Al2  1  0.70049855  0.29950145  0.00000000  1
  V  V0  1  0.24880591  0.75119409  0.50000000  1
  V  V1  1  0.74880591  0.25119409  0.50000000  1
  Ga  Ga0  1  0.30052975  0.69947025  0.00000000  1
loop_
_geom_bond_atom_site_label_1
_geom_bond_atom_site_label_2
_geom_bond_distance
_geom_bond_site_symmetry_2
Al0 Ga0 2.590443 1_556
Al0 Al2 2.606710 1_556
Al0 V0 2.693613 1_545
Al0 V1 2.693613 1_555
Al0 V0 2.701353 1_555
Al0 V1 2.701354 1_455
Al0 Al1 2.743605 1_555
Al0 Al1 2.743605 1_445
Al0 Sc0 2.801876 1_545
Al0 Sc0 3.139880 1_546
Al0 Sc0 3.139881 1_656
Al1 Ga0 2.590443 1_555
Al1 Al2 2.606710 1_555
Al1 V1 2.693613 1_555
Al1 V0 2.693613 1_655
Al1 V1 2.701353 1_565
Al1 V0 2.701354 1_555
Al1 Sc0 2.801876 1_656
Al1 Sc0 3.139880 1_655
Al1 Sc0 3.139881 1_545
Al2 V1 2.678284 1_555
Al2 V1 2.678284 1_554
Al2 V0 2.678285 1_655
Al2 V0 2.678285 1_544
Al2 Ga0 2.724136 1_545
Al2 Ga0 2.724136 1_655
Al2 Sc0 2.808337 1_645
Al2 Sc0 3.151423 1_655
Al2 Sc0 3.151424 1_545
V0 V1 2.560712 1_455
V0 V1 2.560712 1_565
Ga0 V0 2.683786 1_554
Ga0 V0 2.683786 1_555
Ga0 V1 2.683786 1_454
Ga0 V1 2.683786 1_565
Ga0 Sc0 2.766244 1_555
Ga0 Sc0 3.176142 1_545
Ga0 Sc0 3.176143 1_655
