# generated using pymatgen
data_Rb4MnHgTe4
_symmetry_space_group_name_H-M   'P 1'
_cell_length_a   9.09133131
_cell_length_b   9.09122593
_cell_length_c   9.09121030
_cell_angle_alpha   132.94369256
_cell_angle_beta   130.02366551
_cell_angle_gamma   71.07099576
_symmetry_Int_Tables_number   1
_chemical_formula_structural   Rb4MnHgTe4
_chemical_formula_sum   'Rb4 Mn1 Hg1 Te4'
_cell_volume   412.45029635
_cell_formula_units_Z   1
loop_
 _symmetry_equiv_pos_site_id
 _symmetry_equiv_pos_as_xyz
  1  'x, y, z'
loop_
 _atom_site_type_symbol
 _atom_site_label
 _atom_site_symmetry_multiplicity
 _atom_site_fract_x
 _atom_site_fract_y
 _atom_site_fract_z
 _atom_site_occupancy
  Rb  Rb0  1  0.46117602  0.13523726  0.31329745  1
  Rb  Rb1  1  0.82194024  0.64787812  0.18670199  1
  Rb  Rb2  1  0.53882330  0.85211926  0.67406047  1
  Rb  Rb3  1  0.17805854  0.36476064  0.82593680  1
  Mn  Mn0  1  0.00000076  0.25000025  0.24999606  1
  Hg  Hg0  1  0.99999943  0.74999994  0.75000075  1
  Te  Te0  1  0.08816586  0.90423057  0.20641057  1
  Te  Te1  1  0.91183232  0.11823803  0.81605662  1
  Te  Te2  1  0.30217240  0.59577387  0.68393934  1
  Te  Te3  1  0.69783113  0.38176207  0.29359994  1
loop_
_geom_bond_atom_site_label_1
_geom_bond_atom_site_label_2
_geom_bond_distance
_geom_bond_site_symmetry_2
Rb0 Te3 3.722227 1_555
Rb0 Te2 3.753509 1_555
Rb0 Te1 3.763860 1_555
Rb0 Te0 3.802146 1_545
Rb0 Te2 3.821821 1_544
Rb0 Te1 3.989013 1_454
Rb1 Te0 3.722177 1_655
Rb1 Te1 3.753477 1_554
Rb1 Te2 3.763937 1_554
Rb1 Te3 3.802066 1_555
Rb1 Te1 3.821804 1_565
Rb1 Te2 3.988950 1_655
Rb2 Te2 3.722211 1_555
Rb2 Te3 3.753521 1_566
Rb2 Te0 3.763876 1_555
Rb2 Te1 3.802156 1_565
Rb2 Te3 3.821825 1_555
Rb2 Te0 3.989005 1_656
Rb3 Te1 3.722170 1_455
Rb3 Te0 3.753445 1_545
Rb3 Te3 3.763967 1_556
Rb3 Te2 3.802065 1_555
Rb3 Te0 3.821842 1_556
Rb3 Te3 3.988925 1_455
Mn0 Te1 2.785212 1_454
Mn0 Te3 2.785212 1_455
Mn0 Te0 2.785229 1_545
Mn0 Te2 2.785263 1_555
Mn0 Rb1 3.724872 1_455
Mn0 Rb0 3.724926 1_555
Mn0 Rb3 3.724942 1_555
Mn0 Rb2 3.725009 1_444
Hg0 Te2 2.889489 1_655
Hg0 Te1 2.889518 1_565
Hg0 Te3 2.889531 1_555
Hg0 Te0 2.889538 1_656
Hg0 Rb3 3.679928 1_655
Hg0 Rb1 3.679947 1_555
Hg0 Rb2 3.679972 1_555
Hg0 Rb0 3.680026 1_666
