# generated using pymatgen
data_Sr3Ga4O9
_symmetry_space_group_name_H-M   'P 1'
_cell_length_a   6.76482409
_cell_length_b   8.04902285
_cell_length_c   9.73890731
_cell_angle_alpha   85.14454451
_cell_angle_beta   72.61379072
_cell_angle_gamma   74.33283182
_symmetry_Int_Tables_number   1
_chemical_formula_structural   Sr3Ga4O9
_chemical_formula_sum   'Sr6 Ga8 O18'
_cell_volume   487.25188187
_cell_formula_units_Z   2
loop_
 _symmetry_equiv_pos_site_id
 _symmetry_equiv_pos_as_xyz
  1  'x, y, z'
loop_
 _atom_site_type_symbol
 _atom_site_label
 _atom_site_symmetry_multiplicity
 _atom_site_fract_x
 _atom_site_fract_y
 _atom_site_fract_z
 _atom_site_occupancy
  Sr  Sr0  1  0.81399264  0.43184811  0.32311635  1
  Sr  Sr1  1  0.18600736  0.56815189  0.67688365  1
  Sr  Sr2  1  0.68760405  0.78460957  0.03934676  1
  Sr  Sr3  1  0.31239595  0.21539043  0.96065324  1
  Sr  Sr4  1  0.05878682  0.05167919  0.68833764  1
  Sr  Sr5  1  0.94121318  0.94832081  0.31166236  1
  Ga  Ga0  1  0.25115422  0.74995942  0.94314774  1
  Ga  Ga1  1  0.74884578  0.25004058  0.05685226  1
  Ga  Ga2  1  0.66514808  0.44793064  0.76667605  1
  Ga  Ga3  1  0.33485192  0.55206936  0.23332395  1
  Ga  Ga4  1  0.39013662  0.17066664  0.30010449  1
  Ga  Ga5  1  0.60986338  0.82933336  0.69989551  1
  Ga  Ga6  1  0.56076886  0.19470100  0.58066666  1
  Ga  Ga7  1  0.43923114  0.80529900  0.41933334  1
  O  O0  1  0.58923677  0.19951668  0.38519781  1
  O  O1  1  0.41076323  0.80048332  0.61480219  1
  O  O2  1  0.78443257  0.25837195  0.86160152  1
  O  O3  1  0.21556743  0.74162805  0.13839848  1
  O  O4  1  0.56303019  0.10232110  0.11462704  1
  O  O5  1  0.43696981  0.89767890  0.88537296  1
  O  O6  1  0.69833483  0.36426976  0.58751783  1
  O  O7  1  0.30166517  0.63573024  0.41248217  1
  O  O8  1  0.24206757  0.01553130  0.39893574  1
  O  O9  1  0.75793243  0.98446870  0.60106426  1
  O  O10  1  0.70855441  0.75796751  0.29726055  1
  O  O11  1  0.29144559  0.24203249  0.70273945  1
  O  O12  1  0.98030252  0.18342124  0.12490904  1
  O  O13  1  0.01969748  0.81657876  0.87509096  1
  O  O14  1  0.37739989  0.52191067  0.87133628  1
  O  O15  1  0.62260011  0.47808933  0.12866372  1
  O  O16  1  0.79473315  0.62634387  0.73724505  1
  O  O17  1  0.20526685  0.37365613  0.26275495  1
loop_
_geom_bond_atom_site_label_1
_geom_bond_atom_site_label_2
_geom_bond_distance
_geom_bond_site_symmetry_2
Ga0 O13 1.812465 1_555
Ga0 O3 1.841690 1_556
Ga0 O5 1.892528 1_555
Ga0 O14 1.897759 1_555
Ga1 O12 1.812465 1_555
Ga1 O2 1.841690 1_554
Ga1 O4 1.892528 1_555
Ga1 O15 1.897759 1_555
Ga2 O16 1.836556 1_555
Ga2 O2 1.837341 1_555
Ga2 O6 1.852390 1_555
Ga2 O14 1.863759 1_555
Ga3 O17 1.836556 1_555
Ga3 O3 1.837341 1_555
Ga3 O7 1.852390 1_555
Ga3 O15 1.863759 1_555
Ga4 O8 1.839802 1_555
Ga4 O0 1.850223 1_555
Ga4 O17 1.852974 1_555
Ga4 O4 1.868580 1_555
Ga5 O9 1.839802 1_555
Ga5 O1 1.850223 1_555
Ga5 O16 1.852974 1_555
Ga5 O5 1.868580 1_555
Ga6 O11 1.812529 1_555
Ga6 O0 1.853357 1_555
Ga6 O6 1.863295 1_555
Ga6 O9 1.887935 1_545
Ga7 O10 1.812529 1_555
Ga7 O1 1.853357 1_555
Ga7 O7 1.863295 1_555
Ga7 O8 1.887935 1_565
O0 Sr5 2.626067 1_545
O0 Sr0 2.639923 1_555
O1 Sr4 2.626067 1_565
O1 Sr1 2.639923 1_555
O2 Sr4 2.448608 1_655
O3 Sr5 2.448608 1_455
O4 Sr3 2.531125 1_554
O4 Sr2 2.563495 1_545
O5 Sr2 2.531125 1_556
O5 Sr3 2.563495 1_565
O6 Sr0 2.515411 1_555
O7 Sr1 2.515411 1_555
O8 Sr5 2.619828 1_445
O8 Sr4 2.724190 1_555
O9 Sr4 2.619828 1_665
O9 Sr5 2.724190 1_555
O10 Sr5 2.512977 1_555
O10 Sr0 2.539037 1_555
O10 Sr2 2.545653 1_555
O11 Sr4 2.512977 1_555
O11 Sr1 2.539037 1_555
O11 Sr3 2.545653 1_555
O12 Sr3 2.401459 1_654
O12 Sr5 2.521701 1_545
O12 Sr0 2.670353 1_555
O13 Sr2 2.401459 1_456
O13 Sr4 2.521701 1_565
O13 Sr1 2.670353 1_555
O14 Sr1 2.546942 1_555
O14 Sr3 2.651622 1_555
O15 Sr0 2.546942 1_555
O15 Sr2 2.651622 1_555
O16 Sr1 2.453194 1_655
O17 Sr0 2.453194 1_455
