# generated using pymatgen
data_PrSF
_symmetry_space_group_name_H-M   'P 1'
_cell_length_a   3.98126766
_cell_length_b   3.98126766
_cell_length_c   6.96191102
_cell_angle_alpha   90.00000000
_cell_angle_beta   90.00000000
_cell_angle_gamma   90.00000000
_symmetry_Int_Tables_number   1
_chemical_formula_structural   PrSF
_chemical_formula_sum   'Pr2 S2 F2'
_cell_volume   110.34971618
_cell_formula_units_Z   2
loop_
 _symmetry_equiv_pos_site_id
 _symmetry_equiv_pos_as_xyz
  1  'x, y, z'
loop_
 _atom_site_type_symbol
 _atom_site_label
 _atom_site_symmetry_multiplicity
 _atom_site_fract_x
 _atom_site_fract_y
 _atom_site_fract_z
 _atom_site_occupancy
  Pr  Pr0  1  0.75000000  0.75000000  0.77147200  1
  Pr  Pr1  1  0.25000000  0.25000000  0.22852800  1
  S  S0  1  0.25000000  0.25000000  0.64928046  1
  S  S1  1  0.75000000  0.75000000  0.35071954  1
  F  F0  1  0.25000000  0.75000000  -0.00000000  1
  F  F1  1  0.75000000  0.25000000  -0.00000000  1
loop_
_geom_bond_atom_site_label_1
_geom_bond_atom_site_label_2
_geom_bond_distance
_geom_bond_site_symmetry_2
Pr0 S1 2.929241 1_555
Pr0 S0 2.940904 1_665
Pr0 S0 2.940904 1_565
Pr0 S0 2.940904 1_555
Pr0 S0 2.940904 1_655
Pr1 S0 2.929241 1_555
Pr1 S1 2.940904 1_555
Pr1 S1 2.940904 1_545
Pr1 S1 2.940904 1_445
Pr1 S1 2.940904 1_455
F0 Pr0 2.548309 1_454
F0 Pr1 2.548309 1_555
F0 Pr1 2.548309 1_565
F0 Pr0 2.548309 1_554
F1 Pr0 2.548309 1_544
F1 Pr1 2.548309 1_555
F1 Pr1 2.548309 1_655
F1 Pr0 2.548309 1_554
