# generated using pymatgen
data_Na2SrHgSb2
_symmetry_space_group_name_H-M   'P 1'
_cell_length_a   4.76953674
_cell_length_b   8.13583489
_cell_length_c   9.13530867
_cell_angle_alpha   90.00000000
_cell_angle_beta   90.00000000
_cell_angle_gamma   90.00000000
_symmetry_Int_Tables_number   1
_chemical_formula_structural   Na2SrHgSb2
_chemical_formula_sum   'Na4 Sr2 Hg2 Sb4'
_cell_volume   354.48801024
_cell_formula_units_Z   2
loop_
 _symmetry_equiv_pos_site_id
 _symmetry_equiv_pos_as_xyz
  1  'x, y, z'
loop_
 _atom_site_type_symbol
 _atom_site_label
 _atom_site_symmetry_multiplicity
 _atom_site_fract_x
 _atom_site_fract_y
 _atom_site_fract_z
 _atom_site_occupancy
  Na  Na0  1  0.50000000  0.03278748  0.41896557  1
  Na  Na1  1  0.00000000  0.36217555  0.33189169  1
  Na  Na2  1  0.50000000  0.53278748  0.58103443  1
  Na  Na3  1  0.00000000  0.86217555  0.66810831  1
  Sr  Sr0  1  0.00000000  0.48719769  0.94538155  1
  Sr  Sr1  1  0.00000000  0.98719769  0.05461845  1
  Hg  Hg0  1  0.50000000  0.14800118  0.81248011  1
  Hg  Hg1  1  0.50000000  0.64800118  0.18751989  1
  Sb  Sb0  1  0.00000000  0.24400331  0.65320297  1
  Sb  Sb1  1  0.50000000  0.27135478  0.12837899  1
  Sb  Sb2  1  0.00000000  0.74400331  0.34679703  1
  Sb  Sb3  1  0.50000000  0.77135478  0.87162101  1
loop_
_geom_bond_atom_site_label_1
_geom_bond_atom_site_label_2
_geom_bond_distance
_geom_bond_site_symmetry_2
Na0 Sb1 3.288488 1_555
Na0 Sb2 3.412026 1_545
Na0 Sb2 3.412026 1_645
Na0 Sb0 3.635788 1_655
Na0 Sb0 3.635788 1_555
Na1 Sb0 3.088722 1_555
Na1 Sb2 3.109470 1_555
Na1 Sb1 3.112803 1_455
Na1 Sb1 3.112803 1_555
Na2 Sb3 3.288488 1_555
Na2 Sb0 3.412026 1_555
Na2 Sb0 3.412026 1_655
Na2 Sb2 3.635788 1_555
Na2 Sb2 3.635788 1_655
Na3 Sb2 3.088722 1_555
Na3 Sb0 3.109470 1_565
Na3 Sb3 3.112803 1_455
Na3 Sb3 3.112803 1_555
Hg0 Sb0 2.900746 1_655
Hg0 Sb0 2.900746 1_555
Hg0 Sb1 3.055359 1_556
Hg0 Sb3 3.111596 1_545
Hg0 Sr1 3.505948 1_646
Hg0 Sr1 3.505948 1_546
Hg0 Na3 3.582484 1_545
Hg0 Na3 3.582484 1_645
Hg0 Na0 3.715075 1_555
Hg0 Na2 3.777668 1_555
Hg0 Sr0 3.844060 1_655
Hg0 Sr0 3.844060 1_555
Hg1 Sb2 2.900746 1_555
Hg1 Sb2 2.900746 1_655
Hg1 Sb3 3.055359 1_554
Hg1 Sb1 3.111596 1_555
Hg1 Sr0 3.505948 1_654
Hg1 Sr0 3.505948 1_554
Hg1 Na1 3.582484 1_655
Hg1 Na1 3.582484 1_555
Hg1 Na2 3.715075 1_555
Hg1 Na0 3.777668 1_565
Hg1 Sr1 3.844060 1_555
Hg1 Sr1 3.844060 1_655
Sb0 Sr0 3.322519 1_555
Sb1 Sr1 3.389076 1_545
Sb1 Sr1 3.389076 1_645
Sb1 Sr0 3.400821 1_654
Sb1 Sr0 3.400821 1_554
Sb2 Sr1 3.322519 1_555
Sb3 Sr0 3.389076 1_555
Sb3 Sr0 3.389076 1_655
Sb3 Sr1 3.400821 1_556
Sb3 Sr1 3.400821 1_656
