# generated using pymatgen
data_Nb6ReSi6Tc5
_symmetry_space_group_name_H-M   'P 1'
_cell_length_a   7.53349291
_cell_length_b   7.53896615
_cell_length_c   7.53898739
_cell_angle_alpha   127.24691751
_cell_angle_beta   124.94392524
_cell_angle_gamma   79.76648884
_symmetry_Int_Tables_number   1
_chemical_formula_structural   Nb6ReSi6Tc5
_chemical_formula_sum   'Nb6 Re1 Si6 Tc5'
_cell_volume   269.85792406
_cell_formula_units_Z   1
loop_
 _symmetry_equiv_pos_site_id
 _symmetry_equiv_pos_as_xyz
  1  'x, y, z'
loop_
 _atom_site_type_symbol
 _atom_site_label
 _atom_site_symmetry_multiplicity
 _atom_site_fract_x
 _atom_site_fract_y
 _atom_site_fract_z
 _atom_site_occupancy
  Nb  Nb0  1  0.55374046  0.09476290  0.04216373  1
  Nb  Nb1  1  0.44692283  0.48853271  0.54142807  1
  Nb  Nb2  1  0.96421806  0.49892420  0.03660441  1
  Nb  Nb3  1  0.03782898  0.07497081  0.53810618  1
  Nb  Nb4  1  0.75122713  0.90992019  0.65719608  1
  Nb  Nb5  1  0.24811679  0.90507425  0.15860539  1
  Re  Re0  1  0.40466617  0.49591969  0.15339999  1
  Si  Si0  1  0.77498914  0.53166910  0.25745993  1
  Si  Si1  1  0.22521638  0.48364643  0.75480753  1
  Si  Si2  1  0.33546029  0.82686959  0.49857105  1
  Si  Si3  1  0.66502982  0.16193245  0.49105492  1
  Si  Si4  1  0.82940692  0.82554901  0.99104477  1
  Si  Si5  1  0.17101828  0.16034564  0.99711723  1
  Tc  Tc0  1  0.50073222  0.24616891  0.74699102  1
  Tc  Tc1  1  0.99919771  0.24577128  0.24554574  1
  Tc  Tc2  1  0.15845102  0.74825762  0.65441130  1
  Tc  Tc3  1  0.84000223  0.49574881  0.58784733  1
  Tc  Tc4  1  0.59377656  0.74813742  0.08984532  1
loop_
_geom_bond_atom_site_label_1
_geom_bond_atom_site_label_2
_geom_bond_distance
_geom_bond_site_symmetry_2
Nb0 Si2 2.649322 1_544
Nb0 Si4 2.655738 1_544
Nb0 Si3 2.690388 1_555
Nb0 Si5 2.692189 1_554
Nb0 Tc4 2.789596 1_545
Nb0 Tc2 2.790240 1_544
Nb0 Tc3 2.795096 1_555
Nb0 Re0 2.812988 1_555
Nb0 Tc1 2.873815 1_555
Nb0 Tc0 2.882558 1_554
Nb0 Si0 2.939702 1_555
Nb1 Si5 2.654686 1_554
Nb1 Si3 2.655557 1_555
Nb1 Si4 2.689860 1_555
Nb1 Si2 2.690984 1_555
Nb1 Tc3 2.782364 1_555
Nb1 Re0 2.790369 1_555
Nb1 Tc2 2.805696 1_555
Nb1 Tc4 2.807641 1_556
Nb1 Tc1 2.886980 1_455
Nb1 Tc0 2.889538 1_555
Nb1 Si1 2.924090 1_555
Nb2 Si2 2.634310 1_655
Nb2 Si4 2.636002 1_554
Nb2 Si0 2.638546 1_555
Nb2 Si3 2.686476 1_554
Nb2 Si5 2.688802 1_654
Nb2 Re0 2.904518 1_655
Nb2 Tc3 2.933487 1_554
Nb2 Tc1 3.029530 1_555
Nb2 Tc0 3.030586 1_554
Nb2 Tc2 3.152791 1_655
Nb2 Tc4 3.160132 1_555
Nb3 Si3 2.632347 1_455
Nb3 Si5 2.636613 1_555
Nb3 Si1 2.639098 1_555
Nb3 Si2 2.686143 1_545
Nb3 Si4 2.693329 1_444
Nb3 Tc2 2.927047 1_545
Nb3 Tc4 2.929359 1_445
Nb3 Tc0 3.025680 1_555
Nb3 Tc1 3.029342 1_455
Nb3 Re0 3.136444 1_556
Nb3 Tc3 3.153591 1_455
Nb4 Si3 2.666593 1_565
Nb4 Si5 2.667176 1_665
Nb4 Si2 2.670627 1_555
Nb4 Si4 2.681948 1_555
Nb4 Si0 2.698068 1_555
Nb4 Tc0 2.851640 1_565
Nb4 Tc3 2.855276 1_555
Nb4 Tc1 2.858083 1_566
Nb4 Re0 2.858258 1_555
Nb4 Tc4 3.094602 1_555
Nb4 Tc2 3.100262 1_655
Nb5 Si4 2.663766 1_454
Nb5 Si2 2.666261 1_555
Nb5 Si5 2.674350 1_564
Nb5 Si3 2.676676 1_565
Nb5 Si1 2.697499 1_554
Nb5 Tc4 2.856344 1_555
Nb5 Tc0 2.858579 1_565
Nb5 Tc1 2.863913 1_465
Nb5 Tc2 2.864449 1_554
Nb5 Re0 3.085626 1_555
Nb5 Tc3 3.103757 1_454
Re0 Si1 2.433164 1_554
Re0 Si0 2.444432 1_555
Re0 Si5 2.546583 1_554
Re0 Si2 2.549748 1_555
Re0 Tc0 2.920470 1_554
Re0 Tc4 2.953326 1_555
Re0 Tc3 3.030156 1_555
Si0 Tc2 2.413445 1_655
Si0 Tc4 2.419141 1_555
Si0 Tc3 2.426750 1_555
Si0 Tc1 2.480432 1_555
Si0 Tc0 2.481239 1_554
Si1 Tc2 2.416730 1_555
Si1 Tc3 2.423802 1_455
Si1 Tc4 2.429343 1_556
Si1 Tc1 2.473328 1_455
Si1 Tc0 2.491767 1_555
Si2 Tc2 2.535389 1_555
Si2 Tc0 2.571191 1_565
Si3 Tc3 2.541116 1_555
Si3 Tc4 2.545936 1_545
Si3 Tc0 2.575168 1_555
Si4 Tc4 2.540751 1_556
Si4 Tc3 2.546926 1_555
Si4 Tc1 2.573794 1_566
Si5 Tc2 2.538485 1_545
Si5 Tc1 2.572716 1_456
Tc0 Tc4 2.918878 1_556
Tc1 Tc3 2.916277 1_555
Tc1 Tc2 2.921467 1_655
Tc2 Tc3 2.952676 1_455
Tc2 Tc4 3.033380 1_556
