# generated using pymatgen
data_CsLi2TaS4
_symmetry_space_group_name_H-M   'P 1'
_cell_length_a   10.26812638
_cell_length_b   10.26812630
_cell_length_c   7.88782498
_cell_angle_alpha   90.00000000
_cell_angle_beta   90.00000000
_cell_angle_gamma   146.12743082
_symmetry_Int_Tables_number   1
_chemical_formula_structural   CsLi2TaS4
_chemical_formula_sum   'Cs2 Li4 Ta2 S8'
_cell_volume   463.51720904
_cell_formula_units_Z   2
loop_
 _symmetry_equiv_pos_site_id
 _symmetry_equiv_pos_as_xyz
  1  'x, y, z'
loop_
 _atom_site_type_symbol
 _atom_site_label
 _atom_site_symmetry_multiplicity
 _atom_site_fract_x
 _atom_site_fract_y
 _atom_site_fract_z
 _atom_site_occupancy
  Cs  Cs0  1  0.47604724  0.83944568  0.75000000  1
  Cs  Cs1  1  0.83944568  0.47604724  0.25000000  1
  Li  Li0  1  0.36471511  0.36471511  0.00000000  1
  Li  Li1  1  0.36471511  0.36471511  0.50000000  1
  Li  Li2  1  0.01099004  0.80661785  0.75000000  1
  Li  Li3  1  0.80661785  0.01099004  0.25000000  1
  Ta  Ta0  1  0.52372397  0.29379302  0.75000000  1
  Ta  Ta1  1  0.29379302  0.52372397  0.25000000  1
  S  S0  1  0.62503099  0.59348305  0.75000000  1
  S  S1  1  0.59348305  0.62503099  0.25000000  1
  S  S2  1  0.29726928  0.07114157  0.98226741  1
  S  S3  1  0.07114157  0.29726928  0.48226741  1
  S  S4  1  0.45180726  0.85622897  0.25000000  1
  S  S5  1  0.07114157  0.29726928  0.01773259  1
  S  S6  1  0.29726928  0.07114157  0.51773259  1
  S  S7  1  0.85622897  0.45180726  0.75000000  1
loop_
_geom_bond_atom_site_label_1
_geom_bond_atom_site_label_2
_geom_bond_distance
_geom_bond_site_symmetry_2
Cs0 S7 3.743749 1_565
Cs0 S7 3.779222 1_455
Cs0 S5 3.781967 1_556
Cs0 S3 3.781967 1_555
Cs0 S0 3.890306 1_555
Cs0 S4 3.964508 1_556
Cs0 S4 3.964508 1_555
Cs0 S5 4.024568 1_666
Cs0 S3 4.024568 1_665
Cs1 S4 3.743749 1_655
Cs1 S4 3.779222 1_545
Cs1 S6 3.781967 1_555
Cs1 S2 3.781967 1_554
Cs1 S1 3.890306 1_555
Cs1 S7 3.964508 1_554
Cs1 S7 3.964508 1_555
Cs1 S6 4.024568 1_665
Cs1 S2 4.024568 1_664
Li0 S2 2.473752 1_554
Li0 S5 2.473752 1_555
Li0 S1 2.474842 1_555
Li0 S0 2.474842 1_554
Li1 S6 2.473752 1_555
Li1 S3 2.473752 1_555
Li1 S1 2.474842 1_555
Li1 S0 2.474842 1_555
Li2 S0 2.468436 1_455
Li2 S2 2.473184 1_565
Li2 S6 2.473184 1_565
Li2 S7 2.486898 1_455
Li3 S1 2.468436 1_545
Li3 S3 2.473184 1_655
Li3 S5 2.473184 1_655
Li3 S4 2.486898 1_545
S0 Ta0 2.288238 1_555
S1 Ta1 2.288238 1_555
S2 Ta0 2.272124 1_555
S3 Ta1 2.272124 1_555
S4 Ta1 2.256220 1_555
S5 Ta1 2.272124 1_555
S6 Ta0 2.272124 1_555
S7 Ta0 2.256220 1_555
