# generated using pymatgen
data_LuNb(Bi3O7)2
_symmetry_space_group_name_H-M   'P 1'
_cell_length_a   6.55828687
_cell_length_b   6.80095719
_cell_length_c   7.69960671
_cell_angle_alpha   106.79915554
_cell_angle_beta   89.58273265
_cell_angle_gamma   100.22870795
_symmetry_Int_Tables_number   1
_chemical_formula_structural   LuNb(Bi3O7)2
_chemical_formula_sum   'Lu1 Nb1 Bi6 O14'
_cell_volume   323.18783185
_cell_formula_units_Z   1
loop_
 _symmetry_equiv_pos_site_id
 _symmetry_equiv_pos_as_xyz
  1  'x, y, z'
loop_
 _atom_site_type_symbol
 _atom_site_label
 _atom_site_symmetry_multiplicity
 _atom_site_fract_x
 _atom_site_fract_y
 _atom_site_fract_z
 _atom_site_occupancy
  Lu  Lu0  1  0.46017633  0.99919293  0.25012445  1
  Nb  Nb0  1  0.99862446  0.00261286  0.00342048  1
  Bi  Bi0  1  0.99804014  0.00420298  0.49765387  1
  Bi  Bi1  1  0.52364765  0.99581476  0.75085443  1
  Bi  Bi2  1  0.24918042  0.52609478  0.88237790  1
  Bi  Bi3  1  0.73365769  0.49064904  0.11377248  1
  Bi  Bi4  1  0.72098935  0.46629484  0.60279329  1
  Bi  Bi5  1  0.26647497  0.51349629  0.37982571  1
  O  O0  1  0.46450068  0.65971476  0.18468055  1
  O  O1  1  0.52783950  0.36246127  0.81453435  1
  O  O2  1  0.30254941  0.94337452  0.96374727  1
  O  O3  1  0.72870511  0.03833476  0.08334708  1
  O  O4  1  0.29778604  0.92507391  0.51059187  1
  O  O5  1  0.70509674  0.08887813  0.48266157  1
  O  O6  1  0.51856905  0.33886714  0.34906807  1
  O  O7  1  0.46182671  0.64773319  0.63517236  1
  O  O8  1  0.92210393  0.68547958  0.97049789  1
  O  O9  1  0.09187831  0.30444396  0.02846957  1
  O  O10  1  0.09599633  0.32946061  0.61773948  1
  O  O11  1  0.88928556  0.68234660  0.37480541  1
  O  O12  1  0.91650855  0.93296732  0.74194075  1
  O  O13  1  0.12656209  0.06250577  0.26192014  1
loop_
_geom_bond_atom_site_label_1
_geom_bond_atom_site_label_2
_geom_bond_distance
_geom_bond_site_symmetry_2
Lu0 O6 2.176329 1_565
Lu0 O3 2.195317 1_565
Lu0 O0 2.221652 1_555
Lu0 O5 2.284834 1_565
Lu0 O13 2.299961 1_565
Lu0 O2 2.341952 1_554
Lu0 O4 2.402691 1_555
Nb0 O3 1.903111 1_555
Nb0 O12 1.985370 1_544
Nb0 O9 1.987958 1_655
Nb0 O13 2.065361 1_655
Nb0 O8 2.066239 1_544
Nb0 O2 2.105652 1_644
Bi0 O13 2.106451 1_655
Bi0 O11 2.110301 1_545
Bi0 O5 2.114374 1_555
Bi0 O12 2.116256 1_545
Bi0 O10 2.117199 1_655
Bi0 O4 2.138584 1_645
Bi1 O7 2.237712 1_555
Bi1 O2 2.244182 1_555
Bi1 O4 2.262785 1_555
Bi1 O1 2.393340 1_565
Bi1 O5 2.555974 1_565
Bi1 O12 2.682780 1_555
Bi1 O3 2.816062 1_566
Bi2 O10 2.219704 1_555
Bi2 O9 2.238938 1_556
Bi2 O1 2.285513 1_555
Bi2 O0 2.570440 1_556
Bi2 O8 2.572179 1_455
Bi2 O7 2.591118 1_555
Bi2 O2 2.681678 1_555
Bi3 O8 2.177970 1_554
Bi3 O11 2.196270 1_555
Bi3 O0 2.253895 1_555
Bi3 O1 2.521274 1_554
Bi3 O6 2.619966 1_555
Bi4 O6 2.231685 1_555
Bi4 O7 2.243775 1_555
Bi4 O1 2.253651 1_555
Bi4 O5 2.447219 1_555
Bi4 O11 2.710254 1_555
Bi4 O10 2.794068 1_655
Bi5 O6 2.174646 1_555
Bi5 O7 2.219022 1_555
Bi5 O0 2.304288 1_555
Bi5 O10 2.640209 1_555
Bi5 O4 2.657215 1_555
