# generated using pymatgen
data_Na(Sn3Ir2)2
_symmetry_space_group_name_H-M   'P 1'
_cell_length_a   6.90778187
_cell_length_b   6.90778148
_cell_length_c   6.90778208
_cell_angle_alpha   119.41887420
_cell_angle_beta   119.41886848
_cell_angle_gamma   91.00952132
_symmetry_Int_Tables_number   1
_chemical_formula_structural   Na(Sn3Ir2)2
_chemical_formula_sum   'Na1 Sn6 Ir4'
_cell_volume   235.08556754
_cell_formula_units_Z   1
loop_
 _symmetry_equiv_pos_site_id
 _symmetry_equiv_pos_as_xyz
  1  'x, y, z'
loop_
 _atom_site_type_symbol
 _atom_site_label
 _atom_site_symmetry_multiplicity
 _atom_site_fract_x
 _atom_site_fract_y
 _atom_site_fract_z
 _atom_site_occupancy
  Na  Na0  1  0.00000000  0.00000000  0.00000000  1
  Sn  Sn0  1  0.87431918  0.54183522  0.00000000  1
  Sn  Sn1  1  0.54183522  0.87431918  1.00000000  1
  Sn  Sn2  1  0.12568082  0.12568082  0.66751604  1
  Sn  Sn3  1  0.00000000  0.50000000  0.50000000  1
  Sn  Sn4  1  0.45816478  0.45816478  0.33248396  1
  Sn  Sn5  1  0.50000000  0.00000000  0.50000000  1
  Ir  Ir0  1  0.24416481  0.59744639  0.00000000  1
  Ir  Ir1  1  0.40255361  0.40255361  0.64671842  1
  Ir  Ir2  1  0.59744639  0.24416481  0.00000000  1
  Ir  Ir3  1  0.75583519  0.75583519  0.35328158  1
loop_
_geom_bond_atom_site_label_1
_geom_bond_atom_site_label_2
_geom_bond_distance
_geom_bond_site_symmetry_2
Na0 Sn0 3.267034 1_445
Na0 Sn2 3.267035 1_554
Na0 Sn1 3.267035 1_444
Na0 Sn4 3.267035 1_555
Na0 Sn3 3.484184 1_555
Na0 Sn3 3.484184 1_544
Na0 Sn5 3.484185 1_555
Na0 Sn5 3.484185 1_454
Sn0 Sn1 3.276550 1_554
Sn0 Sn5 3.287893 1_554
Sn0 Sn3 3.287893 1_655
Sn1 Sn5 3.287893 1_566
Sn1 Sn3 3.287894 1_555
Sn2 Sn4 3.276551 1_556
Sn2 Sn3 3.287893 1_555
Sn2 Sn5 3.287893 1_555
Sn3 Sn4 3.287893 1_455
Sn4 Sn5 3.287893 1_565
Ir0 Sn0 2.576831 1_455
Ir0 Sn5 2.679628 1_565
Ir0 Sn3 2.679629 1_554
Ir0 Sn2 2.696569 1_554
Ir0 Sn4 2.696569 1_555
Ir0 Sn1 2.783434 1_554
Ir0 Ir1 2.900420 1_554
Ir0 Ir3 2.900420 1_555
Ir0 Na0 3.277590 1_565
Ir1 Sn4 2.576831 1_555
Ir1 Sn5 2.679628 1_555
Ir1 Sn3 2.679628 1_555
Ir1 Sn1 2.696569 1_555
Ir1 Sn0 2.696569 1_556
Ir1 Sn2 2.783434 1_555
Ir1 Ir2 2.900420 1_556
Ir1 Na0 3.277590 1_555
Ir2 Sn1 2.576831 1_544
Ir2 Sn5 2.679628 1_554
Ir2 Sn3 2.679629 1_655
Ir2 Sn4 2.696569 1_555
Ir2 Sn2 2.696569 1_554
Ir2 Sn0 2.783434 1_555
Ir2 Ir3 2.900420 1_555
Ir2 Na0 3.277590 1_655
Ir3 Sn2 2.576831 1_665
Ir3 Sn5 2.679628 1_565
Ir3 Sn3 2.679628 1_655
Ir3 Sn0 2.696569 1_555
Ir3 Sn1 2.696569 1_554
Ir3 Sn4 2.783434 1_555
Ir3 Na0 3.277590 1_666
