# generated using pymatgen
data_Li2CrP4O13
_symmetry_space_group_name_H-M   'P 1'
_cell_length_a   5.05861300
_cell_length_b   7.95872970
_cell_length_c   13.33154505
_cell_angle_alpha   78.40176298
_cell_angle_beta   87.43009225
_cell_angle_gamma   81.95986178
_symmetry_Int_Tables_number   1
_chemical_formula_structural   Li2CrP4O13
_chemical_formula_sum   'Li4 Cr2 P8 O26'
_cell_volume   520.52504196
_cell_formula_units_Z   2
loop_
 _symmetry_equiv_pos_site_id
 _symmetry_equiv_pos_as_xyz
  1  'x, y, z'
loop_
 _atom_site_type_symbol
 _atom_site_label
 _atom_site_symmetry_multiplicity
 _atom_site_fract_x
 _atom_site_fract_y
 _atom_site_fract_z
 _atom_site_occupancy
  Li  Li0  1  0.59379900  0.69589900  0.01580100  1
  Li  Li1  1  0.07276200  0.32392100  0.51811300  1
  Li  Li2  1  0.40620100  0.30410100  0.98419900  1
  Li  Li3  1  0.92723800  0.67607900  0.48188700  1
  Cr  Cr0  1  0.45019500  0.04822200  0.75685700  1
  Cr  Cr1  1  0.54980500  0.95177800  0.24314300  1
  P  P0  1  0.99356200  0.89448100  0.65017600  1
  P  P1  1  0.32115900  0.65714900  0.80415700  1
  P  P2  1  0.64811500  0.42621700  0.67677800  1
  P  P3  1  0.00643800  0.10551900  0.34982400  1
  P  P4  1  0.90424800  0.19896500  0.86064800  1
  P  P5  1  0.67884100  0.34285100  0.19584300  1
  P  P6  1  0.35188500  0.57378300  0.32322200  1
  P  P7  1  0.09575200  0.80103500  0.13935200  1
  O  O0  1  0.74548300  0.05608400  0.83916000  1
  O  O1  1  0.04219200  0.73765600  0.75116600  1
  O  O2  1  0.28519200  0.51060800  0.88940000  1
  O  O3  1  0.87259100  0.35655000  0.76150200  1
  O  O4  1  0.30106200  0.03094800  0.34511900  1
  O  O5  1  0.79517300  0.86637800  0.13605900  1
  O  O6  1  0.49681700  0.59819800  0.70905900  1
  O  O7  1  0.06966200  0.82140200  0.55685000  1
  O  O8  1  0.20482700  0.13362200  0.86394100  1
  O  O9  1  0.20891100  0.73858100  0.04584000  1
  O  O10  1  0.79108900  0.26141900  0.95416000  1
  O  O11  1  0.50318300  0.40180200  0.29094100  1
  O  O12  1  0.54958900  0.19611000  0.16780000  1
  O  O13  1  0.83620700  0.96436700  0.33225900  1
  O  O14  1  0.45427900  0.29448800  0.68262200  1
  O  O15  1  0.21199700  0.52051300  0.42359900  1
  O  O16  1  0.93033800  0.17859800  0.44315000  1
  O  O17  1  0.69893800  0.96905200  0.65488100  1
  O  O18  1  0.78800300  0.47948700  0.57640100  1
  O  O19  1  0.54572100  0.70551200  0.31737800  1
  O  O20  1  0.12740900  0.64345000  0.23849800  1
  O  O21  1  0.16379300  0.03563300  0.66774100  1
  O  O22  1  0.45041100  0.80389000  0.83220000  1
  O  O23  1  0.25451700  0.94391600  0.16084000  1
  O  O24  1  0.95780800  0.26234400  0.24883400  1
  O  O25  1  0.71480800  0.48939200  0.11060000  1
loop_
_geom_bond_atom_site_label_1
_geom_bond_atom_site_label_2
_geom_bond_distance
_geom_bond_site_symmetry_2
Li0 O25 1.904177 1_555
Li0 O9 1.966301 1_555
Li0 O22 2.528815 1_554
Li0 O5 2.618523 1_555
Li1 O16 1.902089 1_455
Li1 O15 1.991922 1_555
Li1 O18 1.999830 1_455
Li2 O2 1.904177 1_555
Li2 O10 1.966301 1_555
Li2 O12 2.528815 1_556
Li2 O8 2.618523 1_555
Li3 O7 1.902089 1_655
Li3 O18 1.991922 1_555
Li3 O15 1.999830 1_655
Cr0 O0 1.907834 1_555
Cr0 O21 1.939935 1_555
Cr0 O17 1.948796 1_545
Cr0 O22 2.001097 1_545
Cr0 O8 2.008949 1_555
Cr0 O14 2.012678 1_555
Cr1 O23 1.907834 1_555
Cr1 O13 1.939935 1_555
Cr1 O4 1.948796 1_565
Cr1 O12 2.001097 1_565
Cr1 O5 2.008949 1_555
Cr1 O19 2.012678 1_555
O0 P4 1.557976 1_555
O1 P1 1.598600 1_555
O1 P0 1.642902 1_455
O2 P1 1.480760 1_555
O3 P2 1.599913 1_555
O3 P4 1.625395 1_555
O4 P3 1.528586 1_555
O5 P7 1.536211 1_655
O6 P2 1.599603 1_555
O6 P1 1.624366 1_555
O7 P0 1.489913 1_455
O8 P4 1.536211 1_455
O9 P7 1.494815 1_555
O10 P4 1.494815 1_555
O11 P6 1.599603 1_555
O11 P5 1.624366 1_555
O12 P5 1.530451 1_555
O13 P3 1.566161 1_665
O14 P2 1.521360 1_555
O15 P6 1.497366 1_555
O16 P3 1.489913 1_655
O17 P0 1.528586 1_555
O18 P2 1.497366 1_555
O19 P6 1.521360 1_555
O20 P6 1.599913 1_555
O20 P7 1.625395 1_555
O21 P0 1.566161 1_445
O22 P1 1.530451 1_555
O23 P7 1.557976 1_555
O24 P5 1.598600 1_555
O24 P3 1.642902 1_655
O25 P5 1.480760 1_555
