# generated using pymatgen
data_Rb2MnGeO4
_symmetry_space_group_name_H-M   'P 1'
_cell_length_a   5.74678768
_cell_length_b   5.71155693
_cell_length_c   10.18277764
_cell_angle_alpha   55.98955020
_cell_angle_beta   90.00000000
_cell_angle_gamma   90.00000000
_symmetry_Int_Tables_number   1
_chemical_formula_structural   Rb2MnGeO4
_chemical_formula_sum   'Rb4 Mn2 Ge2 O8'
_cell_volume   277.05545066
_cell_formula_units_Z   2
loop_
 _symmetry_equiv_pos_site_id
 _symmetry_equiv_pos_as_xyz
  1  'x, y, z'
loop_
 _atom_site_type_symbol
 _atom_site_label
 _atom_site_symmetry_multiplicity
 _atom_site_fract_x
 _atom_site_fract_y
 _atom_site_fract_z
 _atom_site_occupancy
  Rb  Rb0  1  0.24099842  0.49324000  0.99795608  1
  Rb  Rb1  1  0.74804455  0.23775206  0.25041258  1
  Rb  Rb2  1  0.75900158  0.49324000  0.49795608  1
  Rb  Rb3  1  0.25195545  0.23775206  0.75041258  1
  Mn  Mn0  1  0.77574847  0.00193026  0.99970266  1
  Mn  Mn1  1  0.22425153  0.00193026  0.49970266  1
  Ge  Ge0  1  0.28203404  0.75577145  0.25033195  1
  Ge  Ge1  1  0.71796596  0.75577145  0.75033195  1
  O  O0  1  0.74535045  0.00290173  0.80231221  1
  O  O1  1  0.25464955  0.00290173  0.30231221  1
  O  O2  1  0.22516563  0.41686861  0.42183881  1
  O  O3  1  0.77483437  0.41686861  0.92183881  1
  O  O4  1  0.10034230  0.85636995  0.08738952  1
  O  O5  1  0.42799506  0.76116595  0.69005818  1
  O  O6  1  0.57200494  0.76116595  0.19005818  1
  O  O7  1  0.89965770  0.85636995  0.58738952  1
loop_
_geom_bond_atom_site_label_1
_geom_bond_atom_site_label_2
_geom_bond_distance
_geom_bond_site_symmetry_2
Mn0 O6 2.009298 1_546
Mn0 O0 2.014474 1_555
Mn0 O4 2.034115 1_646
Mn0 O3 2.035491 1_555
Mn1 O5 2.009298 1_545
Mn1 O1 2.014474 1_555
Mn1 O7 2.034115 1_445
Mn1 O2 2.035491 1_555
Ge0 O4 1.762626 1_555
Ge0 O2 1.766882 1_555
Ge0 O1 1.770040 1_565
Ge0 O6 1.770136 1_555
Ge1 O7 1.762626 1_555
Ge1 O3 1.766882 1_555
Ge1 O0 1.770040 1_565
Ge1 O5 1.770136 1_555
O0 Rb2 2.782935 1_555
O0 Rb3 3.053722 1_555
O0 Rb3 3.124338 1_655
O1 Rb0 2.782935 1_554
O1 Rb1 3.053722 1_555
O1 Rb1 3.124338 1_455
O2 Rb2 2.888944 1_455
O2 Rb3 2.904397 1_555
O2 Rb2 3.252830 1_555
O3 Rb0 2.888944 1_655
O3 Rb1 2.904397 1_556
O3 Rb0 3.252830 1_555
O4 Rb0 2.810216 1_554
O4 Rb3 2.986083 1_564
O4 Rb0 3.317903 1_564
O5 Rb0 2.821197 1_555
O5 Rb3 2.878017 1_555
O5 Rb3 3.268359 1_565
O6 Rb2 2.821197 1_555
O6 Rb1 2.878017 1_555
O6 Rb1 3.268359 1_565
O7 Rb2 2.810216 1_555
O7 Rb1 2.986083 1_565
O7 Rb2 3.317903 1_565
