# generated using pymatgen
data_Ca2Al8SiIr3
_symmetry_space_group_name_H-M   'P 1'
_cell_length_a   7.49733523
_cell_length_b   7.49733425
_cell_length_c   9.45228716
_cell_angle_alpha   90.00000000
_cell_angle_beta   90.00000000
_cell_angle_gamma   119.55478207
_symmetry_Int_Tables_number   1
_chemical_formula_structural   Ca2Al8SiIr3
_chemical_formula_sum   'Ca4 Al16 Si2 Ir6'
_cell_volume   462.18121679
_cell_formula_units_Z   2
loop_
 _symmetry_equiv_pos_site_id
 _symmetry_equiv_pos_as_xyz
  1  'x, y, z'
loop_
 _atom_site_type_symbol
 _atom_site_label
 _atom_site_symmetry_multiplicity
 _atom_site_fract_x
 _atom_site_fract_y
 _atom_site_fract_z
 _atom_site_occupancy
  Ca  Ca0  1  0.99572030  0.67605116  0.25000000  1
  Ca  Ca1  1  0.00427970  0.32394884  0.75000000  1
  Ca  Ca2  1  0.67605116  0.99572030  0.25000000  1
  Ca  Ca3  1  0.32394884  0.00427970  0.75000000  1
  Al  Al0  1  0.00218034  0.33608794  0.07127392  1
  Al  Al1  1  0.99781966  0.66391206  0.92872608  1
  Al  Al2  1  0.99781966  0.66391206  0.57127392  1
  Al  Al3  1  0.33608794  0.00218034  0.42872608  1
  Al  Al4  1  0.00218034  0.33608794  0.42872608  1
  Al  Al5  1  0.66391206  0.99781966  0.57127392  1
  Al  Al6  1  0.66391206  0.99781966  0.92872608  1
  Al  Al7  1  0.33608794  0.00218034  0.07127392  1
  Al  Al8  1  0.33687571  0.33687571  0.55117565  1
  Al  Al9  1  0.66312429  0.66312429  0.44882435  1
  Al  Al10  1  0.66312429  0.66312429  0.05117565  1
  Al  Al11  1  0.33687571  0.33687571  0.94882435  1
  Al  Al12  1  0.33213109  0.54464243  0.25000000  1
  Al  Al13  1  0.66786891  0.45535757  0.75000000  1
  Al  Al14  1  0.54464243  0.33213109  0.25000000  1
  Al  Al15  1  0.45535757  0.66786891  0.75000000  1
  Si  Si0  1  0.13480147  0.13480147  0.25000000  1
  Si  Si1  1  0.86519853  0.86519853  0.75000000  1
  Ir  Ir0  1  0.67064314  0.32935686  0.00000000  1
  Ir  Ir1  1  0.32935686  0.67064314  0.00000000  1
  Ir  Ir2  1  0.32935686  0.67064314  0.50000000  1
  Ir  Ir3  1  0.67064314  0.32935686  0.50000000  1
  Ir  Ir4  1  0.00000000  0.00000000  0.00000000  1
  Ir  Ir5  1  0.00000000  0.00000000  0.50000000  1
loop_
_geom_bond_atom_site_label_1
_geom_bond_atom_site_label_2
_geom_bond_distance
_geom_bond_site_symmetry_2
Ca0 Si0 3.062480 1_665
Ca1 Si1 3.062480 1_445
Ca2 Si0 3.062480 1_665
Ca3 Si1 3.062480 1_445
Al0 Ir0 2.551687 1_455
Al0 Ir1 2.587006 1_555
Al0 Ir4 2.600522 1_555
Al0 Si0 2.756866 1_555
Al0 Al12 2.757260 1_555
Al0 Al11 2.760753 1_554
Al0 Al1 2.817206 1_454
Al0 Al6 2.886886 1_444
Al0 Ca2 3.031346 1_445
Al0 Ca1 3.038410 1_554
Al0 Ca0 3.078079 1_455
Al1 Ir1 2.551687 1_656
Al1 Ir0 2.587006 1_556
Al1 Ir4 2.600522 1_666
Al1 Si1 2.756866 1_555
Al1 Al13 2.757260 1_555
Al1 Al10 2.760753 1_556
Al1 Al7 2.886886 1_666
Al1 Ca3 3.031346 1_665
Al1 Ca0 3.038410 1_556
Al1 Ca1 3.078079 1_655
Al2 Ir2 2.551687 1_655
Al2 Ir3 2.587006 1_555
Al2 Ir5 2.600522 1_665
Al2 Si1 2.756866 1_555
Al2 Al9 2.760753 1_555
Al2 Al4 2.817206 1_655
Al2 Al3 2.886886 1_665
Al2 Ca3 3.031346 1_665
Al2 Ca0 3.038410 1_555
Al2 Ca1 3.078079 1_655
Al3 Ir2 2.551687 1_545
Al3 Ir3 2.587006 1_555
Al3 Ir5 2.600522 1_555
Al3 Si0 2.756866 1_555
Al3 Al8 2.760753 1_555
Al3 Al5 2.817206 1_545
Al3 Ca0 3.031346 1_445
Al3 Ca3 3.038410 1_555
Al3 Ca2 3.078080 1_545
Al4 Ir3 2.551687 1_455
Al4 Ir2 2.587006 1_555
Al4 Ir5 2.600522 1_555
Al4 Si0 2.756866 1_555
Al4 Al8 2.760753 1_555
Al4 Al5 2.886886 1_445
Al4 Ca2 3.031346 1_445
Al4 Ca1 3.038410 1_555
Al4 Ca0 3.078079 1_455
Al5 Ir3 2.551687 1_565
Al5 Ir2 2.587006 1_555
Al5 Ir5 2.600522 1_665
Al5 Si1 2.756866 1_555
Al5 Al9 2.760753 1_555
Al5 Ca1 3.031346 1_665
Al5 Ca2 3.038410 1_555
Al5 Ca3 3.078080 1_565
Al6 Ir0 2.551687 1_566
Al6 Ir1 2.587006 1_556
Al6 Ir4 2.600522 1_666
Al6 Si1 2.756866 1_555
Al6 Al7 2.817206 1_566
Al6 Ca1 3.031346 1_665
Al6 Ca2 3.038410 1_556
Al6 Ca3 3.078080 1_565
Al7 Ir1 2.551687 1_545
Al7 Ir0 2.587006 1_555
Al7 Ir4 2.600522 1_555
Al7 Si0 2.756866 1_555
Al7 Ca0 3.031346 1_445
Al7 Ca3 3.038410 1_554
Al7 Ca2 3.078080 1_545
Al8 Ir2 2.576463 1_555
Al8 Ir3 2.576464 1_555
Al8 Ir5 2.588252 1_555
Al8 Al9 2.645668 1_555
Al8 Ca3 3.085592 1_555
Al8 Ca1 3.085592 1_555
Al9 Ir3 2.576463 1_555
Al9 Ir2 2.576464 1_555
Al9 Ir5 2.588252 1_665
Al9 Ca2 3.085592 1_555
Al9 Ca0 3.085592 1_555
Al10 Ir0 2.576463 1_555
Al10 Ir1 2.576464 1_555
Al10 Ir4 2.588252 1_665
Al10 Al11 2.645668 1_554
Al10 Al6 2.760753 1_554
Al10 Al14 2.881761 1_555
Al10 Al12 2.881761 1_555
Al10 Ca2 3.085592 1_555
Al10 Ca0 3.085592 1_555
Al11 Ir1 2.576463 1_556
Al11 Ir0 2.576464 1_556
Al11 Ir4 2.588252 1_556
Al11 Al7 2.760753 1_556
Al11 Al15 2.881761 1_555
Al11 Al13 2.881761 1_555
Al11 Ca3 3.085592 1_555
Al11 Ca1 3.085592 1_555
Al12 Ir1 2.548789 1_555
Al12 Ir2 2.548789 1_555
Al12 Si0 2.673152 1_555
Al12 Al14 2.753411 1_555
Al12 Al4 2.757260 1_555
Al12 Al9 2.881761 1_555
Al12 Ca2 3.079481 1_555
Al12 Ca0 3.127849 1_455
Al13 Ir3 2.548789 1_555
Al13 Ir0 2.548789 1_556
Al13 Si1 2.673152 1_555
Al13 Al15 2.753411 1_555
Al13 Al2 2.757260 1_555
Al13 Al8 2.881761 1_555
Al13 Ca3 3.079481 1_555
Al13 Ca1 3.127849 1_655
Al14 Ir3 2.548789 1_555
Al14 Ir0 2.548789 1_555
Al14 Si0 2.673152 1_555
Al14 Al3 2.757260 1_555
Al14 Al7 2.757260 1_555
Al14 Al9 2.881761 1_555
Al14 Ca0 3.079481 1_555
Al14 Ca2 3.127849 1_545
Al15 Ir2 2.548789 1_555
Al15 Ir1 2.548789 1_556
Al15 Si1 2.673152 1_555
Al15 Al6 2.757260 1_555
Al15 Al5 2.757260 1_555
Al15 Al8 2.881761 1_555
Al15 Ca1 3.079481 1_555
Al15 Ca3 3.127849 1_565
Ir4 Si0 2.572801 1_555
Ir4 Si1 2.572801 1_444
Ir5 Si0 2.572801 1_555
Ir5 Si1 2.572801 1_445
