# generated using pymatgen
data_Rb4TaNb5Br18
_symmetry_space_group_name_H-M   'P 1'
_cell_length_a   10.43188782
_cell_length_b   10.43188989
_cell_length_c   10.30457805
_cell_angle_alpha   76.39130676
_cell_angle_beta   76.39126225
_cell_angle_gamma   115.76259575
_symmetry_Int_Tables_number   1
_chemical_formula_structural   Rb4TaNb5Br18
_chemical_formula_sum   'Rb4 Ta1 Nb5 Br18'
_cell_volume   905.64717993
_cell_formula_units_Z   1
loop_
 _symmetry_equiv_pos_site_id
 _symmetry_equiv_pos_as_xyz
  1  'x, y, z'
loop_
 _atom_site_type_symbol
 _atom_site_label
 _atom_site_symmetry_multiplicity
 _atom_site_fract_x
 _atom_site_fract_y
 _atom_site_fract_z
 _atom_site_occupancy
  Rb  Rb0  1  0.73959122  0.05698703  0.32355404  1
  Rb  Rb1  1  0.26254415  0.94271290  0.67969338  1
  Rb  Rb2  1  0.94271390  0.26254515  0.67969338  1
  Rb  Rb3  1  0.05698803  0.73959222  0.32355404  1
  Ta  Ta0  1  0.60795583  0.60795583  0.12279565  1
  Nb  Nb0  1  0.39050283  0.39050183  0.87521236  1
  Nb  Nb1  1  0.45575789  0.28820379  0.13472790  1
  Nb  Nb2  1  0.54356152  0.71116947  0.86445940  1
  Nb  Nb3  1  0.71116947  0.54356152  0.86446040  1
  Nb  Nb4  1  0.28820379  0.45575789  0.13472690  1
  Br  Br0  1  0.70682925  0.29289124  0.99998352  1
  Br  Br1  1  0.29289124  0.70682925  0.99998352  1
  Br  Br2  1  0.39649671  0.99992263  0.32115676  1
  Br  Br3  1  0.60552645  0.00172680  0.68079631  1
  Br  Br4  1  0.00172680  0.60552645  0.68079631  1
  Br  Br5  1  0.99992263  0.39649571  0.32115676  1
  Br  Br6  1  0.31431695  0.10572130  0.01316226  1
  Br  Br7  1  0.68482549  0.89112520  0.98788617  1
  Br  Br8  1  0.89112520  0.68482449  0.98788617  1
  Br  Br9  1  0.10572130  0.31431795  0.01316126  1
  Br  Br10  1  0.75354917  0.75354917  0.28570290  1
  Br  Br11  1  0.24509124  0.24509124  0.71033012  1
  Br  Br12  1  0.81641962  0.81641962  0.66748961  1
  Br  Br13  1  0.18318573  0.18318573  0.33205703  1
  Br  Br14  1  0.57932083  0.37571240  0.31491939  1
  Br  Br15  1  0.42109187  0.62725951  0.68286903  1
  Br  Br16  1  0.62726051  0.42109287  0.68286903  1
  Br  Br17  1  0.37571140  0.57932083  0.31491939  1
loop_
_geom_bond_atom_site_label_1
_geom_bond_atom_site_label_2
_geom_bond_distance
_geom_bond_site_symmetry_2
Br0 Nb1 2.633553 1_556
Br0 Nb3 2.634233 1_555
Br0 Rb2 3.794124 1_555
Br0 Rb0 3.833581 1_556
Br1 Nb4 2.633551 1_556
Br1 Nb2 2.634234 1_555
Br1 Rb1 3.794127 1_555
Br1 Rb3 3.833580 1_556
Br2 Nb1 2.867576 1_565
Br2 Rb0 3.370685 1_565
Br2 Rb3 3.389061 1_555
Br2 Rb1 3.430256 1_555
Br3 Nb2 2.865071 1_545
Br3 Rb1 3.359842 1_545
Br3 Rb2 3.379788 1_555
Br3 Rb0 3.423088 1_555
Br4 Nb3 2.865072 1_455
Br4 Rb2 3.359835 1_455
Br4 Rb1 3.379777 1_555
Br4 Rb3 3.423086 1_555
Br5 Nb4 2.867574 1_655
Br5 Rb3 3.370703 1_655
Br5 Rb0 3.389065 1_555
Br5 Rb2 3.430258 1_555
Br6 Nb0 2.628046 1_554
Br6 Nb1 2.630672 1_555
Br6 Rb3 3.649979 1_545
Br7 Ta0 2.604896 1_556
Br7 Nb2 2.629483 1_555
Br7 Rb2 3.669282 1_565
Br8 Ta0 2.604898 1_556
Br8 Nb3 2.629471 1_555
Br8 Rb1 3.669276 1_655
Br9 Nb0 2.628058 1_554
Br9 Nb4 2.630668 1_555
Br9 Rb0 3.649990 1_455
Br10 Ta0 2.797485 1_555
Br10 Rb0 3.338895 1_565
Br10 Rb3 3.338900 1_655
Br11 Nb0 2.813217 1_555
Br11 Rb2 3.320193 1_455
Br11 Rb1 3.320199 1_545
Br12 Nb2 2.634984 1_555
Br12 Nb3 2.634990 1_555
Br13 Nb1 2.634964 1_555
Br13 Nb4 2.634969 1_555
Br14 Ta0 2.591102 1_555
Br14 Nb1 2.616028 1_555
Br15 Nb2 2.612186 1_555
Br15 Nb0 2.616093 1_555
Br16 Nb3 2.612187 1_555
Br16 Nb0 2.616082 1_555
Br17 Ta0 2.591108 1_555
Br17 Nb4 2.616034 1_555
