# generated using pymatgen
data_Cs12MgCdSe8
_symmetry_space_group_name_H-M   'P 1'
_cell_length_a   11.14030290
_cell_length_b   11.14030260
_cell_length_c   8.74942026
_cell_angle_alpha   90.00000000
_cell_angle_beta   90.00000000
_cell_angle_gamma   120.00000091
_symmetry_Int_Tables_number   1
_chemical_formula_structural   Cs12MgCdSe8
_chemical_formula_sum   'Cs12 Mg1 Cd1 Se8'
_cell_volume   940.38110011
_cell_formula_units_Z   1
loop_
 _symmetry_equiv_pos_site_id
 _symmetry_equiv_pos_as_xyz
  1  'x, y, z'
loop_
 _atom_site_type_symbol
 _atom_site_label
 _atom_site_symmetry_multiplicity
 _atom_site_fract_x
 _atom_site_fract_y
 _atom_site_fract_z
 _atom_site_occupancy
  Cs  Cs0  1  0.14704125  0.85295875  0.54609961  1
  Cs  Cs1  1  0.29444743  0.14722372  0.04286621  1
  Cs  Cs2  1  0.85277628  0.70555257  0.04286621  1
  Cs  Cs3  1  0.14704125  0.29408249  0.54609961  1
  Cs  Cs4  1  0.70591751  0.85295875  0.54609961  1
  Cs  Cs5  1  0.85277628  0.14722372  0.04286621  1
  Cs  Cs6  1  0.52964125  0.47035875  0.36203633  1
  Cs  Cs7  1  0.06009959  0.53004929  0.86609845  1
  Cs  Cs8  1  0.46995071  0.93990041  0.86609845  1
  Cs  Cs9  1  0.52964125  0.05928250  0.36203633  1
  Cs  Cs10  1  0.94071750  0.47035875  0.36203633  1
  Cs  Cs11  1  0.46995071  0.53004929  0.86609845  1
  Mg  Mg0  1  0.66666700  0.33333300  0.75238736  1
  Cd  Cd0  1  0.33333300  0.66666700  0.25318092  1
  Se  Se0  1  0.33333300  0.66666700  0.56566477  1
  Se  Se1  1  0.66666700  0.33333300  0.05499373  1
  Se  Se2  1  0.19820928  0.80179072  0.15729347  1
  Se  Se3  1  0.40469030  0.20234565  0.65666602  1
  Se  Se4  1  0.79765435  0.59530970  0.65666602  1
  Se  Se5  1  0.19820928  0.39641657  0.15729347  1
  Se  Se6  1  0.60358343  0.80179072  0.15729347  1
  Se  Se7  1  0.79765435  0.20234565  0.65666602  1
loop_
_geom_bond_atom_site_label_1
_geom_bond_atom_site_label_2
_geom_bond_distance
_geom_bond_site_symmetry_2
Cs0 Se2 3.542207 1_555
Cs0 Se0 3.598679 1_555
Cs0 Se3 3.626604 1_565
Cs0 Se4 3.626604 1_455
Cs1 Se3 3.542467 1_554
Cs1 Se5 3.582560 1_555
Cs1 Se2 3.582580 1_545
Cs1 Se1 3.592662 1_555
Cs2 Se4 3.542467 1_554
Cs2 Se6 3.582560 1_555
Cs2 Se2 3.582580 1_655
Cs2 Se1 3.592662 1_555
Cs3 Se5 3.542202 1_555
Cs3 Se0 3.598689 1_555
Cs3 Se3 3.626597 1_555
Cs3 Se7 3.626607 1_455
Cs4 Se6 3.542202 1_555
Cs4 Se0 3.598689 1_555
Cs4 Se4 3.626597 1_555
Cs4 Se7 3.626607 1_565
Cs5 Se7 3.542470 1_554
Cs5 Se6 3.582575 1_545
Cs5 Se5 3.582575 1_655
Cs5 Se1 3.592652 1_555
Cs6 Se3 3.652594 1_555
Cs6 Se4 3.652594 1_555
Cs6 Se1 3.769306 1_555
Cs6 Se6 3.805111 1_555
Cs6 Se5 3.805111 1_555
Cs7 Se2 3.655840 1_556
Cs7 Se5 3.655847 1_556
Cs7 Se0 3.722721 1_555
Cs7 Se7 3.815748 1_455
Cs7 Se4 3.815761 1_455
Cs8 Se2 3.655840 1_556
Cs8 Se6 3.655847 1_556
Cs8 Se0 3.722721 1_555
Cs8 Se7 3.815748 1_565
Cs8 Se3 3.815761 1_565
Cs9 Se7 3.652595 1_555
Cs9 Se3 3.652601 1_555
Cs9 Se1 3.769299 1_555
Cs9 Se2 3.805117 1_545
Cs9 Se6 3.805130 1_545
Cs10 Se7 3.652595 1_555
Cs10 Se4 3.652601 1_555
Cs10 Se1 3.769299 1_555
Cs10 Se2 3.805117 1_655
Cs10 Se5 3.805130 1_655
Cs11 Se6 3.655840 1_556
Cs11 Se5 3.655840 1_556
Cs11 Se0 3.722735 1_555
Cs11 Se3 3.815742 1_555
Cs11 Se4 3.815742 1_555
Mg0 Se1 2.647630 1_556
Mg0 Se7 2.662621 1_555
Mg0 Se4 2.662639 1_555
Mg0 Se3 2.662639 1_555
Cd0 Se0 2.734053 1_555
Cd0 Se2 2.738943 1_555
Cd0 Se5 2.738971 1_555
Cd0 Se6 2.738971 1_555
