# generated using pymatgen
data_Cs3ScIrBr9
_symmetry_space_group_name_H-M   'P 1'
_cell_length_a   7.68090121
_cell_length_b   7.68090015
_cell_length_c   19.21396561
_cell_angle_alpha   90.00000000
_cell_angle_beta   90.00000000
_cell_angle_gamma   119.99998857
_symmetry_Int_Tables_number   1
_chemical_formula_structural   Cs3ScIrBr9
_chemical_formula_sum   'Cs6 Sc2 Ir2 Br18'
_cell_volume   981.68462495
_cell_formula_units_Z   2
loop_
 _symmetry_equiv_pos_site_id
 _symmetry_equiv_pos_as_xyz
  1  'x, y, z'
loop_
 _atom_site_type_symbol
 _atom_site_label
 _atom_site_symmetry_multiplicity
 _atom_site_fract_x
 _atom_site_fract_y
 _atom_site_fract_z
 _atom_site_occupancy
  Cs  Cs0  1  0.33333300  0.66666700  0.07007505  1
  Cs  Cs1  1  0.66666700  0.33333300  0.92992495  1
  Cs  Cs2  1  0.66666700  0.33333300  0.57112331  1
  Cs  Cs3  1  0.33333300  0.66666700  0.42887669  1
  Cs  Cs4  1  0.00000000  0.00000000  0.25384735  1
  Cs  Cs5  1  0.00000000  0.00000000  0.74615265  1
  Sc  Sc0  1  0.66666700  0.33333300  0.16207641  1
  Sc  Sc1  1  0.33333300  0.66666700  0.83792359  1
  Ir  Ir0  1  0.33333300  0.66666700  0.66748472  1
  Ir  Ir1  1  0.66666700  0.33333300  0.33251528  1
  Br  Br0  1  0.17989676  0.35979253  0.59374867  1
  Br  Br1  1  0.82010324  0.64020747  0.40625133  1
  Br  Br2  1  0.64020747  0.82010324  0.59374867  1
  Br  Br3  1  0.83058250  0.66116599  0.09140573  1
  Br  Br4  1  0.35979253  0.17989676  0.40625133  1
  Br  Br5  1  0.16941750  0.33883401  0.90859427  1
  Br  Br6  1  0.17989676  0.82010324  0.59374867  1
  Br  Br7  1  0.33883401  0.16941750  0.09140573  1
  Br  Br8  1  0.82010324  0.17989676  0.40625133  1
  Br  Br9  1  0.66116599  0.83058250  0.90859427  1
  Br  Br10  1  0.83058250  0.16941750  0.09140573  1
  Br  Br11  1  0.16941750  0.83058250  0.90859427  1
  Br  Br12  1  0.50993454  0.01987007  0.25603992  1
  Br  Br13  1  0.49006546  0.98012993  0.74396008  1
  Br  Br14  1  0.98012993  0.49006546  0.25603992  1
  Br  Br15  1  0.01987007  0.50993454  0.74396008  1
  Br  Br16  1  0.50993454  0.49006546  0.25603992  1
  Br  Br17  1  0.49006546  0.50993454  0.74396008  1
loop_
_geom_bond_atom_site_label_1
_geom_bond_atom_site_label_2
_geom_bond_distance
_geom_bond_site_symmetry_2
Br0 Ir0 2.484765 1_555
Br0 Cs3 3.768565 1_555
Br0 Cs5 3.781888 1_555
Br0 Cs2 3.868982 1_555
Br0 Cs2 3.868982 1_455
Br1 Ir1 2.484765 1_555
Br1 Cs2 3.768565 1_555
Br1 Cs4 3.781888 1_665
Br1 Cs3 3.868982 1_555
Br1 Cs3 3.868982 1_655
Br2 Ir0 2.484765 1_555
Br2 Cs3 3.768565 1_555
Br2 Cs5 3.781888 1_665
Br2 Cs2 3.868982 1_555
Br2 Cs2 3.868982 1_565
Br3 Sc0 2.568898 1_555
Br3 Cs1 3.792374 1_554
Br3 Cs4 3.849872 1_665
Br3 Cs0 3.862431 1_555
Br3 Cs0 3.862431 1_655
Br4 Ir1 2.484765 1_555
Br4 Cs2 3.768565 1_555
Br4 Cs4 3.781888 1_555
Br4 Cs3 3.868982 1_555
Br4 Cs3 3.868982 1_545
Br5 Sc1 2.568898 1_555
Br5 Cs0 3.792374 1_556
Br5 Cs5 3.849872 1_555
Br5 Cs1 3.862431 1_555
Br5 Cs1 3.862431 1_455
Br6 Ir0 2.484754 1_555
Br6 Cs3 3.768558 1_555
Br6 Cs5 3.781892 1_565
Br6 Cs2 3.868982 1_565
Br6 Cs2 3.868983 1_455
Br7 Sc0 2.568898 1_555
Br7 Cs1 3.792375 1_554
Br7 Cs4 3.849872 1_555
Br7 Cs0 3.862431 1_555
Br7 Cs0 3.862431 1_545
Br8 Ir1 2.484754 1_555
Br8 Cs2 3.768558 1_555
Br8 Cs4 3.781892 1_655
Br8 Cs3 3.868982 1_545
Br8 Cs3 3.868983 1_655
Br9 Sc1 2.568898 1_555
Br9 Cs0 3.792375 1_556
Br9 Cs5 3.849872 1_665
Br9 Cs1 3.862431 1_555
Br9 Cs1 3.862431 1_565
Br10 Sc0 2.568887 1_555
Br10 Cs1 3.792367 1_554
Br10 Cs4 3.849876 1_655
Br10 Cs0 3.862432 1_545
Br10 Cs0 3.862432 1_655
Br11 Sc1 2.568887 1_555
Br11 Cs0 3.792367 1_556
Br11 Cs5 3.849876 1_565
Br11 Cs1 3.862432 1_565
Br11 Cs1 3.862432 1_455
Br12 Ir1 2.550844 1_555
Br12 Sc0 2.758114 1_555
Br12 Cs4 3.842951 1_555
Br12 Cs4 3.842959 1_655
Br12 Cs3 4.067946 1_545
Br12 Cs0 4.276347 1_545
Br13 Ir0 2.550844 1_555
Br13 Sc1 2.758114 1_555
Br13 Cs5 3.842951 1_665
Br13 Cs5 3.842959 1_565
Br13 Cs2 4.067946 1_565
Br13 Cs1 4.276347 1_565
Br14 Ir1 2.550844 1_555
Br14 Sc0 2.758115 1_555
Br14 Cs4 3.842951 1_665
Br14 Cs4 3.842959 1_655
Br14 Cs3 4.067946 1_655
Br14 Cs0 4.276348 1_655
Br15 Ir0 2.550844 1_555
Br15 Sc1 2.758115 1_555
Br15 Cs5 3.842951 1_555
Br15 Cs5 3.842959 1_565
Br15 Cs2 4.067946 1_455
Br15 Cs1 4.276348 1_455
Br16 Ir1 2.550855 1_555
Br16 Sc0 2.758124 1_555
Br16 Cs4 3.842955 1_665
Br16 Cs4 3.842955 1_555
Br16 Cs3 4.067946 1_555
Br16 Cs0 4.276347 1_555
Br17 Ir0 2.550855 1_555
Br17 Sc1 2.758124 1_555
Br17 Cs5 3.842955 1_555
Br17 Cs5 3.842955 1_665
Br17 Cs2 4.067946 1_555
Br17 Cs1 4.276347 1_555
