# generated using pymatgen
data_LiPb4ClO4
_symmetry_space_group_name_H-M   'P 1'
_cell_length_a   8.18901526
_cell_length_b   8.18901526
_cell_length_c   6.09514142
_cell_angle_alpha   90.00000000
_cell_angle_beta   90.00000000
_cell_angle_gamma   90.00000000
_symmetry_Int_Tables_number   1
_chemical_formula_structural   LiPb4ClO4
_chemical_formula_sum   'Li2 Pb8 Cl2 O8'
_cell_volume   408.74000642
_cell_formula_units_Z   2
loop_
 _symmetry_equiv_pos_site_id
 _symmetry_equiv_pos_as_xyz
  1  'x, y, z'
loop_
 _atom_site_type_symbol
 _atom_site_label
 _atom_site_symmetry_multiplicity
 _atom_site_fract_x
 _atom_site_fract_y
 _atom_site_fract_z
 _atom_site_occupancy
  Li  Li0  1  0.50000000  0.00000000  0.98391508  1
  Li  Li1  1  0.00000000  0.50000000  0.01608492  1
  Pb  Pb0  1  0.19157787  0.14702001  0.23829300  1
  Pb  Pb1  1  0.35297999  0.69157787  0.23829300  1
  Pb  Pb2  1  0.64702001  0.30842213  0.23829300  1
  Pb  Pb3  1  0.30842213  0.35297999  0.76170700  1
  Pb  Pb4  1  0.14702001  0.80842213  0.76170700  1
  Pb  Pb5  1  0.85297999  0.19157787  0.76170700  1
  Pb  Pb6  1  0.80842213  0.85297999  0.23829300  1
  Pb  Pb7  1  0.69157787  0.64702001  0.76170700  1
  Cl  Cl0  1  0.00000000  0.50000000  0.43272913  1
  Cl  Cl1  1  0.50000000  0.00000000  0.56727087  1
  O  O0  1  0.74006035  0.08485411  0.06898187  1
  O  O1  1  0.41514589  0.24006035  0.06898187  1
  O  O2  1  0.25993965  0.91514589  0.06898187  1
  O  O3  1  0.58485411  0.75993965  0.06898187  1
  O  O4  1  0.91514589  0.74006035  0.93101813  1
  O  O5  1  0.24006035  0.58485411  0.93101813  1
  O  O6  1  0.08485411  0.25993965  0.93101813  1
  O  O7  1  0.75993965  0.41514589  0.93101813  1
loop_
_geom_bond_atom_site_label_1
_geom_bond_atom_site_label_2
_geom_bond_distance
_geom_bond_site_symmetry_2
Li0 O0 2.148553 1_556
Li0 O1 2.148553 1_556
Li0 O3 2.148553 1_546
Li0 O2 2.148553 1_546
Li1 O5 2.148553 1_554
Li1 O4 2.148553 1_454
Li1 O6 2.148553 1_554
Li1 O7 2.148553 1_454
Cl0 Li1 2.539505 1_555
Cl1 Li0 2.539505 1_555
O0 Pb6 2.232462 1_545
O0 Pb2 2.235467 1_555
O0 Pb5 2.264194 1_554
O1 Pb2 2.232462 1_555
O1 Pb0 2.235467 1_555
O1 Pb3 2.264194 1_554
O2 Pb0 2.232462 1_565
O2 Pb1 2.235467 1_555
O2 Pb4 2.264194 1_554
O3 Pb1 2.232462 1_555
O3 Pb6 2.235467 1_555
O3 Pb7 2.264194 1_554
O4 Pb4 2.232462 1_655
O4 Pb7 2.235467 1_555
O4 Pb6 2.264194 1_556
O5 Pb3 2.232462 1_555
O5 Pb4 2.235467 1_555
O5 Pb1 2.264194 1_556
O6 Pb5 2.232462 1_455
O6 Pb3 2.235467 1_555
O6 Pb0 2.264194 1_556
O7 Pb7 2.232462 1_555
O7 Pb5 2.235467 1_555
O7 Pb2 2.264194 1_556
