# generated using pymatgen
data_V2Ni2PdSe8
_symmetry_space_group_name_H-M   'P 1'
_cell_length_a   3.40628478
_cell_length_b   10.50888367
_cell_length_c   14.93887648
_cell_angle_alpha   90.00000000
_cell_angle_beta   90.00000000
_cell_angle_gamma   90.00000000
_symmetry_Int_Tables_number   1
_chemical_formula_structural   V2Ni2PdSe8
_chemical_formula_sum   'V4 Ni4 Pd2 Se16'
_cell_volume   534.75576427
_cell_formula_units_Z   2
loop_
 _symmetry_equiv_pos_site_id
 _symmetry_equiv_pos_as_xyz
  1  'x, y, z'
loop_
 _atom_site_type_symbol
 _atom_site_label
 _atom_site_symmetry_multiplicity
 _atom_site_fract_x
 _atom_site_fract_y
 _atom_site_fract_z
 _atom_site_occupancy
  V  V0  1  0.50000000  0.79431769  0.87232603  1
  V  V1  1  0.50000000  0.20568231  0.12767397  1
  V  V2  1  0.50000000  0.29431769  0.62767397  1
  V  V3  1  0.50000000  0.70568231  0.37232603  1
  Ni  Ni0  1  0.00000000  0.62855207  0.77288834  1
  Ni  Ni1  1  0.00000000  0.37144793  0.22711166  1
  Ni  Ni2  1  0.00000000  0.12855207  0.72711166  1
  Ni  Ni3  1  0.00000000  0.87144793  0.27288834  1
  Pd  Pd0  1  0.00000000  0.00000000  0.00000000  1
  Pd  Pd1  1  0.00000000  0.50000000  0.50000000  1
  Se  Se0  1  0.00000000  0.76740461  0.99375797  1
  Se  Se1  1  0.00000000  0.23259539  0.00624203  1
  Se  Se2  1  0.00000000  0.26740461  0.50624203  1
  Se  Se3  1  0.00000000  0.73259539  0.49375797  1
  Se  Se4  1  0.00000000  0.96346887  0.83873328  1
  Se  Se5  1  0.00000000  0.03653113  0.16126672  1
  Se  Se6  1  0.00000000  0.46346887  0.66126672  1
  Se  Se7  1  0.00000000  0.53653113  0.33873328  1
  Se  Se8  1  0.50000000  0.75302751  0.71211531  1
  Se  Se9  1  0.50000000  0.24697249  0.28788469  1
  Se  Se10  1  0.50000000  0.25302751  0.78788469  1
  Se  Se11  1  0.50000000  0.74697249  0.21211531  1
  Se  Se12  1  0.50000000  0.56127391  0.86817436  1
  Se  Se13  1  0.50000000  0.43872609  0.13182564  1
  Se  Se14  1  0.50000000  0.06127391  0.63182564  1
  Se  Se15  1  0.50000000  0.93872609  0.36817436  1
loop_
_geom_bond_atom_site_label_1
_geom_bond_atom_site_label_2
_geom_bond_distance
_geom_bond_site_symmetry_2
Ni0 Se12 2.329555 1_555
Ni0 Se12 2.329555 1_455
Ni0 Se8 2.331536 1_455
Ni0 Se8 2.331536 1_555
Ni0 Se6 2.406290 1_555
Ni1 Se13 2.329555 1_555
Ni1 Se13 2.329555 1_455
Ni1 Se9 2.331536 1_455
Ni1 Se9 2.331536 1_555
Ni1 Se7 2.406290 1_555
Ni2 Se14 2.329555 1_455
Ni2 Se14 2.329555 1_555
Ni2 Se10 2.331536 1_455
Ni2 Se10 2.331536 1_555
Ni2 Se4 2.406290 1_545
Ni3 Se15 2.329555 1_455
Ni3 Se15 2.329555 1_555
Ni3 Se11 2.331536 1_455
Ni3 Se11 2.331536 1_555
Ni3 Se5 2.406290 1_565
Pd0 Se5 2.439540 1_555
Pd0 Se4 2.439540 1_544
Pd0 Se1 2.446096 1_555
Pd0 Se0 2.446096 1_544
Pd1 Se6 2.439540 1_555
Pd1 Se7 2.439540 1_555
Pd1 Se2 2.446096 1_555
Pd1 Se3 2.446096 1_555
Se0 V0 2.504294 1_555
Se0 V0 2.504294 1_455
Se1 V1 2.504294 1_555
Se1 V1 2.504294 1_455
Se2 V2 2.504294 1_455
Se2 V2 2.504294 1_555
Se3 V3 2.504294 1_555
Se3 V3 2.504294 1_455
Se4 V0 2.512441 1_455
Se4 V0 2.512441 1_555
Se5 V1 2.512441 1_555
Se5 V1 2.512441 1_455
Se6 V2 2.512441 1_455
Se6 V2 2.512441 1_555
Se7 V3 2.512441 1_555
Se7 V3 2.512441 1_455
Se8 V0 2.432384 1_555
Se9 V1 2.432384 1_555
Se10 V2 2.432384 1_555
Se11 V3 2.432384 1_555
Se12 V0 2.449815 1_555
Se13 V1 2.449815 1_555
Se14 V2 2.449815 1_555
Se15 V3 2.449815 1_555
