# generated using pymatgen
data_K3NaVCl6
_symmetry_space_group_name_H-M   'P 1'
_cell_length_a   8.31260201
_cell_length_b   8.31260205
_cell_length_c   8.31260151
_cell_angle_alpha   92.32771859
_cell_angle_beta   92.32772141
_cell_angle_gamma   92.32771249
_symmetry_Int_Tables_number   1
_chemical_formula_structural   K3NaVCl6
_chemical_formula_sum   'K6 Na2 V2 Cl12'
_cell_volume   572.93376242
_cell_formula_units_Z   2
loop_
 _symmetry_equiv_pos_site_id
 _symmetry_equiv_pos_as_xyz
  1  'x, y, z'
loop_
 _atom_site_type_symbol
 _atom_site_label
 _atom_site_symmetry_multiplicity
 _atom_site_fract_x
 _atom_site_fract_y
 _atom_site_fract_z
 _atom_site_occupancy
  K  K0  1  0.12706764  0.37293236  0.75000000  1
  K  K1  1  0.75000000  0.12706764  0.37293236  1
  K  K2  1  0.37293236  0.75000000  0.12706764  1
  K  K3  1  0.25000000  0.87293236  0.62706764  1
  K  K4  1  0.62706764  0.25000000  0.87293236  1
  K  K5  1  0.87293236  0.62706764  0.25000000  1
  Na  Na0  1  0.25000000  0.25000000  0.25000000  1
  Na  Na1  1  0.75000000  0.75000000  0.75000000  1
  V  V0  1  0.50000000  0.50000000  0.50000000  1
  V  V1  1  0.00000000  0.00000000  0.00000000  1
  Cl  Cl0  1  0.21183476  0.54442811  0.41913694  1
  Cl  Cl1  1  0.41913694  0.21183476  0.54442811  1
  Cl  Cl2  1  0.54442811  0.41913694  0.21183476  1
  Cl  Cl3  1  0.91913694  0.04442811  0.71183476  1
  Cl  Cl4  1  0.71183476  0.91913694  0.04442811  1
  Cl  Cl5  1  0.04442811  0.71183476  0.91913694  1
  Cl  Cl6  1  0.78816524  0.45557189  0.58086306  1
  Cl  Cl7  1  0.58086306  0.78816524  0.45557189  1
  Cl  Cl8  1  0.45557189  0.58086306  0.78816524  1
  Cl  Cl9  1  0.08086306  0.95557189  0.28816524  1
  Cl  Cl10  1  0.28816524  0.08086306  0.95557189  1
  Cl  Cl11  1  0.95557189  0.28816524  0.08086306  1
loop_
_geom_bond_atom_site_label_1
_geom_bond_atom_site_label_2
_geom_bond_distance
_geom_bond_site_symmetry_2
Cl0 V0 2.507471 1_555
Cl0 Na0 2.808427 1_555
Cl0 K3 3.169656 1_555
Cl0 K5 3.209198 1_455
Cl0 K0 3.238429 1_555
Cl0 K2 3.320110 1_555
Cl1 V0 2.507471 1_555
Cl1 Na0 2.808427 1_555
Cl1 K4 3.169655 1_555
Cl1 K3 3.209199 1_545
Cl1 K1 3.238429 1_555
Cl1 K0 3.320110 1_555
Cl2 V0 2.507471 1_555
Cl2 Na0 2.808427 1_555
Cl2 K5 3.169656 1_555
Cl2 K4 3.209198 1_554
Cl2 K2 3.238429 1_555
Cl2 K1 3.320110 1_555
Cl3 V1 2.507471 1_656
Cl3 Na1 2.808427 1_545
Cl3 K0 3.169656 1_655
Cl3 K1 3.209198 1_555
Cl3 K3 3.238429 1_645
Cl3 K4 3.320110 1_555
Cl4 V1 2.507471 1_665
Cl4 Na1 2.808427 1_554
Cl4 K1 3.169655 1_565
Cl4 K2 3.209199 1_555
Cl4 K4 3.238429 1_564
Cl4 K5 3.320110 1_555
Cl5 V1 2.507471 1_566
Cl5 Na1 2.808427 1_455
Cl5 K2 3.169655 1_556
Cl5 K0 3.209199 1_555
Cl5 K5 3.238429 1_456
Cl5 K3 3.320110 1_555
Cl6 V0 2.507471 1_555
Cl6 Na1 2.808427 1_555
Cl6 K1 3.169656 1_555
Cl6 K0 3.209198 1_655
Cl6 K5 3.238429 1_555
Cl6 K4 3.320110 1_555
Cl7 V0 2.507471 1_555
Cl7 Na1 2.808427 1_555
Cl7 K2 3.169655 1_555
Cl7 K1 3.209199 1_565
Cl7 K3 3.238429 1_555
Cl7 K5 3.320110 1_555
Cl8 V0 2.507471 1_555
Cl8 Na1 2.808427 1_555
Cl8 K0 3.169656 1_555
Cl8 K2 3.209198 1_556
Cl8 K4 3.238429 1_555
Cl8 K3 3.320110 1_555
Cl9 V1 2.507471 1_565
Cl9 Na0 2.808427 1_565
Cl9 K5 3.169656 1_455
Cl9 K3 3.209198 1_555
Cl9 K1 3.238429 1_465
Cl9 K2 3.320110 1_555
Cl10 V1 2.507471 1_556
Cl10 Na0 2.808427 1_556
Cl10 K3 3.169655 1_545
Cl10 K4 3.209199 1_555
Cl10 K2 3.238429 1_546
Cl10 K0 3.320110 1_555
Cl11 V1 2.507471 1_655
Cl11 Na0 2.808427 1_655
Cl11 K4 3.169655 1_554
Cl11 K5 3.209199 1_555
Cl11 K0 3.238429 1_654
Cl11 K1 3.320110 1_555
