# generated using pymatgen
data_Rb4Cl2O
_symmetry_space_group_name_H-M   'P 1'
_cell_length_a   8.37920741
_cell_length_b   8.37920741
_cell_length_c   8.37920741
_cell_angle_alpha   112.22059352
_cell_angle_beta   112.22059352
_cell_angle_gamma   104.10223908
_symmetry_Int_Tables_number   1
_chemical_formula_structural   Rb4Cl2O
_chemical_formula_sum   'Rb8 Cl4 O2'
_cell_volume   449.93894330
_cell_formula_units_Z   2
loop_
 _symmetry_equiv_pos_site_id
 _symmetry_equiv_pos_as_xyz
  1  'x, y, z'
loop_
 _atom_site_type_symbol
 _atom_site_label
 _atom_site_symmetry_multiplicity
 _atom_site_fract_x
 _atom_site_fract_y
 _atom_site_fract_z
 _atom_site_occupancy
  Rb  Rb0  1  0.13711200  0.41792600  0.15398800  1
  Rb  Rb1  1  0.16792600  0.38711200  0.65398800  1
  Rb  Rb2  1  0.48606100  0.83207400  0.21918600  1
  Rb  Rb3  1  0.73312500  0.51393900  0.34601200  1
  Rb  Rb4  1  0.58207400  0.73606100  0.71918600  1
  Rb  Rb5  1  0.26393900  0.98312500  0.84601200  1
  Rb  Rb6  1  0.01687500  0.86288800  0.28081400  1
  Rb  Rb7  1  0.61288800  0.26687500  0.78081400  1
  Cl  Cl0  1  0.98303700  0.62500000  0.85803700  1
  Cl  Cl1  1  0.87500000  0.01696300  0.64196300  1
  Cl  Cl2  1  0.76696300  0.12500000  0.14196300  1
  Cl  Cl3  1  0.37500000  0.23303700  0.35803700  1
  O  O0  1  0.50000000  0.50000000  0.00000000  1
  O  O1  1  0.25000000  0.75000000  0.50000000  1
loop_
_geom_bond_atom_site_label_1
_geom_bond_atom_site_label_2
_geom_bond_distance
_geom_bond_site_symmetry_2
Cl0 Rb1 3.198008 1_655
Cl0 Rb6 3.198012 1_656
Cl0 Rb7 3.394288 1_555
Cl0 Rb5 3.394293 1_655
Cl0 Rb2 3.570918 1_656
Cl0 Rb0 3.570925 1_656
Cl0 Rb4 3.590766 1_555
Cl0 Rb3 3.590774 1_555
Cl1 Rb5 3.198010 1_645
Cl1 Rb2 3.198012 1_545
Cl1 Rb1 3.394283 1_655
Cl1 Rb4 3.394288 1_545
Cl1 Rb6 3.570918 1_645
Cl1 Rb3 3.570919 1_545
Cl1 Rb7 3.590766 1_555
Cl1 Rb0 3.590772 1_656
Cl2 Rb3 3.198010 1_555
Cl2 Rb4 3.198012 1_544
Cl2 Rb0 3.394283 1_655
Cl2 Rb2 3.394288 1_545
Cl2 Rb7 3.570918 1_554
Cl2 Rb5 3.570919 1_544
Cl2 Rb6 3.590766 1_645
Cl2 Rb1 3.590772 1_655
Cl3 Rb0 3.198008 1_555
Cl3 Rb7 3.198012 1_555
Cl3 Rb6 3.394288 1_545
Cl3 Rb3 3.394293 1_555
Cl3 Rb4 3.570918 1_555
Cl3 Rb1 3.570925 1_555
Cl3 Rb2 3.590766 1_545
Cl3 Rb5 3.590774 1_544
O0 Rb3 2.754000 1_555
O0 Rb1 2.754002 1_554
O0 Rb2 2.754006 1_555
O0 Rb7 2.754006 1_554
O1 Rb5 2.754000 1_555
O1 Rb0 2.754002 1_555
O1 Rb6 2.754006 1_555
O1 Rb4 2.754006 1_555
