# generated using pymatgen
data_Hf3ZrScSn3
_symmetry_space_group_name_H-M   'P 1'
_cell_length_a   8.42477662
_cell_length_b   8.46298195
_cell_length_c   5.78231626
_cell_angle_alpha   90.00000000
_cell_angle_beta   90.00000000
_cell_angle_gamma   120.15010597
_symmetry_Int_Tables_number   1
_chemical_formula_structural   Hf3ZrScSn3
_chemical_formula_sum   'Hf6 Zr2 Sc2 Sn6'
_cell_volume   356.49660075
_cell_formula_units_Z   2
loop_
 _symmetry_equiv_pos_site_id
 _symmetry_equiv_pos_as_xyz
  1  'x, y, z'
loop_
 _atom_site_type_symbol
 _atom_site_label
 _atom_site_symmetry_multiplicity
 _atom_site_fract_x
 _atom_site_fract_y
 _atom_site_fract_z
 _atom_site_occupancy
  Hf  Hf0  1  1.00000000  0.25281083  0.75000000  1
  Hf  Hf1  1  0.00000000  0.75168839  0.25000000  1
  Hf  Hf2  1  0.66721097  0.33180073  0.00031152  1
  Hf  Hf3  1  0.33278903  0.66459077  0.00031152  1
  Hf  Hf4  1  0.33278903  0.66459077  0.49968848  1
  Hf  Hf5  1  0.66721097  0.33180073  0.49968848  1
  Zr  Zr0  1  0.24199790  0.24268438  0.25000000  1
  Zr  Zr1  1  0.75800210  0.00068648  0.25000000  1
  Sc  Sc0  1  0.75592041  0.75723873  0.75000000  1
  Sc  Sc1  1  0.24407959  0.00131931  0.75000000  1
  Sn  Sn0  1  0.39281547  0.39156397  0.75000000  1
  Sn  Sn1  1  0.60718453  0.99874750  0.75000000  1
  Sn  Sn2  1  0.00000000  0.61106596  0.75000000  1
  Sn  Sn3  1  0.60932292  0.60779415  0.25000000  1
  Sn  Sn4  1  0.39067708  0.99847123  0.25000000  1
  Sn  Sn5  1  1.00000000  0.39314306  0.25000000  1
loop_
_geom_bond_atom_site_label_1
_geom_bond_atom_site_label_2
_geom_bond_distance
_geom_bond_site_symmetry_2
Hf0 Sn0 2.902964 1_655
Hf0 Sn1 2.902965 1_545
Hf0 Sn2 3.031907 1_655
Hf0 Sn5 3.125581 1_555
Hf0 Sn5 3.125581 1_556
Hf0 Zr0 3.563463 1_655
Hf0 Zr0 3.563463 1_656
Hf0 Zr1 3.563464 1_555
Hf0 Zr1 3.563464 1_556
Hf1 Sn3 2.879194 1_455
Hf1 Sn4 2.879194 1_555
Hf1 Sn5 3.034363 1_455
Hf1 Sn2 3.126515 1_554
Hf1 Sn2 3.126515 1_555
Hf1 Zr1 3.593455 1_465
Hf1 Zr0 3.593456 1_565
Hf2 Hf5 2.887556 1_555
Hf2 Hf5 2.894761 1_554
Hf2 Sn5 2.958460 1_555
Hf2 Sn1 2.977150 1_544
Hf2 Sn4 2.977934 1_545
Hf2 Sn0 2.978134 1_554
Hf2 Sn2 2.980761 1_654
Hf2 Sn3 2.987013 1_555
Hf2 Zr1 3.560208 1_555
Hf2 Zr0 3.573842 1_555
Hf3 Hf4 2.887556 1_555
Hf3 Hf4 2.894761 1_554
Hf3 Sn5 2.958463 1_455
Hf3 Sn0 2.977150 1_554
Hf3 Sn3 2.977938 1_555
Hf3 Sn1 2.978126 1_554
Hf3 Sn2 2.980758 1_554
Hf3 Sn4 2.987006 1_555
Hf3 Zr0 3.560216 1_555
Hf3 Zr1 3.573840 1_565
Hf4 Sn5 2.958463 1_455
Hf4 Sn0 2.977150 1_555
Hf4 Sn3 2.977938 1_555
Hf4 Sn1 2.978126 1_555
Hf4 Sn2 2.980758 1_555
Hf4 Sn4 2.987006 1_555
Hf4 Zr0 3.560216 1_555
Hf4 Zr1 3.573840 1_565
Hf5 Sn5 2.958460 1_555
Hf5 Sn1 2.977150 1_545
Hf5 Sn4 2.977934 1_545
Hf5 Sn0 2.978134 1_555
Hf5 Sn2 2.980761 1_655
Hf5 Sn3 2.987013 1_555
Hf5 Zr1 3.560208 1_555
Hf5 Zr0 3.573842 1_555
Zr0 Zr1 3.525914 1_455
Sc0 Sn2 2.883411 1_655
Sc0 Sn1 2.884506 1_555
Sc0 Sn0 3.070060 1_555
Sc0 Sn3 3.148749 1_555
Sc0 Sn3 3.148749 1_556
Sc0 Zr1 3.545084 1_566
Sc0 Zr1 3.545084 1_565
Sc1 Sn2 2.883419 1_545
Sc1 Sn0 2.884507 1_555
Sc1 Sn1 3.070068 1_545
Sc1 Sn4 3.148751 1_546
Sc1 Sn4 3.148751 1_545
Sc1 Zr0 3.545079 1_556
Sc1 Zr0 3.545079 1_555
Sn0 Zr0 3.154769 1_556
Sn0 Zr0 3.154769 1_555
Sn1 Zr1 3.154767 1_565
Sn1 Zr1 3.154767 1_566
Sn3 Zr1 2.905354 1_565
Sn3 Zr0 3.085258 1_555
Sn4 Zr0 2.905353 1_565
Sn4 Zr1 3.085257 1_565
Sn5 Zr0 2.895823 1_655
Sn5 Zr1 2.895824 1_555
