# generated using pymatgen
data_Ba5Ge(Br3O2)2
_symmetry_space_group_name_H-M   'P 1'
_cell_length_a   9.12953473
_cell_length_b   9.12953415
_cell_length_c   12.31239486
_cell_angle_alpha   82.13783107
_cell_angle_beta   82.13783252
_cell_angle_gamma   114.52143178
_symmetry_Int_Tables_number   1
_chemical_formula_structural   Ba5Ge(Br3O2)2
_chemical_formula_sum   'Ba10 Ge2 Br12 O8'
_cell_volume   903.30068597
_cell_formula_units_Z   2
loop_
 _symmetry_equiv_pos_site_id
 _symmetry_equiv_pos_as_xyz
  1  'x, y, z'
loop_
 _atom_site_type_symbol
 _atom_site_label
 _atom_site_symmetry_multiplicity
 _atom_site_fract_x
 _atom_site_fract_y
 _atom_site_fract_z
 _atom_site_occupancy
  Ba  Ba0  1  0.67978149  0.43172421  0.51382214  1
  Ba  Ba1  1  0.79289764  0.20710236  0.25000000  1
  Ba  Ba2  1  0.76375507  0.91882972  0.63416883  1
  Ba  Ba3  1  0.08117028  0.23624493  0.86583117  1
  Ba  Ba4  1  0.32021851  0.56827579  0.48617786  1
  Ba  Ba5  1  0.20710236  0.79289764  0.75000000  1
  Ba  Ba6  1  0.91882972  0.76375507  0.13416883  1
  Ba  Ba7  1  0.23624493  0.08117028  0.36583117  1
  Ba  Ba8  1  0.43172421  0.67978149  0.01382214  1
  Ba  Ba9  1  0.56827579  0.32021851  0.98617786  1
  Ge  Ge0  1  0.42571472  0.57428528  0.75000000  1
  Ge  Ge1  1  0.57428528  0.42571472  0.25000000  1
  Br  Br0  1  0.21388677  0.15253853  0.63461976  1
  Br  Br1  1  0.02047220  0.72077797  0.54843798  1
  Br  Br2  1  0.72077797  0.02047220  0.04843798  1
  Br  Br3  1  0.78611323  0.84746147  0.36538024  1
  Br  Br4  1  0.84746147  0.78611323  0.86538024  1
  Br  Br5  1  0.75446782  0.24553218  0.75000000  1
  Br  Br6  1  0.97952780  0.27922203  0.45156202  1
  Br  Br7  1  0.15253853  0.21388677  0.13461976  1
  Br  Br8  1  0.24553218  0.75446782  0.25000000  1
  Br  Br9  1  0.00000000  0.50000000  0.00000000  1
  Br  Br10  1  0.27922203  0.97952780  0.95156202  1
  Br  Br11  1  0.50000000  0.00000000  0.50000000  1
  O  O0  1  0.39960954  0.43711030  0.87464567  1
  O  O1  1  0.23006581  0.51958041  0.71439441  1
  O  O2  1  0.56288970  0.60039046  0.62535433  1
  O  O3  1  0.51958041  0.23006581  0.21439441  1
  O  O4  1  0.48041959  0.76993419  0.78560559  1
  O  O5  1  0.43711030  0.39960954  0.37464567  1
  O  O6  1  0.76993419  0.48041959  0.28560559  1
  O  O7  1  0.60039046  0.56288970  0.12535433  1
loop_
_geom_bond_atom_site_label_1
_geom_bond_atom_site_label_2
_geom_bond_distance
_geom_bond_site_symmetry_2
Ba0 O2 2.633881 1_555
Ba0 O6 2.737219 1_555
Ba0 O5 2.927047 1_555
Ba0 Br1 3.267575 1_655
Ba0 Br5 3.458697 1_555
Ba0 Br6 3.591015 1_555
Ba0 Br11 3.626008 1_555
Ba0 Br3 3.639630 1_555
Ba0 Br0 3.877281 1_555
Ba1 O6 2.677836 1_555
Ba1 O3 2.677836 1_555
Ba1 Br2 3.188754 1_555
Ba1 Br6 3.188754 1_555
Ba1 Br3 3.366514 1_545
Ba1 Br7 3.366514 1_655
Ba1 Br9 3.487009 1_655
Ba1 Br11 3.487009 1_555
Ba2 O4 2.661552 1_555
Ba2 O2 2.746256 1_555
Ba2 Br4 3.252117 1_555
Ba2 Br6 3.338489 1_565
Ba2 Br11 3.363162 1_565
Ba2 Br3 3.454567 1_555
Ba2 Br5 3.503975 1_565
Ba2 Br1 3.638594 1_655
Ba2 Br0 3.764532 1_665
Ba3 O1 2.661552 1_555
Ba3 O0 2.746256 1_555
Ba3 Br0 3.252117 1_555
Ba3 Br2 3.338489 1_456
Ba3 Br9 3.363162 1_556
Ba3 Br7 3.454567 1_556
Ba3 Br5 3.503975 1_455
Ba3 Br10 3.638594 1_545
Ba3 Br4 3.764532 1_445
Ba4 O5 2.633881 1_555
Ba4 O1 2.737219 1_555
Ba4 O2 2.927047 1_555
Ba4 Br6 3.267575 1_455
Ba4 Br8 3.458697 1_555
Ba4 Br1 3.591015 1_555
Ba4 Br11 3.626008 1_565
Ba4 Br0 3.639630 1_555
Ba4 Br3 3.877281 1_555
Ba5 O1 2.677836 1_555
Ba5 O4 2.677836 1_555
Ba5 Br10 3.188754 1_555
Ba5 Br1 3.188754 1_555
Ba5 Br0 3.366514 1_565
Ba5 Br4 3.366514 1_455
Ba5 Br9 3.487009 1_556
Ba5 Br11 3.487009 1_565
Ba6 O6 2.661552 1_555
Ba6 O7 2.746256 1_555
Ba6 Br3 3.252117 1_555
Ba6 Br10 3.338489 1_654
Ba6 Br9 3.363162 1_655
Ba6 Br4 3.454567 1_554
Ba6 Br8 3.503975 1_655
Ba6 Br2 3.638594 1_565
Ba6 Br7 3.764532 1_665
Ba7 O3 2.661552 1_555
Ba7 O5 2.746256 1_555
Ba7 Br7 3.252117 1_555
Ba7 Br1 3.338489 1_545
Ba7 Br11 3.363162 1_555
Ba7 Br0 3.454567 1_555
Ba7 Br8 3.503975 1_545
Ba7 Br6 3.638594 1_455
Ba7 Br3 3.764532 1_445
Ba8 O7 2.633881 1_555
Ba8 O4 2.737219 1_554
Ba8 O0 2.927047 1_554
Ba8 Br2 3.267574 1_565
Ba8 Br8 3.458697 1_555
Ba8 Br10 3.591014 1_554
Ba8 Br9 3.626009 1_555
Ba8 Br4 3.639630 1_554
Ba8 Br7 3.877281 1_555
Ba9 O0 2.633881 1_555
Ba9 O3 2.737219 1_556
Ba9 O7 2.927047 1_556
Ba9 Br10 3.267574 1_545
Ba9 Br5 3.458697 1_555
Ba9 Br2 3.591014 1_556
Ba9 Br9 3.626009 1_656
Ba9 Br7 3.639630 1_556
Ba9 Br4 3.877281 1_555
Ge0 O0 1.762613 1_555
Ge0 O2 1.762613 1_555
Ge0 O4 1.779245 1_555
Ge0 O1 1.779245 1_555
Ge1 O7 1.762613 1_555
Ge1 O5 1.762613 1_555
Ge1 O3 1.779245 1_555
Ge1 O6 1.779245 1_555
