# generated using pymatgen
data_Rb2TiBeSe4
_symmetry_space_group_name_H-M   'P 1'
_cell_length_a   14.13309455
_cell_length_b   12.60933569
_cell_length_c   7.55102631
_cell_angle_alpha   85.09899928
_cell_angle_beta   62.73823730
_cell_angle_gamma   32.16276400
_symmetry_Int_Tables_number   1
_chemical_formula_structural   Rb2TiBeSe4
_chemical_formula_sum   'Rb4 Ti2 Be2 Se8'
_cell_volume   489.85180356
_cell_formula_units_Z   2
loop_
 _symmetry_equiv_pos_site_id
 _symmetry_equiv_pos_as_xyz
  1  'x, y, z'
loop_
 _atom_site_type_symbol
 _atom_site_label
 _atom_site_symmetry_multiplicity
 _atom_site_fract_x
 _atom_site_fract_y
 _atom_site_fract_z
 _atom_site_occupancy
  Rb  Rb0  1  0.67809279  0.67809279  0.32190721  1
  Rb  Rb1  1  0.32190721  0.32190721  0.67809279  1
  Rb  Rb2  1  0.57190721  0.57190721  0.92809279  1
  Rb  Rb3  1  0.92809279  0.92809279  0.57190721  1
  Ti  Ti0  1  0.00000000  0.00000000  0.00000000  1
  Ti  Ti1  1  0.25000000  0.25000000  0.25000000  1
  Be  Be0  1  0.50000000  0.50000000  0.50000000  1
  Be  Be1  1  0.75000000  0.75000000  0.75000000  1
  Se  Se0  1  0.36785882  0.02744105  0.94441740  1
  Se  Se1  1  0.66028373  0.94441740  0.02744105  1
  Se  Se2  1  0.94441740  0.66028373  0.36785882  1
  Se  Se3  1  0.02744105  0.36785882  0.66028373  1
  Se  Se4  1  0.88214118  0.22255895  0.30558260  1
  Se  Se5  1  0.58971627  0.30558260  0.22255895  1
  Se  Se6  1  0.30558260  0.58971627  0.88214118  1
  Se  Se7  1  0.22255895  0.88214118  0.58971627  1
loop_
_geom_bond_atom_site_label_1
_geom_bond_atom_site_label_2
_geom_bond_distance
_geom_bond_site_symmetry_2
Rb0 Se3 3.561013 1_654
Rb0 Se0 3.561019 1_565
Rb0 Se4 3.615936 1_555
Rb0 Se7 3.615938 1_555
Rb0 Se3 3.687344 1_565
Rb0 Se0 3.687346 1_654
Rb0 Se1 3.753734 1_555
Rb0 Se2 3.753738 1_555
Rb1 Se1 3.561012 1_456
Rb1 Se2 3.561014 1_545
Rb1 Se6 3.615925 1_555
Rb1 Se5 3.615929 1_555
Rb1 Se1 3.687341 1_545
Rb1 Se2 3.687347 1_456
Rb1 Se3 3.753724 1_555
Rb1 Se0 3.753728 1_555
Rb2 Se7 3.561013 1_556
Rb2 Se4 3.561019 1_555
Rb2 Se0 3.615936 1_565
Rb2 Se3 3.615938 1_655
Rb2 Se7 3.687344 1_645
Rb2 Se4 3.687346 1_466
Rb2 Se5 3.753734 1_556
Rb2 Se6 3.753738 1_555
Rb3 Se5 3.561012 1_655
Rb3 Se6 3.561014 1_565
Rb3 Se2 3.615925 1_555
Rb3 Se1 3.615929 1_556
Rb3 Se5 3.687341 1_566
Rb3 Se6 3.687347 1_654
Rb3 Se7 3.753724 1_655
Rb3 Se4 3.753728 1_565
Be0 Se4 2.277623 1_555
Be0 Se7 2.277625 1_555
Be0 Se6 2.277629 1_555
Be0 Se5 2.277634 1_555
Be1 Se0 2.277623 1_565
Be1 Se3 2.277625 1_655
Be1 Se2 2.277629 1_555
Be1 Se1 2.277634 1_556
Se0 Ti1 2.376006 1_556
Se1 Ti1 2.376016 1_565
Se2 Ti1 2.376014 1_655
Se3 Ti1 2.376012 1_555
Se4 Ti0 2.376006 1_655
Se5 Ti0 2.376016 1_655
Se6 Ti0 2.376014 1_566
Se7 Ti0 2.376012 1_566
