# generated using pymatgen
data_Ba(TeP2)2
_symmetry_space_group_name_H-M   'P 1'
_cell_length_a   6.53021700
_cell_length_b   7.24692900
_cell_length_c   16.68043300
_cell_angle_alpha   90.00000000
_cell_angle_beta   90.00000000
_cell_angle_gamma   90.00000000
_symmetry_Int_Tables_number   1
_chemical_formula_structural   Ba(TeP2)2
_chemical_formula_sum   'Ba4 Te8 P16'
_cell_volume   789.38512745
_cell_formula_units_Z   4
loop_
 _symmetry_equiv_pos_site_id
 _symmetry_equiv_pos_as_xyz
  1  'x, y, z'
loop_
 _atom_site_type_symbol
 _atom_site_label
 _atom_site_symmetry_multiplicity
 _atom_site_fract_x
 _atom_site_fract_y
 _atom_site_fract_z
 _atom_site_occupancy
  Ba  Ba0  1  0.25000000  0.39857100  0.66203100  1
  Ba  Ba1  1  0.75000000  0.60142900  0.33796900  1
  Ba  Ba2  1  0.75000000  0.89857100  0.83796900  1
  Ba  Ba3  1  0.25000000  0.10142900  0.16203100  1
  Te  Te0  1  0.75000000  0.56249100  0.56348000  1
  Te  Te1  1  0.25000000  0.43750900  0.43652000  1
  Te  Te2  1  0.25000000  0.06249100  0.93652000  1
  Te  Te3  1  0.75000000  0.93750900  0.06348000  1
  Te  Te4  1  0.25000000  0.90706300  0.74655800  1
  Te  Te5  1  0.75000000  0.09293700  0.25344200  1
  Te  Te6  1  0.75000000  0.40706300  0.75344200  1
  Te  Te7  1  0.25000000  0.59293700  0.24655800  1
  P  P0  1  0.25000000  0.83194200  0.59587300  1
  P  P1  1  0.75000000  0.16805800  0.40412700  1
  P  P2  1  0.75000000  0.33194200  0.90412700  1
  P  P3  1  0.25000000  0.66805800  0.09587300  1
  P  P4  1  0.50790600  0.96466500  0.43478000  1
  P  P5  1  0.00790600  0.03533500  0.56522000  1
  P  P6  1  0.49209400  0.46466500  0.06522000  1
  P  P7  1  0.99209400  0.53533500  0.93478000  1
  P  P8  1  0.49209400  0.03533500  0.56522000  1
  P  P9  1  0.99209400  0.96466500  0.43478000  1
  P  P10  1  0.50790600  0.53533500  0.93478000  1
  P  P11  1  0.00790600  0.46466500  0.06522000  1
  P  P12  1  0.25000000  0.12049300  0.37871600  1
  P  P13  1  0.75000000  0.87950700  0.62128400  1
  P  P14  1  0.75000000  0.62049300  0.12128400  1
  P  P15  1  0.25000000  0.37950700  0.87871600  1
loop_
_geom_bond_atom_site_label_1
_geom_bond_atom_site_label_2
_geom_bond_distance
_geom_bond_site_symmetry_2
Ba0 P0 3.328849 1_555
Ba0 P8 3.469338 1_555
Ba0 P5 3.469338 1_555
Ba0 Te6 3.604117 1_455
Ba0 Te6 3.604117 1_555
Ba0 P15 3.617039 1_555
Ba0 Te1 3.772190 1_555
Ba0 Te4 3.830829 1_545
Ba0 Te0 3.843748 1_455
Ba0 Te0 3.843748 1_555
Ba0 Te4 3.945531 1_555
Ba1 P1 3.328849 1_555
Ba1 P9 3.469338 1_555
Ba1 P4 3.469338 1_555
Ba1 Te7 3.604117 1_655
Ba1 Te7 3.604117 1_555
Ba1 P14 3.617039 1_555
Ba1 Te0 3.772190 1_555
Ba1 Te5 3.830829 1_565
Ba1 Te1 3.843748 1_655
Ba1 Te1 3.843748 1_555
Ba1 Te5 3.945531 1_555
Ba2 P2 3.328849 1_565
Ba2 P7 3.469338 1_555
Ba2 P10 3.469338 1_555
Ba2 Te4 3.604117 1_555
Ba2 Te4 3.604117 1_655
Ba2 P13 3.617039 1_555
Ba2 Te3 3.772190 1_556
Ba2 Te6 3.830829 1_555
Ba2 Te2 3.843748 1_565
Ba2 Te2 3.843748 1_665
Ba2 Te6 3.945531 1_565
Ba3 P3 3.328849 1_545
Ba3 P6 3.469338 1_555
Ba3 P11 3.469338 1_555
Ba3 Te5 3.604117 1_455
Ba3 Te5 3.604117 1_555
Ba3 P12 3.617039 1_555
Ba3 Te2 3.772190 1_554
Ba3 Te7 3.830829 1_555
Ba3 Te3 3.843748 1_545
Ba3 Te3 3.843748 1_445
Ba3 Te7 3.945531 1_545
Te0 Te6 3.362894 1_555
Te1 Te7 3.362894 1_555
Te2 Te4 3.362894 1_545
Te3 Te5 3.362894 1_565
P0 P8 2.221117 1_565
P0 P5 2.221117 1_565
P0 Te4 2.571771 1_555
P1 P9 2.221117 1_545
P1 P4 2.221117 1_545
P1 Te5 2.571771 1_555
P2 P7 2.221117 1_555
P2 Te6 2.571771 1_555
P3 P6 2.221117 1_555
P3 Te7 2.571771 1_555
P4 P8 2.237641 1_565
P5 P9 2.237641 1_445
P10 P2 2.221117 1_555
P10 P15 2.232997 1_555
P10 P6 2.237641 1_556
P11 P3 2.221117 1_555
P11 P14 2.232997 1_455
P11 P7 2.237641 1_454
P12 P4 2.232997 1_545
P12 P9 2.232997 1_445
P12 Te1 2.491523 1_555
P13 P5 2.232997 1_665
P13 P8 2.232997 1_565
P13 Te0 2.491523 1_555
P14 P6 2.232997 1_555
P14 Te3 2.491523 1_555
P15 P7 2.232997 1_455
P15 Te2 2.491523 1_555
