# generated using pymatgen
data_K2Cd3Ag
_symmetry_space_group_name_H-M   'P 1'
_cell_length_a   6.21724448
_cell_length_b   6.21724499
_cell_length_c   10.02863242
_cell_angle_alpha   90.00000000
_cell_angle_beta   90.00000000
_cell_angle_gamma   120.00000209
_symmetry_Int_Tables_number   1
_chemical_formula_structural   K2Cd3Ag
_chemical_formula_sum   'K4 Cd6 Ag2'
_cell_volume   335.71308021
_cell_formula_units_Z   2
loop_
 _symmetry_equiv_pos_site_id
 _symmetry_equiv_pos_as_xyz
  1  'x, y, z'
loop_
 _atom_site_type_symbol
 _atom_site_label
 _atom_site_symmetry_multiplicity
 _atom_site_fract_x
 _atom_site_fract_y
 _atom_site_fract_z
 _atom_site_occupancy
  K  K0  1  0.33333300  0.66666700  0.05604515  1
  K  K1  1  0.66666700  0.33333300  0.55604515  1
  K  K2  1  0.66666700  0.33333300  0.94395485  1
  K  K3  1  0.33333300  0.66666700  0.44395485  1
  Cd  Cd0  1  0.83839071  0.67678142  0.25000000  1
  Cd  Cd1  1  0.16160929  0.83839071  0.75000000  1
  Cd  Cd2  1  0.67678142  0.83839071  0.75000000  1
  Cd  Cd3  1  0.32321858  0.16160929  0.25000000  1
  Cd  Cd4  1  0.83839071  0.16160929  0.25000000  1
  Cd  Cd5  1  0.16160929  0.32321858  0.75000000  1
  Ag  Ag0  1  0.00000000  0.00000000  0.00000000  1
  Ag  Ag1  1  0.00000000  0.00000000  0.50000000  1
loop_
_geom_bond_atom_site_label_1
_geom_bond_atom_site_label_2
_geom_bond_distance
_geom_bond_site_symmetry_2
Cd0 Cd3 3.014293 1_665
Cd0 Cd4 3.014294 1_565
Cd0 Cd3 3.202951 1_555
Cd0 Cd4 3.202951 1_555
Cd0 K1 3.583255 1_555
Cd0 K2 3.583255 1_554
Cd0 K3 3.667411 1_655
Cd0 K0 3.667411 1_655
Cd0 K3 3.667416 1_555
Cd0 K0 3.667416 1_555
Cd1 Cd2 3.014293 1_455
Cd1 Cd5 3.014294 1_565
Cd1 Cd2 3.202951 1_555
Cd1 Cd5 3.202951 1_555
Cd1 K0 3.583252 1_556
Cd1 K3 3.583252 1_555
Cd1 K2 3.667413 1_565
Cd1 K1 3.667413 1_565
Cd1 K2 3.667413 1_455
Cd1 K1 3.667413 1_455
Cd2 Cd5 3.014293 1_665
Cd2 Cd5 3.202951 1_555
Cd2 K0 3.583255 1_556
Cd2 K3 3.583255 1_555
Cd2 K2 3.667411 1_565
Cd2 K1 3.667411 1_565
Cd2 K2 3.667416 1_555
Cd2 K1 3.667416 1_555
Cd3 Cd4 3.014293 1_455
Cd3 Cd4 3.202951 1_555
Cd3 K1 3.583255 1_555
Cd3 K2 3.583255 1_554
Cd3 K3 3.667411 1_545
Cd3 K0 3.667411 1_545
Cd3 K3 3.667416 1_555
Cd3 K0 3.667416 1_555
Cd4 K1 3.583252 1_555
Cd4 K2 3.583252 1_554
Cd4 K3 3.667413 1_545
Cd4 K0 3.667413 1_545
Cd4 K3 3.667413 1_655
Cd4 K0 3.667413 1_655
Cd5 K0 3.583255 1_556
Cd5 K3 3.583255 1_555
Cd5 K2 3.667411 1_455
Cd5 K1 3.667411 1_455
Cd5 K2 3.667416 1_555
Cd5 K1 3.667416 1_555
Ag0 Cd3 3.051966 1_555
Ag0 Cd2 3.051966 1_444
Ag0 Cd1 3.051966 1_544
Ag0 Cd4 3.051966 1_455
Ag0 Cd5 3.051966 1_554
Ag0 Cd0 3.051966 1_445
Ag0 K0 3.633262 1_545
Ag0 K2 3.633262 1_454
Ag0 K2 3.633267 1_554
Ag0 K0 3.633267 1_445
Ag0 K0 3.633267 1_555
Ag0 K2 3.633267 1_444
Ag1 Cd3 3.051966 1_555
Ag1 Cd2 3.051966 1_445
Ag1 Cd1 3.051966 1_545
Ag1 Cd4 3.051966 1_455
Ag1 Cd5 3.051966 1_555
Ag1 Cd0 3.051966 1_445
Ag1 K1 3.633262 1_455
Ag1 K3 3.633262 1_545
Ag1 K1 3.633267 1_555
Ag1 K3 3.633267 1_445
Ag1 K3 3.633267 1_555
Ag1 K1 3.633267 1_445
