# generated using pymatgen
data_NaTiRhS4
_symmetry_space_group_name_H-M   'P 1'
_cell_length_a   7.14879589
_cell_length_b   7.14879543
_cell_length_c   5.77410630
_cell_angle_alpha   80.61849496
_cell_angle_beta   80.61849468
_cell_angle_gamma   28.39436468
_symmetry_Int_Tables_number   1
_chemical_formula_structural   NaTiRhS4
_chemical_formula_sum   'Na1 Ti1 Rh1 S4'
_cell_volume   138.32727661
_cell_formula_units_Z   1
loop_
 _symmetry_equiv_pos_site_id
 _symmetry_equiv_pos_as_xyz
  1  'x, y, z'
loop_
 _atom_site_type_symbol
 _atom_site_label
 _atom_site_symmetry_multiplicity
 _atom_site_fract_x
 _atom_site_fract_y
 _atom_site_fract_z
 _atom_site_occupancy
  Na  Na0  1  0.24291332  0.24291332  0.87190333  1
  Ti  Ti0  1  0.49611644  0.49611644  0.46314204  1
  Rh  Rh0  1  0.99107658  0.99107658  0.03689069  1
  S  S0  1  0.90121574  0.90121574  0.71754186  1
  S  S1  1  0.38336592  0.38336592  0.21430282  1
  S  S2  1  0.58150018  0.58150018  0.82184547  1
  S  S3  1  0.10481081  0.10481081  0.30737380  1
loop_
_geom_bond_atom_site_label_1
_geom_bond_atom_site_label_2
_geom_bond_distance
_geom_bond_site_symmetry_2
Na0 S0 2.832917 1_455
Na0 S0 2.832917 1_545
Na0 S3 2.892769 1_556
Na0 S2 2.894956 1_545
Na0 S2 2.894956 1_455
Na0 S1 2.998850 1_556
Rh0 S2 2.379799 1_564
Rh0 S2 2.379799 1_654
Rh0 S0 2.392474 1_554
Rh0 S3 2.398419 1_665
Rh0 S1 2.416222 1_655
Rh0 S1 2.416222 1_565
S0 Ti0 2.512444 1_565
S0 Ti0 2.512444 1_655
S1 Ti0 2.293908 1_555
S2 Ti0 2.552414 1_555
S3 Ti0 2.386885 1_545
S3 Ti0 2.386885 1_455
