# generated using pymatgen
data_Hf3Ga2AuC
_symmetry_space_group_name_H-M   'P 1'
_cell_length_a   8.59116006
_cell_length_b   8.59115863
_cell_length_c   8.59116072
_cell_angle_alpha   59.99999569
_cell_angle_beta   60.00000121
_cell_angle_gamma   59.99999963
_symmetry_Int_Tables_number   1
_chemical_formula_structural   Hf3Ga2AuC
_chemical_formula_sum   'Hf12 Ga8 Au4 C4'
_cell_volume   448.37396066
_cell_formula_units_Z   4
loop_
 _symmetry_equiv_pos_site_id
 _symmetry_equiv_pos_as_xyz
  1  'x, y, z'
loop_
 _atom_site_type_symbol
 _atom_site_label
 _atom_site_symmetry_multiplicity
 _atom_site_fract_x
 _atom_site_fract_y
 _atom_site_fract_z
 _atom_site_occupancy
  Hf  Hf0  1  0.43693880  0.43693880  0.06306120  1
  Hf  Hf1  1  0.06306120  0.43693880  0.06306120  1
  Hf  Hf2  1  0.43693880  0.06306120  0.06306120  1
  Hf  Hf3  1  0.06306120  0.06306120  0.43693880  1
  Hf  Hf4  1  0.43693880  0.06306120  0.43693880  1
  Hf  Hf5  1  0.06306120  0.43693880  0.43693880  1
  Hf  Hf6  1  0.81306120  0.81306120  0.18693880  1
  Hf  Hf7  1  0.18693880  0.81306120  0.18693880  1
  Hf  Hf8  1  0.81306120  0.18693880  0.18693880  1
  Hf  Hf9  1  0.18693880  0.18693880  0.81306120  1
  Hf  Hf10  1  0.81306120  0.18693880  0.81306120  1
  Hf  Hf11  1  0.18693880  0.81306120  0.81306120  1
  Ga  Ga0  1  0.83683978  0.83683978  0.48947967  1
  Ga  Ga1  1  0.83683978  0.48947967  0.83683978  1
  Ga  Ga2  1  0.48947967  0.83683978  0.83683978  1
  Ga  Ga3  1  0.83683978  0.83683978  0.83683978  1
  Ga  Ga4  1  0.41316022  0.41316022  0.76052033  1
  Ga  Ga5  1  0.41316022  0.76052033  0.41316022  1
  Ga  Ga6  1  0.76052033  0.41316022  0.41316022  1
  Ga  Ga7  1  0.41316022  0.41316022  0.41316022  1
  Au  Au0  1  0.62500000  0.62500000  0.12500000  1
  Au  Au1  1  0.62500000  0.12500000  0.62500000  1
  Au  Au2  1  0.12500000  0.62500000  0.62500000  1
  Au  Au3  1  0.62500000  0.62500000  0.62500000  1
  C  C0  1  0.12500000  0.12500000  0.62500000  1
  C  C1  1  0.12500000  0.62500000  0.12500000  1
  C  C2  1  0.62500000  0.12500000  0.12500000  1
  C  C3  1  0.12500000  0.12500000  0.12500000  1
loop_
_geom_bond_atom_site_label_1
_geom_bond_atom_site_label_2
_geom_bond_distance
_geom_bond_site_symmetry_2
Ga0 Hf6 2.818310 1_555
Ga0 Hf8 2.818314 1_565
Ga0 Hf7 2.818314 1_655
Ga1 Hf10 2.818309 1_555
Ga1 Hf8 2.818314 1_556
Ga1 Hf9 2.818314 1_655
Ga2 Hf11 2.818309 1_555
Ga2 Hf9 2.818314 1_565
Ga2 Hf7 2.818314 1_556
Ga3 Hf10 2.818317 1_565
Ga3 Hf11 2.818318 1_655
Ga3 Hf6 2.818318 1_556
Ga4 Hf0 2.818310 1_556
Ga4 Hf2 2.818314 1_556
Ga4 Hf1 2.818314 1_556
Ga5 Hf4 2.818309 1_565
Ga5 Hf2 2.818314 1_565
Ga5 Hf3 2.818314 1_565
Ga6 Hf5 2.818309 1_655
Ga6 Hf3 2.818314 1_655
Ga6 Hf1 2.818314 1_655
Ga7 Hf4 2.818317 1_555
Ga7 Hf5 2.818318 1_555
Ga7 Hf0 2.818318 1_555
Au0 Ga3 2.656002 1_554
Au0 Ga7 2.656002 1_555
Au0 Ga6 2.656007 1_555
Au0 Ga2 2.656007 1_554
Au0 Ga5 2.656008 1_555
Au0 Ga1 2.656008 1_554
Au0 Hf2 3.135879 1_565
Au0 Hf8 3.135879 1_555
Au0 Hf6 3.135879 1_555
Au0 Hf0 3.135879 1_555
Au0 Hf1 3.135880 1_655
Au0 Hf7 3.135880 1_555
Au1 Ga3 2.656002 1_545
Au1 Ga7 2.656002 1_555
Au1 Ga6 2.656007 1_555
Au1 Ga2 2.656007 1_545
Au1 Ga4 2.656007 1_555
Au1 Ga0 2.656007 1_545
Au1 Hf10 3.135880 1_555
Au1 Hf4 3.135880 1_555
Au1 Hf3 3.135880 1_655
Au1 Hf9 3.135880 1_555
Au1 Hf2 3.135880 1_556
Au1 Hf8 3.135880 1_555
Au2 Ga3 2.656003 1_455
Au2 Ga7 2.656003 1_555
Au2 Ga5 2.656007 1_555
Au2 Ga1 2.656007 1_455
Au2 Ga4 2.656007 1_555
Au2 Ga0 2.656007 1_455
Au2 Hf3 3.135879 1_565
Au2 Hf9 3.135879 1_555
Au2 Hf11 3.135880 1_555
Au2 Hf5 3.135880 1_555
Au2 Hf1 3.135880 1_556
Au2 Hf7 3.135880 1_555
Au3 Ga0 2.656000 1_555
Au3 Ga4 2.656000 1_555
Au3 Ga2 2.656000 1_555
Au3 Ga6 2.656000 1_555
Au3 Ga1 2.656001 1_555
Au3 Ga5 2.656001 1_555
Au3 Hf4 3.135879 1_565
Au3 Hf10 3.135879 1_555
Au3 Hf5 3.135880 1_655
Au3 Hf11 3.135880 1_555
Au3 Hf0 3.135880 1_556
Au3 Hf6 3.135880 1_555
C0 Hf5 2.275811 1_555
C0 Hf11 2.275811 1_545
C0 Hf9 2.275812 1_555
C0 Hf3 2.275812 1_555
C0 Hf4 2.275812 1_555
C0 Hf10 2.275812 1_455
C1 Hf7 2.275811 1_555
C1 Hf1 2.275811 1_555
C1 Hf0 2.275812 1_555
C1 Hf6 2.275812 1_455
C1 Hf5 2.275812 1_555
C1 Hf11 2.275812 1_554
C2 Hf0 2.275811 1_555
C2 Hf6 2.275811 1_545
C2 Hf8 2.275812 1_555
C2 Hf2 2.275812 1_555
C2 Hf4 2.275812 1_555
C2 Hf10 2.275812 1_554
C3 Hf1 2.275811 1_555
C3 Hf7 2.275811 1_545
C3 Hf2 2.275812 1_555
C3 Hf8 2.275812 1_455
C3 Hf3 2.275812 1_555
C3 Hf9 2.275812 1_554
