# generated using pymatgen
data_Cu3Bi2AuO8
_symmetry_space_group_name_H-M   'P 1'
_cell_length_a   6.44052194
_cell_length_b   6.34145882
_cell_length_c   6.41003534
_cell_angle_alpha   125.57061529
_cell_angle_beta   125.73898962
_cell_angle_gamma   78.74667795
_symmetry_Int_Tables_number   1
_chemical_formula_structural   Cu3Bi2AuO8
_chemical_formula_sum   'Cu3 Bi2 Au1 O8'
_cell_volume   168.64938852
_cell_formula_units_Z   1
loop_
 _symmetry_equiv_pos_site_id
 _symmetry_equiv_pos_as_xyz
  1  'x, y, z'
loop_
 _atom_site_type_symbol
 _atom_site_label
 _atom_site_symmetry_multiplicity
 _atom_site_fract_x
 _atom_site_fract_y
 _atom_site_fract_z
 _atom_site_occupancy
  Cu  Cu0  1  0.87500000  0.62500000  0.25000000  1
  Cu  Cu1  1  0.37500000  0.62500000  0.75000000  1
  Cu  Cu2  1  0.37500000  0.62500000  0.25000000  1
  Bi  Bi0  1  0.00570066  0.98958784  0.99756259  1
  Bi  Bi1  1  0.74429934  0.26041216  0.50243741  1
  Au  Au0  1  0.37500000  0.12500000  0.75000000  1
  O  O0  1  0.40439586  0.82629647  0.13856493  1
  O  O1  1  0.69832547  0.27691061  0.86373678  1
  O  O2  1  0.34560414  0.42370353  0.36143507  1
  O  O3  1  0.05167453  0.97308939  0.63626322  1
  O  O4  1  0.02195809  0.64273421  0.06087996  1
  O  O5  1  0.60368909  0.94112923  0.94851751  1
  O  O6  1  0.14631091  0.30887077  0.55148249  1
  O  O7  1  0.72804191  0.60726579  0.43912004  1
loop_
_geom_bond_atom_site_label_1
_geom_bond_atom_site_label_2
_geom_bond_distance
_geom_bond_site_symmetry_2
Cu0 O3 1.904820 1_655
Cu0 O1 1.904820 1_554
Cu0 O4 1.979545 1_655
Cu0 O7 1.979545 1_555
Cu1 O2 1.927035 1_555
Cu1 O0 1.927035 1_556
Cu1 O5 1.950030 1_555
Cu1 O6 1.950030 1_555
Cu2 O0 1.867801 1_555
Cu2 O2 1.867801 1_555
Cu2 O7 1.868443 1_555
Cu2 O4 1.868443 1_555
Bi0 O0 2.413024 1_556
Bi0 O4 2.431630 1_556
Bi0 O3 2.443213 1_555
Bi0 O7 2.450924 1_455
Bi0 O6 2.474311 1_566
Bi0 O5 2.478769 1_455
Bi0 O1 2.530129 1_465
Bi0 O2 2.593891 1_566
Bi1 O2 2.413024 1_555
Bi1 O7 2.431630 1_555
Bi1 O1 2.443213 1_555
Bi1 O4 2.450924 1_656
Bi1 O5 2.474311 1_544
Bi1 O6 2.478769 1_655
Bi1 O3 2.530129 1_645
Bi1 O0 2.593891 1_545
Au0 O1 1.997048 1_555
Au0 O3 1.997048 1_545
Au0 O5 2.003664 1_545
Au0 O6 2.003664 1_555
