# generated using pymatgen
data_Ba2AlSiI
_symmetry_space_group_name_H-M   'P 1'
_cell_length_a   4.41205236
_cell_length_b   4.41205398
_cell_length_c   20.16347909
_cell_angle_alpha   90.00000000
_cell_angle_beta   90.00000000
_cell_angle_gamma   120.00001768
_symmetry_Int_Tables_number   1
_chemical_formula_structural   Ba2AlSiI
_chemical_formula_sum   'Ba4 Al2 Si2 I2'
_cell_volume   339.92061042
_cell_formula_units_Z   2
loop_
 _symmetry_equiv_pos_site_id
 _symmetry_equiv_pos_as_xyz
  1  'x, y, z'
loop_
 _atom_site_type_symbol
 _atom_site_label
 _atom_site_symmetry_multiplicity
 _atom_site_fract_x
 _atom_site_fract_y
 _atom_site_fract_z
 _atom_site_occupancy
  Ba  Ba0  1  0.00000000  0.00000000  0.37964461  1
  Ba  Ba1  1  0.00000000  0.00000000  0.87964461  1
  Ba  Ba2  1  0.00000000  0.00000000  0.62067837  1
  Ba  Ba3  1  0.00000000  0.00000000  0.12067837  1
  Al  Al0  1  0.33333300  0.66666700  0.50927329  1
  Al  Al1  1  0.66666700  0.33333300  0.00927329  1
  Si  Si0  1  0.66666700  0.33333300  0.48954160  1
  Si  Si1  1  0.33333300  0.66666700  0.98954160  1
  I  I0  1  0.33333300  0.66666700  0.25086213  1
  I  I1  1  0.66666700  0.33333300  0.75086213  1
loop_
_geom_bond_atom_site_label_1
_geom_bond_atom_site_label_2
_geom_bond_distance
_geom_bond_site_symmetry_2
Ba0 Si0 3.376235 1_455
Ba0 Si0 3.376237 1_555
Ba0 Si0 3.376238 1_445
Ba0 I0 3.637525 1_545
Ba0 I0 3.637527 1_445
Ba0 I0 3.637528 1_555
Ba1 Si1 3.376235 1_545
Ba1 Si1 3.376237 1_445
Ba1 Si1 3.376238 1_555
Ba1 I1 3.637525 1_455
Ba1 I1 3.637527 1_555
Ba1 I1 3.637528 1_445
Ba2 I1 3.657749 1_455
Ba2 I1 3.657751 1_555
Ba2 I1 3.657752 1_445
Ba2 Si0 3.671564 1_455
Ba2 Si0 3.671566 1_555
Ba2 Si0 3.671566 1_445
Ba3 I0 3.657749 1_545
Ba3 I0 3.657751 1_445
Ba3 I0 3.657752 1_555
Ba3 Si1 3.671564 1_544
Ba3 Si1 3.671566 1_444
Ba3 Si1 3.671566 1_554
Al0 Si0 2.578180 1_455
Al0 Si0 2.578181 1_565
Al0 Si0 2.578189 1_555
Al0 Ba2 3.396270 1_565
Al0 Ba2 3.396272 1_665
Al0 Ba2 3.396273 1_555
Al0 Ba0 3.649725 1_565
Al0 Ba0 3.649727 1_665
Al0 Ba0 3.649728 1_555
Al1 Si1 2.578180 1_654
Al1 Si1 2.578181 1_544
Al1 Si1 2.578189 1_554
Al1 Ba3 3.396270 1_655
Al1 Ba3 3.396272 1_555
Al1 Ba3 3.396273 1_665
Al1 Ba1 3.649725 1_654
Al1 Ba1 3.649727 1_554
Al1 Ba1 3.649728 1_664
