# generated using pymatgen
data_Zr6Zn7AsAu16
_symmetry_space_group_name_H-M   'P 1'
_cell_length_a   9.03723528
_cell_length_b   9.03723520
_cell_length_c   9.03723665
_cell_angle_alpha   60.00000178
_cell_angle_beta   60.00000206
_cell_angle_gamma   59.99999905
_symmetry_Int_Tables_number   1
_chemical_formula_structural   Zr6Zn7AsAu16
_chemical_formula_sum   'Zr6 Zn7 As1 Au16'
_cell_volume   521.90546052
_cell_formula_units_Z   1
loop_
 _symmetry_equiv_pos_site_id
 _symmetry_equiv_pos_as_xyz
  1  'x, y, z'
loop_
 _atom_site_type_symbol
 _atom_site_label
 _atom_site_symmetry_multiplicity
 _atom_site_fract_x
 _atom_site_fract_y
 _atom_site_fract_z
 _atom_site_occupancy
  Zr  Zr0  1  0.71462309  0.28537691  0.28537691  1
  Zr  Zr1  1  0.28537691  0.71462309  0.71462309  1
  Zr  Zr2  1  0.28537691  0.71462309  0.28537691  1
  Zr  Zr3  1  0.71462309  0.28537691  0.71462309  1
  Zr  Zr4  1  0.28537691  0.28537691  0.71462309  1
  Zr  Zr5  1  0.71462309  0.71462309  0.28537691  1
  Zn  Zn0  1  0.50000000  0.00000000  0.00000000  1
  Zn  Zn1  1  0.00000000  0.50000000  0.50000000  1
  Zn  Zn2  1  0.00000000  0.50000000  0.00000000  1
  Zn  Zn3  1  0.50000000  0.00000000  0.50000000  1
  Zn  Zn4  1  0.00000000  0.00000000  0.50000000  1
  Zn  Zn5  1  0.50000000  0.50000000  0.00000000  1
  Zn  Zn6  1  0.00000000  0.00000000  0.00000000  1
  As  As0  1  0.50000000  0.50000000  0.50000000  1
  Au  Au0  1  0.11841180  0.11841180  0.11841180  1
  Au  Au1  1  0.88158820  0.88158820  0.88158820  1
  Au  Au2  1  0.11841180  0.11841180  0.64476559  1
  Au  Au3  1  0.11841180  0.64476559  0.11841180  1
  Au  Au4  1  0.88158820  0.88158820  0.35523441  1
  Au  Au5  1  0.88158820  0.35523441  0.88158820  1
  Au  Au6  1  0.64476559  0.11841180  0.11841180  1
  Au  Au7  1  0.35523441  0.88158820  0.88158820  1
  Au  Au8  1  0.34257458  0.34257458  0.34257458  1
  Au  Au9  1  0.65742542  0.65742542  0.65742542  1
  Au  Au10  1  0.34257458  0.34257458  0.97227727  1
  Au  Au11  1  0.34257458  0.97227727  0.34257458  1
  Au  Au12  1  0.65742542  0.65742542  0.02772273  1
  Au  Au13  1  0.65742542  0.02772273  0.65742542  1
  Au  Au14  1  0.97227727  0.34257458  0.34257458  1
  Au  Au15  1  0.02772273  0.65742542  0.65742542  1
loop_
_geom_bond_atom_site_label_1
_geom_bond_atom_site_label_2
_geom_bond_distance
_geom_bond_site_symmetry_2
As0 Zr5 2.743008 1_555
As0 Zr4 2.743008 1_555
As0 Zr3 2.743008 1_555
As0 Zr1 2.743008 1_555
As0 Zr2 2.743008 1_555
As0 Zr0 2.743008 1_555
Au0 Zn6 2.621237 1_555
Au0 Zn2 2.819046 1_555
Au0 Zn0 2.819046 1_555
Au0 Zn4 2.819046 1_555
Au0 Zr2 3.022278 1_545
Au0 Zr0 3.022278 1_455
Au0 Zr4 3.022278 1_554
Au1 Zn6 2.621237 1_666
Au1 Zn2 2.819046 1_656
Au1 Zn0 2.819046 1_566
Au1 Zn4 2.819046 1_665
Au1 Zr3 3.022278 1_565
Au1 Zr1 3.022278 1_655
Au1 Zr5 3.022278 1_556
Au2 Zn6 2.621230 1_556
Au2 Zn1 2.819046 1_555
Au2 Zn3 2.819046 1_555
Au2 Zn4 2.819053 1_555
Au2 Zr4 3.022272 1_555
Au2 Zr1 3.022279 1_545
Au2 Zr3 3.022279 1_455
Au3 Zn6 2.621229 1_565
Au3 Zn5 2.819046 1_555
Au3 Zn1 2.819047 1_555
Au3 Zn2 2.819053 1_555
Au3 Zr2 3.022272 1_555
Au3 Zr5 3.022279 1_455
Au3 Zr1 3.022280 1_554
Au4 Zn6 2.621230 1_665
Au4 Zn1 2.819046 1_655
Au4 Zn3 2.819046 1_565
Au4 Zn4 2.819053 1_665
Au4 Zr5 3.022272 1_555
Au4 Zr0 3.022279 1_565
Au4 Zr2 3.022279 1_655
Au5 Zn6 2.621229 1_656
Au5 Zn5 2.819046 1_556
Au5 Zn1 2.819047 1_655
Au5 Zn2 2.819053 1_656
Au5 Zr3 3.022272 1_555
Au5 Zr4 3.022279 1_655
Au5 Zr0 3.022280 1_556
Au6 Zn6 2.621229 1_655
Au6 Zn5 2.819046 1_555
Au6 Zn3 2.819047 1_555
Au6 Zn0 2.819053 1_555
Au6 Zr0 3.022272 1_555
Au6 Zr5 3.022279 1_545
Au6 Zr3 3.022280 1_554
Au7 Zn6 2.621229 1_566
Au7 Zn5 2.819046 1_556
Au7 Zn3 2.819047 1_565
Au7 Zn0 2.819053 1_566
Au7 Zr1 3.022272 1_555
Au7 Zr4 3.022279 1_565
Au7 Zr2 3.022280 1_556
Au8 Zn3 2.616833 1_555
Au8 Zn1 2.616833 1_555
Au8 Zn5 2.616834 1_555
Au8 Zr2 2.937785 1_555
Au8 Zr0 2.937785 1_555
Au8 Zr4 2.937786 1_555
Au9 Zn3 2.616833 1_565
Au9 Zn1 2.616833 1_655
Au9 Zn5 2.616834 1_556
Au9 Zr3 2.937785 1_555
Au9 Zr1 2.937785 1_555
Au9 Zr5 2.937786 1_555
Au10 Zn5 2.616828 1_556
Au10 Zn0 2.616835 1_556
Au10 Zn2 2.616835 1_556
Au10 Zr1 2.937788 1_555
Au10 Zr3 2.937788 1_555
Au10 Zr4 2.937795 1_555
Au11 Zn3 2.616828 1_565
Au11 Zn4 2.616836 1_565
Au11 Zn0 2.616836 1_565
Au11 Zr5 2.937788 1_555
Au11 Zr1 2.937789 1_555
Au11 Zr2 2.937794 1_555
Au12 Zn5 2.616828 1_555
Au12 Zn0 2.616835 1_565
Au12 Zn2 2.616835 1_655
Au12 Zr0 2.937788 1_555
Au12 Zr2 2.937788 1_555
Au12 Zr5 2.937795 1_555
Au13 Zn3 2.616828 1_555
Au13 Zn4 2.616836 1_655
Au13 Zn0 2.616836 1_556
Au13 Zr4 2.937788 1_555
Au13 Zr0 2.937789 1_555
Au13 Zr3 2.937794 1_555
Au14 Zn1 2.616828 1_655
Au14 Zn4 2.616835 1_655
Au14 Zn2 2.616836 1_655
Au14 Zr5 2.937788 1_555
Au14 Zr3 2.937789 1_555
Au14 Zr0 2.937794 1_555
Au15 Zn1 2.616828 1_555
Au15 Zn4 2.616835 1_565
Au15 Zn2 2.616836 1_556
Au15 Zr4 2.937788 1_555
Au15 Zr2 2.937789 1_555
Au15 Zr1 2.937794 1_555
