# generated using pymatgen
data_Cr3Ag2PdSe8
_symmetry_space_group_name_H-M   'P 1'
_cell_length_a   7.62041729
_cell_length_b   7.62041717
_cell_length_c   7.62041739
_cell_angle_alpha   58.87242475
_cell_angle_beta   58.87242308
_cell_angle_gamma   58.87241474
_symmetry_Int_Tables_number   1
_chemical_formula_structural   Cr3Ag2PdSe8
_chemical_formula_sum   'Cr3 Ag2 Pd1 Se8'
_cell_volume   304.85707406
_cell_formula_units_Z   1
loop_
 _symmetry_equiv_pos_site_id
 _symmetry_equiv_pos_as_xyz
  1  'x, y, z'
loop_
 _atom_site_type_symbol
 _atom_site_label
 _atom_site_symmetry_multiplicity
 _atom_site_fract_x
 _atom_site_fract_y
 _atom_site_fract_z
 _atom_site_occupancy
  Cr  Cr0  1  0.50000000  0.00000000  0.50000000  1
  Cr  Cr1  1  0.50000000  0.50000000  0.00000000  1
  Cr  Cr2  1  0.00000000  0.50000000  0.50000000  1
  Ag  Ag0  1  0.12865672  0.12865672  0.12865672  1
  Ag  Ag1  1  0.87134328  0.87134328  0.87134328  1
  Pd  Pd0  1  0.50000000  0.50000000  0.50000000  1
  Se  Se0  1  0.26274629  0.70981192  0.26274629  1
  Se  Se1  1  0.73725371  0.73725371  0.29018808  1
  Se  Se2  1  0.29018808  0.73725371  0.73725371  1
  Se  Se3  1  0.73598064  0.73598064  0.73598064  1
  Se  Se4  1  0.70981192  0.26274629  0.26274629  1
  Se  Se5  1  0.26401936  0.26401936  0.26401936  1
  Se  Se6  1  0.73725371  0.29018808  0.73725371  1
  Se  Se7  1  0.26274629  0.26274629  0.70981192  1
loop_
_geom_bond_atom_site_label_1
_geom_bond_atom_site_label_2
_geom_bond_distance
_geom_bond_site_symmetry_2
Cr0 Se3 2.525385 1_545
Cr0 Se5 2.525385 1_555
Cr0 Se7 2.532292 1_555
Cr0 Se1 2.532292 1_545
Cr0 Se4 2.532292 1_555
Cr0 Se2 2.532292 1_545
Cr1 Se3 2.525386 1_554
Cr1 Se5 2.525386 1_555
Cr1 Se0 2.532292 1_555
Cr1 Se6 2.532292 1_554
Cr1 Se4 2.532292 1_555
Cr1 Se2 2.532292 1_554
Cr2 Se3 2.525385 1_455
Cr2 Se5 2.525385 1_555
Cr2 Se7 2.532292 1_555
Cr2 Se1 2.532292 1_455
Cr2 Se0 2.532292 1_555
Cr2 Se6 2.532292 1_455
Ag0 Se5 2.548015 1_555
Ag0 Se0 2.571234 1_545
Ag0 Se4 2.571234 1_455
Ag0 Se7 2.571235 1_554
Ag1 Se3 2.548015 1_555
Ag1 Se6 2.571234 1_565
Ag1 Se2 2.571234 1_655
Ag1 Se1 2.571235 1_556
Pd0 Se2 2.548745 1_555
Pd0 Se4 2.548745 1_555
Pd0 Se6 2.548745 1_555
Pd0 Se0 2.548745 1_555
Pd0 Se1 2.548746 1_555
Pd0 Se7 2.548746 1_555
