# generated using pymatgen
data_Rb2ZnI3
_symmetry_space_group_name_H-M   'P 1'
_cell_length_a   8.62358400
_cell_length_b   7.13413600
_cell_length_c   10.39395839
_cell_angle_alpha   74.89673424
_cell_angle_beta   90.00000000
_cell_angle_gamma   90.00000000
_symmetry_Int_Tables_number   1
_chemical_formula_structural   Rb2ZnI3
_chemical_formula_sum   'Rb4 Zn2 I6'
_cell_volume   617.36704480
_cell_formula_units_Z   2
loop_
 _symmetry_equiv_pos_site_id
 _symmetry_equiv_pos_as_xyz
  1  'x, y, z'
loop_
 _atom_site_type_symbol
 _atom_site_label
 _atom_site_symmetry_multiplicity
 _atom_site_fract_x
 _atom_site_fract_y
 _atom_site_fract_z
 _atom_site_occupancy
  Rb  Rb0  1  0.75000000  0.33900200  0.96648400  1
  Rb  Rb1  1  0.75000000  0.82504100  0.40906000  1
  Rb  Rb2  1  0.25000000  0.17495900  0.59094000  1
  Rb  Rb3  1  0.25000000  0.66099800  0.03351600  1
  Zn  Zn0  1  0.25000000  0.06346400  0.21736700  1
  Zn  Zn1  1  0.75000000  0.93653600  0.78263300  1
  I  I0  1  0.25000000  0.19559800  0.93760000  1
  I  I1  1  0.99877100  0.73473900  0.71064300  1
  I  I2  1  0.50122900  0.73473900  0.71064300  1
  I  I3  1  0.49877100  0.26526100  0.28935700  1
  I  I4  1  0.00122900  0.26526100  0.28935700  1
  I  I5  1  0.75000000  0.80440200  0.06240000  1
loop_
_geom_bond_atom_site_label_1
_geom_bond_atom_site_label_2
_geom_bond_distance
_geom_bond_site_symmetry_2
Rb0 Zn1 3.841226 1_545
Rb3 Zn0 3.841226 1_565
I0 Zn0 2.813529 1_556
I0 Rb2 3.644308 1_555
I0 Rb3 3.682170 1_546
I0 Rb3 3.707123 1_556
I1 Zn1 2.792158 1_555
I1 Rb1 3.713616 1_555
I1 Rb2 3.750832 1_665
I1 Rb3 3.913143 1_656
I1 Rb0 3.966359 1_555
I2 Zn1 2.792158 1_555
I2 Rb1 3.713616 1_555
I2 Rb2 3.750832 1_565
I2 Rb3 3.913143 1_556
I2 Rb0 3.966359 1_555
I3 Zn0 2.792158 1_555
I3 Rb2 3.713616 1_555
I3 Rb1 3.750832 1_545
I3 Rb0 3.913143 1_554
I3 Rb3 3.966359 1_555
I4 Zn0 2.792158 1_555
I4 Rb2 3.713616 1_555
I4 Rb1 3.750832 1_445
I4 Rb0 3.913143 1_454
I4 Rb3 3.966359 1_555
I5 Zn1 2.813529 1_554
I5 Rb1 3.644308 1_555
I5 Rb0 3.682170 1_564
I5 Rb0 3.707123 1_554
