# generated using pymatgen
data_LiTa5(SiOs)6
_symmetry_space_group_name_H-M   'P 1'
_cell_length_a   7.41531377
_cell_length_b   7.39149392
_cell_length_c   7.41531617
_cell_angle_alpha   127.61854568
_cell_angle_beta   121.76929963
_cell_angle_gamma   82.21964284
_symmetry_Int_Tables_number   1
_chemical_formula_structural   LiTa5(SiOs)6
_chemical_formula_sum   'Li1 Ta5 Si6 Os6'
_cell_volume   263.05313935
_cell_formula_units_Z   1
loop_
 _symmetry_equiv_pos_site_id
 _symmetry_equiv_pos_as_xyz
  1  'x, y, z'
loop_
 _atom_site_type_symbol
 _atom_site_label
 _atom_site_symmetry_multiplicity
 _atom_site_fract_x
 _atom_site_fract_y
 _atom_site_fract_z
 _atom_site_occupancy
  Li  Li0  1  0.52178771  0.03419483  0.01240911  1
  Ta  Ta0  1  0.46971229  0.49184752  0.52213524  1
  Ta  Ta1  1  0.94927484  0.49386671  0.04459187  1
  Ta  Ta2  1  0.05867532  0.09769807  0.53902374  1
  Ta  Ta3  1  0.74788036  0.91244351  0.66456315  1
  Ta  Ta4  1  0.24975462  0.92342556  0.17367094  1
  Si  Si0  1  0.70720969  0.46971321  0.26250252  1
  Si  Si1  1  0.28090323  0.52641552  0.74551230  1
  Si  Si2  1  0.33479779  0.83422520  0.50610524  1
  Si  Si3  1  0.67129230  0.16064586  0.48890723  1
  Si  Si4  1  0.82811996  0.83422520  0.99942741  1
  Si  Si5  1  0.17173763  0.16064586  0.98935356  1
  Os  Os0  1  0.52161300  0.24994556  0.76698846  1
  Os  Os1  1  0.98295610  0.24994556  0.22833257  1
  Os  Os2  1  0.08684554  0.74632511  0.58305450  1
  Os  Os3  1  0.91512022  0.50515481  0.66610602  1
  Os  Os4  1  0.66327061  0.74632511  0.15948057  1
  Os  Os5  1  0.33904779  0.50515481  0.09003458  1
loop_
_geom_bond_atom_site_label_1
_geom_bond_atom_site_label_2
_geom_bond_distance
_geom_bond_site_symmetry_2
Li0 Si4 2.549786 1_544
Li0 Si2 2.549797 1_544
Li0 Si3 2.590648 1_555
Li0 Si5 2.590664 1_554
Li0 Si0 2.630171 1_555
Li0 Os4 2.800218 1_545
Li0 Os2 2.800223 1_544
Li0 Os1 3.065115 1_555
Li0 Os0 3.065130 1_554
Si0 Ta3 2.664258 1_555
Si1 Ta0 2.568597 1_555
Si1 Ta2 2.816947 1_555
Si1 Ta4 2.821257 1_556
Si2 Ta2 2.628861 1_565
Si2 Ta3 2.637780 1_555
Si2 Ta0 2.641189 1_555
Si2 Ta4 2.672788 1_555
Si2 Ta1 2.710745 1_455
Si3 Ta0 2.636062 1_555
Si3 Ta4 2.663760 1_545
Si3 Ta3 2.690926 1_545
Si3 Ta2 2.707645 1_655
Si3 Ta1 2.708370 1_556
Si4 Ta2 2.628867 1_666
Si4 Ta3 2.637781 1_555
Si4 Ta0 2.641189 1_555
Si4 Ta4 2.672787 1_656
Si4 Ta1 2.710745 1_556
Si5 Ta0 2.636063 1_556
Si5 Ta4 2.663760 1_546
Si5 Ta3 2.690919 1_445
Si5 Ta2 2.707643 1_555
Si5 Ta1 2.708366 1_456
Os0 Si0 2.455135 1_556
Os0 Si2 2.485385 1_545
Os0 Si3 2.543570 1_555
Os0 Si1 2.549069 1_555
Os0 Ta3 2.740587 1_545
Os0 Ta1 2.772726 1_556
Os0 Os4 2.797066 1_556
Os0 Ta4 2.874112 1_545
Os0 Os5 2.887274 1_556
Os0 Ta2 2.919131 1_555
Os0 Ta0 3.111735 1_555
Os1 Si0 2.455133 1_555
Os1 Si4 2.485383 1_544
Os1 Si5 2.543570 1_654
Os1 Si1 2.549071 1_655
Os1 Ta3 2.740588 1_544
Os1 Ta1 2.772729 1_555
Os1 Os2 2.797066 1_655
Os1 Ta4 2.874116 1_645
Os1 Os3 2.887264 1_555
Os1 Ta2 2.919135 1_655
Os1 Ta0 3.111740 1_655
Os2 Si2 2.451345 1_555
Os2 Si1 2.468987 1_555
Os2 Si5 2.472442 1_565
Os2 Si0 2.516832 1_455
Os2 Ta1 2.756089 1_455
Os2 Ta2 2.777057 1_565
Os2 Ta3 2.837063 1_455
Os3 Si0 2.386669 1_555
Os3 Si1 2.459507 1_655
Os3 Si3 2.477919 1_555
Os3 Si4 2.521200 1_555
Os3 Ta1 2.734909 1_556
Os3 Ta2 2.795558 1_655
Os3 Ta4 2.814023 1_656
Os3 Ta0 2.881835 1_555
Os4 Si4 2.451352 1_554
Os4 Si1 2.468989 1_554
Os4 Si3 2.472439 1_565
Os4 Si0 2.516823 1_555
Os4 Ta1 2.756090 1_555
Os4 Ta2 2.777062 1_665
Os4 Ta3 2.837057 1_555
Os5 Si0 2.386668 1_555
Os5 Si1 2.459510 1_554
Os5 Si5 2.477919 1_554
Os5 Si2 2.521196 1_555
Os5 Ta1 2.734901 1_455
Os5 Ta2 2.795553 1_554
Os5 Ta4 2.814022 1_555
Os5 Ta0 2.881835 1_555
