# generated using pymatgen
data_Cs2NaYSb2
_symmetry_space_group_name_H-M   'P 1'
_cell_length_a   11.60144393
_cell_length_b   11.60153726
_cell_length_c   7.57230184
_cell_angle_alpha   90.00000000
_cell_angle_beta   90.00000000
_cell_angle_gamma   99.49555558
_symmetry_Int_Tables_number   1
_chemical_formula_structural   Cs2NaYSb2
_chemical_formula_sum   'Cs8 Na4 Y4 Sb8'
_cell_volume   1005.22627237
_cell_formula_units_Z   4
loop_
 _symmetry_equiv_pos_site_id
 _symmetry_equiv_pos_as_xyz
  1  'x, y, z'
loop_
 _atom_site_type_symbol
 _atom_site_label
 _atom_site_symmetry_multiplicity
 _atom_site_fract_x
 _atom_site_fract_y
 _atom_site_fract_z
 _atom_site_occupancy
  Cs  Cs0  1  0.06845716  0.43154439  0.25000174  1
  Cs  Cs1  1  0.43154481  0.06845618  0.75000064  1
  Cs  Cs2  1  0.93154481  0.56845618  0.74999936  1
  Cs  Cs3  1  0.56845716  0.93154439  0.24999826  1
  Cs  Cs4  1  0.67894910  0.32105119  0.21021766  1
  Cs  Cs5  1  0.82105250  0.17894915  0.71021735  1
  Cs  Cs6  1  0.32105250  0.67894915  0.78978265  1
  Cs  Cs7  1  0.17894910  0.82105119  0.28978234  1
  Na  Na0  1  0.38246433  0.38246110  0.00000466  1
  Na  Na1  1  0.11753862  0.11754083  0.50000489  1
  Na  Na2  1  0.61753862  0.61754083  0.99999511  1
  Na  Na3  1  0.88246433  0.88246110  0.49999534  1
  Y  Y0  1  0.13101312  0.13100848  0.00000793  1
  Y  Y1  1  0.36898391  0.36898764  0.50000813  1
  Y  Y2  1  0.86898391  0.86898764  0.99999187  1
  Y  Y3  1  0.63101312  0.63100848  0.49999207  1
  Sb  Sb0  1  0.84106463  0.65892359  0.24998118  1
  Sb  Sb1  1  0.65892979  0.84107680  0.74995466  1
  Sb  Sb2  1  0.15892979  0.34107680  0.75004534  1
  Sb  Sb3  1  0.34106463  0.15892359  0.25001882  1
  Sb  Sb4  1  0.90557622  0.09442136  0.21303399  1
  Sb  Sb5  1  0.59442480  0.40557828  0.71303402  1
  Sb  Sb6  1  0.09442480  0.90557828  0.78696598  1
  Sb  Sb7  1  0.40557622  0.59442136  0.28696601  1
loop_
_geom_bond_atom_site_label_1
_geom_bond_atom_site_label_2
_geom_bond_distance
_geom_bond_site_symmetry_2
Cs0 Sb0 4.026705 1_455
Cs0 Sb7 4.062888 1_555
Cs0 Sb4 4.062967 1_455
Cs0 Sb2 4.110862 1_554
Cs0 Sb2 4.111470 1_555
Cs1 Sb1 4.026640 1_545
Cs1 Sb6 4.062901 1_545
Cs1 Sb5 4.062954 1_555
Cs1 Sb3 4.111065 1_555
Cs1 Sb3 4.111318 1_556
Cs2 Sb2 4.026640 1_655
Cs2 Sb5 4.062901 1_555
Cs2 Sb6 4.062954 1_655
Cs2 Sb0 4.111065 1_556
Cs2 Sb0 4.111318 1_555
Cs3 Sb3 4.026705 1_565
Cs3 Sb4 4.062888 1_565
Cs3 Sb7 4.062967 1_555
Cs3 Sb1 4.110862 1_555
Cs3 Sb1 4.111470 1_554
Cs4 Sb4 4.013350 1_555
Cs4 Sb5 4.051473 1_554
Cs4 Sb0 4.069480 1_555
Cs4 Sb3 4.069645 1_555
Cs4 Sb5 4.091138 1_555
Cs5 Sb5 4.013348 1_555
Cs5 Sb4 4.051471 1_555
Cs5 Sb1 4.069490 1_545
Cs5 Sb2 4.069586 1_655
Cs5 Sb4 4.091140 1_556
Cs6 Sb6 4.013348 1_555
Cs6 Sb7 4.051471 1_556
Cs6 Sb2 4.069490 1_555
Cs6 Sb1 4.069586 1_555
Cs6 Sb7 4.091140 1_555
Cs7 Sb7 4.013350 1_555
Cs7 Sb6 4.051473 1_555
Cs7 Sb3 4.069480 1_565
Cs7 Sb0 4.069645 1_455
Cs7 Sb6 4.091138 1_554
Na0 Sb2 3.182389 1_554
Na0 Sb3 3.182682 1_555
Na0 Sb7 3.259309 1_555
Na0 Sb5 3.259340 1_554
Na1 Sb3 3.182431 1_555
Na1 Sb2 3.182785 1_555
Na1 Sb6 3.259326 1_545
Na1 Sb4 3.259357 1_455
Na2 Sb0 3.182431 1_556
Na2 Sb1 3.182785 1_555
Na2 Sb5 3.259326 1_555
Na2 Sb7 3.259357 1_556
Na3 Sb1 3.182389 1_555
Na3 Sb0 3.182682 1_555
Na3 Sb4 3.259309 1_565
Na3 Sb6 3.259340 1_655
Sb0 Y3 3.060559 1_555
Sb0 Y2 3.060586 1_554
Sb1 Y3 3.060500 1_555
Sb1 Y2 3.060707 1_555
Sb2 Y0 3.060500 1_556
Sb2 Y1 3.060707 1_555
Sb3 Y0 3.060559 1_555
Sb3 Y1 3.060586 1_555
Sb4 Y0 3.042409 1_655
Sb4 Y2 3.042460 1_544
Sb5 Y3 3.042426 1_555
Sb5 Y1 3.042447 1_555
Sb6 Y0 3.042426 1_566
Sb6 Y2 3.042447 1_455
Sb7 Y3 3.042409 1_555
Sb7 Y1 3.042460 1_555
