# generated using pymatgen
data_YBeRe2C
_symmetry_space_group_name_H-M   'P 1'
_cell_length_a   5.60425345
_cell_length_b   5.60425287
_cell_length_c   7.26660008
_cell_angle_alpha   90.00000000
_cell_angle_beta   90.00000000
_cell_angle_gamma   140.34188699
_symmetry_Int_Tables_number   1
_chemical_formula_structural   YBeRe2C
_chemical_formula_sum   'Y2 Be2 Re4 C2'
_cell_volume   145.65555918
_cell_formula_units_Z   2
loop_
 _symmetry_equiv_pos_site_id
 _symmetry_equiv_pos_as_xyz
  1  'x, y, z'
loop_
 _atom_site_type_symbol
 _atom_site_label
 _atom_site_symmetry_multiplicity
 _atom_site_fract_x
 _atom_site_fract_y
 _atom_site_fract_z
 _atom_site_occupancy
  Y  Y0  1  0.53495421  0.46504579  0.25000000  1
  Y  Y1  1  0.46504579  0.53495421  0.75000000  1
  Be  Be0  1  0.25782757  0.74217243  0.25000000  1
  Be  Be1  1  0.74217243  0.25782757  0.75000000  1
  Re  Re0  1  0.81926129  0.18073871  0.06305967  1
  Re  Re1  1  0.18073871  0.81926129  0.93694033  1
  Re  Re2  1  0.18073871  0.81926129  0.56305967  1
  Re  Re3  1  0.81926129  0.18073871  0.43694033  1
  C  C0  1  0.00000000  0.00000000  0.00000000  1
  C  C1  1  0.00000000  0.00000000  0.50000000  1
loop_
_geom_bond_atom_site_label_1
_geom_bond_atom_site_label_2
_geom_bond_distance
_geom_bond_site_symmetry_2
Be0 Re1 2.415730 1_554
Be0 Re2 2.415730 1_555
Be0 Re0 2.424638 1_455
Be0 Re3 2.424638 1_455
Be0 Re0 2.424638 1_565
Be0 Re3 2.424638 1_565
Be0 Y0 2.922007 1_555
Be0 Y0 3.022632 1_565
Be0 Y0 3.022633 1_455
Be1 Re3 2.415730 1_555
Be1 Re0 2.415730 1_556
Be1 Re2 2.424638 1_655
Be1 Re1 2.424638 1_655
Be1 Re2 2.424638 1_545
Be1 Re1 2.424638 1_545
Be1 Y1 2.922007 1_555
Be1 Y1 3.022632 1_545
Be1 Y1 3.022633 1_655
C0 Re0 1.960015 1_455
C0 Re1 1.960015 1_544
C0 Y1 2.655189 1_554
C0 Y0 2.655189 1_445
C0 Y0 2.655189 1_555
C0 Y1 2.655189 1_444
C1 Re3 1.960015 1_455
C1 Re2 1.960015 1_545
C1 Y1 2.655189 1_555
C1 Y0 2.655189 1_445
C1 Y0 2.655189 1_555
C1 Y1 2.655189 1_445
