# generated using pymatgen
data_CaMgAs4F24
_symmetry_space_group_name_H-M   'P 1'
_cell_length_a   9.34052893
_cell_length_b   9.34052855
_cell_length_c   9.34052840
_cell_angle_alpha   132.78077490
_cell_angle_beta   132.78077125
_cell_angle_gamma   68.99864502
_symmetry_Int_Tables_number   1
_chemical_formula_structural   CaMgAs4F24
_chemical_formula_sum   'Ca1 Mg1 As4 F24'
_cell_volume   430.90613118
_cell_formula_units_Z   1
loop_
 _symmetry_equiv_pos_site_id
 _symmetry_equiv_pos_as_xyz
  1  'x, y, z'
loop_
 _atom_site_type_symbol
 _atom_site_label
 _atom_site_symmetry_multiplicity
 _atom_site_fract_x
 _atom_site_fract_y
 _atom_site_fract_z
 _atom_site_occupancy
  Ca  Ca0  1  0.75000000  0.25000000  0.50000000  1
  Mg  Mg0  1  0.00000000  0.00000000  0.00000000  1
  As  As0  1  0.78727359  0.78727359  1.00000000  1
  As  As1  1  0.21272641  0.21272641  0.00000000  1
  As  As2  1  0.97444332  0.47444332  0.50000000  1
  As  As3  1  0.52555668  0.02555668  0.50000000  1
  F  F0  1  0.87042521  0.77034102  0.21549120  1
  F  F1  1  0.55484882  0.65493402  0.78450880  1
  F  F2  1  0.41546047  0.78748286  0.30122617  1
  F  F3  1  0.34506598  0.12957479  0.89991581  1
  F  F4  1  0.22965898  0.44515118  0.10008419  1
  F  F5  1  0.21251714  0.51374231  0.62797661  1
  F  F6  1  0.64474152  0.26473933  0.68830213  1
  F  F7  1  0.73526067  0.42356281  0.38000320  1
  F  F8  1  0.04356061  0.35525848  0.61999680  1
  F  F9  1  0.07749069  0.27468523  0.09877462  1
  F  F10  1  0.17590962  0.97871608  0.90122538  1
  F  F11  1  0.57643719  0.95643939  0.31169787  1
  F  F12  1  0.72531477  0.82409038  0.80280746  1
  F  F13  1  0.02128392  0.92250931  0.19719254  1
  F  F14  1  0.29501242  0.08015761  0.31710342  1
  F  F15  1  0.91984239  0.23694581  0.21485581  1
  F  F16  1  0.02209100  0.70498758  0.78514419  1
  F  F17  1  0.43196213  0.29041339  0.30178817  1
  F  F18  1  0.98862522  0.13017396  0.69821183  1
  F  F19  1  0.76305419  0.97790900  0.68289658  1
  F  F20  1  0.70958661  0.01137478  0.14154774  1
  F  F21  1  0.86982604  0.56803787  0.85845226  1
  F  F22  1  0.48625769  0.11423330  0.69877383  1
  F  F23  1  0.88576670  0.58453953  0.37202339  1
loop_
_geom_bond_atom_site_label_1
_geom_bond_atom_site_label_2
_geom_bond_distance
_geom_bond_site_symmetry_2
Ca0 F18 2.251559 1_555
Ca0 F17 2.251559 1_555
Ca0 F21 2.251561 1_555
Ca0 F20 2.251566 1_555
Ca0 F7 2.449917 1_555
Ca0 F11 2.449925 1_545
Ca0 F6 2.449925 1_555
Ca0 F8 2.449931 1_655
As0 F0 1.703064 1_556
As0 F1 1.703071 1_555
As0 F21 1.763884 1_555
As0 F20 1.763885 1_566
As0 F12 1.765077 1_555
As0 F13 1.765093 1_656
As1 F3 1.703064 1_554
As1 F4 1.703073 1_555
As1 F17 1.763887 1_555
As1 F18 1.763887 1_454
As1 F9 1.765087 1_555
As1 F10 1.765090 1_544
As2 F23 1.699064 1_555
As2 F5 1.699071 1_655
As2 F8 1.763307 1_655
As2 F7 1.763318 1_555
As2 F16 1.792989 1_655
As2 F15 1.792990 1_555
As3 F22 1.699065 1_555
As3 F2 1.699069 1_545
As3 F6 1.763314 1_555
As3 F11 1.763314 1_545
As3 F14 1.792994 1_555
As3 F19 1.792994 1_545
F9 Mg0 2.272980 1_555
F10 Mg0 2.272971 1_566
F12 Mg0 2.272983 1_666
F13 Mg0 2.272962 1_565
F14 Mg0 2.075146 1_555
F15 Mg0 2.075151 1_655
F16 Mg0 2.075148 1_566
F19 Mg0 2.075146 1_666
