# generated using pymatgen
data_NaB12PC
_symmetry_space_group_name_H-M   'P 1'
_cell_length_a   7.16567717
_cell_length_b   7.16567772
_cell_length_c   7.16567695
_cell_angle_alpha   132.65891008
_cell_angle_beta   110.19106892
_cell_angle_gamma   88.69444068
_symmetry_Int_Tables_number   1
_chemical_formula_structural   NaB12PC
_chemical_formula_sum   'Na2 B24 P2 C2'
_cell_volume   241.78241556
_cell_formula_units_Z   2
loop_
 _symmetry_equiv_pos_site_id
 _symmetry_equiv_pos_as_xyz
  1  'x, y, z'
loop_
 _atom_site_type_symbol
 _atom_site_label
 _atom_site_symmetry_multiplicity
 _atom_site_fract_x
 _atom_site_fract_y
 _atom_site_fract_z
 _atom_site_occupancy
  Na  Na0  1  0.08049774  0.74319589  0.83730286  1
  Na  Na1  1  0.90589403  0.24319589  0.16269714  1
  B  B0  1  0.86754367  0.83275755  0.53478612  1
  B  B1  1  0.29797243  0.33275755  0.46521388  1
  B  B2  1  0.14245060  0.16661278  0.47583683  1
  B  B3  1  0.69077495  0.66661278  0.52416317  1
  B  B4  1  0.26869756  0.09042932  0.67826825  1
  B  B5  1  0.41216007  0.59042932  0.32173175  1
  B  B6  1  0.75465607  0.91138594  0.34327013  1
  B  B7  1  0.56811580  0.41138594  0.65672987  1
  B  B8  1  0.10671369  0.78126733  0.50693730  1
  B  B9  1  0.27433003  0.59977639  0.49306270  1
  B  B10  1  0.27433003  0.28126733  0.17455464  1
  B  B11  1  0.10671369  0.09977639  0.82544536  1
  B  B12  1  0.90002157  0.22125975  0.50463761  1
  B  B13  1  0.71662314  0.39538396  0.49536239  1
  B  B14  1  0.71662314  0.72125975  0.82123918  1
  B  B15  1  0.90002157  0.89538396  0.17876082  1
  B  B16  1  0.13502792  0.82509912  0.29629400  1
  B  B17  1  0.52880411  0.83873291  0.70370600  1
  B  B18  1  0.52880411  0.32509912  0.19007120  1
  B  B19  1  0.13502792  0.33873291  0.80992880  1
  B  B20  1  0.88339648  0.16391260  0.70641220  1
  B  B21  1  0.45750040  0.17698428  0.29358780  1
  B  B22  1  0.45750040  0.66391260  0.78051613  1
  B  B23  1  0.88339648  0.67698428  0.21948387  1
  P  P0  1  0.46457826  0.82964231  0.13493596  1
  P  P1  1  0.69470635  0.32964231  0.86506404  1
  C  C0  1  0.51637306  0.14648889  0.86988417  1
  C  C1  1  0.27660471  0.64648889  0.13011583  1
loop_
_geom_bond_atom_site_label_1
_geom_bond_atom_site_label_2
_geom_bond_distance
_geom_bond_site_symmetry_2
Na0 P0 2.596578 1_556
Na1 P1 2.596574 1_554
B0 B3 1.704983 1_555
B0 B6 1.765203 1_555
B0 B23 1.765511 1_555
B0 B20 1.765512 1_565
B0 B11 1.794603 1_665
B0 B8 1.794604 1_655
B0 Na0 2.645159 1_655
B1 B2 1.704977 1_555
B1 B7 1.765197 1_555
B1 B21 1.765505 1_555
B1 B22 1.765510 1_555
B1 B10 1.794594 1_555
B1 B9 1.794605 1_555
B1 Na1 2.645161 1_455
B2 B4 1.834491 1_555
B2 Na1 2.685183 1_455
B3 B5 1.834493 1_555
B3 Na0 2.685183 1_655
B4 C0 1.673093 1_555
B4 B8 1.791581 1_545
B5 C1 1.673091 1_555
B5 B9 1.791576 1_555
B6 P0 1.902800 1_555
B7 P1 1.902800 1_555
B8 B9 1.726216 1_555
B8 Na0 2.626473 1_555
B8 Na1 2.816793 1_455
B9 Na1 2.626465 1_455
B9 Na0 2.816800 1_555
B10 B11 1.726226 1_554
B10 B21 1.747852 1_555
B10 B5 1.791582 1_555
B10 B18 1.809669 1_555
B10 B9 1.832606 1_555
B10 Na1 2.626460 1_455
B10 Na0 2.816795 1_544
B11 B20 1.747853 1_455
B11 B4 1.791576 1_555
B11 B19 1.809661 1_555
B11 B8 1.832606 1_545
B11 Na0 2.626476 1_545
B11 Na1 2.816794 1_456
B12 B6 1.773911 1_545
B12 B20 1.788826 1_555
B12 B13 1.807110 1_555
B12 B2 1.822263 1_655
B12 B19 1.831920 1_655
B12 B15 1.874997 1_545
B12 Na1 2.573632 1_555
B12 Na0 2.711509 1_655
B13 B7 1.773917 1_555
B13 B21 1.788832 1_555
B13 B3 1.822258 1_555
B13 B18 1.831922 1_555
B13 B14 1.874997 1_555
B13 Na0 2.573619 1_655
B13 Na1 2.711511 1_555
B14 B7 1.773911 1_555
B14 B22 1.788831 1_555
B14 B15 1.807103 1_556
B14 B3 1.822259 1_555
B14 B17 1.831924 1_555
B14 Na0 2.573618 1_655
B14 Na1 2.711512 1_566
B15 B6 1.773917 1_555
B15 B23 1.788832 1_555
B15 B2 1.822261 1_665
B15 B16 1.831920 1_655
B15 Na1 2.573625 1_565
B15 Na0 2.711499 1_654
B16 C1 1.671669 1_555
B16 B8 1.809673 1_555
B16 B23 1.814120 1_455
B16 B2 1.827149 1_565
B16 Na0 2.796747 1_554
B17 C0 1.671673 1_565
B17 B9 1.809665 1_555
B17 B22 1.814110 1_555
B17 B3 1.827149 1_555
B17 Na1 2.796759 1_566
B18 C0 1.671672 1_554
B18 B21 1.814116 1_555
B18 B3 1.827151 1_555
B18 Na1 2.796763 1_555
B19 C1 1.671672 1_556
B19 B20 1.814116 1_455
B19 B2 1.827155 1_555
B19 Na0 2.796757 1_555
B20 B6 1.712927 1_545
B20 P1 1.920699 1_555
B20 Na1 2.856898 1_556
B21 B7 1.712927 1_555
B21 P0 1.920699 1_545
B21 Na0 2.856905 1_544
B22 B7 1.712928 1_555
B22 B9 1.747856 1_555
B22 P0 1.920699 1_556
B22 Na0 2.856907 1_555
B23 B6 1.712928 1_555
B23 B8 1.747856 1_655
B23 P1 1.920699 1_554
B23 Na1 2.856901 1_555
C0 P1 1.877481 1_555
C0 Na1 2.597732 1_556
C1 P0 1.877481 1_555
C1 Na0 2.597728 1_554
