# generated using pymatgen
data_Sr2Hf6BBr17
_symmetry_space_group_name_H-M   'P 1'
_cell_length_a   10.01121496
_cell_length_b   10.01132782
_cell_length_c   10.01219997
_cell_angle_alpha   105.09994742
_cell_angle_beta   105.04080519
_cell_angle_gamma   118.68059797
_symmetry_Int_Tables_number   1
_chemical_formula_structural   Sr2Hf6BBr17
_chemical_formula_sum   'Sr2 Hf6 B1 Br17'
_cell_volume   757.32780391
_cell_formula_units_Z   1
loop_
 _symmetry_equiv_pos_site_id
 _symmetry_equiv_pos_as_xyz
  1  'x, y, z'
loop_
 _atom_site_type_symbol
 _atom_site_label
 _atom_site_symmetry_multiplicity
 _atom_site_fract_x
 _atom_site_fract_y
 _atom_site_fract_z
 _atom_site_occupancy
  Sr  Sr0  1  0.25005448  0.74998458  0.50003425  1
  Sr  Sr1  1  0.74994552  0.25001542  0.49996575  1
  Hf  Hf0  1  0.22476878  0.22476032  0.00004419  1
  Hf  Hf1  1  0.77523122  0.77523968  0.99995581  1
  Hf  Hf2  1  0.17898877  0.05429560  0.23335974  1
  Hf  Hf3  1  0.94567503  0.17915570  0.12481727  1
  Hf  Hf4  1  0.82101123  0.94570440  0.76664026  1
  Hf  Hf5  1  0.05432497  0.82084430  0.87518273  1
  B  B0  1  0.00000000  0.00000000  0.00000000  1
  Br  Br0  1  0.85595617  0.72927915  0.58521355  1
  Br  Br1  1  0.27057893  0.85582285  0.12641639  1
  Br  Br2  1  0.11995443  0.59320467  0.71314497  1
  Br  Br3  1  0.53374497  0.67757640  0.72617288  1
  Br  Br4  1  0.88004557  0.40679533  0.28685503  1
  Br  Br5  1  0.46625503  0.32242360  0.27382712  1
  Br  Br6  1  0.80752126  0.53351789  0.85598154  1
  Br  Br7  1  0.40649948  0.11980611  0.52650382  1
  Br  Br8  1  0.59350052  0.88019389  0.47349618  1
  Br  Br9  1  0.14404383  0.27072085  0.41478645  1
  Br  Br10  1  0.32247040  0.04848309  0.85606501  1
  Br  Br11  1  0.95124733  0.80744022  0.27370617  1
  Br  Br12  1  0.72942107  0.14417715  0.87358361  1
  Br  Br13  1  0.50000000  0.50000000  0.00000000  1
  Br  Br14  1  0.19247874  0.46648211  0.14401846  1
  Br  Br15  1  0.04875267  0.19255978  0.72629383  1
  Br  Br16  1  0.67752960  0.95151691  0.14393499  1
loop_
_geom_bond_atom_site_label_1
_geom_bond_atom_site_label_2
_geom_bond_distance
_geom_bond_site_symmetry_2
B0 Hf3 2.279412 1_455
B0 Hf5 2.279412 1_544
B0 Hf2 2.279426 1_555
B0 Hf4 2.279426 1_444
B0 Hf0 2.294678 1_555
B0 Hf1 2.294678 1_444
Br0 Hf5 2.662055 1_655
Br0 Hf4 2.668974 1_555
Br1 Hf2 2.661801 1_565
Br1 Hf5 2.669064 1_554
Br2 Hf5 2.884719 1_555
Br2 Sr0 3.152407 1_555
Br2 Sr1 3.153002 1_455
Br3 Hf4 2.656908 1_555
Br3 Hf1 2.685128 1_555
Br3 Sr0 3.634794 1_555
Br4 Hf3 2.884719 1_555
Br4 Sr1 3.152407 1_555
Br4 Sr0 3.153002 1_655
Br5 Hf2 2.656908 1_555
Br5 Hf0 2.685128 1_555
Br5 Sr1 3.634794 1_555
Br6 Hf5 2.656985 1_655
Br6 Hf1 2.685865 1_555
Br6 Sr1 3.631235 1_555
Br7 Hf2 2.885460 1_555
Br7 Sr0 3.152533 1_545
Br7 Sr1 3.153468 1_555
Br8 Hf4 2.885460 1_555
Br8 Sr1 3.152533 1_565
Br8 Sr0 3.153468 1_555
Br9 Hf3 2.662055 1_455
Br9 Hf2 2.668974 1_555
Br10 Hf5 2.656771 1_545
Br10 Hf0 2.685588 1_556
Br10 Sr0 3.632060 1_545
Br11 Hf2 2.656834 1_665
Br11 Hf1 2.684952 1_554
Br11 Sr0 3.636880 1_655
Br12 Hf4 2.661801 1_545
Br12 Hf3 2.669064 1_556
Br13 Hf1 2.810450 1_554
Br13 Hf0 2.810450 1_555
Br14 Hf3 2.656985 1_455
Br14 Hf0 2.685865 1_555
Br14 Sr0 3.631235 1_555
Br15 Hf4 2.656834 1_445
Br15 Hf0 2.684952 1_556
Br15 Sr1 3.636880 1_455
Br16 Hf3 2.656771 1_565
Br16 Hf1 2.685588 1_554
Br16 Sr1 3.632060 1_565
