# generated using pymatgen
data_K2VAs2
_symmetry_space_group_name_H-M   'P 1'
_cell_length_a   8.23684544
_cell_length_b   8.23684461
_cell_length_c   8.23684472
_cell_angle_alpha   135.63511268
_cell_angle_beta   128.32379669
_cell_angle_gamma   70.42708524
_symmetry_Int_Tables_number   1
_chemical_formula_structural   K2VAs2
_chemical_formula_sum   'K4 V2 As4'
_cell_volume   300.51679165
_cell_formula_units_Z   2
loop_
 _symmetry_equiv_pos_site_id
 _symmetry_equiv_pos_as_xyz
  1  'x, y, z'
loop_
 _atom_site_type_symbol
 _atom_site_label
 _atom_site_symmetry_multiplicity
 _atom_site_fract_x
 _atom_site_fract_y
 _atom_site_fract_z
 _atom_site_occupancy
  K  K0  1  0.68994578  0.34895802  0.34098676  1
  K  K1  1  0.00797125  0.84895802  0.15901324  1
  K  K2  1  0.99202875  0.15104198  0.84098676  1
  K  K3  1  0.31005422  0.65104198  0.65901324  1
  V  V0  1  0.50000000  0.75000000  0.25000000  1
  V  V1  1  0.50000000  0.25000000  0.75000000  1
  As  As0  1  0.22108894  0.40245530  0.81863363  1
  As  As1  1  0.77891106  0.59754470  0.18136637  1
  As  As2  1  0.41617833  0.09754470  0.31863363  1
  As  As3  1  0.58382167  0.90245530  0.68136637  1
loop_
_geom_bond_atom_site_label_1
_geom_bond_atom_site_label_2
_geom_bond_distance
_geom_bond_site_symmetry_2
As0 V0 2.416005 1_556
As0 V1 2.416006 1_555
As0 K2 3.387613 1_455
As0 K1 3.391633 1_545
As0 K1 3.391633 1_556
As0 K0 3.504141 1_455
As0 K3 3.536593 1_555
As0 K0 3.818847 1_556
As1 V1 2.416005 1_554
As1 V0 2.416006 1_555
As1 K1 3.387613 1_655
As1 K2 3.391633 1_565
As1 K2 3.391633 1_554
As1 K3 3.504141 1_655
As1 K0 3.536593 1_555
As1 K3 3.818847 1_554
As2 V1 2.416005 1_555
As2 V0 2.416005 1_545
As2 K0 3.387619 1_555
As2 K3 3.391630 1_544
As2 K3 3.391635 1_555
As2 K2 3.504146 1_454
As2 K1 3.536598 1_545
As2 K2 3.818845 1_555
As3 V0 2.416005 1_555
As3 V1 2.416005 1_565
As3 K3 3.387619 1_555
As3 K0 3.391630 1_566
As3 K0 3.391635 1_555
As3 K1 3.504146 1_656
As3 K2 3.536598 1_565
As3 K1 3.818845 1_555
