# generated using pymatgen
data_In2Ni(RhS)2
_symmetry_space_group_name_H-M   'P 1'
_cell_length_a   5.56810879
_cell_length_b   5.56810929
_cell_length_c   5.61348197
_cell_angle_alpha   58.81675210
_cell_angle_beta   58.81674339
_cell_angle_gamma   61.08646070
_symmetry_Int_Tables_number   1
_chemical_formula_structural   In2Ni(RhS)2
_chemical_formula_sum   'In2 Ni1 Rh2 S2'
_cell_volume   121.73963616
_cell_formula_units_Z   1
loop_
 _symmetry_equiv_pos_site_id
 _symmetry_equiv_pos_as_xyz
  1  'x, y, z'
loop_
 _atom_site_type_symbol
 _atom_site_label
 _atom_site_symmetry_multiplicity
 _atom_site_fract_x
 _atom_site_fract_y
 _atom_site_fract_z
 _atom_site_occupancy
  In  In0  1  0.00000000  0.00000000  0.00000000  1
  In  In1  1  0.50000000  0.50000000  0.50000000  1
  Ni  Ni0  1  0.00000000  0.00000000  0.50000000  1
  Rh  Rh0  1  0.50000000  0.00000000  0.00000000  1
  Rh  Rh1  1  0.00000000  0.50000000  0.00000000  1
  S  S0  1  0.72694726  0.72694726  0.70357844  1
  S  S1  1  0.27305274  0.27305274  0.29642156  1
loop_
_geom_bond_atom_site_label_1
_geom_bond_atom_site_label_2
_geom_bond_distance
_geom_bond_site_symmetry_2
In0 Rh0 2.784054 1_455
In0 Rh0 2.784054 1_555
In0 Rh1 2.784055 1_555
In0 Rh1 2.784055 1_545
In0 Ni0 2.806741 1_555
In0 Ni0 2.806741 1_554
In0 S0 3.165524 1_445
In0 S1 3.165524 1_554
In1 Rh1 2.745325 1_655
In1 Rh1 2.745325 1_556
In1 Rh0 2.745326 1_565
In1 Rh0 2.745326 1_556
In1 Ni0 2.829648 1_655
In1 Ni0 2.829648 1_565
In1 S0 3.005773 1_555
In1 S1 3.005773 1_555
Ni0 S1 2.136787 1_555
Ni0 S0 2.136787 1_445
Ni0 Rh0 2.745325 1_456
Ni0 Rh0 2.745325 1_555
Ni0 Rh1 2.745326 1_555
Ni0 Rh1 2.745326 1_546
Rh0 S1 2.293845 1_555
Rh0 S0 2.293845 1_544
Rh1 S1 2.293845 1_555
Rh1 S0 2.293845 1_454
