# generated using pymatgen
data_K4LiCuP2
_symmetry_space_group_name_H-M   'P 1'
_cell_length_a   6.23622824
_cell_length_b   6.23622752
_cell_length_c   5.73990555
_cell_angle_alpha   88.53309211
_cell_angle_beta   88.53310049
_cell_angle_gamma   104.33837750
_symmetry_Int_Tables_number   1
_chemical_formula_structural   K4LiCuP2
_chemical_formula_sum   'K4 Li1 Cu1 P2'
_cell_volume   216.08601157
_cell_formula_units_Z   1
loop_
 _symmetry_equiv_pos_site_id
 _symmetry_equiv_pos_as_xyz
  1  'x, y, z'
loop_
 _atom_site_type_symbol
 _atom_site_label
 _atom_site_symmetry_multiplicity
 _atom_site_fract_x
 _atom_site_fract_y
 _atom_site_fract_z
 _atom_site_occupancy
  K  K0  1  0.97247076  0.30712764  0.75548344  1
  K  K1  1  0.30712764  0.97247076  0.75548344  1
  K  K2  1  0.02752924  0.69287236  0.24451656  1
  K  K3  1  0.69287236  0.02752924  0.24451656  1
  Li  Li0  1  0.50000000  0.50000000  0.50000000  1
  Cu  Cu0  1  0.50000000  0.50000000  0.00000000  1
  P  P0  1  0.73616229  0.73616229  0.76122329  1
  P  P1  1  0.26383771  0.26383771  0.23877671  1
loop_
_geom_bond_atom_site_label_1
_geom_bond_atom_site_label_2
_geom_bond_distance
_geom_bond_site_symmetry_2
K0 P0 3.359515 1_555
K0 P1 3.395963 1_656
K0 P1 3.489811 1_655
K0 P0 3.499104 1_545
K1 P0 3.359515 1_555
K1 P1 3.395963 1_566
K1 P1 3.489810 1_565
K1 P0 3.499104 1_455
K2 P1 3.359515 1_555
K2 P0 3.395963 1_454
K2 P0 3.489811 1_455
K2 P1 3.499104 1_565
K3 P1 3.359515 1_555
K3 P0 3.395963 1_544
K3 P0 3.489810 1_545
K3 P1 3.499104 1_655
Li0 P0 2.395424 1_555
Li0 P1 2.395424 1_555
Cu0 P0 2.221593 1_554
Cu0 P1 2.221593 1_555
Cu0 Li0 2.869953 1_554
Cu0 Li0 2.869953 1_555
