# generated using pymatgen
data_Hf6AlP5Ru6
_symmetry_space_group_name_H-M   'P 1'
_cell_length_a   7.45890156
_cell_length_b   7.47505315
_cell_length_c   7.45890167
_cell_angle_alpha   128.54757345
_cell_angle_beta   119.80974017
_cell_angle_gamma   83.02869768
_symmetry_Int_Tables_number   1
_chemical_formula_structural   Hf6AlP5Ru6
_chemical_formula_sum   'Hf6 Al1 P5 Ru6'
_cell_volume   271.11961142
_cell_formula_units_Z   1
loop_
 _symmetry_equiv_pos_site_id
 _symmetry_equiv_pos_as_xyz
  1  'x, y, z'
loop_
 _atom_site_type_symbol
 _atom_site_label
 _atom_site_symmetry_multiplicity
 _atom_site_fract_x
 _atom_site_fract_y
 _atom_site_fract_z
 _atom_site_occupancy
  Hf  Hf0  1  0.46745658  0.69453933  0.72708275  1
  Hf  Hf1  1  0.52741321  0.25376871  0.22635550  1
  Hf  Hf2  1  0.74797150  0.83662848  0.58865698  1
  Hf  Hf3  1  0.24976617  0.81996175  0.07019457  1
  Hf  Hf4  1  0.04972861  0.25655429  0.70682668  1
  Hf  Hf5  1  0.95580436  0.66517628  0.20937292  1
  Al  Al0  1  0.26795632  0.26774225  0.49978694  1
  P  P0  1  0.73193542  0.23247722  0.00054280  1
  P  P1  1  0.33074934  0.58601604  0.25013164  1
  P  P2  1  0.67191851  0.92006166  0.25927949  1
  P  P3  1  0.16078217  0.92006166  0.74814216  1
  P  P4  1  0.83588440  0.58601604  0.75526670  1
  Ru  Ru0  1  0.51660223  0.50225795  0.01908728  1
  Ru  Ru1  1  0.98317067  0.50225795  0.48565571  1
  Ru  Ru2  1  0.09658525  0.25412018  0.09958978  1
  Ru  Ru3  1  0.88483534  0.00391901  0.13700849  1
  Ru  Ru4  1  0.36691052  0.00391901  0.61908367  1
  Ru  Ru5  1  0.65453040  0.25412018  0.65753593  1
loop_
_geom_bond_atom_site_label_1
_geom_bond_atom_site_label_2
_geom_bond_distance
_geom_bond_site_symmetry_2
Hf0 P3 2.681448 1_555
Hf0 P2 2.681448 1_556
Hf0 P1 2.711302 1_555
Hf0 P4 2.711302 1_555
Hf0 Ru3 2.803532 1_566
Hf0 Ru4 2.803532 1_565
Hf0 Ru1 3.150241 1_455
Hf0 Ru0 3.150241 1_556
Hf1 P4 2.678935 1_555
Hf1 P1 2.678936 1_555
Hf1 P2 2.700397 1_545
Hf1 P3 2.700398 1_544
Hf1 P0 2.711281 1_555
Hf1 Ru2 2.863688 1_555
Hf1 Ru5 2.863695 1_555
Hf1 Ru1 3.043926 1_555
Hf1 Ru0 3.043927 1_555
Hf1 Ru4 3.169575 1_554
Hf1 Ru3 3.169575 1_555
Hf2 P0 2.675433 1_566
Hf2 P2 2.680433 1_555
Hf2 P3 2.680435 1_655
Hf2 P1 2.697569 1_555
Hf2 P4 2.697569 1_555
Hf2 Ru0 2.792397 1_555
Hf2 Ru1 2.792397 1_555
Hf2 Ru5 2.884213 1_565
Hf2 Ru2 2.884215 1_666
Hf2 Ru3 3.019729 1_566
Hf2 Ru4 3.019729 1_565
Hf3 P4 2.662154 1_454
Hf3 P1 2.662160 1_555
Hf3 P2 2.702812 1_555
Hf3 P3 2.702814 1_554
Hf3 Ru1 2.867958 1_454
Hf3 Ru0 2.867964 1_555
Hf3 Ru3 3.022327 1_465
Hf3 Ru4 3.022331 1_565
Hf4 P1 2.692625 1_556
Hf4 P4 2.692630 1_455
Hf4 P3 2.704507 1_545
Hf4 P2 2.704516 1_445
Hf4 Ru2 2.784210 1_556
Hf4 Ru5 2.784218 1_455
Hf4 Ru4 2.916555 1_555
Hf4 Ru3 2.916559 1_455
Hf4 Ru0 3.013609 1_556
Hf4 Ru1 3.013614 1_455
Hf5 P3 2.678196 1_655
Hf5 P2 2.678207 1_555
Hf5 P1 2.690935 1_655
Hf5 P4 2.690940 1_554
Hf5 Ru4 2.842025 1_665
Hf5 Ru3 2.842030 1_565
Hf5 P0 2.849928 1_555
Hf5 Ru2 2.854870 1_655
Hf5 Ru5 2.854871 1_554
Hf5 Ru1 2.901860 1_555
Hf5 Ru0 2.901865 1_555
Al0 Ru4 2.531099 1_555
Al0 Ru3 2.531104 1_455
Al0 Ru5 2.532547 1_555
Al0 Ru2 2.532554 1_555
Al0 Ru0 2.588453 1_556
Al0 Ru1 2.588459 1_455
Al0 Hf0 2.677643 1_555
Al0 Hf4 2.781114 1_555
Al0 Hf3 2.792884 1_545
P0 Ru1 2.398454 1_555
P0 Ru0 2.398459 1_555
P0 Ru3 2.407473 1_555
P0 Ru4 2.407479 1_554
P0 Ru5 2.435111 1_554
P0 Ru2 2.435113 1_655
P1 Ru2 2.469103 1_555
P1 Ru0 2.470505 1_555
P1 Ru4 2.481270 1_565
P2 Ru5 2.477093 1_565
P2 Ru3 2.478109 1_565
P2 Ru0 2.479269 1_555
P3 Ru2 2.477092 1_566
P3 Ru4 2.478103 1_565
P3 Ru1 2.479271 1_455
P4 Ru5 2.469108 1_555
P4 Ru1 2.470505 1_555
P4 Ru3 2.481270 1_566
Ru0 Ru5 2.798649 1_554
Ru0 Ru4 2.805438 1_554
Ru1 Ru2 2.798655 1_655
Ru1 Ru3 2.805438 1_555
Ru2 Ru3 2.806472 1_455
Ru4 Ru5 2.806467 1_555
