# generated using pymatgen
data_Ta3Nb2B2P
_symmetry_space_group_name_H-M   'P 1'
_cell_length_a   7.23900959
_cell_length_b   7.23905878
_cell_length_c   7.23945639
_cell_angle_alpha   129.36074092
_cell_angle_beta   129.36067127
_cell_angle_gamma   74.41185922
_symmetry_Int_Tables_number   1
_chemical_formula_structural   Ta3Nb2B2P
_chemical_formula_sum   'Ta6 Nb4 B4 P2'
_cell_volume   221.05906085
_cell_formula_units_Z   2
loop_
 _symmetry_equiv_pos_site_id
 _symmetry_equiv_pos_as_xyz
  1  'x, y, z'
loop_
 _atom_site_type_symbol
 _atom_site_label
 _atom_site_symmetry_multiplicity
 _atom_site_fract_x
 _atom_site_fract_y
 _atom_site_fract_z
 _atom_site_occupancy
  Ta  Ta0  1  0.00099491  0.00070818  0.00101894  1
  Ta  Ta1  1  0.49965762  0.50068279  0.99970271  1
  Ta  Ta2  1  0.02680339  0.19199245  0.49972241  1
  Ta  Ta3  1  0.52689770  0.02701835  0.83495455  1
  Ta  Ta4  1  0.69154360  0.52713194  0.49978251  1
  Ta  Ta5  1  0.97302009  0.80789356  0.50001204  1
  Nb  Nb0  1  0.80893811  0.30853596  0.83515070  1
  Nb  Nb1  1  0.19139740  0.69151776  0.16521638  1
  Nb  Nb2  1  0.47386838  0.97347932  0.16530293  1
  Nb  Nb3  1  0.30866700  0.47334099  0.49995874  1
  B  B0  1  0.11240001  0.61410659  0.72807818  1
  B  B1  1  0.88232246  0.38408450  0.26842589  1
  B  B2  1  0.61801954  0.88254988  0.50175337  1
  B  B3  1  0.38360339  0.11575433  0.50173421  1
  P  P0  1  0.25092447  0.24923686  0.99816216  1
  P  P1  1  0.75094292  0.75196554  0.00102329  1
loop_
_geom_bond_atom_site_label_1
_geom_bond_atom_site_label_2
_geom_bond_distance
_geom_bond_site_symmetry_2
Nb0 P0 2.632330 1_655
Nb0 P1 2.635967 1_556
Nb1 P1 2.621698 1_455
Nb1 P0 2.628182 1_554
Nb2 P1 2.624298 1_555
Nb2 P0 2.628500 1_564
Nb3 P1 2.633725 1_556
Nb3 P0 2.639426 1_554
B0 B1 2.013040 1_455
B0 Ta4 2.394577 1_455
B0 Ta2 2.401064 1_555
B0 Ta5 2.403363 1_455
B0 Nb3 2.418223 1_555
B0 Ta0 2.486185 1_566
B0 Ta1 2.493696 1_555
B0 Nb1 2.506666 1_556
B0 Nb2 2.518371 1_556
B1 Ta4 2.397984 1_555
B1 Ta2 2.404534 1_655
B1 Ta5 2.411757 1_555
B1 Nb3 2.426669 1_655
B1 Ta1 2.482204 1_554
B1 Ta3 2.488667 1_554
B1 Ta0 2.490236 1_655
B1 Nb0 2.507345 1_554
B2 B3 2.046932 1_565
B2 Ta3 2.407321 1_565
B2 Nb0 2.421540 1_565
B2 Nb1 2.421568 1_555
B2 Nb2 2.428064 1_555
B2 Ta0 2.474816 1_666
B2 Ta4 2.475955 1_555
B2 Ta1 2.482924 1_554
B2 Ta5 2.486443 1_555
B3 Ta3 2.396130 1_555
B3 Nb1 2.410325 1_545
B3 Nb0 2.421579 1_555
B3 Nb2 2.427951 1_545
B3 Ta1 2.478227 1_555
B3 Ta2 2.484438 1_555
B3 Ta0 2.486098 1_555
B3 Nb3 2.504777 1_555
P0 Ta3 2.613590 1_555
P0 Ta2 2.619870 1_555
P0 Ta5 2.626377 1_445
P0 Ta4 2.626532 1_556
P0 Ta1 2.875012 1_555
P0 Ta0 2.890439 1_556
P1 Ta2 2.618384 1_665
P1 Ta3 2.620675 1_564
P1 Ta4 2.628168 1_554
P1 Ta5 2.631821 1_555
P1 Ta0 2.875908 1_665
P1 Ta1 2.890027 1_554
