# generated using pymatgen
data_Hf9Nb(CuSn3)2
_symmetry_space_group_name_H-M   'P 1'
_cell_length_a   8.51215459
_cell_length_b   8.51215523
_cell_length_c   5.75386422
_cell_angle_alpha   90.00000000
_cell_angle_beta   90.00000000
_cell_angle_gamma   119.99999370
_symmetry_Int_Tables_number   1
_chemical_formula_structural   Hf9Nb(CuSn3)2
_chemical_formula_sum   'Hf9 Nb1 Cu2 Sn6'
_cell_volume   361.05162622
_cell_formula_units_Z   1
loop_
 _symmetry_equiv_pos_site_id
 _symmetry_equiv_pos_as_xyz
  1  'x, y, z'
loop_
 _atom_site_type_symbol
 _atom_site_label
 _atom_site_symmetry_multiplicity
 _atom_site_fract_x
 _atom_site_fract_y
 _atom_site_fract_z
 _atom_site_occupancy
  Hf  Hf0  1  0.66666700  0.33333300  0.50000000  1
  Hf  Hf1  1  0.66666700  0.33333300  0.00000000  1
  Hf  Hf2  1  0.33333300  0.66666700  0.50000000  1
  Hf  Hf3  1  0.26250125  0.99986365  0.24765450  1
  Hf  Hf4  1  0.26250125  0.26263760  0.75234550  1
  Hf  Hf5  1  0.00013635  0.73749875  0.75234550  1
  Hf  Hf6  1  0.00013635  0.26263760  0.24765450  1
  Hf  Hf7  1  0.73736240  0.73749875  0.24765450  1
  Hf  Hf8  1  0.73736240  0.99986365  0.75234550  1
  Nb  Nb0  1  0.33333300  0.66666700  0.00000000  1
  Cu  Cu0  1  0.00000000  0.00000000  0.00000000  1
  Cu  Cu1  1  0.00000000  0.00000000  0.50000000  1
  Sn  Sn0  1  0.61131262  0.99844199  0.24844573  1
  Sn  Sn1  1  0.61131262  0.61287062  0.75155427  1
  Sn  Sn2  1  0.00155801  0.38868738  0.75155427  1
  Sn  Sn3  1  0.00155801  0.61287062  0.24844573  1
  Sn  Sn4  1  0.38712938  0.38868738  0.24844573  1
  Sn  Sn5  1  0.38712938  0.99844199  0.75155427  1
loop_
_geom_bond_atom_site_label_1
_geom_bond_atom_site_label_2
_geom_bond_distance
_geom_bond_site_symmetry_2
Hf0 Hf1 2.876932 1_555
Hf0 Hf1 2.876932 1_556
Hf0 Sn2 3.016620 1_655
Hf0 Sn0 3.016621 1_545
Hf0 Sn3 3.016623 1_655
Hf0 Sn5 3.016623 1_545
Hf0 Sn4 3.016628 1_555
Hf0 Sn1 3.016628 1_555
Hf1 Sn2 3.008079 1_654
Hf1 Sn0 3.008080 1_545
Hf1 Sn3 3.008082 1_655
Hf1 Sn5 3.008082 1_544
Hf1 Sn4 3.008087 1_555
Hf1 Sn1 3.008087 1_554
Hf2 Nb0 2.876932 1_556
Hf2 Nb0 2.876932 1_555
Hf2 Sn3 2.997851 1_555
Hf2 Sn5 2.997851 1_555
Hf2 Sn2 2.997854 1_555
Hf2 Sn0 2.997854 1_555
Hf2 Sn1 2.997858 1_555
Hf2 Sn4 2.997859 1_555
Hf3 Sn3 2.910013 1_555
Hf3 Sn4 2.927216 1_565
Hf3 Sn0 2.975209 1_555
Hf3 Sn5 3.047380 1_554
Hf3 Sn5 3.089457 1_555
Hf4 Sn2 2.910012 1_555
Hf4 Sn5 2.927216 1_545
Hf4 Sn1 2.975209 1_555
Hf4 Sn4 3.047380 1_556
Hf4 Sn4 3.089457 1_555
Hf5 Sn5 2.910013 1_555
Hf5 Sn1 2.927216 1_455
Hf5 Sn2 2.975209 1_555
Hf5 Sn3 3.047380 1_556
Hf5 Sn3 3.089457 1_555
Hf6 Sn4 2.910012 1_555
Hf6 Sn0 2.927216 1_445
Hf6 Sn3 2.975209 1_555
Hf6 Sn2 3.047380 1_554
Hf6 Sn2 3.089457 1_555
Hf7 Sn0 2.910012 1_555
Hf7 Sn3 2.927216 1_655
Hf7 Sn4 2.975209 1_555
Hf7 Sn1 3.047380 1_554
Hf7 Sn1 3.089457 1_555
Hf8 Sn1 2.910013 1_555
Hf8 Sn2 2.927216 1_665
Hf8 Sn5 2.975209 1_555
Hf8 Sn0 3.047380 1_556
Hf8 Sn0 3.089457 1_555
Nb0 Sn3 2.989256 1_555
Nb0 Sn5 2.989257 1_554
Nb0 Sn2 2.989259 1_554
Nb0 Sn0 2.989259 1_555
Nb0 Sn1 2.989264 1_554
Nb0 Sn4 2.989264 1_555
Cu0 Hf3 2.650643 1_545
Cu0 Hf8 2.650643 1_444
Cu0 Hf5 2.650643 1_544
Cu0 Hf6 2.650643 1_555
Cu0 Hf7 2.650643 1_445
Cu0 Hf4 2.650643 1_554
Cu1 Hf3 2.665250 1_545
Cu1 Hf8 2.665250 1_445
Cu1 Hf5 2.665251 1_545
Cu1 Hf6 2.665251 1_555
Cu1 Hf7 2.665251 1_445
Cu1 Hf4 2.665251 1_555
