# generated using pymatgen
data_Zn6RePN8
_symmetry_space_group_name_H-M   'P 1'
_cell_length_a   6.35766906
_cell_length_b   5.51714814
_cell_length_c   5.22886465
_cell_angle_alpha   89.92071672
_cell_angle_beta   90.00000000
_cell_angle_gamma   90.00000000
_symmetry_Int_Tables_number   1
_chemical_formula_structural   Zn6RePN8
_chemical_formula_sum   'Zn6 Re1 P1 N8'
_cell_volume   183.40853711
_cell_formula_units_Z   1
loop_
 _symmetry_equiv_pos_site_id
 _symmetry_equiv_pos_as_xyz
  1  'x, y, z'
loop_
 _atom_site_type_symbol
 _atom_site_label
 _atom_site_symmetry_multiplicity
 _atom_site_fract_x
 _atom_site_fract_y
 _atom_site_fract_z
 _atom_site_occupancy
  Zn  Zn0  1  0.23359800  0.82238503  0.73630712  1
  Zn  Zn1  1  0.22847821  0.16415305  0.22641238  1
  Zn  Zn2  1  0.76640200  0.82238503  0.73630712  1
  Zn  Zn3  1  0.77152179  0.16415305  0.22641238  1
  Zn  Zn4  1  0.00000000  0.35899398  0.73411960  1
  Zn  Zn5  1  0.50000000  0.68040670  0.22541508  1
  Re  Re0  1  0.50000000  0.32440898  0.73229968  1
  P  P0  1  0.00000000  0.67108083  0.22835766  1
  N  N0  1  0.78544988  0.81504950  0.12062326  1
  N  N1  1  0.73701149  0.17147350  0.61617730  1
  N  N2  1  0.21455012  0.81504950  0.12062326  1
  N  N3  1  0.26298851  0.17147350  0.61617730  1
  N  N4  1  0.00000000  0.39010931  0.11686627  1
  N  N5  1  0.50000000  0.63813163  0.62060135  1
  N  N6  1  0.00000000  0.67137339  0.54237426  1
  N  N7  1  0.50000000  0.31937301  0.07944099  1
loop_
_geom_bond_atom_site_label_1
_geom_bond_atom_site_label_2
_geom_bond_distance
_geom_bond_site_symmetry_2
N0 P0 1.675592 1_655
N0 Zn3 2.006605 1_565
N0 Zn2 2.013534 1_554
N0 Zn5 2.035784 1_555
N1 Re0 1.831013 1_555
N1 Zn2 2.033593 1_545
N1 Zn3 2.050257 1_555
N1 Zn4 2.061069 1_655
N2 P0 1.675592 1_555
N2 Zn1 2.006605 1_565
N2 Zn0 2.013534 1_554
N2 Zn5 2.035784 1_555
N3 Re0 1.831013 1_555
N3 Zn0 2.033593 1_545
N3 Zn1 2.050257 1_555
N3 Zn4 2.061069 1_555
N4 P0 1.656913 1_555
N4 Zn1 1.997558 1_555
N4 Zn3 1.997558 1_455
N4 Zn4 2.008916 1_554
N5 Re0 1.825974 1_555
N5 Zn2 2.066331 1_555
N5 Zn0 2.066331 1_555
N5 Zn5 2.079176 1_555
N6 P0 1.641953 1_555
N6 Zn0 1.982527 1_555
N6 Zn2 1.982527 1_455
N6 Zn4 1.992662 1_555
N7 Re0 1.815329 1_554
N7 Zn3 2.074140 1_555
N7 Zn1 2.074140 1_555
N7 Zn5 2.134098 1_555
