# generated using pymatgen
data_Ti3Ga3PtRh2
_symmetry_space_group_name_H-M   'P 1'
_cell_length_a   14.63052279
_cell_length_b   14.63052228
_cell_length_c   5.78782311
_cell_angle_alpha   90.00000000
_cell_angle_beta   90.00000000
_cell_angle_gamma   119.99999349
_symmetry_Int_Tables_number   1
_chemical_formula_structural   Ti3Ga3PtRh2
_chemical_formula_sum   'Ti24 Ga24 Pt8 Rh16'
_cell_volume   1072.91566034
_cell_formula_units_Z   8
loop_
 _symmetry_equiv_pos_site_id
 _symmetry_equiv_pos_as_xyz
  1  'x, y, z'
loop_
 _atom_site_type_symbol
 _atom_site_label
 _atom_site_symmetry_multiplicity
 _atom_site_fract_x
 _atom_site_fract_y
 _atom_site_fract_z
 _atom_site_occupancy
  Ti  Ti0_0  1  0.49653471  0.18319374  0.25000000  1
  Ti  Ti0_1  1  0.49653471  0.18319374  0.75000000  1
  Ti  Ti0_2  1  0.49653471  0.68319374  0.25000000  1
  Ti  Ti0_3  1  0.49653471  0.68319374  0.75000000  1
  Ti  Ti0_4  1  0.99653471  0.18319374  0.25000000  1
  Ti  Ti0_5  1  0.99653471  0.18319374  0.75000000  1
  Ti  Ti0_6  1  0.99653471  0.68319374  0.25000000  1
  Ti  Ti0_7  1  0.99653471  0.68319374  0.75000000  1
  Ti  Ti1_0  1  0.31680626  0.31334097  0.25000000  1
  Ti  Ti1_1  1  0.31680626  0.31334097  0.75000000  1
  Ti  Ti1_2  1  0.31680626  0.81334097  0.25000000  1
  Ti  Ti1_3  1  0.31680626  0.81334097  0.75000000  1
  Ti  Ti1_4  1  0.81680626  0.31334097  0.25000000  1
  Ti  Ti1_5  1  0.81680626  0.31334097  0.75000000  1
  Ti  Ti1_6  1  0.81680626  0.81334097  0.25000000  1
  Ti  Ti1_7  1  0.81680626  0.81334097  0.75000000  1
  Ti  Ti2_0  1  0.18665903  0.00346529  0.25000000  1
  Ti  Ti2_1  1  0.18665903  0.00346529  0.75000000  1
  Ti  Ti2_2  1  0.18665903  0.50346529  0.25000000  1
  Ti  Ti2_3  1  0.18665903  0.50346529  0.75000000  1
  Ti  Ti2_4  1  0.68665903  0.00346529  0.25000000  1
  Ti  Ti2_5  1  0.68665903  0.00346529  0.75000000  1
  Ti  Ti2_6  1  0.68665903  0.50346529  0.25000000  1
  Ti  Ti2_7  1  0.68665903  0.50346529  0.75000000  1
  Ga  Ga0_0  1  0.49962889  0.35316850  0.00000000  1
  Ga  Ga0_1  1  0.49962889  0.35316850  0.50000000  1
  Ga  Ga0_2  1  0.49962889  0.85316850  0.00000000  1
  Ga  Ga0_3  1  0.49962889  0.85316850  0.50000000  1
  Ga  Ga0_4  1  0.99962889  0.35316850  0.00000000  1
  Ga  Ga0_5  1  0.99962889  0.35316850  0.50000000  1
  Ga  Ga0_6  1  0.99962889  0.85316850  0.00000000  1
  Ga  Ga0_7  1  0.99962889  0.85316850  0.50000000  1
  Ga  Ga1_0  1  0.14683150  0.14646039  0.00000000  1
  Ga  Ga1_1  1  0.14683150  0.14646039  0.50000000  1
  Ga  Ga1_2  1  0.14683150  0.64646039  0.00000000  1
  Ga  Ga1_3  1  0.14683150  0.64646039  0.50000000  1
  Ga  Ga1_4  1  0.64683150  0.14646039  0.00000000  1
  Ga  Ga1_5  1  0.64683150  0.14646039  0.50000000  1
  Ga  Ga1_6  1  0.64683150  0.64646039  0.00000000  1
  Ga  Ga1_7  1  0.64683150  0.64646039  0.50000000  1
  Ga  Ga2_0  1  0.35353961  0.00037111  0.00000000  1
  Ga  Ga2_1  1  0.35353961  0.00037111  0.50000000  1
  Ga  Ga2_2  1  0.35353961  0.50037111  0.00000000  1
  Ga  Ga2_3  1  0.35353961  0.50037111  0.50000000  1
  Ga  Ga2_4  1  0.85353961  0.00037111  0.00000000  1
  Ga  Ga2_5  1  0.85353961  0.00037111  0.50000000  1
  Ga  Ga2_6  1  0.85353961  0.50037111  0.00000000  1
  Ga  Ga2_7  1  0.85353961  0.50037111  0.50000000  1
  Pt  Pt0_0  1  0.16666650  0.33333350  0.00000000  1
  Pt  Pt0_1  1  0.16666650  0.33333350  0.50000000  1
  Pt  Pt0_2  1  0.16666650  0.83333350  0.00000000  1
  Pt  Pt0_3  1  0.16666650  0.83333350  0.50000000  1
  Pt  Pt0_4  1  0.66666650  0.33333350  0.00000000  1
  Pt  Pt0_5  1  0.66666650  0.33333350  0.50000000  1
  Pt  Pt0_6  1  0.66666650  0.83333350  0.00000000  1
  Pt  Pt0_7  1  0.66666650  0.83333350  0.50000000  1
  Rh  Rh0_0  1  0.33333350  0.16666650  0.00000000  1
  Rh  Rh0_1  1  0.33333350  0.16666650  0.50000000  1
  Rh  Rh0_2  1  0.33333350  0.66666650  0.00000000  1
  Rh  Rh0_3  1  0.33333350  0.66666650  0.50000000  1
  Rh  Rh0_4  1  0.83333350  0.16666650  0.00000000  1
  Rh  Rh0_5  1  0.83333350  0.16666650  0.50000000  1
  Rh  Rh0_6  1  0.83333350  0.66666650  0.00000000  1
  Rh  Rh0_7  1  0.83333350  0.66666650  0.50000000  1
  Rh  Rh1_0  1  0.00000000  0.00000000  0.25000000  1
  Rh  Rh1_1  1  0.00000000  0.00000000  0.75000000  1
  Rh  Rh1_2  1  0.00000000  0.50000000  0.25000000  1
  Rh  Rh1_3  1  0.00000000  0.50000000  0.75000000  1
  Rh  Rh1_4  1  0.50000000  0.00000000  0.25000000  1
  Rh  Rh1_5  1  0.50000000  0.00000000  0.75000000  1
  Rh  Rh1_6  1  0.50000000  0.50000000  0.25000000  1
  Rh  Rh1_7  1  0.50000000  0.50000000  0.75000000  1
loop_
_geom_bond_atom_site_label_1
_geom_bond_atom_site_label_2
_geom_bond_distance
_geom_bond_site_symmetry_2
Ti0_0 Ti0_1 2.893912 1_554
Ti0_0 Ti0_1 2.893912 1_555
Ti0_2 Ti0_3 2.893912 1_554
Ti0_2 Ti0_3 2.893912 1_555
Ti0_4 Ti0_5 2.893912 1_554
Ti0_4 Ti0_5 2.893912 1_555
Ti0_6 Ti0_7 2.893912 1_554
Ti0_6 Ti0_7 2.893912 1_555
Ti1_0 Ti1_1 2.893912 1_554
Ti1_0 Ti1_1 2.893912 1_555
Ti1_2 Ti1_3 2.893912 1_554
Ti1_2 Ti1_3 2.893912 1_555
Ti1_4 Ti1_5 2.893912 1_554
Ti1_4 Ti1_5 2.893912 1_555
Ti1_6 Ti1_7 2.893912 1_554
Ti1_6 Ti1_7 2.893912 1_555
Ti2_0 Ti2_1 2.893912 1_554
Ti2_0 Ti2_1 2.893912 1_555
Ti2_2 Ti2_3 2.893912 1_554
Ti2_2 Ti2_3 2.893912 1_555
Ti2_4 Ti2_5 2.893912 1_554
Ti2_4 Ti2_5 2.893912 1_555
Ti2_6 Ti2_7 2.893912 1_554
Ti2_6 Ti2_7 2.893912 1_555
Ga0_0 Rh1_7 2.587837 1_554
Ga0_0 Rh1_6 2.587837 1_555
Ga0_0 Rh0_0 2.593474 1_555
Ga0_0 Pt0_4 2.601115 1_555
Ga0_0 Ti1_1 2.833572 1_554
Ga0_0 Ti1_0 2.833572 1_555
Ga0_0 Ti0_0 2.857871 1_555
Ga0_0 Ti0_1 2.857871 1_554
Ga0_0 Ga0_1 2.893912 1_555
Ga0_0 Ga0_1 2.893912 1_554
Ga0_0 Ti2_7 2.898193 1_554
Ga0_0 Ti2_6 2.898193 1_555
Ga0_1 Rh1_6 2.587837 1_555
Ga0_1 Rh1_7 2.587837 1_555
Ga0_1 Rh0_1 2.593474 1_555
Ga0_1 Pt0_5 2.601115 1_555
Ga0_1 Ti1_0 2.833572 1_555
Ga0_1 Ti1_1 2.833572 1_555
Ga0_1 Ti0_0 2.857871 1_555
Ga0_1 Ti0_1 2.857871 1_555
Ga0_1 Ti2_6 2.898193 1_555
Ga0_1 Ti2_7 2.898193 1_555
Ga0_2 Rh1_5 2.587837 1_564
Ga0_2 Rh1_4 2.587837 1_565
Ga0_2 Rh0_2 2.593474 1_555
Ga0_2 Pt0_6 2.601115 1_555
Ga0_2 Ti1_3 2.833572 1_554
Ga0_2 Ti1_2 2.833572 1_555
Ga0_2 Ti0_3 2.857871 1_554
Ga0_2 Ti0_2 2.857871 1_555
Ga0_2 Ga0_3 2.893912 1_554
Ga0_2 Ga0_3 2.893912 1_555
Ga0_2 Ti2_5 2.898193 1_564
Ga0_2 Ti2_4 2.898193 1_565
Ga0_3 Rh1_4 2.587837 1_565
Ga0_3 Rh1_5 2.587837 1_565
Ga0_3 Rh0_3 2.593474 1_555
Ga0_3 Pt0_7 2.601115 1_555
Ga0_3 Ti1_2 2.833572 1_555
Ga0_3 Ti1_3 2.833572 1_555
Ga0_3 Ti0_2 2.857871 1_555
Ga0_3 Ti0_3 2.857871 1_555
Ga0_3 Ti2_4 2.898193 1_565
Ga0_3 Ti2_5 2.898193 1_565
Ga0_4 Rh1_3 2.587837 1_654
Ga0_4 Rh1_2 2.587837 1_655
Ga0_4 Rh0_4 2.593474 1_555
Ga0_4 Pt0_0 2.601115 1_655
Ga0_4 Ti1_5 2.833572 1_554
Ga0_4 Ti1_4 2.833572 1_555
Ga0_4 Ti0_4 2.857871 1_555
Ga0_4 Ti0_5 2.857871 1_554
Ga0_4 Ga0_5 2.893912 1_555
Ga0_4 Ga0_5 2.893912 1_554
Ga0_4 Ti2_3 2.898193 1_654
Ga0_4 Ti2_2 2.898193 1_655
Ga0_5 Rh1_2 2.587837 1_655
Ga0_5 Rh1_3 2.587837 1_655
Ga0_5 Rh0_5 2.593474 1_555
Ga0_5 Pt0_1 2.601115 1_655
Ga0_5 Ti1_4 2.833572 1_555
Ga0_5 Ti1_5 2.833572 1_555
Ga0_5 Ti0_4 2.857871 1_555
Ga0_5 Ti0_5 2.857871 1_555
Ga0_5 Ti2_2 2.898193 1_655
Ga0_5 Ti2_3 2.898193 1_655
Ga0_6 Rh1_1 2.587837 1_664
Ga0_6 Rh1_0 2.587837 1_665
Ga0_6 Rh0_6 2.593474 1_555
Ga0_6 Pt0_2 2.601115 1_655
Ga0_6 Ti1_7 2.833572 1_554
Ga0_6 Ti1_6 2.833572 1_555
Ga0_6 Ti0_7 2.857871 1_554
Ga0_6 Ti0_6 2.857871 1_555
Ga0_6 Ga0_7 2.893912 1_555
Ga0_6 Ga0_7 2.893912 1_554
Ga0_6 Ti2_1 2.898193 1_664
Ga0_6 Ti2_0 2.898193 1_665
Ga0_7 Rh1_0 2.587837 1_665
Ga0_7 Rh1_1 2.587837 1_665
Ga0_7 Rh0_7 2.593474 1_555
Ga0_7 Pt0_3 2.601115 1_655
Ga0_7 Ti1_6 2.833572 1_555
Ga0_7 Ti1_7 2.833572 1_555
Ga0_7 Ti0_6 2.857871 1_555
Ga0_7 Ti0_7 2.857871 1_555
Ga0_7 Ti2_1 2.898193 1_665
Ga0_7 Ti2_0 2.898193 1_665
Ga1_0 Rh1_0 2.587838 1_555
Ga1_0 Rh1_1 2.587838 1_554
Ga1_0 Rh0_0 2.593476 1_555
Ga1_0 Pt0_0 2.601123 1_555
Ga1_0 Ti2_1 2.833572 1_554
Ga1_0 Ti2_0 2.833572 1_555
Ga1_0 Ti1_1 2.857871 1_554
Ga1_0 Ti1_0 2.857871 1_555
Ga1_0 Ga1_1 2.893912 1_554
Ga1_0 Ga1_1 2.893912 1_555
Ga1_0 Ti0_5 2.898193 1_454
Ga1_0 Ti0_4 2.898193 1_455
Ga1_1 Rh1_0 2.587838 1_555
Ga1_1 Rh1_1 2.587838 1_555
Ga1_1 Rh0_1 2.593476 1_555
Ga1_1 Pt0_1 2.601123 1_555
Ga1_1 Ti2_0 2.833572 1_555
Ga1_1 Ti2_1 2.833572 1_555
Ga1_1 Ti1_0 2.857871 1_555
Ga1_1 Ti1_1 2.857871 1_555
Ga1_1 Ti0_4 2.898193 1_455
Ga1_1 Ti0_5 2.898193 1_455
Ga1_2 Rh1_3 2.587838 1_554
Ga1_2 Rh1_2 2.587838 1_555
Ga1_2 Rh0_2 2.593476 1_555
Ga1_2 Pt0_2 2.601123 1_555
Ga1_2 Ti2_2 2.833572 1_555
Ga1_2 Ti2_3 2.833572 1_554
Ga1_2 Ti1_3 2.857871 1_554
Ga1_2 Ti1_2 2.857871 1_555
Ga1_2 Ga1_3 2.893912 1_555
Ga1_2 Ga1_3 2.893912 1_554
Ga1_2 Ti0_7 2.898193 1_454
Ga1_2 Ti0_6 2.898193 1_455
Ga1_3 Rh1_2 2.587838 1_555
Ga1_3 Rh1_3 2.587838 1_555
Ga1_3 Rh0_3 2.593476 1_555
Ga1_3 Pt0_3 2.601123 1_555
Ga1_3 Ti2_2 2.833572 1_555
Ga1_3 Ti2_3 2.833572 1_555
Ga1_3 Ti1_3 2.857871 1_555
Ga1_3 Ti1_2 2.857871 1_555
Ga1_3 Ti0_6 2.898193 1_455
Ga1_3 Ti0_7 2.898193 1_455
Ga1_4 Rh1_5 2.587838 1_554
Ga1_4 Rh1_4 2.587838 1_555
Ga1_4 Rh0_4 2.593476 1_555
Ga1_4 Pt0_4 2.601123 1_555
Ga1_4 Ti2_4 2.833572 1_555
Ga1_4 Ti2_5 2.833572 1_554
Ga1_4 Ti1_5 2.857871 1_554
Ga1_4 Ti1_4 2.857871 1_555
Ga1_4 Ga1_5 2.893912 1_554
Ga1_4 Ga1_5 2.893912 1_555
Ga1_4 Ti0_1 2.898193 1_554
Ga1_4 Ti0_0 2.898193 1_555
Ga1_5 Rh1_4 2.587838 1_555
Ga1_5 Rh1_5 2.587838 1_555
Ga1_5 Rh0_5 2.593476 1_555
Ga1_5 Pt0_5 2.601123 1_555
Ga1_5 Ti2_4 2.833572 1_555
Ga1_5 Ti2_5 2.833572 1_555
Ga1_5 Ti1_4 2.857871 1_555
Ga1_5 Ti1_5 2.857871 1_555
Ga1_5 Ti0_0 2.898193 1_555
Ga1_5 Ti0_1 2.898193 1_555
Ga1_6 Rh1_7 2.587838 1_554
Ga1_6 Rh1_6 2.587838 1_555
Ga1_6 Rh0_6 2.593476 1_555
Ga1_6 Pt0_6 2.601123 1_555
Ga1_6 Ti2_7 2.833572 1_554
Ga1_6 Ti2_6 2.833572 1_555
Ga1_6 Ti1_7 2.857871 1_554
Ga1_6 Ti1_6 2.857871 1_555
Ga1_6 Ga1_7 2.893912 1_555
Ga1_6 Ga1_7 2.893912 1_554
Ga1_6 Ti0_3 2.898193 1_554
Ga1_6 Ti0_2 2.898193 1_555
Ga1_7 Rh1_6 2.587838 1_555
Ga1_7 Rh1_7 2.587838 1_555
Ga1_7 Rh0_7 2.593476 1_555
Ga1_7 Pt0_7 2.601123 1_555
Ga1_7 Ti2_7 2.833572 1_555
Ga1_7 Ti2_6 2.833572 1_555
Ga1_7 Ti1_7 2.857871 1_555
Ga1_7 Ti1_6 2.857871 1_555
Ga1_7 Ti0_2 2.898193 1_555
Ga1_7 Ti0_3 2.898193 1_555
Ga2_0 Rh1_5 2.587837 1_554
Ga2_0 Rh1_4 2.587837 1_555
Ga2_0 Rh0_0 2.593469 1_555
Ga2_0 Pt0_2 2.601120 1_545
Ga2_0 Ti0_1 2.833572 1_554
Ga2_0 Ti0_0 2.833572 1_555
Ga2_0 Ti2_1 2.857871 1_554
Ga2_0 Ti2_0 2.857871 1_555
Ga2_0 Ga2_1 2.893912 1_555
Ga2_0 Ga2_1 2.893912 1_554
Ga2_0 Ti1_3 2.898193 1_544
Ga2_0 Ti1_2 2.898193 1_545
Ga2_1 Rh1_4 2.587837 1_555
Ga2_1 Rh1_5 2.587837 1_555
Ga2_1 Rh0_1 2.593469 1_555
Ga2_1 Pt0_3 2.601120 1_545
Ga2_1 Ti0_1 2.833572 1_555
Ga2_1 Ti0_0 2.833572 1_555
Ga2_1 Ti2_0 2.857871 1_555
Ga2_1 Ti2_1 2.857871 1_555
Ga2_1 Ti1_3 2.898193 1_545
Ga2_1 Ti1_2 2.898193 1_545
Ga2_2 Rh1_7 2.587837 1_554
Ga2_2 Rh1_6 2.587837 1_555
Ga2_2 Rh0_2 2.593469 1_555
Ga2_2 Pt0_0 2.601120 1_555
Ga2_2 Ti0_3 2.833572 1_554
Ga2_2 Ti0_2 2.833572 1_555
Ga2_2 Ti2_3 2.857871 1_554
Ga2_2 Ti2_2 2.857871 1_555
Ga2_2 Ga2_3 2.893912 1_554
Ga2_2 Ga2_3 2.893912 1_555
Ga2_2 Ti1_1 2.898193 1_554
Ga2_2 Ti1_0 2.898193 1_555
Ga2_3 Rh1_6 2.587837 1_555
Ga2_3 Rh1_7 2.587837 1_555
Ga2_3 Rh0_3 2.593469 1_555
Ga2_3 Pt0_1 2.601120 1_555
Ga2_3 Ti0_2 2.833572 1_555
Ga2_3 Ti0_3 2.833572 1_555
Ga2_3 Ti2_3 2.857871 1_555
Ga2_3 Ti2_2 2.857871 1_555
Ga2_3 Ti1_0 2.898193 1_555
Ga2_3 Ti1_1 2.898193 1_555
Ga2_4 Rh1_1 2.587837 1_654
Ga2_4 Rh1_0 2.587837 1_655
Ga2_4 Rh0_4 2.593469 1_555
Ga2_4 Pt0_6 2.601120 1_545
Ga2_4 Ti0_5 2.833572 1_554
Ga2_4 Ti0_4 2.833572 1_555
Ga2_4 Ti2_5 2.857871 1_554
Ga2_4 Ti2_4 2.857871 1_555
Ga2_4 Ga2_5 2.893912 1_554
Ga2_4 Ga2_5 2.893912 1_555
Ga2_4 Ti1_7 2.898193 1_544
Ga2_4 Ti1_6 2.898193 1_545
Ga2_5 Rh1_0 2.587837 1_655
Ga2_5 Rh1_1 2.587837 1_655
Ga2_5 Rh0_5 2.593469 1_555
Ga2_5 Pt0_7 2.601120 1_545
Ga2_5 Ti0_4 2.833572 1_555
Ga2_5 Ti0_5 2.833572 1_555
Ga2_5 Ti2_4 2.857871 1_555
Ga2_5 Ti2_5 2.857871 1_555
Ga2_5 Ti1_6 2.898193 1_545
Ga2_5 Ti1_7 2.898193 1_545
Ga2_6 Rh1_3 2.587837 1_654
Ga2_6 Rh1_2 2.587837 1_655
Ga2_6 Rh0_6 2.593469 1_555
Ga2_6 Pt0_4 2.601120 1_555
Ga2_6 Ti0_7 2.833572 1_554
Ga2_6 Ti0_6 2.833572 1_555
Ga2_6 Ti2_7 2.857871 1_554
Ga2_6 Ti2_6 2.857871 1_555
Ga2_6 Ga2_7 2.893912 1_555
Ga2_6 Ga2_7 2.893912 1_554
Ga2_6 Ti1_5 2.898193 1_554
Ga2_6 Ti1_4 2.898193 1_555
Ga2_7 Rh1_2 2.587837 1_655
Ga2_7 Rh1_3 2.587837 1_655
Ga2_7 Rh0_7 2.593469 1_555
Ga2_7 Pt0_5 2.601120 1_555
Ga2_7 Ti0_7 2.833572 1_555
Ga2_7 Ti0_6 2.833572 1_555
Ga2_7 Ti2_6 2.857871 1_555
Ga2_7 Ti2_7 2.857871 1_555
Ga2_7 Ti1_4 2.898193 1_555
Ga2_7 Ti1_5 2.898193 1_555
Pt0_0 Ti2_3 2.765298 1_554
Pt0_0 Ti2_2 2.765298 1_555
Pt0_0 Ti0_5 2.765301 1_454
Pt0_0 Ti0_4 2.765301 1_455
Pt0_0 Ti1_1 2.765304 1_554
Pt0_0 Ti1_0 2.765304 1_555
Pt0_0 Pt0_1 2.893912 1_554
Pt0_0 Pt0_1 2.893912 1_555
Pt0_1 Ti2_2 2.765298 1_555
Pt0_1 Ti2_3 2.765298 1_555
Pt0_1 Ti0_4 2.765301 1_455
Pt0_1 Ti0_5 2.765301 1_455
Pt0_1 Ti1_0 2.765304 1_555
Pt0_1 Ti1_1 2.765304 1_555
Pt0_2 Ti2_1 2.765298 1_564
Pt0_2 Ti2_0 2.765298 1_565
Pt0_2 Ti0_7 2.765301 1_454
Pt0_2 Ti0_6 2.765301 1_455
Pt0_2 Ti1_3 2.765304 1_554
Pt0_2 Ti1_2 2.765304 1_555
Pt0_2 Pt0_3 2.893912 1_555
Pt0_2 Pt0_3 2.893912 1_554
Pt0_3 Ti2_1 2.765298 1_565
Pt0_3 Ti2_0 2.765298 1_565
Pt0_3 Ti0_7 2.765301 1_455
Pt0_3 Ti0_6 2.765301 1_455
Pt0_3 Ti1_2 2.765304 1_555
Pt0_3 Ti1_3 2.765304 1_555
Pt0_4 Ti2_7 2.765298 1_554
Pt0_4 Ti2_6 2.765298 1_555
Pt0_4 Ti0_1 2.765301 1_554
Pt0_4 Ti0_0 2.765301 1_555
Pt0_4 Ti1_5 2.765304 1_554
Pt0_4 Ti1_4 2.765304 1_555
Pt0_4 Pt0_5 2.893912 1_554
Pt0_4 Pt0_5 2.893912 1_555
Pt0_5 Ti2_6 2.765298 1_555
Pt0_5 Ti2_7 2.765298 1_555
Pt0_5 Ti0_0 2.765301 1_555
Pt0_5 Ti0_1 2.765301 1_555
Pt0_5 Ti1_4 2.765304 1_555
Pt0_5 Ti1_5 2.765304 1_555
Pt0_6 Ti2_4 2.765298 1_565
Pt0_6 Ti2_5 2.765298 1_564
Pt0_6 Ti0_3 2.765301 1_554
Pt0_6 Ti0_2 2.765301 1_555
Pt0_6 Ti1_7 2.765304 1_554
Pt0_6 Ti1_6 2.765304 1_555
Pt0_6 Pt0_7 2.893912 1_555
Pt0_6 Pt0_7 2.893912 1_554
Pt0_7 Ti2_4 2.765298 1_565
Pt0_7 Ti2_5 2.765298 1_565
Pt0_7 Ti0_3 2.765301 1_555
Pt0_7 Ti0_2 2.765301 1_555
Pt0_7 Ti1_6 2.765304 1_555
Pt0_7 Ti1_7 2.765304 1_555
Rh0_0 Ti0_1 2.697405 1_554
Rh0_0 Ti0_0 2.697405 1_555
Rh0_0 Ti2_1 2.697408 1_554
Rh0_0 Ti2_0 2.697408 1_555
Rh0_0 Ti1_1 2.697411 1_554
Rh0_0 Ti1_0 2.697411 1_555
Rh0_0 Rh0_1 2.893912 1_555
Rh0_0 Rh0_1 2.893912 1_554
Rh0_1 Ti0_0 2.697405 1_555
Rh0_1 Ti0_1 2.697405 1_555
Rh0_1 Ti2_0 2.697408 1_555
Rh0_1 Ti2_1 2.697408 1_555
Rh0_1 Ti1_0 2.697411 1_555
Rh0_1 Ti1_1 2.697411 1_555
Rh0_2 Ti0_3 2.697405 1_554
Rh0_2 Ti0_2 2.697405 1_555
Rh0_2 Ti2_3 2.697408 1_554
Rh0_2 Ti2_2 2.697408 1_555
Rh0_2 Ti1_3 2.697411 1_554
Rh0_2 Ti1_2 2.697411 1_555
Rh0_2 Rh0_3 2.893912 1_555
Rh0_2 Rh0_3 2.893912 1_554
Rh0_3 Ti0_3 2.697405 1_555
Rh0_3 Ti0_2 2.697405 1_555
Rh0_3 Ti2_2 2.697408 1_555
Rh0_3 Ti2_3 2.697408 1_555
Rh0_3 Ti1_3 2.697411 1_555
Rh0_3 Ti1_2 2.697411 1_555
Rh0_4 Ti0_5 2.697405 1_554
Rh0_4 Ti0_4 2.697405 1_555
Rh0_4 Ti2_5 2.697408 1_554
Rh0_4 Ti2_4 2.697408 1_555
Rh0_4 Ti1_4 2.697411 1_555
Rh0_4 Ti1_5 2.697411 1_554
Rh0_4 Rh0_5 2.893912 1_555
Rh0_4 Rh0_5 2.893912 1_554
Rh0_5 Ti0_5 2.697405 1_555
Rh0_5 Ti0_4 2.697405 1_555
Rh0_5 Ti2_4 2.697408 1_555
Rh0_5 Ti2_5 2.697408 1_555
Rh0_5 Ti1_4 2.697411 1_555
Rh0_5 Ti1_5 2.697411 1_555
Rh0_6 Ti0_7 2.697405 1_554
Rh0_6 Ti0_6 2.697405 1_555
Rh0_6 Ti2_7 2.697408 1_554
Rh0_6 Ti2_6 2.697408 1_555
Rh0_6 Ti1_7 2.697411 1_554
Rh0_6 Ti1_6 2.697411 1_555
Rh0_6 Rh0_7 2.893912 1_555
Rh0_6 Rh0_7 2.893912 1_554
Rh0_7 Ti0_6 2.697405 1_555
Rh0_7 Ti0_7 2.697405 1_555
Rh0_7 Ti2_6 2.697408 1_555
Rh0_7 Ti2_7 2.697408 1_555
Rh0_7 Ti1_7 2.697411 1_555
Rh0_7 Ti1_6 2.697411 1_555
Rh1_0 Ti0_4 2.705926 1_455
Rh1_0 Ti2_0 2.705926 1_555
Rh1_0 Ti1_6 2.705926 1_445
Rh1_0 Rh1_1 2.893912 1_554
Rh1_0 Rh1_1 2.893912 1_555
Rh1_1 Ti0_5 2.705926 1_455
Rh1_1 Ti2_1 2.705926 1_555
Rh1_1 Ti1_7 2.705926 1_445
Rh1_2 Ti0_6 2.705926 1_455
Rh1_2 Ti2_2 2.705926 1_555
Rh1_2 Ti1_4 2.705926 1_455
Rh1_2 Rh1_3 2.893912 1_554
Rh1_2 Rh1_3 2.893912 1_555
Rh1_3 Ti0_7 2.705926 1_455
Rh1_3 Ti2_3 2.705926 1_555
Rh1_3 Ti1_5 2.705926 1_455
Rh1_4 Ti0_0 2.705926 1_555
Rh1_4 Ti2_4 2.705926 1_555
Rh1_4 Ti1_2 2.705926 1_545
Rh1_4 Rh1_5 2.893912 1_554
Rh1_4 Rh1_5 2.893912 1_555
Rh1_5 Ti0_1 2.705926 1_555
Rh1_5 Ti2_5 2.705926 1_555
Rh1_5 Ti1_3 2.705926 1_545
Rh1_6 Ti0_2 2.705926 1_555
Rh1_6 Ti2_6 2.705926 1_555
Rh1_6 Ti1_0 2.705926 1_555
Rh1_6 Rh1_7 2.893912 1_554
Rh1_6 Rh1_7 2.893912 1_555
Rh1_7 Ti0_3 2.705926 1_555
Rh1_7 Ti2_7 2.705926 1_555
Rh1_7 Ti1_1 2.705926 1_555
