# generated using pymatgen
data_Ba10NbTcN10
_symmetry_space_group_name_H-M   'P 1'
_cell_length_a   8.15987697
_cell_length_b   8.15986952
_cell_length_c   9.56339598
_cell_angle_alpha   76.31221856
_cell_angle_beta   76.31201037
_cell_angle_gamma   97.07478633
_symmetry_Int_Tables_number   1
_chemical_formula_structural   Ba10NbTcN10
_chemical_formula_sum   'Ba10 Nb1 Tc1 N10'
_cell_volume   590.18403296
_cell_formula_units_Z   1
loop_
 _symmetry_equiv_pos_site_id
 _symmetry_equiv_pos_as_xyz
  1  'x, y, z'
loop_
 _atom_site_type_symbol
 _atom_site_label
 _atom_site_symmetry_multiplicity
 _atom_site_fract_x
 _atom_site_fract_y
 _atom_site_fract_z
 _atom_site_occupancy
  Ba  Ba0  1  0.39147787  0.39055021  0.38265910  1
  Ba  Ba1  1  0.60945219  0.60851981  0.61734145  1
  Ba  Ba2  1  0.66706577  0.66645047  0.00701726  1
  Ba  Ba3  1  0.33354814  0.33293817  0.99298077  1
  Ba  Ba4  1  0.92279219  0.91881406  0.20358250  1
  Ba  Ba5  1  0.08118689  0.07720484  0.79641861  1
  Ba  Ba6  1  0.55911053  0.09616287  0.75232382  1
  Ba  Ba7  1  0.90383230  0.44088978  0.24767511  1
  Ba  Ba8  1  0.43481834  0.89815413  0.24963947  1
  Ba  Ba9  1  0.10184696  0.56518043  0.75036012  1
  Nb  Nb0  1  0.24340575  0.75659008  0.00000643  1
  Tc  Tc0  1  0.75726958  0.24272940  0.99999837  1
  N  N0  1  0.65349662  0.65464852  0.30913288  1
  N  N1  1  0.34535327  0.34650377  0.69086663  1
  N  N2  1  0.71454401  0.02303607  0.99047901  1
  N  N3  1  0.97696410  0.28545639  0.00951840  1
  N  N4  1  0.28432101  0.99366286  0.01375077  1
  N  N5  1  0.00634336  0.71568094  0.98624811  1
  N  N6  1  0.40504529  0.73490739  0.81959447  1
  N  N7  1  0.26508923  0.59495615  0.18040934  1
  N  N8  1  0.61141389  0.26837537  0.16454232  1
  N  N9  1  0.73162570  0.38858529  0.83545305  1
loop_
_geom_bond_atom_site_label_1
_geom_bond_atom_site_label_2
_geom_bond_distance
_geom_bond_site_symmetry_2
Ba0 N0 2.673219 1_555
Ba0 N7 2.725380 1_555
Ba0 N1 2.810506 1_555
Ba0 N8 2.866873 1_555
Ba1 N1 2.673210 1_555
Ba1 N6 2.725392 1_555
Ba1 N0 2.810514 1_555
Ba1 N9 2.866835 1_555
Ba2 N5 2.700604 1_654
Ba2 N0 2.843167 1_555
Ba2 N2 2.849024 1_564
Ba2 N6 3.119301 1_554
Ba2 N9 3.123480 1_554
Ba2 N8 3.166035 1_555
Ba2 N7 3.216458 1_555
Ba3 N4 2.700582 1_546
Ba3 N1 2.843153 1_555
Ba3 N3 2.849015 1_456
Ba3 N7 3.119317 1_556
Ba3 N8 3.123478 1_556
Ba3 N9 3.166060 1_555
Ba3 N6 3.216394 1_555
Ba4 N0 2.692156 1_555
Ba4 N5 2.961486 1_654
Ba4 N4 2.977970 1_655
Ba4 N2 2.989804 1_564
Ba4 N3 3.041154 1_565
Ba5 N1 2.692177 1_555
Ba5 N4 2.961472 1_546
Ba5 N5 2.977935 1_545
Ba5 N3 2.989792 1_456
Ba5 N2 3.041146 1_455
Ba6 N4 2.805918 1_546
Ba6 N2 2.839435 1_555
Ba6 N1 2.890547 1_555
Ba6 N6 2.913880 1_545
Ba6 N9 2.984502 1_555
Ba7 N5 2.805928 1_654
Ba7 N3 2.839444 1_555
Ba7 N0 2.890523 1_555
Ba7 N7 2.913900 1_655
Ba7 N8 2.984495 1_555
Ba8 N4 2.814132 1_555
Ba8 N2 2.818777 1_564
Ba8 N0 2.876569 1_555
Ba8 N7 2.973645 1_555
Ba8 N8 3.012326 1_565
Ba9 N5 2.814131 1_555
Ba9 N3 2.818760 1_456
Ba9 N1 2.876560 1_555
Ba9 N6 2.973663 1_555
Ba9 N9 3.012329 1_455
N2 Tc0 1.811574 1_555
N3 Tc0 1.811588 1_554
N4 Nb0 1.962901 1_555
N5 Nb0 1.962862 1_556
N6 Nb0 1.967928 1_556
N7 Nb0 1.967849 1_555
N8 Tc0 1.807578 1_554
N9 Tc0 1.807586 1_555
