# generated using pymatgen
data_Sc4Ga3As3Ir7
_symmetry_space_group_name_H-M   'P 1'
_cell_length_a   7.06338718
_cell_length_b   7.06338782
_cell_length_c   7.09364287
_cell_angle_alpha   109.55800688
_cell_angle_beta   109.55800872
_cell_angle_gamma   109.38429942
_symmetry_Int_Tables_number   1
_chemical_formula_structural   Sc4Ga3As3Ir7
_chemical_formula_sum   'Sc4 Ga3 As3 Ir7'
_cell_volume   272.14927708
_cell_formula_units_Z   1
loop_
 _symmetry_equiv_pos_site_id
 _symmetry_equiv_pos_as_xyz
  1  'x, y, z'
loop_
 _atom_site_type_symbol
 _atom_site_label
 _atom_site_symmetry_multiplicity
 _atom_site_fract_x
 _atom_site_fract_y
 _atom_site_fract_z
 _atom_site_occupancy
  Sc  Sc0  1  0.00000000  0.00000000  0.52324412  1
  Sc  Sc1  1  1.00000000  0.49195907  0.00727581  1
  Sc  Sc2  1  0.49195907  1.00000000  0.00727581  1
  Sc  Sc3  1  0.50804093  0.50804093  0.51531674  1
  Ga  Ga0  1  0.70653584  0.70653584  0.01158304  1
  Ga  Ga1  1  0.29346416  0.00000000  0.30504720  1
  Ga  Ga2  1  1.00000000  0.29346416  0.30504720  1
  As  As0  1  0.32732947  0.32732947  0.00592005  1
  As  As1  1  0.67267053  1.00000000  0.67859057  1
  As  As2  1  0.00000000  0.67267053  0.67859057  1
  Ir  Ir0  1  0.74520360  0.24591081  0.49571957  1
  Ir  Ir1  1  0.75408919  0.49929279  0.24980876  1
  Ir  Ir2  1  0.50070721  0.25479640  0.75051598  1
  Ir  Ir3  1  0.25479640  0.50070721  0.75051598  1
  Ir  Ir4  1  0.24591081  0.74520360  0.49571957  1
  Ir  Ir5  1  0.49929279  0.75408919  0.24980876  1
  Ir  Ir6  1  1.00000000  1.00000000  0.97002125  1
loop_
_geom_bond_atom_site_label_1
_geom_bond_atom_site_label_2
_geom_bond_distance
_geom_bond_site_symmetry_2
Ga0 Ir6 2.578079 1_554
Ga0 Ir5 2.591125 1_555
Ga0 Ir1 2.591125 1_555
Ga0 Ir3 2.624171 1_554
Ga0 Ir2 2.624171 1_554
Ga0 Sc3 2.900049 1_554
Ga0 Sc1 2.948165 1_555
Ga0 Sc2 2.948165 1_555
Ga0 Sc0 2.973300 1_665
Ga1 Ir6 2.578079 1_444
Ga1 Ir4 2.591125 1_545
Ga1 Ir2 2.591126 1_555
Ga1 Ir0 2.624170 1_555
Ga1 Ir5 2.624171 1_545
Ga1 Sc2 2.900048 1_545
Ga1 Sc1 2.948165 1_445
Ga1 Sc3 2.948165 1_555
Ga1 Sc0 2.973300 1_555
Ga2 Ir6 2.578080 1_544
Ga2 Ir0 2.591125 1_555
Ga2 Ir3 2.591125 1_655
Ga2 Ir4 2.624171 1_655
Ga2 Ir1 2.624171 1_555
Ga2 Sc1 2.900048 1_555
Ga2 Sc3 2.948165 1_655
Ga2 Sc2 2.948165 1_545
Ga2 Sc0 2.973300 1_655
As0 Ir1 2.495179 1_555
As0 Ir5 2.495179 1_555
As0 Ir2 2.514983 1_554
As0 Ir3 2.514983 1_554
As0 Ir6 2.533617 1_444
As0 Sc0 2.875024 1_554
As0 Sc1 2.913755 1_455
As0 Sc2 2.913756 1_545
As0 Sc3 3.009668 1_555
As1 Ir4 2.495179 1_555
As1 Ir2 2.495180 1_565
As1 Ir0 2.514983 1_565
As1 Ir5 2.514984 1_555
As1 Ir6 2.533618 1_555
As1 Sc0 2.875024 1_665
As1 Sc1 2.913755 1_566
As1 Sc3 2.913755 1_555
As1 Sc2 3.009668 1_556
As2 Ir0 2.495179 1_455
As2 Ir3 2.495179 1_555
As2 Ir4 2.514983 1_555
As2 Ir1 2.514984 1_455
As2 Ir6 2.533618 1_455
As2 Sc0 2.875024 1_565
As2 Sc3 2.913755 1_455
As2 Sc2 2.913755 1_556
As2 Sc1 3.009668 1_456
Ir0 Sc2 2.824972 1_545
Ir0 Sc3 2.880302 1_555
Ir0 Sc0 2.891551 1_655
Ir0 Sc1 2.959119 1_556
Ir1 Sc1 2.824972 1_555
Ir1 Sc2 2.880302 1_545
Ir1 Sc0 2.891551 1_665
Ir1 Sc3 2.959119 1_555
Ir2 Sc3 2.824972 1_555
Ir2 Sc1 2.880301 1_556
Ir2 Sc0 2.891550 1_555
Ir2 Sc2 2.959119 1_546
Ir3 Sc3 2.824972 1_555
Ir3 Sc2 2.880302 1_556
Ir3 Sc0 2.891551 1_555
Ir3 Sc1 2.959119 1_456
Ir4 Sc1 2.824972 1_455
Ir4 Sc3 2.880302 1_555
Ir4 Sc0 2.891551 1_565
Ir4 Sc2 2.959119 1_556
Ir5 Sc2 2.824972 1_555
Ir5 Sc1 2.880301 1_455
Ir5 Sc0 2.891550 1_665
Ir5 Sc3 2.959119 1_555
Ir6 Sc0 3.169277 1_665
