# generated using pymatgen
data_Ta6Cr5Si6Tc
_symmetry_space_group_name_H-M   'P 1'
_cell_length_a   7.39956331
_cell_length_b   7.39941848
_cell_length_c   7.39941810
_cell_angle_alpha   126.52153743
_cell_angle_beta   127.42563853
_cell_angle_gamma   78.29549651
_symmetry_Int_Tables_number   1
_chemical_formula_structural   Ta6Cr5Si6Tc
_chemical_formula_sum   'Ta6 Cr5 Si6 Tc1'
_cell_volume   250.42456777
_cell_formula_units_Z   1
loop_
 _symmetry_equiv_pos_site_id
 _symmetry_equiv_pos_as_xyz
  1  'x, y, z'
loop_
 _atom_site_type_symbol
 _atom_site_label
 _atom_site_symmetry_multiplicity
 _atom_site_fract_x
 _atom_site_fract_y
 _atom_site_fract_z
 _atom_site_occupancy
  Ta  Ta0  1  0.54542845  0.09223297  0.04464327  1
  Ta  Ta1  1  0.45457155  0.49921483  0.54680553  1
  Ta  Ta2  1  0.95226146  0.49922568  0.04454368  1
  Ta  Ta3  1  0.04773854  0.09228222  0.54696422  1
  Ta  Ta4  1  0.74789101  0.89483457  0.64271832  1
  Ta  Ta5  1  0.25210899  0.89482631  0.14694456  1
  Cr  Cr0  1  0.12722649  0.75162293  0.62432474  1
  Cr  Cr1  1  0.87277351  0.49709825  0.62439644  1
  Cr  Cr2  1  0.62848576  0.75402048  0.12541415  1
  Cr  Cr3  1  0.37151424  0.49692839  0.12553572  1
  Cr  Cr4  1  0.50000000  0.24090710  0.74090710  1
  Si  Si0  1  0.33342653  0.83121492  0.49773653  1
  Si  Si1  1  0.66657347  0.16430900  0.49778839  1
  Si  Si2  1  0.83320421  0.82895672  0.99571412  1
  Si  Si3  1  0.16679579  0.16250891  0.99575251  1
  Si  Si4  1  0.74504646  0.49939464  0.24440820  1
  Si  Si5  1  0.25495354  0.49936174  0.75434918  1
  Tc  Tc0  1  0.00000000  0.24305733  0.24305733  1
loop_
_geom_bond_atom_site_label_1
_geom_bond_atom_site_label_2
_geom_bond_distance
_geom_bond_site_symmetry_2
Ta0 Tc0 2.878451 1_655
Ta1 Tc0 2.878449 1_555
Ta2 Tc0 2.878706 1_655
Ta3 Tc0 2.878706 1_555
Ta4 Tc0 2.847175 1_666
Ta5 Tc0 2.847178 1_565
Cr0 Si4 2.370052 1_455
Cr0 Si5 2.370562 1_555
Cr0 Si0 2.512077 1_555
Cr0 Si3 2.514004 1_565
Cr0 Ta3 2.781024 1_565
Cr0 Ta0 2.781627 1_566
Cr0 Ta4 2.847120 1_455
Cr0 Ta5 2.847397 1_556
Cr0 Ta2 2.874424 1_455
Cr0 Ta1 2.874452 1_555
Cr1 Si5 2.370050 1_655
Cr1 Si4 2.370557 1_555
Cr1 Si1 2.512084 1_555
Cr1 Si2 2.514008 1_555
Cr1 Ta2 2.781024 1_556
Cr1 Ta1 2.781630 1_555
Cr1 Ta5 2.847119 1_656
Cr1 Ta4 2.847387 1_555
Cr1 Ta3 2.874424 1_655
Cr1 Ta0 2.874455 1_555
Cr2 Si5 2.336650 1_554
Cr2 Si4 2.336897 1_555
Cr2 Si2 2.502875 1_554
Cr2 Si1 2.516932 1_565
Cr2 Ta0 2.776247 1_565
Cr2 Ta3 2.777519 1_665
Cr2 Ta5 2.834024 1_555
Cr2 Ta4 2.834383 1_555
Cr2 Ta2 2.866967 1_555
Cr2 Ta1 2.867187 1_554
Cr3 Si4 2.336653 1_555
Cr3 Si5 2.336897 1_554
Cr3 Si3 2.502878 1_554
Cr3 Si0 2.516932 1_555
Cr3 Ta1 2.776247 1_555
Cr3 Ta2 2.777516 1_455
Cr3 Ta4 2.834021 1_555
Cr3 Ta5 2.834376 1_555
Cr3 Ta3 2.866971 1_554
Cr3 Ta0 2.867192 1_555
Cr4 Si5 2.353917 1_555
Cr4 Si4 2.353917 1_556
Cr4 Si1 2.504933 1_555
Cr4 Si0 2.504935 1_545
Cr4 Ta5 2.819476 1_545
Cr4 Ta4 2.819480 1_545
Cr4 Ta3 2.871524 1_555
Cr4 Ta2 2.871525 1_556
Cr4 Ta1 2.872079 1_555
Cr4 Ta0 2.872085 1_556
Si0 Ta1 2.596706 1_555
Si0 Ta2 2.597103 1_455
Si0 Ta5 2.600374 1_555
Si0 Ta4 2.600729 1_555
Si0 Ta3 2.602834 1_565
Si0 Ta0 2.603448 1_566
Si1 Ta0 2.596706 1_555
Si1 Ta3 2.597102 1_655
Si1 Ta4 2.600380 1_545
Si1 Ta5 2.600730 1_545
Si1 Ta2 2.602836 1_556
Si1 Ta1 2.603453 1_555
Si2 Tc0 2.525003 1_666
Si2 Ta2 2.578691 1_556
Si2 Ta1 2.579099 1_555
Si2 Ta4 2.616282 1_555
Si2 Ta5 2.616445 1_656
Si2 Ta0 2.622030 1_566
Si2 Ta3 2.622823 1_666
Si3 Tc0 2.525000 1_556
Si3 Ta3 2.578695 1_555
Si3 Ta0 2.579098 1_556
Si3 Ta5 2.616287 1_546
Si3 Ta4 2.616446 1_445
Si3 Ta1 2.622035 1_556
Si3 Ta2 2.622828 1_456
Si4 Tc0 2.388585 1_655
Si4 Ta4 2.633169 1_555
Si4 Ta2 2.700235 1_555
Si4 Ta0 2.700859 1_555
Si5 Tc0 2.388590 1_555
Si5 Ta5 2.633165 1_556
Si5 Ta3 2.700232 1_555
Si5 Ta1 2.700859 1_555
