# generated using pymatgen
data_LiGaS2
_symmetry_space_group_name_H-M   'P 1'
_cell_length_a   6.24043536
_cell_length_b   6.53051520
_cell_length_c   7.84854004
_cell_angle_alpha   90.00000000
_cell_angle_beta   90.00000000
_cell_angle_gamma   90.00000000
_symmetry_Int_Tables_number   1
_chemical_formula_structural   LiGaS2
_chemical_formula_sum   'Li4 Ga4 S8'
_cell_volume   319.85357696
_cell_formula_units_Z   4
loop_
 _symmetry_equiv_pos_site_id
 _symmetry_equiv_pos_as_xyz
  1  'x, y, z'
loop_
 _atom_site_type_symbol
 _atom_site_label
 _atom_site_symmetry_multiplicity
 _atom_site_fract_x
 _atom_site_fract_y
 _atom_site_fract_z
 _atom_site_occupancy
  Li  Li0  1  0.61892797  0.58604841  0.12269012  1
  Li  Li1  1  0.11892797  0.91395159  0.62269012  1
  Li  Li2  1  0.61892797  0.08604841  0.37730988  1
  Li  Li3  1  0.11892797  0.41395159  0.87730988  1
  Ga  Ga0  1  0.62179999  0.57380116  0.62588611  1
  Ga  Ga1  1  0.12179999  0.42619884  0.37411389  1
  Ga  Ga2  1  0.12179999  0.92619884  0.12588611  1
  Ga  Ga3  1  0.62179999  0.07380116  0.87411389  1
  S  S0  1  0.98840969  0.06687710  0.88312394  1
  S  S1  1  0.98840969  0.56687710  0.61687606  1
  S  S2  1  0.48840969  0.93312290  0.11687606  1
  S  S3  1  0.48840969  0.43312290  0.38312394  1
  S  S4  1  0.50707135  0.90609824  0.63567772  1
  S  S5  1  0.00707135  0.09390176  0.36432228  1
  S  S6  1  0.00707135  0.59390176  0.13567772  1
  S  S7  1  0.50707135  0.40609824  0.86432228  1
loop_
_geom_bond_atom_site_label_1
_geom_bond_atom_site_label_2
_geom_bond_distance
_geom_bond_site_symmetry_2
Li0 S2 2.408909 1_555
Li0 S3 2.416361 1_555
Li0 S6 2.424870 1_655
Li0 S7 2.445462 1_554
Li1 S1 2.408909 1_455
Li1 S0 2.416361 1_465
Li1 S4 2.424870 1_555
Li1 S5 2.445462 1_565
Li2 S3 2.408909 1_555
Li2 S2 2.416361 1_545
Li2 S5 2.424870 1_655
Li2 S4 2.445462 1_545
Li3 S0 2.408909 1_455
Li3 S1 2.416361 1_455
Li3 S7 2.424870 1_555
Li3 S6 2.445462 1_556
Ga0 S3 2.273148 1_555
Ga0 S7 2.283435 1_555
Ga0 S4 2.286418 1_555
Ga0 S1 2.289343 1_555
Ga1 S1 2.273148 1_455
Ga1 S6 2.283435 1_555
Ga1 S5 2.286418 1_555
Ga1 S3 2.289343 1_555
Ga2 S0 2.273148 1_464
Ga2 S5 2.283435 1_565
Ga2 S6 2.286418 1_555
Ga2 S2 2.289343 1_555
Ga3 S2 2.273148 1_546
Ga3 S4 2.283435 1_545
Ga3 S7 2.286418 1_555
Ga3 S0 2.289343 1_555
