# generated using pymatgen
data_Hf5GaSnSb2
_symmetry_space_group_name_H-M   'P 1'
_cell_length_a   8.58509513
_cell_length_b   8.58509639
_cell_length_c   5.75468482
_cell_angle_alpha   90.00000000
_cell_angle_beta   90.00000000
_cell_angle_gamma   119.96783401
_symmetry_Int_Tables_number   1
_chemical_formula_structural   Hf5GaSnSb2
_chemical_formula_sum   'Hf10 Ga2 Sn2 Sb4'
_cell_volume   367.43721162
_cell_formula_units_Z   2
loop_
 _symmetry_equiv_pos_site_id
 _symmetry_equiv_pos_as_xyz
  1  'x, y, z'
loop_
 _atom_site_type_symbol
 _atom_site_label
 _atom_site_symmetry_multiplicity
 _atom_site_fract_x
 _atom_site_fract_y
 _atom_site_fract_z
 _atom_site_occupancy
  Hf  Hf0  1  0.73632782  0.73632782  0.75000000  1
  Hf  Hf1  1  0.26337129  0.99988406  0.75000000  1
  Hf  Hf2  1  0.99988406  0.26337129  0.75000000  1
  Hf  Hf3  1  0.27160747  0.27160747  0.25000000  1
  Hf  Hf4  1  0.72954533  0.99938938  0.25000000  1
  Hf  Hf5  1  0.99938938  0.72954533  0.25000000  1
  Hf  Hf6  1  0.66680086  0.33368564  0.00173420  1
  Hf  Hf7  1  0.33368564  0.66680086  0.00173420  1
  Hf  Hf8  1  0.33368564  0.66680086  0.49826580  1
  Hf  Hf9  1  0.66680086  0.33368564  0.49826580  1
  Ga  Ga0  1  0.00061910  0.00061910  0.00625903  1
  Ga  Ga1  1  0.00061910  0.00061910  0.49374097  1
  Sn  Sn0  1  0.38631400  0.00019381  0.25000000  1
  Sn  Sn1  1  0.00019381  0.38631400  0.25000000  1
  Sb  Sb0  1  0.39188177  0.39188177  0.75000000  1
  Sb  Sb1  1  0.60637655  0.00090652  0.75000000  1
  Sb  Sb2  1  0.00090652  0.60637655  0.75000000  1
  Sb  Sb3  1  0.61199078  0.61199078  0.25000000  1
loop_
_geom_bond_atom_site_label_1
_geom_bond_atom_site_label_2
_geom_bond_distance
_geom_bond_site_symmetry_2
Hf0 Sb0 2.958540 1_555
Hf0 Sb2 2.989267 1_655
Hf0 Sb1 2.989267 1_565
Hf0 Sb3 3.069144 1_555
Hf0 Sb3 3.069144 1_556
Hf1 Sb1 2.940358 1_565
Hf1 Sb0 2.972109 1_565
Hf1 Sb2 2.980828 1_555
Hf1 Sn0 3.064364 1_565
Hf1 Sn0 3.064364 1_566
Hf2 Sb2 2.940358 1_655
Hf2 Sb0 2.972109 1_655
Hf2 Sb1 2.980828 1_555
Hf2 Sn1 3.064365 1_656
Hf2 Sn1 3.064365 1_655
Hf3 Sb3 2.923644 1_555
Hf3 Sn1 2.948147 1_555
Hf3 Sn0 2.948148 1_555
Hf3 Sb0 3.057177 1_554
Hf3 Sb0 3.057177 1_555
Hf4 Sn0 2.950129 1_565
Hf4 Sn1 2.953355 1_665
Hf4 Sb3 2.954079 1_555
Hf4 Sb1 3.067761 1_565
Hf4 Sb1 3.067761 1_564
Hf5 Sn1 2.950130 1_655
Hf5 Sn0 2.953354 1_665
Hf5 Sb3 2.954078 1_555
Hf5 Sb2 3.067761 1_655
Hf5 Sb2 3.067761 1_654
Hf6 Sb1 3.008190 1_554
Hf6 Sb3 3.015692 1_555
Hf6 Sb0 3.016097 1_554
Hf6 Sb2 3.016305 1_654
Hf6 Sn1 3.024170 1_655
Hf6 Sn0 3.024765 1_555
Hf7 Sb2 3.008190 1_554
Hf7 Sb3 3.015692 1_555
Hf7 Sb0 3.016097 1_554
Hf7 Sb1 3.016305 1_564
Hf7 Sn0 3.024170 1_565
Hf7 Sn1 3.024765 1_555
Hf8 Sb2 3.008190 1_555
Hf8 Sb3 3.015692 1_555
Hf8 Sb0 3.016097 1_555
Hf8 Sb1 3.016305 1_565
Hf8 Sn0 3.024170 1_565
Hf8 Sn1 3.024765 1_555
Hf9 Sb1 3.008190 1_555
Hf9 Sb3 3.015692 1_555
Hf9 Sb0 3.016097 1_555
Hf9 Sb2 3.016305 1_655
Hf9 Sn1 3.024170 1_655
Hf9 Sn0 3.024765 1_555
Ga0 Hf1 2.697664 1_544
Ga0 Hf2 2.697664 1_454
Ga0 Hf0 2.707014 1_444
Ga0 Hf4 2.712717 1_445
Ga0 Hf5 2.712717 1_445
Ga0 Hf3 2.717558 1_555
Ga1 Hf1 2.697664 1_545
Ga1 Hf2 2.697664 1_455
Ga1 Hf0 2.707014 1_445
Ga1 Hf4 2.712717 1_445
Ga1 Hf5 2.712717 1_445
Ga1 Hf3 2.717558 1_555
