# generated using pymatgen
data_Cs2NaLuAs2
_symmetry_space_group_name_H-M   'P 1'
_cell_length_a   9.68400433
_cell_length_b   9.68400382
_cell_length_c   9.68400423
_cell_angle_alpha   137.16683632
_cell_angle_beta   136.57211889
_cell_angle_gamma   62.64020561
_symmetry_Int_Tables_number   1
_chemical_formula_structural   Cs2NaLuAs2
_chemical_formula_sum   'Cs4 Na2 Lu2 As4'
_cell_volume   419.23735549
_cell_formula_units_Z   2
loop_
 _symmetry_equiv_pos_site_id
 _symmetry_equiv_pos_as_xyz
  1  'x, y, z'
loop_
 _atom_site_type_symbol
 _atom_site_label
 _atom_site_symmetry_multiplicity
 _atom_site_fract_x
 _atom_site_fract_y
 _atom_site_fract_z
 _atom_site_occupancy
  Cs  Cs0  1  0.53113740  0.31823443  0.21290396  1
  Cs  Cs1  1  0.46886260  0.68176557  0.78709604  1
  Cs  Cs2  1  0.10533147  0.81823443  0.28709604  1
  Cs  Cs3  1  0.89466853  0.18176557  0.71290396  1
  Na  Na0  1  0.50000000  0.25000000  0.75000000  1
  Na  Na1  1  0.50000000  0.75000000  0.25000000  1
  Lu  Lu0  1  0.00000000  0.25000000  0.25000000  1
  Lu  Lu1  1  0.00000000  0.75000000  0.75000000  1
  As  As0  1  0.30576962  0.08800970  0.21775992  1
  As  As1  1  0.69423038  0.91199030  0.78224008  1
  As  As2  1  0.87025078  0.58800970  0.28224008  1
  As  As3  1  0.12974922  0.41199030  0.71775992  1
loop_
_geom_bond_atom_site_label_1
_geom_bond_atom_site_label_2
_geom_bond_distance
_geom_bond_site_symmetry_2
As0 Lu1 2.771502 1_544
As0 Lu0 2.771502 1_555
As0 Na1 3.055590 1_545
As0 Na0 3.055590 1_555
As0 Cs0 3.809365 1_555
As0 Cs3 3.872310 1_555
As0 Cs1 3.893208 1_555
As0 Cs1 3.893215 1_544
As0 Cs3 3.936180 1_454
As1 Lu0 2.771502 1_666
As1 Lu1 2.771502 1_655
As1 Na0 3.055590 1_565
As1 Na1 3.055590 1_555
As1 Cs1 3.809365 1_555
As1 Cs2 3.872310 1_555
As1 Cs0 3.893208 1_555
As1 Cs0 3.893215 1_566
As1 Cs2 3.936180 1_656
As2 Lu0 2.771502 1_655
As2 Lu1 2.771506 1_655
As2 Na0 3.055595 1_554
As2 Na1 3.055599 1_555
As2 Cs2 3.809373 1_655
As2 Cs1 3.872317 1_554
As2 Cs3 3.893196 1_554
As2 Cs3 3.893209 1_565
As2 Cs1 3.936180 1_655
As3 Lu1 2.771502 1_555
As3 Lu0 2.771506 1_555
As3 Na1 3.055595 1_556
As3 Na0 3.055599 1_555
As3 Cs3 3.809373 1_455
As3 Cs0 3.872317 1_556
As3 Cs2 3.893196 1_556
As3 Cs2 3.893209 1_545
As3 Cs0 3.936180 1_455
