# generated using pymatgen
data_BaSO4
_symmetry_space_group_name_H-M   'P 1'
_cell_length_a   5.23086484
_cell_length_b   5.23086484
_cell_length_c   5.23086484
_cell_angle_alpha   60.00000000
_cell_angle_beta   60.00000000
_cell_angle_gamma   60.00000000
_symmetry_Int_Tables_number   1
_chemical_formula_structural   BaSO4
_chemical_formula_sum   'Ba1 S1 O4'
_cell_volume   101.20582224
_cell_formula_units_Z   1
loop_
 _symmetry_equiv_pos_site_id
 _symmetry_equiv_pos_as_xyz
  1  'x, y, z'
loop_
 _atom_site_type_symbol
 _atom_site_label
 _atom_site_symmetry_multiplicity
 _atom_site_fract_x
 _atom_site_fract_y
 _atom_site_fract_z
 _atom_site_occupancy
  Ba  Ba0  1  0.50000000  0.50000000  0.50000000  1
  S  S0  1  0.00000000  0.00000000  0.00000000  1
  O  O0  1  0.88361200  0.88361200  0.34916400  1
  O  O1  1  0.88361200  0.34916400  0.88361200  1
  O  O2  1  0.88361200  0.88361200  0.88361200  1
  O  O3  1  0.34916400  0.88361200  0.88361200  1
loop_
_geom_bond_atom_site_label_1
_geom_bond_atom_site_label_2
_geom_bond_distance
_geom_bond_site_symmetry_2
Ba0 O1 3.087987 1_555
Ba0 O0 3.087987 1_555
Ba0 O3 3.087987 1_555
Ba0 O2 3.087987 1_545
Ba0 O2 3.087987 1_554
Ba0 O3 3.087987 1_545
Ba0 O2 3.087987 1_455
Ba0 O0 3.087987 1_545
Ba0 O0 3.087987 1_455
Ba0 O1 3.087987 1_455
Ba0 O3 3.087987 1_554
Ba0 O1 3.087987 1_554
O0 S0 1.491274 1_665
O1 S0 1.491274 1_656
O2 S0 1.491274 1_666
O3 S0 1.491274 1_566
