# generated using pymatgen
data_Lu4Pd3PtO14
_symmetry_space_group_name_H-M   'P 1'
_cell_length_a   7.08199596
_cell_length_b   7.08199530
_cell_length_c   7.06632953
_cell_angle_alpha   59.92663998
_cell_angle_beta   59.92663801
_cell_angle_gamma   60.00000074
_symmetry_Int_Tables_number   1
_chemical_formula_structural   Lu4Pd3PtO14
_chemical_formula_sum   'Lu4 Pd3 Pt1 O14'
_cell_volume   250.32702652
_cell_formula_units_Z   1
loop_
 _symmetry_equiv_pos_site_id
 _symmetry_equiv_pos_as_xyz
  1  'x, y, z'
loop_
 _atom_site_type_symbol
 _atom_site_label
 _atom_site_symmetry_multiplicity
 _atom_site_fract_x
 _atom_site_fract_y
 _atom_site_fract_z
 _atom_site_occupancy
  Lu  Lu0  1  0.62500000  0.62500000  0.12500000  1
  Lu  Lu1  1  0.62500000  0.62500000  0.62500000  1
  Lu  Lu2  1  0.62500000  0.12500000  0.62500000  1
  Lu  Lu3  1  0.12500000  0.62500000  0.62500000  1
  Pd  Pd0  1  0.12500000  0.12500000  0.12500000  1
  Pd  Pd1  1  0.62500000  0.12500000  0.12500000  1
  Pd  Pd2  1  0.12500000  0.62500000  0.12500000  1
  Pt  Pt0  1  0.12500000  0.12500000  0.62500000  1
  O  O0  1  0.03124414  0.46869856  0.46881316  1
  O  O1  1  0.78287254  0.78287254  0.21679248  1
  O  O2  1  0.78287254  0.21746343  0.21679248  1
  O  O3  1  0.46869856  0.03124414  0.46881316  1
  O  O4  1  0.75005799  0.75005799  0.74982704  1
  O  O5  1  0.03253657  0.46712746  0.03320752  1
  O  O6  1  0.03124414  0.03124414  0.46881316  1
  O  O7  1  0.21746343  0.78287254  0.21679248  1
  O  O8  1  0.21875586  0.21875586  0.78118684  1
  O  O9  1  0.78130144  0.21875586  0.78118684  1
  O  O10  1  0.49994201  0.49994201  0.50017296  1
  O  O11  1  0.46712746  0.03253657  0.03320752  1
  O  O12  1  0.46712746  0.46712746  0.03320752  1
  O  O13  1  0.21875586  0.78130144  0.78118684  1
loop_
_geom_bond_atom_site_label_1
_geom_bond_atom_site_label_2
_geom_bond_distance
_geom_bond_site_symmetry_2
Lu0 O10 2.162207 1_555
Lu0 O4 2.162207 1_554
Lu0 O11 2.371594 1_565
Lu0 O2 2.371594 1_555
Lu0 O5 2.371594 1_655
Lu0 O7 2.371594 1_555
Lu0 O1 2.371600 1_555
Lu0 O12 2.371600 1_555
Lu1 O4 2.167283 1_555
Lu1 O10 2.167283 1_555
Lu1 O3 2.361786 1_565
Lu1 O9 2.361786 1_555
Lu1 O0 2.361786 1_655
Lu1 O13 2.361786 1_555
Lu1 O12 2.367746 1_556
Lu1 O1 2.367746 1_555
Lu2 O10 2.167278 1_555
Lu2 O4 2.167278 1_545
Lu2 O3 2.361786 1_555
Lu2 O9 2.361786 1_555
Lu2 O6 2.361786 1_655
Lu2 O8 2.361786 1_555
Lu2 O11 2.367746 1_556
Lu2 O2 2.367746 1_555
Lu3 O10 2.167278 1_555
Lu3 O4 2.167278 1_455
Lu3 O13 2.361786 1_555
Lu3 O0 2.361786 1_555
Lu3 O6 2.361786 1_565
Lu3 O8 2.361786 1_555
Lu3 O5 2.367746 1_556
Lu3 O7 2.367746 1_555
O0 Pd2 1.997909 1_555
O0 Pt0 2.002388 1_555
O1 Pd1 1.996040 1_565
O1 Pd2 1.996040 1_655
O2 Pd0 1.996040 1_655
O2 Pd1 1.996046 1_555
O3 Pd1 1.997909 1_555
O3 Pt0 2.002388 1_555
O5 Pd0 1.996039 1_555
O5 Pd2 1.996046 1_555
O6 Pd0 1.997908 1_555
O6 Pt0 2.002388 1_555
O7 Pd0 1.996039 1_565
O7 Pd2 1.996046 1_555
O8 Pd0 1.997908 1_556
O8 Pt0 2.002388 1_555
O9 Pd1 1.997909 1_556
O9 Pt0 2.002388 1_655
O11 Pd0 1.996040 1_555
O11 Pd1 1.996046 1_555
O12 Pd1 1.996040 1_555
O12 Pd2 1.996040 1_555
O13 Pd2 1.997909 1_556
O13 Pt0 2.002388 1_565
