# generated using pymatgen
data_Ca5Sn2SbH
_symmetry_space_group_name_H-M   'P 1'
_cell_length_a   9.41601299
_cell_length_b   9.41601368
_cell_length_c   9.41601469
_cell_angle_alpha   128.77885724
_cell_angle_beta   128.77886075
_cell_angle_gamma   75.36665799
_symmetry_Int_Tables_number   1
_chemical_formula_structural   Ca5Sn2SbH
_chemical_formula_sum   'Ca10 Sn4 Sb2 H2'
_cell_volume   493.77869277
_cell_formula_units_Z   2
loop_
 _symmetry_equiv_pos_site_id
 _symmetry_equiv_pos_as_xyz
  1  'x, y, z'
loop_
 _atom_site_type_symbol
 _atom_site_label
 _atom_site_symmetry_multiplicity
 _atom_site_fract_x
 _atom_site_fract_y
 _atom_site_fract_z
 _atom_site_occupancy
  Ca  Ca0  1  0.50000000  0.50000000  0.00000000  1
  Ca  Ca1  1  0.00000000  0.00000000  0.00000000  1
  Ca  Ca2  1  0.51358318  0.01358318  0.82229022  1
  Ca  Ca3  1  0.19129296  0.69129296  0.17770978  1
  Ca  Ca4  1  0.01358318  0.19129296  0.50000000  1
  Ca  Ca5  1  0.69129296  0.51358318  0.50000000  1
  Ca  Ca6  1  0.48641682  0.98641682  0.17770978  1
  Ca  Ca7  1  0.80870704  0.30870704  0.82229022  1
  Ca  Ca8  1  0.98641682  0.80870704  0.50000000  1
  Ca  Ca9  1  0.30870704  0.48641682  0.50000000  1
  Sn  Sn0  1  0.87146828  0.37146828  0.24293757  1
  Sn  Sn1  1  0.12853172  0.62853172  0.75706243  1
  Sn  Sn2  1  0.37146828  0.12853172  0.50000000  1
  Sn  Sn3  1  0.62853172  0.87146828  0.50000000  1
  Sb  Sb0  1  0.25000000  0.25000000  0.00000000  1
  Sb  Sb1  1  0.75000000  0.75000000  0.00000000  1
  H  H0  1  0.25000000  0.75000000  0.50000000  1
  H  H1  1  0.75000000  0.25000000  0.50000000  1
loop_
_geom_bond_atom_site_label_1
_geom_bond_atom_site_label_2
_geom_bond_distance
_geom_bond_site_symmetry_2
Ca0 Sn3 3.199715 1_555
Ca0 Sn2 3.199715 1_554
Ca0 Sn0 3.199717 1_555
Ca0 Sn1 3.199717 1_554
Ca0 Sb0 3.725923 1_555
Ca0 Sb1 3.725923 1_555
Ca1 Sn2 3.199715 1_555
Ca1 Sn3 3.199715 1_444
Ca1 Sn0 3.199717 1_455
Ca1 Sn1 3.199717 1_544
Ca1 Sb0 3.725923 1_555
Ca1 Sb1 3.725923 1_445
Ca2 H0 2.402542 1_545
Ca2 Sn2 3.235322 1_555
Ca2 Sn3 3.235322 1_545
Ca2 Sn0 3.270920 1_556
Ca2 Sb0 3.414669 1_556
Ca2 Sb1 3.414669 1_546
Ca3 H0 2.402543 1_555
Ca3 Sn3 3.235322 1_555
Ca3 Sn2 3.235322 1_565
Ca3 Sn1 3.270930 1_554
Ca3 Sb1 3.414669 1_455
Ca3 Sb0 3.414669 1_555
Ca4 H1 2.402542 1_455
Ca4 Sn0 3.235314 1_455
Ca4 Sn1 3.235324 1_555
Ca4 Sn2 3.270920 1_555
Ca4 Sb1 3.414669 1_445
Ca4 Sb0 3.414670 1_556
Ca5 H1 2.402542 1_555
Ca5 Sn0 3.235314 1_555
Ca5 Sn1 3.235324 1_655
Ca5 Sn3 3.270921 1_555
Ca5 Sb0 3.414669 1_555
Ca5 Sb1 3.414670 1_556
Ca6 H1 2.402542 1_565
Ca6 Sn3 3.235322 1_555
Ca6 Sn2 3.235322 1_565
Ca6 Sn1 3.270920 1_554
Ca6 Sb1 3.414669 1_555
Ca6 Sb0 3.414669 1_565
Ca7 H1 2.402543 1_555
Ca7 Sn2 3.235322 1_555
Ca7 Sn3 3.235322 1_545
Ca7 Sn0 3.270930 1_556
Ca7 Sb0 3.414669 1_656
Ca7 Sb1 3.414669 1_556
Ca8 H0 2.402542 1_655
Ca8 Sn1 3.235314 1_655
Ca8 Sn0 3.235324 1_555
Ca8 Sn3 3.270920 1_555
Ca8 Sb0 3.414669 1_666
Ca8 Sb1 3.414670 1_555
Ca9 H0 2.402542 1_555
Ca9 Sn1 3.235314 1_555
Ca9 Sn0 3.235324 1_455
Ca9 Sn2 3.270921 1_555
Ca9 Sb1 3.414669 1_556
Ca9 Sb0 3.414670 1_555
Sn0 Sn1 2.959292 1_655
Sn2 Sn3 2.959303 1_545
