# generated using pymatgen
data_FeRh3(SO4)6
_symmetry_space_group_name_H-M   'P 1'
_cell_length_a   8.11521750
_cell_length_b   8.11521894
_cell_length_c   8.75832360
_cell_angle_alpha   117.59935064
_cell_angle_beta   62.40064543
_cell_angle_gamma   119.99999833
_symmetry_Int_Tables_number   1
_chemical_formula_structural   FeRh3(SO4)6
_chemical_formula_sum   'Fe1 Rh3 S6 O24'
_cell_volume   422.03339453
_cell_formula_units_Z   1
loop_
 _symmetry_equiv_pos_site_id
 _symmetry_equiv_pos_as_xyz
  1  'x, y, z'
loop_
 _atom_site_type_symbol
 _atom_site_label
 _atom_site_symmetry_multiplicity
 _atom_site_fract_x
 _atom_site_fract_y
 _atom_site_fract_z
 _atom_site_occupancy
  Fe  Fe0  1  0.35788822  0.64211078  0.92633333  1
  Rh  Rh0  1  0.64504507  0.35495393  0.06486279  1
  Rh  Rh1  1  0.84644252  0.15355748  0.46067344  1
  Rh  Rh2  1  0.15319831  0.84680169  0.54040508  1
  S  S0  1  0.25004400  0.46039768  0.25217845  1
  S  S1  1  0.53960232  0.04182578  0.25217845  1
  S  S2  1  0.95817422  0.74995600  0.25217845  1
  S  S3  1  0.04562177  0.25058623  0.74673214  1
  S  S4  1  0.45823333  0.95437923  0.74673214  1
  S  S5  1  0.74941377  0.54176767  0.74673214  1
  O  O0  1  0.11031029  0.70179889  0.08214397  1
  O  O1  1  0.29820011  0.49065537  0.08214397  1
  O  O2  1  0.50934463  0.88968971  0.08214397  1
  O  O3  1  0.37201100  0.36080135  0.23204301  1
  O  O4  1  0.63919865  0.24325365  0.23204301  1
  O  O5  1  0.75674635  0.62798800  0.23204301  1
  O  O6  1  0.03768422  0.33389980  0.29889816  1
  O  O7  1  0.66609920  0.00268058  0.29889816  1
  O  O8  1  0.99731942  0.96231678  0.29889816  1
  O  O9  1  0.29793392  0.65455193  0.39518779  1
  O  O10  1  0.34544907  0.03857179  0.39518779  1
  O  O11  1  0.96142821  0.70206408  0.39518779  1
  O  O12  1  0.03558715  0.29840554  0.60737456  1
  O  O13  1  0.65544283  0.96441285  0.60737456  1
  O  O14  1  0.70159646  0.34455717  0.60737456  1
  O  O15  1  0.99966300  0.03670659  0.70242934  1
  O  O16  1  0.33461525  0.00033700  0.70242934  1
  O  O17  1  0.96329241  0.66538475  0.70242934  1
  O  O18  1  0.24831903  0.37105450  0.76100615  1
  O  O19  1  0.36172833  0.75167997  0.76100615  1
  O  O20  1  0.62894650  0.63827167  0.76100615  1
  O  O21  1  0.47898056  0.09382684  0.92458354  1
  O  O22  1  0.69026473  0.52101944  0.92458354  1
  O  O23  1  0.90617216  0.30973627  0.92458354  1
loop_
_geom_bond_atom_site_label_1
_geom_bond_atom_site_label_2
_geom_bond_distance
_geom_bond_site_symmetry_2
Fe0 O0 1.988424 1_556
Fe0 O1 1.988424 1_556
Fe0 O2 1.988431 1_556
Fe0 O19 2.002933 1_555
Fe0 O18 2.002933 1_555
Fe0 O20 2.002943 1_555
O0 S2 1.460960 1_455
O1 S0 1.460958 1_555
O2 S1 1.460958 1_565
O3 S0 1.473170 1_555
O3 Rh0 2.022455 1_555
O4 S1 1.473171 1_555
O4 Rh0 2.022453 1_555
O5 S2 1.473171 1_555
O5 Rh0 2.022455 1_555
O6 S0 1.468973 1_555
O6 Rh1 2.042201 1_455
O7 S1 1.468982 1_555
O7 Rh1 2.042206 1_555
O8 S2 1.468975 1_555
O8 Rh1 2.042200 1_565
O9 S0 1.487449 1_555
O9 Rh2 2.010225 1_555
O10 S1 1.487444 1_555
O10 Rh2 2.010236 1_545
O11 S2 1.487455 1_555
O11 Rh2 2.010235 1_655
O12 S3 1.486440 1_555
O12 Rh1 2.003081 1_455
O13 S4 1.486430 1_555
O13 Rh1 2.003082 1_565
O14 S5 1.486434 1_555
O14 Rh1 2.003082 1_555
O15 S3 1.471382 1_655
O15 Rh2 2.048605 1_645
O16 S4 1.471376 1_545
O16 Rh2 2.048611 1_545
O17 S5 1.471374 1_555
O17 Rh2 2.048611 1_655
O18 S3 1.465044 1_555
O19 S4 1.465058 1_555
O20 S5 1.465044 1_555
O21 S4 1.467823 1_545
O21 Rh0 2.020449 1_556
O22 S5 1.467830 1_555
O22 Rh0 2.020446 1_556
O23 S3 1.467828 1_655
O23 Rh0 2.020452 1_556
