# generated using pymatgen
data_Zr12Sc3Al7Os8
_symmetry_space_group_name_H-M   'P 1'
_cell_length_a   9.22737960
_cell_length_b   9.23592028
_cell_length_c   9.22737925
_cell_angle_alpha   59.99291479
_cell_angle_beta   59.91946913
_cell_angle_gamma   59.99291076
_symmetry_Int_Tables_number   1
_chemical_formula_structural   Zr12Sc3Al7Os8
_chemical_formula_sum   'Zr12 Sc3 Al7 Os8'
_cell_volume   555.66167910
_cell_formula_units_Z   1
loop_
 _symmetry_equiv_pos_site_id
 _symmetry_equiv_pos_as_xyz
  1  'x, y, z'
loop_
 _atom_site_type_symbol
 _atom_site_label
 _atom_site_symmetry_multiplicity
 _atom_site_fract_x
 _atom_site_fract_y
 _atom_site_fract_z
 _atom_site_occupancy
  Zr  Zr0  1  0.14632991  0.15184644  0.14632991  1
  Zr  Zr1  1  0.20470945  0.77356315  0.20470945  1
  Zr  Zr2  1  0.19916689  0.80456148  0.80634749  1
  Zr  Zr3  1  0.77021115  0.20298726  0.20833925  1
  Zr  Zr4  1  0.80634749  0.80456148  0.19916689  1
  Zr  Zr5  1  0.20833925  0.20298726  0.77021115  1
  Zr  Zr6  1  0.80469905  0.19931266  0.80469905  1
  Zr  Zr7  1  0.37456585  0.37587147  0.37456585  1
  Zr  Zr8  1  0.12535313  0.62445794  0.62869539  1
  Zr  Zr9  1  0.62697595  0.12853479  0.62697595  1
  Zr  Zr10  1  0.62869539  0.62445794  0.12535313  1
  Zr  Zr11  1  0.38404041  0.86274614  0.38404041  1
  Sc  Sc0  1  0.38385445  0.38529698  0.86118797  1
  Sc  Sc1  1  0.86118797  0.38529698  0.38385445  1
  Sc  Sc2  1  0.62720911  0.62349378  0.62720911  1
  Al  Al0  1  0.84255757  0.84447428  0.84255757  1
  Al  Al1  1  0.50675074  0.16312235  0.15901719  1
  Al  Al2  1  0.15901719  0.16312235  0.50675074  1
  Al  Al3  1  0.16165555  0.50493016  0.16165555  1
  Al  Al4  1  0.84323643  0.84363299  0.47515856  1
  Al  Al5  1  0.84567274  0.46899428  0.84567274  1
  Al  Al6  1  0.47515856  0.84363299  0.84323643  1
  Os  Os0  1  0.50116692  0.50161028  0.00648862  1
  Os  Os1  1  0.00356205  0.99626548  0.50384140  1
  Os  Os2  1  0.50081584  0.00594334  0.50081584  1
  Os  Os3  1  0.00648862  0.50161028  0.50116692  1
  Os  Os4  1  0.50384140  0.99626548  0.00356205  1
  Os  Os5  1  0.99820231  0.50830845  0.99820231  1
  Os  Os6  1  0.49491254  0.50076455  0.49491254  1
  Os  Os7  1  0.00527909  0.00734802  0.00527909  1
loop_
_geom_bond_atom_site_label_1
_geom_bond_atom_site_label_2
_geom_bond_distance
_geom_bond_site_symmetry_2
Al0 Os5 2.629194 1_555
Al0 Os4 2.643302 1_556
Al0 Os1 2.643302 1_655
Al0 Zr9 2.885134 1_565
Al0 Zr8 2.894471 1_655
Al0 Zr10 2.894472 1_556
Al0 Zr6 2.969279 1_565
Al0 Zr4 2.980465 1_556
Al0 Zr2 2.980465 1_655
Al1 Os4 2.593127 1_545
Al1 Os0 2.695849 1_555
Al1 Os2 2.717430 1_555
Al1 Sc0 2.864485 1_554
Al1 Zr11 2.883301 1_545
Al1 Zr7 2.895608 1_555
Al1 Zr3 2.902528 1_555
Al1 Zr6 3.029040 1_554
Al1 Zr4 3.064178 1_545
Al2 Os1 2.593127 1_545
Al2 Os3 2.695849 1_555
Al2 Os2 2.717430 1_555
Al2 Sc1 2.864485 1_455
Al2 Zr11 2.883301 1_545
Al2 Zr7 2.895608 1_555
Al2 Zr5 2.902528 1_555
Al2 Zr6 3.029040 1_455
Al2 Zr2 3.064178 1_545
Al3 Os5 2.595531 1_454
Al3 Os3 2.704960 1_555
Al3 Os0 2.704960 1_555
Al3 Sc0 2.865542 1_554
Al3 Sc1 2.865542 1_455
Al3 Zr7 2.885252 1_555
Al3 Zr1 2.932805 1_555
Al3 Zr4 3.045108 1_455
Al3 Zr2 3.045108 1_554
Al4 Os1 2.664115 1_655
Al4 Os3 2.673950 1_655
Al4 Os2 2.674732 1_565
Al4 Zr8 2.905050 1_655
Al4 Sc2 2.910811 1_555
Al4 Zr9 2.915671 1_565
Al4 Zr4 2.939845 1_555
Al4 Zr3 2.963814 1_565
Al4 Zr1 2.980616 1_655
Al5 Os5 2.664903 1_555
Al5 Os3 2.675572 1_655
Al5 Os0 2.675572 1_556
Al5 Zr10 2.895121 1_556
Al5 Zr8 2.895121 1_655
Al5 Sc2 2.912514 1_555
Al5 Zr6 2.918368 1_555
Al5 Zr5 2.978495 1_655
Al5 Zr3 2.978495 1_556
Al6 Os4 2.664115 1_556
Al6 Os0 2.673950 1_556
Al6 Os2 2.674732 1_565
Al6 Zr10 2.905050 1_556
Al6 Sc2 2.910811 1_555
Al6 Zr9 2.915671 1_565
Al6 Zr2 2.939845 1_555
Al6 Zr5 2.963814 1_565
Al6 Zr1 2.980616 1_556
Os0 Zr7 2.771876 1_555
Os0 Zr10 2.783712 1_555
Os0 Sc2 2.856027 1_554
Os0 Sc0 2.860422 1_554
Os0 Zr1 3.137589 1_555
Os0 Zr3 3.144464 1_555
Os0 Zr2 3.346142 1_554
Os0 Zr6 3.355185 1_554
Os1 Zr0 2.734699 1_565
Os1 Zr8 2.804160 1_555
Os1 Zr9 2.835991 1_465
Os1 Zr11 2.865525 1_555
Os1 Sc1 2.935911 1_465
Os2 Zr7 2.790316 1_555
Os2 Zr9 2.826229 1_555
Os2 Zr11 2.843591 1_545
Os2 Sc2 2.884422 1_545
Os2 Zr5 3.108378 1_555
Os2 Zr3 3.108379 1_555
Os2 Zr4 3.349946 1_545
Os2 Zr2 3.349946 1_545
Os3 Zr7 2.771876 1_555
Os3 Zr8 2.783712 1_555
Os3 Sc2 2.856027 1_455
Os3 Sc1 2.860422 1_455
Os3 Zr1 3.137589 1_555
Os3 Zr5 3.144464 1_555
Os3 Zr4 3.346142 1_455
Os3 Zr6 3.355185 1_455
Os4 Zr0 2.734699 1_565
Os4 Zr10 2.804160 1_555
Os4 Zr9 2.835991 1_564
Os4 Zr11 2.865525 1_555
Os4 Sc0 2.935911 1_564
Os5 Zr0 2.728796 1_656
Os5 Zr10 2.782622 1_556
Os5 Zr8 2.782622 1_655
Os5 Sc0 2.904379 1_655
Os5 Sc1 2.904379 1_556
Os6 Zr11 2.734518 1_555
Os6 Zr7 2.756001 1_555
Os6 Sc0 2.761582 1_555
Os6 Sc1 2.761582 1_555
Os6 Zr8 2.784195 1_555
Os6 Zr10 2.784195 1_555
Os6 Zr9 2.810163 1_555
Os6 Sc2 2.920147 1_555
Os7 Zr6 2.619947 1_454
Os7 Zr3 2.621579 1_455
Os7 Zr5 2.621579 1_554
Os7 Zr2 2.621688 1_544
Os7 Zr4 2.621689 1_445
Os7 Zr1 2.623188 1_545
