# generated using pymatgen
data_Cs2Pd(WO4)3
_symmetry_space_group_name_H-M   'P 1'
_cell_length_a   7.37808177
_cell_length_b   7.39661765
_cell_length_c   7.20772441
_cell_angle_alpha   89.99999870
_cell_angle_beta   59.02914427
_cell_angle_gamma   120.08313676
_symmetry_Int_Tables_number   1
_chemical_formula_structural   Cs2Pd(WO4)3
_chemical_formula_sum   'Cs2 Pd1 W3 O12'
_cell_volume   273.63067547
_cell_formula_units_Z   1
loop_
 _symmetry_equiv_pos_site_id
 _symmetry_equiv_pos_as_xyz
  1  'x, y, z'
loop_
 _atom_site_type_symbol
 _atom_site_label
 _atom_site_symmetry_multiplicity
 _atom_site_fract_x
 _atom_site_fract_y
 _atom_site_fract_z
 _atom_site_occupancy
  Cs  Cs0  1  0.25694968  0.11901382  0.11790433  1
  Cs  Cs1  1  0.74305032  0.86206515  0.88209567  1
  Pd  Pd0  1  1.00000000  0.51655018  1.00000000  1
  W  W0  1  0.49581974  0.98206485  0.48606391  1
  W  W1  1  0.50418026  0.48624611  0.51393609  1
  W  W2  1  0.00000000  0.47935237  0.50000000  1
  O  O0  1  0.62579459  0.81817672  0.43250675  1
  O  O1  1  0.87095212  0.45008910  0.80907358  1
  O  O2  1  0.25612398  0.83947711  0.80885730  1
  O  O3  1  0.25243221  0.44414050  0.43629272  1
  O  O4  1  0.25276621  0.45270589  0.80609480  1
  O  O5  1  0.25878282  0.81519140  0.42741234  1
  O  O6  1  0.37420541  0.19238213  0.56749325  1
  O  O7  1  0.12904788  0.57913698  0.19092642  1
  O  O8  1  0.74723379  0.19993868  0.19390520  1
  O  O9  1  0.74121718  0.55640758  0.57258766  1
  O  O10  1  0.74387602  0.58335213  0.19114270  1
  O  O11  1  0.74756779  0.19170729  0.56370728  1
loop_
_geom_bond_atom_site_label_1
_geom_bond_atom_site_label_2
_geom_bond_distance
_geom_bond_site_symmetry_2
Cs0 O2 3.039461 1_544
Cs0 O1 3.158182 1_554
Cs0 O5 3.176250 1_545
Cs0 O0 3.243829 1_445
Cs0 O3 3.324508 1_555
Cs0 O4 3.360308 1_554
Cs1 O10 3.039471 1_556
Cs1 O7 3.158181 1_556
Cs1 O9 3.176260 1_555
Cs1 O6 3.243829 1_665
Cs1 O11 3.324497 1_565
Cs1 O8 3.360297 1_566
O0 W0 1.822773 1_555
O0 W1 2.104020 1_555
O1 W2 1.877898 1_655
O1 Pd0 1.980221 1_555
O2 W0 1.883714 1_555
O2 Pd0 1.992434 1_455
O3 W2 1.831274 1_555
O3 W1 2.085686 1_555
O4 W1 1.858820 1_555
O4 Pd0 1.963317 1_455
O5 W0 1.832386 1_555
O5 W2 2.075315 1_555
O6 W1 1.822780 1_555
O6 W0 2.104027 1_545
O7 W2 1.877898 1_555
O7 Pd0 1.980221 1_454
O8 W0 1.858820 1_545
O8 Pd0 1.963322 1_554
O9 W1 1.832389 1_555
O9 W2 2.075309 1_655
O10 W1 1.883716 1_555
O10 Pd0 1.992429 1_554
O11 W2 1.831279 1_655
O11 W0 2.085686 1_545
