# generated using pymatgen
data_KSnIrS4
_symmetry_space_group_name_H-M   'P 1'
_cell_length_a   3.69621345
_cell_length_b   7.69203795
_cell_length_c   6.29018803
_cell_angle_alpha   74.27781984
_cell_angle_beta   90.00000000
_cell_angle_gamma   90.00000000
_symmetry_Int_Tables_number   1
_chemical_formula_structural   KSnIrS4
_chemical_formula_sum   'K1 Sn1 Ir1 S4'
_cell_volume   172.14802550
_cell_formula_units_Z   1
loop_
 _symmetry_equiv_pos_site_id
 _symmetry_equiv_pos_as_xyz
  1  'x, y, z'
loop_
 _atom_site_type_symbol
 _atom_site_label
 _atom_site_symmetry_multiplicity
 _atom_site_fract_x
 _atom_site_fract_y
 _atom_site_fract_z
 _atom_site_occupancy
  K  K0  1  0.50000000  0.49521192  0.64875358  1
  Sn  Sn0  1  0.00000000  0.99831313  0.00394517  1
  Ir  Ir0  1  0.50000000  0.00214432  0.50351160  1
  S  S0  1  0.00000000  0.83426274  0.41312705  1
  S  S1  1  0.50000000  0.81467260  0.87528285  1
  S  S2  1  0.00000000  0.16868930  0.59488326  1
  S  S3  1  0.50000000  0.18582499  0.12745549  1
loop_
_geom_bond_atom_site_label_1
_geom_bond_atom_site_label_2
_geom_bond_distance
_geom_bond_site_symmetry_2
K0 S1 3.156946 1_555
K0 S2 3.209332 1_655
K0 S2 3.209332 1_555
K0 S0 3.212321 1_655
K0 S0 3.212321 1_555
K0 S3 3.293456 1_556
Ir0 S1 2.391767 1_545
Ir0 S3 2.404246 1_555
Ir0 S2 2.405411 1_655
Ir0 S2 2.405411 1_555
Ir0 S0 2.409192 1_645
Ir0 S0 2.409192 1_545
S0 Sn0 2.541020 1_555
S1 Sn0 2.585613 1_656
S1 Sn0 2.585613 1_556
S2 Sn0 2.551613 1_546
S3 Sn0 2.589736 1_645
S3 Sn0 2.589736 1_545
