# generated using pymatgen
data_Lu2Be2SiGe
_symmetry_space_group_name_H-M   'P 1'
_cell_length_a   3.82946035
_cell_length_b   3.82945984
_cell_length_c   7.81678837
_cell_angle_alpha   90.00000000
_cell_angle_beta   90.00000000
_cell_angle_gamma   119.99999588
_symmetry_Int_Tables_number   1
_chemical_formula_structural   Lu2Be2SiGe
_chemical_formula_sum   'Lu2 Be2 Si1 Ge1'
_cell_volume   99.27367536
_cell_formula_units_Z   1
loop_
 _symmetry_equiv_pos_site_id
 _symmetry_equiv_pos_as_xyz
  1  'x, y, z'
loop_
 _atom_site_type_symbol
 _atom_site_label
 _atom_site_symmetry_multiplicity
 _atom_site_fract_x
 _atom_site_fract_y
 _atom_site_fract_z
 _atom_site_occupancy
  Lu  Lu0  1  0.00000000  0.00000000  0.50277985  1
  Lu  Lu1  1  0.00000000  0.00000000  0.99722015  1
  Be  Be0  1  0.66666700  0.33333300  0.75000000  1
  Be  Be1  1  0.33333300  0.66666700  0.25000000  1
  Si  Si0  1  0.33333300  0.66666700  0.75000000  1
  Ge  Ge0  1  0.66666700  0.33333300  0.25000000  1
loop_
_geom_bond_atom_site_label_1
_geom_bond_atom_site_label_2
_geom_bond_distance
_geom_bond_site_symmetry_2
Lu0 Si0 2.936439 1_545
Lu0 Si0 2.936442 1_555
Lu0 Si0 2.936442 1_445
Lu1 Si0 2.936439 1_545
Lu1 Si0 2.936442 1_555
Lu1 Si0 2.936442 1_445
Be0 Si0 2.210938 1_545
Be0 Si0 2.210938 1_655
Be0 Si0 2.210944 1_555
Be0 Lu1 2.936439 1_655
Be0 Lu0 2.936439 1_655
Be0 Lu1 2.936442 1_665
Be0 Lu0 2.936442 1_665
Be0 Lu1 2.936442 1_555
Be0 Lu0 2.936442 1_555
Be1 Ge0 2.210938 1_565
Be1 Ge0 2.210938 1_455
Be1 Ge0 2.210944 1_555
Be1 Lu0 2.965220 1_565
Be1 Lu1 2.965220 1_564
Be1 Lu0 2.965223 1_555
Be1 Lu1 2.965223 1_554
Be1 Lu0 2.965223 1_665
Be1 Lu1 2.965223 1_664
Ge0 Lu0 2.965220 1_655
Ge0 Lu1 2.965220 1_654
Ge0 Lu0 2.965223 1_665
Ge0 Lu1 2.965223 1_664
Ge0 Lu0 2.965223 1_555
Ge0 Lu1 2.965223 1_554
