# generated using pymatgen
data_Re2MoAs7
_symmetry_space_group_name_H-M   'P 1'
_cell_length_a   7.62022387
_cell_length_b   7.62022455
_cell_length_c   7.62138279
_cell_angle_alpha   109.58637502
_cell_angle_beta   109.58637971
_cell_angle_gamma   109.23495173
_symmetry_Int_Tables_number   1
_chemical_formula_structural   Re2MoAs7
_chemical_formula_sum   'Re4 Mo2 As14'
_cell_volume   340.70242053
_cell_formula_units_Z   2
loop_
 _symmetry_equiv_pos_site_id
 _symmetry_equiv_pos_as_xyz
  1  'x, y, z'
loop_
 _atom_site_type_symbol
 _atom_site_label
 _atom_site_symmetry_multiplicity
 _atom_site_fract_x
 _atom_site_fract_y
 _atom_site_fract_z
 _atom_site_occupancy
  Re  Re0  1  0.99999852  0.66272332  0.66272185  1
  Re  Re1  1  0.34031527  0.34031527  0.00006724  1
  Re  Re2  1  0.65975197  0.65975197  0.00006724  1
  Re  Re3  1  0.66272332  0.99999852  0.66272185  1
  Mo  Mo0  1  0.34114330  0.00012943  0.34127173  1
  Mo  Mo1  1  0.00012943  0.34114330  0.34127173  1
  As  As0  1  0.74974737  0.49916698  0.24891435  1
  As  As1  1  0.49916698  0.74974737  0.24891435  1
  As  As2  1  0.49928557  0.25103286  0.75031943  1
  As  As3  1  0.74937986  0.24937986  0.49876073  1
  As  As4  1  0.24937986  0.74937986  0.49876073  1
  As  As5  1  0.25103286  0.49928557  0.75031943  1
  As  As6  1  0.99949851  0.99949851  0.33064415  1
  As  As7  1  0.66834788  0.99964588  0.99963890  1
  As  As8  1  0.99964588  0.66834788  0.99963890  1
  As  As9  1  0.33114564  0.33114564  0.33064415  1
  As  As10  1  0.99999302  0.33129102  0.99963890  1
  As  As11  1  0.66812366  0.66812366  0.66802273  1
  As  As12  1  0.33129102  0.99999302  0.99963890  1
  As  As13  1  0.99989908  0.99989908  0.66802273  1
loop_
_geom_bond_atom_site_label_1
_geom_bond_atom_site_label_2
_geom_bond_distance
_geom_bond_site_symmetry_2
Mo0 Re3 2.825804 1_545
Mo1 Re0 2.825804 1_455
As0 Mo1 2.601444 1_655
As0 Re2 2.607983 1_555
As0 Re1 2.607983 1_555
As0 Re0 2.627296 1_555
As1 Mo0 2.601444 1_565
As1 Re2 2.607983 1_555
As1 Re1 2.607984 1_555
As1 Re3 2.627296 1_555
As2 Re1 2.602708 1_556
As2 Re2 2.602713 1_556
As2 Mo0 2.606426 1_555
As2 Re3 2.631941 1_545
As3 Mo0 2.607803 1_555
As3 Mo1 2.607817 1_655
As3 Re3 2.631999 1_545
As3 Re0 2.632007 1_555
As4 Mo1 2.607803 1_555
As4 Mo0 2.607817 1_565
As4 Re0 2.631999 1_455
As4 Re3 2.632007 1_555
As5 Re1 2.602708 1_556
As5 Re2 2.602713 1_556
As5 Mo1 2.606426 1_555
As5 Re0 2.631941 1_455
As6 Re2 2.567150 1_555
As6 Mo0 2.575741 1_665
As6 Mo1 2.575741 1_665
As7 Re3 2.554647 1_555
As7 Re2 2.570366 1_556
As7 Mo1 2.579161 1_666
As8 Re0 2.554647 1_555
As8 Re2 2.570366 1_556
As8 Mo0 2.579161 1_666
As9 Re1 2.567149 1_555
As9 Mo1 2.575736 1_555
As9 Mo0 2.575736 1_555
As10 Re3 2.554648 1_545
As10 As8 2.569322 1_555
As10 Re1 2.570366 1_656
As10 Mo1 2.579155 1_656
As11 Re0 2.556350 1_555
As11 Re3 2.556350 1_555
As11 As9 2.569247 1_555
As11 Re2 2.574114 1_556
As12 Re0 2.554648 1_455
As12 As7 2.569321 1_555
As12 Re1 2.570366 1_566
As12 Mo0 2.579155 1_566
As13 Re3 2.556350 1_555
As13 Re0 2.556350 1_555
As13 As6 2.569246 1_555
As13 Re1 2.574115 1_666
