# generated using pymatgen
data_Ti10AlGeSb4
_symmetry_space_group_name_H-M   'P 1'
_cell_length_a   7.82952897
_cell_length_b   7.82980114
_cell_length_c   7.82952925
_cell_angle_alpha   96.28043370
_cell_angle_beta   96.27568976
_cell_angle_gamma   141.37621942
_symmetry_Int_Tables_number   1
_chemical_formula_structural   Ti10AlGeSb4
_chemical_formula_sum   'Ti10 Al1 Ge1 Sb4'
_cell_volume   282.75150398
_cell_formula_units_Z   1
loop_
 _symmetry_equiv_pos_site_id
 _symmetry_equiv_pos_as_xyz
  1  'x, y, z'
loop_
 _atom_site_type_symbol
 _atom_site_label
 _atom_site_symmetry_multiplicity
 _atom_site_fract_x
 _atom_site_fract_y
 _atom_site_fract_z
 _atom_site_occupancy
  Ti  Ti0  1  0.57401812  0.71489865  0.29063591  1
  Ti  Ti1  1  0.42443009  0.28366843  0.70948589  1
  Ti  Ti2  1  0.75010457  0.25000000  0.50010457  1
  Ti  Ti3  1  0.25009570  0.75000000  0.50009570  1
  Ti  Ti4  1  0.71503087  0.42443906  0.14075337  1
  Ti  Ti5  1  0.28334927  0.57390805  0.85909461  1
  Ti  Ti6  1  0.92581746  0.21633157  0.14076167  1
  Ti  Ti7  1  0.21631431  0.07556094  0.29059081  1
  Ti  Ti8  1  0.07573726  0.78510135  0.85912047  1
  Ti  Ti9  1  0.78518755  0.92609195  0.70944222  1
  Al  Al0  1  0.24996075  0.25000000  0.99996075  1
  Ge  Ge0  1  0.74992169  0.75000000  0.99992169  1
  Sb  Sb0  1  0.33674879  0.83675293  0.17332542  1
  Sb  Sb1  1  0.16344144  0.33673822  0.50000885  1
  Sb  Sb2  1  0.66327063  0.16326178  0.82670421  1
  Sb  Sb3  1  0.83657249  0.66324707  0.49999586  1
loop_
_geom_bond_atom_site_label_1
_geom_bond_atom_site_label_2
_geom_bond_distance
_geom_bond_site_symmetry_2
Ti2 Ti3 2.589350 1_655
Ti2 Ti3 2.589350 1_545
Al0 Ge0 2.589351 1_555
Al0 Ge0 2.589351 1_445
Al0 Ti6 2.712111 1_456
Al0 Ti1 2.712111 1_555
Al0 Ti9 2.712156 1_445
Al0 Ti5 2.712164 1_555
Al0 Ti8 2.713155 1_545
Al0 Ti0 2.713157 1_556
Al0 Ti7 2.713224 1_556
Al0 Ti4 2.713232 1_556
Ge0 Ti6 2.715590 1_566
Ge0 Ti1 2.715591 1_555
Ge0 Ti9 2.716296 1_555
Ge0 Ti5 2.716305 1_555
Ge0 Ti7 2.716794 1_666
Ge0 Ti4 2.716799 1_556
Ge0 Ti8 2.717346 1_655
Ge0 Ti0 2.717350 1_556
Sb0 Ti2 2.739649 1_565
Sb0 Ti3 2.739895 1_555
Sb0 Ti8 2.789919 1_554
Sb0 Ti5 2.790356 1_554
Sb0 Ti0 2.791620 1_555
Sb0 Ti7 2.792302 1_565
Sb0 Ti4 3.022857 1_565
Sb0 Ti6 3.023744 1_455
Sb0 Ti6 3.028940 1_565
Sb0 Ti4 3.029201 1_455
Sb1 Ti3 2.738538 1_555
Sb1 Ti2 2.738771 1_455
Sb1 Ti7 2.789129 1_555
Sb1 Ti1 2.789498 1_555
Sb1 Ti5 2.791196 1_555
Sb1 Ti6 2.792272 1_455
Sb1 Ti0 3.021541 1_555
Sb1 Ti9 3.022280 1_445
Sb1 Ti9 3.029790 1_555
Sb1 Ti0 3.030087 1_445
Sb2 Ti3 2.738543 1_545
Sb2 Ti2 2.738779 1_555
Sb2 Ti4 2.789119 1_556
Sb2 Ti6 2.789492 1_556
Sb2 Ti9 2.791203 1_545
Sb2 Ti1 2.792274 1_555
Sb2 Ti8 3.021541 1_545
Sb2 Ti5 3.022277 1_655
Sb2 Ti5 3.029782 1_545
Sb2 Ti8 3.030087 1_655
Sb3 Ti2 2.739649 1_555
Sb3 Ti3 2.739895 1_655
Sb3 Ti0 2.789925 1_555
Sb3 Ti9 2.790354 1_555
Sb3 Ti8 2.791628 1_655
Sb3 Ti4 2.792304 1_555
Sb3 Ti7 3.022859 1_555
Sb3 Ti1 3.023744 1_665
Sb3 Ti1 3.028940 1_555
Sb3 Ti7 3.029207 1_665
