# generated using pymatgen
data_Rb8BeHg3H16
_symmetry_space_group_name_H-M   'P 1'
_cell_length_a   6.07522823
_cell_length_b   8.40203247
_cell_length_c   10.77296394
_cell_angle_alpha   90.08694108
_cell_angle_beta   90.00000000
_cell_angle_gamma   90.00000000
_symmetry_Int_Tables_number   1
_chemical_formula_structural   Rb8BeHg3H16
_chemical_formula_sum   'Rb8 Be1 Hg3 H16'
_cell_volume   549.89739166
_cell_formula_units_Z   1
loop_
 _symmetry_equiv_pos_site_id
 _symmetry_equiv_pos_as_xyz
  1  'x, y, z'
loop_
 _atom_site_type_symbol
 _atom_site_label
 _atom_site_symmetry_multiplicity
 _atom_site_fract_x
 _atom_site_fract_y
 _atom_site_fract_z
 _atom_site_occupancy
  Rb  Rb0  1  0.25000000  0.66829566  0.08106849  1
  Rb  Rb1  1  0.25000000  0.15871209  0.40954261  1
  Rb  Rb2  1  0.75000000  0.36691548  0.90911338  1
  Rb  Rb3  1  0.75000000  0.83375456  0.60986554  1
  Rb  Rb4  1  0.25000000  0.97784726  0.81836240  1
  Rb  Rb5  1  0.25000000  0.48870198  0.68948786  1
  Rb  Rb6  1  0.75000000  0.00839834  0.17203054  1
  Rb  Rb7  1  0.75000000  0.51701352  0.31561857  1
  Be  Be0  1  0.75000000  0.75398575  0.91542122  1
  Hg  Hg0  1  0.25000000  0.73783890  0.41527180  1
  Hg  Hg1  1  0.25000000  0.24397372  0.08205777  1
  Hg  Hg2  1  0.75000000  0.25891406  0.58618606  1
  H  H0  1  0.00830194  0.81767103  0.34267509  1
  H  H1  1  0.49384707  0.31973565  0.15422159  1
  H  H2  1  0.50742968  0.18187086  0.66025344  1
  H  H3  1  0.94836079  0.68954699  0.85346450  1
  H  H4  1  0.99257032  0.18187086  0.66025344  1
  H  H5  1  0.55163921  0.68954699  0.85346450  1
  H  H6  1  0.49169806  0.81767103  0.34267509  1
  H  H7  1  0.00615293  0.31973565  0.15422159  1
  H  H8  1  0.25000000  0.52544817  0.40956971  1
  H  H9  1  0.25000000  0.03058812  0.08982816  1
  H  H10  1  0.75000000  0.47203697  0.59873972  1
  H  H11  1  0.75000000  0.92751672  0.90615005  1
  H  H12  1  0.25000000  0.31347092  0.92288194  1
  H  H13  1  0.25000000  0.80794134  0.57548294  1
  H  H14  1  0.75000000  0.69796230  0.04567884  1
  H  H15  1  0.75000000  0.19303707  0.42641516  1
loop_
_geom_bond_atom_site_label_1
_geom_bond_atom_site_label_2
_geom_bond_distance
_geom_bond_site_symmetry_2
Be0 H11 1.461581 1_555
Be0 H3 1.479787 1_555
Be0 H5 1.479787 1_555
Be0 H14 1.480781 1_556
H0 Hg0 1.794231 1_555
H0 Rb6 2.901549 1_465
H0 Rb7 2.987742 1_455
H1 Hg1 1.789610 1_555
H1 Rb7 2.860692 1_555
H1 Rb6 3.050050 1_555
H1 Rb2 3.091035 1_554
H2 Hg2 1.796936 1_555
H2 Rb4 2.880025 1_545
H2 Rb5 3.031296 1_555
H2 Rb1 3.126826 1_555
H3 Rb2 3.027341 1_555
H3 Rb5 3.052435 1_655
H3 Rb4 3.061293 1_655
H3 Rb0 3.066516 1_656
H3 Rb3 3.133179 1_555
H4 Hg2 1.796936 1_555
H4 Rb4 2.880025 1_645
H4 Rb5 3.031296 1_655
H4 Rb1 3.126826 1_655
H5 Rb2 3.027341 1_555
H5 Rb5 3.052435 1_555
H5 Rb4 3.061293 1_555
H5 Rb0 3.066516 1_556
H5 Rb3 3.133179 1_555
H6 Hg0 1.794231 1_555
H6 Rb6 2.901549 1_565
H6 Rb7 2.987742 1_555
H7 Hg1 1.789610 1_555
H7 Rb7 2.860692 1_455
H7 Rb6 3.050050 1_455
H7 Rb2 3.091035 1_454
H8 Hg0 1.785478 1_555
H8 Rb5 3.031778 1_555
H8 Rb1 3.081328 1_555
H8 Rb7 3.202548 1_555
H8 Rb7 3.202548 1_455
H9 Hg1 1.794953 1_555
H9 Rb4 2.957208 1_544
H9 Rb0 3.045312 1_545
H9 Rb6 3.169634 1_555
H9 Rb6 3.169634 1_455
H10 Hg2 1.795561 1_555
H10 Rb3 3.041344 1_555
H10 Rb7 3.073944 1_555
H10 Rb5 3.194064 1_555
H10 Rb5 3.194064 1_655
H11 Rb6 2.942829 1_566
H11 Rb4 3.209603 1_655
H11 Rb4 3.209603 1_555
H12 Hg1 1.812325 1_556
H12 Rb5 2.915618 1_555
H12 Rb4 3.034825 1_545
H12 Rb2 3.074239 1_555
H12 Rb2 3.074239 1_455
H13 Hg0 1.822838 1_555
H13 Rb5 2.951765 1_555
H13 Rb4 2.978727 1_555
H13 Rb3 3.067750 1_555
H13 Rb3 3.067750 1_455
H14 Rb6 2.940279 1_565
H14 Rb0 3.071624 1_555
H14 Rb0 3.071624 1_655
H14 Rb2 3.144616 1_554
H15 Hg2 1.807214 1_555
H15 Rb7 2.973916 1_555
H15 Rb1 3.056657 1_655
H15 Rb1 3.056657 1_555
H15 Rb6 3.147057 1_555
