# generated using pymatgen
data_Ta5Ti4Si6W
_symmetry_space_group_name_H-M   'P 1'
_cell_length_a   7.46994373
_cell_length_b   7.47025503
_cell_length_c   7.46844662
_cell_angle_alpha   128.84792070
_cell_angle_beta   128.84949787
_cell_angle_gamma   75.15073524
_symmetry_Int_Tables_number   1
_chemical_formula_structural   Ta5Ti4Si6W
_chemical_formula_sum   'Ta5 Ti4 Si6 W1'
_cell_volume   246.22815086
_cell_formula_units_Z   1
loop_
 _symmetry_equiv_pos_site_id
 _symmetry_equiv_pos_as_xyz
  1  'x, y, z'
loop_
 _atom_site_type_symbol
 _atom_site_label
 _atom_site_symmetry_multiplicity
 _atom_site_fract_x
 _atom_site_fract_y
 _atom_site_fract_z
 _atom_site_occupancy
  Ta  Ta0  1  0.18517134  0.68744246  0.17113704  1
  Ta  Ta1  1  0.98491315  0.81561560  0.50049612  1
  Ta  Ta2  1  0.31293454  0.48223770  0.49535630  1
  Ta  Ta3  1  0.48365799  0.98628438  0.17084784  1
  Ta  Ta4  1  0.81661196  0.31440648  0.83217805  1
  Ti  Ti0  1  0.01359383  0.18440622  0.49736955  1
  Ti  Ti1  1  0.68735331  0.51622879  0.50323129  1
  Ti  Ti2  1  0.51616081  0.01305813  0.82820956  1
  Ti  Ti3  1  0.50192002  0.50332961  0.00152644  1
  Si  Si0  1  0.74854274  0.75249699  0.99798706  1
  Si  Si1  1  0.25491620  0.25116945  0.99764772  1
  Si  Si2  1  0.36936455  0.13355713  0.50744376  1
  Si  Si3  1  0.63019874  0.86572390  0.50017006  1
  Si  Si4  1  0.86263133  0.36624381  0.23687159  1
  Si  Si5  1  0.12963331  0.62622580  0.75826080  1
  W  W0  1  0.00239518  0.00157154  0.00126481  1
loop_
_geom_bond_atom_site_label_1
_geom_bond_atom_site_label_2
_geom_bond_distance
_geom_bond_site_symmetry_2
Ta0 W0 2.983266 1_565
Ta1 W0 2.982742 1_666
Ta2 W0 2.966315 1_555
Ta3 W0 2.966485 1_565
Ta4 W0 2.970408 1_656
Ti0 W0 2.986917 1_555
Ti1 W0 2.998704 1_666
Ti2 W0 2.993376 1_656
Si0 Ti2 2.648166 1_565
Si0 Ti1 2.662819 1_555
Si0 Ti0 2.674752 1_666
Si0 Ta0 2.689046 1_656
Si0 Ta3 2.690154 1_556
Si0 Ta2 2.700207 1_555
Si0 Ta1 2.705203 1_556
Si0 Ta4 2.712046 1_555
Si0 Ti3 2.956285 1_556
Si0 W0 2.958292 1_666
Si1 Ti2 2.658706 1_555
Si1 Ti0 2.670507 1_555
Si1 Ti1 2.685097 1_556
Si1 Ta3 2.685799 1_546
Si1 Ta0 2.692747 1_556
Si1 Ta1 2.693249 1_445
Si1 Ta2 2.701375 1_556
Si1 Ta4 2.708072 1_455
Si1 Ti3 2.932493 1_556
Si1 W0 2.994221 1_556
Si2 Si3 2.408470 1_545
Si2 Ti3 2.501584 1_556
Si2 Ti0 2.545643 1_555
Si2 W0 2.546815 1_555
Si2 Ta2 2.579718 1_555
Si2 Ti2 2.579814 1_555
Si2 Ta0 2.611849 1_545
Si2 Ta4 2.628053 1_555
Si2 Ta3 2.645811 1_545
Si3 Ti3 2.514134 1_555
Si3 W0 2.528549 1_666
Si3 Ti1 2.547642 1_555
Si3 Ta1 2.577924 1_555
Si3 Ti2 2.587318 1_565
Si3 Ta0 2.603563 1_555
Si3 Ta3 2.637143 1_555
Si3 Ta4 2.637432 1_565
Si4 Si5 2.380637 1_655
Si4 Ti3 2.510093 1_555
Si4 W0 2.537891 1_655
Si4 Ti2 2.542174 1_554
Si4 Ti1 2.578090 1_555
Si4 Ti0 2.584508 1_655
Si4 Ta4 2.588377 1_554
Si4 Ta1 2.646447 1_555
Si4 Ta2 2.653516 1_655
Si5 Ti3 2.514488 1_556
Si5 W0 2.544271 1_566
Si5 Ta0 2.571541 1_556
Si5 Ti0 2.592501 1_555
Si5 Ta3 2.597761 1_556
Si5 Ti1 2.598398 1_455
Si5 Ta2 2.618317 1_555
Si5 Ta1 2.626461 1_455
