# generated using pymatgen
data_Rb8Lu6BeBr20
_symmetry_space_group_name_H-M   'P 1'
_cell_length_a   12.00362355
_cell_length_b   12.00362372
_cell_length_c   12.00362334
_cell_angle_alpha   60.00000105
_cell_angle_beta   60.00000057
_cell_angle_gamma   59.99999937
_symmetry_Int_Tables_number   1
_chemical_formula_structural   Rb8Lu6BeBr20
_chemical_formula_sum   'Rb8 Lu6 Be1 Br20'
_cell_volume   1222.98774335
_cell_formula_units_Z   1
loop_
 _symmetry_equiv_pos_site_id
 _symmetry_equiv_pos_as_xyz
  1  'x, y, z'
loop_
 _atom_site_type_symbol
 _atom_site_label
 _atom_site_symmetry_multiplicity
 _atom_site_fract_x
 _atom_site_fract_y
 _atom_site_fract_z
 _atom_site_occupancy
  Rb  Rb0  1  0.35928529  0.35928529  0.35928529  1
  Rb  Rb1  1  0.64071471  0.64071471  0.64071471  1
  Rb  Rb2  1  0.35928529  0.35928529  0.92214214  1
  Rb  Rb3  1  0.35928529  0.92214214  0.35928529  1
  Rb  Rb4  1  0.64071471  0.64071471  0.07785786  1
  Rb  Rb5  1  0.64071471  0.07785786  0.64071471  1
  Rb  Rb6  1  0.92214214  0.35928529  0.35928529  1
  Rb  Rb7  1  0.07785786  0.64071471  0.64071471  1
  Lu  Lu0  1  0.84613002  0.15386998  0.15386998  1
  Lu  Lu1  1  0.15386998  0.84613002  0.84613002  1
  Lu  Lu2  1  0.15386998  0.84613002  0.15386998  1
  Lu  Lu3  1  0.84613002  0.15386998  0.84613002  1
  Lu  Lu4  1  0.15386998  0.15386998  0.84613002  1
  Lu  Lu5  1  0.84613002  0.84613002  0.15386998  1
  Be  Be0  1  0.00000000  0.00000000  0.00000000  1
  Br  Br0  1  0.33191304  0.00000000  1.00000000  1
  Br  Br1  1  0.66808696  1.00000000  0.00000000  1
  Br  Br2  1  0.00000000  0.33191304  0.66808696  1
  Br  Br3  1  1.00000000  0.66808696  0.33191304  1
  Br  Br4  1  0.00000000  0.33191304  1.00000000  1
  Br  Br5  1  0.66808696  1.00000000  0.33191304  1
  Br  Br6  1  1.00000000  0.66808696  0.00000000  1
  Br  Br7  1  0.33191304  0.00000000  0.66808696  1
  Br  Br8  1  0.00000000  0.00000000  0.33191304  1
  Br  Br9  1  0.00000000  0.00000000  0.66808696  1
  Br  Br10  1  0.66808696  0.33191304  1.00000000  1
  Br  Br11  1  0.33191304  0.66808696  0.00000000  1
  Br  Br12  1  0.68046576  0.31953424  0.31953424  1
  Br  Br13  1  0.31953424  0.68046576  0.68046576  1
  Br  Br14  1  0.31953424  0.68046576  0.31953424  1
  Br  Br15  1  0.68046576  0.31953424  0.68046576  1
  Br  Br16  1  0.31953424  0.31953424  0.68046576  1
  Br  Br17  1  0.68046576  0.68046576  0.31953424  1
  Br  Br18  1  0.25000000  0.25000000  0.25000000  1
  Br  Br19  1  0.75000000  0.75000000  0.75000000  1
loop_
_geom_bond_atom_site_label_1
_geom_bond_atom_site_label_2
_geom_bond_distance
_geom_bond_site_symmetry_2
Be0 Lu2 2.612049 1_545
Be0 Lu3 2.612049 1_454
Be0 Lu0 2.612049 1_455
Be0 Lu1 2.612049 1_544
Be0 Lu4 2.612049 1_554
Be0 Lu5 2.612049 1_445
Br0 Lu4 2.824688 1_555
Br0 Lu2 2.824688 1_546
Br1 Lu5 2.824688 1_555
Br1 Lu3 2.824688 1_564
Br2 Lu4 2.824688 1_555
Br2 Lu3 2.824688 1_455
Br3 Lu5 2.824688 1_555
Br3 Lu2 2.824688 1_655
Br4 Lu4 2.824688 1_555
Br4 Lu0 2.824688 1_456
Br5 Lu5 2.824688 1_555
Br5 Lu0 2.824688 1_565
Br6 Lu5 2.824688 1_555
Br6 Lu1 2.824688 1_654
Br7 Lu4 2.824688 1_555
Br7 Lu1 2.824688 1_545
Br8 Lu0 2.824688 1_455
Br8 Lu2 2.824688 1_545
Br9 Lu1 2.824688 1_545
Br9 Lu3 2.824688 1_455
Br10 Lu3 2.824688 1_555
Br10 Lu0 2.824688 1_556
Br11 Lu2 2.824688 1_555
Br11 Lu1 2.824688 1_554
Br12 Lu0 2.812265 1_555
Br12 Rb6 3.444887 1_555
Br12 Rb5 3.444902 1_555
Br12 Rb4 3.444902 1_555
Br12 Rb0 3.444911 1_555
Br13 Lu1 2.812265 1_555
Br13 Rb7 3.444887 1_555
Br13 Rb3 3.444902 1_555
Br13 Rb2 3.444902 1_555
Br13 Rb1 3.444911 1_555
Br14 Lu2 2.812265 1_555
Br14 Rb3 3.444887 1_555
Br14 Rb7 3.444902 1_555
Br14 Rb4 3.444902 1_555
Br14 Rb0 3.444911 1_555
Br15 Lu3 2.812265 1_555
Br15 Rb5 3.444887 1_555
Br15 Rb6 3.444902 1_555
Br15 Rb2 3.444902 1_555
Br15 Rb1 3.444911 1_555
Br16 Lu4 2.812265 1_555
Br16 Rb2 3.444887 1_555
Br16 Rb5 3.444902 1_555
Br16 Rb7 3.444902 1_555
Br16 Rb0 3.444911 1_555
Br17 Lu5 2.812265 1_555
Br17 Rb4 3.444887 1_555
Br17 Rb3 3.444902 1_555
Br17 Rb6 3.444902 1_555
Br17 Rb1 3.444911 1_555
Br18 Rb0 3.213288 1_555
Br18 Rb2 3.213308 1_554
Br18 Rb6 3.213308 1_455
Br18 Rb3 3.213308 1_545
Br19 Rb1 3.213288 1_555
Br19 Rb4 3.213308 1_556
Br19 Rb7 3.213308 1_655
Br19 Rb5 3.213308 1_565
