# generated using pymatgen
data_Tc2HgO8
_symmetry_space_group_name_H-M   'P 1'
_cell_length_a   6.01311837
_cell_length_b   6.01311993
_cell_length_c   6.46558600
_cell_angle_alpha   90.00000000
_cell_angle_beta   90.00000000
_cell_angle_gamma   120.00000013
_symmetry_Int_Tables_number   1
_chemical_formula_structural   Tc2HgO8
_chemical_formula_sum   'Tc2 Hg1 O8'
_cell_volume   202.45949190
_cell_formula_units_Z   1
loop_
 _symmetry_equiv_pos_site_id
 _symmetry_equiv_pos_as_xyz
  1  'x, y, z'
loop_
 _atom_site_type_symbol
 _atom_site_label
 _atom_site_symmetry_multiplicity
 _atom_site_fract_x
 _atom_site_fract_y
 _atom_site_fract_z
 _atom_site_occupancy
  Tc  Tc0  1  0.33333300  0.66666700  0.79544729  1
  Tc  Tc1  1  0.66666700  0.33333300  0.20455271  1
  Hg  Hg0  1  0.00000000  0.00000000  0.50000000  1
  O  O0  1  0.21018366  0.85258133  0.70819633  1
  O  O1  1  0.14741867  0.35760233  0.70819633  1
  O  O2  1  0.33333300  0.66666700  0.05586832  1
  O  O3  1  0.35760233  0.21018366  0.29180367  1
  O  O4  1  0.64239767  0.78981634  0.70819633  1
  O  O5  1  0.66666700  0.33333300  0.94413168  1
  O  O6  1  0.85258133  0.64239767  0.29180367  1
  O  O7  1  0.78981634  0.14741867  0.29180367  1
loop_
_geom_bond_atom_site_label_1
_geom_bond_atom_site_label_2
_geom_bond_distance
_geom_bond_site_symmetry_2
Hg0 O3 2.305534 1_555
Hg0 O4 2.305534 1_445
Hg0 O0 2.305534 1_545
Hg0 O7 2.305534 1_455
Hg0 O1 2.305534 1_555
Hg0 O6 2.305534 1_445
O0 Tc0 1.715865 1_555
O1 Tc0 1.715869 1_555
O2 Tc0 1.683775 1_554
O3 Tc1 1.715870 1_555
O4 Tc0 1.715870 1_555
O5 Tc1 1.683775 1_556
O6 Tc1 1.715869 1_555
O7 Tc1 1.715865 1_555
