# generated using pymatgen
data_Zr5AlBiSb
_symmetry_space_group_name_H-M   'P 1'
_cell_length_a   5.58598444
_cell_length_b   8.41640082
_cell_length_c   8.42480757
_cell_angle_alpha   83.68380583
_cell_angle_beta   70.63892820
_cell_angle_gamma   70.61883157
_symmetry_Int_Tables_number   1
_chemical_formula_structural   Zr5AlBiSb
_chemical_formula_sum   'Zr10 Al2 Bi2 Sb2'
_cell_volume   352.50770153
_cell_formula_units_Z   2
loop_
 _symmetry_equiv_pos_site_id
 _symmetry_equiv_pos_as_xyz
  1  'x, y, z'
loop_
 _atom_site_type_symbol
 _atom_site_label
 _atom_site_symmetry_multiplicity
 _atom_site_fract_x
 _atom_site_fract_y
 _atom_site_fract_z
 _atom_site_occupancy
  Zr  Zr0  1  0.25198588  0.50000000  0.50000000  1
  Zr  Zr1  1  0.74801412  0.50000000  0.50000000  1
  Zr  Zr2  1  0.07900658  0.13299431  0.70899354  1
  Zr  Zr3  1  0.92099342  0.86700569  0.29100646  1
  Zr  Zr4  1  0.78600684  0.28609970  0.14188761  1
  Zr  Zr5  1  0.42789445  0.28609970  0.85811239  1
  Zr  Zr6  1  0.21399316  0.71390030  0.85811239  1
  Zr  Zr7  1  0.57210555  0.71390030  0.14188761  1
  Zr  Zr8  1  0.71200088  0.86700569  0.70899354  1
  Zr  Zr9  1  0.28799912  0.13299431  0.29100646  1
  Al  Al0  1  0.25000000  0.00000000  0.00000000  1
  Al  Al1  1  0.75000000  0.00000000  0.00000000  1
  Bi  Bi0  1  0.16494972  0.50000000  0.17010157  1
  Bi  Bi1  1  0.83505028  0.50000000  0.82989843  1
  Sb  Sb0  1  0.33745941  0.82508119  0.50000000  1
  Sb  Sb1  1  0.66254059  0.17491881  0.50000000  1
loop_
_geom_bond_atom_site_label_1
_geom_bond_atom_site_label_2
_geom_bond_distance
_geom_bond_site_symmetry_2
Zr0 Zr1 2.770806 1_555
Zr0 Zr1 2.815178 1_455
Al0 Al1 2.792992 1_555
Al0 Al1 2.792992 1_455
Al0 Zr4 2.895112 1_455
Al0 Zr7 2.895113 1_545
Al0 Zr5 2.895115 1_554
Al0 Zr6 2.895115 1_544
Al0 Zr9 2.900899 1_555
Al0 Zr2 2.900900 1_554
Al0 Zr8 2.900902 1_544
Al0 Zr3 2.900902 1_445
Al1 Zr6 2.895112 1_644
Al1 Zr5 2.895113 1_554
Al1 Zr7 2.895115 1_545
Al1 Zr4 2.895115 1_555
Al1 Zr8 2.900899 1_544
Al1 Zr3 2.900900 1_545
Al1 Zr9 2.900902 1_555
Al1 Zr2 2.900902 1_654
Bi0 Zr0 2.976070 1_555
Bi0 Zr1 2.976072 1_455
Bi0 Zr5 3.005577 1_554
Bi0 Zr6 3.005577 1_554
Bi0 Zr3 3.068208 1_455
Bi0 Zr9 3.068208 1_555
Bi0 Zr7 3.276450 1_555
Bi0 Zr4 3.276455 1_455
Bi0 Zr4 3.276455 1_555
Bi0 Zr7 3.276460 1_455
Bi1 Zr1 2.976070 1_555
Bi1 Zr0 2.976072 1_655
Bi1 Zr7 3.005577 1_556
Bi1 Zr4 3.005577 1_556
Bi1 Zr2 3.068208 1_655
Bi1 Zr8 3.068208 1_555
Bi1 Zr5 3.276450 1_555
Bi1 Zr6 3.276455 1_655
Bi1 Zr6 3.276455 1_555
Bi1 Zr5 3.276460 1_655
Sb0 Zr0 2.929290 1_555
Sb0 Zr1 2.929290 1_555
Sb0 Zr2 2.955643 1_565
Sb0 Zr9 2.955643 1_565
Sb0 Zr7 2.980140 1_555
Sb0 Zr6 2.980140 1_555
Sb0 Zr8 3.266654 1_455
Sb0 Zr3 3.266654 1_555
Sb0 Zr8 3.266659 1_555
Sb0 Zr3 3.266659 1_455
Sb1 Zr1 2.929290 1_555
Sb1 Zr0 2.929290 1_555
Sb1 Zr3 2.955643 1_545
Sb1 Zr8 2.955643 1_545
Sb1 Zr5 2.980140 1_555
Sb1 Zr4 2.980140 1_555
Sb1 Zr9 3.266654 1_655
Sb1 Zr2 3.266654 1_555
Sb1 Zr9 3.266659 1_555
Sb1 Zr2 3.266659 1_655
