# generated using pymatgen
data_Sr10VReN10
_symmetry_space_group_name_H-M   'P 1'
_cell_length_a   7.66071244
_cell_length_b   7.66071173
_cell_length_c   8.98774583
_cell_angle_alpha   76.35919550
_cell_angle_beta   76.35920136
_cell_angle_gamma   96.82743997
_symmetry_Int_Tables_number   1
_chemical_formula_structural   Sr10VReN10
_chemical_formula_sum   'Sr10 V1 Re1 N10'
_cell_volume   489.54614734
_cell_formula_units_Z   1
loop_
 _symmetry_equiv_pos_site_id
 _symmetry_equiv_pos_as_xyz
  1  'x, y, z'
loop_
 _atom_site_type_symbol
 _atom_site_label
 _atom_site_symmetry_multiplicity
 _atom_site_fract_x
 _atom_site_fract_y
 _atom_site_fract_z
 _atom_site_occupancy
  Sr  Sr0  1  0.38989755  0.39423089  0.38655294  1
  Sr  Sr1  1  0.60576911  0.61010245  0.61344706  1
  Sr  Sr2  1  0.66390804  0.66821703  0.00911437  1
  Sr  Sr3  1  0.33178297  0.33609196  0.99088563  1
  Sr  Sr4  1  0.93113859  0.91581285  0.19928593  1
  Sr  Sr5  1  0.08418715  0.06886141  0.80071407  1
  Sr  Sr6  1  0.54849547  0.08994115  0.75381221  1
  Sr  Sr7  1  0.91005885  0.45150453  0.24618779  1
  Sr  Sr8  1  0.43206743  0.89126047  0.24659071  1
  Sr  Sr9  1  0.10873953  0.56793257  0.75340929  1
  V  V0  1  0.24330937  0.75669063  1.00000000  1
  Re  Re0  1  0.75624059  0.24375941  0.00000000  1
  N  N0  1  0.65830383  0.65914862  0.31297767  1
  N  N1  1  0.34085138  0.34169617  0.68702233  1
  N  N2  1  0.71704302  0.01218189  0.98006518  1
  N  N3  1  0.98781811  0.28295698  0.01993482  1
  N  N4  1  0.28232763  0.98932585  0.01617076  1
  N  N5  1  0.01067415  0.71767237  0.98382924  1
  N  N6  1  0.40507562  0.73494653  0.82329879  1
  N  N7  1  0.26505347  0.59492438  0.17670021  1
  N  N8  1  0.59154394  0.26428681  0.17588297  1
  N  N9  1  0.73571319  0.40845606  0.82411603  1
loop_
_geom_bond_atom_site_label_1
_geom_bond_atom_site_label_2
_geom_bond_distance
_geom_bond_site_symmetry_2
N0 Sr4 2.519253 1_555
N0 Sr0 2.552920 1_555
N0 Sr1 2.562987 1_555
N0 Sr8 2.691022 1_555
N0 Sr7 2.691468 1_555
N0 Sr2 2.705510 1_555
N1 Sr5 2.519253 1_555
N1 Sr1 2.552920 1_555
N1 Sr0 2.562987 1_555
N1 Sr9 2.691022 1_555
N1 Sr6 2.691468 1_555
N1 Sr3 2.705510 1_555
N2 Re0 1.821582 1_556
N2 Sr2 2.558814 1_546
N2 Sr6 2.647098 1_555
N2 Sr8 2.714454 1_546
N2 Sr5 2.817563 1_655
N2 Sr4 2.871085 1_546
N3 Re0 1.821582 1_555
N3 Sr3 2.558814 1_654
N3 Sr7 2.647098 1_555
N3 Sr9 2.714454 1_654
N3 Sr4 2.817563 1_545
N3 Sr5 2.871085 1_654
N4 V0 1.817289 1_554
N4 Sr3 2.586000 1_564
N4 Sr8 2.600131 1_555
N4 Sr6 2.610218 1_564
N4 Sr4 2.716243 1_455
N4 Sr5 2.734036 1_564
N5 V0 1.817289 1_555
N5 Sr2 2.586000 1_456
N5 Sr9 2.600131 1_555
N5 Sr7 2.610218 1_456
N5 Sr5 2.716243 1_565
N5 Sr4 2.734036 1_456
N6 V0 1.825171 1_555
N6 Sr1 2.582343 1_555
N6 Sr6 2.675403 1_565
N6 Sr9 2.747035 1_555
N6 Sr2 2.895224 1_556
N6 Sr3 2.990413 1_555
N7 V0 1.825164 1_554
N7 Sr0 2.582349 1_555
N7 Sr7 2.675402 1_455
N7 Sr8 2.747040 1_555
N7 Sr3 2.895218 1_554
N7 Sr2 2.990411 1_555
N8 Re0 1.827346 1_555
N8 Sr0 2.614845 1_555
N8 Sr8 2.830148 1_545
N8 Sr3 2.901135 1_554
N8 Sr7 2.955121 1_555
N8 Sr2 3.023539 1_555
N9 Re0 1.827353 1_556
N9 Sr1 2.614839 1_555
N9 Sr9 2.830149 1_655
N9 Sr2 2.901141 1_556
N9 Sr6 2.955117 1_555
N9 Sr3 3.023541 1_555
