# generated using pymatgen
data_NaLuSnI6
_symmetry_space_group_name_H-M   'P 1'
_cell_length_a   8.45293043
_cell_length_b   8.45881465
_cell_length_c   8.45611741
_cell_angle_alpha   54.73310949
_cell_angle_beta   54.76680005
_cell_angle_gamma   54.77967578
_symmetry_Int_Tables_number   1
_chemical_formula_structural   NaLuSnI6
_chemical_formula_sum   'Na1 Lu1 Sn1 I6'
_cell_volume   375.35917064
_cell_formula_units_Z   1
loop_
 _symmetry_equiv_pos_site_id
 _symmetry_equiv_pos_as_xyz
  1  'x, y, z'
loop_
 _atom_site_type_symbol
 _atom_site_label
 _atom_site_symmetry_multiplicity
 _atom_site_fract_x
 _atom_site_fract_y
 _atom_site_fract_z
 _atom_site_occupancy
  Na  Na0  1  0.66721176  0.66719202  0.66738111  1
  Lu  Lu0  1  0.99998670  0.99983974  0.99991159  1
  Sn  Sn0  1  0.33283019  0.33268816  0.33266601  1
  I  I0  1  0.22993266  0.60766926  0.91876766  1
  I  I1  1  0.60683200  0.91885426  0.23105711  1
  I  I2  1  0.91873390  0.23107597  0.60688681  1
  I  I3  1  0.76720626  0.38983875  0.08647101  1
  I  I4  1  0.39053451  0.08634357  0.76663711  1
  I  I5  1  0.08673302  0.76649728  0.39022359  1
loop_
_geom_bond_atom_site_label_1
_geom_bond_atom_site_label_2
_geom_bond_distance
_geom_bond_site_symmetry_2
I0 Lu0 2.984240 1_455
I0 Sn0 3.192897 1_556
I0 Na0 3.206181 1_555
I1 Lu0 2.986468 1_554
I1 Sn0 3.190896 1_565
I1 Na0 3.202337 1_555
I2 Lu0 2.986708 1_545
I2 Sn0 3.189299 1_655
I2 Na0 3.204442 1_555
I3 Lu0 2.988276 1_544
I3 Sn0 3.180405 1_555
I3 Na0 3.216432 1_554
I4 Lu0 2.988433 1_445
I4 Sn0 3.179524 1_555
I4 Na0 3.217455 1_545
I5 Lu0 2.987837 1_454
I5 Sn0 3.181043 1_555
I5 Na0 3.216658 1_455
