# generated using pymatgen
data_Zr6Zn21CoNi2
_symmetry_space_group_name_H-M   'P 1'
_cell_length_a   8.63022964
_cell_length_b   8.62382437
_cell_length_c   8.62382538
_cell_angle_alpha   59.79588699
_cell_angle_beta   59.97542444
_cell_angle_gamma   59.97543024
_symmetry_Int_Tables_number   1
_chemical_formula_structural   Zr6Zn21CoNi2
_chemical_formula_sum   'Zr6 Zn21 Co1 Ni2'
_cell_volume   452.97255286
_cell_formula_units_Z   1
loop_
 _symmetry_equiv_pos_site_id
 _symmetry_equiv_pos_as_xyz
  1  'x, y, z'
loop_
 _atom_site_type_symbol
 _atom_site_label
 _atom_site_symmetry_multiplicity
 _atom_site_fract_x
 _atom_site_fract_y
 _atom_site_fract_z
 _atom_site_occupancy
  Zr  Zr0  1  0.70238341  0.29761659  0.29761659  1
  Zr  Zr1  1  0.29761659  0.70238341  0.70238341  1
  Zr  Zr2  1  0.29767849  0.69931193  0.30068807  1
  Zr  Zr3  1  0.70232151  0.30068807  0.69931193  1
  Zr  Zr4  1  0.29767849  0.30068807  0.69931193  1
  Zr  Zr5  1  0.70232151  0.69931193  0.30068807  1
  Zn  Zn0  1  0.11680718  0.11801993  0.11801993  1
  Zn  Zn1  1  0.88319282  0.88198007  0.88198007  1
  Zn  Zn2  1  0.11362578  0.12820330  0.64454614  1
  Zn  Zn3  1  0.11362578  0.64454614  0.12820330  1
  Zn  Zn4  1  0.88637422  0.87179670  0.35545386  1
  Zn  Zn5  1  0.88637422  0.35545386  0.87179670  1
  Zn  Zn6  1  0.64715595  0.11801993  0.11801993  1
  Zn  Zn7  1  0.35284405  0.88198007  0.88198007  1
  Zn  Zn8  1  0.50000000  0.00000000  0.00000000  1
  Zn  Zn9  1  0.00000000  0.50000000  0.00000000  1
  Zn  Zn10  1  0.50000000  0.00000000  0.50000000  1
  Zn  Zn11  1  0.00000000  0.00000000  0.50000000  1
  Zn  Zn12  1  0.50000000  0.50000000  0.00000000  1
  Zn  Zn13  1  0.32288221  0.33383080  0.33383080  1
  Zn  Zn14  1  0.67711779  0.66616920  0.66616920  1
  Zn  Zn15  1  0.33020443  0.33013420  0.00945793  1
  Zn  Zn16  1  0.33020443  0.00945793  0.33013420  1
  Zn  Zn17  1  0.66979557  0.66986580  0.99054207  1
  Zn  Zn18  1  0.66979557  0.99054207  0.66986580  1
  Zn  Zn19  1  0.00945720  0.33383080  0.33383080  1
  Zn  Zn20  1  0.99054280  0.66616920  0.66616920  1
  Co  Co0  1  0.50000000  0.50000000  0.50000000  1
  Ni  Ni0  1  0.00000000  0.50000000  0.50000000  1
  Ni  Ni1  1  0.00000000  0.00000000  0.00000000  1
loop_
_geom_bond_atom_site_label_1
_geom_bond_atom_site_label_2
_geom_bond_distance
_geom_bond_site_symmetry_2
Zn0 Zn9 2.689531 1_555
Zn0 Zn11 2.689531 1_555
Zn0 Zn8 2.704414 1_555
Zn0 Zn15 2.745376 1_555
Zn0 Zn16 2.745376 1_555
Zn0 Zn19 2.796404 1_555
Zn0 Zn7 2.882090 1_544
Zn0 Zn4 2.903877 1_445
Zn0 Zn5 2.903877 1_454
Zn0 Zr0 2.985968 1_455
Zn0 Zr2 3.008896 1_545
Zn0 Zr4 3.008896 1_554
Zn1 Zn9 2.689531 1_656
Zn1 Zn11 2.689531 1_665
Zn1 Zn8 2.704414 1_566
Zn1 Zn17 2.745376 1_555
Zn1 Zn18 2.745376 1_555
Zn1 Zn20 2.796404 1_555
Zn1 Zn6 2.882090 1_566
Zn1 Zn2 2.903877 1_665
Zn1 Zn3 2.903877 1_656
Zn1 Zr1 2.985968 1_655
Zn1 Zr3 3.008896 1_565
Zn1 Zr5 3.008896 1_556
Zn2 Zn5 2.774771 1_455
Zn2 Zn7 2.903853 1_545
Zn2 Zr4 2.963244 1_555
Zn2 Zr3 2.963251 1_455
Zn2 Zr1 3.060966 1_545
Zn3 Zn9 2.726310 1_555
Zn3 Zn4 2.774771 1_455
Zn3 Zn7 2.903853 1_554
Zn3 Zr2 2.963244 1_555
Zn3 Zr5 2.963251 1_455
Zn3 Zr1 3.060967 1_554
Zn4 Zn6 2.903853 1_565
Zn4 Zr5 2.963244 1_555
Zn4 Zr2 2.963251 1_655
Zn4 Zr0 3.060966 1_565
Zn5 Zn9 2.726310 1_656
Zn5 Zn6 2.903853 1_556
Zn5 Zr3 2.963244 1_555
Zn5 Zr4 2.963251 1_655
Zn5 Zr0 3.060967 1_556
Zn6 Zn8 2.704436 1_555
Zn6 Zr0 2.985950 1_555
Zn6 Zr5 3.008901 1_545
Zn6 Zr3 3.008901 1_554
Zn7 Zn8 2.704436 1_566
Zn7 Zr1 2.985950 1_555
Zn7 Zr4 3.008901 1_565
Zn7 Zr2 3.008901 1_556
Zn8 Zr3 3.119523 1_554
Zn8 Zr2 3.119523 1_545
Zn8 Zr5 3.119523 1_545
Zn8 Zr4 3.119523 1_554
Zn9 Zr1 3.100417 1_554
Zn9 Zr0 3.100417 1_455
Zn9 Zr4 3.110828 1_554
Zn9 Zr5 3.110828 1_455
Zn10 Zn18 2.491640 1_545
Zn10 Zn16 2.491640 1_555
Zn10 Zn14 2.513046 1_545
Zn10 Zn13 2.513046 1_555
Zn10 Zn7 2.689533 1_545
Zn10 Zn6 2.689533 1_555
Zn10 Zn4 2.726303 1_545
Zn10 Zn2 2.726303 1_555
Zn10 Zr0 3.100417 1_555
Zn10 Zr1 3.100417 1_545
Zn10 Zr5 3.110828 1_545
Zn10 Zr4 3.110828 1_555
Zn11 Zn16 2.491647 1_555
Zn11 Zn18 2.491647 1_445
Zn11 Zn19 2.513048 1_555
Zn11 Zn20 2.513048 1_445
Zn11 Zn2 2.726310 1_555
Zn11 Zn4 2.726310 1_445
Zn11 Zr1 3.100417 1_545
Zn11 Zr0 3.100417 1_455
Zn11 Zr2 3.110828 1_545
Zn11 Zr3 3.110828 1_455
Zn12 Zn17 2.491640 1_554
Zn12 Zn15 2.491640 1_555
Zn12 Zn14 2.513046 1_554
Zn12 Zn13 2.513046 1_555
Zn12 Zn7 2.689532 1_554
Zn12 Zn6 2.689532 1_555
Zn12 Zn5 2.726303 1_554
Zn12 Zn3 2.726303 1_555
Zn12 Zr0 3.100417 1_555
Zn12 Zr1 3.100417 1_554
Zn12 Zr2 3.110828 1_555
Zn12 Zr3 3.110828 1_554
Zn13 Zn2 2.677160 1_555
Zn13 Zn3 2.677161 1_555
Zn13 Zn19 2.704930 1_555
Zn13 Zn16 2.782247 1_555
Zn13 Zn15 2.782247 1_555
Zn13 Zn6 2.796410 1_555
Zn13 Zr2 2.921107 1_555
Zn13 Zr4 2.921107 1_555
Zn13 Zr0 2.995462 1_555
Zn14 Zn4 2.677160 1_555
Zn14 Zn5 2.677161 1_555
Zn14 Zn20 2.704930 1_555
Zn14 Zn18 2.782247 1_555
Zn14 Zn17 2.782247 1_555
Zn14 Zn7 2.796410 1_555
Zn14 Zr3 2.921107 1_555
Zn14 Zr5 2.921107 1_555
Zn14 Zr1 2.995462 1_555
Zn15 Zn8 2.489675 1_555
Zn15 Zn9 2.491648 1_555
Zn15 Zn6 2.745390 1_555
Zn15 Zn16 2.756920 1_555
Zn15 Zn3 2.775002 1_555
Zn15 Zn19 2.782247 1_555
Zn15 Zr1 2.947127 1_554
Zn15 Zr3 2.966991 1_554
Zn15 Zr4 2.966997 1_554
Zn16 Zn8 2.489675 1_555
Zn16 Zn6 2.745390 1_555
Zn16 Zn2 2.775002 1_555
Zn16 Zn19 2.782247 1_555
Zn16 Zr1 2.947127 1_545
Zn16 Zr5 2.966992 1_545
Zn16 Zr2 2.966996 1_545
Zn17 Zn8 2.489675 1_566
Zn17 Zn9 2.491648 1_656
Zn17 Zn7 2.745390 1_555
Zn17 Zn18 2.756920 1_555
Zn17 Zn5 2.775002 1_555
Zn17 Zn20 2.782247 1_555
Zn17 Zr0 2.947127 1_556
Zn17 Zr2 2.966991 1_556
Zn17 Zr5 2.966997 1_556
Zn18 Zn8 2.489675 1_566
Zn18 Zn7 2.745390 1_555
Zn18 Zn4 2.775002 1_555
Zn18 Zn20 2.782247 1_555
Zn18 Zr0 2.947127 1_565
Zn18 Zr4 2.966992 1_565
Zn18 Zr3 2.966996 1_565
Zn19 Zn9 2.513049 1_555
Zn19 Zn3 2.677160 1_555
Zn19 Zn2 2.677161 1_555
Zn19 Zr3 2.921110 1_455
Zn19 Zr5 2.921110 1_455
Zn19 Zr0 2.995471 1_455
Zn20 Zn9 2.513049 1_656
Zn20 Zn5 2.677160 1_555
Zn20 Zn4 2.677161 1_555
Zn20 Zr2 2.921110 1_655
Zn20 Zr4 2.921110 1_655
Zn20 Zr1 2.995471 1_655
Co0 Zr4 2.446419 1_555
Co0 Zr5 2.446419 1_555
Co0 Zr3 2.446420 1_555
Co0 Zr2 2.446420 1_555
Co0 Zr1 2.471139 1_555
Co0 Zr0 2.471139 1_555
Ni0 Zn20 2.438404 1_455
Ni0 Zn19 2.438404 1_555
Ni0 Zn14 2.438409 1_455
Ni0 Zn13 2.438409 1_555
Ni0 Zn4 2.617490 1_455
Ni0 Zn2 2.617490 1_555
Ni0 Zn5 2.617490 1_455
Ni0 Zn3 2.617490 1_555
Ni1 Zn7 2.486697 1_544
Ni1 Zn6 2.486697 1_455
Ni1 Zn0 2.486718 1_555
Ni1 Zn1 2.486718 1_444
Ni1 Zn5 2.499457 1_454
Ni1 Zn3 2.499457 1_545
Ni1 Zn2 2.499458 1_554
Ni1 Zn4 2.499458 1_445
