# generated using pymatgen
data_Ti2SiGeOs2
_symmetry_space_group_name_H-M   'P 1'
_cell_length_a   7.41636991
_cell_length_b   7.43999913
_cell_length_c   7.42073129
_cell_angle_alpha   127.47029272
_cell_angle_beta   123.25776316
_cell_angle_gamma   80.93917343
_symmetry_Int_Tables_number   1
_chemical_formula_structural   Ti2SiGeOs2
_chemical_formula_sum   'Ti6 Si3 Ge3 Os6'
_cell_volume   262.00276686
_cell_formula_units_Z   3
loop_
 _symmetry_equiv_pos_site_id
 _symmetry_equiv_pos_as_xyz
  1  'x, y, z'
loop_
 _atom_site_type_symbol
 _atom_site_label
 _atom_site_symmetry_multiplicity
 _atom_site_fract_x
 _atom_site_fract_y
 _atom_site_fract_z
 _atom_site_occupancy
  Ti  Ti0  1  0.54747187  0.10352946  0.05315926  1
  Ti  Ti1  1  0.43966094  0.47905474  0.53788972  1
  Ti  Ti2  1  0.97359296  0.49053418  0.02274681  1
  Ti  Ti3  1  0.03623459  0.05734056  0.53236483  1
  Ti  Ti4  1  0.75937083  0.91544611  0.66245093  1
  Ti  Ti5  1  0.24784165  0.91189788  0.16089116  1
  Si  Si0  1  0.17212319  0.16249656  0.00255111  1
  Si  Si1  1  0.78288042  0.55712758  0.27065678  1
  Si  Si2  1  0.22231152  0.46013145  0.73364533  1
  Ge  Ge0  1  0.34136160  0.82833025  0.50313261  1
  Ge  Ge1  1  0.66422263  0.16233491  0.49285081  1
  Ge  Ge2  1  0.82677472  0.83034845  0.99317953  1
  Os  Os0  1  0.16142018  0.75600671  0.66721739  1
  Os  Os1  1  0.84128972  0.49682603  0.58720153  1
  Os  Os2  1  0.58195927  0.74731021  0.08309534  1
  Os  Os3  1  0.40168508  0.48721284  0.14781815  1
  Os  Os4  1  0.52591687  0.24773876  0.77554135  1
  Os  Os5  1  0.97387897  0.25033333  0.21760437  1
loop_
_geom_bond_atom_site_label_1
_geom_bond_atom_site_label_2
_geom_bond_distance
_geom_bond_site_symmetry_2
Si0 Ti1 2.590006 1_555
Si0 Ti0 2.598423 1_555
Si0 Ti4 2.602483 1_444
Si0 Ti5 2.604639 1_545
Si0 Ti2 2.609990 1_455
Si0 Ti3 2.621455 1_554
Si1 Ti4 2.563110 1_555
Si1 Ti2 2.674810 1_555
Si2 Ti3 2.590693 1_555
Si2 Ti1 2.759887 1_555
Si2 Ti5 2.821596 1_556
Ge0 Os4 2.516438 1_565
Ge0 Os0 2.521642 1_555
Ge0 Os3 2.527391 1_555
Ge0 Ti3 2.635393 1_565
Ge0 Ti2 2.656594 1_455
Ge0 Ti4 2.666287 1_555
Ge0 Ti0 2.676362 1_566
Ge0 Ti5 2.677869 1_555
Ge0 Ti1 2.713546 1_555
Ge1 Os2 2.507481 1_545
Ge1 Os1 2.511728 1_555
Ge1 Os4 2.527744 1_555
Ge1 Ti1 2.618053 1_555
Ge1 Ti0 2.621253 1_555
Ge1 Ti2 2.622150 1_556
Ge1 Ti4 2.624185 1_545
Ge1 Ti5 2.638212 1_545
Ge1 Ti3 2.649662 1_655
Ge2 Os2 2.511386 1_556
Ge2 Os1 2.533976 1_555
Ge2 Os5 2.544962 1_566
Ge2 Ti3 2.657441 1_666
Ge2 Ti5 2.661605 1_656
Ge2 Ti4 2.668206 1_555
Ge2 Ti2 2.677960 1_556
Ge2 Ti0 2.684084 1_566
Ge2 Ti1 2.732943 1_555
Os0 Si1 2.383252 1_455
Os0 Si0 2.459123 1_566
Os0 Si2 2.460834 1_555
Os0 Ti0 2.722703 1_566
Os0 Ti5 2.768713 1_556
Os0 Ti1 2.802114 1_555
Os0 Ti3 2.818627 1_565
Os0 Ti4 3.020022 1_455
Os1 Si2 2.447544 1_655
Os1 Si1 2.451869 1_555
Os1 Ti0 2.728249 1_555
Os1 Ti1 2.809500 1_555
Os1 Ti4 2.835720 1_555
Os1 Ti2 2.846482 1_556
Os1 Ti5 3.099938 1_656
Os2 Si1 2.370032 1_555
Os2 Si2 2.423099 1_554
Os2 Ti0 2.753037 1_565
Os2 Ti1 2.760711 1_554
Os2 Ti5 2.779592 1_555
Os2 Ti3 2.925348 1_665
Os2 Ti4 3.090318 1_555
Os3 Si0 2.451734 1_555
Os3 Si2 2.470423 1_554
Os3 Si1 2.480655 1_555
Os3 Ti0 2.689309 1_555
Os3 Ti2 2.777261 1_455
Os3 Ti1 2.788551 1_555
Os3 Ti4 2.918704 1_555
Os3 Ti5 3.147637 1_555
Os4 Si1 2.416904 1_556
Os4 Si2 2.524458 1_555
Os4 Ti4 2.745022 1_545
Os4 Ti0 2.773973 1_556
Os4 Ti1 2.930829 1_555
Os4 Ti5 2.956337 1_545
Os4 Ti2 2.971273 1_556
Os5 Si1 2.423114 1_555
Os5 Si0 2.477377 1_655
Os5 Si2 2.527847 1_655
Os5 Ti4 2.698465 1_544
Os5 Ti0 2.813603 1_555
Os5 Ti1 2.898801 1_655
Os5 Ti2 2.902433 1_555
Os5 Ti5 2.946636 1_645
