# generated using pymatgen
data_Zr16NiIr7N4
_symmetry_space_group_name_H-M   'P 1'
_cell_length_a   8.81539172
_cell_length_b   8.81539312
_cell_length_c   8.81539264
_cell_angle_alpha   59.26080882
_cell_angle_beta   59.26080759
_cell_angle_gamma   59.26081676
_symmetry_Int_Tables_number   1
_chemical_formula_structural   Zr16NiIr7N4
_chemical_formula_sum   'Zr16 Ni1 Ir7 N4'
_cell_volume   476.25135666
_cell_formula_units_Z   1
loop_
 _symmetry_equiv_pos_site_id
 _symmetry_equiv_pos_as_xyz
  1  'x, y, z'
loop_
 _atom_site_type_symbol
 _atom_site_label
 _atom_site_symmetry_multiplicity
 _atom_site_fract_x
 _atom_site_fract_y
 _atom_site_fract_z
 _atom_site_occupancy
  Zr  Zr0  1  0.09751422  0.63950264  0.63950264  1
  Zr  Zr1  1  0.63950264  0.09751422  0.63950264  1
  Zr  Zr2  1  0.63950264  0.63950264  0.09751422  1
  Zr  Zr3  1  0.61487051  0.61487051  0.61487051  1
  Zr  Zr4  1  0.81898555  0.81898555  0.18435484  1
  Zr  Zr5  1  0.18849672  0.18849672  0.81545082  1
  Zr  Zr6  1  0.81898555  0.18435484  0.81898555  1
  Zr  Zr7  1  0.18849672  0.81545082  0.18849672  1
  Zr  Zr8  1  0.18435484  0.81898555  0.81898555  1
  Zr  Zr9  1  0.81545082  0.18849672  0.18849672  1
  Zr  Zr10  1  0.43717269  0.43717269  0.06846239  1
  Zr  Zr11  1  0.07019252  0.07019252  0.43474521  1
  Zr  Zr12  1  0.43717269  0.06846239  0.43717269  1
  Zr  Zr13  1  0.07019252  0.43474521  0.07019252  1
  Zr  Zr14  1  0.06846239  0.43717269  0.43717269  1
  Zr  Zr15  1  0.43474521  0.07019252  0.07019252  1
  Ni  Ni0  1  0.85493268  0.85493268  0.85493268  1
  Ir  Ir0  1  0.76467587  0.40048563  0.40048563  1
  Ir  Ir1  1  0.40048563  0.76467587  0.40048563  1
  Ir  Ir2  1  0.40048563  0.40048563  0.76467587  1
  Ir  Ir3  1  0.41601439  0.41601439  0.41601439  1
  Ir  Ir4  1  0.47884075  0.82823927  0.82823927  1
  Ir  Ir5  1  0.82823927  0.47884075  0.82823927  1
  Ir  Ir6  1  0.82823927  0.82823927  0.47884075  1
  N  N0  1  0.62401246  0.12783063  0.12783063  1
  N  N1  1  0.12783063  0.62401246  0.12783063  1
  N  N2  1  0.12783063  0.12783063  0.62401246  1
  N  N3  1  0.12431655  0.12431655  0.12431655  1
loop_
_geom_bond_atom_site_label_1
_geom_bond_atom_site_label_2
_geom_bond_distance
_geom_bond_site_symmetry_2
Ni0 Zr8 2.618238 1_655
Ni0 Zr4 2.618239 1_556
Ni0 Zr6 2.618239 1_565
Ni0 Zr2 2.677671 1_556
Ni0 Zr1 2.677672 1_565
Ni0 Zr0 2.677672 1_655
Ir0 Zr3 2.726872 1_555
Ir0 Zr1 2.770128 1_555
Ir0 Zr2 2.770129 1_555
Ir0 Zr13 2.781860 1_655
Ir0 Zr11 2.781860 1_655
Ir0 Ir3 2.939956 1_555
Ir0 Zr9 3.007454 1_555
Ir0 Zr14 3.042783 1_655
Ir1 Zr3 2.726872 1_555
Ir1 Zr0 2.770128 1_555
Ir1 Zr2 2.770129 1_555
Ir1 Zr15 2.781860 1_565
Ir1 Zr11 2.781860 1_565
Ir1 Ir3 2.939957 1_555
Ir1 Zr7 3.007454 1_555
Ir1 Zr12 3.042783 1_565
Ir2 Zr3 2.726872 1_555
Ir2 Zr0 2.770129 1_555
Ir2 Zr1 2.770129 1_555
Ir2 Zr13 2.781860 1_556
Ir2 Zr15 2.781860 1_556
Ir2 Ir3 2.939957 1_555
Ir2 Zr5 3.007454 1_555
Ir2 Zr10 3.042783 1_556
Ir3 Zr2 2.881756 1_555
Ir3 Zr0 2.881756 1_555
Ir3 Zr1 2.881756 1_555
Ir3 Zr14 2.885082 1_555
Ir3 Zr10 2.885082 1_555
Ir3 Zr12 2.885082 1_555
Ir3 Zr5 3.180766 1_555
Ir3 Zr9 3.180766 1_555
Ir3 Zr7 3.180766 1_555
Ir4 Zr8 2.681854 1_555
Ir4 Zr1 2.720185 1_565
Ir4 Zr2 2.720185 1_556
Ir4 Zr3 2.742069 1_555
Ir4 Zr7 2.875595 1_556
Ir4 Zr5 2.875595 1_565
Ir4 Zr12 3.088750 1_565
Ir4 Zr10 3.088750 1_556
Ir5 Zr6 2.681854 1_555
Ir5 Zr0 2.720185 1_655
Ir5 Zr2 2.720185 1_556
Ir5 Zr3 2.742069 1_555
Ir5 Zr9 2.875595 1_556
Ir5 Zr5 2.875595 1_655
Ir5 Zr10 3.088749 1_556
Ir5 Zr14 3.088750 1_655
Ir6 Zr4 2.681854 1_555
Ir6 Zr0 2.720185 1_655
Ir6 Zr1 2.720185 1_565
Ir6 Zr3 2.742069 1_555
Ir6 Zr7 2.875595 1_655
Ir6 Zr9 2.875595 1_565
Ir6 Zr12 3.088750 1_565
Ir6 Zr14 3.088750 1_655
N0 Zr12 2.292129 1_555
N0 Zr10 2.292129 1_555
N0 Zr15 2.301581 1_555
N0 Zr6 2.306501 1_554
N0 Zr4 2.306501 1_545
N0 Zr9 2.357461 1_555
N1 Zr14 2.292129 1_555
N1 Zr10 2.292129 1_555
N1 Zr13 2.301581 1_555
N1 Zr8 2.306501 1_554
N1 Zr4 2.306501 1_455
N1 Zr7 2.357461 1_555
N2 Zr12 2.292128 1_555
N2 Zr14 2.292129 1_555
N2 Zr11 2.301581 1_555
N2 Zr6 2.306501 1_455
N2 Zr8 2.306501 1_545
N2 Zr5 2.357461 1_555
N3 Zr9 2.287221 1_455
N3 Zr5 2.287222 1_554
N3 Zr7 2.287222 1_545
N3 Zr15 2.346750 1_555
N3 Zr11 2.346750 1_555
N3 Zr13 2.346750 1_555
