# generated using pymatgen
data_Ca3Ni6B2Ir
_symmetry_space_group_name_H-M   'P 1'
_cell_length_a   7.76513777
_cell_length_b   7.76513714
_cell_length_c   7.76513697
_cell_angle_alpha   38.41130362
_cell_angle_beta   38.41130950
_cell_angle_gamma   38.41130576
_symmetry_Int_Tables_number   1
_chemical_formula_structural   Ca3Ni6B2Ir
_chemical_formula_sum   'Ca3 Ni6 B2 Ir1'
_cell_volume   162.36336918
_cell_formula_units_Z   1
loop_
 _symmetry_equiv_pos_site_id
 _symmetry_equiv_pos_as_xyz
  1  'x, y, z'
loop_
 _atom_site_type_symbol
 _atom_site_label
 _atom_site_symmetry_multiplicity
 _atom_site_fract_x
 _atom_site_fract_y
 _atom_site_fract_z
 _atom_site_occupancy
  Ca  Ca0  1  0.64588371  0.64588371  0.64588371  1
  Ca  Ca1  1  0.35411629  0.35411629  0.35411629  1
  Ca  Ca2  1  0.50000000  0.50000000  0.50000000  1
  Ni  Ni0  1  0.57414169  0.05772568  0.05772568  1
  Ni  Ni1  1  0.05772568  0.05772568  0.57414169  1
  Ni  Ni2  1  0.05772568  0.57414169  0.05772568  1
  Ni  Ni3  1  0.94227432  0.42585831  0.94227432  1
  Ni  Ni4  1  0.94227432  0.94227432  0.42585831  1
  Ni  Ni5  1  0.42585831  0.94227432  0.94227432  1
  B  B0  1  0.83003686  0.83003686  0.83003686  1
  B  B1  1  0.16996314  0.16996314  0.16996314  1
  Ir  Ir0  1  0.00000000  0.00000000  0.00000000  1
loop_
_geom_bond_atom_site_label_1
_geom_bond_atom_site_label_2
_geom_bond_distance
_geom_bond_site_symmetry_2
Ca0 Ir0 2.983395 1_656
Ca0 Ir0 2.983395 1_665
Ca0 Ir0 2.983396 1_566
Ca0 Ni5 3.080497 1_555
Ca0 Ni3 3.080498 1_555
Ca0 Ni4 3.080498 1_555
Ca0 Ni0 3.114855 1_565
Ca0 Ni0 3.114855 1_556
Ca0 Ni1 3.114855 1_655
Ca0 Ni2 3.114855 1_655
Ca0 Ni1 3.114855 1_565
Ca0 Ni2 3.114856 1_556
Ca0 Ca2 3.143703 1_555
Ca1 Ir0 2.983395 1_565
Ca1 Ir0 2.983395 1_556
Ca1 Ir0 2.983396 1_655
Ca1 Ni0 3.080497 1_555
Ca1 Ni2 3.080498 1_555
Ca1 Ni1 3.080498 1_555
Ca1 Ni5 3.114855 1_545
Ca1 Ni5 3.114855 1_554
Ca1 Ni4 3.114855 1_455
Ca1 Ni3 3.114855 1_455
Ca1 Ni4 3.114855 1_545
Ca1 Ni3 3.114856 1_554
Ca1 Ca2 3.143703 1_555
Ca2 Ni0 2.895183 1_556
Ca2 Ni5 2.895183 1_554
Ca2 Ni0 2.895184 1_565
Ca2 Ni5 2.895184 1_545
Ca2 Ni1 2.895184 1_565
Ca2 Ni4 2.895184 1_545
Ca2 Ni2 2.895184 1_556
Ca2 Ni3 2.895184 1_554
Ca2 Ni1 2.895184 1_655
Ca2 Ni4 2.895184 1_455
Ca2 Ni2 2.895184 1_655
Ca2 Ni3 2.895184 1_455
B0 Ni3 1.996605 1_555
B0 Ni4 1.996605 1_555
B0 Ni5 1.996606 1_555
B0 Ni2 2.021822 1_656
B0 Ni0 2.021822 1_566
B0 Ni1 2.021822 1_665
B0 Ca2 2.950443 1_565
B0 Ca2 2.950443 1_556
B0 Ca2 2.950444 1_655
B1 Ni2 1.996605 1_555
B1 Ni1 1.996605 1_555
B1 Ni0 1.996606 1_555
B1 Ni3 2.021822 1_454
B1 Ni5 2.021822 1_544
B1 Ni4 2.021822 1_445
B1 Ca2 2.950443 1_545
B1 Ca2 2.950443 1_554
B1 Ca2 2.950444 1_455
Ir0 Ni4 2.646898 1_445
Ir0 Ni1 2.646898 1_554
Ir0 Ni3 2.646898 1_454
Ir0 Ni2 2.646898 1_545
Ir0 Ni5 2.646898 1_544
Ir0 Ni0 2.646898 1_455
