# generated using pymatgen
data_CsRb5(InSb2)2
_symmetry_space_group_name_H-M   'P 1'
_cell_length_a   9.84340362
_cell_length_b   9.84340340
_cell_length_c   9.95215924
_cell_angle_alpha   127.52583014
_cell_angle_beta   71.83957306
_cell_angle_gamma   134.36873371
_symmetry_Int_Tables_number   1
_chemical_formula_structural   CsRb5(InSb2)2
_chemical_formula_sum   'Cs1 Rb5 In2 Sb4'
_cell_volume   535.47259166
_cell_formula_units_Z   1
loop_
 _symmetry_equiv_pos_site_id
 _symmetry_equiv_pos_as_xyz
  1  'x, y, z'
loop_
 _atom_site_type_symbol
 _atom_site_label
 _atom_site_symmetry_multiplicity
 _atom_site_fract_x
 _atom_site_fract_y
 _atom_site_fract_z
 _atom_site_occupancy
  Cs  Cs0  1  0.17333357  0.71629939  0.88963296  1
  Rb  Rb0  1  0.24839581  0.24762002  0.99680112  1
  Rb  Rb1  1  0.74918109  0.74840531  0.99680112  1
  Rb  Rb2  1  0.82538927  0.30176330  0.12715357  1
  Rb  Rb3  1  0.67418033  0.79492072  0.46910104  1
  Rb  Rb4  1  0.32529087  0.20063307  0.52592395  1
  In  In0  1  0.75142372  0.24936285  0.49938491  1
  In  In1  1  0.25002105  0.74796119  0.49938491  1
  Sb  Sb0  1  0.40843722  0.81363072  0.22206694  1
  Sb  Sb1  1  0.09579649  0.30831822  0.40411471  1
  Sb  Sb2  1  0.90345074  0.68638098  0.58983272  1
  Sb  Sb3  1  0.59509884  0.18470523  0.77980407  1
loop_
_geom_bond_atom_site_label_1
_geom_bond_atom_site_label_2
_geom_bond_distance
_geom_bond_site_symmetry_2
Cs0 Sb1 3.798758 1_555
Cs0 Sb0 3.876810 1_556
Cs0 In0 3.881876 1_455
Cs0 In1 3.881878 1_555
Cs0 Sb3 4.028552 1_565
Cs0 Sb3 4.028552 1_455
Rb0 Sb0 3.641294 1_556
Rb0 Sb3 3.664210 1_555
Rb0 Sb2 3.678757 1_445
Rb0 Sb1 3.681626 1_556
Rb1 Sb0 3.641290 1_556
Rb1 Sb3 3.664210 1_555
Rb1 Sb2 3.678752 1_555
Rb1 Sb1 3.681626 1_666
Rb2 Sb2 3.609184 1_555
Rb2 Sb3 3.846502 1_554
Rb2 Sb0 4.044325 1_545
Rb2 Sb0 4.044340 1_655
Rb3 Sb3 3.621033 1_565
Rb3 Sb2 3.782151 1_555
Rb3 Sb1 4.019622 1_665
Rb3 Sb1 4.019622 1_555
Rb4 Sb0 3.620774 1_545
Rb4 Sb1 3.783862 1_555
Rb4 Sb2 4.018691 1_555
Rb4 Sb2 4.018698 1_445
In0 Sb0 2.923604 1_545
In0 Sb1 2.939751 1_655
In0 Sb2 2.945179 1_555
In0 Sb3 2.945937 1_555
In0 Rb3 3.797721 1_545
In0 Rb4 3.813703 1_555
In0 Rb2 3.826328 1_555
In1 Sb0 2.923609 1_555
In1 Sb1 2.939755 1_555
In1 Sb2 2.945175 1_455
In1 Sb3 2.945942 1_565
In1 Rb3 3.797731 1_555
In1 Rb4 3.813697 1_565
In1 Rb2 3.826326 1_455
