# generated using pymatgen
data_Rb6MoP4
_symmetry_space_group_name_H-M   'P 1'
_cell_length_a   10.40312280
_cell_length_b   10.40312275
_cell_length_c   8.34908430
_cell_angle_alpha   90.00000000
_cell_angle_beta   90.00000000
_cell_angle_gamma   120.00000016
_symmetry_Int_Tables_number   1
_chemical_formula_structural   Rb6MoP4
_chemical_formula_sum   'Rb12 Mo2 P8'
_cell_volume   782.52266435
_cell_formula_units_Z   2
loop_
 _symmetry_equiv_pos_site_id
 _symmetry_equiv_pos_as_xyz
  1  'x, y, z'
loop_
 _atom_site_type_symbol
 _atom_site_label
 _atom_site_symmetry_multiplicity
 _atom_site_fract_x
 _atom_site_fract_y
 _atom_site_fract_z
 _atom_site_occupancy
  Rb  Rb0  1  0.14617557  0.29235414  0.28799204  1
  Rb  Rb1  1  0.85382443  0.14617557  0.78799204  1
  Rb  Rb2  1  0.53317856  0.46682144  0.10413014  1
  Rb  Rb3  1  0.06635612  0.53317856  0.60413014  1
  Rb  Rb4  1  0.46682144  0.93364388  0.60413014  1
  Rb  Rb5  1  0.53317856  0.06635612  0.10413014  1
  Rb  Rb6  1  0.93364388  0.46682144  0.10413014  1
  Rb  Rb7  1  0.46682144  0.53317856  0.60413014  1
  Rb  Rb8  1  0.14617557  0.85382443  0.28799204  1
  Rb  Rb9  1  0.70764586  0.85382443  0.28799204  1
  Rb  Rb10  1  0.85382443  0.70764586  0.78799204  1
  Rb  Rb11  1  0.29235414  0.14617557  0.78799204  1
  Mo  Mo0  1  0.66666700  0.33333300  0.49732419  1
  Mo  Mo1  1  0.33333300  0.66666700  0.99732419  1
  P  P0  1  0.78925750  0.57851500  0.40921398  1
  P  P1  1  0.42148500  0.21074250  0.40921398  1
  P  P2  1  0.33333300  0.66666700  0.27356232  1
  P  P3  1  0.66666700  0.33333300  0.77356232  1
  P  P4  1  0.78925750  0.21074250  0.40921398  1
  P  P5  1  0.21074250  0.78925750  0.90921398  1
  P  P6  1  0.21074250  0.42148500  0.90921398  1
  P  P7  1  0.57851500  0.78925750  0.90921398  1
loop_
_geom_bond_atom_site_label_1
_geom_bond_atom_site_label_2
_geom_bond_distance
_geom_bond_site_symmetry_2
Mo0 P3 2.306335 1_555
Mo0 P4 2.328201 1_555
Mo0 P0 2.328209 1_555
Mo0 P1 2.328209 1_555
Mo1 P2 2.306335 1_556
Mo1 P5 2.328201 1_555
Mo1 P6 2.328209 1_555
Mo1 P7 2.328209 1_555
P0 Rb10 3.369653 1_555
P0 Rb2 3.440894 1_555
P0 Rb6 3.440900 1_555
P0 Rb8 3.518466 1_655
P0 Rb9 3.518487 1_555
P0 Rb3 3.541226 1_655
P0 Rb7 3.541235 1_555
P1 Rb11 3.369653 1_555
P1 Rb2 3.440894 1_555
P1 Rb5 3.440900 1_555
P1 Rb8 3.518466 1_545
P1 Rb0 3.518487 1_555
P1 Rb4 3.541226 1_545
P1 Rb7 3.541235 1_555
P2 Rb0 3.374474 1_555
P2 Rb9 3.374474 1_555
P2 Rb8 3.374492 1_555
P2 Rb4 3.660969 1_555
P2 Rb7 3.660969 1_555
P2 Rb3 3.660969 1_555
P2 Rb5 3.868840 1_565
P2 Rb6 3.868840 1_455
P2 Rb2 3.868856 1_555
P3 Rb10 3.374474 1_555
P3 Rb11 3.374474 1_555
P3 Rb1 3.374492 1_555
P3 Rb5 3.660969 1_556
P3 Rb2 3.660969 1_556
P3 Rb6 3.660969 1_556
P3 Rb4 3.868840 1_545
P3 Rb3 3.868840 1_655
P3 Rb7 3.868856 1_555
P4 Rb1 3.369662 1_555
P4 Rb6 3.440894 1_555
P4 Rb5 3.440894 1_555
P4 Rb9 3.518457 1_545
P4 Rb0 3.518457 1_655
P4 Rb3 3.541232 1_655
P4 Rb4 3.541232 1_545
P5 Rb8 3.369662 1_556
P5 Rb3 3.440894 1_555
P5 Rb4 3.440894 1_555
P5 Rb11 3.518457 1_565
P5 Rb10 3.518457 1_455
P5 Rb6 3.541232 1_456
P5 Rb5 3.541232 1_566
P6 Rb0 3.369653 1_556
P6 Rb7 3.440894 1_555
P6 Rb3 3.440900 1_555
P6 Rb1 3.518466 1_455
P6 Rb11 3.518487 1_555
P6 Rb6 3.541226 1_456
P6 Rb2 3.541235 1_556
P7 Rb9 3.369653 1_556
P7 Rb7 3.440894 1_555
P7 Rb4 3.440900 1_555
P7 Rb1 3.518466 1_565
P7 Rb10 3.518487 1_555
P7 Rb5 3.541226 1_566
P7 Rb2 3.541235 1_556
