# generated using pymatgen
data_SrInSnPd4
_symmetry_space_group_name_H-M   'P 1'
_cell_length_a   7.18024793
_cell_length_b   7.18024748
_cell_length_c   7.18024866
_cell_angle_alpha   110.93381200
_cell_angle_beta   110.75305983
_cell_angle_gamma   106.76039099
_symmetry_Int_Tables_number   1
_chemical_formula_structural   SrInSnPd4
_chemical_formula_sum   'Sr2 In2 Sn2 Pd8'
_cell_volume   284.49188368
_cell_formula_units_Z   2
loop_
 _symmetry_equiv_pos_site_id
 _symmetry_equiv_pos_as_xyz
  1  'x, y, z'
loop_
 _atom_site_type_symbol
 _atom_site_label
 _atom_site_symmetry_multiplicity
 _atom_site_fract_x
 _atom_site_fract_y
 _atom_site_fract_z
 _atom_site_occupancy
  Sr  Sr0  1  0.25000000  0.25038735  0.00038735  1
  Sr  Sr1  1  0.75000000  0.75038735  0.00038735  1
  In  In0  1  0.84876916  0.65368127  0.50245042  1
  In  In1  1  0.65123084  0.15368127  0.80491211  1
  Sn  Sn0  1  0.34860396  0.84915871  0.19776168  1
  Sn  Sn1  1  0.15139604  0.34915871  0.50055475  1
  Pd  Pd0  1  0.18887931  0.98130277  0.49709780  1
  Pd  Pd1  1  0.69416004  0.19091515  0.21049831  1
  Pd  Pd2  1  0.98420497  0.48130277  0.79242245  1
  Pd  Pd3  1  0.48041784  0.69091515  0.49675511  1
  Pd  Pd4  1  0.51579503  0.30821849  0.49709780  1
  Pd  Pd5  1  0.31112069  0.80821849  0.79242245  1
  Pd  Pd6  1  0.80583996  0.01633727  0.49675511  1
  Pd  Pd7  1  0.01958216  0.51633727  0.21049831  1
loop_
_geom_bond_atom_site_label_1
_geom_bond_atom_site_label_2
_geom_bond_distance
_geom_bond_site_symmetry_2
In0 Pd6 2.721649 1_565
In0 Pd3 2.721649 1_555
In0 Pd2 2.813082 1_555
In0 Pd5 2.813086 1_655
In0 Pd7 2.813111 1_655
In0 Pd1 2.813115 1_555
In0 Pd4 2.883905 1_555
In0 Pd0 2.883905 1_655
In1 Pd7 2.721651 1_656
In1 Pd1 2.721656 1_556
In1 Pd0 2.813087 1_545
In1 Pd4 2.813088 1_555
In1 Pd3 2.813116 1_545
In1 Pd6 2.813117 1_555
In1 Pd5 2.883901 1_545
In1 Pd2 2.883909 1_555
Pd0 Sn1 2.723486 1_565
Pd0 Sn0 2.784296 1_555
Pd0 Pd7 2.799236 1_555
Pd0 Pd4 2.800383 1_565
Pd0 Pd5 2.829262 1_555
Pd0 Pd6 2.832349 1_465
Pd0 Sr1 3.193060 1_455
Pd0 Sr0 3.222193 1_566
Pd1 Pd6 2.773397 1_555
Pd1 Sn1 2.778315 1_655
Pd1 Pd7 2.787588 1_655
Pd1 Pd4 2.799232 1_555
Pd1 Pd5 2.832354 1_544
Pd1 Sn0 2.890248 1_545
Pd1 Sr1 3.192508 1_545
Pd1 Sr0 3.235013 1_555
Pd2 Sn0 2.723486 1_656
Pd2 Sn1 2.784284 1_655
Pd2 Pd6 2.799236 1_555
Pd2 Pd5 2.800383 1_655
Pd2 Pd4 2.829267 1_555
Pd2 Pd7 2.832364 1_656
Pd2 Sr0 3.193063 1_656
Pd2 Sr1 3.222196 1_556
Pd3 Pd7 2.773401 1_555
Pd3 Sn0 2.778322 1_555
Pd3 Pd6 2.787588 1_565
Pd3 Pd5 2.799232 1_555
Pd3 Pd4 2.832349 1_555
Pd3 Sn1 2.890257 1_555
Pd3 Sr0 3.192507 1_555
Pd3 Sr1 3.235012 1_556
Pd4 Sn1 2.723486 1_555
Pd4 Sn0 2.784291 1_545
Pd4 Sr0 3.193060 1_555
Pd4 Sr1 3.222192 1_556
Pd5 Sn0 2.723487 1_556
Pd5 Sn1 2.784288 1_555
Pd5 Sr1 3.193061 1_556
Pd5 Sr0 3.222194 1_566
Pd6 Sn0 2.778318 1_545
Pd6 Sn1 2.890257 1_655
Pd6 Sr1 3.192507 1_545
Pd6 Sr0 3.235012 1_656
Pd7 Sn1 2.778311 1_555
Pd7 Sn0 2.890265 1_555
Pd7 Sr0 3.192510 1_555
Pd7 Sr1 3.235015 1_455
