# generated using pymatgen
data_BaNa4(SiS3)2
_symmetry_space_group_name_H-M   'P 1'
_cell_length_a   6.90883005
_cell_length_b   6.90882951
_cell_length_c   7.73648802
_cell_angle_alpha   81.17107170
_cell_angle_beta   81.17107312
_cell_angle_gamma   119.72756126
_symmetry_Int_Tables_number   1
_chemical_formula_structural   BaNa4(SiS3)2
_chemical_formula_sum   'Ba1 Na4 Si2 S6'
_cell_volume   305.32530511
_cell_formula_units_Z   1
loop_
 _symmetry_equiv_pos_site_id
 _symmetry_equiv_pos_as_xyz
  1  'x, y, z'
loop_
 _atom_site_type_symbol
 _atom_site_label
 _atom_site_symmetry_multiplicity
 _atom_site_fract_x
 _atom_site_fract_y
 _atom_site_fract_z
 _atom_site_occupancy
  Ba  Ba0  1  0.33317569  0.66682431  0.50000000  1
  Na  Na0  1  0.82899741  0.17100259  0.00000000  1
  Na  Na1  1  0.17177814  0.82822186  1.00000000  1
  Na  Na2  1  0.49749049  0.50250951  1.00000000  1
  Na  Na3  1  0.66635368  0.33364632  0.50000000  1
  Si  Si0  1  0.05250171  0.05181357  0.34040862  1
  Si  Si1  1  0.94818643  0.94749829  0.65959138  1
  S  S0  1  0.06748383  0.36964731  0.24616230  1
  S  S1  1  0.38617193  0.10067402  0.24524478  1
  S  S2  1  0.89932598  0.61382807  0.75475522  1
  S  S3  1  0.63035269  0.93251617  0.75383770  1
  S  S4  1  0.79967187  0.78148985  0.25079032  1
  S  S5  1  0.21851015  0.20032813  0.74920968  1
loop_
_geom_bond_atom_site_label_1
_geom_bond_atom_site_label_2
_geom_bond_distance
_geom_bond_site_symmetry_2
Ba0 S5 3.134272 1_555
Ba0 S4 3.134273 1_555
Ba0 S1 3.143171 1_565
Ba0 S2 3.143172 1_455
Ba0 S0 3.169861 1_555
Ba0 S3 3.169861 1_555
Na0 S3 2.783535 1_544
Na0 S0 2.783535 1_655
Na0 S4 2.963659 1_545
Na0 S5 2.963659 1_654
Na0 S2 3.107538 1_554
Na0 S1 3.107538 1_555
Na1 S5 2.816244 1_565
Na1 S4 2.816244 1_456
Na1 S1 2.920768 1_566
Na1 S2 2.920768 1_455
Na1 S0 3.105836 1_556
Na1 S3 3.105836 1_555
Na2 S1 2.777828 1_556
Na2 S2 2.777829 1_555
Na2 S3 2.883999 1_555
Na2 S0 2.884000 1_556
Na2 S5 3.199800 1_555
Na2 S4 3.199800 1_556
Na3 S4 2.989348 1_555
Na3 S5 2.989348 1_555
Na3 S3 3.015716 1_545
Na3 S0 3.015716 1_655
Na3 S2 3.045847 1_555
Na3 S1 3.045847 1_555
S0 Si0 2.150368 1_555
S1 Si0 2.145044 1_555
S2 Si1 2.145044 1_555
S3 Si1 2.150368 1_555
S4 Si0 2.133953 1_665
S5 Si1 2.133953 1_445
