# generated using pymatgen
data_Nb3S5
_symmetry_space_group_name_H-M   'P 1'
_cell_length_a   7.92714901
_cell_length_b   8.92860672
_cell_length_c   9.26587097
_cell_angle_alpha   93.95653650
_cell_angle_beta   94.76423052
_cell_angle_gamma   113.50977929
_symmetry_Int_Tables_number   1
_chemical_formula_structural   Nb3S5
_chemical_formula_sum   'Nb12 S20'
_cell_volume   595.55236501
_cell_formula_units_Z   4
loop_
 _symmetry_equiv_pos_site_id
 _symmetry_equiv_pos_as_xyz
  1  'x, y, z'
loop_
 _atom_site_type_symbol
 _atom_site_label
 _atom_site_symmetry_multiplicity
 _atom_site_fract_x
 _atom_site_fract_y
 _atom_site_fract_z
 _atom_site_occupancy
  Nb  Nb0  1  0.00686593  0.00510568  0.00005627  1
  Nb  Nb1  1  0.60485741  0.40306542  0.59731251  1
  Nb  Nb2  1  0.50344042  -0.00013099  0.50357220  1
  Nb  Nb3  1  0.20473372  0.80064660  0.19811274  1
  Nb  Nb4  1  0.09805658  0.40169214  0.09943987  1
  Nb  Nb5  1  0.79976212  0.20008294  0.80038899  1
  Nb  Nb6  1  0.70428330  0.79963481  0.69671336  1
  Nb  Nb7  1  0.40955479  0.60483930  0.39889862  1
  Nb  Nb8  1  0.29998980  0.19936680  0.29189468  1
  Nb  Nb9  1  0.89600693  0.59289469  0.89991117  1
  Nb  Nb10  1  0.86355554  0.69585937  0.39701851  1
  Nb  Nb11  1  0.45619895  0.09034353  0.99417964  1
  S  S0  1  0.07345852  0.55081178  0.33033741  1
  S  S1  1  0.39661703  0.65102097  0.13702913  1
  S  S2  1  0.67012473  0.94748072  0.92688492  1
  S  S3  1  0.56909092  0.54850668  0.82326482  1
  S  S4  1  -0.00290879  0.05341307  0.73880586  1
  S  S5  1  0.90973291  0.64927772  0.64561316  1
  S  S6  1  0.27723367  0.35323128  0.52273918  1
  S  S7  1  0.16885395  0.95003533  0.42757145  1
  S  S8  1  0.59636411  0.44346877  0.32849260  1
  S  S9  1  0.50589423  0.05076997  0.24545517  1
  S  S10  1  0.86983715  0.75031100  0.12986107  1
  S  S11  1  0.76379649  0.34554093  0.03104869  1
  S  S12  1  0.18961231  0.83831864  0.93195923  1
  S  S13  1  0.09418478  0.44872695  0.83978469  1
  S  S14  1  0.46705214  0.14934017  0.72868055  1
  S  S15  1  0.37414883  0.74675622  0.62789757  1
  S  S16  1  0.79829636  0.25189667  0.54136459  1
  S  S17  1  0.70292280  0.86687173  0.43714996  1
  S  S18  1  0.97141349  0.14905184  0.22756582  1
  S  S19  1  0.29536787  0.26337028  0.03139457  1
loop_
_geom_bond_atom_site_label_1
_geom_bond_atom_site_label_2
_geom_bond_distance
_geom_bond_site_symmetry_2
Nb0 S18 2.487466 1_455
Nb0 S4 2.488268 1_554
Nb0 S19 2.494379 1_555
Nb0 S2 2.530923 1_444
Nb0 S10 2.534777 1_445
Nb0 S12 2.541196 1_544
Nb1 S16 2.475600 1_555
Nb1 S6 2.481535 1_555
Nb1 S3 2.483389 1_555
Nb1 S5 2.513903 1_555
Nb1 S14 2.536564 1_555
Nb1 S8 2.540576 1_555
Nb2 S17 2.418353 1_545
Nb2 S9 2.465305 1_555
Nb2 S15 2.488439 1_545
Nb2 S16 2.491712 1_555
Nb2 S14 2.497573 1_555
Nb2 S7 2.536464 1_545
Nb3 S1 2.465503 1_555
Nb3 S0 2.509354 1_555
Nb3 S12 2.511355 1_554
Nb3 S9 2.513274 1_565
Nb3 S10 2.525819 1_455
Nb3 S7 2.528285 1_555
Nb4 S19 2.442697 1_555
Nb4 S13 2.470478 1_554
Nb4 S1 2.496226 1_555
Nb4 S18 2.503286 1_455
Nb4 S0 2.504271 1_555
Nb4 S11 2.508263 1_455
Nb5 S13 2.474253 1_655
Nb5 S16 2.475370 1_555
Nb5 S4 2.483325 1_655
Nb5 S2 2.496478 1_545
Nb5 S14 2.513341 1_555
Nb5 S11 2.519816 1_556
Nb6 S15 2.484716 1_555
Nb6 S3 2.491098 1_555
Nb6 S4 2.491114 1_665
Nb6 S17 2.518936 1_555
Nb6 S2 2.521318 1_555
Nb6 S5 2.542359 1_555
Nb7 S6 2.477798 1_555
Nb7 S15 2.489648 1_555
Nb7 S1 2.489712 1_555
Nb7 S0 2.527031 1_555
Nb7 S17 2.532869 1_555
Nb7 S8 2.535254 1_555
Nb8 S8 2.462791 1_555
Nb8 S18 2.472457 1_455
Nb8 S19 2.519229 1_555
Nb8 S6 2.520192 1_555
Nb8 S7 2.524677 1_545
Nb8 S9 2.524929 1_555
Nb9 S5 2.445398 1_555
Nb9 S12 2.456306 1_655
Nb9 S13 2.468818 1_655
Nb9 S11 2.487507 1_556
Nb9 S3 2.492670 1_555
Nb9 S10 2.539900 1_556
Nb10 S17 2.375422 1_555
Nb10 S5 2.393000 1_555
Nb10 S8 2.395571 1_555
Nb10 S7 2.550147 1_655
Nb10 S10 2.556155 1_555
Nb10 S0 2.570447 1_655
Nb11 S12 2.384650 1_545
Nb11 S19 2.387873 1_556
Nb11 S9 2.402743 1_556
Nb11 S14 2.552391 1_555
Nb11 S11 2.564328 1_556
Nb11 S2 2.585217 1_545
