# generated using pymatgen
data_Ce2Se3
_symmetry_space_group_name_H-M   'P 1'
_cell_length_a   14.76136604
_cell_length_b   14.76136604
_cell_length_c   14.76136604
_cell_angle_alpha   144.92248889
_cell_angle_beta   144.92248889
_cell_angle_gamma   50.45004856
_symmetry_Int_Tables_number   1
_chemical_formula_structural   Ce2Se3
_chemical_formula_sum   'Ce16 Se24'
_cell_volume   1056.96525468
_cell_formula_units_Z   8
loop_
 _symmetry_equiv_pos_site_id
 _symmetry_equiv_pos_as_xyz
  1  'x, y, z'
loop_
 _atom_site_type_symbol
 _atom_site_label
 _atom_site_symmetry_multiplicity
 _atom_site_fract_x
 _atom_site_fract_y
 _atom_site_fract_z
 _atom_site_occupancy
  Ce  Ce0  1  0.41650600  0.91650600  0.50000000  1
  Ce  Ce1  1  0.75488500  0.12500000  0.12988500  1
  Ce  Ce2  1  0.54562100  0.65629500  0.62222700  1
  Ce  Ce3  1  0.33349400  0.33349400  0.00000000  1
  Ce  Ce4  1  0.03406800  0.92339400  0.37777300  1
  Ce  Ce5  1  0.99511500  0.62500000  0.87011500  1
  Ce  Ce6  1  0.07660600  0.45437900  0.11067300  1
  Ce  Ce7  1  0.87500000  0.00488500  0.62988500  1
  Ce  Ce8  1  0.66650600  0.66650600  0.00000000  1
  Ce  Ce9  1  0.37500000  0.24511500  0.37011500  1
  Ce  Ce10  1  0.34370500  0.96593200  0.88932700  1
  Ce  Ce11  1  0.08349400  0.58349400  0.50000000  1
  Ce  Ce12  1  0.40629500  0.79562100  0.12222700  1
  Ce  Ce13  1  0.20437900  0.32660600  0.61067300  1
  Ce  Ce14  1  0.71593200  0.59370500  0.38932700  1
  Ce  Ce15  1  0.67339400  0.28406800  0.87777300  1
  Se  Se0  1  0.35905400  0.60682400  0.09996800  1
  Se  Se1  1  0.07615800  0.97110300  0.25375000  1
  Se  Se2  1  0.50685600  0.25908600  0.90003200  1
  Se  Se3  1  0.39094600  0.99091400  0.74777100  1
  Se  Se4  1  0.24314400  0.64317600  0.25222900  1
  Se  Se5  1  0.71735200  0.82240800  0.74625000  1
  Se  Se6  1  0.68679100  0.93782300  0.09260800  1
  Se  Se7  1  0.67384200  0.42759200  0.39494500  1
  Se  Se8  1  0.40581700  0.31320900  0.25103200  1
  Se  Se9  1  0.84521500  0.59418300  0.90739200  1
  Se  Se10  1  0.03264800  0.27889700  0.60505500  1
  Se  Se11  1  0.72110300  0.32615800  0.75375000  1
  Se  Se12  1  0.57240800  0.96735200  0.24625000  1
  Se  Se13  1  0.06217700  0.15478500  0.74896800  1
  Se  Se14  1  0.02889700  0.28264800  0.10505500  1
  Se  Se15  1  0.00908600  0.75685600  0.40003200  1
  Se  Se16  1  0.74091400  0.64094600  0.24777100  1
  Se  Se17  1  0.17759200  0.92384200  0.89494500  1
  Se  Se18  1  0.35682400  0.60905400  0.59996800  1
  Se  Se19  1  0.06320900  0.65581700  0.75103200  1
  Se  Se20  1  0.90478500  0.31217700  0.24896800  1
  Se  Se21  1  0.39317600  0.49314400  0.75222900  1
  Se  Se22  1  0.34418300  0.09521500  0.40739200  1
  Se  Se23  1  0.68782300  0.93679100  0.59260800  1
loop_
_geom_bond_atom_site_label_1
_geom_bond_atom_site_label_2
_geom_bond_distance
_geom_bond_site_symmetry_2
Ce0 Se5 2.975084 1_555
Ce0 Se1 2.975087 1_555
Ce0 Se0 3.007309 1_555
Ce0 Se2 3.007309 1_565
Ce0 Se4 3.143438 1_555
Ce0 Se3 3.143461 1_555
Ce0 Se23 3.145579 1_555
Ce0 Se22 3.145579 1_565
Ce1 Se5 2.990418 1_544
Ce1 Se7 2.990424 1_555
Ce1 Se6 3.015017 1_545
Ce1 Se20 3.015017 1_555
Ce1 Se10 3.143315 1_655
Ce1 Se1 3.143316 1_645
Ce1 Se2 3.203931 1_554
Ce1 Se3 3.203932 1_544
Ce2 Se5 2.960200 1_555
Ce2 Se9 2.966720 1_555
Ce2 Se18 2.993696 1_555
Ce2 Se4 3.042893 1_555
Ce2 Se8 3.051733 1_555
Ce2 Se6 3.153020 1_556
Ce2 Se7 3.154869 1_555
Ce2 Se3 3.259790 1_555
Ce3 Se10 2.975086 1_554
Ce3 Se7 2.975087 1_555
Ce3 Se4 3.007304 1_555
Ce3 Se3 3.007308 1_544
Ce3 Se0 3.143447 1_555
Ce3 Se2 3.143447 1_554
Ce3 Se8 3.145579 1_555
Ce3 Se13 3.145579 1_554
Ce4 Se1 2.960213 1_555
Ce4 Se6 2.966720 1_455
Ce4 Se15 2.993696 1_555
Ce4 Se3 3.042886 1_555
Ce4 Se13 3.051733 1_565
Ce4 Se9 3.153020 1_454
Ce4 Se10 3.154872 1_565
Ce4 Se4 3.259796 1_555
Ce5 Se1 2.990424 1_656
Ce5 Se10 2.990426 1_655
Ce5 Se9 3.015017 1_555
Ce5 Se19 3.015017 1_655
Ce5 Se7 3.143316 1_555
Ce5 Se5 3.143320 1_555
Ce5 Se4 3.203919 1_656
Ce5 Se0 3.203931 1_656
Ce6 Se14 2.960211 1_555
Ce6 Se13 2.966713 1_554
Ce6 Se4 2.993696 1_555
Ce6 Se15 3.042892 1_555
Ce6 Se9 3.051724 1_454
Ce6 Se8 3.153019 1_555
Ce6 Se11 3.154872 1_454
Ce6 Se18 3.259800 1_555
Ce7 Se12 2.990418 1_545
Ce7 Se17 2.990424 1_645
Ce7 Se13 3.015017 1_655
Ce7 Se23 3.015017 1_545
Ce7 Se14 3.143315 1_656
Ce7 Se11 3.143316 1_555
Ce7 Se15 3.203931 1_645
Ce7 Se16 3.203932 1_545
Ce8 Se12 2.975084 1_555
Ce8 Se11 2.975087 1_554
Ce8 Se15 3.007309 1_655
Ce8 Se18 3.007309 1_554
Ce8 Se21 3.143438 1_554
Ce8 Se16 3.143461 1_555
Ce8 Se9 3.145579 1_554
Ce8 Se6 3.145579 1_555
Ce9 Se11 2.990424 1_555
Ce9 Se14 2.990426 1_555
Ce9 Se8 3.015017 1_555
Ce9 Se22 3.015017 1_555
Ce9 Se17 3.143316 1_544
Ce9 Se12 3.143320 1_545
Ce9 Se21 3.203919 1_555
Ce9 Se18 3.203931 1_555
Ce10 Se17 2.960200 1_555
Ce10 Se8 2.966718 1_566
Ce10 Se3 2.993696 1_555
Ce10 Se18 3.042885 1_555
Ce10 Se6 3.051737 1_556
Ce10 Se13 3.153025 1_565
Ce10 Se12 3.154868 1_556
Ce10 Se15 3.259794 1_555
Ce11 Se14 2.975086 1_555
Ce11 Se17 2.975087 1_555
Ce11 Se21 3.007304 1_555
Ce11 Se16 3.007308 1_455
Ce11 Se18 3.143447 1_555
Ce11 Se15 3.143447 1_555
Ce11 Se19 3.145579 1_555
Ce11 Se20 3.145579 1_455
Ce12 Se12 2.960200 1_555
Ce12 Se22 2.966720 1_565
Ce12 Se0 2.993696 1_555
Ce12 Se21 3.042893 1_554
Ce12 Se19 3.051733 1_554
Ce12 Se23 3.153020 1_555
Ce12 Se17 3.154869 1_554
Ce12 Se16 3.259790 1_555
Ce13 Se10 2.960211 1_555
Ce13 Se20 2.966713 1_455
Ce13 Se21 2.993696 1_555
Ce13 Se2 3.042892 1_555
Ce13 Se22 3.051724 1_555
Ce13 Se19 3.153019 1_555
Ce13 Se1 3.154872 1_545
Ce13 Se0 3.259800 1_556
Ce14 Se7 2.960200 1_555
Ce14 Se19 2.966718 1_655
Ce14 Se16 2.993696 1_555
Ce14 Se0 3.042885 1_555
Ce14 Se23 3.051737 1_555
Ce14 Se20 3.153025 1_555
Ce14 Se5 3.154868 1_555
Ce14 Se2 3.259794 1_554
Ce15 Se11 2.960213 1_555
Ce15 Se23 2.966720 1_545
Ce15 Se2 2.993696 1_555
Ce15 Se16 3.042886 1_556
Ce15 Se20 3.051733 1_556
Ce15 Se22 3.153020 1_555
Ce15 Se14 3.154872 1_656
Ce15 Se21 3.259796 1_555
