# generated using pymatgen
data_Lu2Ga4NiRh
_symmetry_space_group_name_H-M   'P 1'
_cell_length_a   5.31900550
_cell_length_b   5.31900662
_cell_length_c   6.65394615
_cell_angle_alpha   90.00000000
_cell_angle_beta   90.00000000
_cell_angle_gamma   134.41046698
_symmetry_Int_Tables_number   1
_chemical_formula_structural   Lu2Ga4NiRh
_chemical_formula_sum   'Lu2 Ga4 Ni1 Rh1'
_cell_volume   134.47704938
_cell_formula_units_Z   1
loop_
 _symmetry_equiv_pos_site_id
 _symmetry_equiv_pos_as_xyz
  1  'x, y, z'
loop_
 _atom_site_type_symbol
 _atom_site_label
 _atom_site_symmetry_multiplicity
 _atom_site_fract_x
 _atom_site_fract_y
 _atom_site_fract_z
 _atom_site_occupancy
  Lu  Lu0  1  0.57648483  0.42351517  0.25000000  1
  Lu  Lu1  1  0.42448059  0.57551941  0.75000000  1
  Ga  Ga0  1  0.86163888  0.13836112  0.04538824  1
  Ga  Ga1  1  0.13779390  0.86220610  0.93983650  1
  Ga  Ga2  1  0.13779390  0.86220610  0.56016350  1
  Ga  Ga3  1  0.86163888  0.13836112  0.45461176  1
  Ni  Ni0  1  0.70809680  0.29190320  0.75000000  1
  Rh  Rh0  1  0.29207320  0.70792680  0.25000000  1
loop_
_geom_bond_atom_site_label_1
_geom_bond_atom_site_label_2
_geom_bond_distance
_geom_bond_site_symmetry_2
Lu0 Rh0 2.789273 1_555
Lu0 Rh0 2.952457 1_655
Lu0 Rh0 2.952457 1_545
Lu1 Ni0 2.781472 1_555
Lu1 Ni0 2.958048 1_455
Lu1 Ni0 2.958049 1_565
Ga0 Ni0 2.476016 1_554
Ga0 Rh0 2.562374 1_545
Ga0 Rh0 2.562374 1_655
Ga0 Ga1 2.797884 1_644
Ga0 Lu1 2.913708 1_654
Ga0 Lu1 2.913708 1_544
Ga0 Lu0 3.110358 1_555
Ga0 Lu0 3.246518 1_655
Ga0 Lu0 3.246519 1_545
Ga1 Ni0 2.513491 1_565
Ga1 Ni0 2.513492 1_455
Ga1 Ga2 2.526324 1_555
Ga1 Rh0 2.559026 1_556
Ga1 Lu0 2.977840 1_456
Ga1 Lu0 2.977840 1_566
Ga1 Lu1 3.082302 1_555
Ga1 Lu1 3.196674 1_455
Ga1 Lu1 3.196675 1_565
Ga2 Ni0 2.513491 1_565
Ga2 Ni0 2.513492 1_455
Ga2 Rh0 2.559026 1_555
Ga2 Ga3 2.797884 1_465
Ga2 Lu0 2.977840 1_455
Ga2 Lu0 2.977840 1_565
Ga2 Lu1 3.082302 1_555
Ga2 Lu1 3.196674 1_455
Ga2 Lu1 3.196675 1_565
Ga3 Ni0 2.476016 1_555
Ga3 Rh0 2.562374 1_545
Ga3 Rh0 2.562374 1_655
Ga3 Lu1 2.913708 1_655
Ga3 Lu1 2.913708 1_545
Ga3 Lu0 3.110358 1_555
Ga3 Lu0 3.246518 1_655
Ga3 Lu0 3.246519 1_545
