# generated using pymatgen
data_TaRhSe4
_symmetry_space_group_name_H-M   'P 1'
_cell_length_a   3.59816331
_cell_length_b   11.89944225
_cell_length_c   12.90530498
_cell_angle_alpha   90.00000000
_cell_angle_beta   90.00000000
_cell_angle_gamma   90.00000000
_symmetry_Int_Tables_number   1
_chemical_formula_structural   TaRhSe4
_chemical_formula_sum   'Ta4 Rh4 Se16'
_cell_volume   552.55529906
_cell_formula_units_Z   4
loop_
 _symmetry_equiv_pos_site_id
 _symmetry_equiv_pos_as_xyz
  1  'x, y, z'
loop_
 _atom_site_type_symbol
 _atom_site_label
 _atom_site_symmetry_multiplicity
 _atom_site_fract_x
 _atom_site_fract_y
 _atom_site_fract_z
 _atom_site_occupancy
  Ta  Ta0  1  0.50000000  0.95137332  0.49793988  1
  Ta  Ta1  1  0.00000000  0.04862668  0.99793988  1
  Ta  Ta2  1  0.50000000  0.73547321  0.99628932  1
  Ta  Ta3  1  0.00000000  0.26452679  0.49628932  1
  Rh  Rh0  1  0.50000000  0.47041323  0.49903885  1
  Rh  Rh1  1  0.00000000  0.52958677  0.99903885  1
  Rh  Rh2  1  0.50000000  0.25415368  0.99447233  1
  Rh  Rh3  1  0.00000000  0.74584632  0.49447233  1
  Se  Se0  1  0.50000000  0.93711330  0.89164521  1
  Se  Se1  1  0.00000000  0.06288670  0.39164521  1
  Se  Se2  1  0.50000000  0.80460790  0.36564448  1
  Se  Se3  1  0.00000000  0.19539210  0.86564448  1
  Se  Se4  1  0.50000000  0.65217752  0.59538271  1
  Se  Se5  1  0.00000000  0.34782248  0.09538271  1
  Se  Se6  1  0.50000000  0.58811323  0.12808451  1
  Se  Se7  1  0.00000000  0.41188677  0.62808451  1
  Se  Se8  1  0.50000000  0.43589187  0.89790848  1
  Se  Se9  1  0.00000000  0.56410813  0.39790848  1
  Se  Se10  1  0.50000000  0.31763821  0.36334841  1
  Se  Se11  1  0.00000000  0.68236179  0.86334841  1
  Se  Se12  1  0.50000000  0.15350328  0.60352125  1
  Se  Se13  1  0.00000000  0.84649672  0.10352125  1
  Se  Se14  1  0.50000000  0.10203665  0.13072358  1
  Se  Se15  1  0.00000000  0.89796335  0.63072358  1
loop_
_geom_bond_atom_site_label_1
_geom_bond_atom_site_label_2
_geom_bond_distance
_geom_bond_site_symmetry_2
Rh0 Se9 2.486578 1_555
Rh0 Se9 2.486578 1_655
Rh0 Se4 2.494799 1_555
Rh0 Se10 2.524152 1_555
Rh0 Se7 2.548565 1_555
Rh0 Se7 2.548565 1_655
Rh0 Ta3 3.039758 1_555
Rh0 Ta3 3.039758 1_655
Rh1 Se8 2.486578 1_455
Rh1 Se8 2.486578 1_555
Rh1 Se5 2.494799 1_556
Rh1 Se11 2.524152 1_555
Rh1 Se6 2.548565 1_456
Rh1 Se6 2.548565 1_556
Rh1 Ta2 3.039758 1_555
Rh1 Ta2 3.039758 1_455
Rh2 Se5 2.484949 1_656
Rh2 Se5 2.484949 1_556
Rh2 Se8 2.495946 1_555
Rh2 Se14 2.523556 1_556
Rh2 Se3 2.547495 1_555
Rh2 Se3 2.547495 1_655
Rh2 Ta1 3.036434 1_555
Rh2 Ta1 3.036434 1_655
Rh3 Se4 2.484949 1_555
Rh3 Se4 2.484949 1_455
Rh3 Se9 2.495946 1_555
Rh3 Se15 2.523556 1_555
Rh3 Se2 2.547495 1_555
Rh3 Se2 2.547495 1_455
Rh3 Ta0 3.036434 1_555
Rh3 Ta0 3.036434 1_455
Se0 Ta1 2.622827 1_565
Se0 Ta1 2.622827 1_665
Se0 Ta2 2.753343 1_555
Se1 Ta0 2.622827 1_445
Se1 Ta0 2.622827 1_545
Se1 Ta3 2.753343 1_555
Se2 Ta0 2.442319 1_555
Se3 Ta1 2.442319 1_555
Se6 Ta2 2.442884 1_554
Se7 Ta3 2.442884 1_555
Se10 Ta3 2.565062 1_655
Se10 Ta3 2.565062 1_555
Se11 Ta2 2.565062 1_555
Se11 Ta2 2.565062 1_455
Se12 Ta3 2.626236 1_555
Se12 Ta3 2.626236 1_655
Se12 Ta0 2.764366 1_545
Se13 Ta2 2.626236 1_554
Se13 Ta2 2.626236 1_454
Se13 Ta1 2.764366 1_564
Se14 Ta1 2.564584 1_654
Se14 Ta1 2.564584 1_554
Se15 Ta0 2.564584 1_455
Se15 Ta0 2.564584 1_555
