# generated using pymatgen
data_Zr4Al18Ir5Ru
_symmetry_space_group_name_H-M   'P 1'
_cell_length_a   7.42613708
_cell_length_b   7.42613656
_cell_length_c   9.20812835
_cell_angle_alpha   90.00385863
_cell_angle_beta   90.00385857
_cell_angle_gamma   119.77275215
_symmetry_Int_Tables_number   1
_chemical_formula_structural   Zr4Al18Ir5Ru
_chemical_formula_sum   'Zr4 Al18 Ir5 Ru1'
_cell_volume   440.77588754
_cell_formula_units_Z   1
loop_
 _symmetry_equiv_pos_site_id
 _symmetry_equiv_pos_as_xyz
  1  'x, y, z'
loop_
 _atom_site_type_symbol
 _atom_site_label
 _atom_site_symmetry_multiplicity
 _atom_site_fract_x
 _atom_site_fract_y
 _atom_site_fract_z
 _atom_site_occupancy
  Zr  Zr0  1  0.99403691  0.67243284  0.24975923  1
  Zr  Zr1  1  0.00674978  0.32826745  0.75028888  1
  Zr  Zr2  1  0.67173255  0.99325022  0.24971112  1
  Zr  Zr3  1  0.32756716  0.00596309  0.75024077  1
  Al  Al0  1  0.12550783  0.12618284  0.24978728  1
  Al  Al1  1  0.87381716  0.87449217  0.75021272  1
  Al  Al2  1  0.99683669  0.33476467  0.07522803  1
  Al  Al3  1  0.99919835  0.66278241  0.92501672  1
  Al  Al4  1  0.00084434  0.66575178  0.57597484  1
  Al  Al5  1  0.33424822  0.99915566  0.42402516  1
  Al  Al6  1  0.99854154  0.33514908  0.42415000  1
  Al  Al7  1  0.66485092  0.00145846  0.57585000  1
  Al  Al8  1  0.66523533  0.00316331  0.92477197  1
  Al  Al9  1  0.33721759  0.00080165  0.07498328  1
  Al  Al10  1  0.33233583  0.33284976  0.55669675  1
  Al  Al11  1  0.66715024  0.66766417  0.44330325  1
  Al  Al12  1  0.66794773  0.66519685  0.05442447  1
  Al  Al13  1  0.33480315  0.33205227  0.94557553  1
  Al  Al14  1  0.33871673  0.55210144  0.24975019  1
  Al  Al15  1  0.66088234  0.44525739  0.75191967  1
  Al  Al16  1  0.55474261  0.33911766  0.24808033  1
  Al  Al17  1  0.44789856  0.66128327  0.75024981  1
  Ir  Ir0  1  0.32727587  0.67272413  0.00000000  1
  Ir  Ir1  1  0.32695357  0.67304643  0.50000000  1
  Ir  Ir2  1  0.67231195  0.32768805  0.50000000  1
  Ir  Ir3  1  0.00014683  0.99985317  0.00000000  1
  Ir  Ir4  1  0.99951110  0.00048890  0.50000000  1
  Ru  Ru0  1  0.67293915  0.32706085  0.00000000  1
loop_
_geom_bond_atom_site_label_1
_geom_bond_atom_site_label_2
_geom_bond_distance
_geom_bond_site_symmetry_2
Al0 Ir3 2.483783 1_545
Al0 Ir4 2.487637 1_455
Al0 Al5 2.705360 1_545
Al0 Al6 2.707007 1_455
Al0 Al2 2.714028 1_455
Al0 Al9 2.717261 1_555
Al0 Al14 2.745458 1_555
Al0 Al16 2.766851 1_555
Al0 Zr2 3.004388 1_445
Al0 Zr0 3.006705 1_445
Al1 Ir3 2.483783 1_656
Al1 Ir4 2.487637 1_565
Al1 Al4 2.705360 1_655
Al1 Al7 2.707007 1_565
Al1 Al8 2.714028 1_565
Al1 Al3 2.717261 1_555
Al1 Al17 2.745458 1_555
Al1 Al15 2.766851 1_555
Al1 Zr1 3.004388 1_665
Al1 Zr3 3.006705 1_665
Al2 Ru0 2.476234 1_555
Al2 Ir0 2.585418 1_655
Al2 Ir3 2.593568 1_645
Al2 Al3 2.793763 1_554
Al2 Al8 2.832695 1_554
Al2 Zr2 2.960119 1_545
Al2 Zr0 2.987033 1_555
Al2 Zr1 2.993967 1_654
Al3 Ir0 2.497820 1_656
Al3 Ru0 2.562050 1_556
Al3 Ir3 2.593205 1_656
Al3 Al9 2.872335 1_666
Al3 Zr3 2.976663 1_665
Al3 Zr1 2.983387 1_655
Al3 Zr0 2.991829 1_556
Al4 Ir1 2.495413 1_555
Al4 Ir2 2.580899 1_455
Al4 Ir4 2.587163 1_465
Al4 Al6 2.817822 1_455
Al4 Al5 2.851468 1_555
Al4 Zr3 2.959050 1_565
Al4 Zr1 2.994835 1_555
Al4 Zr0 3.005085 1_455
Al5 Ir1 2.495413 1_555
Al5 Ir2 2.580899 1_565
Al5 Ir4 2.587163 1_465
Al5 Al7 2.817822 1_565
Al5 Zr0 2.959050 1_455
Al5 Zr2 2.994835 1_555
Al5 Zr3 3.005085 1_565
Al6 Ir2 2.495381 1_555
Al6 Ir1 2.579553 1_655
Al6 Ir4 2.585004 1_555
Al6 Al7 2.852203 1_555
Al6 Zr2 2.965782 1_545
Al6 Zr0 2.989498 1_555
Al6 Zr1 3.004696 1_655
Al7 Ir2 2.495381 1_555
Al7 Ir1 2.579553 1_545
Al7 Ir4 2.585005 1_555
Al7 Zr1 2.965782 1_655
Al7 Zr3 2.989498 1_555
Al7 Zr2 3.004696 1_545
Al8 Ru0 2.476234 1_556
Al8 Ir0 2.585418 1_546
Al8 Ir3 2.593568 1_646
Al8 Al9 2.793764 1_556
Al8 Zr1 2.960119 1_655
Al8 Zr3 2.987033 1_555
Al8 Zr2 2.993967 1_546
Al9 Ir0 2.497820 1_545
Al9 Ru0 2.562050 1_555
Al9 Ir3 2.593205 1_545
Al9 Zr0 2.976663 1_445
Al9 Zr2 2.983387 1_545
Al9 Zr3 2.991829 1_554
Al10 Ir4 2.532682 1_455
Al10 Ir2 2.597012 1_555
Al10 Ir1 2.599431 1_555
Al10 Al11 2.704722 1_555
Al10 Al5 2.769109 1_545
Al10 Al6 2.770563 1_455
Al10 Al17 2.789645 1_555
Al10 Al15 2.803150 1_555
Al10 Zr1 2.990611 1_555
Al10 Zr3 2.997568 1_555
Al11 Ir4 2.532682 1_565
Al11 Ir2 2.597011 1_555
Al11 Ir1 2.599431 1_555
Al11 Al4 2.769109 1_655
Al11 Al7 2.770563 1_565
Al11 Al14 2.789645 1_555
Al11 Al16 2.803150 1_555
Al11 Zr2 2.990611 1_555
Al11 Zr0 2.997568 1_555
Al12 Ir3 2.534733 1_655
Al12 Ru0 2.578786 1_555
Al12 Ir0 2.606688 1_555
Al12 Al13 2.677048 1_554
Al12 Al3 2.741460 1_554
Al12 Al16 2.780171 1_555
Al12 Al8 2.788427 1_564
Al12 Al14 2.807028 1_555
Al12 Zr0 2.995384 1_555
Al12 Zr2 3.016740 1_555
Al13 Ir3 2.534733 1_546
Al13 Ru0 2.578786 1_556
Al13 Ir0 2.606688 1_556
Al13 Al9 2.741460 1_556
Al13 Al15 2.780171 1_555
Al13 Al2 2.788428 1_456
Al13 Al17 2.807028 1_555
Al13 Zr3 2.995384 1_555
Al13 Zr1 3.016741 1_555
Al14 Ir0 2.484795 1_555
Al14 Ir1 2.490367 1_555
Al14 Al6 2.741373 1_455
Al14 Al2 2.750060 1_455
Al14 Al16 2.755959 1_555
Al14 Zr2 2.966857 1_555
Al14 Zr0 3.101907 1_455
Al15 Ru0 2.464756 1_556
Al15 Ir2 2.494771 1_555
Al15 Al3 2.725912 1_555
Al15 Al4 2.752285 1_655
Al15 Al17 2.755959 1_555
Al15 Zr3 2.958047 1_555
Al15 Zr1 3.093232 1_655
Al16 Ru0 2.464756 1_555
Al16 Ir2 2.494771 1_555
Al16 Al9 2.725912 1_555
Al16 Al5 2.752285 1_545
Al16 Zr0 2.958047 1_555
Al16 Zr2 3.093232 1_545
Al17 Ir0 2.484795 1_556
Al17 Ir1 2.490367 1_555
Al17 Al7 2.741373 1_565
Al17 Al8 2.750060 1_565
Al17 Zr1 2.966857 1_555
Al17 Zr3 3.101907 1_565
