# generated using pymatgen
data_CsYCr2O8
_symmetry_space_group_name_H-M   'P 1'
_cell_length_a   5.73789479
_cell_length_b   5.73789609
_cell_length_c   8.22457584
_cell_angle_alpha   90.00000000
_cell_angle_beta   90.00000000
_cell_angle_gamma   120.00000273
_symmetry_Int_Tables_number   1
_chemical_formula_structural   CsYCr2O8
_chemical_formula_sum   'Cs1 Y1 Cr2 O8'
_cell_volume   234.50353275
_cell_formula_units_Z   1
loop_
 _symmetry_equiv_pos_site_id
 _symmetry_equiv_pos_as_xyz
  1  'x, y, z'
loop_
 _atom_site_type_symbol
 _atom_site_label
 _atom_site_symmetry_multiplicity
 _atom_site_fract_x
 _atom_site_fract_y
 _atom_site_fract_z
 _atom_site_occupancy
  Cs  Cs0  1  0.00000000  0.00000000  0.00000000  1
  Y  Y0  1  0.00000000  0.00000000  0.50000000  1
  Cr  Cr0  1  0.33333400  0.66666800  0.26691564  1
  Cr  Cr1  1  0.66666700  0.33333400  0.73308436  1
  O  O0  1  0.33333400  0.66666800  0.07146455  1
  O  O1  1  0.20333647  0.35279096  0.33244406  1
  O  O2  1  0.14945349  0.79666353  0.33244406  1
  O  O3  1  0.64721004  0.85054651  0.33244406  1
  O  O4  1  0.35279096  0.14945549  0.66755594  1
  O  O5  1  0.85054651  0.20333547  0.66755594  1
  O  O6  1  0.79666353  0.64720804  0.66755594  1
  O  O7  1  0.66666700  0.33333400  0.92853545  1
loop_
_geom_bond_atom_site_label_1
_geom_bond_atom_site_label_2
_geom_bond_distance
_geom_bond_site_symmetry_2
Cs0 O5 3.251622 1_454
Cs0 O3 3.251625 1_445
Cs0 O2 3.251625 1_545
Cs0 O4 3.251627 1_554
Cs0 O1 3.251628 1_555
Cs0 O6 3.251630 1_444
Cs0 O0 3.364510 1_445
Cs0 O0 3.364510 1_545
Cs0 O7 3.364510 1_444
Cs0 O7 3.364514 1_554
Cs0 O7 3.364515 1_454
Cs0 O0 3.364520 1_555
Cr0 O0 1.607502 1_555
Cr0 O3 1.657415 1_555
Cr0 O2 1.657416 1_555
Cr0 O1 1.657420 1_555
Cr1 O7 1.607502 1_555
Cr1 O6 1.657406 1_555
Cr1 O4 1.657415 1_555
Cr1 O5 1.657424 1_555
O1 Y0 2.235233 1_555
O2 Y0 2.235229 1_565
O3 Y0 2.235229 1_665
O4 Y0 2.235232 1_555
O5 Y0 2.235225 1_655
O6 Y0 2.235237 1_665
