# generated using pymatgen
data_Y8Cd2NiIr
_symmetry_space_group_name_H-M   'P 1'
_cell_length_a   9.60629978
_cell_length_b   9.60629967
_cell_length_c   9.66199038
_cell_angle_alpha   59.80804386
_cell_angle_beta   59.80804424
_cell_angle_gamma   59.70389758
_symmetry_Int_Tables_number   1
_chemical_formula_structural   Y8Cd2NiIr
_chemical_formula_sum   'Y16 Cd4 Ni2 Ir2'
_cell_volume   627.22309877
_cell_formula_units_Z   2
loop_
 _symmetry_equiv_pos_site_id
 _symmetry_equiv_pos_as_xyz
  1  'x, y, z'
loop_
 _atom_site_type_symbol
 _atom_site_label
 _atom_site_symmetry_multiplicity
 _atom_site_fract_x
 _atom_site_fract_y
 _atom_site_fract_z
 _atom_site_occupancy
  Y  Y0  1  0.60026390  0.60026390  0.59631741  1
  Y  Y1  1  0.60026390  0.60026390  0.20315479  1
  Y  Y2  1  0.60249387  0.20430044  0.59660285  1
  Y  Y3  1  0.20430044  0.60249387  0.59660285  1
  Y  Y4  1  0.05859136  0.43822472  0.44116444  1
  Y  Y5  1  0.43822472  0.05859136  0.06201948  1
  Y  Y6  1  0.43822472  0.05859136  0.44116444  1
  Y  Y7  1  0.05859136  0.43822472  0.06201948  1
  Y  Y8  1  0.43893776  0.43893776  0.06106224  1
  Y  Y9  1  0.05965909  0.05965909  0.44034091  1
  Y  Y10  1  0.18800312  0.81025016  0.81441468  1
  Y  Y11  1  0.81025016  0.18800312  0.18733204  1
  Y  Y12  1  0.81025016  0.18800312  0.81441468  1
  Y  Y13  1  0.18800312  0.81025016  0.18733204  1
  Y  Y14  1  0.81412559  0.81412559  0.18587441  1
  Y  Y15  1  0.18985559  0.18985559  0.81014441  1
  Cd  Cd0  1  0.82949494  0.82949494  0.83132491  1
  Cd  Cd1  1  0.82949494  0.82949494  0.50968322  1
  Cd  Cd2  1  0.82921250  0.50954151  0.83062249  1
  Cd  Cd3  1  0.50954151  0.82921250  0.83062249  1
  Ni  Ni0  1  0.39213519  0.82527664  0.39129409  1
  Ni  Ni1  1  0.82527664  0.39213519  0.39129409  1
  Ir  Ir0  1  0.39240222  0.39240222  0.39105980  1
  Ir  Ir1  1  0.39240222  0.39240222  0.82413677  1
loop_
_geom_bond_atom_site_label_1
_geom_bond_atom_site_label_2
_geom_bond_distance
_geom_bond_site_symmetry_2
Y0 Y12 3.466282 1_555
Y0 Y10 3.466282 1_555
Y0 Y14 3.469513 1_555
Y1 Y11 3.466282 1_555
Y1 Y13 3.466282 1_555
Y1 Y14 3.469513 1_555
Y10 Y3 3.466167 1_555
Y10 Y8 3.572968 1_556
Y10 Y14 3.580010 1_456
Y10 Y6 3.590021 1_565
Y10 Y7 3.596198 1_556
Y10 Y13 3.603124 1_556
Y10 Y12 3.612555 1_465
Y10 Y9 3.621528 1_565
Y10 Y15 3.634989 1_565
Y11 Y2 3.466168 1_555
Y11 Y8 3.572968 1_555
Y11 Y14 3.580010 1_545
Y11 Y7 3.590021 1_655
Y11 Y6 3.596198 1_555
Y11 Y12 3.603124 1_554
Y11 Y13 3.612555 1_645
Y11 Y9 3.621528 1_655
Y11 Y15 3.634989 1_654
Y12 Y2 3.466167 1_555
Y12 Y8 3.572968 1_556
Y12 Y14 3.580010 1_546
Y12 Y4 3.590021 1_655
Y12 Y5 3.596198 1_556
Y12 Y9 3.621528 1_655
Y12 Y15 3.634989 1_655
Y13 Y3 3.466168 1_555
Y13 Y8 3.572968 1_555
Y13 Y14 3.580010 1_455
Y13 Y5 3.590021 1_565
Y13 Y4 3.596198 1_555
Y13 Y9 3.621528 1_565
Y13 Y15 3.634989 1_564
Y14 Y7 3.598650 1_655
Y14 Y5 3.598650 1_565
Y14 Y4 3.598651 1_655
Y14 Y6 3.598651 1_565
Y15 Y3 3.468427 1_555
Y15 Y2 3.468427 1_555
Y15 Y7 3.594883 1_556
Y15 Y5 3.594883 1_556
Y15 Y4 3.594884 1_555
Y15 Y6 3.594884 1_555
Cd0 Cd2 3.078358 1_555
Cd0 Cd3 3.078358 1_555
Cd0 Cd1 3.107699 1_555
Cd0 Y12 3.277747 1_565
Cd0 Y10 3.277747 1_655
Cd0 Y14 3.283791 1_556
Cd0 Y1 3.403441 1_556
Cd0 Y2 3.420783 1_565
Cd0 Y3 3.420783 1_655
Cd0 Y7 3.478608 1_656
Cd0 Y5 3.478608 1_566
Cd0 Y9 3.489776 1_665
Cd1 Cd2 3.078363 1_555
Cd1 Cd3 3.078363 1_555
Cd1 Y11 3.277738 1_565
Cd1 Y13 3.277739 1_655
Cd1 Y14 3.283772 1_555
Cd1 Y0 3.403433 1_555
Cd1 Y2 3.420791 1_565
Cd1 Y3 3.420791 1_655
Cd1 Y4 3.478600 1_655
Cd1 Y6 3.478600 1_565
Cd1 Y9 3.489785 1_665
Cd2 Cd3 3.057101 1_555
Cd2 Y15 3.264945 1_655
Cd2 Y12 3.268215 1_555
Cd2 Y11 3.268221 1_556
Cd2 Y0 3.436754 1_555
Cd2 Y1 3.436763 1_556
Cd2 Y3 3.451668 1_655
Cd2 Y8 3.481945 1_556
Cd2 Y4 3.494937 1_655
Cd2 Y7 3.494945 1_656
Cd3 Y15 3.264945 1_565
Cd3 Y10 3.268215 1_555
Cd3 Y13 3.268221 1_556
Cd3 Y0 3.436754 1_555
Cd3 Y1 3.436763 1_556
Cd3 Y2 3.451668 1_565
Cd3 Y8 3.481945 1_556
Cd3 Y6 3.494937 1_565
Cd3 Y5 3.494945 1_566
Ni0 Y6 2.784526 1_565
Ni0 Y5 2.784526 1_565
Ni0 Y9 2.791103 1_565
Ni0 Y3 2.792322 1_555
Ni0 Y1 2.812524 1_555
Ni0 Y0 2.812524 1_555
Ni0 Y14 3.473772 1_555
Ni0 Y13 3.494034 1_555
Ni0 Y10 3.494034 1_555
Ni1 Y4 2.784526 1_655
Ni1 Y7 2.784526 1_655
Ni1 Y9 2.791103 1_655
Ni1 Y2 2.792322 1_555
Ni1 Y1 2.812524 1_555
Ni1 Y0 2.812524 1_555
Ni1 Y14 3.473772 1_555
Ni1 Y11 3.494034 1_555
Ni1 Y12 3.494034 1_555
Ir0 Y8 2.810731 1_555
Ir0 Y6 2.817758 1_555
Ir0 Y4 2.817758 1_555
Ir0 Y1 2.828556 1_555
Ir0 Y3 2.832810 1_555
Ir0 Y2 2.832810 1_555
Ir0 Y13 3.439556 1_555
Ir0 Y11 3.439556 1_555
Ir0 Y15 3.455249 1_555
Ir1 Y8 2.810721 1_556
Ir1 Y5 2.817755 1_556
Ir1 Y7 2.817755 1_556
Ir1 Y0 2.828556 1_555
Ir1 Y3 2.832817 1_555
Ir1 Y2 2.832817 1_555
Ir1 Y10 3.439553 1_555
Ir1 Y12 3.439553 1_555
Ir1 Y15 3.455255 1_555
