# generated using pymatgen
data_MgGeO3
_symmetry_space_group_name_H-M   'P 1'
_cell_length_a   5.47043304
_cell_length_b   5.47043304
_cell_length_c   5.47043359
_cell_angle_alpha   54.54174208
_cell_angle_beta   54.54174208
_cell_angle_gamma   54.54174264
_symmetry_Int_Tables_number   1
_chemical_formula_structural   MgGeO3
_chemical_formula_sum   'Mg2 Ge2 O6'
_cell_volume   101.02990577
_cell_formula_units_Z   2
loop_
 _symmetry_equiv_pos_site_id
 _symmetry_equiv_pos_as_xyz
  1  'x, y, z'
loop_
 _atom_site_type_symbol
 _atom_site_label
 _atom_site_symmetry_multiplicity
 _atom_site_fract_x
 _atom_site_fract_y
 _atom_site_fract_z
 _atom_site_occupancy
  Mg  Mg0  1  0.64103600  0.64103600  0.64103600  1
  Mg  Mg1  1  0.35896400  0.35896400  0.35896400  1
  Ge  Ge0  1  0.84667200  0.84667200  0.84667200  1
  Ge  Ge1  1  0.15332800  0.15332800  0.15332800  1
  O  O0  1  0.55948300  0.95399600  0.21934500  1
  O  O1  1  0.95399600  0.21934500  0.55948300  1
  O  O2  1  0.21934500  0.55948300  0.95399600  1
  O  O3  1  0.44051700  0.04600400  0.78065500  1
  O  O4  1  0.78065500  0.44051700  0.04600400  1
  O  O5  1  0.04600400  0.78065500  0.44051700  1
loop_
_geom_bond_atom_site_label_1
_geom_bond_atom_site_label_2
_geom_bond_distance
_geom_bond_site_symmetry_2
Mg0 O2 2.043844 1_555
Mg0 O1 2.043844 1_555
Mg0 O0 2.043844 1_555
Mg0 O5 2.205912 1_655
Mg0 O3 2.205912 1_565
Mg0 O4 2.205912 1_556
Mg1 O4 2.043844 1_555
Mg1 O5 2.043844 1_555
Mg1 O3 2.043844 1_555
Mg1 O1 2.205912 1_455
Mg1 O0 2.205912 1_545
Mg1 O2 2.205912 1_554
Ge0 O1 1.889875 1_565
Ge0 O2 1.889875 1_655
Ge0 O0 1.889875 1_556
Ge0 O4 1.979691 1_556
Ge0 O3 1.979691 1_565
Ge0 O5 1.979691 1_655
Ge1 O5 1.889875 1_545
Ge1 O4 1.889875 1_455
Ge1 O3 1.889875 1_554
Ge1 O2 1.979691 1_554
Ge1 O0 1.979691 1_545
Ge1 O1 1.979691 1_455
