# generated using pymatgen
data_Cs8LuBi3Br20
_symmetry_space_group_name_H-M   'P 1'
_cell_length_a   7.91253608
_cell_length_b   10.08497315
_cell_length_c   16.16182622
_cell_angle_alpha   89.81939882
_cell_angle_beta   90.00000000
_cell_angle_gamma   90.00000000
_symmetry_Int_Tables_number   1
_chemical_formula_structural   Cs8LuBi3Br20
_chemical_formula_sum   'Cs8 Lu1 Bi3 Br20'
_cell_volume   1289.67037851
_cell_formula_units_Z   1
loop_
 _symmetry_equiv_pos_site_id
 _symmetry_equiv_pos_as_xyz
  1  'x, y, z'
loop_
 _atom_site_type_symbol
 _atom_site_label
 _atom_site_symmetry_multiplicity
 _atom_site_fract_x
 _atom_site_fract_y
 _atom_site_fract_z
 _atom_site_occupancy
  Cs  Cs0  1  0.25000000  0.68358358  0.91357691  1
  Cs  Cs1  1  0.75000000  0.31832539  0.07815409  1
  Cs  Cs2  1  0.75000000  0.81229751  0.41709183  1
  Cs  Cs3  1  0.25000000  0.18503072  0.58912601  1
  Cs  Cs4  1  0.25000000  0.96957239  0.20046256  1
  Cs  Cs5  1  0.75000000  0.04182654  0.80256232  1
  Cs  Cs6  1  0.75000000  0.53041772  0.70257429  1
  Cs  Cs7  1  0.25000000  0.45984541  0.29930338  1
  Lu  Lu0  1  0.25000000  0.19145965  0.93662108  1
  Bi  Bi0  1  0.25000000  0.69284318  0.56463435  1
  Bi  Bi1  1  0.75000000  0.30421827  0.43512431  1
  Bi  Bi2  1  0.75000000  0.81124748  0.06406800  1
  Br  Br0  1  0.25000000  0.53478680  0.70772451  1
  Br  Br1  1  0.75000000  0.45674406  0.28890583  1
  Br  Br2  1  0.75000000  0.96356694  0.20896661  1
  Br  Br3  1  0.25000000  0.03825243  0.79993284  1
  Br  Br4  1  0.50853510  0.85417748  0.61768681  1
  Br  Br5  1  0.48883074  0.14185877  0.38510205  1
  Br  Br6  1  0.49317571  0.64859815  0.11483678  1
  Br  Br7  1  0.01116926  0.14185877  0.38510205  1
  Br  Br8  1  0.50016268  0.34760926  0.88419396  1
  Br  Br9  1  0.99146490  0.85417748  0.61768681  1
  Br  Br10  1  0.99983732  0.34760926  0.88419396  1
  Br  Br11  1  0.00682429  0.64859815  0.11483678  1
  Br  Br12  1  0.25000000  0.79399753  0.39472664  1
  Br  Br13  1  0.75000000  0.20081909  0.60325729  1
  Br  Br14  1  0.75000000  0.70830290  0.89657556  1
  Br  Br15  1  0.25000000  0.29846007  0.09304484  1
  Br  Br16  1  0.99918253  0.49865820  0.49960200  1
  Br  Br17  1  0.00834787  0.01129930  0.00036378  1
  Br  Br18  1  0.50081747  0.49865820  0.49960200  1
  Br  Br19  1  0.49165213  0.01129930  0.00036378  1
loop_
_geom_bond_atom_site_label_1
_geom_bond_atom_site_label_2
_geom_bond_distance
_geom_bond_site_symmetry_2
Bi0 Br4 2.752459 1_555
Bi0 Br9 2.752459 1_455
Bi0 Br0 2.804584 1_555
Bi0 Br12 2.926370 1_555
Bi0 Br18 2.981853 1_555
Bi0 Br16 2.981853 1_455
Bi1 Br7 2.759249 1_655
Bi1 Br5 2.759249 1_555
Bi1 Br1 2.815620 1_555
Bi1 Br13 2.907480 1_555
Bi1 Br16 2.971782 1_555
Bi1 Br18 2.971782 1_555
Bi2 Br11 2.735864 1_655
Bi2 Br6 2.735864 1_555
Bi2 Br2 2.804737 1_555
Bi2 Br14 2.902296 1_554
Bi2 Br17 3.048936 1_665
Bi2 Br19 3.048936 1_565
Br0 Cs0 3.654026 1_555
Br0 Cs6 3.957392 1_555
Br0 Cs6 3.957392 1_455
Br0 Cs3 4.019743 1_555
Br1 Cs1 3.685158 1_555
Br1 Cs7 3.959963 1_555
Br1 Cs7 3.959963 1_655
Br1 Cs2 4.146859 1_555
Br2 Cs2 3.689081 1_555
Br2 Cs4 3.959111 1_655
Br2 Cs4 3.959111 1_555
Br2 Cs1 4.149961 1_565
Br3 Lu0 2.699831 1_555
Br3 Cs3 3.710414 1_555
Br3 Cs5 3.956662 1_555
Br3 Cs5 3.956662 1_455
Br3 Cs0 4.015684 1_545
Br4 Cs2 3.787856 1_555
Br4 Cs3 3.939711 1_565
Br4 Cs6 4.020609 1_555
Br4 Cs5 4.024308 1_565
Br5 Cs3 3.826570 1_555
Br5 Cs4 3.940521 1_545
Br5 Cs2 3.946310 1_545
Br5 Cs7 3.968640 1_555
Br6 Cs0 3.794705 1_554
Br6 Cs1 3.948122 1_555
Br6 Cs4 4.015459 1_555
Br6 Cs7 4.022231 1_555
Br7 Cs3 3.826570 1_555
Br7 Cs4 3.940521 1_545
Br7 Cs2 3.946310 1_445
Br7 Cs7 3.968640 1_555
Br8 Lu0 2.665995 1_555
Br8 Cs1 3.716983 1_556
Br8 Cs5 3.896672 1_555
Br8 Cs0 3.954022 1_555
Br8 Cs6 3.986070 1_555
Br9 Cs2 3.787856 1_555
Br9 Cs3 3.939711 1_665
Br9 Cs6 4.020609 1_555
Br9 Cs5 4.024308 1_565
Br10 Lu0 2.665995 1_655
Br10 Cs1 3.716983 1_556
Br10 Cs5 3.896672 1_555
Br10 Cs0 3.954022 1_655
Br10 Cs6 3.986070 1_555
Br11 Cs0 3.794705 1_554
Br11 Cs1 3.948122 1_455
Br11 Cs4 4.015459 1_555
Br11 Cs7 4.022231 1_555
Br12 Cs4 3.599680 1_555
Br12 Cs7 3.710460 1_555
Br12 Cs2 3.977083 1_555
Br12 Cs2 3.977083 1_455
Br13 Cs5 3.593626 1_555
Br13 Cs6 3.695816 1_555
Br13 Cs3 3.966081 1_555
Br13 Cs3 3.966081 1_655
Br14 Cs6 3.617265 1_555
Br14 Cs5 3.686473 1_565
Br14 Cs0 3.973572 1_555
Br14 Cs0 3.973572 1_655
Br15 Lu0 2.751891 1_554
Br15 Cs7 3.714229 1_555
Br15 Cs4 3.738843 1_545
Br15 Cs1 3.968603 1_555
Br15 Cs1 3.968603 1_455
Br16 Cs7 3.818279 1_655
Br16 Cs6 3.841578 1_555
Br16 Cs2 3.955248 1_555
Br16 Cs3 4.000916 1_655
Br17 Lu0 2.829617 1_554
Br17 Cs4 3.779295 1_545
Br17 Cs5 3.806181 1_454
Br17 Cs1 3.920620 1_455
Br17 Cs0 4.071328 1_544
Br18 Cs7 3.818279 1_555
Br18 Cs6 3.841578 1_555
Br18 Cs2 3.955248 1_555
Br18 Cs3 4.000916 1_555
Br19 Lu0 2.829617 1_554
Br19 Cs4 3.779295 1_545
Br19 Cs5 3.806181 1_554
Br19 Cs1 3.920620 1_555
Br19 Cs0 4.071328 1_544
