# generated using pymatgen
data_Ti8Co3Tc4Ru
_symmetry_space_group_name_H-M   'P 1'
_cell_length_a   6.08430013
_cell_length_b   4.29435296
_cell_length_c   8.59471236
_cell_angle_alpha   89.99994775
_cell_angle_beta   90.00000328
_cell_angle_gamma   89.99968470
_symmetry_Int_Tables_number   1
_chemical_formula_structural   Ti8Co3Tc4Ru
_chemical_formula_sum   'Ti8 Co3 Tc4 Ru1'
_cell_volume   224.56378137
_cell_formula_units_Z   1
loop_
 _symmetry_equiv_pos_site_id
 _symmetry_equiv_pos_as_xyz
  1  'x, y, z'
loop_
 _atom_site_type_symbol
 _atom_site_label
 _atom_site_symmetry_multiplicity
 _atom_site_fract_x
 _atom_site_fract_y
 _atom_site_fract_z
 _atom_site_occupancy
  Ti  Ti0  1  0.49862543  0.75000000  0.12498573  1
  Ti  Ti1  1  0.00136839  0.74999900  0.12498591  1
  Ti  Ti2  1  0.49944229  0.24999900  0.37625768  1
  Ti  Ti3  1  0.00055437  0.24999900  0.37625778  1
  Ti  Ti4  1  0.99964312  0.74999900  0.62501206  1
  Ti  Ti5  1  0.50036171  0.75000000  0.62501264  1
  Ti  Ti6  1  0.00055816  0.25000000  0.87373958  1
  Ti  Ti7  1  0.49944693  0.25000000  0.87373995  1
  Co  Co0  1  0.24999642  0.74999900  0.37617317  1
  Co  Co1  1  0.75000475  0.25000000  0.62502012  1
  Co  Co2  1  0.25000087  0.75000000  0.87382820  1
  Tc  Tc0  1  0.24999597  0.24999900  0.12499659  1
  Tc  Tc1  1  0.75000018  0.74999900  0.37912675  1
  Tc  Tc2  1  0.24999774  0.25000000  0.62499407  1
  Tc  Tc3  1  0.75000338  0.74999900  0.87087680  1
  Ru  Ru0  1  0.75000130  0.24999900  0.12499294  1
loop_
_geom_bond_atom_site_label_1
_geom_bond_atom_site_label_2
_geom_bond_distance
_geom_bond_site_symmetry_2
Co0 Ti4 2.625690 1_455
Co0 Ti5 2.625736 1_555
Co0 Ti3 2.629389 1_565
Co0 Ti2 2.629402 1_555
Co0 Ti3 2.629402 1_555
Co0 Ti2 2.629416 1_565
Co0 Ti1 2.636118 1_555
Co0 Ti0 2.636123 1_555
Co1 Ti6 2.625560 1_655
Co1 Ti7 2.625578 1_555
Co1 Ti3 2.625847 1_655
Co1 Ti2 2.625893 1_555
Co1 Ti4 2.630082 1_545
Co1 Ti4 2.630088 1_555
Co1 Ti5 2.630095 1_555
Co1 Ti5 2.630108 1_545
Co2 Ti4 2.625546 1_455
Co2 Ti5 2.625553 1_555
Co2 Ti6 2.629391 1_565
Co2 Ti7 2.629403 1_555
Co2 Ti6 2.629405 1_555
Co2 Ti7 2.629416 1_565
Co2 Ti0 2.635896 1_556
Co2 Ti1 2.635925 1_556
Tc0 Ti1 2.626531 1_555
Tc0 Ti0 2.626535 1_545
Tc0 Ti1 2.626545 1_545
Tc0 Ti0 2.626555 1_555
Tc0 Ti6 2.639439 1_554
Tc0 Ti3 2.639481 1_555
Tc0 Ti7 2.639482 1_554
Tc0 Ti2 2.639497 1_555
Tc1 Ti5 2.602518 1_555
Tc1 Ti4 2.602529 1_555
Tc1 Ti3 2.633415 1_655
Tc1 Ti2 2.633429 1_565
Tc1 Ti3 2.633429 1_665
Tc1 Ti2 2.633442 1_555
Tc1 Ti1 2.666475 1_655
Tc1 Ti0 2.666499 1_555
Tc2 Ti3 2.621763 1_555
Tc2 Ti2 2.621768 1_555
Tc2 Ti6 2.621814 1_555
Tc2 Ti7 2.621850 1_555
Tc2 Ti4 2.632594 1_455
Tc2 Ti4 2.632614 1_445
Tc2 Ti5 2.632630 1_545
Tc2 Ti5 2.632644 1_555
Tc3 Ti4 2.602374 1_555
Tc3 Ti5 2.602377 1_555
Tc3 Ti6 2.633414 1_655
Tc3 Ti7 2.633427 1_565
Tc3 Ti7 2.633433 1_555
Tc3 Ti6 2.633434 1_665
Tc3 Ti1 2.666240 1_656
Tc3 Ti0 2.666284 1_556
Ru0 Ti1 2.636166 1_645
Ru0 Ti1 2.636180 1_655
Ru0 Ti0 2.636201 1_555
Ru0 Ti0 2.636208 1_545
Ru0 Ti7 2.643322 1_554
Ru0 Ti6 2.643334 1_654
Ru0 Ti3 2.643401 1_655
Ru0 Ti2 2.643421 1_555
