# generated using pymatgen
data_CsAlVF6
_symmetry_space_group_name_H-M   'P 1'
_cell_length_a   7.09747039
_cell_length_b   7.35670367
_cell_length_c   10.15328399
_cell_angle_alpha   90.00000000
_cell_angle_beta   90.00000000
_cell_angle_gamma   90.00000000
_symmetry_Int_Tables_number   1
_chemical_formula_structural   CsAlVF6
_chemical_formula_sum   'Cs4 Al4 V4 F24'
_cell_volume   530.14343251
_cell_formula_units_Z   4
loop_
 _symmetry_equiv_pos_site_id
 _symmetry_equiv_pos_as_xyz
  1  'x, y, z'
loop_
 _atom_site_type_symbol
 _atom_site_label
 _atom_site_symmetry_multiplicity
 _atom_site_fract_x
 _atom_site_fract_y
 _atom_site_fract_z
 _atom_site_occupancy
  Cs  Cs0  1  0.25000000  0.50635335  0.13366293  1
  Cs  Cs1  1  0.75000000  0.49364665  0.86633707  1
  Cs  Cs2  1  0.75000000  0.99364665  0.63366293  1
  Cs  Cs3  1  0.25000000  0.00635335  0.36633707  1
  Al  Al0  1  0.00000000  0.50000000  0.50000000  1
  Al  Al1  1  0.00000000  0.00000000  0.00000000  1
  Al  Al2  1  0.50000000  0.50000000  0.50000000  1
  Al  Al3  1  0.50000000  0.00000000  0.00000000  1
  V  V0  1  0.25000000  0.74201209  0.75373698  1
  V  V1  1  0.75000000  0.25798791  0.24626302  1
  V  V2  1  0.75000000  0.75798791  0.25373698  1
  V  V3  1  0.25000000  0.24201209  0.74626302  1
  F  F0  1  0.03781141  0.81855306  0.88496250  1
  F  F1  1  0.96218859  0.18144694  0.11503750  1
  F  F2  1  0.96218859  0.68144694  0.38496250  1
  F  F3  1  0.53781141  0.18144694  0.11503750  1
  F  F4  1  0.03781141  0.31855306  0.61503750  1
  F  F5  1  0.46218859  0.81855306  0.88496250  1
  F  F6  1  0.46218859  0.31855306  0.61503750  1
  F  F7  1  0.53781141  0.68144694  0.38496250  1
  F  F8  1  0.25000000  0.00885395  0.03913110  1
  F  F9  1  0.75000000  0.99114605  0.96086890  1
  F  F10  1  0.75000000  0.49114605  0.53913110  1
  F  F11  1  0.25000000  0.50885395  0.46086890  1
  F  F12  1  0.47002890  0.66327658  0.62938917  1
  F  F13  1  0.52997110  0.33672342  0.37061083  1
  F  F14  1  0.52997110  0.83672342  0.12938917  1
  F  F15  1  0.97002890  0.33672342  0.37061083  1
  F  F16  1  0.47002890  0.16327658  0.87061083  1
  F  F17  1  0.02997110  0.66327658  0.62938917  1
  F  F18  1  0.02997110  0.16327658  0.87061083  1
  F  F19  1  0.97002890  0.83672342  0.12938917  1
  F  F20  1  0.25000000  0.98979013  0.65929282  1
  F  F21  1  0.75000000  0.01020987  0.34070718  1
  F  F22  1  0.75000000  0.51020987  0.15929282  1
  F  F23  1  0.25000000  0.48979013  0.84070718  1
loop_
_geom_bond_atom_site_label_1
_geom_bond_atom_site_label_2
_geom_bond_distance
_geom_bond_site_symmetry_2
Cs0 F23 2.976958 1_554
Cs0 F14 3.139651 1_555
Cs0 F19 3.139651 1_455
Cs0 F3 3.149884 1_555
Cs0 F1 3.149884 1_455
Cs1 F22 2.976958 1_556
Cs1 F18 3.139651 1_655
Cs1 F16 3.139651 1_555
Cs1 F0 3.149884 1_655
Cs1 F5 3.149884 1_555
Cs2 F21 2.976958 1_565
Cs2 F17 3.139651 1_655
Cs2 F12 3.139651 1_555
Cs2 F4 3.149884 1_665
Cs2 F6 3.149884 1_565
Cs3 F20 2.976958 1_545
Cs3 F13 3.139651 1_555
Cs3 F15 3.139651 1_455
Cs3 F7 3.149884 1_545
Cs3 F2 3.149884 1_445
Al0 F17 1.792749 1_555
Al0 F15 1.792749 1_455
Al0 F4 1.793904 1_555
Al0 F2 1.793904 1_455
Al0 F11 1.819472 1_555
Al0 F10 1.819472 1_455
Al1 F19 1.792749 1_445
Al1 F18 1.792749 1_554
Al1 F1 1.793904 1_455
Al1 F0 1.793904 1_544
Al1 F8 1.819472 1_555
Al1 F9 1.819472 1_444
Al2 F12 1.792749 1_555
Al2 F13 1.792749 1_555
Al2 F6 1.793904 1_555
Al2 F7 1.793904 1_555
Al2 F11 1.819472 1_555
Al2 F10 1.819472 1_555
Al3 F14 1.792749 1_545
Al3 F16 1.792749 1_554
Al3 F3 1.793904 1_555
Al3 F5 1.793904 1_544
Al3 F8 1.819472 1_555
Al3 F9 1.819472 1_544
F0 V0 2.088138 1_555
F1 V1 2.088138 1_555
F2 V2 2.088138 1_555
F3 V1 2.088138 1_555
F4 V3 2.088138 1_555
F5 V0 2.088138 1_555
F6 V3 2.088138 1_555
F7 V2 2.088138 1_555
F12 V0 2.090039 1_555
F13 V1 2.090039 1_555
F14 V2 2.090039 1_555
F15 V1 2.090039 1_555
F16 V3 2.090039 1_555
F17 V0 2.090039 1_555
F18 V3 2.090039 1_555
F19 V2 2.090039 1_555
F20 V3 2.054923 1_565
F20 V0 2.059668 1_555
F21 V2 2.054923 1_545
F21 V1 2.059668 1_555
F22 V1 2.054923 1_555
F22 V2 2.059668 1_555
F23 V0 2.054923 1_555
F23 V3 2.059668 1_555
