# generated using pymatgen
data_Ti9O10
_symmetry_space_group_name_H-M   'P 1'
_cell_length_a   4.50437600
_cell_length_b   5.52573670
_cell_length_c   8.95099445
_cell_angle_alpha   99.30605709
_cell_angle_beta   90.54644688
_cell_angle_gamma   111.38027781
_symmetry_Int_Tables_number   1
_chemical_formula_structural   Ti9O10
_chemical_formula_sum   'Ti9 O10'
_cell_volume   204.15824383
_cell_formula_units_Z   1
loop_
 _symmetry_equiv_pos_site_id
 _symmetry_equiv_pos_as_xyz
  1  'x, y, z'
loop_
 _atom_site_type_symbol
 _atom_site_label
 _atom_site_symmetry_multiplicity
 _atom_site_fract_x
 _atom_site_fract_y
 _atom_site_fract_z
 _atom_site_occupancy
  Ti  Ti0  1  0.80351400  0.96694500  0.39570600  1
  Ti  Ti1  1  0.37031700  0.29331400  0.22872700  1
  Ti  Ti2  1  0.62968300  0.70668600  0.77127300  1
  Ti  Ti3  1  0.19648600  0.03305500  0.60429400  1
  Ti  Ti4  1  0.00000000  0.50000000  0.50000000  1
  Ti  Ti5  1  0.26913300  0.01439900  0.91114100  1
  Ti  Ti6  1  0.91792300  0.33275000  0.84237400  1
  Ti  Ti7  1  0.08207700  0.66725000  0.15762600  1
  Ti  Ti8  1  0.73086700  0.98560100  0.08885900  1
  O  O0  1  0.77905900  0.27105000  0.28697500  1
  O  O1  1  0.20007500  0.80617100  0.39148600  1
  O  O2  1  0.25548300  0.27490300  0.44017600  1
  O  O3  1  0.79992500  0.19382900  0.60851400  1
  O  O4  1  0.40124200  0.32068400  0.79354000  1
  O  O5  1  0.74451700  0.72509700  0.55982400  1
  O  O6  1  0.22094100  0.72895000  0.71302500  1
  O  O7  1  0.88541600  0.70210100  0.95564300  1
  O  O8  1  0.11458400  0.29789900  0.04435700  1
  O  O9  1  0.59875800  0.67931600  0.20646000  1
loop_
_geom_bond_atom_site_label_1
_geom_bond_atom_site_label_2
_geom_bond_distance
_geom_bond_site_symmetry_2
O0 Ti1 1.960689 1_555
O0 Ti0 2.108307 1_545
O0 Ti4 2.119532 1_655
O0 Ti8 2.125593 1_545
O0 Ti7 2.582190 1_655
O1 Ti4 2.013547 1_555
O1 Ti7 2.101236 1_555
O1 Ti3 2.107954 1_565
O1 Ti0 2.264699 1_455
O1 Ti0 2.530886 1_555
O2 Ti1 1.975529 1_555
O2 Ti4 1.999538 1_555
O2 Ti3 2.097143 1_555
O2 Ti0 2.106751 1_445
O3 Ti4 2.013547 1_655
O3 Ti6 2.101236 1_555
O3 Ti0 2.107954 1_545
O3 Ti3 2.264699 1_655
O3 Ti3 2.530886 1_555
O4 Ti5 2.044598 1_555
O4 Ti2 2.046744 1_555
O4 Ti3 2.068049 1_555
O4 Ti6 2.247136 1_455
O4 Ti6 2.338801 1_555
O5 Ti2 1.975529 1_555
O5 Ti4 1.999538 1_655
O5 Ti0 2.097143 1_555
O5 Ti3 2.106751 1_665
O6 Ti2 1.960689 1_555
O6 Ti3 2.108307 1_565
O6 Ti4 2.119532 1_555
O6 Ti5 2.125593 1_565
O6 Ti6 2.582190 1_455
O7 Ti2 2.012354 1_555
O7 Ti5 2.045670 1_665
O7 Ti7 2.072898 1_656
O7 Ti8 2.137142 1_556
O7 Ti6 2.183183 1_555
O8 Ti1 2.012354 1_555
O8 Ti8 2.045670 1_445
O8 Ti6 2.072898 1_454
O8 Ti5 2.137142 1_554
O8 Ti7 2.183183 1_555
O9 Ti8 2.044598 1_555
O9 Ti1 2.046744 1_555
O9 Ti0 2.068049 1_555
O9 Ti7 2.247136 1_655
O9 Ti7 2.338801 1_555
