# generated using pymatgen
data_Cs6Rb2SnAs4
_symmetry_space_group_name_H-M   'P 1'
_cell_length_a   11.74092006
_cell_length_b   11.74091978
_cell_length_c   11.74092070
_cell_angle_alpha   60.00000287
_cell_angle_beta   60.00000367
_cell_angle_gamma   60.00000322
_symmetry_Int_Tables_number   1
_chemical_formula_structural   Cs6Rb2SnAs4
_chemical_formula_sum   'Cs12 Rb4 Sn2 As8'
_cell_volume   1144.43581614
_cell_formula_units_Z   2
loop_
 _symmetry_equiv_pos_site_id
 _symmetry_equiv_pos_as_xyz
  1  'x, y, z'
loop_
 _atom_site_type_symbol
 _atom_site_label
 _atom_site_symmetry_multiplicity
 _atom_site_fract_x
 _atom_site_fract_y
 _atom_site_fract_z
 _atom_site_occupancy
  Cs  Cs0  1  0.02374327  0.02374327  0.47625673  1
  Cs  Cs1  1  0.77374327  0.22625673  0.22625673  1
  Cs  Cs2  1  0.22625673  0.77374327  0.77374327  1
  Cs  Cs3  1  0.77374327  0.77374327  0.22625673  1
  Cs  Cs4  1  0.77374327  0.22625673  0.77374327  1
  Cs  Cs5  1  0.22625673  0.77374327  0.22625673  1
  Cs  Cs6  1  0.47625673  0.02374327  0.47625673  1
  Cs  Cs7  1  0.47625673  0.02374327  0.02374327  1
  Cs  Cs8  1  0.02374327  0.47625673  0.47625673  1
  Cs  Cs9  1  0.02374327  0.47625673  0.02374327  1
  Cs  Cs10  1  0.22625673  0.22625673  0.77374327  1
  Cs  Cs11  1  0.47625673  0.47625673  0.02374327  1
  Rb  Rb0  1  0.62500000  0.12500000  0.62500000  1
  Rb  Rb1  1  0.62500000  0.62500000  0.12500000  1
  Rb  Rb2  1  0.12500000  0.62500000  0.62500000  1
  Rb  Rb3  1  0.62500000  0.62500000  0.62500000  1
  Sn  Sn0  1  0.75000000  0.75000000  0.75000000  1
  Sn  Sn1  1  0.50000000  0.50000000  0.50000000  1
  As  As0  1  0.40519711  0.78440868  0.40519711  1
  As  As1  1  0.84480289  0.84480289  0.46559132  1
  As  As2  1  0.46559132  0.84480289  0.84480289  1
  As  As3  1  0.84480289  0.84480289  0.84480289  1
  As  As4  1  0.78440868  0.40519711  0.40519711  1
  As  As5  1  0.40519711  0.40519711  0.40519711  1
  As  As6  1  0.40519711  0.40519711  0.78440868  1
  As  As7  1  0.84480289  0.46559132  0.84480289  1
loop_
_geom_bond_atom_site_label_1
_geom_bond_atom_site_label_2
_geom_bond_distance
_geom_bond_site_symmetry_2
Cs0 Rb2 3.836050 1_545
Cs0 Rb0 3.836050 1_455
Cs1 Rb1 3.836050 1_555
Cs1 Rb0 3.836051 1_555
Cs2 Rb2 3.836050 1_555
Cs2 Rb3 3.836050 1_555
Cs3 Rb1 3.836050 1_555
Cs3 Rb3 3.836051 1_555
Cs4 Rb0 3.836050 1_555
Cs4 Rb3 3.836050 1_555
Cs5 Rb1 3.836050 1_555
Cs5 Rb2 3.836051 1_555
Cs6 Rb0 3.836050 1_555
Cs6 Rb3 3.836050 1_545
Cs7 Rb1 3.836050 1_545
Cs7 Rb0 3.836051 1_554
Cs8 Rb2 3.836050 1_555
Cs8 Rb3 3.836050 1_455
Cs9 Rb1 3.836050 1_455
Cs9 Rb2 3.836051 1_554
Cs10 Rb2 3.836050 1_555
Cs10 Rb0 3.836050 1_555
Cs11 Rb1 3.836050 1_555
Cs11 Rb3 3.836051 1_554
Rb0 Sn0 3.594908 1_545
Rb0 Sn1 3.594908 1_555
Rb1 Sn1 3.594908 1_555
Rb1 Sn0 3.594908 1_554
Rb2 Sn1 3.594908 1_555
Rb2 Sn0 3.594908 1_455
Rb3 Sn1 3.594908 1_555
Rb3 Sn0 3.594908 1_555
As0 Sn1 2.726461 1_555
As0 Cs5 3.712613 1_555
As0 Cs3 3.712613 1_555
As0 Cs2 3.712613 1_555
As0 Rb2 3.717890 1_555
As0 Rb3 3.717890 1_555
As0 Rb1 3.717890 1_555
As0 Cs6 3.830555 1_565
As0 Cs0 3.830555 1_565
As0 Cs7 3.830555 1_565
As1 Sn0 2.726462 1_555
As1 Cs0 3.712613 1_665
As1 Cs8 3.712613 1_655
As1 Cs6 3.712613 1_565
As1 Rb3 3.717890 1_555
As1 Rb0 3.717890 1_565
As1 Rb2 3.717890 1_655
As1 Cs3 3.830555 1_555
As1 Cs1 3.830555 1_565
As1 Cs5 3.830555 1_655
As2 Sn0 2.726462 1_555
As2 Cs7 3.712613 1_566
As2 Cs11 3.712613 1_556
As2 Cs6 3.712613 1_565
As2 Rb0 3.717890 1_565
As2 Rb3 3.717890 1_555
As2 Rb1 3.717890 1_556
As2 Cs2 3.830555 1_555
As2 Cs10 3.830555 1_565
As2 Cs5 3.830556 1_556
As3 Sn0 2.726461 1_555
As3 Cs9 3.712613 1_656
As3 Cs7 3.712613 1_566
As3 Cs0 3.712613 1_665
As3 Rb1 3.717890 1_556
As3 Rb0 3.717890 1_565
As3 Rb2 3.717890 1_655
As3 Cs4 3.830555 1_565
As3 Cs2 3.830555 1_655
As3 Cs3 3.830555 1_556
As4 Sn1 2.726462 1_555
As4 Cs1 3.712613 1_555
As4 Cs3 3.712613 1_555
As4 Cs4 3.712613 1_555
As4 Rb0 3.717890 1_555
As4 Rb3 3.717890 1_555
As4 Rb1 3.717890 1_555
As4 Cs8 3.830555 1_655
As4 Cs0 3.830555 1_655
As4 Cs9 3.830556 1_655
As5 Sn1 2.726461 1_555
As5 Cs5 3.712613 1_555
As5 Cs1 3.712613 1_555
As5 Cs10 3.712613 1_555
As5 Rb1 3.717890 1_555
As5 Rb0 3.717890 1_555
As5 Rb2 3.717890 1_555
As5 Cs6 3.830555 1_555
As5 Cs8 3.830555 1_555
As5 Cs11 3.830555 1_555
As6 Sn1 2.726462 1_555
As6 Cs10 3.712613 1_555
As6 Cs2 3.712613 1_555
As6 Cs4 3.712613 1_555
As6 Rb3 3.717890 1_555
As6 Rb0 3.717890 1_555
As6 Rb2 3.717890 1_555
As6 Cs11 3.830555 1_556
As6 Cs7 3.830555 1_556
As6 Cs9 3.830555 1_556
As7 Sn0 2.726461 1_555
As7 Cs9 3.712613 1_656
As7 Cs11 3.712613 1_556
As7 Cs8 3.712613 1_655
As7 Rb2 3.717890 1_655
As7 Rb3 3.717890 1_555
As7 Rb1 3.717890 1_556
As7 Cs4 3.830555 1_555
As7 Cs10 3.830555 1_655
As7 Cs1 3.830555 1_556
