# generated using pymatgen
data_Sb5TeOsRh
_symmetry_space_group_name_H-M   'P 1'
_cell_length_a   8.09020535
_cell_length_b   8.08034900
_cell_length_c   8.09639984
_cell_angle_alpha   109.23875687
_cell_angle_beta   109.92716852
_cell_angle_gamma   109.21638160
_symmetry_Int_Tables_number   1
_chemical_formula_structural   Sb5TeOsRh
_chemical_formula_sum   'Sb10 Te2 Os2 Rh2'
_cell_volume   407.57865259
_cell_formula_units_Z   2
loop_
 _symmetry_equiv_pos_site_id
 _symmetry_equiv_pos_as_xyz
  1  'x, y, z'
loop_
 _atom_site_type_symbol
 _atom_site_label
 _atom_site_symmetry_multiplicity
 _atom_site_fract_x
 _atom_site_fract_y
 _atom_site_fract_z
 _atom_site_occupancy
  Sb  Sb0  1  0.84110312  0.51365008  0.67402857  1
  Sb  Sb1  1  0.15889688  0.48634992  0.32597143  1
  Sb  Sb2  1  0.81321372  0.65819810  0.15324707  1
  Sb  Sb3  1  0.18678628  0.34180190  0.84675293  1
  Sb  Sb4  1  0.50583087  0.66035218  0.84709655  1
  Sb  Sb5  1  0.49416913  0.33964782  0.15290345  1
  Sb  Sb6  1  0.66385055  0.15339323  0.81698417  1
  Sb  Sb7  1  0.33614945  0.84660677  0.18301583  1
  Sb  Sb8  1  0.65737525  0.84632776  0.50433544  1
  Sb  Sb9  1  0.34262475  0.15367224  0.49566456  1
  Te  Te0  1  0.15475571  0.81464675  0.66253343  1
  Te  Te1  1  0.84524429  0.18535325  0.33746657  1
  Os  Os0  1  0.50000000  0.00000000  0.00000000  1
  Os  Os1  1  0.00000000  0.50000000  0.00000000  1
  Rh  Rh0  1  0.00000000  0.00000000  0.50000000  1
  Rh  Rh1  1  0.50000000  0.50000000  0.50000000  1
loop_
_geom_bond_atom_site_label_1
_geom_bond_atom_site_label_2
_geom_bond_distance
_geom_bond_site_symmetry_2
Sb0 Te0 2.934376 1_655
Sb0 Te1 3.133773 1_555
Sb1 Te1 2.934376 1_455
Sb1 Te0 3.133773 1_555
Sb2 Sb4 2.860710 1_554
Sb2 Sb5 2.984068 1_555
Sb3 Sb5 2.860710 1_556
Sb3 Sb4 2.984068 1_555
Sb6 Sb8 2.872575 1_545
Sb6 Sb9 2.986780 1_555
Sb7 Sb9 2.872575 1_565
Sb7 Sb8 2.986780 1_555
Os0 Te1 2.618645 1_555
Os0 Te0 2.618645 1_544
Os0 Sb5 2.636838 1_555
Os0 Sb4 2.636838 1_544
Os0 Sb6 2.637574 1_554
Os0 Sb7 2.637574 1_545
Os1 Sb1 2.569548 1_555
Os1 Sb0 2.569548 1_454
Os1 Sb7 2.634358 1_555
Os1 Sb6 2.634358 1_454
Os1 Sb2 2.638457 1_455
Os1 Sb3 2.638457 1_554
Rh0 Te1 2.636762 1_455
Rh0 Te0 2.636762 1_545
Rh0 Sb3 2.654092 1_555
Rh0 Sb2 2.654092 1_445
Rh0 Sb8 2.656290 1_445
Rh0 Sb9 2.656290 1_555
Rh1 Sb0 2.580618 1_555
Rh1 Sb1 2.580618 1_555
Rh1 Sb9 2.648201 1_555
Rh1 Sb8 2.648201 1_555
Rh1 Sb4 2.654858 1_555
Rh1 Sb5 2.654858 1_555
