# generated using pymatgen
data_Ba2GaAsS5
_symmetry_space_group_name_H-M   'P 1'
_cell_length_a   8.81333977
_cell_length_b   9.05257162
_cell_length_c   12.30621902
_cell_angle_alpha   90.00000000
_cell_angle_beta   90.00000000
_cell_angle_gamma   90.00000000
_symmetry_Int_Tables_number   1
_chemical_formula_structural   Ba2GaAsS5
_chemical_formula_sum   'Ba8 Ga4 As4 S20'
_cell_volume   981.83186496
_cell_formula_units_Z   4
loop_
 _symmetry_equiv_pos_site_id
 _symmetry_equiv_pos_as_xyz
  1  'x, y, z'
loop_
 _atom_site_type_symbol
 _atom_site_label
 _atom_site_symmetry_multiplicity
 _atom_site_fract_x
 _atom_site_fract_y
 _atom_site_fract_z
 _atom_site_occupancy
  Ba  Ba0  1  0.99496467  0.13305258  0.67414406  1
  Ba  Ba1  1  0.50503533  0.36694742  0.17414406  1
  Ba  Ba2  1  0.49496467  0.86694742  0.32585594  1
  Ba  Ba3  1  0.00503533  0.63305258  0.82585594  1
  Ba  Ba4  1  0.00503533  0.86694742  0.32585594  1
  Ba  Ba5  1  0.49496467  0.63305258  0.82585594  1
  Ba  Ba6  1  0.50503533  0.13305258  0.67414406  1
  Ba  Ba7  1  0.99496467  0.36694742  0.17414406  1
  Ga  Ga0  1  0.25000000  0.83158385  0.59644902  1
  Ga  Ga1  1  0.25000000  0.66841615  0.09644902  1
  Ga  Ga2  1  0.75000000  0.16841615  0.40355098  1
  Ga  Ga3  1  0.75000000  0.33158385  0.90355098  1
  As  As0  1  0.25000000  0.49493734  0.53727939  1
  As  As1  1  0.25000000  0.00506266  0.03727939  1
  As  As2  1  0.75000000  0.50506266  0.46272061  1
  As  As3  1  0.75000000  0.99493734  0.96272061  1
  S  S0  1  0.05611557  0.66759979  0.55659112  1
  S  S1  1  0.44388443  0.83240021  0.05659112  1
  S  S2  1  0.55611557  0.33240021  0.44340888  1
  S  S3  1  0.94388443  0.16759979  0.94340888  1
  S  S4  1  0.94388443  0.33240021  0.44340888  1
  S  S5  1  0.55611557  0.16759979  0.94340888  1
  S  S6  1  0.44388443  0.66759979  0.55659112  1
  S  S7  1  0.05611557  0.83240021  0.05659112  1
  S  S8  1  0.75000000  0.97024753  0.50989694  1
  S  S9  1  0.75000000  0.52975247  0.00989694  1
  S  S10  1  0.25000000  0.02975247  0.49010306  1
  S  S11  1  0.25000000  0.47024753  0.99010306  1
  S  S12  1  0.25000000  0.89368620  0.77220309  1
  S  S13  1  0.25000000  0.60631380  0.27220309  1
  S  S14  1  0.75000000  0.10631380  0.22779691  1
  S  S15  1  0.75000000  0.39368620  0.72779691  1
  S  S16  1  0.25000000  0.39986194  0.70632338  1
  S  S17  1  0.25000000  0.10013806  0.20632338  1
  S  S18  1  0.75000000  0.60013806  0.29367662  1
  S  S19  1  0.75000000  0.89986194  0.79367662  1
loop_
_geom_bond_atom_site_label_1
_geom_bond_atom_site_label_2
_geom_bond_distance
_geom_bond_site_symmetry_2
Ba0 S15 3.265552 1_555
Ba0 S8 3.304344 1_545
Ba0 S16 3.323065 1_655
Ba0 S10 3.325090 1_655
Ba0 S12 3.347208 1_645
Ba0 S3 3.358665 1_555
Ba0 S19 3.358740 1_545
Ba0 S4 3.394395 1_555
Ba1 S14 3.265552 1_555
Ba1 S9 3.304344 1_555
Ba1 S17 3.323065 1_555
Ba1 S11 3.325090 1_554
Ba1 S13 3.347208 1_555
Ba1 S2 3.358665 1_555
Ba1 S18 3.358740 1_555
Ba1 S5 3.394395 1_554
Ba2 S13 3.265552 1_555
Ba2 S10 3.304344 1_565
Ba2 S18 3.323065 1_555
Ba2 S8 3.325090 1_555
Ba2 S14 3.347208 1_565
Ba2 S1 3.358665 1_555
Ba2 S17 3.358740 1_565
Ba2 S6 3.394395 1_555
Ba3 S12 3.265552 1_555
Ba3 S11 3.304344 1_555
Ba3 S19 3.323065 1_455
Ba3 S9 3.325090 1_456
Ba3 S15 3.347208 1_455
Ba3 S0 3.358665 1_555
Ba3 S16 3.358740 1_555
Ba3 S7 3.394395 1_556
Ba4 S13 3.265552 1_555
Ba4 S10 3.304344 1_565
Ba4 S18 3.323065 1_455
Ba4 S8 3.325090 1_455
Ba4 S14 3.347208 1_465
Ba4 S7 3.358665 1_555
Ba4 S17 3.358740 1_565
Ba4 S0 3.394395 1_555
Ba5 S12 3.265552 1_555
Ba5 S11 3.304344 1_555
Ba5 S19 3.323065 1_555
Ba5 S9 3.325090 1_556
Ba5 S15 3.347208 1_555
Ba5 S6 3.358665 1_555
Ba5 S16 3.358740 1_555
Ba5 S1 3.394395 1_556
Ba6 S15 3.265552 1_555
Ba6 S8 3.304344 1_545
Ba6 S16 3.323065 1_555
Ba6 S10 3.325090 1_555
Ba6 S12 3.347208 1_545
Ba6 S5 3.358665 1_555
Ba6 S19 3.358740 1_545
Ba6 S2 3.394395 1_555
Ba7 S14 3.265552 1_555
Ba7 S9 3.304344 1_555
Ba7 S17 3.323065 1_655
Ba7 S11 3.325090 1_654
Ba7 S13 3.347208 1_655
Ba7 S4 3.358665 1_555
Ba7 S18 3.358740 1_555
Ba7 S3 3.394395 1_554
Ga0 S10 2.220573 1_565
Ga0 S12 2.234737 1_555
Ga0 S6 2.316065 1_555
Ga0 S0 2.316065 1_555
Ga1 S11 2.220573 1_554
Ga1 S13 2.234737 1_555
Ga1 S1 2.316065 1_555
Ga1 S7 2.316065 1_555
Ga2 S8 2.220573 1_545
Ga2 S14 2.234737 1_555
Ga2 S4 2.316065 1_555
Ga2 S2 2.316065 1_555
Ga3 S9 2.220573 1_556
Ga3 S15 2.234737 1_555
Ga3 S3 2.316065 1_555
Ga3 S5 2.316065 1_555
As0 S16 2.251307 1_555
As0 S6 2.327974 1_555
As0 S0 2.327974 1_555
As1 S17 2.251307 1_555
As1 S1 2.327974 1_545
As1 S7 2.327974 1_545
As2 S18 2.251307 1_555
As2 S4 2.327974 1_555
As2 S2 2.327974 1_555
As3 S19 2.251307 1_555
As3 S3 2.327974 1_565
As3 S5 2.327974 1_565
