# generated using pymatgen
data_GdTiCdSbO7
_symmetry_space_group_name_H-M   'P 1'
_cell_length_a   7.32377600
_cell_length_b   7.32377600
_cell_length_c   10.39218000
_cell_angle_alpha   90.00000000
_cell_angle_beta   90.00000000
_cell_angle_gamma   90.00000000
_symmetry_Int_Tables_number   1
_chemical_formula_structural   GdTiCdSbO7
_chemical_formula_sum   'Gd4 Ti4 Cd4 Sb4 O28'
_cell_volume   557.41258017
_cell_formula_units_Z   4
loop_
 _symmetry_equiv_pos_site_id
 _symmetry_equiv_pos_as_xyz
  1  'x, y, z'
loop_
 _atom_site_type_symbol
 _atom_site_label
 _atom_site_symmetry_multiplicity
 _atom_site_fract_x
 _atom_site_fract_y
 _atom_site_fract_z
 _atom_site_occupancy
  Gd  Gd0  1  0.00000000  0.73561300  0.00000000  1
  Gd  Gd1  1  0.00000000  0.26438700  0.50000000  1
  Gd  Gd2  1  0.26438700  0.00000000  0.25000000  1
  Gd  Gd3  1  0.73561300  0.00000000  0.75000000  1
  Ti  Ti0  1  0.76243700  0.00000000  0.25000000  1
  Ti  Ti1  1  0.00000000  0.76243700  0.50000000  1
  Ti  Ti2  1  0.23756300  0.00000000  0.75000000  1
  Ti  Ti3  1  0.00000000  0.23756300  0.00000000  1
  Cd  Cd0  1  0.50000000  0.74207900  0.00000000  1
  Cd  Cd1  1  0.25792100  0.50000000  0.25000000  1
  Cd  Cd2  1  0.50000000  0.25792100  0.50000000  1
  Cd  Cd3  1  0.74207900  0.50000000  0.75000000  1
  Sb  Sb0  1  0.24440000  0.50000000  0.75000000  1
  Sb  Sb1  1  0.50000000  0.75560000  0.50000000  1
  Sb  Sb2  1  0.50000000  0.24440000  0.00000000  1
  Sb  Sb3  1  0.75560000  0.50000000  0.25000000  1
  O  O0  1  0.25286900  0.74713100  0.12500000  1
  O  O1  1  0.55141600  0.94639500  0.36818300  1
  O  O2  1  0.76513100  0.75073900  0.17652300  1
  O  O3  1  0.74713100  0.25286900  0.62500000  1
  O  O4  1  0.95187200  0.95187200  0.37500000  1
  O  O5  1  0.04812800  0.04812800  0.87500000  1
  O  O6  1  0.05360500  0.44858400  0.88181700  1
  O  O7  1  0.04812800  0.95187200  0.62500000  1
  O  O8  1  0.24926100  0.23486900  0.07347700  1
  O  O9  1  0.23486900  0.24926100  0.67652300  1
  O  O10  1  0.24926100  0.76513100  0.42652300  1
  O  O11  1  0.44858400  0.94639500  0.63181700  1
  O  O12  1  0.44858400  0.05360500  0.86818300  1
  O  O13  1  0.45048400  0.45048400  0.87500000  1
  O  O14  1  0.54951600  0.54951600  0.37500000  1
  O  O15  1  0.55141600  0.05360500  0.13181700  1
  O  O16  1  0.54951600  0.45048400  0.12500000  1
  O  O17  1  0.75073900  0.76513100  0.57347700  1
  O  O18  1  0.76513100  0.24926100  0.32347700  1
  O  O19  1  0.74713100  0.74713100  0.87500000  1
  O  O20  1  0.75073900  0.23486900  0.92652300  1
  O  O21  1  0.94639500  0.55141600  0.38181700  1
  O  O22  1  0.95187200  0.04812800  0.12500000  1
  O  O23  1  0.94639500  0.44858400  0.11818300  1
  O  O24  1  0.05360500  0.55141600  0.61818300  1
  O  O25  1  0.23486900  0.75073900  0.82347700  1
  O  O26  1  0.25286900  0.25286900  0.37500000  1
  O  O27  1  0.45048400  0.54951600  0.62500000  1
loop_
_geom_bond_atom_site_label_1
_geom_bond_atom_site_label_2
_geom_bond_distance
_geom_bond_site_symmetry_2
Gd0 O19 2.263695 1_454
Gd0 O0 2.263695 1_555
Gd0 O6 2.466075 1_554
Gd0 O23 2.466075 1_455
Gd0 O2 2.517211 1_455
Gd0 O25 2.517211 1_554
Gd0 O5 2.655233 1_564
Gd0 O22 2.655233 1_465
Gd1 O26 2.263695 1_555
Gd1 O3 2.263695 1_455
Gd1 O21 2.466075 1_455
Gd1 O24 2.466075 1_555
Gd1 O18 2.517211 1_455
Gd1 O9 2.517211 1_555
Gd1 O4 2.655233 1_445
Gd1 O7 2.655233 1_545
Gd2 O26 2.263695 1_555
Gd2 O0 2.263695 1_545
Gd2 O1 2.466075 1_545
Gd2 O15 2.466075 1_555
Gd2 O8 2.517211 1_555
Gd2 O10 2.517211 1_545
Gd2 O4 2.655233 1_445
Gd2 O22 2.655233 1_455
Gd3 O19 2.263695 1_545
Gd3 O3 2.263695 1_555
Gd3 O12 2.466075 1_555
Gd3 O11 2.466075 1_545
Gd3 O17 2.517211 1_545
Gd3 O20 2.517211 1_555
Gd3 O5 2.655233 1_655
Gd3 O7 2.655233 1_645
Cd0 O0 2.228157 1_555
Cd0 O19 2.228157 1_554
Cd0 O16 2.525798 1_555
Cd0 O13 2.525798 1_554
Cd0 O25 2.672021 1_554
Cd0 O2 2.672021 1_555
Cd0 O12 2.687710 1_564
Cd0 O15 2.687710 1_565
Cd1 O0 2.228157 1_555
Cd1 O26 2.228157 1_555
Cd1 O16 2.525798 1_555
Cd1 O14 2.525798 1_555
Cd1 O8 2.672021 1_555
Cd1 O10 2.672021 1_555
Cd1 O21 2.687710 1_455
Cd1 O23 2.687710 1_455
Cd2 O3 2.228157 1_555
Cd2 O26 2.228157 1_555
Cd2 O27 2.525798 1_555
Cd2 O14 2.525798 1_555
Cd2 O18 2.672021 1_555
Cd2 O9 2.672021 1_555
Cd2 O11 2.687710 1_545
Cd2 O1 2.687710 1_545
Cd3 O3 2.228157 1_555
Cd3 O19 2.228157 1_555
Cd3 O27 2.525798 1_555
Cd3 O13 2.525798 1_555
Cd3 O20 2.672021 1_555
Cd3 O17 2.672021 1_555
Cd3 O24 2.687710 1_655
Cd3 O6 2.687710 1_655
O1 Sb1 1.992709 1_555
O1 Ti0 2.012717 1_565
O2 Ti0 1.978893 1_565
O2 Sb3 1.990010 1_555
O4 Ti1 1.933009 1_655
O4 Ti0 1.933009 1_565
O5 Ti3 1.933009 1_556
O5 Ti2 1.933009 1_555
O6 Sb0 1.992709 1_555
O6 Ti3 2.012717 1_556
O7 Ti2 1.933009 1_565
O7 Ti1 1.933009 1_555
O8 Ti3 1.978893 1_555
O8 Sb2 1.990010 1_555
O9 Ti2 1.978893 1_555
O9 Sb0 1.990010 1_555
O10 Ti1 1.978893 1_555
O10 Sb1 1.990010 1_555
O11 Sb1 1.992709 1_555
O11 Ti2 2.012717 1_565
O12 Sb2 1.992709 1_556
O12 Ti2 2.012717 1_555
O13 Sb0 2.024104 1_555
O13 Sb2 2.024104 1_556
O14 Sb3 2.024104 1_555
O14 Sb1 2.024104 1_555
O15 Sb2 1.992709 1_555
O15 Ti0 2.012717 1_555
O16 Sb2 2.024104 1_555
O16 Sb3 2.024104 1_555
O17 Ti1 1.978893 1_655
O17 Sb1 1.990010 1_555
O18 Ti0 1.978893 1_555
O18 Sb3 1.990010 1_555
O20 Ti3 1.978893 1_656
O20 Sb2 1.990010 1_556
O21 Sb3 1.992709 1_555
O21 Ti1 2.012717 1_655
O22 Ti3 1.933009 1_655
O22 Ti0 1.933009 1_555
O23 Sb3 1.992709 1_555
O23 Ti3 2.012717 1_655
O24 Sb0 1.992709 1_555
O24 Ti1 2.012717 1_555
O25 Ti2 1.978893 1_565
O25 Sb0 1.990010 1_555
O27 Sb0 2.024104 1_555
O27 Sb1 2.024104 1_555
