# generated using pymatgen
data_K(GePt)4
_symmetry_space_group_name_H-M   'P 1'
_cell_length_a   6.56166440
_cell_length_b   6.56166319
_cell_length_c   6.56166357
_cell_angle_alpha   97.62127591
_cell_angle_beta   97.62127533
_cell_angle_gamma   137.28619190
_symmetry_Int_Tables_number   1
_chemical_formula_structural   K(GePt)4
_chemical_formula_sum   'K1 Ge4 Pt4'
_cell_volume   178.48052954
_cell_formula_units_Z   1
loop_
 _symmetry_equiv_pos_site_id
 _symmetry_equiv_pos_as_xyz
  1  'x, y, z'
loop_
 _atom_site_type_symbol
 _atom_site_label
 _atom_site_symmetry_multiplicity
 _atom_site_fract_x
 _atom_site_fract_y
 _atom_site_fract_z
 _atom_site_occupancy
  K  K0  1  0.29712761  0.29712761  1.00000000  1
  Ge  Ge0  1  0.38137680  0.88247146  0.26316337  1
  Ge  Ge1  1  0.61930709  0.11821243  0.73683663  1
  Ge  Ge2  1  0.11821243  0.38137680  0.49890534  1
  Ge  Ge3  1  0.88247146  0.61930709  0.50109466  1
  Pt  Pt0  1  0.17248809  0.67570611  0.84744190  1
  Pt  Pt1  1  0.82826421  0.32504619  0.15255810  1
  Pt  Pt2  1  0.32504619  0.17248809  0.49678198  1
  Pt  Pt3  1  0.67570611  0.82826421  0.50321802  1
loop_
_geom_bond_atom_site_label_1
_geom_bond_atom_site_label_2
_geom_bond_distance
_geom_bond_site_symmetry_2
K0 Pt3 3.357022 1_556
K0 Pt0 3.357022 1_555
K0 Pt2 3.357022 1_555
K0 Pt1 3.357022 1_556
K0 Pt0 3.478086 1_545
K0 Pt2 3.478086 1_556
K0 Pt3 3.478086 1_445
K0 Pt1 3.478086 1_456
Ge0 Pt1 2.483343 1_455
Ge0 Pt1 2.483653 1_565
Ge0 Pt0 2.540538 1_554
Ge0 Pt2 2.553040 1_565
Ge0 Pt3 2.586248 1_555
Ge0 K0 3.592605 1_554
Ge0 K0 3.727421 1_564
Ge1 Pt0 2.483338 1_545
Ge1 Pt0 2.483657 1_655
Ge1 Pt1 2.540538 1_556
Ge1 Pt3 2.553040 1_545
Ge1 Pt2 2.586248 1_555
Ge1 K0 3.592604 1_555
Ge1 K0 3.727423 1_655
Ge2 Pt3 2.483342 1_445
Ge2 Pt3 2.483657 1_555
Ge2 Pt2 2.540544 1_555
Ge2 Pt1 2.553037 1_455
Ge2 Pt0 2.586244 1_555
Ge2 K0 3.592608 1_555
Ge2 K0 3.727424 1_554
Ge3 Pt2 2.483342 1_555
Ge3 Pt2 2.483656 1_665
Ge3 Pt3 2.540544 1_555
Ge3 Pt0 2.553037 1_655
Ge3 Pt1 2.586244 1_555
Ge3 K0 3.592608 1_554
Ge3 K0 3.727424 1_665
