# generated using pymatgen
data_Rb2Cd(ClF)2
_symmetry_space_group_name_H-M   'P 1'
_cell_length_a   8.56944822
_cell_length_b   8.56944775
_cell_length_c   6.49327786
_cell_angle_alpha   90.00000000
_cell_angle_beta   90.00000000
_cell_angle_gamma   135.47675691
_symmetry_Int_Tables_number   1
_chemical_formula_structural   Rb2Cd(ClF)2
_chemical_formula_sum   'Rb4 Cd2 Cl4 F4'
_cell_volume   334.35720901
_cell_formula_units_Z   2
loop_
 _symmetry_equiv_pos_site_id
 _symmetry_equiv_pos_as_xyz
  1  'x, y, z'
loop_
 _atom_site_type_symbol
 _atom_site_label
 _atom_site_symmetry_multiplicity
 _atom_site_fract_x
 _atom_site_fract_y
 _atom_site_fract_z
 _atom_site_occupancy
  Rb  Rb0  1  0.12591490  0.87408510  0.50000000  1
  Rb  Rb1  1  0.62591490  0.37408510  0.00000000  1
  Rb  Rb2  1  0.87408510  0.12591490  0.50000000  1
  Rb  Rb3  1  0.37408510  0.62591490  0.00000000  1
  Cd  Cd0  1  0.00000000  0.00000000  0.00000000  1
  Cd  Cd1  1  0.50000000  0.50000000  0.50000000  1
  Cl  Cl0  1  0.16156496  0.83843504  0.00000000  1
  Cl  Cl1  1  0.83843504  0.16156496  0.00000000  1
  Cl  Cl2  1  0.66156496  0.33843504  0.50000000  1
  Cl  Cl3  1  0.33843504  0.66156496  0.50000000  1
  F  F0  1  0.25002131  0.25002131  0.25001796  1
  F  F1  1  0.74997869  0.74997869  0.74998204  1
  F  F2  1  0.75002131  0.75002131  0.24998204  1
  F  F3  1  0.24997869  0.24997869  0.75001796  1
loop_
_geom_bond_atom_site_label_1
_geom_bond_atom_site_label_2
_geom_bond_distance
_geom_bond_site_symmetry_2
Cd0 F2 2.295462 1_445
Cd0 F3 2.295462 1_554
Cd0 F0 2.295823 1_555
Cd0 F1 2.295823 1_444
Cd0 Cl0 2.562651 1_545
Cd0 Cl1 2.562651 1_455
Cd1 F1 2.295462 1_555
Cd1 F0 2.295462 1_555
Cd1 F3 2.295823 1_555
Cd1 F2 2.295823 1_555
Cd1 Cl2 2.562651 1_555
Cd1 Cl3 2.562651 1_555
Cl0 Rb1 3.295296 1_565
Cl0 Rb1 3.295296 1_455
Cl0 Rb0 3.295514 1_554
Cl0 Rb0 3.295514 1_555
Cl0 Rb3 3.370872 1_555
Cl1 Rb3 3.295296 1_545
Cl1 Rb3 3.295296 1_655
Cl1 Rb2 3.295514 1_554
Cl1 Rb2 3.295514 1_555
Cl1 Rb1 3.370872 1_555
Cl2 Rb0 3.295296 1_655
Cl2 Rb0 3.295296 1_545
Cl2 Rb1 3.295514 1_555
Cl2 Rb1 3.295514 1_556
Cl2 Rb2 3.370872 1_555
Cl3 Rb2 3.295296 1_455
Cl3 Rb2 3.295296 1_565
Cl3 Rb3 3.295514 1_555
Cl3 Rb3 3.295514 1_556
Cl3 Rb0 3.370872 1_555
F0 Rb3 3.042806 1_555
F0 Rb1 3.042806 1_555
F0 Rb0 3.042829 1_545
F0 Rb2 3.042830 1_455
F1 Rb1 3.042806 1_556
F1 Rb3 3.042806 1_556
F1 Rb2 3.042829 1_565
F1 Rb0 3.042830 1_655
F2 Rb2 3.042806 1_565
F2 Rb0 3.042806 1_655
F2 Rb1 3.042829 1_555
F2 Rb3 3.042830 1_555
F3 Rb0 3.042806 1_545
F3 Rb2 3.042806 1_455
F3 Rb3 3.042829 1_556
F3 Rb1 3.042830 1_556
