# generated using pymatgen
data_Mn2Cd2P7N12
_symmetry_space_group_name_H-M   'P 1'
_cell_length_a   7.22393338
_cell_length_b   7.28077193
_cell_length_c   7.22393475
_cell_angle_alpha   109.64882877
_cell_angle_beta   108.79603088
_cell_angle_gamma   109.64883049
_symmetry_Int_Tables_number   1
_chemical_formula_structural   Mn2Cd2P7N12
_chemical_formula_sum   'Mn2 Cd2 P7 N12'
_cell_volume   293.61771497
_cell_formula_units_Z   1
loop_
 _symmetry_equiv_pos_site_id
 _symmetry_equiv_pos_as_xyz
  1  'x, y, z'
loop_
 _atom_site_type_symbol
 _atom_site_label
 _atom_site_symmetry_multiplicity
 _atom_site_fract_x
 _atom_site_fract_y
 _atom_site_fract_z
 _atom_site_occupancy
  Mn  Mn0  1  0.64225291  1.00000000  0.00053632  1
  Mn  Mn1  1  0.00053632  0.00000000  0.64225291  1
  Cd  Cd0  1  0.00235430  0.69484676  0.00235430  1
  Cd  Cd1  1  0.30750854  0.30515324  0.30750854  1
  P  P0  1  0.25510817  0.74965976  0.50559171  1
  P  P1  1  0.75593195  0.25034024  0.50544841  1
  P  P2  1  0.75394346  0.50000000  0.25394346  1
  P  P3  1  0.25394346  0.50000000  0.75394346  1
  P  P4  1  0.50559171  0.74965976  0.25510817  1
  P  P5  1  0.50544841  0.25034024  0.75593195  1
  P  P6  1  0.95933667  0.00000000  0.95933667  1
  N  N0  1  0.71952178  0.27912616  0.28290836  1
  N  N1  1  0.28809468  0.71942396  0.28809468  1
  N  N2  1  0.29323640  0.57018076  0.57402055  1
  N  N3  1  0.57402055  0.57018076  0.29323640  1
  N  N4  1  0.44039562  0.72087384  0.00378120  1
  N  N5  1  0.00378120  0.72087384  0.44039562  1
  N  N6  1  0.56867072  0.28057604  0.56867072  1
  N  N7  1  0.72800451  1.00000000  0.43251486  1
  N  N8  1  0.43251486  0.00000000  0.72800451  1
  N  N9  1  0.72305565  0.42981924  0.00383980  1
  N  N10  1  0.28290836  0.27912616  0.71952178  1
  N  N11  1  0.00383980  0.42981924  0.72305565  1
loop_
_geom_bond_atom_site_label_1
_geom_bond_atom_site_label_2
_geom_bond_distance
_geom_bond_site_symmetry_2
Mn0 N8 2.061412 1_564
Mn0 N4 2.078001 1_555
Mn0 N0 2.078005 1_565
Mn0 P6 2.403061 1_564
Mn1 N7 2.061412 1_445
Mn1 N5 2.078001 1_545
Mn1 N10 2.078005 1_555
Mn1 P6 2.403061 1_455
Cd0 N9 2.281224 1_455
Cd0 N11 2.281224 1_554
Cd0 N1 2.304594 1_555
Cd0 P6 2.448616 1_464
Cd1 N3 2.281224 1_555
Cd1 N2 2.281224 1_555
Cd1 N6 2.304585 1_555
Cd1 P6 2.448621 1_454
N0 P2 1.637864 1_555
N0 P1 1.639730 1_555
N1 P4 1.617961 1_555
N1 P0 1.617962 1_555
N2 P0 1.617570 1_555
N2 P3 1.617978 1_555
N3 P4 1.617570 1_555
N3 P2 1.617977 1_555
N4 P3 1.637860 1_554
N4 P4 1.639737 1_555
N5 P2 1.637860 1_455
N5 P0 1.639736 1_555
N6 P1 1.617961 1_555
N6 P5 1.617962 1_555
N7 P4 1.636709 1_555
N7 P1 1.636709 1_565
N8 P5 1.636709 1_555
N8 P0 1.636709 1_545
N9 P5 1.617570 1_554
N9 P2 1.617978 1_555
N10 P3 1.637864 1_555
N10 P5 1.639729 1_555
N11 P1 1.617570 1_455
N11 P3 1.617977 1_555
