# generated using pymatgen
data_RbVPbO4
_symmetry_space_group_name_H-M   'P 1'
_cell_length_a   5.86277706
_cell_length_b   7.91164997
_cell_length_c   10.25168718
_cell_angle_alpha   90.00000000
_cell_angle_beta   90.00000000
_cell_angle_gamma   90.00000000
_symmetry_Int_Tables_number   1
_chemical_formula_structural   RbVPbO4
_chemical_formula_sum   'Rb4 V4 Pb4 O16'
_cell_volume   475.51671764
_cell_formula_units_Z   4
loop_
 _symmetry_equiv_pos_site_id
 _symmetry_equiv_pos_as_xyz
  1  'x, y, z'
loop_
 _atom_site_type_symbol
 _atom_site_label
 _atom_site_symmetry_multiplicity
 _atom_site_fract_x
 _atom_site_fract_y
 _atom_site_fract_z
 _atom_site_occupancy
  Rb  Rb0  1  0.25000000  0.17551404  0.90430227  1
  Rb  Rb1  1  0.75000000  0.82448596  0.09569773  1
  Rb  Rb2  1  0.25000000  0.67551404  0.59569773  1
  Rb  Rb3  1  0.75000000  0.32448596  0.40430227  1
  V  V0  1  0.75000000  0.25719905  0.08099932  1
  V  V1  1  0.25000000  0.74280095  0.91900068  1
  V  V2  1  0.75000000  0.75719905  0.41900068  1
  V  V3  1  0.25000000  0.24280095  0.58099932  1
  Pb  Pb0  1  0.75000000  0.47164055  0.78317713  1
  Pb  Pb1  1  0.25000000  0.52835945  0.21682287  1
  Pb  Pb2  1  0.75000000  0.97164055  0.71682287  1
  Pb  Pb3  1  0.25000000  0.02835945  0.28317713  1
  O  O0  1  0.25000000  0.53354001  0.88985698  1
  O  O1  1  0.75000000  0.46645999  0.11014302  1
  O  O2  1  0.25000000  0.03354001  0.61014302  1
  O  O3  1  0.75000000  0.96645999  0.38985698  1
  O  O4  1  0.75000000  0.22261021  0.91200770  1
  O  O5  1  0.25000000  0.77738979  0.08799230  1
  O  O6  1  0.75000000  0.72261021  0.58799230  1
  O  O7  1  0.25000000  0.27738979  0.41200770  1
  O  O8  1  0.99155008  0.16656515  0.14818588  1
  O  O9  1  0.49155008  0.83343485  0.85181412  1
  O  O10  1  0.50844992  0.66656515  0.35181412  1
  O  O11  1  0.00844992  0.33343485  0.64818588  1
  O  O12  1  0.00844992  0.83343485  0.85181412  1
  O  O13  1  0.50844992  0.16656515  0.14818588  1
  O  O14  1  0.49155008  0.33343485  0.64818588  1
  O  O15  1  0.99155008  0.66656515  0.35181412  1
loop_
_geom_bond_atom_site_label_1
_geom_bond_atom_site_label_2
_geom_bond_distance
_geom_bond_site_symmetry_2
O0 V1 1.682342 1_555
O0 Rb0 2.836445 1_555
O0 Rb2 3.218028 1_555
O1 V0 1.682342 1_555
O1 Rb1 2.836445 1_555
O1 Rb3 3.218028 1_555
O2 V3 1.682342 1_555
O2 Rb2 2.836445 1_545
O2 Rb0 3.218028 1_555
O3 V2 1.682342 1_555
O3 Rb3 2.836445 1_565
O3 Rb1 3.218028 1_555
O4 V0 1.753929 1_556
O4 Pb0 2.371957 1_555
O4 Rb0 2.956030 1_655
O4 Rb0 2.956030 1_555
O5 V1 1.753929 1_554
O5 Pb1 2.371957 1_555
O5 Rb1 2.956030 1_455
O5 Rb1 2.956030 1_555
O6 V2 1.753929 1_555
O6 Pb2 2.371957 1_555
O6 Rb2 2.956030 1_655
O6 Rb2 2.956030 1_555
O7 V3 1.753929 1_555
O7 Pb3 2.371957 1_555
O7 Rb3 2.956030 1_555
O7 Rb3 2.956030 1_455
O8 V0 1.730342 1_555
O8 Pb3 2.325227 1_655
O8 Rb0 2.924387 1_654
O8 Rb1 3.101563 1_545
O8 Rb3 3.234260 1_555
O9 V1 1.730342 1_555
O9 Pb2 2.325227 1_555
O9 Rb1 2.924387 1_556
O9 Rb0 3.101563 1_565
O9 Rb2 3.234260 1_555
O10 V2 1.730342 1_555
O10 Pb1 2.325227 1_555
O10 Rb2 2.924387 1_555
O10 Rb3 3.101563 1_555
O10 Rb1 3.234260 1_555
O11 V3 1.730342 1_555
O11 Pb0 2.325227 1_455
O11 Rb3 2.924387 1_455
O11 Rb2 3.101563 1_555
O11 Rb0 3.234260 1_555
O12 V1 1.730342 1_555
O12 Pb2 2.325227 1_455
O12 Rb1 2.924387 1_456
O12 Rb0 3.101563 1_565
O12 Rb2 3.234260 1_555
O13 V0 1.730342 1_555
O13 Pb3 2.325227 1_555
O13 Rb0 2.924387 1_554
O13 Rb1 3.101563 1_545
O13 Rb3 3.234260 1_555
O14 V3 1.730342 1_555
O14 Pb0 2.325227 1_555
O14 Rb3 2.924387 1_555
O14 Rb2 3.101563 1_555
O14 Rb0 3.234260 1_555
O15 V2 1.730342 1_555
O15 Pb1 2.325227 1_655
O15 Rb2 2.924387 1_655
O15 Rb3 3.101563 1_555
O15 Rb1 3.234260 1_555
