# generated using pymatgen
data_Hf10Sn4Sb3
_symmetry_space_group_name_H-M   'P 1'
_cell_length_a   5.84613497
_cell_length_b   8.52582210
_cell_length_c   8.51637626
_cell_angle_alpha   119.96318868
_cell_angle_beta   89.88715651
_cell_angle_gamma   90.05551344
_symmetry_Int_Tables_number   1
_chemical_formula_structural   Hf10Sn4Sb3
_chemical_formula_sum   'Hf10 Sn4 Sb3'
_cell_volume   367.74833037
_cell_formula_units_Z   1
loop_
 _symmetry_equiv_pos_site_id
 _symmetry_equiv_pos_as_xyz
  1  'x, y, z'
loop_
 _atom_site_type_symbol
 _atom_site_label
 _atom_site_symmetry_multiplicity
 _atom_site_fract_x
 _atom_site_fract_y
 _atom_site_fract_z
 _atom_site_occupancy
  Hf  Hf0  1  0.50002026  0.33475763  0.66679412  1
  Hf  Hf1  1  0.50008024  0.66522915  0.33201739  1
  Hf  Hf2  1  0.00182126  0.66646139  0.33299440  1
  Hf  Hf3  1  0.00187311  0.33352936  0.66653531  1
  Hf  Hf4  1  0.77879987  0.26531511  0.99971599  1
  Hf  Hf5  1  0.77879919  0.73468721  0.73441671  1
  Hf  Hf6  1  0.77959676  0.00000182  0.26413953  1
  Hf  Hf7  1  0.22094600  0.73293419  0.00043193  1
  Hf  Hf8  1  0.22094120  0.26705696  0.26754957  1
  Hf  Hf9  1  0.21738656  0.00005067  0.73443184  1
  Sn  Sn0  1  0.73955230  0.99993708  0.60927815  1
  Sn  Sn1  1  0.25828926  0.38730058  0.99951058  1
  Sn  Sn2  1  0.25827980  0.61278083  0.61216281  1
  Sn  Sn3  1  0.25830371  0.99994673  0.39006376  1
  Sb  Sb0  1  0.74396901  0.60955510  0.99994741  1
  Sb  Sb1  1  0.74397164  0.39044200  0.39039846  1
  Sb  Sb2  1  0.49736783  0.00001720  0.99961104  1
loop_
_geom_bond_atom_site_label_1
_geom_bond_atom_site_label_2
_geom_bond_distance
_geom_bond_site_symmetry_2
Hf0 Sb1 2.983605 1_555
Hf0 Sb0 2.990409 1_555
Hf0 Sn2 2.990504 1_555
Hf0 Sn1 2.990694 1_555
Hf0 Sn0 2.993002 1_545
Hf0 Sn3 2.997477 1_545
Hf1 Sb0 2.983379 1_554
Hf1 Sn1 2.989732 1_554
Hf1 Sn2 2.990239 1_555
Hf1 Sb1 2.990253 1_555
Hf1 Sn0 2.992228 1_555
Hf1 Sn3 2.996997 1_555
Hf2 Sn3 3.030309 1_555
Hf2 Sb1 3.031290 1_455
Hf2 Sb0 3.032079 1_454
Hf2 Sn2 3.035149 1_555
Hf2 Sn1 3.035934 1_554
Hf2 Sn0 3.046743 1_455
Hf3 Sn3 3.030725 1_545
Hf3 Sb0 3.031383 1_455
Hf3 Sb1 3.032214 1_455
Hf3 Sn1 3.035716 1_555
Hf3 Sn2 3.036679 1_555
Hf3 Sn0 3.047611 1_445
Hf4 Sb2 2.795330 1_555
Hf4 Sb0 2.941199 1_555
Hf4 Sb1 2.949917 1_556
Hf4 Sn0 2.952173 1_545
Hf4 Sn1 2.989232 1_655
Hf4 Sn1 3.217037 1_555
Hf5 Sb2 2.795408 1_565
Hf5 Sb1 2.941275 1_555
Hf5 Sb0 2.949747 1_555
Hf5 Sn0 2.951623 1_555
Hf5 Sn2 2.989131 1_655
Hf5 Sn2 3.217095 1_555
Hf6 Sb2 2.795082 1_554
Hf6 Sn0 2.948454 1_545
Hf6 Sb1 2.950544 1_555
Hf6 Sb0 2.950616 1_544
Hf6 Sn3 2.999081 1_645
Hf6 Sn3 3.228818 1_545
Hf7 Sb2 2.793819 1_564
Hf7 Sn2 2.940232 1_554
Hf7 Sn3 2.949109 1_555
Hf7 Sn1 2.951196 1_554
Hf7 Sb0 2.978612 1_454
Hf7 Sb0 3.233833 1_554
Hf8 Sb2 2.793771 1_554
Hf8 Sn1 2.940181 1_554
Hf8 Sn3 2.949226 1_545
Hf8 Sn2 2.951176 1_555
Hf8 Sb1 2.978485 1_455
Hf8 Sb1 3.233850 1_555
Hf9 Sb2 2.791874 1_555
Hf9 Sn2 2.934200 1_545
Hf9 Sn1 2.934228 1_555
Hf9 Sn3 2.941597 1_545
Hf9 Sn0 2.991704 1_445
Hf9 Sn0 3.231236 1_545
