# generated using pymatgen
data_Hf2Sc2As6Ru7
_symmetry_space_group_name_H-M   'P 1'
_cell_length_a   7.01708735
_cell_length_b   7.02507825
_cell_length_c   7.02507915
_cell_angle_alpha   109.51588259
_cell_angle_beta   109.47193897
_cell_angle_gamma   109.47193696
_symmetry_Int_Tables_number   1
_chemical_formula_structural   Hf2Sc2As6Ru7
_chemical_formula_sum   'Hf2 Sc2 As6 Ru7'
_cell_volume   266.43421913
_cell_formula_units_Z   1
loop_
 _symmetry_equiv_pos_site_id
 _symmetry_equiv_pos_as_xyz
  1  'x, y, z'
loop_
 _atom_site_type_symbol
 _atom_site_label
 _atom_site_symmetry_multiplicity
 _atom_site_fract_x
 _atom_site_fract_y
 _atom_site_fract_z
 _atom_site_occupancy
  Hf  Hf0  1  0.50000000  0.00000000  0.00000000  1
  Hf  Hf1  1  0.50000000  0.50000000  0.50000000  1
  Sc  Sc0  1  0.00000000  0.00000000  0.50000000  1
  Sc  Sc1  1  0.00000000  0.50000000  0.00000000  1
  As  As0  1  0.30949569  0.99712031  0.31237638  1
  As  As1  1  0.00000000  0.31272838  0.31272838  1
  As  As2  1  1.00000000  0.68727162  0.68727162  1
  As  As3  1  0.30949569  0.31237638  0.99712031  1
  As  As4  1  0.69050431  0.68762362  0.00287969  1
  As  As5  1  0.69050431  0.00287969  0.68762362  1
  Ru  Ru0  1  0.74619129  0.49645785  0.24973244  1
  Ru  Ru1  1  0.50000000  0.75000000  0.25000000  1
  Ru  Ru2  1  0.50000000  0.25000000  0.75000000  1
  Ru  Ru3  1  0.74619129  0.24973244  0.49645785  1
  Ru  Ru4  1  0.25380871  0.75026756  0.50354215  1
  Ru  Ru5  1  0.25380871  0.50354215  0.75026756  1
  Ru  Ru6  1  0.00000000  0.00000000  0.00000000  1
loop_
_geom_bond_atom_site_label_1
_geom_bond_atom_site_label_2
_geom_bond_distance
_geom_bond_site_symmetry_2
Hf0 Ru0 2.846128 1_555
Hf0 Ru5 2.846128 1_544
Hf0 Ru3 2.846128 1_555
Hf0 Ru4 2.846128 1_544
Hf0 Ru2 2.868767 1_554
Hf0 Ru1 2.868767 1_545
Hf1 Ru4 2.846134 1_555
Hf1 Ru3 2.846134 1_555
Hf1 Ru5 2.846134 1_555
Hf1 Ru0 2.846134 1_555
Hf1 Ru1 2.868767 1_555
Hf1 Ru2 2.868767 1_555
As0 Ru3 2.531998 1_565
As0 Ru6 2.532635 1_565
As0 Ru4 2.533306 1_555
As0 Ru2 2.534220 1_565
As0 Ru1 2.534226 1_555
As0 Sc0 2.893813 1_565
As0 Sc1 2.893818 1_555
As0 Hf1 2.927534 1_565
As0 Hf0 2.927540 1_565
As1 Ru0 2.534261 1_455
As1 Ru3 2.534261 1_455
As1 Ru4 2.534266 1_555
As1 Ru5 2.534266 1_555
As1 Ru6 2.535411 1_555
As1 Hf0 2.908677 1_455
As1 Hf1 2.908677 1_555
As1 Sc0 2.913496 1_555
As1 Sc1 2.913496 1_555
As2 Ru5 2.534261 1_655
As2 Ru4 2.534261 1_655
As2 Ru3 2.534266 1_555
As2 Ru0 2.534266 1_555
As2 Ru6 2.535411 1_666
As2 Hf0 2.908677 1_666
As2 Hf1 2.908677 1_555
As2 Sc0 2.913496 1_665
As2 Sc1 2.913496 1_656
As3 Ru0 2.531998 1_556
As3 Ru6 2.532635 1_556
As3 Ru5 2.533306 1_555
As3 Ru1 2.534220 1_556
As3 Ru2 2.534227 1_555
As3 Sc1 2.893812 1_556
As3 Sc0 2.893818 1_555
As3 Hf1 2.927534 1_556
As3 Hf0 2.927539 1_556
As4 Ru5 2.531998 1_554
As4 Ru6 2.532635 1_665
As4 Ru0 2.533306 1_555
As4 Ru2 2.534220 1_554
As4 Ru1 2.534227 1_555
As4 Sc1 2.893812 1_655
As4 Sc0 2.893818 1_665
As4 Hf1 2.927534 1_554
As4 Hf0 2.927539 1_565
As5 Ru4 2.531998 1_545
As5 Ru6 2.532635 1_656
As5 Ru3 2.533306 1_555
As5 Ru1 2.534220 1_545
As5 Ru2 2.534226 1_555
As5 Sc0 2.893813 1_655
As5 Sc1 2.893818 1_656
As5 Hf1 2.927534 1_545
As5 Hf0 2.927540 1_556
Ru0 Sc1 2.886728 1_655
Ru0 Sc0 2.886733 1_665
Ru1 Sc0 2.863873 1_665
Ru1 Sc1 2.863873 1_555
Ru2 Sc0 2.863873 1_555
Ru2 Sc1 2.863873 1_656
Ru3 Sc0 2.886727 1_655
Ru3 Sc1 2.886733 1_656
Ru4 Sc0 2.886727 1_565
Ru4 Sc1 2.886733 1_555
Ru5 Sc1 2.886728 1_556
Ru5 Sc0 2.886733 1_555
