# generated using pymatgen
data_SnP7Au3
_symmetry_space_group_name_H-M   'P 1'
_cell_length_a   11.04866531
_cell_length_b   6.32597661
_cell_length_c   6.44418804
_cell_angle_alpha   71.20402063
_cell_angle_beta   90.00000000
_cell_angle_gamma   90.00000000
_symmetry_Int_Tables_number   1
_chemical_formula_structural   SnP7Au3
_chemical_formula_sum   'Sn2 P14 Au6'
_cell_volume   426.38810178
_cell_formula_units_Z   2
loop_
 _symmetry_equiv_pos_site_id
 _symmetry_equiv_pos_as_xyz
  1  'x, y, z'
loop_
 _atom_site_type_symbol
 _atom_site_label
 _atom_site_symmetry_multiplicity
 _atom_site_fract_x
 _atom_site_fract_y
 _atom_site_fract_z
 _atom_site_occupancy
  Sn  Sn0  1  0.25000000  0.68977886  0.04175262  1
  Sn  Sn1  1  0.75000000  0.31022114  0.95824738  1
  P  P0  1  0.25000000  0.26235892  0.28495825  1
  P  P1  1  0.75000000  0.73764108  0.71504175  1
  P  P2  1  0.58784387  0.20039662  0.70934457  1
  P  P3  1  0.08784387  0.79960338  0.29065543  1
  P  P4  1  0.41215613  0.79960338  0.29065543  1
  P  P5  1  0.91215613  0.20039662  0.70934457  1
  P  P6  1  0.40832183  0.28112220  0.80499841  1
  P  P7  1  0.90832183  0.71887780  0.19500159  1
  P  P8  1  0.92093017  0.83527116  0.83413760  1
  P  P9  1  0.42093017  0.16472884  0.16586240  1
  P  P10  1  0.07906983  0.16472884  0.16586240  1
  P  P11  1  0.57906983  0.83527116  0.83413760  1
  P  P12  1  0.09167817  0.28112220  0.80499841  1
  P  P13  1  0.59167817  0.71887780  0.19500159  1
  Au  Au0  1  0.59892198  0.31469855  0.31174232  1
  Au  Au1  1  0.09892198  0.68530145  0.68825768  1
  Au  Au2  1  0.40107802  0.68530145  0.68825768  1
  Au  Au3  1  0.90107802  0.31469855  0.31174232  1
  Au  Au4  1  0.25000000  0.07228470  0.68392899  1
  Au  Au5  1  0.75000000  0.92771530  0.31607101  1
loop_
_geom_bond_atom_site_label_1
_geom_bond_atom_site_label_2
_geom_bond_distance
_geom_bond_site_symmetry_2
P0 P9 2.200573 1_555
P0 P10 2.200573 1_555
P0 Sn0 2.652618 1_555
P1 P11 2.200573 1_555
P1 P8 2.200573 1_555
P1 Sn1 2.652618 1_555
P2 P6 2.185813 1_555
P2 Sn1 2.642606 1_555
P3 P7 2.185813 1_455
P3 Sn0 2.642606 1_555
P4 P9 2.189569 1_565
P4 Sn0 2.642606 1_555
P5 P8 2.189569 1_545
P5 Sn1 2.642606 1_555
P6 P9 2.205903 1_556
P7 P8 2.205903 1_554
P10 P3 2.189569 1_545
P10 P12 2.205903 1_554
P11 P2 2.189569 1_565
P11 P13 2.205903 1_556
P12 P5 2.185813 1_455
P13 P4 2.185813 1_555
Au0 P13 2.422856 1_555
Au0 P2 2.430832 1_555
Au0 P9 2.495176 1_555
Au0 Sn1 2.831585 1_554
Au1 P12 2.422856 1_555
Au1 P3 2.430832 1_555
Au1 P8 2.495176 1_455
Au1 Sn0 2.831585 1_556
Au2 P6 2.422856 1_555
Au2 P4 2.430832 1_555
Au2 P11 2.495176 1_555
Au2 Sn0 2.831585 1_556
Au3 P7 2.422856 1_555
Au3 P5 2.430832 1_555
Au3 P10 2.495176 1_655
Au3 Sn1 2.831585 1_554
Au4 P0 2.462503 1_555
Au4 P12 2.465372 1_555
Au4 P6 2.465372 1_555
Au4 Sn0 2.752575 1_546
Au5 P1 2.462503 1_555
Au5 P7 2.465372 1_555
Au5 P13 2.465372 1_555
Au5 Sn1 2.752575 1_564
