# generated using pymatgen
data_Ga2Te4O11
_symmetry_space_group_name_H-M   'P 1'
_cell_length_a   5.13414875
_cell_length_b   6.56750681
_cell_length_c   8.22333659
_cell_angle_alpha   105.16607656
_cell_angle_beta   89.79093157
_cell_angle_gamma   110.18891104
_symmetry_Int_Tables_number   1
_chemical_formula_structural   Ga2Te4O11
_chemical_formula_sum   'Ga2 Te4 O11'
_cell_volume   250.02764954
_cell_formula_units_Z   1
loop_
 _symmetry_equiv_pos_site_id
 _symmetry_equiv_pos_as_xyz
  1  'x, y, z'
loop_
 _atom_site_type_symbol
 _atom_site_label
 _atom_site_symmetry_multiplicity
 _atom_site_fract_x
 _atom_site_fract_y
 _atom_site_fract_z
 _atom_site_occupancy
  Ga  Ga0  1  0.39179125  0.57716721  0.60941959  1
  Ga  Ga1  1  0.09202354  0.96923883  0.98136910  1
  Te  Te0  1  0.36041670  0.59982858  0.18723982  1
  Te  Te1  1  0.68285950  0.18660612  0.26230232  1
  Te  Te2  1  0.14447019  0.00603563  0.59740131  1
  Te  Te3  1  0.81245598  0.43942182  0.80776960  1
  O  O0  1  0.43642854  0.17969211  0.09173224  1
  O  O1  1  0.97412331  0.44262731  0.18413775  1
  O  O2  1  0.82606752  0.97157831  0.13429974  1
  O  O3  1  0.47564712  0.54175609  0.38460623  1
  O  O4  1  0.08157029  0.12849985  0.82543387  1
  O  O5  1  0.01639667  0.40199582  0.61822950  1
  O  O6  1  0.44589489  0.26835196  0.59410456  1
  O  O7  1  0.35816821  0.88990298  0.30276065  1
  O  O8  1  0.37132235  0.87050261  0.66602477  1
  O  O9  1  0.12735082  0.68780352  0.94590382  1
  O  O10  1  0.70621009  0.67418926  0.76716614  1
loop_
_geom_bond_atom_site_label_1
_geom_bond_atom_site_label_2
_geom_bond_distance
_geom_bond_site_symmetry_2
Ga0 O3 1.869634 1_555
Ga0 O5 1.885608 1_555
Ga0 O10 1.888768 1_555
Ga0 O8 1.899797 1_555
Ga0 O6 2.112191 1_555
Ga1 O2 1.854214 1_456
Ga1 O4 1.866072 1_565
Ga1 O9 1.866341 1_555
Ga1 O0 1.878590 1_566
O0 Te1 1.873563 1_555
O1 Te0 1.890304 1_655
O1 Te1 2.073525 1_555
O2 Te1 1.891065 1_565
O3 Te0 1.901646 1_555
O4 Te2 1.911339 1_555
O5 Te3 1.884522 1_455
O6 Te2 1.883482 1_555
O6 Te3 2.328755 1_555
O7 Te0 1.897372 1_555
O7 Te1 2.186257 1_565
O8 Te2 1.857539 1_565
O9 Te3 1.946433 1_455
O10 Te3 1.907226 1_555
