# generated using pymatgen
data_K2BeS2
_symmetry_space_group_name_H-M   'P 1'
_cell_length_a   7.60116718
_cell_length_b   7.60116776
_cell_length_c   7.60116718
_cell_angle_alpha   135.42429922
_cell_angle_beta   128.72292820
_cell_angle_gamma   70.25231500
_symmetry_Int_Tables_number   1
_chemical_formula_structural   K2BeS2
_chemical_formula_sum   'K4 Be2 S4'
_cell_volume   235.78181859
_cell_formula_units_Z   2
loop_
 _symmetry_equiv_pos_site_id
 _symmetry_equiv_pos_as_xyz
  1  'x, y, z'
loop_
 _atom_site_type_symbol
 _atom_site_label
 _atom_site_symmetry_multiplicity
 _atom_site_fract_x
 _atom_site_fract_y
 _atom_site_fract_z
 _atom_site_occupancy
  K  K0  1  0.18512420  0.35428660  0.83083760  1
  K  K1  1  0.81487580  0.64571340  0.16916240  1
  K  K2  1  0.52344800  0.85428660  0.66916240  1
  K  K3  1  0.47655200  0.14571340  0.33083760  1
  Be  Be0  1  0.00000000  0.75000000  0.75000000  1
  Be  Be1  1  0.00000000  0.25000000  0.25000000  1
  S  S0  1  0.73617892  0.40557298  0.33060494  1
  S  S1  1  0.26382108  0.59442702  0.66939506  1
  S  S2  1  0.92503195  0.09442702  0.83060494  1
  S  S3  1  0.07496805  0.90557298  0.16939506  1
loop_
_geom_bond_atom_site_label_1
_geom_bond_atom_site_label_2
_geom_bond_distance
_geom_bond_site_symmetry_2
K0 S3 3.137680 1_545
K0 S3 3.137680 1_556
K0 S1 3.169079 1_555
K0 S2 3.231041 1_455
K0 S0 3.348716 1_556
K0 S0 3.351715 1_455
K1 S2 3.137680 1_565
K1 S2 3.137680 1_554
K1 S0 3.169079 1_555
K1 S3 3.231041 1_655
K1 S1 3.348716 1_554
K1 S1 3.351715 1_655
K2 S0 3.137680 1_566
K2 S0 3.137690 1_555
K2 S2 3.169091 1_565
K2 S1 3.231041 1_555
K2 S3 3.348710 1_555
K2 S3 3.351721 1_656
K3 S1 3.137680 1_544
K3 S1 3.137690 1_555
K3 S3 3.169091 1_545
K3 S0 3.231041 1_555
K3 S2 3.348710 1_555
K3 S2 3.351721 1_454
Be0 S1 2.167419 1_555
Be0 S0 2.167423 1_455
Be0 S3 2.167426 1_556
Be0 S2 2.167426 1_465
Be0 K1 3.177442 1_455
Be0 K0 3.177442 1_555
Be0 K3 3.177446 1_566
Be0 K2 3.177449 1_455
Be1 S0 2.167419 1_455
Be1 S1 2.167423 1_555
Be1 S2 2.167426 1_454
Be1 S3 2.167426 1_545
Be1 K0 3.177442 1_555
Be1 K1 3.177442 1_455
Be1 K2 3.177446 1_444
Be1 K3 3.177449 1_555
