# generated using pymatgen
data_Zr6Al7(CuPd)8
_symmetry_space_group_name_H-M   'P 1'
_cell_length_a   8.54699295
_cell_length_b   8.54699342
_cell_length_c   8.54699328
_cell_angle_alpha   60.00000053
_cell_angle_beta   59.99999870
_cell_angle_gamma   59.99999438
_symmetry_Int_Tables_number   1
_chemical_formula_structural   Zr6Al7(CuPd)8
_chemical_formula_sum   'Zr6 Al7 Cu8 Pd8'
_cell_volume   441.49425706
_cell_formula_units_Z   1
loop_
 _symmetry_equiv_pos_site_id
 _symmetry_equiv_pos_as_xyz
  1  'x, y, z'
loop_
 _atom_site_type_symbol
 _atom_site_label
 _atom_site_symmetry_multiplicity
 _atom_site_fract_x
 _atom_site_fract_y
 _atom_site_fract_z
 _atom_site_occupancy
  Zr  Zr0  1  0.70207511  0.70207511  0.29792489  1
  Zr  Zr1  1  0.29792489  0.70207511  0.29792489  1
  Zr  Zr2  1  0.70207511  0.29792489  0.29792489  1
  Zr  Zr3  1  0.29792489  0.29792489  0.70207511  1
  Zr  Zr4  1  0.70207511  0.29792489  0.70207511  1
  Zr  Zr5  1  0.29792489  0.70207511  0.70207511  1
  Al  Al0  1  0.00000000  0.00000000  0.00000000  1
  Al  Al1  1  0.00000000  0.00000000  0.50000000  1
  Al  Al2  1  0.50000000  0.00000000  0.50000000  1
  Al  Al3  1  0.00000000  0.50000000  0.50000000  1
  Al  Al4  1  0.50000000  0.50000000  0.00000000  1
  Al  Al5  1  0.00000000  0.50000000  0.00000000  1
  Al  Al6  1  0.50000000  0.00000000  0.00000000  1
  Cu  Cu0  1  0.66898433  0.66898433  0.99304701  1
  Cu  Cu1  1  0.66898433  0.99304701  0.66898433  1
  Cu  Cu2  1  0.99304701  0.66898433  0.66898433  1
  Cu  Cu3  1  0.66898433  0.66898433  0.66898433  1
  Cu  Cu4  1  0.33101567  0.33101567  0.00695299  1
  Cu  Cu5  1  0.33101567  0.00695299  0.33101567  1
  Cu  Cu6  1  0.00695299  0.33101567  0.33101567  1
  Cu  Cu7  1  0.33101567  0.33101567  0.33101567  1
  Pd  Pd0  1  0.88011877  0.88011877  0.35964570  1
  Pd  Pd1  1  0.88011877  0.35964570  0.88011877  1
  Pd  Pd2  1  0.35964570  0.88011877  0.88011877  1
  Pd  Pd3  1  0.88011877  0.88011877  0.88011877  1
  Pd  Pd4  1  0.11988123  0.11988123  0.64035430  1
  Pd  Pd5  1  0.11988123  0.64035430  0.11988123  1
  Pd  Pd6  1  0.64035430  0.11988123  0.11988123  1
  Pd  Pd7  1  0.11988123  0.11988123  0.11988123  1
loop_
_geom_bond_atom_site_label_1
_geom_bond_atom_site_label_2
_geom_bond_distance
_geom_bond_site_symmetry_2
Al0 Pd7 2.509806 1_555
Al0 Pd3 2.509806 1_444
Al0 Pd2 2.509820 1_544
Al0 Pd6 2.509820 1_455
Al0 Pd1 2.509820 1_454
Al0 Pd5 2.509820 1_545
Al0 Pd0 2.509820 1_445
Al0 Pd4 2.509820 1_554
Al1 Cu5 2.467781 1_555
Al1 Cu1 2.467781 1_445
Al1 Cu6 2.467782 1_555
Al1 Cu2 2.467782 1_445
Al1 Pd4 2.654602 1_555
Al1 Pd0 2.654602 1_445
Al1 Pd3 2.654617 1_445
Al1 Pd7 2.654617 1_555
Al2 Cu7 2.467781 1_555
Al2 Cu3 2.467781 1_545
Al2 Cu1 2.467781 1_545
Al2 Cu5 2.467781 1_555
Al2 Pd0 2.654616 1_545
Al2 Pd4 2.654616 1_555
Al2 Pd2 2.654616 1_545
Al2 Pd6 2.654616 1_555
Al3 Cu3 2.467781 1_455
Al3 Cu7 2.467781 1_555
Al3 Cu6 2.467782 1_555
Al3 Cu2 2.467782 1_455
Al3 Pd0 2.654616 1_455
Al3 Pd4 2.654616 1_555
Al3 Pd1 2.654616 1_455
Al3 Pd5 2.654616 1_555
Al4 Cu4 2.467782 1_555
Al4 Cu7 2.467782 1_555
Al4 Cu0 2.467782 1_554
Al4 Cu3 2.467782 1_554
Al4 Pd1 2.654616 1_554
Al4 Pd5 2.654616 1_555
Al4 Pd2 2.654616 1_554
Al4 Pd6 2.654616 1_555
Al5 Cu0 2.467781 1_454
Al5 Cu4 2.467781 1_555
Al5 Cu2 2.467782 1_454
Al5 Cu6 2.467782 1_555
Al5 Pd5 2.654602 1_555
Al5 Pd1 2.654602 1_454
Al5 Pd3 2.654617 1_454
Al5 Pd7 2.654617 1_555
Al6 Cu4 2.467781 1_555
Al6 Cu0 2.467781 1_544
Al6 Cu5 2.467781 1_555
Al6 Cu1 2.467781 1_544
Al6 Pd6 2.654602 1_555
Al6 Pd2 2.654602 1_544
Al6 Pd3 2.654617 1_544
Al6 Pd7 2.654617 1_555
Cu0 Pd2 2.686516 1_555
Cu0 Pd1 2.686516 1_555
Cu0 Pd3 2.686530 1_555
Cu0 Zr1 2.916176 1_556
Cu0 Zr0 2.916176 1_556
Cu0 Zr2 2.916176 1_556
Cu1 Pd0 2.686516 1_555
Cu1 Pd2 2.686516 1_555
Cu1 Pd3 2.686530 1_555
Cu1 Zr3 2.916176 1_565
Cu1 Zr2 2.916176 1_565
Cu1 Zr4 2.916176 1_565
Cu2 Pd0 2.686516 1_555
Cu2 Pd1 2.686516 1_555
Cu2 Pd3 2.686530 1_555
Cu2 Zr3 2.916176 1_655
Cu2 Zr5 2.916176 1_655
Cu2 Zr1 2.916176 1_655
Cu3 Pd2 2.686525 1_555
Cu3 Pd1 2.686525 1_555
Cu3 Pd0 2.686525 1_555
Cu3 Zr5 2.916176 1_555
Cu3 Zr0 2.916176 1_555
Cu3 Zr4 2.916176 1_555
Cu4 Pd6 2.686516 1_555
Cu4 Pd5 2.686516 1_555
Cu4 Pd7 2.686530 1_555
Cu4 Zr4 2.916176 1_554
Cu4 Zr3 2.916176 1_554
Cu4 Zr5 2.916176 1_554
Cu5 Pd4 2.686516 1_555
Cu5 Pd6 2.686516 1_555
Cu5 Pd7 2.686530 1_555
Cu5 Zr0 2.916176 1_545
Cu5 Zr1 2.916176 1_545
Cu5 Zr5 2.916176 1_545
Cu6 Pd4 2.686516 1_555
Cu6 Pd5 2.686516 1_555
Cu6 Pd7 2.686530 1_555
Cu6 Zr0 2.916176 1_455
Cu6 Zr4 2.916176 1_455
Cu6 Zr2 2.916176 1_455
Cu7 Pd6 2.686525 1_555
Cu7 Pd5 2.686525 1_555
Cu7 Pd4 2.686525 1_555
Cu7 Zr2 2.916176 1_555
Cu7 Zr3 2.916176 1_555
Cu7 Zr1 2.916176 1_555
Pd0 Zr1 2.971661 1_655
Pd0 Zr2 2.971662 1_565
Pd0 Zr0 2.971676 1_555
Pd1 Zr3 2.971662 1_655
Pd1 Zr2 2.971662 1_556
Pd1 Zr4 2.971676 1_555
Pd2 Zr3 2.971662 1_565
Pd2 Zr1 2.971662 1_556
Pd2 Zr5 2.971676 1_555
Pd3 Zr5 2.971664 1_655
Pd3 Zr4 2.971665 1_565
Pd3 Zr0 2.971665 1_556
Pd4 Zr4 2.971661 1_455
Pd4 Zr5 2.971662 1_545
Pd4 Zr3 2.971676 1_555
Pd5 Zr0 2.971662 1_455
Pd5 Zr5 2.971662 1_554
Pd5 Zr1 2.971676 1_555
Pd6 Zr0 2.971662 1_545
Pd6 Zr4 2.971662 1_554
Pd6 Zr2 2.971676 1_555
Pd7 Zr2 2.971664 1_455
Pd7 Zr1 2.971665 1_545
Pd7 Zr3 2.971665 1_554
