# generated using pymatgen
data_Zr3ScMo8
_symmetry_space_group_name_H-M   'P 1'
_cell_length_a   9.30926079
_cell_length_b   9.30926116
_cell_length_c   9.30926172
_cell_angle_alpha   33.49273920
_cell_angle_beta   33.49273372
_cell_angle_gamma   33.49274197
_symmetry_Int_Tables_number   1
_chemical_formula_structural   Zr3ScMo8
_chemical_formula_sum   'Zr3 Sc1 Mo8'
_cell_volume   218.80394930
_cell_formula_units_Z   1
loop_
 _symmetry_equiv_pos_site_id
 _symmetry_equiv_pos_as_xyz
  1  'x, y, z'
loop_
 _atom_site_type_symbol
 _atom_site_label
 _atom_site_symmetry_multiplicity
 _atom_site_fract_x
 _atom_site_fract_y
 _atom_site_fract_z
 _atom_site_occupancy
  Zr  Zr0  1  0.62490898  0.62490898  0.62490898  1
  Zr  Zr1  1  0.00008335  0.00008335  0.00008335  1
  Zr  Zr2  1  0.49991368  0.49991368  0.49991368  1
  Sc  Sc0  1  0.12514966  0.12514966  0.12514966  1
  Mo  Mo0  1  0.56262816  0.06251214  0.56262816  1
  Mo  Mo1  1  0.06251897  0.56220378  0.06251897  1
  Mo  Mo2  1  0.06251214  0.56262816  0.56262816  1
  Mo  Mo3  1  0.56220378  0.06251897  0.06251897  1
  Mo  Mo4  1  0.81252835  0.81252835  0.81252835  1
  Mo  Mo5  1  0.31240581  0.31240581  0.31240581  1
  Mo  Mo6  1  0.56262816  0.56262816  0.06251214  1
  Mo  Mo7  1  0.06251897  0.06251897  0.56220378  1
loop_
_geom_bond_atom_site_label_1
_geom_bond_atom_site_label_2
_geom_bond_distance
_geom_bond_site_symmetry_2
Zr0 Zr1 3.287475 1_665
Zr0 Zr1 3.287475 1_566
Zr0 Zr1 3.287476 1_656
Zr0 Zr2 3.291965 1_555
Sc0 Zr2 3.283868 1_554
Sc0 Zr2 3.283869 1_455
Sc0 Zr2 3.283869 1_545
Sc0 Zr1 3.293836 1_555
Mo0 Mo6 2.681707 1_546
Mo0 Mo2 2.681707 1_645
Mo0 Mo6 2.682952 1_555
Mo0 Mo2 2.682952 1_555
Mo0 Mo4 2.684575 1_545
Mo0 Mo5 2.690259 1_555
Mo0 Zr2 3.146476 1_555
Mo0 Zr1 3.147202 1_556
Mo0 Zr1 3.147203 1_655
Mo0 Sc0 3.147947 1_655
Mo0 Sc0 3.147948 1_556
Mo0 Zr0 3.154295 1_545
Mo1 Mo7 2.680639 1_555
Mo1 Mo3 2.680639 1_555
Mo1 Mo7 2.684020 1_564
Mo1 Mo3 2.684021 1_465
Mo1 Mo4 2.684199 1_454
Mo1 Mo5 2.685361 1_555
Mo1 Sc0 3.144444 1_555
Mo1 Zr0 3.147050 1_554
Mo1 Zr0 3.147051 1_455
Mo1 Zr2 3.147121 1_455
Mo1 Zr2 3.147122 1_554
Mo1 Zr1 3.154697 1_565
Mo2 Mo6 2.681707 1_456
Mo2 Mo6 2.682951 1_555
Mo2 Mo4 2.684575 1_455
Mo2 Mo5 2.690258 1_555
Mo2 Zr2 3.146476 1_555
Mo2 Zr1 3.147203 1_556
Mo2 Zr1 3.147203 1_565
Mo2 Sc0 3.147947 1_565
Mo2 Sc0 3.147948 1_556
Mo2 Zr0 3.154295 1_455
Mo3 Mo7 2.680638 1_555
Mo3 Mo7 2.684020 1_654
Mo3 Mo4 2.684199 1_544
Mo3 Mo5 2.685360 1_555
Mo3 Sc0 3.144444 1_555
Mo3 Zr0 3.147050 1_554
Mo3 Zr0 3.147051 1_545
Mo3 Zr2 3.147121 1_545
Mo3 Zr2 3.147122 1_554
Mo3 Zr1 3.154696 1_655
Mo4 Mo7 2.684199 1_665
Mo4 Mo6 2.684574 1_556
Mo4 Sc0 3.144955 1_566
Mo4 Sc0 3.144955 1_665
Mo4 Sc0 3.144956 1_656
Mo4 Zr2 3.144985 1_655
Mo4 Zr2 3.144986 1_556
Mo4 Zr2 3.144986 1_565
Mo5 Mo7 2.685360 1_555
Mo5 Mo6 2.690258 1_555
Mo5 Zr0 3.145496 1_455
Mo5 Zr0 3.145496 1_554
Mo5 Zr0 3.145497 1_545
Mo5 Zr1 3.146330 1_655
Mo5 Zr1 3.146330 1_556
Mo5 Zr1 3.146330 1_565
Mo6 Zr2 3.146476 1_555
Mo6 Zr1 3.147203 1_565
Mo6 Zr1 3.147203 1_655
Mo6 Sc0 3.147948 1_655
Mo6 Sc0 3.147948 1_565
Mo6 Zr0 3.154295 1_554
Mo7 Sc0 3.144445 1_555
Mo7 Zr0 3.147051 1_545
Mo7 Zr0 3.147051 1_455
Mo7 Zr2 3.147122 1_455
Mo7 Zr2 3.147122 1_545
Mo7 Zr1 3.154697 1_556
