# generated using pymatgen
data_Zr10GaB2Sb5
_symmetry_space_group_name_H-M   'P 1'
_cell_length_a   8.46068777
_cell_length_b   8.46068589
_cell_length_c   5.76977463
_cell_angle_alpha   90.00000000
_cell_angle_beta   90.00000000
_cell_angle_gamma   120.20024215
_symmetry_Int_Tables_number   1
_chemical_formula_structural   Zr10GaB2Sb5
_chemical_formula_sum   'Zr10 Ga1 B2 Sb5'
_cell_volume   356.96108501
_cell_formula_units_Z   1
loop_
 _symmetry_equiv_pos_site_id
 _symmetry_equiv_pos_as_xyz
  1  'x, y, z'
loop_
 _atom_site_type_symbol
 _atom_site_label
 _atom_site_symmetry_multiplicity
 _atom_site_fract_x
 _atom_site_fract_y
 _atom_site_fract_z
 _atom_site_occupancy
  Zr  Zr0  1  0.66384957  0.33411334  0.49729669  1
  Zr  Zr1  1  0.33411334  0.66384957  0.49729669  1
  Zr  Zr2  1  0.33411334  0.66384957  0.00270331  1
  Zr  Zr3  1  0.66384957  0.33411334  0.00270331  1
  Zr  Zr4  1  0.76190812  0.76190812  0.25000000  1
  Zr  Zr5  1  0.23818152  0.00897498  0.25000000  1
  Zr  Zr6  1  0.00897498  0.23818152  0.25000000  1
  Zr  Zr7  1  0.23240969  0.23240969  0.75000000  1
  Zr  Zr8  1  0.76582926  0.99825653  0.75000000  1
  Zr  Zr9  1  0.99825653  0.76582926  0.75000000  1
  Ga  Ga0  1  0.40080009  0.40080009  0.25000000  1
  B  B0  1  0.99979281  0.99979281  0.49854535  1
  B  B1  1  0.99979281  0.99979281  0.00145465  1
  Sb  Sb0  1  0.60457538  0.00145685  0.25000000  1
  Sb  Sb1  1  0.00145685  0.60457538  0.25000000  1
  Sb  Sb2  1  0.59450424  0.59450424  0.75000000  1
  Sb  Sb3  1  0.39815599  0.99943489  0.75000000  1
  Sb  Sb4  1  0.99943489  0.39815599  0.75000000  1
loop_
_geom_bond_atom_site_label_1
_geom_bond_atom_site_label_2
_geom_bond_distance
_geom_bond_site_symmetry_2
Ga0 Zr5 2.879970 1_555
Ga0 Zr6 2.879971 1_555
Ga0 Zr1 2.927581 1_555
Ga0 Zr2 2.927581 1_555
Ga0 Zr0 2.927582 1_555
Ga0 Zr3 2.927582 1_555
Ga0 Zr4 3.045970 1_555
Ga0 Zr7 3.215597 1_555
Ga0 Zr7 3.215597 1_554
B0 Zr7 2.440270 1_665
B0 Zr6 2.443954 1_665
B0 Zr5 2.443955 1_665
B0 Zr9 2.449000 1_555
B0 Zr8 2.449000 1_555
B0 Zr4 2.466341 1_555
B1 Zr7 2.440270 1_664
B1 Zr6 2.443954 1_665
B1 Zr5 2.443955 1_665
B1 Zr9 2.449000 1_554
B1 Zr8 2.449000 1_554
B1 Zr4 2.466341 1_555
Sb0 Zr4 2.931527 1_545
Sb0 Zr0 2.964592 1_555
Sb0 Zr3 2.964592 1_555
Sb0 Zr6 2.970501 1_655
Sb0 Zr1 2.975795 1_545
Sb0 Zr2 2.975795 1_545
Sb0 Zr5 3.132423 1_555
Sb0 Zr8 3.197161 1_545
Sb0 Zr8 3.197161 1_544
Sb1 Zr4 2.931527 1_455
Sb1 Zr1 2.964593 1_555
Sb1 Zr2 2.964593 1_555
Sb1 Zr5 2.970500 1_565
Sb1 Zr0 2.975795 1_455
Sb1 Zr3 2.975795 1_455
Sb1 Zr6 3.132422 1_555
Sb1 Zr9 3.197161 1_454
Sb1 Zr9 3.197161 1_455
Sb2 Zr3 2.936679 1_556
Sb2 Zr0 2.936679 1_555
Sb2 Zr2 2.936680 1_556
Sb2 Zr1 2.936680 1_555
Sb2 Zr8 2.964586 1_555
Sb2 Zr9 2.964587 1_555
Sb2 Zr7 3.054292 1_555
Sb2 Zr4 3.211930 1_555
Sb2 Zr4 3.211930 1_556
Sb3 Zr9 2.937059 1_455
Sb3 Zr7 2.938153 1_565
Sb3 Zr3 2.965361 1_566
Sb3 Zr0 2.965361 1_565
Sb3 Zr2 2.988854 1_556
Sb3 Zr1 2.988854 1_555
Sb3 Zr8 3.115796 1_555
Sb3 Zr5 3.204831 1_565
Sb3 Zr5 3.204831 1_566
Sb4 Zr8 2.937058 1_545
Sb4 Zr7 2.938153 1_655
Sb4 Zr2 2.965361 1_656
Sb4 Zr1 2.965361 1_655
Sb4 Zr3 2.988855 1_556
Sb4 Zr0 2.988855 1_555
Sb4 Zr9 3.115795 1_555
Sb4 Zr6 3.204831 1_656
Sb4 Zr6 3.204831 1_655
