# generated using pymatgen
data_Nb4SiB2W
_symmetry_space_group_name_H-M   'P 1'
_cell_length_a   7.28316973
_cell_length_b   7.28316988
_cell_length_c   7.28317051
_cell_angle_alpha   129.60809681
_cell_angle_beta   129.60810006
_cell_angle_gamma   74.03407182
_symmetry_Int_Tables_number   1
_chemical_formula_structural   Nb4SiB2W
_chemical_formula_sum   'Nb8 Si2 B4 W2'
_cell_volume   223.62030114
_cell_formula_units_Z   2
loop_
 _symmetry_equiv_pos_site_id
 _symmetry_equiv_pos_as_xyz
  1  'x, y, z'
loop_
 _atom_site_type_symbol
 _atom_site_label
 _atom_site_symmetry_multiplicity
 _atom_site_fract_x
 _atom_site_fract_y
 _atom_site_fract_z
 _atom_site_occupancy
  Nb  Nb0  1  0.80707291  0.30707291  0.83718786  1
  Nb  Nb1  1  0.19292709  0.69292709  0.16281214  1
  Nb  Nb2  1  0.46988405  0.96988405  0.16281214  1
  Nb  Nb3  1  0.30707291  0.46988405  0.50000000  1
  Nb  Nb4  1  0.03011595  0.19292709  0.50000000  1
  Nb  Nb5  1  0.53011595  0.03011595  0.83718786  1
  Nb  Nb6  1  0.69292709  0.53011595  0.50000000  1
  Nb  Nb7  1  0.96988405  0.80707291  0.50000000  1
  Si  Si0  1  0.25000000  0.25000000  0.00000000  1
  Si  Si1  1  0.75000000  0.75000000  0.00000000  1
  B  B0  1  0.11765383  0.61765383  0.73530766  1
  B  B1  1  0.88234617  0.38234617  0.26469234  1
  B  B2  1  0.61765383  0.88234617  0.50000000  1
  B  B3  1  0.38234617  0.11765383  0.50000000  1
  W  W0  1  0.00000000  0.00000000  0.00000000  1
  W  W1  1  0.50000000  0.50000000  0.00000000  1
loop_
_geom_bond_atom_site_label_1
_geom_bond_atom_site_label_2
_geom_bond_distance
_geom_bond_site_symmetry_2
Nb0 Si0 2.645514 1_656
Nb0 Si1 2.645514 1_556
Nb0 W0 2.812543 1_656
Nb0 W1 2.812543 1_556
Nb1 Si1 2.645514 1_455
Nb1 Si0 2.645514 1_555
Nb1 W0 2.812543 1_565
Nb1 W1 2.812543 1_555
Nb2 Si0 2.645520 1_565
Nb2 Si1 2.645520 1_555
Nb2 W0 2.812536 1_565
Nb2 W1 2.812536 1_555
Nb3 Si1 2.645515 1_556
Nb3 Si0 2.645516 1_555
Nb3 W0 2.812538 1_555
Nb3 W1 2.812539 1_556
Nb4 Si1 2.645515 1_445
Nb4 Si0 2.645516 1_556
Nb4 W1 2.812538 1_556
Nb4 W0 2.812539 1_555
Nb5 Si1 2.645520 1_546
Nb5 Si0 2.645520 1_556
Nb5 W0 2.812536 1_656
Nb5 W1 2.812536 1_556
Nb6 Si0 2.645515 1_555
Nb6 Si1 2.645516 1_556
Nb6 W0 2.812538 1_666
Nb6 W1 2.812539 1_555
Nb7 Si0 2.645515 1_666
Nb7 Si1 2.645516 1_555
Nb7 W1 2.812538 1_555
Nb7 W0 2.812539 1_666
Si0 W1 2.907647 1_555
Si0 W0 2.907647 1_555
Si1 W1 2.907647 1_555
Si1 W0 2.907647 1_665
B0 B1 2.063578 1_455
B0 Nb6 2.417562 1_455
B0 Nb4 2.417562 1_555
B0 Nb7 2.417562 1_455
B0 Nb3 2.417562 1_555
B0 Nb2 2.471412 1_556
B0 Nb1 2.471421 1_556
B0 W1 2.480686 1_556
B0 W0 2.480686 1_566
B1 Nb3 2.417562 1_655
B1 Nb7 2.417562 1_555
B1 Nb4 2.417562 1_655
B1 Nb6 2.417562 1_555
B1 Nb5 2.471412 1_554
B1 Nb0 2.471421 1_554
B1 W1 2.480686 1_555
B1 W0 2.480686 1_655
B2 B3 2.063578 1_565
B2 Nb2 2.417556 1_555
B2 Nb5 2.417556 1_565
B2 Nb1 2.417563 1_555
B2 Nb0 2.417563 1_565
B2 Nb7 2.471413 1_555
B2 Nb6 2.471413 1_555
B2 W0 2.480686 1_666
B2 W1 2.480686 1_555
B3 Nb5 2.417556 1_555
B3 Nb2 2.417556 1_545
B3 Nb0 2.417563 1_555
B3 Nb1 2.417563 1_545
B3 Nb4 2.471413 1_555
B3 Nb3 2.471413 1_555
B3 W0 2.480686 1_555
B3 W1 2.480686 1_556
