# generated using pymatgen
data_CaAu2(SO4)4
_symmetry_space_group_name_H-M   'P 1'
_cell_length_a   6.35780884
_cell_length_b   6.35780892
_cell_length_c   8.66933375
_cell_angle_alpha   75.34875578
_cell_angle_beta   75.34875701
_cell_angle_gamma   89.18818313
_symmetry_Int_Tables_number   1
_chemical_formula_structural   CaAu2(SO4)4
_chemical_formula_sum   'Ca1 Au2 S4 O16'
_cell_volume   327.54571731
_cell_formula_units_Z   1
loop_
 _symmetry_equiv_pos_site_id
 _symmetry_equiv_pos_as_xyz
  1  'x, y, z'
loop_
 _atom_site_type_symbol
 _atom_site_label
 _atom_site_symmetry_multiplicity
 _atom_site_fract_x
 _atom_site_fract_y
 _atom_site_fract_z
 _atom_site_occupancy
  Ca  Ca0  1  0.00000000  0.00000000  0.00000000  1
  Au  Au0  1  0.00000000  0.00000000  0.50000000  1
  Au  Au1  1  0.50000000  0.50000000  0.50000000  1
  S  S0  1  0.08519809  0.58646313  0.74171401  1
  S  S1  1  0.58646313  0.08519809  0.74171401  1
  S  S2  1  0.91480191  0.41353687  0.25828599  1
  S  S3  1  0.41353687  0.91480191  0.25828599  1
  O  O0  1  0.33048873  0.63557265  0.67463489  1
  O  O1  1  0.63557265  0.33048873  0.67463489  1
  O  O2  1  0.66951127  0.36442735  0.32536511  1
  O  O3  1  0.36442735  0.66951127  0.32536511  1
  O  O4  1  0.01869476  0.70341747  0.86569193  1
  O  O5  1  0.70341747  0.01869476  0.86569193  1
  O  O6  1  0.98130524  0.29658253  0.13430807  1
  O  O7  1  0.29658253  0.98130524  0.13430807  1
  O  O8  1  0.98279939  0.67683997  0.59784486  1
  O  O9  1  0.67683997  0.98279939  0.59784486  1
  O  O10  1  0.01720061  0.32316003  0.40215514  1
  O  O11  1  0.32316003  0.01720061  0.40215514  1
  O  O12  1  0.03366178  0.35652309  0.78981511  1
  O  O13  1  0.35652309  0.03366178  0.78981511  1
  O  O14  1  0.96633822  0.64347691  0.21018489  1
  O  O15  1  0.64347691  0.96633822  0.21018489  1
loop_
_geom_bond_atom_site_label_1
_geom_bond_atom_site_label_2
_geom_bond_distance
_geom_bond_site_symmetry_2
Ca0 O7 2.441251 1_545
Ca0 O5 2.441251 1_454
Ca0 O6 2.441251 1_455
Ca0 O4 2.441251 1_544
Ca0 O12 2.496219 1_554
Ca0 O14 2.496219 1_445
Ca0 O15 2.496219 1_445
Ca0 O13 2.496219 1_554
Au0 O11 2.007644 1_555
Au0 O9 2.007644 1_445
Au0 O10 2.007644 1_555
Au0 O8 2.007644 1_445
Au1 O1 2.001237 1_555
Au1 O3 2.001237 1_555
Au1 O0 2.001237 1_555
Au1 O2 2.001237 1_555
O0 S0 1.526732 1_555
O1 S1 1.526732 1_555
O2 S2 1.526732 1_555
O3 S3 1.526732 1_555
O4 S0 1.432611 1_555
O5 S1 1.432610 1_555
O6 S2 1.432611 1_555
O7 S3 1.432610 1_555
O8 S0 1.532078 1_655
O9 S1 1.532078 1_565
O10 S2 1.532078 1_455
O11 S3 1.532078 1_545
O12 S0 1.433357 1_555
O13 S1 1.433357 1_555
O14 S2 1.433357 1_555
O15 S3 1.433357 1_555
