# generated using pymatgen
data_Ti(NO3)4
_symmetry_space_group_name_H-M   'P 1'
_cell_length_a   13.52700290
_cell_length_b   7.70340635
_cell_length_c   10.20757669
_cell_angle_alpha   55.32637552
_cell_angle_beta   90.00009618
_cell_angle_gamma   90.00011388
_symmetry_Int_Tables_number   1
_chemical_formula_structural   Ti(NO3)4
_chemical_formula_sum   'Ti4 N16 O48'
_cell_volume   874.76887112
_cell_formula_units_Z   4
loop_
 _symmetry_equiv_pos_site_id
 _symmetry_equiv_pos_as_xyz
  1  'x, y, z'
loop_
 _atom_site_type_symbol
 _atom_site_label
 _atom_site_symmetry_multiplicity
 _atom_site_fract_x
 _atom_site_fract_y
 _atom_site_fract_z
 _atom_site_occupancy
  Ti  Ti0  1  0.67160499  0.18027767  0.53918565  1
  Ti  Ti1  1  0.17160564  0.81972378  0.96081279  1
  Ti  Ti2  1  0.32839285  0.81972101  0.46081362  1
  Ti  Ti3  1  0.82839561  0.18027716  0.03918784  1
  N  N0  1  0.93394663  0.49108382  0.84219972  1
  N  N1  1  0.74424220  0.86551226  0.55893519  1
  N  N2  1  0.24424132  0.13449197  0.94106199  1
  N  N3  1  0.25575839  0.13448938  0.44106205  1
  N  N4  1  0.75575792  0.86551250  0.05893615  1
  N  N5  1  0.43394480  0.50891652  0.65780365  1
  N  N6  1  0.06605489  0.50891631  0.15780418  1
  N  N7  1  0.56605331  0.49108308  0.34219925  1
  N  N8  1  0.67541447  0.40121362  0.96992985  1
  N  N9  1  0.17541290  0.59878043  0.53007479  1
  N  N10  1  0.32458607  0.59878441  0.03007800  1
  N  N11  1  0.82458567  0.40121713  0.46992544  1
  N  N12  1  0.94824187  -0.00634401  0.26835969  1
  N  N13  1  0.44823702  0.00634278  0.23163705  1
  N  N14  1  0.05176271  0.00634467  0.73163547  1
  N  N15  1  0.55176032  -0.00634437  0.76835865  1
  O  O0  1  0.13307713  0.91925593  0.72982503  1
  O  O1  1  0.71802841  0.71879958  0.06747144  1
  O  O2  1  0.21803137  0.28120686  0.43252502  1
  O  O3  1  0.28196936  0.28120710  0.93252689  1
  O  O4  1  0.91439990  0.33634137  0.83151826  1
  O  O5  1  0.41439848  0.66365992  0.66848359  1
  O  O6  1  0.08559991  0.66366143  0.16848254  1
  O  O7  1  0.58559828  0.33633911  0.33151950  1
  O  O8  1  0.89407864  0.46323454  0.96968642  1
  O  O9  1  0.39407539  0.53676322  0.53031849  1
  O  O10  1  0.10592549  0.53676221  0.03032080  1
  O  O11  1  0.60592239  0.46323525  0.46968433  1
  O  O12  1  0.98204128  0.64265252  0.74820014  1
  O  O13  1  0.48204064  0.35735050  0.75180128  1
  O  O14  1  0.01795933  0.35734990  0.25180254  1
  O  O15  1  0.51795912  0.64265148  0.24819992  1
  O  O16  1  0.71719048  0.35500868  0.87788597  1
  O  O17  1  0.21718783  0.64498705  0.62211690  1
  O  O18  1  0.28281084  0.64499327  0.12211811  1
  O  O19  1  0.78280960  0.35501165  0.37788187  1
  O  O20  1  0.71813119  0.30449312  0.10691682  1
  O  O21  1  0.21812950  0.69550009  0.39308871  1
  O  O22  1  0.28187166  0.69550462  0.89309000  1
  O  O23  1  0.78186888  0.30449496  0.60691307  1
  O  O24  1  0.60732761  0.52057874  0.92950418  1
  O  O25  1  0.10732574  0.47941499  0.57049940  1
  O  O26  1  0.39267075  0.47941279  0.07050788  1
  O  O27  1  0.89267252  0.52058223  0.42950036  1
  O  O28  1  0.86692842  0.08074287  0.27017583  1
  O  O29  1  0.36692166  0.91925482  0.22982586  1
  O  O30  1  0.78197195  0.71879806  0.56747231  1
  O  O31  1  0.63307338  0.08074437  0.77017306  1
  O  O32  1  0.95941039  0.01695741  0.13228198  1
  O  O33  1  0.45940972  0.98304138  0.36771416  1
  O  O34  1  0.04058945  0.98304304  0.86771179  1
  O  O35  1  0.68354720  -0.00409933  0.44917418  1
  O  O36  1  0.00542870  0.90434369  0.37640958  1
  O  O37  1  0.50541998  0.09565853  0.12358083  1
  O  O38  1  -0.00541962  0.09566034  0.62357855  1
  O  O39  1  0.49457495  0.90434238  0.87641058  1
  O  O40  1  0.73967085  0.91354728  0.16095940  1
  O  O41  1  0.23966734  0.08645255  0.33904062  1
  O  O42  1  0.26033221  0.08645485  0.83904029  1
  O  O43  1  0.76032981  0.91354870  0.66095891  1
  O  O44  1  0.81645337  -0.00409844  0.94917640  1
  O  O45  1  0.31645358  0.00410065  0.55082216  1
  O  O46  1  0.18354469  0.00410298  0.05082096  1
  O  O47  1  0.54059068  0.01695465  0.63228309  1
loop_
_geom_bond_atom_site_label_1
_geom_bond_atom_site_label_2
_geom_bond_distance
_geom_bond_site_symmetry_2
N0 O12 1.196864 1_555
N0 O4 1.284776 1_555
N0 O8 1.308692 1_555
N1 O30 1.197231 1_555
N1 O35 1.287559 1_565
N1 O43 1.306640 1_555
N2 O3 1.197236 1_555
N2 O46 1.287565 1_556
N2 O42 1.306632 1_555
N3 O2 1.197239 1_555
N3 O45 1.287558 1_555
N3 O41 1.306628 1_555
N4 O1 1.197228 1_555
N4 O44 1.287559 1_564
N4 O40 1.306626 1_555
N5 O13 1.196858 1_555
N5 O5 1.284773 1_555
N5 O9 1.308692 1_555
N6 O14 1.196859 1_555
N6 O6 1.284772 1_555
N6 O10 1.308686 1_555
N7 O15 1.196860 1_555
N7 O7 1.284772 1_555
N7 O11 1.308686 1_555
N8 O24 1.196800 1_555
N8 O20 1.287971 1_556
N8 O16 1.307395 1_555
N9 O25 1.196804 1_555
N9 O21 1.287964 1_555
N9 O17 1.307379 1_555
N10 O26 1.196802 1_555
N10 O22 1.287965 1_554
N10 O18 1.307377 1_555
N11 O27 1.196799 1_555
N11 O23 1.287977 1_555
N11 O19 1.307393 1_555
N12 O36 1.193658 1_645
N12 O28 1.293985 1_555
N12 O32 1.304126 1_555
N13 O37 1.193664 1_555
N13 O29 1.293994 1_545
N13 O33 1.304126 1_545
N14 O38 1.193662 1_555
N14 O0 1.293986 1_545
N14 O34 1.304118 1_545
N15 O39 1.193658 1_545
N15 O31 1.293981 1_555
N15 O47 1.304114 1_555
O0 Ti1 2.088514 1_555
O4 Ti3 2.095877 1_556
O5 Ti2 2.095889 1_555
O6 Ti1 2.095889 1_554
O7 Ti0 2.095870 1_555
O8 Ti3 2.069899 1_556
O9 Ti2 2.069892 1_555
O10 Ti1 2.069893 1_554
O11 Ti0 2.069901 1_555
O16 Ti3 2.064934 1_556
O17 Ti2 2.064943 1_555
O18 Ti1 2.064948 1_554
O19 Ti0 2.064941 1_555
O20 Ti3 2.090698 1_555
O21 Ti2 2.090684 1_555
O22 Ti1 2.090692 1_555
O23 Ti0 2.090686 1_555
O28 Ti3 2.088527 1_555
O29 Ti2 2.088513 1_555
O31 Ti0 2.088520 1_555
O32 Ti3 2.065526 1_555
O33 Ti2 2.065557 1_555
O34 Ti1 2.065549 1_555
O35 Ti0 2.091043 1_555
O40 Ti3 2.073983 1_565
O41 Ti2 2.074000 1_545
O42 Ti1 2.074004 1_545
O43 Ti0 2.073982 1_565
O44 Ti3 2.091032 1_556
O45 Ti2 2.091034 1_545
O46 Ti1 2.091027 1_544
O47 Ti0 2.065532 1_555
