# generated using pymatgen
data_Cs3GePPt3
_symmetry_space_group_name_H-M   'P 1'
_cell_length_a   7.88849805
_cell_length_b   7.88849683
_cell_length_c   7.88849691
_cell_angle_alpha   49.94281965
_cell_angle_beta   49.94282919
_cell_angle_gamma   49.94281017
_symmetry_Int_Tables_number   1
_chemical_formula_structural   Cs3GePPt3
_chemical_formula_sum   'Cs3 Ge1 P1 Pt3'
_cell_volume   264.61971188
_cell_formula_units_Z   1
loop_
 _symmetry_equiv_pos_site_id
 _symmetry_equiv_pos_as_xyz
  1  'x, y, z'
loop_
 _atom_site_type_symbol
 _atom_site_label
 _atom_site_symmetry_multiplicity
 _atom_site_fract_x
 _atom_site_fract_y
 _atom_site_fract_z
 _atom_site_occupancy
  Cs  Cs0  1  0.08403673  0.08403673  0.08403673  1
  Cs  Cs1  1  0.51227875  0.51227875  0.51227875  1
  Cs  Cs2  1  0.91140747  0.91140747  0.91140747  1
  Ge  Ge0  1  0.25939099  0.25939099  0.25939099  1
  P  P0  1  0.69715112  0.69715112  0.69715112  1
  Pt  Pt0  1  0.48624486  0.48624486  0.06324723  1
  Pt  Pt1  1  0.48624486  0.06324723  0.48624386  1
  Pt  Pt2  1  0.06324723  0.48624486  0.48624386  1
loop_
_geom_bond_atom_site_label_1
_geom_bond_atom_site_label_2
_geom_bond_distance
_geom_bond_site_symmetry_2
Cs0 Cs2 3.567075 1_444
Cs0 Ge0 3.623382 1_555
Cs0 Pt0 3.660510 1_545
Cs0 Pt2 3.660511 1_545
Cs0 Pt0 3.660511 1_455
Cs0 Pt1 3.660512 1_455
Cs0 Pt2 3.660517 1_554
Cs0 Pt1 3.660517 1_554
Cs0 Cs1 4.316647 1_545
Cs0 Cs1 4.316648 1_455
Cs0 Cs1 4.316649 1_554
Cs1 Pt0 3.815536 1_555
Cs1 Pt1 3.815541 1_555
Cs1 Pt2 3.815542 1_555
Cs1 P0 3.820057 1_555
Cs1 Cs2 4.078703 1_545
Cs1 Cs2 4.078704 1_455
Cs1 Cs2 4.078705 1_554
Cs1 Pt1 4.090393 1_565
Cs1 Pt2 4.090393 1_655
Cs1 Pt0 4.090397 1_556
Cs1 Ge0 4.189341 1_565
Cs1 Ge0 4.189342 1_556
Cs1 Ge0 4.189343 1_655
Cs2 Ge0 3.857343 1_656
Cs2 Ge0 3.857344 1_566
Cs2 Ge0 3.857345 1_665
Cs2 Pt2 3.935877 1_656
Cs2 Pt1 3.935878 1_566
Cs2 Pt0 3.935883 1_566
Cs2 Pt2 3.935883 1_665
Cs2 Pt0 3.935884 1_656
Cs2 Pt1 3.935884 1_665
Ge0 Pt1 2.406873 1_555
Ge0 Pt2 2.406873 1_555
Ge0 Pt0 2.406880 1_555
P0 Pt0 2.251775 1_556
P0 Pt1 2.251777 1_565
P0 Pt2 2.251778 1_655
