# generated using pymatgen
data_Ti13Al9RuRh7
_symmetry_space_group_name_H-M   'P 1'
_cell_length_a   8.69464985
_cell_length_b   8.69465029
_cell_length_c   8.69465118
_cell_angle_alpha   59.68697196
_cell_angle_beta   59.68697097
_cell_angle_gamma   59.68698037
_symmetry_Int_Tables_number   1
_chemical_formula_structural   Ti13Al9RuRh7
_chemical_formula_sum   'Ti13 Al9 Ru1 Rh7'
_cell_volume   461.46856041
_cell_formula_units_Z   1
loop_
 _symmetry_equiv_pos_site_id
 _symmetry_equiv_pos_as_xyz
  1  'x, y, z'
loop_
 _atom_site_type_symbol
 _atom_site_label
 _atom_site_symmetry_multiplicity
 _atom_site_fract_x
 _atom_site_fract_y
 _atom_site_fract_z
 _atom_site_occupancy
  Ti  Ti0  1  0.21136216  0.21136216  0.78947448  1
  Ti  Ti1  1  0.78947448  0.21136216  0.21136216  1
  Ti  Ti2  1  0.21136216  0.78947448  0.21136216  1
  Ti  Ti3  1  0.79805420  0.79805420  0.18774700  1
  Ti  Ti4  1  0.18774700  0.79805420  0.79805420  1
  Ti  Ti5  1  0.79805420  0.18774700  0.79805420  1
  Ti  Ti6  1  0.37815811  0.37815811  0.37815811  1
  Ti  Ti7  1  0.37907606  0.86701880  0.37907606  1
  Ti  Ti8  1  0.86701880  0.37907606  0.37907606  1
  Ti  Ti9  1  0.37907606  0.37907606  0.86701880  1
  Ti  Ti10  1  0.84545840  0.46578617  0.84545840  1
  Ti  Ti11  1  0.46578617  0.84545840  0.84545840  1
  Ti  Ti12  1  0.84545840  0.84545840  0.46578617  1
  Al  Al0  1  0.15304581  0.15304581  0.15304581  1
  Al  Al1  1  0.15693240  0.53418256  0.15693240  1
  Al  Al2  1  0.53418256  0.15693240  0.15693240  1
  Al  Al3  1  0.15693240  0.15693240  0.53418256  1
  Al  Al4  1  0.61962567  0.61962567  0.61962567  1
  Al  Al5  1  0.62064151  0.14169128  0.62064151  1
  Al  Al6  1  0.14169128  0.62064151  0.62064151  1
  Al  Al7  1  0.62064151  0.62064151  0.14169128  1
  Al  Al8  1  0.82920157  0.82920157  0.82920157  1
  Ru  Ru0  1  0.00388539  0.00388539  0.00388539  1
  Rh  Rh0  1  0.00424714  0.00424714  0.49743057  1
  Rh  Rh1  1  0.49743057  0.00424714  0.00424714  1
  Rh  Rh2  1  0.00424714  0.49743057  0.00424714  1
  Rh  Rh3  1  0.49922954  0.49922954  0.00199713  1
  Rh  Rh4  1  0.00199713  0.49922954  0.49922954  1
  Rh  Rh5  1  0.49922954  0.00199713  0.49922954  1
  Rh  Rh6  1  0.50075065  0.50075065  0.50075065  1
loop_
_geom_bond_atom_site_label_1
_geom_bond_atom_site_label_2
_geom_bond_distance
_geom_bond_site_symmetry_2
Ti0 Ti10 2.769721 1_455
Ti0 Ti11 2.769721 1_545
Ti0 Ti6 2.940778 1_555
Ti0 Ti9 2.972998 1_555
Ti1 Ti12 2.769721 1_545
Ti1 Ti10 2.769721 1_554
Ti1 Ti6 2.940778 1_555
Ti1 Ti8 2.972998 1_555
Ti2 Ti6 2.940779 1_555
Ti2 Ti7 2.972998 1_555
Ti3 Ti7 3.013640 1_555
Ti3 Ti8 3.013640 1_555
Ti4 Ti7 3.013640 1_555
Ti4 Ti9 3.013640 1_555
Ti5 Ti9 3.013640 1_555
Ti5 Ti8 3.013640 1_555
Ti10 Ti5 2.892562 1_555
Ti10 Ti12 3.285486 1_555
Ti10 Ti11 3.285486 1_555
Ti11 Ti2 2.769721 1_556
Ti11 Ti4 2.892562 1_555
Ti11 Ti12 3.285486 1_555
Ti12 Ti2 2.769721 1_655
Ti12 Ti3 2.892563 1_555
Al0 Rh0 2.486380 1_555
Al0 Rh1 2.486380 1_555
Al0 Rh2 2.486380 1_555
Al0 Ti1 2.744174 1_455
Al0 Ti2 2.744174 1_545
Al0 Ti0 2.744174 1_554
Al0 Ti9 2.817925 1_554
Al0 Ti8 2.817926 1_455
Al0 Ti7 2.817926 1_545
Al1 Rh3 2.493535 1_555
Al1 Rh4 2.493536 1_555
Al1 Rh2 2.502464 1_555
Al1 Ti4 2.760790 1_554
Al1 Ti3 2.760790 1_455
Al1 Ti6 2.776073 1_555
Al1 Ti2 2.778798 1_555
Al1 Ti8 2.791181 1_455
Al1 Ti9 2.791182 1_554
Al2 Rh3 2.493536 1_555
Al2 Rh5 2.493536 1_555
Al2 Rh1 2.502464 1_555
Al2 Ti5 2.760789 1_554
Al2 Ti3 2.760790 1_545
Al2 Ti6 2.776073 1_555
Al2 Ti1 2.778798 1_555
Al2 Ti7 2.791181 1_545
Al2 Ti9 2.791182 1_554
Al3 Rh5 2.493536 1_555
Al3 Rh4 2.493536 1_555
Al3 Rh0 2.502464 1_555
Al3 Ti5 2.760789 1_455
Al3 Ti4 2.760790 1_545
Al3 Ti6 2.776072 1_555
Al3 Ti0 2.778798 1_555
Al3 Ti8 2.791182 1_455
Al3 Ti7 2.791182 1_545
Al4 Rh6 2.537709 1_555
Al4 Rh4 2.706378 1_655
Al4 Rh5 2.706378 1_565
Al4 Rh3 2.706378 1_556
Al4 Ti12 2.844217 1_555
Al4 Ti10 2.844217 1_555
Al4 Ti11 2.844217 1_555
Al4 Ti9 2.951027 1_555
Al4 Ti7 2.951027 1_555
Al4 Ti8 2.951027 1_555
Al4 Ti4 3.095529 1_555
Al4 Ti3 3.095529 1_555
Al4 Ti5 3.095530 1_555
Al5 Rh6 2.538951 1_555
Al5 Al8 2.707591 1_545
Al5 Rh0 2.713320 1_655
Al5 Rh1 2.713320 1_556
Al5 Rh5 2.723493 1_555
Al5 Ti11 2.833616 1_545
Al5 Ti12 2.833616 1_545
Al5 Ti5 2.927147 1_555
Al5 Ti0 2.938292 1_555
Al5 Ti1 2.938292 1_555
Al5 Ti8 2.967433 1_555
Al5 Ti9 2.967433 1_555
Al5 Ti6 2.975358 1_555
Al6 Rh6 2.538951 1_555
Al6 Al8 2.707591 1_455
Al6 Rh0 2.713320 1_565
Al6 Rh2 2.713320 1_556
Al6 Rh4 2.723493 1_555
Al6 Ti10 2.833615 1_455
Al6 Ti12 2.833616 1_455
Al6 Ti4 2.927147 1_555
Al6 Ti0 2.938292 1_555
Al6 Ti2 2.938292 1_555
Al6 Ti7 2.967433 1_555
Al6 Ti9 2.967433 1_555
Al6 Ti6 2.975358 1_555
Al7 Rh6 2.538951 1_555
Al7 Al8 2.707590 1_554
Al7 Rh2 2.713320 1_655
Al7 Rh1 2.713320 1_565
Al7 Rh3 2.723493 1_555
Al7 Ti10 2.833616 1_554
Al7 Ti11 2.833616 1_554
Al7 Ti3 2.927147 1_555
Al7 Ti2 2.938292 1_555
Al7 Ti1 2.938292 1_555
Al7 Ti8 2.967433 1_555
Al7 Ti7 2.967433 1_555
Al7 Ti6 2.975357 1_555
Al8 Rh0 2.535454 1_665
Al8 Rh1 2.535455 1_566
Al8 Rh2 2.535455 1_656
Al8 Ti4 2.869603 1_655
Al8 Ti5 2.869603 1_565
Al8 Ti3 2.869603 1_556
Al8 Ti11 3.023670 1_555
Al8 Ti10 3.023670 1_555
Al8 Ti12 3.023670 1_555
Ru0 Ti3 2.533424 1_445
Ru0 Ti5 2.533425 1_454
Ru0 Ti4 2.533425 1_544
Ru0 Ti0 2.545431 1_554
Ru0 Ti2 2.545431 1_545
Ru0 Ti1 2.545431 1_455
Ru0 Ti11 3.266562 1_544
Ru0 Ti10 3.266563 1_454
Ru0 Ti12 3.266563 1_445
Rh0 Ti12 2.564932 1_445
Rh0 Ti7 2.651886 1_545
Rh0 Ti8 2.651886 1_455
Rh0 Ti4 3.030456 1_545
Rh0 Ti5 3.030456 1_455
Rh0 Ti1 3.112727 1_455
Rh0 Ti2 3.112727 1_545
Rh1 Ti11 2.564932 1_544
Rh1 Ti9 2.651886 1_554
Rh1 Ti7 2.651886 1_545
Rh1 Ti5 3.030455 1_554
Rh1 Ti3 3.030456 1_545
Rh1 Ti2 3.112726 1_545
Rh1 Ti0 3.112727 1_554
Rh2 Ti10 2.564932 1_454
Rh2 Ti9 2.651886 1_554
Rh2 Ti8 2.651886 1_455
Rh2 Ti4 3.030455 1_554
Rh2 Ti3 3.030456 1_455
Rh2 Ti1 3.112726 1_455
Rh2 Ti0 3.112727 1_554
Rh3 Ti10 2.525690 1_554
Rh3 Ti11 2.525690 1_554
Rh3 Ti6 2.660978 1_555
Rh3 Ti9 2.671520 1_554
Rh3 Ti1 3.099793 1_555
Rh3 Ti2 3.099793 1_555
Rh4 Ti12 2.525690 1_455
Rh4 Ti10 2.525690 1_455
Rh4 Ti6 2.660978 1_555
Rh4 Ti8 2.671520 1_455
Rh4 Ti2 3.099792 1_555
Rh4 Ti0 3.099793 1_555
Rh5 Ti12 2.525690 1_545
Rh5 Ti11 2.525690 1_545
Rh5 Ti6 2.660978 1_555
Rh5 Ti7 2.671520 1_545
Rh5 Ti1 3.099792 1_555
Rh5 Ti0 3.099793 1_555
Rh6 Ti8 2.589973 1_555
Rh6 Ti7 2.589973 1_555
Rh6 Ti9 2.589973 1_555
Rh6 Ti6 2.617069 1_555
