# generated using pymatgen
data_Ca2NiIrI
_symmetry_space_group_name_H-M   'P 1'
_cell_length_a   4.14170529
_cell_length_b   4.14170620
_cell_length_c   16.89482398
_cell_angle_alpha   90.00000000
_cell_angle_beta   90.00000000
_cell_angle_gamma   120.00000058
_symmetry_Int_Tables_number   1
_chemical_formula_structural   Ca2NiIrI
_chemical_formula_sum   'Ca4 Ni2 Ir2 I2'
_cell_volume   250.98211889
_cell_formula_units_Z   2
loop_
 _symmetry_equiv_pos_site_id
 _symmetry_equiv_pos_as_xyz
  1  'x, y, z'
loop_
 _atom_site_type_symbol
 _atom_site_label
 _atom_site_symmetry_multiplicity
 _atom_site_fract_x
 _atom_site_fract_y
 _atom_site_fract_z
 _atom_site_occupancy
  Ca  Ca0  1  0.00000000  0.00000000  0.60779717  1
  Ca  Ca1  1  0.00000000  0.00000000  0.39242633  1
  Ca  Ca2  1  0.00000000  0.00000000  0.10779717  1
  Ca  Ca3  1  0.00000000  0.00000000  0.89242633  1
  Ni  Ni0  1  0.66666700  0.33333300  0.99879918  1
  Ni  Ni1  1  0.33333300  0.66666700  0.49879918  1
  Ir  Ir0  1  0.66666700  0.33333300  0.50093170  1
  Ir  Ir1  1  0.33333300  0.66666700  0.00093170  1
  I  I0  1  0.66666700  0.33333300  0.25004462  1
  I  I1  1  0.33333300  0.66666700  0.75004462  1
loop_
_geom_bond_atom_site_label_1
_geom_bond_atom_site_label_2
_geom_bond_distance
_geom_bond_site_symmetry_2
Ca0 Ir0 2.996270 1_455
Ca0 Ir0 2.996272 1_555
Ca0 Ir0 2.996273 1_445
Ca0 Ni1 3.018116 1_545
Ca0 Ni1 3.018119 1_445
Ca0 Ni1 3.018119 1_555
Ca0 I1 3.390205 1_545
Ca0 I1 3.390207 1_445
Ca0 I1 3.390207 1_555
Ca1 Ni1 2.991262 1_545
Ca1 Ni1 2.991264 1_445
Ca1 Ni1 2.991265 1_555
Ca1 Ir0 3.013045 1_455
Ca1 Ir0 3.013048 1_555
Ca1 Ir0 3.013048 1_445
Ca1 I0 3.391813 1_455
Ca1 I0 3.391815 1_555
Ca1 I0 3.391816 1_445
Ca2 Ir1 2.996270 1_545
Ca2 Ir1 2.996272 1_445
Ca2 Ir1 2.996273 1_555
Ca2 Ni0 3.018116 1_454
Ca2 Ni0 3.018119 1_554
Ca2 Ni0 3.018119 1_444
Ca2 I0 3.390205 1_455
Ca2 I0 3.390207 1_555
Ca2 I0 3.390207 1_445
Ca3 Ni0 2.991262 1_455
Ca3 Ni0 2.991264 1_555
Ca3 Ni0 2.991265 1_445
Ca3 Ir1 3.013045 1_546
Ca3 Ir1 3.013048 1_446
Ca3 Ir1 3.013048 1_556
Ca3 I1 3.391813 1_545
Ca3 I1 3.391815 1_445
Ca3 I1 3.391816 1_555
Ir0 Ni1 2.391484 1_655
Ir0 Ni1 2.391484 1_545
Ir0 Ni1 2.391491 1_555
Ir1 Ni0 2.391484 1_454
Ir1 Ni0 2.391484 1_564
Ir1 Ni0 2.391491 1_554
