# generated using pymatgen
data_Rb2Lu7BBr18
_symmetry_space_group_name_H-M   'P 1'
_cell_length_a   10.29736651
_cell_length_b   10.29722869
_cell_length_c   11.14199237
_cell_angle_alpha   117.55068263
_cell_angle_beta   62.47880147
_cell_angle_gamma   120.00768564
_symmetry_Int_Tables_number   1
_chemical_formula_structural   Rb2Lu7BBr18
_chemical_formula_sum   'Rb2 Lu7 B1 Br18'
_cell_volume   865.11894580
_cell_formula_units_Z   1
loop_
 _symmetry_equiv_pos_site_id
 _symmetry_equiv_pos_as_xyz
  1  'x, y, z'
loop_
 _atom_site_type_symbol
 _atom_site_label
 _atom_site_symmetry_multiplicity
 _atom_site_fract_x
 _atom_site_fract_y
 _atom_site_fract_z
 _atom_site_occupancy
  Rb  Rb0  1  0.22163481  0.77779570  0.33375209  1
  Rb  Rb1  1  0.77839285  0.22220577  0.66625081  1
  Lu  Lu0  1  0.77600093  0.10659960  0.15624468  1
  Lu  Lu1  1  0.89336462  0.82585366  0.15624090  1
  Lu  Lu2  1  0.17426887  0.22387811  0.15626483  1
  Lu  Lu3  1  0.50000626  0.50002205  0.50002094  1
  Lu  Lu4  1  0.82572706  0.77610401  0.84372302  1
  Lu  Lu5  1  0.10660800  0.17413911  0.84376328  1
  Lu  Lu6  1  0.22398772  0.89341009  0.84375990  1
  B  B0  1  0.00000329  0.00000476  0.00000346  1
  Br  Br0  1  0.28710456  0.42852503  0.00730761  1
  Br  Br1  1  0.57132850  0.86542507  0.00758929  1
  Br  Br2  1  0.13411855  0.71333076  0.00762346  1
  Br  Br3  1  0.94304590  0.35128244  0.33845194  1
  Br  Br4  1  0.07043711  0.05700100  0.33826613  1
  Br  Br5  1  0.64877929  0.93049836  0.33861300  1
  Br  Br6  1  0.51497228  0.20846060  0.33328992  1
  Br  Br7  1  0.79162053  0.64030509  0.33324411  1
  Br  Br8  1  0.35940534  0.48495896  0.33377107  1
  Br  Br9  1  0.64056311  0.51501596  0.66628735  1
  Br  Br10  1  0.20838354  0.35966652  0.66676678  1
  Br  Br11  1  0.48508585  0.79158854  0.66674656  1
  Br  Br12  1  0.35120128  0.06952601  0.66134624  1
  Br  Br13  1  0.92958731  0.94296011  0.66170448  1
  Br  Br14  1  0.05701249  0.64874389  0.66153211  1
  Br  Br15  1  0.86578748  0.28663120  0.99235749  1
  Br  Br16  1  0.42866997  0.13458409  0.99238708  1
  Br  Br17  1  0.71289649  0.57147651  0.99268746  1
loop_
_geom_bond_atom_site_label_1
_geom_bond_atom_site_label_2
_geom_bond_distance
_geom_bond_site_symmetry_2
B0 Lu2 2.569528 1_555
B0 Lu5 2.569715 1_554
B0 Lu1 2.569746 1_445
B0 Lu4 2.569780 1_444
B0 Lu6 2.570800 1_544
B0 Lu0 2.570946 1_455
Br0 Lu5 2.735184 1_554
Br0 Lu2 2.747624 1_555
Br0 Rb0 3.831045 1_555
Br1 Lu4 2.734659 1_554
Br1 Lu0 2.745618 1_565
Br1 Rb0 3.831116 1_555
Br2 Lu6 2.735382 1_554
Br2 Lu1 2.745012 1_455
Br2 Rb0 3.827963 1_555
Br3 Lu0 2.754815 1_555
Br3 Lu2 2.775790 1_655
Br3 Rb1 3.807179 1_555
Br3 Rb0 3.872078 1_655
Br4 Lu2 2.755042 1_555
Br4 Lu1 2.777456 1_445
Br4 Rb1 3.808181 1_455
Br4 Rb0 3.868283 1_545
Br5 Lu1 2.755508 1_555
Br5 Lu0 2.775904 1_565
Br5 Rb1 3.805192 1_565
Br5 Rb0 3.878848 1_555
Br6 Lu3 2.743590 1_555
Br6 Lu0 2.867426 1_555
Br6 Rb0 3.924097 1_545
Br7 Lu3 2.746717 1_555
Br7 Lu1 2.865595 1_555
Br7 Rb0 3.918799 1_655
Br8 Lu3 2.745818 1_555
Br8 Lu2 2.865831 1_555
Br8 Rb0 3.922379 1_555
Br9 Lu3 2.745984 1_555
Br9 Lu4 2.865555 1_555
Br9 Rb1 3.922250 1_555
Br10 Lu3 2.746837 1_555
Br10 Lu5 2.865266 1_555
Br10 Rb1 3.918663 1_455
Br11 Lu3 2.743486 1_555
Br11 Lu6 2.867760 1_555
Br11 Rb1 3.923730 1_565
Br12 Lu5 2.755473 1_555
Br12 Lu6 2.776446 1_545
Br12 Rb0 3.804671 1_545
Br12 Rb1 3.879512 1_555
Br13 Lu4 2.754960 1_555
Br13 Lu5 2.777455 1_665
Br13 Rb0 3.807895 1_655
Br13 Rb1 3.868462 1_565
Br14 Lu6 2.754544 1_555
Br14 Lu4 2.776025 1_455
Br14 Rb0 3.806895 1_555
Br14 Rb1 3.872369 1_455
Br15 Lu0 2.735461 1_556
Br15 Lu5 2.745399 1_655
Br15 Rb1 3.827145 1_555
Br16 Lu2 2.734549 1_556
Br16 Lu6 2.745507 1_545
Br16 Rb1 3.831031 1_555
Br17 Lu1 2.735062 1_556
Br17 Lu4 2.747531 1_555
Br17 Rb1 3.831064 1_555
