# generated using pymatgen
data_Sc4V6Zn3O24
_symmetry_space_group_name_H-M   'P 1'
_cell_length_a   6.79471966
_cell_length_b   8.09067242
_cell_length_c   9.93199795
_cell_angle_alpha   104.13285543
_cell_angle_beta   107.63676739
_cell_angle_gamma   100.57485477
_symmetry_Int_Tables_number   1
_chemical_formula_structural   Sc4V6Zn3O24
_chemical_formula_sum   'Sc4 V6 Zn3 O24'
_cell_volume   484.60390826
_cell_formula_units_Z   1
loop_
 _symmetry_equiv_pos_site_id
 _symmetry_equiv_pos_as_xyz
  1  'x, y, z'
loop_
 _atom_site_type_symbol
 _atom_site_label
 _atom_site_symmetry_multiplicity
 _atom_site_fract_x
 _atom_site_fract_y
 _atom_site_fract_z
 _atom_site_occupancy
  Sc  Sc0  1  0.38580848  0.95191022  0.61716311  1
  Sc  Sc1  1  0.61419152  0.04808978  0.38283689  1
  Sc  Sc2  1  0.05841418  0.22085042  0.01588500  1
  Sc  Sc3  1  0.94158582  0.77914958  0.98411500  1
  V  V0  1  0.76450991  0.35270681  0.71849550  1
  V  V1  1  0.23549009  0.64729319  0.28150450  1
  V  V2  1  0.91441661  0.91381192  0.66912224  1
  V  V3  1  0.39233334  0.71412041  0.87601639  1
  V  V4  1  0.08558339  0.08618808  0.33087776  1
  V  V5  1  0.60766666  0.28587959  0.12398361  1
  Zn  Zn0  1  0.00000000  0.50000000  0.50000000  1
  Zn  Zn1  1  0.28450581  0.30404146  0.78540033  1
  Zn  Zn2  1  0.71549419  0.69595854  0.21459967  1
  O  O0  1  0.91345786  0.70782196  0.58984268  1
  O  O1  1  0.08654214  0.29217804  0.41015732  1
  O  O2  1  0.26349749  0.51638389  0.73042087  1
  O  O3  1  0.73650251  0.48361611  0.26957913  1
  O  O4  1  0.76974919  0.30912042  0.53755029  1
  O  O5  1  0.23025081  0.69087958  0.46244971  1
  O  O6  1  0.67676268  0.96211107  0.58041641  1
  O  O7  1  0.32323732  0.03788893  0.41958359  1
  O  O8  1  0.63312013  0.71208604  0.00761855  1
  O  O9  1  0.36687987  0.28791396  0.99238145  1
  O  O10  1  0.47275985  0.76592216  0.27795932  1
  O  O11  1  0.52724015  0.23407784  0.72204068  1
  O  O12  1  0.13243410  0.04925737  0.65574978  1
  O  O13  1  0.05192764  0.04562233  0.14385475  1
  O  O14  1  0.94807236  0.95437767  0.85614525  1
  O  O15  1  0.55329426  0.12418931  0.20059341  1
  O  O16  1  0.44670574  0.87581069  0.79940659  1
  O  O17  1  0.21371086  0.43255277  0.20860732  1
  O  O18  1  0.78628914  0.56744723  0.79139268  1
  O  O19  1  0.98147660  0.30103576  0.82759513  1
  O  O20  1  0.01852340  0.69896424  0.17240487  1
  O  O21  1  0.22564390  0.75294917  0.96793130  1
  O  O22  1  0.77435610  0.24705083  0.03206870  1
  O  O23  1  0.86756590  0.95074263  0.34425022  1
loop_
_geom_bond_atom_site_label_1
_geom_bond_atom_site_label_2
_geom_bond_distance
_geom_bond_site_symmetry_2
O0 V2 1.658209 1_555
O0 Zn0 1.979229 1_655
O1 V4 1.658209 1_555
O1 Zn0 1.979229 1_555
O2 V3 1.733775 1_555
O2 Zn1 1.941895 1_555
O2 Zn0 2.396325 1_555
O3 V5 1.733775 1_555
O3 Zn2 1.941895 1_555
O3 Zn0 2.396325 1_655
O4 V0 1.757627 1_555
O4 Sc1 2.133140 1_555
O4 Zn0 2.172496 1_655
O5 V1 1.757627 1_555
O5 Sc0 2.133140 1_555
O5 Zn0 2.172496 1_555
O6 V2 1.753314 1_555
O6 Sc0 2.107224 1_555
O6 Sc1 2.187491 1_565
O7 V4 1.753314 1_555
O7 Sc1 2.107224 1_555
O7 Sc0 2.187491 1_545
O8 V3 1.763524 1_554
O8 Zn2 2.004225 1_555
O8 Sc3 2.163972 1_554
O9 V5 1.763524 1_556
O9 Zn1 2.004225 1_555
O9 Sc2 2.163972 1_556
O10 V1 1.733356 1_555
O10 Zn2 2.057738 1_555
O10 Sc1 2.155733 1_565
O11 V0 1.733356 1_555
O11 Zn1 2.057738 1_555
O11 Sc0 2.155733 1_545
O12 V2 1.734194 1_445
O12 Zn1 2.022566 1_555
O12 Sc0 2.116890 1_545
O13 V4 1.740029 1_555
O13 Sc2 2.125615 1_555
O13 Sc3 2.177811 1_444
O14 V2 1.740029 1_555
O14 Sc3 2.125615 1_555
O14 Sc2 2.177811 1_666
O15 V5 1.704646 1_555
O15 Sc1 2.002608 1_555
O16 V3 1.704646 1_555
O16 Sc0 2.002608 1_555
O17 V1 1.670646 1_555
O17 Sc2 2.054920 1_555
O18 V0 1.670646 1_555
O18 Sc3 2.054920 1_555
O19 V0 1.732539 1_555
O19 Sc2 2.077491 1_656
O19 Zn1 2.219272 1_655
O20 V1 1.732539 1_555
O20 Sc3 2.077491 1_454
O20 Zn2 2.219272 1_455
O21 V3 1.682843 1_555
O21 Sc3 2.029177 1_455
O22 V5 1.682843 1_555
O22 Sc2 2.029177 1_655
O23 V4 1.734194 1_665
O23 Zn2 2.022566 1_555
O23 Sc1 2.116890 1_565
