# generated using pymatgen
data_KCaWN3
_symmetry_space_group_name_H-M   'P 1'
_cell_length_a   6.35640482
_cell_length_b   6.35640592
_cell_length_c   12.17862829
_cell_angle_alpha   90.27901538
_cell_angle_beta   90.27901314
_cell_angle_gamma   123.64681306
_symmetry_Int_Tables_number   1
_chemical_formula_structural   KCaWN3
_chemical_formula_sum   'K4 Ca4 W4 N12'
_cell_volume   409.60610974
_cell_formula_units_Z   4
loop_
 _symmetry_equiv_pos_site_id
 _symmetry_equiv_pos_as_xyz
  1  'x, y, z'
loop_
 _atom_site_type_symbol
 _atom_site_label
 _atom_site_symmetry_multiplicity
 _atom_site_fract_x
 _atom_site_fract_y
 _atom_site_fract_z
 _atom_site_occupancy
  K  K0  1  0.99341492  0.56506833  0.35963572  1
  K  K1  1  0.43493167  0.00658508  0.14036428  1
  K  K2  1  0.00658508  0.43493167  0.64036428  1
  K  K3  1  0.56506833  0.99341492  0.85963572  1
  Ca  Ca0  1  0.09363207  0.31645285  0.07949759  1
  Ca  Ca1  1  0.68354715  0.90636793  0.42050241  1
  Ca  Ca2  1  0.90636793  0.68354715  0.92050241  1
  Ca  Ca3  1  0.31645285  0.09363207  0.57949759  1
  W  W0  1  0.75989537  0.71948240  0.16142597  1
  W  W1  1  0.28051760  0.24010463  0.33857403  1
  W  W2  1  0.24010463  0.28051760  0.83857403  1
  W  W3  1  0.71948240  0.75989537  0.66142597  1
  N  N0  1  0.45550770  0.54449230  0.25000000  1
  N  N1  1  0.54449230  0.45550770  0.75000000  1
  N  N2  1  0.89219733  0.54120507  0.11729505  1
  N  N3  1  0.45879493  0.10780267  0.38270495  1
  N  N4  1  0.10780267  0.45879493  0.88270495  1
  N  N5  1  0.54120507  0.89219733  0.61729505  1
  N  N6  1  0.84972477  0.71614938  0.53888016  1
  N  N7  1  0.28385062  0.15027523  0.96111984  1
  N  N8  1  0.15027523  0.28385062  0.46111984  1
  N  N9  1  0.71614938  0.84972477  0.03888016  1
  N  N10  1  0.99332547  0.00667453  0.25000000  1
  N  N11  1  0.00667453  0.99332547  0.75000000  1
loop_
_geom_bond_atom_site_label_1
_geom_bond_atom_site_label_2
_geom_bond_distance
_geom_bond_site_symmetry_2
K0 N6 2.737281 1_555
K0 N8 2.775160 1_655
K0 N2 3.002761 1_555
K0 N3 3.024410 1_555
K0 N3 3.066703 1_665
K0 N10 3.114557 1_565
K0 N0 3.299929 1_655
K1 N7 2.737281 1_554
K1 N9 2.775160 1_545
K1 N3 3.002761 1_555
K1 N2 3.024410 1_555
K1 N2 3.066703 1_445
K1 N10 3.114556 1_455
K1 N0 3.299929 1_545
K2 N8 2.737281 1_555
K2 N6 2.775160 1_455
K2 N4 3.002761 1_555
K2 N5 3.024410 1_555
K2 N5 3.066703 1_445
K2 N11 3.114557 1_545
K2 N1 3.299929 1_455
K3 N9 2.737281 1_556
K3 N7 2.775160 1_565
K3 N5 3.002761 1_555
K3 N4 3.024410 1_555
K3 N4 3.066703 1_665
K3 N11 3.114556 1_655
K3 N1 3.299929 1_565
Ca0 N2 2.432821 1_455
Ca0 N7 2.464460 1_554
Ca0 N4 2.550227 1_554
Ca0 N9 2.624740 1_445
Ca0 N10 2.693893 1_455
Ca0 N0 2.816613 1_555
Ca1 N3 2.432821 1_565
Ca1 N6 2.464460 1_555
Ca1 N5 2.550227 1_555
Ca1 N8 2.624740 1_665
Ca1 N10 2.693893 1_565
Ca1 N0 2.816613 1_555
Ca2 N4 2.432821 1_655
Ca2 N9 2.464460 1_556
Ca2 N2 2.550227 1_556
Ca2 N7 2.624740 1_665
Ca2 N11 2.693893 1_655
Ca2 N1 2.816613 1_555
Ca3 N5 2.432821 1_545
Ca3 N8 2.464460 1_555
Ca3 N3 2.550227 1_555
Ca3 N6 2.624740 1_445
Ca3 N11 2.693893 1_545
Ca3 N1 2.816613 1_555
N0 W0 1.947180 1_555
N0 W1 1.947180 1_555
N1 W2 1.947180 1_555
N1 W3 1.947180 1_555
N2 W0 1.826127 1_555
N3 W1 1.826127 1_555
N4 W2 1.826127 1_555
N5 W3 1.826127 1_555
N6 W3 1.803653 1_555
N7 W2 1.803653 1_555
N8 W1 1.803653 1_555
N9 W0 1.803653 1_555
N10 W1 1.913467 1_655
N10 W0 1.913467 1_545
N11 W3 1.913467 1_455
N11 W2 1.913467 1_565
