# generated using pymatgen
data_HfTi5CI12
_symmetry_space_group_name_H-M   'P 1'
_cell_length_a   9.23019374
_cell_length_b   8.93362435
_cell_length_c   9.20473936
_cell_angle_alpha   107.01940646
_cell_angle_beta   107.40683712
_cell_angle_gamma   106.37558972
_symmetry_Int_Tables_number   1
_chemical_formula_structural   HfTi5CI12
_chemical_formula_sum   'Hf1 Ti5 C1 I12'
_cell_volume   633.20950913
_cell_formula_units_Z   1
loop_
 _symmetry_equiv_pos_site_id
 _symmetry_equiv_pos_as_xyz
  1  'x, y, z'
loop_
 _atom_site_type_symbol
 _atom_site_label
 _atom_site_symmetry_multiplicity
 _atom_site_fract_x
 _atom_site_fract_y
 _atom_site_fract_z
 _atom_site_occupancy
  Hf  Hf0  1  0.03081107  0.27946621  0.08905234  1
  Ti  Ti0  1  0.92019875  0.97264663  0.74978709  1
  Ti  Ti1  1  0.75328085  0.91785481  0.97396742  1
  Ti  Ti2  1  0.97206612  0.74873786  0.91819010  1
  Ti  Ti3  1  0.07912016  0.02209148  0.25038741  1
  Ti  Ti4  1  0.24604771  0.07635684  0.02352045  1
  C  C0  1  0.00159244  0.01161607  0.00460852  1
  I  I0  1  0.42066466  0.12921597  0.35266257  1
  I  I1  1  0.14183861  0.36440819  0.43574542  1
  I  I2  1  0.64608750  0.56845059  0.86078157  1
  I  I3  1  0.57819445  0.86695735  0.64772739  1
  I  I4  1  0.86115179  0.63797277  0.57393964  1
  I  I5  1  0.36577445  0.43351736  0.14013218  1
  I  I6  1  0.78107565  0.92248271  0.28804914  1
  I  I7  1  0.28385494  0.77112757  0.92453653  1
  I  I8  1  0.92593869  0.29623839  0.77146614  1
  I  I9  1  0.21775700  0.06968015  0.70817799  1
  I  I10  1  0.70494974  0.22250701  0.07360341  1
  I  I11  1  0.06959341  0.68867203  0.21366371  1
loop_
_geom_bond_atom_site_label_1
_geom_bond_atom_site_label_2
_geom_bond_distance
_geom_bond_site_symmetry_2
Hf0 I1 2.827924 1_555
Hf0 I5 2.833086 1_555
Hf0 I8 2.854868 1_454
Hf0 I10 2.857364 1_455
Hf0 I11 3.371897 1_555
C0 Ti4 2.103858 1_555
C0 Ti1 2.103970 1_444
C0 Ti0 2.123081 1_444
C0 Ti3 2.123362 1_555
C0 Ti2 2.153625 1_444
C0 Hf0 2.196507 1_555
I0 Ti3 2.781413 1_555
I0 Ti4 2.794881 1_555
I1 Ti3 2.820410 1_555
I2 Ti1 2.746978 1_555
I2 Ti2 2.782879 1_555
I3 Ti1 2.778298 1_555
I3 Ti0 2.786571 1_555
I4 Ti0 2.752561 1_555
I4 Ti2 2.778572 1_555
I5 Ti4 2.802028 1_555
I6 Ti3 2.801948 1_665
I6 Ti1 2.811748 1_554
I7 Ti4 2.767633 1_566
I7 Ti2 2.809547 1_455
I8 Ti0 2.822985 1_545
I9 Ti0 2.814740 1_445
I9 Ti4 2.816641 1_556
I10 Ti1 2.813487 1_544
I11 Ti2 2.856089 1_454
I11 Ti3 2.870440 1_565
