# generated using pymatgen
data_TcIr3Rh5
_symmetry_space_group_name_H-M   'P 1'
_cell_length_a   6.04588143
_cell_length_b   6.04588125
_cell_length_c   6.04971918
_cell_angle_alpha   95.72915989
_cell_angle_beta   95.72916291
_cell_angle_gamma   143.15118514
_symmetry_Int_Tables_number   1
_chemical_formula_structural   TcIr3Rh5
_chemical_formula_sum   'Tc1 Ir3 Rh5'
_cell_volume   125.82618662
_cell_formula_units_Z   1
loop_
 _symmetry_equiv_pos_site_id
 _symmetry_equiv_pos_as_xyz
  1  'x, y, z'
loop_
 _atom_site_type_symbol
 _atom_site_label
 _atom_site_symmetry_multiplicity
 _atom_site_fract_x
 _atom_site_fract_y
 _atom_site_fract_z
 _atom_site_occupancy
  Tc  Tc0  1  0.00164721  0.00164721  0.00329442  1
  Ir  Ir0  1  0.66335887  0.33644027  0.99980014  1
  Ir  Ir1  1  0.33644027  0.66335887  0.99980014  1
  Ir  Ir2  1  0.66250545  0.66250545  0.32501189  1
  Rh  Rh0  1  0.32882871  0.00009185  0.32891956  1
  Rh  Rh1  1  0.00009185  0.32882871  0.32891956  1
  Rh  Rh2  1  0.67010240  0.00086964  0.67097204  1
  Rh  Rh3  1  0.00086964  0.67010240  0.67097204  1
  Rh  Rh4  1  0.33615560  0.33615560  0.67231020  1
loop_
_geom_bond_atom_site_label_1
_geom_bond_atom_site_label_2
_geom_bond_distance
_geom_bond_site_symmetry_2
Ir0 Ir2 2.645945 1_556
Ir0 Rh4 2.655187 1_555
Ir0 Tc0 2.677312 1_556
Ir0 Tc0 2.677314 1_666
Ir0 Rh3 2.685945 1_545
Ir0 Rh3 2.685947 1_655
Ir0 Rh0 2.687048 1_556
Ir0 Rh0 2.687054 1_666
Ir0 Rh2 2.723590 1_555
Ir0 Rh1 2.733154 1_656
Ir0 Ir1 2.755680 1_545
Ir0 Ir1 2.755680 1_655
Ir1 Ir2 2.645945 1_556
Ir1 Rh4 2.655187 1_555
Ir1 Tc0 2.677311 1_556
Ir1 Tc0 2.677314 1_666
Ir1 Rh2 2.685945 1_455
Ir1 Rh2 2.685947 1_565
Ir1 Rh1 2.687048 1_556
Ir1 Rh1 2.687054 1_666
Ir1 Rh3 2.723590 1_555
Ir1 Rh0 2.733154 1_566
Ir2 Tc0 2.657330 1_555
Ir2 Tc0 2.657332 1_665
Ir2 Rh0 2.684644 1_555
Ir2 Rh1 2.684644 1_555
Ir2 Rh1 2.684649 1_665
Ir2 Rh0 2.684650 1_665
Ir2 Rh3 2.746475 1_655
Ir2 Rh2 2.746475 1_565
Ir2 Rh4 2.761388 1_555
Ir2 Rh4 2.761394 1_665
Rh0 Tc0 2.655016 1_555
Rh0 Rh4 2.727767 1_555
Rh0 Rh3 2.739756 1_655
Rh0 Rh3 2.739758 1_545
Rh0 Rh1 2.740688 1_545
Rh0 Rh1 2.740688 1_655
Rh0 Rh2 2.769370 1_555
Rh1 Tc0 2.655016 1_555
Rh1 Rh4 2.727766 1_555
Rh1 Rh2 2.739756 1_565
Rh1 Rh2 2.739758 1_455
Rh1 Rh3 2.769370 1_555
Rh2 Tc0 2.690418 1_656
Rh2 Rh4 2.692756 1_545
Rh2 Rh4 2.692758 1_655
Rh2 Rh3 2.724039 1_655
Rh2 Rh3 2.724039 1_545
Rh3 Tc0 2.690418 1_566
Rh3 Rh4 2.692756 1_455
Rh3 Rh4 2.692758 1_565
Rh4 Tc0 2.694566 1_666
Rh4 Tc0 2.694568 1_556
