# generated using pymatgen
data_Zr2Ti2ReOs
_symmetry_space_group_name_H-M   'P 1'
_cell_length_a   5.49070025
_cell_length_b   5.34185212
_cell_length_c   5.28195235
_cell_angle_alpha   59.00362907
_cell_angle_beta   58.68380695
_cell_angle_gamma   59.07387315
_symmetry_Int_Tables_number   1
_chemical_formula_structural   Zr2Ti2ReOs
_chemical_formula_sum   'Zr2 Ti2 Re1 Os1'
_cell_volume   106.84486760
_cell_formula_units_Z   1
loop_
 _symmetry_equiv_pos_site_id
 _symmetry_equiv_pos_as_xyz
  1  'x, y, z'
loop_
 _atom_site_type_symbol
 _atom_site_label
 _atom_site_symmetry_multiplicity
 _atom_site_fract_x
 _atom_site_fract_y
 _atom_site_fract_z
 _atom_site_occupancy
  Zr  Zr0  1  0.25294816  0.24671452  0.24738915  1
  Zr  Zr1  1  0.99705184  0.00328548  0.00261085  1
  Ti  Ti0  1  0.12500000  0.62500000  0.62500000  1
  Ti  Ti1  1  0.62500000  0.62500000  0.62500000  1
  Re  Re0  1  0.62500000  0.12500000  0.62500000  1
  Os  Os0  1  0.62500000  0.62500000  0.12500000  1
loop_
_geom_bond_atom_site_label_1
_geom_bond_atom_site_label_2
_geom_bond_distance
_geom_bond_site_symmetry_2
Zr0 Zr1 3.207274 1_456
Zr0 Zr1 3.263315 1_465
Zr0 Zr1 3.291614 1_555
Zr0 Zr1 3.291614 1_455
Ti0 Ti1 2.745350 1_455
Ti0 Ti1 2.745350 1_555
Ti0 Zr0 3.079547 1_556
Ti0 Zr1 3.079547 1_465
Ti0 Zr0 3.101690 1_565
Ti0 Zr1 3.101690 1_456
Ti0 Zr1 3.128980 1_466
Ti0 Zr0 3.128980 1_555
Ti1 Zr1 3.079547 1_565
Ti1 Zr0 3.079547 1_556
Ti1 Zr1 3.101689 1_556
Ti1 Zr0 3.101689 1_565
Ti1 Zr1 3.128979 1_466
Ti1 Zr0 3.128979 1_655
Re0 Ti0 2.670925 1_555
Re0 Ti0 2.670925 1_645
Re0 Ti1 2.670926 1_555
Re0 Ti1 2.670926 1_545
Re0 Zr0 3.042741 1_556
Re0 Zr1 3.042741 1_555
Re0 Zr0 3.179402 1_655
Re0 Zr1 3.179402 1_456
Re0 Zr1 3.179402 1_556
Re0 Zr0 3.179402 1_555
Os0 Re0 2.615982 1_564
Os0 Re0 2.615982 1_555
Os0 Ti0 2.640976 1_555
Os0 Ti0 2.640976 1_654
Os0 Ti1 2.640976 1_554
Os0 Ti1 2.640976 1_555
Os0 Zr0 3.079902 1_565
Os0 Zr1 3.079902 1_555
Os0 Zr0 3.193627 1_655
Os0 Zr1 3.193627 1_465
Os0 Zr1 3.193627 1_565
Os0 Zr0 3.193627 1_555
