# generated using pymatgen
data_ScMnBPt6
_symmetry_space_group_name_H-M   'P 1'
_cell_length_a   5.74576105
_cell_length_b   5.74576056
_cell_length_c   5.74575982
_cell_angle_alpha   59.99999292
_cell_angle_beta   59.99999578
_cell_angle_gamma   59.99999758
_symmetry_Int_Tables_number   1
_chemical_formula_structural   ScMnBPt6
_chemical_formula_sum   'Sc1 Mn1 B1 Pt6'
_cell_volume   134.13048970
_cell_formula_units_Z   1
loop_
 _symmetry_equiv_pos_site_id
 _symmetry_equiv_pos_as_xyz
  1  'x, y, z'
loop_
 _atom_site_type_symbol
 _atom_site_label
 _atom_site_symmetry_multiplicity
 _atom_site_fract_x
 _atom_site_fract_y
 _atom_site_fract_z
 _atom_site_occupancy
  Sc  Sc0  1  0.25000100  0.25000100  0.25000100  1
  Mn  Mn0  1  0.75000000  0.75000000  0.75000000  1
  B  B0  1  0.50000000  0.50000000  0.50000000  1
  Pt  Pt0  1  0.75716810  0.75716810  0.24283190  1
  Pt  Pt1  1  0.24283190  0.75716810  0.24283190  1
  Pt  Pt2  1  0.75716810  0.24283190  0.24283190  1
  Pt  Pt3  1  0.24283190  0.24283190  0.75716810  1
  Pt  Pt4  1  0.75716810  0.24283190  0.75716810  1
  Pt  Pt5  1  0.24283190  0.75716810  0.75716810  1
loop_
_geom_bond_atom_site_label_1
_geom_bond_atom_site_label_2
_geom_bond_distance
_geom_bond_site_symmetry_2
Mn0 Pt2 2.873470 1_565
Mn0 Pt2 2.873470 1_556
Mn0 Pt0 2.873470 1_555
Mn0 Pt0 2.873470 1_556
Mn0 Pt1 2.873470 1_655
Mn0 Pt1 2.873470 1_556
Mn0 Pt4 2.873471 1_555
Mn0 Pt4 2.873471 1_565
Mn0 Pt3 2.873471 1_655
Mn0 Pt3 2.873471 1_565
Mn0 Pt5 2.873471 1_655
Mn0 Pt5 2.873471 1_555
B0 Pt5 2.089679 1_555
B0 Pt2 2.089679 1_555
B0 Pt4 2.089679 1_555
B0 Pt1 2.089679 1_555
B0 Pt0 2.089679 1_555
B0 Pt3 2.089679 1_555
Pt0 Sc0 2.873471 1_655
Pt0 Sc0 2.873471 1_565
Pt1 Sc0 2.873459 1_555
Pt1 Sc0 2.873482 1_565
Pt2 Sc0 2.873460 1_555
Pt2 Sc0 2.873483 1_655
Pt3 Sc0 2.873459 1_555
Pt3 Sc0 2.873482 1_556
Pt4 Sc0 2.873470 1_655
Pt4 Sc0 2.873470 1_556
Pt5 Sc0 2.873470 1_565
Pt5 Sc0 2.873470 1_556
