# generated using pymatgen
data_Ca21Ga8Sn6Sb
_symmetry_space_group_name_H-M   'P 1'
_cell_length_a   11.38267717
_cell_length_b   11.38267834
_cell_length_c   11.38267824
_cell_angle_alpha   60.00000601
_cell_angle_beta   60.00000260
_cell_angle_gamma   60.00000017
_symmetry_Int_Tables_number   1
_chemical_formula_structural   Ca21Ga8Sn6Sb
_chemical_formula_sum   'Ca21 Ga8 Sn6 Sb1'
_cell_volume   1042.84166100
_cell_formula_units_Z   1
loop_
 _symmetry_equiv_pos_site_id
 _symmetry_equiv_pos_as_xyz
  1  'x, y, z'
loop_
 _atom_site_type_symbol
 _atom_site_label
 _atom_site_symmetry_multiplicity
 _atom_site_fract_x
 _atom_site_fract_y
 _atom_site_fract_z
 _atom_site_occupancy
  Ca  Ca0  1  0.86994961  0.86994961  0.39015116  1
  Ca  Ca1  1  0.60984884  0.13005039  0.13005039  1
  Ca  Ca2  1  0.86994961  0.39015116  0.86994961  1
  Ca  Ca3  1  0.13005039  0.13005039  0.13005039  1
  Ca  Ca4  1  0.39015116  0.86994961  0.86994961  1
  Ca  Ca5  1  0.86994961  0.86994961  0.86994961  1
  Ca  Ca6  1  0.18006596  0.81993404  0.50000000  1
  Ca  Ca7  1  0.81993404  0.50000000  0.50000000  1
  Ca  Ca8  1  0.13005039  0.13005039  0.60984884  1
  Ca  Ca9  1  0.81993404  0.18006596  0.50000000  1
  Ca  Ca10  1  0.18006596  0.50000000  0.50000000  1
  Ca  Ca11  1  0.13005039  0.60984884  0.13005039  1
  Ca  Ca12  1  0.50000000  0.50000000  0.18006596  1
  Ca  Ca13  1  0.50000000  0.18006596  0.81993404  1
  Ca  Ca14  1  0.50000000  0.81993404  0.18006596  1
  Ca  Ca15  1  0.50000000  0.50000000  0.81993404  1
  Ca  Ca16  1  0.50000000  0.18006596  0.50000000  1
  Ca  Ca17  1  0.18006596  0.50000000  0.81993404  1
  Ca  Ca18  1  0.00000000  0.00000000  0.00000000  1
  Ca  Ca19  1  0.50000000  0.81993404  0.50000000  1
  Ca  Ca20  1  0.81993404  0.50000000  0.18006596  1
  Ga  Ga0  1  0.69128293  0.92615221  0.69128293  1
  Ga  Ga1  1  0.69128293  0.69128293  0.92615221  1
  Ga  Ga2  1  0.69128293  0.69128293  0.69128293  1
  Ga  Ga3  1  0.30871707  0.07384779  0.30871707  1
  Ga  Ga4  1  0.92615221  0.69128293  0.69128293  1
  Ga  Ga5  1  0.30871707  0.30871707  0.07384779  1
  Ga  Ga6  1  0.07384779  0.30871707  0.30871707  1
  Ga  Ga7  1  0.30871707  0.30871707  0.30871707  1
  Sn  Sn0  1  0.78744427  0.21255573  0.78744427  1
  Sn  Sn1  1  0.78744427  0.21255573  0.21255573  1
  Sn  Sn2  1  0.21255573  0.78744427  0.21255573  1
  Sn  Sn3  1  0.21255573  0.78744427  0.78744427  1
  Sn  Sn4  1  0.78744427  0.78744427  0.21255573  1
  Sn  Sn5  1  0.21255573  0.21255573  0.78744427  1
  Sb  Sb0  1  0.50000000  0.50000000  0.50000000  1
loop_
_geom_bond_atom_site_label_1
_geom_bond_atom_site_label_2
_geom_bond_distance
_geom_bond_site_symmetry_2
Ca0 Ga2 3.196107 1_555
Ca0 Ga0 3.196111 1_555
Ca0 Ga4 3.196111 1_555
Ca0 Sn2 3.244895 1_655
Ca0 Sn4 3.244895 1_555
Ca0 Sn1 3.244896 1_565
Ca1 Ga7 3.196106 1_555
Ca1 Ga5 3.196111 1_555
Ca1 Ga3 3.196111 1_555
Ca1 Sn1 3.244895 1_555
Ca1 Sn4 3.244896 1_545
Ca1 Sn0 3.244896 1_554
Ca2 Ga2 3.196107 1_555
Ca2 Ga1 3.196111 1_555
Ca2 Ga4 3.196112 1_555
Ca2 Sn5 3.244895 1_655
Ca2 Sn0 3.244895 1_555
Ca2 Sn1 3.244896 1_556
Ca3 Ga3 3.196101 1_555
Ca3 Ga5 3.196101 1_555
Ca3 Ga6 3.196102 1_555
Ca3 Sn1 3.244895 1_455
Ca3 Sn2 3.244896 1_545
Ca3 Sn5 3.244896 1_554
Ca4 Ga2 3.196106 1_555
Ca4 Ga1 3.196111 1_555
Ca4 Ga0 3.196111 1_555
Ca4 Sn3 3.244895 1_555
Ca4 Sn5 3.244896 1_565
Ca4 Sn2 3.244896 1_556
Ca5 Ga0 3.196101 1_555
Ca5 Ga1 3.196101 1_555
Ca5 Ga4 3.196102 1_555
Ca5 Sn3 3.244895 1_655
Ca5 Sn0 3.244896 1_565
Ca5 Sn4 3.244896 1_556
Ca6 Ga4 3.160628 1_455
Ca6 Ga3 3.160628 1_565
Ca6 Sn2 3.292720 1_555
Ca6 Sn3 3.292720 1_555
Ca6 Sb0 3.641706 1_555
Ca7 Ga6 3.160635 1_655
Ca7 Ga2 3.160637 1_555
Ca7 Sn4 3.292720 1_555
Ca7 Sn0 3.292720 1_555
Ca7 Sb0 3.641706 1_555
Ca8 Ga7 3.196107 1_555
Ca8 Ga3 3.196111 1_555
Ca8 Ga6 3.196111 1_555
Ca8 Sn0 3.244895 1_455
Ca8 Sn5 3.244895 1_555
Ca8 Sn3 3.244896 1_545
Ca9 Ga6 3.160628 1_655
Ca9 Ga0 3.160628 1_545
Ca9 Sn0 3.292720 1_555
Ca9 Sn1 3.292720 1_555
Ca9 Sb0 3.641706 1_555
Ca10 Ga4 3.160635 1_455
Ca10 Ga7 3.160637 1_555
Ca10 Sn5 3.292720 1_555
Ca10 Sn2 3.292720 1_555
Ca10 Sb0 3.641706 1_555
Ca11 Ga7 3.196107 1_555
Ca11 Ga5 3.196111 1_555
Ca11 Ga6 3.196112 1_555
Ca11 Sn4 3.244895 1_455
Ca11 Sn2 3.244895 1_555
Ca11 Sn3 3.244896 1_554
Ca12 Ga1 3.160635 1_554
Ca12 Ga7 3.160637 1_555
Ca12 Sn1 3.292720 1_555
Ca12 Sn2 3.292720 1_555
Ca12 Sb0 3.641706 1_555
Ca13 Ga0 3.160628 1_545
Ca13 Ga5 3.160628 1_556
Ca13 Sn5 3.292719 1_555
Ca13 Sn0 3.292719 1_555
Ca13 Sb0 3.641707 1_555
Ca14 Ga3 3.160628 1_565
Ca14 Ga1 3.160628 1_554
Ca14 Sn4 3.292719 1_555
Ca14 Sn2 3.292719 1_555
Ca14 Sb0 3.641707 1_555
Ca15 Ga5 3.160635 1_556
Ca15 Ga2 3.160637 1_555
Ca15 Sn3 3.292720 1_555
Ca15 Sn0 3.292720 1_555
Ca15 Sb0 3.641706 1_555
Ca16 Ga0 3.160635 1_545
Ca16 Ga7 3.160637 1_555
Ca16 Sn5 3.292720 1_555
Ca16 Sn1 3.292720 1_555
Ca16 Sb0 3.641706 1_555
Ca17 Ga4 3.160628 1_455
Ca17 Ga5 3.160628 1_556
Ca17 Sn5 3.292720 1_555
Ca17 Sn3 3.292720 1_555
Ca17 Sb0 3.641706 1_555
Ca18 Sn2 3.421624 1_545
Ca18 Sn1 3.421624 1_455
Ca18 Sn0 3.421624 1_454
Ca18 Sn3 3.421624 1_544
Ca18 Sn5 3.421624 1_554
Ca18 Sn4 3.421624 1_445
Ca19 Ga3 3.160635 1_565
Ca19 Ga2 3.160637 1_555
Ca19 Sn4 3.292720 1_555
Ca19 Sn3 3.292720 1_555
Ca19 Sb0 3.641706 1_555
Ca20 Ga6 3.160628 1_655
Ca20 Ga1 3.160628 1_554
Ca20 Sn4 3.292720 1_555
Ca20 Sn1 3.292720 1_555
Ca20 Sb0 3.641706 1_555
Ga0 Ga4 2.673441 1_555
Ga0 Ga2 2.673441 1_555
Ga0 Ga1 2.673442 1_555
Ga1 Ga4 2.673441 1_555
Ga1 Ga2 2.673441 1_555
Ga2 Ga4 2.673441 1_555
Ga3 Ga6 2.673441 1_555
Ga3 Ga7 2.673441 1_555
Ga3 Ga5 2.673442 1_555
Ga5 Ga6 2.673441 1_555
Ga5 Ga7 2.673441 1_555
Ga6 Ga7 2.673441 1_555
