# generated using pymatgen
data_Cs3Rb2AgAs2
_symmetry_space_group_name_H-M   'P 1'
_cell_length_a   6.13485257
_cell_length_b   6.13485135
_cell_length_c   20.62894512
_cell_angle_alpha   90.00000000
_cell_angle_beta   90.00000000
_cell_angle_gamma   119.99999621
_symmetry_Int_Tables_number   1
_chemical_formula_structural   Cs3Rb2AgAs2
_chemical_formula_sum   'Cs6 Rb4 Ag2 As4'
_cell_volume   672.38163570
_cell_formula_units_Z   2
loop_
 _symmetry_equiv_pos_site_id
 _symmetry_equiv_pos_as_xyz
  1  'x, y, z'
loop_
 _atom_site_type_symbol
 _atom_site_label
 _atom_site_symmetry_multiplicity
 _atom_site_fract_x
 _atom_site_fract_y
 _atom_site_fract_z
 _atom_site_occupancy
  Cs  Cs0  1  0.33333300  0.66666700  0.54963216  1
  Cs  Cs1  1  0.66666700  0.33333300  0.04963216  1
  Cs  Cs2  1  0.66666700  0.33333300  0.45036784  1
  Cs  Cs3  1  0.33333300  0.66666700  0.95036784  1
  Cs  Cs4  1  0.33333300  0.66666700  0.75000000  1
  Cs  Cs5  1  0.66666700  0.33333300  0.25000000  1
  Rb  Rb0  1  0.00000000  0.00000000  0.14798750  1
  Rb  Rb1  1  0.00000000  0.00000000  0.64798750  1
  Rb  Rb2  1  0.00000000  0.00000000  0.85201250  1
  Rb  Rb3  1  0.00000000  0.00000000  0.35201250  1
  Ag  Ag0  1  0.33333300  0.66666700  0.25000000  1
  Ag  Ag1  1  0.66666700  0.33333300  0.75000000  1
  As  As0  1  0.33333300  0.66666700  0.37225249  1
  As  As1  1  0.66666700  0.33333300  0.87225249  1
  As  As2  1  0.66666700  0.33333300  0.62774751  1
  As  As3  1  0.33333300  0.66666700  0.12774751  1
loop_
_geom_bond_atom_site_label_1
_geom_bond_atom_site_label_2
_geom_bond_distance
_geom_bond_site_symmetry_2
Ag0 As0 2.521940 1_555
Ag0 As3 2.521940 1_555
Ag0 Cs5 3.541955 1_565
Ag0 Cs5 3.541955 1_455
Ag0 Cs5 3.541965 1_555
Ag1 As1 2.521940 1_555
Ag1 As2 2.521940 1_555
Ag1 Cs4 3.541955 1_545
Ag1 Cs4 3.541955 1_655
Ag1 Cs4 3.541965 1_555
As0 Rb3 3.566479 1_565
As0 Rb3 3.566484 1_555
As0 Rb3 3.566485 1_665
As0 Cs0 3.659156 1_555
As0 Cs2 3.891295 1_565
As0 Cs2 3.891295 1_455
As0 Cs2 3.891304 1_555
As1 Rb2 3.566479 1_655
As1 Rb2 3.566484 1_665
As1 Rb2 3.566485 1_555
As1 Cs1 3.659156 1_556
As1 Cs3 3.891295 1_545
As1 Cs3 3.891295 1_655
As1 Cs3 3.891304 1_555
As2 Rb1 3.566479 1_655
As2 Rb1 3.566484 1_665
As2 Rb1 3.566485 1_555
As2 Cs2 3.659156 1_555
As2 Cs0 3.891295 1_545
As2 Cs0 3.891295 1_655
As2 Cs0 3.891304 1_555
As3 Rb0 3.566479 1_565
As3 Rb0 3.566484 1_555
As3 Rb0 3.566485 1_665
As3 Cs3 3.659156 1_554
As3 Cs1 3.891295 1_565
As3 Cs1 3.891295 1_455
As3 Cs1 3.891304 1_555
