# generated using pymatgen
data_KBa(AsRu)4
_symmetry_space_group_name_H-M   'P 1'
_cell_length_a   6.93896050
_cell_length_b   6.93896020
_cell_length_c   5.85619130
_cell_angle_alpha   90.00000000
_cell_angle_beta   90.00000000
_cell_angle_gamma   130.14861863
_symmetry_Int_Tables_number   1
_chemical_formula_structural   KBa(AsRu)4
_chemical_formula_sum   'K1 Ba1 As4 Ru4'
_cell_volume   215.53126904
_cell_formula_units_Z   1
loop_
 _symmetry_equiv_pos_site_id
 _symmetry_equiv_pos_as_xyz
  1  'x, y, z'
loop_
 _atom_site_type_symbol
 _atom_site_label
 _atom_site_symmetry_multiplicity
 _atom_site_fract_x
 _atom_site_fract_y
 _atom_site_fract_z
 _atom_site_occupancy
  K  K0  1  0.00000000  0.00000000  0.00000000  1
  Ba  Ba0  1  0.50000000  0.50000000  0.50000000  1
  As  As0  1  0.65147531  0.34852469  0.00000000  1
  As  As1  1  0.15145786  0.84854214  0.50000000  1
  As  As2  1  0.84854214  0.15145786  0.50000000  1
  As  As3  1  0.34852469  0.65147531  0.00000000  1
  Ru  Ru0  1  0.50000000  0.00000000  0.75017990  1
  Ru  Ru1  1  0.00000000  0.50000000  0.24982010  1
  Ru  Ru2  1  0.00000000  0.50000000  0.75017990  1
  Ru  Ru3  1  0.50000000  0.00000000  0.24982010  1
loop_
_geom_bond_atom_site_label_1
_geom_bond_atom_site_label_2
_geom_bond_distance
_geom_bond_site_symmetry_2
As0 Ru3 2.411605 1_555
As0 Ru0 2.411605 1_554
As0 Ru2 2.411605 1_654
As0 Ru1 2.411605 1_655
As0 K0 3.490867 1_665
As0 K0 3.490867 1_555
As0 Ba0 3.493986 1_554
As0 Ba0 3.493986 1_555
As1 Ru2 2.412997 1_555
As1 Ru1 2.412997 1_555
As1 Ru3 2.412997 1_565
As1 Ru0 2.412997 1_565
As1 Ba0 3.490747 1_565
As1 Ba0 3.490747 1_455
As1 K0 3.493866 1_566
As1 K0 3.493866 1_565
As2 Ru2 2.412997 1_655
As2 Ru1 2.412997 1_655
As2 Ru0 2.412997 1_555
As2 Ru3 2.412997 1_555
As2 Ba0 3.490747 1_545
As2 Ba0 3.490747 1_655
As2 K0 3.493866 1_655
As2 K0 3.493866 1_656
As3 Ru3 2.411605 1_565
As3 Ru0 2.411605 1_564
As3 Ru2 2.411605 1_554
As3 Ru1 2.411605 1_555
As3 K0 3.490867 1_555
As3 K0 3.490867 1_665
As3 Ba0 3.493986 1_555
As3 Ba0 3.493986 1_554
