# generated using pymatgen
data_K8Sb4Pb
_symmetry_space_group_name_H-M   'P 1'
_cell_length_a   11.64306747
_cell_length_b   11.64306733
_cell_length_c   11.64306752
_cell_angle_alpha   59.99999945
_cell_angle_beta   59.99999986
_cell_angle_gamma   59.99999790
_symmetry_Int_Tables_number   1
_chemical_formula_structural   K8Sb4Pb
_chemical_formula_sum   'K16 Sb8 Pb2'
_cell_volume   1116.05919981
_cell_formula_units_Z   2
loop_
 _symmetry_equiv_pos_site_id
 _symmetry_equiv_pos_as_xyz
  1  'x, y, z'
loop_
 _atom_site_type_symbol
 _atom_site_label
 _atom_site_symmetry_multiplicity
 _atom_site_fract_x
 _atom_site_fract_y
 _atom_site_fract_z
 _atom_site_occupancy
  K  K0  1  0.62500000  0.12500000  0.62500000  1
  K  K1  1  0.62500000  0.62500000  0.12500000  1
  K  K2  1  0.12500000  0.62500000  0.62500000  1
  K  K3  1  0.62500000  0.62500000  0.62500000  1
  K  K4  1  0.02199098  0.02199098  0.47800902  1
  K  K5  1  0.77199098  0.22800902  0.22800902  1
  K  K6  1  0.22800902  0.77199098  0.77199098  1
  K  K7  1  0.77199098  0.77199098  0.22800902  1
  K  K8  1  0.77199098  0.22800902  0.77199098  1
  K  K9  1  0.22800902  0.77199098  0.22800902  1
  K  K10  1  0.47800902  0.02199098  0.47800902  1
  K  K11  1  0.47800902  0.02199098  0.02199098  1
  K  K12  1  0.02199098  0.47800902  0.47800902  1
  K  K13  1  0.02199098  0.47800902  0.02199098  1
  K  K14  1  0.22800902  0.22800902  0.77199098  1
  K  K15  1  0.47800902  0.47800902  0.02199098  1
  Sb  Sb0  1  0.39519479  0.81441463  0.39519479  1
  Sb  Sb1  1  0.85480521  0.85480521  0.43558537  1
  Sb  Sb2  1  0.43558537  0.85480521  0.85480521  1
  Sb  Sb3  1  0.85480521  0.85480521  0.85480521  1
  Sb  Sb4  1  0.81441463  0.39519479  0.39519479  1
  Sb  Sb5  1  0.39519479  0.39519479  0.39519479  1
  Sb  Sb6  1  0.39519479  0.39519479  0.81441463  1
  Sb  Sb7  1  0.85480521  0.43558537  0.85480521  1
  Pb  Pb0  1  0.75000000  0.75000000  0.75000000  1
  Pb  Pb1  1  0.50000000  0.50000000  0.50000000  1
loop_
_geom_bond_atom_site_label_1
_geom_bond_atom_site_label_2
_geom_bond_distance
_geom_bond_site_symmetry_2
K0 Pb0 3.564947 1_545
K0 Pb1 3.564947 1_555
K0 Sb6 3.813025 1_555
K0 Sb1 3.813025 1_545
K0 Sb4 3.813025 1_555
K0 Sb2 3.813025 1_545
K0 Sb3 3.813032 1_545
K0 Sb5 3.813032 1_555
K1 Pb1 3.564947 1_555
K1 Pb0 3.564947 1_554
K1 Sb4 3.813025 1_555
K1 Sb2 3.813025 1_554
K1 Sb0 3.813025 1_555
K1 Sb7 3.813025 1_554
K1 Sb3 3.813032 1_554
K1 Sb5 3.813032 1_555
K2 Pb1 3.564947 1_555
K2 Pb0 3.564947 1_455
K2 Sb6 3.813025 1_555
K2 Sb1 3.813025 1_455
K2 Sb7 3.813025 1_455
K2 Sb0 3.813025 1_555
K2 Sb3 3.813032 1_455
K2 Sb5 3.813032 1_555
K3 Pb0 3.564947 1_555
K3 Pb1 3.564947 1_555
K3 Sb2 3.813034 1_555
K3 Sb4 3.813034 1_555
K3 Sb0 3.813034 1_555
K3 Sb7 3.813034 1_555
K3 Sb1 3.813034 1_555
K3 Sb6 3.813034 1_555
K4 Sb4 3.645649 1_455
K4 Sb0 3.645649 1_545
K4 Sb1 3.678883 1_445
K4 Sb3 3.678890 1_445
K5 Sb1 3.645649 1_545
K5 Sb7 3.645649 1_554
K5 Sb4 3.678883 1_555
K5 Sb5 3.678890 1_555
K6 Sb3 3.645647 1_455
K6 Sb2 3.645658 1_555
K6 Sb6 3.678893 1_555
K6 Sb0 3.678893 1_555
K7 Sb3 3.645647 1_554
K7 Sb1 3.645658 1_555
K7 Sb4 3.678893 1_555
K7 Sb0 3.678893 1_555
K8 Sb3 3.645647 1_545
K8 Sb7 3.645658 1_555
K8 Sb6 3.678893 1_555
K8 Sb4 3.678893 1_555
K9 Sb1 3.645649 1_455
K9 Sb2 3.645649 1_554
K9 Sb0 3.678883 1_555
K9 Sb5 3.678890 1_555
K10 Sb5 3.645647 1_555
K10 Sb0 3.645658 1_545
K10 Sb1 3.678893 1_545
K10 Sb2 3.678893 1_545
K11 Sb6 3.645649 1_554
K11 Sb0 3.645649 1_545
K11 Sb2 3.678883 1_544
K11 Sb3 3.678890 1_544
K12 Sb5 3.645647 1_555
K12 Sb4 3.645658 1_455
K12 Sb1 3.678893 1_455
K12 Sb7 3.678893 1_455
K13 Sb6 3.645649 1_554
K13 Sb4 3.645649 1_455
K13 Sb7 3.678883 1_454
K13 Sb3 3.678890 1_454
K14 Sb2 3.645649 1_545
K14 Sb7 3.645649 1_455
K14 Sb6 3.678883 1_555
K14 Sb5 3.678890 1_555
K15 Sb5 3.645647 1_555
K15 Sb6 3.645658 1_554
K15 Sb2 3.678893 1_554
K15 Sb7 3.678893 1_554
Pb0 Sb7 2.988990 1_555
Pb0 Sb2 2.988990 1_555
Pb0 Sb1 2.988990 1_555
Pb0 Sb3 2.989000 1_555
Pb1 Sb0 2.988990 1_555
Pb1 Sb4 2.988990 1_555
Pb1 Sb6 2.988990 1_555
Pb1 Sb5 2.989000 1_555
