# generated using pymatgen
data_SrIn2CuSn
_symmetry_space_group_name_H-M   'P 1'
_cell_length_a   6.78438719
_cell_length_b   6.78438720
_cell_length_c   6.78438675
_cell_angle_alpha   140.45200200
_cell_angle_beta   140.45199431
_cell_angle_gamma   57.16764079
_symmetry_Int_Tables_number   1
_chemical_formula_structural   SrIn2CuSn
_chemical_formula_sum   'Sr1 In2 Cu1 Sn1'
_cell_volume   125.53848043
_cell_formula_units_Z   1
loop_
 _symmetry_equiv_pos_site_id
 _symmetry_equiv_pos_as_xyz
  1  'x, y, z'
loop_
 _atom_site_type_symbol
 _atom_site_label
 _atom_site_symmetry_multiplicity
 _atom_site_fract_x
 _atom_site_fract_y
 _atom_site_fract_z
 _atom_site_occupancy
  Sr  Sr0  1  0.00098193  0.00098193  1.00000000  1
  In  In0  1  0.73665409  0.23665409  0.50000000  1
  In  In1  1  0.23665409  0.73665409  0.50000000  1
  Cu  Cu0  1  0.62103856  0.62103856  0.00000000  1
  Sn  Sn0  1  0.40467134  0.40467134  0.00000000  1
loop_
_geom_bond_atom_site_label_1
_geom_bond_atom_site_label_2
_geom_bond_distance
_geom_bond_site_symmetry_2
In0 Sn0 3.045618 1_555
In0 Sn0 3.045618 1_656
In0 In1 3.245949 1_656
In0 In1 3.245949 1_544
In0 In1 3.245949 1_645
In0 In1 3.245949 1_555
In0 Sr0 3.626724 1_655
In0 Sr0 3.626724 1_554
In0 Sr0 3.897076 1_654
In0 Sr0 3.897077 1_665
In1 Sn0 3.045618 1_555
In1 Sn0 3.045618 1_566
In1 Sr0 3.626724 1_565
In1 Sr0 3.626724 1_554
In1 Sr0 3.897077 1_564
In1 Sr0 3.897077 1_665
Cu0 Sn0 2.578012 1_555
Cu0 In0 2.676893 1_554
Cu0 In0 2.676893 1_565
Cu0 In1 2.676893 1_554
Cu0 In1 2.676893 1_655
Cu0 Sr0 3.547173 1_665
Cu0 Sr0 3.547173 1_564
Cu0 Sr0 3.547173 1_654
Cu0 Sr0 3.547173 1_553
Sn0 Sr0 3.442823 1_553
Sn0 Sr0 3.442823 1_654
Sn0 Sr0 3.442823 1_564
Sn0 Sr0 3.442823 1_665
