# generated using pymatgen
data_Ba3(H6Rh)2
_symmetry_space_group_name_H-M   'P 1'
_cell_length_a   5.49617476
_cell_length_b   5.49617541
_cell_length_c   8.89067397
_cell_angle_alpha   90.00000000
_cell_angle_beta   90.00000000
_cell_angle_gamma   120.00000202
_symmetry_Int_Tables_number   1
_chemical_formula_structural   Ba3(H6Rh)2
_chemical_formula_sum   'Ba3 H12 Rh2'
_cell_volume   232.58752947
_cell_formula_units_Z   1
loop_
 _symmetry_equiv_pos_site_id
 _symmetry_equiv_pos_as_xyz
  1  'x, y, z'
loop_
 _atom_site_type_symbol
 _atom_site_label
 _atom_site_symmetry_multiplicity
 _atom_site_fract_x
 _atom_site_fract_y
 _atom_site_fract_z
 _atom_site_occupancy
  Ba  Ba0  1  0.00000000  0.00000000  0.00000000  1
  Ba  Ba1  1  0.66666700  0.33333300  0.35881303  1
  Ba  Ba2  1  0.33333300  0.66666700  0.64118697  1
  H  H0  1  0.18789955  0.81210045  0.34680641  1
  H  H1  1  0.62419991  0.81210045  0.34680641  1
  H  H2  1  0.18789955  0.37580009  0.34680641  1
  H  H3  1  0.81210045  0.18789955  0.65319359  1
  H  H4  1  0.37580009  0.18789955  0.65319359  1
  H  H5  1  0.81210045  0.62419991  0.65319359  1
  H  H6  1  0.52870748  0.05741495  0.87112098  1
  H  H7  1  0.52870748  0.47129252  0.87112098  1
  H  H8  1  0.94258505  0.47129252  0.87112098  1
  H  H9  1  0.47129252  0.94258505  0.12887902  1
  H  H10  1  0.47129252  0.52870748  0.12887902  1
  H  H11  1  0.05741495  0.52870748  0.12887902  1
  Rh  Rh0  1  0.66666700  0.33333300  0.75966875  1
  Rh  Rh1  1  0.33333300  0.66666700  0.24033125  1
loop_
_geom_bond_atom_site_label_1
_geom_bond_atom_site_label_2
_geom_bond_distance
_geom_bond_site_symmetry_2
Ba0 H6 2.989912 1_554
Ba0 H9 2.989912 1_445
Ba0 H9 2.989912 1_545
Ba0 H6 2.989912 1_454
Ba0 H7 2.989912 1_554
Ba0 H10 2.989912 1_445
Ba0 H10 2.989912 1_555
Ba0 H7 2.989912 1_444
Ba0 H8 2.989913 1_454
Ba0 H11 2.989913 1_545
Ba0 H11 2.989913 1_555
Ba0 H8 2.989913 1_444
Ba1 H2 2.757573 1_655
Ba1 H1 2.757573 1_545
Ba1 H0 2.757578 1_655
Ba1 H0 2.757578 1_545
Ba1 H2 2.757584 1_555
Ba1 H1 2.757584 1_555
Ba1 H11 2.763735 1_655
Ba1 H9 2.763736 1_545
Ba1 H10 2.763739 1_555
Ba1 H4 2.960866 1_555
Ba1 H3 2.960866 1_555
Ba1 H5 2.960866 1_555
Ba2 H5 2.757573 1_455
Ba2 H4 2.757573 1_565
Ba2 H3 2.757578 1_455
Ba2 H3 2.757578 1_565
Ba2 H5 2.757584 1_555
Ba2 H4 2.757584 1_555
Ba2 H8 2.763735 1_455
Ba2 H6 2.763736 1_565
Ba2 H7 2.763739 1_555
Ba2 H1 2.960866 1_555
Ba2 H0 2.960866 1_555
Ba2 H2 2.960866 1_555
H0 Rh1 1.677168 1_555
H1 Rh1 1.677168 1_555
H2 Rh1 1.677168 1_555
H3 Rh0 1.677168 1_555
H4 Rh0 1.677168 1_555
H5 Rh0 1.677168 1_555
H6 Rh0 1.645196 1_555
H7 Rh0 1.645200 1_555
H8 Rh0 1.645196 1_555
H9 Rh1 1.645196 1_555
H10 Rh1 1.645200 1_555
H11 Rh1 1.645196 1_555
