# generated using pymatgen
data_K16HfSnP8
_symmetry_space_group_name_H-M   'P 1'
_cell_length_a   10.70324099
_cell_length_b   10.70324137
_cell_length_c   10.70324074
_cell_angle_alpha   59.99999892
_cell_angle_beta   59.99999776
_cell_angle_gamma   59.99999967
_symmetry_Int_Tables_number   1
_chemical_formula_structural   K16HfSnP8
_chemical_formula_sum   'K16 Hf1 Sn1 P8'
_cell_volume   867.02357628
_cell_formula_units_Z   1
loop_
 _symmetry_equiv_pos_site_id
 _symmetry_equiv_pos_as_xyz
  1  'x, y, z'
loop_
 _atom_site_type_symbol
 _atom_site_label
 _atom_site_symmetry_multiplicity
 _atom_site_fract_x
 _atom_site_fract_y
 _atom_site_fract_z
 _atom_site_occupancy
  K  K0  1  0.62347606  0.12957182  0.62347606  1
  K  K1  1  0.62347606  0.62347606  0.12957182  1
  K  K2  1  0.12957182  0.62347606  0.62347606  1
  K  K3  1  0.62347606  0.62347606  0.62347606  1
  K  K4  1  0.02366085  0.02366085  0.47633915  1
  K  K5  1  0.77832831  0.22167169  0.22167169  1
  K  K6  1  0.22167169  0.77832831  0.77832831  1
  K  K7  1  0.77832831  0.77832831  0.22167169  1
  K  K8  1  0.77832831  0.22167169  0.77832831  1
  K  K9  1  0.22167169  0.77832831  0.22167169  1
  K  K10  1  0.47633915  0.02366085  0.47633915  1
  K  K11  1  0.47633915  0.02366085  0.02366085  1
  K  K12  1  0.02366085  0.47633915  0.47633915  1
  K  K13  1  0.02366085  0.47633915  0.02366085  1
  K  K14  1  0.22167169  0.22167169  0.77832831  1
  K  K15  1  0.47633915  0.47633915  0.02366085  1
  Hf  Hf0  1  0.75000000  0.75000000  0.75000000  1
  Sn  Sn0  1  0.50000000  0.50000000  0.50000000  1
  P  P0  1  0.40004406  0.79986881  0.40004406  1
  P  P1  1  0.84753260  0.84753260  0.45740021  1
  P  P2  1  0.45740021  0.84753260  0.84753260  1
  P  P3  1  0.84753260  0.84753260  0.84753260  1
  P  P4  1  0.79986881  0.40004406  0.40004406  1
  P  P5  1  0.40004406  0.40004406  0.40004406  1
  P  P6  1  0.40004406  0.40004406  0.79986881  1
  P  P7  1  0.84753260  0.45740021  0.84753260  1
loop_
_geom_bond_atom_site_label_1
_geom_bond_atom_site_label_2
_geom_bond_distance
_geom_bond_site_symmetry_2
K0 Sn0 3.237231 1_555
K0 P5 3.419288 1_555
K0 P4 3.419294 1_555
K0 P6 3.419294 1_555
K0 P3 3.447784 1_545
K0 P2 3.447797 1_545
K0 P1 3.447797 1_545
K1 Sn0 3.237231 1_555
K1 P5 3.419288 1_555
K1 P0 3.419294 1_555
K1 P4 3.419294 1_555
K1 P3 3.447784 1_554
K1 P7 3.447797 1_554
K1 P2 3.447797 1_554
K2 Sn0 3.237231 1_555
K2 P5 3.419288 1_555
K2 P0 3.419294 1_555
K2 P6 3.419294 1_555
K2 P3 3.447784 1_455
K2 P7 3.447797 1_455
K2 P1 3.447797 1_455
K3 Sn0 3.237231 1_555
K3 P0 3.419286 1_555
K3 P4 3.419286 1_555
K3 P6 3.419286 1_555
K3 P7 3.447780 1_555
K3 P2 3.447780 1_555
K3 P1 3.447780 1_555
K4 P3 3.386231 1_445
K4 P1 3.386245 1_445
K4 P0 3.413220 1_545
K4 P4 3.413220 1_455
K5 P7 3.427768 1_554
K5 P1 3.427768 1_545
K5 P5 3.445017 1_555
K5 P4 3.445023 1_555
K6 P2 3.427753 1_555
K6 P3 3.427774 1_455
K6 P0 3.445014 1_555
K6 P6 3.445014 1_555
K7 P1 3.427753 1_555
K7 P3 3.427774 1_554
K7 P0 3.445014 1_555
K7 P4 3.445014 1_555
K8 P7 3.427753 1_555
K8 P3 3.427774 1_545
K8 P4 3.445014 1_555
K8 P6 3.445014 1_555
K9 P2 3.427768 1_554
K9 P1 3.427768 1_455
K9 P5 3.445017 1_555
K9 P0 3.445023 1_555
K10 P2 3.386226 1_545
K10 P1 3.386226 1_545
K10 P0 3.413213 1_545
K10 P5 3.413223 1_555
K11 P3 3.386231 1_544
K11 P2 3.386245 1_544
K11 P0 3.413220 1_545
K11 P6 3.413220 1_554
K12 P7 3.386226 1_455
K12 P1 3.386226 1_455
K12 P4 3.413212 1_455
K12 P5 3.413222 1_555
K13 P3 3.386231 1_454
K13 P7 3.386245 1_454
K13 P4 3.413220 1_455
K13 P6 3.413220 1_554
K14 P7 3.427768 1_455
K14 P2 3.427768 1_545
K14 P5 3.445017 1_555
K14 P6 3.445023 1_555
K15 P7 3.386226 1_554
K15 P2 3.386226 1_554
K15 P6 3.413212 1_554
K15 P5 3.413222 1_555
Hf0 P3 2.557059 1_555
Hf0 P1 2.557076 1_555
Hf0 P2 2.557076 1_555
Hf0 P7 2.557076 1_555
Hf0 K1 3.317139 1_556
Hf0 K2 3.317139 1_655
Hf0 K3 3.317139 1_555
Hf0 K0 3.317139 1_565
P0 Sn0 2.620601 1_555
P4 Sn0 2.620601 1_555
P5 Sn0 2.620593 1_555
P6 Sn0 2.620601 1_555
