# generated using pymatgen
data_NbAg3(SeS)2
_symmetry_space_group_name_H-M   'P 1'
_cell_length_a   6.11839717
_cell_length_b   6.11839673
_cell_length_c   6.12666786
_cell_angle_alpha   90.00000000
_cell_angle_beta   90.00000000
_cell_angle_gamma   92.47556904
_symmetry_Int_Tables_number   1
_chemical_formula_structural   NbAg3(SeS)2
_chemical_formula_sum   'Nb1 Ag3 Se2 S2'
_cell_volume   229.13642502
_cell_formula_units_Z   1
loop_
 _symmetry_equiv_pos_site_id
 _symmetry_equiv_pos_as_xyz
  1  'x, y, z'
loop_
 _atom_site_type_symbol
 _atom_site_label
 _atom_site_symmetry_multiplicity
 _atom_site_fract_x
 _atom_site_fract_y
 _atom_site_fract_z
 _atom_site_occupancy
  Nb  Nb0  1  0.00000000  0.00000000  0.00177441  1
  Ag  Ag0  1  0.50000000  0.00000000  0.00560371  1
  Ag  Ag1  1  0.00000000  0.50000000  0.00560371  1
  Ag  Ag2  1  0.00000000  0.00000000  0.50010480  1
  Se  Se0  1  0.75875724  0.75875724  0.76905881  1
  Se  Se1  1  0.24124276  0.24124276  0.76905881  1
  S  S0  1  0.21519506  0.78480494  0.22439787  1
  S  S1  1  0.78480494  0.21519506  0.22439787  1
loop_
_geom_bond_atom_site_label_1
_geom_bond_atom_site_label_2
_geom_bond_distance
_geom_bond_site_symmetry_2
Nb0 S0 2.340346 1_545
Nb0 S1 2.340346 1_455
Nb0 Se1 2.490358 1_554
Nb0 Se0 2.490358 1_444
Ag0 S1 2.523634 1_555
Ag0 S0 2.523634 1_545
Ag0 Se0 2.643337 1_544
Ag0 Se1 2.643337 1_554
Ag1 S0 2.523634 1_555
Ag1 S1 2.523634 1_455
Ag1 Se0 2.643337 1_454
Ag1 Se1 2.643337 1_554
Ag2 S0 2.543651 1_545
Ag2 S1 2.543651 1_455
Ag2 Se1 2.623791 1_555
Ag2 Se0 2.623791 1_445
