# generated using pymatgen
data_Fe2PbBr8
_symmetry_space_group_name_H-M   'P 1'
_cell_length_a   7.50250759
_cell_length_b   7.51886516
_cell_length_c   13.55085334
_cell_angle_alpha   85.44791937
_cell_angle_beta   90.00000000
_cell_angle_gamma   90.00000000
_symmetry_Int_Tables_number   1
_chemical_formula_structural   Fe2PbBr8
_chemical_formula_sum   'Fe4 Pb2 Br16'
_cell_volume   761.99703701
_cell_formula_units_Z   2
loop_
 _symmetry_equiv_pos_site_id
 _symmetry_equiv_pos_as_xyz
  1  'x, y, z'
loop_
 _atom_site_type_symbol
 _atom_site_label
 _atom_site_symmetry_multiplicity
 _atom_site_fract_x
 _atom_site_fract_y
 _atom_site_fract_z
 _atom_site_occupancy
  Fe  Fe0  1  0.26294740  0.67870045  0.57712438  1
  Fe  Fe1  1  0.73705260  0.67870045  0.07712438  1
  Fe  Fe2  1  0.73705260  0.32129955  0.42287562  1
  Fe  Fe3  1  0.26294740  0.32129955  0.92287562  1
  Pb  Pb0  1  0.87215134  0.50000000  0.75000000  1
  Pb  Pb1  1  0.12784866  0.50000000  0.25000000  1
  Br  Br0  1  0.81776162  0.37965130  0.11727460  1
  Br  Br1  1  0.81776162  0.62034870  0.38272540  1
  Br  Br2  1  0.30328127  0.74226674  0.40639548  1
  Br  Br3  1  0.30328127  0.25773326  0.09360452  1
  Br  Br4  1  0.69671873  0.25773326  0.59360452  1
  Br  Br5  1  0.69671873  0.74226674  0.90639548  1
  Br  Br6  1  0.01947240  0.84286335  0.63417812  1
  Br  Br7  1  0.01947240  0.15713665  0.86582188  1
  Br  Br8  1  0.98052760  0.15713665  0.36582188  1
  Br  Br9  1  0.98052760  0.84286335  0.13417812  1
  Br  Br10  1  0.52772408  0.74987216  0.65405782  1
  Br  Br11  1  0.52772408  0.25012784  0.84594218  1
  Br  Br12  1  0.47227592  0.25012784  0.34594218  1
  Br  Br13  1  0.47227592  0.74987216  0.15405782  1
  Br  Br14  1  0.18223838  0.37965130  0.61727460  1
  Br  Br15  1  0.18223838  0.62034870  0.88272540  1
loop_
_geom_bond_atom_site_label_1
_geom_bond_atom_site_label_2
_geom_bond_distance
_geom_bond_site_symmetry_2
Br0 Fe1 2.350379 1_555
Br0 Pb1 3.118362 1_655
Br1 Fe2 2.350379 1_555
Br1 Pb1 3.118362 1_655
Br2 Fe0 2.344541 1_555
Br2 Pb1 3.186633 1_555
Br3 Fe3 2.344541 1_554
Br3 Pb1 3.186633 1_555
Br4 Fe2 2.344541 1_555
Br4 Pb0 3.186633 1_555
Br5 Fe1 2.344541 1_556
Br5 Pb0 3.186633 1_555
Br6 Fe0 2.368433 1_555
Br6 Pb0 3.112633 1_455
Br7 Fe3 2.368433 1_555
Br7 Pb0 3.112633 1_455
Br8 Fe2 2.368433 1_555
Br8 Pb1 3.112633 1_655
Br9 Fe1 2.368433 1_555
Br9 Pb1 3.112633 1_655
Br10 Fe0 2.325487 1_555
Br10 Pb0 3.392591 1_555
Br11 Fe3 2.325487 1_555
Br11 Pb0 3.392591 1_555
Br12 Fe2 2.325487 1_555
Br12 Pb1 3.392591 1_555
Br13 Fe1 2.325487 1_555
Br13 Pb1 3.392591 1_555
Br14 Fe0 2.350379 1_555
Br14 Pb0 3.118362 1_455
Br15 Fe3 2.350379 1_555
Br15 Pb0 3.118362 1_455
