# generated using pymatgen
data_Ca3Al3Si2SbO14
_symmetry_space_group_name_H-M   'P 1'
_cell_length_a   8.02406021
_cell_length_b   8.02406029
_cell_length_c   4.92182722
_cell_angle_alpha   90.00000000
_cell_angle_beta   90.00000000
_cell_angle_gamma   119.99999570
_symmetry_Int_Tables_number   1
_chemical_formula_structural   Ca3Al3Si2SbO14
_chemical_formula_sum   'Ca3 Al3 Si2 Sb1 O14'
_cell_volume   274.43871432
_cell_formula_units_Z   1
loop_
 _symmetry_equiv_pos_site_id
 _symmetry_equiv_pos_as_xyz
  1  'x, y, z'
loop_
 _atom_site_type_symbol
 _atom_site_label
 _atom_site_symmetry_multiplicity
 _atom_site_fract_x
 _atom_site_fract_y
 _atom_site_fract_z
 _atom_site_occupancy
  Ca  Ca0  1  1.00000000  0.42588001  0.00000000  1
  Ca  Ca1  1  0.57411999  0.57411999  0.00000000  1
  Ca  Ca2  1  0.42588001  1.00000000  0.00000000  1
  Al  Al0  1  0.25575645  0.25575645  0.50000000  1
  Al  Al1  1  0.74424355  0.00000000  0.50000000  1
  Al  Al2  1  0.00000000  0.74424355  0.50000000  1
  Si  Si0  1  0.33333300  0.66666700  0.54062197  1
  Si  Si1  1  0.66666700  0.33333300  0.45937803  1
  Sb  Sb0  1  0.00000000  0.00000000  0.00000000  1
  O  O0  1  0.09291605  0.22676993  0.23924808  1
  O  O1  1  0.77323007  0.86614612  0.23924808  1
  O  O2  1  0.13385388  0.90708395  0.23924808  1
  O  O3  1  0.86614612  0.77323007  0.76075192  1
  O  O4  1  0.90708395  0.13385388  0.76075192  1
  O  O5  1  0.22676993  0.09291605  0.76075192  1
  O  O6  1  0.31417510  0.47091600  0.67604155  1
  O  O7  1  0.52908400  0.84325909  0.67604155  1
  O  O8  1  0.15674091  0.68582490  0.67604155  1
  O  O9  1  0.33333300  0.66666700  0.21528914  1
  O  O10  1  0.66666700  0.33333300  0.78471086  1
  O  O11  1  0.47091600  0.31417510  0.32395845  1
  O  O12  1  0.68582490  0.15674091  0.32395845  1
  O  O13  1  0.84325909  0.52908400  0.32395845  1
loop_
_geom_bond_atom_site_label_1
_geom_bond_atom_site_label_2
_geom_bond_distance
_geom_bond_site_symmetry_2
Ca0 O0 2.384571 1_655
Ca0 O4 2.384571 1_554
Ca0 O13 2.418972 1_555
Ca0 O8 2.418972 1_654
Ca0 O10 2.615713 1_554
Ca0 O9 2.615714 1_655
Ca0 O6 2.849062 1_654
Ca0 O12 2.849062 1_555
Ca1 O3 2.384571 1_554
Ca1 O1 2.384571 1_555
Ca1 O6 2.418972 1_554
Ca1 O11 2.418972 1_555
Ca1 O9 2.615720 1_555
Ca1 O10 2.615720 1_554
Ca1 O13 2.849062 1_555
Ca1 O7 2.849062 1_554
Ca2 O5 2.384571 1_564
Ca2 O2 2.384571 1_555
Ca2 O7 2.418972 1_554
Ca2 O12 2.418972 1_565
Ca2 O9 2.615713 1_555
Ca2 O10 2.615714 1_564
Ca2 O11 2.849062 1_565
Ca2 O8 2.849062 1_554
Al0 O0 1.761974 1_555
Al0 O5 1.761974 1_555
Al0 O11 1.772517 1_555
Al0 O6 1.772517 1_555
Al1 O1 1.761974 1_545
Al1 O4 1.761974 1_555
Al1 O12 1.772517 1_555
Al1 O7 1.772517 1_545
Al2 O3 1.761974 1_455
Al2 O2 1.761974 1_555
Al2 O8 1.772517 1_555
Al2 O13 1.772517 1_455
O0 Sb0 1.974037 1_555
O1 Sb0 1.974037 1_665
O2 Sb0 1.974037 1_565
O3 Sb0 1.974037 1_666
O4 Sb0 1.974037 1_656
O5 Sb0 1.974037 1_556
O6 Si0 1.641209 1_555
O7 Si0 1.641206 1_555
O8 Si0 1.641201 1_555
O9 Si0 1.601232 1_555
O10 Si1 1.601232 1_555
O11 Si1 1.641209 1_555
O12 Si1 1.641201 1_555
O13 Si1 1.641206 1_555
