# generated using pymatgen
data_Be9V2Mo
_symmetry_space_group_name_H-M   'P 1'
_cell_length_a   7.22905532
_cell_length_b   7.22905549
_cell_length_c   7.22905546
_cell_angle_alpha   34.94282593
_cell_angle_beta   34.94281925
_cell_angle_gamma   34.94282108
_symmetry_Int_Tables_number   1
_chemical_formula_structural   Be9V2Mo
_chemical_formula_sum   'Be9 V2 Mo1'
_cell_volume   110.64685093
_cell_formula_units_Z   1
loop_
 _symmetry_equiv_pos_site_id
 _symmetry_equiv_pos_as_xyz
  1  'x, y, z'
loop_
 _atom_site_type_symbol
 _atom_site_label
 _atom_site_symmetry_multiplicity
 _atom_site_fract_x
 _atom_site_fract_y
 _atom_site_fract_z
 _atom_site_occupancy
  Be  Be0  1  0.58528657  0.58528657  0.07789730  1
  Be  Be1  1  0.33422140  0.33422140  0.33422140  1
  Be  Be2  1  0.92210170  0.41471343  0.41471543  1
  Be  Be3  1  0.41471343  0.92210170  0.41471543  1
  Be  Be4  1  0.50000000  0.50000000  0.50000000  1
  Be  Be5  1  0.58528657  0.07789830  0.58528457  1
  Be  Be6  1  0.07789830  0.58528657  0.58528457  1
  Be  Be7  1  0.66577860  0.66577860  0.66577860  1
  Be  Be8  1  0.41471343  0.41471343  0.92210270  1
  V  V0  1  0.14241811  0.14241811  0.14241811  1
  V  V1  1  0.85758189  0.85758189  0.85758189  1
  Mo  Mo0  1  0.00000000  0.00000000  0.00000000  1
loop_
_geom_bond_atom_site_label_1
_geom_bond_atom_site_label_2
_geom_bond_distance
_geom_bond_site_symmetry_2
Be0 Be1 2.096423 1_555
Be0 Be7 2.103311 1_554
Be0 Be4 2.127407 1_555
Be0 Be6 2.138310 1_654
Be0 Be5 2.138310 1_564
Be0 Be6 2.202447 1_555
Be0 Be5 2.202447 1_555
Be0 V0 2.486067 1_565
Be0 V0 2.486067 1_655
Be0 V1 2.521698 1_554
Be0 Mo0 2.747633 1_565
Be0 Mo0 2.747633 1_655
Be1 Be6 2.096414 1_555
Be1 Be5 2.096414 1_555
Be1 Be2 2.103308 1_455
Be1 Be3 2.103308 1_545
Be1 Be8 2.103311 1_554
Be1 Mo0 2.506202 1_655
Be1 Mo0 2.506202 1_556
Be1 Mo0 2.506203 1_565
Be1 Be7 2.506397 1_455
Be1 Be7 2.506398 1_554
Be1 Be7 2.506398 1_545
Be2 Be7 2.096414 1_555
Be2 Be4 2.127410 1_555
Be2 Be3 2.138308 1_645
Be2 Be8 2.138310 1_654
Be2 Be8 2.202447 1_555
Be2 Be3 2.202449 1_555
Be2 V1 2.486067 1_545
Be2 V1 2.486074 1_554
Be2 V0 2.521706 1_655
Be2 Mo0 2.747626 1_656
Be2 Mo0 2.747632 1_665
Be3 Be7 2.096414 1_555
Be3 Be4 2.127410 1_555
Be3 Be8 2.138310 1_564
Be3 Be8 2.202447 1_555
Be3 V1 2.486066 1_455
Be3 V1 2.486074 1_554
Be3 V0 2.521706 1_565
Be3 Mo0 2.747625 1_566
Be3 Mo0 2.747632 1_665
Be4 Be8 2.127407 1_555
Be4 Be6 2.127410 1_555
Be4 Be5 2.127410 1_555
Be4 V1 2.554220 1_455
Be4 V0 2.554220 1_655
Be4 V1 2.554220 1_554
Be4 V0 2.554220 1_556
Be4 V1 2.554220 1_545
Be4 V0 2.554220 1_565
Be5 Be7 2.103308 1_545
Be5 Be6 2.138308 1_645
Be5 Be6 2.202449 1_555
Be5 V0 2.486066 1_655
Be5 V0 2.486074 1_556
Be5 V1 2.521706 1_545
Be5 Mo0 2.747625 1_655
Be5 Mo0 2.747632 1_556
Be6 Be7 2.103308 1_455
Be6 V0 2.486067 1_565
Be6 V0 2.486074 1_556
Be6 V1 2.521706 1_455
Be6 Mo0 2.747626 1_565
Be6 Mo0 2.747632 1_556
Be7 Be8 2.096423 1_555
Be7 Mo0 2.506202 1_566
Be7 Mo0 2.506202 1_665
Be7 Mo0 2.506203 1_656
Be8 V1 2.486067 1_545
Be8 V1 2.486067 1_455
Be8 V0 2.521698 1_556
Be8 Mo0 2.747633 1_656
Be8 Mo0 2.747633 1_566
V0 V1 2.693322 1_544
V0 V1 2.693322 1_445
V0 V1 2.693322 1_454
Mo0 V0 2.897103 1_555
Mo0 V1 2.897103 1_444
