# generated using pymatgen
data_Na6In4AgPd
_symmetry_space_group_name_H-M   'P 1'
_cell_length_a   9.54593794
_cell_length_b   9.54593831
_cell_length_c   9.53135541
_cell_angle_alpha   60.05052157
_cell_angle_beta   60.05052029
_cell_angle_gamma   60.04231895
_symmetry_Int_Tables_number   1
_chemical_formula_structural   Na6In4AgPd
_chemical_formula_sum   'Na12 In8 Ag2 Pd2'
_cell_volume   614.81864590
_cell_formula_units_Z   2
loop_
 _symmetry_equiv_pos_site_id
 _symmetry_equiv_pos_as_xyz
  1  'x, y, z'
loop_
 _atom_site_type_symbol
 _atom_site_label
 _atom_site_symmetry_multiplicity
 _atom_site_fract_x
 _atom_site_fract_y
 _atom_site_fract_z
 _atom_site_occupancy
  Na  Na0  1  0.04425695  0.45317944  0.04539371  1
  Na  Na1  1  0.79682056  0.20574305  0.20460629  1
  Na  Na2  1  0.20574305  0.79682056  0.79283110  1
  Na  Na3  1  0.79682056  0.20574305  0.79283110  1
  Na  Na4  1  0.20648452  0.20648452  0.79351548  1
  Na  Na5  1  0.79830582  0.79830582  0.20169418  1
  Na  Na6  1  0.04351548  0.04351548  0.45648452  1
  Na  Na7  1  0.45317944  0.04425695  0.04539371  1
  Na  Na8  1  0.04425695  0.45317944  0.45716890  1
  Na  Na9  1  0.45169418  0.45169418  0.04830582  1
  Na  Na10  1  0.20574305  0.79682056  0.20460629  1
  Na  Na11  1  0.45317944  0.04425695  0.45716890  1
  In  In0  1  0.82741589  0.82741589  0.84103334  1
  In  In1  1  0.74641299  0.42749585  0.41304608  1
  In  In2  1  0.42749585  0.74641299  0.41304608  1
  In  In3  1  0.42258411  0.42258411  0.74586712  1
  In  In4  1  0.82250415  0.50358701  0.83695392  1
  In  In5  1  0.82741589  0.82741589  0.50413288  1
  In  In6  1  0.50358701  0.82250415  0.83695392  1
  In  In7  1  0.42258411  0.42258411  0.40896666  1
  Ag  Ag0  1  0.12500000  0.62500000  0.62500000  1
  Ag  Ag1  1  0.62500000  0.12500000  0.62500000  1
  Pd  Pd0  1  0.62500000  0.62500000  0.62500000  1
  Pd  Pd1  1  0.62500000  0.62500000  0.12500000  1
loop_
_geom_bond_atom_site_label_1
_geom_bond_atom_site_label_2
_geom_bond_distance
_geom_bond_site_symmetry_2
Na0 Pd1 3.307283 1_455
Na1 Pd1 3.307283 1_555
Na2 Pd0 3.307285 1_555
Na3 Pd0 3.307285 1_555
Na5 Pd1 3.340155 1_555
Na5 Pd0 3.340155 1_555
Na7 Pd1 3.307283 1_545
Na8 Pd0 3.307285 1_455
Na9 Pd0 3.340155 1_554
Na9 Pd1 3.340155 1_555
Na10 Pd1 3.307283 1_555
Na11 Pd0 3.307285 1_545
In0 Pd1 2.842178 1_556
In0 Na5 3.184491 1_556
In0 Na7 3.245555 1_566
In0 Na0 3.245555 1_656
In0 Na2 3.280712 1_655
In0 Na3 3.280712 1_565
In0 Na6 3.331100 1_665
In1 Pd0 2.874358 1_555
In1 Pd1 2.874366 1_555
In1 Na8 3.211507 1_655
In1 Na0 3.211519 1_655
In1 Na5 3.235462 1_555
In1 Na1 3.299529 1_555
In1 Na3 3.299529 1_555
In1 Na6 3.305350 1_655
In2 Pd0 2.874358 1_555
In2 Pd1 2.874366 1_555
In2 Na11 3.211507 1_565
In2 Na7 3.211519 1_565
In2 Na5 3.235462 1_555
In2 Na10 3.299529 1_555
In2 Na2 3.299529 1_555
In2 Na6 3.305350 1_565
In3 Pd0 2.842173 1_555
In3 Na9 3.184472 1_556
In3 Na3 3.245552 1_555
In3 Na2 3.245552 1_555
In3 Na0 3.280702 1_556
In3 Na7 3.280702 1_556
In3 Na4 3.331109 1_555
In4 Pd0 2.874358 1_555
In4 Pd1 2.874366 1_556
In4 Na3 3.211507 1_555
In4 Na1 3.211519 1_556
In4 Na9 3.235462 1_556
In4 Na0 3.299529 1_656
In4 Na8 3.299529 1_655
In4 Na4 3.305350 1_655
In5 Pd0 2.842173 1_555
In5 Na5 3.184472 1_555
In5 Na11 3.245552 1_565
In5 Na8 3.245552 1_655
In5 Na10 3.280702 1_655
In5 Na1 3.280702 1_565
In5 Na6 3.331109 1_665
In6 Pd0 2.874358 1_555
In6 Pd1 2.874366 1_556
In6 Na2 3.211507 1_555
In6 Na10 3.211519 1_556
In6 Na9 3.235462 1_556
In6 Na7 3.299529 1_566
In6 Na11 3.299529 1_565
In6 Na4 3.305350 1_565
In7 Pd1 2.842178 1_555
In7 Na9 3.184491 1_555
In7 Na1 3.245555 1_555
In7 Na10 3.245555 1_555
In7 Na8 3.280712 1_555
In7 Na11 3.280712 1_555
In7 Na4 3.331100 1_555
Ag0 In0 2.948459 1_455
Ag0 In7 2.948459 1_555
Ag0 In3 2.948469 1_555
Ag0 In5 2.948469 1_455
Ag0 In2 2.990443 1_555
Ag0 In4 2.990443 1_455
Ag0 Na6 3.298882 1_565
Ag0 Na4 3.298882 1_555
Ag0 Na0 3.310069 1_556
Ag0 Na10 3.310069 1_555
Ag0 Na2 3.310077 1_555
Ag0 Na8 3.310077 1_555
Ag1 In0 2.948459 1_545
Ag1 In7 2.948459 1_555
Ag1 In3 2.948469 1_555
Ag1 In5 2.948469 1_545
Ag1 In1 2.990443 1_555
Ag1 In6 2.990443 1_545
Ag1 Na6 3.298881 1_655
Ag1 Na4 3.298881 1_555
Ag1 Na7 3.310069 1_556
Ag1 Na1 3.310069 1_555
Ag1 Na3 3.310077 1_555
Ag1 Na11 3.310077 1_555
