# generated using pymatgen
data_SrLi2Bi2Pb
_symmetry_space_group_name_H-M   'P 1'
_cell_length_a   4.95228673
_cell_length_b   7.95127446
_cell_length_c   8.58386090
_cell_angle_alpha   89.99064181
_cell_angle_beta   90.00000000
_cell_angle_gamma   90.00000000
_symmetry_Int_Tables_number   1
_chemical_formula_structural   SrLi2Bi2Pb
_chemical_formula_sum   'Sr2 Li4 Bi4 Pb2'
_cell_volume   338.00660925
_cell_formula_units_Z   2
loop_
 _symmetry_equiv_pos_site_id
 _symmetry_equiv_pos_as_xyz
  1  'x, y, z'
loop_
 _atom_site_type_symbol
 _atom_site_label
 _atom_site_symmetry_multiplicity
 _atom_site_fract_x
 _atom_site_fract_y
 _atom_site_fract_z
 _atom_site_occupancy
  Sr  Sr0  1  0.75000000  0.00012094  0.75086904  1
  Sr  Sr1  1  0.25000000  0.99987906  0.24913096  1
  Li  Li0  1  0.75000000  0.35261701  0.08195487  1
  Li  Li1  1  0.25000000  0.64738299  0.91804513  1
  Li  Li2  1  0.75000000  0.65130276  0.41494681  1
  Li  Li3  1  0.25000000  0.34869724  0.58505319  1
  Bi  Bi0  1  0.75000000  0.74825875  0.08287802  1
  Bi  Bi1  1  0.25000000  0.25174125  0.91712198  1
  Bi  Bi2  1  0.75000000  0.25128905  0.41698959  1
  Bi  Bi3  1  0.25000000  0.74871095  0.58301041  1
  Pb  Pb0  1  0.75000000  0.50050489  0.74824662  1
  Pb  Pb1  1  0.25000000  0.49949511  0.25175338  1
loop_
_geom_bond_atom_site_label_1
_geom_bond_atom_site_label_2
_geom_bond_distance
_geom_bond_site_symmetry_2
Li0 Pb0 3.096292 1_554
Li0 Pb1 3.101635 1_555
Li0 Pb1 3.101635 1_655
Li1 Pb1 3.096292 1_556
Li1 Pb0 3.101635 1_455
Li1 Pb0 3.101635 1_555
Li2 Pb1 3.090496 1_655
Li2 Pb1 3.090496 1_555
Li2 Pb0 3.101916 1_555
Li3 Pb0 3.090496 1_455
Li3 Pb0 3.090496 1_555
Li3 Pb1 3.101916 1_555
Bi0 Li2 2.952723 1_555
Bi0 Li1 2.962593 1_654
Bi0 Li1 2.962593 1_554
Bi0 Li0 3.145867 1_555
Bi0 Sr0 3.482913 1_564
Bi0 Sr1 3.488785 1_655
Bi0 Sr1 3.488785 1_555
Bi1 Li3 2.952723 1_555
Bi1 Li0 2.962593 1_556
Bi1 Li0 2.962593 1_456
Bi1 Li1 3.145867 1_555
Bi1 Sr1 3.482913 1_546
Bi1 Sr0 3.488785 1_455
Bi1 Sr0 3.488785 1_555
Bi2 Li3 2.968624 1_555
Bi2 Li3 2.968624 1_655
Bi2 Li0 2.986490 1_555
Bi2 Li2 3.180664 1_555
Bi2 Sr0 3.492904 1_555
Bi2 Sr1 3.493489 1_645
Bi2 Sr1 3.493489 1_545
Bi3 Li2 2.968624 1_455
Bi3 Li2 2.968624 1_555
Bi3 Li1 2.986490 1_555
Bi3 Li3 3.180664 1_555
Bi3 Sr1 3.492904 1_555
Bi3 Sr0 3.493489 1_465
Bi3 Sr0 3.493489 1_565
