# generated using pymatgen
data_Sr3Te4O11
_symmetry_space_group_name_H-M   'P 1'
_cell_length_a   7.53338535
_cell_length_b   9.27167745
_cell_length_c   9.58677863
_cell_angle_alpha   98.00186374
_cell_angle_beta   109.72044131
_cell_angle_gamma   102.08641528
_symmetry_Int_Tables_number   1
_chemical_formula_structural   Sr3Te4O11
_chemical_formula_sum   'Sr6 Te8 O22'
_cell_volume   600.13117303
_cell_formula_units_Z   2
loop_
 _symmetry_equiv_pos_site_id
 _symmetry_equiv_pos_as_xyz
  1  'x, y, z'
loop_
 _atom_site_type_symbol
 _atom_site_label
 _atom_site_symmetry_multiplicity
 _atom_site_fract_x
 _atom_site_fract_y
 _atom_site_fract_z
 _atom_site_occupancy
  Sr  Sr0  1  0.47569279  0.33681368  0.32501567  1
  Sr  Sr1  1  0.04426202  0.37633691  0.53038080  1
  Sr  Sr2  1  0.48875993  0.82388684  0.82634818  1
  Sr  Sr3  1  0.31737538  0.21464686  0.88627182  1
  Sr  Sr4  1  0.87226598  0.76552956  0.59081621  1
  Sr  Sr5  1  0.88565961  0.25336811  0.09156852  1
  Te  Te0  1  0.10082627  0.93252778  0.00760410  1
  Te  Te1  1  0.19859703  0.54895887  0.98397096  1
  Te  Te2  1  0.63518823  0.98989381  0.25356469  1
  Te  Te3  1  0.26060467  0.65794824  0.40912755  1
  Te  Te4  1  0.72626219  0.60085989  0.16348889  1
  Te  Te5  1  0.68195475  0.10405699  0.66692201  1
  Te  Te6  1  0.67907100  0.48486523  0.74957730  1
  Te  Te7  1  0.16261557  0.04134959  0.43304190  1
  O  O0  1  0.73864913  0.19773884  0.33570408  1
  O  O1  1  0.13171986  0.19144411  0.32392886  1
  O  O2  1  0.38233550  0.52505183  0.50948952  1
  O  O3  1  0.86787462  0.93227675  0.37272373  1
  O  O4  1  0.69768591  0.98680334  0.08306446  1
  O  O5  1  0.15117589  0.14343985  0.60885187  1
  O  O6  1  0.78425654  0.47710835  0.59947974  1
  O  O7  1  0.47534840  0.15321146  0.51664564  1
  O  O8  1  0.88612688  0.43563981  0.89939309  1
  O  O9  1  0.34597358  0.07953373  0.11450018  1
  O  O10  1  0.57672087  0.11256591  0.81699032  1
  O  O11  1  0.01559133  0.51092814  0.30156702  1
  O  O12  1  0.75526188  0.69493112  0.81740608  1
  O  O13  1  0.60548321  0.89393498  0.59978611  1
  O  O14  1  0.18769587  0.73412492  0.56593420  1
  O  O15  1  0.17317366  0.85519389  0.85091074  1
  O  O16  1  0.97917542  0.06512058  0.90654235  1
  O  O17  1  0.21123270  0.44821465  0.80800157  1
  O  O18  1  0.22985618  0.39841384  0.09244769  1
  O  O19  1  0.49321592  0.65869223  0.04525019  1
  O  O20  1  0.62307571  0.39317545  0.08052718  1
  O  O21  1  0.66413349  0.60311485  0.33405178  1
loop_
_geom_bond_atom_site_label_1
_geom_bond_atom_site_label_2
_geom_bond_distance
_geom_bond_site_symmetry_2
O0 Te2 1.864270 1_545
O0 Sr1 2.483757 1_655
O0 Sr0 2.562589 1_555
O0 Sr5 2.969262 1_555
O1 Te7 1.860544 1_555
O1 Sr5 2.596724 1_455
O1 Sr0 2.654568 1_555
O1 Sr1 2.774610 1_555
O2 Te3 1.868892 1_555
O2 Sr0 2.676256 1_555
O2 Sr1 2.716286 1_555
O3 Te2 1.968180 1_555
O3 Te7 2.077884 1_665
O3 Sr4 2.763592 1_555
O4 Te2 1.845591 1_555
O4 Sr2 2.484168 1_554
O4 Sr5 2.553546 1_565
O5 Te7 1.852605 1_555
O5 Sr3 2.448374 1_555
O5 Sr1 2.578585 1_555
O6 Te6 1.862313 1_555
O6 Sr1 2.572565 1_655
O6 Sr4 2.637057 1_555
O6 Sr0 2.769830 1_555
O7 Te5 1.916335 1_555
O7 Te7 2.177039 1_555
O7 Sr0 2.672989 1_555
O8 Te6 1.916487 1_555
O8 Te1 2.177492 1_655
O8 Sr5 2.668133 1_556
O9 Te0 1.896931 1_545
O9 Te2 2.514294 1_545
O9 Sr3 2.638367 1_554
O9 Sr0 2.659078 1_555
O10 Te5 1.862464 1_555
O10 Sr3 2.574717 1_555
O10 Sr2 2.641069 1_545
O10 Sr5 2.772439 1_556
O11 Te3 1.897066 1_555
O11 Te4 2.513867 1_455
O11 Sr1 2.640252 1_555
O11 Sr5 2.658290 1_455
O12 Te6 1.863610 1_555
O12 Sr2 2.561338 1_555
O12 Sr4 2.714877 1_555
O13 Te5 1.863389 1_565
O13 Sr4 2.560098 1_555
O13 Sr2 2.712026 1_555
O14 Te3 1.866657 1_555
O14 Sr4 2.537955 1_455
O14 Sr2 2.622810 1_555
O15 Te0 1.866553 1_556
O15 Sr2 2.537649 1_555
O15 Sr4 2.620359 1_455
O16 Te0 1.869244 1_646
O16 Sr5 2.680544 1_556
O16 Sr3 2.716792 1_655
O17 Te1 1.853198 1_555
O17 Sr1 2.450654 1_555
O17 Sr3 2.581615 1_555
O18 Te1 1.860568 1_554
O18 Sr0 2.595752 1_555
O18 Sr5 2.655914 1_455
O18 Sr3 2.767095 1_554
O19 Te4 1.968516 1_555
O19 Te1 2.077100 1_554
O19 Sr2 2.760410 1_554
O20 Te4 1.863932 1_555
O20 Sr3 2.482478 1_554
O20 Sr5 2.564220 1_555
O20 Sr0 2.975527 1_555
O21 Te4 1.845067 1_555
O21 Sr4 2.481898 1_555
O21 Sr0 2.551204 1_555
