# generated using pymatgen
data_Rb4LiAgBi2
_symmetry_space_group_name_H-M   'P 1'
_cell_length_a   7.11663575
_cell_length_b   7.11663517
_cell_length_c   6.62539349
_cell_angle_alpha   90.38703347
_cell_angle_beta   90.38703168
_cell_angle_gamma   104.03370895
_symmetry_Int_Tables_number   1
_chemical_formula_structural   Rb4LiAgBi2
_chemical_formula_sum   'Rb4 Li1 Ag1 Bi2'
_cell_volume   325.51820978
_cell_formula_units_Z   1
loop_
 _symmetry_equiv_pos_site_id
 _symmetry_equiv_pos_as_xyz
  1  'x, y, z'
loop_
 _atom_site_type_symbol
 _atom_site_label
 _atom_site_symmetry_multiplicity
 _atom_site_fract_x
 _atom_site_fract_y
 _atom_site_fract_z
 _atom_site_occupancy
  Rb  Rb0  1  0.47804985  0.81512671  0.24168229  1
  Rb  Rb1  1  0.18487329  0.52195015  0.75831771  1
  Rb  Rb2  1  0.52195015  0.18487329  0.75831771  1
  Rb  Rb3  1  0.81512671  0.47804985  0.24168229  1
  Li  Li0  1  0.00000000  0.00000000  0.50000000  1
  Ag  Ag0  1  0.00000000  0.00000000  0.00000000  1
  Bi  Bi0  1  0.25418168  0.25418168  0.25559587  1
  Bi  Bi1  1  0.74581832  0.74581832  0.74440413  1
loop_
_geom_bond_atom_site_label_1
_geom_bond_atom_site_label_2
_geom_bond_distance
_geom_bond_site_symmetry_2
Rb0 Rb3 3.781513 1_555
Rb0 Rb1 4.082952 1_554
Rb0 Rb2 4.123853 1_564
Rb0 Rb2 4.266511 1_565
Rb0 Rb1 4.301680 1_555
Rb1 Rb2 3.781513 1_555
Rb1 Rb3 4.123853 1_456
Rb1 Rb3 4.266511 1_455
Rb2 Rb3 4.082952 1_556
Rb2 Rb3 4.301680 1_555
Li0 Rb1 3.996414 1_555
Li0 Rb3 3.996414 1_445
Li0 Rb2 3.996414 1_555
Li0 Rb0 3.996414 1_445
Ag0 Bi0 2.782503 1_555
Ag0 Bi1 2.782503 1_444
Ag0 Rb1 3.978861 1_554
Ag0 Rb3 3.978861 1_445
Ag0 Rb2 3.978861 1_554
Ag0 Rb0 3.978861 1_445
Ag0 Rb3 4.242051 1_455
Ag0 Rb1 4.242051 1_544
Ag0 Rb2 4.242051 1_454
Ag0 Rb0 4.242051 1_545
Bi0 Li0 2.767418 1_555
Bi0 Rb0 3.836954 1_545
Bi0 Rb3 3.836954 1_455
Bi0 Rb1 3.904890 1_554
Bi0 Rb2 3.904890 1_554
Bi0 Rb1 3.919273 1_555
Bi0 Rb2 3.919273 1_555
Bi0 Rb0 3.924991 1_555
Bi0 Rb3 3.924991 1_555
Bi1 Li0 2.767418 1_665
Bi1 Rb2 3.836954 1_565
Bi1 Rb1 3.836954 1_655
Bi1 Rb3 3.904890 1_556
Bi1 Rb0 3.904890 1_556
Bi1 Rb3 3.919273 1_555
Bi1 Rb0 3.919273 1_555
Bi1 Rb2 3.924991 1_555
Bi1 Rb1 3.924991 1_555
