# generated using pymatgen
data_SrMg(AlPt)2
_symmetry_space_group_name_H-M   'P 1'
_cell_length_a   4.38033296
_cell_length_b   4.38033268
_cell_length_c   7.36306144
_cell_angle_alpha   90.00000000
_cell_angle_beta   90.00000000
_cell_angle_gamma   119.99999491
_symmetry_Int_Tables_number   1
_chemical_formula_structural   SrMg(AlPt)2
_chemical_formula_sum   'Sr1 Mg1 Al2 Pt2'
_cell_volume   122.34980947
_cell_formula_units_Z   1
loop_
 _symmetry_equiv_pos_site_id
 _symmetry_equiv_pos_as_xyz
  1  'x, y, z'
loop_
 _atom_site_type_symbol
 _atom_site_label
 _atom_site_symmetry_multiplicity
 _atom_site_fract_x
 _atom_site_fract_y
 _atom_site_fract_z
 _atom_site_occupancy
  Sr  Sr0  1  0.00000000  0.00000000  0.00000000  1
  Mg  Mg0  1  0.00000000  0.00000000  0.50000000  1
  Al  Al0  1  0.33333300  0.66666700  0.32520537  1
  Al  Al1  1  0.66666700  0.33333300  0.67479463  1
  Pt  Pt0  1  0.33333300  0.66666700  0.68361424  1
  Pt  Pt1  1  0.66666700  0.33333300  0.31638576  1
loop_
_geom_bond_atom_site_label_1
_geom_bond_atom_site_label_2
_geom_bond_distance
_geom_bond_site_symmetry_2
Mg0 Pt0 2.867675 1_545
Mg0 Pt1 2.867675 1_455
Mg0 Pt0 2.867679 1_555
Mg0 Pt1 2.867679 1_445
Mg0 Pt0 2.867679 1_445
Mg0 Pt1 2.867679 1_555
Al0 Pt1 2.529817 1_565
Al0 Pt1 2.529818 1_455
Al0 Pt1 2.529825 1_555
Al0 Pt0 2.638986 1_555
Al0 Mg0 2.837638 1_565
Al0 Mg0 2.837641 1_555
Al0 Mg0 2.837641 1_665
Al0 Sr0 3.482732 1_565
Al0 Sr0 3.482735 1_555
Al0 Sr0 3.482735 1_665
Al1 Pt0 2.529817 1_545
Al1 Pt0 2.529818 1_655
Al1 Pt0 2.529825 1_555
Al1 Pt1 2.638986 1_555
Al1 Mg0 2.837638 1_655
Al1 Mg0 2.837641 1_665
Al1 Mg0 2.837641 1_555
Al1 Sr0 3.482732 1_656
Al1 Sr0 3.482735 1_666
Al1 Sr0 3.482735 1_556
Pt0 Sr0 3.438407 1_566
Pt0 Sr0 3.438410 1_556
Pt0 Sr0 3.438410 1_666
Pt1 Sr0 3.438407 1_655
Pt1 Sr0 3.438410 1_665
Pt1 Sr0 3.438410 1_555
