# generated using pymatgen
data_Rb2LiNbSe4
_symmetry_space_group_name_H-M   'P 1'
_cell_length_a   14.09212005
_cell_length_b   12.61843687
_cell_length_c   7.64783120
_cell_angle_alpha   84.31283536
_cell_angle_beta   63.00138519
_cell_angle_gamma   32.68577711
_symmetry_Int_Tables_number   1
_chemical_formula_structural   Rb2LiNbSe4
_chemical_formula_sum   'Rb4 Li2 Nb2 Se8'
_cell_volume   529.24594383
_cell_formula_units_Z   2
loop_
 _symmetry_equiv_pos_site_id
 _symmetry_equiv_pos_as_xyz
  1  'x, y, z'
loop_
 _atom_site_type_symbol
 _atom_site_label
 _atom_site_symmetry_multiplicity
 _atom_site_fract_x
 _atom_site_fract_y
 _atom_site_fract_z
 _atom_site_occupancy
  Rb  Rb0  1  0.07072344  0.07072344  0.42927656  1
  Rb  Rb1  1  0.17927656  0.17927656  0.82072344  1
  Rb  Rb2  1  0.42927656  0.42927656  0.07072344  1
  Rb  Rb3  1  0.82072344  0.82072344  0.17927656  1
  Li  Li0  1  0.50000000  0.50000000  0.50000000  1
  Li  Li1  1  0.75000000  0.75000000  0.75000000  1
  Nb  Nb0  1  0.00000000  0.00000000  0.00000000  1
  Nb  Nb1  1  0.25000000  0.25000000  0.25000000  1
  Se  Se0  1  0.07457231  0.81380342  0.72697072  1
  Se  Se1  1  0.38465455  0.72697072  0.81380342  1
  Se  Se2  1  0.72697072  0.38465455  0.07457231  1
  Se  Se3  1  0.81380342  0.07457231  0.38465455  1
  Se  Se4  1  0.17542769  0.43619658  0.52302928  1
  Se  Se5  1  0.43619658  0.17542769  0.86534545  1
  Se  Se6  1  0.52302928  0.86534545  0.17542769  1
  Se  Se7  1  0.86534545  0.52302928  0.43619658  1
loop_
_geom_bond_atom_site_label_1
_geom_bond_atom_site_label_2
_geom_bond_distance
_geom_bond_site_symmetry_2
Rb0 Se6 3.615124 1_545
Rb0 Se7 3.615126 1_455
Rb0 Se1 3.658015 1_544
Rb0 Se2 3.658022 1_456
Rb0 Se3 3.748295 1_455
Rb0 Se0 3.748300 1_545
Rb0 Se1 3.865333 1_455
Rb0 Se2 3.865335 1_545
Rb1 Se2 3.615124 1_456
Rb1 Se1 3.615126 1_545
Rb1 Se7 3.658015 1_456
Rb1 Se6 3.658022 1_545
Rb1 Se5 3.748295 1_555
Rb1 Se4 3.748300 1_555
Rb1 Se7 3.865333 1_545
Rb1 Se6 3.865335 1_456
Rb2 Se4 3.615133 1_555
Rb2 Se5 3.615137 1_554
Rb2 Se3 3.658019 1_465
Rb2 Se0 3.658021 1_644
Rb2 Se1 3.748306 1_554
Rb2 Se2 3.748309 1_555
Rb2 Se3 3.865332 1_554
Rb2 Se0 3.865338 1_555
Rb3 Se0 3.615133 1_654
Rb3 Se3 3.615137 1_565
Rb3 Se5 3.658019 1_654
Rb3 Se4 3.658021 1_565
Rb3 Se7 3.748306 1_555
Rb3 Se6 3.748309 1_555
Rb3 Se5 3.865332 1_565
Rb3 Se4 3.865338 1_654
Li0 Se0 2.566783 1_555
Li0 Se3 2.566786 1_555
Li0 Se2 2.566788 1_555
Li0 Se1 2.566794 1_555
Li1 Se4 2.566783 1_655
Li1 Se5 2.566786 1_565
Li1 Se6 2.566788 1_556
Li1 Se7 2.566794 1_555
Nb0 Se0 2.410086 1_544
Nb0 Se3 2.410092 1_455
Nb0 Se2 2.410095 1_455
Nb0 Se1 2.410097 1_544
Nb1 Se4 2.410086 1_555
Nb1 Se5 2.410092 1_554
Nb1 Se6 2.410095 1_545
Nb1 Se7 2.410097 1_455
