# generated using pymatgen
data_Sc7Co5Sn23Os
_symmetry_space_group_name_H-M   'P 1'
_cell_length_a   9.55134710
_cell_length_b   9.55134724
_cell_length_c   9.65014229
_cell_angle_alpha   90.27723928
_cell_angle_beta   89.72276186
_cell_angle_gamma   120.06725235
_symmetry_Int_Tables_number   1
_chemical_formula_structural   Sc7Co5Sn23Os
_chemical_formula_sum   'Sc7 Co5 Sn23 Os1'
_cell_volume   761.88973961
_cell_formula_units_Z   1
loop_
 _symmetry_equiv_pos_site_id
 _symmetry_equiv_pos_as_xyz
  1  'x, y, z'
loop_
 _atom_site_type_symbol
 _atom_site_label
 _atom_site_symmetry_multiplicity
 _atom_site_fract_x
 _atom_site_fract_y
 _atom_site_fract_z
 _atom_site_occupancy
  Sc  Sc0  1  0.98857697  0.01142303  0.01217604  1
  Sc  Sc1  1  0.48530728  0.51469272  0.30761547  1
  Sc  Sc2  1  0.51725484  0.48274516  0.69212012  1
  Sc  Sc3  1  0.48740455  0.96932473  0.30495601  1
  Sc  Sc4  1  0.51487415  0.03297043  0.69228828  1
  Sc  Sc5  1  0.03067527  0.51259545  0.30495601  1
  Sc  Sc6  1  0.96702957  0.48512585  0.69228828  1
  Co  Co0  1  0.17124955  0.82875045  0.79830078  1
  Co  Co1  1  0.83034514  0.65958753  0.19896453  1
  Co  Co2  1  0.17239033  0.33933672  0.79894931  1
  Co  Co3  1  0.34041247  0.16965486  0.19896453  1
  Co  Co4  1  0.66066328  0.82760967  0.79894931  1
  Sn  Sn0  1  0.34178056  0.99915179  0.99882315  1
  Sn  Sn1  1  0.64332245  0.99439944  0.99315137  1
  Sn  Sn2  1  0.00560056  0.35667755  0.99315137  1
  Sn  Sn3  1  0.00084821  0.65821944  0.99882315  1
  Sn  Sn4  1  0.65398297  0.65320598  0.99951380  1
  Sn  Sn5  1  0.34679402  0.34601703  0.99951380  1
  Sn  Sn6  1  0.33365181  0.66634819  0.82679935  1
  Sn  Sn7  1  0.66568791  0.33431209  0.17011996  1
  Sn  Sn8  1  0.99975857  0.00024143  0.50133878  1
  Sn  Sn9  1  0.77713013  0.22286987  0.46366071  1
  Sn  Sn10  1  0.22227156  0.77772844  0.54177922  1
  Sn  Sn11  1  0.77956465  0.55691817  0.45611897  1
  Sn  Sn12  1  0.22257839  0.44382861  0.54478789  1
  Sn  Sn13  1  0.44308183  0.22043535  0.45611897  1
  Sn  Sn14  1  0.55617139  0.77742161  0.54478789  1
  Sn  Sn15  1  0.33409563  0.66590437  0.13436804  1
  Sn  Sn16  1  0.66640758  0.33359242  0.86441316  1
  Sn  Sn17  1  0.11923055  0.88076945  0.27461132  1
  Sn  Sn18  1  0.88171096  0.11828904  0.72539432  1
  Sn  Sn19  1  0.12932363  0.24236636  0.28144724  1
  Sn  Sn20  1  0.88286946  0.76249867  0.72533860  1
  Sn  Sn21  1  0.75763364  0.87067637  0.28144724  1
  Sn  Sn22  1  0.23750133  0.11713054  0.72533860  1
  Os  Os0  1  0.83282176  0.16717824  0.19862948  1
loop_
_geom_bond_atom_site_label_1
_geom_bond_atom_site_label_2
_geom_bond_distance
_geom_bond_site_symmetry_2
Sc0 Sn1 3.225353 1_544
Sc0 Sn2 3.225353 1_654
Sc0 Sn19 3.229868 1_655
Sc0 Sn21 3.229868 1_545
Sc0 Sn18 3.292618 1_554
Sc0 Sn5 3.313264 1_654
Sc0 Sn4 3.313264 1_544
Sc0 Sn17 3.339158 1_645
Sc0 Sn0 3.435575 1_644
Sc0 Sn3 3.435575 1_644
Sc0 Sn20 3.448495 1_544
Sc0 Sn22 3.448495 1_654
Sc1 Sn11 3.002191 1_555
Sc1 Sn13 3.002191 1_555
Sc1 Sn15 3.017265 1_555
Sc1 Sn19 3.087105 1_555
Sc1 Sn21 3.087105 1_555
Sc1 Sn14 3.201737 1_555
Sc1 Sn12 3.201737 1_555
Sc1 Sn7 3.259946 1_555
Sc1 Sn5 3.322933 1_554
Sc1 Sn4 3.322933 1_554
Sc2 Sn16 2.983776 1_555
Sc2 Sn12 3.011087 1_555
Sc2 Sn14 3.011087 1_555
Sc2 Sn20 3.176459 1_555
Sc2 Sn22 3.176459 1_555
Sc2 Sn13 3.185525 1_555
Sc2 Sn11 3.185525 1_555
Sc2 Sn6 3.298063 1_555
Sc2 Sn4 3.319030 1_555
Sc2 Sn5 3.319030 1_555
Sc3 Sn15 2.996307 1_555
Sc3 Sn13 3.006207 1_565
Sc3 Sn9 3.026215 1_565
Sc3 Sn21 3.167052 1_555
Sc3 Sn17 3.192880 1_555
Sc3 Sn10 3.213345 1_555
Sc3 Sn14 3.226401 1_555
Sc3 Sn7 3.289358 1_565
Sc3 Sn1 3.306842 1_554
Sc3 Sn0 3.344876 1_554
Sc4 Sn16 2.985178 1_555
Sc4 Sn10 3.006892 1_545
Sc4 Sn14 3.010815 1_545
Sc4 Sn9 3.140814 1_555
Sc4 Sn22 3.144816 1_555
Sc4 Sn13 3.186739 1_555
Sc4 Sn18 3.192163 1_555
Sc4 Sn1 3.250874 1_545
Sc4 Sn6 3.300285 1_545
Sc4 Sn0 3.318863 1_545
Sc5 Sn15 2.996307 1_555
Sc5 Sn11 3.006207 1_455
Sc5 Sn9 3.026215 1_455
Sc5 Sn19 3.167052 1_555
Sc5 Sn17 3.192880 1_555
Sc5 Sn10 3.213345 1_555
Sc5 Sn12 3.226401 1_555
Sc5 Sn7 3.289358 1_455
Sc5 Sn2 3.306842 1_554
Sc5 Sn3 3.344876 1_554
Sc6 Sn16 2.985178 1_555
Sc6 Sn10 3.006893 1_655
Sc6 Sn12 3.010815 1_655
Sc6 Sn9 3.140814 1_555
Sc6 Sn20 3.144816 1_555
Sc6 Sn11 3.186739 1_555
Sc6 Sn18 3.192163 1_555
Sc6 Sn2 3.250874 1_655
Sc6 Sn6 3.300285 1_655
Sc6 Sn3 3.318863 1_655
Co0 Sn0 2.527866 1_555
Co0 Sn3 2.527866 1_555
Co0 Sn20 2.598256 1_455
Co0 Sn22 2.598256 1_565
Co0 Sn10 2.611044 1_555
Co0 Sn6 2.703160 1_555
Co0 Sc6 3.032367 1_455
Co0 Sc4 3.032367 1_565
Co0 Sc0 3.650882 1_466
Co1 Sn3 2.524522 1_654
Co1 Sn4 2.544244 1_554
Co1 Sn21 2.561849 1_555
Co1 Sn17 2.602486 1_655
Co1 Sn11 2.624960 1_555
Co1 Sn7 2.702412 1_555
Co1 Sc1 3.047280 1_555
Co1 Sc5 3.066464 1_655
Co1 Sc0 3.430647 1_565
Co2 Sn2 2.511963 1_555
Co2 Sn5 2.539389 1_555
Co2 Sn22 2.588343 1_555
Co2 Sn12 2.602786 1_555
Co2 Sn18 2.607796 1_455
Co2 Sn6 2.715790 1_555
Co2 Sc2 3.041169 1_555
Co2 Sc6 3.100984 1_455
Co2 Sc0 3.412235 1_456
Co3 Sn0 2.524522 1_544
Co3 Sn5 2.544244 1_554
Co3 Sn19 2.561849 1_555
Co3 Sn17 2.602486 1_545
Co3 Sn13 2.624960 1_555
Co3 Sn7 2.702412 1_555
Co3 Sc1 3.047280 1_555
Co3 Sc3 3.066464 1_545
Co3 Sc0 3.430647 1_455
Co4 Sn1 2.511963 1_555
Co4 Sn4 2.539389 1_555
Co4 Sn20 2.588343 1_555
Co4 Sn14 2.602786 1_555
Co4 Sn18 2.607796 1_565
Co4 Sn6 2.715790 1_555
Co4 Sc2 3.041169 1_555
Co4 Sc4 3.100984 1_565
Co4 Sc0 3.412235 1_566
Sn10 Sn17 3.099044 1_555
Sn12 Sn19 3.035010 1_555
Sn14 Sn21 3.035010 1_555
Sn15 Sn6 2.968132 1_554
Sn16 Sn7 2.950072 1_556
Sn17 Sn8 2.940733 1_465
Sn18 Sn8 2.905896 1_555
Sn18 Sn9 3.069802 1_555
Sn19 Sn8 2.921786 1_455
Sn20 Sn8 2.925624 1_565
Sn21 Sn8 2.921786 1_565
Sn22 Sn8 2.925624 1_455
Os0 Sn1 2.634637 1_544
Os0 Sn2 2.634637 1_654
Os0 Sn19 2.674522 1_655
Os0 Sn21 2.674522 1_545
Os0 Sn9 2.713734 1_555
Os0 Sn7 2.781080 1_555
Os0 Sc3 3.040948 1_545
Os0 Sc5 3.040948 1_655
Os0 Sc0 3.135232 1_555
