# generated using pymatgen
data_Sc8Al(B8Rh)3
_symmetry_space_group_name_H-M   'P 1'
_cell_length_a   3.44880634
_cell_length_b   8.90741030
_cell_length_c   11.20477306
_cell_angle_alpha   90.04949732
_cell_angle_beta   90.00000000
_cell_angle_gamma   90.00000000
_symmetry_Int_Tables_number   1
_chemical_formula_structural   Sc8Al(B8Rh)3
_chemical_formula_sum   'Sc8 Al1 B24 Rh3'
_cell_volume   344.20975083
_cell_formula_units_Z   1
loop_
 _symmetry_equiv_pos_site_id
 _symmetry_equiv_pos_as_xyz
  1  'x, y, z'
loop_
 _atom_site_type_symbol
 _atom_site_label
 _atom_site_symmetry_multiplicity
 _atom_site_fract_x
 _atom_site_fract_y
 _atom_site_fract_z
 _atom_site_occupancy
  Sc  Sc0  1  0.00000000  0.94555244  0.37362568  1
  Sc  Sc1  1  0.00000000  0.05548251  0.62767298  1
  Sc  Sc2  1  0.00000000  0.55691447  0.87323855  1
  Sc  Sc3  1  0.00000000  0.18039562  0.91751490  1
  Sc  Sc4  1  0.00000000  0.82306173  0.08733035  1
  Sc  Sc5  1  0.00000000  0.68038768  0.58414789  1
  Sc  Sc6  1  0.00000000  0.31542670  0.41072490  1
  Sc  Sc7  1  0.00000000  0.44444934  0.12645231  1
  Al  Al0  1  0.00000000  0.13910852  0.17958847  1
  B  B0  1  0.50000000  0.36811982  0.81917459  1
  B  B1  1  0.50000000  0.97808226  0.21238297  1
  B  B2  1  0.50000000  0.55258975  0.43508088  1
  B  B3  1  0.50000000  0.29781055  0.23796810  1
  B  B4  1  0.50000000  0.20459050  0.73765297  1
  B  B5  1  0.50000000  0.10281441  0.47255781  1
  B  B6  1  0.50000000  0.79615935  0.26317103  1
  B  B7  1  0.50000000  0.44614492  0.56394698  1
  B  B8  1  0.50000000  0.24768589  0.57777941  1
  B  B9  1  0.50000000  0.47929203  0.28764828  1
  B  B10  1  0.50000000  0.70440841  0.76155451  1
  B  B11  1  0.50000000  0.75342676  0.42068255  1
  B  B12  1  0.50000000  0.51983799  0.71288536  1
  B  B13  1  0.50000000  0.89766655  0.52808175  1
  B  B14  1  0.50000000  0.05183997  0.06335663  1
  B  B15  1  0.50000000  0.60287628  0.02784376  1
  B  B16  1  0.50000000  0.74907245  0.92233951  1
  B  B17  1  0.50000000  0.01976619  0.78793960  1
  B  B18  1  0.50000000  0.39767903  0.97185522  1
  B  B19  1  0.50000000  0.94699576  0.93584473  1
  B  B20  1  0.50000000  0.63143788  0.18251978  1
  B  B21  1  0.50000000  0.25275479  0.07761738  1
  B  B22  1  0.50000000  0.86804339  0.68077765  1
  B  B23  1  0.50000000  0.13145359  0.31931119  1
  Rh  Rh0  1  0.00000000  0.36003321  0.68022581  1
  Rh  Rh1  1  0.00000000  0.85776691  0.81816228  1
  Rh  Rh2  1  0.00000000  0.64087133  0.32134524  1
loop_
_geom_bond_atom_site_label_1
_geom_bond_atom_site_label_2
_geom_bond_distance
_geom_bond_site_symmetry_2
Al0 B1 2.273058 1_545
Al0 B1 2.273058 1_445
Al0 B14 2.296125 1_455
Al0 B14 2.296125 1_555
Al0 B21 2.303422 1_555
Al0 B21 2.303422 1_455
Al0 B3 2.323400 1_555
Al0 B3 2.323400 1_455
Al0 B23 2.330104 1_455
Al0 B23 2.330104 1_555
Al0 Sc0 2.775939 1_545
Al0 Sc7 2.784702 1_555
B0 B4 1.718665 1_555
B0 B18 1.730670 1_555
B0 B12 1.802071 1_555
B0 Rh0 2.324321 1_655
B0 Rh0 2.324321 1_555
B0 Sc2 2.483302 1_555
B0 Sc2 2.483302 1_655
B0 Sc3 2.643280 1_555
B0 Sc3 2.643280 1_655
B1 B6 1.717943 1_555
B1 B14 1.794933 1_565
B1 B23 1.816308 1_565
B1 Sc0 2.514468 1_655
B1 Sc0 2.514468 1_555
B1 Sc4 2.615386 1_555
B1 Sc4 2.615386 1_655
B2 B7 1.728074 1_555
B2 B9 1.775765 1_555
B2 Rh2 2.284231 1_655
B2 Rh2 2.284231 1_555
B2 Sc5 2.656293 1_555
B2 Sc5 2.656293 1_655
B2 Sc6 2.740390 1_655
B2 Sc6 2.740390 1_555
B3 B9 1.709234 1_555
B3 Sc7 2.498749 1_555
B3 Sc7 2.498749 1_655
B3 Sc6 2.597037 1_655
B3 Sc6 2.597037 1_555
B4 B8 1.832339 1_555
B4 Rh0 2.303528 1_555
B4 Rh0 2.303528 1_655
B4 Sc1 2.500666 1_555
B4 Sc1 2.500666 1_655
B4 Sc3 2.661249 1_555
B4 Sc3 2.661249 1_655
B5 B8 1.747165 1_555
B5 Sc0 2.482320 1_645
B5 Sc0 2.482320 1_545
B5 Sc1 2.484619 1_555
B5 Sc1 2.484619 1_655
B5 Sc6 2.653754 1_555
B5 Sc6 2.653754 1_655
B6 Rh2 2.305057 1_555
B6 Rh2 2.305057 1_655
B6 Sc0 2.504636 1_655
B6 Sc0 2.504636 1_555
B6 Sc4 2.629393 1_655
B6 Sc4 2.629393 1_555
B7 B8 1.774671 1_555
B7 Rh0 2.293714 1_555
B7 Rh0 2.293714 1_655
B7 Sc6 2.696908 1_555
B7 Sc6 2.696908 1_655
B7 Sc5 2.716146 1_555
B7 Sc5 2.716146 1_655
B8 Rh0 2.300147 1_555
B8 Rh0 2.300147 1_655
B8 Sc1 2.493755 1_555
B8 Sc1 2.493755 1_655
B8 Sc6 2.615964 1_555
B8 Sc6 2.615964 1_655
B9 Rh2 2.277418 1_655
B9 Rh2 2.277418 1_555
B9 Sc7 2.516178 1_555
B9 Sc7 2.516178 1_655
B9 Sc6 2.647506 1_655
B9 Sc6 2.647506 1_555
B10 B22 1.716378 1_555
B10 B12 1.731680 1_555
B10 B16 1.844629 1_555
B10 Rh1 2.289193 1_555
B10 Rh1 2.289193 1_655
B10 Sc2 2.503685 1_655
B10 Sc2 2.503685 1_555
B10 Sc5 2.640069 1_555
B10 Sc5 2.640069 1_655
B11 B13 1.759596 1_555
B11 B2 1.796336 1_555
B11 B6 1.805782 1_555
B11 Rh2 2.283787 1_555
B11 Rh2 2.283787 1_655
B11 Sc0 2.486327 1_655
B11 Sc0 2.486327 1_555
B11 Sc5 2.598773 1_555
B11 Sc5 2.598773 1_655
B12 B7 1.792749 1_555
B12 Rh0 2.265564 1_555
B12 Rh0 2.265564 1_655
B12 Sc2 2.511935 1_555
B12 Sc2 2.511935 1_655
B12 Sc5 2.665145 1_555
B12 Sc5 2.665145 1_655
B13 B22 1.731376 1_555
B13 B5 1.930847 1_565
B13 Sc0 2.480305 1_655
B13 Sc0 2.480305 1_555
B13 Sc1 2.488406 1_565
B13 Sc1 2.488406 1_665
B13 Sc5 2.667593 1_555
B13 Sc5 2.667593 1_655
B14 B19 1.706209 1_544
B14 B21 1.796613 1_555
B14 Sc3 2.637879 1_654
B14 Sc3 2.637879 1_554
B14 Sc4 2.683167 1_645
B14 Sc4 2.683167 1_545
B15 B20 1.751466 1_555
B15 B16 1.759529 1_554
B15 B18 1.931926 1_554
B15 Sc2 2.478078 1_654
B15 Sc2 2.478078 1_554
B15 Sc7 2.487659 1_655
B15 Sc7 2.487659 1_555
B15 Sc4 2.694847 1_655
B15 Sc4 2.694847 1_555
B16 B19 1.769336 1_555
B16 Rh1 2.296835 1_655
B16 Rh1 2.296835 1_555
B16 Sc2 2.490843 1_655
B16 Sc2 2.490843 1_555
B16 Sc4 2.612173 1_656
B16 Sc4 2.612173 1_556
B17 B4 1.740518 1_555
B17 B19 1.780020 1_545
B17 B22 1.807035 1_545
B17 Rh1 2.274053 1_645
B17 Rh1 2.274053 1_545
B17 Sc1 2.510077 1_655
B17 Sc1 2.510077 1_555
B17 Sc3 2.669278 1_555
B17 Sc3 2.669278 1_655
B18 B21 1.753108 1_556
B18 Sc7 2.479210 1_556
B18 Sc7 2.479210 1_656
B18 Sc2 2.491794 1_555
B18 Sc2 2.491794 1_655
B18 Sc3 2.662359 1_555
B18 Sc3 2.662359 1_655
B19 Rh1 2.311315 1_655
B19 Rh1 2.311315 1_555
B19 Sc4 2.660170 1_556
B19 Sc4 2.660170 1_656
B19 Sc3 2.708999 1_565
B19 Sc3 2.708999 1_665
B20 B6 1.722540 1_555
B20 B9 1.796368 1_555
B20 Rh2 2.323791 1_555
B20 Rh2 2.323791 1_655
B20 Sc7 2.478022 1_555
B20 Sc7 2.478022 1_655
B20 Sc4 2.650983 1_555
B20 Sc4 2.650983 1_655
B21 B3 1.840632 1_555
B21 Sc7 2.487353 1_655
B21 Sc7 2.487353 1_555
B21 Sc3 2.570041 1_654
B21 Sc3 2.570041 1_554
B22 Rh1 2.313402 1_655
B22 Rh1 2.313402 1_555
B22 Sc1 2.473235 1_665
B22 Sc1 2.473235 1_565
B22 Sc5 2.633764 1_555
B22 Sc5 2.633764 1_655
B23 B5 1.736158 1_555
B23 B3 1.740345 1_555
B23 Sc0 2.467322 1_645
B23 Sc0 2.467322 1_545
B23 Sc6 2.589442 1_555
B23 Sc6 2.589442 1_655
Rh0 Sc1 2.775434 1_555
Rh0 Sc2 2.783170 1_555
Rh0 Sc6 3.045384 1_555
Rh0 Sc5 3.050714 1_555
Rh0 Sc3 3.104311 1_555
Rh1 Sc2 2.750474 1_555
Rh1 Sc1 2.768340 1_565
Rh1 Sc4 3.032034 1_556
Rh1 Sc5 3.060148 1_555
Rh1 Sc3 3.080972 1_565
Rh2 Sc0 2.775926 1_555
Rh2 Sc7 2.797002 1_555
Rh2 Sc5 2.965305 1_555
Rh2 Sc6 3.067803 1_555
Rh2 Sc4 3.084850 1_555
