# generated using pymatgen
data_Ta4FeCuN
_symmetry_space_group_name_H-M   'P 1'
_cell_length_a   8.22113879
_cell_length_b   8.22113879
_cell_length_c   8.22113861
_cell_angle_alpha   60.00000074
_cell_angle_beta   60.00000073
_cell_angle_gamma   60.00000050
_symmetry_Int_Tables_number   1
_chemical_formula_structural   Ta4FeCuN
_chemical_formula_sum   'Ta16 Fe4 Cu4 N4'
_cell_volume   392.89901456
_cell_formula_units_Z   4
loop_
 _symmetry_equiv_pos_site_id
 _symmetry_equiv_pos_as_xyz
  1  'x, y, z'
loop_
 _atom_site_type_symbol
 _atom_site_label
 _atom_site_symmetry_multiplicity
 _atom_site_fract_x
 _atom_site_fract_y
 _atom_site_fract_z
 _atom_site_occupancy
  Ta  Ta0  1  0.12158948  0.62613684  0.62613684  1
  Ta  Ta1  1  0.62613684  0.12158948  0.62613684  1
  Ta  Ta2  1  0.62613684  0.62613684  0.12158948  1
  Ta  Ta3  1  0.62613684  0.62613684  0.62613684  1
  Ta  Ta4  1  0.81472481  0.81472481  0.18527519  1
  Ta  Ta5  1  0.18527519  0.18527519  0.81472481  1
  Ta  Ta6  1  0.81472481  0.18527519  0.81472481  1
  Ta  Ta7  1  0.18527519  0.81472481  0.18527519  1
  Ta  Ta8  1  0.18527519  0.81472481  0.81472481  1
  Ta  Ta9  1  0.81472481  0.18527519  0.18527519  1
  Ta  Ta10  1  0.43798799  0.43798799  0.06201201  1
  Ta  Ta11  1  0.06201201  0.06201201  0.43798799  1
  Ta  Ta12  1  0.43798799  0.06201201  0.43798799  1
  Ta  Ta13  1  0.06201201  0.43798799  0.06201201  1
  Ta  Ta14  1  0.06201201  0.43798799  0.43798799  1
  Ta  Ta15  1  0.43798799  0.06201201  0.06201201  1
  Fe  Fe0  1  0.50056157  0.83314648  0.83314648  1
  Fe  Fe1  1  0.83314648  0.50056157  0.83314648  1
  Fe  Fe2  1  0.83314648  0.83314648  0.50056157  1
  Fe  Fe3  1  0.83314648  0.83314648  0.83314648  1
  Cu  Cu0  1  0.75799494  0.41400169  0.41400169  1
  Cu  Cu1  1  0.41400169  0.75799494  0.41400169  1
  Cu  Cu2  1  0.41400169  0.41400169  0.75799494  1
  Cu  Cu3  1  0.41400169  0.41400169  0.41400169  1
  N  N0  1  0.62253919  0.12582060  0.12582060  1
  N  N1  1  0.12582060  0.62253919  0.12582060  1
  N  N2  1  0.12582060  0.12582060  0.62253919  1
  N  N3  1  0.12582060  0.12582060  0.12582060  1
loop_
_geom_bond_atom_site_label_1
_geom_bond_atom_site_label_2
_geom_bond_distance
_geom_bond_site_symmetry_2
Fe0 Ta2 2.498158 1_556
Fe0 Ta1 2.498158 1_565
Fe0 Ta3 2.498165 1_555
Fe0 Fe3 2.734227 1_555
Fe0 Fe2 2.734227 1_555
Fe0 Fe1 2.734227 1_555
Fe0 Ta7 2.751803 1_556
Fe0 Ta5 2.751803 1_565
Fe0 Ta8 2.751808 1_555
Fe0 Ta15 2.991544 1_566
Fe0 Ta12 2.991551 1_565
Fe0 Ta10 2.991552 1_556
Fe1 Ta2 2.498158 1_556
Fe1 Ta0 2.498158 1_655
Fe1 Ta3 2.498165 1_555
Fe1 Fe3 2.734227 1_555
Fe1 Fe2 2.734227 1_555
Fe1 Ta9 2.751803 1_556
Fe1 Ta5 2.751803 1_655
Fe1 Ta6 2.751808 1_555
Fe1 Ta13 2.991544 1_656
Fe1 Ta14 2.991551 1_655
Fe1 Ta10 2.991552 1_556
Fe2 Ta0 2.498158 1_655
Fe2 Ta1 2.498158 1_565
Fe2 Ta3 2.498165 1_555
Fe2 Fe3 2.734227 1_555
Fe2 Ta7 2.751803 1_655
Fe2 Ta9 2.751803 1_565
Fe2 Ta4 2.751808 1_555
Fe2 Ta11 2.991544 1_665
Fe2 Ta12 2.991551 1_565
Fe2 Ta14 2.991551 1_655
Fe3 Ta0 2.498163 1_655
Fe3 Ta1 2.498163 1_565
Fe3 Ta2 2.498163 1_556
Fe3 Ta4 2.751800 1_556
Fe3 Ta8 2.751800 1_655
Fe3 Ta6 2.751800 1_565
Fe3 Ta11 2.991548 1_665
Fe3 Ta15 2.991548 1_566
Fe3 Ta13 2.991548 1_656
Cu0 Ta3 2.553151 1_555
Cu0 Ta2 2.553151 1_555
Cu0 Ta1 2.553151 1_555
Cu0 Ta14 2.710943 1_655
Cu0 Ta13 2.710943 1_655
Cu0 Ta11 2.710943 1_655
Cu1 Ta3 2.553151 1_555
Cu1 Ta2 2.553151 1_555
Cu1 Ta0 2.553151 1_555
Cu1 Ta12 2.710943 1_565
Cu1 Ta15 2.710943 1_565
Cu1 Ta11 2.710943 1_565
Cu2 Ta0 2.553151 1_555
Cu2 Ta1 2.553151 1_555
Cu2 Ta3 2.553151 1_555
Cu2 Ta10 2.710943 1_556
Cu2 Ta13 2.710943 1_556
Cu2 Ta15 2.710943 1_556
Cu3 Ta0 2.553151 1_555
Cu3 Ta1 2.553151 1_555
Cu3 Ta2 2.553151 1_555
Cu3 Ta10 2.710943 1_555
Cu3 Ta14 2.710943 1_555
Cu3 Ta12 2.710943 1_555
N0 Ta12 2.172393 1_555
N0 Ta10 2.172393 1_555
N0 Ta15 2.172399 1_555
N0 Ta9 2.181198 1_555
N0 Ta6 2.181204 1_554
N0 Ta4 2.181204 1_545
N1 Ta14 2.172393 1_555
N1 Ta10 2.172393 1_555
N1 Ta13 2.172399 1_555
N1 Ta7 2.181198 1_555
N1 Ta8 2.181204 1_554
N1 Ta4 2.181204 1_455
N2 Ta12 2.172393 1_555
N2 Ta14 2.172393 1_555
N2 Ta11 2.172399 1_555
N2 Ta5 2.181198 1_555
N2 Ta6 2.181204 1_455
N2 Ta8 2.181204 1_545
N3 Ta11 2.172391 1_555
N3 Ta15 2.172391 1_555
N3 Ta13 2.172391 1_555
N3 Ta5 2.181206 1_554
N3 Ta9 2.181206 1_455
N3 Ta7 2.181206 1_545
