# generated using pymatgen
data_Ag2S
_symmetry_space_group_name_H-M   'P 1'
_cell_length_a   4.31567257
_cell_length_b   4.31567257
_cell_length_c   6.77848000
_cell_angle_alpha   90.00000000
_cell_angle_beta   90.00000000
_cell_angle_gamma   111.29006778
_symmetry_Int_Tables_number   1
_chemical_formula_structural   Ag2S
_chemical_formula_sum   'Ag4 S2'
_cell_volume   117.63339860
_cell_formula_units_Z   2
loop_
 _symmetry_equiv_pos_site_id
 _symmetry_equiv_pos_as_xyz
  1  'x, y, z'
loop_
 _atom_site_type_symbol
 _atom_site_label
 _atom_site_symmetry_multiplicity
 _atom_site_fract_x
 _atom_site_fract_y
 _atom_site_fract_z
 _atom_site_occupancy
  Ag  Ag0  1  0.34226100  0.65773900  0.86354900  1
  Ag  Ag1  1  0.15773900  0.84226100  0.36354900  1
  Ag  Ag2  1  0.84226100  0.15773900  0.63645100  1
  Ag  Ag3  1  0.65773900  0.34226100  0.13645100  1
  S  S0  1  0.00000000  0.00000000  0.00000000  1
  S  S1  1  0.50000000  0.50000000  0.50000000  1
loop_
_geom_bond_atom_site_label_1
_geom_bond_atom_site_label_2
_geom_bond_distance
_geom_bond_site_symmetry_2
Ag0 S0 2.608339 1_566
Ag0 S1 2.708540 1_555
Ag0 S0 2.837270 1_556
Ag0 S0 2.837270 1_666
Ag1 S1 2.608339 1_555
Ag1 S0 2.708540 1_565
Ag1 S1 2.837270 1_565
Ag1 S1 2.837270 1_455
Ag2 S1 2.608339 1_555
Ag2 S0 2.708540 1_656
Ag2 S1 2.837270 1_545
Ag2 S1 2.837270 1_655
Ag3 S0 2.608339 1_655
Ag3 S1 2.708540 1_555
Ag3 S0 2.837270 1_555
Ag3 S0 2.837270 1_665
