# generated using pymatgen
data_Hf6CoBr15
_symmetry_space_group_name_H-M   'P 1'
_cell_length_a   9.23151758
_cell_length_b   9.23151861
_cell_length_c   9.23151823
_cell_angle_alpha   109.47121979
_cell_angle_beta   109.47122205
_cell_angle_gamma   109.47121996
_symmetry_Int_Tables_number   1
_chemical_formula_structural   Hf6CoBr15
_chemical_formula_sum   'Hf6 Co1 Br15'
_cell_volume   605.61621129
_cell_formula_units_Z   1
loop_
 _symmetry_equiv_pos_site_id
 _symmetry_equiv_pos_as_xyz
  1  'x, y, z'
loop_
 _atom_site_type_symbol
 _atom_site_label
 _atom_site_symmetry_multiplicity
 _atom_site_fract_x
 _atom_site_fract_y
 _atom_site_fract_z
 _atom_site_occupancy
  Hf  Hf0  1  0.77162953  0.77162953  0.00000000  1
  Hf  Hf1  1  0.22837047  1.00000000  0.22837047  1
  Hf  Hf2  1  0.77162953  0.00000000  0.77162953  1
  Hf  Hf3  1  1.00000000  0.77162953  0.77162953  1
  Hf  Hf4  1  0.00000000  0.22837047  0.22837047  1
  Hf  Hf5  1  0.22837047  0.22837047  1.00000000  1
  Co  Co0  1  0.00000000  0.00000000  0.00000000  1
  Br  Br0  1  0.50000000  0.00000000  0.50000000  1
  Br  Br1  1  0.00000000  0.50000000  0.50000000  1
  Br  Br2  1  0.50000000  0.50000000  0.00000000  1
  Br  Br3  1  0.50236364  0.75118182  0.75118182  1
  Br  Br4  1  0.75118182  0.00000000  0.24881818  1
  Br  Br5  1  0.49763636  0.24881818  0.24881818  1
  Br  Br6  1  0.24881818  0.24881818  0.49763636  1
  Br  Br7  1  0.24881818  0.75118182  1.00000000  1
  Br  Br8  1  0.00000000  0.24881818  0.75118182  1
  Br  Br9  1  1.00000000  0.75118182  0.24881818  1
  Br  Br10  1  0.24881818  1.00000000  0.75118182  1
  Br  Br11  1  0.24881818  0.49763636  0.24881818  1
  Br  Br12  1  0.75118182  0.24881818  0.00000000  1
  Br  Br13  1  0.75118182  0.50236364  0.75118182  1
  Br  Br14  1  0.75118182  0.75118182  0.50236364  1
loop_
_geom_bond_atom_site_label_1
_geom_bond_atom_site_label_2
_geom_bond_distance
_geom_bond_site_symmetry_2
Co0 Hf1 2.434347 1_545
Co0 Hf2 2.434347 1_454
Co0 Hf5 2.434347 1_554
Co0 Hf0 2.434347 1_445
Co0 Hf4 2.434347 1_555
Co0 Hf3 2.434347 1_444
Br0 Hf2 2.895473 1_555
Br0 Hf1 2.895473 1_545
Br1 Hf3 2.895473 1_455
Br1 Hf4 2.895473 1_555
Br2 Hf0 2.895473 1_555
Br2 Hf5 2.895473 1_554
Br3 Hf0 2.661253 1_556
Br3 Hf2 2.661253 1_565
Br4 Hf4 2.661253 1_655
Br4 Hf0 2.661253 1_545
Br5 Hf5 2.661253 1_554
Br5 Hf1 2.661253 1_545
Br6 Hf4 2.661253 1_555
Br6 Hf1 2.661253 1_545
Br7 Hf3 2.661253 1_455
Br7 Hf1 2.661253 1_556
Br8 Hf5 2.661253 1_555
Br8 Hf2 2.661253 1_455
Br9 Hf0 2.661253 1_555
Br9 Hf1 2.661253 1_655
Br10 Hf3 2.661253 1_455
Br10 Hf5 2.661253 1_565
Br11 Hf4 2.661253 1_555
Br11 Hf5 2.661253 1_554
Br12 Hf4 2.661253 1_655
Br12 Hf2 2.661253 1_554
Br13 Hf3 2.661253 1_555
Br13 Hf0 2.661253 1_556
Br14 Hf3 2.661253 1_555
Br14 Hf2 2.661253 1_565
