# generated using pymatgen
data_Ca4Bi4Sb2Rh7
_symmetry_space_group_name_H-M   'P 1'
_cell_length_a   7.70920134
_cell_length_b   7.69487393
_cell_length_c   7.69488400
_cell_angle_alpha   109.28731967
_cell_angle_beta   109.52564709
_cell_angle_gamma   109.52546088
_symmetry_Int_Tables_number   1
_chemical_formula_structural   Ca4Bi4Sb2Rh7
_chemical_formula_sum   'Ca4 Bi4 Sb2 Rh7'
_cell_volume   351.71572971
_cell_formula_units_Z   1
loop_
 _symmetry_equiv_pos_site_id
 _symmetry_equiv_pos_as_xyz
  1  'x, y, z'
loop_
 _atom_site_type_symbol
 _atom_site_label
 _atom_site_symmetry_multiplicity
 _atom_site_fract_x
 _atom_site_fract_y
 _atom_site_fract_z
 _atom_site_occupancy
  Ca  Ca0  1  0.48282798  0.00120072  0.00119966  1
  Ca  Ca1  1  0.00295234  0.50148418  0.00147831  1
  Ca  Ca2  1  0.00295217  0.00147335  0.50146933  1
  Ca  Ca3  1  0.48282994  0.48163093  0.48162870  1
  Bi  Bi0  1  0.99279792  0.31308795  0.31308394  1
  Bi  Bi1  1  0.68656941  0.99598163  0.69058910  1
  Bi  Bi2  1  0.68656171  0.69058186  0.99597973  1
  Bi  Bi3  1  0.99279811  0.67971186  0.67970828  1
  Sb  Sb0  1  0.32516965  0.99758251  0.32760144  1
  Sb  Sb1  1  0.32515019  0.32758186  0.99755944  1
  Rh  Rh0  1  0.04365481  0.02182400  0.02183148  1
  Rh  Rh1  1  0.49687292  0.74843495  0.24843767  1
  Rh  Rh2  1  0.74311387  0.49904983  0.24406021  1
  Rh  Rh3  1  0.24787523  0.74988982  0.49798547  1
  Rh  Rh4  1  0.24786871  0.49798113  0.74988504  1
  Rh  Rh5  1  0.49687492  0.24843715  0.74844186  1
  Rh  Rh6  1  0.74313112  0.24406827  0.49906234  1
loop_
_geom_bond_atom_site_label_1
_geom_bond_atom_site_label_2
_geom_bond_distance
_geom_bond_site_symmetry_2
Ca0 Rh2 3.133693 1_555
Ca0 Rh6 3.133781 1_555
Ca0 Sb1 3.138508 1_554
Ca0 Sb0 3.138540 1_545
Ca0 Rh5 3.140270 1_554
Ca0 Rh1 3.140330 1_545
Ca0 Rh3 3.168240 1_544
Ca0 Rh4 3.168272 1_544
Ca0 Rh0 3.494994 1_555
Ca1 Rh1 3.108360 1_555
Ca1 Rh3 3.123542 1_555
Ca1 Rh4 3.123571 1_554
Ca1 Rh6 3.161410 1_454
Ca1 Rh2 3.161451 1_455
Ca1 Rh5 3.184866 1_454
Ca1 Sb1 3.194762 1_554
Ca1 Sb0 3.194766 1_555
Ca2 Rh5 3.108373 1_555
Ca2 Rh3 3.123545 1_545
Ca2 Rh4 3.123546 1_555
Ca2 Rh6 3.161417 1_455
Ca2 Rh2 3.161458 1_445
Ca2 Rh1 3.184877 1_445
Ca2 Sb1 3.194691 1_555
Ca2 Sb0 3.194698 1_545
Ca3 Rh2 3.133725 1_555
Ca3 Rh6 3.133795 1_555
Ca3 Sb0 3.138459 1_545
Ca3 Sb1 3.138566 1_554
Ca3 Rh1 3.140275 1_555
Ca3 Rh5 3.140350 1_555
Ca3 Rh3 3.168242 1_555
Ca3 Rh4 3.168271 1_555
Ca3 Rh0 3.494991 1_555
Bi0 Rh6 2.773928 1_555
Bi0 Rh2 2.773930 1_555
Bi0 Rh4 2.782250 1_655
Bi0 Rh3 2.782254 1_655
Bi0 Rh0 2.838337 1_655
Bi0 Ca3 3.158191 1_655
Bi0 Ca1 3.194200 1_655
Bi0 Ca2 3.194203 1_655
Bi0 Ca0 3.249117 1_555
Bi1 Rh3 2.781139 1_555
Bi1 Rh6 2.781753 1_565
Bi1 Rh5 2.805954 1_565
Bi1 Rh1 2.805955 1_555
Bi1 Rh0 2.953533 1_666
Bi1 Ca1 3.226894 1_666
Bi1 Ca2 3.226909 1_665
Bi1 Ca3 3.266403 1_555
Bi1 Ca0 3.266422 1_566
Bi2 Rh4 2.781135 1_555
Bi2 Rh2 2.781738 1_556
Bi2 Rh5 2.805914 1_555
Bi2 Rh1 2.805939 1_556
Bi2 Rh0 2.953535 1_666
Bi2 Ca2 3.226831 1_666
Bi2 Ca1 3.226834 1_656
Bi2 Ca3 3.266417 1_555
Bi2 Ca0 3.266429 1_566
Bi3 Rh6 2.773908 1_555
Bi3 Rh2 2.773936 1_555
Bi3 Rh3 2.782255 1_655
Bi3 Rh4 2.782256 1_655
Bi3 Rh0 2.838357 1_666
Bi3 Ca0 3.158178 1_666
Bi3 Ca2 3.194194 1_665
Bi3 Ca1 3.194195 1_656
Bi3 Ca3 3.249115 1_555
Rh0 Sb0 2.725429 1_545
Rh0 Sb1 2.725442 1_554
Rh1 Sb1 2.694919 1_554
Rh1 Sb0 2.694921 1_555
Rh2 Sb1 2.672160 1_554
Rh3 Sb0 2.668437 1_555
Rh4 Sb1 2.668402 1_555
Rh5 Sb0 2.694834 1_545
Rh5 Sb1 2.694850 1_555
Rh6 Sb0 2.672140 1_545
