# generated using pymatgen
data_Sr2(Al3Pt)3
_symmetry_space_group_name_H-M   'P 1'
_cell_length_a   7.66522505
_cell_length_b   7.66522550
_cell_length_c   9.66847991
_cell_angle_alpha   90.00000000
_cell_angle_beta   90.00000000
_cell_angle_gamma   119.54452280
_symmetry_Int_Tables_number   1
_chemical_formula_structural   Sr2(Al3Pt)3
_chemical_formula_sum   'Sr4 Al18 Pt6'
_cell_volume   494.21248519
_cell_formula_units_Z   2
loop_
 _symmetry_equiv_pos_site_id
 _symmetry_equiv_pos_as_xyz
  1  'x, y, z'
loop_
 _atom_site_type_symbol
 _atom_site_label
 _atom_site_symmetry_multiplicity
 _atom_site_fract_x
 _atom_site_fract_y
 _atom_site_fract_z
 _atom_site_occupancy
  Sr  Sr0  1  0.99635006  0.67002467  0.25000000  1
  Sr  Sr1  1  0.00364994  0.32997533  0.75000000  1
  Sr  Sr2  1  0.67002467  0.99635006  0.25000000  1
  Sr  Sr3  1  0.32997533  0.00364994  0.75000000  1
  Al  Al0  1  0.13473403  0.13473403  0.25000000  1
  Al  Al1  1  0.86526597  0.86526597  0.75000000  1
  Al  Al2  1  0.00397584  0.33474515  0.07257630  1
  Al  Al3  1  0.99602416  0.66525485  0.92742370  1
  Al  Al4  1  0.99602416  0.66525485  0.57257630  1
  Al  Al5  1  0.33474515  0.00397584  0.42742370  1
  Al  Al6  1  0.00397584  0.33474515  0.42742370  1
  Al  Al7  1  0.66525485  0.99602416  0.57257630  1
  Al  Al8  1  0.66525485  0.99602416  0.92742370  1
  Al  Al9  1  0.33474515  0.00397584  0.07257630  1
  Al  Al10  1  0.33540929  0.33540929  0.54964192  1
  Al  Al11  1  0.66459071  0.66459071  0.45035808  1
  Al  Al12  1  0.66459071  0.66459071  0.04964192  1
  Al  Al13  1  0.33540929  0.33540929  0.95035808  1
  Al  Al14  1  0.34061851  0.54155833  0.25000000  1
  Al  Al15  1  0.65938149  0.45844167  0.75000000  1
  Al  Al16  1  0.54155833  0.34061851  0.25000000  1
  Al  Al17  1  0.45844167  0.65938149  0.75000000  1
  Pt  Pt0  1  0.67025993  0.32974007  0.00000000  1
  Pt  Pt1  1  0.32974007  0.67025993  0.00000000  1
  Pt  Pt2  1  0.32974007  0.67025993  0.50000000  1
  Pt  Pt3  1  0.67025993  0.32974007  0.50000000  1
  Pt  Pt4  1  0.00000000  0.00000000  0.00000000  1
  Pt  Pt5  1  0.00000000  0.00000000  0.50000000  1
loop_
_geom_bond_atom_site_label_1
_geom_bond_atom_site_label_2
_geom_bond_distance
_geom_bond_site_symmetry_2
Al0 Pt4 2.631311 1_555
Al0 Pt5 2.631311 1_555
Al0 Al16 2.713225 1_555
Al0 Al14 2.713225 1_555
Al0 Al5 2.795205 1_555
Al0 Al9 2.795205 1_555
Al0 Al6 2.795205 1_555
Al0 Al2 2.795205 1_555
Al0 Sr2 3.176069 1_445
Al0 Sr0 3.176069 1_445
Al1 Pt5 2.631311 1_665
Al1 Pt4 2.631311 1_666
Al1 Al17 2.713225 1_555
Al1 Al15 2.713225 1_555
Al1 Al8 2.795205 1_555
Al1 Al7 2.795205 1_555
Al1 Al3 2.795205 1_555
Al1 Al4 2.795205 1_555
Al1 Sr3 3.176069 1_665
Al1 Sr1 3.176069 1_665
Al2 Pt0 2.634479 1_455
Al2 Pt4 2.645756 1_555
Al2 Pt1 2.647361 1_555
Al2 Al3 2.922981 1_454
Al2 Al8 2.967108 1_444
Al2 Sr2 3.110511 1_445
Al2 Sr0 3.114336 1_455
Al2 Sr1 3.119023 1_554
Al3 Pt1 2.634479 1_656
Al3 Pt4 2.645756 1_666
Al3 Pt0 2.647361 1_556
Al3 Al9 2.967108 1_666
Al3 Sr3 3.110511 1_665
Al3 Sr1 3.114336 1_655
Al3 Sr0 3.119023 1_556
Al4 Pt2 2.634479 1_655
Al4 Pt5 2.645756 1_665
Al4 Pt3 2.647361 1_555
Al4 Al6 2.922981 1_655
Al4 Al5 2.967108 1_665
Al4 Sr3 3.110511 1_665
Al4 Sr1 3.114336 1_655
Al4 Sr0 3.119023 1_555
Al5 Pt2 2.634479 1_545
Al5 Pt5 2.645756 1_555
Al5 Pt3 2.647361 1_555
Al5 Al7 2.922981 1_545
Al5 Sr0 3.110511 1_445
Al5 Sr2 3.114336 1_545
Al5 Sr3 3.119023 1_555
Al6 Pt3 2.634479 1_455
Al6 Pt5 2.645756 1_555
Al6 Pt2 2.647361 1_555
Al6 Al7 2.967108 1_445
Al6 Sr2 3.110511 1_445
Al6 Sr0 3.114336 1_455
Al6 Sr1 3.119023 1_555
Al7 Pt3 2.634479 1_565
Al7 Pt5 2.645756 1_665
Al7 Pt2 2.647361 1_555
Al7 Sr1 3.110511 1_665
Al7 Sr3 3.114336 1_565
Al7 Sr2 3.119023 1_555
Al8 Pt0 2.634479 1_566
Al8 Pt4 2.645756 1_666
Al8 Pt1 2.647361 1_556
Al8 Al9 2.922981 1_566
Al8 Sr1 3.110511 1_665
Al8 Sr3 3.114336 1_565
Al8 Sr2 3.119023 1_556
Al9 Pt1 2.634479 1_545
Al9 Pt4 2.645756 1_555
Al9 Pt0 2.647361 1_555
Al9 Sr0 3.110511 1_445
Al9 Sr2 3.114336 1_545
Al9 Sr3 3.119023 1_554
Al10 Pt3 2.632533 1_555
Al10 Pt2 2.632533 1_555
Al10 Pt5 2.632786 1_555
Al10 Al11 2.715899 1_555
Al10 Al6 2.799608 1_555
Al10 Al5 2.799608 1_555
Al10 Al15 2.915341 1_555
Al10 Al17 2.915341 1_555
Al10 Sr1 3.180685 1_555
Al10 Sr3 3.180685 1_555
Al11 Pt2 2.632533 1_555
Al11 Pt3 2.632533 1_555
Al11 Pt5 2.632786 1_665
Al11 Al4 2.799608 1_555
Al11 Al7 2.799608 1_555
Al11 Al14 2.915341 1_555
Al11 Al16 2.915341 1_555
Al11 Sr0 3.180685 1_555
Al11 Sr2 3.180685 1_555
Al12 Pt1 2.632533 1_555
Al12 Pt0 2.632533 1_555
Al12 Pt4 2.632786 1_665
Al12 Al13 2.715899 1_554
Al12 Al3 2.799608 1_554
Al12 Al8 2.799608 1_554
Al12 Al14 2.915341 1_555
Al12 Al16 2.915341 1_555
Al12 Sr0 3.180685 1_555
Al12 Sr2 3.180685 1_555
Al13 Pt0 2.632533 1_556
Al13 Pt1 2.632533 1_556
Al13 Pt4 2.632786 1_556
Al13 Al2 2.799608 1_556
Al13 Al9 2.799608 1_556
Al13 Al15 2.915341 1_555
Al13 Al17 2.915341 1_555
Al13 Sr1 3.180685 1_555
Al13 Sr3 3.180685 1_555
Al14 Pt1 2.627505 1_555
Al14 Pt2 2.627505 1_555
Al14 Al16 2.661646 1_555
Al14 Al6 2.842565 1_555
Al14 Al2 2.842565 1_555
Al14 Sr2 3.138067 1_555
Al14 Sr0 3.239779 1_455
Al15 Pt0 2.627505 1_556
Al15 Pt3 2.627505 1_555
Al15 Al17 2.661646 1_555
Al15 Al3 2.842565 1_555
Al15 Al4 2.842565 1_555
Al15 Sr3 3.138067 1_555
Al15 Sr1 3.239779 1_655
Al16 Pt0 2.627505 1_555
Al16 Pt3 2.627505 1_555
Al16 Al5 2.842565 1_555
Al16 Al9 2.842565 1_555
Al16 Sr0 3.138067 1_555
Al16 Sr2 3.239779 1_545
Al17 Pt2 2.627505 1_555
Al17 Pt1 2.627505 1_556
Al17 Al8 2.842565 1_555
Al17 Al7 2.842565 1_555
Al17 Sr1 3.138067 1_555
Al17 Sr3 3.239779 1_565
