# generated using pymatgen
data_CsTc2Te7W4
_symmetry_space_group_name_H-M   'P 1'
_cell_length_a   10.41271779
_cell_length_b   10.38377291
_cell_length_c   10.37062748
_cell_angle_alpha   61.13724965
_cell_angle_beta   61.03995000
_cell_angle_gamma   60.95999974
_symmetry_Int_Tables_number   1
_chemical_formula_structural   CsTc2Te7W4
_chemical_formula_sum   'Cs2 Tc4 Te14 W8'
_cell_volume   811.55019068
_cell_formula_units_Z   2
loop_
 _symmetry_equiv_pos_site_id
 _symmetry_equiv_pos_as_xyz
  1  'x, y, z'
loop_
 _atom_site_type_symbol
 _atom_site_label
 _atom_site_symmetry_multiplicity
 _atom_site_fract_x
 _atom_site_fract_y
 _atom_site_fract_z
 _atom_site_occupancy
  Cs  Cs0  1  0.61927059  0.62043892  0.62127337  1
  Cs  Cs1  1  0.38226879  0.38035934  0.37790136  1
  Tc  Tc0  1  0.71648532  0.87619309  0.00593586  1
  Tc  Tc1  1  0.00713116  0.71452889  0.87770511  1
  Tc  Tc2  1  0.87716415  0.00534420  0.71599661  1
  Tc  Tc3  1  0.28429631  0.12406842  0.99490911  1
  Te  Te0  1  0.42783293  0.81629773  0.15681629  1
  Te  Te1  1  0.16584165  0.42471177  0.80915407  1
  Te  Te2  1  0.80698772  0.16314713  0.42995689  1
  Te  Te3  1  0.57735040  0.17927939  0.84230393  1
  Te  Te4  1  0.83995769  0.57817128  0.18158204  1
  Te  Te5  1  0.18109373  0.83936834  0.57911697  1
  Te  Te6  1  0.63339081  0.97200046  0.25177701  1
  Te  Te7  1  0.25044782  0.63384675  0.97472462  1
  Te  Te8  1  0.97167693  0.25119725  0.63453623  1
  Te  Te9  1  0.36519729  0.02534394  0.74677703  1
  Te  Te10  1  0.74651940  0.36653573  0.02154953  1
  Te  Te11  1  0.02510435  0.74516187  0.36485311  1
  Te  Te12  1  0.78348469  0.77871497  0.77954786  1
  Te  Te13  1  0.22503615  0.22339427  0.22169295  1
  W  W0  1  0.99540656  0.28215172  0.12429145  1
  W  W1  1  0.12134223  0.99776016  0.28289750  1
  W  W2  1  0.94526875  0.81188137  0.10669589  1
  W  W3  1  0.10390257  0.94612952  0.81333698  1
  W  W4  1  0.81058234  0.10518436  0.94760267  1
  W  W5  1  0.05449546  0.18777946  0.89556545  1
  W  W6  1  0.89449714  0.05414842  0.18863351  1
  W  W7  1  0.18796608  0.89686424  0.05286759  1
loop_
_geom_bond_atom_site_label_1
_geom_bond_atom_site_label_2
_geom_bond_distance
_geom_bond_site_symmetry_2
Cs0 Te6 3.808169 1_555
Cs0 Te8 3.808577 1_555
Cs0 Te7 3.813873 1_555
Cs0 Te12 4.045959 1_555
Cs0 Te4 4.131754 1_555
Cs0 Te5 4.132663 1_555
Cs0 Te3 4.155044 1_555
Cs0 Te10 4.160220 1_556
Cs0 Te9 4.185711 1_565
Cs0 Te11 4.208618 1_655
Cs1 Te10 3.804387 1_555
Cs1 Te11 3.809754 1_555
Cs1 Te9 3.823400 1_555
Cs1 Te13 3.958482 1_555
Cs1 Te2 4.048394 1_555
Cs1 Te1 4.063657 1_555
Cs1 Te0 4.121234 1_555
Cs1 Te7 4.209499 1_554
Cs1 Te6 4.219766 1_545
Cs1 Te8 4.273478 1_455
Tc0 Te12 2.654404 1_554
Tc0 Tc2 2.655645 1_564
Tc0 Tc1 2.659156 1_654
Tc0 W4 2.697963 1_564
Tc0 W2 2.721307 1_555
Tc0 Te4 2.740577 1_555
Tc0 Te3 2.771570 1_564
Tc0 Te6 2.777626 1_555
Tc0 Te0 2.861825 1_555
Tc1 Te12 2.652812 1_455
Tc1 Tc2 2.665331 1_465
Tc1 W2 2.698233 1_456
Tc1 W3 2.719531 1_555
Tc1 Te5 2.742764 1_555
Tc1 Te7 2.779822 1_555
Tc1 Te4 2.781884 1_456
Tc1 Te1 2.896959 1_555
Tc2 Te12 2.651870 1_545
Tc2 W3 2.696423 1_645
Tc2 W4 2.723631 1_555
Tc2 Te3 2.752058 1_555
Tc2 Te5 2.777968 1_645
Tc2 Te8 2.784117 1_555
Tc2 Te2 2.874465 1_555
Tc3 W0 2.639612 1_456
Tc3 W1 2.643957 1_546
Tc3 W7 2.697772 1_546
Tc3 Te13 2.700825 1_556
Tc3 W5 2.723473 1_555
Tc3 Te1 2.781165 1_555
Tc3 Te0 2.806948 1_546
Tc3 Te9 2.826918 1_555
Tc3 Te3 2.879352 1_555
Te0 W7 2.794370 1_555
Te0 W1 2.818619 1_555
Te1 W5 2.799064 1_555
Te1 W0 2.878356 1_456
Te2 W6 2.810638 1_555
Te2 W0 2.823835 1_555
Te2 W1 2.868167 1_645
Te3 W4 2.761434 1_555
Te4 W2 2.763016 1_555
Te4 W0 2.902200 1_555
Te5 W3 2.760256 1_555
Te5 W1 2.916996 1_555
Te6 W4 2.810123 1_564
Te6 W2 2.831214 1_555
Te6 W6 2.921746 1_565
Te7 W2 2.813615 1_456
Te7 W3 2.841561 1_555
Te7 W7 2.905187 1_556
Te8 W3 2.817077 1_645
Te8 W4 2.845404 1_555
Te8 W5 2.914401 1_655
Te9 W7 2.809055 1_546
Te9 W5 2.841350 1_555
Te9 W3 2.891639 1_545
Te10 W5 2.818030 1_654
Te10 W4 2.855549 1_554
Te10 W0 2.861388 1_555
Te10 W6 2.864521 1_555
Te11 W6 2.827253 1_465
Te11 W2 2.853804 1_455
Te11 W1 2.860256 1_555
Te11 W7 2.860968 1_555
Te13 W1 2.722982 1_545
Te13 W0 2.727164 1_455
W0 W1 2.604904 1_645
W0 W5 2.685290 1_654
W0 W6 2.713949 1_555
W1 W6 2.686764 1_465
W1 W7 2.715584 1_555
W2 W3 2.683653 1_654
W2 W4 2.684681 1_564
W2 W6 2.769039 1_565
W2 W7 2.792858 1_655
W3 W4 2.683202 1_465
W3 W7 2.764542 1_556
W3 W5 2.770529 1_565
W4 W6 2.771143 1_556
W4 W5 2.796061 1_655
W5 W7 2.660851 1_546
W5 W6 2.684716 1_456
W6 W7 2.682528 1_645
