# generated using pymatgen
data_KCu(Sb4Ru)3
_symmetry_space_group_name_H-M   'P 1'
_cell_length_a   8.13119747
_cell_length_b   8.10755188
_cell_length_c   8.10755295
_cell_angle_alpha   109.41207275
_cell_angle_beta   109.53030486
_cell_angle_gamma   109.53030939
_symmetry_Int_Tables_number   1
_chemical_formula_structural   KCu(Sb4Ru)3
_chemical_formula_sum   'K1 Cu1 Sb12 Ru3'
_cell_volume   411.14491197
_cell_formula_units_Z   1
loop_
 _symmetry_equiv_pos_site_id
 _symmetry_equiv_pos_as_xyz
  1  'x, y, z'
loop_
 _atom_site_type_symbol
 _atom_site_label
 _atom_site_symmetry_multiplicity
 _atom_site_fract_x
 _atom_site_fract_y
 _atom_site_fract_z
 _atom_site_occupancy
  K  K0  1  0.00000000  0.00000000  0.00000000  1
  Cu  Cu0  1  0.50000000  0.00000000  0.00000000  1
  Sb  Sb0  1  0.15134157  0.80959528  0.65051369  1
  Sb  Sb1  1  0.15937077  0.49738047  0.33935085  1
  Sb  Sb2  1  0.49917212  0.65051369  0.84091741  1
  Sb  Sb3  1  0.34174629  0.84091741  0.19040472  1
  Sb  Sb4  1  0.82001991  0.66064915  0.15802861  1
  Sb  Sb5  1  0.66199030  0.84197139  0.50261953  1
  Sb  Sb6  1  0.17998009  0.33935085  0.84197139  1
  Sb  Sb7  1  0.65825371  0.15908259  0.80959528  1
  Sb  Sb8  1  0.33800970  0.15802861  0.49738047  1
  Sb  Sb9  1  0.50082788  0.34948631  0.15908259  1
  Sb  Sb10  1  0.84062923  0.50261953  0.66064915  1
  Sb  Sb11  1  0.84865843  0.19040472  0.34948631  1
  Ru  Ru0  1  0.50000000  0.50000000  0.50000000  1
  Ru  Ru1  1  0.00000000  0.00000000  0.50000000  1
  Ru  Ru2  1  0.00000000  0.50000000  0.00000000  1
loop_
_geom_bond_atom_site_label_1
_geom_bond_atom_site_label_2
_geom_bond_distance
_geom_bond_site_symmetry_2
K0 Sb6 3.501090 1_554
K0 Sb4 3.501090 1_445
K0 Sb1 3.501096 1_555
K0 Sb10 3.501096 1_444
K0 Sb8 3.501099 1_555
K0 Sb5 3.501099 1_444
K0 Sb9 3.552455 1_555
K0 Sb2 3.552455 1_444
K0 Sb11 3.552458 1_455
K0 Sb0 3.552458 1_544
K0 Sb3 3.552464 1_545
K0 Sb7 3.552464 1_454
Cu0 Sb11 2.691533 1_555
Cu0 Sb0 2.691533 1_544
Cu0 Sb9 2.691533 1_555
Cu0 Sb2 2.691533 1_544
Cu0 Sb3 2.691537 1_545
Cu0 Sb7 2.691537 1_554
Sb0 Sb10 2.941868 1_455
Sb0 Sb1 2.958360 1_555
Sb1 Sb11 2.941868 1_455
Sb2 Sb4 2.941869 1_556
Sb2 Sb6 2.958369 1_555
Sb3 Sb8 2.941868 1_565
Sb3 Sb5 2.958351 1_555
Sb4 Sb9 2.958369 1_555
Sb5 Sb7 2.941868 1_565
Sb6 Sb9 2.941869 1_556
Sb7 Sb8 2.958351 1_555
Sb10 Sb11 2.958360 1_555
Ru0 Sb10 2.626505 1_555
Ru0 Sb1 2.626505 1_555
Ru0 Sb2 2.627697 1_555
Ru0 Sb9 2.627697 1_555
Ru0 Sb5 2.631135 1_555
Ru0 Sb8 2.631135 1_555
Ru1 Sb8 2.626504 1_555
Ru1 Sb5 2.626504 1_445
Ru1 Sb0 2.627705 1_545
Ru1 Sb11 2.627705 1_455
Ru1 Sb6 2.631132 1_555
Ru1 Sb4 2.631132 1_445
Ru2 Sb4 2.626501 1_455
Ru2 Sb6 2.626501 1_554
Ru2 Sb3 2.627700 1_555
Ru2 Sb7 2.627700 1_454
Ru2 Sb1 2.631128 1_555
Ru2 Sb10 2.631128 1_454
