# generated using pymatgen
data_LuBe12Ni
_symmetry_space_group_name_H-M   'P 1'
_cell_length_a   7.20798601
_cell_length_b   7.17867510
_cell_length_c   7.22160751
_cell_angle_alpha   60.07120742
_cell_angle_beta   59.66895004
_cell_angle_gamma   60.25983702
_symmetry_Int_Tables_number   1
_chemical_formula_structural   LuBe12Ni
_chemical_formula_sum   'Lu2 Be24 Ni2'
_cell_volume   264.21230835
_cell_formula_units_Z   2
loop_
 _symmetry_equiv_pos_site_id
 _symmetry_equiv_pos_as_xyz
  1  'x, y, z'
loop_
 _atom_site_type_symbol
 _atom_site_label
 _atom_site_symmetry_multiplicity
 _atom_site_fract_x
 _atom_site_fract_y
 _atom_site_fract_z
 _atom_site_occupancy
  Lu  Lu0  1  0.24892757  0.25107243  0.24892757  1
  Lu  Lu1  1  0.74892757  0.75107243  0.74892757  1
  Be  Be0  1  0.29769848  0.70230152  0.06225781  1
  Be  Be1  1  0.06225781  0.93774219  0.29769848  1
  Be  Be2  1  0.70486202  0.93923715  0.06076285  1
  Be  Be3  1  0.70464874  0.06292927  0.29540778  1
  Be  Be4  1  0.06076285  0.29513798  0.70486202  1
  Be  Be5  1  0.93707073  0.29535126  0.06298479  1
  Be  Be6  1  0.93915921  0.70529912  0.29470088  1
  Be  Be7  1  0.29540778  0.93701521  0.70464874  1
  Be  Be8  1  0.29470088  0.06084079  0.93915921  1
  Be  Be9  1  0.06298479  0.70459222  0.93707073  1
  Be  Be10  1  0.78951493  0.43505653  0.56494347  1
  Be  Be11  1  0.56494347  0.21048507  0.78951493  1
  Be  Be12  1  0.21087358  0.56358304  0.43641696  1
  Be  Be13  1  0.43641696  0.78912642  0.21087358  1
  Be  Be14  1  0.78780055  0.21219945  0.43409023  1
  Be  Be15  1  0.78968319  0.56623136  0.21260693  1
  Be  Be16  1  0.43409023  0.56590977  0.78780055  1
  Be  Be17  1  0.56852249  0.78739307  0.43376864  1
  Be  Be18  1  0.56643317  0.43356683  0.21276094  1
  Be  Be19  1  0.21260693  0.43147751  0.78968319  1
  Be  Be20  1  0.21276094  0.78723906  0.56643317  1
  Be  Be21  1  0.43376864  0.21031681  0.56852249  1
  Be  Be22  1  0.99558739  0.00441261  0.99558739  1
  Be  Be23  1  0.49919408  0.50080592  0.49919408  1
  Ni  Ni0  1  0.69761849  0.30238151  0.94277753  1
  Ni  Ni1  1  0.94277753  0.05722247  0.69761849  1
loop_
_geom_bond_atom_site_label_1
_geom_bond_atom_site_label_2
_geom_bond_distance
_geom_bond_site_symmetry_2
Lu0 Ni1 2.937850 1_455
Lu0 Ni0 2.937850 1_554
Lu1 Ni0 2.937850 1_555
Lu1 Ni1 2.937850 1_565
Be0 Be16 2.206129 1_554
Be0 Be12 2.215796 1_555
Be0 Be13 2.215796 1_555
Be0 Be18 2.231974 1_555
Be0 Be22 2.238020 1_464
Be0 Be8 2.257534 1_564
Be0 Be6 2.257534 1_455
Be0 Be7 2.276426 1_554
Be0 Be9 2.276432 1_554
Be0 Be1 2.394790 1_555
Be0 Lu0 2.954201 1_555
Be0 Lu1 2.954201 1_554
Be1 Be14 2.206129 1_465
Be1 Be12 2.215796 1_555
Be1 Be13 2.215796 1_555
Be1 Be20 2.231974 1_555
Be1 Be22 2.238020 1_464
Be1 Be8 2.257534 1_564
Be1 Be6 2.257534 1_455
Be1 Be3 2.276425 1_465
Be1 Be5 2.276428 1_465
Be1 Lu1 2.954201 1_455
Be1 Lu0 2.954201 1_565
Be2 Be22 2.142096 1_564
Be2 Be9 2.270951 1_654
Be2 Be3 2.270955 1_565
Be2 Ni1 2.284315 1_564
Be2 Ni0 2.284315 1_564
Be2 Be6 2.400666 1_555
Be2 Lu1 2.980605 1_554
Be2 Lu0 2.980605 1_565
Be3 Ni0 2.262354 1_554
Be3 Be6 2.268751 1_545
Be3 Be5 2.355085 1_555
Be3 Lu1 2.978388 1_545
Be3 Lu0 2.997755 1_555
Be4 Be5 2.270948 1_456
Be4 Be7 2.270949 1_545
Be4 Ni0 2.284315 1_455
Be4 Ni1 2.284315 1_455
Be4 Be8 2.400666 1_555
Be4 Lu0 2.980605 1_555
Be4 Lu1 2.980605 1_455
Be5 Ni0 2.262349 1_554
Be5 Be8 2.268750 1_654
Be5 Lu0 2.978394 1_655
Be5 Lu1 2.997751 1_554
Be6 Be9 2.268753 1_654
Be6 Lu1 2.972188 1_555
Be6 Lu0 2.972188 1_655
Be7 Ni1 2.262355 1_465
Be7 Be8 2.268746 1_565
Be7 Be9 2.355096 1_555
Be7 Lu1 2.978388 1_555
Be7 Lu0 2.997753 1_565
Be8 Lu0 2.972188 1_556
Be8 Lu1 2.972188 1_545
Be9 Ni1 2.262352 1_465
Be9 Lu0 2.978390 1_556
Be9 Lu1 2.997748 1_455
Be10 Be23 2.151116 1_555
Be10 Be4 2.210583 1_655
Be10 Be6 2.215351 1_555
Be10 Be17 2.228912 1_555
Be10 Be15 2.228915 1_555
Be10 Be14 2.234385 1_555
Be10 Be16 2.234385 1_555
Be10 Ni0 2.235684 1_555
Be10 Ni1 2.235684 1_555
Be10 Be11 2.275538 1_555
Be10 Lu0 2.992322 1_655
Be10 Lu1 2.992322 1_555
Be11 Be23 2.151115 1_555
Be11 Be2 2.210583 1_546
Be11 Be8 2.215351 1_555
Be11 Be21 2.228908 1_555
Be11 Be19 2.228914 1_555
Be11 Be14 2.234385 1_555
Be11 Be16 2.234385 1_555
Be11 Ni0 2.235684 1_555
Be11 Ni1 2.235684 1_555
Be11 Lu0 2.992322 1_556
Be11 Lu1 2.992322 1_545
Be12 Be23 2.132156 1_555
Be12 Be4 2.205655 1_555
Be12 Be6 2.219645 1_455
Be12 Be20 2.235708 1_555
Be12 Be18 2.235708 1_555
Be12 Be19 2.239232 1_555
Be12 Be21 2.239235 1_555
Be12 Be13 2.285386 1_555
Be12 Lu1 2.997792 1_455
Be12 Lu0 2.997792 1_555
Be13 Be23 2.132156 1_555
Be13 Be2 2.205655 1_555
Be13 Be8 2.219645 1_564
Be13 Be20 2.235708 1_555
Be13 Be18 2.235708 1_555
Be13 Be15 2.239233 1_555
Be13 Be17 2.239239 1_555
Be13 Lu1 2.997792 1_554
Be13 Lu0 2.997792 1_565
Be14 Be23 2.132862 1_555
Be14 Be3 2.196548 1_555
Be14 Be5 2.196554 1_555
Be14 Ni1 2.215580 1_555
Be14 Be21 2.230164 1_555
Be14 Be15 2.230165 1_555
Be14 Be18 2.269728 1_555
Be14 Lu1 2.995417 1_545
Be14 Lu0 2.995417 1_655
Be15 Be23 2.125340 1_555
Be15 Be6 2.193586 1_555
Be15 Be9 2.199263 1_654
Be15 Be2 2.206630 1_555
Be15 Be5 2.228247 1_555
Be15 Be18 2.239207 1_555
Be15 Be17 2.249551 1_555
Be15 Lu0 2.999919 1_655
Be15 Lu1 3.038531 1_554
Be16 Be23 2.132862 1_555
Be16 Be9 2.196553 1_555
Be16 Be7 2.196554 1_555
Be16 Ni0 2.215580 1_555
Be16 Be17 2.230166 1_555
Be16 Be19 2.230170 1_555
Be16 Be20 2.269728 1_555
Be16 Lu0 2.995417 1_556
Be16 Lu1 2.995417 1_555
Be17 Be23 2.125344 1_555
Be17 Be6 2.193580 1_555
Be17 Be3 2.199263 1_565
Be17 Be2 2.206630 1_555
Be17 Be7 2.228247 1_555
Be17 Be20 2.239214 1_555
Be17 Lu1 2.999913 1_555
Be17 Lu0 3.038535 1_565
Be18 Be23 2.120911 1_555
Be18 Ni0 2.160792 1_554
Be18 Be3 2.194101 1_555
Be18 Be5 2.194102 1_555
Be18 Be21 2.239211 1_555
Be18 Lu1 3.008579 1_554
Be18 Lu0 3.008579 1_555
Be19 Be23 2.125342 1_555
Be19 Be8 2.193580 1_555
Be19 Be5 2.199263 1_456
Be19 Be4 2.206625 1_555
Be19 Be9 2.228247 1_555
Be19 Be20 2.239213 1_555
Be19 Be21 2.249541 1_555
Be19 Lu0 2.999920 1_556
Be19 Lu1 3.038533 1_455
Be20 Be23 2.120911 1_555
Be20 Ni1 2.160792 1_465
Be20 Be9 2.194101 1_555
Be20 Be7 2.194107 1_555
Be20 Lu0 3.008579 1_565
Be20 Lu1 3.008579 1_455
Be21 Be23 2.125337 1_555
Be21 Be8 2.193581 1_555
Be21 Be7 2.199263 1_545
Be21 Be4 2.206631 1_555
Be21 Be3 2.228247 1_555
Be21 Lu1 2.999917 1_545
Be21 Lu0 3.038538 1_555
Be22 Be4 2.142095 1_655
Be22 Be5 2.170222 1_556
Be22 Be7 2.170225 1_645
Be22 Be3 2.170226 1_556
Be22 Be9 2.170229 1_645
Be22 Ni1 2.188383 1_555
Be22 Ni0 2.188383 1_555
Be22 Be6 2.189274 1_546
Be22 Be8 2.189275 1_655
