# generated using pymatgen
data_HfZr(As2O7)2
_symmetry_space_group_name_H-M   'P 1'
_cell_length_a   5.47992332
_cell_length_b   5.45375286
_cell_length_c   9.82663567
_cell_angle_alpha   81.53975363
_cell_angle_beta   81.36752535
_cell_angle_gamma   98.47489208
_symmetry_Int_Tables_number   1
_chemical_formula_structural   HfZr(As2O7)2
_chemical_formula_sum   'Hf1 Zr1 As4 O14'
_cell_volume   282.84894998
_cell_formula_units_Z   1
loop_
 _symmetry_equiv_pos_site_id
 _symmetry_equiv_pos_as_xyz
  1  'x, y, z'
loop_
 _atom_site_type_symbol
 _atom_site_label
 _atom_site_symmetry_multiplicity
 _atom_site_fract_x
 _atom_site_fract_y
 _atom_site_fract_z
 _atom_site_occupancy
  Hf  Hf0  1  0.00000000  0.00000000  0.00000000  1
  Zr  Zr0  1  0.00000000  0.00000000  0.50000000  1
  As  As0  1  0.17308437  0.44738168  0.20010925  1
  As  As1  1  0.44575003  0.17397084  0.70314272  1
  As  As2  1  0.55424997  0.82602916  0.29685728  1
  As  As3  1  0.82691563  0.55261832  0.79989075  1
  O  O0  1  0.08388801  0.71089519  0.13076812  1
  O  O1  1  0.77819892  0.74252669  0.91590842  1
  O  O2  1  0.30145304  0.98191529  0.85136372  1
  O  O3  1  0.01798030  0.69451235  0.65089893  1
  O  O4  1  0.46615684  0.53307118  0.24782887  1
  O  O5  1  0.70753990  0.08258230  0.63343406  1
  O  O6  1  0.74100905  0.77535250  0.41366410  1
  O  O7  1  0.25899095  0.22464750  0.58633590  1
  O  O8  1  0.22180108  0.25747331  0.08409158  1
  O  O9  1  0.69854696  0.01808471  0.14863628  1
  O  O10  1  0.91611199  0.28910481  0.86923188  1
  O  O11  1  0.98201970  0.30548765  0.34910107  1
  O  O12  1  0.29246010  0.91741770  0.36656594  1
  O  O13  1  0.53384316  0.46692882  0.75217113  1
loop_
_geom_bond_atom_site_label_1
_geom_bond_atom_site_label_2
_geom_bond_distance
_geom_bond_site_symmetry_2
Hf0 O0 2.035529 1_545
Hf0 O10 2.035529 1_454
Hf0 O9 2.058658 1_455
Hf0 O2 2.058658 1_544
Hf0 O8 2.066831 1_555
Hf0 O1 2.066831 1_444
As0 O8 1.667720 1_555
As0 O0 1.669569 1_555
As0 O11 1.675197 1_455
As0 O4 1.756958 1_555
As1 O7 1.668513 1_555
As1 O5 1.670897 1_555
As1 O2 1.674824 1_545
As1 O13 1.756942 1_555
As2 O6 1.668513 1_555
As2 O12 1.670897 1_555
As2 O9 1.674824 1_565
As2 O4 1.756942 1_555
As3 O1 1.667720 1_555
As3 O10 1.669569 1_555
As3 O3 1.675197 1_655
As3 O13 1.756958 1_555
O3 Zr0 2.085556 1_565
O5 Zr0 2.060660 1_655
O6 Zr0 2.095201 1_665
O7 Zr0 2.095201 1_555
O11 Zr0 2.085556 1_655
O12 Zr0 2.060660 1_565
