# generated using pymatgen
data_Zr4Hg2S
_symmetry_space_group_name_H-M   'P 1'
_cell_length_a   9.39598605
_cell_length_b   9.39598503
_cell_length_c   9.39598499
_cell_angle_alpha   59.99999668
_cell_angle_beta   60.00000025
_cell_angle_gamma   60.00000060
_symmetry_Int_Tables_number   1
_chemical_formula_structural   Zr4Hg2S
_chemical_formula_sum   'Zr16 Hg8 S4'
_cell_volume   586.55938516
_cell_formula_units_Z   4
loop_
 _symmetry_equiv_pos_site_id
 _symmetry_equiv_pos_as_xyz
  1  'x, y, z'
loop_
 _atom_site_type_symbol
 _atom_site_label
 _atom_site_symmetry_multiplicity
 _atom_site_fract_x
 _atom_site_fract_y
 _atom_site_fract_z
 _atom_site_occupancy
  Zr  Zr0  1  0.12500000  0.62500000  0.62500000  1
  Zr  Zr1  1  0.62500000  0.12500000  0.62500000  1
  Zr  Zr2  1  0.62500000  0.62500000  0.12500000  1
  Zr  Zr3  1  0.62500000  0.62500000  0.62500000  1
  Zr  Zr4  1  0.80077057  0.80077057  0.19922943  1
  Zr  Zr5  1  0.19922943  0.19922943  0.80077057  1
  Zr  Zr6  1  0.80077057  0.19922943  0.80077057  1
  Zr  Zr7  1  0.19922943  0.80077057  0.19922943  1
  Zr  Zr8  1  0.19922943  0.80077057  0.80077057  1
  Zr  Zr9  1  0.80077057  0.19922943  0.19922943  1
  Zr  Zr10  1  0.44922943  0.44922943  0.05077057  1
  Zr  Zr11  1  0.05077057  0.05077057  0.44922943  1
  Zr  Zr12  1  0.44922943  0.05077057  0.44922943  1
  Zr  Zr13  1  0.05077057  0.44922943  0.05077057  1
  Zr  Zr14  1  0.05077057  0.44922943  0.44922943  1
  Zr  Zr15  1  0.44922943  0.05077057  0.05077057  1
  Hg  Hg0  1  0.78092442  0.40635853  0.40635853  1
  Hg  Hg1  1  0.40635853  0.78092442  0.40635853  1
  Hg  Hg2  1  0.40635853  0.40635853  0.78092442  1
  Hg  Hg3  1  0.40635853  0.40635853  0.40635853  1
  Hg  Hg4  1  0.46907558  0.84364147  0.84364147  1
  Hg  Hg5  1  0.84364147  0.46907558  0.84364147  1
  Hg  Hg6  1  0.84364147  0.84364147  0.46907558  1
  Hg  Hg7  1  0.84364147  0.84364147  0.84364147  1
  S  S0  1  0.62500000  0.12500000  0.12500000  1
  S  S1  1  0.12500000  0.62500000  0.12500000  1
  S  S2  1  0.12500000  0.12500000  0.62500000  1
  S  S3  1  0.12500000  0.12500000  0.12500000  1
loop_
_geom_bond_atom_site_label_1
_geom_bond_atom_site_label_2
_geom_bond_distance
_geom_bond_site_symmetry_2
Hg0 Zr1 2.964454 1_555
Hg0 Zr2 2.964454 1_555
Hg0 Zr3 2.964454 1_555
Hg0 Zr13 2.992998 1_655
Hg0 Zr11 2.992998 1_655
Hg0 Zr14 2.992998 1_655
Hg0 Zr6 3.266775 1_555
Hg0 Zr4 3.266775 1_555
Hg0 Zr9 3.266775 1_555
Hg1 Zr2 2.964454 1_555
Hg1 Zr3 2.964454 1_555
Hg1 Zr0 2.964454 1_555
Hg1 Zr15 2.992998 1_565
Hg1 Zr12 2.992998 1_565
Hg1 Zr11 2.992998 1_565
Hg1 Zr8 3.266775 1_555
Hg1 Zr7 3.266775 1_555
Hg1 Zr4 3.266775 1_555
Hg2 Zr1 2.964454 1_555
Hg2 Zr3 2.964454 1_555
Hg2 Zr0 2.964454 1_555
Hg2 Zr15 2.992998 1_556
Hg2 Zr10 2.992998 1_556
Hg2 Zr13 2.992998 1_556
Hg2 Zr8 3.266775 1_555
Hg2 Zr5 3.266775 1_555
Hg2 Zr6 3.266775 1_555
Hg3 Zr2 2.964454 1_555
Hg3 Zr1 2.964454 1_555
Hg3 Zr0 2.964454 1_555
Hg3 Zr10 2.992998 1_555
Hg3 Zr12 2.992998 1_555
Hg3 Zr14 2.992998 1_555
Hg3 Zr5 3.266775 1_555
Hg3 Zr7 3.266775 1_555
Hg3 Zr9 3.266775 1_555
Hg4 Zr1 2.964454 1_565
Hg4 Zr2 2.964454 1_556
Hg4 Zr3 2.964454 1_555
Hg4 Zr7 2.992998 1_556
Hg4 Zr5 2.992998 1_565
Hg4 Zr8 2.992998 1_555
Hg4 Zr12 3.266775 1_565
Hg4 Zr10 3.266775 1_556
Hg4 Zr15 3.266775 1_566
Hg5 Zr2 2.964454 1_556
Hg5 Zr3 2.964454 1_555
Hg5 Zr0 2.964454 1_655
Hg5 Zr9 2.992998 1_556
Hg5 Zr6 2.992998 1_555
Hg5 Zr5 2.992998 1_655
Hg5 Zr14 3.266775 1_655
Hg5 Zr13 3.266775 1_656
Hg5 Zr10 3.266775 1_556
Hg6 Zr1 2.964454 1_565
Hg6 Zr3 2.964454 1_555
Hg6 Zr0 2.964454 1_655
Hg6 Zr9 2.992998 1_565
Hg6 Zr4 2.992998 1_555
Hg6 Zr7 2.992998 1_655
Hg6 Zr14 3.266775 1_655
Hg6 Zr11 3.266775 1_665
Hg6 Zr12 3.266775 1_565
Hg7 Zr2 2.964454 1_556
Hg7 Zr1 2.964454 1_565
Hg7 Zr0 2.964454 1_655
Hg7 Zr4 2.992998 1_556
Hg7 Zr6 2.992998 1_565
Hg7 Zr8 2.992998 1_655
Hg7 Zr11 3.266775 1_665
Hg7 Zr13 3.266775 1_656
Hg7 Zr15 3.266775 1_566
S0 Zr12 2.547681 1_555
S0 Zr6 2.547681 1_554
S0 Zr10 2.547681 1_555
S0 Zr4 2.547681 1_545
S0 Zr9 2.547682 1_555
S0 Zr15 2.547682 1_555
S1 Zr14 2.547681 1_555
S1 Zr8 2.547681 1_554
S1 Zr7 2.547681 1_555
S1 Zr13 2.547681 1_555
S1 Zr10 2.547682 1_555
S1 Zr4 2.547682 1_455
S2 Zr14 2.547681 1_555
S2 Zr8 2.547681 1_545
S2 Zr5 2.547681 1_555
S2 Zr11 2.547681 1_555
S2 Zr12 2.547682 1_555
S2 Zr6 2.547682 1_455
S3 Zr11 2.547681 1_555
S3 Zr5 2.547681 1_554
S3 Zr13 2.547681 1_555
S3 Zr7 2.547681 1_545
S3 Zr15 2.547682 1_555
S3 Zr9 2.547682 1_455
