# generated using pymatgen
data_YMnCdPt3
_symmetry_space_group_name_H-M   'P 1'
_cell_length_a   5.20897011
_cell_length_b   5.20896939
_cell_length_c   5.20896992
_cell_angle_alpha   63.51272982
_cell_angle_beta   63.51272793
_cell_angle_gamma   63.51273646
_symmetry_Int_Tables_number   1
_chemical_formula_structural   YMnCdPt3
_chemical_formula_sum   'Y1 Mn1 Cd1 Pt3'
_cell_volume   107.70266189
_cell_formula_units_Z   1
loop_
 _symmetry_equiv_pos_site_id
 _symmetry_equiv_pos_as_xyz
  1  'x, y, z'
loop_
 _atom_site_type_symbol
 _atom_site_label
 _atom_site_symmetry_multiplicity
 _atom_site_fract_x
 _atom_site_fract_y
 _atom_site_fract_z
 _atom_site_occupancy
  Y  Y0  1  0.75322103  0.75322103  0.75322103  1
  Mn  Mn0  1  0.37314716  0.37314716  0.37314716  1
  Cd  Cd0  1  0.00302378  0.00302378  0.00302378  1
  Pt  Pt0  1  0.37290653  0.87479697  0.37290653  1
  Pt  Pt1  1  0.37290653  0.37290653  0.87479697  1
  Pt  Pt2  1  0.87479697  0.37290653  0.37290653  1
loop_
_geom_bond_atom_site_label_1
_geom_bond_atom_site_label_2
_geom_bond_distance
_geom_bond_site_symmetry_2
Mn0 Pt0 2.597010 1_545
Mn0 Pt1 2.597010 1_554
Mn0 Pt2 2.597010 1_455
Mn0 Pt0 2.611961 1_555
Mn0 Pt1 2.611961 1_555
Mn0 Pt2 2.611961 1_555
Mn0 Y0 3.218343 1_554
Mn0 Y0 3.218344 1_455
Mn0 Y0 3.218344 1_545
Cd0 Pt1 2.980936 1_554
Cd0 Pt2 2.980937 1_455
Cd0 Pt0 2.980937 1_545
Cd0 Y0 3.100059 1_444
Cd0 Pt2 3.177773 1_445
Cd0 Pt1 3.177773 1_544
Cd0 Pt0 3.177773 1_445
Cd0 Pt0 3.177773 1_544
Cd0 Pt2 3.177774 1_454
Cd0 Pt1 3.177774 1_454
Cd0 Mn0 3.198394 1_554
Cd0 Mn0 3.198395 1_545
Cd0 Mn0 3.198395 1_455
Cd0 Y0 3.331043 1_454
Cd0 Y0 3.331043 1_445
Cd0 Y0 3.331044 1_544
Pt0 Pt1 2.731159 1_564
Pt0 Pt2 2.731159 1_465
Pt0 Pt1 2.751890 1_555
Pt0 Pt2 2.751890 1_555
Pt0 Y0 3.084264 1_555
Pt0 Y0 3.121763 1_455
Pt0 Y0 3.121763 1_554
Pt1 Pt2 2.731159 1_456
Pt1 Pt2 2.751890 1_555
Pt1 Y0 3.084264 1_555
Pt1 Y0 3.121763 1_545
Pt1 Y0 3.121763 1_455
Pt2 Y0 3.084264 1_555
Pt2 Y0 3.121762 1_545
Pt2 Y0 3.121763 1_554
