# generated using pymatgen
data_LuSb(SeO3)4
_symmetry_space_group_name_H-M   'P 1'
_cell_length_a   8.28435333
_cell_length_b   8.62422275
_cell_length_c   8.37765124
_cell_angle_alpha   90.58669574
_cell_angle_beta   90.00000000
_cell_angle_gamma   90.00000000
_symmetry_Int_Tables_number   1
_chemical_formula_structural   LuSb(SeO3)4
_chemical_formula_sum   'Lu2 Sb2 Se8 O24'
_cell_volume   598.51919932
_cell_formula_units_Z   2
loop_
 _symmetry_equiv_pos_site_id
 _symmetry_equiv_pos_as_xyz
  1  'x, y, z'
loop_
 _atom_site_type_symbol
 _atom_site_label
 _atom_site_symmetry_multiplicity
 _atom_site_fract_x
 _atom_site_fract_y
 _atom_site_fract_z
 _atom_site_occupancy
  Lu  Lu0  1  0.00000000  0.50000000  0.00000000  1
  Lu  Lu1  1  0.50000000  0.50000000  0.50000000  1
  Sb  Sb0  1  0.00000000  0.00000000  0.50000000  1
  Sb  Sb1  1  0.50000000  0.00000000  0.00000000  1
  Se  Se0  1  0.33875344  0.69068722  0.16761428  1
  Se  Se1  1  0.83875344  0.30931278  0.33238572  1
  Se  Se2  1  0.69250056  0.84038757  0.68840426  1
  Se  Se3  1  0.19250056  0.15961243  0.81159574  1
  Se  Se4  1  0.66124656  0.30931278  0.83238572  1
  Se  Se5  1  0.16124656  0.69068722  0.66761428  1
  Se  Se6  1  0.30749944  0.15961243  0.31159574  1
  Se  Se7  1  0.80749944  0.84038757  0.18840426  1
  O  O0  1  0.24629750  0.56774996  0.04276760  1
  O  O1  1  0.74629750  0.43225004  0.45723240  1
  O  O2  1  0.76543524  0.97716978  0.55179042  1
  O  O3  1  0.26543524  0.02283022  0.94820958  1
  O  O4  1  0.54811852  0.96827218  0.76818846  1
  O  O5  1  0.47504581  0.57905281  0.25762924  1
  O  O6  1  0.97504581  0.42094719  0.24237076  1
  O  O7  1  0.04811852  0.03172782  0.73181154  1
  O  O8  1  0.97503924  0.22416379  0.47441823  1
  O  O9  1  0.57663122  0.73525937  0.56944516  1
  O  O10  1  0.47503924  0.77583621  0.02558177  1
  O  O11  1  0.07663122  0.26474063  0.93055484  1
  O  O12  1  0.75370250  0.43225004  0.95723240  1
  O  O13  1  0.25370250  0.56774996  0.54276760  1
  O  O14  1  0.23456476  0.02283022  0.44820958  1
  O  O15  1  0.73456476  0.97716978  0.05179042  1
  O  O16  1  0.45188148  0.03172782  0.23181154  1
  O  O17  1  0.52495419  0.42094719  0.74237076  1
  O  O18  1  0.02495419  0.57905281  0.75762924  1
  O  O19  1  0.95188148  0.96827218  0.26818846  1
  O  O20  1  0.02496076  0.77583621  0.52558177  1
  O  O21  1  0.42336878  0.26474063  0.43055484  1
  O  O22  1  0.52496076  0.22416379  0.97441823  1
  O  O23  1  0.92336878  0.73525937  0.06944516  1
loop_
_geom_bond_atom_site_label_1
_geom_bond_atom_site_label_2
_geom_bond_distance
_geom_bond_site_symmetry_2
Lu0 O12 2.151459 1_454
Lu0 O0 2.151459 1_555
Lu0 O6 2.158429 1_455
Lu0 O18 2.158429 1_554
Lu0 O23 2.198608 1_455
Lu0 O11 2.198608 1_554
Lu1 O1 2.151459 1_555
Lu1 O13 2.151459 1_555
Lu1 O17 2.158429 1_555
Lu1 O5 2.158429 1_555
Lu1 O9 2.198608 1_555
Lu1 O21 2.198608 1_555
O0 Se0 1.667935 1_555
O1 Se1 1.667935 1_555
O2 Se2 1.759024 1_555
O2 Sb0 2.001216 1_665
O3 Se3 1.759024 1_555
O3 Sb1 2.001216 1_556
O4 Se2 1.754637 1_555
O4 Sb1 1.998600 1_566
O5 Se0 1.668927 1_555
O6 Se1 1.668927 1_555
O7 Se3 1.754637 1_555
O7 Sb0 1.998600 1_555
O8 Se1 1.802150 1_555
O8 Sb0 1.958210 1_655
O9 Se2 1.648675 1_555
O10 Se0 1.802150 1_555
O10 Sb1 1.958210 1_565
O11 Se3 1.648675 1_555
O12 Se4 1.667935 1_555
O13 Se5 1.667935 1_555
O14 Se6 1.759024 1_555
O14 Sb0 2.001216 1_555
O15 Se7 1.759024 1_555
O15 Sb1 2.001216 1_565
O16 Se6 1.754637 1_555
O16 Sb1 1.998600 1_555
O17 Se4 1.668927 1_555
O18 Se5 1.668927 1_555
O19 Se7 1.754637 1_555
O19 Sb0 1.998600 1_665
O20 Se5 1.802150 1_555
O20 Sb0 1.958210 1_565
O21 Se6 1.648675 1_555
O22 Se4 1.802150 1_555
O22 Sb1 1.958210 1_556
O23 Se7 1.648675 1_555
