# generated using pymatgen
data_Lu5(ZnTe)2
_symmetry_space_group_name_H-M   'P 1'
_cell_length_a   8.44928282
_cell_length_b   8.44928383
_cell_length_c   7.69224768
_cell_angle_alpha   90.00000000
_cell_angle_beta   90.00000000
_cell_angle_gamma   125.88541641
_symmetry_Int_Tables_number   1
_chemical_formula_structural   Lu5(ZnTe)2
_chemical_formula_sum   'Lu10 Zn4 Te4'
_cell_volume   444.91838052
_cell_formula_units_Z   2
loop_
 _symmetry_equiv_pos_site_id
 _symmetry_equiv_pos_as_xyz
  1  'x, y, z'
loop_
 _atom_site_type_symbol
 _atom_site_label
 _atom_site_symmetry_multiplicity
 _atom_site_fract_x
 _atom_site_fract_y
 _atom_site_fract_z
 _atom_site_occupancy
  Lu  Lu0  1  0.00000000  0.00000000  0.00000000  1
  Lu  Lu1  1  0.50000000  0.50000000  0.50000000  1
  Lu  Lu2  1  0.78710094  0.54158257  0.16409814  1
  Lu  Lu3  1  0.45841743  0.21289906  0.83590186  1
  Lu  Lu4  1  0.95841743  0.71289906  0.66409814  1
  Lu  Lu5  1  0.28710094  0.04158257  0.33590186  1
  Lu  Lu6  1  0.21289906  0.45841743  0.83590186  1
  Lu  Lu7  1  0.54158257  0.78710094  0.16409814  1
  Lu  Lu8  1  0.04158257  0.28710094  0.33590186  1
  Lu  Lu9  1  0.71289906  0.95841743  0.66409814  1
  Zn  Zn0  1  0.87134076  0.87134076  0.37347455  1
  Zn  Zn1  1  0.12865924  0.12865924  0.62652545  1
  Zn  Zn2  1  0.62865924  0.62865924  0.87347455  1
  Zn  Zn3  1  0.37134076  0.37134076  0.12652545  1
  Te  Te0  1  0.20662115  0.79337885  0.00000000  1
  Te  Te1  1  0.70662115  0.29337885  0.50000000  1
  Te  Te2  1  0.79337885  0.20662115  0.00000000  1
  Te  Te3  1  0.29337885  0.70662115  0.50000000  1
loop_
_geom_bond_atom_site_label_1
_geom_bond_atom_site_label_2
_geom_bond_distance
_geom_bond_site_symmetry_2
Lu0 Zn3 3.015801 1_555
Lu0 Zn2 3.015801 1_444
Lu0 Zn0 3.038323 1_445
Lu0 Zn1 3.038323 1_554
Lu0 Te0 3.109453 1_545
Lu0 Te2 3.109453 1_455
Lu1 Zn0 3.015801 1_555
Lu1 Zn1 3.015801 1_555
Lu1 Zn2 3.038323 1_555
Lu1 Zn3 3.038323 1_555
Lu1 Te1 3.109453 1_555
Lu1 Te3 3.109453 1_555
Lu2 Zn2 2.913045 1_554
Lu2 Zn0 2.922104 1_555
Lu2 Zn3 2.927301 1_555
Lu2 Te2 3.127637 1_555
Lu2 Te0 3.137402 1_655
Lu2 Te1 3.140833 1_555
Lu3 Zn3 2.913045 1_556
Lu3 Zn1 2.922104 1_555
Lu3 Zn2 2.927302 1_555
Lu3 Te2 3.127636 1_556
Lu3 Te0 3.137403 1_546
Lu3 Te1 3.140833 1_555
Lu4 Zn0 2.913045 1_555
Lu4 Zn2 2.922104 1_555
Lu4 Zn1 2.927302 1_665
Lu4 Te3 3.127636 1_655
Lu4 Te1 3.137403 1_555
Lu4 Te0 3.140833 1_656
Lu5 Zn1 2.913045 1_555
Lu5 Zn3 2.922104 1_555
Lu5 Zn0 2.927301 1_445
Lu5 Te3 3.127637 1_545
Lu5 Te1 3.137402 1_555
Lu5 Te0 3.140833 1_545
Lu6 Zn3 2.913045 1_556
Lu6 Zn1 2.922104 1_555
Lu6 Zn2 2.927301 1_555
Lu6 Te0 3.127637 1_556
Lu6 Te2 3.137402 1_456
Lu6 Te3 3.140833 1_555
Lu7 Zn2 2.913045 1_554
Lu7 Zn0 2.922104 1_555
Lu7 Zn3 2.927302 1_555
Lu7 Te0 3.127636 1_555
Lu7 Te2 3.137403 1_565
Lu7 Te3 3.140833 1_555
Lu8 Zn1 2.913045 1_555
Lu8 Zn3 2.922104 1_555
Lu8 Zn0 2.927302 1_445
Lu8 Te1 3.127636 1_455
Lu8 Te3 3.137403 1_555
Lu8 Te2 3.140833 1_455
Lu9 Zn0 2.913045 1_555
Lu9 Zn2 2.922104 1_555
Lu9 Zn1 2.927301 1_665
Lu9 Te1 3.127637 1_565
Lu9 Te3 3.137402 1_555
Lu9 Te2 3.140833 1_566
Zn0 Zn1 2.775127 1_665
Zn2 Zn3 2.775127 1_556
