# generated using pymatgen
data_YGaHgPt3
_symmetry_space_group_name_H-M   'P 1'
_cell_length_a   5.50053480
_cell_length_b   5.50053475
_cell_length_c   5.17759148
_cell_angle_alpha   57.91432862
_cell_angle_beta   57.91433285
_cell_angle_gamma   60.00000060
_symmetry_Int_Tables_number   1
_chemical_formula_structural   YGaHgPt3
_chemical_formula_sum   'Y1 Ga1 Hg1 Pt3'
_cell_volume   107.14862866
_cell_formula_units_Z   1
loop_
 _symmetry_equiv_pos_site_id
 _symmetry_equiv_pos_as_xyz
  1  'x, y, z'
loop_
 _atom_site_type_symbol
 _atom_site_label
 _atom_site_symmetry_multiplicity
 _atom_site_fract_x
 _atom_site_fract_y
 _atom_site_fract_z
 _atom_site_occupancy
  Y  Y0  1  0.00440399  0.00440399  0.98678802  1
  Ga  Ga0  1  0.62253109  0.62253109  0.13240373  1
  Hg  Hg0  1  0.25204434  0.25204434  0.24386698  1
  Pt  Pt0  1  0.62337124  0.12427509  0.62897943  1
  Pt  Pt1  1  0.62337124  0.62337124  0.62897943  1
  Pt  Pt2  1  0.12427509  0.62337124  0.62897943  1
loop_
_geom_bond_atom_site_label_1
_geom_bond_atom_site_label_2
_geom_bond_distance
_geom_bond_site_symmetry_2
Ga0 Pt0 2.575983 1_555
Ga0 Pt2 2.575983 1_555
Ga0 Pt1 2.575983 1_555
Ga0 Pt0 2.601623 1_564
Ga0 Pt2 2.601623 1_654
Ga0 Pt1 2.601624 1_554
Ga0 Hg0 3.208269 1_555
Ga0 Hg0 3.208283 1_655
Ga0 Hg0 3.208283 1_565
Ga0 Y0 3.231074 1_564
Ga0 Y0 3.231074 1_654
Ga0 Y0 3.231088 1_664
Hg0 Pt1 2.972307 1_554
Hg0 Pt2 2.972315 1_554
Hg0 Pt0 2.972315 1_554
Hg0 Y0 3.038007 1_555
Hg0 Pt0 3.169231 1_555
Hg0 Pt2 3.169231 1_555
Hg0 Pt1 3.169238 1_545
Hg0 Pt1 3.169238 1_455
Hg0 Pt2 3.169245 1_545
Hg0 Pt0 3.169245 1_455
Hg0 Y0 3.345214 1_564
Hg0 Y0 3.345214 1_654
Hg0 Y0 3.345214 1_554
Pt0 Pt1 2.745296 1_555
Pt0 Pt2 2.745296 1_555
Pt0 Pt1 2.755239 1_545
Pt0 Pt2 2.755239 1_645
Pt0 Y0 3.070312 1_654
Pt0 Y0 3.115256 1_555
Pt0 Y0 3.115271 1_655
Pt1 Pt2 2.745296 1_555
Pt1 Pt2 2.755239 1_655
Pt1 Y0 3.070319 1_664
Pt1 Y0 3.115263 1_655
Pt1 Y0 3.115264 1_565
Pt2 Y0 3.070312 1_564
Pt2 Y0 3.115256 1_555
Pt2 Y0 3.115271 1_565
