# generated using pymatgen
data_Cs4Sb3PPt4
_symmetry_space_group_name_H-M   'P 1'
_cell_length_a   7.15893978
_cell_length_b   7.15893945
_cell_length_c   7.15893911
_cell_angle_alpha   90.09159267
_cell_angle_beta   90.09159216
_cell_angle_gamma   90.09158904
_symmetry_Int_Tables_number   1
_chemical_formula_structural   Cs4Sb3PPt4
_chemical_formula_sum   'Cs4 Sb3 P1 Pt4'
_cell_volume   366.89720220
_cell_formula_units_Z   1
loop_
 _symmetry_equiv_pos_site_id
 _symmetry_equiv_pos_as_xyz
  1  'x, y, z'
loop_
 _atom_site_type_symbol
 _atom_site_label
 _atom_site_symmetry_multiplicity
 _atom_site_fract_x
 _atom_site_fract_y
 _atom_site_fract_z
 _atom_site_occupancy
  Cs  Cs0  1  0.60970021  0.39117892  0.88180036  1
  Cs  Cs1  1  0.39117892  0.88180036  0.60970021  1
  Cs  Cs2  1  0.11420374  0.11420374  0.11420374  1
  Cs  Cs3  1  0.88180036  0.60970021  0.39117892  1
  Sb  Sb0  1  0.59294444  0.90144328  0.10571218  1
  Sb  Sb1  1  0.10571218  0.59294444  0.90144328  1
  Sb  Sb2  1  0.90144328  0.10571218  0.59294444  1
  P  P0  1  0.39698363  0.39698363  0.39698363  1
  Pt  Pt0  1  0.17410523  0.35652151  0.62252064  1
  Pt  Pt1  1  0.62252064  0.17410523  0.35652151  1
  Pt  Pt2  1  0.85288585  0.85288585  0.85288585  1
  Pt  Pt3  1  0.35652151  0.62252064  0.17410523  1
loop_
_geom_bond_atom_site_label_1
_geom_bond_atom_site_label_2
_geom_bond_distance
_geom_bond_site_symmetry_2
Cs0 Pt3 3.227628 1_556
Cs0 Sb2 3.581725 1_555
Cs0 Pt0 3.634401 1_555
Cs0 Pt2 3.739508 1_555
Cs0 Pt1 3.740259 1_556
Cs0 P0 3.788239 1_555
Cs0 Sb1 3.833606 1_655
Cs0 Sb0 3.859157 1_546
Cs1 Pt1 3.227628 1_565
Cs1 Sb1 3.581725 1_555
Cs1 Pt3 3.634401 1_555
Cs1 Pt2 3.739508 1_555
Cs1 Pt0 3.740259 1_565
Cs1 P0 3.788239 1_555
Cs1 Sb0 3.833605 1_556
Cs1 Sb2 3.859157 1_465
Cs2 Pt2 3.235066 1_444
Cs2 P0 3.500761 1_555
Cs2 Sb2 3.753255 1_455
Cs2 Sb1 3.753256 1_554
Cs2 Sb0 3.753256 1_545
Cs2 Pt0 3.950327 1_554
Cs2 Pt3 3.950327 1_545
Cs2 Pt1 3.950328 1_455
Cs3 Pt0 3.227628 1_655
Cs3 Sb0 3.581725 1_555
Cs3 Pt1 3.634401 1_555
Cs3 Pt2 3.739508 1_555
Cs3 Pt3 3.740260 1_655
Cs3 P0 3.788240 1_555
Cs3 Sb2 3.833605 1_565
Cs3 Sb1 3.859157 1_654
P0 Pt3 2.290189 1_555
P0 Pt1 2.290189 1_555
P0 Pt0 2.290189 1_555
Pt0 Sb2 2.658045 1_455
Pt0 Sb1 2.662058 1_555
Pt1 Sb0 2.658045 1_545
Pt1 Sb2 2.662058 1_555
Pt2 Sb2 2.621186 1_565
Pt2 Sb0 2.621186 1_556
Pt2 Sb1 2.621186 1_655
Pt3 Sb1 2.658045 1_554
Pt3 Sb0 2.662058 1_555
