# generated using pymatgen
data_Sc(Al2Fe)4
_symmetry_space_group_name_H-M   'P 1'
_cell_length_a   4.96475622
_cell_length_b   6.57107658
_cell_length_c   6.57107541
_cell_angle_alpha   81.78742088
_cell_angle_beta   67.82894527
_cell_angle_gamma   67.82910512
_symmetry_Int_Tables_number   1
_chemical_formula_structural   Sc(Al2Fe)4
_chemical_formula_sum   'Sc1 Al8 Fe4'
_cell_volume   183.84459317
_cell_formula_units_Z   1
loop_
 _symmetry_equiv_pos_site_id
 _symmetry_equiv_pos_as_xyz
  1  'x, y, z'
loop_
 _atom_site_type_symbol
 _atom_site_label
 _atom_site_symmetry_multiplicity
 _atom_site_fract_x
 _atom_site_fract_y
 _atom_site_fract_z
 _atom_site_occupancy
  Sc  Sc0  1  0.00000000  -0.00000000  -0.00000000  1
  Al  Al0  1  0.66285037  0.33757913  0.33756004  1
  Al  Al1  1  0.00000736  0.66240030  0.33758649  1
  Al  Al2  1  -0.00000736  0.33759970  0.66241351  1
  Al  Al3  1  0.33714963  0.66242087  0.66243996  1
  Al  Al4  1  0.71802818  0.78164714  0.78167482  1
  Al  Al5  1  0.28197182  0.21835286  0.21832518  1
  Al  Al6  1  0.50000845  0.78161302  0.21836821  1
  Al  Al7  1  0.49999155  0.21838698  0.78163179  1
  Fe  Fe0  1  0.50000000  0.50000000  -0.00000000  1
  Fe  Fe1  1  0.00000000  0.50000000  -0.00000000  1
  Fe  Fe2  1  0.50000000  -0.00000000  0.50000000  1
  Fe  Fe3  1  0.00000000  -0.00000000  0.50000000  1
loop_
_geom_bond_atom_site_label_1
_geom_bond_atom_site_label_2
_geom_bond_distance
_geom_bond_site_symmetry_2
Al0 Fe1 2.594370 1_655
Al0 Fe3 2.594511 1_655
Al0 Fe0 2.595926 1_555
Al0 Fe2 2.596060 1_555
Al0 Al5 2.686100 1_555
Al0 Al5 2.686262 1_655
Al0 Al3 2.796407 1_555
Al0 Al6 2.797346 1_555
Al0 Al7 2.797565 1_555
Al0 Sc0 2.905798 1_655
Al1 Fe1 2.595396 1_555
Al1 Fe3 2.595486 1_565
Al1 Fe0 2.596653 1_555
Al1 Fe2 2.596754 1_465
Al1 Al6 2.685922 1_555
Al1 Al6 2.685941 1_455
Al1 Al2 2.794572 1_555
Al1 Al5 2.798249 1_555
Al1 Al4 2.798463 1_455
Al1 Sc0 2.904520 1_565
Al2 Fe1 2.595396 1_556
Al2 Fe3 2.595486 1_555
Al2 Fe0 2.596653 1_456
Al2 Fe2 2.596754 1_555
Al2 Al7 2.685922 1_455
Al2 Al7 2.685941 1_555
Al2 Al4 2.798249 1_455
Al2 Al5 2.798463 1_555
Al2 Sc0 2.904520 1_556
Al3 Fe1 2.594370 1_556
Al3 Fe3 2.594511 1_565
Al3 Fe0 2.595926 1_556
Al3 Fe2 2.596060 1_565
Al3 Al4 2.686100 1_555
Al3 Al4 2.686262 1_455
Al3 Al7 2.797346 1_555
Al3 Al6 2.797565 1_555
Al3 Sc0 2.905798 1_566
Al4 Fe0 2.497288 1_556
Al4 Fe2 2.497497 1_565
Al4 Fe1 2.498992 1_656
Al4 Fe3 2.499192 1_665
Al4 Al6 2.657375 1_556
Al4 Al7 2.657661 1_565
Al4 Sc0 3.113300 1_566
Al4 Sc0 3.113923 1_666
Al5 Fe0 2.497288 1_555
Al5 Fe2 2.497497 1_555
Al5 Fe1 2.498992 1_555
Al5 Fe3 2.499192 1_555
Al5 Al7 2.657375 1_554
Al5 Al6 2.657661 1_545
Al5 Sc0 3.113300 1_655
Al5 Sc0 3.113923 1_555
Al6 Fe0 2.498407 1_555
Al6 Fe2 2.498551 1_565
Al6 Fe1 2.499723 1_655
Al6 Fe3 2.499857 1_565
Al6 Sc0 3.113233 1_565
Al6 Sc0 3.113235 1_665
Al7 Fe0 2.498407 1_556
Al7 Fe2 2.498551 1_555
Al7 Fe1 2.499723 1_556
Al7 Fe3 2.499857 1_655
Al7 Sc0 3.113233 1_656
Al7 Sc0 3.113235 1_556
Fe0 Fe1 2.482378 1_655
Fe0 Fe1 2.482378 1_555
Fe0 Sc0 3.286539 1_565
Fe0 Sc0 3.286539 1_655
Fe1 Sc0 3.285538 1_565
Fe1 Sc0 3.285538 1_555
Fe2 Fe3 2.482378 1_655
Fe2 Fe3 2.482378 1_555
Fe2 Sc0 3.286532 1_556
Fe2 Sc0 3.286532 1_655
Fe3 Sc0 3.285538 1_555
Fe3 Sc0 3.285538 1_556
