# generated using pymatgen
data_B9I4Br5
_symmetry_space_group_name_H-M   'P 1'
_cell_length_a   10.23267223
_cell_length_b   10.36650612
_cell_length_c   10.31187082
_cell_angle_alpha   86.23279673
_cell_angle_beta   86.28619728
_cell_angle_gamma   86.51458363
_symmetry_Int_Tables_number   1
_chemical_formula_structural   B9I4Br5
_chemical_formula_sum   'B18 I8 Br10'
_cell_volume   1087.44008809
_cell_formula_units_Z   2
loop_
 _symmetry_equiv_pos_site_id
 _symmetry_equiv_pos_as_xyz
  1  'x, y, z'
loop_
 _atom_site_type_symbol
 _atom_site_label
 _atom_site_symmetry_multiplicity
 _atom_site_fract_x
 _atom_site_fract_y
 _atom_site_fract_z
 _atom_site_occupancy
  B  B0  1  0.86399836  0.73261435  0.74083540  1
  B  B1  1  0.79527032  0.78727119  0.59409470  1
  B  B2  1  0.78573725  0.59211389  0.79742713  1
  B  B3  1  0.73812867  0.86345335  0.73520413  1
  B  B4  1  0.73182709  0.73719645  0.86683081  1
  B  B5  1  0.75511573  0.62741221  0.63390438  1
  B  B6  1  0.62309072  0.63341078  0.76120433  1
  B  B7  1  0.62955598  0.76011843  0.62967636  1
  B  B8  1  0.59009979  0.79710454  0.79120708  1
  B  B9  1  0.40494439  0.21102494  0.21174601  1
  B  B10  1  0.36703289  0.24460175  0.37421803  1
  B  B11  1  0.36719401  0.37283974  0.24351736  1
  B  B12  1  0.23682578  0.37279863  0.37322731  1
  B  B13  1  0.26016228  0.13803015  0.26655059  1
  B  B14  1  0.26077978  0.26594782  0.13784114  1
  B  B15  1  0.20273137  0.40873708  0.21013787  1
  B  B16  1  0.20243158  0.21043566  0.41015866  1
  B  B17  1  0.13033921  0.26497672  0.26563863  1
  I  I0  1  0.89234394  0.86454652  0.42454727  1
  I  I1  1  0.92881001  0.23716281  0.23964446  1
  I  I2  1  0.86643241  0.42123857  0.88654006  1
  I  I3  1  0.78993308  0.48391276  0.49561429  1
  I  I4  1  0.76465319  0.06423910  0.75401694  1
  I  I5  1  0.75292817  0.76153912  0.06850599  1
  I  I6  1  0.57626634  0.12533724  0.12636761  1
  I  I7  1  0.48976132  0.80010629  0.48621954  1
  Br  Br0  1  0.48924275  0.51240411  0.79683723  1
  Br  Br1  1  0.49407274  0.50064170  0.20898626  1
  Br  Br2  1  0.49265895  0.21339314  0.50364794  1
  Br  Br3  1  0.43454767  0.87726147  0.86404067  1
  Br  Br4  1  0.24093438  0.24650058  0.95630775  1
  Br  Br5  1  0.23873666  0.95781803  0.24517303  1
  Br  Br6  1  0.20353688  0.49923082  0.49981507  1
  Br  Br7  1  0.04693330  0.74869348  0.76440394  1
  Br  Br8  1  0.12664030  0.13405295  0.56527485  1
  Br  Br9  1  0.12710268  0.56253463  0.13284018  1
loop_
_geom_bond_atom_site_label_1
_geom_bond_atom_site_label_2
_geom_bond_distance
_geom_bond_site_symmetry_2
B0 B2 1.752952 1_555
B0 B1 1.755580 1_555
B0 Br7 1.921746 1_655
B1 B7 1.747318 1_555
B1 B5 1.747896 1_555
B1 B3 1.751440 1_555
B1 I0 2.091142 1_555
B2 B5 1.746099 1_555
B2 B6 1.750887 1_555
B2 B4 1.751555 1_555
B2 I2 2.090594 1_555
B3 I4 2.138292 1_565
B4 I5 2.137521 1_556
B5 I3 2.126478 1_555
B6 Br0 1.915092 1_555
B7 I7 2.127885 1_555
B8 Br3 1.885319 1_555
B9 I6 2.085891 1_555
B10 B9 1.747741 1_555
B10 Br2 1.911396 1_555
B11 B9 1.745692 1_555
B11 Br1 1.911783 1_555
B12 Br6 1.910694 1_555
B13 B9 1.748855 1_555
B13 Br5 1.922732 1_545
B14 B9 1.751469 1_555
B14 Br4 1.920908 1_554
B15 Br9 1.881240 1_555
B16 Br8 1.880029 1_555
B17 I1 2.135800 1_455
