# generated using pymatgen
data_KAs2PdRu
_symmetry_space_group_name_H-M   'P 1'
_cell_length_a   7.35072820
_cell_length_b   7.35072892
_cell_length_c   7.35072848
_cell_angle_alpha   148.27395734
_cell_angle_beta   148.27396542
_cell_angle_gamma   45.48111224
_symmetry_Int_Tables_number   1
_chemical_formula_structural   KAs2PdRu
_chemical_formula_sum   'K1 As2 Pd1 Ru1'
_cell_volume   109.47327002
_cell_formula_units_Z   1
loop_
 _symmetry_equiv_pos_site_id
 _symmetry_equiv_pos_as_xyz
  1  'x, y, z'
loop_
 _atom_site_type_symbol
 _atom_site_label
 _atom_site_symmetry_multiplicity
 _atom_site_fract_x
 _atom_site_fract_y
 _atom_site_fract_z
 _atom_site_occupancy
  K  K0  1  0.00000000  0.00000000  0.00000000  1
  As  As0  1  0.35350871  0.35350871  1.00000000  1
  As  As1  1  0.64649129  0.64649129  0.00000000  1
  Pd  Pd0  1  0.75000000  0.25000000  0.50000000  1
  Ru  Ru0  1  0.25000000  0.75000000  0.50000000  1
loop_
_geom_bond_atom_site_label_1
_geom_bond_atom_site_label_2
_geom_bond_distance
_geom_bond_site_symmetry_2
As0 Pd0 2.450850 1_455
As0 Pd0 2.450850 1_556
As0 Ru0 2.450850 1_556
As0 Ru0 2.450850 1_545
As0 K0 3.466863 1_667
As0 K0 3.466863 1_555
As0 K0 3.466863 1_656
As0 K0 3.466864 1_566
As1 Ru0 2.450850 1_655
As1 Ru0 2.450850 1_554
As1 Pd0 2.450850 1_554
As1 Pd0 2.450850 1_565
As1 K0 3.466863 1_554
As1 K0 3.466863 1_666
As1 K0 3.466863 1_565
As1 K0 3.466864 1_655
