# generated using pymatgen
data_Ba8As4SeS
_symmetry_space_group_name_H-M   'P 1'
_cell_length_a   8.64674687
_cell_length_b   8.64674660
_cell_length_c   8.64674618
_cell_angle_alpha   109.44269022
_cell_angle_beta   109.44268163
_cell_angle_gamma   109.52830187
_symmetry_Int_Tables_number   1
_chemical_formula_structural   Ba8As4SeS
_chemical_formula_sum   'Ba8 As4 Se1 S1'
_cell_volume   497.66373096
_cell_formula_units_Z   1
loop_
 _symmetry_equiv_pos_site_id
 _symmetry_equiv_pos_as_xyz
  1  'x, y, z'
loop_
 _atom_site_type_symbol
 _atom_site_label
 _atom_site_symmetry_multiplicity
 _atom_site_fract_x
 _atom_site_fract_y
 _atom_site_fract_z
 _atom_site_occupancy
  Ba  Ba0  1  0.36782541  0.36909263  0.36187850  1
  Ba  Ba1  1  0.13030223  0.50137941  0.00390886  1
  Ba  Ba2  1  0.99747055  0.12639337  0.49609114  1
  Ba  Ba3  1  0.87360663  0.86969777  0.87107718  1
  Ba  Ba4  1  0.50721412  0.00594790  0.13812150  1
  Ba  Ba5  1  0.63090737  0.49278588  0.99873278  1
  Ba  Ba6  1  0.49862059  0.00252945  0.62892282  1
  Ba  Ba7  1  0.99405210  0.63217459  0.50126722  1
  As  As0  1  0.87821539  0.25129454  0.12879049  1
  As  As1  1  0.62250405  0.74942489  0.37120951  1
  As  As2  1  0.25057511  0.12178461  0.87307916  1
  As  As3  1  0.74870546  0.37749595  0.62692084  1
  Se  Se0  1  0.37500000  0.62500000  0.75000000  1
  S  S0  1  0.12500000  0.87500000  0.25000000  1
loop_
_geom_bond_atom_site_label_1
_geom_bond_atom_site_label_2
_geom_bond_distance
_geom_bond_site_symmetry_2
Ba0 Se0 3.314930 1_555
Ba0 S0 3.673713 1_545
Ba1 S0 3.248741 1_555
Ba1 Se0 3.685420 1_554
Ba2 S0 3.248741 1_645
Ba2 Se0 3.685420 1_655
Ba3 S0 3.248741 1_656
Ba3 Se0 3.685420 1_555
Ba4 Se0 3.314935 1_544
Ba4 S0 3.673714 1_545
Ba5 Se0 3.314930 1_555
Ba5 S0 3.673713 1_656
Ba6 S0 3.248741 1_545
Ba6 Se0 3.685420 1_545
Ba7 Se0 3.314937 1_655
Ba7 S0 3.673716 1_655
As0 Ba4 3.245689 1_555
As0 Ba1 3.250160 1_655
As0 Ba7 3.287591 1_555
As0 Ba3 3.288239 1_544
As0 Ba0 3.618357 1_655
As0 Ba5 3.625638 1_554
As0 Ba2 3.628240 1_555
As0 Ba6 3.705113 1_554
As1 Ba0 3.245691 1_555
As1 Ba2 3.250160 1_565
As1 Ba5 3.287588 1_554
As1 Ba6 3.288239 1_565
As1 Ba4 3.618365 1_565
As1 Ba7 3.625631 1_555
As1 Ba1 3.628240 1_555
As1 Ba3 3.705113 1_555
As2 Ba5 3.245692 1_555
As2 Ba3 3.250160 1_445
As2 Ba4 3.287582 1_556
As2 Ba2 3.288239 1_455
As2 Ba7 3.618356 1_445
As2 Ba0 3.625638 1_556
As2 Ba6 3.628240 1_555
As2 Ba1 3.705113 1_556
As3 Ba7 3.245687 1_555
As3 Ba6 3.250160 1_555
As3 Ba0 3.287588 1_555
As3 Ba1 3.288239 1_656
As3 Ba5 3.618357 1_555
As3 Ba4 3.625635 1_555
As3 Ba3 3.628240 1_555
As3 Ba2 3.705113 1_555
