# generated using pymatgen
data_Be(N3O7)2
_symmetry_space_group_name_H-M   'P 1'
_cell_length_a   14.26083238
_cell_length_b   12.88429812
_cell_length_c   7.58798950
_cell_angle_alpha   84.06695562
_cell_angle_beta   63.97920707
_cell_angle_gamma   31.95383732
_symmetry_Int_Tables_number   1
_chemical_formula_structural   Be(N3O7)2
_chemical_formula_sum   'Be2 N12 O28'
_cell_volume   546.95748924
_cell_formula_units_Z   2
loop_
 _symmetry_equiv_pos_site_id
 _symmetry_equiv_pos_as_xyz
  1  'x, y, z'
loop_
 _atom_site_type_symbol
 _atom_site_label
 _atom_site_symmetry_multiplicity
 _atom_site_fract_x
 _atom_site_fract_y
 _atom_site_fract_z
 _atom_site_occupancy
  Be  Be0  1  0.09764100  0.90235900  0.90235900  1
  Be  Be1  1  0.34764100  0.15235900  0.15235900  1
  N  N0  1  0.65915000  0.22760400  0.15042100  1
  N  N1  1  0.96282500  0.15042100  0.22760400  1
  N  N2  1  0.09957900  0.28717500  0.59085000  1
  N  N3  1  0.02239600  0.59085000  0.28717500  1
  N  N4  1  0.32202800  0.78922100  0.48016500  1
  N  N5  1  0.40858600  0.48016500  0.78922100  1
  N  N6  1  0.76983500  0.84141400  0.92797200  1
  N  N7  1  0.46077900  0.92797200  0.84141400  1
  N  N8  1  0.61297100  0.02570300  0.43509700  1
  N  N9  1  0.92622900  0.43509700  0.02570300  1
  N  N10  1  0.81490300  0.32377100  0.63702900  1
  N  N11  1  0.22429700  0.63702900  0.32377100  1
  O  O0  1  0.87238400  0.01822900  0.06402300  1
  O  O1  1  0.04536500  0.06402300  0.01822900  1
  O  O2  1  0.18597700  0.20463500  0.37761600  1
  O  O3  1  0.23177100  0.37761600  0.20463500  1
  O  O4  1  0.58900200  0.38119800  0.14846200  1
  O  O5  1  0.88133800  0.14846200  0.38119800  1
  O  O6  1  0.10153800  0.36866200  0.66099800  1
  O  O7  1  0.86880200  0.66099800  0.36866200  1
  O  O8  1  0.52233100  0.27293200  0.24021000  1
  O  O9  1  0.96452700  0.24021000  0.27293200  1
  O  O10  1  0.00979000  0.28547300  0.72766900  1
  O  O11  1  0.97706800  0.72766900  0.28547300  1
  O  O12  1  0.13506000  0.89960800  0.66613700  1
  O  O13  1  0.29919500  0.66613700  0.89960800  1
  O  O14  1  0.58386300  0.95080500  0.11494000  1
  O  O15  1  0.35039200  0.11494000  0.95080500  1
  O  O16  1  0.47276200  0.67774400  0.48837800  1
  O  O17  1  0.36111700  0.48837800  0.67774400  1
  O  O18  1  0.76162200  0.88888300  0.77723800  1
  O  O19  1  0.57225600  0.77723800  0.88888300  1
  O  O20  1  0.33095700  0.80579600  0.31313000  1
  O  O21  1  0.55011700  0.31313000  0.80579600  1
  O  O22  1  0.93687000  0.69988300  0.91904300  1
  O  O23  1  0.44420400  0.91904300  0.69988300  1
  O  O24  1  0.47533700  0.16911000  0.62427500  1
  O  O25  1  0.73127900  0.62427500  0.16911000  1
  O  O26  1  0.62572500  0.51872100  0.77466300  1
  O  O27  1  0.08089000  0.77466300  0.51872100  1
loop_
_geom_bond_atom_site_label_1
_geom_bond_atom_site_label_2
_geom_bond_distance
_geom_bond_site_symmetry_2
Be0 O13 1.625024 1_555
Be0 O12 1.625024 1_555
Be0 O0 1.683980 1_466
Be0 O1 1.683992 1_566
Be1 O15 1.625024 1_554
Be1 O14 1.625024 1_545
Be1 O3 1.683980 1_555
Be1 O2 1.683989 1_555
N0 O4 1.250901 1_555
N0 O8 1.262722 1_555
N0 O0 1.284555 1_555
N1 O5 1.250901 1_555
N1 O9 1.262722 1_555
N1 O1 1.284550 1_655
N2 O6 1.250901 1_555
N2 O10 1.262722 1_555
N2 O2 1.284557 1_555
N3 O7 1.250901 1_455
N3 O11 1.262722 1_455
N3 O3 1.284553 1_555
N4 O20 1.231608 1_555
N4 O16 1.243928 1_555
N4 O12 1.342353 1_555
N5 O21 1.231608 1_555
N5 O17 1.243917 1_555
N5 O13 1.342353 1_555
N6 O22 1.231608 1_555
N6 O18 1.243924 1_555
N6 O14 1.342353 1_556
N7 O23 1.231608 1_555
N7 O19 1.243923 1_555
N7 O15 1.342353 1_565
N8 O24 1.117648 1_555
N9 O25 1.117645 1_555
N10 O26 1.117644 1_555
N11 O27 1.117643 1_555
