# generated using pymatgen
data_Nb5Pb2WS12
_symmetry_space_group_name_H-M   'P 1'
_cell_length_a   5.80987738
_cell_length_b   5.80987714
_cell_length_c   15.02594148
_cell_angle_alpha   90.00000000
_cell_angle_beta   90.00000000
_cell_angle_gamma   119.99999563
_symmetry_Int_Tables_number   1
_chemical_formula_structural   Nb5Pb2WS12
_chemical_formula_sum   'Nb5 Pb2 W1 S12'
_cell_volume   439.24442606
_cell_formula_units_Z   1
loop_
 _symmetry_equiv_pos_site_id
 _symmetry_equiv_pos_as_xyz
  1  'x, y, z'
loop_
 _atom_site_type_symbol
 _atom_site_label
 _atom_site_symmetry_multiplicity
 _atom_site_fract_x
 _atom_site_fract_y
 _atom_site_fract_z
 _atom_site_occupancy
  Nb  Nb0  1  0.00000000  0.00000000  0.25000000  1
  Nb  Nb1  1  0.33333300  0.66666700  0.25000000  1
  Nb  Nb2  1  0.66666700  0.33333300  0.75000000  1
  Nb  Nb3  1  0.66666700  0.33333300  0.25000000  1
  Nb  Nb4  1  0.33333300  0.66666700  0.75000000  1
  Pb  Pb0  1  0.00000000  0.00000000  0.00705221  1
  Pb  Pb1  1  0.00000000  0.00000000  0.49294779  1
  W  W0  1  0.00000000  0.00000000  0.75000000  1
  S  S0  1  0.33668784  0.00000000  0.14573199  1
  S  S1  1  0.00000000  0.33668784  0.14573199  1
  S  S2  1  0.66331216  0.66331216  0.14573199  1
  S  S3  1  0.32664628  0.32664628  0.64757639  1
  S  S4  1  0.66331216  0.66331216  0.35426801  1
  S  S5  1  0.67335372  1.00000000  0.64757639  1
  S  S6  1  1.00000000  0.67335372  0.64757639  1
  S  S7  1  1.00000000  0.67335372  0.85242361  1
  S  S8  1  0.32664628  0.32664628  0.85242361  1
  S  S9  1  0.00000000  0.33668784  0.35426801  1
  S  S10  1  0.33668784  0.00000000  0.35426801  1
  S  S11  1  0.67335372  1.00000000  0.85242361  1
loop_
_geom_bond_atom_site_label_1
_geom_bond_atom_site_label_2
_geom_bond_distance
_geom_bond_site_symmetry_2
Nb0 S9 2.506195 1_555
Nb0 S1 2.506195 1_555
Nb0 S10 2.506195 1_555
Nb0 S0 2.506195 1_555
Nb0 S4 2.506195 1_445
Nb0 S2 2.506195 1_445
Nb1 S10 2.483500 1_565
Nb1 S0 2.483500 1_565
Nb1 S9 2.483502 1_555
Nb1 S1 2.483502 1_555
Nb1 S4 2.483504 1_555
Nb1 S2 2.483504 1_555
Nb2 S11 2.489139 1_545
Nb2 S5 2.489139 1_545
Nb2 S7 2.489141 1_555
Nb2 S6 2.489141 1_555
Nb2 S8 2.489144 1_555
Nb2 S3 2.489144 1_555
Nb3 S9 2.483500 1_655
Nb3 S1 2.483500 1_655
Nb3 S10 2.483502 1_555
Nb3 S0 2.483502 1_555
Nb3 S4 2.483504 1_555
Nb3 S2 2.483504 1_555
Nb4 S7 2.489139 1_455
Nb4 S6 2.489139 1_455
Nb4 S11 2.489141 1_555
Nb4 S5 2.489141 1_555
Nb4 S8 2.489143 1_555
Nb4 S3 2.489143 1_555
Pb0 S1 2.858073 1_555
Pb0 S0 2.858074 1_555
Pb0 S2 2.858074 1_445
Pb0 S7 2.999987 1_444
Pb0 S11 2.999987 1_444
Pb0 S8 2.999987 1_554
Pb1 S9 2.858073 1_555
Pb1 S10 2.858074 1_555
Pb1 S4 2.858074 1_445
Pb1 S6 2.999987 1_445
Pb1 S5 2.999987 1_445
Pb1 S3 2.999987 1_555
S3 W0 2.443380 1_555
S5 W0 2.443380 1_665
S6 W0 2.443380 1_665
S7 W0 2.443380 1_665
S8 W0 2.443380 1_555
S11 W0 2.443380 1_665
