# generated using pymatgen
data_CsLuSe2O7
_symmetry_space_group_name_H-M   'P 1'
_cell_length_a   5.73001387
_cell_length_b   5.73001304
_cell_length_c   14.88229982
_cell_angle_alpha   78.90063091
_cell_angle_beta   101.09936732
_cell_angle_gamma   120.00000085
_symmetry_Int_Tables_number   1
_chemical_formula_structural   CsLuSe2O7
_chemical_formula_sum   'Cs2 Lu2 Se4 O14'
_cell_volume   412.57950983
_cell_formula_units_Z   2
loop_
 _symmetry_equiv_pos_site_id
 _symmetry_equiv_pos_as_xyz
  1  'x, y, z'
loop_
 _atom_site_type_symbol
 _atom_site_label
 _atom_site_symmetry_multiplicity
 _atom_site_fract_x
 _atom_site_fract_y
 _atom_site_fract_z
 _atom_site_occupancy
  Cs  Cs0  1  0.00000000  0.00000000  0.00000000  1
  Cs  Cs1  1  0.49999900  0.50000000  0.50000000  1
  Lu  Lu0  1  0.09740658  0.90259442  0.29221973  1
  Lu  Lu1  1  0.90259342  0.09740658  0.70778027  1
  Se  Se0  1  0.38625875  0.61374025  0.15877724  1
  Se  Se1  1  0.77318989  0.22681011  0.31957066  1
  Se  Se2  1  0.22681011  0.77319089  0.68043034  1
  Se  Se3  1  0.61373925  0.38625975  0.84122276  1
  O  O0  1  0.34902689  0.65097211  0.04708467  1
  O  O1  1  0.71207793  0.75644440  0.19918814  1
  O  O2  1  0.24355560  0.28792107  0.19918814  1
  O  O3  1  0.24355560  0.75644440  0.19918814  1
  O  O4  1  0.94392982  0.05606918  0.37284391  1
  O  O5  1  0.94392982  0.51501773  0.37284391  1
  O  O6  1  0.48498027  0.05606818  0.37284391  1
  O  O7  1  0.51501873  0.94393182  0.62715609  1
  O  O8  1  0.05606818  0.48498027  0.62715609  1
  O  O9  1  0.05606818  0.94393082  0.62715609  1
  O  O10  1  0.75644540  0.24355560  0.80081186  1
  O  O11  1  0.75644540  0.71207793  0.80081186  1
  O  O12  1  0.28792207  0.24355660  0.80081186  1
  O  O13  1  0.65097111  0.34902789  0.95291533  1
loop_
_geom_bond_atom_site_label_1
_geom_bond_atom_site_label_2
_geom_bond_distance
_geom_bond_site_symmetry_2
Cs0 O0 3.378025 1_545
Cs0 O13 3.378030 1_554
Cs0 O13 3.378035 1_444
Cs0 O0 3.378035 1_555
Cs0 O13 3.378035 1_454
Cs0 O0 3.378040 1_445
Cs0 O2 3.383004 1_555
Cs0 O10 3.383007 1_454
Cs0 O11 3.383007 1_444
Cs0 O1 3.383007 1_445
Cs0 O12 3.383007 1_554
Cs0 O3 3.383009 1_545
Cs1 O8 3.410396 1_555
Cs1 O6 3.410398 1_565
Cs1 O7 3.410400 1_545
Cs1 O7 3.410401 1_555
Cs1 O4 3.410401 1_565
Cs1 O9 3.410401 1_545
Cs1 O5 3.410401 1_455
Cs1 O9 3.410401 1_655
Cs1 O4 3.410401 1_455
Cs1 O5 3.410401 1_555
Cs1 O6 3.410403 1_555
Cs1 O8 3.410405 1_655
Lu0 O6 2.138301 1_565
Lu0 O4 2.138310 1_465
Lu0 O5 2.138313 1_455
Lu0 O2 2.216659 1_565
Lu0 O1 2.216667 1_455
Lu0 O3 2.216675 1_555
Lu1 O8 2.138301 1_655
Lu1 O7 2.138305 1_545
Lu1 O9 2.138306 1_645
Lu1 O11 2.216667 1_545
Lu1 O12 2.216667 1_655
Lu1 O10 2.216667 1_555
O0 Se0 1.620653 1_555
O1 Se0 1.657184 1_555
O2 Se0 1.657183 1_555
O3 Se0 1.657179 1_555
O4 Se1 1.703749 1_555
O5 Se1 1.703749 1_555
O6 Se1 1.703758 1_555
O7 Se2 1.703762 1_555
O8 Se2 1.703771 1_555
O9 Se2 1.703757 1_555
O10 Se3 1.657193 1_555
O11 Se3 1.657179 1_555
O12 Se3 1.657174 1_555
O13 Se3 1.620653 1_555
