# generated using pymatgen
data_Zr10Al2InSb5
_symmetry_space_group_name_H-M   'P 1'
_cell_length_a   8.70936222
_cell_length_b   8.70936198
_cell_length_c   5.85306364
_cell_angle_alpha   90.00000000
_cell_angle_beta   90.00000000
_cell_angle_gamma   120.20895801
_symmetry_Int_Tables_number   1
_chemical_formula_structural   Zr10Al2InSb5
_chemical_formula_sum   'Zr10 Al2 In1 Sb5'
_cell_volume   383.67920833
_cell_formula_units_Z   1
loop_
 _symmetry_equiv_pos_site_id
 _symmetry_equiv_pos_as_xyz
  1  'x, y, z'
loop_
 _atom_site_type_symbol
 _atom_site_label
 _atom_site_symmetry_multiplicity
 _atom_site_fract_x
 _atom_site_fract_y
 _atom_site_fract_z
 _atom_site_occupancy
  Zr  Zr0  1  0.72888129  0.72888129  0.75000000  1
  Zr  Zr1  1  0.27238016  0.99731512  0.75000000  1
  Zr  Zr2  1  0.99731512  0.27238016  0.75000000  1
  Zr  Zr3  1  0.26793344  0.26793344  0.25000000  1
  Zr  Zr4  1  0.73238982  0.99981730  0.25000000  1
  Zr  Zr5  1  0.99981730  0.73238982  0.25000000  1
  Zr  Zr6  1  0.66848064  0.33296366  0.99895253  1
  Zr  Zr7  1  0.33296366  0.66848064  0.99895253  1
  Zr  Zr8  1  0.33296366  0.66848064  0.50104747  1
  Zr  Zr9  1  0.66848064  0.33296366  0.50104747  1
  Al  Al0  1  0.00249694  0.00249694  0.99467152  1
  Al  Al1  1  0.00249694  0.00249694  0.50532848  1
  In  In0  1  0.38160281  0.38160281  0.75000000  1
  Sb  Sb0  1  0.61422101  0.00020623  0.75000000  1
  Sb  Sb1  1  0.00020623  0.61422101  0.75000000  1
  Sb  Sb2  1  0.60761315  0.60761315  0.25000000  1
  Sb  Sb3  1  0.38854460  0.00121358  0.25000000  1
  Sb  Sb4  1  0.00121358  0.38854460  0.25000000  1
loop_
_geom_bond_atom_site_label_1
_geom_bond_atom_site_label_2
_geom_bond_distance
_geom_bond_site_symmetry_2
Zr6 Zr9 2.914270 1_555
Zr6 Zr9 2.938794 1_556
Zr7 Zr8 2.914270 1_555
Zr7 Zr8 2.938794 1_556
Al0 Zr3 2.746636 1_556
Al0 Zr2 2.772099 1_455
Al0 Zr1 2.772099 1_545
Al0 Zr0 2.773768 1_445
Al0 Zr5 2.777186 1_446
Al0 Zr4 2.777186 1_446
Al1 Zr3 2.746636 1_555
Al1 Zr2 2.772099 1_455
Al1 Zr1 2.772099 1_545
Al1 Zr0 2.773768 1_445
Al1 Zr5 2.777186 1_445
Al1 Zr4 2.777186 1_445
In0 Zr1 2.983752 1_545
In0 Zr2 2.983752 1_455
In0 Zr0 3.015016 1_555
In0 Zr3 3.088443 1_555
In0 Zr3 3.088443 1_556
In0 Zr7 3.100065 1_555
In0 Zr8 3.100065 1_555
In0 Zr6 3.100065 1_555
In0 Zr9 3.100065 1_555
Sb0 Zr1 2.964626 1_545
Sb0 Zr2 2.965197 1_555
Sb0 Zr0 2.992660 1_545
Sb0 Zr7 3.057595 1_545
Sb0 Zr8 3.057595 1_545
Sb0 Zr6 3.060618 1_555
Sb0 Zr9 3.060618 1_555
Sb0 Zr4 3.102791 1_546
Sb0 Zr4 3.102791 1_545
Sb1 Zr2 2.964626 1_455
Sb1 Zr1 2.965197 1_555
Sb1 Zr0 2.992660 1_455
Sb1 Zr6 3.057595 1_455
Sb1 Zr9 3.057595 1_455
Sb1 Zr7 3.060618 1_555
Sb1 Zr8 3.060618 1_555
Sb1 Zr5 3.102791 1_455
Sb1 Zr5 3.102791 1_456
Sb2 Zr3 2.949045 1_555
Sb2 Zr4 3.018854 1_555
Sb2 Zr5 3.018854 1_555
Sb2 Zr9 3.072128 1_555
Sb2 Zr6 3.072128 1_554
Sb2 Zr8 3.072128 1_555
Sb2 Zr7 3.072128 1_554
Sb2 Zr0 3.110151 1_555
Sb2 Zr0 3.110151 1_554
Sb3 Zr3 2.992511 1_555
Sb3 Zr5 2.994509 1_445
Sb3 Zr4 3.000810 1_545
Sb3 Zr9 3.059852 1_555
Sb3 Zr6 3.059852 1_554
Sb3 Zr8 3.062611 1_545
Sb3 Zr7 3.062611 1_544
Sb3 Zr1 3.091075 1_544
Sb3 Zr1 3.091075 1_545
Sb4 Zr3 2.992511 1_555
Sb4 Zr4 2.994509 1_445
Sb4 Zr5 3.000810 1_455
Sb4 Zr8 3.059852 1_555
Sb4 Zr7 3.059852 1_554
Sb4 Zr9 3.062611 1_455
Sb4 Zr6 3.062611 1_454
Sb4 Zr2 3.091075 1_455
Sb4 Zr2 3.091075 1_454
