# generated using pymatgen
data_Zr2Ga4PdRh
_symmetry_space_group_name_H-M   'P 1'
_cell_length_a   5.35054468
_cell_length_b   5.35054469
_cell_length_c   6.36737533
_cell_angle_alpha   90.00000000
_cell_angle_beta   90.00000000
_cell_angle_gamma   133.42493580
_symmetry_Int_Tables_number   1
_chemical_formula_structural   Zr2Ga4PdRh
_chemical_formula_sum   'Zr2 Ga4 Pd1 Rh1'
_cell_volume   132.39082226
_cell_formula_units_Z   1
loop_
 _symmetry_equiv_pos_site_id
 _symmetry_equiv_pos_as_xyz
  1  'x, y, z'
loop_
 _atom_site_type_symbol
 _atom_site_label
 _atom_site_symmetry_multiplicity
 _atom_site_fract_x
 _atom_site_fract_y
 _atom_site_fract_z
 _atom_site_occupancy
  Zr  Zr0  1  0.41891729  0.58108271  0.25000000  1
  Zr  Zr1  1  0.58051058  0.41948942  0.75000000  1
  Ga  Ga0  1  0.12644954  0.87355046  0.04726894  1
  Ga  Ga1  1  0.12644954  0.87355046  0.45273106  1
  Ga  Ga2  1  0.87305681  0.12694319  0.54943993  1
  Ga  Ga3  1  0.87305681  0.12694319  0.95056007  1
  Pd  Pd0  1  0.70492187  0.29507913  0.25000000  1
  Rh  Rh0  1  0.29663755  0.70336345  0.75000000  1
loop_
_geom_bond_atom_site_label_1
_geom_bond_atom_site_label_2
_geom_bond_distance
_geom_bond_site_symmetry_2
Ga0 Rh0 2.526087 1_554
Ga0 Ga3 2.565665 1_464
Ga0 Ga1 2.581730 1_555
Ga0 Pd0 2.595345 1_455
Ga0 Pd0 2.595349 1_565
Ga0 Zr1 2.874235 1_454
Ga0 Zr1 2.874235 1_564
Ga0 Zr0 3.151275 1_555
Ga0 Zr0 3.209683 1_455
Ga0 Zr0 3.209683 1_565
Ga1 Rh0 2.526087 1_555
Ga1 Ga2 2.565665 1_465
Ga1 Pd0 2.595345 1_455
Ga1 Pd0 2.595349 1_565
Ga1 Zr1 2.874235 1_455
Ga1 Zr1 2.874235 1_565
Ga1 Zr0 3.151275 1_555
Ga1 Zr0 3.209683 1_455
Ga1 Zr0 3.209683 1_565
Ga2 Pd0 2.523205 1_555
Ga2 Ga3 2.554083 1_555
Ga2 Rh0 2.582559 1_545
Ga2 Rh0 2.582562 1_655
Ga2 Zr0 2.883237 1_655
Ga2 Zr0 2.883237 1_545
Ga2 Zr1 3.146343 1_555
Ga2 Zr1 3.203657 1_655
Ga2 Zr1 3.203657 1_545
Ga3 Pd0 2.523205 1_556
Ga3 Rh0 2.582559 1_545
Ga3 Rh0 2.582562 1_655
Ga3 Zr0 2.883237 1_656
Ga3 Zr0 2.883237 1_546
Ga3 Zr1 3.146343 1_555
Ga3 Zr1 3.203657 1_655
Ga3 Zr1 3.203657 1_545
Pd0 Zr0 2.811219 1_555
Pd0 Zr0 2.983113 1_655
Pd0 Zr0 2.983116 1_545
Rh0 Zr1 2.790277 1_555
Rh0 Zr1 2.997916 1_565
Rh0 Zr1 2.997919 1_455
