# generated using pymatgen
data_Ta4TiNb5Si6
_symmetry_space_group_name_H-M   'P 1'
_cell_length_a   7.53855939
_cell_length_b   7.53533178
_cell_length_c   7.53647302
_cell_angle_alpha   128.54641470
_cell_angle_beta   128.55703116
_cell_angle_gamma   75.72850984
_symmetry_Int_Tables_number   1
_chemical_formula_structural   Ta4TiNb5Si6
_chemical_formula_sum   'Ta4 Ti1 Nb5 Si6'
_cell_volume   254.68876349
_cell_formula_units_Z   1
loop_
 _symmetry_equiv_pos_site_id
 _symmetry_equiv_pos_as_xyz
  1  'x, y, z'
loop_
 _atom_site_type_symbol
 _atom_site_label
 _atom_site_symmetry_multiplicity
 _atom_site_fract_x
 _atom_site_fract_y
 _atom_site_fract_z
 _atom_site_occupancy
  Ta  Ta0  1  0.31526511  0.48319215  0.50064725  1
  Ta  Ta1  1  0.48321824  0.98290697  0.16829317  1
  Ta  Ta2  1  0.81426288  0.31541466  0.83203222  1
  Ta  Ta3  1  0.50063680  0.50044246  0.99972950  1
  Ti  Ti0  1  0.00048108  0.00026305  0.00005593  1
  Nb  Nb0  1  0.01772283  0.18489378  0.50055445  1
  Nb  Nb1  1  0.68462770  0.51738865  0.49944587  1
  Nb  Nb2  1  0.51806179  0.01819561  0.83348225  1
  Nb  Nb3  1  0.18508868  0.68418031  0.16620762  1
  Nb  Nb4  1  0.98170926  0.81433537  0.49981431  1
  Si  Si0  1  0.74908743  0.74913819  0.99926789  1
  Si  Si1  1  0.24904109  0.24906008  0.00079929  1
  Si  Si2  1  0.36741138  0.12699094  0.49385916  1
  Si  Si3  1  0.63233826  0.87394184  0.50592114  1
  Si  Si4  1  0.87370564  0.36716047  0.24057128  1
  Si  Si5  1  0.12734083  0.63249447  0.75931769  1
loop_
_geom_bond_atom_site_label_1
_geom_bond_atom_site_label_2
_geom_bond_distance
_geom_bond_site_symmetry_2
Nb0 Si2 2.591040 1_555
Nb0 Si4 2.621263 1_455
Nb0 Si5 2.651337 1_555
Nb0 Si0 2.726977 1_444
Nb0 Si1 2.727010 1_556
Nb1 Si3 2.591290 1_555
Nb1 Si5 2.624569 1_655
Nb1 Si4 2.652950 1_555
Nb1 Si0 2.722763 1_555
Nb1 Si1 2.722866 1_555
Nb2 Si4 2.585124 1_556
Nb2 Si3 2.619742 1_545
Nb2 Si2 2.654373 1_555
Nb2 Si0 2.721827 1_545
Nb2 Si1 2.728340 1_556
Nb3 Si5 2.583736 1_554
Nb3 Si2 2.623329 1_565
Nb3 Si3 2.649707 1_555
Nb3 Si1 2.722616 1_555
Nb3 Si0 2.728556 1_454
Nb4 Si3 2.585077 1_555
Nb4 Si5 2.613301 1_655
Nb4 Si4 2.645583 1_555
Nb4 Si1 2.720807 1_666
Nb4 Si0 2.723175 1_554
Si0 Ta2 2.712545 1_555
Si0 Ta0 2.712666 1_555
Si0 Ta1 2.718126 1_556
Si0 Ta3 2.960853 1_555
Si0 Ti0 2.985386 1_666
Si1 Ta0 2.712862 1_555
Si1 Ta1 2.713632 1_545
Si1 Ta2 2.719972 1_454
Si1 Ti0 2.954939 1_555
Si1 Ta3 2.999175 1_554
Si2 Si3 2.396871 1_545
Si2 Ti0 2.540420 1_555
Si2 Ta0 2.587514 1_555
Si2 Ta3 2.590744 1_555
Si2 Ta1 2.616115 1_545
Si2 Ta2 2.646669 1_555
Si3 Ti0 2.545084 1_666
Si3 Ta3 2.595216 1_554
Si3 Ta2 2.616434 1_565
Si3 Ta1 2.644903 1_555
Si4 Si5 2.400483 1_655
Si4 Ti0 2.540412 1_655
Si4 Ta2 2.588960 1_554
Si4 Ta3 2.593959 1_554
Si4 Ta0 2.617717 1_655
Si5 Ti0 2.544835 1_566
Si5 Ta3 2.588917 1_555
Si5 Ta1 2.590593 1_556
Si5 Ta0 2.645119 1_555
