# generated using pymatgen
data_Ba3LuTiIrO9
_symmetry_space_group_name_H-M   'P 1'
_cell_length_a   5.87536206
_cell_length_b   5.87536161
_cell_length_c   14.52457868
_cell_angle_alpha   90.00000000
_cell_angle_beta   90.00000000
_cell_angle_gamma   120.00000251
_symmetry_Int_Tables_number   1
_chemical_formula_structural   Ba3LuTiIrO9
_chemical_formula_sum   'Ba6 Lu2 Ti2 Ir2 O18'
_cell_volume   434.21357817
_cell_formula_units_Z   2
loop_
 _symmetry_equiv_pos_site_id
 _symmetry_equiv_pos_as_xyz
  1  'x, y, z'
loop_
 _atom_site_type_symbol
 _atom_site_label
 _atom_site_symmetry_multiplicity
 _atom_site_fract_x
 _atom_site_fract_y
 _atom_site_fract_z
 _atom_site_occupancy
  Ba  Ba0  1  0.33333300  0.66666700  0.59380442  1
  Ba  Ba1  1  0.66666700  0.33333300  0.39857892  1
  Ba  Ba2  1  0.66666700  0.33333300  0.09380442  1
  Ba  Ba3  1  0.33333300  0.66666700  0.89857892  1
  Ba  Ba4  1  0.00000000  0.00000000  0.24909653  1
  Ba  Ba5  1  0.00000000  0.00000000  0.74909653  1
  Lu  Lu0  1  0.00000000  0.00000000  0.49967932  1
  Lu  Lu1  1  0.00000000  0.00000000  0.99967932  1
  Ti  Ti0  1  0.66666700  0.33333300  0.64904594  1
  Ti  Ti1  1  0.33333300  0.66666700  0.14904594  1
  Ir  Ir0  1  0.33333300  0.66666700  0.33946684  1
  Ir  Ir1  1  0.66666700  0.33333300  0.83946684  1
  O  O0  1  0.17244533  0.82755467  0.08847907  1
  O  O1  1  0.17244533  0.34488965  0.08847907  1
  O  O2  1  0.65511035  0.82755467  0.08847907  1
  O  O3  1  0.82624765  0.17375235  0.91621871  1
  O  O4  1  0.82624765  0.65249630  0.91621871  1
  O  O5  1  0.34750370  0.17375235  0.91621871  1
  O  O6  1  0.82755467  0.17244533  0.58847907  1
  O  O7  1  0.82755467  0.65511035  0.58847907  1
  O  O8  1  0.34488965  0.17244533  0.58847907  1
  O  O9  1  0.17375235  0.82624765  0.41621871  1
  O  O10  1  0.17375235  0.34750370  0.41621871  1
  O  O11  1  0.65249630  0.82624765  0.41621871  1
  O  O12  1  0.48386068  0.51613932  0.25207923  1
  O  O13  1  0.48386068  0.96772136  0.25207923  1
  O  O14  1  0.03227864  0.51613932  0.25207923  1
  O  O15  1  0.51613932  0.48386068  0.75207923  1
  O  O16  1  0.51613932  0.03227864  0.75207923  1
  O  O17  1  0.96772136  0.48386068  0.75207923  1
loop_
_geom_bond_atom_site_label_1
_geom_bond_atom_site_label_2
_geom_bond_distance
_geom_bond_site_symmetry_2
Ba0 O6 2.939287 1_565
Ba0 O8 2.939287 1_565
Ba0 O8 2.939287 1_555
Ba0 O6 2.939287 1_455
Ba0 O7 2.939287 1_555
Ba0 O7 2.939287 1_455
Ba0 O16 2.957292 1_565
Ba0 O17 2.957292 1_455
Ba0 O15 2.957296 1_555
Ba0 O9 3.048005 1_555
Ba0 O10 3.048010 1_555
Ba0 O11 3.048010 1_555
Ba1 O13 2.826390 1_545
Ba1 O14 2.826390 1_655
Ba1 O12 2.826394 1_555
Ba1 O9 2.949714 1_545
Ba1 O11 2.949714 1_545
Ba1 O11 2.949714 1_555
Ba1 O9 2.949714 1_655
Ba1 O10 2.949714 1_555
Ba1 O10 2.949714 1_655
Ba1 O6 3.207554 1_555
Ba1 O7 3.207559 1_555
Ba1 O8 3.207559 1_555
Ba2 O0 2.939287 1_545
Ba2 O2 2.939287 1_545
Ba2 O2 2.939287 1_555
Ba2 O0 2.939287 1_655
Ba2 O1 2.939287 1_555
Ba2 O1 2.939287 1_655
Ba2 O13 2.957292 1_545
Ba2 O14 2.957292 1_655
Ba2 O12 2.957296 1_555
Ba2 O3 3.048005 1_554
Ba2 O4 3.048010 1_554
Ba2 O5 3.048010 1_554
Ba3 O16 2.826390 1_565
Ba3 O17 2.826390 1_455
Ba3 O15 2.826394 1_555
Ba3 O3 2.949714 1_565
Ba3 O5 2.949714 1_565
Ba3 O5 2.949714 1_555
Ba3 O3 2.949714 1_455
Ba3 O4 2.949714 1_555
Ba3 O4 2.949714 1_455
Ba3 O0 3.207554 1_556
Ba3 O1 3.207559 1_556
Ba3 O2 3.207559 1_556
Ba4 O1 2.919247 1_555
Ba4 O2 2.919247 1_445
Ba4 O0 2.919250 1_545
Ba4 O12 2.942587 1_555
Ba4 O14 2.942587 1_555
Ba4 O14 2.942587 1_545
Ba4 O12 2.942587 1_445
Ba4 O13 2.942588 1_445
Ba4 O13 2.942588 1_545
Ba4 O10 3.003099 1_555
Ba4 O11 3.003099 1_445
Ba4 O9 3.003102 1_545
Ba5 O7 2.919247 1_445
Ba5 O8 2.919247 1_555
Ba5 O6 2.919250 1_455
Ba5 O15 2.942587 1_445
Ba5 O17 2.942587 1_445
Ba5 O17 2.942587 1_455
Ba5 O15 2.942587 1_555
Ba5 O16 2.942588 1_555
Ba5 O16 2.942588 1_455
Ba5 O4 3.003099 1_445
Ba5 O5 3.003099 1_555
Ba5 O3 3.003102 1_455
Lu0 O10 2.143814 1_555
Lu0 O11 2.143814 1_445
Lu0 O9 2.143818 1_545
Lu0 O7 2.177867 1_445
Lu0 O8 2.177867 1_555
Lu0 O6 2.177871 1_455
Lu1 O4 2.143814 1_445
Lu1 O5 2.143814 1_555
Lu1 O3 2.143818 1_455
Lu1 O1 2.177867 1_556
Lu1 O2 2.177867 1_446
Lu1 O0 2.177871 1_546
Ir0 O9 1.969772 1_555
Ir0 O10 1.969780 1_555
Ir0 O11 1.969780 1_555
Ir0 O13 1.989357 1_555
Ir0 O14 1.989357 1_555
Ir0 O12 1.989361 1_555
Ir1 O3 1.969772 1_555
Ir1 O4 1.969780 1_555
Ir1 O5 1.969780 1_555
Ir1 O16 1.989357 1_555
Ir1 O17 1.989357 1_555
Ir1 O15 1.989361 1_555
O0 Ti1 1.858632 1_555
O1 Ti1 1.858640 1_555
O2 Ti1 1.858641 1_555
O6 Ti0 1.858632 1_555
O7 Ti0 1.858640 1_555
O8 Ti0 1.858641 1_555
O12 Ti1 2.141512 1_555
O13 Ti1 2.141508 1_555
O14 Ti1 2.141508 1_555
O15 Ti0 2.141512 1_555
O16 Ti0 2.141508 1_555
O17 Ti0 2.141508 1_555
