# generated using pymatgen
data_Li5GaO4
_symmetry_space_group_name_H-M   'P 1'
_cell_length_a   6.43139300
_cell_length_b   6.43139300
_cell_length_c   4.74388100
_cell_angle_alpha   90.00000000
_cell_angle_beta   90.00000000
_cell_angle_gamma   90.00000000
_symmetry_Int_Tables_number   1
_chemical_formula_structural   Li5GaO4
_chemical_formula_sum   'Li10 Ga2 O8'
_cell_volume   196.22027655
_cell_formula_units_Z   2
loop_
 _symmetry_equiv_pos_site_id
 _symmetry_equiv_pos_as_xyz
  1  'x, y, z'
loop_
 _atom_site_type_symbol
 _atom_site_label
 _atom_site_symmetry_multiplicity
 _atom_site_fract_x
 _atom_site_fract_y
 _atom_site_fract_z
 _atom_site_occupancy
  Li  Li0  1  0.00000000  0.50000000  0.97643700  1
  Li  Li1  1  0.50000000  0.00000000  0.02356300  1
  Li  Li2  1  0.50000000  0.50000000  0.00000000  1
  Li  Li3  1  0.73617300  0.26382700  0.00000000  1
  Li  Li4  1  0.26382700  0.73617300  0.00000000  1
  Li  Li5  1  0.23617300  0.23617300  0.50000000  1
  Li  Li6  1  0.50000000  0.00000000  0.52356300  1
  Li  Li7  1  0.00000000  0.00000000  0.50000000  1
  Li  Li8  1  0.76382700  0.76382700  0.50000000  1
  Li  Li9  1  0.00000000  0.50000000  0.47643700  1
  Ga  Ga0  1  0.00000000  0.00000000  0.00000000  1
  Ga  Ga1  1  0.50000000  0.50000000  0.50000000  1
  O  O0  1  0.76070100  0.00491100  0.76868600  1
  O  O1  1  0.73929900  0.50491100  0.73131400  1
  O  O2  1  0.23929900  0.99508900  0.76868600  1
  O  O3  1  0.26070100  0.49508900  0.73131400  1
  O  O4  1  0.49508900  0.26070100  0.26868600  1
  O  O5  1  0.50491100  0.73929900  0.26868600  1
  O  O6  1  0.99508900  0.23929900  0.23131400  1
  O  O7  1  0.00491100  0.76070100  0.23131400  1
loop_
_geom_bond_atom_site_label_1
_geom_bond_atom_site_label_2
_geom_bond_distance
_geom_bond_site_symmetry_2
Li0 O3 2.040688 1_555
Li0 O1 2.040688 1_455
Li0 O7 2.067404 1_556
Li0 O6 2.067404 1_456
Li1 O4 2.040688 1_555
Li1 O5 2.040688 1_545
Li1 O0 2.067404 1_554
Li1 O2 2.067404 1_544
Li2 O5 1.998560 1_555
Li2 O1 1.998560 1_554
Li2 O4 1.998560 1_555
Li2 O3 1.998560 1_554
Li3 O0 2.000467 1_554
Li3 O6 2.000467 1_555
Li3 O1 2.007266 1_554
Li3 O4 2.007266 1_555
Li4 O7 2.000467 1_555
Li4 O2 2.000467 1_554
Li4 O5 2.007266 1_555
Li4 O3 2.007266 1_554
Li5 O4 2.000467 1_555
Li5 O3 2.000467 1_555
Li5 O6 2.007266 1_455
Li5 O2 2.007266 1_545
Li6 O0 2.040688 1_555
Li6 O2 2.040688 1_545
Li6 O4 2.067404 1_555
Li6 O5 2.067404 1_545
Li7 O2 1.998560 1_545
Li7 O6 1.998560 1_455
Li7 O0 1.998560 1_455
Li7 O7 1.998560 1_545
Li8 O1 2.000467 1_555
Li8 O5 2.000467 1_555
Li8 O7 2.007266 1_655
Li8 O0 2.007266 1_565
Li9 O7 2.040688 1_555
Li9 O6 2.040688 1_455
Li9 O3 2.067404 1_555
Li9 O1 2.067404 1_455
Ga0 O6 1.890429 1_455
Ga0 O2 1.890429 1_544
Ga0 O7 1.890429 1_545
Ga0 O0 1.890429 1_454
Ga1 O5 1.890429 1_555
Ga1 O1 1.890429 1_555
Ga1 O4 1.890429 1_555
Ga1 O3 1.890429 1_555
