# generated using pymatgen
data_Ca4Zn(Si2Pt)5
_symmetry_space_group_name_H-M   'P 1'
_cell_length_a   8.24338532
_cell_length_b   8.24338522
_cell_length_c   8.24338534
_cell_angle_alpha   138.26039738
_cell_angle_beta   104.17358463
_cell_angle_gamma   90.51346120
_symmetry_Int_Tables_number   1
_chemical_formula_structural   Ca4Zn(Si2Pt)5
_chemical_formula_sum   'Ca4 Zn1 Si10 Pt5'
_cell_volume   345.26705856
_cell_formula_units_Z   1
loop_
 _symmetry_equiv_pos_site_id
 _symmetry_equiv_pos_as_xyz
  1  'x, y, z'
loop_
 _atom_site_type_symbol
 _atom_site_label
 _atom_site_symmetry_multiplicity
 _atom_site_fract_x
 _atom_site_fract_y
 _atom_site_fract_z
 _atom_site_occupancy
  Ca  Ca0  1  0.63751169  0.37502285  0.26428887  1
  Ca  Ca1  1  0.36248831  0.62677618  0.73751016  1
  Ca  Ca2  1  0.11073398  0.87322382  0.23571113  1
  Ca  Ca3  1  0.88926602  0.12497715  0.76248984  1
  Zn  Zn0  1  0.50000000  0.25000000  0.75000000  1
  Si  Si0  1  0.46817810  0.11843117  0.35203166  1
  Si  Si1  1  0.53182190  0.88385257  0.65025208  1
  Si  Si2  1  0.76639951  0.61614743  0.14796834  1
  Si  Si3  1  0.23360049  0.38156883  0.84974792  1
  Si  Si4  1  0.27102982  0.52102982  0.25000000  1
  Si  Si5  1  0.73584397  0.48584397  0.75000000  1
  Si  Si6  1  0.72897018  0.97897018  0.25000000  1
  Si  Si7  1  0.26415603  0.01415603  0.75000000  1
  Si  Si8  1  0.00000000  0.25000000  0.25000000  1
  Si  Si9  1  0.00000000  0.75000000  0.75000000  1
  Pt  Pt0  1  0.50000000  0.75000000  0.25000000  1
  Pt  Pt1  1  0.25163102  0.13850794  0.11924726  1
  Pt  Pt2  1  0.74836898  0.86761624  0.88687692  1
  Pt  Pt3  1  0.01926168  0.63238376  0.38075274  1
  Pt  Pt4  1  0.98073832  0.36149206  0.61312308  1
loop_
_geom_bond_atom_site_label_1
_geom_bond_atom_site_label_2
_geom_bond_distance
_geom_bond_site_symmetry_2
Ca0 Si2 3.050341 1_555
Ca0 Si0 3.109717 1_555
Ca0 Pt1 3.145917 1_555
Ca0 Si1 3.156884 1_544
Ca0 Si1 3.159520 1_555
Ca0 Si9 3.165487 1_655
Ca0 Pt2 3.170221 1_544
Ca0 Si8 3.170388 1_655
Ca0 Pt2 3.193660 1_555
Ca0 Si5 3.234432 1_555
Ca0 Pt3 3.269070 1_655
Ca0 Si4 3.269822 1_555
Ca0 Si6 3.279482 1_545
Ca0 Si7 3.304547 1_554
Ca0 Pt0 3.375558 1_555
Ca0 Zn0 3.380153 1_554
Ca1 Si3 3.050341 1_555
Ca1 Si1 3.109717 1_555
Ca1 Pt2 3.145917 1_555
Ca1 Si0 3.156873 1_555
Ca1 Si0 3.159531 1_566
Ca1 Si9 3.165490 1_555
Ca1 Pt1 3.170215 1_555
Ca1 Si8 3.170385 1_555
Ca1 Pt1 3.193666 1_566
Ca1 Si7 3.234434 1_565
Ca1 Pt4 3.269070 1_455
Ca1 Si6 3.269824 1_556
Ca1 Si4 3.279480 1_555
Ca1 Si5 3.304545 1_555
Ca1 Pt0 3.375560 1_556
Ca1 Zn0 3.380151 1_555
Ca2 Si0 3.050330 1_565
Ca2 Si2 3.109717 1_455
Ca2 Pt3 3.145922 1_555
Ca2 Si3 3.156882 1_565
Ca2 Si3 3.159529 1_554
Ca2 Si9 3.165482 1_554
Ca2 Pt4 3.170221 1_465
Ca2 Si8 3.170380 1_565
Ca2 Pt4 3.193661 1_454
Ca2 Si5 3.234432 1_454
Ca2 Pt1 3.269055 1_565
Ca2 Si4 3.269829 1_555
Ca2 Si6 3.279480 1_455
Ca2 Si7 3.304553 1_565
Ca2 Pt0 3.375561 1_555
Ca2 Zn0 3.380153 1_565
Ca3 Si1 3.050330 1_545
Ca3 Si3 3.109717 1_655
Ca3 Pt4 3.145922 1_555
Ca3 Si2 3.156882 1_556
Ca3 Si2 3.159529 1_545
Ca3 Si9 3.165482 1_645
Ca3 Pt3 3.170216 1_656
Ca3 Si8 3.170380 1_656
Ca3 Pt3 3.193666 1_645
Ca3 Si7 3.234432 1_655
Ca3 Pt2 3.269055 1_545
Ca3 Si6 3.269829 1_545
Ca3 Si4 3.279480 1_656
Ca3 Si5 3.304553 1_555
Ca3 Pt0 3.375560 1_545
Ca3 Zn0 3.380154 1_555
Si0 Si6 2.477406 1_545
Si0 Zn0 2.504209 1_555
Si0 Si5 2.512228 1_555
Si1 Si4 2.477402 1_555
Si1 Zn0 2.504212 1_565
Si1 Si7 2.512231 1_565
Si2 Si6 2.477398 1_555
Si2 Zn0 2.504211 1_554
Si2 Si5 2.512223 1_554
Si3 Si4 2.477398 1_556
Si3 Zn0 2.504211 1_555
Si3 Si7 2.512223 1_555
Si5 Zn0 2.737100 1_555
Si7 Zn0 2.737100 1_555
Pt0 Si1 2.512061 1_555
Pt0 Si3 2.512063 1_554
Pt0 Si2 2.512063 1_555
Pt0 Si0 2.512065 1_565
Pt0 Si6 2.657326 1_555
Pt0 Si4 2.657326 1_555
Pt0 Zn0 2.936669 1_565
Pt0 Zn0 2.936669 1_554
Pt1 Si0 2.387034 1_555
Pt1 Si7 2.413675 1_554
Pt1 Si8 2.441279 1_555
Pt1 Si4 2.442312 1_555
Pt1 Si9 2.462818 1_544
Pt2 Si1 2.387034 1_555
Pt2 Si5 2.413675 1_555
Pt2 Si8 2.441279 1_666
Pt2 Si6 2.442312 1_556
Pt2 Si9 2.462818 1_655
Pt3 Si2 2.387044 1_455
Pt3 Si7 2.413670 1_565
Pt3 Si8 2.441279 1_555
Pt3 Si4 2.442304 1_555
Pt3 Si9 2.462821 1_555
Pt4 Si3 2.387044 1_655
Pt4 Si5 2.413667 1_555
Pt4 Si8 2.441282 1_655
Pt4 Si6 2.442307 1_545
Pt4 Si9 2.462818 1_655
