# generated using pymatgen
data_Rb3NaMnBr6
_symmetry_space_group_name_H-M   'P 1'
_cell_length_a   9.04301215
_cell_length_b   9.04301146
_cell_length_c   9.04301178
_cell_angle_alpha   92.97202412
_cell_angle_beta   92.97202702
_cell_angle_gamma   92.97202328
_symmetry_Int_Tables_number   1
_chemical_formula_structural   Rb3NaMnBr6
_chemical_formula_sum   'Rb6 Na2 Mn2 Br12'
_cell_volume   736.41041058
_cell_formula_units_Z   2
loop_
 _symmetry_equiv_pos_site_id
 _symmetry_equiv_pos_as_xyz
  1  'x, y, z'
loop_
 _atom_site_type_symbol
 _atom_site_label
 _atom_site_symmetry_multiplicity
 _atom_site_fract_x
 _atom_site_fract_y
 _atom_site_fract_z
 _atom_site_occupancy
  Rb  Rb0  1  0.12816822  0.37183178  0.75000000  1
  Rb  Rb1  1  0.75000000  0.12816822  0.37183178  1
  Rb  Rb2  1  0.37183178  0.75000000  0.12816822  1
  Rb  Rb3  1  0.25000000  0.87183178  0.62816822  1
  Rb  Rb4  1  0.62816822  0.25000000  0.87183178  1
  Rb  Rb5  1  0.87183178  0.62816822  0.25000000  1
  Na  Na0  1  0.25000000  0.25000000  0.25000000  1
  Na  Na1  1  0.75000000  0.75000000  0.75000000  1
  Mn  Mn0  1  0.50000000  0.50000000  0.50000000  1
  Mn  Mn1  1  0.00000000  0.00000000  0.00000000  1
  Br  Br0  1  0.21287618  0.54076108  0.41696639  1
  Br  Br1  1  0.41696639  0.21287618  0.54076108  1
  Br  Br2  1  0.54076108  0.41696639  0.21287618  1
  Br  Br3  1  0.91696639  0.04076108  0.71287618  1
  Br  Br4  1  0.71287618  0.91696639  0.04076108  1
  Br  Br5  1  0.04076108  0.71287618  0.91696639  1
  Br  Br6  1  0.78712382  0.45923892  0.58303361  1
  Br  Br7  1  0.58303361  0.78712382  0.45923892  1
  Br  Br8  1  0.45923892  0.58303361  0.78712382  1
  Br  Br9  1  0.08303361  0.95923892  0.28712382  1
  Br  Br10  1  0.28712382  0.08303361  0.95923892  1
  Br  Br11  1  0.95923892  0.28712382  0.08303361  1
loop_
_geom_bond_atom_site_label_1
_geom_bond_atom_site_label_2
_geom_bond_distance
_geom_bond_site_symmetry_2
Br0 Mn0 2.714237 1_555
Br0 Na0 3.006388 1_555
Br0 Rb3 3.458333 1_555
Br0 Rb5 3.508511 1_455
Br0 Rb0 3.547574 1_555
Br0 Rb2 3.617541 1_555
Br1 Mn0 2.714237 1_555
Br1 Na0 3.006388 1_555
Br1 Rb4 3.458333 1_555
Br1 Rb3 3.508511 1_545
Br1 Rb1 3.547574 1_555
Br1 Rb0 3.617541 1_555
Br2 Mn0 2.714237 1_555
Br2 Na0 3.006388 1_555
Br2 Rb5 3.458333 1_555
Br2 Rb4 3.508511 1_554
Br2 Rb2 3.547574 1_555
Br2 Rb1 3.617541 1_555
Br3 Mn1 2.714237 1_656
Br3 Na1 3.006388 1_545
Br3 Rb0 3.458333 1_655
Br3 Rb1 3.508511 1_555
Br3 Rb3 3.547574 1_645
Br3 Rb4 3.617541 1_555
Br4 Mn1 2.714237 1_665
Br4 Na1 3.006388 1_554
Br4 Rb1 3.458333 1_565
Br4 Rb2 3.508511 1_555
Br4 Rb4 3.547574 1_564
Br4 Rb5 3.617541 1_555
Br5 Mn1 2.714237 1_566
Br5 Na1 3.006388 1_455
Br5 Rb2 3.458333 1_556
Br5 Rb0 3.508511 1_555
Br5 Rb5 3.547574 1_456
Br5 Rb3 3.617541 1_555
Br6 Mn0 2.714237 1_555
Br6 Na1 3.006388 1_555
Br6 Rb1 3.458333 1_555
Br6 Rb0 3.508511 1_655
Br6 Rb5 3.547574 1_555
Br6 Rb4 3.617541 1_555
Br7 Mn0 2.714237 1_555
Br7 Na1 3.006388 1_555
Br7 Rb2 3.458333 1_555
Br7 Rb1 3.508511 1_565
Br7 Rb3 3.547574 1_555
Br7 Rb5 3.617541 1_555
Br8 Mn0 2.714237 1_555
Br8 Na1 3.006388 1_555
Br8 Rb0 3.458333 1_555
Br8 Rb2 3.508511 1_556
Br8 Rb4 3.547574 1_555
Br8 Rb3 3.617541 1_555
Br9 Mn1 2.714237 1_565
Br9 Na0 3.006388 1_565
Br9 Rb5 3.458333 1_455
Br9 Rb3 3.508511 1_555
Br9 Rb1 3.547574 1_465
Br9 Rb2 3.617541 1_555
Br10 Mn1 2.714237 1_556
Br10 Na0 3.006388 1_556
Br10 Rb3 3.458333 1_545
Br10 Rb4 3.508511 1_555
Br10 Rb2 3.547574 1_546
Br10 Rb0 3.617541 1_555
Br11 Mn1 2.714237 1_655
Br11 Na0 3.006388 1_655
Br11 Rb4 3.458333 1_554
Br11 Rb5 3.508511 1_555
Br11 Rb0 3.547574 1_654
Br11 Rb1 3.617541 1_555
