# generated using pymatgen
data_CsLuCr2O8
_symmetry_space_group_name_H-M   'P 1'
_cell_length_a   5.68744511
_cell_length_b   5.68744586
_cell_length_c   8.17125006
_cell_angle_alpha   90.00000000
_cell_angle_beta   90.00000000
_cell_angle_gamma   120.00000123
_symmetry_Int_Tables_number   1
_chemical_formula_structural   CsLuCr2O8
_chemical_formula_sum   'Cs1 Lu1 Cr2 O8'
_cell_volume   228.90412603
_cell_formula_units_Z   1
loop_
 _symmetry_equiv_pos_site_id
 _symmetry_equiv_pos_as_xyz
  1  'x, y, z'
loop_
 _atom_site_type_symbol
 _atom_site_label
 _atom_site_symmetry_multiplicity
 _atom_site_fract_x
 _atom_site_fract_y
 _atom_site_fract_z
 _atom_site_occupancy
  Cs  Cs0  1  0.00000000  0.00000000  0.49999900  1
  Lu  Lu0  1  0.00000000  0.00000000  0.00000000  1
  Cr  Cr0  1  0.66666700  0.33333400  0.22705689  1
  Cr  Cr1  1  0.33333300  0.66666700  0.77294311  1
  O  O0  1  0.34855270  0.17427635  0.16132924  1
  O  O1  1  0.82572465  0.17427635  0.16132924  1
  O  O2  1  0.82572465  0.65144730  0.16132924  1
  O  O3  1  0.66666700  0.33333400  0.42379978  1
  O  O4  1  0.33333300  0.66666700  0.57620022  1
  O  O5  1  0.17427635  0.34855370  0.83867076  1
  O  O6  1  0.17427635  0.82572465  0.83867076  1
  O  O7  1  0.65144730  0.82572465  0.83867076  1
loop_
_geom_bond_atom_site_label_1
_geom_bond_atom_site_label_2
_geom_bond_distance
_geom_bond_site_symmetry_2
Cs0 O1 3.256623 1_455
Cs0 O0 3.256626 1_555
Cs0 O2 3.256626 1_445
Cs0 O6 3.256637 1_545
Cs0 O7 3.256640 1_445
Cs0 O5 3.256642 1_555
Cs0 O3 3.342156 1_445
Cs0 O4 3.342159 1_545
Cs0 O3 3.342161 1_555
Cs0 O3 3.342161 1_455
Cs0 O4 3.342164 1_445
Cs0 O4 3.342164 1_555
Lu0 O6 2.164521 1_544
Lu0 O1 2.164521 1_455
Lu0 O0 2.164525 1_555
Lu0 O7 2.164525 1_444
Lu0 O2 2.164525 1_445
Lu0 O5 2.164529 1_554
Cr0 O3 1.607635 1_555
Cr0 O2 1.656350 1_555
Cr0 O0 1.656355 1_555
Cr0 O1 1.656360 1_555
Cr1 O4 1.607635 1_555
Cr1 O5 1.656350 1_555
Cr1 O7 1.656355 1_555
Cr1 O6 1.656355 1_555
