# generated using pymatgen
data_CuSn2Pt4Rh
_symmetry_space_group_name_H-M   'P 1'
_cell_length_a   5.62192684
_cell_length_b   5.62192759
_cell_length_c   5.63145714
_cell_angle_alpha   59.94390603
_cell_angle_beta   59.94390160
_cell_angle_gamma   60.11217704
_symmetry_Int_Tables_number   1
_chemical_formula_structural   CuSn2Pt4Rh
_chemical_formula_sum   'Cu1 Sn2 Pt4 Rh1'
_cell_volume   125.85592693
_cell_formula_units_Z   1
loop_
 _symmetry_equiv_pos_site_id
 _symmetry_equiv_pos_as_xyz
  1  'x, y, z'
loop_
 _atom_site_type_symbol
 _atom_site_label
 _atom_site_symmetry_multiplicity
 _atom_site_fract_x
 _atom_site_fract_y
 _atom_site_fract_z
 _atom_site_occupancy
  Cu  Cu0  1  0.50000000  0.50000000  0.50000000  1
  Sn  Sn0  1  0.00000000  0.00000000  0.50000000  1
  Sn  Sn1  1  0.50000000  0.50000000  0.00000000  1
  Pt  Pt0  1  0.00000000  0.50000000  0.00000000  1
  Pt  Pt1  1  0.50000000  0.00000000  0.00000000  1
  Pt  Pt2  1  0.00000000  0.50000000  0.50000000  1
  Pt  Pt3  1  0.50000000  0.00000000  0.50000000  1
  Rh  Rh0  1  0.00000000  0.00000000  0.00000000  1
loop_
_geom_bond_atom_site_label_1
_geom_bond_atom_site_label_2
_geom_bond_distance
_geom_bond_site_symmetry_2
Cu0 Pt0 2.810963 1_655
Cu0 Pt0 2.810963 1_556
Cu0 Pt2 2.810963 1_555
Cu0 Pt2 2.810963 1_655
Cu0 Pt1 2.810964 1_556
Cu0 Pt1 2.810964 1_565
Cu0 Pt3 2.810964 1_555
Cu0 Pt3 2.810964 1_565
Cu0 Sn0 2.815728 1_565
Cu0 Sn0 2.815728 1_655
Cu0 Sn1 2.815729 1_555
Cu0 Sn1 2.815729 1_556
Pt0 Sn1 2.810963 1_455
Pt0 Sn1 2.810963 1_555
Pt0 Sn0 2.810964 1_555
Pt0 Sn0 2.810964 1_564
Pt0 Rh0 2.810964 1_555
Pt0 Rh0 2.810964 1_565
Pt0 Pt1 2.815728 1_465
Pt0 Pt1 2.815728 1_555
Pt0 Pt2 2.815729 1_554
Pt0 Pt2 2.815729 1_555
Pt1 Sn0 2.810963 1_555
Pt1 Sn0 2.810963 1_654
Pt1 Rh0 2.810963 1_555
Pt1 Rh0 2.810963 1_655
Pt1 Sn1 2.810964 1_555
Pt1 Sn1 2.810964 1_545
Pt1 Pt3 2.815729 1_555
Pt1 Pt3 2.815729 1_554
Pt2 Sn1 2.810963 1_456
Pt2 Sn1 2.810963 1_555
Pt2 Rh0 2.810964 1_556
Pt2 Rh0 2.810964 1_565
Pt2 Sn0 2.810964 1_565
Pt2 Sn0 2.810964 1_555
Pt2 Pt3 2.815728 1_555
Pt2 Pt3 2.815728 1_465
Pt3 Rh0 2.810963 1_556
Pt3 Rh0 2.810963 1_655
Pt3 Sn0 2.810963 1_555
Pt3 Sn0 2.810963 1_655
Pt3 Sn1 2.810964 1_555
Pt3 Sn1 2.810964 1_546
Rh0 Sn1 2.815728 1_545
Rh0 Sn1 2.815728 1_455
Rh0 Sn0 2.815729 1_555
Rh0 Sn0 2.815729 1_554
