# generated using pymatgen
data_NiP2O7
_symmetry_space_group_name_H-M   'P 1'
_cell_length_a   8.40245200
_cell_length_b   7.33396500
_cell_length_c   9.28721679
_cell_angle_alpha   64.72798219
_cell_angle_beta   90.00000000
_cell_angle_gamma   90.00000000
_symmetry_Int_Tables_number   1
_chemical_formula_structural   NiP2O7
_chemical_formula_sum   'Ni4 P8 O28'
_cell_volume   517.53382494
_cell_formula_units_Z   4
loop_
 _symmetry_equiv_pos_site_id
 _symmetry_equiv_pos_as_xyz
  1  'x, y, z'
loop_
 _atom_site_type_symbol
 _atom_site_label
 _atom_site_symmetry_multiplicity
 _atom_site_fract_x
 _atom_site_fract_y
 _atom_site_fract_z
 _atom_site_occupancy
  Ni  Ni0  1  0.58317500  0.76997600  0.10875600  1
  Ni  Ni1  1  0.08317500  0.23002400  0.39124400  1
  Ni  Ni2  1  0.41682500  0.23002400  0.89124400  1
  Ni  Ni3  1  0.91682500  0.76997600  0.60875600  1
  P  P0  1  0.78161200  0.06695500  0.25069500  1
  P  P1  1  0.76382100  0.45823400  0.96722800  1
  P  P2  1  0.71838800  0.06695500  0.75069500  1
  P  P3  1  0.23617900  0.54176600  0.03277200  1
  P  P4  1  0.28161200  0.93304500  0.24930500  1
  P  P5  1  0.73617900  0.45823400  0.46722700  1
  P  P6  1  0.26382100  0.54176600  0.53277200  1
  P  P7  1  0.21838800  0.93304500  0.74930500  1
  O  O0  1  0.61017100  0.53223300  0.33541400  1
  O  O1  1  0.24772600  0.09390300  0.30792000  1
  O  O2  1  0.84975400  0.26380700  0.10487800  1
  O  O3  1  0.38982900  0.46776700  0.66458600  1
  O  O4  1  0.74772600  0.90609700  0.19208000  1
  O  O5  1  0.76876400  0.60811000  0.53719800  1
  O  O6  1  0.39136900  0.60760000  0.08243100  1
  O  O7  1  0.11017100  0.46776700  0.16458600  1
  O  O8  1  0.34975400  0.73619300  0.39512200  1
  O  O9  1  0.37997300  0.89367900  0.68846900  1
  O  O10  1  0.23123600  0.39189000  0.46280200  1
  O  O11  1  0.41399800  0.98083700  0.12287000  1
  O  O12  1  0.10863100  0.60760000  0.58243100  1
  O  O13  1  0.62002700  0.10632100  0.31153100  1
  O  O14  1  0.15024600  0.73619300  0.89512200  1
  O  O15  1  0.60863100  0.39240000  0.91756900  1
  O  O16  1  0.26876400  0.39189000  0.96280200  1
  O  O17  1  0.58600200  0.01916300  0.87713000  1
  O  O18  1  0.91399800  0.01916300  0.37713000  1
  O  O19  1  0.89136900  0.39240000  0.41756900  1
  O  O20  1  0.75227400  0.90609700  0.69208000  1
  O  O21  1  0.88982900  0.53223300  0.83541400  1
  O  O22  1  0.08600200  0.98083700  0.62287000  1
  O  O23  1  0.25227400  0.09390300  0.80792000  1
  O  O24  1  0.65024600  0.26380700  0.60487800  1
  O  O25  1  0.87997300  0.10632100  0.81153100  1
  O  O26  1  0.73123600  0.60811000  0.03719800  1
  O  O27  1  0.12002700  0.89367900  0.18846900  1
loop_
_geom_bond_atom_site_label_1
_geom_bond_atom_site_label_2
_geom_bond_distance
_geom_bond_site_symmetry_2
Ni0 O26 2.017982 1_555
Ni0 O4 2.041261 1_555
Ni0 O6 2.079399 1_555
Ni0 O0 2.094964 1_555
Ni0 O11 2.145327 1_555
Ni0 O17 2.147380 1_564
Ni1 O10 2.017982 1_555
Ni1 O1 2.041261 1_555
Ni1 O19 2.079399 1_455
Ni1 O7 2.094964 1_555
Ni1 O18 2.145327 1_455
Ni1 O22 2.147380 1_545
Ni2 O16 2.017982 1_555
Ni2 O23 2.041261 1_555
Ni2 O15 2.079399 1_555
Ni2 O3 2.094964 1_555
Ni2 O17 2.145327 1_555
Ni2 O11 2.147380 1_546
Ni3 O5 2.017982 1_555
Ni3 O20 2.041261 1_555
Ni3 O12 2.079399 1_655
Ni3 O21 2.094964 1_555
Ni3 O22 2.145327 1_655
Ni3 O18 2.147380 1_565
O0 P5 1.531955 1_555
O1 P4 1.522334 1_545
O2 P0 1.605216 1_555
O2 P1 1.622480 1_554
O3 P6 1.531961 1_555
O4 P0 1.522334 1_565
O5 P5 1.521625 1_555
O6 P3 1.528496 1_555
O7 P3 1.531961 1_555
O8 P4 1.605216 1_555
O8 P6 1.622480 1_555
O9 P7 1.544418 1_555
O10 P6 1.521618 1_555
O11 P4 1.545191 1_555
O12 P6 1.528496 1_555
O13 P0 1.544418 1_555
O14 P7 1.605216 1_555
O14 P3 1.622480 1_556
O15 P1 1.528496 1_555
O16 P3 1.521618 1_556
O17 P2 1.545191 1_555
O18 P0 1.545191 1_555
O19 P5 1.528492 1_555
O20 P2 1.522334 1_565
O21 P1 1.531961 1_555
O22 P7 1.545191 1_555
O23 P7 1.522334 1_545
O24 P2 1.605216 1_555
O24 P5 1.622484 1_555
O25 P2 1.544418 1_555
O26 P1 1.521618 1_554
O27 P4 1.544418 1_555
