# generated using pymatgen
data_Ba4GaSbO8
_symmetry_space_group_name_H-M   'P 1'
_cell_length_a   7.21914203
_cell_length_b   7.21914208
_cell_length_c   5.81541502
_cell_angle_alpha   90.00000000
_cell_angle_beta   90.00000000
_cell_angle_gamma   132.46835434
_symmetry_Int_Tables_number   1
_chemical_formula_structural   Ba4GaSbO8
_chemical_formula_sum   'Ba4 Ga1 Sb1 O8'
_cell_volume   223.56429891
_cell_formula_units_Z   1
loop_
 _symmetry_equiv_pos_site_id
 _symmetry_equiv_pos_as_xyz
  1  'x, y, z'
loop_
 _atom_site_type_symbol
 _atom_site_label
 _atom_site_symmetry_multiplicity
 _atom_site_fract_x
 _atom_site_fract_y
 _atom_site_fract_z
 _atom_site_occupancy
  Ba  Ba0  1  0.35368729  0.64631271  0.00000000  1
  Ba  Ba1  1  0.85647758  0.14352242  0.50000000  1
  Ba  Ba2  1  0.14352242  0.85647758  0.50000000  1
  Ba  Ba3  1  0.64631271  0.35368729  0.00000000  1
  Ga  Ga0  1  0.00000000  0.00000000  0.00000000  1
  Sb  Sb0  1  0.50000000  0.50000000  0.50000000  1
  O  O0  1  0.25695688  0.25695688  0.74340702  1
  O  O1  1  0.74304312  0.74304312  0.25659298  1
  O  O2  1  0.74304312  0.74304312  0.74340702  1
  O  O3  1  0.25695688  0.25695688  0.25659298  1
  O  O4  1  0.14638118  0.85361882  0.00000000  1
  O  O5  1  0.65226754  0.34773246  0.50000000  1
  O  O6  1  0.34773246  0.65226754  0.50000000  1
  O  O7  1  0.85361882  0.14638118  0.00000000  1
loop_
_geom_bond_atom_site_label_1
_geom_bond_atom_site_label_2
_geom_bond_distance
_geom_bond_site_symmetry_2
Ba0 O4 2.739326 1_555
Ba0 O1 2.822133 1_555
Ba0 O2 2.822133 1_554
Ba0 O3 2.822133 1_555
Ba0 O0 2.822133 1_554
Ba0 O6 2.908772 1_555
Ba0 O6 2.908772 1_554
Ba0 O7 2.909310 1_455
Ba0 O7 2.909310 1_565
Ba1 O5 2.698415 1_555
Ba1 O0 2.799249 1_655
Ba1 O3 2.799249 1_655
Ba1 O2 2.799249 1_545
Ba1 O1 2.799249 1_545
Ba1 O7 2.907953 1_556
Ba1 O7 2.907953 1_555
Ba1 O6 2.911604 1_545
Ba1 O6 2.911604 1_655
Ba2 O6 2.698415 1_555
Ba2 O2 2.799249 1_455
Ba2 O1 2.799249 1_455
Ba2 O0 2.799249 1_565
Ba2 O3 2.799249 1_565
Ba2 O4 2.907953 1_555
Ba2 O4 2.907953 1_556
Ba2 O5 2.911604 1_565
Ba2 O5 2.911604 1_455
Ba3 O7 2.739326 1_555
Ba3 O3 2.822133 1_555
Ba3 O0 2.822133 1_554
Ba3 O1 2.822133 1_555
Ba3 O2 2.822133 1_554
Ba3 O5 2.908772 1_555
Ba3 O5 2.908772 1_554
Ba3 O4 2.909310 1_655
Ba3 O4 2.909310 1_545
Ga0 O4 1.934269 1_545
Ga0 O7 1.934269 1_455
Ga0 O3 2.112362 1_555
Ga0 O0 2.112362 1_554
Ga0 O1 2.112362 1_445
Ga0 O2 2.112362 1_444
O0 Sb0 2.000892 1_555
O1 Sb0 2.000892 1_555
O2 Sb0 2.000892 1_555
O3 Sb0 2.000892 1_555
O5 Sb0 2.012051 1_555
O6 Sb0 2.012051 1_555
