# generated using pymatgen
data_K3AgSn4
_symmetry_space_group_name_H-M   'P 1'
_cell_length_a   6.65061449
_cell_length_b   7.06904438
_cell_length_c   12.52924173
_cell_angle_alpha   90.00000000
_cell_angle_beta   90.00000000
_cell_angle_gamma   90.00000000
_symmetry_Int_Tables_number   1
_chemical_formula_structural   K3AgSn4
_chemical_formula_sum   'K6 Ag2 Sn8'
_cell_volume   589.04336813
_cell_formula_units_Z   2
loop_
 _symmetry_equiv_pos_site_id
 _symmetry_equiv_pos_as_xyz
  1  'x, y, z'
loop_
 _atom_site_type_symbol
 _atom_site_label
 _atom_site_symmetry_multiplicity
 _atom_site_fract_x
 _atom_site_fract_y
 _atom_site_fract_z
 _atom_site_occupancy
  K  K0  1  0.56090895  0.00000000  0.00000000  1
  K  K1  1  0.43909105  0.50000000  0.50000000  1
  K  K2  1  0.83138437  0.50000000  0.74307989  1
  K  K3  1  0.83138437  0.50000000  0.25692011  1
  K  K4  1  0.16861563  0.00000000  0.75692011  1
  K  K5  1  0.16861563  0.00000000  0.24307989  1
  Ag  Ag0  1  0.68489705  0.50000000  0.00000000  1
  Ag  Ag1  1  0.31510295  0.00000000  0.50000000  1
  Sn  Sn0  1  0.33096059  0.50000000  0.87567264  1
  Sn  Sn1  1  0.33096059  0.50000000  0.12432736  1
  Sn  Sn2  1  0.04164642  0.27935495  0.00000000  1
  Sn  Sn3  1  0.04164642  0.72064505  0.00000000  1
  Sn  Sn4  1  0.95835358  0.77935495  0.50000000  1
  Sn  Sn5  1  0.95835358  0.22064505  0.50000000  1
  Sn  Sn6  1  0.66903941  0.00000000  0.37567264  1
  Sn  Sn7  1  0.66903941  0.00000000  0.62432736  1
loop_
_geom_bond_atom_site_label_1
_geom_bond_atom_site_label_2
_geom_bond_distance
_geom_bond_site_symmetry_2
K0 Sn2 3.757900 1_655
K0 Sn3 3.757900 1_645
K0 Sn2 3.978165 1_555
K0 Sn3 3.978165 1_545
K0 Sn1 4.154289 1_555
K0 Sn1 4.154289 1_545
K0 Sn0 4.154289 1_554
K0 Sn0 4.154289 1_544
K1 Sn4 3.757900 1_455
K1 Sn5 3.757900 1_455
K1 Sn4 3.978165 1_555
K1 Sn5 3.978165 1_555
K1 Sn7 4.154289 1_565
K1 Sn7 4.154289 1_555
K1 Sn6 4.154289 1_555
K1 Sn6 4.154289 1_565
K2 Sn0 3.714674 1_655
K2 Sn0 3.719717 1_555
K2 Sn4 3.726727 1_555
K2 Sn5 3.726727 1_555
K2 Sn3 3.840614 1_656
K2 Sn2 3.840614 1_656
K2 Sn7 3.984014 1_555
K2 Sn7 3.984014 1_565
K3 Sn1 3.714674 1_655
K3 Sn1 3.719717 1_555
K3 Sn4 3.726727 1_555
K3 Sn5 3.726727 1_555
K3 Sn3 3.840614 1_655
K3 Sn2 3.840614 1_655
K3 Sn6 3.984014 1_555
K3 Sn6 3.984014 1_565
K4 Sn7 3.714674 1_455
K4 Sn7 3.719717 1_555
K4 Sn2 3.726727 1_556
K4 Sn3 3.726727 1_546
K4 Sn5 3.840614 1_455
K4 Sn4 3.840614 1_445
K4 Sn0 3.984014 1_555
K4 Sn0 3.984014 1_545
K5 Sn6 3.714674 1_455
K5 Sn6 3.719717 1_555
K5 Sn2 3.726727 1_555
K5 Sn3 3.726727 1_545
K5 Sn5 3.840614 1_455
K5 Sn4 3.840614 1_445
K5 Sn1 3.984014 1_545
K5 Sn1 3.984014 1_555
Ag0 Sn1 2.822647 1_555
Ag0 Sn0 2.822647 1_554
Ag0 Sn3 2.839377 1_655
Ag0 Sn2 2.839377 1_655
Ag0 K2 3.363209 1_554
Ag0 K3 3.363209 1_555
Ag0 K0 3.629436 1_555
Ag0 K0 3.629436 1_565
Ag1 Sn7 2.822647 1_555
Ag1 Sn6 2.822647 1_555
Ag1 Sn5 2.839377 1_455
Ag1 Sn4 2.839377 1_445
Ag1 K5 3.363209 1_555
Ag1 K4 3.363209 1_555
Ag1 K1 3.629436 1_555
Ag1 K1 3.629436 1_545
Sn0 Sn3 2.926014 1_556
Sn0 Sn2 2.926014 1_556
Sn0 Sn1 3.115455 1_556
Sn1 Sn3 2.926014 1_555
Sn1 Sn2 2.926014 1_555
Sn2 Sn3 3.119499 1_555
Sn4 Sn7 2.926014 1_565
Sn4 Sn6 2.926014 1_565
Sn4 Sn5 3.119499 1_565
Sn5 Sn7 2.926014 1_555
Sn5 Sn6 2.926014 1_555
Sn6 Sn7 3.115455 1_555
