# generated using pymatgen
data_Sr2Y(B3Ir4)2
_symmetry_space_group_name_H-M   'P 1'
_cell_length_a   9.97370106
_cell_length_b   9.09061761
_cell_length_c   5.68594486
_cell_angle_alpha   81.37982638
_cell_angle_beta   64.31131487
_cell_angle_gamma   34.30885540
_symmetry_Int_Tables_number   1
_chemical_formula_structural   Sr2Y(B3Ir4)2
_chemical_formula_sum   'Sr2 Y1 B6 Ir8'
_cell_volume   238.85660315
_cell_formula_units_Z   1
loop_
 _symmetry_equiv_pos_site_id
 _symmetry_equiv_pos_as_xyz
  1  'x, y, z'
loop_
 _atom_site_type_symbol
 _atom_site_label
 _atom_site_symmetry_multiplicity
 _atom_site_fract_x
 _atom_site_fract_y
 _atom_site_fract_z
 _atom_site_occupancy
  Sr  Sr0  1  0.31803810  0.31803810  0.68196190  1
  Sr  Sr1  1  0.68196190  0.68196190  0.31803810  1
  Y  Y0  1  0.50000000  0.50000000  0.50000000  1
  B  B0  1  0.66776551  0.99148907  0.00851093  1
  B  B1  1  0.99148907  0.66776551  0.33223449  1
  B  B2  1  0.33223449  0.00851093  0.99148907  1
  B  B3  1  0.00851093  0.33223449  0.66776551  1
  B  B4  1  0.16475452  0.83524548  0.16475452  1
  B  B5  1  0.83524548  0.16475452  0.83524548  1
  Ir  Ir0  1  0.58378782  0.58378782  0.91621218  1
  Ir  Ir1  1  0.91413763  0.91413763  0.08586237  1
  Ir  Ir2  1  0.41621218  0.41621218  0.08378782  1
  Ir  Ir3  1  0.08378782  0.08378782  0.41621218  1
  Ir  Ir4  1  0.91621218  0.91621218  0.58378782  1
  Ir  Ir5  1  0.25000000  0.25000000  0.25000000  1
  Ir  Ir6  1  0.08586237  0.08586237  0.91413763  1
  Ir  Ir7  1  0.75000000  0.75000000  0.75000000  1
loop_
_geom_bond_atom_site_label_1
_geom_bond_atom_site_label_2
_geom_bond_distance
_geom_bond_site_symmetry_2
Sr0 Y0 3.149403 1_555
Sr1 Y0 3.149403 1_555
B0 Ir5 2.144785 1_565
B0 Ir7 2.144785 1_554
B0 Ir1 2.171567 1_555
B0 Ir2 2.224081 1_565
B0 Ir4 2.224081 1_554
B0 Sr1 3.017995 1_555
B0 Sr0 3.219272 1_654
B0 Sr0 3.219272 1_565
B1 Ir5 2.144785 1_655
B1 Ir7 2.144785 1_555
B1 Ir1 2.171567 1_555
B1 Ir2 2.224080 1_655
B1 Ir4 2.224081 1_555
B1 Sr1 3.017995 1_555
B1 Sr0 3.219272 1_565
B1 Sr0 3.219272 1_654
B2 Ir7 2.144785 1_545
B2 Ir5 2.144785 1_556
B2 Ir6 2.171567 1_555
B2 Ir0 2.224081 1_545
B2 Ir3 2.224081 1_556
B2 Sr0 3.017995 1_555
B2 Sr1 3.219272 1_456
B2 Sr1 3.219272 1_545
B3 Ir7 2.144785 1_455
B3 Ir5 2.144785 1_555
B3 Ir6 2.171567 1_555
B3 Ir0 2.224080 1_455
B3 Ir3 2.224081 1_555
B3 Sr0 3.017995 1_555
B3 Sr1 3.219272 1_545
B3 Sr1 3.219272 1_456
B4 Ir0 2.180472 1_554
B4 Ir2 2.180472 1_555
B4 Ir4 2.180472 1_455
B4 Ir3 2.180472 1_565
B4 Ir1 2.208532 1_455
B4 Ir6 2.208532 1_564
B4 Y0 3.227442 1_465
B4 Y0 3.227442 1_554
B4 Y0 3.324356 1_555
B5 Ir2 2.180472 1_556
B5 Ir0 2.180472 1_555
B5 Ir3 2.180472 1_655
B5 Ir4 2.180472 1_545
B5 Ir6 2.208532 1_655
B5 Ir1 2.208532 1_546
B5 Y0 3.227442 1_645
B5 Y0 3.227442 1_556
B5 Y0 3.324356 1_555
Ir0 Y0 3.191486 1_555
Ir0 Y0 3.191486 1_556
Ir0 Sr1 3.312065 1_556
Ir0 Sr1 3.312065 1_555
Ir1 Y0 3.155283 1_654
Ir1 Y0 3.155283 1_565
Ir1 Sr0 3.242505 1_565
Ir1 Sr0 3.242505 1_654
Ir2 Y0 3.191486 1_555
Ir2 Y0 3.191486 1_554
Ir2 Sr0 3.312065 1_554
Ir2 Sr0 3.312065 1_555
Ir3 Y0 3.191485 1_455
Ir3 Y0 3.191485 1_545
Ir3 Sr1 3.312065 1_545
Ir3 Sr1 3.312065 1_455
Ir4 Y0 3.191485 1_655
Ir4 Y0 3.191485 1_565
Ir4 Sr0 3.312065 1_565
Ir4 Sr0 3.312065 1_655
Ir5 Sr1 3.077214 1_455
Ir5 Sr1 3.077214 1_545
Ir5 Sr0 3.077214 1_555
Ir5 Sr0 3.077214 1_554
Ir6 Y0 3.155283 1_456
Ir6 Y0 3.155283 1_545
Ir6 Sr1 3.242505 1_545
Ir6 Sr1 3.242505 1_456
Ir7 Sr0 3.077214 1_655
Ir7 Sr0 3.077214 1_565
Ir7 Sr1 3.077214 1_555
Ir7 Sr1 3.077214 1_556
