# generated using pymatgen
data_Cs2NaYAs2
_symmetry_space_group_name_H-M   'P 1'
_cell_length_a   9.71825309
_cell_length_b   9.71825218
_cell_length_c   9.71825224
_cell_angle_alpha   136.22538712
_cell_angle_beta   136.27789141
_cell_angle_gamma   63.59154431
_symmetry_Int_Tables_number   1
_chemical_formula_structural   Cs2NaYAs2
_chemical_formula_sum   'Cs4 Na2 Y2 As4'
_cell_volume   433.13494215
_cell_formula_units_Z   2
loop_
 _symmetry_equiv_pos_site_id
 _symmetry_equiv_pos_as_xyz
  1  'x, y, z'
loop_
 _atom_site_type_symbol
 _atom_site_label
 _atom_site_symmetry_multiplicity
 _atom_site_fract_x
 _atom_site_fract_y
 _atom_site_fract_z
 _atom_site_occupancy
  Cs  Cs0  1  0.68202531  0.39200312  0.70997881  1
  Cs  Cs1  1  0.81797469  0.02795350  0.20997881  1
  Cs  Cs2  1  0.18202531  0.97204650  0.79002119  1
  Cs  Cs3  1  0.31797469  0.60799688  0.29002119  1
  Na  Na0  1  0.75000000  0.00000000  0.75000000  1
  Na  Na1  1  0.25000000  0.00000000  0.25000000  1
  Y  Y0  1  0.25000000  0.50000000  0.75000000  1
  Y  Y1  1  0.75000000  0.50000000  0.25000000  1
  As  As0  1  0.41082627  0.18852801  0.77770273  1
  As  As1  1  0.58917373  0.81147199  0.22229727  1
  As  As2  1  0.08917373  0.36687646  0.27770273  1
  As  As3  1  0.91082627  0.63312354  0.72229727  1
loop_
_geom_bond_atom_site_label_1
_geom_bond_atom_site_label_2
_geom_bond_distance
_geom_bond_site_symmetry_2
As0 Y1 2.835147 1_556
As0 Y0 2.835151 1_555
As0 Na0 3.080971 1_555
As0 Na1 3.080975 1_555
As0 Cs2 3.780769 1_545
As0 Cs3 3.852087 1_545
As0 Cs1 3.960835 1_556
As0 Cs1 3.960842 1_455
As0 Cs3 4.016476 1_556
As1 Y0 2.835147 1_554
As1 Y1 2.835151 1_555
As1 Na1 3.080971 1_565
As1 Na0 3.080975 1_565
As1 Cs1 3.780769 1_565
As1 Cs0 3.852087 1_565
As1 Cs2 3.960835 1_554
As1 Cs2 3.960842 1_655
As1 Cs0 4.016476 1_554
As2 Y0 2.835143 1_555
As2 Y1 2.835143 1_455
As2 Na1 3.080971 1_555
As2 Na0 3.080972 1_454
As2 Cs3 3.780785 1_555
As2 Cs2 3.852100 1_544
As2 Cs0 3.960836 1_454
As2 Cs0 3.960843 1_555
As2 Cs2 4.016475 1_555
As3 Y1 2.835143 1_555
As3 Y0 2.835143 1_655
As3 Na0 3.080971 1_565
As3 Na1 3.080972 1_666
As3 Cs0 3.780785 1_555
As3 Cs1 3.852100 1_566
As3 Cs3 3.960836 1_656
As3 Cs3 3.960843 1_555
As3 Cs1 4.016475 1_555
