# generated using pymatgen
data_CaTi2O4
_symmetry_space_group_name_H-M   'P 1'
_cell_length_a   5.14758271
_cell_length_b   5.14758271
_cell_length_c   10.14775000
_cell_angle_alpha   90.00000000
_cell_angle_beta   90.00000000
_cell_angle_gamma   145.21176246
_symmetry_Int_Tables_number   1
_chemical_formula_structural   CaTi2O4
_chemical_formula_sum   'Ca2 Ti4 O8'
_cell_volume   153.41446660
_cell_formula_units_Z   2
loop_
 _symmetry_equiv_pos_site_id
 _symmetry_equiv_pos_as_xyz
  1  'x, y, z'
loop_
 _atom_site_type_symbol
 _atom_site_label
 _atom_site_symmetry_multiplicity
 _atom_site_fract_x
 _atom_site_fract_y
 _atom_site_fract_z
 _atom_site_occupancy
  Ca  Ca0  1  0.62016500  0.37983500  0.75000000  1
  Ca  Ca1  1  0.37983500  0.62016500  0.25000000  1
  Ti  Ti0  1  0.12412200  0.87587800  0.06464800  1
  Ti  Ti1  1  0.87587800  0.12412200  0.93535200  1
  Ti  Ti2  1  0.12412200  0.87587800  0.43535200  1
  Ti  Ti3  1  0.87587800  0.12412200  0.56464800  1
  O  O0  1  0.76702200  0.23297800  0.39348000  1
  O  O1  1  0.23297800  0.76702200  0.60652000  1
  O  O2  1  0.23297800  0.76702200  0.89348000  1
  O  O3  1  0.76702200  0.23297800  0.10652000  1
  O  O4  1  0.06171000  0.93829000  0.25000000  1
  O  O5  1  0.93829000  0.06171000  0.75000000  1
  O  O6  1  0.50000000  0.50000000  0.00000000  1
  O  O7  1  0.50000000  0.50000000  0.50000000  1
loop_
_geom_bond_atom_site_label_1
_geom_bond_atom_site_label_2
_geom_bond_distance
_geom_bond_site_symmetry_2
Ca0 O5 2.358112 1_455
Ca0 O5 2.358112 1_565
Ca0 O1 2.390880 1_655
Ca0 O1 2.390880 1_545
Ca0 O2 2.390880 1_655
Ca0 O2 2.390880 1_545
Ca0 O6 2.798168 1_556
Ca0 O7 2.798168 1_555
Ca1 O4 2.358112 1_545
Ca1 O4 2.358112 1_655
Ca1 O3 2.390880 1_565
Ca1 O0 2.390880 1_565
Ca1 O3 2.390880 1_455
Ca1 O0 2.390880 1_455
Ca1 O6 2.798168 1_555
Ca1 O7 2.798168 1_555
O0 Ti3 2.039797 1_555
O0 Ti2 2.125911 1_655
O0 Ti2 2.125911 1_545
O1 Ti2 2.039797 1_555
O1 Ti3 2.125911 1_565
O1 Ti3 2.125911 1_455
O2 Ti0 2.039797 1_556
O2 Ti1 2.125911 1_565
O2 Ti1 2.125911 1_455
O3 Ti1 2.039797 1_554
O3 Ti0 2.125911 1_655
O3 Ti0 2.125911 1_545
O4 Ti2 1.978325 1_555
O4 Ti0 1.978325 1_555
O5 Ti1 1.978325 1_555
O5 Ti3 1.978325 1_555
O6 Ti0 2.070114 1_655
O6 Ti1 2.070114 1_564
O6 Ti0 2.070114 1_545
O6 Ti1 2.070114 1_454
O7 Ti3 2.070114 1_565
O7 Ti3 2.070114 1_455
O7 Ti2 2.070114 1_655
O7 Ti2 2.070114 1_545
