# generated using pymatgen
data_Ca4Os3RhO14
_symmetry_space_group_name_H-M   'P 1'
_cell_length_a   7.20285454
_cell_length_b   7.20527956
_cell_length_c   7.26332354
_cell_angle_alpha   120.63648693
_cell_angle_beta   118.07561391
_cell_angle_gamma   90.69055341
_symmetry_Int_Tables_number   1
_chemical_formula_structural   Ca4Os3RhO14
_chemical_formula_sum   'Ca4 Os3 Rh1 O14'
_cell_volume   269.96320861
_cell_formula_units_Z   1
loop_
 _symmetry_equiv_pos_site_id
 _symmetry_equiv_pos_as_xyz
  1  'x, y, z'
loop_
 _atom_site_type_symbol
 _atom_site_label
 _atom_site_symmetry_multiplicity
 _atom_site_fract_x
 _atom_site_fract_y
 _atom_site_fract_z
 _atom_site_occupancy
  Ca  Ca0  1  0.50000000  0.50000000  0.00000000  1
  Ca  Ca1  1  0.00000000  0.00000000  0.00000000  1
  Ca  Ca2  1  0.50000000  0.50000000  0.50000000  1
  Ca  Ca3  1  0.50000000  0.00000000  0.00000000  1
  Os  Os0  1  0.00000000  0.50000000  0.00000000  1
  Os  Os1  1  0.00000000  0.50000000  0.50000000  1
  Os  Os2  1  0.50000000  0.00000000  0.50000000  1
  Rh  Rh0  1  0.00000000  0.00000000  0.50000000  1
  O  O0  1  0.94795128  0.58223568  0.76739254  1
  O  O1  1  0.05060652  0.81762959  0.63868397  1
  O  O2  1  0.67935131  0.91184896  0.36186820  1
  O  O3  1  0.31484226  0.68061307  0.23225581  1
  O  O4  1  0.05204872  0.41776432  0.23260746  1
  O  O5  1  0.94939348  0.18237041  0.36131603  1
  O  O6  1  0.32064869  0.08815104  0.63813180  1
  O  O7  1  0.68515774  0.31938693  0.76774419  1
  O  O8  1  0.10012049  0.25355028  0.85379435  1
  O  O9  1  0.89987951  0.74644972  0.14620565  1
  O  O10  1  0.36547435  0.09766848  0.27323586  1
  O  O11  1  0.63452565  0.90233152  0.72676414  1
  O  O12  1  0.67570706  0.40820563  0.27333980  1
  O  O13  1  0.32429294  0.59179437  0.72666020  1
loop_
_geom_bond_atom_site_label_1
_geom_bond_atom_site_label_2
_geom_bond_distance
_geom_bond_site_symmetry_2
Ca0 O12 2.230294 1_555
Ca0 O13 2.230294 1_554
Ca0 O2 2.479007 1_555
Ca0 O6 2.479007 1_554
Ca0 O7 2.498020 1_554
Ca0 O3 2.498020 1_555
Ca0 O9 2.766355 1_555
Ca0 O8 2.766355 1_554
Ca1 O11 2.231162 1_444
Ca1 O10 2.231162 1_555
Ca1 O5 2.478737 1_455
Ca1 O1 2.478737 1_544
Ca1 O4 2.499841 1_555
Ca1 O0 2.499841 1_444
Ca1 O8 2.766170 1_554
Ca1 O9 2.766170 1_445
Ca2 O11 2.370487 1_555
Ca2 O10 2.370487 1_555
Ca2 O12 2.370889 1_555
Ca2 O13 2.370889 1_555
Ca2 O4 2.723269 1_555
Ca2 O0 2.723269 1_555
Ca2 O7 2.726537 1_555
Ca2 O3 2.726537 1_555
Ca3 O10 2.403307 1_555
Ca3 O11 2.403307 1_544
Ca3 O12 2.405831 1_555
Ca3 O13 2.405831 1_544
Ca3 O5 2.734676 1_555
Ca3 O1 2.734676 1_544
Ca3 O2 2.739665 1_545
Ca3 O6 2.739665 1_554
O0 Os0 1.943066 1_656
O0 Os1 1.944600 1_655
O1 Os1 1.915726 1_555
O1 Rh0 1.972095 1_565
O2 Os2 1.915508 1_565
O2 Rh0 1.969331 1_665
O3 Os0 1.942315 1_555
O3 Os2 1.944227 1_565
O4 Os0 1.943066 1_555
O4 Os1 1.944600 1_555
O5 Os1 1.915726 1_655
O5 Rh0 1.972095 1_655
O6 Os2 1.915508 1_555
O6 Rh0 1.969331 1_555
O7 Os0 1.942315 1_656
O7 Os2 1.944227 1_555
O8 Os0 1.905478 1_556
O8 Rh0 1.974930 1_555
O9 Os0 1.905478 1_655
O9 Rh0 1.974930 1_665
O10 Os2 1.960222 1_555
O11 Os2 1.960222 1_565
O12 Os1 1.958888 1_655
O13 Os1 1.958888 1_555
