# generated using pymatgen
data_Rb2LiScSb2
_symmetry_space_group_name_H-M   'P 1'
_cell_length_a   9.66806422
_cell_length_b   9.66806381
_cell_length_c   9.66806441
_cell_angle_alpha   136.58533752
_cell_angle_beta   136.81784540
_cell_angle_gamma   62.89770161
_symmetry_Int_Tables_number   1
_chemical_formula_structural   Rb2LiScSb2
_chemical_formula_sum   'Rb4 Li2 Sc2 Sb4'
_cell_volume   419.71028191
_cell_formula_units_Z   2
loop_
 _symmetry_equiv_pos_site_id
 _symmetry_equiv_pos_as_xyz
  1  'x, y, z'
loop_
 _atom_site_type_symbol
 _atom_site_label
 _atom_site_symmetry_multiplicity
 _atom_site_fract_x
 _atom_site_fract_y
 _atom_site_fract_z
 _atom_site_occupancy
  Rb  Rb0  1  0.10276974  0.82507537  0.27769437  1
  Rb  Rb1  1  0.89723026  0.17492463  0.72230563  1
  Rb  Rb2  1  0.45261800  0.67492463  0.77769437  1
  Rb  Rb3  1  0.54738200  0.32507537  0.22230563  1
  Li  Li0  1  0.50000000  0.25000000  0.75000000  1
  Li  Li1  1  0.50000000  0.75000000  0.25000000  1
  Sc  Sc0  1  0.00000000  0.25000000  0.25000000  1
  Sc  Sc1  1  0.00000000  0.75000000  0.75000000  1
  Sb  Sb0  1  0.67277934  0.90931536  0.76346297  1
  Sb  Sb1  1  0.14585239  0.40931536  0.73653703  1
  Sb  Sb2  1  0.85414761  0.59068464  0.26346297  1
  Sb  Sb3  1  0.32722066  0.09068464  0.23653703  1
loop_
_geom_bond_atom_site_label_1
_geom_bond_atom_site_label_2
_geom_bond_distance
_geom_bond_site_symmetry_2
Rb0 Sb0 3.725277 1_555
Rb0 Sb1 3.847559 1_565
Rb0 Sb1 3.847559 1_554
Rb0 Sb2 3.867782 1_455
Rb0 Sb0 3.913903 1_454
Rb0 Sc0 3.927728 1_565
Rb0 Sc1 3.927728 1_554
Rb1 Sb3 3.725277 1_555
Rb1 Sb2 3.847559 1_545
Rb1 Sb2 3.847559 1_556
Rb1 Sb1 3.867782 1_655
Rb1 Sb3 3.913903 1_656
Rb1 Sc1 3.927728 1_645
Rb1 Sc0 3.927728 1_656
Rb2 Sb2 3.725271 1_556
Rb2 Sb3 3.847559 1_555
Rb2 Sb3 3.847559 1_566
Rb2 Sb0 3.867798 1_555
Rb2 Sb2 3.913897 1_455
Rb2 Sc1 3.927718 1_555
Rb2 Sc0 3.927722 1_555
Rb3 Sb1 3.725271 1_554
Rb3 Sb0 3.847559 1_555
Rb3 Sb0 3.847559 1_544
Rb3 Sb3 3.867798 1_555
Rb3 Sb1 3.913897 1_655
Rb3 Sc0 3.927718 1_655
Rb3 Sc1 3.927722 1_655
Li0 Sb3 2.991432 1_555
Li0 Sb2 2.991436 1_556
Li0 Sb1 2.991436 1_555
Li0 Sb0 2.991436 1_545
Li0 Rb3 3.744983 1_556
Li0 Rb2 3.744986 1_555
Li0 Rb0 3.744990 1_545
Li0 Rb1 3.744990 1_555
Li1 Sb0 2.991432 1_555
Li1 Sb1 2.991436 1_554
Li1 Sb2 2.991436 1_555
Li1 Sb3 2.991436 1_565
Li1 Rb2 3.744983 1_554
Li1 Rb3 3.744986 1_555
Li1 Rb1 3.744990 1_565
Li1 Rb0 3.744990 1_555
Sb0 Sc1 2.875247 1_655
Sb0 Sc0 2.875251 1_666
Sb1 Sc1 2.875255 1_555
Sb1 Sc0 2.875255 1_555
Sb2 Sc0 2.875255 1_655
Sb2 Sc1 2.875255 1_655
Sb3 Sc0 2.875247 1_555
Sb3 Sc1 2.875251 1_544
