# generated using pymatgen
data_Sc20Zn3Cd3Ru2
_symmetry_space_group_name_H-M   'P 1'
_cell_length_a   8.88473047
_cell_length_b   8.88472972
_cell_length_c   9.00502785
_cell_angle_alpha   90.00000000
_cell_angle_beta   90.00000000
_cell_angle_gamma   119.99999906
_symmetry_Int_Tables_number   1
_chemical_formula_structural   Sc20Zn3Cd3Ru2
_chemical_formula_sum   'Sc20 Zn3 Cd3 Ru2'
_cell_volume   615.60788619
_cell_formula_units_Z   1
loop_
 _symmetry_equiv_pos_site_id
 _symmetry_equiv_pos_as_xyz
  1  'x, y, z'
loop_
 _atom_site_type_symbol
 _atom_site_label
 _atom_site_symmetry_multiplicity
 _atom_site_fract_x
 _atom_site_fract_y
 _atom_site_fract_z
 _atom_site_occupancy
  Sc  Sc0  1  0.00000000  0.00000000  0.47821158  1
  Sc  Sc1  1  0.00000000  0.00000000  0.02178842  1
  Sc  Sc2  1  0.20810659  0.79189341  0.43909336  1
  Sc  Sc3  1  0.20810659  0.41621218  0.43909336  1
  Sc  Sc4  1  0.58378782  0.79189341  0.43909336  1
  Sc  Sc5  1  0.79056688  0.20943312  0.55416374  1
  Sc  Sc6  1  0.79056688  0.58113376  0.55416374  1
  Sc  Sc7  1  0.41886624  0.20943312  0.55416374  1
  Sc  Sc8  1  0.79056688  0.20943312  0.94583626  1
  Sc  Sc9  1  0.79056688  0.58113376  0.94583626  1
  Sc  Sc10  1  0.41886624  0.20943312  0.94583626  1
  Sc  Sc11  1  0.20810659  0.79189341  0.06090664  1
  Sc  Sc12  1  0.20810659  0.41621218  0.06090664  1
  Sc  Sc13  1  0.58378782  0.79189341  0.06090664  1
  Sc  Sc14  1  0.54094974  0.45905026  0.25000000  1
  Sc  Sc15  1  0.54094974  0.08189948  0.25000000  1
  Sc  Sc16  1  0.91810052  0.45905026  0.25000000  1
  Sc  Sc17  1  0.45980497  0.54019503  0.75000000  1
  Sc  Sc18  1  0.45980497  0.91961093  0.75000000  1
  Sc  Sc19  1  0.08038907  0.54019503  0.75000000  1
  Zn  Zn0  1  0.88063081  0.11936919  0.25000000  1
  Zn  Zn1  1  0.88063081  0.76126461  0.25000000  1
  Zn  Zn2  1  0.23873539  0.11936919  0.25000000  1
  Cd  Cd0  1  0.11192521  0.88807479  0.75000000  1
  Cd  Cd1  1  0.11192521  0.22384942  0.75000000  1
  Cd  Cd2  1  0.77615058  0.88807479  0.75000000  1
  Ru  Ru0  1  0.33333300  0.66666700  0.25000000  1
  Ru  Ru1  1  0.66666700  0.33333300  0.75000000  1
loop_
_geom_bond_atom_site_label_1
_geom_bond_atom_site_label_2
_geom_bond_distance
_geom_bond_site_symmetry_2
Sc0 Zn1 2.756363 1_445
Sc0 Zn2 2.756363 1_555
Sc0 Zn0 2.756378 1_455
Sc1 Zn1 2.756363 1_445
Sc1 Zn2 2.756363 1_555
Sc1 Zn0 2.756378 1_455
Sc2 Zn2 3.263000 1_565
Sc2 Zn1 3.263000 1_455
Sc3 Zn2 3.262970 1_555
Sc3 Zn0 3.262988 1_455
Sc4 Zn1 3.262970 1_555
Sc4 Zn0 3.262987 1_565
Sc5 Zn0 3.069701 1_555
Sc6 Zn1 3.069712 1_555
Sc7 Zn2 3.069712 1_555
Sc8 Zn0 3.069701 1_556
Sc9 Zn1 3.069712 1_556
Sc10 Zn2 3.069712 1_556
Sc11 Zn2 3.263000 1_565
Sc11 Zn1 3.263000 1_455
Sc12 Zn2 3.262970 1_555
Sc12 Zn0 3.262988 1_455
Sc13 Zn1 3.262970 1_555
Sc13 Zn0 3.262987 1_565
Sc14 Zn2 2.866069 1_555
Sc14 Zn1 2.866069 1_555
Sc15 Zn0 2.866058 1_555
Sc15 Zn2 2.866085 1_555
Sc16 Zn0 2.866058 1_555
Sc16 Zn1 2.866085 1_555
Cd0 Sc19 2.960683 1_555
Cd0 Sc18 2.960683 1_555
Cd0 Cd1 2.983267 1_565
Cd0 Cd2 2.983267 1_455
Cd0 Sc1 2.992777 1_566
Cd0 Sc0 2.992777 1_565
Cd0 Sc2 3.166890 1_555
Cd0 Sc11 3.166890 1_556
Cd0 Sc10 3.303439 1_565
Cd0 Sc7 3.303439 1_565
Cd0 Sc9 3.303440 1_455
Cd0 Sc6 3.303440 1_455
Cd1 Sc17 2.960691 1_555
Cd1 Sc19 2.960701 1_555
Cd1 Cd2 2.983267 1_445
Cd1 Sc1 2.992773 1_556
Cd1 Sc0 2.992773 1_555
Cd1 Sc3 3.166890 1_555
Cd1 Sc12 3.166890 1_556
Cd1 Sc10 3.303436 1_555
Cd1 Sc7 3.303436 1_555
Cd1 Sc8 3.303443 1_455
Cd1 Sc5 3.303443 1_455
Cd2 Sc17 2.960691 1_555
Cd2 Sc18 2.960701 1_555
Cd2 Sc1 2.992773 1_666
Cd2 Sc0 2.992773 1_665
Cd2 Sc4 3.166890 1_555
Cd2 Sc13 3.166890 1_556
Cd2 Sc9 3.303435 1_555
Cd2 Sc6 3.303435 1_555
Cd2 Sc8 3.303443 1_565
Cd2 Sc5 3.303443 1_565
Ru0 Sc2 2.571605 1_555
Ru0 Sc11 2.571605 1_555
Ru0 Sc3 2.571617 1_555
Ru0 Sc12 2.571617 1_555
Ru0 Sc4 2.571617 1_555
Ru0 Sc13 2.571617 1_555
Ru0 Sc15 3.194966 1_565
Ru0 Sc16 3.194966 1_455
Ru0 Sc14 3.194973 1_555
Ru1 Sc8 2.597184 1_555
Ru1 Sc5 2.597184 1_555
Ru1 Sc9 2.597190 1_555
Ru1 Sc6 2.597190 1_555
Ru1 Sc10 2.597190 1_555
Ru1 Sc7 2.597190 1_555
Ru1 Sc18 3.183344 1_545
Ru1 Sc19 3.183344 1_655
Ru1 Sc17 3.183359 1_555
