# generated using pymatgen
data_Li2MnCl4
_symmetry_space_group_name_H-M   'P 1'
_cell_length_a   7.36785981
_cell_length_b   7.36778224
_cell_length_c   7.36780838
_cell_angle_alpha   120.10900105
_cell_angle_beta   119.24510477
_cell_angle_gamma   90.56252115
_symmetry_Int_Tables_number   1
_chemical_formula_structural   Li2MnCl4
_chemical_formula_sum   'Li4 Mn2 Cl8'
_cell_volume   284.15854843
_cell_formula_units_Z   2
loop_
 _symmetry_equiv_pos_site_id
 _symmetry_equiv_pos_as_xyz
  1  'x, y, z'
loop_
 _atom_site_type_symbol
 _atom_site_label
 _atom_site_symmetry_multiplicity
 _atom_site_fract_x
 _atom_site_fract_y
 _atom_site_fract_z
 _atom_site_occupancy
  Li  Li0  1  0.11404649  0.36405009  0.75000210  1
  Li  Li1  1  0.49999971  -0.00000042  0.00000004  1
  Li  Li2  1  0.49999966  0.49999973  0.49999982  1
  Li  Li3  1  0.88595336  0.63594889  0.24999773  1
  Mn  Mn0  1  0.49999958  -0.00000102  0.49999946  1
  Mn  Mn1  1  -0.00000035  0.00000000  -0.00000023  1
  Cl  Cl0  1  0.25254359  0.76395673  0.01142435  1
  Cl  Cl1  1  0.25254289  0.24111562  0.48858617  1
  Cl  Cl2  1  0.25461476  0.24019152  0.01442760  1
  Cl  Cl3  1  0.72574784  0.24017050  0.48556788  1
  Cl  Cl4  1  0.27425215  0.75982875  0.51443216  1
  Cl  Cl5  1  0.74538511  0.75980728  0.98557183  1
  Cl  Cl6  1  0.74745684  0.75888390  0.51141397  1
  Cl  Cl7  1  0.74745838  0.23604943  0.98857712  1
loop_
_geom_bond_atom_site_label_1
_geom_bond_atom_site_label_2
_geom_bond_distance
_geom_bond_site_symmetry_2
Cl0 Li0 2.399853 1_554
Cl0 Mn0 2.559437 1_565
Cl0 Mn1 2.559535 1_565
Cl0 Li1 2.567156 1_565
Cl1 Li0 2.399918 1_555
Cl1 Mn0 2.559459 1_555
Cl1 Mn1 2.559498 1_555
Cl1 Li2 2.567175 1_555
Cl2 Li0 2.351978 1_554
Cl2 Mn1 2.492698 1_555
Cl2 Li2 2.544282 1_555
Cl2 Li1 2.544341 1_555
Cl3 Li0 2.352063 1_655
Cl3 Mn0 2.492557 1_555
Cl3 Li1 2.544267 1_555
Cl3 Li2 2.544348 1_555
Cl4 Li3 2.352064 1_455
Cl4 Mn0 2.492551 1_565
Cl4 Li1 2.544267 1_566
Cl4 Li2 2.544343 1_555
Cl5 Li3 2.351980 1_556
Cl5 Mn1 2.492701 1_666
Cl5 Li2 2.544281 1_555
Cl5 Li1 2.544345 1_566
Cl6 Li3 2.399921 1_555
Cl6 Mn0 2.559454 1_565
Cl6 Mn1 2.559495 1_666
Cl6 Li2 2.567175 1_555
Cl7 Li3 2.399809 1_556
Cl7 Mn0 2.559449 1_555
Cl7 Mn1 2.559552 1_656
Cl7 Li1 2.567198 1_556
