# generated using pymatgen
data_Mg4AlSi6
_symmetry_space_group_name_H-M   'P 1'
_cell_length_a   8.37744112
_cell_length_b   8.37744112
_cell_length_c   6.73461269
_cell_angle_alpha   87.95987811
_cell_angle_beta   87.95987811
_cell_angle_gamma   25.34557608
_symmetry_Int_Tables_number   1
_chemical_formula_structural   Mg4AlSi6
_chemical_formula_sum   'Mg4 Al1 Si6'
_cell_volume   202.19381577
_cell_formula_units_Z   1
loop_
 _symmetry_equiv_pos_site_id
 _symmetry_equiv_pos_as_xyz
  1  'x, y, z'
loop_
 _atom_site_type_symbol
 _atom_site_label
 _atom_site_symmetry_multiplicity
 _atom_site_fract_x
 _atom_site_fract_y
 _atom_site_fract_z
 _atom_site_occupancy
  Mg  Mg0  1  0.58014600  0.58014600  0.59395800  1
  Mg  Mg1  1  0.33225900  0.33225900  0.98999000  1
  Mg  Mg2  1  0.66774100  0.66774100  0.01001000  1
  Mg  Mg3  1  0.41985400  0.41985400  0.40604200  1
  Al  Al0  1  0.50000000  0.50000000  0.00000000  1
  Si  Si0  1  0.05120900  0.05120900  0.24460400  1
  Si  Si1  1  0.94879100  0.94879100  0.75539600  1
  Si  Si2  1  0.21177200  0.21177200  0.71044900  1
  Si  Si3  1  0.78822800  0.78822800  0.28955100  1
  Si  Si4  1  0.19110000  0.19110000  0.34420300  1
  Si  Si5  1  0.80890000  0.80890000  0.65579700  1
loop_
_geom_bond_atom_site_label_1
_geom_bond_atom_site_label_2
_geom_bond_distance
_geom_bond_site_symmetry_2
Mg0 Mg3 2.951150 1_555
Mg0 Si2 2.957368 1_565
Mg0 Si2 2.957368 1_655
Mg0 Si1 3.000001 1_455
Mg0 Si1 3.000001 1_545
Mg0 Si0 3.036153 1_565
Mg0 Si0 3.036153 1_655
Mg0 Si4 3.045306 1_655
Mg0 Si4 3.045306 1_565
Mg0 Mg2 3.192807 1_556
Mg1 Si2 2.773800 1_555
Mg1 Si3 2.803544 1_456
Mg1 Si3 2.803544 1_546
Mg1 Si5 2.941385 1_545
Mg1 Si5 2.941385 1_455
Mg1 Si1 3.046787 1_455
Mg1 Si1 3.046787 1_545
Mg1 Mg3 3.192807 1_556
Mg2 Si3 2.773800 1_555
Mg2 Si2 2.803544 1_654
Mg2 Si2 2.803544 1_564
Mg2 Si4 2.941385 1_565
Mg2 Si4 2.941385 1_655
Mg2 Si0 3.046787 1_565
Mg2 Si0 3.046787 1_655
Mg3 Si3 2.957368 1_545
Mg3 Si3 2.957368 1_455
Mg3 Si0 3.000001 1_655
Mg3 Si0 3.000001 1_565
Mg3 Si1 3.036153 1_455
Mg3 Si1 3.036153 1_545
Mg3 Si5 3.045306 1_455
Mg3 Si5 3.045306 1_545
Al0 Si1 2.625407 1_544
Al0 Si1 2.625407 1_454
Al0 Si0 2.625407 1_565
Al0 Si0 2.625407 1_655
Al0 Mg1 2.745301 1_554
Al0 Mg2 2.745301 1_555
Al0 Mg3 2.988756 1_555
Al0 Mg0 2.988756 1_554
Si0 Si4 2.406474 1_555
Si1 Si5 2.406474 1_555
Si2 Si5 2.447743 1_545
Si2 Si5 2.447743 1_455
Si2 Si4 2.501751 1_555
Si3 Si4 2.447743 1_655
Si3 Si4 2.447743 1_565
Si3 Si5 2.501751 1_555
