# generated using pymatgen
data_Sc2Be2SnRh5
_symmetry_space_group_name_H-M   'P 1'
_cell_length_a   9.52457065
_cell_length_b   9.52457065
_cell_length_c   3.16234065
_cell_angle_alpha   90.00000000
_cell_angle_beta   90.00000000
_cell_angle_gamma   90.00000000
_symmetry_Int_Tables_number   1
_chemical_formula_structural   Sc2Be2SnRh5
_chemical_formula_sum   'Sc4 Be4 Sn2 Rh10'
_cell_volume   286.87946726
_cell_formula_units_Z   2
loop_
 _symmetry_equiv_pos_site_id
 _symmetry_equiv_pos_as_xyz
  1  'x, y, z'
loop_
 _atom_site_type_symbol
 _atom_site_label
 _atom_site_symmetry_multiplicity
 _atom_site_fract_x
 _atom_site_fract_y
 _atom_site_fract_z
 _atom_site_occupancy
  Sc  Sc0  1  0.82470022  0.32470022  0.00000000  1
  Sc  Sc1  1  0.32470022  0.17529978  0.00000000  1
  Sc  Sc2  1  0.67529978  0.82470022  0.00000000  1
  Sc  Sc3  1  0.17529978  0.67529978  0.00000000  1
  Be  Be0  1  0.62103687  0.12103687  0.00000000  1
  Be  Be1  1  0.12103687  0.37896313  0.00000000  1
  Be  Be2  1  0.87896313  0.62103687  0.00000000  1
  Be  Be3  1  0.37896313  0.87896313  0.00000000  1
  Sn  Sn0  1  0.00000000  0.00000000  0.00000000  1
  Sn  Sn1  1  0.50000000  0.50000000  0.00000000  1
  Rh  Rh0  1  0.07051369  0.21590473  0.50000000  1
  Rh  Rh1  1  0.21590473  0.92948631  0.50000000  1
  Rh  Rh2  1  0.78409527  0.07051369  0.50000000  1
  Rh  Rh3  1  0.92948631  0.78409527  0.50000000  1
  Rh  Rh4  1  0.42948631  0.71590473  0.50000000  1
  Rh  Rh5  1  0.57051369  0.28409527  0.50000000  1
  Rh  Rh6  1  0.71590473  0.57051369  0.50000000  1
  Rh  Rh7  1  0.28409527  0.42948631  0.50000000  1
  Rh  Rh8  1  0.50000000  0.00000000  0.50000000  1
  Rh  Rh9  1  0.00000000  0.50000000  0.50000000  1
loop_
_geom_bond_atom_site_label_1
_geom_bond_atom_site_label_2
_geom_bond_distance
_geom_bond_site_symmetry_2
Be0 Rh5 2.267965 1_554
Be0 Rh5 2.267965 1_555
Be0 Rh2 2.267965 1_554
Be0 Rh2 2.267965 1_555
Be0 Rh8 2.271147 1_555
Be0 Rh8 2.271147 1_554
Be0 Sc0 2.743300 1_555
Be0 Sc2 2.869408 1_545
Be0 Sc1 2.869408 1_555
Be1 Rh0 2.267965 1_555
Be1 Rh0 2.267965 1_554
Be1 Rh7 2.267965 1_555
Be1 Rh7 2.267965 1_554
Be1 Rh9 2.271147 1_554
Be1 Rh9 2.271147 1_555
Be1 Sc1 2.743300 1_555
Be1 Sc0 2.869408 1_455
Be1 Sc3 2.869408 1_555
Be2 Rh6 2.267965 1_555
Be2 Rh6 2.267965 1_554
Be2 Rh3 2.267965 1_555
Be2 Rh3 2.267965 1_554
Be2 Rh9 2.271147 1_655
Be2 Rh9 2.271147 1_654
Be2 Sc2 2.743300 1_555
Be2 Sc0 2.869408 1_555
Be2 Sc3 2.869408 1_655
Be3 Rh1 2.267965 1_554
Be3 Rh1 2.267965 1_555
Be3 Rh4 2.267965 1_555
Be3 Rh4 2.267965 1_554
Be3 Rh8 2.271147 1_565
Be3 Rh8 2.271147 1_564
Be3 Sc3 2.743300 1_555
Be3 Sc1 2.869408 1_565
Be3 Sc2 2.869408 1_555
Rh0 Sn0 2.679542 1_556
Rh0 Sn0 2.679542 1_555
Rh0 Sc1 2.917361 1_556
Rh0 Sc1 2.917361 1_555
Rh0 Sc0 3.009220 1_455
Rh0 Sc0 3.009220 1_456
Rh1 Sn0 2.679542 1_566
Rh1 Sn0 2.679542 1_565
Rh1 Sc3 2.917361 1_556
Rh1 Sc3 2.917361 1_555
Rh1 Sc1 3.009220 1_566
Rh1 Sc1 3.009220 1_565
Rh2 Sn0 2.679542 1_655
Rh2 Sn0 2.679542 1_656
Rh2 Sc0 2.917361 1_555
Rh2 Sc0 2.917361 1_556
Rh2 Sc2 3.009220 1_546
Rh2 Sc2 3.009220 1_545
Rh3 Sn0 2.679542 1_665
Rh3 Sn0 2.679542 1_666
Rh3 Sc2 2.917361 1_556
Rh3 Sc2 2.917361 1_555
Rh3 Sc3 3.009220 1_656
Rh3 Sc3 3.009220 1_655
Rh4 Sn1 2.679542 1_555
Rh4 Sn1 2.679542 1_556
Rh4 Sc3 2.917361 1_555
Rh4 Sc3 2.917361 1_556
Rh4 Sc2 3.009220 1_556
Rh4 Sc2 3.009220 1_555
Rh5 Sn1 2.679542 1_556
Rh5 Sn1 2.679542 1_555
Rh5 Sc0 2.917361 1_555
Rh5 Sc0 2.917361 1_556
Rh5 Sc1 3.009220 1_555
Rh5 Sc1 3.009220 1_556
Rh6 Sn1 2.679542 1_556
Rh6 Sn1 2.679542 1_555
Rh6 Sc2 2.917361 1_556
Rh6 Sc2 2.917361 1_555
Rh6 Sc0 3.009220 1_555
Rh6 Sc0 3.009220 1_556
Rh7 Sn1 2.679542 1_556
Rh7 Sn1 2.679542 1_555
Rh7 Sc1 2.917361 1_555
Rh7 Sc1 2.917361 1_556
Rh7 Sc3 3.009220 1_556
Rh7 Sc3 3.009220 1_555
Rh8 Sc2 2.841759 1_546
Rh8 Sc2 2.841759 1_545
Rh8 Sc1 2.841759 1_555
Rh8 Sc1 2.841759 1_556
Rh9 Sc0 2.841759 1_456
Rh9 Sc0 2.841759 1_455
Rh9 Sc3 2.841759 1_556
Rh9 Sc3 2.841759 1_555
