# generated using pymatgen
data_Re3Tc(MoSe4)2
_symmetry_space_group_name_H-M   'P 1'
_cell_length_a   6.72248660
_cell_length_b   6.72064623
_cell_length_c   6.74320739
_cell_angle_alpha   93.19116497
_cell_angle_beta   93.82913291
_cell_angle_gamma   93.74846895
_symmetry_Int_Tables_number   1
_chemical_formula_structural   Re3Tc(MoSe4)2
_chemical_formula_sum   'Re3 Tc1 Mo2 Se8'
_cell_volume   302.77213055
_cell_formula_units_Z   1
loop_
 _symmetry_equiv_pos_site_id
 _symmetry_equiv_pos_as_xyz
  1  'x, y, z'
loop_
 _atom_site_type_symbol
 _atom_site_label
 _atom_site_symmetry_multiplicity
 _atom_site_fract_x
 _atom_site_fract_y
 _atom_site_fract_z
 _atom_site_occupancy
  Re  Re0  1  0.45188617  0.58749434  0.76044724  1
  Re  Re1  1  0.76021477  0.45412238  0.58801174  1
  Re  Re2  1  0.58567659  0.76115381  0.45126614  1
  Tc  Tc0  1  0.54769267  0.41275792  0.24026193  1
  Mo  Mo0  1  0.23766742  0.54433006  0.41129182  1
  Mo  Mo1  1  0.41204618  0.23903003  0.54858399  1
  Se  Se0  1  0.78412958  0.78590739  0.78327420  1
  Se  Se1  1  0.21800124  0.21309137  0.21258211  1
  Se  Se2  1  0.27412697  0.87346221  0.62249226  1
  Se  Se3  1  0.62550196  0.27593580  0.87872378  1
  Se  Se4  1  0.87063668  0.62565874  0.27369007  1
  Se  Se5  1  0.73334172  0.12726735  0.37444969  1
  Se  Se6  1  0.37610405  0.72593903  0.12212472  1
  Se  Se7  1  0.12297398  0.37385258  0.73280229  1
loop_
_geom_bond_atom_site_label_1
_geom_bond_atom_site_label_2
_geom_bond_distance
_geom_bond_site_symmetry_2
Re0 Se0 2.516378 1_555
Re0 Se2 2.517517 1_555
Re0 Se7 2.546634 1_555
Re0 Se3 2.600721 1_555
Re0 Re1 2.626877 1_555
Re0 Re2 2.627139 1_555
Re0 Se6 2.654920 1_556
Re1 Se0 2.515862 1_555
Re1 Se3 2.540428 1_555
Re1 Se5 2.548148 1_555
Re1 Se4 2.596686 1_555
Re1 Se7 2.665317 1_655
Re2 Se4 2.519087 1_555
Re2 Se0 2.519982 1_555
Re2 Se6 2.539132 1_555
Re2 Se2 2.592671 1_555
Re2 Se5 2.683112 1_565
Mo0 Se1 2.524751 1_555
Mo0 Se2 2.552048 1_555
Mo0 Se6 2.552796 1_555
Mo0 Mo1 2.611943 1_555
Mo0 Tc0 2.627561 1_555
Mo0 Se7 2.644188 1_555
Mo0 Re2 2.663751 1_555
Mo0 Re0 2.667921 1_555
Mo0 Se4 2.678542 1_455
Mo1 Se1 2.529247 1_555
Mo1 Se3 2.557715 1_555
Mo1 Se7 2.562774 1_555
Mo1 Tc0 2.627085 1_555
Mo1 Se2 2.654115 1_545
Mo1 Se5 2.657224 1_555
Mo1 Re1 2.658994 1_555
Mo1 Re0 2.663014 1_555
Se1 Tc0 2.505132 1_555
Se3 Tc0 2.654479 1_556
Se4 Tc0 2.510745 1_555
Se5 Tc0 2.532434 1_555
Se6 Tc0 2.603204 1_555
