# generated using pymatgen
data_LaOF
_symmetry_space_group_name_H-M   'P 1'
_cell_length_a   4.07810967
_cell_length_b   4.07810967
_cell_length_c   4.07810967
_cell_angle_alpha   60.00000000
_cell_angle_beta   60.00000000
_cell_angle_gamma   60.00000000
_symmetry_Int_Tables_number   1
_chemical_formula_structural   LaOF
_chemical_formula_sum   'La1 O1 F1'
_cell_volume   47.95807071
_cell_formula_units_Z   1
loop_
 _symmetry_equiv_pos_site_id
 _symmetry_equiv_pos_as_xyz
  1  'x, y, z'
loop_
 _atom_site_type_symbol
 _atom_site_label
 _atom_site_symmetry_multiplicity
 _atom_site_fract_x
 _atom_site_fract_y
 _atom_site_fract_z
 _atom_site_occupancy
  La  La0  1  0.00000000  0.00000000  0.00000000  1
  O  O0  1  0.25000000  0.25000000  0.25000000  1
  F  F0  1  0.75000000  0.75000000  0.75000000  1
loop_
_geom_bond_atom_site_label_1
_geom_bond_atom_site_label_2
_geom_bond_distance
_geom_bond_site_symmetry_2
La0 O0 2.497322 1_554
La0 O0 2.497322 1_555
La0 O0 2.497322 1_545
La0 O0 2.497322 1_455
F0 La0 2.497322 1_566
F0 La0 2.497322 1_656
F0 La0 2.497322 1_665
F0 La0 2.497322 1_666
