# generated using pymatgen
data_BaCa(SbAu)2
_symmetry_space_group_name_H-M   'P 1'
_cell_length_a   4.72615526
_cell_length_b   4.72615500
_cell_length_c   8.78009521
_cell_angle_alpha   90.00000000
_cell_angle_beta   90.00000000
_cell_angle_gamma   119.99998826
_symmetry_Int_Tables_number   1
_chemical_formula_structural   BaCa(SbAu)2
_chemical_formula_sum   'Ba1 Ca1 Sb2 Au2'
_cell_volume   169.84229657
_cell_formula_units_Z   1
loop_
 _symmetry_equiv_pos_site_id
 _symmetry_equiv_pos_as_xyz
  1  'x, y, z'
loop_
 _atom_site_type_symbol
 _atom_site_label
 _atom_site_symmetry_multiplicity
 _atom_site_fract_x
 _atom_site_fract_y
 _atom_site_fract_z
 _atom_site_occupancy
  Ba  Ba0  1  0.00000000  0.00000000  0.50000000  1
  Ca  Ca0  1  0.00000000  0.00000000  0.00000000  1
  Sb  Sb0  1  0.66666700  0.33333300  0.23420778  1
  Sb  Sb1  1  0.33333300  0.66666700  0.76579222  1
  Au  Au0  1  0.33333300  0.66666700  0.20861375  1
  Au  Au1  1  0.66666700  0.33333300  0.79138625  1
loop_
_geom_bond_atom_site_label_1
_geom_bond_atom_site_label_2
_geom_bond_distance
_geom_bond_site_symmetry_2
Ba0 Sb1 3.590483 1_545
Ba0 Sb0 3.590483 1_455
Ba0 Sb1 3.590486 1_555
Ba0 Sb0 3.590486 1_445
Ba0 Sb1 3.590486 1_445
Ba0 Sb0 3.590486 1_555
Ca0 Sb0 3.416744 1_455
Ca0 Sb1 3.416744 1_544
Ca0 Sb0 3.416748 1_445
Ca0 Sb1 3.416748 1_554
Ca0 Sb0 3.416748 1_555
Ca0 Sb1 3.416748 1_444
Au0 Sb0 2.737882 1_565
Au0 Sb0 2.737882 1_455
Au0 Sb0 2.737890 1_555
Au0 Ca0 3.286402 1_565
Au0 Ca0 3.286405 1_555
Au0 Ca0 3.286405 1_665
Au0 Ba0 3.740442 1_565
Au0 Ba0 3.740445 1_555
Au0 Ba0 3.740445 1_665
Au1 Sb1 2.737882 1_545
Au1 Sb1 2.737882 1_655
Au1 Sb1 2.737890 1_555
Au1 Ca0 3.286402 1_656
Au1 Ca0 3.286405 1_666
Au1 Ca0 3.286405 1_556
Au1 Ba0 3.740442 1_655
Au1 Ba0 3.740445 1_665
Au1 Ba0 3.740445 1_555
