# generated using pymatgen
data_Sb14Mo5Pd
_symmetry_space_group_name_H-M   'P 1'
_cell_length_a   8.32632677
_cell_length_b   8.32632667
_cell_length_c   8.32632645
_cell_angle_alpha   109.82301963
_cell_angle_beta   109.82302408
_cell_angle_gamma   108.76988834
_symmetry_Int_Tables_number   1
_chemical_formula_structural   Sb14Mo5Pd
_chemical_formula_sum   'Sb14 Mo5 Pd1'
_cell_volume   444.31369040
_cell_formula_units_Z   1
loop_
 _symmetry_equiv_pos_site_id
 _symmetry_equiv_pos_as_xyz
  1  'x, y, z'
loop_
 _atom_site_type_symbol
 _atom_site_label
 _atom_site_symmetry_multiplicity
 _atom_site_fract_x
 _atom_site_fract_y
 _atom_site_fract_z
 _atom_site_occupancy
  Sb  Sb0  1  0.74783558  0.24783558  0.50000000  1
  Sb  Sb1  1  0.50945845  0.25391710  0.74445865  1
  Sb  Sb2  1  0.50945845  0.76499980  0.25554135  1
  Sb  Sb3  1  0.25391710  0.50945845  0.74445865  1
  Sb  Sb4  1  0.76499980  0.50945845  0.25554135  1
  Sb  Sb5  1  0.24783558  0.74783558  0.50000000  1
  Sb  Sb6  1  0.32421957  0.32421957  0.33097317  1
  Sb  Sb7  1  0.99889266  0.99889266  0.32418684  1
  Sb  Sb8  1  0.32421957  0.99324640  1.00000000  1
  Sb  Sb9  1  0.99324640  0.32421957  0.00000000  1
  Sb  Sb10  1  0.67470582  0.99889266  0.00000000  1
  Sb  Sb11  1  0.99889266  0.67470582  1.00000000  1
  Sb  Sb12  1  0.99324640  0.99324640  0.66902683  1
  Sb  Sb13  1  0.67470582  0.67470582  0.67581316  1
  Mo  Mo0  1  0.99863996  0.33911230  0.34047234  1
  Mo  Mo1  1  0.99863996  0.65816762  0.65952766  1
  Mo  Mo2  1  0.65816762  0.99863996  0.65952766  1
  Mo  Mo3  1  0.33911230  0.99863996  0.34047234  1
  Mo  Mo4  1  0.65106389  0.65106389  0.00000000  1
  Pd  Pd0  1  0.33874439  0.33874439  1.00000000  1
loop_
_geom_bond_atom_site_label_1
_geom_bond_atom_site_label_2
_geom_bond_distance
_geom_bond_site_symmetry_2
Sb6 Sb7 3.122274 1_445
Sb6 Sb9 3.168282 1_455
Sb6 Sb8 3.168282 1_544
Sb10 Sb8 2.903477 1_554
Sb10 Sb7 3.103319 1_555
Sb10 Sb13 3.103319 1_554
Sb10 Sb9 3.122274 1_565
Sb11 Sb9 2.903477 1_556
Sb11 Sb13 3.103319 1_555
Sb11 Sb7 3.103319 1_556
Sb11 Sb8 3.122274 1_655
Sb12 Sb7 2.903477 1_555
Sb12 Sb13 3.122274 1_555
Sb12 Sb8 3.168282 1_655
Sb12 Sb9 3.168282 1_566
Sb13 Sb6 2.903477 1_555
Mo0 Sb9 2.779498 1_555
Mo0 Sb6 2.779498 1_655
Mo0 Sb10 2.790437 1_545
Mo0 Sb7 2.790437 1_545
Mo0 Sb3 2.796275 1_655
Mo0 Sb4 2.796276 1_555
Mo0 Sb5 2.858636 1_655
Mo0 Sb0 2.871837 1_555
Mo1 Sb8 2.779498 1_655
Mo1 Sb12 2.779498 1_555
Mo1 Sb11 2.790437 1_555
Mo1 Sb13 2.790437 1_555
Mo1 Sb4 2.796275 1_555
Mo1 Sb3 2.796276 1_655
Mo1 Sb5 2.858636 1_655
Mo1 Sb0 2.871837 1_555
Mo2 Sb9 2.779498 1_566
Mo2 Sb12 2.779498 1_555
Mo2 Sb10 2.790437 1_556
Mo2 Sb13 2.790437 1_555
Mo2 Sb2 2.796275 1_555
Mo2 Sb1 2.796276 1_565
Mo2 Sb0 2.858636 1_565
Mo2 Sb5 2.871837 1_555
Mo3 Sb8 2.779498 1_554
Mo3 Sb6 2.779498 1_565
Mo3 Sb11 2.790437 1_454
Mo3 Sb7 2.790437 1_455
Mo3 Sb1 2.796275 1_565
Mo3 Sb2 2.796276 1_555
Mo3 Sb0 2.858636 1_565
Mo3 Sb5 2.871837 1_555
Mo4 Sb4 2.805283 1_555
Mo4 Sb3 2.805283 1_554
Mo4 Sb1 2.805283 1_554
Mo4 Sb2 2.805283 1_555
Mo4 Sb7 2.838920 1_555
Mo4 Sb13 2.838920 1_554
Mo4 Sb10 2.838921 1_555
Mo4 Sb11 2.838921 1_554
Mo4 Pd0 3.028703 1_554
Pd0 Sb12 2.840124 1_445
Pd0 Sb6 2.840124 1_556
Pd0 Sb8 2.840124 1_545
Pd0 Sb9 2.840124 1_456
Pd0 Sb3 2.953735 1_555
Pd0 Sb4 2.953735 1_556
Pd0 Sb2 2.953735 1_556
Pd0 Sb1 2.953736 1_555
