# generated using pymatgen
data_Na3LiH6Ru
_symmetry_space_group_name_H-M   'P 1'
_cell_length_a   6.18176269
_cell_length_b   6.18176274
_cell_length_c   6.18176236
_cell_angle_alpha   93.14492636
_cell_angle_beta   93.14492024
_cell_angle_gamma   93.14491688
_symmetry_Int_Tables_number   1
_chemical_formula_structural   Na3LiH6Ru
_chemical_formula_sum   'Na6 Li2 H12 Ru2'
_cell_volume   235.12292361
_cell_formula_units_Z   2
loop_
 _symmetry_equiv_pos_site_id
 _symmetry_equiv_pos_as_xyz
  1  'x, y, z'
loop_
 _atom_site_type_symbol
 _atom_site_label
 _atom_site_symmetry_multiplicity
 _atom_site_fract_x
 _atom_site_fract_y
 _atom_site_fract_z
 _atom_site_occupancy
  Na  Na0  1  0.88799831  0.61200169  0.25000000  1
  Na  Na1  1  0.25000000  0.88799831  0.61200169  1
  Na  Na2  1  0.61200169  0.25000000  0.88799831  1
  Na  Na3  1  0.75000000  0.11200169  0.38799831  1
  Na  Na4  1  0.38799831  0.75000000  0.11200169  1
  Na  Na5  1  0.11200169  0.38799831  0.75000000  1
  Li  Li0  1  0.25000000  0.25000000  0.25000000  1
  Li  Li1  1  0.75000000  0.75000000  0.75000000  1
  H  H0  1  0.23338542  0.53936831  0.42232743  1
  H  H1  1  0.42232743  0.23338542  0.53936831  1
  H  H2  1  0.53936831  0.42232743  0.23338542  1
  H  H3  1  0.92232743  0.03936831  0.73338542  1
  H  H4  1  0.73338542  0.92232743  0.03936831  1
  H  H5  1  0.03936831  0.73338542  0.92232743  1
  H  H6  1  0.76661458  0.46063169  0.57767257  1
  H  H7  1  0.57767257  0.76661458  0.46063169  1
  H  H8  1  0.46063169  0.57767257  0.76661458  1
  H  H9  1  0.07767257  0.96063169  0.26661458  1
  H  H10  1  0.26661458  0.07767257  0.96063169  1
  H  H11  1  0.96063169  0.26661458  0.07767257  1
  Ru  Ru0  1  0.50000000  0.50000000  0.50000000  1
  Ru  Ru1  1  0.00000000  0.00000000  0.00000000  1
loop_
_geom_bond_atom_site_label_1
_geom_bond_atom_site_label_2
_geom_bond_distance
_geom_bond_site_symmetry_2
H0 Ru0 1.725157 1_555
H0 Li0 2.041639 1_555
H0 Na1 2.390659 1_555
H0 Na0 2.408984 1_455
H0 Na5 2.416481 1_555
H0 Na4 2.574437 1_555
H1 Ru0 1.725157 1_555
H1 Li0 2.041639 1_555
H1 Na2 2.390659 1_555
H1 Na1 2.408984 1_545
H1 Na3 2.416481 1_555
H1 Na5 2.574436 1_555
H2 Ru0 1.725157 1_555
H2 Li0 2.041639 1_555
H2 Na0 2.390659 1_555
H2 Na2 2.408983 1_554
H2 Na4 2.416481 1_555
H2 Na3 2.574437 1_555
H3 Ru1 1.725157 1_656
H3 Li1 2.041639 1_545
H3 Na5 2.390659 1_655
H3 Na3 2.408984 1_555
H3 Na1 2.416481 1_645
H3 Na2 2.574436 1_555
H4 Ru1 1.725157 1_665
H4 Li1 2.041639 1_554
H4 Na3 2.390659 1_565
H4 Na4 2.408984 1_555
H4 Na2 2.416481 1_564
H4 Na0 2.574437 1_555
H5 Ru1 1.725157 1_566
H5 Li1 2.041639 1_455
H5 Na4 2.390659 1_556
H5 Na5 2.408983 1_555
H5 Na0 2.416481 1_456
H5 Na1 2.574437 1_555
H6 Ru0 1.725157 1_555
H6 Li1 2.041639 1_555
H6 Na3 2.390659 1_555
H6 Na5 2.408984 1_655
H6 Na0 2.416481 1_555
H6 Na2 2.574437 1_555
H7 Ru0 1.725157 1_555
H7 Li1 2.041639 1_555
H7 Na4 2.390659 1_555
H7 Na3 2.408984 1_565
H7 Na1 2.416481 1_555
H7 Na0 2.574436 1_555
H8 Ru0 1.725157 1_555
H8 Li1 2.041639 1_555
H8 Na5 2.390659 1_555
H8 Na4 2.408983 1_556
H8 Na2 2.416481 1_555
H8 Na1 2.574437 1_555
H9 Ru1 1.725157 1_565
H9 Li0 2.041639 1_565
H9 Na0 2.390659 1_455
H9 Na1 2.408984 1_555
H9 Na3 2.416481 1_465
H9 Na4 2.574436 1_555
H10 Ru1 1.725157 1_556
H10 Li0 2.041639 1_556
H10 Na1 2.390659 1_545
H10 Na2 2.408984 1_555
H10 Na4 2.416481 1_546
H10 Na5 2.574437 1_555
H11 Ru1 1.725157 1_655
H11 Li0 2.041639 1_655
H11 Na2 2.390659 1_554
H11 Na0 2.408983 1_555
H11 Na5 2.416481 1_654
H11 Na3 2.574437 1_555
