# generated using pymatgen
data_RbZr(RhSe2)4
_symmetry_space_group_name_H-M   'P 1'
_cell_length_a   9.52536490
_cell_length_b   9.52536493
_cell_length_c   8.98517801
_cell_angle_alpha   76.35904355
_cell_angle_beta   76.35904314
_cell_angle_gamma   22.59334854
_symmetry_Int_Tables_number   1
_chemical_formula_structural   RbZr(RhSe2)4
_chemical_formula_sum   'Rb1 Zr1 Rh4 Se8'
_cell_volume   304.01610023
_cell_formula_units_Z   1
loop_
 _symmetry_equiv_pos_site_id
 _symmetry_equiv_pos_as_xyz
  1  'x, y, z'
loop_
 _atom_site_type_symbol
 _atom_site_label
 _atom_site_symmetry_multiplicity
 _atom_site_fract_x
 _atom_site_fract_y
 _atom_site_fract_z
 _atom_site_occupancy
  Rb  Rb0  1  0.48350687  0.48350687  0.51008818  1
  Zr  Zr0  1  0.64247031  0.64247031  0.01650126  1
  Rh  Rh0  1  0.01013963  0.01013963  0.99826372  1
  Rh  Rh1  1  0.34344265  0.34344265  0.98089549  1
  Rh  Rh2  1  0.30136126  0.30136126  0.32646802  1
  Rh  Rh3  1  0.70779351  0.70779351  0.67201961  1
  Se  Se0  1  0.43183853  0.43183853  0.14501196  1
  Se  Se1  1  0.91545753  0.91545753  0.84395863  1
  Se  Se2  1  0.82897113  0.82897113  0.48336953  1
  Se  Se3  1  0.76497124  0.76497124  0.15234974  1
  Se  Se4  1  0.23985381  0.23985381  0.84076004  1
  Se  Se5  1  0.17867427  0.17867427  0.51164989  1
  Se  Se6  1  0.08144117  0.08144117  0.20982858  1
  Se  Se7  1  0.57007807  0.57007807  0.80883535  1
loop_
_geom_bond_atom_site_label_1
_geom_bond_atom_site_label_2
_geom_bond_distance
_geom_bond_site_symmetry_2
Rb0 Se6 3.425405 1_655
Rb0 Se6 3.425405 1_565
Rb0 Se7 3.450972 1_555
Rb0 Se2 3.493896 1_455
Rb0 Se2 3.493896 1_545
Rb0 Se1 3.501820 1_455
Rb0 Se1 3.501820 1_545
Rb0 Se0 3.635226 1_555
Rh0 Se1 2.496110 1_445
Rh0 Se0 2.536193 1_456
Rh0 Se0 2.536193 1_546
Rh0 Se6 2.570182 1_556
Rh0 Se7 2.591474 1_545
Rh0 Se7 2.591475 1_455
Rh0 Zr0 3.132874 1_546
Rh0 Zr0 3.132874 1_456
Rh1 Se1 2.451391 1_545
Rh1 Se1 2.451391 1_455
Rh1 Se0 2.464313 1_556
Rh1 Se4 2.550002 1_555
Rh1 Se3 2.630159 1_456
Rh1 Se3 2.630159 1_546
Rh2 Se2 2.466770 1_455
Rh2 Se2 2.466770 1_545
Rh2 Se5 2.487458 1_555
Rh2 Se0 2.586165 1_555
Rh2 Se3 2.627354 1_545
Rh2 Se3 2.627354 1_455
Rh3 Se2 2.480382 1_555
Rh3 Se5 2.496187 1_655
Rh3 Se5 2.496187 1_565
Rh3 Se4 2.564353 1_565
Rh3 Se4 2.564353 1_655
Rh3 Se7 2.570800 1_555
Rh3 Zr0 3.041851 1_556
Se3 Zr0 2.840924 1_555
Se4 Zr0 2.811246 1_456
Se4 Zr0 2.811247 1_546
Se6 Zr0 2.616558 1_545
Se6 Zr0 2.616558 1_455
Se7 Zr0 2.554293 1_556
