# generated using pymatgen
data_Hf16Co5TcPt2
_symmetry_space_group_name_H-M   'P 1'
_cell_length_a   8.50151505
_cell_length_b   8.50151521
_cell_length_c   8.55662842
_cell_angle_alpha   60.23039743
_cell_angle_beta   60.23040039
_cell_angle_gamma   60.10565995
_symmetry_Int_Tables_number   1
_chemical_formula_structural   Hf16Co5TcPt2
_chemical_formula_sum   'Hf16 Co5 Tc1 Pt2'
_cell_volume   439.16933450
_cell_formula_units_Z   1
loop_
 _symmetry_equiv_pos_site_id
 _symmetry_equiv_pos_as_xyz
  1  'x, y, z'
loop_
 _atom_site_type_symbol
 _atom_site_label
 _atom_site_symmetry_multiplicity
 _atom_site_fract_x
 _atom_site_fract_y
 _atom_site_fract_z
 _atom_site_occupancy
  Hf  Hf0  1  0.06246280  0.64511774  0.64603700  1
  Hf  Hf1  1  0.64511774  0.06246280  0.64603700  1
  Hf  Hf2  1  0.63980893  0.63980893  0.07731825  1
  Hf  Hf3  1  0.64504754  0.64504754  0.64511927  1
  Hf  Hf4  1  0.80482250  0.80482250  0.19486015  1
  Hf  Hf5  1  0.19817468  0.19817468  0.80332603  1
  Hf  Hf6  1  0.80356392  0.19472604  0.80726722  1
  Hf  Hf7  1  0.19492608  0.80469515  0.19462966  1
  Hf  Hf8  1  0.19472604  0.80356392  0.80726722  1
  Hf  Hf9  1  0.80469515  0.19492608  0.19462966  1
  Hf  Hf10  1  0.43833985  0.43833985  0.05746802  1
  Hf  Hf11  1  0.06419804  0.06419804  0.43582040  1
  Hf  Hf12  1  0.43765346  0.07257379  0.43530226  1
  Hf  Hf13  1  0.07109674  0.43806662  0.05406296  1
  Hf  Hf14  1  0.07257379  0.43765346  0.43530226  1
  Hf  Hf15  1  0.43806662  0.07109674  0.05406296  1
  Co  Co0  1  0.41038572  0.41038572  0.41940103  1
  Co  Co1  1  0.43001301  0.85313302  0.86147530  1
  Co  Co2  1  0.85313302  0.43001301  0.86147530  1
  Co  Co3  1  0.85764955  0.85764955  0.42546096  1
  Co  Co4  1  0.85380856  0.85380856  0.86233574  1
  Tc  Tc0  1  0.41596306  0.41596306  0.74635934  1
  Pt  Pt0  1  0.75235978  0.41141439  0.41749051  1
  Pt  Pt1  1  0.41141439  0.75235978  0.41749051  1
loop_
_geom_bond_atom_site_label_1
_geom_bond_atom_site_label_2
_geom_bond_distance
_geom_bond_site_symmetry_2
Hf0 Pt1 2.936139 1_555
Hf0 Tc0 2.937521 1_555
Hf0 Hf14 3.036915 1_555
Hf0 Hf13 3.052239 1_556
Hf0 Hf11 3.097014 1_565
Hf0 Hf5 3.110309 1_555
Hf0 Hf8 3.142891 1_555
Hf0 Hf7 3.166657 1_555
Hf1 Pt0 2.936139 1_555
Hf1 Tc0 2.937521 1_555
Hf1 Hf12 3.036915 1_555
Hf1 Hf15 3.052239 1_556
Hf1 Hf11 3.097014 1_655
Hf1 Hf5 3.110309 1_555
Hf1 Hf6 3.142891 1_555
Hf1 Hf9 3.166657 1_555
Hf2 Pt0 2.908519 1_555
Hf2 Pt1 2.908519 1_555
Hf2 Hf9 3.101590 1_555
Hf2 Hf7 3.101590 1_555
Hf2 Hf4 3.116341 1_555
Hf3 Tc0 2.960848 1_555
Hf3 Pt1 2.973544 1_555
Hf3 Pt0 2.973544 1_555
Hf3 Hf6 3.136418 1_555
Hf3 Hf8 3.136418 1_555
Hf3 Hf4 3.158970 1_555
Hf4 Pt0 3.054557 1_555
Hf4 Pt1 3.054557 1_555
Hf5 Tc0 2.952745 1_555
Hf5 Hf6 3.352808 1_455
Hf5 Hf8 3.352809 1_545
Hf5 Hf7 3.358508 1_546
Hf5 Hf9 3.358508 1_456
Hf6 Tc0 3.036697 1_555
Hf6 Pt0 3.041007 1_555
Hf7 Pt1 3.008012 1_555
Hf8 Tc0 3.036697 1_555
Hf8 Pt1 3.041007 1_555
Hf9 Pt0 3.008012 1_555
Hf10 Tc0 2.863685 1_554
Hf10 Hf3 3.064213 1_554
Hf10 Hf2 3.065653 1_555
Hf10 Hf13 3.137855 1_555
Hf10 Hf15 3.137855 1_555
Hf10 Hf8 3.147295 1_554
Hf10 Hf6 3.147296 1_554
Hf10 Hf12 3.184008 1_555
Hf10 Hf14 3.184008 1_555
Hf10 Hf9 3.186508 1_555
Hf10 Hf7 3.186508 1_555
Hf11 Pt0 2.814055 1_455
Hf11 Pt1 2.814055 1_545
Hf11 Hf9 3.187649 1_455
Hf11 Hf7 3.187649 1_545
Hf11 Hf12 3.208797 1_555
Hf11 Hf14 3.208797 1_555
Hf11 Hf8 3.209501 1_545
Hf11 Hf6 3.209501 1_455
Hf11 Hf13 3.234464 1_555
Hf11 Hf15 3.234464 1_555
Hf12 Pt1 2.921477 1_545
Hf12 Hf14 3.108686 1_555
Hf12 Hf9 3.128403 1_555
Hf12 Hf3 3.133371 1_545
Hf12 Hf5 3.163420 1_555
Hf12 Hf4 3.216911 1_545
Hf12 Hf8 3.252404 1_545
Hf12 Hf15 3.266630 1_555
Hf13 Tc0 2.800007 1_554
Hf13 Pt0 2.934099 1_455
Hf13 Hf8 3.123250 1_554
Hf13 Hf15 3.124781 1_555
Hf13 Hf2 3.125862 1_455
Hf13 Hf5 3.126751 1_554
Hf13 Hf4 3.206863 1_455
Hf13 Hf9 3.215808 1_455
Hf13 Hf14 3.266630 1_555
Hf14 Pt0 2.921477 1_455
Hf14 Hf7 3.128403 1_555
Hf14 Hf3 3.133371 1_455
Hf14 Hf5 3.163420 1_555
Hf14 Hf4 3.216911 1_455
Hf14 Hf6 3.252404 1_455
Hf15 Tc0 2.800006 1_554
Hf15 Pt1 2.934099 1_545
Hf15 Hf6 3.123250 1_554
Hf15 Hf2 3.125862 1_545
Hf15 Hf5 3.126751 1_554
Hf15 Hf4 3.206863 1_545
Hf15 Hf7 3.215808 1_545
Co0 Hf14 2.701814 1_555
Co0 Hf12 2.701814 1_555
Co0 Tc0 2.845540 1_555
Co0 Hf10 2.880710 1_555
Co0 Pt0 2.903572 1_555
Co0 Pt1 2.903572 1_555
Co0 Hf2 2.937642 1_555
Co0 Hf1 2.958899 1_555
Co0 Hf0 2.958899 1_555
Co0 Hf5 2.962304 1_555
Co0 Hf7 3.044172 1_555
Co0 Hf9 3.044173 1_555
Co1 Hf7 2.507463 1_556
Co1 Hf8 2.519846 1_555
Co1 Hf5 2.549189 1_565
Co1 Hf1 2.558940 1_565
Co1 Hf3 2.562512 1_555
Co1 Hf2 2.569414 1_556
Co1 Hf10 3.041248 1_556
Co1 Hf15 3.069979 1_566
Co1 Hf12 3.148383 1_565
Co2 Hf9 2.507463 1_556
Co2 Hf6 2.519846 1_555
Co2 Hf5 2.549189 1_655
Co2 Hf0 2.558940 1_655
Co2 Hf3 2.562512 1_555
Co2 Hf2 2.569414 1_556
Co2 Hf10 3.041248 1_556
Co2 Hf13 3.069979 1_656
Co2 Hf14 3.148383 1_655
Co3 Hf4 2.501562 1_555
Co3 Hf9 2.509564 1_565
Co3 Hf7 2.509565 1_655
Co3 Hf3 2.564334 1_555
Co3 Hf0 2.568992 1_655
Co3 Hf1 2.568992 1_565
Co3 Hf12 3.073404 1_565
Co3 Hf14 3.073404 1_655
Co3 Hf11 3.091518 1_665
Co4 Hf4 2.502412 1_556
Co4 Hf8 2.532658 1_655
Co4 Hf6 2.532658 1_565
Co4 Hf1 2.565782 1_565
Co4 Hf0 2.565782 1_655
Co4 Hf2 2.579993 1_556
Co4 Hf13 3.056023 1_656
Co4 Hf15 3.056023 1_566
Co4 Hf11 3.153120 1_665
Pt0 Tc0 2.846975 1_555
Pt0 Pt1 2.903180 1_555
Pt1 Tc0 2.846975 1_555
