# generated using pymatgen
data_Rb2VFeS4
_symmetry_space_group_name_H-M   'P 1'
_cell_length_a   13.66481594
_cell_length_b   12.21001269
_cell_length_c   7.25578480
_cell_angle_alpha   85.14255013
_cell_angle_beta   62.91441601
_cell_angle_gamma   31.94304275
_symmetry_Int_Tables_number   1
_chemical_formula_structural   Rb2VFeS4
_chemical_formula_sum   'Rb4 V2 Fe2 S8'
_cell_volume   437.94641322
_cell_formula_units_Z   2
loop_
 _symmetry_equiv_pos_site_id
 _symmetry_equiv_pos_as_xyz
  1  'x, y, z'
loop_
 _atom_site_type_symbol
 _atom_site_label
 _atom_site_symmetry_multiplicity
 _atom_site_fract_x
 _atom_site_fract_y
 _atom_site_fract_z
 _atom_site_occupancy
  Rb  Rb0  1  0.57309417  0.57309417  0.92690583  1
  Rb  Rb1  1  0.92690583  0.92690583  0.57309417  1
  Rb  Rb2  1  0.32309417  0.32309417  0.67690583  1
  Rb  Rb3  1  0.67690583  0.67690583  0.32309417  1
  V  V0  1  0.75000000  0.75000000  0.75000000  1
  V  V1  1  0.50000000  0.50000000  0.50000000  1
  Fe  Fe0  1  0.00000000  0.00000000  0.00000000  1
  Fe  Fe1  1  0.25000000  0.25000000  0.25000000  1
  S  S0  1  0.21813439  0.88593423  0.59395712  1
  S  S1  1  0.30197426  0.59395712  0.88593423  1
  S  S2  1  0.59395712  0.30197426  0.21813439  1
  S  S3  1  0.88593423  0.21813439  0.30197426  1
  S  S4  1  0.36406577  0.03186561  0.94802574  1
  S  S5  1  0.94802574  0.65604288  0.36406577  1
  S  S6  1  0.65604288  0.94802574  0.03186561  1
  S  S7  1  0.03186561  0.36406577  0.65604288  1
loop_
_geom_bond_atom_site_label_1
_geom_bond_atom_site_label_2
_geom_bond_distance
_geom_bond_site_symmetry_2
Rb0 S3 3.442594 1_555
Rb0 S0 3.442594 1_556
Rb0 S7 3.486030 1_655
Rb0 S4 3.486030 1_565
Rb0 S0 3.529145 1_645
Rb0 S3 3.529145 1_466
Rb0 S1 3.642428 1_555
Rb0 S2 3.642428 1_556
Rb1 S2 3.442594 1_655
Rb1 S1 3.442594 1_565
Rb1 S5 3.486030 1_555
Rb1 S6 3.486030 1_556
Rb1 S2 3.529144 1_566
Rb1 S1 3.529144 1_654
Rb1 S0 3.642428 1_655
Rb1 S3 3.642428 1_565
Rb2 S6 3.442594 1_456
Rb2 S5 3.442594 1_545
Rb2 S1 3.486030 1_555
Rb2 S2 3.486030 1_555
Rb2 S6 3.529144 1_545
Rb2 S5 3.529144 1_456
Rb2 S7 3.642428 1_555
Rb2 S4 3.642428 1_555
Rb3 S4 3.442594 1_565
Rb3 S7 3.442594 1_654
Rb3 S0 3.486030 1_555
Rb3 S3 3.486030 1_555
Rb3 S7 3.529145 1_565
Rb3 S4 3.529145 1_654
Rb3 S5 3.642428 1_555
Rb3 S6 3.642428 1_555
Fe0 S3 2.270849 1_455
Fe0 S0 2.270849 1_544
Fe0 S2 2.270849 1_455
Fe0 S1 2.270849 1_544
Fe1 S4 2.270849 1_554
Fe1 S7 2.270849 1_555
Fe1 S6 2.270849 1_545
Fe1 S5 2.270849 1_455
S0 V1 2.203418 1_555
S1 V1 2.203418 1_555
S2 V1 2.203418 1_555
S3 V1 2.203418 1_555
S4 V0 2.203418 1_545
S5 V0 2.203418 1_555
S6 V0 2.203418 1_554
S7 V0 2.203418 1_455
