# generated using pymatgen
data_ZrMoSeO8
_symmetry_space_group_name_H-M   'P 1'
_cell_length_a   5.71534235
_cell_length_b   5.71535523
_cell_length_c   6.11645247
_cell_angle_alpha   89.99999809
_cell_angle_beta   89.99993924
_cell_angle_gamma   120.00019011
_symmetry_Int_Tables_number   1
_chemical_formula_structural   ZrMoSeO8
_chemical_formula_sum   'Zr1 Mo1 Se1 O8'
_cell_volume   173.02740059
_cell_formula_units_Z   1
loop_
 _symmetry_equiv_pos_site_id
 _symmetry_equiv_pos_as_xyz
  1  'x, y, z'
loop_
 _atom_site_type_symbol
 _atom_site_label
 _atom_site_symmetry_multiplicity
 _atom_site_fract_x
 _atom_site_fract_y
 _atom_site_fract_z
 _atom_site_occupancy
  Zr  Zr0  1  0.99999900  1.00000000  0.99166147  1
  Mo  Mo0  1  0.33333000  0.66666500  0.29604430  1
  Se  Se0  1  0.66666700  0.33333300  0.70361199  1
  O  O0  1  0.33333300  0.66666700  0.57278266  1
  O  O1  1  0.66666900  0.33333400  0.44096869  1
  O  O2  1  0.67047560  0.83523730  0.19323340  1
  O  O3  1  0.16476270  0.83523930  0.19323140  1
  O  O4  1  0.16476170  0.32952239  0.19323240  1
  O  O5  1  0.35595030  0.17797515  0.80507857  1
  O  O6  1  0.82202485  0.17797515  0.80507857  1
  O  O7  1  0.82202485  0.64404970  0.80507857  1
loop_
_geom_bond_atom_site_label_1
_geom_bond_atom_site_label_2
_geom_bond_distance
_geom_bond_site_symmetry_2
Mo0 O0 1.692657 1_555
Mo0 O4 1.783287 1_555
Mo0 O3 1.783288 1_555
Mo0 O2 1.783294 1_555
O1 Se0 1.606445 1_555
O2 Zr0 2.044569 1_554
O3 Zr0 2.044573 1_454
O4 Zr0 2.044567 1_444
O5 Se0 1.658430 1_555
O5 Zr0 2.099146 1_445
O6 Se0 1.658432 1_555
O6 Zr0 2.099146 1_545
O7 Se0 1.658435 1_555
O7 Zr0 2.099147 1_555
