# generated using pymatgen
data_K3Bi2SbTe6
_symmetry_space_group_name_H-M   'P 1'
_cell_length_a   7.84825938
_cell_length_b   7.84826084
_cell_length_c   8.67223104
_cell_angle_alpha   81.28782935
_cell_angle_beta   81.28783275
_cell_angle_gamma   119.94802332
_symmetry_Int_Tables_number   1
_chemical_formula_structural   K3Bi2SbTe6
_chemical_formula_sum   'K3 Bi2 Sb1 Te6'
_cell_volume   441.13038157
_cell_formula_units_Z   1
loop_
 _symmetry_equiv_pos_site_id
 _symmetry_equiv_pos_as_xyz
  1  'x, y, z'
loop_
 _atom_site_type_symbol
 _atom_site_label
 _atom_site_symmetry_multiplicity
 _atom_site_fract_x
 _atom_site_fract_y
 _atom_site_fract_z
 _atom_site_occupancy
  K  K0  1  0.66773733  0.33226267  0.50000000  1
  K  K1  1  0.33226267  0.66773733  0.50000000  1
  K  K2  1  0.00000000  0.00000000  0.50000000  1
  Bi  Bi0  1  0.83349501  0.16650499  0.00000000  1
  Bi  Bi1  1  0.16650499  0.83349501  0.00000000  1
  Sb  Sb0  1  0.50000000  0.50000000  0.00000000  1
  Te  Te0  1  0.75750761  0.75750761  0.21140295  1
  Te  Te1  1  0.24249239  0.24249239  0.78859705  1
  Te  Te2  1  0.42927781  0.10150996  0.21135380  1
  Te  Te3  1  0.57072219  0.89849004  0.78864620  1
  Te  Te4  1  0.89849004  0.57072219  0.78864620  1
  Te  Te5  1  0.10150996  0.42927781  0.21135380  1
loop_
_geom_bond_atom_site_label_1
_geom_bond_atom_site_label_2
_geom_bond_distance
_geom_bond_site_symmetry_2
K0 Te2 3.529426 1_555
K0 Te4 3.529426 1_555
K0 Te1 3.533621 1_555
K0 Te0 3.533621 1_555
K0 Te5 3.562083 1_655
K0 Te3 3.562083 1_545
K1 Te3 3.529426 1_555
K1 Te5 3.529426 1_555
K1 Te0 3.533621 1_555
K1 Te1 3.533621 1_555
K1 Te4 3.562083 1_455
K1 Te2 3.562083 1_565
K2 Te3 3.523153 1_445
K2 Te2 3.523153 1_555
K2 Te4 3.523154 1_445
K2 Te5 3.523154 1_555
K2 Te1 3.574558 1_555
K2 Te0 3.574558 1_445
Bi0 Te1 3.161498 1_654
Bi0 Te0 3.161499 1_545
Bi0 Te5 3.165301 1_655
Bi0 Te3 3.165301 1_544
Bi0 Te2 3.165981 1_555
Bi0 Te4 3.165981 1_554
Bi1 Te0 3.161498 1_455
Bi1 Te1 3.161499 1_564
Bi1 Te4 3.165301 1_454
Bi1 Te2 3.165301 1_565
Bi1 Te3 3.165981 1_554
Bi1 Te5 3.165981 1_555
Sb0 Te4 3.109772 1_554
Sb0 Te5 3.109772 1_555
Sb0 Te2 3.109773 1_555
Sb0 Te3 3.109773 1_554
Sb0 Te0 3.113970 1_555
Sb0 Te1 3.113970 1_554
