# generated using pymatgen
data_BaCrP3N5O2
_symmetry_space_group_name_H-M   'P 1'
_cell_length_a   6.78117440
_cell_length_b   7.20495155
_cell_length_c   14.17356893
_cell_angle_alpha   60.05284975
_cell_angle_beta   90.00000000
_cell_angle_gamma   90.00000000
_symmetry_Int_Tables_number   1
_chemical_formula_structural   BaCrP3N5O2
_chemical_formula_sum   'Ba4 Cr4 P12 N20 O8'
_cell_volume   600.03539169
_cell_formula_units_Z   4
loop_
 _symmetry_equiv_pos_site_id
 _symmetry_equiv_pos_as_xyz
  1  'x, y, z'
loop_
 _atom_site_type_symbol
 _atom_site_label
 _atom_site_symmetry_multiplicity
 _atom_site_fract_x
 _atom_site_fract_y
 _atom_site_fract_z
 _atom_site_occupancy
  Ba  Ba0  1  0.75668037  0.50022048  0.61651752  1
  Ba  Ba1  1  0.25668037  0.49977952  0.88348248  1
  Ba  Ba2  1  0.24331963  0.49977952  0.38348248  1
  Ba  Ba3  1  0.74331963  0.50022048  0.11651752  1
  Cr  Cr0  1  0.47825547  0.97054727  0.87386352  1
  Cr  Cr1  1  0.97825547  0.02945273  0.62613648  1
  Cr  Cr2  1  0.52174453  0.02945273  0.12613648  1
  Cr  Cr3  1  0.02174453  0.97054727  0.37386352  1
  P  P0  1  0.00498230  0.96521588  0.87352410  1
  P  P1  1  0.50498230  0.03478412  0.62647590  1
  P  P2  1  0.99501770  0.03478412  0.12647590  1
  P  P3  1  0.49501770  0.96521588  0.37352410  1
  P  P4  1  0.28866146  0.74177351  0.58366402  1
  P  P5  1  0.78866146  0.25822649  0.91633598  1
  P  P6  1  0.71133854  0.25822649  0.41633598  1
  P  P7  1  0.21133854  0.74177351  0.08366402  1
  P  P8  1  0.76951565  0.72513382  0.79702447  1
  P  P9  1  0.26951565  0.27486618  0.70297553  1
  P  P10  1  0.23048435  0.27486618  0.20297553  1
  P  P11  1  0.73048435  0.72513382  0.29702447  1
  N  N0  1  0.30551243  0.90843103  0.62930599  1
  N  N1  1  0.80551243  0.09156897  0.87069401  1
  N  N2  1  0.69448757  0.09156897  0.37069401  1
  N  N3  1  0.19448757  0.90843103  0.12930599  1
  N  N4  1  0.69754705  0.87503252  0.67010132  1
  N  N5  1  0.19754705  0.12496748  0.82989868  1
  N  N6  1  0.30245295  0.12496748  0.32989868  1
  N  N7  1  0.80245295  0.87503252  0.17010132  1
  N  N8  1  0.96911548  0.85686107  0.79636161  1
  N  N9  1  0.46911548  0.14313893  0.70363839  1
  N  N10  1  0.03088452  0.14313893  0.20363839  1
  N  N11  1  0.53088452  0.85686107  0.29636161  1
  N  N12  1  0.82505647  0.49536779  0.81273286  1
  N  N13  1  0.32505647  0.50463221  0.68726714  1
  N  N14  1  0.17494353  0.50463221  0.18726714  1
  N  N15  1  0.67494353  0.49536779  0.31273286  1
  N  N16  1  0.55333611  0.23207003  0.50710254  1
  N  N17  1  0.05333611  0.76792997  0.99289746  1
  N  N18  1  0.44666389  0.76792997  0.49289746  1
  N  N19  1  0.94666389  0.23207003  0.00710254  1
  O  O0  1  0.07574266  0.77257496  0.53731363  1
  O  O1  1  0.57574266  0.22742504  0.96268637  1
  O  O2  1  0.92425734  0.22742504  0.46268637  1
  O  O3  1  0.42425734  0.77257496  0.03731363  1
  O  O4  1  0.61864903  0.70361035  0.88277009  1
  O  O5  1  0.11864903  0.29638965  0.61722991  1
  O  O6  1  0.38135097  0.29638965  0.11722991  1
  O  O7  1  0.88135097  0.70361035  0.38277009  1
loop_
_geom_bond_atom_site_label_1
_geom_bond_atom_site_label_2
_geom_bond_distance
_geom_bond_site_symmetry_2
Ba0 O0 2.755492 1_655
Ba0 N18 2.799244 1_555
Ba0 N12 2.802408 1_555
Ba0 O5 2.857794 1_655
Ba0 N9 2.962203 1_555
Ba0 O7 2.998526 1_555
Ba0 N13 3.099231 1_555
Ba0 N4 3.174585 1_555
Ba0 N16 3.321209 1_555
Ba0 N1 3.341718 1_555
Ba1 O1 2.755492 1_555
Ba1 N19 2.799244 1_456
Ba1 N13 2.802408 1_555
Ba1 O4 2.857794 1_555
Ba1 N8 2.962203 1_455
Ba1 O6 2.998526 1_556
Ba1 N12 3.099231 1_455
Ba1 N5 3.174585 1_555
Ba1 N17 3.321209 1_555
Ba1 N0 3.341718 1_555
Ba2 O2 2.755492 1_455
Ba2 N16 2.799244 1_555
Ba2 N14 2.802408 1_555
Ba2 O7 2.857794 1_455
Ba2 N11 2.962203 1_555
Ba2 O5 2.998526 1_555
Ba2 N15 3.099231 1_555
Ba2 N6 3.174585 1_555
Ba2 N18 3.321209 1_555
Ba2 N3 3.341718 1_555
Ba3 O3 2.755492 1_555
Ba3 N17 2.799244 1_654
Ba3 N15 2.802408 1_555
Ba3 O6 2.857794 1_555
Ba3 N10 2.962203 1_655
Ba3 O4 2.998526 1_554
Ba3 N14 3.099231 1_655
Ba3 N7 3.174585 1_555
Ba3 N19 3.321209 1_555
Ba3 N2 3.341718 1_555
Cr0 O3 2.058260 1_556
Cr0 N9 2.091853 1_565
Cr0 O4 2.092573 1_555
Cr0 N5 2.134808 1_565
Cr0 N1 2.376553 1_565
Cr1 O2 2.058260 1_555
Cr1 N8 2.091853 1_545
Cr1 O5 2.092573 1_655
Cr1 N4 2.134808 1_545
Cr1 N0 2.376553 1_645
Cr2 O1 2.058260 1_554
Cr2 N11 2.091853 1_545
Cr2 O6 2.092573 1_555
Cr2 N7 2.134808 1_545
Cr2 N3 2.376553 1_545
Cr3 O0 2.058260 1_555
Cr3 N10 2.091853 1_565
Cr3 O7 2.092573 1_455
Cr3 N6 2.134808 1_565
Cr3 N2 2.376553 1_465
N0 P1 1.619739 1_565
N0 P4 1.627549 1_555
N1 P0 1.619739 1_645
N1 P5 1.627549 1_555
N2 P3 1.619739 1_545
N2 P6 1.627549 1_555
N3 P2 1.619739 1_465
N3 P7 1.627549 1_555
N4 P8 1.643487 1_555
N4 P1 1.643694 1_565
N5 P9 1.643487 1_555
N5 P0 1.643694 1_545
N6 P10 1.643487 1_555
N6 P3 1.643694 1_545
N7 P11 1.643487 1_555
N7 P2 1.643694 1_565
N8 P0 1.648392 1_655
N8 P8 1.650447 1_555
N9 P1 1.648392 1_555
N9 P9 1.650447 1_555
N10 P2 1.648392 1_455
N10 P10 1.650447 1_555
N11 P3 1.648392 1_555
N11 P11 1.650447 1_555
N12 P8 1.601237 1_555
N12 P5 1.622202 1_555
N13 P9 1.601237 1_555
N13 P4 1.622202 1_555
N14 P10 1.601237 1_555
N14 P7 1.622202 1_555
N15 P11 1.601237 1_555
N15 P6 1.622202 1_555
N16 P1 1.609201 1_555
N16 P6 1.611363 1_555
N17 P0 1.609201 1_555
N17 P7 1.611363 1_556
N18 P3 1.609201 1_555
N18 P4 1.611363 1_555
N19 P2 1.609201 1_555
N19 P5 1.611363 1_554
O0 P4 1.555618 1_555
O1 P5 1.555618 1_555
O2 P6 1.555618 1_555
O3 P7 1.555618 1_555
O4 P8 1.536075 1_555
O5 P9 1.536075 1_555
O6 P10 1.536075 1_555
O7 P11 1.536075 1_555
