# generated using pymatgen
data_KBa(AuO2)4
_symmetry_space_group_name_H-M   'P 1'
_cell_length_a   6.87391591
_cell_length_b   6.87391547
_cell_length_c   6.87391514
_cell_angle_alpha   123.75011952
_cell_angle_beta   123.75012463
_cell_angle_gamma   83.61873802
_symmetry_Int_Tables_number   1
_chemical_formula_structural   KBa(AuO2)4
_chemical_formula_sum   'K1 Ba1 Au4 O8'
_cell_volume   215.18605932
_cell_formula_units_Z   1
loop_
 _symmetry_equiv_pos_site_id
 _symmetry_equiv_pos_as_xyz
  1  'x, y, z'
loop_
 _atom_site_type_symbol
 _atom_site_label
 _atom_site_symmetry_multiplicity
 _atom_site_fract_x
 _atom_site_fract_y
 _atom_site_fract_z
 _atom_site_occupancy
  K  K0  1  0.75000000  0.25000000  0.50000000  1
  Ba  Ba0  1  0.00000000  0.00000000  0.00000000  1
  Au  Au0  1  0.37578670  0.62699555  0.75239436  1
  Au  Au1  1  0.37300445  0.12539880  0.74879114  1
  Au  Au2  1  0.87460120  0.62339234  0.24760564  1
  Au  Au3  1  0.37660766  0.62421330  0.25120886  1
  O  O0  1  0.05827956  0.44257642  0.09113525  1
  O  O1  1  0.71529956  0.30485578  0.10930876  1
  O  O2  1  0.19554802  0.60599080  0.89069124  1
  O  O3  1  0.35144117  0.96714531  0.90886475  1
  O  O4  1  0.69514422  0.80445198  0.41044278  1
  O  O5  1  0.03285469  0.94172044  0.38429586  1
  O  O6  1  0.39400920  0.28470044  0.58955722  1
  O  O7  1  0.55742358  0.64855883  0.61570414  1
loop_
_geom_bond_atom_site_label_1
_geom_bond_atom_site_label_2
_geom_bond_distance
_geom_bond_site_symmetry_2
K0 O1 2.793716 1_555
K0 O4 2.793720 1_545
K0 O2 2.793721 1_655
K0 O6 2.793721 1_555
K0 O5 2.798778 1_645
K0 O0 2.798781 1_656
K0 O3 2.798782 1_544
K0 O7 2.798782 1_555
Ba0 O5 2.771733 1_545
Ba0 O0 2.771737 1_555
Ba0 O7 2.771738 1_444
Ba0 O3 2.771738 1_544
Ba0 O1 2.785411 1_455
Ba0 O6 2.785414 1_555
Ba0 O4 2.785414 1_444
Ba0 O2 2.785414 1_544
Au0 O2 1.990107 1_555
Au0 O7 1.990759 1_555
Au0 O6 1.992145 1_555
Au0 O3 1.992614 1_555
Au1 O6 1.990107 1_555
Au1 O3 1.990759 1_545
Au1 O1 1.992145 1_556
Au1 O5 1.992613 1_545
Au2 O1 1.990113 1_555
Au2 O5 1.990765 1_655
Au2 O4 1.992140 1_555
Au2 O0 1.992608 1_655
Au3 O4 1.990113 1_555
Au3 O0 1.990765 1_555
Au3 O2 1.992145 1_554
Au3 O7 1.992613 1_555
