# generated using pymatgen
data_Mg2Sb2PtAu
_symmetry_space_group_name_H-M   'P 1'
_cell_length_a   7.83231738
_cell_length_b   7.83231752
_cell_length_c   7.83231711
_cell_angle_alpha   33.41361963
_cell_angle_beta   33.41362054
_cell_angle_gamma   33.41360801
_symmetry_Int_Tables_number   1
_chemical_formula_structural   Mg2Sb2PtAu
_chemical_formula_sum   'Mg2 Sb2 Pt1 Au1'
_cell_volume   129.75035505
_cell_formula_units_Z   1
loop_
 _symmetry_equiv_pos_site_id
 _symmetry_equiv_pos_as_xyz
  1  'x, y, z'
loop_
 _atom_site_type_symbol
 _atom_site_label
 _atom_site_symmetry_multiplicity
 _atom_site_fract_x
 _atom_site_fract_y
 _atom_site_fract_z
 _atom_site_occupancy
  Mg  Mg0  1  0.74700030  0.74700030  0.74700030  1
  Mg  Mg1  1  0.25272082  0.25272082  0.25272082  1
  Sb  Sb0  1  0.99721510  0.99721510  0.99721510  1
  Sb  Sb1  1  0.50344062  0.50344062  0.50344062  1
  Pt  Pt0  1  0.62543769  0.62543769  0.62543769  1
  Au  Au0  1  0.12418347  0.12418347  0.12418347  1
loop_
_geom_bond_atom_site_label_1
_geom_bond_atom_site_label_2
_geom_bond_distance
_geom_bond_site_symmetry_2
Mg0 Pt0 2.694390 1_555
Mg0 Sb0 3.186469 1_455
Mg0 Sb0 3.186469 1_545
Mg0 Sb0 3.186469 1_554
Mg0 Sb1 3.273965 1_655
Mg0 Sb1 3.273965 1_565
Mg0 Sb1 3.273965 1_556
Mg1 Pt0 2.742542 1_545
Mg1 Pt0 2.742542 1_455
Mg1 Pt0 2.742543 1_554
Mg1 Sb0 3.120134 1_544
Mg1 Sb0 3.120134 1_454
Mg1 Sb0 3.120135 1_445
Mg1 Sb1 3.180010 1_455
Mg1 Sb1 3.180010 1_545
Mg1 Sb1 3.180011 1_554
Pt0 Sb1 2.704020 1_555
Pt0 Sb0 2.735985 1_545
Pt0 Sb0 2.735985 1_455
Pt0 Sb0 2.735986 1_554
Au0 Mg0 2.775637 1_454
Au0 Mg0 2.775637 1_544
Au0 Mg0 2.775638 1_445
Au0 Sb1 2.792066 1_545
Au0 Sb1 2.792066 1_455
Au0 Sb1 2.792067 1_554
Au0 Sb0 2.814207 1_444
Au0 Mg1 2.848983 1_555
