# generated using pymatgen
data_Cs4NaScSe4
_symmetry_space_group_name_H-M   'P 1'
_cell_length_a   8.95268373
_cell_length_b   8.95268320
_cell_length_c   8.95268409
_cell_angle_alpha   133.14609991
_cell_angle_beta   129.15170651
_cell_angle_gamma   71.62488511
_symmetry_Int_Tables_number   1
_chemical_formula_structural   Cs4NaScSe4
_chemical_formula_sum   'Cs4 Na1 Sc1 Se4'
_cell_volume   397.28995578
_cell_formula_units_Z   1
loop_
 _symmetry_equiv_pos_site_id
 _symmetry_equiv_pos_as_xyz
  1  'x, y, z'
loop_
 _atom_site_type_symbol
 _atom_site_label
 _atom_site_symmetry_multiplicity
 _atom_site_fract_x
 _atom_site_fract_y
 _atom_site_fract_z
 _atom_site_occupancy
  Cs  Cs0  1  0.51076871  0.86665271  0.67536352  1
  Cs  Cs1  1  0.48923129  0.16459482  0.35588401  1
  Cs  Cs2  1  0.80871081  0.63334729  0.14411599  1
  Cs  Cs3  1  0.19128919  0.33540518  0.82463648  1
  Na  Na0  1  0.00000000  0.25000000  0.25000000  1
  Sc  Sc0  1  0.00000000  0.75000000  0.75000000  1
  Se  Se0  1  0.08776130  0.86905078  0.15800637  1
  Se  Se1  1  0.71104441  0.42975594  0.34199363  1
  Se  Se2  1  0.91223870  0.07024406  0.78128847  1
  Se  Se3  1  0.28895659  0.63094922  0.71871153  1
loop_
_geom_bond_atom_site_label_1
_geom_bond_atom_site_label_2
_geom_bond_distance
_geom_bond_site_symmetry_2
Cs0 Se3 3.644458 1_555
Cs0 Se0 3.705467 1_555
Cs0 Se1 3.713592 1_555
Cs0 Se2 3.821287 1_565
Cs0 Se1 3.909424 1_566
Cs1 Se1 3.644465 1_555
Cs1 Se2 3.705468 1_555
Cs1 Se3 3.713592 1_544
Cs1 Se0 3.821286 1_545
Cs1 Se3 3.909419 1_555
Cs2 Se0 3.644457 1_655
Cs2 Se3 3.705460 1_554
Cs2 Se2 3.713588 1_565
Cs2 Se1 3.821279 1_555
Cs2 Se2 3.909427 1_554
Cs3 Se2 3.644457 1_455
Cs3 Se1 3.705465 1_556
Cs3 Se0 3.713595 1_556
Cs3 Se3 3.821284 1_555
Cs3 Se0 3.909421 1_545
Na0 Se0 2.865865 1_545
Na0 Se1 2.865865 1_455
Na0 Se3 2.865868 1_555
Na0 Se2 2.865870 1_454
Sc0 Se2 2.583601 1_465
Sc0 Se1 2.583601 1_455
Sc0 Se0 2.583605 1_556
Sc0 Se3 2.583609 1_555
