# generated using pymatgen
data_Cs2MgCdSb2
_symmetry_space_group_name_H-M   'P 1'
_cell_length_a   4.94716606
_cell_length_b   4.94716606
_cell_length_c   9.07860475
_cell_angle_alpha   90.00000000
_cell_angle_beta   90.00000000
_cell_angle_gamma   90.00000000
_symmetry_Int_Tables_number   1
_chemical_formula_structural   Cs2MgCdSb2
_chemical_formula_sum   'Cs2 Mg1 Cd1 Sb2'
_cell_volume   222.19387611
_cell_formula_units_Z   1
loop_
 _symmetry_equiv_pos_site_id
 _symmetry_equiv_pos_as_xyz
  1  'x, y, z'
loop_
 _atom_site_type_symbol
 _atom_site_label
 _atom_site_symmetry_multiplicity
 _atom_site_fract_x
 _atom_site_fract_y
 _atom_site_fract_z
 _atom_site_occupancy
  Cs  Cs0  1  0.50000000  0.00000000  0.65015976  1
  Cs  Cs1  1  0.00000000  0.50000000  0.34984024  1
  Mg  Mg0  1  0.50000000  0.50000000  0.00000000  1
  Cd  Cd0  1  0.00000000  0.00000000  0.00000000  1
  Sb  Sb0  1  0.00000000  0.50000000  0.81898193  1
  Sb  Sb1  1  0.50000000  0.00000000  0.18101807  1
loop_
_geom_bond_atom_site_label_1
_geom_bond_atom_site_label_2
_geom_bond_distance
_geom_bond_site_symmetry_2
Cs0 Sb0 3.819202 1_555
Cs0 Sb0 3.819202 1_655
Cs0 Sb0 3.819202 1_545
Cs0 Sb0 3.819202 1_645
Cs0 Mg0 4.025665 1_546
Cs0 Mg0 4.025665 1_556
Cs0 Sb1 4.259152 1_555
Cs1 Sb1 3.819202 1_555
Cs1 Sb1 3.819202 1_455
Cs1 Sb1 3.819202 1_565
Cs1 Sb1 3.819202 1_465
Cs1 Mg0 4.025665 1_455
Cs1 Mg0 4.025665 1_555
Cs1 Sb0 4.259152 1_555
Mg0 Sb1 2.969739 1_565
Mg0 Sb1 2.969739 1_555
Mg0 Sb0 2.969739 1_654
Mg0 Sb0 2.969739 1_554
Cd0 Sb1 2.969739 1_455
Cd0 Sb1 2.969739 1_555
Cd0 Sb0 2.969739 1_554
Cd0 Sb0 2.969739 1_544
Cd0 Cs1 4.025665 1_555
Cd0 Cs1 4.025665 1_545
Cd0 Cs0 4.025665 1_554
Cd0 Cs0 4.025665 1_454
