# generated using pymatgen
data_Ba7Tc2Sb2O19
_symmetry_space_group_name_H-M   'P 1'
_cell_length_a   7.73374531
_cell_length_b   7.73375237
_cell_length_c   10.98230208
_cell_angle_alpha   81.32319871
_cell_angle_beta   81.32319244
_cell_angle_gamma   44.29734212
_symmetry_Int_Tables_number   1
_chemical_formula_structural   Ba7Tc2Sb2O19
_chemical_formula_sum   'Ba7 Tc2 Sb2 O19'
_cell_volume   452.61394661
_cell_formula_units_Z   1
loop_
 _symmetry_equiv_pos_site_id
 _symmetry_equiv_pos_as_xyz
  1  'x, y, z'
loop_
 _atom_site_type_symbol
 _atom_site_label
 _atom_site_symmetry_multiplicity
 _atom_site_fract_x
 _atom_site_fract_y
 _atom_site_fract_z
 _atom_site_occupancy
  Ba  Ba0  1  0.20468301  0.20468301  0.41255557  1
  Ba  Ba1  1  0.79531699  0.79531699  0.58744443  1
  Ba  Ba2  1  0.42133769  0.42133769  0.17631747  1
  Ba  Ba3  1  0.57866231  0.57866231  0.82368253  1
  Ba  Ba4  1  0.50000000  0.50000000  0.50000000  1
  Ba  Ba5  1  0.86901872  0.86901872  0.95080174  1
  Ba  Ba6  1  0.13098128  0.13098128  0.04919826  1
  Tc  Tc0  1  0.67268521  0.67268521  0.21301460  1
  Tc  Tc1  1  0.32731479  0.32731479  0.78698540  1
  Sb  Sb0  1  0.96467561  0.96467661  0.32443009  1
  Sb  Sb1  1  0.03532439  0.03532339  0.67556991  1
  O  O0  1  0.00000000  0.00000000  0.50000000  1
  O  O1  1  0.68721650  0.68721650  0.36850551  1
  O  O2  1  0.31278350  0.31278350  0.63149449  1
  O  O3  1  0.05085107  0.05085107  0.85177035  1
  O  O4  1  0.94914893  0.94914893  0.14822965  1
  O  O5  1  0.39102622  0.39102622  0.92221121  1
  O  O6  1  0.60897378  0.60897378  0.07778879  1
  O  O7  1  0.82581597  0.31103858  0.27853345  1
  O  O8  1  0.68896142  0.17418403  0.72146755  1
  O  O9  1  0.17418403  0.68896142  0.72146655  1
  O  O10  1  0.31103858  0.82581597  0.27853245  1
  O  O11  1  0.63002603  0.11871707  0.37881855  1
  O  O12  1  0.88128293  0.36997297  0.62118145  1
  O  O13  1  0.36997397  0.88128293  0.62118145  1
  O  O14  1  0.11871707  0.63002703  0.37881855  1
  O  O15  1  0.97723140  0.52280459  0.15897124  1
  O  O16  1  0.47719541  0.02276960  0.84102876  1
  O  O17  1  0.02276860  0.47719541  0.84102876  1
  O  O18  1  0.52280459  0.97723040  0.15897124  1
loop_
_geom_bond_atom_site_label_1
_geom_bond_atom_site_label_2
_geom_bond_distance
_geom_bond_site_symmetry_2
Ba0 O12 2.777985 1_455
Ba0 O13 2.777986 1_545
Ba0 O11 2.824197 1_555
Ba0 O14 2.824208 1_555
Ba0 O0 2.933153 1_555
Ba0 O1 2.972784 1_455
Ba0 O1 2.972785 1_545
Ba0 O7 2.985680 1_455
Ba0 O10 2.985689 1_545
Ba0 O2 3.064763 1_555
Ba0 O15 3.181026 1_455
Ba0 O18 3.181026 1_545
Ba1 O14 2.777985 1_655
Ba1 O11 2.777986 1_565
Ba1 O13 2.824197 1_555
Ba1 O12 2.824208 1_555
Ba1 O0 2.933153 1_665
Ba1 O2 2.972784 1_655
Ba1 O2 2.972785 1_565
Ba1 O9 2.985680 1_655
Ba1 O8 2.985689 1_565
Ba1 O1 3.064763 1_555
Ba1 O17 3.181026 1_655
Ba1 O16 3.181026 1_565
Ba2 O14 2.670897 1_555
Ba2 O11 2.670898 1_555
Ba2 O6 2.729325 1_555
Ba2 O5 2.893300 1_554
Ba2 O4 2.952155 1_545
Ba2 O4 2.952156 1_455
Ba2 O10 2.953631 1_555
Ba2 O7 2.953634 1_555
Ba2 O15 2.956831 1_455
Ba2 O18 2.956842 1_545
Ba3 O12 2.670897 1_555
Ba3 O13 2.670898 1_555
Ba3 O5 2.729325 1_555
Ba3 O6 2.893300 1_556
Ba3 O3 2.952155 1_565
Ba3 O3 2.952156 1_655
Ba3 O8 2.953631 1_555
Ba3 O9 2.953634 1_555
Ba3 O17 2.956831 1_655
Ba3 O16 2.956842 1_565
Ba4 O12 2.830750 1_555
Ba4 O14 2.830750 1_555
Ba4 O13 2.830756 1_555
Ba4 O11 2.830756 1_555
Ba4 O2 2.831486 1_555
Ba4 O1 2.831486 1_555
Ba4 O9 2.890114 1_555
Ba4 O7 2.890114 1_555
Ba4 O8 2.890124 1_555
Ba4 O10 2.890124 1_555
Ba4 O0 2.915710 1_565
Ba4 O0 2.915710 1_655
Ba5 O4 2.613383 1_556
Ba5 O3 2.654378 1_665
Ba5 O16 2.749850 1_565
Ba5 O17 2.749856 1_655
Ba5 O8 2.900489 1_565
Ba5 O9 2.900497 1_655
Ba5 O15 2.935804 1_556
Ba5 O18 2.935804 1_556
Ba5 O5 2.943995 1_655
Ba5 O5 2.943996 1_565
Ba6 O3 2.613383 1_554
Ba6 O4 2.654378 1_445
Ba6 O18 2.749850 1_545
Ba6 O15 2.749856 1_455
Ba6 O10 2.900489 1_545
Ba6 O7 2.900497 1_455
Ba6 O17 2.935804 1_554
Ba6 O16 2.935804 1_554
Ba6 O6 2.943995 1_455
Ba6 O6 2.943996 1_545
O0 Sb1 2.071656 1_555
O0 Sb0 2.071656 1_445
O1 Tc0 1.753626 1_555
O2 Tc1 1.753626 1_555
O3 Sb1 1.983498 1_555
O4 Sb0 1.983498 1_555
O5 Tc1 1.865517 1_555
O6 Tc0 1.865517 1_555
O7 Sb0 2.054463 1_545
O7 Tc0 2.156701 1_555
O8 Sb1 2.054466 1_655
O8 Tc1 2.156695 1_555
O9 Sb1 2.054463 1_565
O9 Tc1 2.156701 1_555
O10 Sb0 2.054466 1_455
O10 Tc0 2.156695 1_555
O11 Sb0 1.951671 1_545
O12 Sb1 1.951672 1_655
O13 Sb1 1.951671 1_565
O14 Sb0 1.951672 1_455
O15 Tc0 1.766641 1_555
O16 Tc1 1.766637 1_555
O17 Tc1 1.766641 1_555
O18 Tc0 1.766637 1_555
