# generated using pymatgen
data_CsRb2H5Pt
_symmetry_space_group_name_H-M   'P 1'
_cell_length_a   7.82364932
_cell_length_b   7.82364932
_cell_length_c   6.07906257
_cell_angle_alpha   90.00000000
_cell_angle_beta   90.00000000
_cell_angle_gamma   90.00000000
_symmetry_Int_Tables_number   1
_chemical_formula_structural   CsRb2H5Pt
_chemical_formula_sum   'Cs2 Rb4 H10 Pt2'
_cell_volume   372.09631104
_cell_formula_units_Z   2
loop_
 _symmetry_equiv_pos_site_id
 _symmetry_equiv_pos_as_xyz
  1  'x, y, z'
loop_
 _atom_site_type_symbol
 _atom_site_label
 _atom_site_symmetry_multiplicity
 _atom_site_fract_x
 _atom_site_fract_y
 _atom_site_fract_z
 _atom_site_occupancy
  Cs  Cs0  1  0.50000000  0.50000000  0.00000000  1
  Cs  Cs1  1  0.00000000  0.00000000  0.00000000  1
  Rb  Rb0  1  0.18261533  0.68261533  0.50000000  1
  Rb  Rb1  1  0.81738467  0.31738467  0.50000000  1
  Rb  Rb2  1  0.68261533  0.81738467  0.50000000  1
  Rb  Rb3  1  0.31738467  0.18261533  0.50000000  1
  H  H0  1  0.50000000  0.50000000  0.50000000  1
  H  H1  1  0.00000000  0.00000000  0.50000000  1
  H  H2  1  0.60619667  0.10619667  0.80874349  1
  H  H3  1  0.39380333  0.89380333  0.80874349  1
  H  H4  1  0.10619667  0.39380333  0.80874349  1
  H  H5  1  0.89380333  0.60619667  0.80874349  1
  H  H6  1  0.39380333  0.89380333  0.19125651  1
  H  H7  1  0.60619667  0.10619667  0.19125651  1
  H  H8  1  0.89380333  0.60619667  0.19125651  1
  H  H9  1  0.10619667  0.39380333  0.19125651  1
  Pt  Pt0  1  0.50000000  0.00000000  0.00000000  1
  Pt  Pt1  1  0.00000000  0.50000000  0.00000000  1
loop_
_geom_bond_atom_site_label_1
_geom_bond_atom_site_label_2
_geom_bond_distance
_geom_bond_site_symmetry_2
Cs0 H0 3.039531 1_554
Cs0 H0 3.039531 1_555
Cs0 H8 3.396250 1_555
Cs0 H5 3.396250 1_554
Cs0 H6 3.396250 1_555
Cs0 H3 3.396250 1_554
Cs0 H7 3.396250 1_555
Cs0 H2 3.396250 1_554
Cs0 H9 3.396250 1_555
Cs0 H4 3.396250 1_554
Cs1 H1 3.039531 1_554
Cs1 H1 3.039531 1_555
Cs1 H9 3.396250 1_555
Cs1 H4 3.396250 1_554
Cs1 H6 3.396250 1_545
Cs1 H3 3.396250 1_544
Cs1 H7 3.396250 1_455
Cs1 H2 3.396250 1_454
Cs1 H8 3.396250 1_445
Cs1 H5 3.396250 1_444
H0 Rb2 2.864795 1_555
H0 Rb1 2.864795 1_555
H0 Rb0 2.864795 1_555
H0 Rb3 2.864795 1_555
H1 Rb3 2.864795 1_555
H1 Rb1 2.864795 1_455
H1 Rb0 2.864795 1_545
H1 Rb2 2.864795 1_445
H2 Pt0 1.652993 1_556
H2 Rb1 2.997095 1_555
H2 Rb2 2.997620 1_545
H2 Rb3 2.997620 1_555
H3 Pt0 1.652993 1_566
H3 Rb0 2.997095 1_555
H3 Rb3 2.997620 1_565
H3 Rb2 2.997620 1_555
H4 Pt1 1.652993 1_556
H4 Rb3 2.997095 1_555
H4 Rb1 2.997620 1_455
H4 Rb0 2.997620 1_555
H5 Pt1 1.652993 1_656
H5 Rb2 2.997095 1_555
H5 Rb0 2.997620 1_655
H5 Rb1 2.997620 1_555
H6 Pt0 1.652993 1_565
H6 Rb0 2.997095 1_555
H6 Rb3 2.997620 1_565
H6 Rb2 2.997620 1_555
H7 Pt0 1.652993 1_555
H7 Rb1 2.997095 1_555
H7 Rb2 2.997620 1_545
H7 Rb3 2.997620 1_555
H8 Pt1 1.652993 1_655
H8 Rb2 2.997095 1_555
H8 Rb0 2.997620 1_655
H8 Rb1 2.997620 1_555
H9 Pt1 1.652993 1_555
H9 Rb3 2.997095 1_555
H9 Rb1 2.997620 1_455
H9 Rb0 2.997620 1_555
