# generated using pymatgen
data_Ba2Ta5WS12
_symmetry_space_group_name_H-M   'P 1'
_cell_length_a   5.77967395
_cell_length_b   5.77967390
_cell_length_c   16.01966531
_cell_angle_alpha   90.00000000
_cell_angle_beta   90.00000000
_cell_angle_gamma   119.99999462
_symmetry_Int_Tables_number   1
_chemical_formula_structural   Ba2Ta5WS12
_chemical_formula_sum   'Ba2 Ta5 W1 S12'
_cell_volume   463.43706779
_cell_formula_units_Z   1
loop_
 _symmetry_equiv_pos_site_id
 _symmetry_equiv_pos_as_xyz
  1  'x, y, z'
loop_
 _atom_site_type_symbol
 _atom_site_label
 _atom_site_symmetry_multiplicity
 _atom_site_fract_x
 _atom_site_fract_y
 _atom_site_fract_z
 _atom_site_occupancy
  Ba  Ba0  1  0.00000000  0.00000000  0.50087851  1
  Ba  Ba1  1  0.00000000  0.00000000  0.99912149  1
  Ta  Ta0  1  0.00000000  0.00000000  0.75000000  1
  Ta  Ta1  1  0.33333300  0.66666700  0.25000000  1
  Ta  Ta2  1  0.66666700  0.33333300  0.75000000  1
  Ta  Ta3  1  0.66666700  0.33333300  0.25000000  1
  Ta  Ta4  1  0.33333300  0.66666700  0.75000000  1
  W  W0  1  0.00000000  0.00000000  0.25000000  1
  S  S0  1  0.33278568  1.00000000  0.15381279  1
  S  S1  1  1.00000000  0.33278568  0.15381279  1
  S  S2  1  0.66721432  0.66721432  0.15381279  1
  S  S3  1  0.33673012  0.33673012  0.65305710  1
  S  S4  1  0.66721432  0.66721432  0.34618721  1
  S  S5  1  0.66326988  0.00000000  0.65305710  1
  S  S6  1  0.00000000  0.66326988  0.65305710  1
  S  S7  1  0.00000000  0.66326988  0.84694290  1
  S  S8  1  0.33673012  0.33673012  0.84694290  1
  S  S9  1  1.00000000  0.33278568  0.34618721  1
  S  S10  1  0.33278568  1.00000000  0.34618721  1
  S  S11  1  0.66326988  0.00000000  0.84694290  1
loop_
_geom_bond_atom_site_label_1
_geom_bond_atom_site_label_2
_geom_bond_distance
_geom_bond_site_symmetry_2
Ba0 S6 3.119418 1_545
Ba0 S5 3.119418 1_455
Ba0 S3 3.119418 1_555
Ba0 S9 3.136946 1_455
Ba0 S10 3.136946 1_545
Ba0 S4 3.136947 1_445
Ba1 S7 3.119418 1_545
Ba1 S11 3.119418 1_455
Ba1 S8 3.119418 1_555
Ba1 S1 3.136946 1_456
Ba1 S0 3.136946 1_546
Ba1 S2 3.136947 1_446
S0 W0 2.464502 1_565
S0 Ta1 2.468209 1_555
S0 Ta3 2.468211 1_565
S1 W0 2.464502 1_655
S1 Ta3 2.468209 1_555
S1 Ta1 2.468211 1_655
S2 W0 2.464502 1_665
S2 Ta3 2.468213 1_555
S2 Ta1 2.468213 1_555
S3 Ta4 2.466979 1_555
S3 Ta2 2.466979 1_555
S3 Ta0 2.489868 1_555
S4 W0 2.464502 1_665
S4 Ta3 2.468213 1_555
S4 Ta1 2.468213 1_555
S5 Ta2 2.466975 1_555
S5 Ta4 2.466977 1_545
S5 Ta0 2.489868 1_655
S6 Ta4 2.466975 1_555
S6 Ta2 2.466977 1_455
S6 Ta0 2.489868 1_565
S7 Ta4 2.466975 1_555
S7 Ta2 2.466977 1_455
S7 Ta0 2.489868 1_565
S8 Ta4 2.466979 1_555
S8 Ta2 2.466979 1_555
S8 Ta0 2.489868 1_555
S9 W0 2.464502 1_655
S9 Ta3 2.468209 1_555
S9 Ta1 2.468211 1_655
S10 W0 2.464502 1_565
S10 Ta1 2.468209 1_555
S10 Ta3 2.468211 1_565
S11 Ta2 2.466975 1_555
S11 Ta4 2.466977 1_545
S11 Ta0 2.489868 1_655
