# generated using pymatgen
data_Hf2ScAlIr2
_symmetry_space_group_name_H-M   'P 1'
_cell_length_a   8.44334527
_cell_length_b   8.44391724
_cell_length_c   8.44391726
_cell_angle_alpha   59.99552092
_cell_angle_beta   60.00224454
_cell_angle_gamma   60.00224850
_symmetry_Int_Tables_number   1
_chemical_formula_structural   Hf2ScAlIr2
_chemical_formula_sum   'Hf8 Sc4 Al4 Ir8'
_cell_volume   425.68419949
_cell_formula_units_Z   4
loop_
 _symmetry_equiv_pos_site_id
 _symmetry_equiv_pos_as_xyz
  1  'x, y, z'
loop_
 _atom_site_type_symbol
 _atom_site_label
 _atom_site_symmetry_multiplicity
 _atom_site_fract_x
 _atom_site_fract_y
 _atom_site_fract_z
 _atom_site_occupancy
  Hf  Hf0  1  0.19735369  0.80264631  0.80264631  1
  Hf  Hf1  1  0.80264631  0.19735369  0.19735369  1
  Hf  Hf2  1  0.44364037  0.44364037  0.05635963  1
  Hf  Hf3  1  0.05635963  0.05635963  0.44364037  1
  Hf  Hf4  1  0.44364037  0.05635963  0.44364037  1
  Hf  Hf5  1  0.05635963  0.44364037  0.05635963  1
  Hf  Hf6  1  0.05565609  0.44434391  0.44434391  1
  Hf  Hf7  1  0.44434391  0.05565609  0.05565609  1
  Sc  Sc0  1  0.80609930  0.80609930  0.19390070  1
  Sc  Sc1  1  0.19390070  0.19390070  0.80609930  1
  Sc  Sc2  1  0.80609930  0.19390070  0.80609930  1
  Sc  Sc3  1  0.19390070  0.80609930  0.19390070  1
  Al  Al0  1  0.12650179  0.62301607  0.62301607  1
  Al  Al1  1  0.62301607  0.12650179  0.62746607  1
  Al  Al2  1  0.62301607  0.62746607  0.12650179  1
  Al  Al3  1  0.62746607  0.62301607  0.62301607  1
  Ir  Ir0  1  0.76412941  0.41107579  0.41107579  1
  Ir  Ir1  1  0.41107579  0.76412941  0.41371801  1
  Ir  Ir2  1  0.41107579  0.41371801  0.76412941  1
  Ir  Ir3  1  0.41371801  0.41107579  0.41107579  1
  Ir  Ir4  1  0.48774983  0.83545919  0.83545919  1
  Ir  Ir5  1  0.83545919  0.48774983  0.84133279  1
  Ir  Ir6  1  0.83545919  0.84133279  0.48774983  1
  Ir  Ir7  1  0.84133279  0.83545919  0.83545919  1
loop_
_geom_bond_atom_site_label_1
_geom_bond_atom_site_label_2
_geom_bond_distance
_geom_bond_site_symmetry_2
Hf0 Ir7 2.756948 1_455
Hf0 Ir4 2.756956 1_555
Hf0 Ir1 2.950058 1_555
Hf0 Ir2 2.950058 1_555
Hf0 Hf5 3.124010 1_556
Hf0 Hf4 3.124010 1_565
Hf0 Hf3 3.124010 1_565
Hf0 Hf2 3.124010 1_556
Hf0 Sc1 3.303852 1_565
Hf0 Sc3 3.303852 1_556
Hf0 Sc0 3.303852 1_456
Hf0 Sc2 3.303853 1_465
Hf1 Ir5 2.756951 1_554
Hf1 Ir6 2.756951 1_545
Hf1 Ir0 2.950051 1_555
Hf1 Ir3 2.950055 1_555
Hf1 Hf5 3.124010 1_655
Hf1 Hf4 3.124010 1_555
Hf1 Hf3 3.124010 1_655
Hf1 Hf2 3.124010 1_555
Hf1 Sc0 3.303852 1_545
Hf1 Sc2 3.303852 1_554
Hf1 Sc1 3.303852 1_654
Hf1 Sc3 3.303853 1_645
Hf2 Ir3 2.756758 1_555
Hf2 Ir2 2.756766 1_554
Hf2 Ir4 2.988214 1_554
Hf2 Ir5 2.988214 1_554
Hf2 Sc3 3.132936 1_555
Hf2 Sc2 3.132936 1_554
Hf2 Hf5 3.269945 1_555
Hf2 Hf4 3.269945 1_555
Hf2 Hf7 3.276113 1_555
Hf2 Hf6 3.276113 1_555
Hf3 Ir1 2.756762 1_545
Hf3 Ir0 2.756762 1_455
Hf3 Ir6 2.988207 1_445
Hf3 Ir7 2.988211 1_445
Hf3 Sc3 3.132936 1_545
Hf3 Sc2 3.132936 1_455
Hf3 Hf4 3.269945 1_555
Hf3 Hf5 3.269945 1_555
Hf3 Hf6 3.276113 1_555
Hf3 Hf7 3.276113 1_555
Hf4 Ir3 2.756758 1_555
Hf4 Ir1 2.756766 1_545
Hf4 Ir4 2.988214 1_545
Hf4 Ir6 2.988214 1_545
Hf4 Sc1 3.132936 1_555
Hf4 Sc0 3.132936 1_545
Hf4 Hf7 3.276113 1_555
Hf4 Hf6 3.276114 1_555
Hf5 Ir0 2.756762 1_455
Hf5 Ir2 2.756762 1_554
Hf5 Ir5 2.988207 1_454
Hf5 Ir7 2.988211 1_454
Hf5 Sc1 3.132936 1_554
Hf5 Sc0 3.132936 1_455
Hf5 Hf6 3.276113 1_555
Hf5 Hf7 3.276114 1_555
Hf6 Ir3 2.770976 1_555
Hf6 Ir0 2.770984 1_455
Hf6 Ir5 3.023794 1_455
Hf6 Ir6 3.023794 1_455
Hf6 Sc3 3.130775 1_555
Hf6 Sc2 3.130775 1_455
Hf6 Sc1 3.130775 1_555
Hf6 Sc0 3.130776 1_455
Hf7 Ir1 2.770980 1_545
Hf7 Ir2 2.770980 1_554
Hf7 Ir4 3.023787 1_544
Hf7 Ir7 3.023791 1_544
Hf7 Sc3 3.130775 1_545
Hf7 Sc2 3.130775 1_554
Hf7 Sc1 3.130775 1_554
Hf7 Sc0 3.130776 1_545
Sc0 Sc3 3.274341 1_655
Sc0 Sc2 3.274341 1_564
Sc1 Sc2 3.274341 1_455
Sc1 Sc3 3.274341 1_546
Al0 Ir3 2.609638 1_555
Al0 Ir7 2.610314 1_455
Al0 Ir1 2.612848 1_555
Al0 Ir2 2.612848 1_555
Al0 Ir5 2.629174 1_455
Al0 Ir6 2.629174 1_455
Al0 Hf6 2.998564 1_555
Al0 Sc3 3.009720 1_555
Al0 Sc1 3.009720 1_555
Al0 Hf0 3.012427 1_555
Al0 Hf5 3.036622 1_556
Al0 Hf3 3.036622 1_565
Al1 Ir2 2.609634 1_555
Al1 Ir6 2.610309 1_545
Al1 Ir0 2.612848 1_555
Al1 Ir3 2.612853 1_555
Al1 Ir4 2.629174 1_545
Al1 Ir7 2.629179 1_545
Al1 Hf7 2.998564 1_556
Al1 Sc2 3.009720 1_555
Al1 Sc1 3.009720 1_555
Al1 Hf1 3.012427 1_555
Al1 Hf4 3.036622 1_555
Al1 Hf3 3.036622 1_655
Al2 Ir1 2.609634 1_555
Al2 Ir5 2.610309 1_554
Al2 Ir0 2.612848 1_555
Al2 Ir3 2.612853 1_555
Al2 Ir4 2.629174 1_554
Al2 Ir7 2.629178 1_554
Al2 Hf7 2.998564 1_565
Al2 Sc0 3.009720 1_555
Al2 Sc3 3.009720 1_555
Al2 Hf1 3.012427 1_555
Al2 Hf2 3.036622 1_555
Al2 Hf5 3.036622 1_655
Al3 Ir0 2.609640 1_555
Al3 Ir4 2.610316 1_555
Al3 Ir2 2.612854 1_555
Al3 Ir1 2.612855 1_555
Al3 Ir6 2.629180 1_555
Al3 Ir5 2.629181 1_555
Al3 Hf6 2.998564 1_655
Al3 Sc0 3.009720 1_555
Al3 Sc2 3.009720 1_555
Al3 Hf0 3.012427 1_555
Al3 Hf2 3.036622 1_556
Al3 Hf4 3.036622 1_565
Ir0 Ir3 2.958644 1_555
Ir0 Ir2 2.981242 1_555
Ir0 Ir1 2.981242 1_555
Ir0 Sc0 3.004803 1_555
Ir0 Sc2 3.004803 1_555
Ir1 Ir2 2.958645 1_555
Ir1 Ir3 2.981242 1_555
Ir1 Sc3 3.004796 1_555
Ir1 Sc0 3.004803 1_555
Ir2 Ir3 2.981242 1_555
Ir2 Sc1 3.004796 1_555
Ir2 Sc2 3.004804 1_555
Ir3 Sc1 3.004800 1_555
Ir3 Sc3 3.004800 1_555
Ir4 Sc3 2.780928 1_556
Ir4 Sc1 2.780928 1_565
Ir4 Ir6 2.936441 1_555
Ir4 Ir5 2.936442 1_555
Ir4 Ir7 2.985423 1_555
Ir5 Sc1 2.780928 1_655
Ir5 Sc2 2.780933 1_555
Ir5 Ir7 2.936441 1_555
Ir5 Ir6 2.985423 1_555
Ir6 Sc3 2.780928 1_655
Ir6 Sc0 2.780933 1_555
Ir6 Ir7 2.936441 1_555
Ir7 Sc0 2.780924 1_556
Ir7 Sc2 2.780924 1_565
