# generated using pymatgen
data_Zr10Be2(BiPb)3
_symmetry_space_group_name_H-M   'P 1'
_cell_length_a   8.72659890
_cell_length_b   8.72659944
_cell_length_c   5.87681816
_cell_angle_alpha   90.00000000
_cell_angle_beta   90.00000000
_cell_angle_gamma   119.99999051
_symmetry_Int_Tables_number   1
_chemical_formula_structural   Zr10Be2(BiPb)3
_chemical_formula_sum   'Zr10 Be2 Bi3 Pb3'
_cell_volume   387.58145020
_cell_formula_units_Z   1
loop_
 _symmetry_equiv_pos_site_id
 _symmetry_equiv_pos_as_xyz
  1  'x, y, z'
loop_
 _atom_site_type_symbol
 _atom_site_label
 _atom_site_symmetry_multiplicity
 _atom_site_fract_x
 _atom_site_fract_y
 _atom_site_fract_z
 _atom_site_occupancy
  Zr  Zr0  1  0.66666700  0.33333300  0.00308300  1
  Zr  Zr1  1  0.33333300  0.66666700  0.00308300  1
  Zr  Zr2  1  0.33333300  0.66666700  0.49691700  1
  Zr  Zr3  1  0.66666700  0.33333300  0.49691700  1
  Zr  Zr4  1  0.75964379  0.75964379  0.75000000  1
  Zr  Zr5  1  0.24035621  1.00000000  0.75000000  1
  Zr  Zr6  1  1.00000000  0.24035621  0.75000000  1
  Zr  Zr7  1  0.25580158  0.25580158  0.25000000  1
  Zr  Zr8  1  0.74419842  1.00000000  0.25000000  1
  Zr  Zr9  1  1.00000000  0.74419842  0.25000000  1
  Be  Be0  1  0.00000000  0.00000000  0.02559025  1
  Be  Be1  1  0.00000000  0.00000000  0.47440975  1
  Bi  Bi0  1  0.39480469  0.39480469  0.75000000  1
  Bi  Bi1  1  0.60519531  1.00000000  0.75000000  1
  Bi  Bi2  1  1.00000000  0.60519531  0.75000000  1
  Pb  Pb0  1  0.61440331  0.61440331  0.25000000  1
  Pb  Pb1  1  0.38559669  1.00000000  0.25000000  1
  Pb  Pb2  1  1.00000000  0.38559669  0.25000000  1
loop_
_geom_bond_atom_site_label_1
_geom_bond_atom_site_label_2
_geom_bond_distance
_geom_bond_site_symmetry_2
Zr0 Zr3 2.902173 1_555
Zr0 Zr3 2.974646 1_554
Zr1 Zr2 2.902173 1_555
Zr1 Zr2 2.974646 1_554
Be0 Zr8 2.592747 1_445
Be0 Zr9 2.592747 1_445
Be0 Zr7 2.592748 1_555
Be0 Be1 2.637631 1_555
Be0 Zr5 2.650011 1_544
Be0 Zr6 2.650011 1_454
Be0 Zr4 2.650011 1_444
Be1 Zr8 2.592747 1_445
Be1 Zr9 2.592747 1_445
Be1 Zr7 2.592748 1_555
Be1 Zr5 2.650011 1_545
Be1 Zr6 2.650011 1_455
Be1 Zr4 2.650011 1_445
Bi0 Zr6 3.007173 1_455
Bi0 Zr5 3.007173 1_545
Bi0 Zr0 3.066105 1_556
Bi0 Zr3 3.066105 1_555
Bi0 Zr1 3.066105 1_556
Bi0 Zr2 3.066105 1_555
Bi0 Zr7 3.178943 1_555
Bi0 Zr7 3.178943 1_556
Bi0 Zr4 3.183805 1_555
Bi1 Zr4 3.007172 1_555
Bi1 Zr6 3.007173 1_565
Bi1 Zr0 3.066098 1_566
Bi1 Zr3 3.066098 1_565
Bi1 Zr1 3.066101 1_556
Bi1 Zr2 3.066101 1_555
Bi1 Zr8 3.178943 1_555
Bi1 Zr8 3.178943 1_556
Bi1 Zr5 3.183804 1_555
Bi2 Zr4 3.007172 1_555
Bi2 Zr5 3.007173 1_655
Bi2 Zr1 3.066098 1_656
Bi2 Zr2 3.066098 1_655
Bi2 Zr0 3.066101 1_556
Bi2 Zr3 3.066101 1_555
Bi2 Zr9 3.178943 1_556
Bi2 Zr9 3.178943 1_555
Bi2 Zr6 3.183805 1_555
Pb0 Zr9 2.965542 1_555
Pb0 Zr8 2.965542 1_555
Pb0 Zr2 3.073843 1_555
Pb0 Zr1 3.073843 1_555
Pb0 Zr3 3.073843 1_555
Pb0 Zr0 3.073843 1_555
Pb0 Zr7 3.129374 1_555
Pb0 Zr4 3.200108 1_555
Pb0 Zr4 3.200108 1_554
Pb1 Zr7 2.965542 1_565
Pb1 Zr9 2.965542 1_455
Pb1 Zr2 3.073836 1_555
Pb1 Zr1 3.073836 1_555
Pb1 Zr3 3.073839 1_565
Pb1 Zr0 3.073839 1_565
Pb1 Zr8 3.129374 1_555
Pb1 Zr5 3.200108 1_554
Pb1 Zr5 3.200108 1_555
Pb2 Zr7 2.965542 1_655
Pb2 Zr8 2.965542 1_545
Pb2 Zr3 3.073835 1_555
Pb2 Zr0 3.073835 1_555
Pb2 Zr2 3.073839 1_655
Pb2 Zr1 3.073839 1_655
Pb2 Zr9 3.129374 1_555
Pb2 Zr6 3.200108 1_554
Pb2 Zr6 3.200108 1_555
