# generated using pymatgen
data_Hf6Al16Co2Pt5
_symmetry_space_group_name_H-M   'P 1'
_cell_length_a   8.61898942
_cell_length_b   8.61903495
_cell_length_c   8.60212814
_cell_angle_alpha   60.20944259
_cell_angle_beta   60.20952523
_cell_angle_gamma   59.83043768
_symmetry_Int_Tables_number   1
_chemical_formula_structural   Hf6Al16Co2Pt5
_chemical_formula_sum   'Hf6 Al16 Co2 Pt5'
_cell_volume   452.70019869
_cell_formula_units_Z   1
loop_
 _symmetry_equiv_pos_site_id
 _symmetry_equiv_pos_as_xyz
  1  'x, y, z'
loop_
 _atom_site_type_symbol
 _atom_site_label
 _atom_site_symmetry_multiplicity
 _atom_site_fract_x
 _atom_site_fract_y
 _atom_site_fract_z
 _atom_site_occupancy
  Hf  Hf0  1  0.68267256  0.68262320  0.31858378  1
  Hf  Hf1  1  0.31497888  0.68371812  0.31645731  1
  Hf  Hf2  1  0.68372624  0.31502170  0.31644941  1
  Hf  Hf3  1  0.31732744  0.31737680  0.68141622  1
  Hf  Hf4  1  0.68502112  0.31628188  0.68354269  1
  Hf  Hf5  1  0.31627376  0.68497830  0.68355059  1
  Al  Al0  1  0.87393253  0.87391534  0.36297081  1
  Al  Al1  1  0.88349525  0.36332560  0.86617544  1
  Al  Al2  1  0.36332077  0.88348907  0.86619172  1
  Al  Al3  1  0.87988291  0.87988302  0.87719644  1
  Al  Al4  1  0.12606747  0.12608466  0.63702919  1
  Al  Al5  1  0.11650475  0.63667440  0.13382456  1
  Al  Al6  1  0.63667923  0.11651093  0.13380828  1
  Al  Al7  1  0.12011709  0.12011698  0.12280356  1
  Al  Al8  1  0.66329915  0.66329974  0.00837589  1
  Al  Al9  1  0.65925723  0.00814090  0.65741889  1
  Al  Al10  1  0.00813731  0.65925501  0.65741322  1
  Al  Al11  1  0.66844916  0.66843115  0.65466073  1
  Al  Al12  1  0.33670085  0.33670026  0.99162411  1
  Al  Al13  1  0.34074277  0.99185910  0.34258111  1
  Al  Al14  1  0.99186269  0.34074499  0.34258678  1
  Al  Al15  1  0.33155084  0.33156885  0.34533927  1
  Co  Co0  1  0.50000000  0.00000000  0.50000000  1
  Co  Co1  1  0.00000000  0.50000000  0.50000000  1
  Pt  Pt0  1  0.00000000  0.00000000  0.00000000  1
  Pt  Pt1  1  0.00000000  0.00000000  0.50000000  1
  Pt  Pt2  1  0.50000000  0.50000000  0.00000000  1
  Pt  Pt3  1  0.00000000  0.50000000  0.00000000  1
  Pt  Pt4  1  0.50000000  0.00000000  0.00000000  1
loop_
_geom_bond_atom_site_label_1
_geom_bond_atom_site_label_2
_geom_bond_distance
_geom_bond_site_symmetry_2
Hf0 Hf4 3.158358 1_555
Hf0 Hf5 3.158636 1_555
Hf0 Pt3 3.159070 1_655
Hf0 Pt4 3.159352 1_565
Hf0 Hf2 3.172965 1_555
Hf0 Hf1 3.173530 1_555
Hf1 Pt1 3.142186 1_565
Hf1 Pt2 3.145221 1_555
Hf1 Hf3 3.158358 1_555
Hf1 Hf5 3.168763 1_555
Hf1 Hf2 3.169870 1_555
Hf1 Pt4 3.172833 1_565
Hf2 Pt1 3.142228 1_655
Hf2 Pt2 3.145264 1_555
Hf2 Hf3 3.158636 1_555
Hf2 Hf4 3.168763 1_555
Hf2 Pt3 3.172581 1_655
Hf3 Pt3 3.159070 1_556
Hf3 Pt4 3.159352 1_556
Hf3 Hf5 3.172965 1_555
Hf3 Hf4 3.173530 1_555
Hf4 Pt1 3.142186 1_655
Hf4 Pt2 3.145221 1_556
Hf4 Hf5 3.169870 1_555
Hf4 Pt4 3.172833 1_556
Hf5 Pt1 3.142228 1_565
Hf5 Pt2 3.145264 1_556
Hf5 Pt3 3.172581 1_556
Al0 Pt0 2.560203 1_665
Al0 Co1 2.633367 1_655
Al0 Co0 2.633477 1_565
Al0 Pt1 2.735587 1_665
Al0 Hf0 3.092642 1_555
Al0 Hf1 3.189787 1_655
Al0 Hf2 3.190238 1_565
Al1 Pt0 2.558485 1_656
Al1 Co1 2.583948 1_655
Al1 Pt2 2.700209 1_556
Al1 Pt3 2.721450 1_656
Al1 Hf4 3.091833 1_555
Al1 Hf3 3.145833 1_655
Al1 Hf2 3.260652 1_556
Al2 Pt0 2.558436 1_566
Al2 Co0 2.584063 1_565
Al2 Pt2 2.700174 1_556
Al2 Pt4 2.721411 1_566
Al2 Hf5 3.092196 1_555
Al2 Hf3 3.146179 1_565
Al2 Hf1 3.260524 1_556
Al3 Pt0 2.551534 1_666
Al3 Pt1 2.659547 1_665
Al3 Pt4 2.674123 1_566
Al3 Pt3 2.674136 1_656
Al3 Hf4 3.154022 1_565
Al3 Hf5 3.154027 1_655
Al3 Hf0 3.205219 1_556
Al4 Pt0 2.560203 1_556
Al4 Co1 2.633367 1_555
Al4 Co0 2.633477 1_555
Al4 Pt1 2.735587 1_555
Al4 Hf3 3.092642 1_555
Al4 Hf4 3.189787 1_455
Al4 Hf5 3.190238 1_545
Al5 Pt0 2.558485 1_565
Al5 Co1 2.583948 1_555
Al5 Pt2 2.700209 1_555
Al5 Pt3 2.721450 1_555
Al5 Hf1 3.091833 1_555
Al5 Hf0 3.145833 1_455
Al5 Hf5 3.260652 1_554
Al6 Pt0 2.558436 1_655
Al6 Co0 2.584063 1_555
Al6 Pt2 2.700174 1_555
Al6 Pt4 2.721411 1_555
Al6 Hf2 3.092196 1_555
Al6 Hf0 3.146179 1_545
Al6 Hf4 3.260524 1_554
Al7 Pt0 2.551534 1_555
Al7 Pt1 2.659547 1_555
Al7 Pt4 2.674123 1_555
Al7 Pt3 2.674136 1_555
Al7 Hf1 3.154022 1_545
Al7 Hf2 3.154027 1_455
Al7 Hf3 3.205219 1_554
Al8 Pt2 2.481908 1_555
Al8 Pt3 2.489069 1_655
Al8 Pt4 2.489077 1_565
Al8 Hf0 2.844038 1_555
Al8 Hf2 2.844755 1_555
Al8 Hf1 2.844984 1_555
Al9 Co0 2.400191 1_555
Al9 Pt1 2.529692 1_655
Al9 Pt4 2.538772 1_556
Al9 Hf3 2.806939 1_555
Al9 Hf2 2.807250 1_555
Al9 Hf4 2.896361 1_555
Al10 Co1 2.400120 1_555
Al10 Pt1 2.529731 1_565
Al10 Pt3 2.538821 1_556
Al10 Hf3 2.806522 1_555
Al10 Hf1 2.807026 1_555
Al10 Hf5 2.896174 1_555
Al11 Co1 2.452598 1_655
Al11 Co0 2.452738 1_565
Al11 Pt2 2.566671 1_556
Al11 Hf0 2.774754 1_555
Al11 Hf4 2.853892 1_555
Al11 Hf5 2.854166 1_555
Al12 Pt2 2.481908 1_556
Al12 Pt3 2.489069 1_556
Al12 Pt4 2.489077 1_556
Al12 Hf3 2.844038 1_555
Al12 Hf5 2.844755 1_555
Al12 Hf4 2.844984 1_555
Al13 Co0 2.400191 1_565
Al13 Pt1 2.529692 1_565
Al13 Pt4 2.538772 1_565
Al13 Hf0 2.806939 1_555
Al13 Hf5 2.807250 1_555
Al13 Hf1 2.896361 1_555
Al14 Co1 2.400120 1_655
Al14 Pt1 2.529731 1_655
Al14 Pt3 2.538821 1_655
Al14 Hf0 2.806522 1_555
Al14 Hf4 2.807026 1_555
Al14 Hf2 2.896174 1_555
Al15 Co1 2.452598 1_555
Al15 Co0 2.452738 1_555
Al15 Pt2 2.566671 1_555
Al15 Hf3 2.774754 1_555
Al15 Hf1 2.853892 1_555
Al15 Hf2 2.854166 1_555
Co0 Hf3 3.141427 1_555
Co0 Hf0 3.141427 1_545
Co0 Hf2 3.154375 1_555
Co0 Hf5 3.154375 1_545
Co1 Hf3 3.141120 1_555
Co1 Hf0 3.141120 1_455
Co1 Hf1 3.154014 1_555
Co1 Hf4 3.154014 1_455
