# generated using pymatgen
data_LuZnCdCu3
_symmetry_space_group_name_H-M   'P 1'
_cell_length_a   5.06462600
_cell_length_b   5.02743567
_cell_length_c   5.06462627
_cell_angle_alpha   59.75499485
_cell_angle_beta   60.00000449
_cell_angle_gamma   59.75499334
_symmetry_Int_Tables_number   1
_chemical_formula_structural   LuZnCdCu3
_chemical_formula_sum   'Lu1 Zn1 Cd1 Cu3'
_cell_volume   90.84646840
_cell_formula_units_Z   1
loop_
 _symmetry_equiv_pos_site_id
 _symmetry_equiv_pos_as_xyz
  1  'x, y, z'
loop_
 _atom_site_type_symbol
 _atom_site_label
 _atom_site_symmetry_multiplicity
 _atom_site_fract_x
 _atom_site_fract_y
 _atom_site_fract_z
 _atom_site_occupancy
  Lu  Lu0  1  0.75164025  0.74508026  0.75164025  1
  Zn  Zn0  1  0.37348152  0.87955545  0.37348152  1
  Cd  Cd0  1  0.00093519  0.99719343  0.00093519  1
  Cu  Cu0  1  0.37426872  0.37605695  0.37426872  1
  Cu  Cu1  1  0.87540660  0.37605695  0.37426872  1
  Cu  Cu2  1  0.37426872  0.37605695  0.87540660  1
loop_
_geom_bond_atom_site_label_1
_geom_bond_atom_site_label_2
_geom_bond_distance
_geom_bond_site_symmetry_2
Lu0 Zn0 2.975329 1_655
Lu0 Zn0 2.975329 1_556
Lu0 Zn0 2.975334 1_555
Cd0 Cu2 2.929245 1_554
Cd0 Cu1 2.929245 1_455
Cd0 Cu0 2.929250 1_555
Cd0 Zn0 2.963375 1_455
Cd0 Zn0 2.963375 1_554
Cd0 Zn0 2.963379 1_555
Cd0 Cu2 2.968713 1_464
Cd0 Cu1 2.968713 1_464
Cd0 Cu0 2.968717 1_465
Cd0 Cu0 2.968717 1_564
Cd0 Cu2 2.968721 1_564
Cd0 Cu1 2.968721 1_465
Cd0 Lu0 3.058571 1_464
Cd0 Lu0 3.100511 1_454
Cd0 Lu0 3.100519 1_554
Cd0 Lu0 3.100519 1_455
Cu0 Zn0 2.500152 1_545
Cu0 Cu1 2.526550 1_455
Cu0 Cu2 2.526550 1_554
Cu0 Zn0 2.527296 1_555
Cu0 Cu1 2.538076 1_555
Cu0 Cu2 2.538076 1_555
Cu0 Lu0 2.947914 1_455
Cu0 Lu0 2.947914 1_554
Cu0 Lu0 2.967493 1_545
Cu1 Zn0 2.500150 1_645
Cu1 Cu2 2.526550 1_654
Cu1 Zn0 2.527299 1_555
Cu1 Cu2 2.538076 1_555
Cu1 Lu0 2.947914 1_555
Cu1 Lu0 2.947914 1_554
Cu1 Lu0 2.967493 1_545
Cu2 Zn0 2.500150 1_546
Cu2 Zn0 2.527299 1_555
Cu2 Lu0 2.947914 1_555
Cu2 Lu0 2.947914 1_455
Cu2 Lu0 2.967493 1_545
