# generated using pymatgen
data_CsZnRhF6
_symmetry_space_group_name_H-M   'P 1'
_cell_length_a   7.40875994
_cell_length_b   7.40875984
_cell_length_c   7.40875958
_cell_angle_alpha   120.45745900
_cell_angle_beta   120.65546075
_cell_angle_gamma   89.03893843
_symmetry_Int_Tables_number   1
_chemical_formula_structural   CsZnRhF6
_chemical_formula_sum   'Cs2 Zn2 Rh2 F12'
_cell_volume   285.09224679
_cell_formula_units_Z   2
loop_
 _symmetry_equiv_pos_site_id
 _symmetry_equiv_pos_as_xyz
  1  'x, y, z'
loop_
 _atom_site_type_symbol
 _atom_site_label
 _atom_site_symmetry_multiplicity
 _atom_site_fract_x
 _atom_site_fract_y
 _atom_site_fract_z
 _atom_site_occupancy
  Cs  Cs0  1  0.36437483  0.61437483  0.75000000  1
  Cs  Cs1  1  0.63562517  0.38562517  0.25000000  1
  Zn  Zn0  1  0.00000000  0.00000000  0.50000000  1
  Zn  Zn1  1  0.00000000  0.50000000  0.00000000  1
  Rh  Rh0  1  0.00000000  0.00000000  0.00000000  1
  Rh  Rh1  1  0.50000000  0.00000000  0.50000000  1
  F  F0  1  0.32421202  0.07421202  0.25000000  1
  F  F1  1  0.93343481  0.68343481  0.25000000  1
  F  F2  1  0.32953453  0.68002681  0.25549519  1
  F  F3  1  0.92453061  0.07403934  0.24450481  1
  F  F4  1  0.32953453  0.07403934  0.64950873  1
  F  F5  1  0.92453061  0.68002681  0.85049127  1
  F  F6  1  0.67578798  0.92578798  0.75000000  1
  F  F7  1  0.06656519  0.31656519  0.75000000  1
  F  F8  1  0.67046547  0.31997319  0.74450481  1
  F  F9  1  0.07546939  0.92596066  0.75549519  1
  F  F10  1  0.67046547  0.92596066  0.35049127  1
  F  F11  1  0.07546939  0.31997319  0.14950873  1
loop_
_geom_bond_atom_site_label_1
_geom_bond_atom_site_label_2
_geom_bond_distance
_geom_bond_site_symmetry_2
Cs0 F11 3.120888 1_555
Cs0 F9 3.120888 1_555
Cs0 F10 3.120888 1_556
Cs0 F8 3.120893 1_555
Cs0 F7 3.146381 1_555
Cs0 F6 3.290103 1_555
Cs1 F5 3.120888 1_555
Cs1 F3 3.120888 1_555
Cs1 F4 3.120888 1_554
Cs1 F2 3.120893 1_555
Cs1 F1 3.146381 1_555
Cs1 F0 3.290103 1_555
F0 Rh1 1.994392 1_555
F0 Rh0 1.994392 1_555
F1 Zn1 1.969228 1_655
F1 Zn0 1.969228 1_665
F2 Rh1 1.977411 1_565
F2 Zn1 2.039533 1_555
F3 Rh0 1.977416 1_655
F3 Zn0 2.039531 1_655
F4 Rh1 1.977416 1_555
F4 Zn0 2.039531 1_555
F5 Rh0 1.977409 1_666
F5 Zn1 2.039538 1_656
F6 Rh1 1.994392 1_565
F6 Rh0 1.994392 1_666
F7 Zn1 1.969228 1_556
F7 Zn0 1.969228 1_555
F8 Rh1 1.977411 1_555
F8 Zn1 2.039533 1_656
F9 Rh0 1.977416 1_566
F9 Zn0 2.039531 1_565
F10 Rh1 1.977416 1_565
F10 Zn0 2.039531 1_665
F11 Rh0 1.977409 1_555
F11 Zn1 2.039538 1_555
