# generated using pymatgen
data_AlRhBr6
_symmetry_space_group_name_H-M   'P 1'
_cell_length_a   6.36131905
_cell_length_b   6.36131939
_cell_length_c   6.73767746
_cell_angle_alpha   81.09785932
_cell_angle_beta   81.09785538
_cell_angle_gamma   119.96367405
_symmetry_Int_Tables_number   1
_chemical_formula_structural   AlRhBr6
_chemical_formula_sum   'Al1 Rh1 Br6'
_cell_volume   224.62324916
_cell_formula_units_Z   1
loop_
 _symmetry_equiv_pos_site_id
 _symmetry_equiv_pos_as_xyz
  1  'x, y, z'
loop_
 _atom_site_type_symbol
 _atom_site_label
 _atom_site_symmetry_multiplicity
 _atom_site_fract_x
 _atom_site_fract_y
 _atom_site_fract_z
 _atom_site_occupancy
  Al  Al0  1  0.16706490  0.83293510  0.00000000  1
  Rh  Rh0  1  0.83330884  0.16669116  0.00000000  1
  Br  Br0  1  0.42813943  0.07185578  0.22181011  1
  Br  Br1  1  0.92814422  0.57186057  0.77818989  1
  Br  Br2  1  0.21607885  0.21649897  0.77775123  1
  Br  Br3  1  0.78350103  0.78392115  0.22224877  1
  Br  Br4  1  0.07047356  0.42670884  0.22220627  1
  Br  Br5  1  0.57329116  0.92952644  0.77779373  1
loop_
_geom_bond_atom_site_label_1
_geom_bond_atom_site_label_2
_geom_bond_distance
_geom_bond_site_symmetry_2
Al0 Br5 2.495716 1_554
Al0 Br4 2.495716 1_555
Al0 Br0 2.500281 1_565
Al0 Br1 2.500281 1_454
Al0 Br3 2.501554 1_455
Al0 Br2 2.501554 1_564
Br0 Rh0 2.493213 1_555
Br1 Rh0 2.493213 1_556
Br2 Rh0 2.495119 1_456
Br3 Rh0 2.495119 1_565
Br4 Rh0 2.495251 1_455
Br5 Rh0 2.495251 1_566
