# generated using pymatgen
data_Ba3NaTcO6
_symmetry_space_group_name_H-M   'P 1'
_cell_length_a   7.17146385
_cell_length_b   7.08436018
_cell_length_c   7.08413625
_cell_angle_alpha   92.01070475
_cell_angle_beta   91.78714605
_cell_angle_gamma   91.78441904
_symmetry_Int_Tables_number   1
_chemical_formula_structural   Ba3NaTcO6
_chemical_formula_sum   'Ba6 Na2 Tc2 O12'
_cell_volume   359.32740666
_cell_formula_units_Z   2
loop_
 _symmetry_equiv_pos_site_id
 _symmetry_equiv_pos_as_xyz
  1  'x, y, z'
loop_
 _atom_site_type_symbol
 _atom_site_label
 _atom_site_symmetry_multiplicity
 _atom_site_fract_x
 _atom_site_fract_y
 _atom_site_fract_z
 _atom_site_occupancy
  Ba  Ba0  1  0.89489187  0.25284274  0.60560692  1
  Ba  Ba1  1  0.60513677  0.89441710  0.24714100  1
  Ba  Ba2  1  0.75000938  0.39401710  0.10594708  1
  Ba  Ba3  1  0.10510813  0.74715726  0.39439308  1
  Ba  Ba4  1  0.39486323  0.10558290  0.75285900  1
  Ba  Ba5  1  0.24999062  0.60598290  0.89405292  1
  Na  Na0  1  0.25005788  0.24537226  0.25473654  1
  Na  Na1  1  0.74994212  0.75462774  0.74526346  1
  Tc  Tc0  1  0.00000000  0.00000000  0.00000000  1
  Tc  Tc1  1  0.50000000  0.50000000  0.50000000  1
  O  O0  1  0.55166280  0.23885438  0.42082569  1
  O  O1  1  0.42031688  0.54725759  0.23888012  1
  O  O2  1  0.23169259  0.41542040  0.55213453  1
  O  O3  1  0.94839465  0.07919342  0.26116844  1
  O  O4  1  0.26834416  0.94787702  0.08459718  1
  O  O5  1  0.07972113  0.26113283  0.95276114  1
  O  O6  1  0.44833720  0.76114562  0.57917431  1
  O  O7  1  0.57968312  0.45274241  0.76111988  1
  O  O8  1  0.76830741  0.58457960  0.44786547  1
  O  O9  1  0.05160535  0.92080658  0.73883156  1
  O  O10  1  0.92027887  0.73886717  0.04723886  1
  O  O11  1  0.73165584  0.05212298  0.91540282  1
loop_
_geom_bond_atom_site_label_1
_geom_bond_atom_site_label_2
_geom_bond_distance
_geom_bond_site_symmetry_2
Ba0 O2 2.686710 1_655
Ba0 O3 2.737077 1_555
Ba0 O0 2.748970 1_555
Ba0 O5 2.755028 1_655
Ba0 O8 2.801762 1_555
Ba0 O9 2.818015 1_645
Ba0 O11 2.912798 1_555
Ba0 O7 2.928193 1_555
Ba1 O4 2.686467 1_555
Ba1 O0 2.737181 1_565
Ba1 O3 2.749204 1_565
Ba1 O1 2.755159 1_555
Ba1 O11 2.801510 1_564
Ba1 O6 2.818379 1_555
Ba1 O8 2.912816 1_555
Ba1 O10 2.927923 1_555
Ba2 O11 2.728664 1_554
Ba2 O8 2.728822 1_555
Ba2 O7 2.747590 1_554
Ba2 O10 2.747664 1_555
Ba2 O5 2.807453 1_654
Ba2 O1 2.807607 1_555
Ba2 O3 2.911998 1_555
Ba2 O0 2.912041 1_555
Ba3 O8 2.686710 1_455
Ba3 O9 2.737077 1_555
Ba3 O6 2.748970 1_555
Ba3 O10 2.755028 1_455
Ba3 O2 2.801762 1_555
Ba3 O3 2.818015 1_465
Ba3 O4 2.912798 1_555
Ba3 O1 2.928193 1_555
Ba4 O11 2.686467 1_555
Ba4 O6 2.737181 1_545
Ba4 O9 2.749204 1_545
Ba4 O7 2.755159 1_555
Ba4 O4 2.801510 1_546
Ba4 O0 2.818379 1_555
Ba4 O2 2.912816 1_555
Ba4 O5 2.927923 1_555
Ba5 O4 2.728664 1_556
Ba5 O2 2.728822 1_555
Ba5 O1 2.747590 1_556
Ba5 O5 2.747664 1_555
Ba5 O10 2.807453 1_456
Ba5 O7 2.807607 1_555
Ba5 O9 2.911998 1_555
Ba5 O6 2.912041 1_555
Na0 O2 2.399236 1_555
Na0 O4 2.400117 1_545
Na0 O0 2.432316 1_555
Na0 O3 2.433002 1_455
Na0 O1 2.437241 1_555
Na0 O5 2.437883 1_554
Na1 O8 2.399236 1_555
Na1 O11 2.400117 1_565
Na1 O6 2.432316 1_555
Na1 O9 2.433002 1_655
Na1 O7 2.437241 1_555
Na1 O10 2.437883 1_556
O0 Tc1 1.964020 1_555
O1 Tc1 1.962107 1_555
O2 Tc1 2.045939 1_555
O3 Tc0 1.964074 1_655
O4 Tc0 2.046156 1_565
O5 Tc0 1.962321 1_556
O6 Tc1 1.964020 1_555
O7 Tc1 1.962107 1_555
O8 Tc1 2.045939 1_555
O9 Tc0 1.964074 1_566
O10 Tc0 1.962321 1_665
O11 Tc0 2.046156 1_656
