# generated using pymatgen
data_Zr6MnI12
_symmetry_space_group_name_H-M   'P 1'
_cell_length_a   9.32015561
_cell_length_b   9.32015632
_cell_length_c   9.32015702
_cell_angle_alpha   107.12438216
_cell_angle_beta   107.12437583
_cell_angle_gamma   107.12437498
_symmetry_Int_Tables_number   1
_chemical_formula_structural   Zr6MnI12
_chemical_formula_sum   'Zr6 Mn1 I12'
_cell_volume   671.94047012
_cell_formula_units_Z   1
loop_
 _symmetry_equiv_pos_site_id
 _symmetry_equiv_pos_as_xyz
  1  'x, y, z'
loop_
 _atom_site_type_symbol
 _atom_site_label
 _atom_site_symmetry_multiplicity
 _atom_site_fract_x
 _atom_site_fract_y
 _atom_site_fract_z
 _atom_site_occupancy
  Zr  Zr0  1  0.96868391  0.71495247  0.90520961  1
  Zr  Zr1  1  0.28504753  0.09479039  0.03131609  1
  Zr  Zr2  1  0.09479039  0.03131609  0.28504753  1
  Zr  Zr3  1  0.90520961  0.96868391  0.71495247  1
  Zr  Zr4  1  0.71495247  0.90520961  0.96868391  1
  Zr  Zr5  1  0.03131609  0.28504753  0.09479039  1
  Mn  Mn0  1  0.00000000  0.00000000  0.00000000  1
  I  I0  1  0.92263875  0.31110589  0.77423517  1
  I  I1  1  0.68889411  0.22576483  0.07736125  1
  I  I2  1  0.44836082  0.14629014  0.37405073  1
  I  I3  1  0.85370986  0.62594927  0.55163918  1
  I  I4  1  0.22576483  0.07736125  0.68889411  1
  I  I5  1  0.62594927  0.55163918  0.85370986  1
  I  I6  1  0.37405073  0.44836082  0.14629014  1
  I  I7  1  0.77423517  0.92263875  0.31110589  1
  I  I8  1  0.14629014  0.37405073  0.44836082  1
  I  I9  1  0.55163918  0.85370986  0.62594927  1
  I  I10  1  0.31110589  0.77423517  0.92263875  1
  I  I11  1  0.07736125  0.68889411  0.22576483  1
loop_
_geom_bond_atom_site_label_1
_geom_bond_atom_site_label_2
_geom_bond_distance
_geom_bond_site_symmetry_2
Mn0 Zr4 2.435778 1_444
Mn0 Zr1 2.435778 1_555
Mn0 Zr0 2.435778 1_444
Mn0 Zr5 2.435778 1_555
Mn0 Zr3 2.435778 1_444
Mn0 Zr2 2.435778 1_555
I0 Zr5 2.966636 1_656
I0 Zr3 3.019984 1_545
I0 Zr0 3.446137 1_555
I1 Zr4 2.966636 1_544
I1 Zr5 3.019983 1_655
I1 Zr1 3.446136 1_555
I2 Zr2 2.912534 1_555
I2 Zr1 2.924821 1_555
I3 Zr0 2.912534 1_555
I3 Zr3 2.924820 1_555
I4 Zr3 2.966636 1_445
I4 Zr1 3.019984 1_556
I4 Zr2 3.446137 1_555
I5 Zr4 2.912534 1_555
I5 Zr0 2.924820 1_555
I6 Zr1 2.912534 1_555
I6 Zr5 2.924820 1_555
I7 Zr2 2.966636 1_665
I7 Zr4 3.019984 1_554
I7 Zr3 3.446137 1_555
I8 Zr5 2.912534 1_555
I8 Zr2 2.924820 1_555
I9 Zr3 2.912534 1_555
I9 Zr4 2.924821 1_555
I10 Zr1 2.966636 1_566
I10 Zr0 3.019983 1_455
I10 Zr4 3.446136 1_555
I11 Zr0 2.966636 1_454
I11 Zr2 3.019984 1_565
I11 Zr5 3.446137 1_555
