# generated using pymatgen
data_Ba2Sr(LiBi)4
_symmetry_space_group_name_H-M   'P 1'
_cell_length_a   9.51181546
_cell_length_b   9.51181505
_cell_length_c   9.51181602
_cell_angle_alpha   148.77529401
_cell_angle_beta   132.66566265
_cell_angle_gamma   57.80111086
_symmetry_Int_Tables_number   1
_chemical_formula_structural   Ba2Sr(LiBi)4
_chemical_formula_sum   'Ba2 Sr1 Li4 Bi4'
_cell_volume   325.57180325
_cell_formula_units_Z   1
loop_
 _symmetry_equiv_pos_site_id
 _symmetry_equiv_pos_as_xyz
  1  'x, y, z'
loop_
 _atom_site_type_symbol
 _atom_site_label
 _atom_site_symmetry_multiplicity
 _atom_site_fract_x
 _atom_site_fract_y
 _atom_site_fract_z
 _atom_site_occupancy
  Ba  Ba0  1  0.63118324  0.13118324  0.50000000  1
  Ba  Ba1  1  0.36881676  0.86881676  0.50000000  1
  Sr  Sr0  1  0.00000000  0.00000000  0.00000000  1
  Li  Li0  1  0.98153799  0.67419446  0.30734353  1
  Li  Li1  1  0.01846201  0.32580554  0.69265647  1
  Li  Li2  1  0.63314906  0.32580554  0.30734353  1
  Li  Li3  1  0.36685094  0.67419446  0.69265647  1
  Bi  Bi0  1  0.78959119  0.78959119  1.00000000  1
  Bi  Bi1  1  0.21040881  0.21040881  0.00000000  1
  Bi  Bi2  1  0.70090046  0.50000000  0.20090046  1
  Bi  Bi3  1  0.29909954  0.50000000  0.79909954  1
loop_
_geom_bond_atom_site_label_1
_geom_bond_atom_site_label_2
_geom_bond_distance
_geom_bond_site_symmetry_2
Ba0 Li0 3.546088 1_556
Ba0 Li3 3.546089 1_555
Ba0 Li0 3.546089 1_545
Ba0 Li3 3.546089 1_544
Ba0 Li1 3.559589 1_655
Ba0 Li2 3.559589 1_555
Ba0 Bi0 3.676017 1_555
Ba0 Bi0 3.676018 1_544
Ba0 Bi3 3.698651 1_544
Ba0 Bi2 3.698651 1_545
Ba0 Bi3 3.698652 1_555
Ba0 Bi2 3.698652 1_556
Ba0 Bi1 4.039813 1_656
Ba0 Bi1 4.039813 1_555
Ba1 Li1 3.546088 1_554
Ba1 Li2 3.546089 1_555
Ba1 Li1 3.546089 1_565
Ba1 Li2 3.546089 1_566
Ba1 Li0 3.559589 1_455
Ba1 Li3 3.559589 1_555
Ba1 Bi1 3.676017 1_555
Ba1 Bi1 3.676018 1_566
Ba1 Bi2 3.698651 1_566
Ba1 Bi3 3.698651 1_565
Ba1 Bi2 3.698652 1_555
Ba1 Bi3 3.698652 1_554
Ba1 Bi0 4.039813 1_454
Ba1 Bi0 4.039813 1_555
Bi0 Li1 3.013521 1_666
Bi0 Li2 3.013521 1_566
Bi0 Li2 3.013521 1_555
Bi0 Li1 3.013521 1_655
Bi0 Li3 3.033504 1_555
Bi0 Li0 3.033504 1_556
Bi0 Sr0 3.504238 1_666
Bi1 Li0 3.013521 1_444
Bi1 Li3 3.013521 1_544
Bi1 Li3 3.013521 1_555
Bi1 Li0 3.013521 1_455
Bi1 Li2 3.033504 1_555
Bi1 Li1 3.033504 1_554
Bi1 Sr0 3.504238 1_555
Bi2 Li0 3.012833 1_555
Bi2 Li2 3.012833 1_555
Bi2 Bi3 3.068362 1_554
Bi2 Sr0 3.430753 1_666
Bi2 Sr0 3.430753 1_655
Bi3 Li1 3.012833 1_555
Bi3 Li3 3.012833 1_555
Bi3 Sr0 3.430753 1_555
Bi3 Sr0 3.430753 1_566
