# generated using pymatgen
data_Lu12InCo4Au
_symmetry_space_group_name_H-M   'P 1'
_cell_length_a   8.10211592
_cell_length_b   8.10211544
_cell_length_c   8.10211607
_cell_angle_alpha   111.24952736
_cell_angle_beta   110.27421624
_cell_angle_gamma   106.92119323
_symmetry_Int_Tables_number   1
_chemical_formula_structural   Lu12InCo4Au
_chemical_formula_sum   'Lu12 In1 Co4 Au1'
_cell_volume   408.78823193
_cell_formula_units_Z   1
loop_
 _symmetry_equiv_pos_site_id
 _symmetry_equiv_pos_as_xyz
  1  'x, y, z'
loop_
 _atom_site_type_symbol
 _atom_site_label
 _atom_site_symmetry_multiplicity
 _atom_site_fract_x
 _atom_site_fract_y
 _atom_site_fract_z
 _atom_site_occupancy
  Lu  Lu0  1  0.42655403  0.22067934  0.20587469  1
  Lu  Lu1  1  0.57344597  0.77932066  0.79412531  1
  Lu  Lu2  1  0.01480465  0.22067934  0.79412531  1
  Lu  Lu3  1  0.98519535  0.77932066  0.20587469  1
  Lu  Lu4  1  0.18688516  0.29083961  0.47772477  1
  Lu  Lu5  1  0.81311484  0.70916039  0.52227523  1
  Lu  Lu6  1  0.18688516  0.70916039  0.89604655  1
  Lu  Lu7  1  0.81311484  0.29083961  0.10395345  1
  Lu  Lu8  1  0.31577378  0.61787304  0.30209827  1
  Lu  Lu9  1  0.68422622  0.38212696  0.69790173  1
  Lu  Lu10  1  0.31577378  0.01367451  0.69790173  1
  Lu  Lu11  1  0.68422622  0.98632549  0.30209827  1
  In  In0  1  0.50000000  0.50000000  0.00000000  1
  Co  Co0  1  0.38059731  1.00000000  0.38059731  1
  Co  Co1  1  0.61940269  0.00000000  0.61940269  1
  Co  Co2  1  0.11215647  0.61215647  0.50000000  1
  Co  Co3  1  0.88784353  0.38784353  0.50000000  1
  Au  Au0  1  0.00000000  0.00000000  0.00000000  1
loop_
_geom_bond_atom_site_label_1
_geom_bond_atom_site_label_2
_geom_bond_distance
_geom_bond_site_symmetry_2
Lu0 Lu6 3.412352 1_544
Lu0 Lu4 3.412353 1_555
Lu0 Lu5 3.451152 1_555
Lu0 Lu7 3.451157 1_555
Lu1 Lu7 3.412352 1_566
Lu1 Lu5 3.412353 1_555
Lu1 Lu4 3.451152 1_555
Lu1 Lu6 3.451157 1_555
Lu2 Lu7 3.412346 1_456
Lu2 Lu5 3.412353 1_445
Lu2 Lu6 3.451150 1_555
Lu2 Lu4 3.451152 1_555
Lu3 Lu6 3.412346 1_654
Lu3 Lu4 3.412353 1_665
Lu3 Lu7 3.451150 1_555
Lu3 Lu5 3.451152 1_555
Lu4 Lu7 3.462080 1_455
Lu4 Lu8 3.505434 1_555
Lu4 Lu9 3.506196 1_555
Lu5 Lu6 3.462080 1_655
Lu5 Lu9 3.505434 1_555
Lu5 Lu8 3.506196 1_555
Lu6 Lu9 3.505427 1_455
Lu6 Lu8 3.506181 1_556
Lu7 Lu8 3.505427 1_655
Lu7 Lu9 3.506181 1_554
Lu10 Lu5 3.505425 1_445
Lu10 Lu6 3.505427 1_545
Lu10 Lu7 3.506191 1_556
Lu10 Lu4 3.506201 1_555
Lu11 Lu4 3.505425 1_665
Lu11 Lu7 3.505427 1_565
Lu11 Lu6 3.506191 1_554
Lu11 Lu5 3.506201 1_555
In0 Lu9 3.286062 1_554
In0 Lu8 3.286062 1_555
In0 Lu10 3.286067 1_554
In0 Lu11 3.286067 1_555
In0 Lu0 3.301241 1_555
In0 Lu1 3.301241 1_554
In0 Lu3 3.301241 1_555
In0 Lu2 3.301241 1_554
In0 Lu7 3.474679 1_555
In0 Lu6 3.474679 1_554
In0 Lu5 3.474681 1_555
In0 Lu4 3.474681 1_554
Co0 Co1 2.211953 1_565
Co0 Lu0 2.674306 1_565
Co0 Lu3 2.674306 1_455
Co0 Lu8 2.767746 1_555
Co0 Lu9 2.767750 1_565
Co0 Lu11 2.767753 1_555
Co0 Lu10 2.767756 1_565
Co0 Lu6 3.209336 1_554
Co0 Lu4 3.209342 1_565
Co1 Lu1 2.674306 1_545
Co1 Lu2 2.674306 1_655
Co1 Lu9 2.767746 1_555
Co1 Lu8 2.767750 1_545
Co1 Lu10 2.767753 1_555
Co1 Lu11 2.767756 1_545
Co1 Lu7 3.209336 1_556
Co1 Lu5 3.209342 1_545
Co2 Co3 2.164082 1_455
Co2 Lu10 2.671562 1_565
Co2 Lu8 2.671569 1_555
Co2 Lu4 2.798082 1_555
Co2 Lu5 2.798082 1_455
Co2 Lu7 2.798086 1_455
Co2 Lu6 2.798090 1_555
Co2 Lu3 3.165918 1_455
Co2 Lu1 3.165918 1_555
Co3 Lu11 2.671562 1_545
Co3 Lu9 2.671569 1_555
Co3 Lu5 2.798082 1_555
Co3 Lu4 2.798082 1_655
Co3 Lu6 2.798086 1_655
Co3 Lu7 2.798090 1_555
Co3 Lu2 3.165918 1_655
Co3 Lu0 3.165918 1_555
Au0 Lu2 2.858170 1_554
Au0 Lu3 2.858170 1_445
Au0 Lu0 2.858170 1_555
Au0 Lu1 2.858170 1_444
Au0 Lu6 3.174421 1_544
Au0 Lu7 3.174421 1_455
Au0 Lu4 3.174422 1_555
Au0 Lu5 3.174422 1_444
