# generated using pymatgen
data_Ti19Se20
_symmetry_space_group_name_H-M   'P 1'
_cell_length_a   6.91900700
_cell_length_b   9.63299679
_cell_length_c   11.32478933
_cell_angle_alpha   91.53457985
_cell_angle_beta   98.80167736
_cell_angle_gamma   111.02438833
_symmetry_Int_Tables_number   1
_chemical_formula_structural   Ti19Se20
_chemical_formula_sum   'Ti19 Se20'
_cell_volume   693.52517236
_cell_formula_units_Z   1
loop_
 _symmetry_equiv_pos_site_id
 _symmetry_equiv_pos_as_xyz
  1  'x, y, z'
loop_
 _atom_site_type_symbol
 _atom_site_label
 _atom_site_symmetry_multiplicity
 _atom_site_fract_x
 _atom_site_fract_y
 _atom_site_fract_z
 _atom_site_occupancy
  Ti  Ti0  1  0.19191100  0.28664700  0.19767100  1
  Ti  Ti1  1  0.20107200  0.78765800  0.20841400  1
  Ti  Ti2  1  0.40151600  0.10317900  0.39222500  1
  Ti  Ti3  1  0.69246500  0.28147100  0.20334600  1
  Ti  Ti4  1  0.89844300  0.10427300  0.39176600  1
  Ti  Ti5  1  0.69063800  0.78697000  0.20857900  1
  Ti  Ti6  1  0.59852300  0.39749000  0.60562200  1
  Ti  Ti7  1  0.80808900  0.71335300  0.80232900  1
  Ti  Ti8  1  0.10155700  0.89572700  0.60823400  1
  Ti  Ti9  1  0.89818500  0.60235000  0.39509100  1
  Ti  Ti10  1  0.79892800  0.21234200  0.79158600  1
  Ti  Ti11  1  0.00000000  0.50000000  0.00000000  1
  Ti  Ti12  1  0.10181500  0.39765000  0.60490900  1
  Ti  Ti13  1  0.30753500  0.71852900  0.79665400  1
  Ti  Ti14  1  0.59848400  0.89682100  0.60777500  1
  Ti  Ti15  1  0.40147700  0.60251000  0.39437800  1
  Ti  Ti16  1  0.30936200  0.21303000  0.79142100  1
  Ti  Ti17  1  0.50000000  0.50000000  0.00000000  1
  Ti  Ti18  1  0.50000000  0.00000000  0.00000000  1
  Se  Se0  1  0.36656200  0.71575900  0.03522300  1
  Se  Se1  1  0.32070600  0.07206200  0.16149200  1
  Se  Se2  1  0.56099700  0.50525800  0.23206800  1
  Se  Se3  1  0.53557800  0.88527300  0.37088500  1
  Se  Se4  1  0.86803100  0.71788600  0.03595100  1
  Se  Se5  1  0.76771000  0.31850400  0.43527900  1
  Se  Se6  1  0.83199800  0.07140400  0.16119300  1
  Se  Se7  1  0.73246500  0.68234600  0.56667800  1
  Se  Se8  1  0.96543100  0.11578000  0.62950200  1
  Se  Se9  1  0.06044600  0.50627400  0.23258100  1
  Se  Se10  1  0.03456900  0.88422000  0.37049800  1
  Se  Se11  1  0.26753500  0.31765400  0.43332200  1
  Se  Se12  1  0.16800200  0.92859600  0.83880700  1
  Se  Se13  1  0.93955400  0.49372600  0.76741900  1
  Se  Se14  1  0.23229000  0.68149600  0.56472100  1
  Se  Se15  1  0.46442200  0.11472700  0.62911500  1
  Se  Se16  1  0.13196900  0.28211400  0.96404900  1
  Se  Se17  1  0.43900300  0.49474200  0.76793200  1
  Se  Se18  1  0.67929400  0.92793800  0.83850800  1
  Se  Se19  1  0.63343800  0.28424100  0.96477700  1
loop_
_geom_bond_atom_site_label_1
_geom_bond_atom_site_label_2
_geom_bond_distance
_geom_bond_site_symmetry_2
Se0 Ti11 2.602895 1_555
Se0 Ti17 2.603165 1_555
Se0 Ti1 2.611751 1_555
Se0 Ti5 2.613362 1_555
Se0 Ti18 2.620302 1_565
Se0 Ti13 2.672252 1_554
Se1 Ti18 2.570945 1_555
Se1 Ti2 2.573118 1_555
Se1 Ti0 2.573516 1_555
Se1 Ti3 2.600526 1_555
Se1 Ti1 2.656819 1_545
Se2 Ti5 2.569974 1_555
Se2 Ti17 2.593414 1_555
Se2 Ti15 2.597135 1_555
Se2 Ti9 2.598047 1_555
Se2 Ti0 2.626936 1_555
Se2 Ti3 2.653384 1_555
Se3 Ti15 2.579147 1_555
Se3 Ti5 2.581769 1_555
Se3 Ti1 2.582408 1_555
Se3 Ti2 2.600669 1_565
Se3 Ti4 2.607877 1_565
Se3 Ti14 2.644010 1_555
Se4 Ti7 2.611277 1_554
Se4 Ti11 2.616869 1_655
Se4 Ti17 2.618651 1_555
Se4 Ti1 2.649023 1_655
Se4 Ti5 2.649904 1_555
Se5 Ti3 2.587540 1_555
Se5 Ti4 2.596378 1_555
Se5 Ti2 2.599344 1_555
Se5 Ti12 2.629330 1_655
Se5 Ti9 2.630527 1_555
Se5 Ti6 2.631011 1_555
Se6 Ti18 2.568637 1_555
Se6 Ti0 2.570122 1_655
Se6 Ti4 2.571735 1_555
Se6 Ti3 2.597283 1_555
Se6 Ti5 2.658652 1_545
Se7 Ti8 2.604247 1_655
Se7 Ti14 2.607539 1_555
Se7 Ti7 2.627314 1_555
Se7 Ti9 2.630626 1_555
Se7 Ti15 2.632838 1_555
Se7 Ti6 2.635946 1_555
Se8 Ti12 2.573535 1_655
Se8 Ti16 2.622189 1_655
Se8 Ti10 2.624182 1_555
Se8 Ti14 2.625643 1_545
Se8 Ti8 2.629291 1_645
Se8 Ti4 2.653472 1_555
Se9 Ti1 2.568589 1_555
Se9 Ti11 2.598534 1_555
Se9 Ti9 2.605886 1_455
Se9 Ti15 2.607838 1_555
Se9 Ti0 2.627892 1_555
Se9 Ti3 2.651233 1_455
Se10 Ti9 2.573535 1_455
Se10 Ti5 2.622189 1_455
Se10 Ti1 2.624182 1_555
Se10 Ti2 2.625643 1_565
Se10 Ti4 2.629291 1_465
Se10 Ti8 2.653472 1_555
Se11 Ti4 2.604247 1_455
Se11 Ti2 2.607539 1_555
Se11 Ti0 2.627314 1_555
Se11 Ti12 2.630626 1_555
Se11 Ti6 2.632838 1_555
Se11 Ti15 2.635946 1_555
Se12 Ti18 2.568637 1_566
Se12 Ti7 2.570122 1_455
Se12 Ti8 2.571735 1_555
Se12 Ti13 2.597283 1_555
Se12 Ti16 2.658652 1_565
Se13 Ti10 2.568589 1_555
Se13 Ti11 2.598534 1_656
Se13 Ti12 2.605886 1_655
Se13 Ti6 2.607838 1_555
Se13 Ti7 2.627892 1_555
Se13 Ti13 2.651233 1_655
Se14 Ti13 2.587540 1_555
Se14 Ti8 2.596378 1_555
Se14 Ti14 2.599344 1_555
Se14 Ti9 2.629330 1_455
Se14 Ti12 2.630527 1_555
Se14 Ti15 2.631011 1_555
Se15 Ti6 2.579147 1_555
Se15 Ti16 2.581769 1_555
Se15 Ti10 2.582408 1_555
Se15 Ti14 2.600669 1_545
Se15 Ti8 2.607877 1_545
Se15 Ti2 2.644010 1_555
Se16 Ti0 2.611277 1_556
Se16 Ti11 2.616869 1_556
Se16 Ti17 2.618651 1_556
Se16 Ti10 2.649023 1_455
Se16 Ti16 2.649904 1_555
Se17 Ti16 2.569974 1_555
Se17 Ti17 2.593414 1_556
Se17 Ti6 2.597135 1_555
Se17 Ti12 2.598047 1_555
Se17 Ti7 2.626936 1_555
Se17 Ti13 2.653384 1_555
Se18 Ti18 2.570945 1_566
Se18 Ti14 2.573118 1_555
Se18 Ti7 2.573516 1_555
Se18 Ti13 2.600526 1_555
Se18 Ti10 2.656819 1_565
Se19 Ti11 2.602895 1_656
Se19 Ti17 2.603165 1_556
Se19 Ti10 2.611751 1_555
Se19 Ti16 2.613362 1_555
Se19 Ti18 2.620302 1_556
Se19 Ti3 2.672252 1_556
