# generated using pymatgen
data_Ba3Sc2TeO9
_symmetry_space_group_name_H-M   'P 1'
_cell_length_a   5.90938951
_cell_length_b   5.90937992
_cell_length_c   14.63067363
_cell_angle_alpha   90.00000000
_cell_angle_beta   90.00000000
_cell_angle_gamma   120.00027291
_symmetry_Int_Tables_number   1
_chemical_formula_structural   Ba3Sc2TeO9
_chemical_formula_sum   'Ba6 Sc4 Te2 O18'
_cell_volume   442.46435440
_cell_formula_units_Z   2
loop_
 _symmetry_equiv_pos_site_id
 _symmetry_equiv_pos_as_xyz
  1  'x, y, z'
loop_
 _atom_site_type_symbol
 _atom_site_label
 _atom_site_symmetry_multiplicity
 _atom_site_fract_x
 _atom_site_fract_y
 _atom_site_fract_z
 _atom_site_occupancy
  Ba  Ba0  1  0.66666558  0.33333306  0.59208216  1
  Ba  Ba1  1  0.33332947  0.66666535  0.40800467  1
  Ba  Ba2  1  0.33333442  0.66666694  0.09208216  1
  Ba  Ba3  1  0.66667053  0.33333465  0.90800467  1
  Ba  Ba4  1  0.00000015  0.99999989  0.75603944  1
  Ba  Ba5  1  0.99999985  0.00000011  0.25603944  1
  Sc  Sc0  1  0.99999375  0.00001392  0.49718144  1
  Sc  Sc1  1  0.00000625  0.99998608  0.99718144  1
  Sc  Sc2  1  0.66666642  0.33333272  0.35479783  1
  Sc  Sc3  1  0.33333358  0.66666728  0.85479783  1
  Te  Te0  1  0.33333212  0.66666834  0.65820330  1
  Te  Te1  1  0.66666788  0.33333166  0.15820330  1
  O  O0  1  0.48318079  0.96636362  0.74000094  1
  O  O1  1  0.48318231  0.51681799  0.74000064  1
  O  O2  1  0.03363601  0.51681843  0.74000124  1
  O  O3  1  0.51681921  0.03363638  0.24000094  1
  O  O4  1  0.51681769  0.48318201  0.24000064  1
  O  O5  1  0.96636399  0.48318157  0.24000124  1
  O  O6  1  0.17707423  0.35414873  0.58509732  1
  O  O7  1  0.17707554  0.82292328  0.58509805  1
  O  O8  1  0.64584928  0.82292480  0.58509732  1
  O  O9  1  0.83681120  0.67362417  0.41944645  1
  O  O10  1  0.83681197  0.16318688  0.41944779  1
  O  O11  1  0.32637516  0.16318774  0.41944641  1
  O  O12  1  0.82292577  0.64585127  0.08509732  1
  O  O13  1  0.82292446  0.17707672  0.08509805  1
  O  O14  1  0.35415072  0.17707520  0.08509732  1
  O  O15  1  0.16318880  0.32637583  0.91944645  1
  O  O16  1  0.16318803  0.83681312  0.91944779  1
  O  O17  1  0.67362484  0.83681226  0.91944641  1
loop_
_geom_bond_atom_site_label_1
_geom_bond_atom_site_label_2
_geom_bond_distance
_geom_bond_site_symmetry_2
Ba0 O1 2.865400 1_555
Ba0 O0 2.865402 1_545
Ba0 O2 2.865410 1_655
Ba0 O7 2.958365 1_545
Ba0 O7 2.958367 1_655
Ba0 O8 2.958375 1_555
Ba0 O8 2.958375 1_545
Ba0 O6 2.958376 1_555
Ba0 O6 2.958384 1_655
Ba0 O10 3.067948 1_555
Ba0 O11 3.067955 1_555
Ba0 O9 3.067955 1_555
Ba1 O10 2.959622 1_455
Ba1 O9 2.959634 1_455
Ba1 O11 2.959640 1_565
Ba1 O11 2.959645 1_555
Ba1 O10 2.959646 1_565
Ba1 O9 2.959661 1_555
Ba1 O6 3.044854 1_555
Ba1 O7 3.044854 1_555
Ba1 O8 3.044864 1_555
Ba1 O5 3.093330 1_455
Ba1 O3 3.093349 1_565
Ba1 O4 3.093360 1_555
Ba2 O4 2.865400 1_555
Ba2 O3 2.865402 1_565
Ba2 O5 2.865410 1_455
Ba2 O13 2.958365 1_565
Ba2 O13 2.958367 1_455
Ba2 O14 2.958375 1_555
Ba2 O14 2.958375 1_565
Ba2 O12 2.958376 1_555
Ba2 O12 2.958384 1_455
Ba2 O16 3.067948 1_554
Ba2 O17 3.067955 1_554
Ba2 O15 3.067955 1_554
Ba3 O16 2.959622 1_655
Ba3 O15 2.959634 1_655
Ba3 O17 2.959640 1_545
Ba3 O17 2.959645 1_555
Ba3 O16 2.959646 1_545
Ba3 O15 2.959661 1_555
Ba3 O12 3.044854 1_556
Ba3 O13 3.044854 1_556
Ba3 O14 3.044864 1_556
Ba3 O2 3.093330 1_655
Ba3 O0 3.093349 1_545
Ba3 O1 3.093360 1_555
Ba4 O17 2.916426 1_455
Ba4 O15 2.916427 1_565
Ba4 O16 2.916444 1_555
Ba4 O1 2.968978 1_455
Ba4 O1 2.968979 1_565
Ba4 O2 2.968984 1_555
Ba4 O0 2.968986 1_555
Ba4 O2 2.968990 1_565
Ba4 O0 2.968999 1_455
Ba4 O6 3.088662 1_565
Ba4 O7 3.088668 1_555
Ba4 O8 3.088670 1_455
Ba5 O11 2.916426 1_655
Ba5 O9 2.916427 1_545
Ba5 O10 2.916444 1_555
Ba5 O4 2.968978 1_655
Ba5 O4 2.968979 1_545
Ba5 O5 2.968984 1_555
Ba5 O3 2.968986 1_555
Ba5 O5 2.968990 1_545
Ba5 O3 2.968999 1_655
Ba5 O12 3.088662 1_545
Ba5 O13 3.088668 1_555
Ba5 O14 3.088670 1_655
O0 Te0 1.945398 1_555
O0 Sc3 2.274484 1_555
O1 Te0 1.945423 1_555
O1 Sc3 2.274498 1_555
O2 Te0 1.945406 1_555
O2 Sc3 2.274487 1_555
O3 Te1 1.945398 1_555
O3 Sc2 2.274484 1_555
O4 Te1 1.945423 1_555
O4 Sc2 2.274498 1_555
O5 Te1 1.945406 1_555
O5 Sc2 2.274487 1_555
O6 Te0 1.924059 1_555
O6 Sc0 2.222401 1_455
O7 Te0 1.924025 1_555
O7 Sc0 2.222572 1_465
O8 Te0 1.924051 1_555
O8 Sc0 2.222444 1_565
O9 Sc2 1.981778 1_555
O9 Sc0 2.020782 1_565
O10 Sc2 1.981795 1_555
O10 Sc0 2.020630 1_555
O11 Sc2 1.981780 1_555
O11 Sc0 2.020749 1_455
O12 Te1 1.924059 1_555
O12 Sc1 2.222401 1_654
O13 Te1 1.924025 1_555
O13 Sc1 2.222572 1_644
O14 Te1 1.924051 1_555
O14 Sc1 2.222444 1_544
O15 Sc3 1.981778 1_555
O15 Sc1 2.020782 1_545
O16 Sc3 1.981795 1_555
O16 Sc1 2.020630 1_555
O17 Sc3 1.981780 1_555
O17 Sc1 2.020749 1_655
