# generated using pymatgen
data_TaPt3
_symmetry_space_group_name_H-M   'P 1'
_cell_length_a   4.59164941
_cell_length_b   4.89359383
_cell_length_c   5.57011528
_cell_angle_alpha   90.00000000
_cell_angle_beta   90.00000000
_cell_angle_gamma   90.00000000
_symmetry_Int_Tables_number   1
_chemical_formula_structural   TaPt3
_chemical_formula_sum   'Ta2 Pt6'
_cell_volume   125.15863673
_cell_formula_units_Z   2
loop_
 _symmetry_equiv_pos_site_id
 _symmetry_equiv_pos_as_xyz
  1  'x, y, z'
loop_
 _atom_site_type_symbol
 _atom_site_label
 _atom_site_symmetry_multiplicity
 _atom_site_fract_x
 _atom_site_fract_y
 _atom_site_fract_z
 _atom_site_occupancy
  Ta  Ta0  1  0.75000000  0.34011807  0.75000000  1
  Ta  Ta1  1  0.25000000  0.65988193  0.25000000  1
  Pt  Pt0  1  0.25000000  0.16602583  0.50012065  1
  Pt  Pt1  1  0.75000000  0.83397417  0.49987935  1
  Pt  Pt2  1  0.25000000  0.16602583  0.99987935  1
  Pt  Pt3  1  0.75000000  0.83397417  0.00012065  1
  Pt  Pt4  1  0.25000000  0.65830054  0.75000000  1
  Pt  Pt5  1  0.75000000  0.34169846  0.25000000  1
loop_
_geom_bond_atom_site_label_1
_geom_bond_atom_site_label_2
_geom_bond_distance
_geom_bond_site_symmetry_2
Pt0 Pt4 2.782177 1_555
Pt0 Pt2 2.783714 1_555
Pt0 Pt2 2.786402 1_554
Pt0 Ta1 2.789552 1_555
Pt0 Pt1 2.812685 1_545
Pt0 Pt1 2.812685 1_445
Pt0 Ta0 2.816713 1_455
Pt0 Ta0 2.816713 1_555
Pt0 Pt5 2.819726 1_455
Pt0 Pt5 2.819726 1_555
Pt0 Ta1 2.841805 1_545
Pt0 Pt4 2.847896 1_545
Pt1 Pt5 2.782181 1_555
Pt1 Pt3 2.783714 1_555
Pt1 Pt3 2.786402 1_556
Pt1 Ta0 2.789552 1_555
Pt1 Ta1 2.816713 1_555
Pt1 Ta1 2.816713 1_655
Pt1 Pt4 2.819727 1_555
Pt1 Pt4 2.819727 1_655
Pt1 Ta0 2.841805 1_565
Pt1 Pt5 2.847891 1_565
Pt2 Pt4 2.782177 1_555
Pt2 Ta1 2.789552 1_556
Pt2 Pt3 2.812685 1_446
Pt2 Pt3 2.812685 1_546
Pt2 Ta0 2.816713 1_455
Pt2 Ta0 2.816713 1_555
Pt2 Pt5 2.819726 1_456
Pt2 Pt5 2.819726 1_556
Pt2 Ta1 2.841805 1_546
Pt2 Pt4 2.847896 1_545
Pt3 Pt5 2.782181 1_555
Pt3 Ta0 2.789552 1_554
Pt3 Ta1 2.816713 1_655
Pt3 Ta1 2.816713 1_555
Pt3 Pt4 2.819727 1_554
Pt3 Pt4 2.819727 1_654
Pt3 Ta0 2.841805 1_564
Pt3 Pt5 2.847891 1_565
Pt4 Ta0 2.774028 1_455
Pt4 Ta0 2.774028 1_555
Pt4 Ta1 2.785068 1_555
Pt4 Ta1 2.785068 1_556
Pt5 Ta1 2.774031 1_555
Pt5 Ta1 2.774031 1_655
Pt5 Ta0 2.785068 1_554
Pt5 Ta0 2.785068 1_555
