# generated using pymatgen
data_Ba2Sb4PdPt
_symmetry_space_group_name_H-M   'P 1'
_cell_length_a   9.57797505
_cell_length_b   9.57797551
_cell_length_c   5.04914797
_cell_angle_alpha   90.00000000
_cell_angle_beta   90.00000000
_cell_angle_gamma   150.51922063
_symmetry_Int_Tables_number   1
_chemical_formula_structural   Ba2Sb4PdPt
_chemical_formula_sum   'Ba2 Sb4 Pd1 Pt1'
_cell_volume   227.95374867
_cell_formula_units_Z   1
loop_
 _symmetry_equiv_pos_site_id
 _symmetry_equiv_pos_as_xyz
  1  'x, y, z'
loop_
 _atom_site_type_symbol
 _atom_site_label
 _atom_site_symmetry_multiplicity
 _atom_site_fract_x
 _atom_site_fract_y
 _atom_site_fract_z
 _atom_site_occupancy
  Ba  Ba0  1  0.39397000  0.60603000  0.75000000  1
  Ba  Ba1  1  0.60649629  0.39350371  0.25000000  1
  Sb  Sb0  1  0.04082265  0.95917735  0.75000000  1
  Sb  Sb1  1  0.95833369  0.04166631  0.25000000  1
  Sb  Sb2  1  0.24829194  0.75170806  0.25000000  1
  Sb  Sb3  1  0.75228820  0.24771180  0.75000000  1
  Pd  Pd0  1  0.18717468  0.81282532  0.75000000  1
  Pt  Pt0  1  0.81262254  0.18737746  0.25000000  1
loop_
_geom_bond_atom_site_label_1
_geom_bond_atom_site_label_2
_geom_bond_distance
_geom_bond_site_symmetry_2
Ba0 Sb3 3.581654 1_455
Ba0 Sb3 3.581654 1_565
Ba0 Sb0 3.652434 1_655
Ba0 Sb0 3.652435 1_545
Ba0 Sb2 3.695507 1_555
Ba0 Sb2 3.695507 1_556
Ba0 Sb1 3.705978 1_566
Ba0 Sb1 3.705978 1_565
Ba0 Sb1 3.705978 1_455
Ba0 Sb1 3.705978 1_456
Ba0 Pt0 3.818846 1_455
Ba0 Pt0 3.818846 1_456
Ba0 Pt0 3.818846 1_565
Ba0 Pt0 3.818846 1_566
Ba0 Pd0 3.830987 1_555
Ba1 Sb2 3.583199 1_655
Ba1 Sb2 3.583200 1_545
Ba1 Sb1 3.670546 1_455
Ba1 Sb1 3.670546 1_565
Ba1 Sb3 3.697048 1_554
Ba1 Sb3 3.697048 1_555
Ba1 Sb0 3.713857 1_545
Ba1 Sb0 3.713857 1_544
Ba1 Sb0 3.713857 1_655
Ba1 Sb0 3.713857 1_654
Ba1 Pd0 3.813972 1_655
Ba1 Pd0 3.813972 1_654
Ba1 Pd0 3.813972 1_544
Ba1 Pd0 3.813972 1_545
Ba1 Pt0 3.818592 1_555
Sb0 Sb1 2.951053 1_466
Sb0 Sb1 2.951053 1_465
Pd0 Sb0 2.711245 1_555
Pd0 Sb3 2.719213 1_565
Pd0 Sb3 2.719213 1_455
Pd0 Sb2 2.766842 1_555
Pd0 Sb2 2.766842 1_556
Pt0 Sb1 2.699372 1_555
Pt0 Sb2 2.712810 1_545
Pt0 Sb2 2.712810 1_655
Pt0 Sb3 2.760938 1_554
Pt0 Sb3 2.760938 1_555
