# generated using pymatgen
data_Na2CdSn
_symmetry_space_group_name_H-M   'P 1'
_cell_length_a   4.98532964
_cell_length_b   4.98532997
_cell_length_c   10.04247619
_cell_angle_alpha   90.00000000
_cell_angle_beta   90.00000000
_cell_angle_gamma   119.99999778
_symmetry_Int_Tables_number   1
_chemical_formula_structural   Na2CdSn
_chemical_formula_sum   'Na4 Cd2 Sn2'
_cell_volume   216.15199151
_cell_formula_units_Z   2
loop_
 _symmetry_equiv_pos_site_id
 _symmetry_equiv_pos_as_xyz
  1  'x, y, z'
loop_
 _atom_site_type_symbol
 _atom_site_label
 _atom_site_symmetry_multiplicity
 _atom_site_fract_x
 _atom_site_fract_y
 _atom_site_fract_z
 _atom_site_occupancy
  Na  Na0  1  0.66666700  0.33333300  0.58275160  1
  Na  Na1  1  0.33333300  0.66666700  0.08275160  1
  Na  Na2  1  0.66666700  0.33333300  0.91724840  1
  Na  Na3  1  0.33333300  0.66666700  0.41724840  1
  Cd  Cd0  1  0.00000000  0.00000000  0.75000000  1
  Cd  Cd1  1  -0.00000000  0.00000000  0.25000000  1
  Sn  Sn0  1  0.33333300  0.66666700  0.75000000  1
  Sn  Sn1  1  0.66666700  0.33333300  0.25000000  1
loop_
_geom_bond_atom_site_label_1
_geom_bond_atom_site_label_2
_geom_bond_distance
_geom_bond_site_symmetry_2
Na0 Sn0 3.332492 1_655
Na0 Sn0 3.332492 1_545
Na0 Sn0 3.332500 1_555
Na0 Sn1 3.341650 1_555
Na1 Sn1 3.332492 1_455
Na1 Sn1 3.332492 1_565
Na1 Sn1 3.332500 1_555
Na1 Sn0 3.341650 1_554
Na2 Sn0 3.332492 1_655
Na2 Sn0 3.332492 1_545
Na2 Sn0 3.332500 1_555
Na2 Sn1 3.341650 1_556
Na3 Sn1 3.332492 1_455
Na3 Sn1 3.332492 1_565
Na3 Sn1 3.332500 1_555
Na3 Sn0 3.341650 1_555
Cd0 Sn0 2.878279 1_545
Cd0 Sn0 2.878283 1_445
Cd0 Sn0 2.878283 1_555
Cd0 Na0 3.332492 1_455
Cd0 Na2 3.332492 1_455
Cd0 Na2 3.332496 1_555
Cd0 Na0 3.332496 1_555
Cd0 Na0 3.332496 1_445
Cd0 Na2 3.332496 1_445
Cd1 Sn1 2.878279 1_455
Cd1 Sn1 2.878283 1_555
Cd1 Sn1 2.878283 1_445
Cd1 Na3 3.332492 1_545
Cd1 Na1 3.332492 1_545
Cd1 Na1 3.332496 1_445
Cd1 Na3 3.332496 1_445
Cd1 Na3 3.332496 1_555
Cd1 Na1 3.332496 1_555
