# generated using pymatgen
data_Zr2Ti3Os
_symmetry_space_group_name_H-M   'P 1'
_cell_length_a   5.63290740
_cell_length_b   5.63290755
_cell_length_c   5.15933584
_cell_angle_alpha   56.91417928
_cell_angle_beta   56.91417903
_cell_angle_gamma   59.99999730
_symmetry_Int_Tables_number   1
_chemical_formula_structural   Zr2Ti3Os
_chemical_formula_sum   'Zr2 Ti3 Os1'
_cell_volume   110.05956398
_cell_formula_units_Z   1
loop_
 _symmetry_equiv_pos_site_id
 _symmetry_equiv_pos_as_xyz
  1  'x, y, z'
loop_
 _atom_site_type_symbol
 _atom_site_label
 _atom_site_symmetry_multiplicity
 _atom_site_fract_x
 _atom_site_fract_y
 _atom_site_fract_z
 _atom_site_occupancy
  Zr  Zr0  1  0.24967732  0.24967732  0.25096705  1
  Zr  Zr1  1  0.00032268  0.00032268  0.99903295  1
  Ti  Ti0  1  0.62500000  0.12500000  0.62500000  1
  Ti  Ti1  1  0.12500000  0.62500000  0.62500000  1
  Ti  Ti2  1  0.62500000  0.62500000  0.62500000  1
  Os  Os0  1  0.62500000  0.62500000  0.12500000  1
loop_
_geom_bond_atom_site_label_1
_geom_bond_atom_site_label_2
_geom_bond_distance
_geom_bond_site_symmetry_2
Zr0 Zr1 2.996207 1_555
Zr0 Zr1 3.405102 1_554
Zr0 Zr1 3.405111 1_654
Zr0 Zr1 3.405111 1_564
Ti0 Zr0 2.988314 1_556
Ti0 Zr1 2.988314 1_654
Ti0 Zr0 3.190096 1_655
Ti0 Zr1 3.190096 1_555
Ti0 Zr1 3.190100 1_655
Ti0 Zr0 3.190100 1_555
Ti1 Zr0 2.988314 1_556
Ti1 Zr1 2.988314 1_564
Ti1 Zr0 3.190096 1_565
Ti1 Zr1 3.190096 1_555
Ti1 Zr1 3.190101 1_565
Ti1 Zr0 3.190101 1_555
Ti2 Zr0 2.988317 1_556
Ti2 Zr1 2.988317 1_664
Ti2 Zr1 3.190098 1_565
Ti2 Zr0 3.190098 1_655
Ti2 Zr1 3.190098 1_655
Ti2 Zr0 3.190098 1_565
Os0 Ti1 2.579668 1_555
Os0 Ti1 2.579668 1_654
Os0 Ti2 2.579668 1_554
Os0 Ti2 2.579668 1_555
Os0 Ti0 2.579668 1_555
Os0 Ti0 2.579668 1_564
Os0 Zr0 3.291062 1_655
Os0 Zr1 3.291062 1_564
Os0 Zr0 3.291062 1_565
Os0 Zr1 3.291062 1_654
Os0 Zr1 3.291067 1_664
Os0 Zr0 3.291067 1_555
