# generated using pymatgen
data_CsKTiSe3
_symmetry_space_group_name_H-M   'P 1'
_cell_length_a   7.30694698
_cell_length_b   7.97192414
_cell_length_c   9.09367963
_cell_angle_alpha   74.09293340
_cell_angle_beta   66.65973418
_cell_angle_gamma   62.91536902
_symmetry_Int_Tables_number   1
_chemical_formula_structural   CsKTiSe3
_chemical_formula_sum   'Cs2 K2 Ti2 Se6'
_cell_volume   430.17313777
_cell_formula_units_Z   2
loop_
 _symmetry_equiv_pos_site_id
 _symmetry_equiv_pos_as_xyz
  1  'x, y, z'
loop_
 _atom_site_type_symbol
 _atom_site_label
 _atom_site_symmetry_multiplicity
 _atom_site_fract_x
 _atom_site_fract_y
 _atom_site_fract_z
 _atom_site_occupancy
  Cs  Cs0  1  0.69318639  0.43349710  0.67981610  1
  Cs  Cs1  1  0.30681361  0.56650290  0.32018390  1
  K  K0  1  0.91587171  0.80427049  0.86239722  1
  K  K1  1  0.08412829  0.19572951  0.13760278  1
  Ti  Ti0  1  0.62363821  0.94140915  0.31400656  1
  Ti  Ti1  1  0.37636179  0.05859085  0.68599344  1
  Se  Se0  1  0.25102397  0.00076396  0.49700565  1
  Se  Se1  1  0.74897603  0.99923604  0.50299435  1
  Se  Se2  1  0.37086472  0.83768247  0.91398169  1
  Se  Se3  1  0.62913528  0.16231753  0.08601831  1
  Se  Se4  1  0.19037579  0.37095280  0.74953676  1
  Se  Se5  1  0.80962421  0.62904720  0.25046324  1
loop_
_geom_bond_atom_site_label_1
_geom_bond_atom_site_label_2
_geom_bond_distance
_geom_bond_site_symmetry_2
Cs0 Se2 3.652429 1_555
Cs0 Se5 3.692906 1_555
Cs0 Se3 3.702888 1_556
Cs0 Se4 3.714565 1_555
Cs0 Se4 3.721719 1_655
Cs0 Se1 3.997912 1_545
Cs0 Se0 4.030947 1_655
Cs1 Se3 3.652429 1_555
Cs1 Se4 3.692906 1_555
Cs1 Se2 3.702888 1_554
Cs1 Se5 3.714565 1_555
Cs1 Se5 3.721719 1_455
Cs1 Se0 3.997912 1_565
Cs1 Se1 4.030947 1_455
K0 Se4 3.318436 1_655
K0 Se3 3.321465 1_566
K0 Se5 3.334958 1_556
K0 Se1 3.637626 1_555
K0 Se2 3.668059 1_655
K0 Se0 3.699194 1_665
K0 Se2 3.711111 1_555
K1 Se5 3.318436 1_455
K1 Se2 3.321465 1_544
K1 Se4 3.334958 1_554
K1 Se0 3.637626 1_555
K1 Se3 3.668059 1_455
K1 Se1 3.699194 1_445
K1 Se3 3.711111 1_555
Se0 Ti1 2.463888 1_555
Se0 Ti0 2.464646 1_545
Se1 Ti0 2.463888 1_555
Se1 Ti1 2.464646 1_565
Se2 Ti1 2.323440 1_565
Se3 Ti0 2.323440 1_545
Se4 Ti1 2.338037 1_555
Se5 Ti0 2.338037 1_555
