# generated using pymatgen
data_Y8In3Pd8Pb
_symmetry_space_group_name_H-M   'P 1'
_cell_length_a   7.75245126
_cell_length_b   7.75245126
_cell_length_c   7.37347764
_cell_angle_alpha   90.00000000
_cell_angle_beta   90.00000000
_cell_angle_gamma   90.00000000
_symmetry_Int_Tables_number   1
_chemical_formula_structural   Y8In3Pd8Pb
_chemical_formula_sum   'Y8 In3 Pd8 Pb1'
_cell_volume   443.14969621
_cell_formula_units_Z   1
loop_
 _symmetry_equiv_pos_site_id
 _symmetry_equiv_pos_as_xyz
  1  'x, y, z'
loop_
 _atom_site_type_symbol
 _atom_site_label
 _atom_site_symmetry_multiplicity
 _atom_site_fract_x
 _atom_site_fract_y
 _atom_site_fract_z
 _atom_site_occupancy
  Y  Y0  1  0.17480430  0.17228266  0.99879983  1
  Y  Y1  1  0.82519570  0.82771734  0.99879983  1
  Y  Y2  1  0.67228266  0.32519570  0.50120017  1
  Y  Y3  1  0.32771734  0.67480430  0.50120017  1
  Y  Y4  1  0.67357653  0.32379238  0.99877621  1
  Y  Y5  1  0.32642347  0.67620762  0.99877621  1
  Y  Y6  1  0.82379238  0.82642347  0.50122379  1
  Y  Y7  1  0.17620762  0.17357653  0.50122379  1
  In  In0  1  0.50000000  0.00000000  0.75000000  1
  In  In1  1  0.00000000  0.50000000  0.25000000  1
  In  In2  1  0.00000000  0.50000000  0.75000000  1
  Pd  Pd0  1  0.36720709  0.38013119  0.24848158  1
  Pd  Pd1  1  0.62818973  0.62677132  0.75153920  1
  Pd  Pd2  1  0.63279291  0.61986881  0.24848158  1
  Pd  Pd3  1  0.87322868  0.12818973  0.74846080  1
  Pd  Pd4  1  0.88013119  0.13279291  0.25151842  1
  Pd  Pd5  1  0.37181027  0.37322868  0.75153920  1
  Pd  Pd6  1  0.11986881  0.86720709  0.25151842  1
  Pd  Pd7  1  0.12677132  0.87181027  0.74846080  1
  Pb  Pb0  1  0.50000000  0.00000000  0.25000000  1
loop_
_geom_bond_atom_site_label_1
_geom_bond_atom_site_label_2
_geom_bond_distance
_geom_bond_site_symmetry_2
In0 Pd3 3.059365 1_555
In0 Pd5 3.059365 1_555
In0 Pd1 3.059365 1_545
In0 Pd7 3.059365 1_545
In0 Y4 3.387714 1_555
In0 Y6 3.387714 1_545
In0 Y5 3.387714 1_545
In0 Y7 3.387714 1_555
In0 Y1 3.391915 1_545
In0 Y2 3.391915 1_555
In0 Y0 3.391915 1_555
In0 Y3 3.391915 1_545
In1 Pd6 2.994611 1_555
In1 Pd0 2.994611 1_555
In1 Pd2 2.994611 1_455
In1 Pd4 2.994611 1_455
In1 Y6 3.420712 1_455
In1 Y5 3.420712 1_554
In1 Y7 3.420712 1_555
In1 Y4 3.420712 1_454
In1 Y3 3.423725 1_555
In1 Y1 3.423725 1_454
In1 Y2 3.423725 1_455
In1 Y0 3.423725 1_554
In2 Pd7 3.045401 1_555
In2 Pd5 3.045401 1_555
In2 Pd1 3.045401 1_455
In2 Pd3 3.045401 1_455
In2 Y5 3.410973 1_555
In2 Y6 3.410973 1_455
In2 Y4 3.410973 1_455
In2 Y7 3.410973 1_555
In2 Y3 3.414182 1_555
In2 Y1 3.414182 1_455
In2 Y0 3.414182 1_555
In2 Y2 3.414182 1_455
Pd0 Pd2 2.773709 1_555
Pd0 Y0 2.865418 1_554
Pd0 Y7 2.868738 1_555
Pd0 Y5 2.959469 1_554
Pd0 Y3 2.963899 1_555
Pd0 Y4 3.036764 1_554
Pd0 Y2 3.040939 1_555
Pd1 Pd5 2.795340 1_555
Pd1 Y1 2.843123 1_555
Pd1 Y6 2.846353 1_555
Pd1 Y5 2.990506 1_555
Pd1 Y4 2.994014 1_555
Pd1 Y3 2.995328 1_555
Pd1 Y2 2.998348 1_555
Pd2 Y1 2.865418 1_554
Pd2 Y6 2.868738 1_555
Pd2 Y4 2.959469 1_554
Pd2 Y2 2.963899 1_555
Pd2 Y5 3.036764 1_554
Pd2 Y3 3.040939 1_555
Pd3 Pd7 2.795340 1_645
Pd3 Y2 2.843123 1_555
Pd3 Y4 2.846353 1_555
Pd3 Y6 2.990506 1_545
Pd3 Y7 2.994014 1_655
Pd3 Y1 2.995328 1_545
Pd3 Y0 2.998348 1_655
Pd4 Pd6 2.773709 1_645
Pd4 Y2 2.865418 1_555
Pd4 Y4 2.868738 1_554
Pd4 Y7 2.959469 1_655
Pd4 Y0 2.963899 1_654
Pd4 Y6 3.036764 1_545
Pd4 Y1 3.040939 1_544
Pd5 Y0 2.843123 1_555
Pd5 Y7 2.846353 1_555
Pd5 Y4 2.990506 1_555
Pd5 Y5 2.994014 1_555
Pd5 Y2 2.995328 1_555
Pd5 Y3 2.998348 1_555
Pd6 Y3 2.865418 1_555
Pd6 Y5 2.868738 1_554
Pd6 Y6 2.959469 1_455
Pd6 Y1 2.963899 1_454
Pd6 Y7 3.036764 1_565
Pd6 Y0 3.040939 1_564
Pd7 Y3 2.843123 1_555
Pd7 Y5 2.846353 1_555
Pd7 Y7 2.990506 1_565
Pd7 Y6 2.994014 1_455
Pd7 Y0 2.995328 1_565
Pd7 Y1 2.998348 1_455
Pb0 Pd4 3.121609 1_555
Pb0 Pd0 3.121609 1_555
Pb0 Pd2 3.121609 1_545
Pb0 Pd6 3.121609 1_545
Pb0 Y6 3.397520 1_545
Pb0 Y4 3.397520 1_554
Pb0 Y7 3.397520 1_555
Pb0 Y5 3.397520 1_544
Pb0 Y2 3.401520 1_555
Pb0 Y1 3.401520 1_544
Pb0 Y3 3.401520 1_545
Pb0 Y0 3.401520 1_554
