# generated using pymatgen
data_Y20Zn3Cd3Ir2
_symmetry_space_group_name_H-M   'P 1'
_cell_length_a   9.66852859
_cell_length_b   9.66843430
_cell_length_c   9.63230551
_cell_angle_alpha   90.00000000
_cell_angle_beta   90.00000000
_cell_angle_gamma   119.99910275
_symmetry_Int_Tables_number   1
_chemical_formula_structural   Y20Zn3Cd3Ir2
_chemical_formula_sum   'Y20 Zn3 Cd3 Ir2'
_cell_volume   779.79661115
_cell_formula_units_Z   1
loop_
 _symmetry_equiv_pos_site_id
 _symmetry_equiv_pos_as_xyz
  1  'x, y, z'
loop_
 _atom_site_type_symbol
 _atom_site_label
 _atom_site_symmetry_multiplicity
 _atom_site_fract_x
 _atom_site_fract_y
 _atom_site_fract_z
 _atom_site_occupancy
  Y  Y0  1  0.99999985  0.99999971  0.46932888  1
  Y  Y1  1  0.99999985  0.99999971  0.03067112  1
  Y  Y2  1  0.20774724  0.79226219  0.43729763  1
  Y  Y3  1  0.20774803  0.41548582  0.43729930  1
  Y  Y4  1  0.58451616  0.79225775  0.43729892  1
  Y  Y5  1  0.79173746  0.20825302  0.55927939  1
  Y  Y6  1  0.79173785  0.58348627  0.55927922  1
  Y  Y7  1  0.41651214  0.20825664  0.55927932  1
  Y  Y8  1  0.79173746  0.20825302  0.94072061  1
  Y  Y9  1  0.79173785  0.58348627  0.94072078  1
  Y  Y10  1  0.41651214  0.20825664  0.94072068  1
  Y  Y11  1  0.20774724  0.79226219  0.06270237  1
  Y  Y12  1  0.20774803  0.41548582  0.06270070  1
  Y  Y13  1  0.58451616  0.79225775  0.06270108  1
  Y  Y14  1  0.54177713  0.45822142  0.25000000  1
  Y  Y15  1  0.54177476  0.08355584  0.25000000  1
  Y  Y16  1  0.91644032  0.45822263  0.25000000  1
  Y  Y17  1  0.45847224  0.54153032  0.75000000  1
  Y  Y18  1  0.45846854  0.91693836  0.75000000  1
  Y  Y19  1  0.08306375  0.54153363  0.75000000  1
  Zn  Zn0  1  0.87471116  0.12528063  0.25000000  1
  Zn  Zn1  1  0.87471773  0.74943475  0.25000000  1
  Zn  Zn2  1  0.25056965  0.12528300  0.25000000  1
  Cd  Cd0  1  0.10938443  0.89062109  0.75000000  1
  Cd  Cd1  1  0.10938836  0.21876079  0.75000000  1
  Cd  Cd2  1  0.78123569  0.89061272  0.75000000  1
  Ir  Ir0  1  0.33334087  0.66666774  0.25000000  1
  Ir  Ir1  1  0.66665792  0.33333427  0.75000000  1
loop_
_geom_bond_atom_site_label_1
_geom_bond_atom_site_label_2
_geom_bond_distance
_geom_bond_site_symmetry_2
Y0 Zn1 2.977411 1_555
Y0 Zn0 2.977426 1_565
Y0 Zn2 2.977454 1_665
Y1 Zn1 2.977411 1_555
Y1 Zn0 2.977426 1_565
Y1 Zn2 2.977454 1_665
Y2 Zn2 3.529904 1_565
Y2 Zn1 3.529987 1_455
Y3 Zn2 3.529938 1_555
Y3 Zn0 3.530061 1_455
Y4 Zn0 3.529949 1_565
Y4 Zn1 3.529954 1_555
Y5 Zn0 3.287180 1_555
Y6 Zn1 3.287192 1_555
Y7 Zn2 3.287177 1_555
Y8 Zn0 3.287180 1_556
Y9 Zn1 3.287192 1_556
Y10 Zn2 3.287177 1_556
Y11 Zn2 3.529904 1_565
Y11 Zn1 3.529987 1_455
Y12 Zn2 3.529938 1_555
Y12 Zn0 3.530061 1_455
Y13 Zn0 3.529949 1_565
Y13 Zn1 3.529954 1_555
Y14 Zn2 3.037473 1_555
Y14 Zn1 3.037516 1_555
Y15 Zn2 3.037399 1_555
Y15 Zn0 3.037463 1_555
Y16 Zn1 3.037415 1_555
Y16 Zn0 3.037467 1_555
Cd0 Cd1 3.172578 1_565
Cd0 Cd2 3.172675 1_455
Cd0 Y19 3.255360 1_555
Cd0 Y18 3.255376 1_555
Cd0 Y1 3.265608 1_456
Cd0 Y0 3.265608 1_455
Cd0 Y11 3.433015 1_556
Cd0 Y2 3.433015 1_555
Cd0 Y10 3.536211 1_565
Cd0 Y7 3.536211 1_565
Cd0 Y9 3.536289 1_455
Cd0 Y6 3.536289 1_455
Cd1 Cd2 3.172759 1_445
Cd1 Y17 3.255412 1_555
Cd1 Y19 3.255436 1_555
Cd1 Y1 3.265607 1_446
Cd1 Y0 3.265607 1_445
Cd1 Y12 3.433021 1_556
Cd1 Y3 3.433021 1_555
Cd1 Y10 3.536140 1_555
Cd1 Y7 3.536140 1_555
Cd1 Y8 3.536318 1_455
Cd1 Y5 3.536318 1_455
Cd2 Y17 3.255374 1_555
Cd2 Y18 3.255415 1_555
Cd2 Y1 3.265632 1_556
Cd2 Y0 3.265632 1_555
Cd2 Y13 3.433010 1_556
Cd2 Y4 3.433010 1_555
Cd2 Y9 3.536129 1_555
Cd2 Y6 3.536129 1_555
Cd2 Y8 3.536228 1_565
Cd2 Y5 3.536228 1_565
Ir0 Y4 2.770943 1_555
Ir0 Y13 2.770943 1_555
Ir0 Y3 2.770972 1_555
Ir0 Y12 2.770972 1_555
Ir0 Y2 2.770986 1_555
Ir0 Y11 2.770986 1_555
Ir0 Y14 3.490605 1_555
Ir0 Y15 3.490681 1_565
Ir0 Y16 3.490820 1_455
Ir1 Y10 2.786027 1_555
Ir1 Y7 2.786027 1_555
Ir1 Y9 2.786052 1_555
Ir1 Y6 2.786052 1_555
Ir1 Y8 2.786093 1_555
Ir1 Y5 2.786093 1_555
Ir1 Y17 3.486411 1_555
Ir1 Y18 3.486560 1_545
Ir1 Y19 3.486677 1_655
