# generated using pymatgen
data_TcRu(W2Cl9)2
_symmetry_space_group_name_H-M   'P 1'
_cell_length_a   9.10253424
_cell_length_b   9.03087902
_cell_length_c   9.09833125
_cell_angle_alpha   70.78201107
_cell_angle_beta   70.43183256
_cell_angle_gamma   71.48234585
_symmetry_Int_Tables_number   1
_chemical_formula_structural   TcRu(W2Cl9)2
_chemical_formula_sum   'Tc1 Ru1 W4 Cl18'
_cell_volume   647.12627433
_cell_formula_units_Z   1
loop_
 _symmetry_equiv_pos_site_id
 _symmetry_equiv_pos_as_xyz
  1  'x, y, z'
loop_
 _atom_site_type_symbol
 _atom_site_label
 _atom_site_symmetry_multiplicity
 _atom_site_fract_x
 _atom_site_fract_y
 _atom_site_fract_z
 _atom_site_occupancy
  Tc  Tc0  1  0.84586878  0.84605604  0.62638597  1
  Ru  Ru0  1  0.38747836  0.15082606  0.14413692  1
  W  W0  1  0.15255268  0.38495624  0.14277449  1
  W  W1  1  0.15057160  0.14323131  0.38373235  1
  W  W2  1  0.60682311  0.85663271  0.85486841  1
  W  W3  1  0.85330552  0.61035171  0.85320338  1
  Cl  Cl0  1  0.38120100  0.92630149  0.37241364  1
  Cl  Cl1  1  0.38015011  0.37628702  0.91729758  1
  Cl  Cl2  1  0.92060788  0.37218129  0.37222634  1
  Cl  Cl3  1  0.61953786  0.07845278  0.62534487  1
  Cl  Cl4  1  0.62758961  0.62868449  0.08507590  1
  Cl  Cl5  1  0.08039361  0.62078574  0.62654708  1
  Cl  Cl6  1  0.32486220  0.00367377  0.00611319  1
  Cl  Cl7  1  0.00777513  0.32082598  0.00616161  1
  Cl  Cl8  1  0.01224113  0.00411567  0.31975531  1
  Cl  Cl9  1  0.67685271  0.00023723  0.98756563  1
  Cl  Cl10  1  0.99796625  0.67487752  0.99160520  1
  Cl  Cl11  1  0.99278602  0.99863695  0.67109693  1
  Cl  Cl12  1  0.54415217  0.24303101  0.22698482  1
  Cl  Cl13  1  0.22637209  0.55279872  0.22608965  1
  Cl  Cl14  1  0.22387377  0.23279874  0.54704108  1
  Cl  Cl15  1  0.44553155  0.76711288  0.77852204  1
  Cl  Cl16  1  0.77166075  0.44460426  0.77557858  1
  Cl  Cl17  1  0.76984612  0.76253937  0.45948001  1
loop_
_geom_bond_atom_site_label_1
_geom_bond_atom_site_label_2
_geom_bond_distance
_geom_bond_site_symmetry_2
Tc0 W3 2.429913 1_555
Tc0 W2 2.456405 1_555
Ru0 W0 2.484385 1_555
Ru0 W1 2.500726 1_555
W0 W1 2.533755 1_555
Cl0 W1 2.373036 1_565
Cl0 Ru0 2.376972 1_565
Cl1 Ru0 2.376807 1_556
Cl1 W0 2.379584 1_556
Cl2 W0 2.423375 1_655
Cl2 W1 2.433693 1_655
Cl3 W2 2.370366 1_545
Cl3 Tc0 2.429551 1_545
Cl4 W3 2.410348 1_554
Cl4 W2 2.416597 1_554
Cl5 W3 2.382168 1_455
Cl5 Tc0 2.436699 1_455
Cl6 Ru0 2.393132 1_555
Cl6 W2 2.629922 1_544
Cl7 W0 2.381802 1_555
Cl7 W3 2.707454 1_454
Cl8 W1 2.340919 1_555
Cl8 Tc0 2.834690 1_445
Cl9 W2 2.370075 1_545
Cl9 Ru0 2.702490 1_556
Cl10 W3 2.395891 1_555
Cl10 W0 2.704150 1_656
Cl11 Tc0 2.399282 1_555
Cl11 W1 2.651805 1_665
Cl12 Ru0 2.276621 1_555
Cl13 W0 2.251270 1_555
Cl14 W1 2.259495 1_555
Cl15 W2 2.257949 1_555
Cl16 W3 2.246284 1_555
Cl17 Tc0 2.267866 1_555
