# generated using pymatgen
data_KV(NiS2)2
_symmetry_space_group_name_H-M   'P 1'
_cell_length_a   9.33567161
_cell_length_b   9.33567226
_cell_length_c   7.18260709
_cell_angle_alpha   90.00000000
_cell_angle_beta   90.00000000
_cell_angle_gamma   146.99612000
_symmetry_Int_Tables_number   1
_chemical_formula_structural   KV(NiS2)2
_chemical_formula_sum   'K2 V2 Ni4 S8'
_cell_volume   340.97875586
_cell_formula_units_Z   2
loop_
 _symmetry_equiv_pos_site_id
 _symmetry_equiv_pos_as_xyz
  1  'x, y, z'
loop_
 _atom_site_type_symbol
 _atom_site_label
 _atom_site_symmetry_multiplicity
 _atom_site_fract_x
 _atom_site_fract_y
 _atom_site_fract_z
 _atom_site_occupancy
  K  K0  1  0.90955707  0.54495710  0.25000000  1
  K  K1  1  0.54495710  0.90955707  0.75000000  1
  V  V0  1  0.87090967  0.09059907  0.25000000  1
  V  V1  1  0.09059907  0.87090967  0.75000000  1
  Ni  Ni0  1  0.99488995  0.99488995  0.50000000  1
  Ni  Ni1  1  0.99488995  0.99488995  0.00000000  1
  Ni  Ni2  1  0.37207071  0.58029114  0.25000000  1
  Ni  Ni3  1  0.58029114  0.37207071  0.75000000  1
  S  S0  1  0.32576684  0.11880223  0.50388071  1
  S  S1  1  0.11880223  0.32576684  0.49611929  1
  S  S2  1  0.52141777  0.93132388  0.25000000  1
  S  S3  1  0.93132388  0.52141777  0.75000000  1
  S  S4  1  0.73755677  0.75383379  0.25000000  1
  S  S5  1  0.75383379  0.73755677  0.75000000  1
  S  S6  1  0.32576684  0.11880223  0.99611929  1
  S  S7  1  0.11880223  0.32576684  0.00388071  1
loop_
_geom_bond_atom_site_label_1
_geom_bond_atom_site_label_2
_geom_bond_distance
_geom_bond_site_symmetry_2
K0 S2 3.328823 1_655
K0 S2 3.336304 1_545
K0 S4 3.410684 1_555
K0 S0 3.494133 1_665
K0 S6 3.494133 1_664
K0 S0 3.533935 1_555
K0 S6 3.533935 1_554
K0 S3 3.614132 1_555
K0 S3 3.614132 1_554
K1 S3 3.328823 1_565
K1 S3 3.336303 1_455
K1 S5 3.410684 1_555
K1 S7 3.494132 1_666
K1 S1 3.494132 1_665
K1 S7 3.533935 1_556
K1 S1 3.533935 1_555
K1 S2 3.614132 1_555
K1 S2 3.614132 1_556
Ni0 S0 2.210706 1_665
Ni0 S1 2.210706 1_665
Ni0 S4 2.234338 1_555
Ni0 S5 2.234338 1_555
Ni1 S6 2.210706 1_664
Ni1 S7 2.210706 1_665
Ni1 S4 2.234338 1_555
Ni1 S5 2.234338 1_554
Ni2 S1 2.222245 1_555
Ni2 S7 2.222245 1_555
Ni2 S4 2.234960 1_555
Ni2 S2 2.240495 1_555
Ni3 S6 2.222245 1_555
Ni3 S0 2.222245 1_555
Ni3 S5 2.234960 1_555
Ni3 S3 2.240495 1_555
S0 V1 2.186068 1_545
S1 V0 2.186068 1_455
S2 V0 2.172374 1_565
S3 V1 2.172374 1_655
S4 V0 2.206659 1_565
S5 V1 2.206659 1_655
S6 V1 2.186068 1_545
S7 V0 2.186068 1_455
