# generated using pymatgen
data_Rb6ScTe4Br
_symmetry_space_group_name_H-M   'P 1'
_cell_length_a   11.72473730
_cell_length_b   11.72473733
_cell_length_c   8.67520809
_cell_angle_alpha   90.00000000
_cell_angle_beta   90.00000000
_cell_angle_gamma   120.00000267
_symmetry_Int_Tables_number   1
_chemical_formula_structural   Rb6ScTe4Br
_chemical_formula_sum   'Rb12 Sc2 Te8 Br2'
_cell_volume   1032.80127164
_cell_formula_units_Z   2
loop_
 _symmetry_equiv_pos_site_id
 _symmetry_equiv_pos_as_xyz
  1  'x, y, z'
loop_
 _atom_site_type_symbol
 _atom_site_label
 _atom_site_symmetry_multiplicity
 _atom_site_fract_x
 _atom_site_fract_y
 _atom_site_fract_z
 _atom_site_occupancy
  Rb  Rb0  1  0.12904257  0.87095743  0.51055024  1
  Rb  Rb1  1  0.74191286  0.87095743  0.51055024  1
  Rb  Rb2  1  0.94567103  0.47283551  0.31981355  1
  Rb  Rb3  1  0.52716449  0.47283551  0.31981355  1
  Rb  Rb4  1  0.87095743  0.74191286  0.01055024  1
  Rb  Rb5  1  0.25808714  0.12904257  0.01055024  1
  Rb  Rb6  1  0.52716449  0.05432897  0.31981355  1
  Rb  Rb7  1  0.12904257  0.25808714  0.51055024  1
  Rb  Rb8  1  0.87095743  0.12904257  0.01055024  1
  Rb  Rb9  1  0.05432897  0.52716449  0.81981355  1
  Rb  Rb10  1  0.47283551  0.94567103  0.81981355  1
  Rb  Rb11  1  0.47283551  0.52716449  0.81981355  1
  Sc  Sc0  1  0.66666700  0.33333300  0.71432931  1
  Sc  Sc1  1  0.33333300  0.66666700  0.21432931  1
  Te  Te0  1  0.40728477  0.20364239  0.60945526  1
  Te  Te1  1  0.59271523  0.79635761  0.10945526  1
  Te  Te2  1  0.66666700  0.33333300  0.03765579  1
  Te  Te3  1  0.79635761  0.59271523  0.60945526  1
  Te  Te4  1  0.20364239  0.40728477  0.10945526  1
  Te  Te5  1  0.33333300  0.66666700  0.53765579  1
  Te  Te6  1  0.20364239  0.79635761  0.10945526  1
  Te  Te7  1  0.79635761  0.20364239  0.60945526  1
  Br  Br0  1  0.00000000  0.00000000  0.26915977  1
  Br  Br1  1  0.00000000  0.00000000  0.76915977  1
loop_
_geom_bond_atom_site_label_1
_geom_bond_atom_site_label_2
_geom_bond_distance
_geom_bond_site_symmetry_2
Rb0 Te3 3.724083 1_455
Rb0 Te0 3.724083 1_565
Rb0 Te6 3.795076 1_555
Rb0 Te5 4.155356 1_555
Rb1 Te7 3.724075 1_565
Rb1 Te3 3.724098 1_555
Rb1 Te1 3.795068 1_555
Rb1 Te5 4.155346 1_555
Rb2 Te7 3.716818 1_555
Rb2 Te3 3.716818 1_555
Rb2 Te2 3.743984 1_555
Rb2 Te6 3.923529 1_655
Rb2 Te4 3.923529 1_655
Rb3 Te3 3.716818 1_555
Rb3 Te0 3.716818 1_555
Rb3 Te2 3.743992 1_555
Rb3 Te4 3.923529 1_555
Rb3 Te1 3.923529 1_555
Rb4 Te6 3.724075 1_655
Rb4 Te1 3.724098 1_555
Rb4 Te3 3.795068 1_554
Rb4 Te2 4.155346 1_555
Rb5 Te6 3.724075 1_545
Rb5 Te4 3.724098 1_555
Rb5 Te0 3.795068 1_554
Rb5 Te2 4.155346 1_555
Rb6 Te7 3.716818 1_555
Rb6 Te0 3.716818 1_555
Rb6 Te2 3.743984 1_555
Rb6 Te6 3.923529 1_545
Rb6 Te1 3.923529 1_545
Rb7 Te7 3.724075 1_455
Rb7 Te0 3.724098 1_555
Rb7 Te4 3.795068 1_555
Rb7 Te5 4.155346 1_555
Rb8 Te4 3.724083 1_655
Rb8 Te1 3.724083 1_545
Rb8 Te7 3.795076 1_554
Rb8 Te2 4.155356 1_555
Rb9 Te6 3.716818 1_556
Rb9 Te4 3.716818 1_556
Rb9 Te5 3.743984 1_555
Rb9 Te7 3.923529 1_455
Rb9 Te3 3.923529 1_455
Rb10 Te6 3.716818 1_556
Rb10 Te1 3.716818 1_556
Rb10 Te5 3.743984 1_555
Rb10 Te7 3.923529 1_565
Rb10 Te0 3.923529 1_565
Rb11 Te4 3.716818 1_556
Rb11 Te1 3.716818 1_556
Rb11 Te5 3.743992 1_555
Rb11 Te3 3.923529 1_555
Rb11 Te0 3.923529 1_555
Sc0 Te7 2.786451 1_555
Sc0 Te0 2.786461 1_555
Sc0 Te3 2.786461 1_555
Sc0 Te2 2.804925 1_556
Sc1 Te6 2.786451 1_555
Sc1 Te1 2.786461 1_555
Sc1 Te4 2.786461 1_555
Sc1 Te5 2.804925 1_555
Br0 Rb0 3.354508 1_545
Br0 Rb1 3.354524 1_445
Br0 Rb7 3.354524 1_555
Br0 Rb8 3.449735 1_455
Br0 Rb5 3.449750 1_555
Br0 Rb4 3.449750 1_445
Br1 Rb8 3.354508 1_456
Br1 Rb5 3.354524 1_556
Br1 Rb4 3.354524 1_446
Br1 Rb0 3.449735 1_545
Br1 Rb1 3.449750 1_445
Br1 Rb7 3.449750 1_555
