# generated using pymatgen
data_TiBe3CoCu
_symmetry_space_group_name_H-M   'P 1'
_cell_length_a   4.38204695
_cell_length_b   4.38204796
_cell_length_c   4.39247520
_cell_angle_alpha   60.07850025
_cell_angle_beta   60.07848644
_cell_angle_gamma   60.00000748
_symmetry_Int_Tables_number   1
_chemical_formula_structural   TiBe3CoCu
_chemical_formula_sum   'Ti1 Be3 Co1 Cu1'
_cell_volume   59.71215407
_cell_formula_units_Z   1
loop_
 _symmetry_equiv_pos_site_id
 _symmetry_equiv_pos_as_xyz
  1  'x, y, z'
loop_
 _atom_site_type_symbol
 _atom_site_label
 _atom_site_symmetry_multiplicity
 _atom_site_fract_x
 _atom_site_fract_y
 _atom_site_fract_z
 _atom_site_occupancy
  Ti  Ti0  1  0.24794030  0.24794030  0.25618009  1
  Be  Be0  1  0.62404625  0.12009635  0.63181015  1
  Be  Be1  1  0.12009635  0.62404625  0.63181015  1
  Be  Be2  1  0.62404625  0.62404625  0.63181015  1
  Co  Co0  1  0.01074130  0.01074130  0.96777510  1
  Cu  Cu0  1  0.62312855  0.62312855  0.13061336  1
loop_
_geom_bond_atom_site_label_1
_geom_bond_atom_site_label_2
_geom_bond_distance
_geom_bond_site_symmetry_2
Be0 Be1 2.173715 1_645
Be0 Be2 2.173715 1_545
Be0 Cu0 2.186976 1_546
Be0 Cu0 2.205514 1_555
Be0 Be1 2.208333 1_555
Be0 Be2 2.208333 1_555
Be0 Co0 2.501190 1_555
Be0 Co0 2.501191 1_655
Be0 Ti0 2.572907 1_555
Be0 Ti0 2.572914 1_655
Be0 Ti0 2.579105 1_556
Be0 Co0 2.694459 1_654
Be1 Be2 2.173715 1_455
Be1 Cu0 2.186976 1_456
Be1 Cu0 2.205513 1_555
Be1 Be2 2.208332 1_555
Be1 Co0 2.501191 1_555
Be1 Co0 2.501191 1_565
Be1 Ti0 2.572907 1_555
Be1 Ti0 2.572914 1_565
Be1 Ti0 2.579106 1_556
Be1 Co0 2.694459 1_564
Be2 Cu0 2.186976 1_556
Be2 Cu0 2.205514 1_555
Be2 Co0 2.501191 1_565
Be2 Co0 2.501191 1_655
Be2 Ti0 2.572910 1_655
Be2 Ti0 2.572911 1_565
Be2 Ti0 2.579101 1_556
Be2 Co0 2.694459 1_664
Co0 Ti0 2.555117 1_555
Co0 Cu0 2.596662 1_446
Co0 Cu0 2.596663 1_546
Co0 Cu0 2.596663 1_456
Co0 Ti0 2.733711 1_456
Co0 Ti0 2.733712 1_546
Co0 Ti0 2.733719 1_556
Cu0 Ti0 2.569832 1_555
Cu0 Ti0 2.569840 1_655
Cu0 Ti0 2.569840 1_565
