# generated using pymatgen
data_Ta2Ni20B6W
_symmetry_space_group_name_H-M   'P 1'
_cell_length_a   7.40932333
_cell_length_b   7.40919298
_cell_length_c   7.40919548
_cell_angle_alpha   60.00519161
_cell_angle_beta   60.00529726
_cell_angle_gamma   60.00643523
_symmetry_Int_Tables_number   1
_chemical_formula_structural   Ta2Ni20B6W
_chemical_formula_sum   'Ta2 Ni20 B6 W1'
_cell_volume   287.64779621
_cell_formula_units_Z   1
loop_
 _symmetry_equiv_pos_site_id
 _symmetry_equiv_pos_as_xyz
  1  'x, y, z'
loop_
 _atom_site_type_symbol
 _atom_site_label
 _atom_site_symmetry_multiplicity
 _atom_site_fract_x
 _atom_site_fract_y
 _atom_site_fract_z
 _atom_site_occupancy
  Ta  Ta0  1  0.25001323  0.25000770  0.24999108  1
  Ta  Ta1  1  0.74998677  0.74999230  0.75000892  1
  Ni  Ni0  1  0.34226919  0.00003470  0.00001332  1
  Ni  Ni1  1  0.65773081  0.99996530  0.99998668  1
  Ni  Ni2  1  0.00001273  0.34229446  0.65769973  1
  Ni  Ni3  1  0.99998727  0.65770554  0.34230027  1
  Ni  Ni4  1  0.00002295  0.34228544  0.00000228  1
  Ni  Ni5  1  0.65771293  0.99997663  0.34231569  1
  Ni  Ni6  1  0.99997705  0.65771456  0.99999772  1
  Ni  Ni7  1  0.34228707  0.00002337  0.65768431  1
  Ni  Ni8  1  0.00000859  0.00001228  0.34226248  1
  Ni  Ni9  1  0.99999141  0.99998772  0.65773752  1
  Ni  Ni10  1  0.65772168  0.34230135  0.99999107  1
  Ni  Ni11  1  0.34227832  0.65769865  0.00000893  1
  Ni  Ni12  1  0.38436413  0.38435782  0.38437398  1
  Ni  Ni13  1  0.61563587  0.61564218  0.61562602  1
  Ni  Ni14  1  0.38434482  0.38435469  0.84692870  1
  Ni  Ni15  1  0.38437053  0.84693270  0.38434757  1
  Ni  Ni16  1  0.61565518  0.61564531  0.15307130  1
  Ni  Ni17  1  0.61562947  0.15306730  0.61565243  1
  Ni  Ni18  1  0.84694888  0.38436754  0.38433313  1
  Ni  Ni19  1  0.15305112  0.61563246  0.61566687  1
  B  B0  1  0.73173146  0.26826663  0.26826097  1
  B  B1  1  0.26826854  0.73173337  0.73173903  1
  B  B2  1  0.26827428  0.73172851  0.26826241  1
  B  B3  1  0.73172572  0.26827149  0.73173759  1
  B  B4  1  0.26826663  0.26826049  0.73173586  1
  B  B5  1  0.73173337  0.73173951  0.26826414  1
  W  W0  1  0.00000000  0.00000000  0.00000000  1
loop_
_geom_bond_atom_site_label_1
_geom_bond_atom_site_label_2
_geom_bond_distance
_geom_bond_site_symmetry_2
Ni0 Ni1 2.337002 1_544
Ni0 Ni4 2.536054 1_555
Ni0 Ni8 2.536058 1_555
Ni0 W0 2.536161 1_555
Ni0 Ni7 2.536358 1_554
Ni0 Ni11 2.536416 1_545
Ni0 Ni14 2.607050 1_554
Ni0 Ni15 2.607221 1_545
Ni0 Ni17 2.607382 1_554
Ni0 Ni16 2.607675 1_545
Ni0 Ta0 2.868121 1_555
Ni0 Ta1 2.868798 1_544
Ni1 Ni6 2.536054 1_555
Ni1 Ni9 2.536058 1_555
Ni1 W0 2.536161 1_666
Ni1 Ni5 2.536358 1_556
Ni1 Ni10 2.536416 1_565
Ni1 Ni16 2.607050 1_556
Ni1 Ni17 2.607221 1_565
Ni1 Ni15 2.607382 1_556
Ni1 Ni14 2.607675 1_565
Ni1 Ta1 2.868121 1_555
Ni1 Ta0 2.868798 1_566
Ni2 Ni9 2.536156 1_445
Ni2 Ni4 2.536191 1_556
Ni2 W0 2.536347 1_556
Ni3 Ni8 2.536156 1_665
Ni3 Ni6 2.536191 1_554
Ni3 W0 2.536347 1_665
Ni4 Ni6 2.336888 1_454
Ni4 Ni8 2.536119 1_555
Ni4 W0 2.536152 1_555
Ni4 Ta0 2.868263 1_555
Ni4 Ta1 2.868697 1_454
Ni5 Ni8 2.536114 1_665
Ni5 W0 2.536403 1_665
Ni6 Ni9 2.536119 1_555
Ni6 W0 2.536152 1_666
Ni6 Ta1 2.868263 1_555
Ni6 Ta0 2.868697 1_656
Ni7 Ni9 2.536114 1_445
Ni7 W0 2.536403 1_556
Ni8 Ni9 2.337262 1_445
Ni8 W0 2.535967 1_555
Ni8 Ta0 2.868386 1_555
Ni8 Ta1 2.868802 1_445
Ni9 W0 2.535967 1_666
Ni9 Ta1 2.868386 1_555
Ni9 Ta0 2.868802 1_665
Ni10 Ni4 2.536203 1_656
Ni10 W0 2.536360 1_656
Ni11 Ni6 2.536203 1_454
Ni11 W0 2.536360 1_565
Ni12 Ta0 2.438399 1_555
Ni13 Ta1 2.438399 1_555
Ni14 Ta0 2.438513 1_556
Ni14 Ni4 2.607102 1_556
Ni14 Ni6 2.607545 1_455
Ni15 Ta0 2.438617 1_565
Ni15 Ni8 2.607452 1_565
Ni15 Ni9 2.607640 1_455
Ni16 Ta1 2.438513 1_554
Ni16 Ni6 2.607102 1_554
Ni16 Ni4 2.607545 1_655
Ni17 Ta1 2.438617 1_545
Ni17 Ni9 2.607452 1_545
Ni17 Ni8 2.607640 1_655
Ni18 Ta0 2.438597 1_655
Ni18 Ni4 2.607166 1_655
Ni18 Ni6 2.607225 1_554
Ni18 Ni8 2.607333 1_655
Ni18 Ni9 2.607641 1_545
Ni19 Ta1 2.438597 1_455
Ni19 Ni6 2.607166 1_455
Ni19 Ni4 2.607225 1_556
Ni19 Ni9 2.607333 1_455
Ni19 Ni8 2.607641 1_565
B0 Ni10 2.061871 1_554
B0 Ni5 2.061991 1_545
B0 Ni8 2.062099 1_655
B0 Ni4 2.062168 1_655
B0 Ni18 2.101493 1_555
B0 Ni12 2.101627 1_555
B0 Ni16 2.101655 1_555
B0 Ni17 2.101709 1_555
B1 Ni11 2.061871 1_556
B1 Ni7 2.061991 1_565
B1 Ni9 2.062099 1_455
B1 Ni6 2.062168 1_455
B1 Ni19 2.101493 1_555
B1 Ni13 2.101627 1_555
B1 Ni14 2.101655 1_555
B1 Ni15 2.101709 1_555
B2 Ni11 2.061917 1_555
B2 Ni3 2.062062 1_455
B2 Ni0 2.062142 1_565
B2 Ni8 2.062148 1_565
B2 Ni15 2.101464 1_555
B2 Ni12 2.101608 1_555
B2 Ni16 2.101708 1_555
B2 Ni19 2.101788 1_555
B3 Ni10 2.061917 1_555
B3 Ni2 2.062062 1_655
B3 Ni1 2.062142 1_545
B3 Ni9 2.062148 1_545
B3 Ni17 2.101464 1_555
B3 Ni13 2.101608 1_555
B3 Ni14 2.101708 1_555
B3 Ni18 2.101788 1_555
B4 Ni7 2.061863 1_555
B4 Ni2 2.061913 1_555
B4 Ni0 2.061984 1_556
B4 Ni4 2.062038 1_556
B4 Ni14 2.101340 1_555
B4 Ni12 2.101531 1_555
B4 Ni17 2.101599 1_555
B4 Ni19 2.101614 1_555
B5 Ni5 2.061863 1_555
B5 Ni3 2.061913 1_555
B5 Ni1 2.061984 1_554
B5 Ni6 2.062038 1_554
B5 Ni16 2.101340 1_555
B5 Ni13 2.101531 1_555
B5 Ni15 2.101599 1_555
B5 Ni18 2.101614 1_555
