# generated using pymatgen
data_Sn2As3PO14
_symmetry_space_group_name_H-M   'P 1'
_cell_length_a   5.19700671
_cell_length_b   6.96071381
_cell_length_c   8.66625378
_cell_angle_alpha   67.29486517
_cell_angle_beta   89.59850496
_cell_angle_gamma   89.21360872
_symmetry_Int_Tables_number   1
_chemical_formula_structural   Sn2As3PO14
_chemical_formula_sum   'Sn2 As3 P1 O14'
_cell_volume   289.17771936
_cell_formula_units_Z   1
loop_
 _symmetry_equiv_pos_site_id
 _symmetry_equiv_pos_as_xyz
  1  'x, y, z'
loop_
 _atom_site_type_symbol
 _atom_site_label
 _atom_site_symmetry_multiplicity
 _atom_site_fract_x
 _atom_site_fract_y
 _atom_site_fract_z
 _atom_site_occupancy
  Sn  Sn0  1  0.23325883  0.20082424  0.73253375  1
  Sn  Sn1  1  0.76153380  0.79356505  0.26537268  1
  As  As0  1  0.25170081  0.11759132  0.15743646  1
  As  As1  1  0.28517871  0.45730661  0.31567893  1
  As  As2  1  0.71950334  0.54793961  0.68426276  1
  P  P0  1  0.73958386  0.87799479  0.84409529  1
  O  O0  1  0.15672570  0.27060023  0.48510579  1
  O  O1  1  0.01832837  0.93763233  0.79633561  1
  O  O2  1  0.10863079  0.67528457  0.22934659  1
  O  O3  1  0.29542417  0.36537724  0.15596548  1
  O  O4  1  0.34999257  0.15431194  0.96564972  1
  O  O5  1  0.44486138  0.94808274  0.30273589  1
  O  O6  1  0.41618276  0.48514163  0.65824415  1
  O  O7  1  0.59431831  0.50821727  0.33962137  1
  O  O8  1  0.55210469  0.03099700  0.72195571  1
  O  O9  1  0.67826199  0.83500753  0.02467040  1
  O  O10  1  0.70074635  0.65701554  0.83445954  1
  O  O11  1  0.90603894  0.33746497  0.77805293  1
  O  O12  1  0.93677745  0.07355250  0.19675576  1
  O  O13  1  0.85084819  0.72609488  0.51172017  1
loop_
_geom_bond_atom_site_label_1
_geom_bond_atom_site_label_2
_geom_bond_distance
_geom_bond_site_symmetry_2
As0 O4 1.659061 1_554
As0 O12 1.677513 1_455
As0 O5 1.680397 1_545
As0 O3 1.737919 1_555
As1 O2 1.672968 1_555
As1 O7 1.681328 1_555
As1 O0 1.681521 1_555
As1 O3 1.734890 1_555
As2 O11 1.673203 1_555
As2 O13 1.678430 1_555
As2 O6 1.681311 1_555
As2 O10 1.743371 1_555
O0 Sn0 2.048091 1_555
O1 P0 1.522383 1_455
O1 Sn0 2.043324 1_565
O2 Sn1 2.044268 1_455
O4 Sn0 2.015217 1_555
O5 Sn1 2.045225 1_555
O6 Sn0 2.072281 1_555
O7 Sn1 2.041381 1_555
O8 P0 1.523050 1_545
O8 Sn0 2.044349 1_555
O9 P0 1.508040 1_554
O9 Sn1 2.041209 1_555
O10 P0 1.587956 1_555
O11 Sn0 2.046461 1_655
O12 Sn1 2.031696 1_545
O13 Sn1 2.056147 1_555
