# generated using pymatgen
data_KIn6PtAu3
_symmetry_space_group_name_H-M   'P 1'
_cell_length_a   8.11151622
_cell_length_b   8.11151516
_cell_length_c   4.38973717
_cell_angle_alpha   90.00000000
_cell_angle_beta   90.00000000
_cell_angle_gamma   120.00000054
_symmetry_Int_Tables_number   1
_chemical_formula_structural   KIn6PtAu3
_chemical_formula_sum   'K1 In6 Pt1 Au3'
_cell_volume   250.13425597
_cell_formula_units_Z   1
loop_
 _symmetry_equiv_pos_site_id
 _symmetry_equiv_pos_as_xyz
  1  'x, y, z'
loop_
 _atom_site_type_symbol
 _atom_site_label
 _atom_site_symmetry_multiplicity
 _atom_site_fract_x
 _atom_site_fract_y
 _atom_site_fract_z
 _atom_site_occupancy
  K  K0  1  0.00000000  0.00000000  0.00000000  1
  In  In0  1  0.93763215  0.46881657  0.00000000  1
  In  In1  1  0.19956352  0.80043648  0.50000000  1
  In  In2  1  0.53118343  0.06236785  0.00000000  1
  In  In3  1  0.53118343  0.46881657  0.00000000  1
  In  In4  1  0.19956352  0.39912605  0.50000000  1
  In  In5  1  0.60087395  0.80043648  0.50000000  1
  Pt  Pt0  1  0.33333300  0.66666700  0.00000000  1
  Au  Au0  1  0.40321439  0.20160670  0.50000000  1
  Au  Au1  1  0.79839330  0.20160670  0.50000000  1
  Au  Au2  1  0.79839330  0.59678561  0.50000000  1
loop_
_geom_bond_atom_site_label_1
_geom_bond_atom_site_label_2
_geom_bond_distance
_geom_bond_site_symmetry_2
In0 Pt0 2.779711 1_655
In0 In1 3.294267 1_654
In0 In1 3.294267 1_655
In0 In4 3.294276 1_655
In0 In4 3.294276 1_654
In1 Pt0 2.889567 1_555
In1 Pt0 2.889567 1_556
In1 In4 3.255236 1_555
In1 In5 3.255236 1_555
In1 In2 3.294268 1_565
In1 In2 3.294268 1_566
In1 K0 3.560706 1_566
In1 K0 3.560706 1_565
In2 Pt0 2.779711 1_545
In2 In5 3.294275 1_544
In2 In5 3.294275 1_545
In3 Pt0 2.779711 1_555
In3 In5 3.294264 1_555
In3 In5 3.294264 1_554
In3 In4 3.294264 1_555
In3 In4 3.294264 1_554
In4 Pt0 2.889576 1_555
In4 Pt0 2.889576 1_556
In4 In5 3.255236 1_555
In4 K0 3.560700 1_555
In4 K0 3.560700 1_556
In5 Pt0 2.889577 1_555
In5 Pt0 2.889577 1_556
In5 K0 3.560700 1_666
In5 K0 3.560700 1_665
Au0 In1 2.818242 1_545
Au0 In4 2.818242 1_555
Au0 In2 2.888417 1_555
Au0 In2 2.888417 1_556
Au0 In3 2.888426 1_555
Au0 In3 2.888426 1_556
Au0 Au2 3.205500 1_555
Au0 Au1 3.205500 1_555
Au0 K0 3.583359 1_555
Au0 K0 3.583359 1_556
Au1 In5 2.818242 1_545
Au1 In4 2.818242 1_655
Au1 In0 2.888426 1_556
Au1 In0 2.888426 1_555
Au1 In2 2.888426 1_555
Au1 In2 2.888426 1_556
Au1 Au2 3.205500 1_555
Au1 K0 3.583353 1_655
Au1 K0 3.583353 1_656
Au2 In5 2.818242 1_555
Au2 In1 2.818242 1_655
Au2 In0 2.888417 1_556
Au2 In0 2.888417 1_555
Au2 In3 2.888426 1_556
Au2 In3 2.888426 1_555
Au2 K0 3.583358 1_665
Au2 K0 3.583358 1_666
