# generated using pymatgen
data_Rb2Na2GeS4
_symmetry_space_group_name_H-M   'P 1'
_cell_length_a   11.28675006
_cell_length_b   11.28675068
_cell_length_c   6.92539185
_cell_angle_alpha   81.81766762
_cell_angle_beta   81.81766641
_cell_angle_gamma   140.77158209
_symmetry_Int_Tables_number   1
_chemical_formula_structural   Rb2Na2GeS4
_chemical_formula_sum   'Rb4 Na4 Ge2 S8'
_cell_volume   505.30565352
_cell_formula_units_Z   2
loop_
 _symmetry_equiv_pos_site_id
 _symmetry_equiv_pos_as_xyz
  1  'x, y, z'
loop_
 _atom_site_type_symbol
 _atom_site_label
 _atom_site_symmetry_multiplicity
 _atom_site_fract_x
 _atom_site_fract_y
 _atom_site_fract_z
 _atom_site_occupancy
  Rb  Rb0  1  0.81679624  0.18320376  0.75000000  1
  Rb  Rb1  1  0.05980112  0.94019888  0.75000000  1
  Rb  Rb2  1  0.18320376  0.81679624  0.25000000  1
  Rb  Rb3  1  0.94019888  0.05980112  0.25000000  1
  Na  Na0  1  0.73861749  0.26138251  0.25000000  1
  Na  Na1  1  0.53836339  0.46163661  0.25000000  1
  Na  Na2  1  0.46163661  0.53836339  0.75000000  1
  Na  Na3  1  0.26138251  0.73861749  0.75000000  1
  Ge  Ge0  1  0.37751503  0.62248497  0.25000000  1
  Ge  Ge1  1  0.62248497  0.37751503  0.75000000  1
  S  S0  1  0.49705923  0.86083576  0.36486070  1
  S  S1  1  0.77148416  0.64444265  0.48716941  1
  S  S2  1  0.22851584  0.35555735  0.51283059  1
  S  S3  1  0.50294077  0.13916424  0.63513930  1
  S  S4  1  0.35555735  0.22851584  0.01283059  1
  S  S5  1  0.13916424  0.50294077  0.13513930  1
  S  S6  1  0.86083576  0.49705923  0.86486070  1
  S  S7  1  0.64444265  0.77148416  0.98716941  1
loop_
_geom_bond_atom_site_label_1
_geom_bond_atom_site_label_2
_geom_bond_distance
_geom_bond_site_symmetry_2
Rb0 S2 3.315005 1_655
Rb0 S7 3.315005 1_545
Rb0 S3 3.408104 1_555
Rb0 S6 3.408104 1_555
Rb1 S7 3.374770 1_455
Rb1 S2 3.374770 1_565
Rb1 S4 3.410579 1_566
Rb1 S1 3.410579 1_455
Rb1 S3 3.413157 1_565
Rb1 S6 3.413157 1_455
Rb2 S1 3.315005 1_455
Rb2 S4 3.315005 1_565
Rb2 S0 3.408104 1_555
Rb2 S5 3.408104 1_555
Rb3 S4 3.374770 1_655
Rb3 S1 3.374770 1_545
Rb3 S7 3.410579 1_544
Rb3 S2 3.410579 1_655
Rb3 S0 3.413157 1_545
Rb3 S5 3.413157 1_655
Na0 S3 2.709448 1_555
Na0 S6 2.709449 1_554
Na0 S5 2.787036 1_655
Na0 S0 2.787036 1_545
Na1 S1 2.768046 1_555
Na1 S4 2.768046 1_555
Na1 S2 2.838595 1_555
Na1 S7 2.838595 1_554
Na2 S2 2.768046 1_555
Na2 S7 2.768046 1_555
Na2 S1 2.838595 1_555
Na2 S4 2.838595 1_556
Na3 S0 2.709448 1_555
Na3 S5 2.709449 1_556
Na3 S6 2.787036 1_455
Na3 S3 2.787036 1_565
Ge0 S7 2.221757 1_554
Ge0 S2 2.221758 1_555
Ge0 S5 2.231949 1_555
Ge0 S0 2.231949 1_555
Ge1 S4 2.221757 1_556
Ge1 S1 2.221758 1_555
Ge1 S6 2.231949 1_555
Ge1 S3 2.231949 1_555
