# generated using pymatgen
data_CsAs2PdRu
_symmetry_space_group_name_H-M   'P 1'
_cell_length_a   8.01696782
_cell_length_b   8.01696733
_cell_length_c   8.01696750
_cell_angle_alpha   150.78114854
_cell_angle_beta   150.78114176
_cell_angle_gamma   41.79595881
_symmetry_Int_Tables_number   1
_chemical_formula_structural   CsAs2PdRu
_chemical_formula_sum   'Cs1 As2 Pd1 Ru1'
_cell_volume   122.49736709
_cell_formula_units_Z   1
loop_
 _symmetry_equiv_pos_site_id
 _symmetry_equiv_pos_as_xyz
  1  'x, y, z'
loop_
 _atom_site_type_symbol
 _atom_site_label
 _atom_site_symmetry_multiplicity
 _atom_site_fract_x
 _atom_site_fract_y
 _atom_site_fract_z
 _atom_site_occupancy
  Cs  Cs0  1  0.00000000  0.00000000  0.00000000  1
  As  As0  1  0.34234674  0.34234674  0.00000000  1
  As  As1  1  0.65765326  0.65765326  1.00000000  1
  Pd  Pd0  1  0.75000000  0.25000000  0.50000000  1
  Ru  Ru0  1  0.25000000  0.75000000  0.50000000  1
loop_
_geom_bond_atom_site_label_1
_geom_bond_atom_site_label_2
_geom_bond_distance
_geom_bond_site_symmetry_2
As0 Ru0 2.449975 1_544
As0 Ru0 2.449975 1_555
As0 Pd0 2.449976 1_555
As0 Pd0 2.449976 1_454
As0 Cs0 3.708719 1_565
As0 Cs0 3.708720 1_554
As0 Cs0 3.708720 1_655
As0 Cs0 3.708720 1_666
As1 Pd0 2.449975 1_566
As1 Pd0 2.449975 1_555
As1 Ru0 2.449976 1_555
As1 Ru0 2.449976 1_656
As1 Cs0 3.708719 1_656
As1 Cs0 3.708720 1_667
As1 Cs0 3.708720 1_566
As1 Cs0 3.708720 1_555
