# generated using pymatgen
data_SnIrRhSe5
_symmetry_space_group_name_H-M   'P 1'
_cell_length_a   3.76824051
_cell_length_b   7.71150785
_cell_length_c   13.22274134
_cell_angle_alpha   78.67331210
_cell_angle_beta   90.00000000
_cell_angle_gamma   90.00000000
_symmetry_Int_Tables_number   1
_chemical_formula_structural   SnIrRhSe5
_chemical_formula_sum   'Sn2 Ir2 Rh2 Se10'
_cell_volume   376.75353172
_cell_formula_units_Z   2
loop_
 _symmetry_equiv_pos_site_id
 _symmetry_equiv_pos_as_xyz
  1  'x, y, z'
loop_
 _atom_site_type_symbol
 _atom_site_label
 _atom_site_symmetry_multiplicity
 _atom_site_fract_x
 _atom_site_fract_y
 _atom_site_fract_z
 _atom_site_occupancy
  Sn  Sn0  1  0.50000000  0.16240903  0.67610917  1
  Sn  Sn1  1  0.50000000  0.83759097  0.32389083  1
  Ir  Ir0  1  0.00000000  0.25841697  0.14570188  1
  Ir  Ir1  1  0.00000000  0.74158303  0.85429812  1
  Rh  Rh0  1  0.50000000  0.75296026  0.14147826  1
  Rh  Rh1  1  0.50000000  0.24703974  0.85852174  1
  Se  Se0  1  0.00000000  0.95972157  0.10012015  1
  Se  Se1  1  0.00000000  0.04027843  0.89987985  1
  Se  Se2  1  0.00000000  0.45722265  0.78871412  1
  Se  Se3  1  0.00000000  0.54277735  0.21128588  1
  Se  Se4  1  0.50000000  0.66353682  0.97315270  1
  Se  Se5  1  0.50000000  0.33646318  0.02684730  1
  Se  Se6  1  0.50000000  0.18879280  0.27534195  1
  Se  Se7  1  0.50000000  0.81120720  0.72465805  1
  Se  Se8  1  0.00000000  0.23903970  0.54740677  1
  Se  Se9  1  0.00000000  0.76096030  0.45259323  1
loop_
_geom_bond_atom_site_label_1
_geom_bond_atom_site_label_2
_geom_bond_distance
_geom_bond_site_symmetry_2
Ir0 Se5 2.451626 1_455
Ir0 Se5 2.451626 1_555
Ir0 Se0 2.492831 1_545
Ir0 Se3 2.511492 1_555
Ir0 Se6 2.532810 1_455
Ir0 Se6 2.532810 1_555
Ir1 Se4 2.451626 1_455
Ir1 Se4 2.451626 1_555
Ir1 Se1 2.492831 1_565
Ir1 Se2 2.511492 1_555
Ir1 Se7 2.532810 1_455
Ir1 Se7 2.532810 1_555
Rh0 Se4 2.456070 1_554
Rh0 Se0 2.459413 1_555
Rh0 Se0 2.459413 1_655
Rh0 Se3 2.537978 1_655
Rh0 Se3 2.537978 1_555
Rh0 Sn1 2.619537 1_555
Rh1 Se5 2.456070 1_556
Rh1 Se1 2.459413 1_555
Rh1 Se1 2.459413 1_655
Rh1 Se2 2.537978 1_555
Rh1 Se2 2.537978 1_655
Rh1 Sn0 2.619537 1_555
Se0 Se1 2.598128 1_564
Se4 Se5 2.482401 1_556
Se6 Sn1 2.657826 1_545
Se7 Sn0 2.657826 1_565
Se8 Sn0 2.529863 1_455
Se8 Sn0 2.529863 1_555
Se9 Sn1 2.529863 1_455
Se9 Sn1 2.529863 1_555
