# generated using pymatgen
data_Ba6Sc2WO12
_symmetry_space_group_name_H-M   'P 1'
_cell_length_a   9.22254031
_cell_length_b   9.22254017
_cell_length_c   7.36687246
_cell_angle_alpha   68.02646608
_cell_angle_beta   68.02646475
_cell_angle_gamma   36.89484619
_symmetry_Int_Tables_number   1
_chemical_formula_structural   Ba6Sc2WO12
_chemical_formula_sum   'Ba6 Sc2 W1 O12'
_cell_volume   345.67231455
_cell_formula_units_Z   1
loop_
 _symmetry_equiv_pos_site_id
 _symmetry_equiv_pos_as_xyz
  1  'x, y, z'
loop_
 _atom_site_type_symbol
 _atom_site_label
 _atom_site_symmetry_multiplicity
 _atom_site_fract_x
 _atom_site_fract_y
 _atom_site_fract_z
 _atom_site_occupancy
  Ba  Ba0  1  0.87596329  0.87596329  0.71227308  1
  Ba  Ba1  1  0.22015722  0.22015722  0.70769634  1
  Ba  Ba2  1  0.54874211  0.54874211  0.70399635  1
  Ba  Ba3  1  0.45125789  0.45125789  0.29600365  1
  Ba  Ba4  1  0.77984278  0.77984278  0.29230366  1
  Ba  Ba5  1  0.12403671  0.12403671  0.28772692  1
  Sc  Sc0  1  0.66818039  0.66818039  0.99889375  1
  Sc  Sc1  1  0.33181961  0.33181961  0.00110625  1
  W  W0  1  0.00000000  0.00000000  0.00000000  1
  O  O0  1  0.95194199  0.95194199  0.28936662  1
  O  O1  1  0.28423873  0.28423873  0.31480008  1
  O  O2  1  0.61018657  0.61018657  0.31600330  1
  O  O3  1  0.38981343  0.38981343  0.68399670  1
  O  O4  1  0.71576127  0.71576127  0.68519992  1
  O  O5  1  0.04805801  0.04805801  0.71063338  1
  O  O6  1  0.50000000  0.00000000  0.00000000  1
  O  O7  1  0.84333263  0.31178488  0.00088782  1
  O  O8  1  0.15666737  0.68821512  0.99911218  1
  O  O9  1  0.00000000  0.50000000  0.00000000  1
  O  O10  1  0.31178488  0.84333263  0.00088782  1
  O  O11  1  0.68821512  0.15666737  0.99911218  1
loop_
_geom_bond_atom_site_label_1
_geom_bond_atom_site_label_2
_geom_bond_distance
_geom_bond_site_symmetry_2
Ba0 O6 2.791816 1_566
Ba0 O9 2.791816 1_656
Ba0 O0 2.864653 1_555
Ba0 O4 2.887590 1_555
Ba0 O11 2.889847 1_565
Ba0 O8 2.889847 1_655
Ba0 O3 2.928982 1_655
Ba0 O3 2.928982 1_565
Ba0 O5 3.006443 1_665
Ba1 O1 2.659812 1_555
Ba1 O9 2.815287 1_556
Ba1 O6 2.815287 1_556
Ba1 O3 2.904088 1_555
Ba1 O7 2.916868 1_456
Ba1 O10 2.916868 1_546
Ba1 O4 2.925761 1_545
Ba1 O4 2.925761 1_455
Ba1 O5 3.002798 1_555
Ba2 O2 2.627062 1_555
Ba2 O3 2.842160 1_555
Ba2 O8 2.868172 1_555
Ba2 O11 2.868172 1_555
Ba2 O4 2.870581 1_555
Ba2 O10 2.883437 1_556
Ba2 O7 2.883437 1_556
Ba2 O5 2.918683 1_565
Ba2 O5 2.918683 1_655
Ba3 O3 2.627062 1_555
Ba3 O2 2.842160 1_555
Ba3 O7 2.868172 1_555
Ba3 O10 2.868172 1_555
Ba3 O1 2.870581 1_555
Ba3 O11 2.883437 1_554
Ba3 O8 2.883437 1_554
Ba3 O0 2.918683 1_545
Ba3 O0 2.918683 1_455
Ba4 O4 2.659812 1_555
Ba4 O9 2.815287 1_655
Ba4 O6 2.815287 1_565
Ba4 O2 2.904088 1_555
Ba4 O8 2.916868 1_654
Ba4 O11 2.916868 1_564
Ba4 O1 2.925761 1_565
Ba4 O1 2.925761 1_655
Ba4 O0 3.002798 1_555
Ba5 O6 2.791816 1_555
Ba5 O9 2.791816 1_555
Ba5 O5 2.864653 1_555
Ba5 O1 2.887590 1_555
Ba5 O10 2.889847 1_545
Ba5 O7 2.889847 1_455
Ba5 O2 2.928982 1_455
Ba5 O2 2.928982 1_545
Ba5 O0 3.006443 1_445
O0 W0 1.958884 1_665
O1 Sc1 2.125037 1_555
O2 Sc0 2.148716 1_554
O3 Sc1 2.148716 1_556
O4 Sc0 2.125037 1_555
O5 W0 1.958884 1_556
O6 Sc0 2.046452 1_544
O6 Sc1 2.046452 1_555
O7 W0 1.928115 1_655
O7 Sc0 2.214133 1_554
O8 W0 1.928115 1_566
O8 Sc1 2.214133 1_556
O9 Sc0 2.046452 1_454
O9 Sc1 2.046452 1_555
O10 W0 1.928116 1_565
O10 Sc0 2.214133 1_554
O11 W0 1.928116 1_656
O11 Sc1 2.214133 1_556
