# generated using pymatgen
data_K3Li2HfP3
_symmetry_space_group_name_H-M   'P 1'
_cell_length_a   10.09627073
_cell_length_b   10.09626889
_cell_length_c   14.64167410
_cell_angle_alpha   90.00000000
_cell_angle_beta   90.00000000
_cell_angle_gamma   143.18019681
_symmetry_Int_Tables_number   1
_chemical_formula_structural   K3Li2HfP3
_chemical_formula_sum   'K12 Li8 Hf4 P12'
_cell_volume   894.45221061
_cell_formula_units_Z   4
loop_
 _symmetry_equiv_pos_site_id
 _symmetry_equiv_pos_as_xyz
  1  'x, y, z'
loop_
 _atom_site_type_symbol
 _atom_site_label
 _atom_site_symmetry_multiplicity
 _atom_site_fract_x
 _atom_site_fract_y
 _atom_site_fract_z
 _atom_site_occupancy
  K  K0  1  0.10661549  0.45198265  0.67474173  1
  K  K1  1  0.70596542  0.70596542  0.68210009  1
  K  K2  1  0.20596542  0.20596542  0.81789991  1
  K  K3  1  0.79403458  0.79403458  0.18210009  1
  K  K4  1  0.95198265  0.60661549  0.82525827  1
  K  K5  1  0.54801735  0.89338451  0.32525827  1
  K  K6  1  0.39338451  0.04801735  0.17474173  1
  K  K7  1  0.04801735  0.39338451  0.17474173  1
  K  K8  1  0.89338451  0.54801735  0.32525827  1
  K  K9  1  0.45198265  0.10661549  0.67474173  1
  K  K10  1  0.60661549  0.95198365  0.82525827  1
  K  K11  1  0.29403458  0.29403458  0.31789991  1
  Li  Li0  1  0.91615485  0.08384515  0.00000000  1
  Li  Li1  1  0.58384515  0.41615485  0.50000000  1
  Li  Li2  1  0.08384515  0.91615485  0.00000000  1
  Li  Li3  1  0.41615485  0.58384515  0.50000000  1
  Li  Li4  1  0.75145739  0.24854261  0.00000000  1
  Li  Li5  1  0.74854261  0.25145739  0.50000000  1
  Li  Li6  1  0.24854261  0.75145739  0.00000000  1
  Li  Li7  1  0.25145739  0.74854261  0.50000000  1
  Hf  Hf0  1  0.08755882  0.91244118  0.50000000  1
  Hf  Hf1  1  0.41244118  0.58755882  0.00000000  1
  Hf  Hf2  1  0.91244118  0.08755882  0.50000000  1
  Hf  Hf3  1  0.58755882  0.41244118  0.00000000  1
  P  P0  1  0.89511631  0.57120508  0.09235092  1
  P  P1  1  0.42879492  0.10488369  0.90764908  1
  P  P2  1  0.60488369  0.92879492  0.59235092  1
  P  P3  1  0.92879492  0.60488369  0.59235092  1
  P  P4  1  0.10488369  0.42879492  0.90764908  1
  P  P5  1  0.57120508  0.89511631  0.09235092  1
  P  P6  1  0.39511631  0.07120508  0.40764908  1
  P  P7  1  0.22575414  0.22575414  0.58741670  1
  P  P8  1  0.72575414  0.72575414  0.91258330  1
  P  P9  1  0.27424586  0.27424586  0.08741670  1
  P  P10  1  0.07120508  0.39511631  0.40764908  1
  P  P11  1  0.77424586  0.77424586  0.41258330  1
loop_
_geom_bond_atom_site_label_1
_geom_bond_atom_site_label_2
_geom_bond_distance
_geom_bond_site_symmetry_2
K0 P2 3.341236 1_555
K0 P3 3.390995 1_455
K0 P4 3.417266 1_555
K0 P2 3.489593 1_445
K0 P7 3.563329 1_555
K1 P7 3.361520 1_555
K1 P8 3.377019 1_555
K1 P2 3.391998 1_555
K1 P3 3.391998 1_555
K1 P7 3.592953 1_665
K2 P8 3.361520 1_445
K2 P7 3.377019 1_555
K2 P4 3.391998 1_555
K2 P1 3.391998 1_555
K2 P8 3.592953 1_555
K3 P9 3.361520 1_665
K3 P11 3.377019 1_555
K3 P0 3.391998 1_555
K3 P5 3.391998 1_555
K3 P9 3.592953 1_555
K4 P1 3.341236 1_665
K4 P4 3.390995 1_655
K4 P3 3.417266 1_555
K4 P1 3.489593 1_555
K4 P8 3.563329 1_555
K5 P10 3.341236 1_555
K5 P6 3.390995 1_565
K5 P5 3.417266 1_555
K5 P10 3.489593 1_665
K5 P11 3.563329 1_555
K6 P0 3.341236 1_445
K6 P5 3.390995 1_545
K6 P6 3.417266 1_555
K6 P0 3.489593 1_555
K6 P9 3.563329 1_555
K7 P5 3.341236 1_445
K7 P0 3.390995 1_455
K7 P10 3.417266 1_555
K7 P5 3.489593 1_555
K7 P9 3.563329 1_555
K8 P6 3.341236 1_555
K8 P10 3.390995 1_655
K8 P0 3.417266 1_555
K8 P6 3.489593 1_665
K8 P11 3.563329 1_555
K9 P3 3.341236 1_555
K9 P2 3.390995 1_545
K9 P1 3.417266 1_555
K9 P3 3.489593 1_445
K9 P7 3.563329 1_555
K10 P4 3.341234 1_665
K10 P1 3.390986 1_565
K10 P2 3.417267 1_555
K10 P4 3.489597 1_555
K10 P8 3.563338 1_555
K11 P11 3.361520 1_555
K11 P9 3.377019 1_555
K11 P6 3.391998 1_555
K11 P10 3.391998 1_555
K11 P11 3.592953 1_445
Li0 P4 2.638860 1_654
Li0 P5 2.638861 1_545
Li0 P8 2.697652 1_544
Li0 P9 2.697652 1_655
Li1 P6 2.638860 1_555
Li1 P3 2.638861 1_555
Li1 P11 2.697652 1_555
Li1 P7 2.697652 1_555
Li2 P0 2.638860 1_455
Li2 P1 2.638861 1_564
Li2 P9 2.697652 1_565
Li2 P8 2.697652 1_454
Li3 P2 2.638860 1_555
Li3 P10 2.638861 1_555
Li3 P7 2.697652 1_555
Li3 P11 2.697652 1_555
Li4 P0 2.641900 1_555
Li4 P1 2.641901 1_554
Li4 P5 2.734234 1_545
Li4 P4 2.734235 1_654
Li5 P2 2.641900 1_545
Li5 P10 2.641901 1_655
Li5 P3 2.734234 1_555
Li5 P6 2.734235 1_555
Li6 P4 2.641900 1_554
Li6 P5 2.641901 1_555
Li6 P1 2.734234 1_564
Li6 P0 2.734235 1_455
Li7 P6 2.641900 1_565
Li7 P3 2.641901 1_455
Li7 P10 2.734234 1_555
Li7 P2 2.734235 1_555
Hf0 P3 2.463916 1_455
Hf0 P6 2.463917 1_565
Hf0 P7 2.554403 1_565
Hf0 P11 2.554403 1_455
Hf1 P5 2.463916 1_555
Hf1 P4 2.463917 1_554
Hf1 P9 2.554403 1_555
Hf1 P8 2.554403 1_554
Hf2 P10 2.463916 1_655
Hf2 P2 2.463917 1_545
Hf2 P11 2.554403 1_545
Hf2 P7 2.554403 1_655
Hf3 P1 2.463916 1_554
Hf3 P0 2.463917 1_555
Hf3 P8 2.554403 1_554
Hf3 P9 2.554403 1_555
