# generated using pymatgen
data_Hf3Ga3W2N
_symmetry_space_group_name_H-M   'P 1'
_cell_length_a   7.73403483
_cell_length_b   7.73403570
_cell_length_c   5.33207408
_cell_angle_alpha   90.00000000
_cell_angle_beta   90.00000000
_cell_angle_gamma   120.00000046
_symmetry_Int_Tables_number   1
_chemical_formula_structural   Hf3Ga3W2N
_chemical_formula_sum   'Hf6 Ga6 W4 N2'
_cell_volume   276.20981075
_cell_formula_units_Z   2
loop_
 _symmetry_equiv_pos_site_id
 _symmetry_equiv_pos_as_xyz
  1  'x, y, z'
loop_
 _atom_site_type_symbol
 _atom_site_label
 _atom_site_symmetry_multiplicity
 _atom_site_fract_x
 _atom_site_fract_y
 _atom_site_fract_z
 _atom_site_occupancy
  Hf  Hf0  1  0.23663696  1.00000000  0.25000000  1
  Hf  Hf1  1  0.76336304  0.00000000  0.75000000  1
  Hf  Hf2  1  0.00000000  0.23663696  0.25000000  1
  Hf  Hf3  1  1.00000000  0.76336304  0.75000000  1
  Hf  Hf4  1  0.76336304  0.76336304  0.25000000  1
  Hf  Hf5  1  0.23663696  0.23663696  0.75000000  1
  Ga  Ga0  1  0.59106737  1.00000000  0.25000000  1
  Ga  Ga1  1  0.40893263  0.00000000  0.75000000  1
  Ga  Ga2  1  0.00000000  0.59106737  0.25000000  1
  Ga  Ga3  1  1.00000000  0.40893263  0.75000000  1
  Ga  Ga4  1  0.40893263  0.40893263  0.25000000  1
  Ga  Ga5  1  0.59106737  0.59106737  0.75000000  1
  W  W0  1  0.33333300  0.66666700  0.00000000  1
  W  W1  1  0.66666700  0.33333300  0.00000000  1
  W  W2  1  0.66666700  0.33333300  0.50000000  1
  W  W3  1  0.33333300  0.66666700  0.50000000  1
  N  N0  1  0.00000000  0.00000000  0.00000000  1
  N  N1  1  0.00000000  0.00000000  0.50000000  1
loop_
_geom_bond_atom_site_label_1
_geom_bond_atom_site_label_2
_geom_bond_distance
_geom_bond_site_symmetry_2
Hf0 N1 2.264160 1_565
Hf0 N0 2.264160 1_565
Hf1 N0 2.264160 1_656
Hf1 N1 2.264160 1_655
Hf2 N1 2.264160 1_555
Hf2 N0 2.264160 1_555
Hf3 N0 2.264160 1_666
Hf3 N1 2.264160 1_665
Hf4 N0 2.264160 1_665
Hf4 N1 2.264160 1_665
Hf5 N1 2.264160 1_555
Hf5 N0 2.264160 1_556
Ga0 W1 2.693993 1_565
Ga0 W2 2.693993 1_565
Ga0 W3 2.693995 1_555
Ga0 W0 2.693995 1_555
Ga0 Hf0 2.741177 1_555
Ga0 Hf2 2.750256 1_665
Ga0 Hf4 2.750256 1_555
Ga0 Hf1 2.980506 1_564
Ga0 Hf1 2.980506 1_565
Ga1 W0 2.693993 1_546
Ga1 W3 2.693993 1_545
Ga1 W2 2.693995 1_555
Ga1 W1 2.693995 1_556
Ga1 Hf1 2.741177 1_555
Ga1 Hf3 2.750256 1_445
Ga1 Hf5 2.750256 1_555
Ga1 Hf0 2.980506 1_545
Ga1 Hf0 2.980506 1_546
Ga2 W0 2.693992 1_555
Ga2 W3 2.693992 1_555
Ga2 W2 2.693994 1_455
Ga2 W1 2.693994 1_455
Ga2 Hf2 2.741177 1_555
Ga2 Hf4 2.750256 1_455
Ga2 Hf0 2.750256 1_555
Ga2 Hf3 2.980506 1_455
Ga2 Hf3 2.980506 1_454
Ga3 W1 2.693992 1_556
Ga3 W2 2.693992 1_555
Ga3 W3 2.693994 1_655
Ga3 W0 2.693994 1_656
Ga3 Hf3 2.741177 1_555
Ga3 Hf5 2.750256 1_655
Ga3 Hf1 2.750256 1_555
Ga3 Hf2 2.980506 1_656
Ga3 Hf2 2.980506 1_655
Ga4 W1 2.693999 1_555
Ga4 W2 2.693999 1_555
Ga4 W0 2.693999 1_555
Ga4 W3 2.693999 1_555
Ga4 Hf4 2.741177 1_555
Ga4 Hf2 2.750256 1_555
Ga4 Hf0 2.750256 1_545
Ga4 Hf5 2.980506 1_554
Ga4 Hf5 2.980506 1_555
Ga5 W0 2.693999 1_556
Ga5 W3 2.693999 1_555
Ga5 W1 2.693999 1_556
Ga5 W2 2.693999 1_555
Ga5 Hf5 2.741177 1_555
Ga5 Hf3 2.750256 1_555
Ga5 Hf1 2.750256 1_565
Ga5 Hf4 2.980506 1_556
Ga5 Hf4 2.980506 1_555
