# generated using pymatgen
data_K6MoP4
_symmetry_space_group_name_H-M   'P 1'
_cell_length_a   10.02820050
_cell_length_b   10.02820021
_cell_length_c   7.98585814
_cell_angle_alpha   90.00000000
_cell_angle_beta   90.00000000
_cell_angle_gamma   119.99999124
_symmetry_Int_Tables_number   1
_chemical_formula_structural   K6MoP4
_chemical_formula_sum   'K12 Mo2 P8'
_cell_volume   695.50181129
_cell_formula_units_Z   2
loop_
 _symmetry_equiv_pos_site_id
 _symmetry_equiv_pos_as_xyz
  1  'x, y, z'
loop_
 _atom_site_type_symbol
 _atom_site_label
 _atom_site_symmetry_multiplicity
 _atom_site_fract_x
 _atom_site_fract_y
 _atom_site_fract_z
 _atom_site_occupancy
  K  K0  1  0.14631283  0.29262866  0.28740879  1
  K  K1  1  0.85368717  0.14631283  0.78740879  1
  K  K2  1  0.53245526  0.46754474  0.10548557  1
  K  K3  1  0.06491052  0.53245526  0.60548557  1
  K  K4  1  0.46754474  0.93508948  0.60548557  1
  K  K5  1  0.53245526  0.06491052  0.10548557  1
  K  K6  1  0.93508948  0.46754474  0.10548557  1
  K  K7  1  0.46754474  0.53245526  0.60548557  1
  K  K8  1  0.14631283  0.85368717  0.28740879  1
  K  K9  1  0.70737134  0.85368717  0.28740879  1
  K  K10  1  0.85368717  0.70737134  0.78740879  1
  K  K11  1  0.29262866  0.14631283  0.78740879  1
  Mo  Mo0  1  0.66666700  0.33333300  0.49689783  1
  Mo  Mo1  1  0.33333300  0.66666700  0.99689783  1
  P  P0  1  0.79364463  0.58728927  0.40481053  1
  P  P1  1  0.41271073  0.20635537  0.40481053  1
  P  P2  1  0.33333300  0.66666700  0.28488751  1
  P  P3  1  0.66666700  0.33333300  0.78488751  1
  P  P4  1  0.79364463  0.20635537  0.40481053  1
  P  P5  1  0.20635537  0.79364463  0.90481053  1
  P  P6  1  0.20635537  0.41271073  0.90481053  1
  P  P7  1  0.58728927  0.79364463  0.90481053  1
loop_
_geom_bond_atom_site_label_1
_geom_bond_atom_site_label_2
_geom_bond_distance
_geom_bond_site_symmetry_2
K0 P6 3.228452 1_554
K0 P2 3.248465 1_555
K0 P4 3.327985 1_455
K0 P1 3.328013 1_555
K1 P4 3.228461 1_555
K1 P3 3.248482 1_555
K1 P7 3.327993 1_545
K1 P6 3.327993 1_655
K2 P1 3.297132 1_555
K2 P0 3.297132 1_555
K2 P7 3.430236 1_554
K2 P6 3.430236 1_554
K2 P3 3.462548 1_554
K3 P6 3.297132 1_555
K3 P5 3.297132 1_555
K3 P0 3.430236 1_455
K3 P4 3.430237 1_455
K3 P2 3.462543 1_555
K4 P7 3.297132 1_555
K4 P5 3.297133 1_555
K4 P1 3.430236 1_565
K4 P4 3.430237 1_565
K4 P2 3.462543 1_555
K5 P1 3.297132 1_555
K5 P4 3.297133 1_555
K5 P7 3.430236 1_544
K5 P5 3.430237 1_544
K5 P3 3.462543 1_554
K6 P0 3.297132 1_555
K6 P4 3.297132 1_555
K6 P6 3.430236 1_654
K6 P5 3.430237 1_654
K6 P3 3.462543 1_554
K7 P7 3.297132 1_555
K7 P6 3.297132 1_555
K7 P1 3.430236 1_555
K7 P0 3.430236 1_555
K7 P2 3.462548 1_555
K8 P5 3.228461 1_554
K8 P2 3.248482 1_555
K8 P1 3.327993 1_565
K8 P0 3.327993 1_455
K9 P7 3.228452 1_554
K9 P2 3.248465 1_555
K9 P4 3.327985 1_565
K9 P0 3.328013 1_555
K10 P0 3.228452 1_555
K10 P3 3.248465 1_555
K10 P5 3.327985 1_655
K10 P7 3.328013 1_555
K11 P1 3.228452 1_555
K11 P3 3.248465 1_555
K11 P5 3.327985 1_545
K11 P6 3.328013 1_555
Mo0 P3 2.299845 1_555
Mo0 P4 2.324892 1_555
Mo0 P0 2.324900 1_555
Mo0 P1 2.324900 1_555
Mo1 P2 2.299845 1_556
Mo1 P5 2.324892 1_555
Mo1 P6 2.324900 1_555
Mo1 P7 2.324900 1_555
