# generated using pymatgen
data_CdBiRh2O7
_symmetry_space_group_name_H-M   'P 1'
_cell_length_a   7.15265276
_cell_length_b   7.15265284
_cell_length_c   7.01446129
_cell_angle_alpha   60.63707493
_cell_angle_beta   60.63707458
_cell_angle_gamma   61.19573536
_symmetry_Int_Tables_number   1
_chemical_formula_structural   CdBiRh2O7
_chemical_formula_sum   'Cd2 Bi2 Rh4 O14'
_cell_volume   258.44975185
_cell_formula_units_Z   2
loop_
 _symmetry_equiv_pos_site_id
 _symmetry_equiv_pos_as_xyz
  1  'x, y, z'
loop_
 _atom_site_type_symbol
 _atom_site_label
 _atom_site_symmetry_multiplicity
 _atom_site_fract_x
 _atom_site_fract_y
 _atom_site_fract_z
 _atom_site_occupancy
  Cd  Cd0  1  0.12500000  0.12500000  0.12500000  1
  Cd  Cd1  1  0.12500000  0.12500000  0.62500000  1
  Bi  Bi0  1  0.12500000  0.62500000  0.12500000  1
  Bi  Bi1  1  0.62500000  0.12500000  0.12500000  1
  Rh  Rh0  1  0.62500000  0.62500000  0.62500000  1
  Rh  Rh1  1  0.62500000  0.62500000  0.12500000  1
  Rh  Rh2  1  0.12500000  0.62500000  0.62500000  1
  Rh  Rh3  1  0.62500000  0.12500000  0.62500000  1
  O  O0  1  0.25100701  0.25100701  0.24899299  1
  O  O1  1  0.29430849  0.70246723  0.28997194  1
  O  O2  1  0.94771608  0.94771608  0.55228392  1
  O  O3  1  0.54753277  0.95569151  0.53674765  1
  O  O4  1  0.70918163  0.70918163  0.29081837  1
  O  O5  1  0.95569151  0.54753277  0.53674765  1
  O  O6  1  0.70246723  0.29430849  0.71325235  1
  O  O7  1  0.30228392  0.30228392  0.69771608  1
  O  O8  1  0.70246723  0.29430849  0.28997194  1
  O  O9  1  0.29430849  0.70246723  0.71325235  1
  O  O10  1  0.95569151  0.54753277  0.96002806  1
  O  O11  1  0.54081837  0.54081837  0.95918163  1
  O  O12  1  0.99899299  0.99899299  0.00100701  1
  O  O13  1  0.54753277  0.95569151  0.96002806  1
loop_
_geom_bond_atom_site_label_1
_geom_bond_atom_site_label_2
_geom_bond_distance
_geom_bond_site_symmetry_2
Cd0 O0 2.168258 1_555
Cd0 O12 2.168258 1_445
Cd0 O2 2.508811 1_445
Cd0 O7 2.508811 1_554
Cd0 O13 2.521350 1_544
Cd0 O8 2.521350 1_455
Cd0 O10 2.521350 1_454
Cd0 O1 2.521350 1_545
Cd1 O12 2.168258 1_446
Cd1 O0 2.168258 1_555
Cd1 O7 2.508811 1_555
Cd1 O2 2.508811 1_445
Cd1 O3 2.521350 1_545
Cd1 O6 2.521350 1_455
Cd1 O5 2.521350 1_455
Cd1 O9 2.521350 1_545
Bi0 O12 2.210973 1_455
Bi0 O0 2.210973 1_555
Bi0 O5 2.400489 1_455
Bi0 O9 2.400489 1_554
Bi0 O1 2.400489 1_555
Bi0 O10 2.400489 1_454
Bi0 O11 2.475856 1_554
Bi0 O4 2.475856 1_455
Bi1 O12 2.210973 1_545
Bi1 O0 2.210973 1_555
Bi1 O3 2.400489 1_545
Bi1 O6 2.400489 1_554
Bi1 O8 2.400489 1_555
Bi1 O13 2.400489 1_544
Bi1 O11 2.475856 1_554
Bi1 O4 2.475856 1_545
O1 Rh2 1.968488 1_555
O1 Rh1 1.980520 1_555
O2 Rh3 1.963504 1_565
O2 Rh2 1.963504 1_655
O3 Rh3 1.968488 1_565
O3 Rh0 1.980520 1_555
O4 Rh0 1.949605 1_555
O4 Rh1 1.949605 1_555
O5 Rh2 1.968488 1_655
O5 Rh0 1.980520 1_555
O6 Rh3 1.968488 1_555
O6 Rh0 1.980520 1_555
O7 Rh3 1.963504 1_555
O7 Rh2 1.963504 1_555
O8 Rh3 1.968488 1_555
O8 Rh1 1.980520 1_555
O9 Rh2 1.968488 1_555
O9 Rh0 1.980520 1_555
O10 Rh2 1.968488 1_655
O10 Rh1 1.980520 1_556
O11 Rh0 1.949605 1_555
O11 Rh1 1.949605 1_556
O13 Rh3 1.968488 1_565
O13 Rh1 1.980520 1_556
