# generated using pymatgen
data_Co2Sb12OsPd
_symmetry_space_group_name_H-M   'P 1'
_cell_length_a   7.96573254
_cell_length_b   7.95435824
_cell_length_c   9.22829488
_cell_angle_alpha   55.02868352
_cell_angle_beta   54.94341118
_cell_angle_gamma   70.80223208
_symmetry_Int_Tables_number   1
_chemical_formula_structural   Co2Sb12OsPd
_chemical_formula_sum   'Co2 Sb12 Os1 Pd1'
_cell_volume   392.22276114
_cell_formula_units_Z   1
loop_
 _symmetry_equiv_pos_site_id
 _symmetry_equiv_pos_as_xyz
  1  'x, y, z'
loop_
 _atom_site_type_symbol
 _atom_site_label
 _atom_site_symmetry_multiplicity
 _atom_site_fract_x
 _atom_site_fract_y
 _atom_site_fract_z
 _atom_site_occupancy
  Co  Co0  1  0.50000000  0.00000000  0.50000000  1
  Co  Co1  1  0.00000000  0.50000000  0.50000000  1
  Sb  Sb0  1  0.66795457  0.66765252  0.49147997  1
  Sb  Sb1  1  0.33204543  0.33234748  0.50852003  1
  Sb  Sb2  1  0.65992713  0.65393359  0.19047897  1
  Sb  Sb3  1  0.34007287  0.34606641  0.80952103  1
  Sb  Sb4  1  0.16115969  0.84766763  0.66212355  1
  Sb  Sb5  1  0.83884031  0.15233237  0.33787645  1
  Sb  Sb6  1  0.85289926  0.16405809  0.65052024  1
  Sb  Sb7  1  0.14710074  0.83594191  0.34947976  1
  Sb  Sb8  1  0.82310432  0.48981099  0.83809618  1
  Sb  Sb9  1  0.17689568  0.51018901  0.16190382  1
  Sb  Sb10  1  0.50342028  0.18496780  0.16540980  1
  Sb  Sb11  1  0.49657972  0.81503220  0.83459020  1
  Os  Os0  1  0.00000000  0.50000000  0.00000000  1
  Pd  Pd0  1  0.50000000  0.00000000  0.00000000  1
loop_
_geom_bond_atom_site_label_1
_geom_bond_atom_site_label_2
_geom_bond_distance
_geom_bond_site_symmetry_2
Co0 Sb11 2.534039 1_545
Co0 Sb10 2.534039 1_555
Co0 Sb5 2.534877 1_555
Co0 Sb4 2.534877 1_545
Co0 Sb1 2.564407 1_555
Co0 Sb0 2.564407 1_545
Co1 Sb7 2.525403 1_555
Co1 Sb6 2.525403 1_455
Co1 Sb8 2.541959 1_455
Co1 Sb9 2.541959 1_555
Co1 Sb1 2.565053 1_555
Co1 Sb0 2.565053 1_455
Sb0 Sb2 2.878866 1_555
Sb0 Sb3 2.993426 1_555
Sb1 Sb3 2.878866 1_555
Sb1 Sb2 2.993426 1_555
Os0 Sb2 2.596752 1_455
Os0 Sb3 2.596752 1_554
Os0 Sb9 2.618574 1_555
Os0 Sb8 2.618574 1_454
Os0 Sb4 2.621044 1_554
Os0 Sb5 2.621044 1_455
Pd0 Sb2 2.647580 1_545
Pd0 Sb3 2.647580 1_554
Pd0 Sb10 2.672857 1_555
Pd0 Sb11 2.672857 1_544
Pd0 Sb6 2.679497 1_554
Pd0 Sb7 2.679497 1_545
