# generated using pymatgen
data_Zr6Zn16SiAu7
_symmetry_space_group_name_H-M   'P 1'
_cell_length_a   8.86574553
_cell_length_b   8.86574517
_cell_length_c   8.86574367
_cell_angle_alpha   59.99999838
_cell_angle_beta   59.99999974
_cell_angle_gamma   59.99999430
_symmetry_Int_Tables_number   1
_chemical_formula_structural   Zr6Zn16SiAu7
_chemical_formula_sum   'Zr6 Zn16 Si1 Au7'
_cell_volume   492.75456247
_cell_formula_units_Z   1
loop_
 _symmetry_equiv_pos_site_id
 _symmetry_equiv_pos_as_xyz
  1  'x, y, z'
loop_
 _atom_site_type_symbol
 _atom_site_label
 _atom_site_symmetry_multiplicity
 _atom_site_fract_x
 _atom_site_fract_y
 _atom_site_fract_z
 _atom_site_occupancy
  Zr  Zr0  1  0.70791904  0.29208096  0.29208096  1
  Zr  Zr1  1  0.29208096  0.70791904  0.70791904  1
  Zr  Zr2  1  0.29208096  0.70791904  0.29208096  1
  Zr  Zr3  1  0.70791904  0.29208096  0.70791904  1
  Zr  Zr4  1  0.29208096  0.29208096  0.70791904  1
  Zr  Zr5  1  0.70791904  0.70791904  0.29208096  1
  Zn  Zn0  1  0.12350701  0.12350701  0.12350701  1
  Zn  Zn1  1  0.87649299  0.87649299  0.87649299  1
  Zn  Zn2  1  0.12350701  0.12350701  0.62947897  1
  Zn  Zn3  1  0.12350701  0.62947897  0.12350701  1
  Zn  Zn4  1  0.87649299  0.87649299  0.37052103  1
  Zn  Zn5  1  0.87649299  0.37052103  0.87649299  1
  Zn  Zn6  1  0.62947897  0.12350701  0.12350701  1
  Zn  Zn7  1  0.37052103  0.87649299  0.87649299  1
  Zn  Zn8  1  0.34186774  0.34186774  0.34186774  1
  Zn  Zn9  1  0.65813226  0.65813226  0.65813226  1
  Zn  Zn10  1  0.34186774  0.34186774  0.97439777  1
  Zn  Zn11  1  0.34186774  0.97439777  0.34186774  1
  Zn  Zn12  1  0.65813226  0.65813226  0.02560223  1
  Zn  Zn13  1  0.65813226  0.02560223  0.65813226  1
  Zn  Zn14  1  0.97439777  0.34186774  0.34186774  1
  Zn  Zn15  1  0.02560223  0.65813226  0.65813226  1
  Si  Si0  1  0.50000000  0.50000000  0.50000000  1
  Au  Au0  1  0.50000000  0.00000000  0.00000000  1
  Au  Au1  1  0.00000000  0.50000000  0.50000000  1
  Au  Au2  1  0.00000000  0.50000000  0.00000000  1
  Au  Au3  1  0.50000000  0.00000000  0.50000000  1
  Au  Au4  1  0.00000000  0.00000000  0.50000000  1
  Au  Au5  1  0.50000000  0.50000000  0.00000000  1
  Au  Au6  1  0.00000000  0.00000000  0.00000000  1
loop_
_geom_bond_atom_site_label_1
_geom_bond_atom_site_label_2
_geom_bond_distance
_geom_bond_site_symmetry_2
Zn0 Zr4 3.043550 1_554
Zn0 Zr2 3.043551 1_545
Zn0 Zr0 3.043551 1_455
Zn1 Zr5 3.043550 1_556
Zn1 Zr3 3.043551 1_565
Zn1 Zr1 3.043551 1_655
Zn2 Zr1 3.043551 1_545
Zn2 Zr3 3.043551 1_455
Zn2 Zr4 3.043551 1_555
Zn3 Zr1 3.043550 1_554
Zn3 Zr2 3.043551 1_555
Zn3 Zr5 3.043551 1_455
Zn4 Zr0 3.043551 1_565
Zn4 Zr2 3.043551 1_655
Zn4 Zr5 3.043551 1_555
Zn5 Zr0 3.043550 1_556
Zn5 Zr3 3.043551 1_555
Zn5 Zr4 3.043551 1_655
Zn6 Zr3 3.043550 1_554
Zn6 Zr0 3.043551 1_555
Zn6 Zr5 3.043551 1_545
Zn7 Zr2 3.043550 1_556
Zn7 Zr1 3.043551 1_555
Zn7 Zr4 3.043551 1_565
Zn8 Zr4 2.872565 1_555
Zn8 Zr2 2.872566 1_555
Zn8 Zr0 2.872566 1_555
Zn9 Zr5 2.872565 1_555
Zn9 Zr3 2.872566 1_555
Zn9 Zr1 2.872566 1_555
Zn10 Zr1 2.872568 1_555
Zn10 Zr3 2.872568 1_555
Zn10 Zr4 2.872574 1_555
Zn11 Zr1 2.872568 1_555
Zn11 Zr5 2.872568 1_555
Zn11 Zr2 2.872574 1_555
Zn12 Zr0 2.872568 1_555
Zn12 Zr2 2.872568 1_555
Zn12 Zr5 2.872574 1_555
Zn13 Zr0 2.872568 1_555
Zn13 Zr4 2.872568 1_555
Zn13 Zr3 2.872574 1_555
Zn14 Zr3 2.872568 1_555
Zn14 Zr5 2.872568 1_555
Zn14 Zr0 2.872574 1_555
Zn15 Zr2 2.872568 1_555
Zn15 Zr4 2.872568 1_555
Zn15 Zr1 2.872574 1_555
Si0 Zr1 2.606901 1_555
Si0 Zr3 2.606901 1_555
Si0 Zr0 2.606901 1_555
Si0 Zr2 2.606901 1_555
Si0 Zr5 2.606901 1_555
Si0 Zr4 2.606901 1_555
Au0 Zn11 2.566024 1_545
Au0 Zn13 2.566024 1_554
Au0 Zn10 2.566024 1_554
Au0 Zn12 2.566024 1_545
Au0 Zn6 2.725548 1_555
Au0 Zn7 2.725548 1_544
Au0 Zn1 2.725548 1_544
Au0 Zn0 2.725548 1_555
Au0 Zr5 3.178609 1_545
Au0 Zr4 3.178609 1_554
Au0 Zr2 3.178609 1_545
Au0 Zr3 3.178609 1_554
Au1 Zn15 2.566016 1_555
Au1 Zn14 2.566016 1_455
Au1 Zn8 2.566022 1_555
Au1 Zn9 2.566022 1_455
Au1 Zn5 2.725547 1_455
Au1 Zn3 2.725547 1_555
Au1 Zn4 2.725548 1_455
Au1 Zn2 2.725548 1_555
Au1 Zr4 3.178609 1_555
Au1 Zr5 3.178609 1_455
Au1 Zr3 3.178609 1_455
Au1 Zr2 3.178609 1_555
Au2 Zn14 2.566024 1_455
Au2 Zn15 2.566024 1_554
Au2 Zn10 2.566024 1_554
Au2 Zn12 2.566024 1_455
Au2 Zn1 2.725548 1_454
Au2 Zn0 2.725548 1_555
Au2 Zn3 2.725548 1_555
Au2 Zn5 2.725548 1_454
Au2 Zr5 3.178609 1_455
Au2 Zr4 3.178609 1_554
Au2 Zr1 3.178609 1_554
Au2 Zr0 3.178609 1_455
Au3 Zn13 2.566016 1_555
Au3 Zn11 2.566016 1_545
Au3 Zn8 2.566022 1_555
Au3 Zn9 2.566022 1_545
Au3 Zn7 2.725547 1_545
Au3 Zn6 2.725547 1_555
Au3 Zn4 2.725548 1_545
Au3 Zn2 2.725548 1_555
Au3 Zr4 3.178609 1_555
Au3 Zr5 3.178609 1_545
Au3 Zr0 3.178609 1_555
Au3 Zr1 3.178609 1_545
Au4 Zn14 2.566024 1_455
Au4 Zn15 2.566024 1_545
Au4 Zn11 2.566024 1_545
Au4 Zn13 2.566024 1_455
Au4 Zn1 2.725547 1_445
Au4 Zn0 2.725547 1_555
Au4 Zn2 2.725548 1_555
Au4 Zn4 2.725548 1_445
Au4 Zr2 3.178609 1_545
Au4 Zr3 3.178609 1_455
Au4 Zr1 3.178609 1_545
Au4 Zr0 3.178609 1_455
Au5 Zn12 2.566017 1_555
Au5 Zn10 2.566017 1_554
Au5 Zn8 2.566022 1_555
Au5 Zn9 2.566022 1_554
Au5 Zn7 2.725548 1_554
Au5 Zn6 2.725548 1_555
Au5 Zn5 2.725548 1_554
Au5 Zn3 2.725548 1_555
Au5 Zr0 3.178609 1_555
Au5 Zr1 3.178609 1_554
Au5 Zr3 3.178609 1_554
Au5 Zr2 3.178609 1_555
Au6 Zn4 2.682146 1_445
Au6 Zn2 2.682146 1_554
Au6 Zn5 2.682146 1_454
Au6 Zn3 2.682146 1_545
Au6 Zn0 2.682146 1_555
Au6 Zn1 2.682146 1_444
Au6 Zn7 2.682146 1_544
Au6 Zn6 2.682146 1_455
