# generated using pymatgen
data_Hf13Ta3(Rh2N)4
_symmetry_space_group_name_H-M   'P 1'
_cell_length_a   8.57195698
_cell_length_b   8.57195627
_cell_length_c   8.57195703
_cell_angle_alpha   60.39036696
_cell_angle_beta   60.39037260
_cell_angle_gamma   60.39036797
_symmetry_Int_Tables_number   1
_chemical_formula_structural   Hf13Ta3(Rh2N)4
_chemical_formula_sum   'Hf13 Ta3 Rh8 N4'
_cell_volume   449.30608598
_cell_formula_units_Z   1
loop_
 _symmetry_equiv_pos_site_id
 _symmetry_equiv_pos_as_xyz
  1  'x, y, z'
loop_
 _atom_site_type_symbol
 _atom_site_label
 _atom_site_symmetry_multiplicity
 _atom_site_fract_x
 _atom_site_fract_y
 _atom_site_fract_z
 _atom_site_occupancy
  Hf  Hf0  1  0.62500000  0.62500000  0.62500000  1
  Hf  Hf1  1  0.81599069  0.81599069  0.18341032  1
  Hf  Hf2  1  0.18532642  0.18532642  0.81461831  1
  Hf  Hf3  1  0.81599069  0.18341032  0.81599069  1
  Hf  Hf4  1  0.18532642  0.81461831  0.18532642  1
  Hf  Hf5  1  0.18341032  0.81599069  0.81599069  1
  Hf  Hf6  1  0.81461831  0.18532642  0.18532642  1
  Hf  Hf7  1  0.43400931  0.43400931  0.06658968  1
  Hf  Hf8  1  0.06467358  0.06467358  0.43538169  1
  Hf  Hf9  1  0.43400931  0.06658968  0.43400931  1
  Hf  Hf10  1  0.06467358  0.43538169  0.06467358  1
  Hf  Hf11  1  0.06658968  0.43400931  0.43400931  1
  Hf  Hf12  1  0.43538169  0.06467358  0.06467358  1
  Ta  Ta0  1  0.12500000  0.62500000  0.62500000  1
  Ta  Ta1  1  0.62500000  0.12500000  0.62500000  1
  Ta  Ta2  1  0.62500000  0.62500000  0.12500000  1
  Rh  Rh0  1  0.76655100  0.40853711  0.40853711  1
  Rh  Rh1  1  0.40853711  0.76655100  0.40853711  1
  Rh  Rh2  1  0.40853711  0.40853711  0.76655100  1
  Rh  Rh3  1  0.41333951  0.41333951  0.41333951  1
  Rh  Rh4  1  0.48344900  0.84146289  0.84146289  1
  Rh  Rh5  1  0.84146289  0.48344900  0.84146289  1
  Rh  Rh6  1  0.84146289  0.84146289  0.48344900  1
  Rh  Rh7  1  0.83666049  0.83666049  0.83666049  1
  N  N0  1  0.62500000  0.12500000  0.12500000  1
  N  N1  1  0.12500000  0.62500000  0.12500000  1
  N  N2  1  0.12500000  0.12500000  0.62500000  1
  N  N3  1  0.12500000  0.12500000  0.12500000  1
loop_
_geom_bond_atom_site_label_1
_geom_bond_atom_site_label_2
_geom_bond_distance
_geom_bond_site_symmetry_2
Hf0 Rh6 2.703834 1_555
Hf0 Rh2 2.703834 1_555
Hf0 Rh5 2.703834 1_555
Hf0 Rh1 2.703834 1_555
Hf0 Rh4 2.703834 1_555
Hf0 Rh0 2.703834 1_555
Hf1 N0 2.271874 1_565
Hf1 N1 2.271874 1_655
Hf1 Rh6 2.804833 1_555
Hf1 Rh7 2.808505 1_554
Hf1 Rh0 3.177506 1_555
Hf1 Rh1 3.177506 1_555
Hf2 N2 2.258794 1_555
Hf2 N3 2.271261 1_556
Hf2 Rh4 2.781928 1_545
Hf2 Rh5 2.781928 1_455
Hf2 Rh2 3.090495 1_555
Hf3 N0 2.271874 1_556
Hf3 N2 2.271874 1_655
Hf3 Rh5 2.804833 1_555
Hf3 Rh7 2.808504 1_545
Hf3 Rh0 3.177506 1_555
Hf3 Rh2 3.177506 1_555
Hf4 N1 2.258794 1_555
Hf4 N3 2.271260 1_565
Hf4 Rh4 2.781928 1_554
Hf4 Rh6 2.781928 1_455
Hf4 Rh1 3.090495 1_555
Hf5 N2 2.271874 1_565
Hf5 N1 2.271874 1_556
Hf5 Rh4 2.804833 1_555
Hf5 Rh7 2.808505 1_455
Hf5 Rh2 3.177506 1_555
Hf5 Rh1 3.177506 1_555
Hf6 N0 2.258794 1_555
Hf6 N3 2.271261 1_655
Hf6 Rh6 2.781928 1_545
Hf6 Rh5 2.781928 1_554
Hf6 Rh0 3.090495 1_555
Hf7 N0 2.271874 1_555
Hf7 N1 2.271874 1_555
Hf7 Rh2 2.804833 1_554
Hf7 Rh3 2.808505 1_555
Hf7 Rh4 3.177506 1_554
Hf7 Rh5 3.177506 1_554
Hf8 N2 2.258794 1_555
Hf8 N3 2.271261 1_555
Hf8 Rh0 2.781928 1_455
Hf8 Rh1 2.781928 1_545
Hf8 Rh6 3.090495 1_445
Hf9 N0 2.271874 1_555
Hf9 N2 2.271874 1_555
Hf9 Rh1 2.804833 1_545
Hf9 Rh3 2.808504 1_555
Hf9 Rh4 3.177506 1_545
Hf9 Rh6 3.177506 1_545
Hf10 N1 2.258794 1_555
Hf10 N3 2.271260 1_555
Hf10 Rh0 2.781928 1_455
Hf10 Rh2 2.781928 1_554
Hf10 Rh5 3.090495 1_454
Hf11 N2 2.271874 1_555
Hf11 N1 2.271874 1_555
Hf11 Rh0 2.804833 1_455
Hf11 Rh3 2.808505 1_555
Hf11 Rh6 3.177506 1_455
Hf11 Rh5 3.177506 1_455
Hf12 N0 2.258794 1_555
Hf12 N3 2.271261 1_555
Hf12 Rh2 2.781928 1_554
Hf12 Rh1 2.781928 1_545
Hf12 Rh4 3.090495 1_544
Rh0 Ta1 2.656183 1_555
Rh0 Ta2 2.656183 1_555
Rh1 Ta0 2.656183 1_555
Rh1 Ta2 2.656183 1_555
Rh2 Ta0 2.656183 1_555
Rh2 Ta1 2.656183 1_555
Rh3 Ta1 2.661361 1_555
Rh3 Ta2 2.661362 1_555
Rh3 Ta0 2.661362 1_555
Rh4 Ta1 2.656183 1_565
Rh4 Ta2 2.656183 1_556
Rh5 Ta0 2.656183 1_655
Rh5 Ta2 2.656183 1_556
Rh6 Ta0 2.656183 1_655
Rh6 Ta1 2.656183 1_565
Rh7 Ta1 2.661361 1_565
Rh7 Ta2 2.661362 1_556
Rh7 Ta0 2.661362 1_655
