# generated using pymatgen
data_Ba6Zr2TcO12
_symmetry_space_group_name_H-M   'P 1'
_cell_length_a   9.27852972
_cell_length_b   9.27852961
_cell_length_c   7.37447666
_cell_angle_alpha   67.82581882
_cell_angle_beta   67.82581990
_cell_angle_gamma   36.87187086
_symmetry_Int_Tables_number   1
_chemical_formula_structural   Ba6Zr2TcO12
_chemical_formula_sum   'Ba6 Zr2 Tc1 O12'
_cell_volume   349.49830356
_cell_formula_units_Z   1
loop_
 _symmetry_equiv_pos_site_id
 _symmetry_equiv_pos_as_xyz
  1  'x, y, z'
loop_
 _atom_site_type_symbol
 _atom_site_label
 _atom_site_symmetry_multiplicity
 _atom_site_fract_x
 _atom_site_fract_y
 _atom_site_fract_z
 _atom_site_occupancy
  Ba  Ba0  1  0.21329161  0.21329161  0.70694769  1
  Ba  Ba1  1  0.88445425  0.88445425  0.70521096  1
  Ba  Ba2  1  0.54865818  0.54865818  0.70883966  1
  Ba  Ba3  1  0.78670839  0.78670839  0.29305231  1
  Ba  Ba4  1  0.45134182  0.45134182  0.29116034  1
  Ba  Ba5  1  0.11554575  0.11554575  0.29478904  1
  Zr  Zr0  1  0.66546910  0.66546910  0.00031950  1
  Zr  Zr1  1  0.33453090  0.33453090  0.99968050  1
  Tc  Tc0  1  0.00000000  0.00000000  0.00000000  1
  O  O0  1  0.28180827  0.28180827  0.31231710  1
  O  O1  1  0.94982115  0.94982115  0.30404024  1
  O  O2  1  0.61343593  0.61343593  0.31281005  1
  O  O3  1  0.71819173  0.71819173  0.68768290  1
  O  O4  1  0.38656407  0.38656407  0.68718995  1
  O  O5  1  0.05017885  0.05017885  0.69595976  1
  O  O6  1  0.00000000  0.50000000  0.00000000  1
  O  O7  1  0.67424898  0.16302590  0.99981067  1
  O  O8  1  0.32575102  0.83697410  0.00018933  1
  O  O9  1  0.50000000  0.00000000  0.00000000  1
  O  O10  1  0.16302590  0.67424898  0.99981067  1
  O  O11  1  0.83697410  0.32575102  0.00018933  1
loop_
_geom_bond_atom_site_label_1
_geom_bond_atom_site_label_2
_geom_bond_distance
_geom_bond_site_symmetry_2
Ba0 O0 2.670408 1_555
Ba0 O8 2.851548 1_546
Ba0 O11 2.851548 1_456
Ba0 O9 2.889940 1_556
Ba0 O6 2.889940 1_556
Ba0 O5 2.904735 1_555
Ba0 O3 2.937324 1_455
Ba0 O3 2.937324 1_545
Ba0 O4 2.995422 1_555
Ba1 O1 2.714345 1_555
Ba1 O10 2.859930 1_655
Ba1 O7 2.859930 1_565
Ba1 O5 2.891063 1_665
Ba1 O6 2.896006 1_656
Ba1 O9 2.896006 1_566
Ba1 O4 2.936854 1_565
Ba1 O4 2.936854 1_655
Ba1 O3 2.980782 1_555
Ba2 O2 2.679521 1_555
Ba2 O11 2.860465 1_556
Ba2 O8 2.860465 1_556
Ba2 O7 2.861088 1_555
Ba2 O10 2.861089 1_555
Ba2 O4 2.920806 1_555
Ba2 O3 2.926014 1_555
Ba2 O5 2.935595 1_565
Ba2 O5 2.935595 1_655
Ba3 O3 2.670408 1_555
Ba3 O7 2.851548 1_564
Ba3 O10 2.851548 1_654
Ba3 O9 2.889940 1_565
Ba3 O6 2.889940 1_655
Ba3 O1 2.904735 1_555
Ba3 O0 2.937324 1_655
Ba3 O0 2.937324 1_565
Ba3 O2 2.995422 1_555
Ba4 O4 2.679521 1_555
Ba4 O10 2.860465 1_554
Ba4 O7 2.860465 1_554
Ba4 O8 2.861088 1_555
Ba4 O11 2.861089 1_555
Ba4 O2 2.920806 1_555
Ba4 O0 2.926014 1_555
Ba4 O1 2.935595 1_545
Ba4 O1 2.935595 1_455
Ba5 O5 2.714345 1_555
Ba5 O11 2.859930 1_455
Ba5 O8 2.859930 1_545
Ba5 O1 2.891063 1_445
Ba5 O6 2.896006 1_555
Ba5 O9 2.896006 1_555
Ba5 O2 2.936854 1_545
Ba5 O2 2.936854 1_455
Ba5 O0 2.980782 1_555
O0 Zr1 2.115247 1_554
O1 Tc0 2.057077 1_665
O2 Zr0 2.114231 1_555
O3 Zr0 2.115247 1_556
O4 Zr1 2.114231 1_555
O5 Tc0 2.057077 1_556
O6 Zr1 2.089084 1_554
O6 Zr0 2.089084 1_455
O7 Tc0 2.027364 1_656
O7 Zr1 2.108015 1_555
O8 Tc0 2.027364 1_565
O8 Zr0 2.108015 1_555
O9 Zr1 2.089084 1_554
O9 Zr0 2.089084 1_545
O10 Tc0 2.027364 1_566
O10 Zr1 2.108015 1_555
O11 Tc0 2.027364 1_655
O11 Zr0 2.108015 1_555
