# generated using pymatgen
data_ZnIn3P6N13
_symmetry_space_group_name_H-M   'P 1'
_cell_length_a   7.15668024
_cell_length_b   7.15668039
_cell_length_c   7.15668064
_cell_angle_alpha   109.40693437
_cell_angle_beta   109.40693002
_cell_angle_gamma   109.40694183
_symmetry_Int_Tables_number   1
_chemical_formula_structural   ZnIn3P6N13
_chemical_formula_sum   'Zn1 In3 P6 N13'
_cell_volume   282.84099532
_cell_formula_units_Z   1
loop_
 _symmetry_equiv_pos_site_id
 _symmetry_equiv_pos_as_xyz
  1  'x, y, z'
loop_
 _atom_site_type_symbol
 _atom_site_label
 _atom_site_symmetry_multiplicity
 _atom_site_fract_x
 _atom_site_fract_y
 _atom_site_fract_z
 _atom_site_occupancy
  Zn  Zn0  1  0.32642443  0.32642443  0.32642443  1
  In  In0  1  0.99598147  0.71434337  0.99598147  1
  In  In1  1  0.71434337  0.99598147  0.99598147  1
  In  In2  1  0.99598147  0.99598147  0.71434337  1
  P  P0  1  0.49473936  0.24524132  0.74413843  1
  P  P1  1  0.49473936  0.74413843  0.24524132  1
  P  P2  1  0.74413843  0.49473936  0.24524132  1
  P  P3  1  0.24524132  0.74413843  0.49473936  1
  P  P4  1  0.74413843  0.24524132  0.49473936  1
  P  P5  1  0.24524132  0.49473936  0.74413843  1
  N  N0  1  0.99501096  0.72017194  0.43386740  1
  N  N1  1  0.28322974  0.55564105  0.55564105  1
  N  N2  1  0.72017194  0.43386740  0.99501096  1
  N  N3  1  0.26987373  0.71295100  0.26987373  1
  N  N4  1  0.43386740  0.99501096  0.72017194  1
  N  N5  1  0.71295100  0.26987373  0.26987373  1
  N  N6  1  0.55564105  0.28322974  0.55564105  1
  N  N7  1  0.72017194  0.99501096  0.43386740  1
  N  N8  1  0.26987373  0.26987373  0.71295100  1
  N  N9  1  0.43386740  0.72017194  0.99501096  1
  N  N10  1  0.55564105  0.55564105  0.28322974  1
  N  N11  1  0.99501096  0.43386740  0.72017194  1
  N  N12  1  0.05371912  0.05371912  0.05371912  1
loop_
_geom_bond_atom_site_label_1
_geom_bond_atom_site_label_2
_geom_bond_distance
_geom_bond_site_symmetry_2
In0 N12 2.189341 1_666
In0 N3 2.270938 1_656
In0 N2 2.296520 1_555
In0 N11 2.296520 1_555
In1 N12 2.189341 1_666
In1 N5 2.270937 1_566
In1 N9 2.296520 1_555
In1 N4 2.296520 1_555
In2 N12 2.189341 1_666
In2 N8 2.270937 1_665
In2 N0 2.296520 1_555
In2 N7 2.296520 1_555
N0 P3 1.629111 1_655
N0 P2 1.632720 1_555
N1 P5 1.624637 1_555
N1 P3 1.624637 1_555
N1 Zn0 2.088844 1_555
N2 P2 1.629111 1_556
N2 P0 1.632720 1_555
N3 P1 1.626865 1_555
N3 P3 1.626865 1_555
N4 P0 1.629111 1_565
N4 P3 1.632720 1_555
N5 P2 1.626865 1_555
N5 P4 1.626865 1_555
N6 P4 1.624637 1_555
N6 P0 1.624637 1_555
N6 Zn0 2.088844 1_555
N7 P4 1.629111 1_565
N7 P1 1.632720 1_555
N8 P0 1.626865 1_555
N8 P5 1.626865 1_555
N9 P1 1.629111 1_556
N9 P5 1.632720 1_555
N10 P2 1.624637 1_555
N10 P1 1.624637 1_555
N10 Zn0 2.088843 1_555
N11 P5 1.629110 1_655
N11 P4 1.632720 1_555
N12 Zn0 1.957850 1_555
