# generated using pymatgen
data_CsNiAs2Ru
_symmetry_space_group_name_H-M   'P 1'
_cell_length_a   8.05391713
_cell_length_b   8.05391660
_cell_length_c   8.05391621
_cell_angle_alpha   151.96104538
_cell_angle_beta   151.96104320
_cell_angle_gamma   40.07019528
_symmetry_Int_Tables_number   1
_chemical_formula_structural   CsNiAs2Ru
_chemical_formula_sum   'Cs1 Ni1 As2 Ru1'
_cell_volume   115.21368707
_cell_formula_units_Z   1
loop_
 _symmetry_equiv_pos_site_id
 _symmetry_equiv_pos_as_xyz
  1  'x, y, z'
loop_
 _atom_site_type_symbol
 _atom_site_label
 _atom_site_symmetry_multiplicity
 _atom_site_fract_x
 _atom_site_fract_y
 _atom_site_fract_z
 _atom_site_occupancy
  Cs  Cs0  1  0.00000000  0.00000000  0.00000000  1
  Ni  Ni0  1  0.75000000  0.25000000  0.50000000  1
  As  As0  1  0.34013801  0.34013801  0.00000000  1
  As  As1  1  0.65986199  0.65986199  1.00000000  1
  Ru  Ru0  1  0.25000000  0.75000000  0.50000000  1
loop_
_geom_bond_atom_site_label_1
_geom_bond_atom_site_label_2
_geom_bond_distance
_geom_bond_site_symmetry_2
Ni0 Ru0 2.759237 1_656
Ni0 Ru0 2.759237 1_544
Ni0 Ru0 2.759237 1_645
Ni0 Ru0 2.759237 1_555
As0 Ru0 2.380621 1_555
As0 Ni0 2.380621 1_555
As0 Ru0 2.380621 1_544
As0 Ni0 2.380622 1_454
As0 Cs0 3.669591 1_554
As0 Cs0 3.669592 1_565
As0 Cs0 3.669592 1_666
As0 Cs0 3.669592 1_655
As1 Ni0 2.380621 1_555
As1 Ru0 2.380621 1_555
As1 Ni0 2.380621 1_566
As1 Ru0 2.380622 1_656
As1 Cs0 3.669591 1_667
As1 Cs0 3.669592 1_656
As1 Cs0 3.669592 1_555
As1 Cs0 3.669592 1_566
