# generated using pymatgen
data_KRb3F12
_symmetry_space_group_name_H-M   'P 1'
_cell_length_a   6.92065808
_cell_length_b   4.41340566
_cell_length_c   9.14787994
_cell_angle_alpha   89.82000315
_cell_angle_beta   90.52055155
_cell_angle_gamma   89.90585235
_symmetry_Int_Tables_number   1
_chemical_formula_structural   KRb3F12
_chemical_formula_sum   'K1 Rb3 F12'
_cell_volume   279.39653962
_cell_formula_units_Z   1
loop_
 _symmetry_equiv_pos_site_id
 _symmetry_equiv_pos_as_xyz
  1  'x, y, z'
loop_
 _atom_site_type_symbol
 _atom_site_label
 _atom_site_symmetry_multiplicity
 _atom_site_fract_x
 _atom_site_fract_y
 _atom_site_fract_z
 _atom_site_occupancy
  K  K0  1  0.23086764  0.14288279  0.38119186  1
  Rb  Rb0  1  0.27244294  0.37910181  0.88143478  1
  Rb  Rb1  1  0.72682356  0.86744059  0.61402887  1
  Rb  Rb2  1  0.77836305  0.63703009  0.12018674  1
  F  F0  1  0.04353156  0.10671797  0.10260759  1
  F  F1  1  0.45999795  0.40393628  0.58322356  1
  F  F2  1  0.52973768  0.90094172  0.90899960  1
  F  F3  1  0.96776854  0.56905952  0.41247619  1
  F  F4  1  0.61672022  0.04753621  0.32642964  1
  F  F5  1  0.86767288  0.44436429  0.83020299  1
  F  F6  1  0.13221395  0.96712043  0.65734190  1
  F  F7  1  0.37339435  0.54345824  0.17955046  1
  F  F8  1  0.21093621  0.81501450  0.13668343  1
  F  F9  1  0.29562123  0.69381838  0.61500208  1
  F  F10  1  0.70010304  0.18112974  0.87595220  1
  F  F11  1  0.79138018  0.30044743  0.37468712  1
loop_
_geom_bond_atom_site_label_1
_geom_bond_atom_site_label_2
_geom_bond_distance
_geom_bond_site_symmetry_2
F0 F8 1.755801 1_545
F0 Rb2 2.776037 1_445
F0 Rb0 2.845645 1_554
F0 K0 2.853802 1_555
F0 Rb2 2.977427 1_455
F1 F9 1.737520 1_555
F1 K0 2.687712 1_555
F1 Rb1 2.771384 1_555
F1 Rb1 3.011264 1_545
F1 Rb0 3.033438 1_555
F2 Rb0 2.768370 1_565
F2 Rb2 2.822844 1_556
F2 Rb0 2.923609 1_555
F2 Rb1 3.038438 1_555
F3 K0 2.633748 1_655
F3 Rb1 2.824560 1_555
F3 Rb2 2.981201 1_555
F3 K0 3.135440 1_665
F4 K0 2.753318 1_555
F4 Rb1 2.842989 1_545
F4 Rb2 2.854216 1_545
F5 Rb0 2.849981 1_655
F5 Rb2 2.860823 1_556
F5 Rb1 2.878033 1_555
F6 F9 1.700068 1_555
F6 K0 2.733178 1_565
F6 Rb1 2.864733 1_455
F6 Rb0 2.905734 1_565
F7 F8 1.684888 1_555
F7 K0 2.742123 1_555
F7 Rb2 2.889697 1_555
F7 Rb0 2.903613 1_554
F8 K0 2.670439 1_565
F8 Rb0 3.062380 1_554
F8 Rb2 3.098751 1_455
F9 Rb0 2.807480 1_555
F9 K0 2.942202 1_565
F9 Rb1 3.082316 1_555
F10 F5 1.697032 1_555
F10 F2 1.737696 1_545
F10 Rb1 2.778478 1_545
F10 Rb2 3.056697 1_556
F10 Rb0 3.085475 1_555
F10 Rb2 3.315350 1_546
F11 F4 1.702857 1_555
F11 F3 1.736297 1_555
F11 Rb2 2.758442 1_555
F11 Rb1 2.939342 1_545
F11 K0 3.118910 1_655
