# generated using pymatgen
data_Cs6InTe4Cl
_symmetry_space_group_name_H-M   'P 1'
_cell_length_a   12.12059003
_cell_length_b   12.12059043
_cell_length_c   8.91550174
_cell_angle_alpha   90.00000000
_cell_angle_beta   90.00000000
_cell_angle_gamma   120.00000424
_symmetry_Int_Tables_number   1
_chemical_formula_structural   Cs6InTe4Cl
_chemical_formula_sum   'Cs12 In2 Te8 Cl2'
_cell_volume   1134.28957396
_cell_formula_units_Z   2
loop_
 _symmetry_equiv_pos_site_id
 _symmetry_equiv_pos_as_xyz
  1  'x, y, z'
loop_
 _atom_site_type_symbol
 _atom_site_label
 _atom_site_symmetry_multiplicity
 _atom_site_fract_x
 _atom_site_fract_y
 _atom_site_fract_z
 _atom_site_occupancy
  Cs  Cs0  1  0.12773522  0.87226478  0.51423808  1
  Cs  Cs1  1  0.74452857  0.87226478  0.51423808  1
  Cs  Cs2  1  0.95271884  0.47635942  0.31878227  1
  Cs  Cs3  1  0.52364058  0.47635942  0.31878227  1
  Cs  Cs4  1  0.87226478  0.74452857  0.01423808  1
  Cs  Cs5  1  0.25547143  0.12773522  0.01423808  1
  Cs  Cs6  1  0.52364058  0.04728116  0.31878227  1
  Cs  Cs7  1  0.12773522  0.25547143  0.51423808  1
  Cs  Cs8  1  0.87226478  0.12773522  0.01423808  1
  Cs  Cs9  1  0.04728116  0.52364058  0.81878227  1
  Cs  Cs10  1  0.47635942  0.95271884  0.81878227  1
  Cs  Cs11  1  0.47635942  0.52364058  0.81878227  1
  In  In0  1  0.66666700  0.33333300  0.71012325  1
  In  In1  1  0.33333300  0.66666700  0.21012325  1
  Te  Te0  1  0.41082518  0.20541359  0.61087835  1
  Te  Te1  1  0.58917482  0.79458641  0.11087835  1
  Te  Te2  1  0.66666700  0.33333300  0.02827198  1
  Te  Te3  1  0.79458641  0.58917482  0.61087835  1
  Te  Te4  1  0.20541359  0.41082518  0.11087835  1
  Te  Te5  1  0.33333300  0.66666700  0.52827198  1
  Te  Te6  1  0.20541359  0.79458641  0.11087835  1
  Te  Te7  1  0.79458641  0.20541359  0.61087835  1
  Cl  Cl0  1  0.00000000  0.00000000  0.27051166  1
  Cl  Cl1  1  0.00000000  0.00000000  0.77051166  1
loop_
_geom_bond_atom_site_label_1
_geom_bond_atom_site_label_2
_geom_bond_distance
_geom_bond_site_symmetry_2
Cs0 Te3 3.868540 1_455
Cs0 Te0 3.868540 1_565
Cs0 Te6 3.948625 1_555
Cs0 Te5 4.318026 1_555
Cs1 Te3 3.868533 1_555
Cs1 Te7 3.868545 1_565
Cs1 Te1 3.948612 1_555
Cs1 Te5 4.318025 1_555
Cs2 Te7 3.865981 1_555
Cs2 Te3 3.865995 1_555
Cs2 Te2 3.965351 1_555
Cs2 Te6 3.984993 1_655
Cs2 Te4 3.985007 1_655
Cs2 Te5 4.410216 1_655
Cs3 Te3 3.865979 1_555
Cs3 Te0 3.865979 1_555
Cs3 Te2 3.965359 1_555
Cs3 Te4 3.984986 1_555
Cs3 Te1 3.984986 1_555
Cs3 Te5 4.410226 1_555
Cs4 Te1 3.868533 1_555
Cs4 Te6 3.868545 1_655
Cs4 Te3 3.948612 1_554
Cs4 Te2 4.318026 1_555
Cs5 Te4 3.868533 1_555
Cs5 Te6 3.868545 1_545
Cs5 Te0 3.948612 1_554
Cs5 Te2 4.318025 1_555
Cs6 Te7 3.865981 1_555
Cs6 Te0 3.865995 1_555
Cs6 Te2 3.965351 1_555
Cs6 Te6 3.984993 1_545
Cs6 Te1 3.985007 1_545
Cs6 Te5 4.410216 1_545
Cs7 Te0 3.868533 1_555
Cs7 Te7 3.868545 1_455
Cs7 Te4 3.948612 1_555
Cs7 Te5 4.318026 1_555
Cs8 Te4 3.868540 1_655
Cs8 Te1 3.868540 1_545
Cs8 Te7 3.948625 1_554
Cs8 Te2 4.318026 1_555
Cs9 Te6 3.865981 1_556
Cs9 Te4 3.865995 1_556
Cs9 Te5 3.965351 1_555
Cs9 Te7 3.984993 1_455
Cs9 Te3 3.985007 1_455
Cs9 Te2 4.410216 1_456
Cs10 Te6 3.865981 1_556
Cs10 Te1 3.865995 1_556
Cs10 Te5 3.965351 1_555
Cs10 Te7 3.984993 1_565
Cs10 Te0 3.985007 1_565
Cs10 Te2 4.410216 1_566
Cs11 Te4 3.865979 1_556
Cs11 Te1 3.865979 1_556
Cs11 Te5 3.965359 1_555
Cs11 Te3 3.984986 1_555
Cs11 Te0 3.984986 1_555
Cs11 Te2 4.410226 1_556
In0 Te7 2.827485 1_555
In0 Te0 2.827514 1_555
In0 Te3 2.827515 1_555
In0 Te2 2.836456 1_556
In1 Te6 2.827485 1_555
In1 Te1 2.827514 1_555
In1 Te4 2.827515 1_555
In1 Te5 2.836456 1_555
Cl0 Cs0 3.451477 1_545
Cl0 Cs1 3.451485 1_445
Cl0 Cs7 3.451485 1_555
Cl0 Cs8 3.522976 1_455
Cl0 Cs5 3.522984 1_555
Cl0 Cs4 3.522984 1_445
Cl1 Cs8 3.451477 1_456
Cl1 Cs5 3.451485 1_556
Cl1 Cs4 3.451485 1_446
Cl1 Cs0 3.522976 1_545
Cl1 Cs1 3.522984 1_445
Cl1 Cs7 3.522984 1_555
