# generated using pymatgen
data_K3Li2SiAs3
_symmetry_space_group_name_H-M   'P 1'
_cell_length_a   9.95743182
_cell_length_b   9.95743288
_cell_length_c   14.88387080
_cell_angle_alpha   90.00000000
_cell_angle_beta   90.00000000
_cell_angle_gamma   143.15220225
_symmetry_Int_Tables_number   1
_chemical_formula_structural   K3Li2SiAs3
_chemical_formula_sum   'K12 Li8 Si4 As12'
_cell_volume   884.99013340
_cell_formula_units_Z   4
loop_
 _symmetry_equiv_pos_site_id
 _symmetry_equiv_pos_as_xyz
  1  'x, y, z'
loop_
 _atom_site_type_symbol
 _atom_site_label
 _atom_site_symmetry_multiplicity
 _atom_site_fract_x
 _atom_site_fract_y
 _atom_site_fract_z
 _atom_site_occupancy
  K  K0  1  0.60568629  0.94231835  0.83055248  1
  K  K1  1  0.27723481  0.27723481  0.32444802  1
  K  K2  1  0.22276519  0.22276519  0.82444802  1
  K  K3  1  0.72276519  0.72276519  0.67555198  1
  K  K4  1  0.44231835  0.10568629  0.66944752  1
  K  K5  1  0.89431371  0.55768165  0.33055248  1
  K  K6  1  0.05768165  0.39431371  0.16944752  1
  K  K7  1  0.39431371  0.05768165  0.16944752  1
  K  K8  1  0.55768165  0.89431371  0.33055248  1
  K  K9  1  0.10568629  0.44231835  0.66944752  1
  K  K10  1  0.94231835  0.60568629  0.83055248  1
  K  K11  1  0.77723481  0.77723481  0.17555198  1
  Li  Li0  1  0.08142240  0.91857760  0.00000000  1
  Li  Li1  1  0.58142240  0.41857760  0.50000000  1
  Li  Li2  1  0.91857760  0.08142240  0.00000000  1
  Li  Li3  1  0.75280104  0.24719896  0.00000000  1
  Li  Li4  1  0.74719896  0.25280104  0.50000000  1
  Li  Li5  1  0.24719896  0.75280104  0.00000000  1
  Li  Li6  1  0.25280104  0.74719896  0.50000000  1
  Li  Li7  1  0.41857760  0.58142240  0.50000000  1
  Si  Si0  1  0.08845935  0.91154065  0.50000000  1
  Si  Si1  1  0.41154065  0.58845935  0.00000000  1
  Si  Si2  1  0.91154065  0.08845935  0.50000000  1
  Si  Si3  1  0.58845935  0.41154065  0.00000000  1
  As  As0  1  0.06418137  0.38262592  0.40801368  1
  As  As1  1  0.88262592  0.56418137  0.09198632  1
  As  As2  1  0.43581863  0.11737408  0.90801368  1
  As  As3  1  0.61737408  0.93581863  0.59198632  1
  As  As4  1  0.93581863  0.61737408  0.59198632  1
  As  As5  1  0.11737408  0.43581863  0.90801368  1
  As  As6  1  0.56418137  0.88262592  0.09198632  1
  As  As7  1  0.38262592  0.06418137  0.40801368  1
  As  As8  1  0.20550084  0.20550084  0.58414027  1
  As  As9  1  0.70550084  0.70550084  0.91585973  1
  As  As10  1  0.29449916  0.29449916  0.08414027  1
  As  As11  1  0.79449916  0.79449916  0.41585973  1
loop_
_geom_bond_atom_site_label_1
_geom_bond_atom_site_label_2
_geom_bond_distance
_geom_bond_site_symmetry_2
K0 Li3 3.256581 1_566
K0 Li2 3.328572 1_566
K0 Si1 3.407541 1_556
K0 Li5 3.447154 1_556
K4 Li4 3.256581 1_555
K4 Li1 3.328573 1_555
K4 Si0 3.407541 1_545
K4 Li6 3.447154 1_545
K5 Li4 3.256581 1_555
K5 Li1 3.328572 1_555
K5 Si0 3.407541 1_655
K5 Li6 3.447154 1_655
K6 Li3 3.256581 1_455
K6 Li2 3.328573 1_455
K6 Si1 3.407541 1_555
K6 Li5 3.447154 1_555
K7 Li5 3.256581 1_545
K7 Li0 3.328572 1_545
K7 Si3 3.407541 1_555
K7 Li3 3.447154 1_555
K8 Li6 3.256581 1_555
K8 Li7 3.328573 1_555
K8 Si2 3.407541 1_565
K8 Li4 3.447154 1_565
K9 Li6 3.256581 1_555
K9 Li7 3.328572 1_555
K9 Si2 3.407541 1_455
K9 Li4 3.447154 1_455
K10 Li5 3.256581 1_656
K10 Li0 3.328573 1_656
K10 Si3 3.407541 1_556
K10 Li3 3.447154 1_556
As0 Si2 2.374692 1_455
As0 Li4 2.641538 1_455
As0 Li7 2.658188 1_555
As0 Li6 2.769157 1_555
As0 K1 3.272925 1_555
As0 K8 3.340634 1_445
As0 K8 3.371254 1_555
As0 K5 3.456500 1_455
As0 K6 3.554980 1_555
As1 Si3 2.374692 1_555
As1 Li3 2.641538 1_555
As1 Li0 2.658188 1_655
As1 Li5 2.769157 1_655
As1 K11 3.272925 1_555
As1 K7 3.340634 1_555
As1 K7 3.371254 1_665
As1 K6 3.456500 1_655
As1 K5 3.554980 1_555
As2 Si3 2.374692 1_556
As2 Li3 2.641538 1_556
As2 Li0 2.658188 1_546
As2 Li5 2.769157 1_546
As2 K2 3.272925 1_555
As2 K10 3.340634 1_555
As2 K10 3.371254 1_445
As2 K0 3.456500 1_545
As2 K4 3.554980 1_555
As3 Si2 2.374692 1_565
As3 Li4 2.641538 1_565
As3 Li7 2.658188 1_555
As3 Li6 2.769157 1_555
As3 K3 3.272925 1_555
As3 K9 3.340634 1_665
As3 K9 3.371254 1_555
As3 K4 3.456500 1_565
As3 K0 3.554980 1_555
As4 Si0 2.374692 1_655
As4 Li6 2.641538 1_655
As4 Li1 2.658188 1_555
As4 Li4 2.769157 1_555
As4 K3 3.272925 1_555
As4 K4 3.340634 1_665
As4 K4 3.371254 1_555
As4 K9 3.456500 1_655
As4 K10 3.554980 1_555
As5 Si1 2.374692 1_556
As5 Li5 2.641538 1_556
As5 Li2 2.658188 1_456
As5 Li3 2.769157 1_456
As5 K2 3.272925 1_555
As5 K0 3.340634 1_555
As5 K0 3.371254 1_445
As5 K10 3.456500 1_455
As5 K9 3.554980 1_555
As6 Si1 2.374692 1_555
As6 Li5 2.641538 1_555
As6 Li2 2.658188 1_565
As6 Li3 2.769157 1_565
As6 K11 3.272925 1_555
As6 K6 3.340634 1_555
As6 K6 3.371254 1_665
As6 K7 3.456500 1_565
As6 K8 3.554980 1_555
As7 Si0 2.374692 1_545
As7 Li6 2.641538 1_545
As7 Li1 2.658188 1_555
As7 Li4 2.769157 1_555
As7 K1 3.272925 1_555
As7 K5 3.340634 1_445
As7 K5 3.371254 1_555
As7 K8 3.456500 1_545
As7 K7 3.554980 1_555
As8 Si2 2.456567 1_455
As8 Si0 2.456567 1_545
As8 Li1 2.714915 1_555
As8 Li7 2.714915 1_555
As8 K3 3.329053 1_445
As8 K4 3.451317 1_555
As8 K9 3.451317 1_555
As8 K3 3.528516 1_555
As8 K2 3.578360 1_555
As9 Si1 2.456567 1_556
As9 Si3 2.456567 1_556
As9 Li0 2.714915 1_656
As9 Li2 2.714915 1_566
As9 K2 3.329053 1_555
As9 K10 3.451317 1_555
As9 K0 3.451317 1_555
As9 K2 3.528516 1_665
As9 K3 3.578360 1_555
As10 Si3 2.456567 1_555
As10 Si1 2.456567 1_555
As10 Li2 2.714915 1_455
As10 Li0 2.714915 1_545
As10 K11 3.329053 1_555
As10 K6 3.451317 1_555
As10 K7 3.451317 1_555
As10 K11 3.528516 1_445
As10 K1 3.578360 1_555
As11 Si0 2.456567 1_655
As11 Si2 2.456567 1_565
As11 Li7 2.714915 1_555
As11 Li1 2.714915 1_555
As11 K1 3.329053 1_665
As11 K8 3.451317 1_555
As11 K5 3.451317 1_555
As11 K1 3.528516 1_555
As11 K11 3.578360 1_555
