# generated using pymatgen
data_Na2PdF4
_symmetry_space_group_name_H-M   'P 1'
_cell_length_a   3.36994689
_cell_length_b   5.56584416
_cell_length_c   9.90362745
_cell_angle_alpha   90.00000000
_cell_angle_beta   93.89230873
_cell_angle_gamma   90.00000000
_symmetry_Int_Tables_number   1
_chemical_formula_structural   Na2PdF4
_chemical_formula_sum   'Na4 Pd2 F8'
_cell_volume   185.32990058
_cell_formula_units_Z   2
loop_
 _symmetry_equiv_pos_site_id
 _symmetry_equiv_pos_as_xyz
  1  'x, y, z'
loop_
 _atom_site_type_symbol
 _atom_site_label
 _atom_site_symmetry_multiplicity
 _atom_site_fract_x
 _atom_site_fract_y
 _atom_site_fract_z
 _atom_site_occupancy
  Na  Na0  1  0.28146231  0.95511042  0.34865338  1
  Na  Na1  1  0.71853769  0.45511042  0.15134662  1
  Na  Na2  1  0.71853769  0.04488958  0.65134662  1
  Na  Na3  1  0.28146231  0.54488958  0.84865338  1
  Pd  Pd0  1  0.00000000  0.50000000  0.50000000  1
  Pd  Pd1  1  0.00000000  0.00000000  -0.00000000  1
  F  F0  1  0.21627548  0.32082518  0.66214913  1
  F  F1  1  0.78372452  0.82082518  0.83785087  1
  F  F2  1  0.78372452  0.67917482  0.33785087  1
  F  F3  1  0.21627548  0.17917482  0.16214913  1
  F  F4  1  0.78578721  0.19216723  0.42598761  1
  F  F5  1  0.21421279  0.69216723  0.07401239  1
  F  F6  1  0.78578721  0.30783277  0.92598761  1
  F  F7  1  0.21421279  0.80783277  0.57401239  1
loop_
_geom_bond_atom_site_label_1
_geom_bond_atom_site_label_2
_geom_bond_distance
_geom_bond_site_symmetry_2
F0 Pd0 1.986361 1_555
F0 Na3 2.227131 1_555
F0 Na2 2.271412 1_455
F0 Na2 2.293391 1_555
F1 Pd1 1.986361 1_666
F1 Na2 2.227131 1_565
F1 Na3 2.271412 1_655
F1 Na3 2.293391 1_555
F2 Pd0 1.986361 1_655
F2 Na1 2.227131 1_555
F2 Na0 2.271412 1_655
F2 Na0 2.293391 1_555
F3 Pd1 1.986361 1_555
F3 Na0 2.227131 1_545
F3 Na1 2.271412 1_455
F3 Na1 2.293391 1_555
F4 Pd0 1.980435 1_655
F4 Na0 2.244817 1_545
F4 Na0 2.300300 1_645
F4 Na2 2.402754 1_555
F5 Pd1 1.980435 1_565
F5 Na1 2.244817 1_555
F5 Na1 2.300300 1_455
F5 Na3 2.402754 1_554
F6 Pd1 1.980435 1_656
F6 Na3 2.244817 1_555
F6 Na3 2.300300 1_655
F6 Na1 2.402754 1_556
F7 Pd0 1.980435 1_555
F7 Na2 2.244817 1_565
F7 Na2 2.300300 1_465
F7 Na0 2.402754 1_555
