# generated using pymatgen
data_Y5CoIrO12
_symmetry_space_group_name_H-M   'P 1'
_cell_length_a   6.77499881
_cell_length_b   6.77500027
_cell_length_c   7.17473459
_cell_angle_alpha   74.48453177
_cell_angle_beta   74.48452722
_cell_angle_gamma   50.77704715
_symmetry_Int_Tables_number   1
_chemical_formula_structural   Y5CoIrO12
_chemical_formula_sum   'Y5 Co1 Ir1 O12'
_cell_volume   243.68480787
_cell_formula_units_Z   1
loop_
 _symmetry_equiv_pos_site_id
 _symmetry_equiv_pos_as_xyz
  1  'x, y, z'
loop_
 _atom_site_type_symbol
 _atom_site_label
 _atom_site_symmetry_multiplicity
 _atom_site_fract_x
 _atom_site_fract_y
 _atom_site_fract_z
 _atom_site_occupancy
  Y  Y0  1  0.68839213  0.69353282  0.66876079  1
  Y  Y1  1  0.68543665  0.70734193  0.14126022  1
  Y  Y2  1  0.00138883  0.99861117  1.00000000  1
  Y  Y3  1  0.29265807  0.31456335  0.85873978  1
  Y  Y4  1  0.30646718  0.31160787  0.33123921  1
  Co  Co0  1  0.25314085  0.74685915  0.50000000  1
  Ir  Ir0  1  0.76226513  0.23773487  0.50000000  1
  O  O0  1  0.39923785  0.90903146  0.92373028  1
  O  O1  1  0.57716095  0.09565976  0.58182145  1
  O  O2  1  0.90434024  0.42283905  0.41817855  1
  O  O3  1  0.09096854  0.60076215  0.07626972  1
  O  O4  1  0.01929903  0.98220263  0.32243595  1
  O  O5  1  0.49280592  0.50610845  0.68111983  1
  O  O6  1  0.89685897  0.40406495  0.92660330  1
  O  O7  1  0.10115723  0.57920155  0.57937557  1
  O  O8  1  0.42079845  0.89884277  0.42062443  1
  O  O9  1  0.59593505  0.10314103  0.07339670  1
  O  O10  1  0.49389155  0.50719408  0.31888017  1
  O  O11  1  0.01779737  0.98070097  0.67756405  1
loop_
_geom_bond_atom_site_label_1
_geom_bond_atom_site_label_2
_geom_bond_distance
_geom_bond_site_symmetry_2
Co0 O11 1.863771 1_555
Co0 O4 1.863771 1_555
Co0 O8 1.869272 1_555
Co0 O7 1.869272 1_555
Co0 O10 1.905535 1_555
Co0 O5 1.905535 1_555
Ir0 O1 1.916850 1_555
Ir0 O2 1.916850 1_555
Ir0 O4 1.957806 1_645
Ir0 O11 1.957807 1_645
Ir0 O5 2.030858 1_555
Ir0 O10 2.030858 1_555
O0 Y1 2.278154 1_556
O0 Y0 2.282599 1_555
O0 Y2 2.291905 1_555
O0 Y3 2.296347 1_565
O1 Y0 2.263891 1_545
O1 Y4 2.387385 1_555
O1 Y3 2.403031 1_555
O2 Y4 2.263891 1_655
O2 Y0 2.387385 1_555
O2 Y1 2.403032 1_555
O3 Y3 2.278154 1_554
O3 Y4 2.282599 1_555
O3 Y2 2.291905 1_554
O3 Y1 2.296346 1_455
O4 Y2 2.318275 1_554
O5 Y0 2.319697 1_555
O5 Y3 2.358610 1_555
O6 Y3 2.280014 1_655
O6 Y0 2.284090 1_555
O6 Y2 2.299986 1_645
O6 Y1 2.331545 1_556
O7 Y0 2.323448 1_455
O7 Y3 2.332839 1_555
O7 Y4 2.367233 1_555
O8 Y4 2.323449 1_565
O8 Y1 2.332839 1_555
O8 Y0 2.367233 1_555
O9 Y1 2.280014 1_545
O9 Y4 2.284090 1_555
O9 Y2 2.299985 1_644
O9 Y3 2.331545 1_554
O10 Y4 2.319697 1_555
O10 Y1 2.358610 1_555
O11 Y2 2.318275 1_555
