# generated using pymatgen
data_ScZn3NiAg
_symmetry_space_group_name_H-M   'P 1'
_cell_length_a   4.95839694
_cell_length_b   4.95839799
_cell_length_c   4.95839798
_cell_angle_alpha   60.89888681
_cell_angle_beta   60.89886559
_cell_angle_gamma   60.89888046
_symmetry_Int_Tables_number   1
_chemical_formula_structural   ScZn3NiAg
_chemical_formula_sum   'Sc1 Zn3 Ni1 Ag1'
_cell_volume   87.94685413
_cell_formula_units_Z   1
loop_
 _symmetry_equiv_pos_site_id
 _symmetry_equiv_pos_as_xyz
  1  'x, y, z'
loop_
 _atom_site_type_symbol
 _atom_site_label
 _atom_site_symmetry_multiplicity
 _atom_site_fract_x
 _atom_site_fract_y
 _atom_site_fract_z
 _atom_site_occupancy
  Sc  Sc0  1  0.99721043  0.99721043  0.99721043  1
  Zn  Zn0  1  0.62372981  0.62372981  0.12827305  1
  Zn  Zn1  1  0.62372981  0.12827305  0.62372981  1
  Zn  Zn2  1  0.12827305  0.62372981  0.62372981  1
  Ni  Ni0  1  0.62648246  0.62648246  0.62648246  1
  Ag  Ag0  1  0.25057244  0.25057244  0.25057244  1
loop_
_geom_bond_atom_site_label_1
_geom_bond_atom_site_label_2
_geom_bond_distance
_geom_bond_site_symmetry_2
Sc0 Zn0 2.876755 1_556
Sc0 Zn2 2.876755 1_655
Sc0 Zn1 2.876755 1_565
Sc0 Zn1 2.949493 1_665
Sc0 Zn1 2.949494 1_566
Sc0 Zn0 2.949494 1_656
Sc0 Zn0 2.949494 1_566
Sc0 Zn2 2.949494 1_665
Sc0 Zn2 2.949495 1_656
Zn0 Zn2 2.489973 1_555
Zn0 Zn1 2.489974 1_555
Zn0 Zn2 2.535638 1_654
Zn0 Zn1 2.535639 1_564
Zn1 Zn2 2.489973 1_555
Zn1 Zn2 2.535639 1_645
Ni0 Zn2 2.474877 1_655
Ni0 Zn0 2.474878 1_556
Ni0 Zn1 2.474878 1_565
Ni0 Zn2 2.483672 1_555
Ni0 Zn0 2.483673 1_555
Ni0 Zn1 2.483673 1_555
Ni0 Sc0 2.936390 1_455
Ni0 Sc0 2.936390 1_554
Ni0 Sc0 2.936391 1_545
Ag0 Zn0 2.891699 1_555
Ag0 Zn2 2.891699 1_555
Ag0 Zn1 2.891699 1_555
Ag0 Zn1 2.932537 1_455
Ag0 Zn1 2.932537 1_554
Ag0 Zn0 2.932537 1_455
Ag0 Zn0 2.932538 1_545
Ag0 Zn2 2.932538 1_545
Ag0 Zn2 2.932538 1_554
Ag0 Ni0 2.946639 1_455
Ag0 Ni0 2.946640 1_554
Ag0 Ni0 2.946640 1_545
Ag0 Sc0 3.056149 1_444
Ag0 Sc0 3.057689 1_544
Ag0 Sc0 3.057689 1_445
Ag0 Sc0 3.057690 1_454
