# generated using pymatgen
data_Zr3BeN
_symmetry_space_group_name_H-M   'P 1'
_cell_length_a   5.86284937
_cell_length_b   5.86284929
_cell_length_c   8.66840032
_cell_angle_alpha   90.00000000
_cell_angle_beta   90.00000000
_cell_angle_gamma   147.08345950
_symmetry_Int_Tables_number   1
_chemical_formula_structural   Zr3BeN
_chemical_formula_sum   'Zr6 Be2 N2'
_cell_volume   161.91589987
_cell_formula_units_Z   2
loop_
 _symmetry_equiv_pos_site_id
 _symmetry_equiv_pos_as_xyz
  1  'x, y, z'
loop_
 _atom_site_type_symbol
 _atom_site_label
 _atom_site_symmetry_multiplicity
 _atom_site_fract_x
 _atom_site_fract_y
 _atom_site_fract_z
 _atom_site_occupancy
  Zr  Zr0  1  0.62962622  0.37037378  0.94387579  1
  Zr  Zr1  1  0.37037378  0.62962622  0.44387579  1
  Zr  Zr2  1  0.37037378  0.62962622  0.05612421  1
  Zr  Zr3  1  0.62962622  0.37037378  0.55612421  1
  Zr  Zr4  1  0.93918881  0.06081119  0.75000000  1
  Zr  Zr5  1  0.06081119  0.93918881  0.25000000  1
  Be  Be0  1  0.25960526  0.74039474  0.75000000  1
  Be  Be1  1  0.74039474  0.25960526  0.25000000  1
  N  N0  1  0.00000000  0.00000000  0.00000000  1
  N  N1  1  0.00000000  0.00000000  0.50000000  1
loop_
_geom_bond_atom_site_label_1
_geom_bond_atom_site_label_2
_geom_bond_distance
_geom_bond_site_symmetry_2
Be0 Zr4 2.614823 1_455
Be0 Zr4 2.614823 1_565
Be0 Zr0 2.778466 1_565
Be0 Zr3 2.778466 1_565
Be0 Zr0 2.778466 1_455
Be0 Zr3 2.778466 1_455
Be0 Zr2 2.931416 1_556
Be0 Zr1 2.931416 1_555
Be1 Zr5 2.614823 1_655
Be1 Zr5 2.614823 1_545
Be1 Zr1 2.778466 1_545
Be1 Zr2 2.778466 1_545
Be1 Zr1 2.778466 1_655
Be1 Zr2 2.778466 1_655
Be1 Zr3 2.931416 1_555
Be1 Zr0 2.931416 1_554
N0 Zr2 2.262872 1_555
N0 Zr0 2.262872 1_444
N0 Zr2 2.262872 1_445
N0 Zr0 2.262872 1_554
N0 Zr5 2.272434 1_545
N0 Zr4 2.272434 1_454
N1 Zr1 2.262872 1_555
N1 Zr3 2.262872 1_445
N1 Zr3 2.262872 1_555
N1 Zr1 2.262872 1_445
N1 Zr4 2.272434 1_455
N1 Zr5 2.272434 1_545
