# generated using pymatgen
data_Hf3Ta3Sn5
_symmetry_space_group_name_H-M   'P 1'
_cell_length_a   9.55792411
_cell_length_b   9.55792457
_cell_length_c   5.73822421
_cell_angle_alpha   90.00000000
_cell_angle_beta   90.00000000
_cell_angle_gamma   120.00000179
_symmetry_Int_Tables_number   1
_chemical_formula_structural   Hf3Ta3Sn5
_chemical_formula_sum   'Hf6 Ta6 Sn10'
_cell_volume   453.97852971
_cell_formula_units_Z   2
loop_
 _symmetry_equiv_pos_site_id
 _symmetry_equiv_pos_as_xyz
  1  'x, y, z'
loop_
 _atom_site_type_symbol
 _atom_site_label
 _atom_site_symmetry_multiplicity
 _atom_site_fract_x
 _atom_site_fract_y
 _atom_site_fract_z
 _atom_site_occupancy
  Hf  Hf0  1  0.84565030  0.69130060  0.75000000  1
  Hf  Hf1  1  0.15434970  0.84565030  0.25000000  1
  Hf  Hf2  1  0.69130060  0.84565030  0.25000000  1
  Hf  Hf3  1  0.30869940  0.15434970  0.75000000  1
  Hf  Hf4  1  0.84565030  0.15434970  0.75000000  1
  Hf  Hf5  1  0.15434970  0.30869940  0.25000000  1
  Ta  Ta0  1  0.50000000  0.00000000  0.50000000  1
  Ta  Ta1  1  0.50000000  0.50000000  0.00000000  1
  Ta  Ta2  1  0.00000000  0.50000000  0.00000000  1
  Ta  Ta3  1  0.00000000  0.50000000  0.50000000  1
  Ta  Ta4  1  0.50000000  0.00000000  0.00000000  1
  Ta  Ta5  1  0.50000000  0.50000000  0.50000000  1
  Sn  Sn0  1  0.20903238  0.41806376  0.75000000  1
  Sn  Sn1  1  0.79096762  0.20903238  0.25000000  1
  Sn  Sn2  1  0.41806376  0.20903238  0.25000000  1
  Sn  Sn3  1  0.58193624  0.79096762  0.75000000  1
  Sn  Sn4  1  0.20903238  0.79096762  0.75000000  1
  Sn  Sn5  1  0.79096762  0.58193624  0.25000000  1
  Sn  Sn6  1  0.66666700  0.33333300  0.75000000  1
  Sn  Sn7  1  0.33333300  0.66666700  0.25000000  1
  Sn  Sn8  1  0.00000000  0.00000000  0.50000000  1
  Sn  Sn9  1  0.00000000  0.00000000  0.00000000  1
loop_
_geom_bond_atom_site_label_1
_geom_bond_atom_site_label_2
_geom_bond_distance
_geom_bond_site_symmetry_2
Hf0 Sn9 2.930384 1_666
Hf0 Sn8 2.930384 1_665
Hf0 Sn6 2.963043 1_555
Hf0 Sn5 3.008536 1_555
Hf0 Sn5 3.008536 1_556
Hf0 Sn3 3.108342 1_555
Hf0 Sn4 3.108352 1_655
Hf0 Ta5 3.205457 1_555
Hf0 Ta1 3.205457 1_556
Hf0 Ta3 3.205457 1_655
Hf0 Ta2 3.205457 1_656
Hf1 Sn9 2.930384 1_565
Hf1 Sn8 2.930384 1_565
Hf1 Sn7 2.963035 1_555
Hf1 Sn4 3.008538 1_554
Hf1 Sn4 3.008538 1_555
Hf1 Sn5 3.108349 1_455
Hf1 Sn2 3.108349 1_565
Hf1 Ta4 3.205457 1_565
Hf1 Ta0 3.205457 1_565
Hf1 Ta3 3.205457 1_555
Hf1 Ta2 3.205457 1_555
Hf2 Sn9 2.930384 1_665
Hf2 Sn8 2.930384 1_665
Hf2 Sn7 2.963043 1_555
Hf2 Sn3 3.008536 1_554
Hf2 Sn3 3.008536 1_555
Hf2 Sn5 3.108343 1_555
Hf2 Sn1 3.108352 1_565
Hf2 Ta5 3.205457 1_555
Hf2 Ta1 3.205457 1_555
Hf2 Ta0 3.205457 1_565
Hf2 Ta4 3.205457 1_565
Hf3 Sn8 2.930384 1_555
Hf3 Sn9 2.930384 1_556
Hf3 Sn6 2.963043 1_555
Hf3 Sn2 3.008536 1_555
Hf3 Sn2 3.008536 1_556
Hf3 Sn0 3.108343 1_555
Hf3 Sn4 3.108352 1_545
Hf3 Ta1 3.205457 1_556
Hf3 Ta5 3.205457 1_555
Hf3 Ta0 3.205457 1_555
Hf3 Ta4 3.205457 1_556
Hf4 Sn9 2.930384 1_656
Hf4 Sn8 2.930384 1_655
Hf4 Sn6 2.963035 1_555
Hf4 Sn1 3.008538 1_556
Hf4 Sn1 3.008538 1_555
Hf4 Sn0 3.108349 1_655
Hf4 Sn3 3.108349 1_545
Hf4 Ta0 3.205457 1_555
Hf4 Ta4 3.205457 1_556
Hf4 Ta2 3.205457 1_656
Hf4 Ta3 3.205457 1_655
Hf5 Sn8 2.930384 1_555
Hf5 Sn9 2.930384 1_555
Hf5 Sn7 2.963043 1_555
Hf5 Sn0 3.008536 1_555
Hf5 Sn0 3.008536 1_554
Hf5 Sn2 3.108342 1_555
Hf5 Sn1 3.108352 1_455
Hf5 Ta1 3.205457 1_555
Hf5 Ta5 3.205457 1_555
Hf5 Ta2 3.205457 1_555
Hf5 Ta3 3.205457 1_555
Ta0 Ta4 2.869112 1_555
Ta0 Ta4 2.869112 1_556
Ta1 Ta5 2.869112 1_555
Ta1 Ta5 2.869112 1_554
Ta2 Ta3 2.869112 1_555
Ta2 Ta3 2.869112 1_554
Sn0 Ta1 2.868367 1_556
Sn0 Ta5 2.868367 1_555
Sn0 Ta2 2.868375 1_556
Sn0 Ta3 2.868375 1_555
Sn1 Ta4 2.868369 1_555
Sn1 Ta0 2.868369 1_555
Sn1 Ta2 2.868369 1_655
Sn1 Ta3 2.868369 1_655
Sn2 Ta1 2.868367 1_555
Sn2 Ta5 2.868367 1_555
Sn2 Ta0 2.868375 1_555
Sn2 Ta4 2.868375 1_555
Sn3 Ta1 2.868367 1_556
Sn3 Ta5 2.868367 1_555
Sn3 Ta0 2.868375 1_565
Sn3 Ta4 2.868375 1_566
Sn4 Ta4 2.868369 1_566
Sn4 Ta0 2.868369 1_565
Sn4 Ta3 2.868369 1_555
Sn4 Ta2 2.868369 1_556
Sn5 Ta5 2.868367 1_555
Sn5 Ta1 2.868367 1_555
Sn5 Ta2 2.868375 1_655
Sn5 Ta3 2.868375 1_655
Sn6 Ta2 3.109785 1_656
Sn6 Ta3 3.109785 1_655
Sn6 Ta0 3.109785 1_555
Sn6 Ta4 3.109785 1_556
Sn6 Ta5 3.109792 1_555
Sn6 Ta1 3.109792 1_556
Sn7 Ta2 3.109785 1_555
Sn7 Ta3 3.109785 1_555
Sn7 Ta0 3.109785 1_565
Sn7 Ta4 3.109785 1_565
Sn7 Ta1 3.109792 1_555
Sn7 Ta5 3.109792 1_555
Sn8 Sn9 2.869112 1_556
Sn8 Sn9 2.869112 1_555
