# generated using pymatgen
data_Lu3Mg3Ge2Au
_symmetry_space_group_name_H-M   'P 1'
_cell_length_a   7.11379594
_cell_length_b   7.11379485
_cell_length_c   4.24117087
_cell_angle_alpha   90.00000000
_cell_angle_beta   90.00000000
_cell_angle_gamma   119.99999601
_symmetry_Int_Tables_number   1
_chemical_formula_structural   Lu3Mg3Ge2Au
_chemical_formula_sum   'Lu3 Mg3 Ge2 Au1'
_cell_volume   185.87421993
_cell_formula_units_Z   1
loop_
 _symmetry_equiv_pos_site_id
 _symmetry_equiv_pos_as_xyz
  1  'x, y, z'
loop_
 _atom_site_type_symbol
 _atom_site_label
 _atom_site_symmetry_multiplicity
 _atom_site_fract_x
 _atom_site_fract_y
 _atom_site_fract_z
 _atom_site_occupancy
  Lu  Lu0  1  0.58277041  1.00000000  0.00000000  1
  Lu  Lu1  1  0.00000000  0.58277041  0.00000000  1
  Lu  Lu2  1  0.41722959  0.41722959  0.00000000  1
  Mg  Mg0  1  0.24499524  0.00000000  0.50000000  1
  Mg  Mg1  1  1.00000000  0.24499524  0.50000000  1
  Mg  Mg2  1  0.75500476  0.75500476  0.50000000  1
  Ge  Ge0  1  0.33333300  0.66666700  0.50000000  1
  Ge  Ge1  1  0.66666700  0.33333300  0.50000000  1
  Au  Au0  1  0.00000000  0.00000000  0.00000000  1
loop_
_geom_bond_atom_site_label_1
_geom_bond_atom_site_label_2
_geom_bond_distance
_geom_bond_site_symmetry_2
Ge0 Mg0 2.740061 1_565
Ge0 Mg1 2.740066 1_455
Ge0 Mg2 2.740069 1_555
Ge0 Lu1 3.010107 1_556
Ge0 Lu1 3.010107 1_555
Ge0 Lu0 3.010108 1_556
Ge0 Lu0 3.010108 1_555
Ge0 Lu2 3.010112 1_556
Ge0 Lu2 3.010112 1_555
Ge1 Mg1 2.740061 1_555
Ge1 Mg0 2.740066 1_555
Ge1 Mg2 2.740068 1_555
Ge1 Lu0 3.010107 1_546
Ge1 Lu0 3.010107 1_545
Ge1 Lu1 3.010108 1_655
Ge1 Lu1 3.010108 1_656
Ge1 Lu2 3.010112 1_556
Ge1 Lu2 3.010112 1_555
Au0 Mg1 2.744885 1_455
Au0 Mg1 2.744885 1_454
Au0 Mg2 2.744885 1_445
Au0 Mg2 2.744885 1_444
Au0 Mg0 2.744885 1_555
Au0 Mg0 2.744885 1_554
Au0 Lu1 2.968086 1_545
Au0 Lu2 2.968086 1_555
Au0 Lu0 2.968086 1_445
