# generated using pymatgen
data_MgAg2Sn3S8
_symmetry_space_group_name_H-M   'P 1'
_cell_length_a   7.57028701
_cell_length_b   7.57028672
_cell_length_c   7.57028620
_cell_angle_alpha   60.42105174
_cell_angle_beta   60.42105377
_cell_angle_gamma   60.42106021
_symmetry_Int_Tables_number   1
_chemical_formula_structural   MgAg2Sn3S8
_chemical_formula_sum   'Mg1 Ag2 Sn3 S8'
_cell_volume   309.69714443
_cell_formula_units_Z   1
loop_
 _symmetry_equiv_pos_site_id
 _symmetry_equiv_pos_as_xyz
  1  'x, y, z'
loop_
 _atom_site_type_symbol
 _atom_site_label
 _atom_site_symmetry_multiplicity
 _atom_site_fract_x
 _atom_site_fract_y
 _atom_site_fract_z
 _atom_site_occupancy
  Mg  Mg0  1  0.00000000  0.00000000  0.00000000  1
  Ag  Ag0  1  0.38755351  0.38755351  0.38755351  1
  Ag  Ag1  1  0.61244649  0.61244649  0.61244649  1
  Sn  Sn0  1  0.00000000  0.50000000  0.00000000  1
  Sn  Sn1  1  0.00000000  0.00000000  0.50000000  1
  Sn  Sn2  1  0.50000000  0.00000000  0.00000000  1
  S  S0  1  0.75956028  0.21712986  0.75956028  1
  S  S1  1  0.75453686  0.75453686  0.75453686  1
  S  S2  1  0.78287014  0.24043972  0.24043972  1
  S  S3  1  0.24043972  0.24043972  0.78287014  1
  S  S4  1  0.24043972  0.78287014  0.24043972  1
  S  S5  1  0.24546314  0.24546314  0.24546314  1
  S  S6  1  0.21712986  0.75956028  0.75956028  1
  S  S7  1  0.75956028  0.75956028  0.21712986  1
loop_
_geom_bond_atom_site_label_1
_geom_bond_atom_site_label_2
_geom_bond_distance
_geom_bond_site_symmetry_2
Mg0 S3 2.586782 1_554
Mg0 S7 2.586782 1_445
Mg0 S4 2.586783 1_545
Mg0 S0 2.586783 1_454
Mg0 S2 2.586783 1_455
Mg0 S6 2.586783 1_544
Ag0 S3 2.465836 1_555
Ag0 S4 2.465836 1_555
Ag0 S2 2.465836 1_555
Ag0 S5 2.626414 1_555
Ag1 S7 2.465836 1_555
Ag1 S0 2.465836 1_555
Ag1 S6 2.465836 1_555
Ag1 S1 2.626414 1_555
S0 Sn2 2.565135 1_556
S0 Sn1 2.565136 1_655
S1 Sn1 2.637808 1_665
S1 Sn0 2.637808 1_656
S1 Sn2 2.637808 1_566
S2 Sn0 2.565135 1_655
S2 Sn1 2.565136 1_655
S3 Sn2 2.565136 1_556
S3 Sn0 2.565136 1_556
S4 Sn2 2.565135 1_565
S4 Sn1 2.565136 1_565
S5 Sn1 2.637808 1_555
S5 Sn0 2.637808 1_555
S5 Sn2 2.637808 1_555
S6 Sn0 2.565135 1_556
S6 Sn1 2.565136 1_565
S7 Sn2 2.565136 1_565
S7 Sn0 2.565136 1_655
