# generated using pymatgen
data_Ag3Bi(Pt2O7)2
_symmetry_space_group_name_H-M   'P 1'
_cell_length_a   7.09388000
_cell_length_b   7.20956772
_cell_length_c   7.09387889
_cell_angle_alpha   60.52940730
_cell_angle_beta   60.00000072
_cell_angle_gamma   60.52940201
_symmetry_Int_Tables_number   1
_chemical_formula_structural   Ag3Bi(Pt2O7)2
_chemical_formula_sum   'Ag3 Bi1 Pt4 O14'
_cell_volume   258.57770827
_cell_formula_units_Z   1
loop_
 _symmetry_equiv_pos_site_id
 _symmetry_equiv_pos_as_xyz
  1  'x, y, z'
loop_
 _atom_site_type_symbol
 _atom_site_label
 _atom_site_symmetry_multiplicity
 _atom_site_fract_x
 _atom_site_fract_y
 _atom_site_fract_z
 _atom_site_occupancy
  Ag  Ag0  1  0.12500000  0.12500000  0.62500000  1
  Ag  Ag1  1  0.62500000  0.12500000  0.12500000  1
  Ag  Ag2  1  0.12500000  0.12500000  0.12500000  1
  Bi  Bi0  1  0.12500000  0.62500000  0.12500000  1
  Pt  Pt0  1  0.62500000  0.62500000  0.12500000  1
  Pt  Pt1  1  0.62500000  0.12500000  0.62500000  1
  Pt  Pt2  1  0.12500000  0.62500000  0.62500000  1
  Pt  Pt3  1  0.62500000  0.62500000  0.62500000  1
  O  O0  1  0.25332980  0.24001161  0.25332980  1
  O  O1  1  0.99667020  0.00998839  0.99667020  1
  O  O2  1  0.54232304  0.95588566  0.54232304  1
  O  O3  1  0.29032523  0.70192402  0.29032523  1
  O  O4  1  0.53257548  0.54807598  0.95967477  1
  O  O5  1  0.95967477  0.54807598  0.53257548  1
  O  O6  1  0.54232304  0.95588566  0.95946726  1
  O  O7  1  0.95946726  0.95588566  0.54232304  1
  O  O8  1  0.95967477  0.54807598  0.95967477  1
  O  O9  1  0.70767696  0.29411434  0.29053274  1
  O  O10  1  0.29032523  0.70192402  0.71742452  1
  O  O11  1  0.70767696  0.29411434  0.70767696  1
  O  O12  1  0.29053274  0.29411434  0.70767696  1
  O  O13  1  0.71742452  0.70192402  0.29032523  1
loop_
_geom_bond_atom_site_label_1
_geom_bond_atom_site_label_2
_geom_bond_distance
_geom_bond_site_symmetry_2
Ag0 O1 2.158528 1_455
Ag0 O0 2.158528 1_555
Ag0 O2 2.451627 1_545
Ag0 O11 2.451627 1_455
Ag0 O12 2.451633 1_555
Ag0 O7 2.451633 1_445
Ag0 O5 2.527911 1_455
Ag0 O10 2.527911 1_545
Ag1 O1 2.158529 1_554
Ag1 O0 2.158529 1_555
Ag1 O2 2.451627 1_545
Ag1 O11 2.451627 1_554
Ag1 O9 2.451633 1_555
Ag1 O6 2.451633 1_544
Ag1 O4 2.527912 1_554
Ag1 O13 2.527912 1_545
Ag2 O0 2.158534 1_555
Ag2 O1 2.158534 1_454
Ag2 O7 2.451628 1_445
Ag2 O12 2.451628 1_554
Ag2 O6 2.451628 1_544
Ag2 O9 2.451628 1_455
Ag2 O8 2.527911 1_454
Ag2 O3 2.527911 1_545
Bi0 O1 2.284233 1_464
Bi0 O0 2.284233 1_555
Bi0 O3 2.390376 1_555
Bi0 O8 2.390376 1_454
Bi0 O5 2.390382 1_455
Bi0 O10 2.390382 1_554
Bi0 O4 2.390382 1_554
Bi0 O13 2.390382 1_455
O2 Pt1 1.981343 1_565
O2 Pt3 1.992340 1_555
O3 Pt2 1.969676 1_555
O3 Pt0 1.969677 1_555
O4 Pt0 1.969671 1_556
O4 Pt3 1.969677 1_555
O5 Pt2 1.969671 1_655
O5 Pt3 1.969677 1_555
O6 Pt1 1.981337 1_565
O6 Pt0 1.992341 1_556
O7 Pt1 1.981337 1_565
O7 Pt2 1.992341 1_655
O8 Pt2 1.969676 1_655
O8 Pt0 1.969677 1_556
O9 Pt1 1.981337 1_555
O9 Pt0 1.992341 1_555
O10 Pt2 1.969671 1_555
O10 Pt3 1.969677 1_555
O11 Pt1 1.981343 1_555
O11 Pt3 1.992340 1_555
O12 Pt1 1.981337 1_555
O12 Pt2 1.992341 1_555
O13 Pt0 1.969671 1_555
O13 Pt3 1.969677 1_555
