# generated using pymatgen
data_Rb2TcH9
_symmetry_space_group_name_H-M   'P 1'
_cell_length_a   9.92453526
_cell_length_b   9.92453455
_cell_length_c   5.77832292
_cell_angle_alpha   90.00000000
_cell_angle_beta   90.00000000
_cell_angle_gamma   119.99999584
_symmetry_Int_Tables_number   1
_chemical_formula_structural   Rb2TcH9
_chemical_formula_sum   'Rb6 Tc3 H27'
_cell_volume   492.89315371
_cell_formula_units_Z   3
loop_
 _symmetry_equiv_pos_site_id
 _symmetry_equiv_pos_as_xyz
  1  'x, y, z'
loop_
 _atom_site_type_symbol
 _atom_site_label
 _atom_site_symmetry_multiplicity
 _atom_site_fract_x
 _atom_site_fract_y
 _atom_site_fract_z
 _atom_site_occupancy
  Rb  Rb0  1  0.26182619  1.00000000  0.50000000  1
  Rb  Rb1  1  1.00000000  0.26182619  0.50000000  1
  Rb  Rb2  1  0.73817381  0.73817381  0.50000000  1
  Rb  Rb3  1  0.59080367  0.00000000  0.00000000  1
  Rb  Rb4  1  0.00000000  0.59080367  0.00000000  1
  Rb  Rb5  1  0.40919633  0.40919633  0.00000000  1
  Tc  Tc0  1  0.00000000  0.00000000  0.00000000  1
  Tc  Tc1  1  0.33333300  0.66666700  0.50000000  1
  Tc  Tc2  1  0.66666700  0.33333300  0.50000000  1
  H  H0  1  0.87923908  1.00000000  0.20335647  1
  H  H1  1  1.00000000  0.87923908  0.20335647  1
  H  H2  1  0.87923908  1.00000000  0.79664353  1
  H  H3  1  1.00000000  0.87923908  0.79664353  1
  H  H4  1  0.12076092  0.12076092  0.20335647  1
  H  H5  1  0.12076092  0.12076092  0.79664353  1
  H  H6  1  0.16685015  0.00000000  0.00000000  1
  H  H7  1  0.00000000  0.16685015  0.00000000  1
  H  H8  1  0.83314985  0.83314985  0.00000000  1
  H  H9  1  0.22937769  0.53795143  0.29104057  1
  H  H10  1  0.46204857  0.69142626  0.29104057  1
  H  H11  1  0.22937769  0.53795143  0.70895943  1
  H  H12  1  0.53795143  0.22937769  0.70895943  1
  H  H13  1  0.30857374  0.77062231  0.29104057  1
  H  H14  1  0.46204857  0.69142626  0.70895943  1
  H  H15  1  0.69142626  0.46204857  0.70895943  1
  H  H16  1  0.53795143  0.22937769  0.29104057  1
  H  H17  1  0.30857374  0.77062231  0.70895943  1
  H  H18  1  0.69142626  0.46204857  0.29104057  1
  H  H19  1  0.77062231  0.30857374  0.70895943  1
  H  H20  1  0.77062231  0.30857374  0.29104057  1
  H  H21  1  0.36763888  0.51968819  0.50000000  1
  H  H22  1  0.48031181  0.84795169  0.50000000  1
  H  H23  1  0.51968819  0.36763888  0.50000000  1
  H  H24  1  0.15204831  0.63236112  0.50000000  1
  H  H25  1  0.84795169  0.48031181  0.50000000  1
  H  H26  1  0.63236112  0.15204831  0.50000000  1
loop_
_geom_bond_atom_site_label_1
_geom_bond_atom_site_label_2
_geom_bond_distance
_geom_bond_site_symmetry_2
H0 Tc0 1.678439 1_665
H0 Rb1 2.830629 1_565
H0 Rb2 2.830629 1_555
H0 Rb3 3.094377 1_565
H1 Tc0 1.678439 1_665
H1 Rb0 2.830629 1_655
H1 Rb2 2.830629 1_555
H1 Rb4 3.094377 1_655
H2 Tc0 1.678439 1_666
H2 Rb1 2.830629 1_565
H2 Rb2 2.830629 1_555
H2 Rb3 3.094377 1_566
H3 Tc0 1.678439 1_666
H3 Rb0 2.830629 1_655
H3 Rb2 2.830629 1_555
H3 Rb4 3.094377 1_656
H4 Tc0 1.678439 1_555
H4 Rb1 2.830629 1_455
H4 Rb0 2.830629 1_545
H4 Rb5 3.094377 1_555
H5 Tc0 1.678439 1_556
H5 Rb1 2.830629 1_455
H5 Rb0 2.830629 1_545
H5 Rb5 3.094377 1_556
H6 Tc0 1.655910 1_555
H6 Rb0 3.039035 1_544
H6 Rb0 3.039035 1_545
H7 Tc0 1.655910 1_555
H7 Rb1 3.039035 1_454
H7 Rb1 3.039035 1_455
H8 Tc0 1.655910 1_665
H8 Rb2 3.039035 1_555
H8 Rb2 3.039035 1_554
H9 Tc1 1.684112 1_555
H9 Rb1 2.812759 1_455
H9 Rb4 3.078916 1_555
H9 Rb5 3.150613 1_555
H10 Tc1 1.684114 1_555
H10 Rb2 2.812759 1_555
H10 Rb5 3.078916 1_555
H10 Rb3 3.150613 1_565
H11 Tc1 1.684112 1_555
H11 Rb1 2.812759 1_455
H11 Rb4 3.078916 1_556
H11 Rb5 3.150613 1_556
H12 Tc2 1.684112 1_555
H12 Rb0 2.812759 1_545
H12 Rb3 3.078916 1_556
H12 Rb5 3.150613 1_556
H13 Tc1 1.684107 1_555
H13 Rb0 2.812758 1_555
H13 Rb3 3.078916 1_565
H13 Rb4 3.150614 1_555
H14 Tc1 1.684114 1_555
H14 Rb2 2.812759 1_555
H14 Rb5 3.078916 1_556
H14 Rb3 3.150613 1_566
H15 Tc2 1.684114 1_555
H15 Rb2 2.812758 1_555
H15 Rb5 3.078916 1_556
H15 Rb4 3.150614 1_656
H16 Tc2 1.684112 1_555
H16 Rb0 2.812759 1_545
H16 Rb3 3.078916 1_555
H16 Rb5 3.150613 1_555
H17 Tc1 1.684107 1_555
H17 Rb0 2.812758 1_555
H17 Rb3 3.078916 1_566
H17 Rb4 3.150614 1_556
H18 Tc2 1.684114 1_555
H18 Rb2 2.812758 1_555
H18 Rb5 3.078916 1_555
H18 Rb4 3.150614 1_655
H19 Tc2 1.684107 1_555
H19 Rb1 2.812758 1_555
H19 Rb4 3.078916 1_656
H19 Rb3 3.150613 1_556
H20 Tc2 1.684107 1_555
H20 Rb1 2.812758 1_555
H20 Rb4 3.078916 1_655
H20 Rb3 3.150613 1_555
H21 Tc1 1.655402 1_555
H21 Rb5 3.189376 1_556
H21 Rb5 3.189376 1_555
H22 Tc1 1.655402 1_555
H22 Rb3 3.189373 1_566
H22 Rb3 3.189373 1_565
H23 Tc2 1.655402 1_555
H23 Rb5 3.189376 1_555
H23 Rb5 3.189376 1_556
H24 Tc1 1.655402 1_555
H24 Rb4 3.189372 1_556
H24 Rb4 3.189372 1_555
H25 Tc2 1.655402 1_555
H25 Rb4 3.189373 1_656
H25 Rb4 3.189373 1_655
H26 Tc2 1.655402 1_555
H26 Rb3 3.189372 1_556
H26 Rb3 3.189372 1_555
