# generated using pymatgen
data_RbMn3FeO8
_symmetry_space_group_name_H-M   'P 1'
_cell_length_a   7.12438176
_cell_length_b   7.12438211
_cell_length_c   9.89767030
_cell_angle_alpha   46.37218606
_cell_angle_beta   46.37218311
_cell_angle_gamma   23.64726601
_symmetry_Int_Tables_number   1
_chemical_formula_structural   RbMn3FeO8
_chemical_formula_sum   'Rb1 Mn3 Fe1 O8'
_cell_volume   142.92315839
_cell_formula_units_Z   1
loop_
 _symmetry_equiv_pos_site_id
 _symmetry_equiv_pos_as_xyz
  1  'x, y, z'
loop_
 _atom_site_type_symbol
 _atom_site_label
 _atom_site_symmetry_multiplicity
 _atom_site_fract_x
 _atom_site_fract_y
 _atom_site_fract_z
 _atom_site_occupancy
  Rb  Rb0  1  0.99855242  0.99855242  0.00330599  1
  Mn  Mn0  1  0.84811967  0.84811967  0.81578301  1
  Mn  Mn1  1  0.66391907  0.66391907  0.48845192  1
  Mn  Mn2  1  0.32975557  0.32975557  0.51953230  1
  Fe  Fe0  1  0.15011571  0.15011571  0.18575423  1
  O  O0  1  0.33612912  0.33612912  0.70361057  1
  O  O1  1  0.66898294  0.66898294  0.29796600  1
  O  O2  1  0.95083849  0.95083849  0.38229344  1
  O  O3  1  0.04340747  0.04340747  0.62168413  1
  O  O4  1  0.35436417  0.35436417  0.93426592  1
  O  O5  1  0.66137684  0.66137684  0.03474301  1
  O  O6  1  0.70112071  0.70112071  0.64655123  1
  O  O7  1  0.29331381  0.29331381  0.36605926  1
loop_
_geom_bond_atom_site_label_1
_geom_bond_atom_site_label_2
_geom_bond_distance
_geom_bond_site_symmetry_2
Mn0 O5 1.876717 1_556
Mn0 O0 1.911370 1_565
Mn0 O0 1.911370 1_655
Mn0 O4 1.912532 1_655
Mn0 O4 1.912532 1_565
Mn0 O3 1.931773 1_665
Mn1 O1 1.836266 1_555
Mn1 O3 1.889440 1_565
Mn1 O3 1.889441 1_655
Mn1 O7 1.942411 1_655
Mn1 O7 1.942412 1_565
Mn1 O6 1.965313 1_555
Mn2 O0 1.885660 1_555
Mn2 O2 1.895723 1_545
Mn2 O2 1.895724 1_455
Mn2 O7 1.911589 1_555
Mn2 O6 1.936529 1_455
Mn2 O6 1.936530 1_545
Fe0 O1 1.961055 1_545
Fe0 O1 1.961055 1_455
Fe0 O2 1.971284 1_445
Fe0 O5 2.014620 1_545
Fe0 O5 2.014620 1_455
Fe0 O4 2.076909 1_554
O4 Rb0 2.928996 1_546
O4 Rb0 2.928996 1_456
O5 Rb0 2.894924 1_455
O5 Rb0 2.894924 1_545
O6 Rb0 2.918278 1_456
O6 Rb0 2.918278 1_546
O7 Rb0 2.953976 1_545
O7 Rb0 2.953976 1_455
