# generated using pymatgen
data_Li3Y3CdAs2
_symmetry_space_group_name_H-M   'P 1'
_cell_length_a   7.12183816
_cell_length_b   7.12183920
_cell_length_c   4.23769459
_cell_angle_alpha   90.00000000
_cell_angle_beta   90.00000000
_cell_angle_gamma   119.99999518
_symmetry_Int_Tables_number   1
_chemical_formula_structural   Li3Y3CdAs2
_chemical_formula_sum   'Li3 Y3 Cd1 As2'
_cell_volume   186.14208340
_cell_formula_units_Z   1
loop_
 _symmetry_equiv_pos_site_id
 _symmetry_equiv_pos_as_xyz
  1  'x, y, z'
loop_
 _atom_site_type_symbol
 _atom_site_label
 _atom_site_symmetry_multiplicity
 _atom_site_fract_x
 _atom_site_fract_y
 _atom_site_fract_z
 _atom_site_occupancy
  Li  Li0  1  0.25115699  0.00000000  0.50000000  1
  Li  Li1  1  0.74884301  0.74884301  0.50000000  1
  Li  Li2  1  1.00000000  0.25115699  0.50000000  1
  Y  Y0  1  0.00000000  0.57226152  0.00000000  1
  Y  Y1  1  0.57226152  0.00000000  0.00000000  1
  Y  Y2  1  0.42773848  0.42773848  0.00000000  1
  Cd  Cd0  1  0.00000000  0.00000000  0.00000000  1
  As  As0  1  0.33333300  0.66666700  0.50000000  1
  As  As1  1  0.66666700  0.33333300  0.50000000  1
loop_
_geom_bond_atom_site_label_1
_geom_bond_atom_site_label_2
_geom_bond_distance
_geom_bond_site_symmetry_2
Li0 Y1 3.117566 1_555
Li0 Y1 3.117566 1_556
Li0 Y2 3.394101 1_556
Li0 Y2 3.394101 1_555
Li0 Y0 3.394101 1_545
Li0 Y0 3.394101 1_546
Li1 Y2 3.117566 1_556
Li1 Y2 3.117566 1_555
Li1 Y0 3.394101 1_656
Li1 Y0 3.394101 1_655
Li1 Y1 3.394101 1_566
Li1 Y1 3.394101 1_565
Li2 Y0 3.117566 1_656
Li2 Y0 3.117566 1_655
Li2 Y2 3.394101 1_656
Li2 Y2 3.394101 1_655
Li2 Y1 3.394101 1_556
Li2 Y1 3.394101 1_555
Cd0 Li0 2.772897 1_555
Cd0 Li0 2.772897 1_554
Cd0 Li2 2.772897 1_455
Cd0 Li2 2.772897 1_454
Cd0 Li1 2.772897 1_445
Cd0 Li1 2.772897 1_444
Cd0 Y1 3.046284 1_455
Cd0 Y0 3.046285 1_545
Cd0 Y2 3.046285 1_555
As0 Li0 2.714306 1_565
As0 Li2 2.714311 1_455
As0 Li1 2.714313 1_555
As0 Y0 2.996843 1_555
As0 Y0 2.996843 1_556
As0 Y1 2.996844 1_565
As0 Y1 2.996844 1_566
As0 Y2 2.996848 1_555
As0 Y2 2.996848 1_556
As1 Li2 2.714306 1_555
As1 Li0 2.714311 1_555
As1 Li1 2.714313 1_555
As1 Y1 2.996843 1_556
As1 Y1 2.996843 1_555
As1 Y0 2.996844 1_655
As1 Y0 2.996844 1_656
As1 Y2 2.996847 1_556
As1 Y2 2.996847 1_555
