# generated using pymatgen
data_HgBiRu2O7
_symmetry_space_group_name_H-M   'P 1'
_cell_length_a   7.25227223
_cell_length_b   7.25227240
_cell_length_c   7.25227223
_cell_angle_alpha   118.65638909
_cell_angle_beta   121.04576629
_cell_angle_gamma   90.27053122
_symmetry_Int_Tables_number   1
_chemical_formula_structural   HgBiRu2O7
_chemical_formula_sum   'Hg2 Bi2 Ru4 O14'
_cell_volume   270.17415931
_cell_formula_units_Z   2
loop_
 _symmetry_equiv_pos_site_id
 _symmetry_equiv_pos_as_xyz
  1  'x, y, z'
loop_
 _atom_site_type_symbol
 _atom_site_label
 _atom_site_symmetry_multiplicity
 _atom_site_fract_x
 _atom_site_fract_y
 _atom_site_fract_z
 _atom_site_occupancy
  Hg  Hg0  1  0.50000000  0.50000000  0.00000000  1
  Hg  Hg1  1  0.00000000  0.50000000  0.50000000  1
  Bi  Bi0  1  0.50000000  0.50000000  0.50000000  1
  Bi  Bi1  1  0.50000000  0.00000000  0.00000000  1
  Ru  Ru0  1  0.00000000  0.00000000  0.50000000  1
  Ru  Ru1  1  0.00000000  0.50000000  0.00000000  1
  Ru  Ru2  1  0.00000000  0.00000000  0.00000000  1
  Ru  Ru3  1  0.50000000  0.00000000  0.50000000  1
  O  O0  1  0.32323105  0.05821151  0.64277859  1
  O  O1  1  0.91543192  0.05821151  0.23498046  1
  O  O2  1  0.93010642  0.68010642  0.25000000  1
  O  O3  1  0.91543192  0.68045146  0.85722141  1
  O  O4  1  0.32323105  0.68045146  0.26501954  1
  O  O5  1  0.33019464  0.08019464  0.25000000  1
  O  O6  1  0.67676895  0.94178849  0.35722141  1
  O  O7  1  0.08456808  0.94178849  0.76501954  1
  O  O8  1  0.06989358  0.31989358  0.75000000  1
  O  O9  1  0.08456808  0.31954854  0.14277859  1
  O  O10  1  0.67676895  0.31954854  0.73498046  1
  O  O11  1  0.66980536  0.91980536  0.75000000  1
  O  O12  1  0.63375167  0.38375167  0.25000000  1
  O  O13  1  0.36624833  0.61624833  0.75000000  1
loop_
_geom_bond_atom_site_label_1
_geom_bond_atom_site_label_2
_geom_bond_distance
_geom_bond_site_symmetry_2
Hg0 O13 2.144447 1_554
Hg0 O12 2.144447 1_555
Hg0 O2 2.565142 1_555
Hg0 O8 2.565142 1_554
Hg0 O10 2.682352 1_554
Hg0 O4 2.682352 1_555
Hg0 O6 2.682354 1_555
Hg0 O0 2.682354 1_554
Hg1 O13 2.144447 1_555
Hg1 O12 2.144447 1_455
Hg1 O2 2.565142 1_455
Hg1 O8 2.565142 1_555
Hg1 O7 2.682353 1_555
Hg1 O1 2.682353 1_455
Hg1 O3 2.682359 1_455
Hg1 O9 2.682359 1_555
Bi0 O12 2.300990 1_555
Bi0 O13 2.300990 1_555
Bi0 O10 2.482274 1_555
Bi0 O4 2.482274 1_555
Bi0 O3 2.482275 1_555
Bi0 O9 2.482275 1_555
Bi0 O11 2.537787 1_555
Bi0 O5 2.537787 1_555
Bi1 O12 2.300990 1_555
Bi1 O13 2.300990 1_544
Bi1 O7 2.482274 1_544
Bi1 O1 2.482274 1_555
Bi1 O6 2.482280 1_545
Bi1 O0 2.482280 1_554
Bi1 O11 2.537787 1_544
Bi1 O5 2.537787 1_555
O0 Ru0 1.952757 1_555
O0 Ru3 1.961866 1_555
O1 Ru0 1.952756 1_655
O1 Ru2 1.961872 1_655
O2 Ru1 1.983197 1_655
O2 Ru0 1.983197 1_665
O3 Ru1 1.952751 1_656
O3 Ru2 1.961873 1_666
O4 Ru1 1.952756 1_555
O4 Ru3 1.961872 1_565
O5 Ru3 1.963964 1_555
O5 Ru2 1.963964 1_555
O6 Ru0 1.952757 1_665
O6 Ru3 1.961866 1_565
O7 Ru0 1.952756 1_565
O7 Ru2 1.961872 1_566
O8 Ru1 1.983197 1_556
O8 Ru0 1.983197 1_555
O9 Ru1 1.952751 1_555
O9 Ru2 1.961873 1_555
O10 Ru1 1.952756 1_656
O10 Ru3 1.961872 1_555
O11 Ru3 1.963964 1_565
O11 Ru2 1.963964 1_666
