# generated using pymatgen
data_Sm2Te4O11
_symmetry_space_group_name_H-M   'P 1'
_cell_length_a   6.78496314
_cell_length_b   6.78496314
_cell_length_c   16.25884552
_cell_angle_alpha   75.59757158
_cell_angle_beta   75.59757158
_cell_angle_gamma   45.01150087
_symmetry_Int_Tables_number   1
_chemical_formula_structural   Sm2Te4O11
_chemical_formula_sum   'Sm4 Te8 O22'
_cell_volume   509.81975534
_cell_formula_units_Z   2
loop_
 _symmetry_equiv_pos_site_id
 _symmetry_equiv_pos_as_xyz
  1  'x, y, z'
loop_
 _atom_site_type_symbol
 _atom_site_label
 _atom_site_symmetry_multiplicity
 _atom_site_fract_x
 _atom_site_fract_y
 _atom_site_fract_z
 _atom_site_occupancy
  Sm  Sm0  1  0.12848511  0.63538105  0.03700442  1
  Sm  Sm1  1  0.36461895  0.87151489  0.46299558  1
  Sm  Sm2  1  0.87151489  0.36461895  0.96299558  1
  Sm  Sm3  1  0.63538105  0.12848511  0.53700442  1
  Te  Te0  1  0.91048454  0.34880342  0.62728289  1
  Te  Te1  1  0.65119658  0.08951546  0.87271711  1
  Te  Te2  1  0.08951546  0.65119658  0.37271711  1
  Te  Te3  1  0.34880342  0.91048454  0.12728289  1
  Te  Te4  1  0.10234186  0.65654989  0.70047176  1
  Te  Te5  1  0.34345011  0.89765814  0.79952824  1
  Te  Te6  1  0.89765814  0.34345011  0.29952824  1
  Te  Te7  1  0.65654989  0.10234186  0.20047176  1
  O  O0  1  0.34867313  0.65132687  0.75000000  1
  O  O1  1  0.65132687  0.34867313  0.25000000  1
  O  O2  1  0.68860908  0.45490938  0.54619969  1
  O  O3  1  0.54509062  0.31139092  0.95380031  1
  O  O4  1  0.31139092  0.54509062  0.45380031  1
  O  O5  1  0.45490938  0.68860908  0.04619969  1
  O  O6  1  0.69981675  0.59333133  0.83016225  1
  O  O7  1  0.40666867  0.30018325  0.66983775  1
  O  O8  1  0.30018325  0.40666867  0.16983775  1
  O  O9  1  0.59333133  0.69981675  0.33016225  1
  O  O10  1  0.81913992  0.68544991  0.62753219  1
  O  O11  1  0.31455009  0.18086008  0.87246781  1
  O  O12  1  0.88641634  0.06447630  0.09874097  1
  O  O13  1  0.93552370  0.11358366  0.40125903  1
  O  O14  1  0.11358366  0.93552370  0.90125903  1
  O  O15  1  0.06447630  0.88641634  0.59874097  1
  O  O16  1  0.75127950  0.83337661  0.44425913  1
  O  O17  1  0.16662339  0.24872050  0.05574087  1
  O  O18  1  0.24872050  0.16662339  0.55574087  1
  O  O19  1  0.83337661  0.75127950  0.94425913  1
  O  O20  1  0.68544991  0.81913992  0.12753219  1
  O  O21  1  0.18086008  0.31455009  0.37246781  1
loop_
_geom_bond_atom_site_label_1
_geom_bond_atom_site_label_2
_geom_bond_distance
_geom_bond_site_symmetry_2
O0 Te5 2.003675 1_555
O0 Te4 2.003675 1_555
O1 Te6 2.003675 1_555
O1 Te7 2.003675 1_555
O2 Te0 1.872238 1_555
O2 Sm1 2.333183 1_555
O2 Sm3 2.525975 1_555
O3 Te1 1.872238 1_555
O3 Sm0 2.333183 1_556
O3 Sm2 2.525975 1_555
O4 Te2 1.872238 1_555
O4 Sm3 2.333183 1_555
O4 Sm1 2.525975 1_555
O5 Te3 1.872238 1_555
O5 Sm2 2.333183 1_554
O5 Sm0 2.525975 1_555
O6 Te5 1.840186 1_555
O6 Sm2 2.336216 1_555
O7 Te4 1.840186 1_555
O7 Sm3 2.336216 1_555
O8 Te7 1.840186 1_555
O8 Sm0 2.336216 1_555
O9 Te6 1.840186 1_555
O9 Sm1 2.336216 1_555
O10 Te0 1.898195 1_555
O10 Te4 2.371124 1_655
O10 Sm3 2.483860 1_565
O11 Te1 1.898195 1_555
O11 Te5 2.371124 1_545
O11 Sm2 2.483860 1_455
O12 Te7 1.896264 1_555
O12 Sm0 2.460469 1_645
O12 Sm2 2.571479 1_554
O12 Te3 2.645343 1_645
O13 Te6 1.896264 1_555
O13 Sm1 2.460469 1_645
O13 Sm3 2.571479 1_555
O13 Te2 2.645343 1_645
O14 Te5 1.896264 1_555
O14 Sm2 2.460469 1_465
O14 Sm0 2.571479 1_556
O14 Te1 2.645343 1_465
O15 Te4 1.896264 1_555
O15 Sm3 2.460469 1_465
O15 Sm1 2.571479 1_555
O15 Te0 2.645343 1_465
O16 Te2 1.877224 1_655
O16 Sm3 2.363739 1_565
O16 Sm1 2.392523 1_555
O17 Te3 1.877224 1_545
O17 Sm2 2.363739 1_454
O17 Sm0 2.392523 1_555
O18 Te0 1.877224 1_455
O18 Sm1 2.363739 1_545
O18 Sm3 2.392523 1_555
O19 Te1 1.877224 1_565
O19 Sm0 2.363739 1_656
O19 Sm2 2.392523 1_555
O20 Te3 1.898195 1_555
O20 Te7 2.371124 1_565
O20 Sm0 2.483860 1_655
O21 Te2 1.898195 1_555
O21 Te6 2.371124 1_455
O21 Sm1 2.483860 1_545
