# generated using pymatgen
data_Cs6CrCdSe6
_symmetry_space_group_name_H-M   'P 1'
_cell_length_a   11.22594505
_cell_length_b   11.22503270
_cell_length_c   14.23451577
_cell_angle_alpha   90.00000000
_cell_angle_beta   90.00000000
_cell_angle_gamma   140.73762307
_symmetry_Int_Tables_number   1
_chemical_formula_structural   Cs6CrCdSe6
_chemical_formula_sum   'Cs12 Cr2 Cd2 Se12'
_cell_volume   1135.19250683
_cell_formula_units_Z   2
loop_
 _symmetry_equiv_pos_site_id
 _symmetry_equiv_pos_as_xyz
  1  'x, y, z'
loop_
 _atom_site_type_symbol
 _atom_site_label
 _atom_site_symmetry_multiplicity
 _atom_site_fract_x
 _atom_site_fract_y
 _atom_site_fract_z
 _atom_site_occupancy
  Cs  Cs0  1  0.86508066  0.85673806  0.66871479  1
  Cs  Cs1  1  0.14332903  0.13492183  0.33130457  1
  Cs  Cs2  1  0.64332903  0.63492183  0.16869543  1
  Cs  Cs3  1  0.36508066  0.35673806  0.83128521  1
  Cs  Cs4  1  0.17440846  0.53132768  0.13333032  1
  Cs  Cs5  1  0.46871029  0.82563714  0.86669267  1
  Cs  Cs6  1  0.96871029  0.32563714  0.63330733  1
  Cs  Cs7  1  0.67440846  0.03132768  0.36666968  1
  Cs  Cs8  1  0.84512137  0.48689398  0.87395586  1
  Cs  Cs9  1  0.51310884  0.15488795  0.12605909  1
  Cs  Cs10  1  0.01310884  0.65488795  0.37394091  1
  Cs  Cs11  1  0.34512137  0.98689398  0.62604414  1
  Cr  Cr0  1  0.91757611  0.08235559  0.00001483  1
  Cr  Cr1  1  0.41757611  0.58235559  0.49998517  1
  Cd  Cd0  1  0.08552917  0.91458440  0.00004362  1
  Cd  Cd1  1  0.58552917  0.41458440  0.49995638  1
  Se  Se0  1  0.29070737  0.31785293  0.57731187  1
  Se  Se1  1  0.68209973  0.70935576  0.42258980  1
  Se  Se2  1  0.18209973  0.20935576  0.07741020  1
  Se  Se3  1  0.79070737  0.81785293  0.92268813  1
  Se  Se4  1  0.70646664  0.99727056  0.10771174  1
  Se  Se5  1  0.00267895  0.29338110  0.89226399  1
  Se  Se6  1  0.50267895  0.79338110  0.60773601  1
  Se  Se7  1  0.20646664  0.49727056  0.39228826  1
  Se  Se8  1  0.32796445  0.02278052  0.87740094  1
  Se  Se9  1  0.97721894  0.67201249  0.12266119  1
  Se  Se10  1  0.47721894  0.17201249  0.37733881  1
  Se  Se11  1  0.82796445  0.52278052  0.62259906  1
loop_
_geom_bond_atom_site_label_1
_geom_bond_atom_site_label_2
_geom_bond_distance
_geom_bond_site_symmetry_2
Cs0 Se11 3.498351 1_555
Cs0 Se0 3.607923 1_665
Cs0 Se6 3.651022 1_555
Cs0 Se3 3.659625 1_555
Cs0 Se1 3.737433 1_555
Cs1 Se10 3.497916 1_555
Cs1 Se1 3.607789 1_445
Cs1 Se7 3.651754 1_555
Cs1 Se2 3.658670 1_555
Cs1 Se0 3.735714 1_555
Cs2 Se9 3.497916 1_555
Cs2 Se2 3.607789 1_555
Cs2 Se4 3.651754 1_555
Cs2 Se1 3.658670 1_555
Cs2 Se3 3.735714 1_554
Cs3 Se8 3.498351 1_555
Cs3 Se3 3.607923 1_555
Cs3 Se5 3.651022 1_555
Cs3 Se0 3.659625 1_555
Cs3 Se2 3.737433 1_556
Cs4 Se9 3.581945 1_455
Cs4 Se7 3.751845 1_555
Cs4 Se2 3.766474 1_555
Cs4 Se5 3.827787 1_554
Cs4 Se4 3.845607 1_555
Cs4 Se4 3.860189 1_445
Cs5 Se8 3.582047 1_565
Cs5 Se6 3.752041 1_555
Cs5 Se3 3.768057 1_555
Cs5 Se4 3.826639 1_556
Cs5 Se5 3.846634 1_555
Cs5 Se5 3.859454 1_665
Cs6 Se11 3.582047 1_555
Cs6 Se5 3.752041 1_655
Cs6 Se0 3.768057 1_655
Cs6 Se7 3.826639 1_655
Cs6 Se6 3.846634 1_545
Cs6 Se6 3.859454 1_655
Cs7 Se10 3.581945 1_555
Cs7 Se4 3.751845 1_545
Cs7 Se1 3.766474 1_545
Cs7 Se6 3.827787 1_545
Cs7 Se7 3.845607 1_655
Cs7 Se7 3.860189 1_545
Cs8 Se11 3.622317 1_555
Cs8 Se5 3.723459 1_655
Cs8 Se8 3.743374 1_555
Cs8 Se9 3.778667 1_556
Cs8 Se8 3.882956 1_665
Cs9 Se10 3.621191 1_555
Cs9 Se4 3.722499 1_545
Cs9 Se9 3.743044 1_555
Cs9 Se8 3.778152 1_554
Cs9 Se9 3.883179 1_445
Cs10 Se9 3.621191 1_455
Cs10 Se7 3.722499 1_555
Cs10 Se10 3.743044 1_565
Cs10 Se11 3.778152 1_455
Cs10 Se10 3.883179 1_455
Cs11 Se8 3.622317 1_565
Cs11 Se6 3.723459 1_555
Cs11 Se11 3.743374 1_455
Cs11 Se10 3.778667 1_565
Cs11 Se11 3.882956 1_565
Cr0 Se5 2.317744 1_654
Cr0 Se4 2.318139 1_545
Cr0 Se3 2.346745 1_544
Cr0 Se2 2.347076 1_655
Cr1 Se6 2.317744 1_555
Cr1 Se7 2.318139 1_555
Cr1 Se0 2.346745 1_555
Cr1 Se1 2.347076 1_555
Cd0 Se8 2.609834 1_564
Cd0 Se9 2.610019 1_455
Cd0 Se3 2.789341 1_454
Cd0 Se2 2.789573 1_565
Cd0 Cs9 3.672067 1_565
Cd0 Cs8 3.672814 1_454
Cd1 Se11 2.609834 1_555
Cd1 Se10 2.610019 1_555
Cd1 Se0 2.789341 1_555
Cd1 Se1 2.789573 1_555
Cd1 Cs10 3.672067 1_655
Cd1 Cs11 3.672814 1_545
