# generated using pymatgen
data_BaNi(As4Ru)3
_symmetry_space_group_name_H-M   'P 1'
_cell_length_a   7.40339882
_cell_length_b   7.43150816
_cell_length_c   7.40339866
_cell_angle_alpha   109.54815535
_cell_angle_beta   109.39418068
_cell_angle_gamma   109.54815778
_symmetry_Int_Tables_number   1
_chemical_formula_structural   BaNi(As4Ru)3
_chemical_formula_sum   'Ba1 Ni1 As12 Ru3'
_cell_volume   313.25937720
_cell_formula_units_Z   1
loop_
 _symmetry_equiv_pos_site_id
 _symmetry_equiv_pos_as_xyz
  1  'x, y, z'
loop_
 _atom_site_type_symbol
 _atom_site_label
 _atom_site_symmetry_multiplicity
 _atom_site_fract_x
 _atom_site_fract_y
 _atom_site_fract_z
 _atom_site_occupancy
  Ba  Ba0  1  0.00000000  0.00000000  0.00000000  1
  Ni  Ni0  1  0.00000000  0.50000000  0.00000000  1
  As  As0  1  0.84935461  0.64923503  0.49791535  1
  As  As1  1  0.15064539  0.35076497  0.50208465  1
  As  As2  1  0.14963826  0.64755421  0.79938120  1
  As  As3  1  0.85036174  0.35244579  0.20061880  1
  As  As4  1  0.64974295  0.49791696  0.85036174  1
  As  As5  1  0.35025705  0.50208304  0.14963826  1
  As  As6  1  0.64856074  0.79988042  0.15064539  1
  As  As7  1  0.35143926  0.20011958  0.84935461  1
  As  As8  1  0.49791535  0.84868132  0.64856074  1
  As  As9  1  0.50208465  0.15131868  0.35143926  1
  As  As10  1  0.20061880  0.84817401  0.35025705  1
  As  As11  1  0.79938120  0.15182599  0.64974295  1
  Ru  Ru0  1  0.50000000  0.50000000  0.50000000  1
  Ru  Ru1  1  0.50000000  0.00000000  0.00000000  1
  Ru  Ru2  1  0.00000000  0.00000000  0.50000000  1
loop_
_geom_bond_atom_site_label_1
_geom_bond_atom_site_label_2
_geom_bond_distance
_geom_bond_site_symmetry_2
As0 Ru0 2.457264 1_555
As0 Ru2 2.460729 1_665
As0 As3 2.546053 1_555
As0 As2 2.581798 1_655
As0 Ba0 3.266943 1_666
As1 Ru0 2.457264 1_555
As1 Ru2 2.460729 1_555
As1 As2 2.546053 1_555
As1 As3 2.581798 1_455
As1 Ba0 3.266943 1_555
As2 Ni0 2.450602 1_556
As2 Ru1 2.466984 1_566
As2 Ba0 3.274866 1_566
As3 Ni0 2.450602 1_655
As3 Ru1 2.466984 1_555
As3 Ba0 3.274866 1_655
As4 Ni0 2.450605 1_656
As4 Ru0 2.466980 1_555
As4 As7 2.546057 1_555
As4 As6 2.581793 1_556
As4 Ba0 3.274860 1_666
As5 Ni0 2.450605 1_555
As5 Ru0 2.466980 1_555
As5 As6 2.546057 1_555
As5 As7 2.581793 1_554
As5 Ba0 3.274860 1_555
As6 Ru2 2.457264 1_665
As6 Ru1 2.460729 1_565
As6 Ba0 3.266943 1_665
As7 Ru2 2.457264 1_555
As7 Ru1 2.460729 1_556
As7 Ba0 3.266943 1_556
As8 Ru1 2.457263 1_566
As8 Ru0 2.460736 1_555
As8 Ba0 3.266946 1_666
As9 Ru1 2.457263 1_555
As9 Ru0 2.460736 1_555
As9 Ba0 3.266946 1_555
As10 Ni0 2.450605 1_555
As10 Ru2 2.466981 1_565
As10 As8 2.546053 1_555
As10 As9 2.581789 1_565
As10 Ba0 3.274860 1_565
As11 Ni0 2.450605 1_656
As11 Ru2 2.466981 1_655
As11 As9 2.546053 1_555
As11 As8 2.581789 1_545
As11 Ba0 3.274860 1_656
