# generated using pymatgen
data_Zr10GaAgSb6
_symmetry_space_group_name_H-M   'P 1'
_cell_length_a   8.67007919
_cell_length_b   8.67007911
_cell_length_c   5.88733811
_cell_angle_alpha   90.00000000
_cell_angle_beta   90.00000000
_cell_angle_gamma   120.00000406
_symmetry_Int_Tables_number   1
_chemical_formula_structural   Zr10GaAgSb6
_chemical_formula_sum   'Zr10 Ga1 Ag1 Sb6'
_cell_volume   383.26196028
_cell_formula_units_Z   1
loop_
 _symmetry_equiv_pos_site_id
 _symmetry_equiv_pos_as_xyz
  1  'x, y, z'
loop_
 _atom_site_type_symbol
 _atom_site_label
 _atom_site_symmetry_multiplicity
 _atom_site_fract_x
 _atom_site_fract_y
 _atom_site_fract_z
 _atom_site_occupancy
  Zr  Zr0  1  0.66666700  0.33333300  0.00000000  1
  Zr  Zr1  1  0.33333300  0.66666700  0.00000000  1
  Zr  Zr2  1  0.33333300  0.66666700  0.50000000  1
  Zr  Zr3  1  0.66666700  0.33333300  0.50000000  1
  Zr  Zr4  1  0.72737514  0.72737514  0.76165670  1
  Zr  Zr5  1  0.27262486  1.00000000  0.76165670  1
  Zr  Zr6  1  1.00000000  0.27262486  0.76165670  1
  Zr  Zr7  1  0.27262486  0.27262486  0.23834330  1
  Zr  Zr8  1  0.72737514  0.00000000  0.23834330  1
  Zr  Zr9  1  0.00000000  0.72737514  0.23834330  1
  Ga  Ga0  1  0.00000000  0.00000000  0.00000000  1
  Ag  Ag0  1  0.00000000  0.00000000  0.50000000  1
  Sb  Sb0  1  0.38449870  0.38449870  0.74470546  1
  Sb  Sb1  1  0.61550130  1.00000000  0.74470546  1
  Sb  Sb2  1  1.00000000  0.61550130  0.74470546  1
  Sb  Sb3  1  0.61550130  0.61550130  0.25529454  1
  Sb  Sb4  1  0.38449870  0.00000000  0.25529454  1
  Sb  Sb5  1  0.00000000  0.38449870  0.25529454  1
loop_
_geom_bond_atom_site_label_1
_geom_bond_atom_site_label_2
_geom_bond_distance
_geom_bond_site_symmetry_2
Ga0 Zr7 2.748812 1_555
Ga0 Zr4 2.748812 1_444
Ga0 Zr6 2.748813 1_454
Ga0 Zr9 2.748813 1_545
Ga0 Zr5 2.748813 1_544
Ga0 Zr8 2.748813 1_455
Ag0 Zr7 2.821347 1_555
Ag0 Zr4 2.821347 1_445
Ag0 Zr6 2.821347 1_455
Ag0 Zr9 2.821347 1_545
Ag0 Zr5 2.821347 1_545
Ag0 Zr8 2.821347 1_455
Ag0 Ga0 2.943669 1_556
Ag0 Ga0 2.943669 1_555
Sb0 Zr5 2.971601 1_545
Sb0 Zr6 2.971601 1_455
Sb0 Zr4 2.974440 1_555
Sb0 Zr2 3.056557 1_555
Sb0 Zr3 3.056557 1_555
Sb0 Zr7 3.063803 1_556
Sb0 Zr1 3.086430 1_556
Sb0 Zr0 3.086430 1_556
Sb0 Zr7 3.134951 1_555
Sb1 Zr6 2.971601 1_565
Sb1 Zr4 2.971601 1_555
Sb1 Zr5 2.974441 1_555
Sb1 Zr3 3.056549 1_565
Sb1 Zr2 3.056552 1_555
Sb1 Zr8 3.063803 1_566
Sb1 Zr0 3.086423 1_566
Sb1 Zr1 3.086426 1_556
Sb1 Zr8 3.134951 1_565
Sb2 Zr5 2.971601 1_655
Sb2 Zr4 2.971601 1_555
Sb2 Zr6 2.974441 1_555
Sb2 Zr2 3.056549 1_655
Sb2 Zr3 3.056552 1_555
Sb2 Zr9 3.063803 1_656
Sb2 Zr1 3.086423 1_656
Sb2 Zr0 3.086426 1_556
Sb2 Zr9 3.134951 1_655
Sb3 Zr8 2.971601 1_565
Sb3 Zr9 2.971601 1_655
Sb3 Zr7 2.974440 1_555
Sb3 Zr3 3.056557 1_555
Sb3 Zr2 3.056557 1_555
Sb3 Zr4 3.063803 1_554
Sb3 Zr0 3.086430 1_555
Sb3 Zr1 3.086430 1_555
Sb3 Zr4 3.134951 1_555
Sb4 Zr9 2.971601 1_545
Sb4 Zr7 2.971601 1_555
Sb4 Zr8 2.974441 1_555
Sb4 Zr2 3.056549 1_545
Sb4 Zr3 3.056552 1_555
Sb4 Zr5 3.063803 1_544
Sb4 Zr1 3.086423 1_545
Sb4 Zr0 3.086426 1_555
Sb4 Zr5 3.134951 1_545
Sb5 Zr8 2.971601 1_455
Sb5 Zr7 2.971601 1_555
Sb5 Zr9 2.974441 1_555
Sb5 Zr3 3.056549 1_455
Sb5 Zr2 3.056552 1_555
Sb5 Zr6 3.063803 1_454
Sb5 Zr0 3.086423 1_455
Sb5 Zr1 3.086426 1_555
Sb5 Zr6 3.134951 1_455
