# generated using pymatgen
data_TaP3PdO12
_symmetry_space_group_name_H-M   'P 1'
_cell_length_a   8.35840479
_cell_length_b   8.35730718
_cell_length_c   8.79439809
_cell_angle_alpha   89.98322072
_cell_angle_beta   61.62139795
_cell_angle_gamma   119.99546225
_symmetry_Int_Tables_number   1
_chemical_formula_structural   TaP3PdO12
_chemical_formula_sum   'Ta2 P6 Pd2 O24'
_cell_volume   444.70417871
_cell_formula_units_Z   2
loop_
 _symmetry_equiv_pos_site_id
 _symmetry_equiv_pos_as_xyz
  1  'x, y, z'
loop_
 _atom_site_type_symbol
 _atom_site_label
 _atom_site_symmetry_multiplicity
 _atom_site_fract_x
 _atom_site_fract_y
 _atom_site_fract_z
 _atom_site_occupancy
  Ta  Ta0  1  0.77362124  0.13676041  0.08958934  1
  Ta  Ta1  1  0.78720667  0.64356107  0.56925695  1
  P  P0  1  0.27883068  0.04104305  0.25171620  1
  P  P1  1  0.70730882  0.73771230  0.25146060  1
  P  P2  1  0.27500627  0.23468887  0.74933336  1
  P  P3  1  0.71044536  0.97583777  0.74914245  1
  P  P4  1  0.01624684  0.54063904  0.74913753  1
  P  P5  1  0.01045878  0.46921706  0.25176838  1
  Pd  Pd0  1  0.20153363  0.35087355  0.44766012  1
  Pd  Pd1  1  0.21170356  0.85593356  0.93238239  1
  O  O0  1  0.49682860  0.11446708  0.23783103  1
  O  O1  1  0.88194692  0.37942795  0.92621517  1
  O  O2  1  0.87447532  0.17006489  0.59588855  1
  O  O3  1  0.85161217  0.52538376  0.70506872  1
  O  O4  1  0.12698897  0.61030284  0.06800191  1
  O  O5  1  0.10591675  0.84658321  0.40547987  1
  O  O6  1  0.18742942  0.50136638  0.28238049  1
  O  O7  1  0.12893931  0.74351825  0.76493193  1
  O  O8  1  0.19932462  0.52990677  0.59547994  1
  O  O9  1  0.21529278  0.18530240  0.28329806  1
  O  O10  1  0.32152501  0.01725846  0.06779138  1
  O  O11  1  0.64742745  0.88218185  0.23805362  1
  O  O12  1  0.53148435  0.52987162  0.28306353  1
  O  O13  1  0.23367219  0.20469019  0.59637570  1
  O  O14  1  0.83559793  0.48829014  0.40608575  1
  O  O15  1  0.07147237  0.19204161  0.92676272  1
  O  O16  1  0.91490770  0.80444363  0.06725665  1
  O  O17  1  0.49145554  0.88501248  0.76547559  1
  O  O18  1  0.74839278  0.75904081  0.40492004  1
  O  O19  1  0.46862685  0.44368902  0.70445897  1
  O  O20  1  0.34983423  0.10655877  0.76511462  1
  O  O21  1  0.69454907  0.00228689  0.92628170  1
  O  O22  1  0.77057324  0.82705098  0.70415102  1
  O  O23  1  0.87936358  0.26499733  0.23818771  1
loop_
_geom_bond_atom_site_label_1
_geom_bond_atom_site_label_2
_geom_bond_distance
_geom_bond_site_symmetry_2
O0 P0 1.543391 1_555
O0 Ta0 1.946424 1_555
O1 P4 1.524890 1_655
O1 Ta0 1.980599 1_556
O2 P3 1.532337 1_545
O2 Pd0 1.984139 1_655
O3 P4 1.546492 1_655
O3 Ta1 1.958035 1_555
O4 P5 1.518239 1_555
O4 Pd1 1.969859 1_554
O5 P0 1.533290 1_565
O5 Ta1 1.970219 1_455
O6 P5 1.521146 1_555
O6 Pd0 2.004639 1_555
O7 P4 1.519536 1_555
O7 Pd1 1.961938 1_555
O8 P4 1.532116 1_555
O8 Pd0 1.983676 1_555
O9 P0 1.520812 1_555
O9 Pd0 2.004885 1_555
O10 P0 1.518422 1_555
O10 Pd1 1.970044 1_544
O11 P1 1.543506 1_555
O11 Ta0 1.946624 1_565
O12 P1 1.520932 1_555
O12 Pd0 2.004455 1_555
O13 P2 1.532015 1_555
O13 Pd0 1.984033 1_555
O14 P5 1.533266 1_655
O14 Ta1 1.969983 1_555
O15 P2 1.525122 1_555
O15 Ta0 1.980567 1_456
O16 P1 1.518563 1_555
O16 Pd1 1.970126 1_654
O17 P3 1.519211 1_555
O17 Pd1 1.962180 1_555
O18 P1 1.533151 1_555
O18 Ta1 1.970619 1_555
O19 P2 1.546554 1_555
O19 Ta1 1.958665 1_555
O20 P2 1.519597 1_555
O20 Pd1 1.962101 1_545
O21 P3 1.525177 1_545
O21 Ta0 1.980671 1_556
O22 P3 1.546423 1_555
O22 Ta1 1.958490 1_555
O23 P5 1.543529 1_655
O23 Ta0 1.946598 1_555
