# generated using pymatgen
data_U2Mo
_symmetry_space_group_name_H-M   'P 1'
_cell_length_a   10.85355307
_cell_length_b   10.85355307
_cell_length_c   10.85355307
_cell_angle_alpha   143.15090020
_cell_angle_beta   143.15090020
_cell_angle_gamma   53.09890677
_symmetry_Int_Tables_number   1
_chemical_formula_structural   U2Mo
_chemical_formula_sum   'U16 Mo8'
_cell_volume   456.99011213
_cell_formula_units_Z   8
loop_
 _symmetry_equiv_pos_site_id
 _symmetry_equiv_pos_as_xyz
  1  'x, y, z'
loop_
 _atom_site_type_symbol
 _atom_site_label
 _atom_site_symmetry_multiplicity
 _atom_site_fract_x
 _atom_site_fract_y
 _atom_site_fract_z
 _atom_site_occupancy
  U  U0_0  1  0.16035950  0.16035950  0.00000000  1
  U  U0_1  1  0.16035950  0.16035950  0.50000000  1
  U  U0_2  1  0.16035950  0.66035950  0.00000000  1
  U  U0_3  1  0.16035950  0.66035950  0.50000000  1
  U  U0_4  1  0.66035950  0.16035950  0.00000000  1
  U  U0_5  1  0.66035950  0.16035950  0.50000000  1
  U  U0_6  1  0.66035950  0.66035950  0.00000000  1
  U  U0_7  1  0.66035950  0.66035950  0.50000000  1
  U  U1_0  1  0.33964050  0.33964050  0.00000000  1
  U  U1_1  1  0.33964050  0.33964050  0.50000000  1
  U  U1_2  1  0.33964050  0.83964050  0.00000000  1
  U  U1_3  1  0.33964050  0.83964050  0.50000000  1
  U  U1_4  1  0.83964050  0.33964050  0.00000000  1
  U  U1_5  1  0.83964050  0.33964050  0.50000000  1
  U  U1_6  1  0.83964050  0.83964050  0.00000000  1
  U  U1_7  1  0.83964050  0.83964050  0.50000000  1
  Mo  Mo0_0  1  0.00000000  0.00000000  0.00000000  1
  Mo  Mo0_1  1  0.00000000  0.00000000  0.50000000  1
  Mo  Mo0_2  1  0.00000000  0.50000000  0.00000000  1
  Mo  Mo0_3  1  0.00000000  0.50000000  0.50000000  1
  Mo  Mo0_4  1  0.50000000  0.00000000  0.00000000  1
  Mo  Mo0_5  1  0.50000000  0.00000000  0.50000000  1
  Mo  Mo0_6  1  0.50000000  0.50000000  0.00000000  1
  Mo  Mo0_7  1  0.50000000  0.50000000  0.50000000  1
loop_
_geom_bond_atom_site_label_1
_geom_bond_atom_site_label_2
_geom_bond_distance
_geom_bond_site_symmetry_2
U0_0 U1_1 2.787350 1_555
U0_0 U1_7 2.787350 1_444
U0_0 U1_2 2.787350 1_545
U0_0 U1_4 2.787350 1_455
U0_1 U1_0 2.787350 1_556
U0_1 U1_6 2.787350 1_445
U0_1 U1_5 2.787350 1_455
U0_1 U1_3 2.787350 1_545
U0_2 U1_3 2.787350 1_555
U0_2 U1_5 2.787350 1_454
U0_2 U1_6 2.787350 1_455
U0_2 U1_0 2.787350 1_555
U0_3 U1_1 2.787350 1_555
U0_3 U1_2 2.787350 1_556
U0_3 U1_7 2.787350 1_455
U0_3 U1_4 2.787350 1_455
U0_4 U1_0 2.787350 1_555
U0_4 U1_3 2.787350 1_544
U0_4 U1_5 2.787350 1_555
U0_4 U1_6 2.787350 1_545
U0_5 U1_7 2.787350 1_545
U0_5 U1_1 2.787350 1_555
U0_5 U1_4 2.787350 1_556
U0_5 U1_2 2.787350 1_545
U0_6 U1_7 2.787350 1_555
U0_6 U1_1 2.787350 1_554
U0_6 U1_4 2.787350 1_555
U0_6 U1_2 2.787350 1_555
U0_7 U1_0 2.787350 1_555
U0_7 U1_3 2.787350 1_555
U0_7 U1_6 2.787350 1_556
U0_7 U1_5 2.787350 1_555
Mo0_0 U1_2 2.985534 1_545
Mo0_0 U1_7 2.985534 1_444
Mo0_0 U0_1 2.985534 1_555
Mo0_0 U0_2 2.985534 1_545
Mo0_0 U1_4 2.985534 1_455
Mo0_0 U0_4 2.985534 1_455
Mo0_0 U0_7 2.985534 1_444
Mo0_0 U1_1 2.985534 1_555
Mo0_0 U1_6 3.113872 1_445
Mo0_0 U0_0 3.113872 1_555
Mo0_0 Mo0_3 3.430326 1_555
Mo0_0 Mo0_5 3.430326 1_454
Mo0_0 Mo0_5 3.430326 1_555
Mo0_0 Mo0_3 3.430326 1_544
Mo0_1 U0_5 2.985534 1_455
Mo0_1 U0_3 2.985534 1_545
Mo0_1 U1_5 2.985534 1_455
Mo0_1 U1_3 2.985534 1_545
Mo0_1 U1_6 2.985534 1_445
Mo0_1 U0_0 2.985534 1_556
Mo0_1 U1_0 2.985534 1_556
Mo0_1 U0_6 2.985534 1_445
Mo0_1 U0_1 3.113872 1_555
Mo0_1 U1_7 3.113872 1_445
Mo0_1 Mo0_2 3.430326 1_556
Mo0_1 Mo0_2 3.430326 1_545
Mo0_1 Mo0_4 3.430326 1_455
Mo0_1 Mo0_4 3.430326 1_556
Mo0_2 U1_5 2.985534 1_454
Mo0_2 U1_6 2.985534 1_455
Mo0_2 U0_6 2.985534 1_455
Mo0_2 U0_3 2.985534 1_555
Mo0_2 U1_3 2.985534 1_555
Mo0_2 U0_0 2.985534 1_555
Mo0_2 U0_5 2.985534 1_454
Mo0_2 U1_0 2.985534 1_555
Mo0_2 U0_2 3.113872 1_555
Mo0_2 U1_4 3.113872 1_455
Mo0_2 Mo0_7 3.430326 1_454
Mo0_2 Mo0_7 3.430326 1_555
Mo0_3 U0_1 2.985534 1_555
Mo0_3 U1_7 2.985534 1_455
Mo0_3 U1_4 2.985534 1_455
Mo0_3 U1_1 2.985534 1_555
Mo0_3 U0_2 2.985534 1_556
Mo0_3 U0_7 2.985534 1_455
Mo0_3 U0_4 2.985534 1_455
Mo0_3 U1_2 2.985534 1_556
Mo0_3 U0_3 3.113872 1_555
Mo0_3 U1_5 3.113872 1_455
Mo0_3 Mo0_6 3.430326 1_556
Mo0_3 Mo0_6 3.430326 1_455
Mo0_4 U0_0 2.985534 1_555
Mo0_4 U0_5 2.985534 1_555
Mo0_4 U1_6 2.985534 1_545
Mo0_4 U1_0 2.985534 1_555
Mo0_4 U1_3 2.985534 1_544
Mo0_4 U0_6 2.985534 1_545
Mo0_4 U1_5 2.985534 1_555
Mo0_4 U0_3 2.985534 1_544
Mo0_4 U1_2 3.113872 1_545
Mo0_4 U0_4 3.113872 1_555
Mo0_4 Mo0_7 3.430326 1_544
Mo0_4 Mo0_7 3.430326 1_555
Mo0_5 U1_2 2.985534 1_545
Mo0_5 U1_7 2.985534 1_545
Mo0_5 U0_4 2.985534 1_556
Mo0_5 U0_1 2.985534 1_555
Mo0_5 U0_7 2.985534 1_545
Mo0_5 U1_1 2.985534 1_555
Mo0_5 U1_4 2.985534 1_556
Mo0_5 U0_2 2.985534 1_545
Mo0_5 U1_3 3.113872 1_545
Mo0_5 U0_5 3.113872 1_555
Mo0_5 Mo0_6 3.430326 1_545
Mo0_5 Mo0_6 3.430326 1_556
Mo0_6 U1_2 2.985534 1_555
Mo0_6 U0_7 2.985534 1_555
Mo0_6 U0_4 2.985534 1_555
Mo0_6 U1_1 2.985534 1_554
Mo0_6 U1_4 2.985534 1_555
Mo0_6 U0_2 2.985534 1_555
Mo0_6 U1_7 2.985534 1_555
Mo0_6 U0_1 2.985534 1_554
Mo0_6 U1_0 3.113872 1_555
Mo0_6 U0_6 3.113872 1_555
Mo0_7 U1_5 2.985534 1_555
Mo0_7 U0_5 2.985534 1_555
Mo0_7 U1_3 2.985534 1_555
Mo0_7 U0_3 2.985534 1_555
Mo0_7 U0_6 2.985534 1_556
Mo0_7 U1_6 2.985534 1_556
Mo0_7 U0_0 2.985534 1_555
Mo0_7 U1_0 2.985534 1_555
Mo0_7 U1_1 3.113872 1_555
Mo0_7 U0_7 3.113872 1_555
