# generated using pymatgen
data_Sr4CuSi6Hg
_symmetry_space_group_name_H-M   'P 1'
_cell_length_a   11.84390386
_cell_length_b   10.28215266
_cell_length_c   8.31955862
_cell_angle_alpha   78.31175133
_cell_angle_beta   58.22662960
_cell_angle_gamma   43.46161575
_symmetry_Int_Tables_number   1
_chemical_formula_structural   Sr4CuSi6Hg
_chemical_formula_sum   'Sr8 Cu2 Si12 Hg2'
_cell_volume   563.84229544
_cell_formula_units_Z   2
loop_
 _symmetry_equiv_pos_site_id
 _symmetry_equiv_pos_as_xyz
  1  'x, y, z'
loop_
 _atom_site_type_symbol
 _atom_site_label
 _atom_site_symmetry_multiplicity
 _atom_site_fract_x
 _atom_site_fract_y
 _atom_site_fract_z
 _atom_site_occupancy
  Sr  Sr0  1  0.12931511  0.11917952  0.87341626  1
  Sr  Sr1  1  0.87341726  0.87808810  0.12931411  1
  Sr  Sr2  1  0.13082148  0.12068589  0.37191190  1
  Sr  Sr3  1  0.37191290  0.37658374  0.13082048  1
  Sr  Sr4  1  0.62048392  0.62630983  0.37749411  1
  Sr  Sr5  1  0.37749411  0.37571214  0.62048392  1
  Sr  Sr6  1  0.62369117  0.62951608  0.87428786  1
  Sr  Sr7  1  0.87428886  0.87250689  0.62369017  1
  Cu  Cu0  1  0.16692597  0.83307403  0.16692597  1
  Cu  Cu1  1  0.41692597  0.08307403  0.41692597  1
  Si  Si0  1  0.90973501  0.59295124  0.43151837  1
  Si  Si1  1  0.08680360  0.40781363  0.58329282  1
  Si  Si2  1  0.43151837  0.06579538  0.90973501  1
  Si  Si3  1  0.58329282  0.92208995  0.08680360  1
  Si  Si4  1  0.32791005  0.66670718  0.84218637  1
  Si  Si5  1  0.65704876  0.34026499  0.18420462  1
  Si  Si6  1  0.84218637  0.16319640  0.32791005  1
  Si  Si7  1  0.18420462  0.81848163  0.65704876  1
  Si  Si8  1  0.90858919  0.59141181  0.90858819  1
  Si  Si9  1  0.57964430  0.92035670  0.57964330  1
  Si  Si10  1  0.32964430  0.67035670  0.32964430  1
  Si  Si11  1  0.65858819  0.34141181  0.65858819  1
  Hg  Hg0  1  0.08278033  0.41721967  0.08278033  1
  Hg  Hg1  1  0.83278033  0.16721967  0.83278033  1
loop_
_geom_bond_atom_site_label_1
_geom_bond_atom_site_label_2
_geom_bond_distance
_geom_bond_site_symmetry_2
Cu0 Si10 2.344166 1_555
Cu0 Si4 2.360851 1_554
Cu0 Si6 2.360851 1_465
Cu0 Sr0 3.338848 1_564
Cu0 Sr1 3.338848 1_455
Cu0 Sr3 3.357991 1_555
Cu0 Sr2 3.358023 1_565
Cu0 Sr7 3.366237 1_455
Cu0 Sr6 3.366255 1_554
Cu1 Si9 2.344158 1_545
Cu1 Si3 2.360851 1_545
Cu1 Si1 2.360851 1_555
Cu1 Sr2 3.338825 1_555
Cu1 Sr3 3.338851 1_555
Cu1 Sr0 3.358000 1_555
Cu1 Sr1 3.358005 1_545
Cu1 Sr4 3.366245 1_545
Cu1 Sr5 3.366245 1_555
Si0 Si1 2.373983 1_655
Si0 Si9 2.374325 1_555
Si0 Sr7 3.224606 1_555
Si0 Sr6 3.279898 1_555
Si0 Sr3 3.365581 1_655
Si0 Sr1 3.379856 1_555
Si0 Sr2 3.439785 1_655
Si0 Sr4 3.451014 1_555
Si1 Si8 2.369165 1_455
Si1 Sr2 3.314243 1_555
Si1 Sr0 3.330982 1_555
Si1 Sr3 3.347430 1_555
Si1 Sr6 3.353177 1_455
Si1 Sr5 3.389560 1_555
Si1 Sr7 3.402859 1_455
Si2 Si3 2.373983 1_546
Si2 Si9 2.374325 1_545
Si2 Sr6 3.224584 1_545
Si2 Sr7 3.279916 1_545
Si2 Sr2 3.365560 1_556
Si2 Sr0 3.379857 1_555
Si2 Sr3 3.439816 1_556
Si2 Sr5 3.451014 1_555
Si3 Si8 2.369164 1_554
Si3 Sr3 3.314274 1_565
Si3 Sr1 3.330983 1_555
Si3 Sr2 3.347409 1_565
Si3 Sr7 3.353193 1_554
Si3 Sr4 3.389560 1_555
Si3 Sr6 3.402837 1_554
Si4 Si7 2.373983 1_555
Si4 Sr1 3.314262 1_456
Si4 Sr3 3.330979 1_556
Si4 Sr0 3.347422 1_565
Si4 Sr5 3.353186 1_555
Si4 Sr6 3.389572 1_555
Si4 Sr4 3.402846 1_555
Si5 Si6 2.373983 1_555
Si5 Sr5 3.224588 1_555
Si5 Sr4 3.279902 1_555
Si5 Sr1 3.365568 1_545
Si5 Sr3 3.379833 1_555
Si5 Sr0 3.439799 1_654
Si5 Sr6 3.451015 1_554
Si6 Sr0 3.314267 1_654
Si6 Sr2 3.331006 1_655
Si6 Sr1 3.347427 1_545
Si6 Sr4 3.353186 1_555
Si6 Sr7 3.389551 1_545
Si6 Sr5 3.402847 1_555
Si7 Sr4 3.224588 1_555
Si7 Sr5 3.279902 1_555
Si7 Sr0 3.365563 1_565
Si7 Sr2 3.379859 1_565
Si7 Sr1 3.439794 1_456
Si7 Sr7 3.450996 1_455
Si8 Sr6 3.266568 1_555
Si8 Sr7 3.266574 1_555
Si8 Sr5 3.429552 1_655
Si8 Sr4 3.429565 1_556
Si8 Sr1 3.440836 1_556
Si8 Sr0 3.440854 1_655
Si9 Sr1 3.326871 1_555
Si9 Sr0 3.326879 1_565
Si9 Sr5 3.359167 1_565
Si9 Sr4 3.359180 1_555
Si9 Sr6 3.366876 1_555
Si9 Sr7 3.366883 1_555
Si10 Si7 2.374318 1_555
Si10 Si5 2.374325 1_555
Si10 Sr3 3.326866 1_555
Si10 Sr2 3.326879 1_565
Si10 Sr7 3.359167 1_455
Si10 Sr6 3.359176 1_554
Si10 Sr4 3.366860 1_555
Si10 Sr5 3.366872 1_555
Si11 Si6 2.369161 1_555
Si11 Si4 2.369161 1_555
Si11 Sr4 3.266568 1_555
Si11 Sr5 3.266568 1_555
Si11 Sr7 3.429548 1_545
Si11 Sr6 3.429570 1_555
Si11 Sr3 3.440843 1_556
Si11 Sr2 3.440864 1_655
Hg0 Si8 2.509453 1_454
Hg0 Si0 2.523711 1_455
Hg0 Si2 2.523711 1_554
Hg0 Sr2 3.370115 1_555
Hg0 Sr3 3.370141 1_555
Hg0 Sr1 3.380625 1_455
Hg0 Sr0 3.380630 1_554
Hg0 Sr5 3.394546 1_554
Hg0 Sr4 3.394546 1_455
Hg1 Si11 2.509460 1_555
Hg1 Si5 2.523711 1_556
Hg1 Si7 2.523711 1_645
Hg1 Sr1 3.370117 1_546
Hg1 Sr0 3.370118 1_655
Hg1 Sr3 3.380612 1_556
Hg1 Sr2 3.380633 1_655
Hg1 Sr7 3.394527 1_545
Hg1 Sr6 3.394549 1_555
