# generated using pymatgen
data_Zr3Ag
_symmetry_space_group_name_H-M   'P 1'
_cell_length_a   4.41649500
_cell_length_b   4.41649500
_cell_length_c   4.41649500
_cell_angle_alpha   90.00000000
_cell_angle_beta   90.00000000
_cell_angle_gamma   90.00000000
_symmetry_Int_Tables_number   1
_chemical_formula_structural   Zr3Ag
_chemical_formula_sum   'Zr3 Ag1'
_cell_volume   86.14562561
_cell_formula_units_Z   1
loop_
 _symmetry_equiv_pos_site_id
 _symmetry_equiv_pos_as_xyz
  1  'x, y, z'
loop_
 _atom_site_type_symbol
 _atom_site_label
 _atom_site_symmetry_multiplicity
 _atom_site_fract_x
 _atom_site_fract_y
 _atom_site_fract_z
 _atom_site_occupancy
  Zr  Zr0  1  0.50000000  0.50000000  0.00000000  1
  Zr  Zr1  1  0.00000000  0.50000000  0.50000000  1
  Zr  Zr2  1  0.50000000  0.00000000  0.50000000  1
  Ag  Ag0  1  0.00000000  0.00000000  0.00000000  1
loop_
_geom_bond_atom_site_label_1
_geom_bond_atom_site_label_2
_geom_bond_distance
_geom_bond_site_symmetry_2
Zr0 Zr2 3.122934 1_555
Zr0 Zr2 3.122934 1_554
Zr0 Zr1 3.122934 1_655
Zr0 Zr2 3.122934 1_565
Zr0 Zr2 3.122934 1_564
Zr0 Zr1 3.122934 1_555
Zr0 Zr1 3.122934 1_554
Zr0 Zr1 3.122934 1_654
Zr1 Zr2 3.122934 1_555
Zr1 Zr2 3.122934 1_565
Zr1 Zr2 3.122934 1_465
Zr1 Zr2 3.122934 1_455
Ag0 Zr0 3.122934 1_455
Ag0 Zr2 3.122934 1_554
Ag0 Zr2 3.122934 1_555
Ag0 Zr1 3.122934 1_544
Ag0 Zr0 3.122934 1_555
Ag0 Zr1 3.122934 1_555
Ag0 Zr1 3.122934 1_545
Ag0 Zr1 3.122934 1_554
Ag0 Zr2 3.122934 1_455
Ag0 Zr2 3.122934 1_454
Ag0 Zr0 3.122934 1_445
Ag0 Zr0 3.122934 1_545
