# generated using pymatgen
data_K2B2SbPt7
_symmetry_space_group_name_H-M   'P 1'
_cell_length_a   5.74438386
_cell_length_b   5.74438339
_cell_length_c   7.21492352
_cell_angle_alpha   90.00000000
_cell_angle_beta   90.00000000
_cell_angle_gamma   119.99999713
_symmetry_Int_Tables_number   1
_chemical_formula_structural   K2B2SbPt7
_chemical_formula_sum   'K2 B2 Sb1 Pt7'
_cell_volume   206.18128719
_cell_formula_units_Z   1
loop_
 _symmetry_equiv_pos_site_id
 _symmetry_equiv_pos_as_xyz
  1  'x, y, z'
loop_
 _atom_site_type_symbol
 _atom_site_label
 _atom_site_symmetry_multiplicity
 _atom_site_fract_x
 _atom_site_fract_y
 _atom_site_fract_z
 _atom_site_occupancy
  K  K0  1  0.00000000  0.00000000  0.50000000  1
  K  K1  1  0.00000000  0.00000000  0.00000000  1
  B  B0  1  0.33333300  0.66666700  0.00000000  1
  B  B1  1  0.66666700  0.33333300  0.00000000  1
  Sb  Sb0  1  0.33333300  0.66666700  0.50000000  1
  Pt  Pt0  1  0.66666700  0.33333300  0.50000000  1
  Pt  Pt1  1  0.49992917  0.99985834  0.19536844  1
  Pt  Pt2  1  0.49992917  0.99985834  0.80463156  1
  Pt  Pt3  1  0.00014166  0.50007083  0.19536844  1
  Pt  Pt4  1  0.00014166  0.50007083  0.80463156  1
  Pt  Pt5  1  0.49992917  0.50007083  0.19536844  1
  Pt  Pt6  1  0.49992917  0.50007083  0.80463156  1
loop_
_geom_bond_atom_site_label_1
_geom_bond_atom_site_label_2
_geom_bond_distance
_geom_bond_site_symmetry_2
K0 Pt0 3.316518 1_455
K0 Sb0 3.316518 1_545
K0 Sb0 3.316523 1_555
K0 Pt0 3.316523 1_445
K0 Pt0 3.316523 1_555
K0 Sb0 3.316523 1_445
K1 Pt3 3.199433 1_545
K1 Pt4 3.199433 1_544
K1 Pt3 3.199433 1_555
K1 Pt4 3.199433 1_554
K1 Pt1 3.199433 1_545
K1 Pt2 3.199433 1_544
K1 Pt1 3.199433 1_445
K1 Pt2 3.199433 1_444
K1 Pt5 3.199433 1_555
K1 Pt6 3.199433 1_554
K1 Pt5 3.199433 1_445
K1 Pt6 3.199433 1_444
B0 Pt1 2.175861 1_555
B0 Pt2 2.175861 1_554
B0 Pt3 2.175861 1_555
B0 Pt4 2.175861 1_554
B0 Pt5 2.175864 1_555
B0 Pt6 2.175864 1_554
B1 Pt1 2.176934 1_545
B1 Pt2 2.176934 1_544
B1 Pt3 2.176935 1_655
B1 Pt4 2.176935 1_654
B1 Pt5 2.176938 1_555
B1 Pt6 2.176938 1_554
Pt0 Pt2 2.753706 1_545
Pt0 Pt1 2.753706 1_545
Pt0 Pt4 2.753706 1_655
Pt0 Pt3 2.753706 1_655
Pt0 Pt6 2.753709 1_555
Pt0 Pt5 2.753709 1_555
Pt0 Sb0 3.316518 1_545
Pt0 Sb0 3.316518 1_655
Pt0 Sb0 3.316528 1_555
Pt1 Sb0 2.752857 1_555
Pt2 Sb0 2.752857 1_555
Pt3 Sb0 2.752857 1_555
Pt4 Sb0 2.752857 1_555
Pt5 Sb0 2.752860 1_555
Pt6 Sb0 2.752860 1_555
