# generated using pymatgen
data_Hf4BeSiH2
_symmetry_space_group_name_H-M   'P 1'
_cell_length_a   5.31193775
_cell_length_b   5.31193752
_cell_length_c   5.31193783
_cell_angle_alpha   104.41457776
_cell_angle_beta   104.41457137
_cell_angle_gamma   120.14084115
_symmetry_Int_Tables_number   1
_chemical_formula_structural   Hf4BeSiH2
_chemical_formula_sum   'Hf4 Be1 Si1 H2'
_cell_volume   112.33364917
_cell_formula_units_Z   1
loop_
 _symmetry_equiv_pos_site_id
 _symmetry_equiv_pos_as_xyz
  1  'x, y, z'
loop_
 _atom_site_type_symbol
 _atom_site_label
 _atom_site_symmetry_multiplicity
 _atom_site_fract_x
 _atom_site_fract_y
 _atom_site_fract_z
 _atom_site_occupancy
  Hf  Hf0  1  0.16347862  0.66347862  0.82695923  1
  Hf  Hf1  1  0.83652138  0.33652138  0.17304077  1
  Hf  Hf2  1  0.33652138  0.16347862  0.50000000  1
  Hf  Hf3  1  0.66347862  0.83652138  0.50000000  1
  Be  Be0  1  0.25000000  0.25000000  0.00000000  1
  Si  Si0  1  0.75000000  0.75000000  0.00000000  1
  H  H0  1  0.75000000  0.25000000  0.50000000  1
  H  H1  1  0.25000000  0.75000000  0.50000000  1
loop_
_geom_bond_atom_site_label_1
_geom_bond_atom_site_label_2
_geom_bond_distance
_geom_bond_site_symmetry_2
Hf0 Si0 2.772855 1_456
Hf0 Si0 2.772861 1_556
Hf1 Si0 2.772855 1_555
Hf1 Si0 2.772860 1_545
Hf2 Si0 2.772861 1_556
Hf2 Si0 2.772861 1_445
Hf3 Si0 2.772860 1_555
Hf3 Si0 2.772861 1_556
Be0 Si0 2.650313 1_445
Be0 Si0 2.650313 1_555
Be0 Hf1 2.772855 1_455
Be0 Hf0 2.772855 1_554
Be0 Hf0 2.772860 1_544
Be0 Hf2 2.772860 1_554
Be0 Hf1 2.772861 1_555
Be0 Hf2 2.772861 1_555
Be0 Hf3 2.772861 1_555
Be0 Hf3 2.772861 1_444
H0 Hf3 2.005378 1_545
H0 Hf2 2.005378 1_555
H0 Hf0 2.005382 1_655
H0 Hf1 2.005389 1_555
H1 Hf2 2.005378 1_565
H1 Hf3 2.005378 1_555
H1 Hf1 2.005382 1_455
H1 Hf0 2.005389 1_555
