# generated using pymatgen
data_Zr16Pd8CO3
_symmetry_space_group_name_H-M   'P 1'
_cell_length_a   8.86925098
_cell_length_b   8.86925122
_cell_length_c   8.86925049
_cell_angle_alpha   59.77112171
_cell_angle_beta   59.77112485
_cell_angle_gamma   59.77111438
_symmetry_Int_Tables_number   1
_chemical_formula_structural   Zr16Pd8CO3
_chemical_formula_sum   'Zr16 Pd8 C1 O3'
_cell_volume   490.77569088
_cell_formula_units_Z   1
loop_
 _symmetry_equiv_pos_site_id
 _symmetry_equiv_pos_as_xyz
  1  'x, y, z'
loop_
 _atom_site_type_symbol
 _atom_site_label
 _atom_site_symmetry_multiplicity
 _atom_site_fract_x
 _atom_site_fract_y
 _atom_site_fract_z
 _atom_site_occupancy
  Zr  Zr0  1  0.12500000  0.62500000  0.62500000  1
  Zr  Zr1  1  0.62500000  0.12500000  0.62500000  1
  Zr  Zr2  1  0.62500000  0.62500000  0.12500000  1
  Zr  Zr3  1  0.62500000  0.62500000  0.62500000  1
  Zr  Zr4  1  0.81806324  0.81806324  0.18173407  1
  Zr  Zr5  1  0.18177959  0.18177959  0.82102545  1
  Zr  Zr6  1  0.81806324  0.18173407  0.81806324  1
  Zr  Zr7  1  0.18177959  0.82102545  0.18177959  1
  Zr  Zr8  1  0.18173407  0.81806324  0.81806324  1
  Zr  Zr9  1  0.82102545  0.18177959  0.18177959  1
  Zr  Zr10  1  0.43193676  0.43193676  0.06826593  1
  Zr  Zr11  1  0.06822041  0.06822041  0.42897455  1
  Zr  Zr12  1  0.43193676  0.06826593  0.43193676  1
  Zr  Zr13  1  0.06822041  0.42897455  0.06822041  1
  Zr  Zr14  1  0.06826593  0.43193676  0.43193676  1
  Zr  Zr15  1  0.42897455  0.06822041  0.06822041  1
  Pd  Pd0  1  0.77391951  0.40952169  0.40952169  1
  Pd  Pd1  1  0.40952169  0.77391951  0.40952169  1
  Pd  Pd2  1  0.40952169  0.40952169  0.77391951  1
  Pd  Pd3  1  0.40991129  0.40991129  0.40991129  1
  Pd  Pd4  1  0.47608049  0.84047831  0.84047831  1
  Pd  Pd5  1  0.84047831  0.47608049  0.84047831  1
  Pd  Pd6  1  0.84047831  0.84047831  0.47608049  1
  Pd  Pd7  1  0.84008871  0.84008871  0.84008871  1
  C  C0  1  0.12500000  0.12500000  0.12500000  1
  O  O0  1  0.62500000  0.12500000  0.12500000  1
  O  O1  1  0.12500000  0.62500000  0.12500000  1
  O  O2  1  0.12500000  0.12500000  0.62500000  1
loop_
_geom_bond_atom_site_label_1
_geom_bond_atom_site_label_2
_geom_bond_distance
_geom_bond_site_symmetry_2
Pd0 Zr3 2.764721 1_555
Pd0 Zr2 2.779085 1_555
Pd0 Zr1 2.779085 1_555
Pd0 Zr11 2.824518 1_655
Pd0 Zr13 2.824518 1_655
Pd0 Zr14 2.824789 1_655
Pd1 Zr3 2.764721 1_555
Pd1 Zr2 2.779085 1_555
Pd1 Zr0 2.779085 1_555
Pd1 Zr11 2.824518 1_565
Pd1 Zr15 2.824518 1_565
Pd1 Zr12 2.824789 1_565
Pd2 Zr3 2.764721 1_555
Pd2 Zr0 2.779085 1_555
Pd2 Zr1 2.779085 1_555
Pd2 Zr15 2.824518 1_556
Pd2 Zr13 2.824518 1_556
Pd2 Zr10 2.824788 1_556
Pd3 Zr1 2.760520 1_555
Pd3 Zr0 2.760521 1_555
Pd3 Zr2 2.760521 1_555
Pd3 Zr10 2.846829 1_555
Pd3 Zr14 2.846829 1_555
Pd3 Zr12 2.846829 1_555
Pd4 Zr3 2.764721 1_555
Pd4 Zr2 2.779085 1_556
Pd4 Zr1 2.779085 1_565
Pd4 Zr5 2.824518 1_565
Pd4 Zr7 2.824518 1_556
Pd4 Zr8 2.824789 1_555
Pd5 Zr3 2.764721 1_555
Pd5 Zr2 2.779085 1_556
Pd5 Zr0 2.779085 1_655
Pd5 Zr5 2.824518 1_655
Pd5 Zr9 2.824518 1_556
Pd5 Zr6 2.824789 1_555
Pd6 Zr3 2.764721 1_555
Pd6 Zr0 2.779085 1_655
Pd6 Zr1 2.779085 1_565
Pd6 Zr9 2.824518 1_565
Pd6 Zr7 2.824518 1_655
Pd6 Zr4 2.824788 1_555
Pd7 Zr1 2.760520 1_565
Pd7 Zr0 2.760521 1_655
Pd7 Zr2 2.760521 1_556
Pd7 Zr4 2.846829 1_556
Pd7 Zr8 2.846829 1_655
Pd7 Zr6 2.846829 1_565
C0 Zr11 2.301513 1_555
C0 Zr5 2.301513 1_554
C0 Zr9 2.301514 1_455
C0 Zr15 2.301514 1_555
C0 Zr13 2.301514 1_555
C0 Zr7 2.301514 1_545
O0 Zr10 2.321804 1_555
O0 Zr4 2.321804 1_545
O0 Zr6 2.321804 1_554
O0 Zr12 2.321804 1_555
O0 Zr15 2.355523 1_555
O0 Zr9 2.355523 1_555
O1 Zr10 2.321804 1_555
O1 Zr4 2.321804 1_455
O1 Zr14 2.321804 1_555
O1 Zr8 2.321804 1_554
O1 Zr7 2.355523 1_555
O1 Zr13 2.355523 1_555
O2 Zr14 2.321804 1_555
O2 Zr8 2.321804 1_545
O2 Zr12 2.321804 1_555
O2 Zr6 2.321804 1_455
O2 Zr5 2.355523 1_555
O2 Zr11 2.355523 1_555
