# generated using pymatgen
data_Hf10Zn2InSb5
_symmetry_space_group_name_H-M   'P 1'
_cell_length_a   8.54176179
_cell_length_b   8.55574888
_cell_length_c   5.75707556
_cell_angle_alpha   90.00000000
_cell_angle_beta   90.00000000
_cell_angle_gamma   119.94593537
_symmetry_Int_Tables_number   1
_chemical_formula_structural   Hf10Zn2InSb5
_chemical_formula_sum   'Hf10 Zn2 In1 Sb5'
_cell_volume   364.56450964
_cell_formula_units_Z   1
loop_
 _symmetry_equiv_pos_site_id
 _symmetry_equiv_pos_as_xyz
  1  'x, y, z'
loop_
 _atom_site_type_symbol
 _atom_site_label
 _atom_site_symmetry_multiplicity
 _atom_site_fract_x
 _atom_site_fract_y
 _atom_site_fract_z
 _atom_site_occupancy
  Hf  Hf0  1  0.73380010  0.73467470  0.25000000  1
  Hf  Hf1  1  0.73074978  0.00000000  0.75000000  1
  Hf  Hf2  1  0.99912540  0.26532530  0.25000000  1
  Hf  Hf3  1  0.00056352  0.73035939  0.75000000  1
  Hf  Hf4  1  0.27020413  0.26964061  0.75000000  1
  Hf  Hf5  1  0.26358280  0.00000000  0.25000000  1
  Hf  Hf6  1  0.33325886  0.66491900  0.50094867  1
  Hf  Hf7  1  0.66834185  0.33508100  0.99905133  1
  Hf  Hf8  1  0.66834185  0.33508100  0.50094867  1
  Hf  Hf9  1  0.33325886  0.66491900  0.99905133  1
  Zn  Zn0  1  0.00102208  0.00000000  0.99428502  1
  Zn  Zn1  1  0.00102208  0.00000000  0.50571498  1
  In  In0  1  0.38368610  0.00000000  0.75000000  1
  Sb  Sb0  1  0.38705130  0.38568195  0.25000000  1
  Sb  Sb1  1  0.00136835  0.61431805  0.25000000  1
  Sb  Sb2  1  0.00051307  0.38502108  0.75000000  1
  Sb  Sb3  1  0.61549200  0.61497892  0.75000000  1
  Sb  Sb4  1  0.60861987  0.00000000  0.25000000  1
loop_
_geom_bond_atom_site_label_1
_geom_bond_atom_site_label_2
_geom_bond_distance
_geom_bond_site_symmetry_2
Hf0 Zn1 2.712457 1_665
Hf0 Zn0 2.712457 1_664
Hf0 Sb1 2.938286 1_655
Hf0 Sb4 2.952928 1_565
Hf0 Sb0 2.976373 1_555
Hf0 Sb3 3.053319 1_554
Hf0 Sb3 3.053319 1_555
Hf1 Zn0 2.703241 1_655
Hf1 Zn1 2.703241 1_655
Hf1 Sb2 2.929647 1_655
Hf1 Sb3 2.929647 1_545
Hf1 In0 2.964535 1_555
Hf1 Sb4 3.061741 1_555
Hf1 Sb4 3.061741 1_556
Hf2 Zn1 2.712457 1_655
Hf2 Zn0 2.712457 1_654
Hf2 Sb0 2.938295 1_655
Hf2 Sb4 2.952928 1_555
Hf2 Sb1 2.976377 1_655
Hf2 Sb2 3.053319 1_654
Hf2 Sb2 3.053319 1_655
Hf3 Zn0 2.700187 1_565
Hf3 Zn1 2.700187 1_565
Hf3 In0 2.914505 1_565
Hf3 Sb3 2.924311 1_455
Hf3 Sb2 2.954413 1_555
Hf3 Sb1 3.046069 1_556
Hf3 Sb1 3.046069 1_555
Hf4 Zn0 2.700187 1_555
Hf4 Zn1 2.700187 1_555
Hf4 In0 2.914505 1_555
Hf4 Sb2 2.924311 1_555
Hf4 Sb3 2.954413 1_555
Hf4 Sb0 3.046070 1_556
Hf4 Sb0 3.046070 1_555
Hf5 Zn1 2.682747 1_555
Hf5 Zn0 2.682747 1_554
Hf5 Sb0 2.920021 1_555
Hf5 Sb1 2.920023 1_545
Hf5 Sb4 2.947224 1_555
Hf5 In0 3.055886 1_554
Hf5 In0 3.055886 1_555
Hf6 Hf9 2.867615 1_555
Hf6 Hf9 2.889461 1_554
Hf6 Sb2 3.012240 1_555
Hf6 Sb3 3.013063 1_555
Hf6 Sb1 3.014330 1_555
Hf6 Sb0 3.016957 1_555
Hf6 Sb4 3.017675 1_565
Hf6 In0 3.037668 1_565
Hf7 Hf8 2.867615 1_555
Hf7 Hf8 2.889461 1_556
Hf7 Sb3 3.012249 1_555
Hf7 Sb2 3.013048 1_655
Hf7 Sb0 3.014337 1_556
Hf7 Sb1 3.016943 1_656
Hf7 Sb4 3.017669 1_556
Hf7 In0 3.037674 1_555
Hf8 Sb3 3.012249 1_555
Hf8 Sb2 3.013048 1_655
Hf8 Sb0 3.014337 1_555
Hf8 Sb1 3.016943 1_655
Hf8 Sb4 3.017669 1_555
Hf8 In0 3.037674 1_555
Hf9 Sb2 3.012240 1_555
Hf9 Sb3 3.013063 1_555
Hf9 Sb1 3.014330 1_556
Hf9 Sb0 3.016957 1_556
Hf9 Sb4 3.017675 1_566
Hf9 In0 3.037668 1_565
