# generated using pymatgen
data_Lu10Ga3SiSb4
_symmetry_space_group_name_H-M   'P 1'
_cell_length_a   8.36420512
_cell_length_b   8.36420545
_cell_length_c   7.74173872
_cell_angle_alpha   89.79025426
_cell_angle_beta   89.79026113
_cell_angle_gamma   125.07347088
_symmetry_Int_Tables_number   1
_chemical_formula_structural   Lu10Ga3SiSb4
_chemical_formula_sum   'Lu10 Ga3 Si1 Sb4'
_cell_volume   443.24948160
_cell_formula_units_Z   1
loop_
 _symmetry_equiv_pos_site_id
 _symmetry_equiv_pos_as_xyz
  1  'x, y, z'
loop_
 _atom_site_type_symbol
 _atom_site_label
 _atom_site_symmetry_multiplicity
 _atom_site_fract_x
 _atom_site_fract_y
 _atom_site_fract_z
 _atom_site_occupancy
  Lu  Lu0  1  0.04170719  0.29271093  0.33336974  1
  Lu  Lu1  1  0.95927752  0.70935534  0.66567172  1
  Lu  Lu2  1  0.46018508  0.20521021  0.83416099  1
  Lu  Lu3  1  0.79152259  0.53998729  0.16585268  1
  Lu  Lu4  1  0.53998729  0.79152259  0.16585268  1
  Lu  Lu5  1  0.20521021  0.46018508  0.83416099  1
  Lu  Lu6  1  0.70935534  0.95927752  0.66567172  1
  Lu  Lu7  1  0.29271093  0.04170719  0.33336974  1
  Lu  Lu8  1  0.99894508  0.99894508  0.00053210  1
  Lu  Lu9  1  0.50021376  0.50021376  0.49970796  1
  Ga  Ga0  1  0.36882412  0.36882412  0.12833098  1
  Ga  Ga1  1  0.62970042  0.62970042  0.86964960  1
  Ga  Ga2  1  0.13395141  0.13395141  0.63204431  1
  Si  Si0  1  0.86783029  0.86783029  0.36863128  1
  Sb  Sb0  1  0.79244890  0.20412547  0.00154787  1
  Sb  Sb1  1  0.20412547  0.79244890  0.00154787  1
  Sb  Sb2  1  0.70843014  0.29557425  0.49994889  1
  Sb  Sb3  1  0.29557425  0.70843014  0.49994889  1
loop_
_geom_bond_atom_site_label_1
_geom_bond_atom_site_label_2
_geom_bond_distance
_geom_bond_site_symmetry_2
Lu0 Si0 2.978122 1_445
Lu0 Sb2 3.079774 1_455
Lu0 Sb0 3.126108 1_455
Lu0 Sb3 3.135292 1_555
Lu1 Si0 2.964118 1_555
Lu1 Sb3 3.091428 1_655
Lu1 Sb2 3.119818 1_555
Lu1 Sb1 3.139264 1_656
Lu2 Sb0 3.075408 1_556
Lu2 Sb1 3.103975 1_546
Lu2 Sb2 3.117673 1_555
Lu3 Si0 2.901489 1_555
Lu3 Sb1 3.091946 1_655
Lu3 Sb0 3.092064 1_555
Lu3 Sb2 3.109251 1_555
Lu4 Si0 2.901489 1_555
Lu4 Sb0 3.091946 1_565
Lu4 Sb1 3.092064 1_555
Lu4 Sb3 3.109251 1_555
Lu5 Sb1 3.075408 1_556
Lu5 Sb0 3.103975 1_456
Lu5 Sb3 3.117673 1_555
Lu6 Si0 2.964118 1_555
Lu6 Sb2 3.091428 1_565
Lu6 Sb3 3.119818 1_555
Lu6 Sb0 3.139264 1_566
Lu7 Si0 2.978122 1_445
Lu7 Sb3 3.079774 1_545
Lu7 Sb1 3.126108 1_545
Lu7 Sb2 3.135292 1_555
Lu8 Si0 3.016350 1_555
Lu8 Sb1 3.055319 1_655
Lu8 Sb0 3.055319 1_565
Lu9 Si0 3.004573 1_555
Lu9 Sb2 3.064089 1_555
Lu9 Sb3 3.064089 1_555
Ga0 Ga1 2.827931 1_554
Ga0 Lu7 2.893106 1_555
Ga0 Lu0 2.893106 1_555
Ga0 Lu3 2.971107 1_555
Ga0 Lu4 2.971107 1_555
Ga0 Lu5 2.975759 1_554
Ga0 Lu2 2.975759 1_554
Ga0 Lu8 3.027610 1_445
Ga0 Lu9 3.056135 1_555
Ga1 Lu6 2.895927 1_555
Ga1 Lu1 2.895927 1_555
Ga1 Lu3 2.971677 1_556
Ga1 Lu4 2.971677 1_556
Ga1 Lu5 2.986053 1_555
Ga1 Lu2 2.986053 1_555
Ga1 Lu8 3.031060 1_556
Ga1 Lu9 3.040690 1_555
Ga2 Lu2 2.901439 1_555
Ga2 Lu5 2.901440 1_555
Ga2 Si0 2.905205 1_445
Ga2 Lu6 2.973586 1_445
Ga2 Lu1 2.973586 1_445
Ga2 Lu0 2.978789 1_555
Ga2 Lu7 2.978789 1_555
Ga2 Lu9 2.997987 1_555
Ga2 Lu8 3.029151 1_446
