# generated using pymatgen
data_Y2As2Cl2O5
_symmetry_space_group_name_H-M   'P 1'
_cell_length_a   6.63937078
_cell_length_b   6.86146792
_cell_length_c   9.56285173
_cell_angle_alpha   110.48454813
_cell_angle_beta   96.95359988
_cell_angle_gamma   99.75585374
_symmetry_Int_Tables_number   1
_chemical_formula_structural   Y2As2Cl2O5
_chemical_formula_sum   'Y4 As4 Cl4 O10'
_cell_volume   394.44473048
_cell_formula_units_Z   2
loop_
 _symmetry_equiv_pos_site_id
 _symmetry_equiv_pos_as_xyz
  1  'x, y, z'
loop_
 _atom_site_type_symbol
 _atom_site_label
 _atom_site_symmetry_multiplicity
 _atom_site_fract_x
 _atom_site_fract_y
 _atom_site_fract_z
 _atom_site_occupancy
  Y  Y0  1  0.38566885  0.75927009  0.54769152  1
  Y  Y1  1  0.61433115  0.24072991  0.45230848  1
  Y  Y2  1  0.84512497  0.73751588  0.34700585  1
  Y  Y3  1  0.15487503  0.26248412  0.65299415  1
  As  As0  1  0.89501404  0.79354611  0.70484018  1
  As  As1  1  0.10498596  0.20645389  0.29515982  1
  As  As2  1  0.69166509  0.24287036  0.79265817  1
  As  As3  1  0.30833491  0.75712964  0.20734183  1
  Cl  Cl0  1  0.35288811  0.67959232  0.80362311  1
  Cl  Cl1  1  0.64711189  0.32040768  0.19637689  1
  Cl  Cl2  1  0.85454102  0.75910793  0.07717997  1
  Cl  Cl3  1  0.14545898  0.24089207  0.92282003  1
  O  O0  1  0.84136728  0.33526059  0.67875057  1
  O  O1  1  0.15863272  0.66473941  0.32124943  1
  O  O2  1  0.54205423  0.84196575  0.35919759  1
  O  O3  1  0.45794577  0.15803425  0.64080241  1
  O  O4  1  0.70882779  0.96211648  0.70403071  1
  O  O5  1  0.29117221  0.03788352  0.29596929  1
  O  O6  1  0.71740545  0.60406792  0.53039927  1
  O  O7  1  0.28259455  0.39593208  0.46960073  1
  O  O8  1  0.06213957  0.88432359  0.59192160  1
  O  O9  1  0.93786043  0.11567641  0.40807840  1
loop_
_geom_bond_atom_site_label_1
_geom_bond_atom_site_label_2
_geom_bond_distance
_geom_bond_site_symmetry_2
As0 O8 1.819849 1_655
As0 O6 1.830226 1_555
As0 O4 1.831522 1_555
As1 O9 1.819849 1_455
As1 O7 1.830226 1_555
As1 O5 1.831522 1_555
As2 O0 1.763014 1_555
As2 O4 1.843177 1_545
As2 O3 1.847213 1_555
As3 O1 1.763014 1_555
As3 O5 1.843177 1_565
As3 O2 1.847213 1_555
Cl0 Y0 2.713181 1_555
Cl0 Y3 2.715715 1_555
Cl1 Y1 2.713181 1_555
Cl1 Y2 2.715715 1_555
Cl2 Y2 2.643352 1_555
Cl3 Y3 2.643352 1_555
O0 Y3 2.243422 1_655
O0 Y1 2.297225 1_555
O1 Y2 2.243422 1_455
O1 Y0 2.297225 1_555
O2 Y2 2.250159 1_555
O2 Y0 2.370345 1_555
O2 Y1 2.501161 1_565
O3 Y3 2.250159 1_555
O3 Y1 2.370345 1_555
O3 Y0 2.501161 1_545
O4 Y0 2.351741 1_555
O5 Y1 2.351741 1_555
O6 Y1 2.288281 1_555
O6 Y2 2.419515 1_555
O6 Y0 2.602368 1_555
O7 Y0 2.288281 1_555
O7 Y3 2.419515 1_555
O7 Y1 2.602368 1_555
O8 Y2 2.369788 1_455
O8 Y3 2.400772 1_565
O8 Y0 2.473821 1_555
O9 Y3 2.369788 1_655
O9 Y2 2.400772 1_545
O9 Y1 2.473821 1_555
