# generated using pymatgen
data_Hf5Zr5(BePb3)2
_symmetry_space_group_name_H-M   'P 1'
_cell_length_a   8.65523248
_cell_length_b   8.65523259
_cell_length_c   5.86351516
_cell_angle_alpha   90.00000000
_cell_angle_beta   90.00000000
_cell_angle_gamma   120.02308111
_symmetry_Int_Tables_number   1
_chemical_formula_structural   Hf5Zr5(BePb3)2
_chemical_formula_sum   'Hf5 Zr5 Be2 Pb6'
_cell_volume   380.31644850
_cell_formula_units_Z   1
loop_
 _symmetry_equiv_pos_site_id
 _symmetry_equiv_pos_as_xyz
  1  'x, y, z'
loop_
 _atom_site_type_symbol
 _atom_site_label
 _atom_site_symmetry_multiplicity
 _atom_site_fract_x
 _atom_site_fract_y
 _atom_site_fract_z
 _atom_site_occupancy
  Hf  Hf0  1  0.66659499  0.33288333  0.99977394  1
  Hf  Hf1  1  0.33288333  0.66659499  0.99977394  1
  Hf  Hf2  1  0.33288333  0.66659499  0.50022606  1
  Hf  Hf3  1  0.66659499  0.33288333  0.50022606  1
  Hf  Hf4  1  0.75459266  0.75459266  0.75000000  1
  Zr  Zr0  1  0.24747736  0.00042967  0.75000000  1
  Zr  Zr1  1  0.00042967  0.24747736  0.75000000  1
  Zr  Zr2  1  0.24547424  0.24547424  0.25000000  1
  Zr  Zr3  1  0.75477627  0.99882455  0.25000000  1
  Zr  Zr4  1  0.99882455  0.75477627  0.25000000  1
  Be  Be0  1  0.00002434  0.00002434  0.99519227  1
  Be  Be1  1  0.00002434  0.00002434  0.50480773  1
  Pb  Pb0  1  0.39226653  0.39226653  0.75000000  1
  Pb  Pb1  1  0.60964396  0.99919049  0.75000000  1
  Pb  Pb2  1  0.99919049  0.60964396  0.75000000  1
  Pb  Pb3  1  0.60752048  0.60752048  0.25000000  1
  Pb  Pb4  1  0.39108661  0.99970988  0.25000000  1
  Pb  Pb5  1  0.99970988  0.39108661  0.25000000  1
loop_
_geom_bond_atom_site_label_1
_geom_bond_atom_site_label_2
_geom_bond_distance
_geom_bond_site_symmetry_2
Hf0 Pb5 3.043974 1_556
Hf0 Pb0 3.044335 1_555
Hf0 Pb2 3.044560 1_555
Hf0 Pb4 3.045229 1_546
Hf0 Pb3 3.046427 1_556
Hf0 Pb1 3.050389 1_545
Hf1 Pb4 3.043974 1_556
Hf1 Pb0 3.044335 1_555
Hf1 Pb1 3.044560 1_555
Hf1 Pb5 3.045229 1_456
Hf1 Pb3 3.046427 1_556
Hf1 Pb2 3.050389 1_455
Hf2 Pb4 3.043974 1_555
Hf2 Pb0 3.044335 1_555
Hf2 Pb1 3.044560 1_555
Hf2 Pb5 3.045229 1_455
Hf2 Pb3 3.046427 1_555
Hf2 Pb2 3.050389 1_455
Hf3 Pb5 3.043974 1_555
Hf3 Pb0 3.044335 1_555
Hf3 Pb2 3.044560 1_555
Hf3 Pb4 3.045229 1_545
Hf3 Pb3 3.046427 1_555
Hf3 Pb1 3.050389 1_545
Hf4 Pb2 2.951892 1_555
Hf4 Pb1 2.951892 1_555
Hf4 Pb0 3.134923 1_555
Hf4 Pb3 3.196007 1_555
Hf4 Pb3 3.196007 1_556
Be0 Hf4 2.564433 1_445
Be0 Zr0 2.578099 1_555
Be0 Zr1 2.578099 1_555
Be0 Zr3 2.591536 1_446
Be0 Zr4 2.591536 1_446
Be0 Zr2 2.596590 1_556
Be1 Hf4 2.564433 1_445
Be1 Zr0 2.578099 1_555
Be1 Zr1 2.578099 1_555
Be1 Zr3 2.591536 1_445
Be1 Zr4 2.591536 1_445
Be1 Zr2 2.596590 1_555
Pb0 Zr1 2.969725 1_555
Pb0 Zr0 2.969725 1_555
Pb0 Zr2 3.195043 1_556
Pb0 Zr2 3.195043 1_555
Pb1 Zr1 2.963898 1_665
Pb1 Zr0 3.140016 1_565
Pb1 Zr3 3.190159 1_556
Pb1 Zr3 3.190159 1_555
Pb2 Zr0 2.963898 1_665
Pb2 Zr1 3.140016 1_655
Pb2 Zr4 3.190159 1_556
Pb2 Zr4 3.190159 1_555
Pb3 Zr4 2.962330 1_555
Pb3 Zr3 2.962330 1_555
Pb3 Zr2 3.132501 1_555
Pb4 Zr2 2.965783 1_565
Pb4 Zr4 2.969600 1_455
Pb4 Zr3 3.151660 1_555
Pb4 Zr0 3.185588 1_564
Pb4 Zr0 3.185588 1_565
Pb5 Zr2 2.965783 1_655
Pb5 Zr3 2.969600 1_545
Pb5 Zr4 3.151660 1_555
Pb5 Zr1 3.185588 1_655
Pb5 Zr1 3.185588 1_654
