# generated using pymatgen
data_ZrZnIrRh
_symmetry_space_group_name_H-M   'P 1'
_cell_length_a   4.44714025
_cell_length_b   4.44714066
_cell_length_c   4.44714041
_cell_angle_alpha   60.00000910
_cell_angle_beta   60.00000608
_cell_angle_gamma   60.00001125
_symmetry_Int_Tables_number   1
_chemical_formula_structural   ZrZnIrRh
_chemical_formula_sum   'Zr1 Zn1 Ir1 Rh1'
_cell_volume   62.19101180
_cell_formula_units_Z   1
loop_
 _symmetry_equiv_pos_site_id
 _symmetry_equiv_pos_as_xyz
  1  'x, y, z'
loop_
 _atom_site_type_symbol
 _atom_site_label
 _atom_site_symmetry_multiplicity
 _atom_site_fract_x
 _atom_site_fract_y
 _atom_site_fract_z
 _atom_site_occupancy
  Zr  Zr0  1  0.00000000  0.00000000  0.00000000  1
  Zn  Zn0  1  0.50000000  0.50000000  0.50000000  1
  Ir  Ir0  1  0.25000000  0.25000000  0.25000000  1
  Rh  Rh0  1  0.75000000  0.75000000  0.75000000  1
loop_
_geom_bond_atom_site_label_1
_geom_bond_atom_site_label_2
_geom_bond_distance
_geom_bond_site_symmetry_2
Ir0 Zn0 2.723306 1_555
Ir0 Zr0 2.723306 1_555
Ir0 Zr0 2.723306 1_655
Ir0 Zn0 2.723306 1_455
Ir0 Zr0 2.723306 1_556
Ir0 Zn0 2.723306 1_554
Ir0 Zr0 2.723307 1_565
Ir0 Zn0 2.723307 1_545
Rh0 Zn0 2.723306 1_555
Rh0 Zr0 2.723306 1_666
Rh0 Zn0 2.723306 1_655
Rh0 Zr0 2.723306 1_566
Rh0 Zr0 2.723306 1_665
Rh0 Zn0 2.723306 1_556
Rh0 Zn0 2.723307 1_565
Rh0 Zr0 2.723307 1_656
