# generated using pymatgen
data_Rb2SiMoN4
_symmetry_space_group_name_H-M   'P 1'
_cell_length_a   5.75563549
_cell_length_b   8.13677087
_cell_length_c   11.56909743
_cell_angle_alpha   90.57665862
_cell_angle_beta   89.87686578
_cell_angle_gamma   90.00105097
_symmetry_Int_Tables_number   1
_chemical_formula_structural   Rb2SiMoN4
_chemical_formula_sum   'Rb8 Si4 Mo4 N16'
_cell_volume   541.77860065
_cell_formula_units_Z   4
loop_
 _symmetry_equiv_pos_site_id
 _symmetry_equiv_pos_as_xyz
  1  'x, y, z'
loop_
 _atom_site_type_symbol
 _atom_site_label
 _atom_site_symmetry_multiplicity
 _atom_site_fract_x
 _atom_site_fract_y
 _atom_site_fract_z
 _atom_site_occupancy
  Rb  Rb0  1  0.73460730  0.15664359  0.00678149  1
  Rb  Rb1  1  0.23185143  0.86851379  0.48019981  1
  Rb  Rb2  1  0.23269709  0.85952166  0.01325521  1
  Rb  Rb3  1  0.73351274  0.12277118  0.49664351  1
  Rb  Rb4  1  0.73437653  0.37672182  0.25026894  1
  Rb  Rb5  1  0.23470673  0.61162696  0.23611177  1
  Rb  Rb6  1  0.29569489  0.60210702  0.76522144  1
  Rb  Rb7  1  0.79639923  0.39585434  0.75148658  1
  Si  Si0  1  0.23638005  0.38671292  0.00699990  1
  Si  Si1  1  0.73583237  0.63253174  0.49856236  1
  Si  Si2  1  0.73691905  0.60277164  0.00130151  1
  Si  Si3  1  0.23368897  0.13671211  0.23522257  1
  Mo  Mo0  1  0.23621068  0.37856327  0.49444708  1
  Mo  Mo1  1  0.73330515  0.87755604  0.24519731  1
  Mo  Mo2  1  0.79027289  0.86765703  0.75723101  1
  Mo  Mo3  1  0.29030033  0.11985164  0.75915405  1
  N  N0  1  0.98851553  0.01323693  0.24452361  1
  N  N1  1  0.46969938  0.00438298  0.24103518  1
  N  N2  1  0.10549629  0.93088437  0.76224847  1
  N  N3  1  0.60522542  0.05992704  0.75896436  1
  N  N4  1  0.24197244  0.24978004  0.36627330  1
  N  N5  1  0.74073667  0.73595184  0.12182700  1
  N  N6  1  0.73819891  0.74326810  0.88092070  1
  N  N7  1  0.22978993  0.23678996  0.62500160  1
  N  N8  1  0.74433774  0.74947712  0.62438843  1
  N  N9  1  0.24083296  0.24873203  0.88167973  1
  N  N10  1  0.23507074  0.26377270  0.12416612  1
  N  N11  1  0.73262055  0.75739898  0.38259940  1
  N  N12  1  0.49395042  0.50846632  0.50311546  1
  N  N13  1  0.98736466  0.49677639  0.99215411  1
  N  N14  1  0.48422307  0.49955800  0.99539482  1
  N  N15  1  0.97521284  0.50547742  0.49762117  1
loop_
_geom_bond_atom_site_label_1
_geom_bond_atom_site_label_2
_geom_bond_distance
_geom_bond_site_symmetry_2
Rb1 Rb5 3.496371 1_555
Rb2 Rb5 3.289506 1_555
Rb4 Rb5 3.458263 1_555
Rb4 Rb5 3.460781 1_655
Rb5 Si0 3.205821 1_555
Mo0 N4 1.807352 1_555
Mo0 N15 1.823032 1_455
Mo0 N12 1.823836 1_555
Mo0 N7 1.910036 1_555
Mo0 Rb5 3.555688 1_555
Mo1 N5 1.825697 1_555
Mo1 N1 1.835916 1_565
Mo1 N0 1.837556 1_565
Mo1 N11 1.874576 1_555
Mo1 Rb5 3.595143 1_555
Mo1 Rb5 3.607738 1_655
Mo2 N6 1.785840 1_555
Mo2 N8 1.824427 1_555
Mo2 N2 1.886687 1_655
Mo2 N3 1.892520 1_565
Mo3 N9 1.777207 1_555
Mo3 N7 1.862118 1_555
Mo3 N2 1.870217 1_545
Mo3 N3 1.877030 1_555
N0 Si3 1.736011 1_655
N0 Rb2 3.258031 1_645
N0 Rb1 3.295979 1_645
N0 Rb4 3.299567 1_555
N0 Rb0 3.338302 1_555
N0 Rb3 3.374245 1_555
N0 Rb5 3.562172 1_645
N1 Si3 1.735223 1_555
N1 Rb2 3.185483 1_545
N1 Rb1 3.285933 1_545
N1 Rb0 3.354708 1_555
N1 Rb4 3.391876 1_555
N1 Rb3 3.455461 1_555
N1 Rb5 3.470161 1_545
N2 Rb6 2.891076 1_555
N2 Rb2 3.057618 1_556
N2 Rb1 3.374969 1_555
N3 Rb7 2.948511 1_555
N3 Rb0 3.058986 1_556
N3 Rb3 3.168339 1_555
N4 Si3 1.766238 1_555
N4 Rb4 3.303267 1_555
N4 Rb5 3.320776 1_555
N4 Rb3 3.375892 1_555
N4 Rb1 3.383293 1_545
N4 Rb4 3.383528 1_455
N4 Rb3 3.452479 1_455
N5 Si2 1.757493 1_555
N5 Rb2 3.258275 1_655
N5 Rb4 3.292471 1_555
N5 Rb5 3.301204 1_655
N5 Rb2 3.343696 1_555
N5 Rb5 3.356268 1_555
N6 Si2 1.810674 1_556
N6 Rb6 3.095352 1_555
N6 Rb7 3.202834 1_555
N6 Rb2 3.365824 1_656
N6 Rb2 3.414032 1_556
N7 Rb7 3.159899 1_455
N7 Rb3 3.348920 1_455
N7 Rb3 3.380145 1_555
N7 Rb6 3.393638 1_555
N7 Rb1 3.418315 1_545
N8 Si1 1.731856 1_555
N8 Rb7 3.258545 1_555
N8 Rb6 3.283527 1_555
N8 Rb3 3.391852 1_565
N8 Rb1 3.406826 1_655
N8 Rb1 3.532027 1_555
N9 Si0 1.824903 1_556
N9 Rb6 3.202908 1_555
N9 Rb7 3.209060 1_455
N9 Rb0 3.282170 1_556
N9 Rb0 3.339035 1_456
N9 Rb2 3.527803 1_546
N10 Si3 1.657226 1_555
N10 Si0 1.692743 1_555
N10 Rb5 3.100764 1_555
N10 Rb0 3.290906 1_555
N10 Rb0 3.300633 1_455
N10 Rb4 3.350045 1_555
N10 Rb4 3.351552 1_455
N10 Rb2 3.518698 1_545
N11 Si1 1.691162 1_555
N11 Rb1 3.215910 1_655
N11 Rb1 3.219518 1_555
N11 Rb3 3.240419 1_565
N11 Rb4 3.441333 1_555
N11 Rb5 3.531591 1_555
N11 Rb5 3.545233 1_655
N12 Si1 1.720677 1_555
N12 Rb1 3.308505 1_555
N12 Rb6 3.319081 1_555
N12 Rb4 3.397118 1_555
N12 Rb3 3.427941 1_555
N12 Rb5 3.541878 1_555
N13 Si2 1.682389 1_556
N13 Si0 1.699974 1_656
N13 Rb7 3.098689 1_555
N13 Rb0 3.132532 1_556
N13 Rb2 3.279037 1_656
N13 Rb6 3.286615 1_655
N13 Rb5 3.290879 1_656
N13 Rb4 3.468659 1_556
N14 Si2 1.680642 1_556
N14 Si0 1.702235 1_556
N14 Rb6 3.003648 1_555
N14 Rb0 3.144495 1_556
N14 Rb5 3.252886 1_556
N14 Rb2 3.271681 1_556
N14 Rb4 3.441543 1_556
N15 Si1 1.722482 1_555
N15 Rb7 3.243530 1_555
N15 Rb1 3.310412 1_655
N15 Rb4 3.341359 1_555
N15 Rb3 3.410505 1_555
N15 Rb5 3.487555 1_655
