# generated using pymatgen
data_Hf8FeCoBi4
_symmetry_space_group_name_H-M   'P 1'
_cell_length_a   8.17015951
_cell_length_b   8.17015897
_cell_length_c   8.17015784
_cell_angle_alpha   95.85373152
_cell_angle_beta   95.85648340
_cell_angle_gamma   142.74732640
_symmetry_Int_Tables_number   1
_chemical_formula_structural   Hf8FeCoBi4
_chemical_formula_sum   'Hf8 Fe1 Co1 Bi4'
_cell_volume   312.83799106
_cell_formula_units_Z   1
loop_
 _symmetry_equiv_pos_site_id
 _symmetry_equiv_pos_as_xyz
  1  'x, y, z'
loop_
 _atom_site_type_symbol
 _atom_site_label
 _atom_site_symmetry_multiplicity
 _atom_site_fract_x
 _atom_site_fract_y
 _atom_site_fract_z
 _atom_site_occupancy
  Hf  Hf0  1  0.69264861  0.58047160  0.27526836  1
  Hf  Hf1  1  0.58046986  0.30520082  0.88782524  1
  Hf  Hf2  1  0.08262242  0.19479918  0.27527004  1
  Hf  Hf3  1  0.91952814  0.80735238  0.72472896  1
  Hf  Hf4  1  0.19479676  0.91952840  0.11217601  1
  Hf  Hf5  1  0.80735339  0.08262075  0.88782399  1
  Hf  Hf6  1  0.30520124  0.41737925  0.72473264  1
  Hf  Hf7  1  0.41737758  0.69264762  0.11217476  1
  Fe  Fe0  1  0.25000000  0.25000000  0.00000000  1
  Co  Co0  1  0.75000100  0.75000000  0.00000100  1
  Bi  Bi0  1  0.13805138  0.63804807  0.77609014  1
  Bi  Bi1  1  0.36194862  0.13803976  0.49999769  1
  Bi  Bi2  1  0.63804207  0.86195193  0.50000231  1
  Bi  Bi3  1  0.86195793  0.36196024  0.22390986  1
loop_
_geom_bond_atom_site_label_1
_geom_bond_atom_site_label_2
_geom_bond_distance
_geom_bond_site_symmetry_2
Fe0 Hf5 2.642704 1_454
Fe0 Hf6 2.642706 1_554
Fe0 Hf4 2.642711 1_545
Fe0 Hf0 2.642715 1_555
Fe0 Hf1 2.642742 1_554
Fe0 Hf7 2.642755 1_555
Fe0 Hf2 2.642757 1_555
Fe0 Hf3 2.642761 1_444
Co0 Fe0 2.609507 1_665
Co0 Fe0 2.609507 1_555
Co0 Hf4 2.648234 1_655
Co0 Hf0 2.648235 1_555
Co0 Hf5 2.648247 1_564
Co0 Hf6 2.648254 1_554
Co0 Hf1 2.648284 1_554
Co0 Hf2 2.648292 1_665
Co0 Hf7 2.648292 1_555
Co0 Hf3 2.648303 1_554
Bi0 Hf6 3.028807 1_555
Bi0 Hf3 3.028858 1_455
Bi0 Hf7 3.130112 1_556
Bi0 Hf4 3.130232 1_556
Bi0 Hf1 3.248989 1_565
Bi0 Hf5 3.248989 1_455
Bi0 Hf5 3.257951 1_565
Bi0 Hf1 3.258047 1_455
Bi1 Hf4 3.028831 1_545
Bi1 Hf1 3.028856 1_555
Bi1 Hf2 3.130123 1_555
Bi1 Hf6 3.130239 1_555
Bi1 Hf3 3.248979 1_445
Bi1 Hf0 3.248989 1_555
Bi1 Hf0 3.257943 1_445
Bi1 Hf3 3.258024 1_555
Bi2 Hf5 3.028829 1_565
Bi2 Hf7 3.028856 1_555
Bi2 Hf3 3.130118 1_555
Bi2 Hf0 3.130235 1_555
Bi2 Hf6 3.248983 1_665
Bi2 Hf2 3.248985 1_555
Bi2 Hf6 3.257957 1_555
Bi2 Hf2 3.258026 1_665
Bi3 Hf0 3.028823 1_555
Bi3 Hf2 3.028841 1_655
Bi3 Hf1 3.130120 1_554
Bi3 Hf5 3.130232 1_554
Bi3 Hf4 3.248990 1_545
Bi3 Hf7 3.248993 1_655
Bi3 Hf4 3.257951 1_655
Bi3 Hf7 3.258026 1_545
