# generated using pymatgen
data_Os6Pb4O18F
_symmetry_space_group_name_H-M   'P 1'
_cell_length_a   7.95598698
_cell_length_b   7.95598601
_cell_length_c   7.95598191
_cell_angle_alpha   109.47096197
_cell_angle_beta   109.47135432
_cell_angle_gamma   109.47127792
_symmetry_Int_Tables_number   1
_chemical_formula_structural   Os6Pb4O18F
_chemical_formula_sum   'Os6 Pb4 O18 F1'
_cell_volume   387.66833913
_cell_formula_units_Z   1
loop_
 _symmetry_equiv_pos_site_id
 _symmetry_equiv_pos_as_xyz
  1  'x, y, z'
loop_
 _atom_site_type_symbol
 _atom_site_label
 _atom_site_symmetry_multiplicity
 _atom_site_fract_x
 _atom_site_fract_y
 _atom_site_fract_z
 _atom_site_occupancy
  Os  Os0  1  0.49999729  0.36382581  0.86382528  1
  Os  Os1  1  0.49999478  0.63616026  0.13615660  1
  Os  Os2  1  0.36384234  0.86385181  0.49999952  1
  Os  Os3  1  0.63616219  0.13616563  0.49999649  1
  Os  Os4  1  0.86383558  0.49998997  0.36382989  1
  Os  Os5  1  0.13615740  0.49998581  0.63615733  1
  Pb  Pb0  1  0.00000284  0.32645000  0.00000916  1
  Pb  Pb1  1  0.00000196  0.99999973  0.32644578  1
  Pb  Pb2  1  0.67355224  0.67355577  0.67355084  1
  Pb  Pb3  1  0.32644614  0.99999974  0.00000160  1
  O  O0  1  0.70630741  0.34618995  0.06496045  1
  O  O1  1  0.65381254  0.36012230  0.71877361  1
  O  O2  1  0.28123124  0.64134436  0.93503691  1
  O  O3  1  0.63988336  0.29369152  0.35865499  1
  O  O4  1  0.36011633  0.71876877  0.65381143  1
  O  O5  1  0.93504080  0.28123320  0.64134648  1
  O  O6  1  0.06496048  0.70630590  0.34619373  1
  O  O7  1  0.99999544  0.66977589  0.66978020  1
  O  O8  1  0.66977448  0.66977396  0.99999702  1
  O  O9  1  0.71876874  0.65380647  0.36011362  1
  O  O10  1  0.34619540  0.06496517  0.70631390  1
  O  O11  1  0.66977836  0.00000594  0.66978150  1
  O  O12  1  0.99999411  0.33022511  0.33022880  1
  O  O13  1  0.64134824  0.93504130  0.28123058  1
  O  O14  1  0.35865652  0.63988438  0.29369131  1
  O  O15  1  0.29369180  0.35865438  0.63988242  1
  O  O16  1  0.33023162  0.00000690  0.33023693  1
  O  O17  1  0.33022285  0.33022239  0.99999615  1
  F  F0  1  0.99999752  0.99999760  0.99999744  1
loop_
_geom_bond_atom_site_label_1
_geom_bond_atom_site_label_2
_geom_bond_distance
_geom_bond_site_symmetry_2
O0 Os4 1.942462 1_555
O0 Os0 1.956207 1_554
O0 Pb0 2.597517 1_655
O1 Os0 1.942445 1_555
O1 Os3 1.956233 1_555
O1 Pb2 2.597542 1_555
O2 Os5 1.942525 1_555
O2 Os1 1.956148 1_556
O2 Pb3 2.597554 1_556
O3 Os3 1.942444 1_555
O3 Os4 1.956192 1_555
O3 Pb3 2.597541 1_545
O4 Os2 1.942622 1_555
O4 Os5 1.956247 1_555
O4 Pb2 2.597527 1_555
O5 Os3 1.942518 1_555
O5 Os5 1.956106 1_655
O5 Pb0 2.597608 1_656
O6 Os2 1.942543 1_555
O6 Os4 1.956192 1_455
O6 Pb1 2.597549 1_555
O7 Os4 1.999434 1_555
O7 Os5 1.999443 1_655
O7 Pb2 2.617355 1_555
O7 Pb3 2.617399 1_656
O8 Os1 1.999352 1_556
O8 Os0 1.999406 1_555
O8 Pb2 2.617401 1_555
O8 Pb1 2.617416 1_656
O9 Os4 1.942552 1_555
O9 Os1 1.956229 1_555
O9 Pb2 2.597534 1_555
O10 Os0 1.942405 1_555
O10 Os2 1.956194 1_545
O10 Pb3 2.597527 1_546
O11 Os2 1.999339 1_545
O11 Os3 1.999385 1_555
O11 Pb2 2.617390 1_545
O11 Pb0 2.617400 1_656
O12 Os4 1.999242 1_555
O12 Os5 1.999273 1_655
O12 Pb0 2.617387 1_655
O12 Pb1 2.617411 1_645
O13 Os1 1.942538 1_555
O13 Os3 1.956197 1_565
O13 Pb1 2.597548 1_655
O14 Os1 1.942486 1_555
O14 Os2 1.956266 1_555
O14 Pb0 2.597518 1_555
O15 Os5 1.942440 1_555
O15 Os0 1.956188 1_555
O15 Pb1 2.597543 1_545
O16 Os2 1.999206 1_545
O16 Os3 1.999285 1_555
O16 Pb1 2.617384 1_545
O16 Pb3 2.617442 1_545
O17 Os1 1.999344 1_556
O17 Os0 1.999384 1_555
O17 Pb3 2.617399 1_546
O17 Pb0 2.617410 1_556
F0 Pb2 2.597191 1_555
F0 Pb1 2.597200 1_656
F0 Pb3 2.597204 1_656
F0 Pb0 2.597206 1_666
