# generated using pymatgen
data_Ba4NaIr4I
_symmetry_space_group_name_H-M   'P 1'
_cell_length_a   4.40767050
_cell_length_b   4.40767055
_cell_length_c   21.02807966
_cell_angle_alpha   90.00000000
_cell_angle_beta   90.00000000
_cell_angle_gamma   119.99999233
_symmetry_Int_Tables_number   1
_chemical_formula_structural   Ba4NaIr4I
_chemical_formula_sum   'Ba4 Na1 Ir4 I1'
_cell_volume   353.79242132
_cell_formula_units_Z   1
loop_
 _symmetry_equiv_pos_site_id
 _symmetry_equiv_pos_as_xyz
  1  'x, y, z'
loop_
 _atom_site_type_symbol
 _atom_site_label
 _atom_site_symmetry_multiplicity
 _atom_site_fract_x
 _atom_site_fract_y
 _atom_site_fract_z
 _atom_site_occupancy
  Ba  Ba0  1  0.00000000  0.00000000  0.08344159  1
  Ba  Ba1  1  0.00000000  0.00000000  0.87837363  1
  Ba  Ba2  1  0.00000000  0.00000000  0.62162637  1
  Ba  Ba3  1  0.00000000  0.00000000  0.41655841  1
  Na  Na0  1  0.33333300  0.66666700  0.25000000  1
  Ir  Ir0  1  0.33333300  0.66666700  0.51773513  1
  Ir  Ir1  1  0.66666700  0.33333300  0.51753394  1
  Ir  Ir2  1  0.66666700  0.33333300  0.98246606  1
  Ir  Ir3  1  0.33333300  0.66666700  0.98226487  1
  I  I0  1  0.66666700  0.33333300  0.75000000  1
loop_
_geom_bond_atom_site_label_1
_geom_bond_atom_site_label_2
_geom_bond_distance
_geom_bond_site_symmetry_2
Ba0 Ir2 3.314262 1_454
Ba0 Ir2 3.314265 1_554
Ba0 Ir2 3.314265 1_444
Ba0 Ir3 3.316974 1_544
Ba0 Ir3 3.316977 1_444
Ba0 Ir3 3.316977 1_554
Ba0 Na0 4.329281 1_545
Ba0 Na0 4.329283 1_445
Ba0 Na0 4.329283 1_555
Ba1 Ir3 3.353873 1_545
Ba1 Ir3 3.353876 1_445
Ba1 Ir3 3.353876 1_555
Ba1 Ir2 3.356630 1_455
Ba1 Ir2 3.356633 1_555
Ba1 Ir2 3.356633 1_445
Ba1 I0 3.709835 1_455
Ba1 I0 3.709838 1_555
Ba1 I0 3.709838 1_445
Ba2 Ir0 3.353873 1_545
Ba2 Ir0 3.353876 1_445
Ba2 Ir0 3.353876 1_555
Ba2 Ir1 3.356630 1_455
Ba2 Ir1 3.356633 1_555
Ba2 Ir1 3.356633 1_445
Ba2 I0 3.709835 1_455
Ba2 I0 3.709838 1_555
Ba2 I0 3.709838 1_445
Ba3 Ir1 3.314262 1_455
Ba3 Ir1 3.314265 1_555
Ba3 Ir1 3.314265 1_445
Ba3 Ir0 3.316974 1_545
Ba3 Ir0 3.316977 1_445
Ba3 Ir0 3.316977 1_555
Ba3 Na0 4.329281 1_545
Ba3 Na0 4.329283 1_445
Ba3 Na0 4.329283 1_555
Ir0 Ir1 2.544771 1_455
Ir0 Ir1 2.544771 1_565
Ir0 Ir1 2.544778 1_555
Ir2 Ir3 2.544771 1_655
Ir2 Ir3 2.544771 1_545
Ir2 Ir3 2.544778 1_555
