# generated using pymatgen
data_Sr6Sn8BiSe
_symmetry_space_group_name_H-M   'P 1'
_cell_length_a   8.94217672
_cell_length_b   8.94217656
_cell_length_c   8.94217748
_cell_angle_alpha   120.00959762
_cell_angle_beta   120.00959885
_cell_angle_gamma   89.98337701
_symmetry_Int_Tables_number   1
_chemical_formula_structural   Sr6Sn8BiSe
_chemical_formula_sum   'Sr6 Sn8 Bi1 Se1'
_cell_volume   505.53559760
_cell_formula_units_Z   1
loop_
 _symmetry_equiv_pos_site_id
 _symmetry_equiv_pos_as_xyz
  1  'x, y, z'
loop_
 _atom_site_type_symbol
 _atom_site_label
 _atom_site_symmetry_multiplicity
 _atom_site_fract_x
 _atom_site_fract_y
 _atom_site_fract_z
 _atom_site_occupancy
  Sr  Sr0  1  0.26058215  0.26058215  0.00000000  1
  Sr  Sr1  1  0.73941785  0.73941785  1.00000000  1
  Sr  Sr2  1  0.17576414  0.65806445  0.83382959  1
  Sr  Sr3  1  0.82423586  0.34193555  0.16617041  1
  Sr  Sr4  1  0.65806445  0.82423586  0.48229932  1
  Sr  Sr5  1  0.34193555  0.17576414  0.51770068  1
  Sn  Sn0  1  0.83803518  0.33097863  0.78580822  1
  Sn  Sn1  1  0.16196482  0.66902137  0.21419178  1
  Sn  Sn2  1  0.54517040  0.05222696  0.21419178  1
  Sn  Sn3  1  0.33097863  0.54517040  0.49294345  1
  Sn  Sn4  1  0.94777304  0.16196482  0.49294345  1
  Sn  Sn5  1  0.45482960  0.94777304  0.78580822  1
  Sn  Sn6  1  0.66902137  0.45482960  0.50705655  1
  Sn  Sn7  1  0.05222696  0.83803518  0.50705655  1
  Bi  Bi0  1  0.00000000  0.00000000  0.00000000  1
  Se  Se0  1  0.50000000  0.50000000  0.00000000  1
loop_
_geom_bond_atom_site_label_1
_geom_bond_atom_site_label_2
_geom_bond_distance
_geom_bond_site_symmetry_2
Sn0 Sn6 2.952303 1_555
Sn0 Sn4 2.952303 1_555
Sn0 Sn1 3.086268 1_656
Sn0 Sr3 3.417588 1_556
Sn0 Sr0 3.508170 1_656
Sn0 Sr1 3.532128 1_555
Sn0 Sr5 3.659305 1_555
Sn0 Sr4 3.717883 1_545
Sn0 Sr2 3.912972 1_655
Sn1 Sn3 2.952303 1_555
Sn1 Sn7 2.952303 1_555
Sn1 Sr2 3.417588 1_554
Sn1 Sr1 3.508170 1_454
Sn1 Sr0 3.532128 1_555
Sn1 Sr4 3.659305 1_555
Sn1 Sr5 3.717883 1_565
Sn1 Sr3 3.912972 1_455
Sn2 Sn6 2.952303 1_555
Sn2 Sn4 2.952303 1_555
Sn2 Sn5 3.086269 1_544
Sn2 Sr2 3.417596 1_544
Sn2 Sr0 3.508170 1_555
Sn2 Sr1 3.532128 1_544
Sn2 Sr4 3.659296 1_545
Sn2 Sr5 3.717891 1_555
Sn2 Sr3 3.912984 1_555
Sn3 Sn5 2.952303 1_555
Sn3 Sn6 3.086268 1_555
Sn3 Sr5 3.417601 1_555
Sn3 Sr0 3.508171 1_555
Sn3 Sr1 3.532128 1_555
Sn3 Sr2 3.659312 1_555
Sn3 Sr3 3.717883 1_455
Sn3 Sr4 3.912984 1_555
Sn4 Sn7 3.086268 1_645
Sn4 Sr5 3.417592 1_655
Sn4 Sr1 3.508170 1_544
Sn4 Sr0 3.532128 1_656
Sn4 Sr2 3.659303 1_655
Sn4 Sr3 3.717891 1_555
Sn4 Sr4 3.912971 1_545
Sn5 Sn7 2.952303 1_555
Sn5 Sr3 3.417596 1_566
Sn5 Sr1 3.508170 1_555
Sn5 Sr0 3.532128 1_566
Sn5 Sr5 3.659296 1_565
Sn5 Sr4 3.717891 1_555
Sn5 Sr2 3.912984 1_555
Sn6 Sr4 3.417601 1_555
Sn6 Sr1 3.508171 1_555
Sn6 Sr0 3.532128 1_555
Sn6 Sr3 3.659312 1_555
Sn6 Sr2 3.717883 1_655
Sn6 Sr5 3.912984 1_555
Sn7 Sr4 3.417592 1_455
Sn7 Sr0 3.508170 1_566
Sn7 Sr1 3.532128 1_454
Sn7 Sr3 3.659303 1_455
Sn7 Sr2 3.717891 1_555
Sn7 Sr5 3.912971 1_565
Bi0 Sr0 3.295838 1_555
Bi0 Sr1 3.295838 1_444
Bi0 Sr3 3.437449 1_455
Bi0 Sr2 3.437449 1_544
Bi0 Sr5 3.437457 1_555
Bi0 Sr4 3.437457 1_444
Se0 Sr1 3.028153 1_554
Se0 Sr0 3.028153 1_555
Se0 Sr4 3.225078 1_555
Se0 Sr5 3.225078 1_554
Se0 Sr3 3.225082 1_555
Se0 Sr2 3.225082 1_554
