# generated using pymatgen
data_NbHO3
_symmetry_space_group_name_H-M   'P 1'
_cell_length_a   6.70368900
_cell_length_b   6.72474343
_cell_length_c   6.74155733
_cell_angle_alpha   109.23208977
_cell_angle_beta   109.29343797
_cell_angle_gamma   109.21581789
_symmetry_Int_Tables_number   1
_chemical_formula_structural   NbHO3
_chemical_formula_sum   'Nb4 H4 O12'
_cell_volume   235.87373227
_cell_formula_units_Z   4
loop_
 _symmetry_equiv_pos_site_id
 _symmetry_equiv_pos_as_xyz
  1  'x, y, z'
loop_
 _atom_site_type_symbol
 _atom_site_label
 _atom_site_symmetry_multiplicity
 _atom_site_fract_x
 _atom_site_fract_y
 _atom_site_fract_z
 _atom_site_occupancy
  Nb  Nb0  1  0.53201400  0.52885800  0.54179100  1
  Nb  Nb1  1  0.50700800  0.02780500  0.02794000  1
  Nb  Nb2  1  0.03665800  0.51875400  0.03075000  1
  Nb  Nb3  1  0.98731100  0.02264700  0.51570600  1
  H  H0  1  0.05238000  0.73151900  0.68068900  1
  H  H1  1  0.68769700  0.04922200  0.74097000  1
  H  H2  1  0.30349600  0.05135400  0.35663400  1
  H  H3  1  0.74296900  0.68901000  0.04729200  1
  O  O0  1  0.09133400  0.30089700  0.79348400  1
  O  O1  1  0.71244100  0.81730300  0.52211800  1
  O  O2  1  0.51138700  0.69990900  0.80585700  1
  O  O3  1  0.20407400  0.49757900  0.29056500  1
  O  O4  1  0.29225400  0.81259900  0.09880500  1
  O  O5  1  0.79495500  0.08115100  0.28419000  1
  O  O6  1  0.17415100  0.87957000  0.69851800  1
  O  O7  1  0.70067100  0.17647800  0.87997500  1
  O  O8  1  0.81175000  0.52098400  0.70753700  1
  O  O9  1  0.50156600  0.29591700  0.20274600  1
  O  O10  1  0.29366800  0.17527300  0.47671100  1
  O  O11  1  0.87821900  0.69517200  0.17372300  1
loop_
_geom_bond_atom_site_label_1
_geom_bond_atom_site_label_2
_geom_bond_distance
_geom_bond_site_symmetry_2
Nb0 O2 1.851960 1_555
Nb0 O8 1.867524 1_555
Nb0 O1 1.993534 1_555
Nb0 O3 2.178575 1_555
Nb0 O10 2.178965 1_555
Nb0 O9 2.200529 1_555
Nb1 O9 1.820110 1_555
Nb1 O5 1.942020 1_555
Nb1 O4 1.983365 1_545
Nb1 O7 2.082898 1_554
Nb1 O6 2.169676 1_544
Nb1 O2 2.236358 1_544
Nb2 O3 1.821619 1_555
Nb2 O4 1.924994 1_555
Nb2 O0 2.009053 1_554
Nb2 O11 2.053589 1_455
Nb2 O8 2.210603 1_454
Nb2 O7 2.222031 1_454
Nb3 O0 1.861205 1_655
Nb3 O5 1.913667 1_555
Nb3 O1 1.929013 1_545
Nb3 O10 2.118330 1_655
Nb3 O6 2.137253 1_645
Nb3 O11 2.276118 1_545
H0 O6 0.996691 1_555
H1 O7 0.993431 1_555
H2 O10 0.990477 1_555
H3 O11 0.995786 1_555
