# generated using pymatgen
data_Al4Hg11(AsCl4)4
_symmetry_space_group_name_H-M   'P 1'
_cell_length_a   7.57397333
_cell_length_b   7.57397334
_cell_length_c   23.24885618
_cell_angle_alpha   81.27243577
_cell_angle_beta   81.27243656
_cell_angle_gamma   60.03834261
_symmetry_Int_Tables_number   1
_chemical_formula_structural   Al4Hg11(AsCl4)4
_chemical_formula_sum   'Al4 Hg11 As4 Cl16'
_cell_volume   1137.55971500
_cell_formula_units_Z   1
loop_
 _symmetry_equiv_pos_site_id
 _symmetry_equiv_pos_as_xyz
  1  'x, y, z'
loop_
 _atom_site_type_symbol
 _atom_site_label
 _atom_site_symmetry_multiplicity
 _atom_site_fract_x
 _atom_site_fract_y
 _atom_site_fract_z
 _atom_site_occupancy
  Al  Al0  1  0.62727295  0.62727295  0.62436738  1
  Al  Al1  1  0.37272705  0.37272705  0.37563262  1
  Al  Al2  1  0.21561490  0.21561490  0.87743807  1
  Al  Al3  1  0.78438510  0.78438510  0.12256193  1
  Hg  Hg0  1  0.52018484  0.52018484  0.94291739  1
  Hg  Hg1  1  0.47981516  0.47981516  0.05708261  1
  Hg  Hg2  1  0.96222703  0.96222703  0.61544293  1
  Hg  Hg3  1  0.03777297  0.03777297  0.38455707  1
  Hg  Hg4  1  0.00000000  0.00000000  0.50000000  1
  Hg  Hg5  1  0.74483237  0.74483237  0.78117742  1
  Hg  Hg6  1  0.25516763  0.25516763  0.21882258  1
  Hg  Hg7  1  0.24283515  0.74444650  0.78054023  1
  Hg  Hg8  1  0.74444650  0.24283515  0.78054023  1
  Hg  Hg9  1  0.75716485  0.25555350  0.21945977  1
  Hg  Hg10  1  0.25555350  0.75716485  0.21945977  1
  As  As0  1  0.56122315  0.56122315  0.83187453  1
  As  As1  1  0.43877685  0.43877685  0.16812547  1
  As  As2  1  0.92675404  0.92675404  0.72881471  1
  As  As3  1  0.07324596  0.07324596  0.27118529  1
  Cl  Cl0  1  0.24356573  0.24356573  0.78344068  1
  Cl  Cl1  1  0.75643427  0.75643427  0.21655932  1
  Cl  Cl2  1  0.05128480  0.05128480  0.90729685  1
  Cl  Cl3  1  0.94871520  0.94871520  0.09270315  1
  Cl  Cl4  1  0.46373048  0.92173941  0.65929773  1
  Cl  Cl5  1  0.92173941  0.46373048  0.65929773  1
  Cl  Cl6  1  0.53626952  0.07826059  0.34070227  1
  Cl  Cl7  1  0.07826059  0.53626952  0.34070227  1
  Cl  Cl8  1  0.46365675  0.46365675  0.65937183  1
  Cl  Cl9  1  0.53634325  0.53634325  0.34062817  1
  Cl  Cl10  1  0.05262045  0.51827259  0.90616557  1
  Cl  Cl11  1  0.51827259  0.05262045  0.90616557  1
  Cl  Cl12  1  0.94737955  0.48172741  0.09383443  1
  Cl  Cl13  1  0.48172741  0.94737955  0.09383443  1
  Cl  Cl14  1  0.65577688  0.65577688  0.53195533  1
  Cl  Cl15  1  0.34422312  0.34422312  0.46804467  1
loop_
_geom_bond_atom_site_label_1
_geom_bond_atom_site_label_2
_geom_bond_distance
_geom_bond_site_symmetry_2
Al0 Cl14 2.115229 1_555
Al0 Cl5 2.157069 1_555
Al0 Cl4 2.157069 1_555
Al0 Cl8 2.157648 1_555
Al1 Cl15 2.115229 1_555
Al1 Cl7 2.157069 1_555
Al1 Cl6 2.157069 1_555
Al1 Cl9 2.157648 1_555
Al2 Cl2 2.145464 1_555
Al2 Cl11 2.147698 1_555
Al2 Cl10 2.147698 1_555
Al2 Cl0 2.151576 1_555
Al3 Cl3 2.145464 1_555
Al3 Cl13 2.147698 1_555
Al3 Cl12 2.147698 1_555
Al3 Cl1 2.151576 1_555
Hg0 Hg1 2.613929 1_556
Hg2 Hg4 2.642502 1_665
Hg3 Hg4 2.642502 1_555
As0 Hg7 2.488674 1_555
As0 Hg8 2.488674 1_555
As0 Hg5 2.488748 1_555
As0 Hg0 2.543118 1_555
As1 Hg9 2.488674 1_555
As1 Hg10 2.488674 1_555
As1 Hg6 2.488748 1_555
As1 Hg1 2.543118 1_555
As2 Hg7 2.480305 1_655
As2 Hg8 2.480305 1_565
As2 Hg5 2.481389 1_555
As2 Hg2 2.594978 1_555
As3 Hg9 2.480305 1_455
As3 Hg10 2.480305 1_545
As3 Hg6 2.481389 1_555
As3 Hg3 2.594978 1_555
