# generated using pymatgen
data_VCuRh3S8
_symmetry_space_group_name_H-M   'P 1'
_cell_length_a   6.65302916
_cell_length_b   6.65303073
_cell_length_c   6.65302927
_cell_angle_alpha   63.49170267
_cell_angle_beta   63.49171005
_cell_angle_gamma   63.49169877
_symmetry_Int_Tables_number   1
_chemical_formula_structural   VCuRh3S8
_chemical_formula_sum   'V1 Cu1 Rh3 S8'
_cell_volume   224.30922400
_cell_formula_units_Z   1
loop_
 _symmetry_equiv_pos_site_id
 _symmetry_equiv_pos_as_xyz
  1  'x, y, z'
loop_
 _atom_site_type_symbol
 _atom_site_label
 _atom_site_symmetry_multiplicity
 _atom_site_fract_x
 _atom_site_fract_y
 _atom_site_fract_z
 _atom_site_occupancy
  V  V0  1  0.40363411  0.40363411  0.40363411  1
  Cu  Cu0  1  0.98859680  0.98859680  0.98859680  1
  Rh  Rh0  1  0.86177279  0.37447558  0.37447558  1
  Rh  Rh1  1  0.37447558  0.86177279  0.37447558  1
  Rh  Rh2  1  0.37447558  0.37447558  0.86177279  1
  S  S0  1  0.12941064  0.12941064  0.12941064  1
  S  S1  1  0.59024563  0.14093966  0.14093966  1
  S  S2  1  0.14093966  0.59024563  0.14093966  1
  S  S3  1  0.14093966  0.14093966  0.59024563  1
  S  S4  1  0.61809317  0.61809317  0.61809317  1
  S  S5  1  0.12285523  0.62728208  0.62728208  1
  S  S6  1  0.62728208  0.12285523  0.62728208  1
  S  S7  1  0.62728208  0.62728208  0.12285523  1
loop_
_geom_bond_atom_site_label_1
_geom_bond_atom_site_label_2
_geom_bond_distance
_geom_bond_site_symmetry_2
Cu0 S0 2.232344 1_666
Cu0 S1 2.280293 1_566
Cu0 S3 2.280293 1_665
Cu0 S2 2.280293 1_656
Rh0 S4 2.352890 1_555
Rh0 S7 2.353881 1_555
Rh0 S6 2.353882 1_555
Rh0 S0 2.382655 1_655
Rh0 S3 2.395291 1_655
Rh0 S2 2.395292 1_655
Rh1 S4 2.352889 1_555
Rh1 S7 2.353881 1_555
Rh1 S5 2.353882 1_555
Rh1 S0 2.382654 1_565
Rh1 S3 2.395291 1_565
Rh1 S1 2.395292 1_565
Rh2 S4 2.352890 1_555
Rh2 S5 2.353881 1_555
Rh2 S6 2.353882 1_555
Rh2 S0 2.382655 1_556
Rh2 S1 2.395291 1_556
Rh2 S2 2.395291 1_556
S1 V0 2.550135 1_555
S2 V0 2.550134 1_555
S3 V0 2.550135 1_555
S5 V0 2.220689 1_555
S6 V0 2.220688 1_555
S7 V0 2.220689 1_555
