# generated using pymatgen
data_Cs8BeHg3H16
_symmetry_space_group_name_H-M   'P 1'
_cell_length_a   6.36568345
_cell_length_b   8.85736774
_cell_length_c   11.26923146
_cell_angle_alpha   90.07763460
_cell_angle_beta   90.00000000
_cell_angle_gamma   90.00000000
_symmetry_Int_Tables_number   1
_chemical_formula_structural   Cs8BeHg3H16
_chemical_formula_sum   'Cs8 Be1 Hg3 H16'
_cell_volume   635.39473939
_cell_formula_units_Z   1
loop_
 _symmetry_equiv_pos_site_id
 _symmetry_equiv_pos_as_xyz
  1  'x, y, z'
loop_
 _atom_site_type_symbol
 _atom_site_label
 _atom_site_symmetry_multiplicity
 _atom_site_fract_x
 _atom_site_fract_y
 _atom_site_fract_z
 _atom_site_occupancy
  Cs  Cs0  1  0.25000000  0.66707481  0.08315786  1
  Cs  Cs1  1  0.25000000  0.15908711  0.40733435  1
  Cs  Cs2  1  0.75000000  0.36569054  0.90809934  1
  Cs  Cs3  1  0.75000000  0.83419200  0.60953003  1
  Cs  Cs4  1  0.25000000  0.97651760  0.81796294  1
  Cs  Cs5  1  0.25000000  0.48870736  0.68977640  1
  Cs  Cs6  1  0.75000000  0.00894287  0.17249512  1
  Cs  Cs7  1  0.75000000  0.51759244  0.31484455  1
  Be  Be0  1  0.75000000  0.75106657  0.91511030  1
  Hg  Hg0  1  0.25000000  0.74129607  0.41491604  1
  Hg  Hg1  1  0.25000000  0.24542691  0.08235850  1
  Hg  Hg2  1  0.75000000  0.25703114  0.58650810  1
  H  H0  1  0.01837669  0.81669418  0.34465161  1
  H  H1  1  0.48309320  0.31844432  0.15218449  1
  H  H2  1  0.51762571  0.18457524  0.65849372  1
  H  H3  1  0.93959190  0.69041024  0.85559227  1
  H  H4  1  0.98237429  0.18457524  0.65849372  1
  H  H5  1  0.56040810  0.69041024  0.85559227  1
  H  H6  1  0.48162331  0.81669418  0.34465161  1
  H  H7  1  0.01690680  0.31844432  0.15218449  1
  H  H8  1  0.25000000  0.53896125  0.40734060  1
  H  H9  1  0.25000000  0.04259767  0.09246674  1
  H  H10  1  0.75000000  0.46003482  0.59849896  1
  H  H11  1  0.75000000  0.91645113  0.90595530  1
  H  H12  1  0.25000000  0.31035645  0.93013203  1
  H  H13  1  0.25000000  0.80767172  0.56766673  1
  H  H14  1  0.75000000  0.69800256  0.03966186  1
  H  H15  1  0.75000000  0.19304904  0.43434209  1
loop_
_geom_bond_atom_site_label_1
_geom_bond_atom_site_label_2
_geom_bond_distance
_geom_bond_site_symmetry_2
Cs0 H14 3.232051 1_455
Cs0 H14 3.232051 1_555
Cs0 H5 3.244253 1_554
Cs0 H3 3.244253 1_454
Cs0 H9 3.327656 1_565
Cs1 H15 3.211441 1_555
Cs1 H15 3.211441 1_455
Cs1 H2 3.310977 1_555
Cs1 H4 3.310977 1_455
Cs1 H8 3.364685 1_555
Cs2 H3 3.175470 1_555
Cs2 H5 3.175470 1_555
Cs2 H12 3.229965 1_555
Cs2 H12 3.229965 1_655
Cs2 H7 3.260534 1_656
Cs2 H1 3.260534 1_556
Cs2 H14 3.293928 1_556
Cs3 H13 3.226131 1_655
Cs3 H13 3.226131 1_555
Cs3 H3 3.282859 1_555
Cs3 H5 3.282859 1_555
Cs3 H10 3.316210 1_555
Cs3 H11 3.418055 1_555
Cs3 H0 3.442598 1_655
Cs3 H6 3.442598 1_555
Cs3 H4 3.481302 1_565
Cs3 H2 3.481302 1_565
Cs4 H2 3.088190 1_565
Cs4 H4 3.088190 1_465
Cs4 H9 3.147551 1_566
Cs4 H13 3.190803 1_555
Cs4 H12 3.214214 1_565
Cs4 H5 3.241775 1_555
Cs4 H3 3.241775 1_455
Cs4 H11 3.376130 1_555
Cs4 H11 3.376130 1_455
Cs5 H12 3.137475 1_555
Cs5 H13 3.144170 1_555
Cs5 H2 3.206344 1_555
Cs5 H4 3.206344 1_455
Cs5 H8 3.214406 1_555
Cs5 H5 3.252520 1_555
Cs5 H3 3.252520 1_455
Cs5 H10 3.354451 1_555
Cs5 H10 3.354451 1_455
Cs6 H0 3.096942 1_645
Cs6 H6 3.096942 1_545
Cs6 H11 3.112344 1_544
Cs6 H14 3.132852 1_545
Cs6 H7 3.233564 1_655
Cs6 H1 3.233564 1_555
Cs6 H9 3.321659 1_555
Cs6 H9 3.321659 1_655
Cs6 H15 3.369486 1_555
Cs7 H7 3.057698 1_655
Cs7 H1 3.057698 1_555
Cs7 H0 3.169795 1_655
Cs7 H6 3.169795 1_555
Cs7 H15 3.176046 1_555
Cs7 H10 3.237648 1_555
Cs7 H8 3.354442 1_655
Cs7 H8 3.354442 1_555
Cs7 H14 3.490517 1_555
Be0 H11 1.468640 1_555
Be0 H14 1.480807 1_556
Be0 H3 1.481249 1_555
Be0 H5 1.481249 1_555
H0 Hg0 1.802330 1_555
H1 Hg1 1.799372 1_555
H2 Hg2 1.805396 1_555
H4 Hg2 1.805396 1_555
H6 Hg0 1.802330 1_555
H7 Hg1 1.799372 1_555
H8 Hg0 1.794070 1_555
H9 Hg1 1.800295 1_555
H10 Hg2 1.802966 1_555
H12 Hg1 1.810048 1_556
H13 Hg0 1.818257 1_555
H15 Hg2 1.805283 1_555
