# generated using pymatgen
data_Na8ZrP4
_symmetry_space_group_name_H-M   'P 1'
_cell_length_a   9.60084648
_cell_length_b   9.60084643
_cell_length_c   9.60084738
_cell_angle_alpha   60.00000340
_cell_angle_beta   60.00000359
_cell_angle_gamma   60.00000413
_symmetry_Int_Tables_number   1
_chemical_formula_structural   Na8ZrP4
_chemical_formula_sum   'Na16 Zr2 P8'
_cell_volume   625.76843564
_cell_formula_units_Z   2
loop_
 _symmetry_equiv_pos_site_id
 _symmetry_equiv_pos_as_xyz
  1  'x, y, z'
loop_
 _atom_site_type_symbol
 _atom_site_label
 _atom_site_symmetry_multiplicity
 _atom_site_fract_x
 _atom_site_fract_y
 _atom_site_fract_z
 _atom_site_occupancy
  Na  Na0  1  0.62500000  0.62500000  0.12500000  1
  Na  Na1  1  0.62500000  0.12500000  0.62500000  1
  Na  Na2  1  0.12500000  0.62500000  0.62500000  1
  Na  Na3  1  0.62500000  0.62500000  0.62500000  1
  Na  Na4  1  0.03110215  0.46889785  0.46889785  1
  Na  Na5  1  0.78110215  0.21889785  0.21889785  1
  Na  Na6  1  0.46889785  0.03110215  0.46889785  1
  Na  Na7  1  0.46889785  0.46889785  0.03110215  1
  Na  Na8  1  0.03110215  0.03110215  0.46889785  1
  Na  Na9  1  0.03110215  0.46889785  0.03110215  1
  Na  Na10  1  0.46889785  0.03110215  0.03110215  1
  Na  Na11  1  0.78110215  0.21889785  0.78110215  1
  Na  Na12  1  0.21889785  0.78110215  0.21889785  1
  Na  Na13  1  0.21889785  0.21889785  0.78110215  1
  Na  Na14  1  0.78110215  0.78110215  0.21889785  1
  Na  Na15  1  0.21889785  0.78110215  0.78110215  1
  Zr  Zr0  1  0.75000000  0.75000000  0.75000000  1
  Zr  Zr1  1  0.50000000  0.50000000  0.50000000  1
  P  P0  1  0.85738875  0.85738875  0.42783475  1
  P  P1  1  0.85738875  0.42783475  0.85738875  1
  P  P2  1  0.39261125  0.39261125  0.82216525  1
  P  P3  1  0.39261125  0.82216525  0.39261125  1
  P  P4  1  0.82216525  0.39261125  0.39261125  1
  P  P5  1  0.85738875  0.85738875  0.85738875  1
  P  P6  1  0.42783475  0.85738875  0.85738875  1
  P  P7  1  0.39261125  0.39261125  0.39261125  1
loop_
_geom_bond_atom_site_label_1
_geom_bond_atom_site_label_2
_geom_bond_distance
_geom_bond_site_symmetry_2
Na0 Zr0 2.939647 1_554
Na0 Zr1 2.939647 1_555
Na0 P4 3.173356 1_555
Na0 P6 3.173356 1_554
Na0 P3 3.173356 1_555
Na0 P1 3.173356 1_554
Na0 P5 3.173362 1_554
Na0 P7 3.173362 1_555
Na1 Zr1 2.939647 1_555
Na1 Zr0 2.939647 1_545
Na1 P4 3.173356 1_555
Na1 P6 3.173356 1_545
Na1 P2 3.173356 1_555
Na1 P0 3.173356 1_545
Na1 P5 3.173362 1_545
Na1 P7 3.173362 1_555
Na2 Zr0 2.939647 1_455
Na2 Zr1 2.939647 1_555
Na2 P3 3.173356 1_555
Na2 P1 3.173356 1_455
Na2 P2 3.173356 1_555
Na2 P0 3.173356 1_455
Na2 P5 3.173362 1_455
Na2 P7 3.173362 1_555
Na3 Zr0 2.939647 1_555
Na3 Zr1 2.939647 1_555
Na3 P0 3.173363 1_555
Na3 P2 3.173363 1_555
Na3 P6 3.173363 1_555
Na3 P4 3.173363 1_555
Na3 P1 3.173363 1_555
Na3 P3 3.173363 1_555
Na4 P7 2.927726 1_555
Na4 P4 2.927735 1_455
Na4 P0 3.132911 1_455
Na4 P1 3.132911 1_455
Na5 P0 2.927728 1_545
Na5 P1 2.927728 1_554
Na5 P4 3.132903 1_555
Na5 P7 3.132909 1_555
Na6 P7 2.927726 1_555
Na6 P3 2.927735 1_545
Na6 P0 3.132911 1_545
Na6 P6 3.132911 1_545
Na7 P7 2.927726 1_555
Na7 P2 2.927735 1_554
Na7 P6 3.132911 1_554
Na7 P1 3.132911 1_554
Na8 P4 2.927728 1_455
Na8 P3 2.927728 1_545
Na8 P0 3.132902 1_445
Na8 P5 3.132909 1_445
Na9 P2 2.927728 1_554
Na9 P4 2.927728 1_455
Na9 P1 3.132903 1_454
Na9 P5 3.132909 1_454
Na10 P2 2.927728 1_554
Na10 P3 2.927728 1_545
Na10 P6 3.132903 1_544
Na10 P5 3.132909 1_544
Na11 P5 2.927726 1_545
Na11 P1 2.927735 1_555
Na11 P2 3.132911 1_555
Na11 P4 3.132911 1_555
Na12 P0 2.927728 1_455
Na12 P6 2.927728 1_554
Na12 P3 3.132903 1_555
Na12 P7 3.132909 1_555
Na13 P6 2.927728 1_545
Na13 P1 2.927728 1_455
Na13 P2 3.132902 1_555
Na13 P7 3.132909 1_555
Na14 P5 2.927726 1_554
Na14 P0 2.927735 1_555
Na14 P4 3.132911 1_555
Na14 P3 3.132911 1_555
Na15 P5 2.927726 1_455
Na15 P6 2.927735 1_555
Na15 P2 3.132911 1_555
Na15 P3 3.132911 1_555
P0 Zr0 2.525473 1_555
P1 Zr0 2.525472 1_555
P2 Zr1 2.525473 1_555
P3 Zr1 2.525472 1_555
P4 Zr1 2.525472 1_555
P5 Zr0 2.525480 1_555
P6 Zr0 2.525472 1_555
P7 Zr1 2.525480 1_555
