# generated using pymatgen
data_Ti17Nb(Si8Tc)2
_symmetry_space_group_name_H-M   'P 1'
_cell_length_a   6.64202907
_cell_length_b   6.64202866
_cell_length_c   12.14000774
_cell_angle_alpha   90.04389207
_cell_angle_beta   89.95610864
_cell_angle_gamma   90.01339876
_symmetry_Int_Tables_number   1
_chemical_formula_structural   Ti17Nb(Si8Tc)2
_chemical_formula_sum   'Ti17 Nb1 Si16 Tc2'
_cell_volume   535.57489805
_cell_formula_units_Z   1
loop_
 _symmetry_equiv_pos_site_id
 _symmetry_equiv_pos_as_xyz
  1  'x, y, z'
loop_
 _atom_site_type_symbol
 _atom_site_label
 _atom_site_symmetry_multiplicity
 _atom_site_fract_x
 _atom_site_fract_y
 _atom_site_fract_z
 _atom_site_occupancy
  Ti  Ti0  1  0.99798129  0.14807243  0.62066529  1
  Ti  Ti1  1  0.35019387  0.49515149  0.87188967  1
  Ti  Ti2  1  0.64995424  0.50445388  0.37254244  1
  Ti  Ti3  1  0.49515149  0.35019387  0.12811033  1
  Ti  Ti4  1  0.50445388  0.64995424  0.62745756  1
  Ti  Ti5  1  0.00205304  0.85200793  0.12156253  1
  Ti  Ti6  1  0.14807243  0.99798129  0.37933471  1
  Ti  Ti7  1  0.85200793  0.00205304  0.87843747  1
  Ti  Ti8  1  0.99910076  0.33898008  0.22179909  1
  Ti  Ti9  1  0.15711606  0.50102961  0.47188875  1
  Ti  Ti10  1  0.84196347  0.49965461  0.97268957  1
  Ti  Ti11  1  0.50102961  0.15711606  0.52811125  1
  Ti  Ti12  1  0.49965461  0.84196347  0.02731043  1
  Ti  Ti13  1  0.00008547  0.66250211  0.72040613  1
  Ti  Ti14  1  0.33898008  0.99910076  0.77820091  1
  Ti  Ti15  1  0.66250211  0.00008547  0.27959387  1
  Ti  Ti16  1  0.82864678  0.82864678  0.50000000  1
  Nb  Nb0  1  0.17175841  0.17175841  0.00000000  1
  Si  Si0  1  0.03818364  0.30473568  0.81123176  1
  Si  Si1  1  0.19929954  0.54884337  0.06680614  1
  Si  Si2  1  0.80155499  0.45446153  0.56596159  1
  Si  Si3  1  0.54884337  0.19929954  0.93319386  1
  Si  Si4  1  0.45446153  0.80155499  0.43403841  1
  Si  Si5  1  0.95949703  0.69777406  0.31422258  1
  Si  Si6  1  0.30473568  0.03818364  0.18876824  1
  Si  Si7  1  0.69777406  0.95949703  0.68577742  1
  Si  Si8  1  0.29439380  0.35929254  0.67255201  1
  Si  Si9  1  0.14142302  0.79087337  0.92323004  1
  Si  Si10  1  0.85701834  0.20644632  0.42475279  1
  Si  Si11  1  0.79087337  0.14142302  0.07676996  1
  Si  Si12  1  0.20644632  0.85701834  0.57524721  1
  Si  Si13  1  0.70557452  0.64084229  0.17374886  1
  Si  Si14  1  0.35929254  0.29439380  0.32744799  1
  Si  Si15  1  0.64084229  0.70557452  0.82625114  1
  Tc  Tc0  1  0.32836146  0.67072196  0.25037219  1
  Tc  Tc1  1  0.67072196  0.32836146  0.74962781  1
loop_
_geom_bond_atom_site_label_1
_geom_bond_atom_site_label_2
_geom_bond_distance
_geom_bond_site_symmetry_2
Nb0 Si6 2.612562 1_555
Nb0 Si0 2.612562 1_554
Nb0 Si1 2.638408 1_555
Nb0 Si3 2.638408 1_554
Nb0 Si9 2.702919 1_544
Nb0 Si11 2.702920 1_455
Si0 Si8 2.420322 1_555
Si0 Ti7 2.497282 1_455
Si0 Ti1 2.536987 1_555
Si0 Ti0 2.550173 1_455
Si0 Tc1 2.558137 1_455
Si0 Ti13 2.632739 1_555
Si0 Ti10 2.685089 1_455
Si0 Ti14 2.876259 1_545
Si1 Si9 2.403283 1_554
Si1 Ti3 2.482177 1_555
Si1 Ti5 2.492155 1_555
Si1 Tc0 2.521149 1_555
Si1 Ti1 2.593498 1_554
Si1 Ti10 2.654928 1_454
Si1 Ti8 2.692763 1_455
Si1 Ti12 2.828146 1_555
Si2 Ti4 2.476884 1_555
Si2 Ti0 2.507836 1_555
Si2 Tc1 2.535314 1_555
Si2 Ti2 2.577358 1_555
Si2 Ti16 2.617862 1_555
Si2 Ti9 2.640716 1_655
Si2 Ti13 2.676315 1_655
Si2 Ti11 2.845041 1_555
Si3 Ti1 2.482177 1_555
Si3 Ti7 2.492155 1_555
Si3 Tc1 2.521149 1_555
Si3 Ti3 2.593498 1_556
Si3 Ti12 2.654928 1_546
Si3 Ti14 2.692763 1_545
Si3 Ti10 2.828146 1_555
Si4 Ti2 2.476884 1_555
Si4 Ti6 2.507837 1_555
Si4 Tc0 2.535314 1_555
Si4 Ti4 2.577358 1_555
Si4 Ti16 2.617862 1_555
Si4 Ti11 2.640716 1_565
Si4 Ti15 2.676315 1_565
Si4 Ti9 2.845041 1_555
Si5 Ti6 2.483456 1_655
Si5 Ti2 2.524887 1_555
Si5 Ti16 2.567464 1_555
Si5 Ti5 2.569493 1_655
Si5 Tc0 2.575414 1_655
Si5 Ti8 2.646343 1_555
Si5 Ti9 2.665092 1_655
Si5 Ti15 2.846822 1_565
Si6 Ti5 2.497282 1_545
Si6 Ti3 2.536986 1_555
Si6 Ti6 2.550173 1_545
Si6 Tc0 2.558137 1_545
Si6 Ti15 2.632739 1_555
Si6 Ti12 2.685089 1_545
Si6 Ti8 2.876259 1_455
Si7 Ti0 2.483456 1_565
Si7 Ti4 2.524887 1_555
Si7 Ti16 2.567464 1_555
Si7 Ti7 2.569493 1_565
Si7 Tc1 2.575414 1_565
Si7 Ti14 2.646343 1_555
Si7 Ti11 2.665092 1_565
Si7 Ti13 2.846822 1_655
Si8 Ti4 2.443909 1_555
Si8 Ti0 2.498068 1_455
Si8 Ti11 2.599106 1_555
Si8 Ti1 2.608780 1_555
Si8 Tc1 2.677644 1_555
Si8 Ti14 2.731652 1_545
Si8 Ti9 2.767550 1_555
Si8 Ti13 2.865828 1_555
Si9 Ti7 2.441811 1_465
Si9 Ti1 2.483431 1_555
Si9 Ti14 2.594975 1_555
Si9 Ti5 2.610434 1_556
Si9 Ti12 2.716012 1_556
Si9 Ti13 2.769672 1_555
Si9 Ti10 2.838367 1_455
Si10 Si2 2.404812 1_555
Si10 Ti6 2.440674 1_645
Si10 Ti2 2.493135 1_555
Si10 Ti15 2.579211 1_555
Si10 Ti0 2.586239 1_555
Si10 Ti16 2.677665 1_545
Si10 Ti11 2.695985 1_555
Si10 Ti8 2.781275 1_555
Si10 Ti9 2.850813 1_655
Si11 Si3 2.403283 1_554
Si11 Ti5 2.441811 1_645
Si11 Ti3 2.483431 1_555
Si11 Ti8 2.594975 1_555
Si11 Ti7 2.610434 1_554
Si11 Ti10 2.716012 1_554
Si11 Ti15 2.769672 1_555
Si11 Ti12 2.838367 1_545
Si12 Si4 2.404812 1_555
Si12 Ti0 2.440674 1_465
Si12 Ti4 2.493135 1_555
Si12 Ti13 2.579211 1_555
Si12 Ti6 2.586239 1_555
Si12 Ti16 2.677665 1_455
Si12 Ti9 2.695985 1_555
Si12 Ti14 2.781275 1_555
Si12 Ti11 2.850813 1_565
Si13 Si5 2.428750 1_555
Si13 Ti3 2.446519 1_555
Si13 Ti5 2.498911 1_655
Si13 Ti2 2.604465 1_555
Si13 Ti12 2.612248 1_555
Si13 Tc0 2.679250 1_555
Si13 Ti15 2.724246 1_565
Si13 Ti10 2.766112 1_554
Si13 Ti8 2.857718 1_555
Si14 Si6 2.420322 1_555
Si14 Ti2 2.443909 1_555
Si14 Ti6 2.498068 1_545
Si14 Ti9 2.599106 1_555
Si14 Ti3 2.608780 1_555
Si14 Tc0 2.677643 1_555
Si14 Ti8 2.731652 1_455
Si14 Ti11 2.767550 1_555
Si14 Ti15 2.865828 1_555
Si15 Si7 2.428750 1_555
Si15 Ti1 2.446519 1_555
Si15 Ti7 2.498911 1_565
Si15 Ti4 2.604465 1_555
Si15 Ti10 2.612248 1_555
Si15 Tc1 2.679250 1_555
Si15 Ti13 2.724246 1_655
Si15 Ti12 2.766112 1_556
Si15 Ti14 2.857718 1_555
Tc0 Ti3 2.820727 1_555
Tc0 Ti2 2.826733 1_555
Tc0 Ti5 2.932898 1_555
Tc0 Ti6 2.933095 1_555
Tc0 Ti8 3.123459 1_455
Tc0 Ti9 3.129744 1_555
Tc0 Ti15 3.136078 1_565
Tc0 Ti12 3.149698 1_555
Tc1 Ti1 2.820727 1_555
Tc1 Ti4 2.826733 1_555
Tc1 Ti7 2.932898 1_555
Tc1 Ti0 2.933095 1_555
Tc1 Ti14 3.123459 1_545
Tc1 Ti11 3.129744 1_555
Tc1 Ti13 3.136078 1_655
Tc1 Ti10 3.149698 1_555
