# generated using pymatgen
data_CsSnPIr2
_symmetry_space_group_name_H-M   'P 1'
_cell_length_a   8.42756323
_cell_length_b   8.42756322
_cell_length_c   8.42756226
_cell_angle_alpha   152.18875714
_cell_angle_beta   152.18875857
_cell_angle_gamma   39.73771689
_symmetry_Int_Tables_number   1
_chemical_formula_structural   CsSnPIr2
_chemical_formula_sum   'Cs1 Sn1 P1 Ir2'
_cell_volume   130.04809474
_cell_formula_units_Z   1
loop_
 _symmetry_equiv_pos_site_id
 _symmetry_equiv_pos_as_xyz
  1  'x, y, z'
loop_
 _atom_site_type_symbol
 _atom_site_label
 _atom_site_symmetry_multiplicity
 _atom_site_fract_x
 _atom_site_fract_y
 _atom_site_fract_z
 _atom_site_occupancy
  Cs  Cs0  1  0.01941493  0.01941493  1.00000000  1
  Sn  Sn0  1  0.34459274  0.34459274  0.00000000  1
  P  P0  1  0.66628691  0.66628691  1.00000000  1
  Ir  Ir0  1  0.73485271  0.23485271  0.50000000  1
  Ir  Ir1  1  0.23485271  0.73485271  0.50000000  1
loop_
_geom_bond_atom_site_label_1
_geom_bond_atom_site_label_2
_geom_bond_distance
_geom_bond_site_symmetry_2
Cs0 P0 3.691129 1_444
Cs0 P0 3.691130 1_455
Cs0 P0 3.691130 1_545
Cs0 P0 3.691130 1_556
Cs0 Sn0 3.985448 1_557
Cs0 Sn0 3.985448 1_546
Cs0 Sn0 3.985448 1_456
Cs0 Sn0 3.985449 1_445
Ir0 P0 2.298550 1_555
Ir0 P0 2.298550 1_544
Ir0 Sn0 2.669854 1_555
Ir0 Sn0 2.669855 1_656
Ir1 P0 2.298550 1_555
Ir1 P0 2.298550 1_454
Ir1 Sn0 2.669855 1_555
Ir1 Sn0 2.669855 1_566
