# generated using pymatgen
data_BaAs12(IrRu)2
_symmetry_space_group_name_H-M   'P 1'
_cell_length_a   7.44290100
_cell_length_b   7.45049504
_cell_length_c   7.45049558
_cell_angle_alpha   109.51447357
_cell_angle_beta   109.46061857
_cell_angle_gamma   109.47987055
_symmetry_Int_Tables_number   1
_chemical_formula_structural   BaAs12(IrRu)2
_chemical_formula_sum   'Ba1 As12 Ir2 Ru2'
_cell_volume   317.88424829
_cell_formula_units_Z   1
loop_
 _symmetry_equiv_pos_site_id
 _symmetry_equiv_pos_as_xyz
  1  'x, y, z'
loop_
 _atom_site_type_symbol
 _atom_site_label
 _atom_site_symmetry_multiplicity
 _atom_site_fract_x
 _atom_site_fract_y
 _atom_site_fract_z
 _atom_site_occupancy
  Ba  Ba0  1  0.00000000  0.00000000  0.00000000  1
  As  As0  1  0.84910618  0.64678538  0.49959240  1
  As  As1  1  0.15089382  0.35321462  0.50040760  1
  As  As2  1  0.15089382  0.65048622  0.79768020  1
  As  As3  1  0.84910618  0.34951378  0.20231980  1
  As  As4  1  0.64618023  0.49945240  0.84860400  1
  As  As5  1  0.35381977  0.50054760  0.15139600  1
  As  As6  1  0.64618023  0.79757723  0.14672783  1
  As  As7  1  0.35381977  0.20242277  0.85327217  1
  As  As8  1  0.49943378  0.84916202  0.65027076  1
  As  As9  1  0.50056622  0.15083798  0.34972924  1
  As  As10  1  0.20564365  0.85263654  0.35300811  1
  As  As11  1  0.79435635  0.14736346  0.64699189  1
  Ir  Ir0  1  0.00000000  0.50000000  0.00000000  1
  Ir  Ir1  1  0.00000000  0.00000000  0.50000000  1
  Ru  Ru0  1  0.50000000  0.50000000  0.50000000  1
  Ru  Ru1  1  0.50000000  0.00000000  0.00000000  1
loop_
_geom_bond_atom_site_label_1
_geom_bond_atom_site_label_2
_geom_bond_distance
_geom_bond_site_symmetry_2
As0 Ru0 2.461658 1_555
As0 Ir1 2.491578 1_665
As0 As3 2.556094 1_555
As0 As2 2.563650 1_655
As0 Ba0 3.281881 1_666
As1 Ru0 2.461658 1_555
As1 Ir1 2.491578 1_555
As1 As2 2.556094 1_555
As1 As3 2.563650 1_455
As1 Ba0 3.281881 1_555
As2 Ru1 2.461658 1_566
As2 Ir0 2.491572 1_556
As2 Ba0 3.281879 1_566
As3 Ru1 2.461658 1_555
As3 Ir0 2.491572 1_655
As3 Ba0 3.281879 1_655
As4 Ru0 2.461042 1_555
As4 Ir0 2.493565 1_656
As4 As7 2.554171 1_555
As4 As6 2.563421 1_556
As4 Ba0 3.282603 1_666
As5 Ru0 2.461042 1_555
As5 Ir0 2.493565 1_555
As5 As6 2.554171 1_555
As5 As7 2.563421 1_554
As5 Ba0 3.282603 1_555
As6 Ru1 2.461035 1_565
As6 Ir1 2.493566 1_665
As6 Ba0 3.282600 1_665
As7 Ru1 2.461035 1_556
As7 Ir1 2.493566 1_555
As7 Ba0 3.282600 1_556
As8 Ru0 2.466892 1_555
As8 Ru1 2.466900 1_566
As8 Ba0 3.273476 1_666
As9 Ru0 2.466892 1_555
As9 Ru1 2.466900 1_555
As9 Ba0 3.273476 1_555
As10 Ir1 2.486344 1_565
As10 Ir0 2.486352 1_555
As10 As8 2.556638 1_555
As10 As9 2.564072 1_565
As10 Ba0 3.291381 1_565
As11 Ir1 2.486344 1_655
As11 Ir0 2.486352 1_656
As11 As9 2.556638 1_555
As11 As8 2.564072 1_545
As11 Ba0 3.291381 1_656
