# generated using pymatgen
data_Ta2CN
_symmetry_space_group_name_H-M   'P 1'
_cell_length_a   5.47975741
_cell_length_b   5.47975741
_cell_length_c   5.47975741
_cell_angle_alpha   132.11905356
_cell_angle_beta   132.11905356
_cell_angle_gamma   70.04105962
_symmetry_Int_Tables_number   1
_chemical_formula_structural   Ta2CN
_chemical_formula_sum   'Ta4 C2 N2'
_cell_volume   88.75573424
_cell_formula_units_Z   2
loop_
 _symmetry_equiv_pos_site_id
 _symmetry_equiv_pos_as_xyz
  1  'x, y, z'
loop_
 _atom_site_type_symbol
 _atom_site_label
 _atom_site_symmetry_multiplicity
 _atom_site_fract_x
 _atom_site_fract_y
 _atom_site_fract_z
 _atom_site_occupancy
  Ta  Ta0  1  0.75957400  0.75957400  0.00000000  1
  Ta  Ta1  1  0.24042600  0.24042600  0.00000000  1
  Ta  Ta2  1  0.99042600  0.49042600  0.50000000  1
  Ta  Ta3  1  0.50957400  0.00957400  0.50000000  1
  C  C0  1  0.00000000  0.00000000  0.00000000  1
  C  C1  1  0.75000000  0.25000000  0.50000000  1
  N  N0  1  0.50000000  0.50000000  0.00000000  1
  N  N1  1  0.25000000  0.75000000  0.50000000  1
loop_
_geom_bond_atom_site_label_1
_geom_bond_atom_site_label_2
_geom_bond_distance
_geom_bond_site_symmetry_2
C0 Ta1 2.157885 1_555
C0 Ta0 2.157885 1_445
C0 Ta2 2.225276 1_444
C0 Ta3 2.225276 1_555
C0 Ta3 2.225276 1_454
C0 Ta2 2.225276 1_455
C1 Ta2 2.157885 1_555
C1 Ta3 2.157885 1_555
C1 Ta1 2.225276 1_555
C1 Ta0 2.225276 1_545
C1 Ta0 2.225276 1_556
C1 Ta1 2.225276 1_656
N0 Ta2 2.225276 1_555
N0 Ta2 2.225276 1_454
N0 Ta3 2.225276 1_554
N0 Ta3 2.225276 1_565
N0 Ta1 2.329743 1_555
N0 Ta0 2.329743 1_555
N1 Ta1 2.225276 1_566
N1 Ta0 2.225276 1_455
N1 Ta0 2.225276 1_556
N1 Ta1 2.225276 1_555
N1 Ta3 2.329743 1_565
N1 Ta2 2.329743 1_455
