# generated using pymatgen
data_LaAl3Pd2
_symmetry_space_group_name_H-M   'P 1'
_cell_length_a   5.51386802
_cell_length_b   5.51386783
_cell_length_c   4.23531601
_cell_angle_alpha   90.00000000
_cell_angle_beta   90.00000000
_cell_angle_gamma   120.00000723
_symmetry_Int_Tables_number   1
_chemical_formula_structural   LaAl3Pd2
_chemical_formula_sum   'La1 Al3 Pd2'
_cell_volume   111.51393437
_cell_formula_units_Z   1
loop_
 _symmetry_equiv_pos_site_id
 _symmetry_equiv_pos_as_xyz
  1  'x, y, z'
loop_
 _atom_site_type_symbol
 _atom_site_label
 _atom_site_symmetry_multiplicity
 _atom_site_fract_x
 _atom_site_fract_y
 _atom_site_fract_z
 _atom_site_occupancy
  La  La0  1  0.00000000  -0.00000000  0.00000000  1
  Al  Al0  1  0.50000000  -0.00000000  0.50000000  1
  Al  Al1  1  0.50000000  0.50000000  0.50000000  1
  Al  Al2  1  0.00000000  0.50000000  0.50000000  1
  Pd  Pd0  1  0.66666700  0.33333300  0.00000000  1
  Pd  Pd1  1  0.33333300  0.66666700  -0.00000000  1
loop_
_geom_bond_atom_site_label_1
_geom_bond_atom_site_label_2
_geom_bond_distance
_geom_bond_site_symmetry_2
La0 Pd1 3.183430 1_545
La0 Pd0 3.183430 1_455
La0 Pd1 3.183434 1_555
La0 Pd0 3.183434 1_445
La0 Pd0 3.183435 1_555
La0 Pd1 3.183435 1_445
Al0 Pd0 2.649157 1_556
Al0 Pd1 2.649157 1_545
Al0 Pd1 2.649157 1_546
Al0 Pd0 2.649157 1_555
Al0 Al2 2.756934 1_655
Al0 Al2 2.756934 1_545
Al0 Al1 2.756934 1_545
Al0 Al1 2.756934 1_555
Al0 La0 3.476372 1_555
Al0 La0 3.476372 1_655
Al0 La0 3.476372 1_656
Al0 La0 3.476372 1_556
Al1 Pd1 2.649160 1_556
Al1 Pd0 2.649160 1_556
Al1 Pd1 2.649160 1_555
Al1 Pd0 2.649160 1_555
Al1 Al2 2.756934 1_655
Al1 Al2 2.756934 1_555
Al1 La0 3.476371 1_666
Al1 La0 3.476371 1_665
Al1 La0 3.476371 1_556
Al1 La0 3.476371 1_555
Al2 Pd1 2.649157 1_556
Al2 Pd0 2.649157 1_455
Al2 Pd0 2.649157 1_456
Al2 Pd1 2.649157 1_555
Al2 La0 3.476372 1_566
Al2 La0 3.476372 1_565
Al2 La0 3.476372 1_555
Al2 La0 3.476372 1_556
Pd0 Pd1 3.183430 1_545
Pd0 Pd1 3.183430 1_655
Pd0 Pd1 3.183440 1_555
