# generated using pymatgen
data_Rb2Hf(AsSe3)2
_symmetry_space_group_name_H-M   'P 1'
_cell_length_a   7.09570316
_cell_length_b   7.09570416
_cell_length_c   7.76493334
_cell_angle_alpha   90.00000000
_cell_angle_beta   90.00000000
_cell_angle_gamma   119.99999534
_symmetry_Int_Tables_number   1
_chemical_formula_structural   Rb2Hf(AsSe3)2
_chemical_formula_sum   'Rb2 Hf1 As2 Se6'
_cell_volume   338.57845814
_cell_formula_units_Z   1
loop_
 _symmetry_equiv_pos_site_id
 _symmetry_equiv_pos_as_xyz
  1  'x, y, z'
loop_
 _atom_site_type_symbol
 _atom_site_label
 _atom_site_symmetry_multiplicity
 _atom_site_fract_x
 _atom_site_fract_y
 _atom_site_fract_z
 _atom_site_occupancy
  Rb  Rb0  1  0.33333300  0.66666700  0.58438815  1
  Rb  Rb1  1  0.66666700  0.33333300  0.41561185  1
  Hf  Hf0  1  0.00000000  0.00000000  0.00000000  1
  As  As0  1  0.33333300  0.66666700  0.05851431  1
  As  As1  1  0.66666700  0.33333300  0.94148569  1
  Se  Se0  1  0.23747461  0.90438787  0.21158570  1
  Se  Se1  1  0.90438787  0.66691526  0.78841430  1
  Se  Se2  1  0.76252539  0.09561213  0.78841430  1
  Se  Se3  1  0.33308474  0.23747461  0.78841430  1
  Se  Se4  1  0.66691526  0.76252539  0.21158570  1
  Se  Se5  1  0.09561213  0.33308474  0.21158570  1
loop_
_geom_bond_atom_site_label_1
_geom_bond_atom_site_label_2
_geom_bond_distance
_geom_bond_site_symmetry_2
Rb0 Se3 3.432067 1_555
Rb0 Se2 3.432070 1_565
Rb0 Se1 3.432073 1_455
Rb0 Se0 3.582604 1_555
Rb0 Se5 3.582613 1_555
Rb0 Se4 3.582616 1_555
Rb1 Se4 3.432067 1_555
Rb1 Se0 3.432070 1_545
Rb1 Se5 3.432073 1_655
Rb1 Se2 3.582604 1_555
Rb1 Se1 3.582613 1_555
Rb1 Se3 3.582616 1_555
Hf0 Se5 2.672468 1_555
Hf0 Se1 2.672468 1_444
Hf0 Se3 2.672471 1_554
Hf0 Se4 2.672471 1_445
Hf0 Se0 2.672479 1_545
Hf0 Se2 2.672479 1_454
As0 Se0 2.422397 1_555
As0 Se5 2.422410 1_555
As0 Se4 2.422415 1_555
As0 Rb0 3.681558 1_554
As1 Se2 2.422397 1_555
As1 Se1 2.422410 1_555
As1 Se3 2.422415 1_555
As1 Rb1 3.681558 1_556
