# generated using pymatgen
data_Cs4MgCrSe5
_symmetry_space_group_name_H-M   'P 1'
_cell_length_a   8.27151396
_cell_length_b   9.34127338
_cell_length_c   11.32850770
_cell_angle_alpha   74.79579628
_cell_angle_beta   87.34218495
_cell_angle_gamma   79.53566455
_symmetry_Int_Tables_number   1
_chemical_formula_structural   Cs4MgCrSe5
_chemical_formula_sum   'Cs8 Mg2 Cr2 Se10'
_cell_volume   830.62620192
_cell_formula_units_Z   2
loop_
 _symmetry_equiv_pos_site_id
 _symmetry_equiv_pos_as_xyz
  1  'x, y, z'
loop_
 _atom_site_type_symbol
 _atom_site_label
 _atom_site_symmetry_multiplicity
 _atom_site_fract_x
 _atom_site_fract_y
 _atom_site_fract_z
 _atom_site_occupancy
  Cs  Cs0  1  0.45068744  0.30325329  0.11245630  1
  Cs  Cs1  1  0.54931256  0.69674671  0.88754370  1
  Cs  Cs2  1  0.19653208  0.08617239  0.86694852  1
  Cs  Cs3  1  0.04989102  0.61667455  0.74523168  1
  Cs  Cs4  1  0.80346792  0.91382761  0.13305148  1
  Cs  Cs5  1  0.95010898  0.38332545  0.25476832  1
  Cs  Cs6  1  0.56364475  0.72563797  0.49690674  1
  Cs  Cs7  1  0.43635525  0.27436203  0.50309326  1
  Mg  Mg0  1  0.90697751  0.08735904  0.59529633  1
  Mg  Mg1  1  0.09302249  0.91264096  0.40470367  1
  Cr  Cr0  1  0.28152092  0.71904100  0.21144622  1
  Cr  Cr1  1  0.71847908  0.28095900  0.78855378  1
  Se  Se0  1  0.86347540  0.36750053  0.60905542  1
  Se  Se1  1  0.20822905  0.95707348  0.59509627  1
  Se  Se2  1  0.44815127  0.39970066  0.77452620  1
  Se  Se3  1  0.16212478  0.67767375  0.04617688  1
  Se  Se4  1  0.83787522  0.32232625  0.95382312  1
  Se  Se5  1  0.55184873  0.60029934  0.22547380  1
  Se  Se6  1  0.13652460  0.63249947  0.39094458  1
  Se  Se7  1  0.26291361  0.97662300  0.20180685  1
  Se  Se8  1  0.73708639  0.02337700  0.79819315  1
  Se  Se9  1  0.79177095  0.04292652  0.40490373  1
loop_
_geom_bond_atom_site_label_1
_geom_bond_atom_site_label_2
_geom_bond_distance
_geom_bond_site_symmetry_2
Cs0 Se7 3.563997 1_545
Cs0 Se5 3.583992 1_555
Cs0 Se4 3.608826 1_554
Cs0 Se2 3.695820 1_554
Cs0 Se3 3.774928 1_555
Cs1 Se8 3.563997 1_565
Cs1 Se2 3.583992 1_555
Cs1 Se3 3.608826 1_556
Cs1 Se5 3.695820 1_556
Cs1 Se4 3.774928 1_555
Cs2 Se1 3.581357 1_545
Cs2 Se4 3.623065 1_455
Cs2 Se7 3.700247 1_546
Cs2 Se2 3.795945 1_555
Cs2 Se3 3.878350 1_546
Cs3 Se2 3.520402 1_555
Cs3 Se1 3.631583 1_555
Cs3 Se0 3.685495 1_455
Cs3 Se4 3.765476 1_455
Cs3 Se3 3.783409 1_556
Cs3 Se6 4.013034 1_555
Cs4 Se9 3.581357 1_565
Cs4 Se3 3.623065 1_655
Cs4 Se8 3.700247 1_564
Cs4 Se5 3.795945 1_555
Cs4 Se4 3.878350 1_564
Cs5 Se5 3.520402 1_555
Cs5 Se9 3.631583 1_555
Cs5 Se6 3.685495 1_655
Cs5 Se3 3.765476 1_655
Cs5 Se4 3.783409 1_554
Cs5 Se0 4.013034 1_555
Cs6 Se5 3.576763 1_555
Cs6 Se1 3.633610 1_555
Cs6 Se9 3.695982 1_565
Cs6 Se0 3.742443 1_555
Cs6 Se2 3.978577 1_555
Cs7 Se2 3.576763 1_555
Cs7 Se9 3.633610 1_555
Cs7 Se1 3.695982 1_545
Cs7 Se6 3.742443 1_555
Cs7 Se5 3.978577 1_555
Mg0 Se9 2.556612 1_555
Mg0 Se1 2.567023 1_645
Mg0 Se0 2.620787 1_555
Mg0 Se8 2.626806 1_555
Mg1 Se1 2.556612 1_555
Mg1 Se9 2.567023 1_465
Mg1 Se6 2.620787 1_555
Mg1 Se7 2.626806 1_555
Cr0 Se5 2.301073 1_555
Cr0 Se3 2.306421 1_555
Cr0 Se6 2.343208 1_555
Cr0 Se7 2.356769 1_555
Cr1 Se2 2.301073 1_555
Cr1 Se4 2.306421 1_555
Cr1 Se0 2.343208 1_555
Cr1 Se8 2.356769 1_555
