# generated using pymatgen
data_Rb3Na2GeP3
_symmetry_space_group_name_H-M   'P 1'
_cell_length_a   10.51648886
_cell_length_b   10.51648826
_cell_length_c   15.17135650
_cell_angle_alpha   90.00000000
_cell_angle_beta   90.00000000
_cell_angle_gamma   142.73530307
_symmetry_Int_Tables_number   1
_chemical_formula_structural   Rb3Na2GeP3
_chemical_formula_sum   'Rb12 Na8 Ge4 P12'
_cell_volume   1015.96498807
_cell_formula_units_Z   4
loop_
 _symmetry_equiv_pos_site_id
 _symmetry_equiv_pos_as_xyz
  1  'x, y, z'
loop_
 _atom_site_type_symbol
 _atom_site_label
 _atom_site_symmetry_multiplicity
 _atom_site_fract_x
 _atom_site_fract_y
 _atom_site_fract_z
 _atom_site_occupancy
  Rb  Rb0  1  0.93611576  0.60764297  0.82724597  1
  Rb  Rb1  1  0.56388424  0.89235703  0.32724597  1
  Rb  Rb2  1  0.39235703  0.06388424  0.17275403  1
  Rb  Rb3  1  0.06388424  0.39235703  0.17275403  1
  Rb  Rb4  1  0.89235703  0.56388424  0.32724597  1
  Rb  Rb5  1  0.43611576  0.10764297  0.67275403  1
  Rb  Rb6  1  0.60764297  0.93611576  0.82724597  1
  Rb  Rb7  1  0.26124338  0.26124338  0.32017466  1
  Rb  Rb8  1  0.76124338  0.76124338  0.17982534  1
  Rb  Rb9  1  0.23875662  0.23875662  0.82017466  1
  Rb  Rb10  1  0.73875662  0.73875662  0.67982534  1
  Rb  Rb11  1  0.10764297  0.43611576  0.67275403  1
  Na  Na0  1  0.92092394  0.07907606  0.00000000  1
  Na  Na1  1  0.57907606  0.42092394  0.50000000  1
  Na  Na2  1  0.07907606  0.92092394  0.00000000  1
  Na  Na3  1  0.42092394  0.57907606  0.50000000  1
  Na  Na4  1  0.75506982  0.24493018  0.00000000  1
  Na  Na5  1  0.74493018  0.25506982  0.50000000  1
  Na  Na6  1  0.24493018  0.75506982  0.00000000  1
  Na  Na7  1  0.25506982  0.74493018  0.50000000  1
  Ge  Ge0  1  0.58619700  0.41380300  0.00000000  1
  Ge  Ge1  1  0.91380300  0.08619700  0.50000000  1
  Ge  Ge2  1  0.41380300  0.58619700  0.00000000  1
  Ge  Ge3  1  0.08619700  0.91380300  0.50000000  1
  P  P0  1  0.86029700  0.55351863  0.09213942  1
  P  P1  1  0.44648137  0.13970300  0.90786058  1
  P  P2  1  0.63970300  0.94648137  0.59213942  1
  P  P3  1  0.94648137  0.63970300  0.59213942  1
  P  P4  1  0.13970300  0.44648137  0.90786058  1
  P  P5  1  0.55351863  0.86029700  0.09213942  1
  P  P6  1  0.36029700  0.05351863  0.40786058  1
  P  P7  1  0.18718065  0.18718065  0.58006122  1
  P  P8  1  0.68718065  0.68718065  0.91993878  1
  P  P9  1  0.31281935  0.31281935  0.08006122  1
  P  P10  1  0.05351863  0.36029700  0.40786058  1
  P  P11  1  0.81281935  0.81281935  0.41993878  1
loop_
_geom_bond_atom_site_label_1
_geom_bond_atom_site_label_2
_geom_bond_distance
_geom_bond_site_symmetry_2
Na0 P4 2.833176 1_654
Na0 P5 2.833177 1_545
Na0 P8 2.894501 1_544
Na0 P9 2.894501 1_655
Na1 P6 2.833176 1_555
Na1 P3 2.833177 1_555
Na1 P11 2.894501 1_555
Na1 P7 2.894501 1_555
Na2 P0 2.833176 1_455
Na2 P1 2.833177 1_564
Na2 P9 2.894501 1_565
Na2 P8 2.894501 1_454
Na3 P2 2.833176 1_555
Na3 P10 2.833177 1_555
Na3 P7 2.894501 1_555
Na3 P11 2.894501 1_555
Na4 P0 2.827405 1_555
Na4 P1 2.827405 1_554
Na4 P5 3.026862 1_545
Na4 P4 3.026863 1_654
Na5 P2 2.827405 1_545
Na5 P10 2.827405 1_655
Na5 P3 3.026862 1_555
Na5 P6 3.026863 1_555
Na6 P4 2.827405 1_554
Na6 P5 2.827405 1_555
Na6 P1 3.026862 1_564
Na6 P0 3.026863 1_455
Na7 P6 2.827405 1_565
Na7 P3 2.827405 1_455
Na7 P10 3.026862 1_555
Na7 P2 3.026863 1_555
Ge0 P1 2.383421 1_554
Ge0 P0 2.383421 1_555
Ge0 P8 2.451302 1_554
Ge0 P9 2.451302 1_555
Ge1 P10 2.383421 1_655
Ge1 P2 2.383421 1_545
Ge1 P11 2.451302 1_545
Ge1 P7 2.451302 1_655
Ge2 P5 2.383421 1_555
Ge2 P4 2.383421 1_554
Ge2 P9 2.451302 1_555
Ge2 P8 2.451302 1_554
Ge3 P3 2.383421 1_455
Ge3 P6 2.383421 1_565
Ge3 P7 2.451302 1_565
Ge3 P11 2.451302 1_455
P0 Rb8 3.353976 1_555
P0 Rb2 3.448808 1_555
P0 Rb4 3.576273 1_555
P0 Rb2 3.716195 1_665
P0 Rb3 3.837725 1_655
P1 Rb9 3.353976 1_555
P1 Rb0 3.448808 1_555
P1 Rb5 3.576273 1_555
P1 Rb0 3.716195 1_445
P1 Rb6 3.837725 1_545
P2 Rb10 3.353976 1_555
P2 Rb11 3.448808 1_665
P2 Rb6 3.576273 1_555
P2 Rb11 3.716195 1_555
P2 Rb5 3.837725 1_565
P3 Rb10 3.353976 1_555
P3 Rb5 3.448808 1_665
P3 Rb0 3.576273 1_555
P3 Rb5 3.716195 1_555
P3 Rb11 3.837725 1_655
P4 Rb9 3.353976 1_555
P4 Rb6 3.448808 1_555
P4 Rb11 3.576273 1_555
P4 Rb6 3.716195 1_445
P4 Rb0 3.837725 1_455
P5 Rb8 3.353976 1_555
P5 Rb3 3.448808 1_555
P5 Rb1 3.576273 1_555
P5 Rb3 3.716195 1_665
P5 Rb2 3.837725 1_565
P6 Rb7 3.353976 1_555
P6 Rb4 3.448808 1_445
P6 Rb2 3.576273 1_555
P6 Rb4 3.716195 1_555
P6 Rb1 3.837725 1_545
P7 Rb10 3.372131 1_445
P7 Rb11 3.607804 1_555
P7 Rb5 3.607805 1_555
P7 Rb9 3.659297 1_555
P8 Rb9 3.372131 1_555
P8 Rb6 3.607804 1_555
P8 Rb0 3.607805 1_555
P8 Rb10 3.659297 1_555
P9 Rb8 3.372131 1_555
P9 Rb2 3.607804 1_555
P9 Rb3 3.607805 1_555
P9 Rb7 3.659297 1_555
P10 Rb7 3.353976 1_555
P10 Rb1 3.448808 1_445
P10 Rb3 3.576273 1_555
P10 Rb1 3.716195 1_555
P10 Rb4 3.837725 1_455
P11 Rb7 3.372131 1_665
P11 Rb4 3.607804 1_555
P11 Rb1 3.607805 1_555
P11 Rb8 3.659297 1_555
