# generated using pymatgen
data_BaP4(RhO7)2
_symmetry_space_group_name_H-M   'P 1'
_cell_length_a   6.17895583
_cell_length_b   6.22860623
_cell_length_c   7.76752682
_cell_angle_alpha   97.21671734
_cell_angle_beta   100.89666407
_cell_angle_gamma   105.70265282
_symmetry_Int_Tables_number   1
_chemical_formula_structural   BaP4(RhO7)2
_chemical_formula_sum   'Ba1 P4 Rh2 O14'
_cell_volume   277.61196589
_cell_formula_units_Z   1
loop_
 _symmetry_equiv_pos_site_id
 _symmetry_equiv_pos_as_xyz
  1  'x, y, z'
loop_
 _atom_site_type_symbol
 _atom_site_label
 _atom_site_symmetry_multiplicity
 _atom_site_fract_x
 _atom_site_fract_y
 _atom_site_fract_z
 _atom_site_occupancy
  Ba  Ba0  1  0.00000000  0.00000000  0.00000000  1
  P  P0  1  0.82054843  0.54306849  0.19921425  1
  P  P1  1  0.17945157  0.45693151  0.80078575  1
  P  P2  1  0.52071929  0.75152905  0.66516273  1
  P  P3  1  0.47928071  0.24847095  0.33483727  1
  Rh  Rh0  1  0.62800965  0.30769606  0.77543804  1
  Rh  Rh1  1  0.37199035  0.69230394  0.22456196  1
  O  O0  1  0.93431357  0.30515579  0.71966437  1
  O  O1  1  0.06568643  0.69484421  0.28033563  1
  O  O2  1  0.69078648  0.63979930  0.76137737  1
  O  O3  1  0.30921352  0.36020070  0.23862263  1
  O  O4  1  0.67479485  0.70030765  0.15653595  1
  O  O5  1  0.32520515  0.29969235  0.84346405  1
  O  O6  1  0.56589282  0.97404821  0.79256631  1
  O  O7  1  0.43410718  0.02595179  0.20743369  1
  O  O8  1  0.54593910  0.77493940  0.48041687  1
  O  O9  1  0.45406090  0.22506060  0.51958313  1
  O  O10  1  0.26424111  0.59267024  0.65229430  1
  O  O11  1  0.73575889  0.40732976  0.34770570  1
  O  O12  1  0.20279371  0.63843673  0.96024719  1
  O  O13  1  0.79720629  0.36156327  0.03975281  1
loop_
_geom_bond_atom_site_label_1
_geom_bond_atom_site_label_2
_geom_bond_distance
_geom_bond_site_symmetry_2
Ba0 O3 2.723141 1_555
Ba0 O2 2.723141 1_444
Ba0 O7 2.807668 1_555
Ba0 O6 2.807668 1_444
Ba0 O13 2.869878 1_455
Ba0 O12 2.869878 1_544
Ba0 O5 2.909345 1_554
Ba0 O4 2.909345 1_445
Ba0 O1 3.105194 1_545
Ba0 O0 3.105194 1_454
O0 P1 1.516392 1_655
O0 Rh0 2.023487 1_555
O1 P0 1.516392 1_455
O1 Rh1 2.023487 1_555
O2 P2 1.541653 1_555
O2 Rh0 2.019829 1_555
O3 P3 1.541653 1_555
O3 Rh1 2.019829 1_555
O4 P0 1.525222 1_555
O4 Rh1 2.027879 1_555
O5 P1 1.525222 1_555
O5 Rh0 2.027879 1_555
O6 P2 1.523072 1_555
O6 Rh0 2.034893 1_565
O7 P3 1.523072 1_555
O7 Rh1 2.034893 1_545
O8 P2 1.493199 1_555
O8 Rh1 2.001429 1_555
O9 P3 1.493199 1_555
O9 Rh0 2.001429 1_555
O10 P1 1.597923 1_555
O10 P2 1.602187 1_555
O11 P0 1.597923 1_555
O11 P3 1.602187 1_555
O12 P1 1.524943 1_555
O12 Rh1 2.060636 1_556
O13 P0 1.524943 1_555
O13 Rh0 2.060636 1_554
