# generated using pymatgen
data_Sr2Rh2Br
_symmetry_space_group_name_H-M   'P 1'
_cell_length_a   4.31208917
_cell_length_b   4.31208972
_cell_length_c   17.29580512
_cell_angle_alpha   90.00000000
_cell_angle_beta   90.00000000
_cell_angle_gamma   119.99999578
_symmetry_Int_Tables_number   1
_chemical_formula_structural   Sr2Rh2Br
_chemical_formula_sum   'Sr4 Rh4 Br2'
_cell_volume   278.51395172
_cell_formula_units_Z   2
loop_
 _symmetry_equiv_pos_site_id
 _symmetry_equiv_pos_as_xyz
  1  'x, y, z'
loop_
 _atom_site_type_symbol
 _atom_site_label
 _atom_site_symmetry_multiplicity
 _atom_site_fract_x
 _atom_site_fract_y
 _atom_site_fract_z
 _atom_site_occupancy
  Sr  Sr0  1  0.00000000  0.00000000  0.11687089  1
  Sr  Sr1  1  0.00000000  0.00000000  0.38312911  1
  Sr  Sr2  1  0.00000000  0.00000000  0.61687089  1
  Sr  Sr3  1  0.00000000  0.00000000  0.88312911  1
  Rh  Rh0  1  0.33333300  0.66666700  0.00174363  1
  Rh  Rh1  1  0.33333300  0.66666700  0.49825637  1
  Rh  Rh2  1  0.66666800  0.33333500  0.50174363  1
  Rh  Rh3  1  0.66666800  0.33333500  0.99825637  1
  Br  Br0  1  0.66666800  0.33333500  0.25000000  1
  Br  Br1  1  0.33333300  0.66666700  0.75000000  1
loop_
_geom_bond_atom_site_label_1
_geom_bond_atom_site_label_2
_geom_bond_distance
_geom_bond_site_symmetry_2
Rh0 Rh3 2.490310 1_454
Rh0 Rh3 2.490318 1_554
Rh0 Rh3 2.490322 1_564
Rh0 Sr0 3.187943 1_565
Rh0 Sr0 3.187945 1_665
Rh0 Sr0 3.187946 1_555
Rh0 Sr3 3.225960 1_564
Rh0 Sr3 3.225963 1_664
Rh0 Sr3 3.225963 1_554
Rh1 Rh2 2.490310 1_455
Rh1 Rh2 2.490318 1_555
Rh1 Rh2 2.490322 1_565
Rh1 Sr1 3.187943 1_565
Rh1 Sr1 3.187945 1_665
Rh1 Sr1 3.187946 1_555
Rh1 Sr2 3.225960 1_565
Rh1 Sr2 3.225963 1_665
Rh1 Sr2 3.225963 1_555
Rh2 Sr2 3.187940 1_665
Rh2 Sr2 3.187945 1_655
Rh2 Sr2 3.187948 1_555
Rh2 Sr1 3.225957 1_665
Rh2 Sr1 3.225963 1_655
Rh2 Sr1 3.225965 1_555
Rh3 Sr3 3.187940 1_665
Rh3 Sr3 3.187945 1_655
Rh3 Sr3 3.187948 1_555
Rh3 Sr0 3.225957 1_666
Rh3 Sr0 3.225963 1_656
Rh3 Sr0 3.225965 1_556
Br0 Sr1 3.391144 1_665
Br0 Sr0 3.391144 1_665
Br0 Sr1 3.391150 1_655
Br0 Sr0 3.391150 1_655
Br0 Sr1 3.391152 1_555
Br0 Sr0 3.391152 1_555
Br1 Sr3 3.391147 1_565
Br1 Sr2 3.391147 1_565
Br1 Sr3 3.391150 1_665
Br1 Sr2 3.391150 1_665
Br1 Sr3 3.391150 1_555
Br1 Sr2 3.391150 1_555
