# generated using pymatgen
data_RbBaSbS3
_symmetry_space_group_name_H-M   'P 1'
_cell_length_a   9.17499978
_cell_length_b   9.41535334
_cell_length_c   9.23052981
_cell_angle_alpha   72.31244925
_cell_angle_beta   90.00000000
_cell_angle_gamma   90.00000000
_symmetry_Int_Tables_number   1
_chemical_formula_structural   RbBaSbS3
_chemical_formula_sum   'Rb4 Ba4 Sb4 S12'
_cell_volume   759.69282480
_cell_formula_units_Z   4
loop_
 _symmetry_equiv_pos_site_id
 _symmetry_equiv_pos_as_xyz
  1  'x, y, z'
loop_
 _atom_site_type_symbol
 _atom_site_label
 _atom_site_symmetry_multiplicity
 _atom_site_fract_x
 _atom_site_fract_y
 _atom_site_fract_z
 _atom_site_occupancy
  Rb  Rb0  1  0.09743667  0.58872994  0.30450888  1
  Rb  Rb1  1  0.59743667  0.41127006  0.19549112  1
  Rb  Rb2  1  0.90256333  0.41127006  0.69549112  1
  Rb  Rb3  1  0.40256333  0.58872994  0.80450888  1
  Ba  Ba0  1  0.71538770  0.92475512  0.02967547  1
  Ba  Ba1  1  0.21538770  0.07524488  0.47032453  1
  Ba  Ba2  1  0.28461230  0.07524488  0.97032453  1
  Ba  Ba3  1  0.78461230  0.92475512  0.52967547  1
  Sb  Sb0  1  0.46530008  0.75148455  0.36378053  1
  Sb  Sb1  1  0.96530008  0.24851545  0.13621947  1
  Sb  Sb2  1  0.53469992  0.24851545  0.63621947  1
  Sb  Sb3  1  0.03469992  0.75148455  0.86378053  1
  S  S0  1  0.21427736  0.33576872  0.11855704  1
  S  S1  1  0.71427736  0.66423128  0.38144296  1
  S  S2  1  0.78572264  0.66423128  0.88144296  1
  S  S3  1  0.28572264  0.33576872  0.61855704  1
  S  S4  1  0.01147544  0.97818194  0.21879447  1
  S  S5  1  0.51147544  0.02181806  0.28120553  1
  S  S6  1  0.98852456  0.02181806  0.78120553  1
  S  S7  1  0.48852456  0.97818194  0.71879447  1
  S  S8  1  0.40498987  0.73604647  0.11452223  1
  S  S9  1  0.90498987  0.26395353  0.38547777  1
  S  S10  1  0.59501013  0.26395353  0.88547777  1
  S  S11  1  0.09501013  0.73604647  0.61452223  1
loop_
_geom_bond_atom_site_label_1
_geom_bond_atom_site_label_2
_geom_bond_distance
_geom_bond_site_symmetry_2
Rb0 S8 3.388769 1_555
Rb0 S9 3.411480 1_455
Rb0 S0 3.500295 1_555
Rb0 S11 3.539053 1_555
Rb0 S3 3.586752 1_555
Rb0 S4 3.595936 1_555
Rb0 S1 3.697978 1_455
Rb0 Sb0 3.814265 1_555
Rb0 Sb3 3.929547 1_554
Rb1 S9 3.388769 1_555
Rb1 S8 3.411480 1_555
Rb1 S1 3.500295 1_555
Rb1 S10 3.539053 1_554
Rb1 S2 3.586752 1_554
Rb1 S5 3.595936 1_555
Rb1 S0 3.697978 1_555
Rb1 Sb1 3.814265 1_555
Rb1 Sb2 3.929547 1_555
Rb2 S10 3.388769 1_555
Rb2 S11 3.411480 1_655
Rb2 S2 3.500295 1_555
Rb2 S9 3.539053 1_555
Rb2 S1 3.586752 1_555
Rb2 S6 3.595936 1_555
Rb2 S3 3.697978 1_655
Rb2 Sb2 3.814265 1_555
Rb2 Sb1 3.929547 1_556
Rb3 S11 3.388769 1_555
Rb3 S10 3.411480 1_555
Rb3 S3 3.500295 1_555
Rb3 S8 3.539053 1_556
Rb3 S0 3.586752 1_556
Rb3 S7 3.595936 1_555
Rb3 S2 3.697978 1_555
Rb3 Sb3 3.814265 1_555
Rb3 Sb0 3.929547 1_555
Ba0 S2 3.216342 1_554
Ba0 S10 3.256988 1_564
Ba0 S5 3.318931 1_565
Ba0 S8 3.321929 1_555
Ba0 S6 3.331954 1_564
Ba0 S4 3.348722 1_655
Ba0 S1 3.423480 1_555
Ba0 S7 3.455864 1_554
Ba1 S3 3.216342 1_555
Ba1 S11 3.256988 1_545
Ba1 S4 3.318931 1_545
Ba1 S9 3.321929 1_455
Ba1 S7 3.331954 1_545
Ba1 S5 3.348722 1_555
Ba1 S0 3.423480 1_555
Ba1 S6 3.455864 1_455
Ba2 S0 3.216342 1_556
Ba2 S8 3.256988 1_546
Ba2 S7 3.318931 1_545
Ba2 S10 3.321929 1_555
Ba2 S4 3.331954 1_546
Ba2 S6 3.348722 1_455
Ba2 S3 3.423480 1_555
Ba2 S5 3.455864 1_556
Ba3 S1 3.216342 1_555
Ba3 S9 3.256988 1_565
Ba3 S6 3.318931 1_565
Ba3 S11 3.321929 1_655
Ba3 S5 3.331954 1_565
Ba3 S7 3.348722 1_555
Ba3 S2 3.423480 1_555
Ba3 S4 3.455864 1_655
S0 Sb1 2.416282 1_455
S1 Sb0 2.416282 1_555
S2 Sb3 2.416282 1_655
S3 Sb2 2.416282 1_555
S4 Sb1 2.461719 1_465
S5 Sb0 2.461719 1_545
S6 Sb3 2.461719 1_645
S7 Sb2 2.461719 1_565
S8 Sb0 2.413329 1_555
S9 Sb1 2.413329 1_555
S10 Sb2 2.413329 1_555
S11 Sb3 2.413329 1_555
