# generated using pymatgen
data_Na4ZnSn6Au
_symmetry_space_group_name_H-M   'P 1'
_cell_length_a   9.76010930
_cell_length_b   9.76010939
_cell_length_c   7.42776356
_cell_angle_alpha   90.00000000
_cell_angle_beta   90.00000000
_cell_angle_gamma   119.99999647
_symmetry_Int_Tables_number   1
_chemical_formula_structural   Na4ZnSn6Au
_chemical_formula_sum   'Na8 Zn2 Sn12 Au2'
_cell_volume   612.77083161
_cell_formula_units_Z   2
loop_
 _symmetry_equiv_pos_site_id
 _symmetry_equiv_pos_as_xyz
  1  'x, y, z'
loop_
 _atom_site_type_symbol
 _atom_site_label
 _atom_site_symmetry_multiplicity
 _atom_site_fract_x
 _atom_site_fract_y
 _atom_site_fract_z
 _atom_site_occupancy
  Na  Na0  1  0.53194663  0.06389326  0.24673749  1
  Na  Na1  1  0.06389326  0.53194663  0.75326251  1
  Na  Na2  1  0.46805337  0.53194663  0.75326251  1
  Na  Na3  1  0.53194663  0.46805337  0.24673749  1
  Na  Na4  1  0.46805337  0.93610674  0.75326251  1
  Na  Na5  1  0.93610674  0.46805337  0.24673749  1
  Na  Na6  1  0.00000000  0.00000000  0.74874686  1
  Na  Na7  1  0.00000000  0.00000000  0.25125314  1
  Zn  Zn0  1  0.33333300  0.66666700  0.41566711  1
  Zn  Zn1  1  0.66666700  0.33333300  0.58433289  1
  Sn  Sn0  1  0.17156749  0.82843251  0.05019403  1
  Sn  Sn1  1  0.82733478  0.65466957  0.54975810  1
  Sn  Sn2  1  0.34533043  0.17266522  0.54975810  1
  Sn  Sn3  1  0.82843251  0.17156749  0.94980597  1
  Sn  Sn4  1  0.82843251  0.65686602  0.94980597  1
  Sn  Sn5  1  0.82733478  0.17266522  0.54975810  1
  Sn  Sn6  1  0.34313398  0.17156749  0.94980597  1
  Sn  Sn7  1  0.65686602  0.82843251  0.05019403  1
  Sn  Sn8  1  0.65466957  0.82733478  0.45024190  1
  Sn  Sn9  1  0.17266522  0.34533043  0.45024190  1
  Sn  Sn10  1  0.17266522  0.82733478  0.45024190  1
  Sn  Sn11  1  0.17156749  0.34313398  0.05019403  1
  Au  Au0  1  0.66666700  0.33333300  0.95574898  1
  Au  Au1  1  0.33333300  0.66666700  0.04425102  1
loop_
_geom_bond_atom_site_label_1
_geom_bond_atom_site_label_2
_geom_bond_distance
_geom_bond_site_symmetry_2
Na0 Sn3 3.361763 1_554
Na0 Sn6 3.361770 1_554
Na0 Sn2 3.382915 1_555
Na0 Sn5 3.382915 1_555
Na0 Zn1 3.387430 1_555
Na0 Sn0 3.420675 1_545
Na0 Sn7 3.420681 1_545
Na0 Sn8 3.437413 1_545
Na0 Sn10 3.437413 1_545
Na1 Sn0 3.361763 1_556
Na1 Sn11 3.361770 1_556
Na1 Sn9 3.382915 1_555
Na1 Sn10 3.382915 1_555
Na1 Zn0 3.387430 1_555
Na1 Sn3 3.420675 1_455
Na1 Sn4 3.420681 1_455
Na1 Sn1 3.437413 1_455
Na1 Sn5 3.437413 1_455
Na2 Sn11 3.361764 1_556
Na2 Sn7 3.361764 1_556
Na2 Sn9 3.382915 1_555
Na2 Sn8 3.382915 1_555
Na2 Zn0 3.387436 1_555
Na2 Sn4 3.420673 1_555
Na2 Sn6 3.420673 1_555
Na2 Sn1 3.437413 1_555
Na2 Sn2 3.437413 1_555
Na3 Sn4 3.361764 1_554
Na3 Sn6 3.361764 1_554
Na3 Sn1 3.382915 1_555
Na3 Sn2 3.382915 1_555
Na3 Zn1 3.387436 1_555
Na3 Sn11 3.420673 1_555
Na3 Sn7 3.420673 1_555
Na3 Sn9 3.437413 1_555
Na3 Sn8 3.437413 1_555
Na4 Sn0 3.361763 1_556
Na4 Sn7 3.361770 1_556
Na4 Sn8 3.382915 1_555
Na4 Sn10 3.382915 1_555
Na4 Zn0 3.387430 1_555
Na4 Sn3 3.420675 1_565
Na4 Sn6 3.420681 1_565
Na4 Sn2 3.437413 1_565
Na4 Sn5 3.437413 1_565
Na5 Sn3 3.361763 1_554
Na5 Sn4 3.361770 1_554
Na5 Sn1 3.382915 1_555
Na5 Sn5 3.382915 1_555
Na5 Zn1 3.387430 1_555
Na5 Sn0 3.420675 1_655
Na5 Sn11 3.420681 1_655
Na5 Sn9 3.437413 1_655
Na5 Sn10 3.437413 1_655
Na6 Sn6 3.262251 1_555
Na6 Sn4 3.262251 1_445
Na6 Sn3 3.262258 1_455
Na6 Sn5 3.271792 1_455
Na6 Sn2 3.271792 1_555
Na6 Sn1 3.271792 1_445
Na6 Sn7 3.664075 1_446
Na6 Sn11 3.664076 1_556
Na6 Sn0 3.664082 1_546
Na6 Sn10 3.665528 1_545
Na6 Sn8 3.665528 1_445
Na6 Sn9 3.665528 1_555
Na7 Sn7 3.262251 1_445
Na7 Sn11 3.262251 1_555
Na7 Sn0 3.262258 1_545
Na7 Sn10 3.271792 1_545
Na7 Sn8 3.271792 1_445
Na7 Sn9 3.271792 1_555
Na7 Sn6 3.664075 1_554
Na7 Sn4 3.664076 1_444
Na7 Sn3 3.664082 1_454
Na7 Sn5 3.665528 1_455
Na7 Sn2 3.665528 1_555
Na7 Sn1 3.665528 1_445
Sn0 Sn10 2.971519 1_555
Sn0 Sn4 2.994668 1_454
Sn0 Sn6 2.994668 1_564
Sn1 Zn1 2.728212 1_555
Sn1 Sn4 2.971519 1_555
Sn1 Sn8 3.011047 1_555
Sn1 Sn10 3.011047 1_655
Sn2 Zn1 2.728212 1_555
Sn2 Sn6 2.971519 1_555
Sn2 Sn9 3.011047 1_555
Sn3 Sn5 2.971519 1_555
Sn3 Sn7 2.994668 1_546
Sn4 Sn7 2.994651 1_556
Sn5 Zn1 2.728204 1_555
Sn5 Sn9 3.011047 1_655
Sn5 Sn8 3.011047 1_545
Sn7 Sn8 2.971519 1_555
Sn8 Zn0 2.728212 1_555
Sn9 Zn0 2.728212 1_555
Sn10 Zn0 2.728204 1_555
Sn10 Sn2 3.011047 1_565
Sn11 Sn9 2.971519 1_555
Sn11 Sn6 2.994651 1_554
Sn11 Sn3 2.994668 1_454
Au0 Sn3 2.735003 1_555
Au0 Sn6 2.735020 1_555
Au0 Sn4 2.735020 1_555
Au0 Zn1 2.758791 1_555
Au0 Na5 3.139802 1_556
Au0 Na0 3.139802 1_556
Au0 Na3 3.139808 1_556
Au1 Sn0 2.735003 1_555
Au1 Sn7 2.735020 1_555
Au1 Sn11 2.735020 1_555
Au1 Zn0 2.758791 1_555
Au1 Na1 3.139802 1_554
Au1 Na4 3.139802 1_554
Au1 Na2 3.139808 1_554
