# generated using pymatgen
data_Ce5O9
_symmetry_space_group_name_H-M   'P 1'
_cell_length_a   6.74188685
_cell_length_b   7.77801853
_cell_length_c   8.69358515
_cell_angle_alpha   76.98124458
_cell_angle_beta   74.68927402
_cell_angle_gamma   73.30181151
_symmetry_Int_Tables_number   1
_chemical_formula_structural   Ce5O9
_chemical_formula_sum   'Ce10 O18'
_cell_volume   415.61372667
_cell_formula_units_Z   2
loop_
 _symmetry_equiv_pos_site_id
 _symmetry_equiv_pos_as_xyz
  1  'x, y, z'
loop_
 _atom_site_type_symbol
 _atom_site_label
 _atom_site_symmetry_multiplicity
 _atom_site_fract_x
 _atom_site_fract_y
 _atom_site_fract_z
 _atom_site_occupancy
  Ce  Ce0  1  0.89617886  0.85459309  0.70066407  1
  Ce  Ce1  1  0.87056428  0.35886176  0.68900455  1
  Ce  Ce2  1  0.12943572  0.64113824  0.31099545  1
  Ce  Ce3  1  0.29565921  0.93447558  0.91566151  1
  Ce  Ce4  1  0.10382114  0.14540691  0.29933593  1
  Ce  Ce5  1  0.52193124  0.24522729  0.48044406  1
  Ce  Ce6  1  0.28985902  0.46262513  0.91261298  1
  Ce  Ce7  1  0.71014098  0.53737487  0.08738702  1
  Ce  Ce8  1  0.47806876  0.75477271  0.51955594  1
  Ce  Ce9  1  0.70434079  0.06552442  0.08433849  1
  O  O0  1  0.03167916  0.47672964  0.16426521  1
  O  O1  1  0.02821398  0.92396708  0.16143305  1
  O  O2  1  0.97178602  0.07603292  0.83856695  1
  O  O3  1  0.17274040  0.34149336  0.46824255  1
  O  O4  1  0.48662316  0.56685714  0.34018771  1
  O  O5  1  0.96832084  0.52327036  0.83573479  1
  O  O6  1  0.36011689  0.64590690  0.05425842  1
  O  O7  1  0.23882358  0.75085176  0.76415747  1
  O  O8  1  0.14929012  0.84728577  0.46018675  1
  O  O9  1  0.67476685  0.83956082  0.96711046  1
  O  O10  1  0.52159852  0.97522305  0.66635980  1
  O  O11  1  0.47840148  0.02477695  0.33364020  1
  O  O12  1  0.32523315  0.16043918  0.03288954  1
  O  O13  1  0.85070988  0.15271423  0.53981325  1
  O  O14  1  0.63988311  0.35409310  0.94574158  1
  O  O15  1  0.51337684  0.43314286  0.65981229  1
  O  O16  1  0.82725960  0.65850664  0.53175745  1
  O  O17  1  0.76117642  0.24914824  0.23584253  1
loop_
_geom_bond_atom_site_label_1
_geom_bond_atom_site_label_2
_geom_bond_distance
_geom_bond_site_symmetry_2
Ce0 O8 2.323706 1_655
Ce0 O7 2.386164 1_655
Ce0 O9 2.399946 1_555
Ce0 O13 2.404832 1_565
Ce0 O10 2.501368 1_555
Ce0 O2 2.534013 1_565
Ce0 O5 2.544502 1_555
Ce0 O16 2.544563 1_555
Ce1 O2 2.304963 1_555
Ce1 O5 2.315177 1_555
Ce1 O13 2.328752 1_555
Ce1 O14 2.358909 1_555
Ce1 O15 2.377898 1_555
Ce1 O3 2.397035 1_655
Ce1 O16 2.402130 1_555
Ce2 O1 2.304963 1_555
Ce2 O0 2.315177 1_555
Ce2 O8 2.328752 1_555
Ce2 O6 2.358909 1_555
Ce2 O4 2.377898 1_555
Ce2 O16 2.397035 1_455
Ce2 O3 2.402130 1_555
Ce3 O6 2.275073 1_556
Ce3 O12 2.298488 1_566
Ce3 O10 2.311390 1_555
Ce3 O7 2.313008 1_555
Ce3 O2 2.342660 1_465
Ce3 O1 2.407170 1_556
Ce3 O9 2.578436 1_555
Ce4 O13 2.323706 1_455
Ce4 O17 2.386164 1_455
Ce4 O12 2.399946 1_555
Ce4 O8 2.404832 1_545
Ce4 O11 2.501368 1_555
Ce4 O1 2.534013 1_545
Ce4 O0 2.544502 1_555
Ce4 O3 2.544563 1_555
Ce5 O3 2.279758 1_555
Ce5 O13 2.284231 1_555
Ce5 O17 2.304804 1_555
Ce5 O10 2.343986 1_545
Ce5 O15 2.345663 1_555
Ce5 O11 2.475467 1_555
Ce5 O4 2.497685 1_555
Ce6 O6 2.293458 1_556
Ce6 O7 2.301643 1_555
Ce6 O12 2.318823 1_556
Ce6 O5 2.324633 1_455
Ce6 O15 2.330875 1_555
Ce6 O14 2.338577 1_555
Ce6 O0 2.411519 1_556
Ce7 O14 2.293458 1_554
Ce7 O17 2.301643 1_555
Ce7 O9 2.318823 1_554
Ce7 O0 2.324633 1_655
Ce7 O4 2.330875 1_555
Ce7 O6 2.338577 1_555
Ce7 O5 2.411519 1_554
Ce8 O16 2.279758 1_555
Ce8 O8 2.284231 1_555
Ce8 O7 2.304804 1_555
Ce8 O11 2.343986 1_565
Ce8 O4 2.345663 1_555
Ce8 O10 2.475467 1_555
Ce8 O15 2.497685 1_555
Ce9 O14 2.275073 1_554
Ce9 O9 2.298488 1_544
Ce9 O11 2.311390 1_555
Ce9 O17 2.313008 1_555
Ce9 O1 2.342660 1_645
Ce9 O2 2.407170 1_554
Ce9 O12 2.578436 1_555
