# generated using pymatgen
data_TiBe3AlTc
_symmetry_space_group_name_H-M   'P 1'
_cell_length_a   4.54821491
_cell_length_b   4.54821432
_cell_length_c   4.60482618
_cell_angle_alpha   90.00000058
_cell_angle_beta   60.40586340
_cell_angle_gamma   120.00000380
_symmetry_Int_Tables_number   1
_chemical_formula_structural   TiBe3AlTc
_chemical_formula_sum   'Ti1 Be3 Al1 Tc1'
_cell_volume   67.76684837
_cell_formula_units_Z   1
loop_
 _symmetry_equiv_pos_site_id
 _symmetry_equiv_pos_as_xyz
  1  'x, y, z'
loop_
 _atom_site_type_symbol
 _atom_site_label
 _atom_site_symmetry_multiplicity
 _atom_site_fract_x
 _atom_site_fract_y
 _atom_site_fract_z
 _atom_site_occupancy
  Ti  Ti0  1  0.99466292  0.99733246  0.00800461  1
  Be  Be0  1  0.25059277  0.37523675  0.37416948  1
  Be  Be1  1  0.25059277  0.87535603  0.37416948  1
  Be  Be2  1  0.75047349  0.37523675  0.37416948  1
  Al  Al0  1  0.75355126  0.37677513  0.86967361  1
  Tc  Tc0  1  0.50012577  0.75006289  0.74981134  1
loop_
_geom_bond_atom_site_label_1
_geom_bond_atom_site_label_2
_geom_bond_distance
_geom_bond_site_symmetry_2
Be0 Be1 2.273565 1_545
Be0 Be2 2.273565 1_555
Be0 Be1 2.274650 1_555
Be0 Be2 2.274650 1_455
Be0 Ti0 2.662716 1_445
Be0 Ti0 2.662720 1_555
Be0 Tc0 2.681539 1_445
Be0 Tc0 2.681543 1_555
Be0 Tc0 2.702342 1_554
Be0 Ti0 2.733427 1_446
Be1 Be2 2.273565 1_565
Be1 Be2 2.274650 1_455
Be1 Ti0 2.662717 1_555
Be1 Ti0 2.662720 1_455
Be1 Tc0 2.681540 1_455
Be1 Tc0 2.681543 1_555
Be1 Tc0 2.702343 1_554
Be1 Ti0 2.733431 1_456
Be2 Ti0 2.662714 1_545
Be2 Ti0 2.662722 1_555
Be2 Tc0 2.681541 1_545
Be2 Tc0 2.681541 1_555
Be2 Tc0 2.702345 1_654
Be2 Ti0 2.733429 1_446
Al0 Be0 2.288641 1_655
Al0 Be1 2.288643 1_655
Al0 Be2 2.288645 1_555
Al0 Be2 2.316224 1_556
Al0 Be1 2.316226 1_546
Al0 Be0 2.316229 1_556
Al0 Tc0 2.664768 1_545
Al0 Tc0 2.664768 1_655
Al0 Tc0 2.664772 1_555
Al0 Ti0 2.677534 1_546
Al0 Ti0 2.677545 1_556
Al0 Ti0 2.677545 1_446
Tc0 Ti0 2.801660 1_446
Tc0 Ti0 2.801660 1_556
Tc0 Ti0 2.801667 1_456
Tc0 Ti0 2.806051 1_555
