# generated using pymatgen
data_RbP2IrOs
_symmetry_space_group_name_H-M   'P 1'
_cell_length_a   7.40158862
_cell_length_b   7.40158845
_cell_length_c   7.40158845
_cell_angle_alpha   148.84064303
_cell_angle_beta   148.84063713
_cell_angle_gamma   44.64592483
_symmetry_Int_Tables_number   1
_chemical_formula_structural   RbP2IrOs
_chemical_formula_sum   'Rb1 P2 Ir1 Os1'
_cell_volume   108.22937093
_cell_formula_units_Z   1
loop_
 _symmetry_equiv_pos_site_id
 _symmetry_equiv_pos_as_xyz
  1  'x, y, z'
loop_
 _atom_site_type_symbol
 _atom_site_label
 _atom_site_symmetry_multiplicity
 _atom_site_fract_x
 _atom_site_fract_y
 _atom_site_fract_z
 _atom_site_occupancy
  Rb  Rb0  1  0.00000000  0.00000000  0.00000000  1
  P  P0  1  0.33948632  0.33948632  0.00000000  1
  P  P1  1  0.66051368  0.66051368  1.00000000  1
  Ir  Ir0  1  0.25000000  0.75000000  0.50000000  1
  Os  Os0  1  0.75000000  0.25000000  0.50000000  1
loop_
_geom_bond_atom_site_label_1
_geom_bond_atom_site_label_2
_geom_bond_distance
_geom_bond_site_symmetry_2
P0 Rb0 3.568602 1_565
P0 Rb0 3.568602 1_655
P0 Rb0 3.568602 1_554
P0 Rb0 3.568602 1_666
P1 Rb0 3.568602 1_656
P1 Rb0 3.568602 1_566
P1 Rb0 3.568602 1_667
P1 Rb0 3.568602 1_555
Ir0 P0 2.335249 1_555
Ir0 P0 2.335249 1_566
Ir0 P1 2.335250 1_555
Ir0 P1 2.335250 1_454
Os0 P1 2.335249 1_555
Os0 P1 2.335249 1_544
Os0 P0 2.335250 1_555
Os0 P0 2.335250 1_656
