# generated using pymatgen
data_Ba6Sn2HN
_symmetry_space_group_name_H-M   'P 1'
_cell_length_a   7.88811966
_cell_length_b   7.88811952
_cell_length_c   7.88811859
_cell_angle_alpha   59.99999555
_cell_angle_beta   59.99999614
_cell_angle_gamma   59.99999684
_symmetry_Int_Tables_number   1
_chemical_formula_structural   Ba6Sn2HN
_chemical_formula_sum   'Ba6 Sn2 H1 N1'
_cell_volume   347.06064378
_cell_formula_units_Z   1
loop_
 _symmetry_equiv_pos_site_id
 _symmetry_equiv_pos_as_xyz
  1  'x, y, z'
loop_
 _atom_site_type_symbol
 _atom_site_label
 _atom_site_symmetry_multiplicity
 _atom_site_fract_x
 _atom_site_fract_y
 _atom_site_fract_z
 _atom_site_occupancy
  Ba  Ba0  1  0.25790977  0.74209023  0.74209023  1
  Ba  Ba1  1  0.25790977  0.74209023  0.25790977  1
  Ba  Ba2  1  0.74209023  0.25790977  0.74209023  1
  Ba  Ba3  1  0.74209023  0.74209023  0.25790977  1
  Ba  Ba4  1  0.25790977  0.25790977  0.74209023  1
  Ba  Ba5  1  0.74209023  0.25790977  0.25790977  1
  Sn  Sn0  1  0.25000000  0.25000000  0.25000000  1
  Sn  Sn1  1  0.75000000  0.75000000  0.75000000  1
  H  H0  1  0.00000000  0.00000000  0.00000000  1
  N  N0  1  0.50000000  0.50000000  0.50000000  1
loop_
_geom_bond_atom_site_label_1
_geom_bond_atom_site_label_2
_geom_bond_distance
_geom_bond_site_symmetry_2
Ba0 N0 2.700634 1_555
Ba0 H0 2.877109 1_566
Ba0 Sn0 3.945046 1_556
Ba0 Sn0 3.945046 1_565
Ba0 Sn1 3.945047 1_455
Ba0 Sn1 3.945047 1_555
Ba1 N0 2.700634 1_555
Ba1 H0 2.877109 1_565
Ba1 Sn1 3.945046 1_554
Ba1 Sn1 3.945046 1_455
Ba1 Sn0 3.945047 1_565
Ba1 Sn0 3.945047 1_555
Ba2 N0 2.700634 1_555
Ba2 H0 2.877109 1_656
Ba2 Sn0 3.945046 1_556
Ba2 Sn0 3.945046 1_655
Ba2 Sn1 3.945047 1_545
Ba2 Sn1 3.945047 1_555
Ba3 N0 2.700634 1_555
Ba3 H0 2.877109 1_665
Ba3 Sn1 3.945046 1_554
Ba3 Sn1 3.945046 1_555
Ba3 Sn0 3.945047 1_565
Ba3 Sn0 3.945047 1_655
Ba4 N0 2.700634 1_555
Ba4 H0 2.877109 1_556
Ba4 Sn0 3.945046 1_556
Ba4 Sn0 3.945046 1_555
Ba4 Sn1 3.945047 1_545
Ba4 Sn1 3.945047 1_455
Ba5 N0 2.700634 1_555
Ba5 H0 2.877109 1_655
Ba5 Sn1 3.945046 1_554
Ba5 Sn1 3.945046 1_545
Ba5 Sn0 3.945047 1_655
Ba5 Sn0 3.945047 1_555
