# generated using pymatgen
data_Ca10Cd2Cu3Ir
_symmetry_space_group_name_H-M   'P 1'
_cell_length_a   9.20177682
_cell_length_b   9.20177567
_cell_length_c   9.24625575
_cell_angle_alpha   129.60407374
_cell_angle_beta   129.60406354
_cell_angle_gamma   73.67292180
_symmetry_Int_Tables_number   1
_chemical_formula_structural   Ca10Cd2Cu3Ir
_chemical_formula_sum   'Ca10 Cd2 Cu3 Ir1'
_cell_volume   454.28481621
_cell_formula_units_Z   1
loop_
 _symmetry_equiv_pos_site_id
 _symmetry_equiv_pos_as_xyz
  1  'x, y, z'
loop_
 _atom_site_type_symbol
 _atom_site_label
 _atom_site_symmetry_multiplicity
 _atom_site_fract_x
 _atom_site_fract_y
 _atom_site_fract_z
 _atom_site_occupancy
  Ca  Ca0  1  0.53238966  0.02349101  0.82991395  1
  Ca  Ca1  1  0.20247471  0.69357706  0.17008605  1
  Ca  Ca2  1  0.03135533  0.19307097  0.50000000  1
  Ca  Ca3  1  0.68595082  0.54452037  0.50000000  1
  Ca  Ca4  1  0.47650899  0.96761034  0.17008605  1
  Ca  Ca5  1  0.80642294  0.29752529  0.82991395  1
  Ca  Ca6  1  0.95547963  0.81404918  0.50000000  1
  Ca  Ca7  1  0.30692903  0.46864467  0.50000000  1
  Ca  Ca8  1  0.50262997  0.50747891  0.01010788  1
  Ca  Ca9  1  0.99252109  0.99737003  0.98989212  1
  Cd  Cd0  1  0.25320465  0.24679535  1.00000000  1
  Cd  Cd1  1  0.75320465  0.74679535  1.00000000  1
  Cu  Cu0  1  0.38646643  0.11353357  0.50000000  1
  Cu  Cu1  1  0.11065234  0.61118527  0.72183760  1
  Cu  Cu2  1  0.88881473  0.38934766  0.27816240  1
  Ir  Ir0  1  0.61499202  0.88500798  0.50000000  1
loop_
_geom_bond_atom_site_label_1
_geom_bond_atom_site_label_2
_geom_bond_distance
_geom_bond_site_symmetry_2
Ca0 Ir0 2.993743 1_545
Ca0 Cu0 3.028116 1_555
Ca0 Cu2 3.218025 1_556
Ca0 Cd1 3.347648 1_545
Ca0 Cd0 3.370203 1_555
Ca1 Ir0 2.993750 1_555
Ca1 Cu0 3.028118 1_565
Ca1 Cu1 3.218030 1_554
Ca1 Cd0 3.347648 1_554
Ca1 Cd1 3.370195 1_454
Ca2 Cu1 3.025034 1_555
Ca2 Cu2 3.025034 1_455
Ca2 Cu0 3.141431 1_555
Ca2 Cd1 3.377263 1_444
Ca2 Cd0 3.377263 1_555
Ca3 Ir0 3.015360 1_555
Ca3 Cu2 3.062634 1_555
Ca3 Cu1 3.062634 1_655
Ca3 Cd1 3.354046 1_555
Ca3 Cd0 3.354047 1_554
Ca4 Ir0 2.993743 1_555
Ca4 Cu0 3.028116 1_565
Ca4 Cu1 3.218025 1_554
Ca4 Cd1 3.347648 1_554
Ca4 Cd0 3.370203 1_564
Ca5 Ir0 2.993750 1_545
Ca5 Cu0 3.028119 1_555
Ca5 Cu2 3.218030 1_556
Ca5 Cd0 3.347649 1_655
Ca5 Cd1 3.370195 1_555
Ca6 Ir0 3.015361 1_555
Ca6 Cu2 3.062634 1_555
Ca6 Cu1 3.062634 1_655
Ca6 Cd0 3.354046 1_665
Ca6 Cd1 3.354046 1_554
Ca7 Cu1 3.025034 1_555
Ca7 Cu2 3.025034 1_455
Ca7 Cu0 3.141430 1_555
Ca7 Cd0 3.377263 1_554
Ca7 Cd1 3.377263 1_555
Ca8 Ir0 3.105006 1_555
Ca8 Cu2 3.160127 1_555
Ca8 Cu1 3.174146 1_554
Ca8 Cu0 3.237494 1_554
Ca8 Cd1 3.683271 1_554
Ca8 Cd0 3.683285 1_554
Ca9 Ir0 3.105007 1_555
Ca9 Cu1 3.160127 1_655
Ca9 Cu2 3.174146 1_566
Ca9 Cu0 3.237495 1_666
Ca9 Cd1 3.683271 1_555
Ca9 Cd0 3.683286 1_665
Cu0 Ir0 2.521446 1_545
Cu1 Cu2 2.480430 1_455
