# generated using pymatgen
data_Ta18Al8CuGe
_symmetry_space_group_name_H-M   'P 1'
_cell_length_a   9.88974105
_cell_length_b   9.88974339
_cell_length_c   9.88974153
_cell_angle_alpha   93.83607664
_cell_angle_beta   93.83604040
_cell_angle_gamma   150.01956068
_symmetry_Int_Tables_number   1
_chemical_formula_structural   Ta18Al8CuGe
_chemical_formula_sum   'Ta18 Al8 Cu1 Ge1'
_cell_volume   466.90838906
_cell_formula_units_Z   1
loop_
 _symmetry_equiv_pos_site_id
 _symmetry_equiv_pos_as_xyz
  1  'x, y, z'
loop_
 _atom_site_type_symbol
 _atom_site_label
 _atom_site_symmetry_multiplicity
 _atom_site_fract_x
 _atom_site_fract_y
 _atom_site_fract_z
 _atom_site_occupancy
  Ta  Ta0  1  0.56544634  0.79218719  0.35559026  1
  Ta  Ta1  1  0.07844644  0.15149174  0.23758737  1
  Ta  Ta2  1  0.58609663  0.34850826  0.92695370  1
  Ta  Ta3  1  0.65913993  0.58609663  0.23758737  1
  Ta  Ta4  1  0.34851026  0.42155356  0.76241263  1
  Ta  Ta5  1  0.79218719  0.43659693  0.22674085  1
  Ta  Ta6  1  0.42155356  0.65914193  0.07304630  1
  Ta  Ta7  1  0.15149274  0.91390337  0.07304430  1
  Ta  Ta8  1  0.70781381  0.93455466  0.64440974  1
  Ta  Ta9  1  0.43659593  0.20985508  0.64440974  1
  Ta  Ta10  1  0.91390337  0.84085807  0.76241263  1
  Ta  Ta11  1  0.06340307  0.70781281  0.77325915  1
  Ta  Ta12  1  0.20985508  0.56544534  0.77325915  1
  Ta  Ta13  1  0.25000000  0.75000000  0.50000000  1
  Ta  Ta14  1  0.29014392  0.06340307  0.35559026  1
  Ta  Ta15  1  0.75000000  0.25000000  0.50000000  1
  Ta  Ta16  1  0.84085707  0.07844644  0.92695570  1
  Ta  Ta17  1  0.93455466  0.29014492  0.22674085  1
  Al  Al0  1  0.37200845  0.87200845  0.24401789  1
  Al  Al1  1  0.87200845  0.62799155  0.50000000  1
  Al  Al2  1  0.49972896  0.00027104  0.00000000  1
  Al  Al3  1  0.12799155  0.37200845  0.50000000  1
  Al  Al4  1  0.62799155  0.12799155  0.75598211  1
  Al  Al5  1  0.00027104  0.49972896  1.00000000  1
  Al  Al6  1  0.49972896  0.49972896  0.49945892  1
  Al  Al7  1  0.00027104  0.00027104  0.50054108  1
  Cu  Cu0  1  0.74999900  0.75000000  0.99999900  1
  Ge  Ge0  1  0.25000100  0.25000000  0.00000100  1
loop_
_geom_bond_atom_site_label_1
_geom_bond_atom_site_label_2
_geom_bond_distance
_geom_bond_site_symmetry_2
Ta0 Ta6 2.701224 1_555
Ta0 Ta8 2.759169 1_555
Ta0 Ta3 3.077811 1_555
Ta0 Ta17 3.085528 1_565
Ta0 Ta17 3.102804 1_455
Ta0 Ta1 3.137502 1_665
Ta0 Ta1 3.177675 1_555
Ta0 Ta15 3.215658 1_565
Ta0 Ta13 3.219811 1_555
Ta1 Ta17 2.701233 1_455
Ta1 Ta14 3.077829 1_555
Ta2 Ta9 2.701224 1_555
Ta2 Ta5 3.077835 1_556
Ta3 Ta5 2.701252 1_555
Ta4 Ta9 3.077811 1_555
Ta4 Ta8 3.137512 1_555
Ta4 Ta8 3.177683 1_445
Ta5 Ta7 3.137502 1_655
Ta5 Ta7 3.177670 1_545
Ta10 Ta11 2.701233 1_655
Ta10 Ta8 3.077829 1_555
Ta10 Ta9 3.137504 1_555
Ta10 Ta9 3.177673 1_665
Ta11 Ta12 2.759168 1_555
Ta11 Ta7 3.077813 1_556
Ta11 Ta9 3.085528 1_455
Ta11 Ta9 3.102804 1_565
Ta11 Ta2 3.137489 1_455
Ta11 Ta2 3.177671 1_565
Ta11 Ta15 3.215658 1_455
Ta11 Ta13 3.219811 1_555
Ta12 Ta4 2.701252 1_555
Ta12 Ta6 3.077835 1_556
Ta12 Ta8 3.085531 1_555
Ta12 Ta8 3.102800 1_445
Ta12 Ta16 3.137499 1_565
Ta12 Ta16 3.177674 1_455
Ta12 Ta13 3.215659 1_555
Ta12 Ta15 3.219811 1_455
Ta13 Ta15 2.558023 1_455
Ta13 Ta15 2.558023 1_565
Ta13 Ta14 3.215658 1_565
Ta13 Ta5 3.215658 1_455
Ta13 Ta8 3.215659 1_555
Ta13 Ta9 3.219811 1_565
Ta13 Ta17 3.219811 1_455
Ta14 Ta7 2.701244 1_545
Ta14 Ta9 2.759169 1_555
Ta14 Ta5 3.085524 1_445
Ta14 Ta5 3.102807 1_555
Ta14 Ta3 3.137512 1_445
Ta14 Ta3 3.177683 1_555
Ta14 Ta15 3.219812 1_555
Ta15 Ta9 3.215658 1_555
Ta15 Ta17 3.215658 1_555
Ta15 Ta8 3.219811 1_545
Ta15 Ta5 3.219812 1_555
Ta16 Ta8 2.701244 1_545
Ta16 Ta17 3.077813 1_556
Ta17 Ta5 2.759168 1_555
Ta17 Ta6 3.137500 1_545
Ta17 Ta6 3.177661 1_655
Al0 Al5 2.658977 1_554
Al0 Al2 2.658978 1_565
Al0 Ta13 2.759723 1_555
Al0 Ta15 2.759727 1_565
Al0 Ta14 2.819718 1_565
Al0 Ta0 2.819718 1_555
Al0 Ta5 2.906410 1_455
Al0 Ta17 2.906419 1_565
Al0 Ta17 2.915593 1_455
Al0 Ta5 2.915601 1_565
Al0 Ta6 2.992077 1_555
Al0 Ta7 2.992080 1_555
Al1 Al6 2.658969 1_555
Al1 Al7 2.658970 1_665
Al1 Ta13 2.759733 1_655
Al1 Ta15 2.759734 1_555
Al1 Ta5 2.819722 1_555
Al1 Ta11 2.819722 1_655
Al1 Ta14 2.906412 1_665
Al1 Ta9 2.906416 1_555
Al1 Ta9 2.915594 1_665
Al1 Ta14 2.915599 1_555
Al1 Ta10 2.992085 1_555
Al1 Ta3 2.992096 1_555
Al2 Al5 2.558044 1_654
Al2 Al5 2.558044 1_544
Al2 Al4 2.658978 1_554
Al2 Ta11 2.868836 1_544
Al2 Ta5 2.868836 1_555
Al2 Ta17 2.869159 1_555
Al2 Ta12 2.869159 1_544
Al2 Ta16 2.895418 1_554
Al2 Ta6 2.895436 1_545
Al2 Ta7 2.903728 1_545
Al2 Ta2 2.903746 1_554
Al3 Al6 2.658967 1_555
Al3 Al7 2.658968 1_555
Al3 Ta15 2.759733 1_455
Al3 Ta13 2.759734 1_555
Al3 Ta12 2.819722 1_555
Al3 Ta17 2.819722 1_455
Al3 Ta0 2.906413 1_445
Al3 Ta8 2.906417 1_555
Al3 Ta8 2.915593 1_445
Al3 Ta0 2.915598 1_555
Al3 Ta1 2.992085 1_555
Al3 Ta4 2.992096 1_555
Al4 Al5 2.658977 1_655
Al4 Ta15 2.759723 1_555
Al4 Ta13 2.759727 1_545
Al4 Ta8 2.819718 1_545
Al4 Ta9 2.819718 1_555
Al4 Ta11 2.906411 1_655
Al4 Ta12 2.906420 1_545
Al4 Ta12 2.915592 1_655
Al4 Ta11 2.915600 1_545
Al4 Ta2 2.992077 1_555
Al4 Ta16 2.992080 1_555
Al5 Ta12 2.868832 1_555
Al5 Ta17 2.868833 1_456
Al5 Ta5 2.869155 1_456
Al5 Ta11 2.869156 1_555
Al5 Ta7 2.895424 1_556
Al5 Ta2 2.895433 1_455
Al5 Ta16 2.903734 1_455
Al5 Ta6 2.903743 1_556
Al6 Al7 2.558039 1_555
Al6 Al7 2.558049 1_665
Al6 Ta14 2.868840 1_555
Al6 Ta0 2.868842 1_555
Al6 Ta9 2.869153 1_555
Al6 Ta8 2.869155 1_555
Al6 Ta4 2.895424 1_555
Al6 Ta10 2.895433 1_555
Al6 Ta3 2.903753 1_555
Al6 Ta1 2.903757 1_555
Al7 Ta9 2.868837 1_555
Al7 Ta8 2.868838 1_445
Al7 Ta14 2.869149 1_555
Al7 Ta0 2.869152 1_445
Al7 Ta3 2.895430 1_445
Al7 Ta1 2.895432 1_555
Al7 Ta4 2.903754 1_555
Al7 Ta10 2.903760 1_445
Cu0 Ge0 2.558023 1_556
Cu0 Ge0 2.558023 1_666
Cu0 Ta4 2.687876 1_555
Cu0 Ta10 2.687884 1_555
Cu0 Ta16 2.687893 1_565
Cu0 Ta6 2.687897 1_556
Cu0 Ta3 2.687899 1_556
Cu0 Ta1 2.687899 1_666
Cu0 Ta2 2.687907 1_555
Cu0 Ta7 2.687918 1_656
Ge0 Ta3 2.706436 1_555
Ge0 Ta1 2.706444 1_555
Ge0 Ta7 2.706453 1_545
Ge0 Ta2 2.706457 1_554
Ge0 Ta4 2.706458 1_554
Ge0 Ta10 2.706459 1_444
Ge0 Ta6 2.706467 1_555
Ge0 Ta16 2.706478 1_454
