# generated using pymatgen
data_Li3RuO4
_symmetry_space_group_name_H-M   'P 1'
_cell_length_a   5.84041514
_cell_length_b   5.04937901
_cell_length_c   5.07518396
_cell_angle_alpha   69.96736892
_cell_angle_beta   90.00000000
_cell_angle_gamma   90.00000000
_symmetry_Int_Tables_number   1
_chemical_formula_structural   Li3RuO4
_chemical_formula_sum   'Li6 Ru2 O8'
_cell_volume   140.61420293
_cell_formula_units_Z   2
loop_
 _symmetry_equiv_pos_site_id
 _symmetry_equiv_pos_as_xyz
  1  'x, y, z'
loop_
 _atom_site_type_symbol
 _atom_site_label
 _atom_site_symmetry_multiplicity
 _atom_site_fract_x
 _atom_site_fract_y
 _atom_site_fract_z
 _atom_site_occupancy
  Li  Li0  1  0.86517515  0.75000000  0.50000000  1
  Li  Li1  1  0.39242512  0.75000000  0.50000000  1
  Li  Li2  1  0.62045311  0.75000000  0.00000000  1
  Li  Li3  1  0.60757488  0.25000000  0.50000000  1
  Li  Li4  1  0.13482485  0.25000000  0.50000000  1
  Li  Li5  1  0.37954689  0.25000000  0.00000000  1
  Ru  Ru0  1  0.85649011  0.25000000  0.00000000  1
  Ru  Ru1  1  0.14350989  0.75000000  0.00000000  1
  O  O0  1  0.88630738  0.00429399  0.77120744  1
  O  O1  1  0.11369262  0.50429399  0.77120744  1
  O  O2  1  0.36192389  0.51739062  0.24165543  1
  O  O3  1  0.36192389  0.98260938  0.75834457  1
  O  O4  1  0.63807611  0.01739062  0.24165543  1
  O  O5  1  0.63807611  0.48260938  0.75834457  1
  O  O6  1  0.88630738  0.49570601  0.22879256  1
  O  O7  1  0.11369262  0.99570601  0.22879256  1
loop_
_geom_bond_atom_site_label_1
_geom_bond_atom_site_label_2
_geom_bond_distance
_geom_bond_site_symmetry_2
Li0 O4 2.021984 1_565
Li0 O5 2.021984 1_555
Li0 O7 2.090583 1_655
Li0 O1 2.090583 1_655
Li0 O6 2.183885 1_555
Li0 O0 2.183885 1_565
Li1 O2 2.045831 1_555
Li1 O3 2.045831 1_555
Li1 O4 2.094656 1_565
Li1 O5 2.094656 1_555
Li1 O7 2.216743 1_555
Li1 O1 2.216743 1_555
Li2 O2 2.043685 1_555
Li2 O3 2.043685 1_554
Li2 O6 2.094380 1_555
Li2 O0 2.094380 1_564
Li2 O4 2.114747 1_565
Li2 O5 2.114747 1_554
Li3 O5 2.045831 1_555
Li3 O4 2.045831 1_555
Li3 O3 2.094656 1_545
Li3 O2 2.094656 1_555
Li3 O0 2.216743 1_555
Li3 O6 2.216743 1_555
Li4 O2 2.021984 1_555
Li4 O3 2.021984 1_545
Li4 O6 2.090583 1_455
Li4 O0 2.090583 1_455
Li4 O7 2.183885 1_545
Li4 O1 2.183885 1_555
Li5 O5 2.043685 1_554
Li5 O4 2.043685 1_555
Li5 O1 2.094380 1_554
Li5 O7 2.094380 1_545
Li5 O2 2.114747 1_555
Li5 O3 2.114747 1_544
O0 Ru0 1.976070 1_556
O0 Ru1 2.057198 1_646
O1 Ru1 1.976070 1_556
O1 Ru0 2.057198 1_456
O2 Ru1 1.877238 1_555
O3 Ru1 1.877238 1_556
O4 Ru0 1.877238 1_555
O5 Ru0 1.877238 1_556
O6 Ru0 1.976070 1_555
O6 Ru1 2.057198 1_655
O7 Ru1 1.976070 1_555
O7 Ru0 2.057198 1_465
