# generated using pymatgen
data_Ca3YSb3
_symmetry_space_group_name_H-M   'P 1'
_cell_length_a   8.13265588
_cell_length_b   8.13265573
_cell_length_c   9.42182220
_cell_angle_alpha   55.06574274
_cell_angle_beta   55.06574547
_cell_angle_gamma   70.82319186
_symmetry_Int_Tables_number   1
_chemical_formula_structural   Ca3YSb3
_chemical_formula_sum   'Ca6 Y2 Sb6'
_cell_volume   418.81824217
_cell_formula_units_Z   2
loop_
 _symmetry_equiv_pos_site_id
 _symmetry_equiv_pos_as_xyz
  1  'x, y, z'
loop_
 _atom_site_type_symbol
 _atom_site_label
 _atom_site_symmetry_multiplicity
 _atom_site_fract_x
 _atom_site_fract_y
 _atom_site_fract_z
 _atom_site_occupancy
  Ca  Ca0  1  0.99964929  0.13647885  0.11039561  1
  Ca  Ca1  1  0.86352115  0.00035071  0.88960439  1
  Ca  Ca2  1  0.49884567  0.85386322  0.75108280  1
  Ca  Ca3  1  0.14613678  0.50115433  0.24891720  1
  Ca  Ca4  1  0.99870614  0.64824247  0.60212380  1
  Ca  Ca5  1  0.35175753  0.00129386  0.39787620  1
  Y  Y0  1  0.64179825  0.49988289  0.24695611  1
  Y  Y1  1  0.50011711  0.35820175  0.75304389  1
  Sb  Sb0  1  0.86479653  0.13520347  0.50000000  1
  Sb  Sb1  1  0.62621957  0.37378043  0.00000000  1
  Sb  Sb2  1  0.26083443  0.25774410  0.62104477  1
  Sb  Sb3  1  0.74225590  0.73916557  0.37895523  1
  Sb  Sb4  1  0.12231427  0.61695263  0.87946969  1
  Sb  Sb5  1  0.38304737  0.87768573  0.12053031  1
loop_
_geom_bond_atom_site_label_1
_geom_bond_atom_site_label_2
_geom_bond_distance
_geom_bond_site_symmetry_2
Ca0 Sb5 3.156020 1_645
Ca0 Sb0 3.167140 1_555
Ca0 Sb3 3.199822 1_545
Ca0 Sb4 3.366912 1_654
Ca0 Sb1 3.390847 1_555
Ca0 Sb2 3.419718 1_654
Ca1 Sb4 3.156020 1_645
Ca1 Sb0 3.167140 1_555
Ca1 Sb2 3.199823 1_655
Ca1 Sb5 3.366912 1_546
Ca1 Sb1 3.390847 1_556
Ca1 Sb3 3.419718 1_546
Ca2 Sb0 3.146463 1_565
Ca2 Sb5 3.152625 1_556
Ca2 Sb2 3.157033 1_565
Ca2 Sb1 3.384608 1_556
Ca2 Sb4 3.393693 1_555
Ca2 Sb3 3.415448 1_555
Ca3 Sb0 3.146463 1_455
Ca3 Sb4 3.152624 1_554
Ca3 Sb3 3.157033 1_455
Ca3 Sb1 3.384608 1_555
Ca3 Sb5 3.393693 1_555
Ca3 Sb2 3.415448 1_555
Ca4 Sb4 3.159505 1_655
Ca4 Sb2 3.162445 1_655
Ca4 Sb1 3.172584 1_556
Ca4 Sb3 3.397987 1_555
Ca4 Sb5 3.425262 1_655
Ca4 Sb0 3.434852 1_565
Ca5 Sb5 3.159505 1_545
Ca5 Sb3 3.162445 1_545
Ca5 Sb1 3.172584 1_555
Ca5 Sb2 3.397987 1_555
Ca5 Sb4 3.425262 1_545
Ca5 Sb0 3.434852 1_455
Sb0 Y0 3.330067 1_555
Sb0 Y1 3.330067 1_555
Sb1 Y1 3.104439 1_554
Sb1 Y0 3.104439 1_555
Sb2 Y0 3.074503 1_555
Sb2 Y1 3.313768 1_555
Sb3 Y1 3.074503 1_555
Sb3 Y0 3.313768 1_555
Sb4 Y1 3.117535 1_555
Sb4 Y0 3.367319 1_456
Sb5 Y0 3.117535 1_555
Sb5 Y1 3.367319 1_564
