# generated using pymatgen
data_Cs2BeSe2
_symmetry_space_group_name_H-M   'P 1'
_cell_length_a   8.63479322
_cell_length_b   8.63479226
_cell_length_c   8.63479178
_cell_angle_alpha   137.30177971
_cell_angle_beta   128.87491737
_cell_angle_gamma   68.74262775
_symmetry_Int_Tables_number   1
_chemical_formula_structural   Cs2BeSe2
_chemical_formula_sum   'Cs4 Be2 Se4'
_cell_volume   333.89943051
_cell_formula_units_Z   2
loop_
 _symmetry_equiv_pos_site_id
 _symmetry_equiv_pos_as_xyz
  1  'x, y, z'
loop_
 _atom_site_type_symbol
 _atom_site_label
 _atom_site_symmetry_multiplicity
 _atom_site_fract_x
 _atom_site_fract_y
 _atom_site_fract_z
 _atom_site_occupancy
  Cs  Cs0  1  0.81905401  0.64769278  0.17136222  1
  Cs  Cs1  1  0.18094599  0.35230722  0.82863778  1
  Cs  Cs2  1  0.52366944  0.85230722  0.67136222  1
  Cs  Cs3  1  0.47633056  0.14769278  0.32863778  1
  Be  Be0  1  0.00000000  0.75000000  0.75000000  1
  Be  Be1  1  0.00000000  0.25000000  0.25000000  1
  Se  Se0  1  0.24340307  0.58725354  0.65614853  1
  Se  Se1  1  0.06889499  0.91274646  0.15614853  1
  Se  Se2  1  0.93110501  0.08725354  0.84385147  1
  Se  Se3  1  0.75659693  0.41274646  0.34385147  1
loop_
_geom_bond_atom_site_label_1
_geom_bond_atom_site_label_2
_geom_bond_distance
_geom_bond_site_symmetry_2
Cs0 Se2 3.503692 1_565
Cs0 Se2 3.503698 1_554
Cs0 Se3 3.587173 1_555
Cs0 Se0 3.713821 1_655
Cs0 Se1 3.779849 1_655
Cs0 Se0 3.934711 1_554
Cs1 Se1 3.503692 1_545
Cs1 Se1 3.503698 1_556
Cs1 Se0 3.587173 1_555
Cs1 Se3 3.713821 1_455
Cs1 Se2 3.779849 1_455
Cs1 Se3 3.934711 1_556
Cs2 Se3 3.503689 1_555
Cs2 Se3 3.503695 1_566
Cs2 Se2 3.587174 1_565
Cs2 Se1 3.713818 1_656
Cs2 Se0 3.779835 1_555
Cs2 Se1 3.934721 1_555
Cs3 Se0 3.503689 1_555
Cs3 Se0 3.503695 1_544
Cs3 Se1 3.587174 1_545
Cs3 Se2 3.713818 1_454
Cs3 Se3 3.779835 1_555
Cs3 Se2 3.934721 1_555
Be0 Se1 2.317581 1_556
Be0 Se2 2.317581 1_465
Be0 Se3 2.317585 1_455
Be0 Se0 2.317589 1_555
Be1 Se2 2.317581 1_454
Be1 Se1 2.317581 1_545
Be1 Se0 2.317585 1_555
Be1 Se3 2.317589 1_455
