# generated using pymatgen
data_ZrPbBr6
_symmetry_space_group_name_H-M   'P 1'
_cell_length_a   7.68789607
_cell_length_b   7.68783173
_cell_length_c   7.68798154
_cell_angle_alpha   56.44654633
_cell_angle_beta   56.44653413
_cell_angle_gamma   56.44624741
_symmetry_Int_Tables_number   1
_chemical_formula_structural   ZrPbBr6
_chemical_formula_sum   'Zr1 Pb1 Br6'
_cell_volume   294.90185758
_cell_formula_units_Z   1
loop_
 _symmetry_equiv_pos_site_id
 _symmetry_equiv_pos_as_xyz
  1  'x, y, z'
loop_
 _atom_site_type_symbol
 _atom_site_label
 _atom_site_symmetry_multiplicity
 _atom_site_fract_x
 _atom_site_fract_y
 _atom_site_fract_z
 _atom_site_occupancy
  Zr  Zr0  1  0.66649329  0.66649637  0.66650490  1
  Pb  Pb0  1  0.33457013  0.33460356  0.33457502  1
  Br  Br0  1  0.03843230  0.44843354  0.75273079  1
  Br  Br1  1  0.29148315  0.88193680  0.58591563  1
  Br  Br2  1  0.44841361  0.75275226  0.03844762  1
  Br  Br3  1  0.58593265  0.29144924  0.88194763  1
  Br  Br4  1  0.75273145  0.03842099  0.44841670  1
  Br  Br5  1  0.88194144  0.58590525  0.29145972  1
loop_
_geom_bond_atom_site_label_1
_geom_bond_atom_site_label_2
_geom_bond_distance
_geom_bond_site_symmetry_2
Br0 Zr0 2.644621 1_455
Br0 Pb0 3.016731 1_555
Br1 Zr0 2.645873 1_555
Br1 Pb0 3.014535 1_565
Br2 Zr0 2.644773 1_554
Br2 Pb0 3.016694 1_555
Br3 Zr0 2.645994 1_555
Br3 Pb0 3.014524 1_556
Br4 Zr0 2.644535 1_545
Br4 Pb0 3.016780 1_555
Br5 Zr0 2.646135 1_555
Br5 Pb0 3.014404 1_655
