# generated using pymatgen
data_Sr3Ca9(GaAs3)4
_symmetry_space_group_name_H-M   'P 1'
_cell_length_a   4.24855569
_cell_length_b   12.28169363
_cell_length_c   13.67508720
_cell_angle_alpha   90.10557421
_cell_angle_beta   90.00000000
_cell_angle_gamma   90.00000000
_symmetry_Int_Tables_number   1
_chemical_formula_structural   Sr3Ca9(GaAs3)4
_chemical_formula_sum   'Sr3 Ca9 Ga4 As12'
_cell_volume   713.55744490
_cell_formula_units_Z   1
loop_
 _symmetry_equiv_pos_site_id
 _symmetry_equiv_pos_as_xyz
  1  'x, y, z'
loop_
 _atom_site_type_symbol
 _atom_site_label
 _atom_site_symmetry_multiplicity
 _atom_site_fract_x
 _atom_site_fract_y
 _atom_site_fract_z
 _atom_site_occupancy
  Sr  Sr0  1  0.25000000  0.84885379  0.49602523  1
  Sr  Sr1  1  0.25000000  0.35155534  0.00435988  1
  Sr  Sr2  1  0.75000000  0.14957074  0.50455142  1
  Ca  Ca0  1  0.75000000  0.22696951  0.21569303  1
  Ca  Ca1  1  0.75000000  0.43855856  0.39140647  1
  Ca  Ca2  1  0.25000000  0.56359449  0.61111241  1
  Ca  Ca3  1  0.75000000  0.93686289  0.10688338  1
  Ca  Ca4  1  0.25000000  0.06274977  0.89083557  1
  Ca  Ca5  1  0.25000000  0.27423654  0.71718161  1
  Ca  Ca6  1  0.75000000  0.72559795  0.27921844  1
  Ca  Ca7  1  0.25000000  0.77259440  0.78759223  1
  Ca  Ca8  1  0.75000000  0.64902778  0.99906870  1
  Ga  Ga0  1  0.75000000  0.93410824  0.70599621  1
  Ga  Ga1  1  0.25000000  0.06478287  0.29399672  1
  Ga  Ga2  1  0.25000000  0.56409089  0.20386876  1
  Ga  Ga3  1  0.75000000  0.43660997  0.79754587  1
  As  As0  1  0.75000000  0.46190186  0.15321657  1
  As  As1  1  0.25000000  0.54182950  0.84751328  1
  As  As2  1  0.75000000  0.95949697  0.34212149  1
  As  As3  1  0.25000000  0.03933872  0.65708965  1
  As  As4  1  0.75000000  0.39539409  0.61519100  1
  As  As5  1  0.25000000  0.60750401  0.38487902  1
  As  As6  1  0.75000000  0.89345714  0.88784726  1
  As  As7  1  0.25000000  0.10611631  0.11299914  1
  As  As8  1  0.75000000  0.24776650  0.87068329  1
  As  As9  1  0.25000000  0.74764127  0.12142851  1
  As  As10  1  0.75000000  0.74703599  0.63122751  1
  As  As11  1  0.25000000  0.25275591  0.37046935  1
loop_
_geom_bond_atom_site_label_1
_geom_bond_atom_site_label_2
_geom_bond_distance
_geom_bond_site_symmetry_2
Ca0 Ga1 3.104001 1_655
Ca0 Ga1 3.104001 1_555
Ca5 Ga3 3.112743 1_455
Ca5 Ga3 3.112743 1_555
Ca6 Ga2 3.082429 1_555
Ca6 Ga2 3.082429 1_655
Ca7 Ga0 3.114597 1_455
Ca7 Ga0 3.114597 1_555
As0 Ga2 2.562091 1_555
As0 Ga2 2.562091 1_655
As0 Ca0 3.010711 1_555
As0 Ca8 3.121424 1_554
As0 Sr1 3.237723 1_555
As0 Sr1 3.237723 1_655
As0 Ca1 3.270387 1_555
As1 Ga3 2.578020 1_555
As1 Ga3 2.578020 1_455
As1 Ca7 2.951714 1_555
As1 Sr1 3.174914 1_556
As1 Ca2 3.244326 1_555
As1 Ca8 3.245192 1_455
As1 Ca8 3.245192 1_555
As2 Ga1 2.573107 1_565
As2 Ga1 2.573107 1_665
As2 Ca6 2.997184 1_555
As2 Sr2 3.219374 1_565
As2 Ca3 3.228380 1_555
As2 Sr0 3.286214 1_655
As2 Sr0 3.286214 1_555
As3 Ga0 2.575530 1_545
As3 Ga0 2.575530 1_445
As3 Ca5 2.998242 1_555
As3 Ca4 3.208874 1_555
As3 Sr0 3.210215 1_545
As3 Sr2 3.272174 1_455
As3 Sr2 3.272174 1_555
As4 Ga3 2.543663 1_555
As4 Ca5 2.946130 1_655
As4 Ca5 2.946130 1_555
As4 Ca2 2.963708 1_555
As4 Ca2 2.963708 1_655
As4 Ca1 3.106813 1_555
As4 Sr2 3.374534 1_555
As5 Ga2 2.531144 1_555
As5 Ca6 2.951560 1_455
As5 Ca6 2.951560 1_555
As5 Ca1 2.970954 1_455
As5 Ca1 2.970954 1_555
As5 Ca2 3.141391 1_555
As5 Sr0 3.328661 1_555
As6 Ga0 2.537353 1_555
As6 Ca7 2.930551 1_655
As6 Ca7 2.930551 1_555
As6 Ca4 2.972707 1_665
As6 Ca4 2.972707 1_565
As6 Ca3 3.041440 1_556
As6 Ca8 3.367818 1_555
As7 Ga1 2.527596 1_555
As7 Ca0 2.946211 1_455
As7 Ca0 2.946211 1_555
As7 Ca3 2.973211 1_545
As7 Ca3 2.973211 1_445
As7 Ca4 3.083473 1_554
As7 Sr1 3.363081 1_555
As8 Ga3 2.527470 1_555
As8 Ca5 3.004527 1_555
As8 Ca5 3.004527 1_655
As8 Sr1 3.077428 1_656
As8 Sr1 3.077428 1_556
As8 Ca4 3.123178 1_555
As8 Ca4 3.123178 1_655
As9 Ga2 2.522352 1_555
As9 Ca8 2.961726 1_454
As9 Ca8 2.961726 1_554
As9 Ca6 3.040405 1_555
As9 Ca6 3.040405 1_455
As9 Ca3 3.155095 1_555
As9 Ca3 3.155095 1_455
As10 Ga0 2.513083 1_555
As10 Ca7 3.030008 1_655
As10 Ca7 3.030008 1_555
As10 Sr0 3.082735 1_655
As10 Sr0 3.082735 1_555
As10 Ca2 3.108347 1_655
As10 Ca2 3.108347 1_555
As11 Ga1 2.532686 1_555
As11 Ca0 3.015012 1_455
As11 Ca0 3.015012 1_555
As11 Sr2 3.080450 1_455
As11 Sr2 3.080450 1_555
As11 Ca1 3.130418 1_555
As11 Ca1 3.130418 1_455
