# generated using pymatgen
data_Y4Ir3PdO14
_symmetry_space_group_name_H-M   'P 1'
_cell_length_a   7.22027979
_cell_length_b   7.17419023
_cell_length_c   7.22028020
_cell_angle_alpha   59.78725356
_cell_angle_beta   59.99999814
_cell_angle_gamma   59.78724902
_symmetry_Int_Tables_number   1
_chemical_formula_structural   Y4Ir3PdO14
_chemical_formula_sum   'Y4 Ir3 Pd1 O14'
_cell_volume   263.61000755
_cell_formula_units_Z   1
loop_
 _symmetry_equiv_pos_site_id
 _symmetry_equiv_pos_as_xyz
  1  'x, y, z'
loop_
 _atom_site_type_symbol
 _atom_site_label
 _atom_site_symmetry_multiplicity
 _atom_site_fract_x
 _atom_site_fract_y
 _atom_site_fract_z
 _atom_site_occupancy
  Y  Y0  1  0.62500000  0.12500000  0.12500000  1
  Y  Y1  1  0.12500000  0.62500000  0.12500000  1
  Y  Y2  1  0.12500000  0.12500000  0.62500000  1
  Y  Y3  1  0.12500000  0.12500000  0.12500000  1
  Ir  Ir0  1  0.12500000  0.62500000  0.62500000  1
  Ir  Ir1  1  0.62500000  0.62500000  0.12500000  1
  Ir  Ir2  1  0.62500000  0.62500000  0.62500000  1
  Pd  Pd0  1  0.62500000  0.12500000  0.62500000  1
  O  O0  1  0.71605573  0.70675733  0.28859297  1
  O  O1  1  0.28334551  0.28689784  0.71487883  1
  O  O2  1  0.71487883  0.28689784  0.71487883  1
  O  O3  1  0.28859297  0.70675733  0.28859297  1
  O  O4  1  0.28859297  0.70675733  0.71605573  1
  O  O5  1  0.71487883  0.28689784  0.28334551  1
  O  O6  1  0.53394427  0.54324267  0.96140703  1
  O  O7  1  0.96665449  0.96310216  0.53512117  1
  O  O8  1  0.53512117  0.96310216  0.53512117  1
  O  O9  1  0.96140703  0.54324267  0.96140703  1
  O  O10  1  0.96140703  0.54324267  0.53394427  1
  O  O11  1  0.53512117  0.96310216  0.96665449  1
  O  O12  1  0.25036633  0.24890002  0.25036633  1
  O  O13  1  0.99963367  0.00109998  0.99963367  1
loop_
_geom_bond_atom_site_label_1
_geom_bond_atom_site_label_2
_geom_bond_distance
_geom_bond_site_symmetry_2
Ir0 O7 1.994635 1_455
Ir0 O1 1.994635 1_555
Ir0 O4 2.008335 1_555
Ir0 O10 2.008335 1_455
Ir0 O9 2.008340 1_455
Ir0 O3 2.008340 1_555
Ir1 O11 1.994635 1_554
Ir1 O5 1.994635 1_555
Ir1 O0 2.008335 1_555
Ir1 O6 2.008335 1_554
Ir1 O9 2.008340 1_554
Ir1 O3 2.008340 1_555
Ir2 O8 1.994634 1_555
Ir2 O2 1.994634 1_555
Ir2 O10 2.008341 1_555
Ir2 O4 2.008341 1_555
Ir2 O6 2.008341 1_555
Ir2 O0 2.008341 1_555
O0 Y1 2.433969 1_655
O0 Y0 2.460683 1_565
O1 Pd0 2.032145 1_555
O1 Y3 2.431930 1_556
O1 Y2 2.431935 1_555
O2 Pd0 2.032151 1_555
O2 Y2 2.431929 1_655
O2 Y0 2.431929 1_556
O3 Y1 2.433963 1_555
O3 Y3 2.460682 1_565
O4 Y1 2.433969 1_556
O4 Y2 2.460683 1_565
O5 Pd0 2.032145 1_555
O5 Y3 2.431929 1_655
O5 Y0 2.431935 1_555
O6 Y1 2.433969 1_556
O6 Y0 2.460683 1_556
O7 Pd0 2.032145 1_565
O7 Y3 2.431930 1_665
O7 Y2 2.431935 1_665
O8 Pd0 2.032151 1_565
O8 Y2 2.431929 1_565
O8 Y0 2.431929 1_565
O9 Y1 2.433963 1_656
O9 Y3 2.460682 1_656
O10 Y1 2.433969 1_655
O10 Y2 2.460683 1_655
O11 Pd0 2.032145 1_565
O11 Y3 2.431929 1_566
O11 Y0 2.431935 1_566
O12 Y1 2.195971 1_555
O12 Y3 2.206286 1_555
O12 Y0 2.206292 1_555
O12 Y2 2.206292 1_555
O13 Y1 2.195971 1_646
O13 Y3 2.206286 1_656
O13 Y0 2.206292 1_556
O13 Y2 2.206292 1_655
