# generated using pymatgen
data_Zr2TaNb7N12
_symmetry_space_group_name_H-M   'P 1'
_cell_length_a   5.29144329
_cell_length_b   5.29144377
_cell_length_c   10.51614511
_cell_angle_alpha   90.00000000
_cell_angle_beta   90.00000000
_cell_angle_gamma   119.99999703
_symmetry_Int_Tables_number   1
_chemical_formula_structural   Zr2TaNb7N12
_chemical_formula_sum   'Zr2 Ta1 Nb7 N12'
_cell_volume   254.99727898
_cell_formula_units_Z   1
loop_
 _symmetry_equiv_pos_site_id
 _symmetry_equiv_pos_as_xyz
  1  'x, y, z'
loop_
 _atom_site_type_symbol
 _atom_site_label
 _atom_site_symmetry_multiplicity
 _atom_site_fract_x
 _atom_site_fract_y
 _atom_site_fract_z
 _atom_site_occupancy
  Zr  Zr0  1  0.33333300  0.66666700  0.00000000  1
  Zr  Zr1  1  0.33333300  0.66666700  0.50000000  1
  Ta  Ta0  1  0.66666700  0.33333300  0.50000000  1
  Nb  Nb0  1  0.67618937  0.67702911  0.74997818  1
  Nb  Nb1  1  0.32297089  0.99916026  0.74997818  1
  Nb  Nb2  1  0.00083974  0.32381063  0.74997818  1
  Nb  Nb3  1  0.32297089  0.32381063  0.25002182  1
  Nb  Nb4  1  0.67618937  0.99916026  0.25002182  1
  Nb  Nb5  1  0.00083974  0.67702911  0.25002182  1
  Nb  Nb6  1  0.66666700  0.33333300  0.00000000  1
  N  N0  1  0.65943585  0.64970137  0.37844404  1
  N  N1  1  0.35029863  0.00973447  0.37844404  1
  N  N2  1  0.99026553  0.34056415  0.37844404  1
  N  N3  1  0.35029863  0.34056415  0.62155596  1
  N  N4  1  0.65943585  0.00973447  0.62155596  1
  N  N5  1  0.99026553  0.64970137  0.62155596  1
  N  N6  1  0.34601902  0.34023400  0.87639526  1
  N  N7  1  0.65976600  0.00578502  0.87639526  1
  N  N8  1  0.99421498  0.65398098  0.87639526  1
  N  N9  1  0.65976600  0.65398098  0.12360474  1
  N  N10  1  0.34601902  0.00578502  0.12360474  1
  N  N11  1  0.99421498  0.34023400  0.12360474  1
loop_
_geom_bond_atom_site_label_1
_geom_bond_atom_site_label_2
_geom_bond_distance
_geom_bond_site_symmetry_2
N0 Ta0 2.121791 1_555
N0 Zr1 2.185076 1_555
N0 Nb5 2.201604 1_655
N0 Nb3 2.212951 1_555
N0 Nb4 2.255466 1_555
N1 Ta0 2.121789 1_555
N1 Zr1 2.185072 1_545
N1 Nb3 2.201605 1_555
N1 Nb4 2.212951 1_545
N1 Nb5 2.255466 1_545
N2 Ta0 2.121787 1_555
N2 Zr1 2.185074 1_655
N2 Nb4 2.201605 1_545
N2 Nb5 2.212951 1_655
N2 Nb3 2.255466 1_655
N3 Ta0 2.121791 1_555
N3 Zr1 2.185076 1_555
N3 Nb1 2.201605 1_545
N3 Nb0 2.212951 1_555
N3 Nb2 2.255466 1_555
N4 Ta0 2.121787 1_555
N4 Zr1 2.185074 1_545
N4 Nb2 2.201605 1_655
N4 Nb1 2.212951 1_545
N4 Nb0 2.255466 1_545
N5 Ta0 2.121789 1_555
N5 Zr1 2.185072 1_655
N5 Nb0 2.201604 1_555
N5 Nb2 2.212951 1_655
N5 Nb1 2.255466 1_655
N6 Nb6 2.152126 1_556
N6 Zr0 2.189435 1_556
N6 Nb1 2.195297 1_545
N6 Nb0 2.209550 1_555
N6 Nb2 2.225370 1_555
N7 Nb6 2.152122 1_556
N7 Zr0 2.189433 1_546
N7 Nb2 2.195297 1_655
N7 Nb1 2.209550 1_545
N7 Nb0 2.225370 1_545
N8 Nb6 2.152124 1_556
N8 Zr0 2.189430 1_656
N8 Nb0 2.195297 1_555
N8 Nb2 2.209550 1_655
N8 Nb1 2.225370 1_655
N9 Nb6 2.152126 1_555
N9 Zr0 2.189435 1_555
N9 Nb5 2.195297 1_655
N9 Nb3 2.209550 1_555
N9 Nb4 2.225370 1_555
N10 Nb6 2.152124 1_555
N10 Zr0 2.189431 1_545
N10 Nb3 2.195297 1_555
N10 Nb4 2.209550 1_545
N10 Nb5 2.225370 1_545
N11 Nb6 2.152122 1_555
N11 Zr0 2.189433 1_655
N11 Nb4 2.195297 1_545
N11 Nb5 2.209550 1_655
N11 Nb3 2.225370 1_655
