# generated using pymatgen
data_AlZn2GeRh4
_symmetry_space_group_name_H-M   'P 1'
_cell_length_a   7.31147985
_cell_length_b   7.31148032
_cell_length_c   7.31148144
_cell_angle_alpha   33.61775005
_cell_angle_beta   33.61774293
_cell_angle_gamma   33.61775686
_symmetry_Int_Tables_number   1
_chemical_formula_structural   AlZn2GeRh4
_chemical_formula_sum   'Al1 Zn2 Ge1 Rh4'
_cell_volume   106.72644209
_cell_formula_units_Z   1
loop_
 _symmetry_equiv_pos_site_id
 _symmetry_equiv_pos_as_xyz
  1  'x, y, z'
loop_
 _atom_site_type_symbol
 _atom_site_label
 _atom_site_symmetry_multiplicity
 _atom_site_fract_x
 _atom_site_fract_y
 _atom_site_fract_z
 _atom_site_occupancy
  Al  Al0  1  0.00000000  0.00000000  0.00000000  1
  Zn  Zn0  1  0.25329976  0.25329976  0.25329976  1
  Zn  Zn1  1  0.74670024  0.74670024  0.74670024  1
  Ge  Ge0  1  0.50000000  0.50000000  0.50000000  1
  Rh  Rh0  1  0.37697036  0.37697036  0.37697036  1
  Rh  Rh1  1  0.87333909  0.87333909  0.87333909  1
  Rh  Rh2  1  0.62302964  0.62302964  0.62302964  1
  Rh  Rh3  1  0.12666091  0.12666091  0.12666091  1
loop_
_geom_bond_atom_site_label_1
_geom_bond_atom_site_label_2
_geom_bond_distance
_geom_bond_site_symmetry_2
Al0 Rh0 2.602794 1_554
Al0 Rh2 2.602794 1_445
Al0 Rh0 2.602795 1_455
Al0 Rh2 2.602795 1_544
Al0 Rh0 2.602795 1_545
Al0 Rh2 2.602795 1_454
Al0 Rh3 2.618773 1_555
Al0 Rh1 2.618773 1_444
Ge0 Rh2 2.543695 1_555
Ge0 Rh0 2.543695 1_555
Ge0 Rh1 2.577732 1_554
Ge0 Rh3 2.577732 1_556
Ge0 Rh1 2.577732 1_455
Ge0 Rh3 2.577732 1_655
Ge0 Rh1 2.577733 1_545
Ge0 Rh3 2.577733 1_565
Rh0 Zn1 2.554765 1_554
Rh0 Zn1 2.554766 1_455
Rh0 Zn1 2.554766 1_545
Rh0 Zn0 2.556947 1_555
Rh1 Zn1 2.618317 1_555
Rh1 Zn0 2.624866 1_665
Rh1 Zn0 2.624867 1_566
Rh1 Zn0 2.624867 1_656
Rh2 Zn0 2.554765 1_556
Rh2 Zn0 2.554766 1_655
Rh2 Zn0 2.554766 1_565
Rh2 Zn1 2.556947 1_555
Rh3 Zn0 2.618317 1_555
Rh3 Zn1 2.624866 1_445
Rh3 Zn1 2.624867 1_544
Rh3 Zn1 2.624867 1_454
