# generated using pymatgen
data_Lu10Al5BiC8
_symmetry_space_group_name_H-M   'P 1'
_cell_length_a   10.63930695
_cell_length_b   10.63930695
_cell_length_c   3.45971853
_cell_angle_alpha   90.00000000
_cell_angle_beta   90.00000000
_cell_angle_gamma   90.00000000
_symmetry_Int_Tables_number   1
_chemical_formula_structural   Lu10Al5BiC8
_chemical_formula_sum   'Lu10 Al5 Bi1 C8'
_cell_volume   391.62232778
_cell_formula_units_Z   1
loop_
 _symmetry_equiv_pos_site_id
 _symmetry_equiv_pos_as_xyz
  1  'x, y, z'
loop_
 _atom_site_type_symbol
 _atom_site_label
 _atom_site_symmetry_multiplicity
 _atom_site_fract_x
 _atom_site_fract_y
 _atom_site_fract_z
 _atom_site_occupancy
  Lu  Lu0  1  0.55126013  0.73984581  0.50000000  1
  Lu  Lu1  1  0.44873987  0.26015419  0.50000000  1
  Lu  Lu2  1  0.04855520  0.77083512  0.50000000  1
  Lu  Lu3  1  0.95144480  0.22916488  0.50000000  1
  Lu  Lu4  1  0.26015419  0.55126013  0.50000000  1
  Lu  Lu5  1  0.73984581  0.44873987  0.50000000  1
  Lu  Lu6  1  0.22916488  0.04855520  0.50000000  1
  Lu  Lu7  1  0.77083512  0.95144480  0.50000000  1
  Lu  Lu8  1  0.50000000  0.00000000  0.00000000  1
  Lu  Lu9  1  0.00000000  0.50000000  0.00000000  1
  Al  Al0  1  0.71348883  0.19284372  0.00000000  1
  Al  Al1  1  0.28651117  0.80715628  0.00000000  1
  Al  Al2  1  0.19284372  0.28651117  0.00000000  1
  Al  Al3  1  0.80715628  0.71348883  0.00000000  1
  Al  Al4  1  0.00000000  0.00000000  0.00000000  1
  Bi  Bi0  1  0.50000000  0.50000000  0.00000000  1
  C  C0  1  0.62843862  0.12933512  0.50000000  1
  C  C1  1  0.37156138  0.87066488  0.50000000  1
  C  C2  1  0.12933512  0.37156138  0.50000000  1
  C  C3  1  0.87066488  0.62843862  0.50000000  1
  C  C4  1  0.16210185  0.66032115  0.00000000  1
  C  C5  1  0.83789815  0.33967885  0.00000000  1
  C  C6  1  0.66032115  0.83789815  0.00000000  1
  C  C7  1  0.33967885  0.16210185  0.00000000  1
loop_
_geom_bond_atom_site_label_1
_geom_bond_atom_site_label_2
_geom_bond_distance
_geom_bond_site_symmetry_2
Al0 C5 2.047569 1_555
Al0 C0 2.065857 1_554
Al0 C0 2.065857 1_555
Al1 C4 2.047569 1_555
Al1 C1 2.065857 1_555
Al1 C1 2.065857 1_554
Al2 C7 2.047569 1_555
Al2 C2 2.065857 1_554
Al2 C2 2.065857 1_555
Al3 C6 2.047569 1_555
Al3 C3 2.065857 1_554
Al3 C3 2.065857 1_555
Al4 Lu6 3.033790 1_554
Al4 Lu6 3.033790 1_555
Al4 Lu3 3.033790 1_454
Al4 Lu3 3.033790 1_455
Al4 Lu2 3.033790 1_545
Al4 Lu2 3.033790 1_544
Al4 Lu7 3.033790 1_445
Al4 Lu7 3.033790 1_444
Bi0 Lu0 3.130734 1_554
Bi0 Lu0 3.130734 1_555
Bi0 Lu5 3.130734 1_555
Bi0 Lu5 3.130734 1_554
Bi0 Lu4 3.130734 1_554
Bi0 Lu4 3.130734 1_555
Bi0 Lu1 3.130734 1_555
Bi0 Lu1 3.130734 1_554
C0 Lu1 2.364830 1_555
C0 Lu7 2.424309 1_545
C0 Lu8 2.598693 1_556
C0 Lu8 2.598693 1_555
C1 Lu0 2.364830 1_555
C1 Lu6 2.424309 1_565
C1 Lu8 2.598693 1_566
C1 Lu8 2.598693 1_565
C2 Lu4 2.364830 1_555
C2 Lu3 2.424309 1_455
C2 Lu9 2.598693 1_556
C2 Lu9 2.598693 1_555
C3 Lu5 2.364830 1_555
C3 Lu2 2.424309 1_655
C3 Lu9 2.598693 1_656
C3 Lu9 2.598693 1_655
C4 Lu4 2.329608 1_554
C4 Lu4 2.329608 1_555
C4 Lu2 2.415430 1_555
C4 Lu2 2.415430 1_554
C4 Lu9 2.425666 1_555
C5 Lu5 2.329608 1_555
C5 Lu5 2.329608 1_554
C5 Lu3 2.415430 1_555
C5 Lu3 2.415430 1_554
C5 Lu9 2.425666 1_655
C6 Lu0 2.329608 1_554
C6 Lu0 2.329608 1_555
C6 Lu7 2.415430 1_555
C6 Lu7 2.415430 1_554
C6 Lu8 2.425666 1_565
C7 Lu1 2.329608 1_555
C7 Lu1 2.329608 1_554
C7 Lu6 2.415430 1_555
C7 Lu6 2.415430 1_554
C7 Lu8 2.425666 1_555
