# generated using pymatgen
data_Sc4TcI4
_symmetry_space_group_name_H-M   'P 1'
_cell_length_a   11.22872278
_cell_length_b   11.22872083
_cell_length_c   5.82616757
_cell_angle_alpha   90.08434100
_cell_angle_beta   90.08433450
_cell_angle_gamma   89.85608225
_symmetry_Int_Tables_number   1
_chemical_formula_structural   Sc4TcI4
_chemical_formula_sum   'Sc8 Tc2 I8'
_cell_volume   734.58373432
_cell_formula_units_Z   2
loop_
 _symmetry_equiv_pos_site_id
 _symmetry_equiv_pos_as_xyz
  1  'x, y, z'
loop_
 _atom_site_type_symbol
 _atom_site_label
 _atom_site_symmetry_multiplicity
 _atom_site_fract_x
 _atom_site_fract_y
 _atom_site_fract_z
 _atom_site_occupancy
  Sc  Sc0  1  0.81388727  0.07765933  0.00098253  1
  Sc  Sc1  1  0.07765933  0.81388727  0.50098253  1
  Sc  Sc2  1  0.07739904  0.18596290  0.99834574  1
  Sc  Sc3  1  0.18596290  0.07739904  0.49834574  1
  Sc  Sc4  1  0.92260096  0.81403710  0.00165426  1
  Sc  Sc5  1  0.92234067  0.18611273  0.49901747  1
  Sc  Sc6  1  0.18611273  0.92234067  0.99901747  1
  Sc  Sc7  1  0.81403710  0.92260096  0.50165426  1
  Tc  Tc0  1  0.00005515  0.99994485  0.25000000  1
  Tc  Tc1  1  0.99994485  0.00005515  0.75000000  1
  I  I0  1  0.65750630  0.14073567  0.49356987  1
  I  I1  1  0.86017528  0.65756294  0.48990795  1
  I  I2  1  0.34243706  0.13982472  0.01009205  1
  I  I3  1  0.13982472  0.34243706  0.51009205  1
  I  I4  1  0.65756294  0.86017528  0.98990795  1
  I  I5  1  0.34249370  0.85926433  0.50643013  1
  I  I6  1  0.14073567  0.65750630  0.99356987  1
  I  I7  1  0.85926433  0.34249370  0.00643013  1
loop_
_geom_bond_atom_site_label_1
_geom_bond_atom_site_label_2
_geom_bond_distance
_geom_bond_site_symmetry_2
Sc0 Tc0 2.687356 1_645
Sc0 Tc1 2.694134 1_554
Sc1 Tc1 2.687356 1_465
Sc1 Tc0 2.694134 1_555
Sc2 Tc1 2.684052 1_455
Sc2 Tc0 2.699752 1_546
Sc3 Tc0 2.684052 1_545
Sc3 Tc1 2.699752 1_455
Sc4 Tc0 2.684052 1_655
Sc4 Tc1 2.699752 1_564
Sc5 Tc0 2.687356 1_645
Sc5 Tc1 2.694134 1_555
Sc6 Tc1 2.687356 1_465
Sc6 Tc0 2.694134 1_556
Sc7 Tc1 2.684052 1_565
Sc7 Tc0 2.699752 1_655
I0 Sc7 3.011548 1_545
I0 Sc5 3.018462 1_555
I0 Sc0 3.438596 1_555
I0 Sc0 3.508448 1_556
I1 Sc1 3.011603 1_655
I1 Sc7 3.020206 1_555
I1 Sc4 3.420118 1_555
I1 Sc4 3.528808 1_556
I2 Sc6 3.011603 1_544
I2 Sc2 3.020206 1_554
I2 Sc3 3.420118 1_555
I2 Sc3 3.528808 1_554
I3 Sc5 3.011603 1_455
I3 Sc3 3.020206 1_555
I3 Sc2 3.420118 1_555
I3 Sc2 3.528808 1_554
I4 Sc0 3.011603 1_566
I4 Sc4 3.020206 1_556
I4 Sc7 3.420118 1_555
I4 Sc7 3.528808 1_556
I5 Sc3 3.011548 1_565
I5 Sc1 3.018462 1_555
I5 Sc6 3.438596 1_555
I5 Sc6 3.508448 1_554
I6 Sc4 3.011548 1_456
I6 Sc6 3.018461 1_555
I6 Sc1 3.438596 1_555
I6 Sc1 3.508447 1_556
I7 Sc2 3.011548 1_654
I7 Sc0 3.018461 1_555
I7 Sc5 3.438596 1_555
I7 Sc5 3.508447 1_554
