# generated using pymatgen
data_LiLuH6Os
_symmetry_space_group_name_H-M   'P 1'
_cell_length_a   4.77106397
_cell_length_b   4.77109663
_cell_length_c   4.77104183
_cell_angle_alpha   60.00004355
_cell_angle_beta   60.00000579
_cell_angle_gamma   59.99979374
_symmetry_Int_Tables_number   1
_chemical_formula_structural   LiLuH6Os
_chemical_formula_sum   'Li1 Lu1 H6 Os1'
_cell_volume   76.79468509
_cell_formula_units_Z   1
loop_
 _symmetry_equiv_pos_site_id
 _symmetry_equiv_pos_as_xyz
  1  'x, y, z'
loop_
 _atom_site_type_symbol
 _atom_site_label
 _atom_site_symmetry_multiplicity
 _atom_site_fract_x
 _atom_site_fract_y
 _atom_site_fract_z
 _atom_site_occupancy
  Li  Li0  1  0.74999326  0.75000483  0.74999799  1
  Lu  Lu0  1  0.24998940  0.24999026  0.24998805  1
  H  H0  1  0.74855373  0.74855835  0.25144470  1
  H  H1  1  0.74856293  0.25143878  0.25145034  1
  H  H2  1  0.25145289  0.74855483  0.25144739  1
  H  H3  1  0.25145094  0.74854783  0.74855157  1
  H  H4  1  0.25145016  0.25144939  0.74855445  1
  H  H5  1  0.74855190  0.25145565  0.74855004  1
  Os  Os0  1  0.99999178  0.00000408  0.00001646  1
loop_
_geom_bond_atom_site_label_1
_geom_bond_atom_site_label_2
_geom_bond_distance
_geom_bond_site_symmetry_2
H0 Os0 1.696564 1_565
H0 Lu0 2.385543 1_565
H0 Lu0 2.385561 1_655
H1 Os0 1.696502 1_555
H1 Lu0 2.385414 1_655
H1 Lu0 2.385690 1_555
H2 Os0 1.696576 1_465
H2 Lu0 2.385445 1_565
H2 Lu0 2.385693 1_555
H3 Os0 1.696679 1_466
H3 Lu0 2.385542 1_556
H3 Lu0 2.385570 1_565
H4 Os0 1.696631 1_456
H4 Lu0 2.385415 1_556
H4 Lu0 2.385667 1_555
H5 Os0 1.696625 1_556
H5 Lu0 2.385545 1_655
H5 Lu0 2.385548 1_556
