# generated using pymatgen
data_Ta3Fe(AsO4)6
_symmetry_space_group_name_H-M   'P 1'
_cell_length_a   9.23882453
_cell_length_b   9.23882406
_cell_length_c   9.23882388
_cell_angle_alpha   56.87403625
_cell_angle_beta   56.87402799
_cell_angle_gamma   56.87403169
_symmetry_Int_Tables_number   1
_chemical_formula_structural   Ta3Fe(AsO4)6
_chemical_formula_sum   'Ta3 Fe1 As6 O24'
_cell_volume   517.39928617
_cell_formula_units_Z   1
loop_
 _symmetry_equiv_pos_site_id
 _symmetry_equiv_pos_as_xyz
  1  'x, y, z'
loop_
 _atom_site_type_symbol
 _atom_site_label
 _atom_site_symmetry_multiplicity
 _atom_site_fract_x
 _atom_site_fract_y
 _atom_site_fract_z
 _atom_site_occupancy
  Ta  Ta0  1  0.14382322  0.14382322  0.14382322  1
  Ta  Ta1  1  0.35897110  0.35897110  0.35897110  1
  Ta  Ta2  1  0.63911428  0.63911428  0.63911428  1
  Fe  Fe0  1  0.85619102  0.85619102  0.85619102  1
  As  As0  1  0.03034632  0.48320420  0.74552056  1
  As  As1  1  0.48320420  0.74552056  0.03034632  1
  As  As2  1  0.74552056  0.03034632  0.48320420  1
  As  As3  1  0.24171331  0.96787260  0.53421759  1
  As  As4  1  0.53421759  0.24171331  0.96787260  1
  As  As5  1  0.96787260  0.53421759  0.24171331  1
  O  O0  1  0.12806325  0.49337816  0.30930810  1
  O  O1  1  0.30930810  0.12806325  0.49337816  1
  O  O2  1  0.02702261  0.31388828  0.95679099  1
  O  O3  1  0.49337816  0.30930810  0.12806325  1
  O  O4  1  0.23450034  0.39438297  0.59512870  1
  O  O5  1  0.01716171  0.68518479  0.71182801  1
  O  O6  1  0.31388828  0.95679099  0.02702261  1
  O  O7  1  0.39438297  0.59512870  0.23450034  1
  O  O8  1  0.59512870  0.23450034  0.39438297  1
  O  O9  1  0.27006502  0.98868861  0.32662425  1
  O  O10  1  0.02951509  0.99268840  0.68839519  1
  O  O11  1  0.32662425  0.27006502  0.98868861  1
  O  O12  1  0.68518479  0.71182801  0.01716171  1
  O  O13  1  0.95679099  0.02702261  0.31388828  1
  O  O14  1  0.71182801  0.01716171  0.68518479  1
  O  O15  1  0.40423493  0.76263718  0.60175646  1
  O  O16  1  0.60175646  0.40423493  0.76263718  1
  O  O17  1  0.68839519  0.02951509  0.99268840  1
  O  O18  1  0.98868861  0.32662425  0.27006502  1
  O  O19  1  0.76263718  0.60175646  0.40423493  1
  O  O20  1  0.49859902  0.70716509  0.86201465  1
  O  O21  1  0.99268840  0.68839519  0.02951509  1
  O  O22  1  0.70716509  0.86201465  0.49859902  1
  O  O23  1  0.86201465  0.49859902  0.70716509  1
loop_
_geom_bond_atom_site_label_1
_geom_bond_atom_site_label_2
_geom_bond_distance
_geom_bond_site_symmetry_2
Fe0 O17 1.978624 1_565
Fe0 O10 1.978624 1_655
Fe0 O21 1.978624 1_556
Fe0 O5 2.013403 1_655
Fe0 O12 2.013403 1_556
Fe0 O14 2.013403 1_565
As0 O5 1.658934 1_555
As0 O4 1.688691 1_555
As0 O23 1.694075 1_455
As0 O2 1.705179 1_555
As1 O12 1.658934 1_555
As1 O7 1.688691 1_555
As1 O20 1.694075 1_554
As1 O6 1.705179 1_555
As2 O14 1.658934 1_555
As2 O8 1.688692 1_555
As2 O22 1.694075 1_545
As2 O13 1.705179 1_555
As3 O10 1.654842 1_555
As3 O15 1.690663 1_555
As3 O1 1.692627 1_565
As3 O9 1.699075 1_555
As4 O17 1.654842 1_555
As4 O16 1.690663 1_555
As4 O3 1.692627 1_556
As4 O11 1.699075 1_555
As5 O21 1.654842 1_555
As5 O19 1.690663 1_555
As5 O0 1.692627 1_655
As5 O18 1.699075 1_555
O0 Ta1 1.963491 1_555
O1 Ta1 1.963491 1_555
O2 Ta0 1.958696 1_556
O3 Ta1 1.963491 1_555
O4 Ta1 1.953585 1_555
O6 Ta0 1.958696 1_565
O7 Ta1 1.953586 1_555
O8 Ta1 1.953586 1_555
O9 Ta0 1.986717 1_565
O11 Ta0 1.986717 1_556
O13 Ta0 1.958696 1_655
O15 Ta2 1.952399 1_555
O16 Ta2 1.952399 1_555
O18 Ta0 1.986717 1_655
O19 Ta2 1.952399 1_555
O20 Ta2 1.980537 1_555
O22 Ta2 1.980537 1_555
O23 Ta2 1.980538 1_555
