# generated using pymatgen
data_ScTcRuW
_symmetry_space_group_name_H-M   'P 1'
_cell_length_a   4.44598660
_cell_length_b   4.44598572
_cell_length_c   4.44598634
_cell_angle_alpha   59.99999537
_cell_angle_beta   60.00000195
_cell_angle_gamma   59.99999049
_symmetry_Int_Tables_number   1
_chemical_formula_structural   ScTcRuW
_chemical_formula_sum   'Sc1 Tc1 Ru1 W1'
_cell_volume   62.14258270
_cell_formula_units_Z   1
loop_
 _symmetry_equiv_pos_site_id
 _symmetry_equiv_pos_as_xyz
  1  'x, y, z'
loop_
 _atom_site_type_symbol
 _atom_site_label
 _atom_site_symmetry_multiplicity
 _atom_site_fract_x
 _atom_site_fract_y
 _atom_site_fract_z
 _atom_site_occupancy
  Sc  Sc0  1  0.50000000  0.50000000  0.50000000  1
  Tc  Tc0  1  0.75000000  0.75000000  0.75000000  1
  Ru  Ru0  1  0.25000000  0.25000000  0.25000000  1
  W  W0  1  0.00000000  0.00000000  0.00000000  1
loop_
_geom_bond_atom_site_label_1
_geom_bond_atom_site_label_2
_geom_bond_distance
_geom_bond_site_symmetry_2
Sc0 Tc0 2.722599 1_545
Sc0 Tc0 2.722599 1_555
Sc0 Tc0 2.722599 1_554
Sc0 Tc0 2.722600 1_455
Sc0 W0 3.143787 1_566
Sc0 W0 3.143787 1_656
Sc0 W0 3.143787 1_655
Sc0 W0 3.143787 1_565
Sc0 W0 3.143787 1_556
Sc0 W0 3.143787 1_665
Tc0 W0 2.722599 1_656
Tc0 W0 2.722599 1_666
Tc0 W0 2.722599 1_665
Tc0 W0 2.722600 1_566
Ru0 W0 2.722599 1_565
Ru0 Sc0 2.722599 1_545
Ru0 W0 2.722599 1_555
Ru0 Sc0 2.722599 1_555
Ru0 Sc0 2.722599 1_554
Ru0 W0 2.722599 1_556
Ru0 Sc0 2.722600 1_455
Ru0 W0 2.722600 1_655
