# generated using pymatgen
data_ZrSc(NiH3)2
_symmetry_space_group_name_H-M   'P 1'
_cell_length_a   5.54197726
_cell_length_b   5.54197622
_cell_length_c   4.31544111
_cell_angle_alpha   90.00000000
_cell_angle_beta   90.00000000
_cell_angle_gamma   143.62062199
_symmetry_Int_Tables_number   1
_chemical_formula_structural   ZrSc(NiH3)2
_chemical_formula_sum   'Zr1 Sc1 Ni2 H6'
_cell_volume   78.61471780
_cell_formula_units_Z   1
loop_
 _symmetry_equiv_pos_site_id
 _symmetry_equiv_pos_as_xyz
  1  'x, y, z'
loop_
 _atom_site_type_symbol
 _atom_site_label
 _atom_site_symmetry_multiplicity
 _atom_site_fract_x
 _atom_site_fract_y
 _atom_site_fract_z
 _atom_site_occupancy
  Zr  Zr0  1  0.13829545  0.86170455  0.25000000  1
  Sc  Sc0  1  0.86266403  0.13733597  0.75000000  1
  Ni  Ni0  1  0.57179374  0.42820626  0.75000000  1
  Ni  Ni1  1  0.42790518  0.57209482  0.25000000  1
  H  H0  1  0.07075075  0.92924925  0.75000000  1
  H  H1  1  0.93320462  0.06679538  0.25000000  1
  H  H2  1  0.68538452  0.31461548  0.49457124  1
  H  H3  1  0.31230910  0.68769090  0.49699015  1
  H  H4  1  0.68538452  0.31461548  0.00542876  1
  H  H5  1  0.31230910  0.68769090  0.00300985  1
loop_
_geom_bond_atom_site_label_1
_geom_bond_atom_site_label_2
_geom_bond_distance
_geom_bond_site_symmetry_2
H0 Ni0 1.730040 1_455
H0 Ni0 1.730040 1_565
H0 Sc0 2.191167 1_465
H0 Zr0 2.271923 1_555
H0 Zr0 2.271923 1_556
H1 Ni1 1.730905 1_655
H1 Ni1 1.730905 1_545
H1 Zr0 2.159621 1_645
H1 Sc0 2.281996 1_554
H1 Sc0 2.281996 1_555
H2 Ni0 1.626573 1_555
H2 Zr0 2.086318 1_655
H2 Zr0 2.086319 1_545
H2 Sc0 2.167914 1_555
H3 Ni1 1.617944 1_555
H3 Sc0 2.113340 1_455
H3 Sc0 2.113341 1_565
H3 Zr0 2.119831 1_555
H4 Ni0 1.626573 1_554
H4 Zr0 2.086318 1_655
H4 Zr0 2.086319 1_545
H4 Sc0 2.167914 1_554
H5 Ni1 1.617944 1_555
H5 Sc0 2.113340 1_454
H5 Sc0 2.113341 1_564
H5 Zr0 2.119831 1_555
