# generated using pymatgen
data_Hf6Zn22AgGe
_symmetry_space_group_name_H-M   'P 1'
_cell_length_a   8.65630161
_cell_length_b   8.65630078
_cell_length_c   8.65630020
_cell_angle_alpha   60.00000218
_cell_angle_beta   60.00000536
_cell_angle_gamma   60.00000040
_symmetry_Int_Tables_number   1
_chemical_formula_structural   Hf6Zn22AgGe
_chemical_formula_sum   'Hf6 Zn22 Ag1 Ge1'
_cell_volume   458.65069490
_cell_formula_units_Z   1
loop_
 _symmetry_equiv_pos_site_id
 _symmetry_equiv_pos_as_xyz
  1  'x, y, z'
loop_
 _atom_site_type_symbol
 _atom_site_label
 _atom_site_symmetry_multiplicity
 _atom_site_fract_x
 _atom_site_fract_y
 _atom_site_fract_z
 _atom_site_occupancy
  Hf  Hf0  1  0.71335442  0.28664558  0.28664558  1
  Hf  Hf1  1  0.28664558  0.71335442  0.71335442  1
  Hf  Hf2  1  0.28664558  0.71335442  0.28664558  1
  Hf  Hf3  1  0.71335442  0.28664558  0.71335442  1
  Hf  Hf4  1  0.28664558  0.28664558  0.71335442  1
  Hf  Hf5  1  0.71335442  0.71335442  0.28664558  1
  Zn  Zn0  1  0.12520375  0.12520375  0.12520375  1
  Zn  Zn1  1  0.87479625  0.87479625  0.87479625  1
  Zn  Zn2  1  0.12520375  0.12520375  0.62438875  1
  Zn  Zn3  1  0.12520375  0.62438875  0.12520375  1
  Zn  Zn4  1  0.87479625  0.87479625  0.37561125  1
  Zn  Zn5  1  0.87479625  0.37561125  0.87479625  1
  Zn  Zn6  1  0.62438875  0.12520375  0.12520375  1
  Zn  Zn7  1  0.37561125  0.87479625  0.87479625  1
  Zn  Zn8  1  0.50000000  0.00000000  0.00000000  1
  Zn  Zn9  1  0.00000000  0.50000000  0.50000000  1
  Zn  Zn10  1  0.00000000  0.50000000  0.00000000  1
  Zn  Zn11  1  0.50000000  0.00000000  0.50000000  1
  Zn  Zn12  1  0.00000000  0.00000000  0.50000000  1
  Zn  Zn13  1  0.50000000  0.50000000  0.00000000  1
  Zn  Zn14  1  0.33628514  0.33628514  0.33628514  1
  Zn  Zn15  1  0.66371486  0.66371486  0.66371486  1
  Zn  Zn16  1  0.33628514  0.33628514  0.99114358  1
  Zn  Zn17  1  0.33628514  0.99114358  0.33628514  1
  Zn  Zn18  1  0.66371486  0.66371486  0.00885642  1
  Zn  Zn19  1  0.66371486  0.00885642  0.66371486  1
  Zn  Zn20  1  0.99114358  0.33628514  0.33628514  1
  Zn  Zn21  1  0.00885642  0.66371486  0.66371486  1
  Ag  Ag0  1  0.00000000  0.00000000  0.00000000  1
  Ge  Ge0  1  0.50000000  0.50000000  0.50000000  1
loop_
_geom_bond_atom_site_label_1
_geom_bond_atom_site_label_2
_geom_bond_distance
_geom_bond_site_symmetry_2
Hf0 Zn20 2.898733 1_555
Hf0 Zn19 2.898739 1_555
Hf0 Zn18 2.898739 1_555
Hf0 Zn14 2.898742 1_555
Hf0 Zn6 2.933335 1_555
Hf0 Zn5 2.933335 1_554
Hf0 Zn4 2.933335 1_545
Hf0 Zn0 2.933335 1_655
Hf0 Zn13 3.093169 1_555
Hf0 Zn12 3.093169 1_655
Hf0 Zn11 3.093169 1_555
Hf0 Zn10 3.093169 1_655
Hf1 Zn21 2.898733 1_555
Hf1 Zn17 2.898739 1_555
Hf1 Zn16 2.898739 1_555
Hf1 Zn15 2.898742 1_555
Hf1 Zn7 2.933335 1_555
Hf1 Zn3 2.933335 1_556
Hf1 Zn2 2.933335 1_565
Hf1 Zn1 2.933335 1_455
Hf1 Zn13 3.093169 1_556
Hf1 Zn12 3.093169 1_565
Hf1 Zn11 3.093169 1_565
Hf1 Zn10 3.093169 1_556
Hf2 Zn17 2.898733 1_555
Hf2 Zn21 2.898739 1_555
Hf2 Zn18 2.898739 1_555
Hf2 Zn14 2.898742 1_555
Hf2 Zn7 2.933335 1_554
Hf2 Zn3 2.933335 1_555
Hf2 Zn0 2.933335 1_565
Hf2 Zn4 2.933335 1_455
Hf2 Zn13 3.093169 1_555
Hf2 Zn12 3.093169 1_565
Hf2 Zn8 3.093169 1_565
Hf2 Zn9 3.093169 1_555
Hf3 Zn19 2.898733 1_555
Hf3 Zn20 2.898739 1_555
Hf3 Zn16 2.898739 1_555
Hf3 Zn15 2.898742 1_555
Hf3 Zn6 2.933335 1_556
Hf3 Zn5 2.933335 1_555
Hf3 Zn1 2.933335 1_545
Hf3 Zn2 2.933335 1_655
Hf3 Zn13 3.093169 1_556
Hf3 Zn12 3.093169 1_655
Hf3 Zn8 3.093169 1_556
Hf3 Zn9 3.093169 1_655
Hf4 Zn16 2.898733 1_555
Hf4 Zn21 2.898739 1_555
Hf4 Zn19 2.898739 1_555
Hf4 Zn14 2.898741 1_555
Hf4 Zn7 2.933335 1_545
Hf4 Zn2 2.933335 1_555
Hf4 Zn0 2.933335 1_556
Hf4 Zn5 2.933335 1_455
Hf4 Zn11 3.093169 1_555
Hf4 Zn8 3.093169 1_556
Hf4 Zn9 3.093169 1_555
Hf4 Zn10 3.093169 1_556
Hf5 Zn18 2.898733 1_555
Hf5 Zn20 2.898739 1_555
Hf5 Zn17 2.898739 1_555
Hf5 Zn15 2.898741 1_555
Hf5 Zn6 2.933335 1_565
Hf5 Zn1 2.933335 1_554
Hf5 Zn4 2.933335 1_555
Hf5 Zn3 2.933335 1_655
Hf5 Zn8 3.093169 1_565
Hf5 Zn11 3.093169 1_565
Hf5 Zn10 3.093169 1_655
Hf5 Zn9 3.093169 1_655
Zn0 Zn12 2.649003 1_555
Zn0 Zn10 2.649003 1_555
Zn0 Zn8 2.649003 1_555
Zn0 Zn20 2.668654 1_455
Zn0 Zn17 2.668654 1_545
Zn0 Zn16 2.668655 1_554
Zn1 Zn12 2.649003 1_665
Zn1 Zn10 2.649003 1_656
Zn1 Zn8 2.649003 1_566
Zn1 Zn21 2.668654 1_655
Zn1 Zn19 2.668654 1_565
Zn1 Zn18 2.668655 1_556
Zn2 Zn9 2.649003 1_555
Zn2 Zn20 2.668661 1_455
Zn3 Zn9 2.649003 1_555
Zn4 Zn9 2.649003 1_655
Zn5 Zn9 2.649003 1_655
Zn6 Zn8 2.649003 1_555
Zn7 Zn8 2.649003 1_566
Zn10 Zn20 2.499640 1_455
Zn10 Zn21 2.499640 1_554
Zn10 Zn16 2.499640 1_554
Zn10 Zn18 2.499640 1_455
Zn10 Zn5 2.649003 1_454
Zn10 Zn3 2.649003 1_555
Zn11 Zn14 2.499643 1_555
Zn11 Zn15 2.499643 1_545
Zn11 Zn19 2.499648 1_555
Zn11 Zn17 2.499648 1_545
Zn11 Zn6 2.649003 1_555
Zn11 Zn7 2.649003 1_545
Zn11 Zn2 2.649003 1_555
Zn11 Zn4 2.649003 1_545
Zn12 Zn20 2.499640 1_455
Zn12 Zn21 2.499640 1_545
Zn12 Zn17 2.499641 1_545
Zn12 Zn19 2.499641 1_455
Zn12 Zn4 2.649003 1_445
Zn12 Zn2 2.649003 1_555
Zn13 Zn14 2.499643 1_555
Zn13 Zn15 2.499643 1_554
Zn13 Zn18 2.499648 1_555
Zn13 Zn16 2.499648 1_554
Zn13 Zn6 2.649003 1_555
Zn13 Zn7 2.649003 1_554
Zn13 Zn3 2.649003 1_555
Zn13 Zn5 2.649003 1_554
Zn14 Zn9 2.499643 1_555
Zn14 Zn3 2.668657 1_555
Zn14 Zn6 2.668657 1_555
Zn14 Zn2 2.668657 1_555
Zn14 Zn16 2.987649 1_554
Zn14 Zn17 2.987649 1_545
Zn14 Zn20 2.987649 1_455
Zn15 Zn9 2.499643 1_655
Zn15 Zn5 2.668657 1_555
Zn15 Zn7 2.668657 1_555
Zn15 Zn4 2.668657 1_555
Zn15 Zn18 2.987649 1_556
Zn15 Zn19 2.987649 1_565
Zn15 Zn21 2.987649 1_655
Zn16 Zn8 2.499640 1_556
Zn16 Zn3 2.668661 1_556
Zn16 Zn6 2.668662 1_556
Zn16 Zn17 2.987649 1_546
Zn16 Zn20 2.987649 1_456
Zn17 Zn8 2.499640 1_565
Zn17 Zn2 2.668661 1_565
Zn17 Zn6 2.668662 1_565
Zn17 Zn20 2.987649 1_465
Zn18 Zn8 2.499640 1_565
Zn18 Zn5 2.668661 1_554
Zn18 Zn7 2.668662 1_554
Zn18 Zn19 2.987649 1_564
Zn18 Zn21 2.987649 1_654
Zn19 Zn8 2.499640 1_556
Zn19 Zn4 2.668661 1_545
Zn19 Zn7 2.668662 1_545
Zn19 Zn21 2.987649 1_645
Zn20 Zn9 2.499648 1_655
Zn20 Zn3 2.668662 1_655
Zn21 Zn9 2.499648 1_555
Zn21 Zn4 2.668661 1_455
Zn21 Zn5 2.668662 1_455
Ag0 Zn1 2.654760 1_444
Ag0 Zn4 2.654760 1_445
Ag0 Zn2 2.654760 1_554
Ag0 Zn0 2.654760 1_555
Ag0 Zn5 2.654760 1_454
Ag0 Zn3 2.654760 1_545
Ag0 Zn7 2.654761 1_544
Ag0 Zn6 2.654761 1_455
Ge0 Hf1 2.611854 1_555
Ge0 Hf0 2.611854 1_555
Ge0 Hf3 2.611854 1_555
Ge0 Hf2 2.611854 1_555
Ge0 Hf5 2.611855 1_555
Ge0 Hf4 2.611855 1_555
