# generated using pymatgen
data_Lu4Zr2SnO12
_symmetry_space_group_name_H-M   'P 1'
_cell_length_a   6.23361784
_cell_length_b   6.25315783
_cell_length_c   6.33871998
_cell_angle_alpha   99.60509163
_cell_angle_beta   99.02979091
_cell_angle_gamma   99.50144782
_symmetry_Int_Tables_number   1
_chemical_formula_structural   Lu4Zr2SnO12
_chemical_formula_sum   'Lu4 Zr2 Sn1 O12'
_cell_volume   235.91242260
_cell_formula_units_Z   1
loop_
 _symmetry_equiv_pos_site_id
 _symmetry_equiv_pos_as_xyz
  1  'x, y, z'
loop_
 _atom_site_type_symbol
 _atom_site_label
 _atom_site_symmetry_multiplicity
 _atom_site_fract_x
 _atom_site_fract_y
 _atom_site_fract_z
 _atom_site_occupancy
  Lu  Lu0  1  0.39199417  0.69874205  0.86408196  1
  Lu  Lu1  1  0.69309513  0.86397395  0.39090659  1
  Lu  Lu2  1  0.60800583  0.30125795  0.13591804  1
  Lu  Lu3  1  0.30690487  0.13602605  0.60909341  1
  Zr  Zr0  1  0.85250554  0.39443655  0.68035758  1
  Zr  Zr1  1  0.14749446  0.60556345  0.31964242  1
  Sn  Sn0  1  0.00000000  0.00000000  0.00000000  1
  O  O0  1  0.03779125  0.67907512  0.90169456  1
  O  O1  1  0.68588726  0.92950571  0.05647926  1
  O  O2  1  0.91951447  0.07395721  0.68825282  1
  O  O3  1  0.96220875  0.32092488  0.09830544  1
  O  O4  1  0.31411274  0.07049429  0.94352074  1
  O  O5  1  0.08048553  0.92604279  0.31174718  1
  O  O6  1  0.58564042  0.18493925  0.43226574  1
  O  O7  1  0.17426954  0.42750022  0.57450865  1
  O  O8  1  0.41787328  0.58072491  0.17779048  1
  O  O9  1  0.41435958  0.81506075  0.56773426  1
  O  O10  1  0.82573046  0.57249978  0.42549135  1
  O  O11  1  0.58212672  0.41927509  0.82220952  1
loop_
_geom_bond_atom_site_label_1
_geom_bond_atom_site_label_2
_geom_bond_distance
_geom_bond_site_symmetry_2
Lu0 O9 2.140515 1_555
Lu0 O1 2.182770 1_556
Lu0 O8 2.225565 1_556
Lu0 O0 2.243314 1_555
Lu0 O11 2.270875 1_555
Lu0 O7 2.346718 1_555
Lu0 O4 2.439637 1_565
Lu1 O10 2.151187 1_555
Lu1 O6 2.206584 1_565
Lu1 O9 2.217920 1_555
Lu1 O1 2.220300 1_555
Lu1 O2 2.235149 1_565
Lu1 O8 2.318672 1_555
Lu1 O5 2.523844 1_655
Lu2 O6 2.140515 1_555
Lu2 O4 2.182770 1_554
Lu2 O11 2.225565 1_554
Lu2 O3 2.243314 1_555
Lu2 O8 2.270875 1_555
Lu2 O10 2.346718 1_555
Lu2 O1 2.439637 1_545
Lu3 O7 2.151187 1_555
Lu3 O9 2.206584 1_545
Lu3 O6 2.217920 1_555
Lu3 O4 2.220300 1_555
Lu3 O5 2.235149 1_545
Lu3 O11 2.318672 1_555
Lu3 O2 2.523844 1_455
O0 Sn0 2.062973 1_566
O0 Zr0 2.109437 1_455
O1 Sn0 2.035736 1_665
O2 Sn0 2.107331 1_656
O2 Zr0 2.120448 1_555
O3 Sn0 2.062973 1_655
O3 Zr1 2.109437 1_655
O4 Sn0 2.035736 1_556
O5 Sn0 2.107331 1_565
O5 Zr1 2.120448 1_555
O6 Zr0 2.174487 1_555
O7 Zr1 2.110586 1_555
O7 Zr0 2.201766 1_455
O8 Zr1 2.046665 1_555
O9 Zr1 2.174487 1_555
O10 Zr0 2.110586 1_555
O10 Zr1 2.201766 1_655
O11 Zr0 2.046665 1_555
