# generated using pymatgen
data_Sr10ReSnN10
_symmetry_space_group_name_H-M   'P 1'
_cell_length_a   7.33720051
_cell_length_b   7.33719960
_cell_length_c   9.41743726
_cell_angle_alpha   81.75549311
_cell_angle_beta   81.75549163
_cell_angle_gamma   59.86115292
_symmetry_Int_Tables_number   1
_chemical_formula_structural   Sr10ReSnN10
_chemical_formula_sum   'Sr10 Re1 Sn1 N10'
_cell_volume   432.40090333
_cell_formula_units_Z   1
loop_
 _symmetry_equiv_pos_site_id
 _symmetry_equiv_pos_as_xyz
  1  'x, y, z'
loop_
 _atom_site_type_symbol
 _atom_site_label
 _atom_site_symmetry_multiplicity
 _atom_site_fract_x
 _atom_site_fract_y
 _atom_site_fract_z
 _atom_site_occupancy
  Sr  Sr0  1  0.88713830  0.35709798  0.83976987  1
  Sr  Sr1  1  0.87829325  0.87829325  0.81819598  1
  Sr  Sr2  1  0.73852828  0.73852828  0.53545080  1
  Sr  Sr3  1  0.74379479  0.25311602  0.51321289  1
  Sr  Sr4  1  0.62664496  0.12502062  0.14130898  1
  Sr  Sr5  1  0.35709798  0.88713830  0.83976987  1
  Sr  Sr6  1  0.25311602  0.74379479  0.51321289  1
  Sr  Sr7  1  0.24054904  0.24054904  0.50373039  1
  Sr  Sr8  1  0.13348623  0.13348623  0.16683308  1
  Sr  Sr9  1  0.12502062  0.62664496  0.14130898  1
  Re  Re0  1  0.63503550  0.63503550  0.22780065  1
  Sn  Sn0  1  0.37033482  0.37033482  0.77452723  1
  N  N0  1  0.88689124  0.48103713  0.31608427  1
  N  N1  1  0.99453627  0.99453627  0.01708206  1
  N  N2  1  0.69163888  0.69163888  0.03725978  1
  N  N3  1  0.54070213  0.54070213  0.69858907  1
  N  N4  1  0.48103713  0.88689124  0.31608427  1
  N  N5  1  0.54376486  0.07972249  0.66935933  1
  N  N6  1  0.48786665  0.48786665  0.27018748  1
  N  N7  1  0.30274799  0.30274799  0.99054456  1
  N  N8  1  0.06433958  0.06433958  0.64613724  1
  N  N9  1  0.07972249  0.54376486  0.66935933  1
loop_
_geom_bond_atom_site_label_1
_geom_bond_atom_site_label_2
_geom_bond_distance
_geom_bond_site_symmetry_2
N0 Re0 1.859353 1_555
N0 Sr8 2.723488 1_655
N0 Sr2 2.726041 1_555
N0 Sr9 2.729210 1_655
N0 Sr3 2.767513 1_555
N0 Sr7 2.965225 1_655
N1 Sr8 2.436408 1_665
N1 Sr9 2.528216 1_655
N1 Sr4 2.528216 1_565
N1 Sr1 2.570948 1_554
N1 Sr0 2.735736 1_564
N1 Sr5 2.735737 1_654
N2 Re0 1.819507 1_555
N2 Sr1 2.875775 1_554
N2 Sr0 2.924055 1_554
N2 Sr5 2.924055 1_554
N3 Sn0 2.166303 1_555
N3 Sr3 2.621743 1_555
N3 Sr6 2.621743 1_555
N3 Sr5 2.657174 1_555
N3 Sr0 2.657175 1_555
N3 Sr2 2.722234 1_555
N4 Re0 1.859353 1_555
N4 Sr8 2.723489 1_565
N4 Sr2 2.726041 1_555
N4 Sr4 2.729210 1_565
N4 Sr6 2.767513 1_555
N4 Sr7 2.965225 1_565
N5 Sn0 2.160162 1_555
N5 Sr7 2.570224 1_555
N5 Sr3 2.579626 1_555
N5 Sr2 2.587589 1_545
N5 Sr1 2.631213 1_545
N5 Sr5 2.666581 1_545
N6 Re0 1.847957 1_555
N6 Sr4 2.729038 1_555
N6 Sr9 2.729039 1_555
N6 Sr6 2.930008 1_555
N6 Sr3 2.930008 1_555
N7 Sn0 2.073312 1_555
N7 Sr8 2.491397 1_556
N7 Sr9 2.586269 1_556
N7 Sr4 2.586269 1_556
N8 Sr7 2.413645 1_555
N8 Sr6 2.468354 1_545
N8 Sr3 2.468354 1_455
N8 Sr1 2.637196 1_445
N8 Sr0 2.696033 1_455
N8 Sr5 2.696033 1_545
N9 Sn0 2.160163 1_555
N9 Sr7 2.570223 1_555
N9 Sr6 2.579626 1_555
N9 Sr2 2.587589 1_455
N9 Sr1 2.631213 1_455
N9 Sr0 2.666581 1_455
