# generated using pymatgen
data_LuMgNi3Ir
_symmetry_space_group_name_H-M   'P 1'
_cell_length_a   4.87151092
_cell_length_b   5.04758107
_cell_length_c   4.87150988
_cell_angle_alpha   61.14733500
_cell_angle_beta   60.00000043
_cell_angle_gamma   61.14732752
_symmetry_Int_Tables_number   1
_chemical_formula_structural   LuMgNi3Ir
_chemical_formula_sum   'Lu1 Mg1 Ni3 Ir1'
_cell_volume   86.14167170
_cell_formula_units_Z   1
loop_
 _symmetry_equiv_pos_site_id
 _symmetry_equiv_pos_as_xyz
  1  'x, y, z'
loop_
 _atom_site_type_symbol
 _atom_site_label
 _atom_site_symmetry_multiplicity
 _atom_site_fract_x
 _atom_site_fract_y
 _atom_site_fract_z
 _atom_site_occupancy
  Lu  Lu0  1  0.50133452  0.49599543  0.50133452  1
  Mg  Mg0  1  0.74754618  0.75736145  0.74754618  1
  Ni  Ni0  1  0.12527436  0.12295149  0.12527436  1
  Ni  Ni1  1  0.62649979  0.12295149  0.12527436  1
  Ni  Ni2  1  0.12527436  0.12295149  0.62649979  1
  Ir  Ir0  1  0.12407079  0.62778864  0.12407079  1
loop_
_geom_bond_atom_site_label_1
_geom_bond_atom_site_label_2
_geom_bond_distance
_geom_bond_site_symmetry_2
Lu0 Ni1 2.894414 1_555
Lu0 Ni2 2.894414 1_555
Lu0 Ni0 2.894416 1_655
Lu0 Ni0 2.894416 1_556
Lu0 Ni1 2.894418 1_556
Lu0 Ni2 2.894418 1_655
Lu0 Ni0 2.982058 1_565
Lu0 Ni2 2.982060 1_565
Lu0 Ni1 2.982060 1_565
Lu0 Mg0 3.018378 1_554
Lu0 Mg0 3.018378 1_455
Lu0 Mg0 3.018382 1_555
Lu0 Mg0 3.095884 1_545
Mg0 Ni1 2.877659 1_565
Mg0 Ni1 2.877659 1_566
Mg0 Ni0 2.877659 1_566
Mg0 Ni2 2.877659 1_565
Mg0 Ni0 2.877659 1_665
Mg0 Ni2 2.877660 1_665
Mg0 Ni0 3.006403 1_656
Mg0 Ni2 3.006404 1_655
Mg0 Ni1 3.006404 1_556
Ni0 Ni2 2.429785 1_554
Ni0 Ni1 2.429786 1_455
Ni0 Ni2 2.441725 1_555
Ni0 Ni1 2.441725 1_555
Ni1 Ni2 2.429785 1_654
Ni1 Ni2 2.441725 1_555
Ir0 Ni0 2.505048 1_565
Ir0 Ni1 2.505050 1_465
Ir0 Ni2 2.505050 1_564
Ir0 Ni1 2.542559 1_555
Ir0 Ni2 2.542559 1_555
Ir0 Ni0 2.542562 1_555
Ir0 Mg0 2.864519 1_455
Ir0 Mg0 2.864520 1_554
Ir0 Mg0 2.864524 1_454
Ir0 Lu0 2.866294 1_555
Ir0 Lu0 2.866303 1_554
Ir0 Lu0 2.866303 1_455
