# generated using pymatgen
data_ZrCdBr18
_symmetry_space_group_name_H-M   'P 1'
_cell_length_a   9.21505771
_cell_length_b   9.20526208
_cell_length_c   9.19371347
_cell_angle_alpha   87.37306582
_cell_angle_beta   87.24684772
_cell_angle_gamma   87.34685215
_symmetry_Int_Tables_number   1
_chemical_formula_structural   ZrCdBr18
_chemical_formula_sum   'Zr1 Cd1 Br18'
_cell_volume   777.39656367
_cell_formula_units_Z   1
loop_
 _symmetry_equiv_pos_site_id
 _symmetry_equiv_pos_as_xyz
  1  'x, y, z'
loop_
 _atom_site_type_symbol
 _atom_site_label
 _atom_site_symmetry_multiplicity
 _atom_site_fract_x
 _atom_site_fract_y
 _atom_site_fract_z
 _atom_site_occupancy
  Zr  Zr0  1  0.50000000  0.50000000  0.50000000  1
  Cd  Cd0  1  0.00000000  0.00000000  0.00000000  1
  Br  Br0  1  0.78585202  0.47116102  0.50152601  1
  Br  Br1  1  0.50384230  0.78626288  0.47187026  1
  Br  Br2  1  0.47296450  0.50337354  0.78664304  1
  Br  Br3  1  0.21414798  0.52883898  0.49847399  1
  Br  Br4  1  0.49615770  0.21373712  0.52812974  1
  Br  Br5  1  0.52703550  0.49662646  0.21335696  1
  Br  Br6  1  0.89978730  0.37770369  0.75796899  1
  Br  Br7  1  0.75924802  0.90099590  0.37887088  1
  Br  Br8  1  0.37876380  0.75931122  0.90040098  1
  Br  Br9  1  0.10021270  0.62229631  0.24203101  1
  Br  Br10  1  0.24075198  0.09900410  0.62112912  1
  Br  Br11  1  0.62123620  0.24068878  0.09959902  1
  Br  Br12  1  0.02178292  0.97280919  0.69843457  1
  Br  Br13  1  0.69900341  0.02113944  0.97438696  1
  Br  Br14  1  0.97527899  0.69847560  0.02231691  1
  Br  Br15  1  0.97821708  0.02719081  0.30156543  1
  Br  Br16  1  0.30099659  0.97886056  0.02561304  1
  Br  Br17  1  0.02472101  0.30152440  0.97768309  1
loop_
_geom_bond_atom_site_label_1
_geom_bond_atom_site_label_2
_geom_bond_distance
_geom_bond_site_symmetry_2
Br0 Zr0 2.635877 1_555
Br0 Br6 2.714641 1_555
Br1 Zr0 2.637671 1_555
Br1 Br7 2.709217 1_555
Br2 Zr0 2.636594 1_555
Br2 Br8 2.710586 1_555
Br3 Zr0 2.635877 1_555
Br3 Br9 2.714641 1_555
Br4 Zr0 2.637671 1_555
Br5 Zr0 2.636594 1_555
Br10 Br12 2.435098 1_545
Br10 Br4 2.709217 1_555
Br11 Br13 2.433750 1_554
Br11 Br5 2.710586 1_555
Br12 Cd0 2.791994 1_566
Br13 Cd0 2.792008 1_656
Br14 Br9 2.432355 1_655
Br14 Cd0 2.792822 1_665
Br15 Br7 2.435098 1_545
Br15 Cd0 2.791994 1_655
Br16 Br8 2.433750 1_554
Br16 Cd0 2.792008 1_565
Br17 Br6 2.432355 1_455
Br17 Cd0 2.792822 1_556
