# generated using pymatgen
data_ScZn(Ni7B2)3
_symmetry_space_group_name_H-M   'P 1'
_cell_length_a   7.36784329
_cell_length_b   7.36784373
_cell_length_c   7.36784434
_cell_angle_alpha   59.99999724
_cell_angle_beta   59.99999527
_cell_angle_gamma   59.99999379
_symmetry_Int_Tables_number   1
_chemical_formula_structural   ScZn(Ni7B2)3
_chemical_formula_sum   'Sc1 Zn1 Ni21 B6'
_cell_volume   282.81743889
_cell_formula_units_Z   1
loop_
 _symmetry_equiv_pos_site_id
 _symmetry_equiv_pos_as_xyz
  1  'x, y, z'
loop_
 _atom_site_type_symbol
 _atom_site_label
 _atom_site_symmetry_multiplicity
 _atom_site_fract_x
 _atom_site_fract_y
 _atom_site_fract_z
 _atom_site_occupancy
  Sc  Sc0  1  0.25000000  0.25000000  0.25000000  1
  Zn  Zn0  1  0.75000000  0.75000000  0.75000000  1
  Ni  Ni0  1  0.38748876  0.38748876  0.38748876  1
  Ni  Ni1  1  0.61866718  0.61866718  0.61866718  1
  Ni  Ni2  1  0.38748876  0.38748876  0.83753272  1
  Ni  Ni3  1  0.38748876  0.83753272  0.38748876  1
  Ni  Ni4  1  0.61866718  0.61866718  0.14400047  1
  Ni  Ni5  1  0.61866718  0.14400047  0.61866718  1
  Ni  Ni6  1  0.83753272  0.38748876  0.38748876  1
  Ni  Ni7  1  0.14400047  0.61866718  0.61866718  1
  Ni  Ni8  1  0.33731350  0.00033723  0.00033723  1
  Ni  Ni9  1  0.66201104  0.00033723  0.00033723  1
  Ni  Ni10  1  0.00033723  0.33731350  0.66201104  1
  Ni  Ni11  1  0.00033723  0.66201104  0.33731350  1
  Ni  Ni12  1  0.00033723  0.33731350  0.00033723  1
  Ni  Ni13  1  0.66201104  0.00033723  0.33731350  1
  Ni  Ni14  1  0.00033723  0.66201104  0.00033723  1
  Ni  Ni15  1  0.33731350  0.00033723  0.66201104  1
  Ni  Ni16  1  0.00033723  0.00033723  0.33731350  1
  Ni  Ni17  1  0.00033723  0.00033723  0.66201104  1
  Ni  Ni18  1  0.66201104  0.33731350  0.00033723  1
  Ni  Ni19  1  0.33731350  0.66201104  0.00033723  1
  Ni  Ni20  1  0.00000000  0.00000000  0.00000000  1
  B  B0  1  0.72793159  0.27206841  0.27206841  1
  B  B1  1  0.27206841  0.72793159  0.72793159  1
  B  B2  1  0.27206841  0.72793159  0.27206841  1
  B  B3  1  0.72793159  0.27206841  0.72793159  1
  B  B4  1  0.27206841  0.27206841  0.72793159  1
  B  B5  1  0.72793159  0.72793159  0.27206841  1
loop_
_geom_bond_atom_site_label_1
_geom_bond_atom_site_label_2
_geom_bond_distance
_geom_bond_site_symmetry_2
Ni0 Sc0 2.481323 1_555
Ni1 Zn0 2.370224 1_555
Ni2 Sc0 2.481329 1_556
Ni3 Sc0 2.481328 1_565
Ni4 Zn0 2.370236 1_554
Ni5 Zn0 2.370235 1_545
Ni6 Sc0 2.481328 1_655
Ni7 Zn0 2.370235 1_455
Ni8 Sc0 2.863242 1_555
Ni9 Sc0 2.863239 1_555
Ni10 Ni20 2.487764 1_556
Ni10 Sc0 2.863236 1_555
Ni11 Ni20 2.487764 1_565
Ni11 Sc0 2.863235 1_555
Ni12 Ni20 2.487760 1_555
Ni12 Sc0 2.863242 1_555
Ni13 Ni20 2.487764 1_655
Ni13 Sc0 2.863235 1_555
Ni14 Ni20 2.487768 1_565
Ni14 Sc0 2.863239 1_555
Ni15 Ni20 2.487764 1_556
Ni15 Sc0 2.863236 1_555
Ni16 Ni20 2.487761 1_555
Ni16 Sc0 2.863242 1_555
Ni17 Ni20 2.487768 1_556
Ni17 Sc0 2.863239 1_555
Ni18 Ni20 2.487764 1_655
Ni18 Sc0 2.863235 1_555
Ni19 Ni20 2.487764 1_565
Ni19 Sc0 2.863236 1_555
Ni20 Ni8 2.487760 1_555
Ni20 Ni9 2.487768 1_455
B0 Ni6 2.048186 1_555
B0 Ni0 2.048192 1_555
B0 Ni16 2.061976 1_655
B0 Ni12 2.061976 1_655
B0 Ni13 2.061981 1_555
B0 Ni18 2.061981 1_555
B0 Ni4 2.086609 1_555
B0 Ni5 2.086609 1_555
B1 Ni2 2.048192 1_555
B1 Ni3 2.048192 1_555
B1 Ni15 2.061973 1_565
B1 Ni19 2.061974 1_556
B1 Ni17 2.061978 1_565
B1 Ni14 2.061978 1_556
B1 Ni7 2.086597 1_555
B1 Ni1 2.086609 1_555
B2 Ni3 2.048186 1_555
B2 Ni0 2.048192 1_555
B2 Ni16 2.061976 1_565
B2 Ni8 2.061976 1_565
B2 Ni11 2.061981 1_555
B2 Ni19 2.061981 1_555
B2 Ni4 2.086609 1_555
B2 Ni7 2.086609 1_555
B3 Ni2 2.048192 1_555
B3 Ni6 2.048192 1_555
B3 Ni10 2.061973 1_655
B3 Ni18 2.061974 1_556
B3 Ni17 2.061978 1_655
B3 Ni9 2.061978 1_556
B3 Ni5 2.086597 1_555
B3 Ni1 2.086609 1_555
B4 Ni2 2.048186 1_555
B4 Ni0 2.048192 1_555
B4 Ni12 2.061976 1_556
B4 Ni8 2.061976 1_556
B4 Ni10 2.061981 1_555
B4 Ni15 2.061981 1_555
B4 Ni5 2.086609 1_555
B4 Ni7 2.086609 1_555
B5 Ni3 2.048192 1_555
B5 Ni6 2.048192 1_555
B5 Ni11 2.061973 1_655
B5 Ni13 2.061973 1_565
B5 Ni14 2.061978 1_655
B5 Ni9 2.061978 1_565
B5 Ni4 2.086597 1_555
B5 Ni1 2.086610 1_555
