# generated using pymatgen
data_K8Zr6BeI20
_symmetry_space_group_name_H-M   'P 1'
_cell_length_a   12.44629585
_cell_length_b   12.44629603
_cell_length_c   12.44629538
_cell_angle_alpha   60.00000174
_cell_angle_beta   60.00000125
_cell_angle_gamma   59.99999985
_symmetry_Int_Tables_number   1
_chemical_formula_structural   K8Zr6BeI20
_chemical_formula_sum   'K8 Zr6 Be1 I20'
_cell_volume   1363.34371838
_cell_formula_units_Z   1
loop_
 _symmetry_equiv_pos_site_id
 _symmetry_equiv_pos_as_xyz
  1  'x, y, z'
loop_
 _atom_site_type_symbol
 _atom_site_label
 _atom_site_symmetry_multiplicity
 _atom_site_fract_x
 _atom_site_fract_y
 _atom_site_fract_z
 _atom_site_occupancy
  K  K0  1  0.36113342  0.36113342  0.36113342  1
  K  K1  1  0.63886658  0.63886658  0.63886658  1
  K  K2  1  0.36113342  0.36113342  0.91659974  1
  K  K3  1  0.36113342  0.91659974  0.36113342  1
  K  K4  1  0.63886658  0.63886658  0.08340026  1
  K  K5  1  0.63886658  0.08340026  0.63886658  1
  K  K6  1  0.91659974  0.36113342  0.36113342  1
  K  K7  1  0.08340026  0.63886658  0.63886658  1
  Zr  Zr0  1  0.86149672  0.13850328  0.13850328  1
  Zr  Zr1  1  0.13850328  0.86149672  0.86149672  1
  Zr  Zr2  1  0.13850328  0.86149672  0.13850328  1
  Zr  Zr3  1  0.86149672  0.13850328  0.86149672  1
  Zr  Zr4  1  0.13850328  0.13850328  0.86149672  1
  Zr  Zr5  1  0.86149672  0.86149672  0.13850328  1
  Be  Be0  1  0.00000000  0.00000000  0.00000000  1
  I  I0  1  0.33018799  0.00000000  1.00000000  1
  I  I1  1  0.66981201  1.00000000  0.00000000  1
  I  I2  1  0.00000000  0.33018799  0.66981201  1
  I  I3  1  1.00000000  0.66981201  0.33018799  1
  I  I4  1  0.00000000  0.33018799  1.00000000  1
  I  I5  1  0.66981201  1.00000000  0.33018799  1
  I  I6  1  1.00000000  0.66981201  0.00000000  1
  I  I7  1  0.33018799  0.00000000  0.66981201  1
  I  I8  1  0.00000000  0.00000000  0.33018799  1
  I  I9  1  0.00000000  0.00000000  0.66981201  1
  I  I10  1  0.66981201  0.33018799  1.00000000  1
  I  I11  1  0.33018799  0.66981201  0.00000000  1
  I  I12  1  0.68119041  0.31880959  0.31880959  1
  I  I13  1  0.31880959  0.68119041  0.68119041  1
  I  I14  1  0.31880959  0.68119041  0.31880959  1
  I  I15  1  0.68119041  0.31880959  0.68119041  1
  I  I16  1  0.31880959  0.31880959  0.68119041  1
  I  I17  1  0.68119041  0.68119041  0.31880959  1
  I  I18  1  0.25000000  0.25000000  0.25000000  1
  I  I19  1  0.75000000  0.75000000  0.75000000  1
loop_
_geom_bond_atom_site_label_1
_geom_bond_atom_site_label_2
_geom_bond_distance
_geom_bond_site_symmetry_2
Be0 Zr2 2.437896 1_545
Be0 Zr3 2.437896 1_454
Be0 Zr0 2.437896 1_455
Be0 Zr1 2.437896 1_544
Be0 Zr4 2.437896 1_554
Be0 Zr5 2.437896 1_445
I0 Zr4 2.943389 1_555
I0 Zr2 2.943389 1_546
I1 Zr5 2.943389 1_555
I1 Zr3 2.943389 1_564
I2 Zr4 2.943389 1_555
I2 Zr3 2.943389 1_455
I3 Zr5 2.943389 1_555
I3 Zr2 2.943389 1_655
I4 Zr4 2.943389 1_555
I4 Zr0 2.943389 1_456
I5 Zr5 2.943389 1_555
I5 Zr0 2.943389 1_565
I6 Zr5 2.943389 1_555
I6 Zr1 2.943389 1_654
I7 Zr4 2.943389 1_555
I7 Zr1 2.943389 1_545
I8 Zr0 2.943389 1_455
I8 Zr2 2.943389 1_545
I9 Zr1 2.943389 1_545
I9 Zr3 2.943389 1_455
I10 Zr3 2.943389 1_555
I10 Zr0 2.943389 1_556
I11 Zr2 2.943389 1_555
I11 Zr1 2.943389 1_554
I12 Zr0 3.173701 1_555
I12 K6 3.536113 1_555
I12 K0 3.536113 1_555
I12 K5 3.536113 1_555
I12 K4 3.536113 1_555
I13 Zr1 3.173701 1_555
I13 K7 3.536113 1_555
I13 K1 3.536113 1_555
I13 K3 3.536113 1_555
I13 K2 3.536113 1_555
I14 Zr2 3.173701 1_555
I14 K7 3.536113 1_555
I14 K4 3.536113 1_555
I14 K3 3.536113 1_555
I14 K0 3.536113 1_555
I15 Zr3 3.173701 1_555
I15 K6 3.536113 1_555
I15 K2 3.536113 1_555
I15 K5 3.536113 1_555
I15 K1 3.536113 1_555
I16 Zr4 3.173701 1_555
I16 K2 3.536113 1_555
I16 K0 3.536113 1_555
I16 K5 3.536113 1_555
I16 K7 3.536113 1_555
I17 Zr5 3.173701 1_555
I17 K4 3.536113 1_555
I17 K1 3.536113 1_555
I17 K3 3.536113 1_555
I17 K6 3.536113 1_555
I18 K2 3.388133 1_554
I18 K0 3.388133 1_555
I18 K6 3.388133 1_455
I18 K3 3.388133 1_545
I19 K4 3.388133 1_556
I19 K1 3.388133 1_555
I19 K7 3.388133 1_655
I19 K5 3.388133 1_565
