# generated using pymatgen
data_Ti13Al9MoRh7
_symmetry_space_group_name_H-M   'P 1'
_cell_length_a   8.70935782
_cell_length_b   8.70935705
_cell_length_c   8.70935798
_cell_angle_alpha   59.65315267
_cell_angle_beta   59.65315838
_cell_angle_gamma   59.65316420
_symmetry_Int_Tables_number   1
_chemical_formula_structural   Ti13Al9MoRh7
_chemical_formula_sum   'Ti13 Al9 Mo1 Rh7'
_cell_volume   463.45466045
_cell_formula_units_Z   1
loop_
 _symmetry_equiv_pos_site_id
 _symmetry_equiv_pos_as_xyz
  1  'x, y, z'
loop_
 _atom_site_type_symbol
 _atom_site_label
 _atom_site_symmetry_multiplicity
 _atom_site_fract_x
 _atom_site_fract_y
 _atom_site_fract_z
 _atom_site_occupancy
  Ti  Ti0  1  0.21481188  0.21481188  0.78716107  1
  Ti  Ti1  1  0.78716107  0.21481188  0.21481188  1
  Ti  Ti2  1  0.21481188  0.78716107  0.21481188  1
  Ti  Ti3  1  0.79306004  0.79306004  0.19118073  1
  Ti  Ti4  1  0.19118073  0.79306004  0.79306004  1
  Ti  Ti5  1  0.79306004  0.19118073  0.79306004  1
  Ti  Ti6  1  0.37800611  0.37800611  0.37800611  1
  Ti  Ti7  1  0.37861538  0.86868156  0.37861538  1
  Ti  Ti8  1  0.86868156  0.37861538  0.37861538  1
  Ti  Ti9  1  0.37861538  0.37861538  0.86868156  1
  Ti  Ti10  1  0.84798313  0.45906960  0.84798313  1
  Ti  Ti11  1  0.45906960  0.84798313  0.84798313  1
  Ti  Ti12  1  0.84798313  0.84798313  0.45906960  1
  Al  Al0  1  0.14998025  0.14998025  0.14998025  1
  Al  Al1  1  0.15341581  0.54699705  0.15341581  1
  Al  Al2  1  0.54699705  0.15341581  0.15341581  1
  Al  Al3  1  0.15341581  0.15341581  0.54699705  1
  Al  Al4  1  0.61928993  0.61928993  0.61928993  1
  Al  Al5  1  0.62035808  0.14150960  0.62035808  1
  Al  Al6  1  0.14150960  0.62035808  0.62035808  1
  Al  Al7  1  0.62035808  0.62035808  0.14150960  1
  Al  Al8  1  0.83115774  0.83115774  0.83115774  1
  Mo  Mo0  1  0.00204136  0.00204136  0.00204136  1
  Rh  Rh0  1  0.00415167  0.00415167  0.49830030  1
  Rh  Rh1  1  0.49830030  0.00415167  0.00415167  1
  Rh  Rh2  1  0.00415167  0.49830030  0.00415167  1
  Rh  Rh3  1  0.50023306  0.50023306  0.00108630  1
  Rh  Rh4  1  0.00108630  0.50023306  0.50023306  1
  Rh  Rh5  1  0.50023306  0.00108630  0.50023306  1
  Rh  Rh6  1  0.50028030  0.50028030  0.50028030  1
loop_
_geom_bond_atom_site_label_1
_geom_bond_atom_site_label_2
_geom_bond_distance
_geom_bond_site_symmetry_2
Ti0 Ti11 2.752114 1_545
Ti0 Ti10 2.752114 1_455
Ti0 Ti6 2.923055 1_555
Ti0 Ti9 2.945867 1_555
Ti1 Ti12 2.752114 1_545
Ti1 Ti10 2.752114 1_554
Ti1 Ti6 2.923056 1_555
Ti1 Ti8 2.945867 1_555
Ti2 Ti6 2.923055 1_555
Ti2 Ti7 2.945867 1_555
Ti3 Ti8 2.976178 1_555
Ti3 Ti7 2.976179 1_555
Ti4 Ti9 2.976178 1_555
Ti4 Ti7 2.976178 1_555
Ti5 Ti8 2.976178 1_555
Ti5 Ti9 2.976179 1_555
Ti10 Ti5 2.896175 1_555
Ti10 Ti12 3.369414 1_555
Ti10 Ti11 3.369414 1_555
Ti11 Ti2 2.752114 1_556
Ti11 Ti4 2.896175 1_555
Ti11 Ti12 3.369414 1_555
Ti12 Ti2 2.752114 1_655
Ti12 Ti3 2.896175 1_555
Al0 Rh2 2.504512 1_555
Al0 Rh0 2.504512 1_555
Al0 Rh1 2.504513 1_555
Al0 Ti2 2.709079 1_545
Al0 Ti0 2.709079 1_554
Al0 Ti1 2.709079 1_455
Al0 Ti9 2.842539 1_554
Al0 Ti7 2.842539 1_545
Al0 Ti8 2.842539 1_455
Al1 Rh4 2.510648 1_555
Al1 Rh3 2.510648 1_555
Al1 Rh2 2.526216 1_555
Al1 Ti4 2.724647 1_554
Al1 Ti3 2.724648 1_455
Al1 Ti2 2.737920 1_555
Al1 Ti6 2.804715 1_555
Al1 Ti8 2.828559 1_455
Al1 Ti9 2.828559 1_554
Al2 Rh3 2.510648 1_555
Al2 Rh5 2.510648 1_555
Al2 Rh1 2.526216 1_555
Al2 Ti5 2.724648 1_554
Al2 Ti3 2.724648 1_545
Al2 Ti1 2.737920 1_555
Al2 Ti6 2.804715 1_555
Al2 Ti7 2.828559 1_545
Al2 Ti9 2.828559 1_554
Al3 Rh4 2.510648 1_555
Al3 Rh5 2.510648 1_555
Al3 Rh0 2.526216 1_555
Al3 Ti4 2.724647 1_545
Al3 Ti5 2.724648 1_455
Al3 Ti0 2.737920 1_555
Al3 Ti6 2.804715 1_555
Al3 Ti8 2.828559 1_455
Al3 Ti7 2.828559 1_545
Al4 Rh6 2.545525 1_555
Al4 Rh5 2.706606 1_565
Al4 Rh3 2.706606 1_556
Al4 Rh4 2.706607 1_655
Al4 Ti12 2.876331 1_555
Al4 Ti10 2.876332 1_555
Al4 Ti11 2.876332 1_555
Al4 Ti9 2.957007 1_555
Al4 Ti7 2.957007 1_555
Al4 Ti8 2.957007 1_555
Al4 Ti5 3.064893 1_555
Al4 Ti3 3.064893 1_555
Al4 Ti4 3.064893 1_555
Al5 Rh6 2.540099 1_555
Al5 Rh5 2.716002 1_555
Al5 Rh1 2.718097 1_556
Al5 Rh0 2.718098 1_655
Al5 Al8 2.724780 1_545
Al5 Ti11 2.851726 1_545
Al5 Ti12 2.851727 1_545
Al5 Ti5 2.883225 1_555
Al5 Ti1 2.909841 1_555
Al5 Ti0 2.909841 1_555
Al5 Ti6 2.978017 1_555
Al5 Ti8 2.982128 1_555
Al5 Ti9 2.982128 1_555
Al6 Rh6 2.540100 1_555
Al6 Rh4 2.716002 1_555
Al6 Rh0 2.718097 1_565
Al6 Rh2 2.718097 1_556
Al6 Al8 2.724780 1_455
Al6 Ti10 2.851726 1_455
Al6 Ti12 2.851727 1_455
Al6 Ti4 2.883225 1_555
Al6 Ti0 2.909841 1_555
Al6 Ti2 2.909841 1_555
Al6 Ti6 2.978017 1_555
Al6 Ti7 2.982128 1_555
Al6 Ti9 2.982128 1_555
Al7 Rh6 2.540100 1_555
Al7 Rh3 2.716002 1_555
Al7 Rh1 2.718097 1_565
Al7 Rh2 2.718098 1_655
Al7 Al8 2.724780 1_554
Al7 Ti11 2.851726 1_554
Al7 Ti10 2.851727 1_554
Al7 Ti3 2.883225 1_555
Al7 Ti1 2.909841 1_555
Al7 Ti2 2.909841 1_555
Al7 Ti6 2.978017 1_555
Al7 Ti8 2.982128 1_555
Al7 Ti7 2.982128 1_555
Al8 Rh0 2.531982 1_665
Al8 Rh2 2.531982 1_656
Al8 Rh1 2.531983 1_566
Al8 Ti5 2.839128 1_565
Al8 Ti3 2.839128 1_556
Al8 Ti4 2.839128 1_655
Al8 Ti10 3.099475 1_555
Al8 Ti11 3.099476 1_555
Al8 Ti12 3.099476 1_555
Mo0 Ti3 2.574345 1_445
Mo0 Ti5 2.574345 1_454
Mo0 Ti4 2.574345 1_544
Mo0 Ti0 2.613733 1_554
Mo0 Ti2 2.613733 1_545
Mo0 Ti1 2.613733 1_455
Mo0 Ti10 3.235772 1_454
Mo0 Ti12 3.235772 1_445
Mo0 Ti11 3.235773 1_544
Rh0 Ti12 2.573930 1_445
Rh0 Ti8 2.652236 1_455
Rh0 Ti7 2.652236 1_545
Rh0 Ti4 3.008985 1_545
Rh0 Ti5 3.008985 1_455
Rh0 Ti1 3.109277 1_455
Rh0 Ti2 3.109277 1_545
Rh1 Ti11 2.573930 1_544
Rh1 Ti9 2.652236 1_554
Rh1 Ti7 2.652236 1_545
Rh1 Ti5 3.008984 1_554
Rh1 Ti3 3.008985 1_545
Rh1 Ti2 3.109277 1_545
Rh1 Ti0 3.109277 1_554
Rh2 Ti10 2.573930 1_454
Rh2 Ti8 2.652236 1_455
Rh2 Ti9 2.652236 1_554
Rh2 Ti4 3.008984 1_554
Rh2 Ti3 3.008985 1_455
Rh2 Ti1 3.109277 1_455
Rh2 Ti0 3.109277 1_554
Rh3 Ti11 2.526765 1_554
Rh3 Ti10 2.526765 1_554
Rh3 Ti6 2.669376 1_555
Rh3 Ti9 2.678761 1_554
Rh4 Ti12 2.526765 1_455
Rh4 Ti10 2.526765 1_455
Rh4 Ti6 2.669376 1_555
Rh4 Ti8 2.678761 1_455
Rh5 Ti11 2.526765 1_545
Rh5 Ti12 2.526765 1_545
Rh5 Ti6 2.669376 1_555
Rh5 Ti7 2.678761 1_545
Rh6 Ti7 2.608452 1_555
Rh6 Ti9 2.608452 1_555
Rh6 Ti8 2.608452 1_555
Rh6 Ti6 2.615351 1_555
