# generated using pymatgen
data_Ba2CuReN4
_symmetry_space_group_name_H-M   'P 1'
_cell_length_a   5.99222167
_cell_length_b   6.55303982
_cell_length_c   7.73286920
_cell_angle_alpha   68.74275709
_cell_angle_beta   90.00000000
_cell_angle_gamma   90.00000000
_symmetry_Int_Tables_number   1
_chemical_formula_structural   Ba2CuReN4
_chemical_formula_sum   'Ba4 Cu2 Re2 N8'
_cell_volume   282.98900849
_cell_formula_units_Z   2
loop_
 _symmetry_equiv_pos_site_id
 _symmetry_equiv_pos_as_xyz
  1  'x, y, z'
loop_
 _atom_site_type_symbol
 _atom_site_label
 _atom_site_symmetry_multiplicity
 _atom_site_fract_x
 _atom_site_fract_y
 _atom_site_fract_z
 _atom_site_occupancy
  Ba  Ba0  1  0.25000000  0.26833777  0.05106008  1
  Ba  Ba1  1  0.75000000  0.73166223  0.94893992  1
  Ba  Ba2  1  0.75000000  0.83109578  0.41322201  1
  Ba  Ba3  1  0.25000000  0.16890422  0.58677799  1
  Cu  Cu0  1  0.75000000  0.35230810  0.39262156  1
  Cu  Cu1  1  0.25000000  0.64769190  0.60737844  1
  Re  Re0  1  0.25000000  0.70060971  0.21771332  1
  Re  Re1  1  0.75000000  0.29939029  0.78228668  1
  N  N0  1  0.50438163  0.47555364  0.73258906  1
  N  N1  1  0.00438163  0.52444636  0.26741094  1
  N  N2  1  0.49561837  0.52444636  0.26741094  1
  N  N3  1  0.99561837  0.47555364  0.73258906  1
  N  N4  1  0.75000000  0.12056412  0.63763518  1
  N  N5  1  0.25000000  0.87943588  0.36236482  1
  N  N6  1  0.75000000  0.12782105  0.02544998  1
  N  N7  1  0.25000000  0.87217895  0.97455002  1
loop_
_geom_bond_atom_site_label_1
_geom_bond_atom_site_label_2
_geom_bond_distance
_geom_bond_site_symmetry_2
Ba0 N0 2.794179 1_554
Ba0 N3 2.794179 1_454
Ba0 N5 2.800229 1_545
Ba0 N7 2.864124 1_544
Ba0 N2 3.133336 1_555
Ba0 N1 3.133336 1_555
Ba0 N6 3.161649 1_455
Ba0 N6 3.161649 1_555
Ba1 N1 2.794179 1_656
Ba1 N2 2.794179 1_556
Ba1 N4 2.800229 1_565
Ba1 N6 2.864124 1_566
Ba1 N3 3.133336 1_555
Ba1 N0 3.133336 1_555
Ba1 N7 3.161649 1_655
Ba1 N7 3.161649 1_555
Ba2 N6 2.923113 1_565
Ba2 N4 2.999434 1_565
Ba2 N5 3.023468 1_555
Ba2 N5 3.023468 1_655
Ba2 N1 3.045626 1_655
Ba2 N2 3.045626 1_555
Ba2 N3 3.085667 1_555
Ba2 N0 3.085667 1_555
Ba3 N7 2.923113 1_545
Ba3 N5 2.999434 1_545
Ba3 N4 3.023468 1_555
Ba3 N4 3.023468 1_455
Ba3 N0 3.045626 1_555
Ba3 N3 3.045626 1_455
Ba3 N2 3.085667 1_555
Ba3 N1 3.085667 1_555
Cu0 N1 1.934293 1_655
Cu0 N2 1.934293 1_555
Cu0 N4 1.951822 1_555
Cu1 N0 1.934293 1_555
Cu1 N3 1.934293 1_455
Cu1 N5 1.951822 1_555
N0 Re1 1.823416 1_555
N1 Re0 1.823416 1_555
N2 Re0 1.823416 1_555
N3 Re1 1.823416 1_555
N4 Re1 1.890747 1_555
N5 Re0 1.890747 1_555
N6 Re1 1.807436 1_554
N7 Re0 1.807436 1_556
