# generated using pymatgen
data_Ba4TiMnN6
_symmetry_space_group_name_H-M   'P 1'
_cell_length_a   6.54211134
_cell_length_b   6.54211185
_cell_length_c   13.10220375
_cell_angle_alpha   89.99207824
_cell_angle_beta   90.00792297
_cell_angle_gamma   126.40362641
_symmetry_Int_Tables_number   1
_chemical_formula_structural   Ba4TiMnN6
_chemical_formula_sum   'Ba8 Ti2 Mn2 N12'
_cell_volume   451.33452185
_cell_formula_units_Z   2
loop_
 _symmetry_equiv_pos_site_id
 _symmetry_equiv_pos_as_xyz
  1  'x, y, z'
loop_
 _atom_site_type_symbol
 _atom_site_label
 _atom_site_symmetry_multiplicity
 _atom_site_fract_x
 _atom_site_fract_y
 _atom_site_fract_z
 _atom_site_occupancy
  Ba  Ba0  1  0.55161346  0.44838654  0.65276114  1
  Ba  Ba1  1  0.44838654  0.55161346  0.34723886  1
  Ba  Ba2  1  0.94158539  0.05841461  0.13740565  1
  Ba  Ba3  1  0.05841461  0.94158539  0.86259435  1
  Ba  Ba4  1  0.85832338  0.14167662  0.57631804  1
  Ba  Ba5  1  0.14167662  0.85832338  0.42368196  1
  Ba  Ba6  1  0.64250137  0.35749863  0.07734732  1
  Ba  Ba7  1  0.35749863  0.64250137  0.92265268  1
  Ti  Ti0  1  0.74490268  0.25509732  0.82923732  1
  Ti  Ti1  1  0.25509732  0.74490268  0.17076268  1
  Mn  Mn0  1  0.75746368  0.24253632  0.33589245  1
  Mn  Mn1  1  0.24253632  0.75746368  0.66410755  1
  N  N0  1  0.84056666  0.15943334  0.94283725  1
  N  N1  1  0.15943334  0.84056666  0.05716275  1
  N  N2  1  0.67266626  0.32733374  0.44381175  1
  N  N3  1  0.32733374  0.67266626  0.55618825  1
  N  N4  1  0.58914623  0.41085377  0.86408130  1
  N  N5  1  0.41085377  0.58914623  0.13591870  1
  N  N6  1  0.90059984  0.09940016  0.36741404  1
  N  N7  1  0.09940016  0.90059984  0.63258596  1
  N  N8  1  0.51167173  0.96256974  0.73876169  1
  N  N9  1  0.96256974  0.51167173  0.26123831  1
  N  N10  1  0.48832827  0.03743026  0.26123831  1
  N  N11  1  0.03743026  0.48832827  0.73876169  1
loop_
_geom_bond_atom_site_label_1
_geom_bond_atom_site_label_2
_geom_bond_distance
_geom_bond_site_symmetry_2
Ba0 N4 2.803177 1_555
Ba0 N3 2.908786 1_555
Ba0 N7 3.013467 1_655
Ba0 N7 3.013467 1_545
Ba0 N2 3.081386 1_555
Ba0 N11 3.233061 1_655
Ba0 N8 3.233061 1_545
Ba1 N5 2.803177 1_555
Ba1 N2 2.908786 1_555
Ba1 N6 3.013467 1_455
Ba1 N6 3.013467 1_565
Ba1 N3 3.081386 1_555
Ba1 N9 3.233061 1_455
Ba1 N10 3.233061 1_565
Ba2 N1 2.753062 1_645
Ba2 N0 2.808877 1_554
Ba2 N5 2.971327 1_545
Ba2 N5 2.971327 1_655
Ba2 N6 3.051468 1_555
Ba2 N10 3.310913 1_555
Ba2 N9 3.310913 1_555
Ba3 N0 2.753062 1_465
Ba3 N1 2.808877 1_556
Ba3 N4 2.971327 1_565
Ba3 N4 2.971327 1_455
Ba3 N7 3.051468 1_555
Ba3 N8 3.310913 1_555
Ba3 N11 3.310913 1_555
Ba4 N2 2.777485 1_555
Ba4 N6 2.781355 1_555
Ba4 N8 2.809374 1_545
Ba4 N11 2.809374 1_655
Ba4 N7 2.910341 1_645
Ba4 N3 2.983305 1_545
Ba4 N3 2.983305 1_655
Ba5 N3 2.777485 1_555
Ba5 N7 2.781355 1_555
Ba5 N10 2.809374 1_565
Ba5 N9 2.809374 1_455
Ba5 N6 2.910341 1_465
Ba5 N2 2.983305 1_565
Ba5 N2 2.983305 1_455
Ba6 N5 2.812258 1_555
Ba6 N4 2.862799 1_554
Ba6 N0 2.908287 1_554
Ba6 N9 2.949478 1_555
Ba6 N10 2.949478 1_555
Ba6 N1 2.967937 1_655
Ba6 N1 2.967937 1_545
Ba7 N4 2.812258 1_555
Ba7 N5 2.862799 1_556
Ba7 N1 2.908287 1_556
Ba7 N11 2.949478 1_555
Ba7 N8 2.949478 1_555
Ba7 N0 2.967937 1_455
Ba7 N0 2.967937 1_565
Mn0 N6 1.721884 1_555
Mn0 N2 1.726431 1_555
Mn0 N10 1.747287 1_555
Mn0 N9 1.747287 1_555
Mn1 N7 1.721884 1_555
Mn1 N3 1.726431 1_555
Mn1 N8 1.747287 1_555
Mn1 N11 1.747287 1_555
N0 Ti0 1.860944 1_555
N1 Ti1 1.860944 1_555
N4 Ti0 1.875558 1_555
N5 Ti1 1.875558 1_555
N8 Ti0 1.982430 1_565
N9 Ti1 1.982430 1_655
N10 Ti1 1.982430 1_545
N11 Ti0 1.982430 1_455
