# generated using pymatgen
data_BaTi2O5
_symmetry_space_group_name_H-M   'P 1'
_cell_length_a   8.75671549
_cell_length_b   8.75671549
_cell_length_c   9.69479512
_cell_angle_alpha   77.44445345
_cell_angle_beta   77.44445345
_cell_angle_gamma   25.83605070
_symmetry_Int_Tables_number   1
_chemical_formula_structural   BaTi2O5
_chemical_formula_sum   'Ba3 Ti6 O15'
_cell_volume   315.81041942
_cell_formula_units_Z   3
loop_
 _symmetry_equiv_pos_site_id
 _symmetry_equiv_pos_as_xyz
  1  'x, y, z'
loop_
 _atom_site_type_symbol
 _atom_site_label
 _atom_site_symmetry_multiplicity
 _atom_site_fract_x
 _atom_site_fract_y
 _atom_site_fract_z
 _atom_site_occupancy
  Ba  Ba0  1  0.50000000  0.50000000  0.50000000  1
  Ba  Ba1  1  0.36867000  0.36867000  0.98680500  1
  Ba  Ba2  1  0.63133000  0.63133000  0.01319500  1
  Ti  Ti0  1  0.83273600  0.83273600  0.69861200  1
  Ti  Ti1  1  0.16726400  0.16726400  0.30138800  1
  Ti  Ti2  1  0.20502800  0.20502800  0.62645900  1
  Ti  Ti3  1  0.79497200  0.79497200  0.37354100  1
  Ti  Ti4  1  0.03792200  0.03792200  0.79115700  1
  Ti  Ti5  1  0.96207800  0.96207800  0.20884300  1
  O  O0  1  0.00000000  0.00000000  0.00000000  1
  O  O1  1  0.94175100  0.94175100  0.71070200  1
  O  O2  1  0.05824900  0.05824900  0.28929800  1
  O  O3  1  0.78942800  0.78942800  0.87867400  1
  O  O4  1  0.21057200  0.21057200  0.12132600  1
  O  O5  1  0.73572100  0.73572100  0.60017500  1
  O  O6  1  0.26427900  0.26427900  0.39982500  1
  O  O7  1  0.67563800  0.67563800  0.33765200  1
  O  O8  1  0.32436200  0.32436200  0.66234800  1
  O  O9  1  0.46647700  0.46647700  0.20672500  1
  O  O10  1  0.53352300  0.53352300  0.79327500  1
  O  O11  1  0.89328300  0.89328300  0.42265400  1
  O  O12  1  0.10671700  0.10671700  0.57734600  1
  O  O13  1  0.84782100  0.84782100  0.18782200  1
  O  O14  1  0.15217900  0.15217900  0.81217800  1
loop_
_geom_bond_atom_site_label_1
_geom_bond_atom_site_label_2
_geom_bond_distance
_geom_bond_site_symmetry_2
Ba0 O2 2.843877 1_655
Ba0 O2 2.843877 1_565
Ba0 O1 2.843877 1_545
Ba0 O1 2.843877 1_455
Ba0 O12 2.884857 1_655
Ba0 O12 2.884857 1_565
Ba0 O11 2.884857 1_545
Ba0 O11 2.884857 1_455
Ba0 O10 3.022786 1_555
Ba0 O9 3.022786 1_555
Ba0 O8 3.059636 1_555
Ba0 O7 3.059636 1_555
Ba1 O3 2.719098 1_455
Ba1 O3 2.719098 1_545
Ba1 O4 2.722898 1_556
Ba1 O13 2.729005 1_546
Ba1 O13 2.729005 1_456
Ba1 O9 2.986822 1_556
Ba1 O0 3.000394 1_656
Ba1 O0 3.000394 1_566
Ba1 O10 3.013985 1_555
Ba1 O1 3.326273 1_455
Ba1 O1 3.326273 1_545
Ba1 O8 3.395253 1_555
Ba2 O4 2.719098 1_565
Ba2 O4 2.719098 1_655
Ba2 O3 2.722898 1_554
Ba2 O14 2.729005 1_654
Ba2 O14 2.729005 1_564
Ba2 O10 2.986822 1_554
Ba2 O0 3.000394 1_655
Ba2 O0 3.000394 1_565
Ba2 O9 3.013985 1_555
Ba2 O2 3.326273 1_655
Ba2 O2 3.326273 1_565
Ba2 O7 3.395253 1_555
O0 Ti4 1.983376 1_554
O0 Ti5 1.983376 1_445
O1 Ti0 1.890503 1_555
O1 Ti4 1.968401 1_665
O2 Ti1 1.890503 1_555
O2 Ti5 1.968401 1_445
O3 Ti0 1.737302 1_555
O4 Ti1 1.737302 1_555
O5 Ti2 2.027850 1_565
O5 Ti2 2.027850 1_655
O5 Ti0 2.087643 1_555
O5 Ti3 2.204375 1_555
O6 Ti3 2.027850 1_545
O6 Ti3 2.027850 1_455
O6 Ti1 2.087643 1_555
O6 Ti2 2.204375 1_555
O7 Ti1 1.999685 1_565
O7 Ti1 1.999685 1_655
O7 Ti3 2.141681 1_555
O8 Ti0 1.999685 1_545
O8 Ti0 1.999685 1_455
O8 Ti2 2.141681 1_555
O9 Ti5 1.958995 1_545
O9 Ti5 1.958995 1_455
O10 Ti4 1.958995 1_565
O10 Ti4 1.958995 1_655
O11 Ti3 1.843759 1_555
O11 Ti5 2.142425 1_555
O11 Ti0 2.644304 1_555
O12 Ti2 1.843759 1_555
O12 Ti4 2.142425 1_555
O12 Ti1 2.644304 1_555
O13 Ti3 1.825142 1_555
O13 Ti5 2.005703 1_555
O14 Ti2 1.825142 1_555
O14 Ti4 2.005703 1_555
