# generated using pymatgen
data_V3InPb2O11
_symmetry_space_group_name_H-M   'P 1'
_cell_length_a   6.98281646
_cell_length_b   7.02818102
_cell_length_c   10.04403004
_cell_angle_alpha   100.71870687
_cell_angle_beta   94.21640354
_cell_angle_gamma   94.81131245
_symmetry_Int_Tables_number   1
_chemical_formula_structural   V3InPb2O11
_chemical_formula_sum   'V6 In2 Pb4 O22'
_cell_volume   480.61509013
_cell_formula_units_Z   2
loop_
 _symmetry_equiv_pos_site_id
 _symmetry_equiv_pos_as_xyz
  1  'x, y, z'
loop_
 _atom_site_type_symbol
 _atom_site_label
 _atom_site_symmetry_multiplicity
 _atom_site_fract_x
 _atom_site_fract_y
 _atom_site_fract_z
 _atom_site_occupancy
  V  V0  1  0.62469245  0.11749774  0.35629287  1
  V  V1  1  0.37530755  0.88250226  0.64370713  1
  V  V2  1  0.16061401  0.22669340  0.96277145  1
  V  V3  1  0.83938599  0.77330660  0.03722855  1
  V  V4  1  0.15136597  0.44535866  0.26575206  1
  V  V5  1  0.84863403  0.55464134  0.73424794  1
  In  In0  1  0.88005881  0.03344990  0.64455839  1
  In  In1  1  0.11994119  0.96655010  0.35544161  1
  Pb  Pb0  1  0.65293804  0.24297479  0.99380565  1
  Pb  Pb1  1  0.34706196  0.75702521  0.00619435  1
  Pb  Pb2  1  0.32276206  0.40196475  0.63080746  1
  Pb  Pb3  1  0.67723794  0.59803525  0.36919254  1
  O  O0  1  0.94477510  0.34601578  0.66329583  1
  O  O1  1  0.05522490  0.65398422  0.33670417  1
  O  O2  1  0.03169605  0.35038837  0.09749376  1
  O  O3  1  0.96830395  0.64961163  0.90250624  1
  O  O4  1  0.41959671  0.69512867  0.52265764  1
  O  O5  1  0.58040329  0.30487133  0.47734236  1
  O  O6  1  0.69875124  0.22703493  0.22973400  1
  O  O7  1  0.30124876  0.77296507  0.77026600  1
  O  O8  1  0.98615391  0.08314434  0.85312259  1
  O  O9  1  0.01384609  0.91685566  0.14687741  1
  O  O10  1  0.66674692  0.90330012  0.97848467  1
  O  O11  1  0.33325308  0.09669988  0.02151533  1
  O  O12  1  0.58166111  0.04012492  0.69306850  1
  O  O13  1  0.41833889  0.95987508  0.30693150  1
  O  O14  1  0.18438125  0.01141896  0.57681704  1
  O  O15  1  0.81561875  0.98858104  0.42318296  1
  O  O16  1  0.28539371  0.38389149  0.88667812  1
  O  O17  1  0.71460629  0.61610851  0.11332188  1
  O  O18  1  0.62419145  0.49963436  0.76864146  1
  O  O19  1  0.37580855  0.50036564  0.23135854  1
  O  O20  1  0.85604429  0.72173574  0.62877581  1
  O  O21  1  0.14395571  0.27826426  0.37122419  1
loop_
_geom_bond_atom_site_label_1
_geom_bond_atom_site_label_2
_geom_bond_distance
_geom_bond_site_symmetry_2
In0 O8 2.124937 1_555
In0 O20 2.158255 1_545
In0 O0 2.175456 1_555
In0 O12 2.176788 1_555
In0 O15 2.194113 1_545
In0 O14 2.287198 1_655
In1 O9 2.124937 1_555
In1 O21 2.158255 1_565
In1 O1 2.175456 1_555
In1 O13 2.176788 1_555
In1 O14 2.194113 1_565
In1 O15 2.287198 1_455
O0 V5 1.719086 1_555
O0 Pb2 2.688472 1_655
O1 V4 1.719086 1_555
O1 Pb3 2.688472 1_455
O2 V2 1.808314 1_554
O2 V4 1.810814 1_555
O2 Pb0 2.759902 1_454
O3 V3 1.808314 1_556
O3 V5 1.810814 1_555
O3 Pb1 2.759902 1_656
O4 V1 1.684079 1_555
O4 Pb3 2.510114 1_555
O4 Pb2 2.566962 1_555
O5 V0 1.684079 1_555
O5 Pb2 2.510114 1_555
O5 Pb3 2.566962 1_555
O6 V0 1.694061 1_555
O6 Pb0 2.392388 1_554
O6 Pb3 2.742537 1_555
O7 V1 1.694061 1_555
O7 Pb1 2.392388 1_556
O7 Pb2 2.742537 1_555
O8 V2 1.702369 1_655
O9 V3 1.702369 1_455
O10 V3 1.707850 1_556
O10 Pb0 2.374090 1_565
O10 Pb1 2.435227 1_556
O11 V2 1.707850 1_554
O11 Pb1 2.374090 1_545
O11 Pb0 2.435227 1_554
O12 V1 1.724002 1_545
O13 V0 1.724002 1_565
O14 V1 1.829504 1_545
O14 Pb2 2.772401 1_555
O15 V0 1.829504 1_565
O15 Pb3 2.772401 1_555
O16 V2 1.677639 1_555
O16 Pb2 2.627444 1_555
O16 Pb1 2.658431 1_556
O17 V3 1.677639 1_555
O17 Pb3 2.627444 1_555
O17 Pb0 2.658431 1_554
O18 V5 1.659124 1_555
O18 Pb2 2.407017 1_555
O19 V4 1.659124 1_555
O19 Pb3 2.407017 1_555
O20 V5 1.721834 1_555
O20 Pb3 2.758376 1_555
O21 V4 1.721834 1_555
O21 Pb2 2.758376 1_555
