# generated using pymatgen
data_Zr5In3Ga
_symmetry_space_group_name_H-M   'P 1'
_cell_length_a   8.76187380
_cell_length_b   8.76187404
_cell_length_c   5.88512605
_cell_angle_alpha   90.00000000
_cell_angle_beta   90.00000000
_cell_angle_gamma   119.99999538
_symmetry_Int_Tables_number   1
_chemical_formula_structural   Zr5In3Ga
_chemical_formula_sum   'Zr10 In6 Ga2'
_cell_volume   391.27348636
_cell_formula_units_Z   2
loop_
 _symmetry_equiv_pos_site_id
 _symmetry_equiv_pos_as_xyz
  1  'x, y, z'
loop_
 _atom_site_type_symbol
 _atom_site_label
 _atom_site_symmetry_multiplicity
 _atom_site_fract_x
 _atom_site_fract_y
 _atom_site_fract_z
 _atom_site_occupancy
  Zr  Zr0  1  0.66666700  0.33333300  0.00000000  1
  Zr  Zr1  1  0.33333300  0.66666700  0.00000000  1
  Zr  Zr2  1  0.33333300  0.66666700  0.50000000  1
  Zr  Zr3  1  0.66666700  0.33333300  0.50000000  1
  Zr  Zr4  1  0.73796077  0.73796077  0.75000000  1
  Zr  Zr5  1  0.26203923  0.00000000  0.75000000  1
  Zr  Zr6  1  0.00000000  0.26203923  0.75000000  1
  Zr  Zr7  1  0.26203923  0.26203923  0.25000000  1
  Zr  Zr8  1  0.73796077  1.00000000  0.25000000  1
  Zr  Zr9  1  1.00000000  0.73796077  0.25000000  1
  In  In0  1  0.38558627  0.38558627  0.75000000  1
  In  In1  1  0.61441373  0.00000000  0.75000000  1
  In  In2  1  0.00000000  0.61441373  0.75000000  1
  In  In3  1  0.61441373  0.61441373  0.25000000  1
  In  In4  1  0.38558627  1.00000000  0.25000000  1
  In  In5  1  1.00000000  0.38558627  0.25000000  1
  Ga  Ga0  1  0.00000000  0.00000000  0.00000000  1
  Ga  Ga1  1  0.00000000  0.00000000  0.50000000  1
loop_
_geom_bond_atom_site_label_1
_geom_bond_atom_site_label_2
_geom_bond_distance
_geom_bond_site_symmetry_2
Zr0 Zr3 2.942563 1_554
Zr0 Zr3 2.942563 1_555
Zr1 Zr2 2.942563 1_554
Zr1 Zr2 2.942563 1_555
In0 Zr6 2.988077 1_555
In0 Zr5 2.988077 1_555
In0 Zr4 3.087461 1_555
In0 Zr3 3.093088 1_555
In0 Zr0 3.093088 1_556
In0 Zr1 3.093088 1_556
In0 Zr2 3.093088 1_555
In0 Zr7 3.135361 1_555
In0 Zr7 3.135361 1_556
In1 Zr4 2.988076 1_545
In1 Zr6 2.988077 1_655
In1 Zr5 3.087461 1_555
In1 Zr3 3.093081 1_555
In1 Zr0 3.093081 1_556
In1 Zr1 3.093084 1_546
In1 Zr2 3.093084 1_545
In1 Zr8 3.135361 1_545
In1 Zr8 3.135361 1_546
In2 Zr4 2.988076 1_455
In2 Zr5 2.988077 1_565
In2 Zr6 3.087461 1_555
In2 Zr2 3.093081 1_555
In2 Zr1 3.093081 1_556
In2 Zr0 3.093084 1_456
In2 Zr3 3.093084 1_455
In2 Zr9 3.135361 1_455
In2 Zr9 3.135361 1_456
In3 Zr9 2.988077 1_555
In3 Zr8 2.988077 1_555
In3 Zr7 3.087461 1_555
In3 Zr2 3.093088 1_555
In3 Zr1 3.093088 1_555
In3 Zr3 3.093088 1_555
In3 Zr0 3.093088 1_555
In3 Zr4 3.135361 1_555
In3 Zr4 3.135361 1_554
In4 Zr7 2.988076 1_565
In4 Zr9 2.988077 1_455
In4 Zr8 3.087461 1_555
In4 Zr1 3.093081 1_555
In4 Zr2 3.093081 1_555
In4 Zr3 3.093084 1_565
In4 Zr0 3.093084 1_565
In4 Zr5 3.135361 1_565
In4 Zr5 3.135361 1_564
In5 Zr7 2.988076 1_655
In5 Zr8 2.988077 1_545
In5 Zr9 3.087461 1_555
In5 Zr0 3.093081 1_555
In5 Zr3 3.093081 1_555
In5 Zr1 3.093084 1_655
In5 Zr2 3.093084 1_655
In5 Zr6 3.135361 1_655
In5 Zr6 3.135361 1_654
Ga0 Zr5 2.726917 1_554
Ga0 Zr8 2.726917 1_445
Ga0 Zr6 2.726917 1_554
Ga0 Zr9 2.726917 1_445
Ga0 Zr7 2.726917 1_555
Ga0 Zr4 2.726917 1_444
Ga0 Ga1 2.942563 1_555
Ga0 Ga1 2.942563 1_554
Ga1 Zr5 2.726917 1_555
Ga1 Zr8 2.726917 1_445
Ga1 Zr6 2.726917 1_555
Ga1 Zr9 2.726917 1_445
Ga1 Zr7 2.726917 1_555
Ga1 Zr4 2.726917 1_445
