# generated using pymatgen
data_Cs2HfZn3Sb4
_symmetry_space_group_name_H-M   'P 1'
_cell_length_a   8.75087396
_cell_length_b   8.75087358
_cell_length_c   6.30197794
_cell_angle_alpha   90.00000000
_cell_angle_beta   90.00000000
_cell_angle_gamma   137.83414455
_symmetry_Int_Tables_number   1
_chemical_formula_structural   Cs2HfZn3Sb4
_chemical_formula_sum   'Cs2 Hf1 Zn3 Sb4'
_cell_volume   323.95357520
_cell_formula_units_Z   1
loop_
 _symmetry_equiv_pos_site_id
 _symmetry_equiv_pos_as_xyz
  1  'x, y, z'
loop_
 _atom_site_type_symbol
 _atom_site_label
 _atom_site_symmetry_multiplicity
 _atom_site_fract_x
 _atom_site_fract_y
 _atom_site_fract_z
 _atom_site_occupancy
  Cs  Cs0  1  0.50000000  0.00000000  0.25386938  1
  Cs  Cs1  1  0.00000000  0.50000000  0.74613062  1
  Hf  Hf0  1  0.00000000  0.00000000  0.00000000  1
  Zn  Zn0  1  0.50000000  0.50000000  0.50000000  1
  Zn  Zn1  1  0.50000000  0.50000000  0.00000000  1
  Zn  Zn2  1  0.00000000  0.00000000  0.50000000  1
  Sb  Sb0  1  0.64705861  0.84808365  0.74793818  1
  Sb  Sb1  1  0.15191635  0.35294139  0.25206182  1
  Sb  Sb2  1  0.84808365  0.64705861  0.25206182  1
  Sb  Sb3  1  0.35294139  0.15191635  0.74793818  1
loop_
_geom_bond_atom_site_label_1
_geom_bond_atom_site_label_2
_geom_bond_distance
_geom_bond_site_symmetry_2
Cs0 Sb3 3.956522 1_555
Cs0 Sb0 3.956522 1_545
Cs0 Sb2 3.971440 1_555
Cs0 Sb1 3.971440 1_545
Cs0 Sb1 3.995607 1_655
Cs0 Sb2 3.995607 1_445
Cs0 Sb0 4.015617 1_544
Cs0 Sb3 4.015617 1_554
Cs1 Sb2 3.956522 1_455
Cs1 Sb1 3.956522 1_555
Cs1 Sb0 3.971440 1_555
Cs1 Sb3 3.971440 1_455
Cs1 Sb3 3.995607 1_565
Cs1 Sb0 3.995607 1_445
Cs1 Sb2 4.015617 1_456
Cs1 Sb1 4.015617 1_556
Hf0 Sb1 2.782637 1_555
Hf0 Sb2 2.782637 1_445
Hf0 Sb3 2.782637 1_554
Hf0 Sb0 2.782637 1_444
Hf0 Zn1 3.147854 1_445
Hf0 Zn1 3.147854 1_555
Hf0 Zn2 3.150989 1_555
Hf0 Zn2 3.150989 1_554
Sb0 Zn0 2.750438 1_555
Sb0 Zn1 2.765284 1_556
Sb0 Zn2 2.767884 1_665
Sb1 Zn0 2.750438 1_555
Sb1 Zn1 2.765284 1_555
Sb1 Zn2 2.767884 1_555
Sb2 Zn0 2.750438 1_555
Sb2 Zn1 2.765284 1_555
Sb2 Zn2 2.767884 1_665
Sb3 Zn0 2.750438 1_555
Sb3 Zn1 2.765284 1_556
Sb3 Zn2 2.767884 1_555
