# generated using pymatgen
data_Rb3YIr2O9
_symmetry_space_group_name_H-M   'P 1'
_cell_length_a   6.03275640
_cell_length_b   6.03275598
_cell_length_c   14.50531399
_cell_angle_alpha   89.98035556
_cell_angle_beta   89.98035750
_cell_angle_gamma   119.99321601
_symmetry_Int_Tables_number   1
_chemical_formula_structural   Rb3YIr2O9
_chemical_formula_sum   'Rb6 Y2 Ir4 O18'
_cell_volume   457.21334282
_cell_formula_units_Z   2
loop_
 _symmetry_equiv_pos_site_id
 _symmetry_equiv_pos_as_xyz
  1  'x, y, z'
loop_
 _atom_site_type_symbol
 _atom_site_label
 _atom_site_symmetry_multiplicity
 _atom_site_fract_x
 _atom_site_fract_y
 _atom_site_fract_z
 _atom_site_occupancy
  Rb  Rb0  1  0.66696098  0.33349846  0.39902870  1
  Rb  Rb1  1  0.66650154  0.33303902  0.10097130  1
  Rb  Rb2  1  0.00002724  0.99997276  0.25000000  1
  Rb  Rb3  1  0.99997276  0.00002724  0.75000000  1
  Rb  Rb4  1  0.33349846  0.66696098  0.89902870  1
  Rb  Rb5  1  0.33303902  0.66650154  0.60097130  1
  Y  Y0  1  0.00000000  0.00000000  0.00000000  1
  Y  Y1  1  0.00000000  0.00000000  0.50000000  1
  Ir  Ir0  1  0.66624917  0.33306157  0.65208843  1
  Ir  Ir1  1  0.66693843  0.33375083  0.84791157  1
  Ir  Ir2  1  0.33375083  0.66693843  0.34791157  1
  Ir  Ir3  1  0.33306157  0.66624917  0.15208843  1
  O  O0  1  0.82113713  0.64202079  0.91614472  1
  O  O1  1  0.35797921  0.17886287  0.58385528  1
  O  O2  1  0.17886287  0.35797921  0.08385528  1
  O  O3  1  0.64202079  0.82113713  0.41614472  1
  O  O4  1  0.35913007  0.17996981  0.91656001  1
  O  O5  1  0.82003019  0.64086993  0.58343999  1
  O  O6  1  0.64086993  0.82003019  0.08343999  1
  O  O7  1  0.17996981  0.35913007  0.41656001  1
  O  O8  1  0.82122104  0.17998454  0.91638450  1
  O  O9  1  0.82001546  0.17877896  0.58361550  1
  O  O10  1  0.17877896  0.82001546  0.08361550  1
  O  O11  1  0.17998454  0.82122104  0.41638450  1
  O  O12  1  0.46712140  0.53287860  0.25000000  1
  O  O13  1  0.53287860  0.46712140  0.75000000  1
  O  O14  1  0.06601393  0.53291359  0.25018056  1
  O  O15  1  0.46708641  0.93398607  0.24981944  1
  O  O16  1  0.93398607  0.46708641  0.74981944  1
  O  O17  1  0.53291359  0.06601393  0.75018056  1
loop_
_geom_bond_atom_site_label_1
_geom_bond_atom_site_label_2
_geom_bond_distance
_geom_bond_site_symmetry_2
Ir0 O1 1.890966 1_555
Ir0 O5 1.891072 1_555
Ir0 O9 1.891166 1_555
Ir0 O16 1.992210 1_555
Ir0 O17 1.992236 1_555
Ir0 O13 1.992262 1_555
Ir1 O0 1.890966 1_555
Ir1 O4 1.891072 1_555
Ir1 O8 1.891166 1_555
Ir1 O17 1.992210 1_555
Ir1 O16 1.992236 1_555
Ir1 O13 1.992262 1_555
Ir2 O3 1.890966 1_555
Ir2 O7 1.891072 1_555
Ir2 O11 1.891166 1_555
Ir2 O14 1.992210 1_555
Ir2 O15 1.992236 1_555
Ir2 O12 1.992262 1_555
Ir3 O2 1.890966 1_555
Ir3 O6 1.891072 1_555
Ir3 O10 1.891166 1_555
Ir3 O15 1.992210 1_555
Ir3 O14 1.992236 1_555
Ir3 O12 1.992262 1_555
O0 Y0 2.231723 1_666
O0 Rb4 3.028653 1_655
O0 Rb4 3.030099 1_555
O0 Rb3 3.049849 1_565
O0 Rb1 3.128691 1_556
O1 Y1 2.231723 1_555
O1 Rb5 3.028653 1_545
O1 Rb5 3.030099 1_555
O1 Rb3 3.049849 1_455
O1 Rb0 3.128691 1_555
O2 Y0 2.231723 1_555
O2 Rb1 3.028653 1_455
O2 Rb1 3.030099 1_555
O2 Rb2 3.049849 1_545
O2 Rb4 3.128691 1_554
O3 Y1 2.231723 1_665
O3 Rb0 3.028653 1_565
O3 Rb0 3.030099 1_555
O3 Rb2 3.049849 1_655
O3 Rb5 3.128691 1_555
O4 Y0 2.232287 1_556
O4 Rb4 3.028784 1_555
O4 Rb4 3.031308 1_545
O4 Rb3 3.060053 1_455
O4 Rb1 3.120833 1_556
O5 Y1 2.232287 1_665
O5 Rb5 3.028784 1_555
O5 Rb5 3.031308 1_655
O5 Rb3 3.060053 1_565
O5 Rb0 3.120833 1_555
O6 Y0 2.232287 1_665
O6 Rb1 3.028784 1_555
O6 Rb1 3.031308 1_565
O6 Rb2 3.060053 1_655
O6 Rb4 3.120833 1_554
O7 Y1 2.232287 1_555
O7 Rb0 3.028784 1_555
O7 Rb0 3.031308 1_455
O7 Rb2 3.060053 1_545
O7 Rb5 3.120833 1_555
O8 Y0 2.232503 1_656
O8 Rb4 3.027646 1_655
O8 Rb4 3.032471 1_545
O8 Rb3 3.055611 1_555
O8 Rb1 3.123196 1_556
O9 Y1 2.232503 1_655
O9 Rb5 3.027646 1_545
O9 Rb5 3.032471 1_655
O9 Rb3 3.055611 1_555
O9 Rb0 3.123196 1_555
O10 Y0 2.232503 1_565
O10 Rb1 3.027646 1_455
O10 Rb1 3.032471 1_565
O10 Rb2 3.055611 1_555
O10 Rb4 3.123196 1_554
O11 Y1 2.232503 1_565
O11 Rb0 3.027646 1_565
O11 Rb0 3.032471 1_455
O11 Rb2 3.055611 1_555
O11 Rb5 3.123196 1_555
O12 Rb0 3.003825 1_555
O12 Rb1 3.003825 1_555
O12 Rb2 3.036217 1_545
O12 Rb2 3.036218 1_655
O13 Rb5 3.003825 1_555
O13 Rb4 3.003825 1_555
O13 Rb3 3.036217 1_565
O13 Rb3 3.036218 1_455
O14 Rb0 3.000593 1_455
O14 Rb1 3.007812 1_455
O14 Rb2 3.035746 1_545
O14 Rb2 3.036292 1_555
O15 Rb1 3.000593 1_565
O15 Rb0 3.007812 1_565
O15 Rb2 3.035746 1_655
O15 Rb2 3.036293 1_555
O16 Rb5 3.000593 1_655
O16 Rb4 3.007812 1_655
O16 Rb3 3.035746 1_565
O16 Rb3 3.036292 1_555
O17 Rb4 3.000593 1_545
O17 Rb5 3.007812 1_545
O17 Rb3 3.035746 1_455
O17 Rb3 3.036293 1_555
