# generated using pymatgen
data_Ba4FeOsO8
_symmetry_space_group_name_H-M   'P 1'
_cell_length_a   7.23973490
_cell_length_b   7.23973445
_cell_length_c   5.77092764
_cell_angle_alpha   90.00000000
_cell_angle_beta   90.00000000
_cell_angle_gamma   133.01024075
_symmetry_Int_Tables_number   1
_chemical_formula_structural   Ba4FeOsO8
_chemical_formula_sum   'Ba4 Fe1 Os1 O8'
_cell_volume   221.18007209
_cell_formula_units_Z   1
loop_
 _symmetry_equiv_pos_site_id
 _symmetry_equiv_pos_as_xyz
  1  'x, y, z'
loop_
 _atom_site_type_symbol
 _atom_site_label
 _atom_site_symmetry_multiplicity
 _atom_site_fract_x
 _atom_site_fract_y
 _atom_site_fract_z
 _atom_site_occupancy
  Ba  Ba0  1  0.64339801  0.35660199  0.00000000  1
  Ba  Ba1  1  0.14473619  0.85526381  0.50000000  1
  Ba  Ba2  1  0.85526381  0.14473619  0.50000000  1
  Ba  Ba3  1  0.35660199  0.64339801  0.00000000  1
  Fe  Fe0  1  0.50000000  0.50000000  0.50000000  1
  Os  Os0  1  0.00000000  0.00000000  0.00000000  1
  O  O0  1  0.75650449  0.75650449  0.75709507  1
  O  O1  1  0.24349551  0.24349551  0.24290493  1
  O  O2  1  0.24349551  0.24349551  0.75709507  1
  O  O3  1  0.75650449  0.75650449  0.24290493  1
  O  O4  1  0.84853297  0.15146703  0.00000000  1
  O  O5  1  0.35069318  0.64930682  0.50000000  1
  O  O6  1  0.64930682  0.35069318  0.50000000  1
  O  O7  1  0.15146703  0.84853297  0.00000000  1
loop_
_geom_bond_atom_site_label_1
_geom_bond_atom_site_label_2
_geom_bond_distance
_geom_bond_site_symmetry_2
Ba0 O4 2.723999 1_555
Ba0 O3 2.789862 1_555
Ba0 O0 2.789862 1_554
Ba0 O1 2.789862 1_555
Ba0 O2 2.789862 1_554
Ba0 O6 2.886530 1_555
Ba0 O6 2.886530 1_554
Ba0 O7 2.888232 1_545
Ba0 O7 2.888232 1_655
Ba1 O5 2.734915 1_555
Ba1 O2 2.805507 1_565
Ba1 O1 2.805507 1_565
Ba1 O0 2.805507 1_455
Ba1 O3 2.805507 1_455
Ba1 O7 2.886848 1_556
Ba1 O7 2.886848 1_555
Ba1 O6 2.886882 1_455
Ba1 O6 2.886882 1_565
Ba2 O6 2.734915 1_555
Ba2 O0 2.805507 1_545
Ba2 O3 2.805507 1_545
Ba2 O2 2.805507 1_655
Ba2 O1 2.805507 1_655
Ba2 O4 2.886848 1_556
Ba2 O4 2.886848 1_555
Ba2 O5 2.886882 1_655
Ba2 O5 2.886882 1_545
Ba3 O7 2.723999 1_555
Ba3 O1 2.789862 1_555
Ba3 O2 2.789862 1_554
Ba3 O3 2.789862 1_555
Ba3 O0 2.789862 1_554
Ba3 O5 2.886530 1_555
Ba3 O5 2.886530 1_554
Ba3 O4 2.888232 1_565
Ba3 O4 2.888232 1_455
Fe0 O5 1.982654 1_555
Fe0 O6 1.982654 1_555
Fe0 O0 2.096110 1_555
Fe0 O2 2.096110 1_555
Fe0 O3 2.096110 1_555
Fe0 O1 2.096110 1_555
O0 Os0 1.985106 1_666
O1 Os0 1.985106 1_555
O2 Os0 1.985106 1_556
O3 Os0 1.985106 1_665
O4 Os0 2.011340 1_655
O7 Os0 2.011340 1_565
