# generated using pymatgen
data_Rb7TaP4
_symmetry_space_group_name_H-M   'P 1'
_cell_length_a   8.49066571
_cell_length_b   9.33521622
_cell_length_c   10.44249045
_cell_angle_alpha   90.00000000
_cell_angle_beta   90.00000000
_cell_angle_gamma   90.00000000
_symmetry_Int_Tables_number   1
_chemical_formula_structural   Rb7TaP4
_chemical_formula_sum   'Rb14 Ta2 P8'
_cell_volume   827.69477001
_cell_formula_units_Z   2
loop_
 _symmetry_equiv_pos_site_id
 _symmetry_equiv_pos_as_xyz
  1  'x, y, z'
loop_
 _atom_site_type_symbol
 _atom_site_label
 _atom_site_symmetry_multiplicity
 _atom_site_fract_x
 _atom_site_fract_y
 _atom_site_fract_z
 _atom_site_occupancy
  Rb  Rb0  1  0.87593398  0.03615565  0.00000000  1
  Rb  Rb1  1  0.70688321  0.83344062  0.71382578  1
  Rb  Rb2  1  0.39489394  0.89541174  0.00000000  1
  Rb  Rb3  1  0.37593398  0.96384435  0.50000000  1
  Rb  Rb4  1  0.87497912  0.46785038  0.29126291  1
  Rb  Rb5  1  0.89489394  0.10458826  0.50000000  1
  Rb  Rb6  1  0.66259321  0.34272397  0.00000000  1
  Rb  Rb7  1  0.16259321  0.65727603  0.50000000  1
  Rb  Rb8  1  0.20688321  0.16655938  0.21382578  1
  Rb  Rb9  1  0.37497912  0.53214962  0.20873709  1
  Rb  Rb10  1  0.37497912  0.53214962  0.79126291  1
  Rb  Rb11  1  0.87497912  0.46785038  0.70873709  1
  Rb  Rb12  1  0.70688321  0.83344062  0.28617422  1
  Rb  Rb13  1  0.20688321  0.16655938  0.78617422  1
  Ta  Ta0  1  0.99814817  0.67458597  0.00000000  1
  Ta  Ta1  1  0.49814817  0.32541403  0.50000000  1
  P  P0  1  0.71521065  0.68613660  0.00000000  1
  P  P1  1  0.21521065  0.31386340  0.50000000  1
  P  P2  1  0.07246529  0.42409224  0.00000000  1
  P  P3  1  0.57246529  0.57590776  0.50000000  1
  P  P4  1  0.08906554  0.80031703  0.19174806  1
  P  P5  1  0.58906554  0.19968297  0.30825194  1
  P  P6  1  0.58906554  0.19968297  0.69174806  1
  P  P7  1  0.08906554  0.80031703  0.80825194  1
loop_
_geom_bond_atom_site_label_1
_geom_bond_atom_site_label_2
_geom_bond_distance
_geom_bond_site_symmetry_2
P0 Ta0 2.404747 1_555
P0 Rb6 3.236811 1_555
P0 Rb12 3.290335 1_555
P0 Rb1 3.290335 1_554
P0 Rb2 3.348648 1_555
P0 Rb0 3.541023 1_565
P1 Ta1 2.404747 1_555
P1 Rb7 3.236811 1_555
P1 Rb13 3.290335 1_555
P1 Rb8 3.290335 1_555
P1 Rb5 3.348648 1_455
P1 Rb3 3.541023 1_545
P2 Ta0 2.422053 1_455
P2 Rb8 3.473917 1_555
P2 Rb13 3.473917 1_554
P2 Rb4 3.497037 1_455
P2 Rb11 3.497037 1_454
P2 Rb9 3.516563 1_555
P2 Rb10 3.516563 1_554
P2 Rb6 3.562019 1_455
P3 Ta1 2.422053 1_555
P3 Rb1 3.473917 1_555
P3 Rb12 3.473917 1_555
P3 Rb10 3.497037 1_555
P3 Rb9 3.497037 1_555
P3 Rb11 3.516563 1_555
P3 Rb4 3.516563 1_555
P3 Rb7 3.562019 1_555
P4 Ta0 2.445987 1_455
P4 Rb2 3.397081 1_555
P4 Rb12 3.405556 1_455
P4 Rb0 3.482978 1_465
P4 Rb9 3.491664 1_555
P4 Rb7 3.540375 1_555
P4 Rb8 3.569745 1_565
P4 Rb4 3.743888 1_455
P5 Ta1 2.445987 1_555
P5 Rb5 3.397081 1_555
P5 Rb8 3.405556 1_555
P5 Rb3 3.482978 1_545
P5 Rb4 3.491664 1_555
P5 Rb6 3.540375 1_555
P5 Rb12 3.569745 1_545
P5 Rb9 3.743888 1_555
P6 Ta1 2.445987 1_555
P6 Rb5 3.397081 1_555
P6 Rb13 3.405556 1_555
P6 Rb3 3.482978 1_545
P6 Rb11 3.491664 1_555
P6 Rb6 3.540375 1_556
P6 Rb1 3.569745 1_545
P6 Rb10 3.743888 1_555
P7 Ta0 2.445987 1_456
P7 Rb2 3.397081 1_556
P7 Rb1 3.405556 1_455
P7 Rb0 3.482978 1_466
P7 Rb10 3.491664 1_555
P7 Rb7 3.540375 1_555
P7 Rb13 3.569745 1_565
P7 Rb11 3.743888 1_455
