# generated using pymatgen
data_KTeAu
_symmetry_space_group_name_H-M   'P 1'
_cell_length_a   4.71168112
_cell_length_b   4.71168065
_cell_length_c   9.81470420
_cell_angle_alpha   90.00000000
_cell_angle_beta   90.00000000
_cell_angle_gamma   119.99999599
_symmetry_Int_Tables_number   1
_chemical_formula_structural   KTeAu
_chemical_formula_sum   'K2 Te2 Au2'
_cell_volume   188.69465657
_cell_formula_units_Z   2
loop_
 _symmetry_equiv_pos_site_id
 _symmetry_equiv_pos_as_xyz
  1  'x, y, z'
loop_
 _atom_site_type_symbol
 _atom_site_label
 _atom_site_symmetry_multiplicity
 _atom_site_fract_x
 _atom_site_fract_y
 _atom_site_fract_z
 _atom_site_occupancy
  K  K0  1  -0.00000000  -0.00000000  0.50000000  1
  K  K1  1  -0.00000000  -0.00000000  -0.00000000  1
  Te  Te0  1  0.33333300  0.66666700  0.75000000  1
  Te  Te1  1  0.66666700  0.33333300  0.25000000  1
  Au  Au0  1  0.66666700  0.33333300  0.75000000  1
  Au  Au1  1  0.33333300  0.66666700  0.25000000  1
loop_
_geom_bond_atom_site_label_1
_geom_bond_atom_site_label_2
_geom_bond_distance
_geom_bond_site_symmetry_2
K0 Te0 3.663399 1_545
K0 Te1 3.663399 1_455
K0 Te1 3.663402 1_445
K0 Te0 3.663402 1_555
K0 Te0 3.663402 1_445
K0 Te1 3.663402 1_555
K1 Te0 3.663399 1_544
K1 Te1 3.663399 1_455
K1 Te1 3.663402 1_445
K1 Te0 3.663402 1_554
K1 Te1 3.663402 1_555
K1 Te0 3.663402 1_444
Au0 Te0 2.720287 1_545
Au0 Te0 2.720288 1_655
Au0 Te0 2.720296 1_555
Au0 K1 3.663399 1_656
Au0 K0 3.663399 1_655
Au0 K0 3.663402 1_665
Au0 K1 3.663402 1_666
Au0 K1 3.663402 1_556
Au0 K0 3.663402 1_555
Au1 Te1 2.720287 1_565
Au1 Te1 2.720288 1_455
Au1 Te1 2.720296 1_555
Au1 K0 3.663399 1_565
Au1 K1 3.663399 1_565
Au1 K0 3.663402 1_555
Au1 K1 3.663402 1_555
Au1 K0 3.663402 1_665
Au1 K1 3.663402 1_665
