# generated using pymatgen
data_Cs2KSnSe3
_symmetry_space_group_name_H-M   'P 1'
_cell_length_a   10.54673616
_cell_length_b   10.54672955
_cell_length_c   9.75020449
_cell_angle_alpha   85.95332254
_cell_angle_beta   85.95337052
_cell_angle_gamma   79.06945279
_symmetry_Int_Tables_number   1
_chemical_formula_structural   Cs2KSnSe3
_chemical_formula_sum   'Cs8 K4 Sn4 Se12'
_cell_volume   1060.40680971
_cell_formula_units_Z   4
loop_
 _symmetry_equiv_pos_site_id
 _symmetry_equiv_pos_as_xyz
  1  'x, y, z'
loop_
 _atom_site_type_symbol
 _atom_site_label
 _atom_site_symmetry_multiplicity
 _atom_site_fract_x
 _atom_site_fract_y
 _atom_site_fract_z
 _atom_site_occupancy
  Cs  Cs0  1  0.79560570  0.39850291  0.87085797  1
  Cs  Cs1  1  0.60149709  0.20439530  0.62914203  1
  Cs  Cs2  1  0.20439430  0.60149709  0.12914203  1
  Cs  Cs3  1  0.39850291  0.79560470  0.37085797  1
  Cs  Cs4  1  0.75174935  0.80708964  0.68432208  1
  Cs  Cs5  1  0.19291036  0.24825065  0.81567792  1
  Cs  Cs6  1  0.24825065  0.19291036  0.31567792  1
  Cs  Cs7  1  0.80708964  0.75174935  0.18432208  1
  K  K0  1  0.59364830  0.40635170  0.25000000  1
  K  K1  1  0.40635170  0.59364830  0.75000000  1
  K  K2  1  0.91546590  0.08453410  0.25000000  1
  K  K3  1  0.08453410  0.91546590  0.75000000  1
  Sn  Sn0  1  0.91143350  0.42328420  0.45653026  1
  Sn  Sn1  1  0.57671580  0.08856650  0.04346974  1
  Sn  Sn2  1  0.08856650  0.57671580  0.54346974  1
  Sn  Sn3  1  0.42328420  0.91143350  0.95653026  1
  Se  Se0  1  0.06407201  0.59794885  0.80361263  1
  Se  Se1  1  0.40205115  0.93592899  0.69638637  1
  Se  Se2  1  0.93592799  0.40205115  0.19638737  1
  Se  Se3  1  0.59794885  0.06407101  0.30361363  1
  Se  Se4  1  0.04371920  0.80341106  0.43240209  1
  Se  Se5  1  0.19658894  0.95628080  0.06759791  1
  Se  Se6  1  0.95628080  0.19658894  0.56759791  1
  Se  Se7  1  0.80341106  0.04371920  0.93240209  1
  Se  Se8  1  0.67981895  0.53457851  0.51965321  1
  Se  Se9  1  0.46542149  0.32018105  0.98034679  1
  Se  Se10  1  0.32018105  0.46542149  0.48034679  1
  Se  Se11  1  0.53457851  0.67981895  0.01965321  1
loop_
_geom_bond_atom_site_label_1
_geom_bond_atom_site_label_2
_geom_bond_distance
_geom_bond_site_symmetry_2
Cs0 Se2 3.600902 1_556
Cs0 Se7 3.733796 1_555
Cs0 Se9 3.793496 1_555
Cs0 Se8 3.809044 1_555
Cs0 Se0 3.830631 1_655
Cs0 Se6 3.868136 1_555
Cs0 Se11 3.928458 1_556
Cs1 Se3 3.600904 1_555
Cs1 Se6 3.733798 1_555
Cs1 Se8 3.793484 1_555
Cs1 Se9 3.809043 1_555
Cs1 Se1 3.830629 1_545
Cs1 Se7 3.868137 1_555
Cs1 Se10 3.928451 1_555
Cs2 Se0 3.600902 1_554
Cs2 Se5 3.733796 1_555
Cs2 Se11 3.793496 1_555
Cs2 Se10 3.809044 1_555
Cs2 Se2 3.830631 1_455
Cs2 Se4 3.868136 1_555
Cs2 Se9 3.928458 1_554
Cs3 Se1 3.600904 1_555
Cs3 Se4 3.733798 1_555
Cs3 Se10 3.793484 1_555
Cs3 Se11 3.809043 1_555
Cs3 Se3 3.830629 1_565
Cs3 Se5 3.868137 1_555
Cs3 Se8 3.928451 1_555
Cs4 Se8 3.614397 1_555
Cs4 Se1 3.677449 1_555
Cs4 Se7 3.732247 1_565
Cs4 Se4 3.797061 1_655
Cs4 Se0 3.806796 1_655
Cs4 Se11 4.150592 1_556
Cs5 Se9 3.614397 1_555
Cs5 Se0 3.677445 1_555
Cs5 Se6 3.732247 1_455
Cs5 Se5 3.797058 1_546
Cs5 Se1 3.806791 1_545
Cs5 Se10 4.150591 1_555
Cs6 Se10 3.614397 1_555
Cs6 Se3 3.677449 1_555
Cs6 Se5 3.732247 1_545
Cs6 Se6 3.797061 1_455
Cs6 Se2 3.806796 1_455
Cs6 Se9 4.150592 1_554
Cs7 Se11 3.614397 1_555
Cs7 Se2 3.677445 1_555
Cs7 Se4 3.732247 1_655
Cs7 Se7 3.797058 1_564
Cs7 Se3 3.806791 1_565
Cs7 Se8 4.150591 1_555
K0 Se9 3.297363 1_554
K0 Se8 3.297363 1_555
K0 Se11 3.514633 1_555
K0 Se10 3.514636 1_555
K0 Se2 3.603033 1_555
K0 Se3 3.603042 1_555
K1 Se11 3.297363 1_556
K1 Se10 3.297363 1_555
K1 Se9 3.514633 1_555
K1 Se8 3.514636 1_555
K1 Se0 3.603033 1_555
K1 Se1 3.603042 1_555
K2 Se2 3.397815 1_555
K2 Se3 3.397821 1_555
K2 Se4 3.443508 1_645
K2 Se5 3.443511 1_645
K2 Se7 3.474013 1_554
K2 Se6 3.474013 1_555
K3 Se0 3.397815 1_555
K3 Se1 3.397821 1_555
K3 Se6 3.443508 1_465
K3 Se7 3.443511 1_465
K3 Se5 3.474013 1_556
K3 Se4 3.474013 1_555
Se0 Sn2 2.552684 1_555
Se1 Sn3 2.552693 1_555
Se2 Sn0 2.552684 1_555
Se3 Sn1 2.552693 1_555
Se4 Sn2 2.528008 1_555
Se5 Sn3 2.528011 1_554
Se6 Sn0 2.528008 1_555
Se7 Sn1 2.528011 1_556
Se8 Sn0 2.554627 1_555
Se9 Sn1 2.554625 1_556
Se10 Sn2 2.554627 1_555
Se11 Sn3 2.554625 1_554
