# generated using pymatgen
data_RbNiIO6
_symmetry_space_group_name_H-M   'P 1'
_cell_length_a   4.95897966
_cell_length_b   4.95897991
_cell_length_c   6.41588074
_cell_angle_alpha   90.00000000
_cell_angle_beta   90.00000000
_cell_angle_gamma   119.99999208
_symmetry_Int_Tables_number   1
_chemical_formula_structural   RbNiIO6
_chemical_formula_sum   'Rb1 Ni1 I1 O6'
_cell_volume   136.63804020
_cell_formula_units_Z   1
loop_
 _symmetry_equiv_pos_site_id
 _symmetry_equiv_pos_as_xyz
  1  'x, y, z'
loop_
 _atom_site_type_symbol
 _atom_site_label
 _atom_site_symmetry_multiplicity
 _atom_site_fract_x
 _atom_site_fract_y
 _atom_site_fract_z
 _atom_site_occupancy
  Rb  Rb0  1  0.66666700  0.33333300  0.00000000  1
  Ni  Ni0  1  0.00000000  0.00000000  0.50000000  1
  I  I0  1  0.33333300  0.66666700  0.50000000  1
  O  O0  1  0.04209950  0.71058122  0.33571451  1
  O  O1  1  0.04209950  0.33151828  0.66428549  1
  O  O2  1  0.66848172  0.71058122  0.66428549  1
  O  O3  1  0.28941878  0.95790050  0.66428549  1
  O  O4  1  0.66848172  0.95790050  0.33571451  1
  O  O5  1  0.28941878  0.33151828  0.33571451  1
loop_
_geom_bond_atom_site_label_1
_geom_bond_atom_site_label_2
_geom_bond_distance
_geom_bond_site_symmetry_2
Ni0 O3 1.874586 1_545
Ni0 O4 1.874586 1_445
Ni0 O0 1.874586 1_545
Ni0 O1 1.874586 1_555
Ni0 O2 1.874586 1_445
Ni0 O5 1.874586 1_555
I0 O0 1.886451 1_555
I0 O3 1.886451 1_555
I0 O4 1.886454 1_555
I0 O1 1.886454 1_555
I0 O2 1.886455 1_555
I0 O5 1.886455 1_555
O0 Rb0 2.849966 1_455
O1 Rb0 2.849964 1_456
O2 Rb0 2.849968 1_556
O3 Rb0 2.849966 1_566
O4 Rb0 2.849964 1_565
O5 Rb0 2.849968 1_555
