# generated using pymatgen
data_Li5Hf(Ge3Ir2)2
_symmetry_space_group_name_H-M   'P 1'
_cell_length_a   6.08481294
_cell_length_b   6.08481294
_cell_length_c   6.08481294
_cell_angle_alpha   90.00000000
_cell_angle_beta   90.00000000
_cell_angle_gamma   90.00000000
_symmetry_Int_Tables_number   1
_chemical_formula_structural   Li5Hf(Ge3Ir2)2
_chemical_formula_sum   'Li5 Hf1 Ge6 Ir4'
_cell_volume   225.28988552
_cell_formula_units_Z   1
loop_
 _symmetry_equiv_pos_site_id
 _symmetry_equiv_pos_as_xyz
  1  'x, y, z'
loop_
 _atom_site_type_symbol
 _atom_site_label
 _atom_site_symmetry_multiplicity
 _atom_site_fract_x
 _atom_site_fract_y
 _atom_site_fract_z
 _atom_site_occupancy
  Li  Li0  1  0.50000000  0.50000000  0.50000000  1
  Li  Li1  1  0.73068218  0.26931782  0.26931782  1
  Li  Li2  1  0.26931782  0.26931782  0.73068218  1
  Li  Li3  1  0.26931782  0.73068218  0.26931782  1
  Li  Li4  1  0.73068218  0.73068218  0.73068218  1
  Hf  Hf0  1  0.00000000  0.00000000  0.00000000  1
  Ge  Ge0  1  0.00000000  0.50000000  0.50000000  1
  Ge  Ge1  1  0.00000000  0.50000000  0.00000000  1
  Ge  Ge2  1  0.00000000  0.00000000  0.50000000  1
  Ge  Ge3  1  0.50000000  0.50000000  0.00000000  1
  Ge  Ge4  1  0.50000000  0.00000000  0.00000000  1
  Ge  Ge5  1  0.50000000  0.00000000  0.50000000  1
  Ir  Ir0  1  0.75359396  0.24640604  0.75359396  1
  Ir  Ir1  1  0.24640604  0.24640604  0.24640604  1
  Ir  Ir2  1  0.75359396  0.75359396  0.24640604  1
  Ir  Ir3  1  0.24640604  0.75359396  0.75359396  1
loop_
_geom_bond_atom_site_label_1
_geom_bond_atom_site_label_2
_geom_bond_distance
_geom_bond_site_symmetry_2
Li0 Li4 2.431207 1_555
Li0 Li2 2.431207 1_555
Li0 Li3 2.431207 1_555
Li0 Li1 2.431207 1_555
Hf0 Ir1 2.596924 1_555
Hf0 Ir0 2.596924 1_454
Hf0 Ir2 2.596924 1_445
Hf0 Ir3 2.596924 1_544
Hf0 Li3 2.838396 1_545
Hf0 Li1 2.838396 1_455
Hf0 Li2 2.838396 1_554
Hf0 Li4 2.838396 1_444
Ge0 Li2 2.574103 1_555
Ge0 Li3 2.574103 1_555
Ge0 Li4 2.574103 1_455
Ge0 Li1 2.574103 1_455
Ge0 Ir3 2.647668 1_555
Ge0 Ir1 2.647668 1_555
Ge0 Ir2 2.647668 1_455
Ge0 Ir0 2.647668 1_455
Ge1 Ir2 2.622419 1_455
Ge1 Ir3 2.622419 1_554
Ge1 Ir1 2.622419 1_555
Ge1 Ir0 2.622419 1_454
Ge1 Li3 2.709474 1_555
Ge1 Li2 2.709474 1_554
Ge1 Li1 2.709474 1_455
Ge1 Li4 2.709474 1_454
Ge1 Hf0 3.042406 1_555
Ge1 Hf0 3.042406 1_565
Ge2 Ir0 2.622419 1_455
Ge2 Ir3 2.622419 1_545
Ge2 Ir1 2.622419 1_555
Ge2 Ir2 2.622419 1_445
Ge2 Li2 2.709474 1_555
Ge2 Li3 2.709474 1_545
Ge2 Li1 2.709474 1_455
Ge2 Li4 2.709474 1_445
Ge2 Hf0 3.042406 1_555
Ge2 Hf0 3.042406 1_556
Ge3 Li1 2.574103 1_555
Ge3 Li3 2.574103 1_555
Ge3 Li4 2.574103 1_554
Ge3 Li2 2.574103 1_554
Ge3 Ir2 2.647668 1_555
Ge3 Ir1 2.647668 1_555
Ge3 Ir3 2.647668 1_554
Ge3 Ir0 2.647668 1_554
Ge4 Ir0 2.622419 1_554
Ge4 Ir2 2.622419 1_545
Ge4 Ir1 2.622419 1_555
Ge4 Ir3 2.622419 1_544
Ge4 Li1 2.709474 1_555
Ge4 Li2 2.709474 1_554
Ge4 Li3 2.709474 1_545
Ge4 Li4 2.709474 1_544
Ge4 Hf0 3.042406 1_555
Ge4 Hf0 3.042406 1_655
Ge5 Li2 2.574103 1_555
Ge5 Li1 2.574103 1_555
Ge5 Li4 2.574103 1_545
Ge5 Li3 2.574103 1_545
Ge5 Ir0 2.647668 1_555
Ge5 Ir2 2.647668 1_545
Ge5 Ir1 2.647668 1_555
Ge5 Ir3 2.647668 1_545
Ir0 Li0 2.672679 1_555
Ir0 Li4 2.953318 1_555
Ir0 Li1 2.953318 1_555
Ir0 Li2 2.953318 1_555
Ir0 Li2 3.144271 1_655
Ir0 Li1 3.144271 1_556
Ir0 Li4 3.144271 1_545
Ir1 Li0 2.672679 1_555
Ir1 Li2 2.953318 1_555
Ir1 Li3 2.953318 1_555
Ir1 Li1 2.953318 1_555
Ir1 Li3 3.144271 1_545
Ir1 Li1 3.144271 1_455
Ir1 Li2 3.144271 1_554
Ir2 Li0 2.672679 1_555
Ir2 Li4 2.953318 1_555
Ir2 Li1 2.953318 1_555
Ir2 Li3 2.953318 1_555
Ir2 Li3 3.144271 1_655
Ir2 Li1 3.144271 1_565
Ir2 Li4 3.144271 1_554
Ir3 Li0 2.672679 1_555
Ir3 Li4 2.953318 1_555
Ir3 Li2 2.953318 1_555
Ir3 Li3 2.953318 1_555
Ir3 Li3 3.144271 1_556
Ir3 Li2 3.144271 1_565
Ir3 Li4 3.144271 1_455
