# generated using pymatgen
data_NbCo2B2Ir
_symmetry_space_group_name_H-M   'P 1'
_cell_length_a   5.75689971
_cell_length_b   5.75689933
_cell_length_c   5.75689982
_cell_angle_alpha   95.73276132
_cell_angle_beta   95.73276151
_cell_angle_gamma   95.73277964
_symmetry_Int_Tables_number   1
_chemical_formula_structural   NbCo2B2Ir
_chemical_formula_sum   'Nb3 Co6 B6 Ir3'
_cell_volume   187.72413062
_cell_formula_units_Z   3
loop_
 _symmetry_equiv_pos_site_id
 _symmetry_equiv_pos_as_xyz
  1  'x, y, z'
loop_
 _atom_site_type_symbol
 _atom_site_label
 _atom_site_symmetry_multiplicity
 _atom_site_fract_x
 _atom_site_fract_y
 _atom_site_fract_z
 _atom_site_occupancy
  Nb  Nb0  1  0.00000000  0.00000000  0.00000000  1
  Nb  Nb1  1  0.66432555  0.66432555  0.66432555  1
  Nb  Nb2  1  0.33567445  0.33567445  0.33567445  1
  Co  Co0  1  0.69381115  0.21470613  0.69381115  1
  Co  Co1  1  0.69381115  0.69381115  0.21470613  1
  Co  Co2  1  0.21470613  0.69381115  0.69381115  1
  Co  Co3  1  0.30618885  0.78529387  0.30618885  1
  Co  Co4  1  0.30618885  0.30618885  0.78529387  1
  Co  Co5  1  0.78529387  0.30618885  0.30618885  1
  B  B0  1  0.61193737  0.38806263  1.00000000  1
  B  B1  1  0.00000000  0.61193737  0.38806263  1
  B  B2  1  0.38806263  1.00000000  0.61193737  1
  B  B3  1  1.00000000  0.38806263  0.61193737  1
  B  B4  1  0.61193737  0.00000000  0.38806263  1
  B  B5  1  0.38806263  0.61193737  0.00000000  1
  Ir  Ir0  1  0.00000000  0.00000000  0.50000000  1
  Ir  Ir1  1  0.50000000  0.00000000  0.00000000  1
  Ir  Ir2  1  0.00000000  0.50000000  0.00000000  1
loop_
_geom_bond_atom_site_label_1
_geom_bond_atom_site_label_2
_geom_bond_distance
_geom_bond_site_symmetry_2
Nb0 Nb2 2.994146 1_555
Nb0 Nb1 2.994146 1_444
Co0 Ir1 2.536231 1_556
Co0 Ir0 2.536231 1_655
Co0 Nb1 2.631978 1_555
Co0 Ir2 2.671001 1_656
Co0 Nb0 2.826981 1_656
Co1 Ir1 2.536231 1_565
Co1 Ir2 2.536231 1_655
Co1 Nb1 2.631978 1_555
Co1 Ir0 2.671001 1_665
Co1 Nb0 2.826980 1_665
Co2 Ir2 2.536231 1_556
Co2 Ir0 2.536231 1_565
Co2 Nb1 2.631979 1_555
Co2 Ir1 2.671001 1_566
Co2 Nb0 2.826981 1_566
Co3 Ir1 2.536231 1_565
Co3 Ir0 2.536231 1_565
Co3 Nb2 2.631978 1_555
Co3 Ir2 2.671001 1_555
Co3 Nb0 2.826981 1_565
Co4 Ir1 2.536231 1_556
Co4 Ir2 2.536231 1_556
Co4 Nb2 2.631978 1_555
Co4 Ir0 2.671001 1_555
Co4 Nb0 2.826980 1_556
Co5 Ir2 2.536231 1_655
Co5 Ir0 2.536231 1_655
Co5 Nb2 2.631979 1_555
Co5 Ir1 2.671001 1_555
Co5 Nb0 2.826981 1_655
B0 B5 1.911539 1_556
B0 Co1 2.032575 1_556
B0 Co4 2.032575 1_555
B0 Co0 2.057614 1_555
B0 Co5 2.057614 1_556
B0 Ir1 2.262428 1_556
B0 Ir2 2.262428 1_656
B0 Nb1 2.643734 1_555
B0 Nb2 2.643734 1_556
B1 B3 1.911539 1_455
B1 Co5 2.032575 1_455
B1 Co2 2.032575 1_555
B1 Co3 2.057614 1_555
B1 Co1 2.057614 1_455
B1 Ir0 2.262429 1_565
B1 Ir2 2.262429 1_555
B1 Nb1 2.643734 1_455
B1 Nb2 2.643734 1_555
B2 B4 1.911539 1_565
B2 Co0 2.032575 1_565
B2 Co3 2.032575 1_555
B2 Co2 2.057614 1_555
B2 Co4 2.057614 1_565
B2 Ir0 2.262429 1_565
B2 Ir1 2.262429 1_566
B2 Nb2 2.643734 1_565
B2 Nb1 2.643734 1_555
B3 Co2 2.032575 1_655
B3 Co5 2.032575 1_555
B3 Co0 2.057614 1_555
B3 Co4 2.057614 1_655
B3 Ir0 2.262429 1_655
B3 Ir2 2.262429 1_656
B3 Nb2 2.643734 1_655
B3 Nb1 2.643734 1_555
B4 Co3 2.032575 1_545
B4 Co0 2.032575 1_555
B4 Co5 2.057614 1_555
B4 Co1 2.057614 1_545
B4 Ir0 2.262429 1_655
B4 Ir1 2.262429 1_555
B4 Nb1 2.643734 1_545
B4 Nb2 2.643734 1_555
B5 Co4 2.032575 1_554
B5 Co1 2.032575 1_555
B5 Co3 2.057614 1_555
B5 Co2 2.057614 1_554
B5 Ir1 2.262428 1_565
B5 Ir2 2.262428 1_555
B5 Nb2 2.643734 1_555
B5 Nb1 2.643734 1_554
Ir0 Nb0 2.878450 1_556
Ir0 Nb0 2.878450 1_555
Ir0 Nb2 2.889290 1_555
Ir0 Nb1 2.889290 1_445
Ir1 Nb0 2.878450 1_655
Ir1 Nb0 2.878450 1_555
Ir1 Nb2 2.889290 1_555
Ir1 Nb1 2.889290 1_544
Ir2 Nb0 2.878450 1_555
Ir2 Nb0 2.878450 1_565
Ir2 Nb2 2.889290 1_555
Ir2 Nb1 2.889290 1_454
