# generated using pymatgen
data_Lu5VMoO12
_symmetry_space_group_name_H-M   'P 1'
_cell_length_a   6.53642577
_cell_length_b   6.53642650
_cell_length_c   7.24534484
_cell_angle_alpha   73.78358894
_cell_angle_beta   73.78358961
_cell_angle_gamma   50.94342983
_symmetry_Int_Tables_number   1
_chemical_formula_structural   Lu5VMoO12
_chemical_formula_sum   'Lu5 V1 Mo1 O12'
_cell_volume   228.58831736
_cell_formula_units_Z   1
loop_
 _symmetry_equiv_pos_site_id
 _symmetry_equiv_pos_as_xyz
  1  'x, y, z'
loop_
 _atom_site_type_symbol
 _atom_site_label
 _atom_site_symmetry_multiplicity
 _atom_site_fract_x
 _atom_site_fract_y
 _atom_site_fract_z
 _atom_site_occupancy
  Lu  Lu0  1  0.31487764  0.29759691  0.36132518  1
  Lu  Lu1  1  0.70240309  0.68512236  0.63867482  1
  Lu  Lu2  1  0.31853707  0.31180910  0.82046289  1
  Lu  Lu3  1  0.68819090  0.68146293  0.17953711  1
  Lu  Lu4  1  0.00431091  0.99568909  0.50000000  1
  V  V0  1  0.76896396  0.23103604  0.00000000  1
  Mo  Mo0  1  0.21078254  0.78921746  1.00000000  1
  O  O0  1  0.90552534  0.42080499  0.91696786  1
  O  O1  1  0.42722974  0.90223991  0.91681174  1
  O  O2  1  0.09776009  0.57277026  0.08318826  1
  O  O3  1  0.57919501  0.09447466  0.08303214  1
  O  O4  1  0.10363684  0.59018596  0.57364608  1
  O  O5  1  0.59751533  0.09209234  0.57560711  1
  O  O6  1  0.90790766  0.40248467  0.42439289  1
  O  O7  1  0.40981404  0.89636316  0.42635392  1
  O  O8  1  0.98707669  0.01175159  0.79757977  1
  O  O9  1  0.98824841  0.01292331  0.20242023  1
  O  O10  1  0.49439542  0.50636868  0.81283877  1
  O  O11  1  0.49363132  0.50560458  0.18716123  1
loop_
_geom_bond_atom_site_label_1
_geom_bond_atom_site_label_2
_geom_bond_distance
_geom_bond_site_symmetry_2
Lu0 O7 2.215294 1_545
Lu0 O5 2.222102 1_555
Lu0 O6 2.225517 1_455
Lu0 O11 2.241932 1_555
Lu0 O4 2.249384 1_555
Lu0 O3 2.339263 1_555
Lu0 O2 2.380416 1_555
Lu1 O4 2.215294 1_655
Lu1 O6 2.222103 1_555
Lu1 O5 2.225517 1_565
Lu1 O10 2.241932 1_555
Lu1 O7 2.249384 1_555
Lu1 O0 2.339263 1_555
Lu1 O1 2.380416 1_555
Lu2 O10 2.170048 1_555
Lu2 O4 2.201500 1_555
Lu2 O5 2.202507 1_555
Lu2 O1 2.235039 1_545
Lu2 O0 2.254914 1_455
Lu2 O3 2.406424 1_556
Lu2 O2 2.406828 1_556
Lu3 O11 2.170048 1_555
Lu3 O7 2.201500 1_555
Lu3 O6 2.202507 1_555
Lu3 O2 2.235038 1_655
Lu3 O3 2.254915 1_565
Lu3 O0 2.406424 1_554
Lu3 O1 2.406828 1_554
Lu4 O9 2.155972 1_465
Lu4 O8 2.155972 1_465
Lu4 O7 2.228589 1_555
Lu4 O4 2.228589 1_555
Lu4 O5 2.243920 1_465
Lu4 O6 2.243920 1_465
Mo0 O1 1.871586 1_555
Mo0 O2 1.871586 1_556
Mo0 O8 1.931534 1_465
Mo0 O9 1.931534 1_466
Mo0 O11 2.090637 1_556
Mo0 O10 2.090637 1_555
O0 V0 1.837357 1_556
O3 V0 1.837357 1_555
O8 V0 1.915483 1_556
O9 V0 1.915483 1_555
O10 V0 2.055400 1_556
O11 V0 2.055400 1_555
