# generated using pymatgen
data_BaCeO3
_symmetry_space_group_name_H-M   'P 1'
_cell_length_a   6.23030760
_cell_length_b   6.23557771
_cell_length_c   6.23557766
_cell_angle_alpha   60.70769916
_cell_angle_beta   60.02796597
_cell_angle_gamma   60.02795864
_symmetry_Int_Tables_number   1
_chemical_formula_structural   BaCeO3
_chemical_formula_sum   'Ba2 Ce2 O6'
_cell_volume   172.26711112
_cell_formula_units_Z   2
loop_
 _symmetry_equiv_pos_site_id
 _symmetry_equiv_pos_as_xyz
  1  'x, y, z'
loop_
 _atom_site_type_symbol
 _atom_site_label
 _atom_site_symmetry_multiplicity
 _atom_site_fract_x
 _atom_site_fract_y
 _atom_site_fract_z
 _atom_site_occupancy
  Ba  Ba0  1  0.75000000  0.25919167  0.74080833  1
  Ba  Ba1  1  0.25000000  0.74080833  0.25919167  1
  Ce  Ce0  1  0.00000000  0.50000000  0.00000000  1
  Ce  Ce1  1  0.50000000  -0.00000000  0.50000000  1
  O  O0  1  0.20468643  0.29531357  0.29531357  1
  O  O1  1  0.29531357  0.70468643  0.70468643  1
  O  O2  1  0.79531357  0.70468643  0.70468643  1
  O  O3  1  0.70468643  0.29531357  0.29531357  1
  O  O4  1  0.25000000  0.16951603  0.83048397  1
  O  O5  1  0.75000000  0.83048397  0.16951603  1
loop_
_geom_bond_atom_site_label_1
_geom_bond_atom_site_label_2
_geom_bond_distance
_geom_bond_site_symmetry_2
Ba0 O5 2.701784 1_546
Ba0 O3 2.820470 1_555
Ba0 O2 2.820470 1_555
Ba0 O1 2.820470 1_555
Ba0 O0 2.820470 1_655
Ba0 O4 3.166003 1_655
Ba0 O4 3.166004 1_555
Ba1 O4 2.701784 1_564
Ba1 O1 2.820470 1_555
Ba1 O0 2.820470 1_555
Ba1 O3 2.820470 1_555
Ba1 O2 2.820470 1_455
Ba1 O5 3.166003 1_455
Ba1 O5 3.166004 1_555
Ce0 O2 2.250882 1_454
Ce0 O0 2.250882 1_555
Ce0 O3 2.250882 1_455
Ce0 O1 2.250882 1_554
Ce0 O4 2.251558 1_554
Ce0 O5 2.251558 1_455
Ce1 O0 2.250882 1_555
Ce1 O2 2.250882 1_545
Ce1 O1 2.250882 1_545
Ce1 O3 2.250882 1_555
Ce1 O5 2.251558 1_545
Ce1 O4 2.251558 1_555
