# generated using pymatgen
data_Al2PbCl8
_symmetry_space_group_name_H-M   'P 1'
_cell_length_a   7.01307504
_cell_length_b   7.38605513
_cell_length_c   12.55684263
_cell_angle_alpha   84.56450938
_cell_angle_beta   90.00000000
_cell_angle_gamma   90.00000000
_symmetry_Int_Tables_number   1
_chemical_formula_structural   Al2PbCl8
_chemical_formula_sum   'Al4 Pb2 Cl16'
_cell_volume   647.50669746
_cell_formula_units_Z   2
loop_
 _symmetry_equiv_pos_site_id
 _symmetry_equiv_pos_as_xyz
  1  'x, y, z'
loop_
 _atom_site_type_symbol
 _atom_site_label
 _atom_site_symmetry_multiplicity
 _atom_site_fract_x
 _atom_site_fract_y
 _atom_site_fract_z
 _atom_site_occupancy
  Al  Al0  1  0.26465149  0.68323040  0.57488293  1
  Al  Al1  1  0.73534851  0.68323040  0.07488293  1
  Al  Al2  1  0.73534851  0.31676960  0.42511707  1
  Al  Al3  1  0.26465149  0.31676960  0.92511707  1
  Pb  Pb0  1  0.85211103  0.50000000  0.75000000  1
  Pb  Pb1  1  0.14788897  0.50000000  0.25000000  1
  Cl  Cl0  1  0.81527638  0.40288488  0.10970167  1
  Cl  Cl1  1  0.81527638  0.59711512  0.39029833  1
  Cl  Cl2  1  0.29957375  0.75254384  0.40618474  1
  Cl  Cl3  1  0.29957375  0.24745616  0.09381526  1
  Cl  Cl4  1  0.70042625  0.24745616  0.59381526  1
  Cl  Cl5  1  0.70042625  0.75254384  0.90618474  1
  Cl  Cl6  1  0.03379342  0.83405977  0.63695976  1
  Cl  Cl7  1  0.03379342  0.16594023  0.86304024  1
  Cl  Cl8  1  0.96620658  0.16594023  0.36304024  1
  Cl  Cl9  1  0.96620658  0.83405977  0.13695976  1
  Cl  Cl10  1  0.52930705  0.74293690  0.64880579  1
  Cl  Cl11  1  0.52930705  0.25706310  0.85119421  1
  Cl  Cl12  1  0.47069295  0.25706310  0.35119421  1
  Cl  Cl13  1  0.47069295  0.74293690  0.14880579  1
  Cl  Cl14  1  0.18472362  0.40288488  0.60970167  1
  Cl  Cl15  1  0.18472362  0.59711512  0.89029833  1
loop_
_geom_bond_atom_site_label_1
_geom_bond_atom_site_label_2
_geom_bond_distance
_geom_bond_site_symmetry_2
Al0 Cl10 2.139760 1_555
Al0 Cl2 2.145667 1_555
Al0 Cl14 2.149751 1_555
Al0 Cl6 2.152773 1_555
Al1 Cl13 2.139760 1_555
Al1 Cl5 2.145667 1_554
Al1 Cl0 2.149751 1_555
Al1 Cl9 2.152773 1_555
Al2 Cl12 2.139760 1_555
Al2 Cl4 2.145667 1_555
Al2 Cl1 2.149751 1_555
Al2 Cl8 2.152773 1_555
Al3 Cl11 2.139760 1_555
Al3 Cl3 2.145667 1_556
Al3 Cl15 2.149751 1_555
Al3 Cl7 2.152773 1_555
Cl0 Pb1 3.049379 1_655
Cl1 Pb1 3.049379 1_655
Cl2 Pb1 3.024943 1_555
Cl3 Pb1 3.024943 1_555
Cl4 Pb0 3.024943 1_555
Cl5 Pb0 3.024943 1_555
Cl6 Pb0 3.010435 1_455
Cl7 Pb0 3.010435 1_455
Cl8 Pb1 3.010435 1_655
Cl9 Pb1 3.010435 1_655
Cl10 Pb0 3.086642 1_555
Cl11 Pb0 3.086642 1_555
Cl12 Pb1 3.086642 1_555
Cl13 Pb1 3.086642 1_555
Cl14 Pb0 3.049379 1_455
Cl15 Pb0 3.049379 1_455
