# generated using pymatgen
data_Ti3Al2AuC
_symmetry_space_group_name_H-M   'P 1'
_cell_length_a   8.26857513
_cell_length_b   8.26724295
_cell_length_c   8.26875181
_cell_angle_alpha   60.00604556
_cell_angle_beta   59.99013288
_cell_angle_gamma   60.00605874
_symmetry_Int_Tables_number   1
_chemical_formula_structural   Ti3Al2AuC
_chemical_formula_sum   'Ti12 Al8 Au4 C4'
_cell_volume   399.69034432
_cell_formula_units_Z   4
loop_
 _symmetry_equiv_pos_site_id
 _symmetry_equiv_pos_as_xyz
  1  'x, y, z'
loop_
 _atom_site_type_symbol
 _atom_site_label
 _atom_site_symmetry_multiplicity
 _atom_site_fract_x
 _atom_site_fract_y
 _atom_site_fract_z
 _atom_site_occupancy
  Ti  Ti0  1  0.93178460  0.93181680  0.56825211  1
  Ti  Ti1  1  0.68174586  0.31819998  0.31821334  1
  Ti  Ti2  1  0.31820930  0.68184072  0.68176847  1
  Ti  Ti3  1  0.68174827  0.68184016  0.31820842  1
  Ti  Ti4  1  0.68182258  0.31815807  0.68183264  1
  Ti  Ti5  1  0.31819193  0.68181339  0.31817189  1
  Ti  Ti6  1  0.56817916  0.93181308  0.56818303  1
  Ti  Ti7  1  0.56825767  0.93180178  0.93178694  1
  Ti  Ti8  1  0.93178892  0.56816340  0.56823716  1
  Ti  Ti9  1  0.93180476  0.56820406  0.93182139  1
  Ti  Ti10  1  0.31822630  0.31818358  0.68175524  1
  Ti  Ti11  1  0.56823614  0.56816411  0.93179556  1
  Al  Al0  1  0.91412774  0.25762429  0.91413016  1
  Al  Al1  1  0.33586709  0.33588927  0.99236800  1
  Al  Al2  1  0.99237146  0.33588639  0.33586885  1
  Al  Al3  1  0.33586255  0.33588355  0.33586848  1
  Al  Al4  1  0.25762405  0.91411895  0.91413556  1
  Al  Al5  1  0.91413589  0.91412837  0.91412931  1
  Al  Al6  1  0.91413385  0.91411632  0.25763292  1
  Al  Al7  1  0.33586306  0.99239038  0.33587526  1
  Au  Au0  1  0.12499753  0.62500357  0.12498522  1
  Au  Au1  1  0.12500260  0.12499225  0.62500075  1
  Au  Au2  1  0.62499971  0.12499270  0.12499284  1
  Au  Au3  1  0.12501079  0.12499831  0.12499385  1
  C  C0  1  0.62500440  0.12498754  0.62499911  1
  C  C1  1  0.62499957  0.62500274  0.12499516  1
  C  C2  1  0.12500535  0.62499969  0.62499865  1
  C  C3  1  0.62499988  0.62498652  0.62499967  1
loop_
_geom_bond_atom_site_label_1
_geom_bond_atom_site_label_2
_geom_bond_distance
_geom_bond_site_symmetry_2
Al0 Au2 2.549028 1_556
Al0 Au1 2.549081 1_655
Al0 Au3 2.549711 1_656
Al1 Au0 2.548882 1_556
Al1 Au3 2.548939 1_556
Al1 Au2 2.549780 1_556
Al2 Au0 2.548929 1_655
Al2 Au3 2.549053 1_655
Al2 Au1 2.549833 1_655
Al3 Au1 2.549019 1_555
Al3 Au2 2.549108 1_555
Al3 Au0 2.549727 1_555
Al4 Au0 2.548919 1_556
Al4 Au3 2.548937 1_566
Al4 Au1 2.549808 1_565
Al5 Au1 2.548916 1_665
Al5 Au2 2.548928 1_566
Al5 Au0 2.549595 1_656
Al6 Au3 2.548989 1_665
Al6 Au0 2.549012 1_655
Al6 Au2 2.549861 1_565
Al7 Au1 2.548916 1_565
Al7 Au2 2.548951 1_565
Al7 Au3 2.549662 1_565
Au0 Ti9 3.061939 1_454
Au0 Ti2 3.062080 1_554
Au0 Ti11 3.062165 1_554
Au0 Ti5 3.062171 1_555
Au0 Ti3 3.062245 1_455
Au0 Ti8 3.062326 1_455
Au1 Ti0 3.061583 1_445
Au1 Ti2 3.061651 1_545
Au1 Ti10 3.061769 1_555
Au1 Ti8 3.061797 1_455
Au1 Ti6 3.062066 1_545
Au1 Ti4 3.062069 1_455
Au2 Ti7 3.061593 1_544
Au2 Ti3 3.061689 1_545
Au2 Ti11 3.061800 1_554
Au2 Ti1 3.061836 1_555
Au2 Ti4 3.062011 1_554
Au2 Ti6 3.062227 1_545
Au3 Ti5 3.062128 1_545
Au3 Ti10 3.062228 1_554
Au3 Ti7 3.062232 1_544
Au3 Ti9 3.062274 1_454
Au3 Ti0 3.062348 1_445
Au3 Ti1 3.062360 1_455
C0 Ti6 2.170978 1_545
C0 Ti4 2.171007 1_555
C0 Ti0 2.171044 1_545
C0 Ti10 2.171086 1_555
C0 Ti7 2.171157 1_545
C0 Ti1 2.171202 1_555
C1 Ti9 2.170952 1_554
C1 Ti5 2.170972 1_555
C1 Ti11 2.171228 1_554
C1 Ti7 2.171239 1_554
C1 Ti3 2.171245 1_555
C1 Ti1 2.171282 1_555
C2 Ti5 2.171131 1_555
C2 Ti9 2.171138 1_455
C2 Ti2 2.171287 1_555
C2 Ti8 2.171311 1_455
C2 Ti10 2.171356 1_555
C2 Ti0 2.171361 1_455
C3 Ti4 2.171057 1_555
C3 Ti2 2.171082 1_555
C3 Ti6 2.171082 1_555
C3 Ti8 2.171150 1_555
C3 Ti3 2.171186 1_555
C3 Ti11 2.171257 1_555
