# generated using pymatgen
data_TiZn2
_symmetry_space_group_name_H-M   'P 1'
_cell_length_a   5.02647857
_cell_length_b   5.02647822
_cell_length_c   8.11843830
_cell_angle_alpha   90.00000000
_cell_angle_beta   90.00000000
_cell_angle_gamma   120.00000225
_symmetry_Int_Tables_number   1
_chemical_formula_structural   TiZn2
_chemical_formula_sum   'Ti4 Zn8'
_cell_volume   177.63590646
_cell_formula_units_Z   4
loop_
 _symmetry_equiv_pos_site_id
 _symmetry_equiv_pos_as_xyz
  1  'x, y, z'
loop_
 _atom_site_type_symbol
 _atom_site_label
 _atom_site_symmetry_multiplicity
 _atom_site_fract_x
 _atom_site_fract_y
 _atom_site_fract_z
 _atom_site_occupancy
  Ti  Ti0  1  0.33333300  0.66666700  0.06542920  1
  Ti  Ti1  1  0.66666700  0.33333300  0.56540404  1
  Ti  Ti2  1  0.66666700  0.33333300  0.93457080  1
  Ti  Ti3  1  0.33333300  0.66666700  0.43459596  1
  Zn  Zn0  1  -0.00000000  -0.00000000  -0.00000000  1
  Zn  Zn1  1  -0.00000000  -0.00000000  0.50000000  1
  Zn  Zn2  1  0.82867753  0.65735406  0.24964945  1
  Zn  Zn3  1  0.17132247  0.82867753  0.75035055  1
  Zn  Zn4  1  0.65735406  0.82867753  0.75035055  1
  Zn  Zn5  1  0.34264594  0.17132247  0.24964945  1
  Zn  Zn6  1  0.82867753  0.17132247  0.24964945  1
  Zn  Zn7  1  0.17132247  0.34264594  0.75035055  1
loop_
_geom_bond_atom_site_label_1
_geom_bond_atom_site_label_2
_geom_bond_distance
_geom_bond_site_symmetry_2
Ti0 Zn7 2.921053 1_554
Ti0 Zn3 2.921053 1_554
Ti0 Zn4 2.921053 1_554
Ti0 Zn5 2.924851 1_565
Ti0 Zn2 2.924851 1_455
Ti0 Zn6 2.924855 1_565
Ti0 Zn6 2.924855 1_455
Ti0 Zn5 2.924859 1_555
Ti0 Zn2 2.924859 1_555
Ti0 Zn0 2.950249 1_565
Ti0 Zn0 2.950253 1_555
Ti0 Zn0 2.950253 1_665
Ti0 Ti3 2.997058 1_555
Ti0 Ti2 3.090377 1_564
Ti0 Ti2 3.090377 1_454
Ti0 Ti2 3.090386 1_554
Ti1 Zn2 2.925860 1_555
Ti1 Zn6 2.925860 1_555
Ti1 Zn5 2.925860 1_555
Ti1 Zn4 2.927870 1_545
Ti1 Zn7 2.927870 1_655
Ti1 Zn3 2.927874 1_545
Ti1 Zn3 2.927874 1_655
Ti1 Zn4 2.927878 1_555
Ti1 Zn7 2.927879 1_555
Ti1 Zn1 2.950212 1_655
Ti1 Zn1 2.950216 1_665
Ti1 Zn1 2.950216 1_555
Ti1 Ti2 2.997058 1_555
Ti1 Ti3 3.090237 1_545
Ti1 Ti3 3.090237 1_655
Ti1 Ti3 3.090245 1_555
Ti2 Zn2 2.921053 1_556
Ti2 Zn6 2.921053 1_556
Ti2 Zn5 2.921053 1_556
Ti2 Zn4 2.924851 1_545
Ti2 Zn7 2.924851 1_655
Ti2 Zn3 2.924855 1_545
Ti2 Zn3 2.924855 1_655
Ti2 Zn4 2.924859 1_555
Ti2 Zn7 2.924859 1_555
Ti2 Zn0 2.950249 1_656
Ti2 Zn0 2.950253 1_666
Ti2 Zn0 2.950253 1_556
Ti3 Zn7 2.925860 1_555
Ti3 Zn3 2.925860 1_555
Ti3 Zn4 2.925860 1_555
Ti3 Zn5 2.927870 1_565
Ti3 Zn2 2.927870 1_455
Ti3 Zn6 2.927874 1_565
Ti3 Zn6 2.927874 1_455
Ti3 Zn5 2.927878 1_555
Ti3 Zn2 2.927879 1_555
Ti3 Zn1 2.950212 1_565
Ti3 Zn1 2.950216 1_555
Ti3 Zn1 2.950216 1_665
Zn0 Zn3 2.516446 1_544
Zn0 Zn6 2.516446 1_455
Zn0 Zn7 2.516449 1_554
Zn0 Zn2 2.516449 1_445
Zn0 Zn4 2.516449 1_444
Zn0 Zn5 2.516449 1_555
Zn1 Zn6 2.521033 1_455
Zn1 Zn3 2.521033 1_545
Zn1 Zn2 2.521035 1_445
Zn1 Zn7 2.521035 1_555
Zn1 Zn5 2.521035 1_555
Zn1 Zn4 2.521035 1_445
Zn2 Zn6 2.443027 1_555
Zn2 Zn5 2.443027 1_555
Zn2 Zn6 2.583451 1_565
Zn2 Zn5 2.583451 1_665
Zn3 Zn7 2.443027 1_555
Zn3 Zn4 2.443027 1_555
Zn3 Zn7 2.583451 1_565
Zn3 Zn4 2.583451 1_455
Zn4 Zn7 2.443027 1_555
Zn4 Zn7 2.583451 1_665
Zn5 Zn6 2.443027 1_555
Zn5 Zn6 2.583451 1_455
