# generated using pymatgen
data_BaScSi4N7
_symmetry_space_group_name_H-M   'P 1'
_cell_length_a   5.95296895
_cell_length_b   5.95296884
_cell_length_c   9.68981842
_cell_angle_alpha   90.00000000
_cell_angle_beta   90.00000000
_cell_angle_gamma   119.99998970
_symmetry_Int_Tables_number   1
_chemical_formula_structural   BaScSi4N7
_chemical_formula_sum   'Ba2 Sc2 Si8 N14'
_cell_volume   297.38122242
_cell_formula_units_Z   2
loop_
 _symmetry_equiv_pos_site_id
 _symmetry_equiv_pos_as_xyz
  1  'x, y, z'
loop_
 _atom_site_type_symbol
 _atom_site_label
 _atom_site_symmetry_multiplicity
 _atom_site_fract_x
 _atom_site_fract_y
 _atom_site_fract_z
 _atom_site_occupancy
  Ba  Ba0  1  0.66666700  0.33333300  0.57650583  1
  Ba  Ba1  1  0.33333300  0.66666700  0.07650583  1
  Sc  Sc0  1  0.66666700  0.33333300  0.95064065  1
  Sc  Sc1  1  0.33333300  0.66666700  0.45064065  1
  Si  Si0  1  0.17395182  0.34790264  0.76073180  1
  Si  Si1  1  0.82604818  0.17395182  0.26073180  1
  Si  Si2  1  0.34790264  0.17395182  0.26073180  1
  Si  Si3  1  0.65209736  0.82604818  0.76073180  1
  Si  Si4  1  0.17395182  0.82604818  0.76073180  1
  Si  Si5  1  0.82604818  0.65209736  0.26073180  1
  Si  Si6  1  0.00000000  0.00000000  0.02562465  1
  Si  Si7  1  0.00000000  0.00000000  0.52562465  1
  N  N0  1  0.00000000  0.00000000  0.83370785  1
  N  N1  1  0.00000000  0.00000000  0.33370785  1
  N  N2  1  0.84351194  0.68702487  0.08418274  1
  N  N3  1  0.15648806  0.84351194  0.58418274  1
  N  N4  1  0.68702487  0.84351194  0.58418274  1
  N  N5  1  0.31297513  0.15648806  0.08418274  1
  N  N6  1  0.84351194  0.15648806  0.08418274  1
  N  N7  1  0.15648806  0.31297513  0.58418274  1
  N  N8  1  0.49124666  0.50875334  0.81719947  1
  N  N9  1  0.98249432  0.49124666  0.31719947  1
  N  N10  1  0.50875334  0.01750568  0.31719947  1
  N  N11  1  0.49124666  0.98249432  0.81719947  1
  N  N12  1  0.50875334  0.49124666  0.31719947  1
  N  N13  1  0.01750568  0.50875334  0.81719947  1
loop_
_geom_bond_atom_site_label_1
_geom_bond_atom_site_label_2
_geom_bond_distance
_geom_bond_site_symmetry_2
Ba0 N11 2.951439 1_545
Ba0 N13 2.951439 1_655
Ba0 N8 2.951445 1_555
Ba0 N4 2.979263 1_545
Ba0 N4 2.979263 1_555
Ba0 N7 2.979263 1_655
Ba0 N7 2.979263 1_555
Ba0 N3 2.979264 1_655
Ba0 N3 2.979264 1_545
Ba0 N12 2.994065 1_555
Ba0 N10 2.994066 1_555
Ba0 N9 2.994066 1_555
Ba1 N10 2.951439 1_565
Ba1 N9 2.951439 1_455
Ba1 N12 2.951445 1_555
Ba1 N5 2.979263 1_565
Ba1 N5 2.979263 1_555
Ba1 N2 2.979263 1_455
Ba1 N2 2.979263 1_555
Ba1 N6 2.979264 1_455
Ba1 N6 2.979264 1_565
Ba1 N8 2.994065 1_554
Ba1 N11 2.994066 1_554
Ba1 N13 2.994066 1_554
N0 Si6 1.859639 1_556
N0 Si0 1.927945 1_555
N0 Si3 1.927945 1_445
N0 Si4 1.927950 1_545
N1 Si7 1.859639 1_555
N1 Si5 1.927945 1_445
N1 Si2 1.927945 1_555
N1 Si1 1.927950 1_455
N2 Si6 1.710382 1_665
N2 Si5 1.720179 1_555
N2 Sc0 2.235919 1_554
N3 Si7 1.710387 1_565
N3 Si4 1.720179 1_555
N3 Sc1 2.235910 1_555
N4 Si7 1.710382 1_665
N4 Si3 1.720179 1_555
N4 Sc1 2.235919 1_555
N5 Si6 1.710382 1_555
N5 Si2 1.720179 1_555
N5 Sc0 2.235919 1_554
N6 Si6 1.710387 1_655
N6 Si1 1.720179 1_555
N6 Sc0 2.235910 1_554
N7 Si7 1.710382 1_555
N7 Si0 1.720179 1_555
N7 Sc1 2.235919 1_555
N8 Si3 1.724924 1_555
N8 Si0 1.724924 1_555
N8 Sc0 2.223379 1_555
N9 Si1 1.724924 1_555
N9 Si5 1.724934 1_555
N9 Sc1 2.223371 1_655
N10 Si1 1.724924 1_555
N10 Si2 1.724934 1_555
N10 Sc1 2.223371 1_545
N11 Si4 1.724924 1_555
N11 Si3 1.724934 1_555
N11 Sc0 2.223371 1_565
N12 Si2 1.724924 1_555
N12 Si5 1.724924 1_555
N12 Sc1 2.223379 1_555
N13 Si4 1.724924 1_555
N13 Si0 1.724934 1_555
N13 Sc0 2.223371 1_455
