# generated using pymatgen
data_Rb(HfSe2)4
_symmetry_space_group_name_H-M   'P 1'
_cell_length_a   9.71542759
_cell_length_b   9.71542790
_cell_length_c   9.71542750
_cell_angle_alpha   45.42770911
_cell_angle_beta   45.42770862
_cell_angle_gamma   45.42770959
_symmetry_Int_Tables_number   1
_chemical_formula_structural   Rb(HfSe2)4
_chemical_formula_sum   'Rb1 Hf4 Se8'
_cell_volume   423.94889002
_cell_formula_units_Z   1
loop_
 _symmetry_equiv_pos_site_id
 _symmetry_equiv_pos_as_xyz
  1  'x, y, z'
loop_
 _atom_site_type_symbol
 _atom_site_label
 _atom_site_symmetry_multiplicity
 _atom_site_fract_x
 _atom_site_fract_y
 _atom_site_fract_z
 _atom_site_occupancy
  Rb  Rb0  1  0.50000000  0.50000000  0.50000000  1
  Hf  Hf0  1  0.00000000  0.50000000  0.50000000  1
  Hf  Hf1  1  0.50000000  0.00000000  0.50000000  1
  Hf  Hf2  1  0.50000000  0.50000000  0.00000000  1
  Hf  Hf3  1  0.00000000  0.00000000  0.00000000  1
  Se  Se0  1  0.27147231  0.77388058  0.77388058  1
  Se  Se1  1  0.22611942  0.22611942  0.72852769  1
  Se  Se2  1  0.72852769  0.22611942  0.22611942  1
  Se  Se3  1  0.22611942  0.72852769  0.22611942  1
  Se  Se4  1  0.27330250  0.27330250  0.27330250  1
  Se  Se5  1  0.72669750  0.72669750  0.72669750  1
  Se  Se6  1  0.77388058  0.27147231  0.77388058  1
  Se  Se7  1  0.77388058  0.77388058  0.27147231  1
loop_
_geom_bond_atom_site_label_1
_geom_bond_atom_site_label_2
_geom_bond_distance
_geom_bond_site_symmetry_2
Rb0 Se6 3.527508 1_555
Rb0 Se3 3.527508 1_555
Rb0 Se0 3.527508 1_555
Rb0 Se2 3.527508 1_555
Rb0 Se7 3.527508 1_555
Rb0 Se1 3.527508 1_555
Hf0 Se5 2.672790 1_455
Hf0 Se4 2.672790 1_555
Hf0 Se1 2.680467 1_555
Hf0 Se7 2.680467 1_455
Hf0 Se3 2.680467 1_555
Hf0 Se6 2.680467 1_455
Hf1 Se5 2.672790 1_545
Hf1 Se4 2.672790 1_555
Hf1 Se2 2.680467 1_555
Hf1 Se0 2.680467 1_545
Hf1 Se1 2.680467 1_555
Hf1 Se7 2.680467 1_545
Hf2 Se5 2.672790 1_554
Hf2 Se4 2.672790 1_555
Hf2 Se2 2.680467 1_555
Hf2 Se0 2.680467 1_554
Hf2 Se3 2.680467 1_555
Hf2 Se6 2.680467 1_554
Hf3 Se3 2.667793 1_545
Hf3 Se6 2.667793 1_454
Hf3 Se1 2.667793 1_554
Hf3 Se7 2.667793 1_445
Hf3 Se2 2.667793 1_455
Hf3 Se0 2.667793 1_544
