# generated using pymatgen
data_TaNb3Ni2C
_symmetry_space_group_name_H-M   'P 1'
_cell_length_a   8.26735028
_cell_length_b   8.26735086
_cell_length_c   8.26735083
_cell_angle_alpha   60.00000408
_cell_angle_beta   60.00000178
_cell_angle_gamma   60.00000349
_symmetry_Int_Tables_number   1
_chemical_formula_structural   TaNb3Ni2C
_chemical_formula_sum   'Ta4 Nb12 Ni8 C4'
_cell_volume   399.56193536
_cell_formula_units_Z   4
loop_
 _symmetry_equiv_pos_site_id
 _symmetry_equiv_pos_as_xyz
  1  'x, y, z'
loop_
 _atom_site_type_symbol
 _atom_site_label
 _atom_site_symmetry_multiplicity
 _atom_site_fract_x
 _atom_site_fract_y
 _atom_site_fract_z
 _atom_site_occupancy
  Ta  Ta0  1  0.12500000  0.62500000  0.62500000  1
  Ta  Ta1  1  0.62500000  0.12500000  0.62500000  1
  Ta  Ta2  1  0.62500000  0.62500000  0.12500000  1
  Ta  Ta3  1  0.62500000  0.62500000  0.62500000  1
  Nb  Nb0  1  0.81583957  0.81583957  0.18416043  1
  Nb  Nb1  1  0.18416043  0.18416043  0.81583957  1
  Nb  Nb2  1  0.81583957  0.18416043  0.81583957  1
  Nb  Nb3  1  0.18416043  0.81583957  0.18416043  1
  Nb  Nb4  1  0.18416043  0.81583957  0.81583957  1
  Nb  Nb5  1  0.81583957  0.18416043  0.18416043  1
  Nb  Nb6  1  0.43416043  0.43416043  0.06583957  1
  Nb  Nb7  1  0.06583957  0.06583957  0.43416043  1
  Nb  Nb8  1  0.43416043  0.06583957  0.43416043  1
  Nb  Nb9  1  0.06583957  0.43416043  0.06583957  1
  Nb  Nb10  1  0.06583957  0.43416043  0.43416043  1
  Nb  Nb11  1  0.43416043  0.06583957  0.06583957  1
  Ni  Ni0  1  0.73486310  0.42171263  0.42171263  1
  Ni  Ni1  1  0.42171263  0.73486310  0.42171263  1
  Ni  Ni2  1  0.42171263  0.42171263  0.73486310  1
  Ni  Ni3  1  0.42171263  0.42171263  0.42171263  1
  Ni  Ni4  1  0.51513690  0.82828737  0.82828737  1
  Ni  Ni5  1  0.82828737  0.51513690  0.82828737  1
  Ni  Ni6  1  0.82828737  0.82828737  0.51513690  1
  Ni  Ni7  1  0.82828737  0.82828737  0.82828737  1
  C  C0  1  0.62500000  0.12500000  0.12500000  1
  C  C1  1  0.12500000  0.62500000  0.12500000  1
  C  C2  1  0.12500000  0.12500000  0.62500000  1
  C  C3  1  0.12500000  0.12500000  0.12500000  1
loop_
_geom_bond_atom_site_label_1
_geom_bond_atom_site_label_2
_geom_bond_distance
_geom_bond_site_symmetry_2
Nb0 Ni6 2.842937 1_555
Nb0 Ni7 2.842945 1_554
Nb0 Ni1 3.064249 1_555
Nb0 Ni0 3.064249 1_555
Nb1 Ni5 2.842941 1_455
Nb1 Ni4 2.842941 1_545
Nb1 Ni3 3.064253 1_555
Nb1 Ni2 3.064256 1_555
Nb2 Ni5 2.842937 1_555
Nb2 Ni7 2.842945 1_545
Nb2 Ni2 3.064249 1_555
Nb2 Ni0 3.064249 1_555
Nb3 Ni6 2.842941 1_455
Nb3 Ni4 2.842941 1_554
Nb3 Ni3 3.064253 1_555
Nb3 Ni1 3.064256 1_555
Nb4 Ni4 2.842936 1_555
Nb4 Ni7 2.842945 1_455
Nb4 Ni1 3.064249 1_555
Nb4 Ni2 3.064249 1_555
Nb5 Ni5 2.842941 1_554
Nb5 Ni6 2.842941 1_545
Nb5 Ni3 3.064253 1_555
Nb5 Ni0 3.064256 1_555
Nb6 Ni2 2.842937 1_554
Nb6 Ni3 2.842945 1_555
Nb6 Ni5 3.064249 1_554
Nb6 Ni4 3.064249 1_554
Nb7 Ni1 2.842941 1_545
Nb7 Ni0 2.842941 1_455
Nb7 Ni7 3.064253 1_445
Nb7 Ni6 3.064256 1_445
Nb8 Ni1 2.842937 1_545
Nb8 Ni3 2.842945 1_555
Nb8 Ni6 3.064249 1_545
Nb8 Ni4 3.064249 1_545
Nb9 Ni2 2.842941 1_554
Nb9 Ni0 2.842941 1_455
Nb9 Ni7 3.064253 1_454
Nb9 Ni5 3.064256 1_454
Nb10 Ni0 2.842936 1_455
Nb10 Ni3 2.842945 1_555
Nb10 Ni5 3.064249 1_455
Nb10 Ni6 3.064249 1_455
Nb11 Ni1 2.842941 1_545
Nb11 Ni2 2.842941 1_554
Nb11 Ni7 3.064253 1_544
Nb11 Ni4 3.064256 1_544
Ni0 Ta3 2.499142 1_555
Ni0 Ta1 2.499149 1_555
Ni0 Ta2 2.499149 1_555
Ni0 Ni3 2.588925 1_555
Ni0 Ni2 2.588925 1_555
Ni0 Ni1 2.588925 1_555
Ni1 Ta3 2.499142 1_555
Ni1 Ta0 2.499149 1_555
Ni1 Ta2 2.499149 1_555
Ni1 Ni3 2.588925 1_555
Ni1 Ni2 2.588925 1_555
Ni2 Ta3 2.499142 1_555
Ni2 Ta0 2.499149 1_555
Ni2 Ta1 2.499149 1_555
Ni2 Ni3 2.588925 1_555
Ni3 Ta0 2.499145 1_555
Ni3 Ta2 2.499145 1_555
Ni3 Ta1 2.499145 1_555
Ni4 Ta3 2.499142 1_555
Ni4 Ta1 2.499149 1_565
Ni4 Ta2 2.499149 1_556
Ni4 Ni7 2.588925 1_555
Ni4 Ni6 2.588925 1_555
Ni4 Ni5 2.588925 1_555
Ni5 Ta3 2.499142 1_555
Ni5 Ta0 2.499149 1_655
Ni5 Ta2 2.499149 1_556
Ni5 Ni7 2.588925 1_555
Ni5 Ni6 2.588925 1_555
Ni6 Ta3 2.499142 1_555
Ni6 Ta0 2.499149 1_655
Ni6 Ta1 2.499149 1_565
Ni6 Ni7 2.588925 1_555
Ni7 Ta0 2.499145 1_655
Ni7 Ta2 2.499145 1_556
Ni7 Ta1 2.499145 1_565
C0 Nb5 2.179508 1_555
C0 Nb11 2.179508 1_555
C0 Nb8 2.179508 1_555
C0 Nb2 2.179508 1_554
C0 Nb6 2.179508 1_555
C0 Nb0 2.179508 1_545
C1 Nb3 2.179508 1_555
C1 Nb9 2.179508 1_555
C1 Nb6 2.179508 1_555
C1 Nb0 2.179508 1_455
C1 Nb10 2.179508 1_555
C1 Nb4 2.179508 1_554
C2 Nb8 2.179508 1_555
C2 Nb2 2.179508 1_455
C2 Nb1 2.179508 1_555
C2 Nb7 2.179508 1_555
C2 Nb10 2.179508 1_555
C2 Nb4 2.179508 1_545
C3 Nb11 2.179508 1_555
C3 Nb5 2.179508 1_455
C3 Nb7 2.179508 1_555
C3 Nb1 2.179508 1_554
C3 Nb9 2.179508 1_555
C3 Nb3 2.179508 1_545
