# generated using pymatgen
data_K4HfTeI12
_symmetry_space_group_name_H-M   'P 1'
_cell_length_a   8.43387123
_cell_length_b   8.04420116
_cell_length_c   13.91733219
_cell_angle_alpha   55.01307663
_cell_angle_beta   90.10423373
_cell_angle_gamma   89.92336272
_symmetry_Int_Tables_number   1
_chemical_formula_structural   K4HfTeI12
_chemical_formula_sum   'K4 Hf1 Te1 I12'
_cell_volume   773.56575475
_cell_formula_units_Z   1
loop_
 _symmetry_equiv_pos_site_id
 _symmetry_equiv_pos_as_xyz
  1  'x, y, z'
loop_
 _atom_site_type_symbol
 _atom_site_label
 _atom_site_symmetry_multiplicity
 _atom_site_fract_x
 _atom_site_fract_y
 _atom_site_fract_z
 _atom_site_occupancy
  K  K0  1  0.58463177  0.72109201  0.25113318  1
  K  K1  1  0.08323534  0.27337002  0.24638422  1
  K  K2  1  0.41536823  0.27890799  0.74886682  1
  K  K3  1  0.91676466  0.72662998  0.75361578  1
  Hf  Hf0  1  0.00000000  0.00000000  0.00000000  1
  Te  Te0  1  0.50000000  0.00000000  0.50000000  1
  I  I0  1  0.99306178  0.84040217  0.24273425  1
  I  I1  1  0.49228736  0.15916779  0.24851024  1
  I  I2  1  0.00693822  0.15959783  0.75726575  1
  I  I3  1  0.50771264  0.84083221  0.75148976  1
  I  I4  1  0.69633357  0.65025098  0.55071191  1
  I  I5  1  0.18465599  0.33496911  0.95594976  1
  I  I6  1  0.30366643  0.34974902  0.44928809  1
  I  I7  1  0.81534401  0.66503089  0.04405024  1
  I  I8  1  0.71435094  0.22065924  0.96256644  1
  I  I9  1  0.20469814  0.76786340  0.54154674  1
  I  I10  1  0.28564906  0.77934076  0.03743356  1
  I  I11  1  0.79530186  0.23213660  0.45845326  1
loop_
_geom_bond_atom_site_label_1
_geom_bond_atom_site_label_2
_geom_bond_distance
_geom_bond_site_symmetry_2
Hf0 I0 2.844510 1_445
Hf0 I2 2.844510 1_554
Hf0 I10 2.854741 1_545
Hf0 I8 2.854741 1_454
Hf0 I5 2.860451 1_554
Hf0 I7 2.860451 1_445
I0 K0 3.561185 1_555
I0 K1 3.594614 1_665
I1 Te0 2.958687 1_555
I1 K1 3.564626 1_555
I1 K0 3.587658 1_545
I2 K2 3.561185 1_555
I2 K3 3.594614 1_445
I3 Te0 2.958687 1_565
I3 K3 3.564626 1_555
I3 K2 3.587658 1_565
I4 Te0 2.976851 1_565
I4 K2 3.569207 1_555
I4 K3 3.712363 1_555
I4 K0 3.981861 1_555
I5 K3 3.569906 1_455
I5 K2 3.715400 1_555
I5 K1 3.877159 1_556
I6 Te0 2.976851 1_555
I6 K0 3.569207 1_555
I6 K1 3.712363 1_555
I6 K2 3.981861 1_555
I7 K1 3.569906 1_655
I7 K0 3.715400 1_555
I7 K3 3.877159 1_554
I8 K2 3.714135 1_555
I8 K3 3.794761 1_555
I8 K0 3.872322 1_546
I9 Te0 2.967083 1_565
I9 K3 3.691025 1_455
I9 K2 3.728363 1_555
I9 K1 3.908591 1_565
I10 K0 3.714135 1_555
I10 K1 3.794761 1_555
I10 K2 3.872322 1_564
I11 Te0 2.967083 1_555
I11 K1 3.691025 1_655
I11 K0 3.728363 1_555
I11 K3 3.908591 1_545
