# generated using pymatgen
data_Ba10RePN10
_symmetry_space_group_name_H-M   'P 1'
_cell_length_a   8.00970296
_cell_length_b   8.00970282
_cell_length_c   9.43817278
_cell_angle_alpha   76.21076075
_cell_angle_beta   76.21076024
_cell_angle_gamma   95.82309115
_symmetry_Int_Tables_number   1
_chemical_formula_structural   Ba10RePN10
_chemical_formula_sum   'Ba10 Re1 P1 N10'
_cell_volume   563.01159281
_cell_formula_units_Z   1
loop_
 _symmetry_equiv_pos_site_id
 _symmetry_equiv_pos_as_xyz
  1  'x, y, z'
loop_
 _atom_site_type_symbol
 _atom_site_label
 _atom_site_symmetry_multiplicity
 _atom_site_fract_x
 _atom_site_fract_y
 _atom_site_fract_z
 _atom_site_occupancy
  Ba  Ba0  1  0.38412239  0.40125515  0.37800229  1
  Ba  Ba1  1  0.59874485  0.61587761  0.62199771  1
  Ba  Ba2  1  0.66916845  0.67032381  0.00645212  1
  Ba  Ba3  1  0.32967619  0.33083155  0.99354788  1
  Ba  Ba4  1  0.93450337  0.91339465  0.20769532  1
  Ba  Ba5  1  0.08660535  0.06549663  0.79230468  1
  Ba  Ba6  1  0.55165872  0.08426008  0.75243203  1
  Ba  Ba7  1  0.91573992  0.44834128  0.24756797  1
  Ba  Ba8  1  0.42587643  0.89623184  0.24434693  1
  Ba  Ba9  1  0.10376816  0.57412357  0.75565307  1
  Re  Re0  1  0.75776043  0.24223957  0.00000000  1
  P  P0  1  0.24237592  0.75762408  0.00000000  1
  N  N0  1  0.65324196  0.65194228  0.31045108  1
  N  N1  1  0.34805772  0.34675804  0.68954892  1
  N  N2  1  0.71780929  0.01894290  0.98637492  1
  N  N3  1  0.98105710  0.28219071  0.01362508  1
  N  N4  1  0.27946854  0.96651463  0.00504003  1
  N  N5  1  0.03348537  0.72053146  0.99495997  1
  N  N6  1  0.37819929  0.72805038  0.84624323  1
  N  N7  1  0.27194962  0.62180071  0.15375577  1
  N  N8  1  0.60440401  0.26767609  0.16790198  1
  N  N9  1  0.73232391  0.39559599  0.83209702  1
loop_
_geom_bond_atom_site_label_1
_geom_bond_atom_site_label_2
_geom_bond_distance
_geom_bond_site_symmetry_2
Ba0 N0 2.634593 1_555
Ba0 N7 2.802416 1_555
Ba0 N1 2.806736 1_555
Ba0 N8 2.813638 1_555
Ba1 N1 2.634593 1_555
Ba1 N6 2.802409 1_555
Ba1 N0 2.806736 1_555
Ba1 N9 2.813631 1_555
Ba2 N2 2.734347 1_564
Ba2 N0 2.809015 1_555
Ba2 N5 2.877295 1_654
Ba2 N9 3.059617 1_554
Ba2 N6 3.081727 1_554
Ba2 N7 3.096681 1_555
Ba2 N8 3.151707 1_555
Ba3 N3 2.734347 1_456
Ba3 N1 2.809015 1_555
Ba3 N4 2.877295 1_546
Ba3 N8 3.059611 1_556
Ba3 N7 3.081721 1_556
Ba3 N6 3.096683 1_555
Ba3 N9 3.151709 1_555
Ba4 N0 2.726585 1_555
Ba4 N5 2.830995 1_654
Ba4 N4 2.885855 1_655
Ba4 N3 3.015210 1_565
Ba4 N2 3.045451 1_564
Ba5 N1 2.726585 1_555
Ba5 N4 2.830995 1_546
Ba5 N5 2.885855 1_545
Ba5 N2 3.015210 1_455
Ba5 N3 3.045451 1_456
Ba6 N4 2.712905 1_546
Ba6 N2 2.812718 1_555
Ba6 N1 2.827475 1_555
Ba6 N6 2.873956 1_545
Ba6 N9 3.091634 1_555
Ba7 N5 2.712905 1_654
Ba7 N3 2.812718 1_555
Ba7 N0 2.827475 1_555
Ba7 N7 2.873956 1_655
Ba7 N8 3.091639 1_555
Ba8 N4 2.753890 1_555
Ba8 N7 2.816263 1_555
Ba8 N2 2.835617 1_564
Ba8 N0 2.866555 1_555
Ba8 N8 3.006415 1_565
Ba9 N5 2.753890 1_555
Ba9 N6 2.816257 1_555
Ba9 N3 2.835617 1_456
Ba9 N1 2.866555 1_555
Ba9 N9 3.006416 1_455
N2 Re0 1.825085 1_556
N3 Re0 1.825085 1_555
N4 P0 1.683383 1_555
N5 P0 1.683383 1_556
N6 P0 1.676050 1_556
N7 P0 1.676043 1_555
N8 Re0 1.827112 1_555
N9 Re0 1.827119 1_556
