# generated using pymatgen
data_KRb2CrO4
_symmetry_space_group_name_H-M   'P 1'
_cell_length_a   6.19876493
_cell_length_b   6.57300816
_cell_length_c   7.79788404
_cell_angle_alpha   89.10611410
_cell_angle_beta   90.00000000
_cell_angle_gamma   90.00000000
_symmetry_Int_Tables_number   1
_chemical_formula_structural   KRb2CrO4
_chemical_formula_sum   'K2 Rb4 Cr2 O8'
_cell_volume   317.68247366
_cell_formula_units_Z   2
loop_
 _symmetry_equiv_pos_site_id
 _symmetry_equiv_pos_as_xyz
  1  'x, y, z'
loop_
 _atom_site_type_symbol
 _atom_site_label
 _atom_site_symmetry_multiplicity
 _atom_site_fract_x
 _atom_site_fract_y
 _atom_site_fract_z
 _atom_site_occupancy
  K  K0  1  0.75000000  0.60219695  0.04283993  1
  K  K1  1  0.25000000  0.39780305  0.95716007  1
  Rb  Rb0  1  0.75000000  0.07264442  0.83401379  1
  Rb  Rb1  1  0.25000000  0.92735558  0.16598621  1
  Rb  Rb2  1  0.25000000  0.32291638  0.48775623  1
  Rb  Rb3  1  0.75000000  0.67708362  0.51224377  1
  Cr  Cr0  1  0.25000000  0.81989997  0.72055140  1
  Cr  Cr1  1  0.75000000  0.18010003  0.27944860  1
  O  O0  1  0.52509179  0.29562074  0.19301190  1
  O  O1  1  0.02509179  0.70437926  0.80698710  1
  O  O2  1  0.47490821  0.70437926  0.80698710  1
  O  O3  1  0.97490821  0.29562074  0.19301190  1
  O  O4  1  0.75000000  0.21705275  0.49371476  1
  O  O5  1  0.75000000  0.93425193  0.21310755  1
  O  O6  1  0.25000000  0.78294725  0.50628524  1
  O  O7  1  0.25000000  0.06574807  0.78689245  1
loop_
_geom_bond_atom_site_label_1
_geom_bond_atom_site_label_2
_geom_bond_distance
_geom_bond_site_symmetry_2
K0 O5 2.572357 1_555
K0 O1 2.588988 1_654
K0 O2 2.588988 1_554
K0 O3 2.702235 1_555
K0 O0 2.702235 1_555
K1 O7 2.572357 1_555
K1 O0 2.588982 1_556
K1 O3 2.588982 1_456
K1 O2 2.702238 1_555
K1 O1 2.702238 1_555
Cr0 O6 1.692131 1_555
Cr0 O7 1.704416 1_565
Cr0 O2 1.720045 1_555
Cr0 O1 1.720045 1_555
Cr1 O4 1.692131 1_555
Cr1 O5 1.704416 1_545
Cr1 O3 1.720048 1_555
Cr1 O0 1.720048 1_555
O0 Rb2 2.869743 1_555
O0 Rb1 2.971109 1_545
O1 Rb3 2.869736 1_455
O1 Rb0 2.971110 1_465
O2 Rb3 2.869736 1_555
O2 Rb0 2.971110 1_565
O3 Rb2 2.869743 1_655
O3 Rb1 2.971109 1_645
O4 Rb0 2.804290 1_555
O4 Rb3 3.029487 1_555
O4 Rb2 3.176715 1_555
O4 Rb2 3.176715 1_655
O5 Rb3 2.859280 1_555
O5 Rb0 3.079329 1_564
O5 Rb1 3.121500 1_655
O5 Rb1 3.121500 1_555
O6 Rb1 2.804290 1_555
O6 Rb2 3.029487 1_555
O6 Rb3 3.176715 1_455
O6 Rb3 3.176715 1_555
O7 Rb2 2.859280 1_555
O7 Rb1 3.079329 1_546
O7 Rb0 3.121500 1_555
O7 Rb0 3.121500 1_455
