# generated using pymatgen
data_Cs2NaLuBi2
_symmetry_space_group_name_H-M   'P 1'
_cell_length_a   10.40566495
_cell_length_b   10.40566543
_cell_length_c   10.40566554
_cell_angle_alpha   136.72273714
_cell_angle_beta   62.53219066
_cell_angle_gamma   137.15579105
_symmetry_Int_Tables_number   1
_chemical_formula_structural   Cs2NaLuBi2
_chemical_formula_sum   'Cs4 Na2 Lu2 Bi4'
_cell_volume   518.82871561
_cell_formula_units_Z   2
loop_
 _symmetry_equiv_pos_site_id
 _symmetry_equiv_pos_as_xyz
  1  'x, y, z'
loop_
 _atom_site_type_symbol
 _atom_site_label
 _atom_site_symmetry_multiplicity
 _atom_site_fract_x
 _atom_site_fract_y
 _atom_site_fract_z
 _atom_site_occupancy
  Cs  Cs0  1  0.32267471  0.77999765  0.10267135  1
  Cs  Cs1  1  0.17732629  0.27999765  0.45732394  1
  Cs  Cs2  1  0.82267371  0.72000235  0.54267606  1
  Cs  Cs3  1  0.67732629  0.22000235  0.89732965  1
  Na  Na0  1  0.74999900  0.24999900  0.50000000  1
  Na  Na1  1  0.24999900  0.74999900  0.50000000  1
  Lu  Lu0  1  0.24999900  0.24999900  0.00000000  1
  Lu  Lu1  1  0.75000000  0.75000000  0.00000000  1
  Bi  Bi0  1  0.90629110  0.22280734  0.12909944  1
  Bi  Bi1  1  0.59370890  0.72280734  0.31651623  1
  Bi  Bi2  1  0.40629110  0.27719266  0.68348377  1
  Bi  Bi3  1  0.09370890  0.77719266  0.87089956  1
loop_
_geom_bond_atom_site_label_1
_geom_bond_atom_site_label_2
_geom_bond_distance
_geom_bond_site_symmetry_2
Cs0 Na0 4.051149 1_565
Cs0 Na1 4.051160 1_555
Cs0 Lu1 4.263622 1_555
Cs0 Lu0 4.263629 1_555
Cs0 Cs3 4.619633 1_564
Cs0 Cs3 4.619645 1_454
Cs0 Cs1 4.626931 1_554
Cs0 Cs1 4.626938 1_565
Cs1 Na1 4.051157 1_555
Cs1 Na0 4.051164 1_455
Cs1 Lu0 4.263629 1_555
Cs1 Lu1 4.263632 1_445
Cs1 Cs2 4.619640 1_555
Cs1 Cs2 4.619640 1_445
Cs2 Na1 4.051156 1_655
Cs2 Na0 4.051164 1_555
Cs2 Lu0 4.263629 1_666
Cs2 Lu1 4.263633 1_556
Cs2 Cs3 4.626921 1_554
Cs2 Cs3 4.626928 1_565
Cs3 Na0 4.051167 1_555
Cs3 Na1 4.051170 1_545
Cs3 Lu0 4.263639 1_556
Cs3 Lu1 4.263639 1_556
Na0 Na1 3.800523 1_545
Na0 Na1 3.800523 1_655
Lu0 Na1 3.837103 1_544
Lu0 Na1 3.837103 1_555
Lu1 Na0 3.837103 1_554
Lu1 Na0 3.837103 1_565
Bi0 Lu0 3.051788 1_655
Bi0 Lu1 3.051788 1_545
Bi0 Na1 3.303762 1_655
Bi0 Na0 3.303767 1_555
Bi0 Cs3 4.073071 1_554
Bi0 Cs2 4.095259 1_555
Bi0 Cs0 4.104760 1_545
Bi0 Cs0 4.104775 1_655
Bi0 Cs2 4.135408 1_544
Bi1 Lu1 3.051793 1_555
Bi1 Lu0 3.051797 1_555
Bi1 Na0 3.303768 1_565
Bi1 Na1 3.303776 1_555
Bi1 Cs2 4.073071 1_555
Bi1 Cs3 4.095267 1_565
Bi1 Cs1 4.104768 1_665
Bi1 Cs1 4.104768 1_555
Bi1 Cs3 4.135401 1_554
Bi2 Lu1 3.051792 1_556
Bi2 Lu0 3.051798 1_556
Bi2 Na0 3.303768 1_555
Bi2 Na1 3.303776 1_545
Bi2 Cs1 4.073071 1_555
Bi2 Cs0 4.095260 1_545
Bi2 Cs2 4.104768 1_445
Bi2 Cs2 4.104768 1_555
Bi2 Cs0 4.135394 1_556
Bi3 Lu0 3.051778 1_566
Bi3 Lu1 3.051792 1_456
Bi3 Na1 3.303749 1_555
Bi3 Na0 3.303766 1_455
Bi3 Cs0 4.073097 1_556
Bi3 Cs1 4.095259 1_555
Bi3 Cs3 4.104766 1_565
Bi3 Cs3 4.104787 1_455
Bi3 Cs1 4.135415 1_566
