# generated using pymatgen
data_Hf3Ta3Al16Ir7
_symmetry_space_group_name_H-M   'P 1'
_cell_length_a   8.56739597
_cell_length_b   8.58745022
_cell_length_c   8.61188945
_cell_angle_alpha   59.75166163
_cell_angle_beta   59.98245228
_cell_angle_gamma   60.26589573
_symmetry_Int_Tables_number   1
_chemical_formula_structural   Hf3Ta3Al16Ir7
_chemical_formula_sum   'Hf3 Ta3 Al16 Ir7'
_cell_volume   448.00100621
_cell_formula_units_Z   1
loop_
 _symmetry_equiv_pos_site_id
 _symmetry_equiv_pos_as_xyz
  1  'x, y, z'
loop_
 _atom_site_type_symbol
 _atom_site_label
 _atom_site_symmetry_multiplicity
 _atom_site_fract_x
 _atom_site_fract_y
 _atom_site_fract_z
 _atom_site_occupancy
  Hf  Hf0  1  0.68312552  0.31687448  0.68312552  1
  Hf  Hf1  1  0.31560548  0.31545820  0.68454180  1
  Hf  Hf2  1  0.68454180  0.68439452  0.31560548  1
  Ta  Ta0  1  0.67528000  0.32472000  0.32256615  1
  Ta  Ta1  1  0.32256615  0.67743385  0.67528000  1
  Ta  Ta2  1  0.32991800  0.67008200  0.32991800  1
  Al  Al0  1  0.33694409  0.33858935  0.33618147  1
  Al  Al1  1  0.66011078  0.66416486  0.66305633  1
  Al  Al2  1  0.33583514  0.33988922  0.98733197  1
  Al  Al3  1  0.33618147  0.98828409  0.33694409  1
  Al  Al4  1  0.66141065  0.66305591  0.01171591  1
  Al  Al5  1  0.66305633  0.01266803  0.66011078  1
  Al  Al6  1  0.98733197  0.33694367  0.33583514  1
  Al  Al7  1  0.01171591  0.66381853  0.66141065  1
  Al  Al8  1  0.11850363  0.11817385  0.12098530  1
  Al  Al9  1  0.88215170  0.87885820  0.87854581  1
  Al  Al10  1  0.12114180  0.11784830  0.63955572  1
  Al  Al11  1  0.12098530  0.64233622  0.11850363  1
  Al  Al12  1  0.88182615  0.88149637  0.35766378  1
  Al  Al13  1  0.87854581  0.36044428  0.88215170  1
  Al  Al14  1  0.63955572  0.12145419  0.12114180  1
  Al  Al15  1  0.35766378  0.87901470  0.88182615  1
  Ir  Ir0  1  0.49917555  0.99911561  0.00088439  1
  Ir  Ir1  1  0.00088439  0.50082445  0.49917555  1
  Ir  Ir2  1  0.99865536  0.50134464  0.99865536  1
  Ir  Ir3  1  0.49865536  0.00134464  0.49865536  1
  Ir  Ir4  1  0.00198726  0.99801274  0.49856313  1
  Ir  Ir5  1  0.49856313  0.50143687  0.00198726  1
  Ir  Ir6  1  0.99807878  0.00192122  0.99807878  1
loop_
_geom_bond_atom_site_label_1
_geom_bond_atom_site_label_2
_geom_bond_distance
_geom_bond_site_symmetry_2
Hf0 Ta0 3.105519 1_555
Hf0 Ta1 3.105519 1_555
Hf0 Ir0 3.137806 1_546
Hf0 Ir1 3.137806 1_655
Hf0 Hf2 3.148644 1_555
Hf0 Hf1 3.148644 1_555
Hf0 Ir5 3.179200 1_556
Hf0 Ir4 3.179200 1_645
Hf1 Ta2 3.039974 1_555
Hf1 Ta1 3.098660 1_555
Hf1 Ta0 3.098660 1_555
Hf1 Ir1 3.137097 1_555
Hf1 Ir0 3.141276 1_546
Hf1 Ir3 3.152887 1_555
Hf1 Ir2 3.152887 1_455
Hf2 Ta2 3.039974 1_555
Hf2 Ta0 3.098660 1_555
Hf2 Ta1 3.098660 1_555
Hf2 Ir0 3.137097 1_555
Hf2 Ir1 3.141276 1_655
Hf2 Ir3 3.152887 1_565
Hf2 Ir2 3.152887 1_554
Ta0 Ta2 2.975187 1_555
Ta1 Ta2 2.975187 1_555
Al0 Ir5 2.456554 1_555
Al0 Ir3 2.478181 1_555
Al0 Ir1 2.479640 1_555
Al0 Al10 2.737031 1_555
Al0 Al11 2.738218 1_555
Al0 Al14 2.740045 1_555
Al0 Ta0 2.785983 1_555
Al0 Ta2 2.790819 1_555
Al0 Hf1 2.821349 1_555
Al0 Al2 3.003401 1_554
Al0 Al6 3.003797 1_455
Al0 Al3 3.008168 1_545
Al1 Ir5 2.480952 1_556
Al1 Ir3 2.481559 1_565
Al1 Ir1 2.508530 1_655
Al1 Al15 2.746493 1_555
Al1 Al12 2.753402 1_555
Al1 Al13 2.756457 1_555
Al1 Ta1 2.787052 1_555
Al1 Hf0 2.809727 1_555
Al1 Hf2 2.813011 1_555
Al1 Al5 2.992598 1_565
Al1 Al4 3.003410 1_556
Al1 Al7 3.003805 1_655
Al2 Ir5 2.480952 1_556
Al2 Ir2 2.481559 1_455
Al2 Ir0 2.508530 1_546
Al2 Al8 2.753405 1_556
Al2 Ta1 2.787052 1_555
Al2 Hf0 2.809727 1_555
Al2 Hf1 2.813011 1_555
Al2 Al6 2.992599 1_456
Al2 Al3 3.003801 1_546
Al3 Ir4 2.456552 1_555
Al3 Ir3 2.478186 1_565
Al3 Ir0 2.479637 1_555
Al3 Al8 2.738217 1_565
Al3 Ta1 2.785979 1_555
Al3 Ta2 2.790810 1_555
Al3 Hf2 2.821345 1_555
Al3 Al6 3.003406 1_465
Al4 Ir5 2.456559 1_555
Al4 Ir2 2.478179 1_554
Al4 Ir0 2.479637 1_555
Al4 Al9 2.737028 1_554
Al4 Ta0 2.785979 1_555
Al4 Ta2 2.790815 1_555
Al4 Hf2 2.821340 1_555
Al4 Al5 3.003801 1_564
Al4 Al7 3.008168 1_654
Al5 Ir4 2.480952 1_645
Al5 Ir3 2.481559 1_555
Al5 Ir0 2.508529 1_546
Al5 Al9 2.756457 1_545
Al5 Ta0 2.787052 1_555
Al5 Hf0 2.809727 1_555
Al5 Hf1 2.813011 1_555
Al5 Al7 3.003406 1_645
Al6 Ir4 2.480952 1_645
Al6 Ir2 2.481559 1_554
Al6 Ir1 2.508529 1_655
Al6 Al8 2.746495 1_655
Al6 Ta0 2.787052 1_555
Al6 Hf0 2.809727 1_555
Al6 Hf2 2.813011 1_555
Al7 Ir4 2.456551 1_555
Al7 Ir2 2.478179 1_455
Al7 Ir1 2.479644 1_555
Al7 Al9 2.740042 1_455
Al7 Ta1 2.785975 1_555
Al7 Ta2 2.790815 1_555
Al7 Hf1 2.821345 1_555
Al8 Ir6 2.521970 1_454
Al8 Ir4 2.651071 1_545
Al8 Ir0 2.671027 1_545
Al8 Ir2 2.688806 1_454
Al8 Hf1 3.149745 1_554
Al8 Ta0 3.225622 1_455
Al8 Ta2 3.270568 1_545
Al9 Ir6 2.514568 1_565
Al9 Ir2 2.649666 1_555
Al9 Ir4 2.667694 1_655
Al9 Ir0 2.686725 1_556
Al9 Hf2 3.149304 1_556
Al9 Hf0 3.165359 1_565
Al9 Ta1 3.203324 1_655
Al10 Ir6 2.514568 1_455
Al10 Ir3 2.649666 1_555
Al10 Ir4 2.667694 1_545
Al10 Ir1 2.686725 1_555
Al10 Al3 2.740050 1_545
Al10 Al6 2.756457 1_455
Al10 Al9 2.887331 1_445
Al10 Al15 2.908958 1_545
Al10 Al13 2.961434 1_455
Al10 Hf1 3.149304 1_555
Al10 Hf0 3.165359 1_455
Al10 Ta1 3.203324 1_545
Al11 Ir6 2.521978 1_464
Al11 Ir5 2.651071 1_555
Al11 Ir1 2.671027 1_555
Al11 Ir2 2.688799 1_454
Al11 Al2 2.746488 1_554
Al11 Al6 2.753398 1_455
Al11 Al15 2.859404 1_554
Al11 Al9 2.908951 1_454
Al11 Al12 2.919492 1_455
Al11 Hf2 3.149743 1_455
Al11 Ta1 3.225620 1_554
Al11 Ta2 3.270573 1_555
Al12 Ir6 2.521978 1_564
Al12 Ir4 2.651064 1_655
Al12 Ir1 2.671027 1_655
Al12 Ir3 2.688806 1_565
Al12 Al7 2.738217 1_655
Al12 Al5 2.746488 1_565
Al12 Al8 2.859392 1_665
Al12 Al14 2.908958 1_565
Al12 Hf2 3.149750 1_555
Al12 Ta0 3.225620 1_565
Al12 Ta2 3.270566 1_655
Al13 Ir6 2.514568 1_555
Al13 Ir2 2.649666 1_555
Al13 Ir5 2.667695 1_556
Al13 Ir1 2.686725 1_655
Al13 Al7 2.737035 1_655
Al13 Al4 2.740050 1_556
Al13 Al14 2.887331 1_556
Al13 Al8 2.908952 1_656
Al13 Hf1 3.149305 1_655
Al13 Hf0 3.165358 1_555
Al13 Ta0 3.203324 1_556
Al14 Ir6 2.514568 1_554
Al14 Ir3 2.649666 1_555
Al14 Ir5 2.667694 1_555
Al14 Ir0 2.686725 1_545
Al14 Al3 2.737036 1_545
Al14 Al2 2.756457 1_554
Al14 Al9 2.961434 1_544
Al14 Hf2 3.149304 1_545
Al14 Hf0 3.165358 1_554
Al14 Ta0 3.203324 1_555
Al15 Ir6 2.521978 1_465
Al15 Ir5 2.651071 1_556
Al15 Ir0 2.671020 1_556
Al15 Ir3 2.688806 1_565
Al15 Al4 2.738218 1_556
Al15 Al5 2.753398 1_565
Al15 Al8 2.919480 1_566
Al15 Hf1 3.149743 1_565
Al15 Ta1 3.225627 1_555
Al15 Ta2 3.270566 1_556
Ir0 Ta2 3.162673 1_555
Ir1 Ta2 3.162673 1_555
Ir2 Ta0 3.151296 1_556
Ir2 Ta1 3.151296 1_655
Ir3 Ta0 3.151296 1_555
Ir3 Ta1 3.151296 1_545
Ir4 Ta1 3.146277 1_555
Ir4 Ta2 3.181657 1_555
Ir4 Ta0 3.189646 1_465
Ir5 Ta0 3.146277 1_555
Ir5 Ta2 3.181657 1_555
Ir5 Ta1 3.189646 1_554
