# generated using pymatgen
data_Tl(FeSe)2
_symmetry_space_group_name_H-M   'P 1'
_cell_length_a   8.12749565
_cell_length_b   8.12749565
_cell_length_c   8.12749565
_cell_angle_alpha   153.66624577
_cell_angle_beta   153.66624577
_cell_angle_gamma   37.58489183
_symmetry_Int_Tables_number   1
_chemical_formula_structural   Tl(FeSe)2
_chemical_formula_sum   'Tl1 Fe2 Se2'
_cell_volume   105.48738081
_cell_formula_units_Z   1
loop_
 _symmetry_equiv_pos_site_id
 _symmetry_equiv_pos_as_xyz
  1  'x, y, z'
loop_
 _atom_site_type_symbol
 _atom_site_label
 _atom_site_symmetry_multiplicity
 _atom_site_fract_x
 _atom_site_fract_y
 _atom_site_fract_z
 _atom_site_occupancy
  Tl  Tl0  1  0.00000000  0.00000000  0.00000000  1
  Fe  Fe0  1  0.75000000  0.25000000  0.50000000  1
  Fe  Fe1  1  0.25000000  0.75000000  0.50000000  1
  Se  Se0  1  0.64269500  0.64269500  0.00000000  1
  Se  Se1  1  0.35730500  0.35730500  0.00000000  1
loop_
_geom_bond_atom_site_label_1
_geom_bond_atom_site_label_2
_geom_bond_distance
_geom_bond_site_symmetry_2
Fe0 Se1 2.480754 1_555
Fe0 Se0 2.480754 1_556
Fe0 Se1 2.480754 1_656
Fe0 Se0 2.480754 1_545
Fe1 Se1 2.480754 1_555
Fe1 Se0 2.480754 1_556
Fe1 Se0 2.480754 1_455
Fe1 Se1 2.480754 1_566
Se0 Tl0 3.417126 1_666
Se0 Tl0 3.417126 1_655
Se0 Tl0 3.417126 1_565
Se0 Tl0 3.417126 1_554
Se1 Tl0 3.417126 1_565
Se1 Tl0 3.417126 1_554
Se1 Tl0 3.417126 1_666
Se1 Tl0 3.417126 1_655
