# generated using pymatgen
data_Cs8Na8Si15Ge
_symmetry_space_group_name_H-M   'P 1'
_cell_length_a   9.63519375
_cell_length_b   8.44207557
_cell_length_c   13.18213758
_cell_angle_alpha   68.77446268
_cell_angle_beta   89.96925388
_cell_angle_gamma   89.98688359
_symmetry_Int_Tables_number   1
_chemical_formula_structural   Cs8Na8Si15Ge
_chemical_formula_sum   'Cs8 Na8 Si15 Ge1'
_cell_volume   999.50991388
_cell_formula_units_Z   1
loop_
 _symmetry_equiv_pos_site_id
 _symmetry_equiv_pos_as_xyz
  1  'x, y, z'
loop_
 _atom_site_type_symbol
 _atom_site_label
 _atom_site_symmetry_multiplicity
 _atom_site_fract_x
 _atom_site_fract_y
 _atom_site_fract_z
 _atom_site_occupancy
  Cs  Cs0  1  0.97869045  0.49199131  0.27785156  1
  Cs  Cs1  1  0.47891674  0.50923593  0.22044674  1
  Cs  Cs2  1  0.02051904  0.51067782  0.72101570  1
  Cs  Cs3  1  0.51927304  0.49006963  0.78031270  1
  Cs  Cs4  1  0.20355711  0.65165175  0.96633656  1
  Cs  Cs5  1  0.70199460  0.34843231  0.53371385  1
  Cs  Cs6  1  0.79655559  0.34814351  0.03353491  1
  Cs  Cs7  1  0.29807039  0.65292429  0.46640847  1
  Na  Na0  1  0.10015026  0.05523406  0.39447400  1
  Na  Na1  1  0.53957425  0.94577037  0.68405085  1
  Na  Na2  1  0.03785435  0.05255848  0.81660138  1
  Na  Na3  1  0.39994573  0.05514211  0.89458980  1
  Na  Na4  1  0.89991803  0.94367650  0.60578721  1
  Na  Na5  1  0.59992888  0.94441529  0.10561157  1
  Na  Na6  1  0.46344552  0.05361840  0.31597215  1
  Na  Na7  1  0.96238685  0.94758550  0.18356326  1
  Si  Si0  1  0.60588242  0.77300621  0.93882145  1
  Si  Si1  1  0.17040121  0.18292753  0.99305654  1
  Si  Si2  1  0.33171900  0.17992634  0.49355115  1
  Si  Si3  1  0.67052003  0.81682569  0.50687806  1
  Si  Si4  1  0.69047328  0.79039743  0.33312286  1
  Si  Si5  1  0.19044593  0.20930870  0.16689173  1
  Si  Si6  1  0.31167397  0.20797565  0.66677036  1
  Si  Si7  1  0.80907007  0.79056272  0.83325158  1
  Si  Si8  1  0.77605993  0.04674176  0.35726444  1
  Si  Si9  1  0.39405665  0.22635513  0.06188139  1
  Si  Si10  1  0.89419927  0.77288963  0.43807668  1
  Si  Si11  1  0.72404704  0.04696729  0.85744909  1
  Si  Si12  1  0.22539910  0.95176668  0.64330686  1
  Si  Si13  1  0.27551589  0.95277378  0.14277517  1
  Si  Si14  1  0.82980274  0.81726536  0.00690904  1
  Ge  Ge0  1  0.09995263  0.23318382  0.55972588  1
loop_
_geom_bond_atom_site_label_1
_geom_bond_atom_site_label_2
_geom_bond_distance
_geom_bond_site_symmetry_2
Cs0 Na7 3.591792 1_555
Cs0 Na0 3.636422 1_655
Cs0 Ge0 3.751056 1_655
Cs0 Si10 3.790911 1_555
Cs0 Si5 3.810430 1_655
Cs0 Si14 3.906019 1_555
Cs0 Si4 3.989057 1_555
Cs0 Si8 4.023491 1_555
Cs1 Na6 3.591012 1_555
Cs1 Na5 3.622314 1_555
Cs1 Si0 3.774620 1_554
Cs1 Si9 3.789160 1_555
Cs1 Si4 3.814881 1_555
Cs1 Si2 3.930691 1_555
Cs1 Si5 3.991812 1_555
Cs1 Si13 4.016513 1_555
Cs2 Na4 3.605423 1_455
Cs2 Na2 3.611696 1_555
Cs2 Ge0 3.768031 1_555
Cs2 Si10 3.783901 1_455
Cs2 Si7 3.801107 1_455
Cs2 Si1 3.926882 1_555
Cs2 Si12 4.006426 1_555
Cs2 Si6 4.028543 1_555
Cs3 Na1 3.593562 1_555
Cs3 Na3 3.614917 1_555
Cs3 Si9 3.768512 1_556
Cs3 Si0 3.792650 1_555
Cs3 Si6 3.807740 1_555
Cs3 Si3 3.939780 1_555
Cs3 Si7 4.000762 1_555
Cs3 Si11 4.020486 1_555
Cs4 Na2 3.614356 1_565
Cs4 Na3 3.707596 1_565
Cs4 Si5 3.715058 1_556
Cs4 Si9 3.817248 1_556
Cs4 Si1 3.856848 1_555
Cs4 Si14 3.968182 1_456
Cs4 Si0 3.992429 1_555
Cs4 Si13 4.078743 1_556
Cs4 Si12 4.096744 1_555
Cs4 Si7 4.173211 1_455
Cs5 Na1 3.612890 1_545
Cs5 Si4 3.712385 1_555
Cs5 Na4 3.723368 1_545
Cs5 Si10 3.819499 1_555
Cs5 Si3 3.852222 1_555
Cs5 Ge0 3.940173 1_655
Cs5 Si2 3.947394 1_555
Cs5 Si8 4.085705 1_555
Cs5 Si11 4.107372 1_555
Cs5 Si6 4.137049 1_555
Cs6 Na7 3.613534 1_545
Cs6 Na5 3.710090 1_545
Cs6 Si7 3.714105 1_554
Cs6 Si0 3.815171 1_554
Cs6 Si14 3.860602 1_555
Cs6 Si1 3.967311 1_654
Cs6 Si9 3.994858 1_555
Cs6 Si11 4.076329 1_554
Cs6 Si8 4.106262 1_555
Cs6 Si5 4.169038 1_655
Cs7 Na6 3.613311 1_565
Cs7 Na0 3.706468 1_565
Cs7 Si6 3.730857 1_555
Cs7 Ge0 3.815461 1_555
Cs7 Si2 3.891385 1_555
Cs7 Si3 3.951730 1_555
Cs7 Si10 4.004229 1_455
Cs7 Si12 4.068173 1_555
Cs7 Si13 4.103231 1_555
Cs7 Si4 4.152994 1_555
Na0 Si5 2.936178 1_555
Na0 Si2 2.965104 1_555
Na0 Si10 2.993072 1_445
Na0 Si8 3.166075 1_455
Na0 Si12 3.302707 1_545
Na1 Si6 3.067042 1_565
Na1 Si12 3.071903 1_555
Na1 Si3 3.173095 1_555
Na1 Si0 3.204612 1_555
Na1 Si7 3.235054 1_555
Na1 Si11 3.245429 1_565
Na1 Si2 3.260954 1_565
Na2 Si11 3.068257 1_455
Na2 Si7 3.074033 1_445
Na2 Si1 3.179676 1_555
Na2 Si12 3.257320 1_545
Na2 Si14 3.262785 1_446
Na2 Si6 3.271500 1_555
Na3 Si6 2.933185 1_555
Na3 Si1 2.958028 1_555
Na3 Si0 2.990604 1_545
Na3 Si9 3.043578 1_556
Na3 Si11 3.165271 1_555
Na3 Si13 3.291918 1_546
Na4 Si7 2.935836 1_555
Na4 Si3 2.957592 1_555
Na4 Si10 3.045906 1_555
Na4 Si12 3.179695 1_655
Na4 Si8 3.294478 1_565
Na5 Si4 2.936827 1_555
Na5 Si14 2.959370 1_555
Na5 Si9 2.989612 1_565
Na5 Si0 3.038886 1_554
Na5 Si13 3.168403 1_555
Na5 Si11 3.290405 1_564
Na6 Si8 3.057974 1_555
Na6 Si4 3.067325 1_545
Na6 Si2 3.167194 1_555
Na6 Si9 3.202759 1_555
Na6 Si13 3.260162 1_545
Na6 Si5 3.262245 1_555
Na6 Si3 3.266637 1_545
Na7 Si13 3.061850 1_655
Na7 Si5 3.067374 1_665
Na7 Si14 3.181818 1_555
Na7 Si10 3.205970 1_555
Na7 Si8 3.248003 1_565
Na7 Si4 3.257850 1_555
Na7 Si1 3.264140 1_664
Si0 Si7 2.374716 1_555
Si0 Si14 2.417712 1_556
Si0 Si11 2.449383 1_565
Si1 Si5 2.389140 1_556
Si1 Si9 2.417581 1_556
Si1 Si13 2.433247 1_546
Si2 Si6 2.387111 1_555
Si3 Si4 2.387991 1_555
Si3 Si8 2.432708 1_565
Si4 Si8 2.442194 1_565
Si5 Si9 2.374581 1_555
Si10 Si4 2.375670 1_555
Si10 Si3 2.417872 1_555
Si10 Si8 2.447889 1_565
Si11 Si14 2.432124 1_546
Si11 Si7 2.440725 1_545
Si12 Si2 2.429405 1_565
Si12 Si6 2.439360 1_565
Si13 Si5 2.441423 1_565
Si13 Si9 2.447954 1_565
Si14 Si7 2.388559 1_554
Ge0 Si6 2.446095 1_555
Ge0 Si2 2.496262 1_555
Ge0 Si12 2.534529 1_545
Ge0 Na4 2.997191 1_445
Ge0 Na0 3.061316 1_555
Ge0 Na2 3.226272 1_555
