# generated using pymatgen
data_KSr(Si2Pd3)2
_symmetry_space_group_name_H-M   'P 1'
_cell_length_a   6.87181746
_cell_length_b   6.87179550
_cell_length_c   6.87181113
_cell_angle_alpha   129.51574218
_cell_angle_beta   118.54601297
_cell_angle_gamma   83.44522505
_symmetry_Int_Tables_number   1
_chemical_formula_structural   KSr(Si2Pd3)2
_chemical_formula_sum   'K1 Sr1 Si4 Pd6'
_cell_volume   211.09096334
_cell_formula_units_Z   1
loop_
 _symmetry_equiv_pos_site_id
 _symmetry_equiv_pos_as_xyz
  1  'x, y, z'
loop_
 _atom_site_type_symbol
 _atom_site_label
 _atom_site_symmetry_multiplicity
 _atom_site_fract_x
 _atom_site_fract_y
 _atom_site_fract_z
 _atom_site_occupancy
  K  K0  1  0.50000000  0.02994487  0.52994487  1
  Sr  Sr0  1  0.00000100  0.97310266  0.97310266  1
  Si  Si0  1  0.33091940  0.38889041  0.05797101  1
  Si  Si1  1  0.81903567  0.25470922  0.43567355  1
  Si  Si2  1  0.66908160  0.72704960  0.05797001  1
  Si  Si3  1  0.18096433  0.61663689  0.43567355  1
  Pd  Pd0  1  0.95541292  0.50184299  0.95417297  1
  Pd  Pd1  1  0.54767202  0.50184499  0.54643207  1
  Pd  Pd2  1  0.04458608  0.99876105  0.54643207  1
  Pd  Pd3  1  0.76676073  0.49672863  0.26349036  1
  Pd  Pd4  1  0.23323827  0.49672863  0.72996690  1
  Pd  Pd5  1  0.45232898  0.99876005  0.95417397  1
loop_
_geom_bond_atom_site_label_1
_geom_bond_atom_site_label_2
_geom_bond_distance
_geom_bond_site_symmetry_2
K0 Pd0 3.221085 1_555
K0 Pd1 3.221091 1_555
K0 Pd5 3.221102 1_545
K0 Pd2 3.221107 1_545
K0 Si0 3.264953 1_545
K0 Si2 3.264975 1_545
K0 Pd3 3.315655 1_556
K0 Pd4 3.315657 1_555
K0 Si1 3.318950 1_555
K0 Si3 3.318951 1_545
K0 Sr0 3.526905 1_544
K0 Sr0 3.526913 1_645
K0 Si2 3.547568 1_556
K0 Si0 3.547591 1_556
K0 Pd3 3.643557 1_545
K0 Pd4 3.643559 1_544
K0 Pd1 3.675063 1_545
K0 Pd5 3.675067 1_544
K0 Pd2 3.675068 1_645
K0 Pd0 3.675070 1_444
Si0 Sr0 3.430779 1_544
Si1 Sr0 3.285712 1_644
Si2 Sr0 3.430792 1_654
Si3 Sr0 3.285688 1_544
Pd0 Si1 2.435011 1_555
Pd0 Si2 2.452885 1_556
Pd0 Si3 2.455366 1_656
Pd0 Si0 2.501593 1_656
Pd0 Sr0 3.201625 1_655
Pd0 Sr0 3.690742 1_645
Pd1 Si1 2.435011 1_555
Pd1 Si2 2.452886 1_556
Pd1 Si3 2.455369 1_555
Pd1 Si0 2.501596 1_555
Pd1 Sr0 3.201615 1_655
Pd1 Sr0 3.690752 1_544
Pd2 Si3 2.435021 1_555
Pd2 Si0 2.452886 1_566
Pd2 Si1 2.455360 1_465
Pd2 Si2 2.501590 1_455
Pd2 Sr0 3.201614 1_555
Pd2 Sr0 3.690765 1_554
Pd3 Si1 2.501306 1_555
Pd3 Si3 2.501317 1_655
Pd3 Si2 2.578010 1_555
Pd3 Si0 2.578014 1_555
Pd3 Sr0 3.236927 1_655
Pd3 Sr0 3.478633 1_644
Pd4 Si3 2.501303 1_555
Pd4 Si1 2.501309 1_455
Pd4 Si0 2.578018 1_556
Pd4 Si2 2.578021 1_556
Pd4 Sr0 3.236927 1_555
Pd4 Sr0 3.478623 1_544
Pd5 Si3 2.435011 1_555
Pd5 Si0 2.452891 1_566
Pd5 Si1 2.455362 1_566
Pd5 Si2 2.501599 1_556
Pd5 Sr0 3.201616 1_555
Pd5 Sr0 3.690770 1_655
