# generated using pymatgen
data_Sr3CoSi6Os5
_symmetry_space_group_name_H-M   'P 1'
_cell_length_a   8.37525029
_cell_length_b   8.37603795
_cell_length_c   8.37603933
_cell_angle_alpha   151.00896273
_cell_angle_beta   104.42090427
_cell_angle_gamma   82.89275982
_symmetry_Int_Tables_number   1
_chemical_formula_structural   Sr3CoSi6Os5
_chemical_formula_sum   'Sr3 Co1 Si6 Os5'
_cell_volume   270.21612027
_cell_formula_units_Z   1
loop_
 _symmetry_equiv_pos_site_id
 _symmetry_equiv_pos_as_xyz
  1  'x, y, z'
loop_
 _atom_site_type_symbol
 _atom_site_label
 _atom_site_symmetry_multiplicity
 _atom_site_fract_x
 _atom_site_fract_y
 _atom_site_fract_z
 _atom_site_occupancy
  Sr  Sr0  1  0.33232797  0.33279836  0.99952961  1
  Sr  Sr1  1  0.66786770  0.66695157  0.00091613  1
  Sr  Sr2  1  0.99968783  0.00017873  0.99951010  1
  Co  Co0  1  0.91778837  0.16661669  0.75117268  1
  Si  Si0  1  0.30739036  0.66650844  0.64088192  1
  Si  Si1  1  0.69109950  0.33367482  0.35742468  1
  Si  Si2  1  0.97308585  0.32907396  0.64401189  1
  Si  Si3  1  0.35811803  0.99987032  0.35824771  1
  Si  Si4  1  0.02392959  0.66656482  0.35736577  1
  Si  Si5  1  0.64744063  0.00431703  0.64312360  1
  Os  Os0  1  0.58460130  0.83555567  0.74904464  1
  Os  Os1  1  0.24743580  0.49787590  0.74955991  1
  Os  Os2  1  0.75310976  0.50313952  0.24997024  1
  Os  Os3  1  0.08087904  0.83023813  0.25064190  1
  Os  Os4  1  0.41523727  0.16663904  0.24860022  1
loop_
_geom_bond_atom_site_label_1
_geom_bond_atom_site_label_2
_geom_bond_distance
_geom_bond_site_symmetry_2
Co0 Si2 2.317641 1_555
Co0 Si5 2.320034 1_555
Co0 Si4 2.362988 1_645
Co0 Si4 2.362989 1_656
Co0 Os2 2.934137 1_556
Co0 Os2 2.934138 1_545
Co0 Os3 2.935389 1_656
Co0 Os3 2.935391 1_645
Co0 Sr0 3.294211 1_655
Co0 Sr2 3.296418 1_555
Co0 Sr1 3.315743 1_556
Co0 Sr1 3.315745 1_545
Si0 Sr0 3.295614 1_565
Si0 Sr0 3.295615 1_554
Si0 Sr2 3.295835 1_454
Si0 Sr2 3.295839 1_465
Si1 Sr2 3.300440 1_554
Si1 Sr2 3.300441 1_565
Si1 Sr1 3.308781 1_545
Si1 Sr1 3.308782 1_556
Si2 Sr1 3.270520 1_545
Si2 Sr1 3.270521 1_556
Si2 Sr2 3.348443 1_554
Si2 Sr2 3.348444 1_565
Si3 Sr0 3.301527 1_554
Si3 Sr0 3.301528 1_565
Si3 Sr1 3.307687 1_566
Si3 Sr1 3.307688 1_555
Si4 Sr0 3.298658 1_565
Si4 Sr0 3.298661 1_554
Si4 Sr2 3.299966 1_454
Si4 Sr2 3.299967 1_465
Si5 Sr1 3.270634 1_556
Si5 Sr1 3.270635 1_545
Si5 Sr0 3.347473 1_544
Si5 Sr0 3.347475 1_555
Os0 Si1 2.373541 1_555
Os0 Si1 2.373545 1_566
Os0 Si5 2.381767 1_565
Os0 Si0 2.395349 1_555
Os0 Sr2 3.298666 1_565
Os0 Sr0 3.310033 1_554
Os0 Sr0 3.310035 1_565
Os0 Sr1 3.341718 1_556
Os1 Si3 2.375040 1_545
Os1 Si3 2.375040 1_556
Os1 Si2 2.380280 1_455
Os1 Si0 2.393392 1_555
Os1 Sr0 3.298631 1_555
Os1 Sr2 3.314232 1_454
Os1 Sr2 3.314235 1_465
Os1 Sr1 3.341051 1_556
Os2 Si4 2.329276 1_655
Os2 Si5 2.366137 1_565
Os2 Si5 2.366137 1_554
Os2 Si1 2.396835 1_555
Os2 Sr1 3.281340 1_555
Os2 Sr2 3.310256 1_554
Os2 Sr2 3.310258 1_565
Os2 Sr0 3.343939 1_554
Os3 Si4 2.328976 1_555
Os3 Si2 2.365101 1_465
Os3 Si2 2.365104 1_454
Os3 Si3 2.399224 1_555
Os3 Sr1 3.282253 1_455
Os3 Sr0 3.305028 1_565
Os3 Sr0 3.305031 1_554
Os3 Sr2 3.346524 1_464
Os4 Si0 2.370243 1_555
Os4 Si0 2.370250 1_544
Os4 Si1 2.376192 1_555
Os4 Si3 2.377401 1_545
Os4 Sr0 3.300029 1_554
Os4 Sr2 3.302235 1_454
Os4 Sr1 3.332156 1_556
Os4 Sr1 3.332161 1_545
