# generated using pymatgen
data_Cs2Fe(CuSe2)2
_symmetry_space_group_name_H-M   'P 1'
_cell_length_a   5.80302391
_cell_length_b   5.80302391
_cell_length_c   14.40826011
_cell_angle_alpha   90.00000000
_cell_angle_beta   90.00000000
_cell_angle_gamma   90.00000000
_symmetry_Int_Tables_number   1
_chemical_formula_structural   Cs2Fe(CuSe2)2
_chemical_formula_sum   'Cs4 Fe2 Cu4 Se8'
_cell_volume   485.19940524
_cell_formula_units_Z   2
loop_
 _symmetry_equiv_pos_site_id
 _symmetry_equiv_pos_as_xyz
  1  'x, y, z'
loop_
 _atom_site_type_symbol
 _atom_site_label
 _atom_site_symmetry_multiplicity
 _atom_site_fract_x
 _atom_site_fract_y
 _atom_site_fract_z
 _atom_site_occupancy
  Cs  Cs0  1  0.75552655  0.75552655  0.00000000  1
  Cs  Cs1  1  0.24447345  0.75552655  0.50000000  1
  Cs  Cs2  1  0.75552655  0.24447345  0.50000000  1
  Cs  Cs3  1  0.24447345  0.24447345  0.00000000  1
  Fe  Fe0  1  0.50000000  0.50000000  0.25000000  1
  Fe  Fe1  1  0.50000000  0.50000000  0.75000000  1
  Cu  Cu0  1  0.00000000  0.50000000  0.75000000  1
  Cu  Cu1  1  0.50000000  0.00000000  0.75000000  1
  Cu  Cu2  1  0.50000000  0.00000000  0.25000000  1
  Cu  Cu3  1  0.00000000  0.50000000  0.25000000  1
  Se  Se0  1  0.74144319  0.25855681  0.15805250  1
  Se  Se1  1  0.74144319  0.74144319  0.34194750  1
  Se  Se2  1  0.25855681  0.25855681  0.65805250  1
  Se  Se3  1  0.74144319  0.74144319  0.65805250  1
  Se  Se4  1  0.25855681  0.25855681  0.34194750  1
  Se  Se5  1  0.74144319  0.25855681  0.84194750  1
  Se  Se6  1  0.25855681  0.74144319  0.84194750  1
  Se  Se7  1  0.25855681  0.74144319  0.15805250  1
loop_
_geom_bond_atom_site_label_1
_geom_bond_atom_site_label_2
_geom_bond_distance
_geom_bond_site_symmetry_2
Cs0 Se5 3.675546 1_554
Cs0 Se6 3.675546 1_554
Cs0 Se0 3.675546 1_555
Cs0 Se7 3.675546 1_555
Cs0 Se5 3.703205 1_564
Cs0 Se6 3.703205 1_654
Cs0 Se7 3.703205 1_655
Cs0 Se0 3.703205 1_565
Cs1 Se4 3.675546 1_555
Cs1 Se2 3.675546 1_555
Cs1 Se1 3.675546 1_555
Cs1 Se3 3.675546 1_555
Cs1 Se4 3.703205 1_565
Cs1 Se1 3.703205 1_455
Cs1 Se3 3.703205 1_455
Cs1 Se2 3.703205 1_565
Cs2 Se4 3.675546 1_555
Cs2 Se2 3.675546 1_555
Cs2 Se1 3.675546 1_555
Cs2 Se3 3.675546 1_555
Cs2 Se1 3.703205 1_545
Cs2 Se4 3.703205 1_655
Cs2 Se2 3.703205 1_655
Cs2 Se3 3.703205 1_545
Cs3 Se5 3.675546 1_554
Cs3 Se6 3.675546 1_554
Cs3 Se0 3.675546 1_555
Cs3 Se7 3.675546 1_555
Cs3 Se5 3.703205 1_454
Cs3 Se6 3.703205 1_544
Cs3 Se0 3.703205 1_455
Cs3 Se7 3.703205 1_545
Fe0 Se1 2.383542 1_555
Fe0 Se0 2.383542 1_555
Fe0 Se7 2.383542 1_555
Fe0 Se4 2.383542 1_555
Fe1 Se3 2.383542 1_555
Fe1 Se6 2.383542 1_555
Fe1 Se5 2.383542 1_555
Fe1 Se2 2.383542 1_555
Cu0 Se6 2.443240 1_555
Cu0 Se2 2.443240 1_555
Cu0 Se3 2.443240 1_455
Cu0 Se5 2.443240 1_455
Cu1 Se5 2.443240 1_555
Cu1 Se2 2.443240 1_555
Cu1 Se3 2.443240 1_545
Cu1 Se6 2.443240 1_545
Cu2 Se0 2.443240 1_555
Cu2 Se4 2.443240 1_555
Cu2 Se1 2.443240 1_545
Cu2 Se7 2.443240 1_545
Cu3 Se7 2.443240 1_555
Cu3 Se4 2.443240 1_555
Cu3 Se1 2.443240 1_455
Cu3 Se0 2.443240 1_455
