# generated using pymatgen
data_CsNa3(SiP)12
_symmetry_space_group_name_H-M   'P 1'
_cell_length_a   7.03224371
_cell_length_b   19.75395301
_cell_length_c   36.97192590
_cell_angle_alpha   92.57598366
_cell_angle_beta   90.00000000
_cell_angle_gamma   90.00000000
_symmetry_Int_Tables_number   1
_chemical_formula_structural   CsNa3(SiP)12
_chemical_formula_sum   'Cs8 Na24 Si96 P96'
_cell_volume   5130.75085049
_cell_formula_units_Z   8
loop_
 _symmetry_equiv_pos_site_id
 _symmetry_equiv_pos_as_xyz
  1  'x, y, z'
loop_
 _atom_site_type_symbol
 _atom_site_label
 _atom_site_symmetry_multiplicity
 _atom_site_fract_x
 _atom_site_fract_y
 _atom_site_fract_z
 _atom_site_occupancy
  Cs  Cs0_0  1  0.00000000  0.41196017  0.09975167  1
  Cs  Cs0_1  1  0.00000000  0.41196017  0.59975167  1
  Cs  Cs0_2  1  0.00000000  0.91196017  0.09975167  1
  Cs  Cs0_3  1  0.00000000  0.91196017  0.59975167  1
  Cs  Cs0_4  1  0.50000000  0.41196017  0.09975167  1
  Cs  Cs0_5  1  0.50000000  0.41196017  0.59975167  1
  Cs  Cs0_6  1  0.50000000  0.91196017  0.09975167  1
  Cs  Cs0_7  1  0.50000000  0.91196017  0.59975167  1
  Na  Na0_0  1  0.00000000  0.16468504  0.15021027  1
  Na  Na0_1  1  0.00000000  0.16468504  0.65021027  1
  Na  Na0_2  1  0.00000000  0.66468504  0.15021027  1
  Na  Na0_3  1  0.00000000  0.66468504  0.65021027  1
  Na  Na0_4  1  0.50000000  0.16468504  0.15021027  1
  Na  Na0_5  1  0.50000000  0.16468504  0.65021027  1
  Na  Na0_6  1  0.50000000  0.66468504  0.15021027  1
  Na  Na0_7  1  0.50000000  0.66468504  0.65021027  1
  Na  Na1_0  1  0.00000000  0.32692294  0.35177203  1
  Na  Na1_1  1  0.00000000  0.32692294  0.85177203  1
  Na  Na1_2  1  0.00000000  0.82692294  0.35177203  1
  Na  Na1_3  1  0.00000000  0.82692294  0.85177203  1
  Na  Na1_4  1  0.50000000  0.32692294  0.35177203  1
  Na  Na1_5  1  0.50000000  0.32692294  0.85177203  1
  Na  Na1_6  1  0.50000000  0.82692294  0.35177203  1
  Na  Na1_7  1  0.50000000  0.82692294  0.85177203  1
  Na  Na2_0  1  0.00000000  0.07944135  0.39686182  1
  Na  Na2_1  1  0.00000000  0.07944135  0.89686182  1
  Na  Na2_2  1  0.00000000  0.57944135  0.39686182  1
  Na  Na2_3  1  0.00000000  0.57944135  0.89686182  1
  Na  Na2_4  1  0.50000000  0.07944135  0.39686182  1
  Na  Na2_5  1  0.50000000  0.07944135  0.89686182  1
  Na  Na2_6  1  0.50000000  0.57944135  0.39686182  1
  Na  Na2_7  1  0.50000000  0.57944135  0.89686182  1
  Si  Si0_0  1  0.25000000  0.21255281  0.01163443  1
  Si  Si0_1  1  0.25000000  0.21255281  0.51163443  1
  Si  Si0_2  1  0.25000000  0.71255281  0.01163443  1
  Si  Si0_3  1  0.25000000  0.71255281  0.51163443  1
  Si  Si0_4  1  0.75000000  0.21255281  0.01163443  1
  Si  Si0_5  1  0.75000000  0.21255281  0.51163443  1
  Si  Si0_6  1  0.75000000  0.71255281  0.01163443  1
  Si  Si0_7  1  0.75000000  0.71255281  0.51163443  1
  Si  Si1_0  1  0.25000000  0.30506460  0.47461660  1
  Si  Si1_1  1  0.25000000  0.30506460  0.97461660  1
  Si  Si1_2  1  0.25000000  0.80506460  0.47461660  1
  Si  Si1_3  1  0.25000000  0.80506460  0.97461660  1
  Si  Si1_4  1  0.75000000  0.30506460  0.47461660  1
  Si  Si1_5  1  0.75000000  0.30506460  0.97461660  1
  Si  Si1_6  1  0.75000000  0.80506460  0.47461660  1
  Si  Si1_7  1  0.75000000  0.80506460  0.97461660  1
  Si  Si2_0  1  0.25000000  0.04226822  0.27303372  1
  Si  Si2_1  1  0.25000000  0.04226822  0.77303372  1
  Si  Si2_2  1  0.25000000  0.54226822  0.27303372  1
  Si  Si2_3  1  0.25000000  0.54226822  0.77303372  1
  Si  Si2_4  1  0.75000000  0.04226822  0.27303372  1
  Si  Si2_5  1  0.75000000  0.04226822  0.77303372  1
  Si  Si2_6  1  0.75000000  0.54226822  0.27303372  1
  Si  Si2_7  1  0.75000000  0.54226822  0.77303372  1
  Si  Si3_0  1  0.25000000  0.44185835  0.23777724  1
  Si  Si3_1  1  0.25000000  0.44185835  0.73777724  1
  Si  Si3_2  1  0.25000000  0.94185835  0.23777724  1
  Si  Si3_3  1  0.25000000  0.94185835  0.73777724  1
  Si  Si3_4  1  0.75000000  0.44185835  0.23777724  1
  Si  Si3_5  1  0.75000000  0.44185835  0.73777724  1
  Si  Si3_6  1  0.75000000  0.94185835  0.23777724  1
  Si  Si3_7  1  0.75000000  0.94185835  0.73777724  1
  Si  Si4_0  1  0.00000000  0.06665744  0.00405980  1
  Si  Si4_1  1  0.00000000  0.06665744  0.50405980  1
  Si  Si4_2  1  0.00000000  0.56665744  0.00405980  1
  Si  Si4_3  1  0.00000000  0.56665744  0.50405980  1
  Si  Si4_4  1  0.50000000  0.06665744  0.00405980  1
  Si  Si4_5  1  0.50000000  0.06665744  0.50405980  1
  Si  Si4_6  1  0.50000000  0.56665744  0.00405980  1
  Si  Si4_7  1  0.50000000  0.56665744  0.50405980  1
  Si  Si5_0  1  0.00000000  0.45155820  0.48743590  1
  Si  Si5_1  1  0.00000000  0.45155820  0.98743590  1
  Si  Si5_2  1  0.00000000  0.95155820  0.48743590  1
  Si  Si5_3  1  0.00000000  0.95155820  0.98743590  1
  Si  Si5_4  1  0.50000000  0.45155820  0.48743590  1
  Si  Si5_5  1  0.50000000  0.45155820  0.98743590  1
  Si  Si5_6  1  0.50000000  0.95155820  0.48743590  1
  Si  Si5_7  1  0.50000000  0.95155820  0.98743590  1
  Si  Si6_0  1  0.00000000  0.18471724  0.26233044  1
  Si  Si6_1  1  0.00000000  0.18471724  0.76233044  1
  Si  Si6_2  1  0.00000000  0.68471724  0.26233044  1
  Si  Si6_3  1  0.00000000  0.68471724  0.76233044  1
  Si  Si6_4  1  0.50000000  0.18471724  0.26233044  1
  Si  Si6_5  1  0.50000000  0.18471724  0.76233044  1
  Si  Si6_6  1  0.50000000  0.68471724  0.26233044  1
  Si  Si6_7  1  0.50000000  0.68471724  0.76233044  1
  Si  Si7_0  1  0.00000000  0.29810593  0.24888450  1
  Si  Si7_1  1  0.00000000  0.29810593  0.74888450  1
  Si  Si7_2  1  0.00000000  0.79810593  0.24888450  1
  Si  Si7_3  1  0.00000000  0.79810593  0.74888450  1
  Si  Si7_4  1  0.50000000  0.29810593  0.24888450  1
  Si  Si7_5  1  0.50000000  0.29810593  0.74888450  1
  Si  Si7_6  1  0.50000000  0.79810593  0.24888450  1
  Si  Si7_7  1  0.50000000  0.79810593  0.74888450  1
  Si  Si8_0  1  0.00000000  0.10826351  0.06476562  1
  Si  Si8_1  1  0.00000000  0.10826351  0.56476562  1
  Si  Si8_2  1  0.00000000  0.60826351  0.06476562  1
  Si  Si8_3  1  0.00000000  0.60826351  0.56476562  1
  Si  Si8_4  1  0.50000000  0.10826351  0.06476562  1
  Si  Si8_5  1  0.50000000  0.10826351  0.56476562  1
  Si  Si8_6  1  0.50000000  0.60826351  0.06476562  1
  Si  Si8_7  1  0.50000000  0.60826351  0.56476562  1
  Si  Si9_0  1  0.00000000  0.41597436  0.42620758  1
  Si  Si9_1  1  0.00000000  0.41597436  0.92620758  1
  Si  Si9_2  1  0.00000000  0.91597436  0.42620758  1
  Si  Si9_3  1  0.00000000  0.91597436  0.92620758  1
  Si  Si9_4  1  0.50000000  0.41597436  0.42620758  1
  Si  Si9_5  1  0.50000000  0.41597436  0.92620758  1
  Si  Si9_6  1  0.50000000  0.91597436  0.42620758  1
  Si  Si9_7  1  0.50000000  0.91597436  0.92620758  1
  Si  Si10_0  1  0.00000000  0.15762000  0.32312534  1
  Si  Si10_1  1  0.00000000  0.15762000  0.82312534  1
  Si  Si10_2  1  0.00000000  0.65762000  0.32312534  1
  Si  Si10_3  1  0.00000000  0.65762000  0.82312534  1
  Si  Si10_4  1  0.50000000  0.15762000  0.32312534  1
  Si  Si10_5  1  0.50000000  0.15762000  0.82312534  1
  Si  Si10_6  1  0.50000000  0.65762000  0.32312534  1
  Si  Si10_7  1  0.50000000  0.65762000  0.82312534  1
  Si  Si11_0  1  0.00000000  0.32447381  0.18817507  1
  Si  Si11_1  1  0.00000000  0.32447381  0.68817507  1
  Si  Si11_2  1  0.00000000  0.82447381  0.18817507  1
  Si  Si11_3  1  0.00000000  0.82447381  0.68817507  1
  Si  Si11_4  1  0.50000000  0.32447381  0.18817507  1
  Si  Si11_5  1  0.50000000  0.32447381  0.68817507  1
  Si  Si11_6  1  0.50000000  0.82447381  0.18817507  1
  Si  Si11_7  1  0.50000000  0.82447381  0.68817507  1
  P  P0_0  1  0.25000000  0.07947959  0.09745799  1
  P  P0_1  1  0.25000000  0.07947959  0.59745799  1
  P  P0_2  1  0.25000000  0.57947959  0.09745799  1
  P  P0_3  1  0.25000000  0.57947959  0.59745799  1
  P  P0_4  1  0.75000000  0.07947959  0.09745799  1
  P  P0_5  1  0.75000000  0.07947959  0.59745799  1
  P  P0_6  1  0.75000000  0.57947959  0.09745799  1
  P  P0_7  1  0.75000000  0.57947959  0.59745799  1
  P  P1_0  1  0.25000000  0.44458045  0.39319201  1
  P  P1_1  1  0.25000000  0.44458045  0.89319201  1
  P  P1_2  1  0.25000000  0.94458045  0.39319201  1
  P  P1_3  1  0.25000000  0.94458045  0.89319201  1
  P  P1_4  1  0.75000000  0.44458045  0.39319201  1
  P  P1_5  1  0.75000000  0.44458045  0.89319201  1
  P  P1_6  1  0.75000000  0.94458045  0.39319201  1
  P  P1_7  1  0.75000000  0.94458045  0.89319201  1
  P  P2_0  1  0.25000000  0.19119443  0.35638179  1
  P  P2_1  1  0.25000000  0.19119443  0.85638179  1
  P  P2_2  1  0.25000000  0.69119443  0.35638179  1
  P  P2_3  1  0.25000000  0.69119443  0.85638179  1
  P  P2_4  1  0.75000000  0.19119443  0.35638179  1
  P  P2_5  1  0.75000000  0.19119443  0.85638179  1
  P  P2_6  1  0.75000000  0.69119443  0.35638179  1
  P  P2_7  1  0.75000000  0.69119443  0.85638179  1
  P  P3_0  1  0.25000000  0.29005165  0.15562425  1
  P  P3_1  1  0.25000000  0.29005165  0.65562425  1
  P  P3_2  1  0.25000000  0.79005165  0.15562425  1
  P  P3_3  1  0.25000000  0.79005165  0.65562425  1
  P  P3_4  1  0.75000000  0.29005165  0.15562425  1
  P  P3_5  1  0.75000000  0.29005165  0.65562425  1
  P  P3_6  1  0.75000000  0.79005165  0.15562425  1
  P  P3_7  1  0.75000000  0.79005165  0.65562425  1
  P  P4_0  1  0.25000000  0.13132522  0.23465331  1
  P  P4_1  1  0.25000000  0.13132522  0.73465331  1
  P  P4_2  1  0.25000000  0.63132522  0.23465331  1
  P  P4_3  1  0.25000000  0.63132522  0.73465331  1
  P  P4_4  1  0.75000000  0.13132522  0.23465331  1
  P  P4_5  1  0.75000000  0.13132522  0.73465331  1
  P  P4_6  1  0.75000000  0.63132522  0.23465331  1
  P  P4_7  1  0.75000000  0.63132522  0.73465331  1
  P  P5_0  1  0.25000000  0.35244651  0.27603217  1
  P  P5_1  1  0.25000000  0.35244651  0.77603217  1
  P  P5_2  1  0.25000000  0.85244651  0.27603217  1
  P  P5_3  1  0.25000000  0.85244651  0.77603217  1
  P  P5_4  1  0.75000000  0.35244651  0.27603217  1
  P  P5_5  1  0.75000000  0.35244651  0.77603217  1
  P  P5_6  1  0.75000000  0.85244651  0.27603217  1
  P  P5_7  1  0.75000000  0.85244651  0.77603217  1
  P  P6_0  1  0.25000000  0.11432527  0.47564535  1
  P  P6_1  1  0.25000000  0.11432527  0.97564535  1
  P  P6_2  1  0.25000000  0.61432527  0.47564535  1
  P  P6_3  1  0.25000000  0.61432527  0.97564535  1
  P  P6_4  1  0.75000000  0.11432527  0.47564535  1
  P  P6_5  1  0.75000000  0.11432527  0.97564535  1
  P  P6_6  1  0.75000000  0.61432527  0.47564535  1
  P  P6_7  1  0.75000000  0.61432527  0.97564535  1
  P  P7_0  1  0.25000000  0.39973946  0.01306155  1
  P  P7_1  1  0.25000000  0.39973946  0.51306155  1
  P  P7_2  1  0.25000000  0.89973946  0.01306155  1
  P  P7_3  1  0.25000000  0.89973946  0.51306155  1
  P  P7_4  1  0.75000000  0.39973946  0.01306155  1
  P  P7_5  1  0.75000000  0.39973946  0.51306155  1
  P  P7_6  1  0.75000000  0.89973946  0.01306155  1
  P  P7_7  1  0.75000000  0.89973946  0.51306155  1
  P  P8_0  1  0.00000000  0.22065196  0.05003227  1
  P  P8_1  1  0.00000000  0.22065196  0.55003227  1
  P  P8_2  1  0.00000000  0.72065196  0.05003227  1
  P  P8_3  1  0.00000000  0.72065196  0.55003227  1
  P  P8_4  1  0.50000000  0.22065196  0.05003227  1
  P  P8_5  1  0.50000000  0.22065196  0.55003227  1
  P  P8_6  1  0.50000000  0.72065196  0.05003227  1
  P  P8_7  1  0.50000000  0.72065196  0.55003227  1
  P  P9_0  1  0.00000000  0.30167104  0.43654662  1
  P  P9_1  1  0.00000000  0.30167104  0.93654662  1
  P  P9_2  1  0.00000000  0.80167104  0.43654662  1
  P  P9_3  1  0.00000000  0.80167104  0.93654662  1
  P  P9_4  1  0.50000000  0.30167104  0.43654662  1
  P  P9_5  1  0.50000000  0.30167104  0.93654662  1
  P  P9_6  1  0.50000000  0.80167104  0.43654662  1
  P  P9_7  1  0.50000000  0.80167104  0.93654662  1
  P  P10_0  1  0.00000000  0.04222974  0.31119376  1
  P  P10_1  1  0.00000000  0.04222974  0.81119376  1
  P  P10_2  1  0.00000000  0.54222974  0.31119376  1
  P  P10_3  1  0.00000000  0.54222974  0.81119376  1
  P  P10_4  1  0.50000000  0.04222974  0.31119376  1
  P  P10_5  1  0.50000000  0.04222974  0.81119376  1
  P  P10_6  1  0.50000000  0.54222974  0.31119376  1
  P  P10_7  1  0.50000000  0.54222974  0.81119376  1
  P  P11_0  1  0.00000000  0.44018172  0.19953790  1
  P  P11_1  1  0.00000000  0.44018172  0.69953790  1
  P  P11_2  1  0.00000000  0.94018172  0.19953790  1
  P  P11_3  1  0.00000000  0.94018172  0.69953790  1
  P  P11_4  1  0.50000000  0.44018172  0.19953790  1
  P  P11_5  1  0.50000000  0.44018172  0.69953790  1
  P  P11_6  1  0.50000000  0.94018172  0.19953790  1
  P  P11_7  1  0.50000000  0.94018172  0.69953790  1
loop_
_geom_bond_atom_site_label_1
_geom_bond_atom_site_label_2
_geom_bond_distance
_geom_bond_site_symmetry_2
Cs0_0 P7_4 3.654063 1_455
Cs0_0 P7_0 3.654063 1_555
Cs0_0 P3_4 3.688419 1_455
Cs0_0 P3_0 3.688419 1_555
Cs0_0 P11_0 3.706315 1_555
Cs0_0 P0_6 3.751507 1_455
Cs0_0 P0_2 3.751507 1_555
Cs0_0 P8_0 4.127489 1_555
Cs0_1 P7_5 3.654063 1_455
Cs0_1 P7_1 3.654063 1_555
Cs0_1 P3_5 3.688419 1_455
Cs0_1 P3_1 3.688419 1_555
Cs0_1 P11_1 3.706315 1_555
Cs0_1 P0_7 3.751507 1_455
Cs0_1 P0_3 3.751507 1_555
Cs0_1 P8_1 4.127489 1_555
Cs0_2 P7_6 3.654063 1_455
Cs0_2 P7_2 3.654063 1_555
Cs0_2 P3_6 3.688419 1_455
Cs0_2 P3_2 3.688419 1_555
Cs0_2 P11_2 3.706315 1_555
Cs0_2 P0_4 3.751507 1_465
Cs0_2 P0_0 3.751507 1_565
Cs0_2 P8_2 4.127489 1_555
Cs0_3 P7_7 3.654063 1_455
Cs0_3 P7_3 3.654063 1_555
Cs0_3 P3_7 3.688419 1_455
Cs0_3 P3_3 3.688419 1_555
Cs0_3 P11_3 3.706315 1_555
Cs0_3 P0_5 3.751507 1_465
Cs0_3 P0_1 3.751507 1_565
Cs0_3 P8_3 4.127489 1_555
Cs0_4 P7_0 3.654063 1_555
Cs0_4 P7_4 3.654063 1_555
Cs0_4 P3_0 3.688419 1_555
Cs0_4 P3_4 3.688419 1_555
Cs0_4 P11_4 3.706315 1_555
Cs0_4 P0_6 3.751507 1_555
Cs0_4 P0_2 3.751507 1_555
Cs0_4 P8_4 4.127489 1_555
Cs0_5 P7_1 3.654063 1_555
Cs0_5 P7_5 3.654063 1_555
Cs0_5 P3_1 3.688419 1_555
Cs0_5 P3_5 3.688419 1_555
Cs0_5 P11_5 3.706315 1_555
Cs0_5 P0_7 3.751507 1_555
Cs0_5 P0_3 3.751507 1_555
Cs0_5 P8_5 4.127489 1_555
Cs0_6 P7_2 3.654063 1_555
Cs0_6 P7_6 3.654063 1_555
Cs0_6 P3_2 3.688419 1_555
Cs0_6 P3_6 3.688419 1_555
Cs0_6 P11_6 3.706315 1_555
Cs0_6 P0_0 3.751507 1_565
Cs0_6 P0_4 3.751507 1_565
Cs0_6 P8_6 4.127489 1_555
Cs0_7 P7_3 3.654063 1_555
Cs0_7 P7_7 3.654063 1_555
Cs0_7 P3_3 3.688419 1_555
Cs0_7 P3_7 3.688419 1_555
Cs0_7 P11_7 3.706315 1_555
Cs0_7 P0_1 3.751507 1_565
Cs0_7 P0_5 3.751507 1_565
Cs0_7 P8_7 4.127489 1_555
Na0_0 P3_4 3.036325 1_455
Na0_0 P3_0 3.036325 1_555
Na0_0 P0_4 3.071246 1_455
Na0_0 P0_0 3.071246 1_555
Na0_1 P3_5 3.036325 1_455
Na0_1 P3_1 3.036325 1_555
Na0_1 P0_5 3.071246 1_455
Na0_1 P0_1 3.071246 1_555
Na0_2 P3_6 3.036325 1_455
Na0_2 P3_2 3.036325 1_555
Na0_2 P0_6 3.071246 1_455
Na0_2 P0_2 3.071246 1_555
Na0_3 P3_7 3.036325 1_455
Na0_3 P3_3 3.036325 1_555
Na0_3 P0_7 3.071246 1_455
Na0_3 P0_3 3.071246 1_555
Na0_4 P3_0 3.036325 1_555
Na0_4 P3_4 3.036325 1_555
Na0_4 P0_0 3.071246 1_555
Na0_4 P0_4 3.071246 1_555
Na0_5 P3_1 3.036325 1_555
Na0_5 P3_5 3.036325 1_555
Na0_5 P0_1 3.071246 1_555
Na0_5 P0_5 3.071246 1_555
Na0_6 P3_2 3.036325 1_555
Na0_6 P3_6 3.036325 1_555
Na0_6 P0_2 3.071246 1_555
Na0_6 P0_6 3.071246 1_555
Na0_7 P3_3 3.036325 1_555
Na0_7 P3_7 3.036325 1_555
Na0_7 P0_3 3.071246 1_555
Na0_7 P0_7 3.071246 1_555
Na1_0 P9_0 3.195790 1_555
Na1_0 Si9_0 3.198902 1_555
Na1_0 P2_4 3.217079 1_455
Na1_0 P2_0 3.217079 1_555
Na1_0 P1_4 3.243126 1_455
Na1_0 P1_0 3.243126 1_555
Na1_0 P5_4 3.363523 1_455
Na1_0 P5_0 3.363523 1_555
Na1_1 P9_1 3.195790 1_555
Na1_1 Si9_1 3.198902 1_555
Na1_1 P2_5 3.217079 1_455
Na1_1 P2_1 3.217079 1_555
Na1_1 P1_5 3.243126 1_455
Na1_1 P1_1 3.243126 1_555
Na1_1 P5_5 3.363523 1_455
Na1_1 P5_1 3.363523 1_555
Na1_2 P9_2 3.195790 1_555
Na1_2 Si9_2 3.198902 1_555
Na1_2 P2_6 3.217079 1_455
Na1_2 P2_2 3.217079 1_555
Na1_2 P1_6 3.243126 1_455
Na1_2 P1_2 3.243126 1_555
Na1_2 P5_6 3.363523 1_455
Na1_2 P5_2 3.363523 1_555
Na1_3 P9_3 3.195790 1_555
Na1_3 Si9_3 3.198902 1_555
Na1_3 P2_7 3.217079 1_455
Na1_3 P2_3 3.217079 1_555
Na1_3 P1_7 3.243126 1_455
Na1_3 P1_3 3.243126 1_555
Na1_3 P5_7 3.363523 1_455
Na1_3 P5_3 3.363523 1_555
Na1_4 P9_4 3.195790 1_555
Na1_4 Si9_4 3.198902 1_555
Na1_4 P2_4 3.217079 1_555
Na1_4 P2_0 3.217079 1_555
Na1_4 P1_0 3.243126 1_555
Na1_4 P1_4 3.243126 1_555
Na1_4 P5_0 3.363523 1_555
Na1_4 P5_4 3.363523 1_555
Na1_5 P9_5 3.195790 1_555
Na1_5 Si9_5 3.198902 1_555
Na1_5 P2_1 3.217079 1_555
Na1_5 P2_5 3.217079 1_555
Na1_5 P1_1 3.243126 1_555
Na1_5 P1_5 3.243126 1_555
Na1_5 P5_1 3.363523 1_555
Na1_5 P5_5 3.363523 1_555
Na1_6 P9_6 3.195790 1_555
Na1_6 Si9_6 3.198902 1_555
Na1_6 P2_2 3.217079 1_555
Na1_6 P2_6 3.217079 1_555
Na1_6 P1_2 3.243126 1_555
Na1_6 P1_6 3.243126 1_555
Na1_6 P5_2 3.363523 1_555
Na1_6 P5_6 3.363523 1_555
Na1_7 P9_7 3.195790 1_555
Na1_7 Si9_7 3.198902 1_555
Na1_7 P2_3 3.217079 1_555
Na1_7 P2_7 3.217079 1_555
Na1_7 P1_3 3.243126 1_555
Na1_7 P1_7 3.243126 1_555
Na1_7 P5_3 3.363523 1_555
Na1_7 P5_7 3.363523 1_555
Na2_0 P1_6 3.189637 1_445
Na2_0 P1_2 3.189637 1_545
Na2_0 Si10_0 3.193036 1_555
Na2_0 P10_0 3.219151 1_555
Na2_0 P2_4 3.240523 1_455
Na2_0 P2_0 3.240523 1_555
Na2_0 P6_4 3.445212 1_455
Na2_0 P6_0 3.445212 1_555
Na2_0 Si9_2 3.452433 1_545
Na2_0 Na2_4 3.516122 1_555
Na2_0 Na2_4 3.516122 1_455
Na2_1 P1_7 3.189637 1_445
Na2_1 P1_3 3.189637 1_545
Na2_1 Si10_1 3.193036 1_555
Na2_1 P10_1 3.219151 1_555
Na2_1 P2_5 3.240523 1_455
Na2_1 P2_1 3.240523 1_555
Na2_1 P6_5 3.445212 1_455
Na2_1 P6_1 3.445212 1_555
Na2_1 Si9_3 3.452433 1_545
Na2_1 Na2_5 3.516122 1_555
Na2_1 Na2_5 3.516122 1_455
Na2_2 P1_4 3.189637 1_455
Na2_2 P1_0 3.189637 1_555
Na2_2 Si10_2 3.193036 1_555
Na2_2 P10_2 3.219151 1_555
Na2_2 P2_6 3.240523 1_455
Na2_2 P2_2 3.240523 1_555
Na2_2 P6_6 3.445212 1_455
Na2_2 P6_2 3.445212 1_555
Na2_2 Si9_0 3.452433 1_555
Na2_2 Na2_6 3.516122 1_455
Na2_2 Na2_6 3.516122 1_555
Na2_3 P1_5 3.189637 1_455
Na2_3 P1_1 3.189637 1_555
Na2_3 Si10_3 3.193036 1_555
Na2_3 P10_3 3.219151 1_555
Na2_3 P2_7 3.240523 1_455
Na2_3 P2_3 3.240523 1_555
Na2_3 P6_7 3.445212 1_455
Na2_3 P6_3 3.445212 1_555
Na2_3 Si9_1 3.452433 1_555
Na2_3 Na2_7 3.516122 1_555
Na2_3 Na2_7 3.516122 1_455
Na2_4 P1_2 3.189637 1_545
Na2_4 P1_6 3.189637 1_545
Na2_4 Si10_4 3.193036 1_555
Na2_4 P10_4 3.219151 1_555
Na2_4 P2_0 3.240523 1_555
Na2_4 P2_4 3.240523 1_555
Na2_4 P6_0 3.445212 1_555
Na2_4 P6_4 3.445212 1_555
Na2_4 Si9_6 3.452433 1_545
Na2_5 P1_3 3.189637 1_545
Na2_5 P1_7 3.189637 1_545
Na2_5 Si10_5 3.193036 1_555
Na2_5 P10_5 3.219151 1_555
Na2_5 P2_1 3.240523 1_555
Na2_5 P2_5 3.240523 1_555
Na2_5 P6_1 3.445212 1_555
Na2_5 P6_5 3.445212 1_555
Na2_5 Si9_7 3.452433 1_545
Na2_6 P1_0 3.189637 1_555
Na2_6 P1_4 3.189637 1_555
Na2_6 Si10_6 3.193036 1_555
Na2_6 P10_6 3.219151 1_555
Na2_6 P2_6 3.240523 1_555
Na2_6 P2_2 3.240523 1_555
Na2_6 P6_2 3.445212 1_555
Na2_6 P6_6 3.445212 1_555
Na2_6 Si9_4 3.452433 1_555
Na2_7 P1_1 3.189637 1_555
Na2_7 P1_5 3.189637 1_555
Na2_7 Si10_7 3.193036 1_555
Na2_7 P10_7 3.219151 1_555
Na2_7 P2_7 3.240523 1_555
Na2_7 P2_3 3.240523 1_555
Na2_7 P6_3 3.445212 1_555
Na2_7 P6_7 3.445212 1_555
Na2_7 Si9_5 3.452433 1_555
Si0_0 Si1_1 2.331867 1_554
Si0_1 Si1_0 2.331867 1_555
Si0_2 Si1_3 2.331867 1_554
Si0_3 Si1_2 2.331867 1_555
Si0_4 Si1_5 2.331867 1_554
Si0_5 Si1_4 2.331867 1_555
Si0_6 Si1_7 2.331867 1_554
Si0_7 Si1_6 2.331867 1_555
Si2_0 Si3_2 2.323994 1_545
Si2_1 Si3_3 2.323994 1_545
Si2_2 Si3_0 2.323994 1_555
Si2_3 Si3_1 2.323994 1_555
Si2_4 Si3_6 2.323994 1_545
Si2_5 Si3_7 2.323994 1_545
Si2_6 Si3_4 2.323994 1_555
Si2_7 Si3_5 2.323994 1_555
Si4_0 Si5_3 2.328453 1_544
Si4_0 Si8_0 2.355220 1_555
Si4_1 Si5_2 2.328453 1_545
Si4_1 Si8_1 2.355220 1_555
Si4_2 Si5_1 2.328453 1_554
Si4_2 Si8_2 2.355220 1_555
Si4_3 Si5_0 2.328453 1_555
Si4_3 Si8_3 2.355220 1_555
Si4_4 Si5_7 2.328453 1_544
Si4_4 Si8_4 2.355220 1_555
Si4_5 Si5_6 2.328453 1_545
Si4_5 Si8_5 2.355220 1_555
Si4_6 Si5_5 2.328453 1_554
Si4_6 Si8_6 2.355220 1_555
Si4_7 Si5_4 2.328453 1_555
Si4_7 Si8_7 2.355220 1_555
Si5_0 Si9_0 2.339986 1_555
Si5_1 Si9_1 2.339986 1_555
Si5_2 Si9_2 2.339986 1_555
Si5_3 Si9_3 2.339986 1_555
Si5_4 Si9_4 2.339986 1_555
Si5_5 Si9_5 2.339986 1_555
Si5_6 Si9_6 2.339986 1_555
Si5_7 Si9_7 2.339986 1_555
Si6_0 Si7_0 2.316087 1_555
Si6_1 Si7_1 2.316087 1_555
Si6_2 Si7_2 2.316087 1_555
Si6_3 Si7_3 2.316087 1_555
Si6_4 Si7_4 2.316087 1_555
Si6_5 Si7_5 2.316087 1_555
Si6_6 Si7_6 2.316087 1_555
Si6_7 Si7_7 2.316087 1_555
Si10_0 Si6_0 2.333848 1_555
Si10_1 Si6_1 2.333848 1_555
Si10_2 Si6_2 2.333848 1_555
Si10_3 Si6_3 2.333848 1_555
Si10_4 Si6_4 2.333848 1_555
Si10_5 Si6_5 2.333848 1_555
Si10_6 Si6_6 2.333848 1_555
Si10_7 Si6_7 2.333848 1_555
Si11_0 Si7_0 2.326881 1_555
Si11_1 Si7_1 2.326881 1_555
Si11_2 Si7_2 2.326881 1_555
Si11_3 Si7_3 2.326881 1_555
Si11_4 Si7_4 2.326881 1_555
Si11_5 Si7_5 2.326881 1_555
Si11_6 Si7_6 2.326881 1_555
Si11_7 Si7_7 2.326881 1_555
P0_0 Si8_0 2.221894 1_555
P0_0 Si8_4 2.221894 1_555
P0_1 Si8_5 2.221894 1_555
P0_1 Si8_1 2.221894 1_555
P0_2 Si8_2 2.221894 1_555
P0_2 Si8_6 2.221894 1_555
P0_3 Si8_7 2.221894 1_555
P0_3 Si8_3 2.221894 1_555
P0_4 Si8_0 2.221894 1_655
P0_4 Si8_4 2.221894 1_555
P0_5 Si8_1 2.221894 1_655
P0_5 Si8_5 2.221894 1_555
P0_6 Si8_2 2.221894 1_655
P0_6 Si8_6 2.221894 1_555
P0_7 Si8_3 2.221894 1_655
P0_7 Si8_7 2.221894 1_555
P1_0 Si9_4 2.227574 1_555
P1_0 Si9_0 2.227574 1_555
P1_1 Si9_1 2.227574 1_555
P1_1 Si9_5 2.227574 1_555
P1_2 Si9_6 2.227574 1_555
P1_2 Si9_2 2.227574 1_555
P1_3 Si9_3 2.227574 1_555
P1_3 Si9_7 2.227574 1_555
P1_4 Si9_0 2.227574 1_655
P1_4 Si9_4 2.227574 1_555
P1_5 Si9_1 2.227574 1_655
P1_5 Si9_5 2.227574 1_555
P1_6 Si9_2 2.227574 1_655
P1_6 Si9_6 2.227574 1_555
P1_7 Si9_3 2.227574 1_655
P1_7 Si9_7 2.227574 1_555
P2_0 Si10_0 2.229160 1_555
P2_0 Si10_4 2.229160 1_555
P2_1 Si10_5 2.229160 1_555
P2_1 Si10_1 2.229160 1_555
P2_2 Si10_6 2.229160 1_555
P2_2 Si10_2 2.229160 1_555
P2_3 Si10_3 2.229160 1_555
P2_3 Si10_7 2.229160 1_555
P2_4 Si10_0 2.229160 1_655
P2_4 Si10_4 2.229160 1_555
P2_5 Si10_1 2.229160 1_655
P2_5 Si10_5 2.229160 1_555
P2_6 Si10_2 2.229160 1_655
P2_6 Si10_6 2.229160 1_555
P2_7 Si10_3 2.229160 1_655
P2_7 Si10_7 2.229160 1_555
P3_0 Si11_0 2.219891 1_555
P3_0 Si11_4 2.219891 1_555
P3_1 Si11_5 2.219891 1_555
P3_1 Si11_1 2.219891 1_555
P3_2 Si11_2 2.219891 1_555
P3_2 Si11_6 2.219891 1_555
P3_3 Si11_7 2.219891 1_555
P3_3 Si11_3 2.219891 1_555
P3_4 Si11_0 2.219891 1_655
P3_4 Si11_4 2.219891 1_555
P3_5 Si11_1 2.219891 1_655
P3_5 Si11_5 2.219891 1_555
P3_6 Si11_2 2.219891 1_655
P3_6 Si11_6 2.219891 1_555
P3_7 Si11_3 2.219891 1_655
P3_7 Si11_7 2.219891 1_555
P4_0 Si6_4 2.270079 1_555
P4_0 Si6_0 2.270079 1_555
P4_0 Si2_0 2.309292 1_555
P4_1 Si6_5 2.270079 1_555
P4_1 Si6_1 2.270079 1_555
P4_1 Si2_1 2.309292 1_555
P4_2 Si6_2 2.270079 1_555
P4_2 Si6_6 2.270079 1_555
P4_2 Si2_2 2.309292 1_555
P4_3 Si6_3 2.270079 1_555
P4_3 Si6_7 2.270079 1_555
P4_3 Si2_3 2.309292 1_555
P4_4 Si6_0 2.270079 1_655
P4_4 Si6_4 2.270079 1_555
P4_4 Si2_4 2.309292 1_555
P4_5 Si6_1 2.270079 1_655
P4_5 Si6_5 2.270079 1_555
P4_5 Si2_5 2.309292 1_555
P4_6 Si6_2 2.270079 1_655
P4_6 Si6_6 2.270079 1_555
P4_6 Si2_6 2.309292 1_555
P4_7 Si6_3 2.270079 1_655
P4_7 Si6_7 2.270079 1_555
P4_7 Si2_7 2.309292 1_555
P5_0 Si7_0 2.270159 1_555
P5_0 Si7_4 2.270159 1_555
P5_0 Si3_0 2.311829 1_555
P5_1 Si7_5 2.270159 1_555
P5_1 Si7_1 2.270159 1_555
P5_1 Si3_1 2.311829 1_555
P5_2 Si7_6 2.270159 1_555
P5_2 Si7_2 2.270159 1_555
P5_2 Si3_2 2.311829 1_555
P5_3 Si7_7 2.270159 1_555
P5_3 Si7_3 2.270159 1_555
P5_3 Si3_3 2.311829 1_555
P5_4 Si7_0 2.270159 1_655
P5_4 Si7_4 2.270159 1_555
P5_4 Si3_4 2.311829 1_555
P5_5 Si7_1 2.270159 1_655
P5_5 Si7_5 2.270159 1_555
P5_5 Si3_5 2.311829 1_555
P5_6 Si7_2 2.270159 1_655
P5_6 Si7_6 2.270159 1_555
P5_6 Si3_6 2.311829 1_555
P5_7 Si7_3 2.270159 1_655
P5_7 Si7_7 2.270159 1_555
P5_7 Si3_7 2.311829 1_555
P6_0 Si4_1 2.273761 1_555
P6_0 Si4_5 2.273761 1_555
P6_0 Si0_1 2.302925 1_555
P6_1 Si4_0 2.273761 1_556
P6_1 Si4_4 2.273761 1_556
P6_1 Si0_0 2.302925 1_556
P6_2 Si4_3 2.273761 1_555
P6_2 Si4_7 2.273761 1_555
P6_2 Si0_3 2.302925 1_555
P6_3 Si4_6 2.273761 1_556
P6_3 Si4_2 2.273761 1_556
P6_3 Si0_2 2.302925 1_556
P6_4 Si4_1 2.273761 1_655
P6_4 Si4_5 2.273761 1_555
P6_4 Si0_5 2.302925 1_555
P6_5 Si4_0 2.273761 1_656
P6_5 Si4_4 2.273761 1_556
P6_5 Si0_4 2.302925 1_556
P6_6 Si4_3 2.273761 1_655
P6_6 Si4_7 2.273761 1_555
P6_6 Si0_7 2.302925 1_555
P6_7 Si4_2 2.273761 1_656
P6_7 Si4_6 2.273761 1_556
P6_7 Si0_6 2.302925 1_556
P7_0 Si5_5 2.263489 1_554
P7_0 Si5_1 2.263489 1_554
P7_0 Si1_1 2.297616 1_554
P7_1 Si5_0 2.263489 1_555
P7_1 Si5_4 2.263489 1_555
P7_1 Si1_0 2.297616 1_555
P7_2 Si5_3 2.263489 1_554
P7_2 Si5_7 2.263489 1_554
P7_2 Si1_3 2.297616 1_554
P7_3 Si5_6 2.263489 1_555
P7_3 Si5_2 2.263489 1_555
P7_3 Si1_2 2.297616 1_555
P7_4 Si5_1 2.263489 1_654
P7_4 Si5_5 2.263489 1_554
P7_4 Si1_5 2.297616 1_554
P7_5 Si5_0 2.263489 1_655
P7_5 Si5_4 2.263489 1_555
P7_5 Si1_4 2.297616 1_555
P7_6 Si5_3 2.263489 1_654
P7_6 Si5_7 2.263489 1_554
P7_6 Si1_7 2.297616 1_554
P7_7 Si5_2 2.263489 1_655
P7_7 Si5_6 2.263489 1_555
P7_7 Si1_6 2.297616 1_555
P8_0 Si0_4 2.260828 1_455
P8_0 Si0_0 2.260828 1_555
P8_0 Si8_0 2.309620 1_555
P8_1 Si0_5 2.260828 1_455
P8_1 Si0_1 2.260828 1_555
P8_1 Si8_1 2.309620 1_555
P8_2 Si0_6 2.260828 1_455
P8_2 Si0_2 2.260828 1_555
P8_2 Si8_2 2.309620 1_555
P8_3 Si0_7 2.260828 1_455
P8_3 Si0_3 2.260828 1_555
P8_3 Si8_3 2.309620 1_555
P8_4 Si0_0 2.260828 1_555
P8_4 Si0_4 2.260828 1_555
P8_4 Si8_4 2.309620 1_555
P8_5 Si0_1 2.260828 1_555
P8_5 Si0_5 2.260828 1_555
P8_5 Si8_5 2.309620 1_555
P8_6 Si0_2 2.260828 1_555
P8_6 Si0_6 2.260828 1_555
P8_6 Si8_6 2.309620 1_555
P8_7 Si0_3 2.260828 1_555
P8_7 Si0_7 2.260828 1_555
P8_7 Si8_7 2.309620 1_555
P9_0 Si1_4 2.251201 1_455
P9_0 Si1_0 2.251201 1_555
P9_0 Si9_0 2.306947 1_555
P9_1 Si1_5 2.251201 1_455
P9_1 Si1_1 2.251201 1_555
P9_1 Si9_1 2.306947 1_555
P9_2 Si1_6 2.251201 1_455
P9_2 Si1_2 2.251201 1_555
P9_2 Si9_2 2.306947 1_555
P9_3 Si1_7 2.251201 1_455
P9_3 Si1_3 2.251201 1_555
P9_3 Si9_3 2.306947 1_555
P9_4 Si1_0 2.251201 1_555
P9_4 Si1_4 2.251201 1_555
P9_4 Si9_4 2.306947 1_555
P9_5 Si1_1 2.251201 1_555
P9_5 Si1_5 2.251201 1_555
P9_5 Si9_5 2.306947 1_555
P9_6 Si1_2 2.251201 1_555
P9_6 Si1_6 2.251201 1_555
P9_6 Si9_6 2.306947 1_555
P9_7 Si1_3 2.251201 1_555
P9_7 Si1_7 2.251201 1_555
P9_7 Si9_7 2.306947 1_555
P10_0 Si2_4 2.254190 1_455
P10_0 Si2_0 2.254190 1_555
P10_0 Si10_0 2.302160 1_555
P10_1 Si2_5 2.254190 1_455
P10_1 Si2_1 2.254190 1_555
P10_1 Si10_1 2.302160 1_555
P10_2 Si2_6 2.254190 1_455
P10_2 Si2_2 2.254190 1_555
P10_2 Si10_2 2.302160 1_555
P10_3 Si2_7 2.254190 1_455
P10_3 Si2_3 2.254190 1_555
P10_3 Si10_3 2.302160 1_555
P10_4 Si2_0 2.254190 1_555
P10_4 Si2_4 2.254190 1_555
P10_4 Si10_4 2.302160 1_555
P10_5 Si2_1 2.254190 1_555
P10_5 Si2_5 2.254190 1_555
P10_5 Si10_5 2.302160 1_555
P10_6 Si2_2 2.254190 1_555
P10_6 Si2_6 2.254190 1_555
P10_6 Si10_6 2.302160 1_555
P10_7 Si2_3 2.254190 1_555
P10_7 Si2_7 2.254190 1_555
P10_7 Si10_7 2.302160 1_555
P11_0 Si3_4 2.255315 1_455
P11_0 Si3_0 2.255315 1_555
P11_0 Si11_0 2.305330 1_555
P11_1 Si3_5 2.255315 1_455
P11_1 Si3_1 2.255315 1_555
P11_1 Si11_1 2.305330 1_555
P11_2 Si3_6 2.255315 1_455
P11_2 Si3_2 2.255315 1_555
P11_2 Si11_2 2.305330 1_555
P11_3 Si3_7 2.255315 1_455
P11_3 Si3_3 2.255315 1_555
P11_3 Si11_3 2.305330 1_555
P11_4 Si3_0 2.255315 1_555
P11_4 Si3_4 2.255315 1_555
P11_4 Si11_4 2.305330 1_555
P11_5 Si3_1 2.255315 1_555
P11_5 Si3_5 2.255315 1_555
P11_5 Si11_5 2.305330 1_555
P11_6 Si3_2 2.255315 1_555
P11_6 Si3_6 2.255315 1_555
P11_6 Si11_6 2.305330 1_555
P11_7 Si3_3 2.255315 1_555
P11_7 Si3_7 2.255315 1_555
P11_7 Si11_7 2.305330 1_555
