# generated using pymatgen
data_K3Ba3GaBi4
_symmetry_space_group_name_H-M   'P 1'
_cell_length_a   11.21988914
_cell_length_b   11.21988900
_cell_length_c   8.55657011
_cell_angle_alpha   90.00000000
_cell_angle_beta   90.00000000
_cell_angle_gamma   120.00000044
_symmetry_Int_Tables_number   1
_chemical_formula_structural   K3Ba3GaBi4
_chemical_formula_sum   'K6 Ba6 Ga2 Bi8'
_cell_volume   932.84066401
_cell_formula_units_Z   2
loop_
 _symmetry_equiv_pos_site_id
 _symmetry_equiv_pos_as_xyz
  1  'x, y, z'
loop_
 _atom_site_type_symbol
 _atom_site_label
 _atom_site_symmetry_multiplicity
 _atom_site_fract_x
 _atom_site_fract_y
 _atom_site_fract_z
 _atom_site_occupancy
  K  K0  1  0.86200029  0.72400157  0.96240647  1
  K  K1  1  0.86200029  0.13799971  0.96240647  1
  K  K2  1  0.13799971  0.27599843  0.46240647  1
  K  K3  1  0.27599843  0.13799971  0.96240647  1
  K  K4  1  0.13799971  0.86200029  0.46240647  1
  K  K5  1  0.72400157  0.86200029  0.46240647  1
  Ba  Ba0  1  0.48217760  0.96435421  0.77561598  1
  Ba  Ba1  1  0.48217760  0.51782240  0.77561598  1
  Ba  Ba2  1  0.51782240  0.03564579  0.27561598  1
  Ba  Ba3  1  0.03564579  0.51782240  0.77561598  1
  Ba  Ba4  1  0.51782240  0.48217760  0.27561598  1
  Ba  Ba5  1  0.96435421  0.48217760  0.27561598  1
  Ga  Ga0  1  0.66666700  0.33333300  0.65675389  1
  Ga  Ga1  1  0.33333300  0.66666700  0.15675389  1
  Bi  Bi0  1  0.66666700  0.33333300  0.99591844  1
  Bi  Bi1  1  0.33333300  0.66666700  0.49591844  1
  Bi  Bi2  1  0.80427103  0.60854305  0.55322178  1
  Bi  Bi3  1  0.80427103  0.19572897  0.55322178  1
  Bi  Bi4  1  0.19572897  0.39145695  0.05322178  1
  Bi  Bi5  1  0.39145695  0.19572897  0.55322178  1
  Bi  Bi6  1  0.19572897  0.80427103  0.05322178  1
  Bi  Bi7  1  0.60854305  0.80427103  0.05322178  1
loop_
_geom_bond_atom_site_label_1
_geom_bond_atom_site_label_2
_geom_bond_distance
_geom_bond_site_symmetry_2
Ba0 Bi7 3.664022 1_556
Ba0 Bi6 3.664022 1_556
Ba0 Ga0 3.726725 1_565
Ba0 Bi3 3.746830 1_565
Ba0 Bi5 3.746843 1_565
Ba0 Bi1 3.754256 1_555
Ba0 Bi0 4.050609 1_565
Ba1 Bi7 3.664022 1_556
Ba1 Bi4 3.664022 1_556
Ba1 Ga0 3.726725 1_555
Ba1 Bi5 3.746825 1_555
Ba1 Bi2 3.746825 1_555
Ba1 Bi1 3.754271 1_555
Ba1 Bi0 4.050609 1_555
Ba2 Bi5 3.664022 1_555
Ba2 Bi3 3.664022 1_555
Ba2 Ga1 3.726725 1_545
Ba2 Bi6 3.746830 1_545
Ba2 Bi7 3.746843 1_545
Ba2 Bi0 3.754256 1_554
Ba2 Bi1 4.050609 1_545
Ba3 Bi6 3.664022 1_556
Ba3 Bi4 3.664022 1_556
Ba3 Ga0 3.726725 1_455
Ba3 Bi3 3.746830 1_455
Ba3 Bi2 3.746843 1_455
Ba3 Bi1 3.754256 1_555
Ba3 Bi0 4.050609 1_455
Ba4 Bi5 3.664022 1_555
Ba4 Bi2 3.664022 1_555
Ba4 Ga1 3.726725 1_555
Ba4 Bi7 3.746825 1_555
Ba4 Bi4 3.746825 1_555
Ba4 Bi0 3.754271 1_554
Ba4 Bi1 4.050609 1_555
Ba5 Bi3 3.664022 1_555
Ba5 Bi2 3.664022 1_555
Ba5 Ga1 3.726725 1_655
Ba5 Bi6 3.746830 1_655
Ba5 Bi4 3.746843 1_655
Ba5 Bi0 3.754256 1_554
Ba5 Bi1 4.050609 1_655
Bi0 Ga0 2.902085 1_555
Bi0 K1 3.806808 1_555
Bi0 K0 3.806828 1_555
Bi0 K3 3.806828 1_555
Bi1 Ga1 2.902085 1_555
Bi1 K4 3.806808 1_555
Bi1 K2 3.806828 1_555
Bi1 K5 3.806828 1_555
Bi2 Ga0 2.817053 1_555
Bi2 K5 3.473191 1_555
Bi2 K4 3.473206 1_655
Bi2 K0 3.676565 1_555
Bi3 Ga0 2.817034 1_555
Bi3 K5 3.473212 1_545
Bi3 K2 3.473212 1_655
Bi3 K1 3.676565 1_555
Bi4 Ga1 2.817053 1_555
Bi4 K3 3.473191 1_554
Bi4 K1 3.473206 1_454
Bi4 K2 3.676565 1_555
Bi5 Ga0 2.817053 1_555
Bi5 K2 3.473191 1_555
Bi5 K4 3.473206 1_545
Bi5 K3 3.676565 1_555
Bi6 Ga1 2.817034 1_555
Bi6 K3 3.473212 1_564
Bi6 K0 3.473212 1_454
Bi6 K4 3.676565 1_555
Bi7 Ga1 2.817053 1_555
Bi7 K0 3.473191 1_554
Bi7 K1 3.473206 1_564
Bi7 K5 3.676565 1_555
