# generated using pymatgen
data_Cr3Ag2SbSe8
_symmetry_space_group_name_H-M   'P 1'
_cell_length_a   7.76811641
_cell_length_b   7.76811681
_cell_length_c   7.76811610
_cell_angle_alpha   58.46235531
_cell_angle_beta   58.46235138
_cell_angle_gamma   58.46236717
_symmetry_Int_Tables_number   1
_chemical_formula_structural   Cr3Ag2SbSe8
_chemical_formula_sum   'Cr3 Ag2 Sb1 Se8'
_cell_volume   319.79925221
_cell_formula_units_Z   1
loop_
 _symmetry_equiv_pos_site_id
 _symmetry_equiv_pos_as_xyz
  1  'x, y, z'
loop_
 _atom_site_type_symbol
 _atom_site_label
 _atom_site_symmetry_multiplicity
 _atom_site_fract_x
 _atom_site_fract_y
 _atom_site_fract_z
 _atom_site_occupancy
  Cr  Cr0  1  0.50000000  0.00000000  0.50000000  1
  Cr  Cr1  1  0.50000000  0.50000000  0.00000000  1
  Cr  Cr2  1  0.00000000  0.50000000  0.50000000  1
  Ag  Ag0  1  0.13378163  0.13378163  0.13378163  1
  Ag  Ag1  1  0.86621837  0.86621837  0.86621837  1
  Sb  Sb0  1  0.50000000  0.50000000  0.50000000  1
  Se  Se0  1  0.25043743  0.71904308  0.25043743  1
  Se  Se1  1  0.74956257  0.74956257  0.28095692  1
  Se  Se2  1  0.28095692  0.74956257  0.74956257  1
  Se  Se3  1  0.73425903  0.73425903  0.73425903  1
  Se  Se4  1  0.71904308  0.25043743  0.25043743  1
  Se  Se5  1  0.26574097  0.26574097  0.26574097  1
  Se  Se6  1  0.74956257  0.28095692  0.74956257  1
  Se  Se7  1  0.25043743  0.25043743  0.71904308  1
loop_
_geom_bond_atom_site_label_1
_geom_bond_atom_site_label_2
_geom_bond_distance
_geom_bond_site_symmetry_2
Cr0 Se3 2.547358 1_545
Cr0 Se5 2.547358 1_555
Cr0 Se4 2.550482 1_555
Cr0 Se2 2.550482 1_545
Cr0 Se7 2.550482 1_555
Cr0 Se1 2.550482 1_545
Cr1 Se3 2.547358 1_554
Cr1 Se5 2.547358 1_555
Cr1 Se0 2.550482 1_555
Cr1 Se6 2.550482 1_554
Cr1 Se4 2.550482 1_555
Cr1 Se2 2.550482 1_554
Cr2 Se3 2.547358 1_455
Cr2 Se5 2.547358 1_555
Cr2 Se0 2.550482 1_555
Cr2 Se6 2.550482 1_455
Cr2 Se7 2.550482 1_555
Cr2 Se1 2.550482 1_455
Ag0 Se5 2.539696 1_555
Ag0 Se7 2.602442 1_554
Ag0 Se4 2.602442 1_455
Ag0 Se0 2.602442 1_545
Ag1 Se3 2.539696 1_555
Ag1 Se1 2.602442 1_556
Ag1 Se2 2.602442 1_655
Ag1 Se6 2.602442 1_565
Sb0 Se1 2.727976 1_555
Sb0 Se7 2.727976 1_555
Sb0 Se2 2.727977 1_555
Sb0 Se4 2.727977 1_555
Sb0 Se6 2.727977 1_555
Sb0 Se0 2.727977 1_555
