# generated using pymatgen
data_RbMnP2Os
_symmetry_space_group_name_H-M   'P 1'
_cell_length_a   7.53634309
_cell_length_b   7.53634263
_cell_length_c   7.53634341
_cell_angle_alpha   150.17161668
_cell_angle_beta   150.17160557
_cell_angle_gamma   42.68955235
_symmetry_Int_Tables_number   1
_chemical_formula_structural   RbMnP2Os
_chemical_formula_sum   'Rb1 Mn1 P2 Os1'
_cell_volume   105.63424884
_cell_formula_units_Z   1
loop_
 _symmetry_equiv_pos_site_id
 _symmetry_equiv_pos_as_xyz
  1  'x, y, z'
loop_
 _atom_site_type_symbol
 _atom_site_label
 _atom_site_symmetry_multiplicity
 _atom_site_fract_x
 _atom_site_fract_y
 _atom_site_fract_z
 _atom_site_occupancy
  Rb  Rb0  1  0.00000000  0.00000000  0.00000000  1
  Mn  Mn0  1  0.25000000  0.75000000  0.50000000  1
  P  P0  1  0.65722639  0.65722639  0.00000000  1
  P  P1  1  0.34277361  0.34277361  1.00000000  1
  Os  Os0  1  0.75000000  0.25000000  0.50000000  1
loop_
_geom_bond_atom_site_label_1
_geom_bond_atom_site_label_2
_geom_bond_distance
_geom_bond_site_symmetry_2
Mn0 P1 2.336353 1_565
Mn0 P1 2.336354 1_554
Mn0 P0 2.336354 1_455
Mn0 P0 2.336354 1_556
Mn0 Os0 2.743072 1_555
Mn0 Os0 2.743072 1_465
Mn0 Os0 2.743073 1_566
Mn0 Os0 2.743073 1_454
P0 Rb0 3.520865 1_655
P0 Rb0 3.520865 1_554
P0 Rb0 3.520865 1_565
P0 Rb0 3.520866 1_666
P1 Rb0 3.520865 1_566
P1 Rb0 3.520865 1_667
P1 Rb0 3.520865 1_656
P1 Rb0 3.520866 1_555
Os0 P0 2.336353 1_545
Os0 P0 2.336354 1_556
Os0 P1 2.336354 1_655
Os0 P1 2.336354 1_554
