# generated using pymatgen
data_Be8Re2SiW
_symmetry_space_group_name_H-M   'P 1'
_cell_length_a   4.34895221
_cell_length_b   4.34895371
_cell_length_c   7.10919271
_cell_angle_alpha   90.00000000
_cell_angle_beta   90.00000000
_cell_angle_gamma   120.00000360
_symmetry_Int_Tables_number   1
_chemical_formula_structural   Be8Re2SiW
_chemical_formula_sum   'Be8 Re2 Si1 W1'
_cell_volume   116.44485990
_cell_formula_units_Z   1
loop_
 _symmetry_equiv_pos_site_id
 _symmetry_equiv_pos_as_xyz
  1  'x, y, z'
loop_
 _atom_site_type_symbol
 _atom_site_label
 _atom_site_symmetry_multiplicity
 _atom_site_fract_x
 _atom_site_fract_y
 _atom_site_fract_z
 _atom_site_occupancy
  Be  Be0  1  0.00000000  0.00000000  0.99283045  1
  Be  Be1  1  0.00000000  0.00000000  0.50185916  1
  Be  Be2  1  0.83262376  0.66524652  0.25572659  1
  Be  Be3  1  0.17084216  0.82915784  0.74501985  1
  Be  Be4  1  0.65831768  0.82915784  0.74501985  1
  Be  Be5  1  0.33475348  0.16737624  0.25572659  1
  Be  Be6  1  0.83262376  0.16737624  0.25572659  1
  Be  Be7  1  0.17084216  0.34168232  0.74501985  1
  Re  Re0  1  0.66666700  0.33333300  0.93799507  1
  Re  Re1  1  0.33333300  0.66666700  0.43924067  1
  Si  Si0  1  0.66666700  0.33333300  0.56367980  1
  W  W0  1  0.33333300  0.66666700  0.06215753  1
loop_
_geom_bond_atom_site_label_1
_geom_bond_atom_site_label_2
_geom_bond_distance
_geom_bond_site_symmetry_2
Be0 Be4 2.181688 1_445
Be0 Be7 2.181688 1_555
Be0 Be3 2.181692 1_545
Be0 Be6 2.254473 1_456
Be0 Be5 2.254475 1_556
Be0 Be2 2.254475 1_446
Be0 Re0 2.540949 1_455
Be0 Re0 2.540952 1_555
Be0 Re0 2.540953 1_445
Be0 W0 2.558781 1_546
Be0 W0 2.558785 1_446
Be0 W0 2.558785 1_556
Be1 Be4 2.155082 1_445
Be1 Be7 2.155082 1_555
Be1 Be3 2.155087 1_545
Be1 Be6 2.156706 1_455
Be1 Be5 2.156708 1_555
Be1 Be2 2.156708 1_445
Be1 Si0 2.549040 1_455
Be1 Si0 2.549044 1_555
Be1 Si0 2.549044 1_445
Be1 Re1 2.550025 1_545
Be1 Re1 2.550028 1_445
Be1 Re1 2.550029 1_555
Be2 Be5 2.165214 1_555
Be2 Be6 2.165215 1_555
Be2 Be5 2.183738 1_665
Be2 Be6 2.183739 1_565
Be2 Si0 2.521061 1_555
Be2 Re1 2.535830 1_655
Be2 Re1 2.535837 1_555
Be2 W0 2.573337 1_655
Be2 W0 2.573344 1_555
Be2 Re0 2.581659 1_554
Be3 Be4 2.120008 1_555
Be3 Be7 2.120008 1_555
Be3 Be4 2.228944 1_455
Be3 Be7 2.228945 1_565
Be3 Re1 2.494739 1_555
Be3 Si0 2.528107 1_455
Be3 Si0 2.528107 1_565
Be3 W0 2.565407 1_556
Be3 Re0 2.571272 1_455
Be3 Re0 2.571272 1_565
Be4 Be7 2.120008 1_555
Be4 Be7 2.228945 1_665
Be4 Re1 2.494744 1_555
Be4 Si0 2.528106 1_555
Be4 Si0 2.528109 1_565
Be4 W0 2.565413 1_556
Be4 Re0 2.571271 1_555
Be4 Re0 2.571274 1_565
Be5 Be6 2.165214 1_555
Be5 Be6 2.183738 1_455
Be5 Si0 2.521061 1_555
Be5 Re1 2.535831 1_545
Be5 Re1 2.535838 1_555
Be5 W0 2.573337 1_545
Be5 W0 2.573345 1_555
Be5 Re0 2.581658 1_554
Be6 Si0 2.521061 1_555
Be6 Re1 2.535834 1_655
Be6 Re1 2.535834 1_545
Be6 W0 2.573341 1_655
Be6 W0 2.573341 1_545
Be6 Re0 2.581659 1_554
Be7 Re1 2.494744 1_555
Be7 Si0 2.528105 1_555
Be7 Si0 2.528109 1_455
Be7 W0 2.565413 1_556
Be7 Re0 2.571270 1_555
Be7 Re0 2.571274 1_455
Re0 Si0 2.661079 1_555
Re0 W0 2.661503 1_656
Re0 W0 2.661504 1_546
Re0 W0 2.661511 1_556
Re1 Si0 2.662156 1_455
Re1 Si0 2.662157 1_565
Re1 Si0 2.662164 1_555
Re1 W0 2.680757 1_555
