# generated using pymatgen
data_Sr4W(IN2)2
_symmetry_space_group_name_H-M   'P 1'
_cell_length_a   6.21098061
_cell_length_b   8.08710407
_cell_length_c   11.15801943
_cell_angle_alpha   82.31662766
_cell_angle_beta   90.00000000
_cell_angle_gamma   90.00000000
_symmetry_Int_Tables_number   1
_chemical_formula_structural   Sr4W(IN2)2
_chemical_formula_sum   'Sr8 W2 I4 N8'
_cell_volume   555.42270975
_cell_formula_units_Z   2
loop_
 _symmetry_equiv_pos_site_id
 _symmetry_equiv_pos_as_xyz
  1  'x, y, z'
loop_
 _atom_site_type_symbol
 _atom_site_label
 _atom_site_symmetry_multiplicity
 _atom_site_fract_x
 _atom_site_fract_y
 _atom_site_fract_z
 _atom_site_occupancy
  Sr  Sr0  1  0.75000000  0.27901760  0.31521214  1
  Sr  Sr1  1  0.75000000  0.00650422  0.61138103  1
  Sr  Sr2  1  0.75000000  0.44867927  0.60362330  1
  Sr  Sr3  1  0.75000000  0.80373904  0.11648278  1
  Sr  Sr4  1  0.25000000  0.99349578  0.38861897  1
  Sr  Sr5  1  0.25000000  0.55132073  0.39637670  1
  Sr  Sr6  1  0.25000000  0.19626096  0.88351722  1
  Sr  Sr7  1  0.25000000  0.72098240  0.68478786  1
  W  W0  1  0.75000000  0.77005453  0.40059434  1
  W  W1  1  0.25000000  0.22994547  0.59940566  1
  I  I0  1  0.25000000  0.32597340  0.16284545  1
  I  I1  1  0.75000000  0.67402660  0.83715455  1
  I  I2  1  0.25000000  0.83766016  0.09682251  1
  I  I3  1  0.75000000  0.16233984  0.90317749  1
  N  N0  1  0.25000000  0.03255751  0.70528932  1
  N  N1  1  0.00271958  0.24438480  0.49926619  1
  N  N2  1  0.50271958  0.75561520  0.50073381  1
  N  N3  1  0.99728042  0.75561520  0.50073381  1
  N  N4  1  0.75000000  0.59774046  0.30528101  1
  N  N5  1  0.75000000  0.96744249  0.29471068  1
  N  N6  1  0.49728042  0.24438480  0.49926619  1
  N  N7  1  0.25000000  0.40225954  0.69471899  1
loop_
_geom_bond_atom_site_label_1
_geom_bond_atom_site_label_2
_geom_bond_distance
_geom_bond_site_symmetry_2
I0 Sr5 3.373556 1_555
I0 Sr6 3.418885 1_554
I0 Sr4 3.429958 1_545
I0 Sr0 3.536385 1_455
I0 Sr0 3.536385 1_555
I1 Sr2 3.373556 1_555
I1 Sr3 3.418885 1_556
I1 Sr1 3.429958 1_565
I1 Sr7 3.536385 1_555
I1 Sr7 3.536385 1_655
I2 Sr3 3.122716 1_455
I2 Sr3 3.122716 1_555
I2 Sr6 3.497041 1_564
I2 Sr4 3.645016 1_555
I2 Sr5 3.803220 1_555
I3 Sr6 3.122716 1_655
I3 Sr6 3.122716 1_555
I3 Sr3 3.497041 1_546
I3 Sr1 3.645016 1_555
I3 Sr2 3.803220 1_555
N0 W1 1.854642 1_555
N0 Sr6 2.532091 1_555
N0 Sr7 2.560381 1_545
N0 Sr1 3.293242 1_555
N0 Sr1 3.293242 1_455
N1 W1 1.893696 1_555
N1 Sr0 2.570213 1_455
N1 Sr2 2.657752 1_455
N1 Sr1 2.661966 1_455
N1 Sr4 2.944421 1_545
N1 Sr5 3.012686 1_555
N2 W0 1.893696 1_555
N2 Sr7 2.570213 1_555
N2 Sr5 2.657752 1_555
N2 Sr4 2.661966 1_555
N2 Sr1 2.944421 1_565
N2 Sr2 3.012686 1_555
N3 W0 1.893696 1_555
N3 Sr7 2.570213 1_655
N3 Sr5 2.657752 1_655
N3 Sr4 2.661966 1_655
N3 Sr1 2.944421 1_565
N3 Sr2 3.012686 1_555
N4 W0 1.862590 1_555
N4 Sr3 2.504941 1_555
N4 Sr0 2.565081 1_555
N5 W0 1.854642 1_555
N5 Sr3 2.532091 1_555
N5 Sr0 2.560381 1_565
N5 Sr4 3.293242 1_555
N5 Sr4 3.293242 1_655
N6 W1 1.893696 1_555
N6 Sr0 2.570213 1_555
N6 Sr2 2.657752 1_555
N6 Sr1 2.661966 1_555
N6 Sr4 2.944421 1_545
N6 Sr5 3.012686 1_555
N7 W1 1.862590 1_555
N7 Sr6 2.504941 1_555
N7 Sr7 2.565081 1_555
