# generated using pymatgen
data_Na16HfGeAs8
_symmetry_space_group_name_H-M   'P 1'
_cell_length_a   9.75671019
_cell_length_b   9.75671076
_cell_length_c   9.75671116
_cell_angle_alpha   60.00000190
_cell_angle_beta   59.99999998
_cell_angle_gamma   60.00000191
_symmetry_Int_Tables_number   1
_chemical_formula_structural   Na16HfGeAs8
_chemical_formula_sum   'Na16 Hf1 Ge1 As8'
_cell_volume   656.74276691
_cell_formula_units_Z   1
loop_
 _symmetry_equiv_pos_site_id
 _symmetry_equiv_pos_as_xyz
  1  'x, y, z'
loop_
 _atom_site_type_symbol
 _atom_site_label
 _atom_site_symmetry_multiplicity
 _atom_site_fract_x
 _atom_site_fract_y
 _atom_site_fract_z
 _atom_site_occupancy
  Na  Na0  1  0.62954941  0.62954941  0.11135177  1
  Na  Na1  1  0.62954941  0.11135177  0.62954941  1
  Na  Na2  1  0.11135177  0.62954941  0.62954941  1
  Na  Na3  1  0.62954941  0.62954941  0.62954941  1
  Na  Na4  1  0.03077609  0.46922391  0.46922391  1
  Na  Na5  1  0.77162562  0.22837438  0.22837438  1
  Na  Na6  1  0.46922391  0.03077609  0.46922391  1
  Na  Na7  1  0.46922391  0.46922391  0.03077609  1
  Na  Na8  1  0.03077609  0.03077609  0.46922391  1
  Na  Na9  1  0.03077609  0.46922391  0.03077609  1
  Na  Na10  1  0.46922391  0.03077609  0.03077609  1
  Na  Na11  1  0.77162562  0.22837438  0.77162562  1
  Na  Na12  1  0.22837438  0.77162562  0.22837438  1
  Na  Na13  1  0.22837438  0.22837438  0.77162562  1
  Na  Na14  1  0.77162562  0.77162562  0.22837438  1
  Na  Na15  1  0.22837438  0.77162562  0.77162562  1
  Hf  Hf0  1  0.50000000  0.50000000  0.50000000  1
  Ge  Ge0  1  0.75000000  0.75000000  0.75000000  1
  As  As0  1  0.85527142  0.85527142  0.43418674  1
  As  As1  1  0.85527142  0.43418674  0.85527142  1
  As  As2  1  0.39205295  0.39205295  0.82384016  1
  As  As3  1  0.39205295  0.82384016  0.39205295  1
  As  As4  1  0.82384016  0.39205295  0.39205295  1
  As  As5  1  0.85527142  0.85527142  0.85527142  1
  As  As6  1  0.43418674  0.85527142  0.85527142  1
  As  As7  1  0.39205295  0.39205295  0.39205295  1
loop_
_geom_bond_atom_site_label_1
_geom_bond_atom_site_label_2
_geom_bond_distance
_geom_bond_site_symmetry_2
Na0 Na12 3.199003 1_555
Na0 Na14 3.199003 1_555
Na0 Na5 3.199004 1_555
Na0 Na9 3.227716 1_655
Na0 Na7 3.227716 1_555
Na0 Na10 3.227716 1_565
Na1 Na13 3.199003 1_555
Na1 Na11 3.199004 1_555
Na1 Na5 3.199004 1_555
Na1 Na8 3.227715 1_655
Na1 Na6 3.227716 1_555
Na1 Na10 3.227716 1_556
Na2 Na4 3.227716 1_555
Na2 Na8 3.227716 1_565
Na2 Na9 3.227716 1_556
Na3 Na4 3.227716 1_655
Na3 Na6 3.227716 1_565
Na3 Na7 3.227716 1_556
Na11 Na3 3.199004 1_555
Na12 Na2 3.199004 1_555
Na13 Na2 3.199004 1_555
Na14 Na3 3.199004 1_555
Na15 Na3 3.199003 1_555
Na15 Na2 3.199004 1_555
Hf0 Na2 3.096096 1_555
Hf0 Na3 3.096097 1_555
Hf0 Na1 3.096097 1_555
Hf0 Na0 3.096097 1_555
Ge0 Na2 2.878644 1_655
Ge0 Na3 2.878644 1_555
Ge0 Na1 2.878644 1_565
Ge0 Na0 2.878644 1_556
As0 Ge0 2.515870 1_555
As0 Na12 3.050885 1_655
As0 Na5 3.050885 1_565
As0 Na14 3.050892 1_555
As0 Na2 3.128575 1_655
As0 Na1 3.128575 1_565
As0 Na3 3.128582 1_555
As0 Na8 3.175530 1_665
As0 Na6 3.175539 1_565
As0 Na4 3.175539 1_655
As1 Ge0 2.515870 1_555
As1 Na13 3.050885 1_655
As1 Na5 3.050885 1_556
As1 Na11 3.050892 1_555
As1 Na2 3.128575 1_655
As1 Na0 3.128575 1_556
As1 Na3 3.128582 1_555
As1 Na9 3.175531 1_656
As1 Na7 3.175539 1_556
As1 Na4 3.175539 1_655
As2 Hf0 2.579815 1_555
As2 Na9 2.969424 1_556
As2 Na10 2.969424 1_556
As2 Na7 2.969431 1_556
As2 Na13 3.088291 1_555
As2 Na11 3.088299 1_555
As2 Na15 3.088299 1_555
As2 Na2 3.303988 1_555
As2 Na1 3.303988 1_555
As2 Na3 3.303995 1_555
As3 Hf0 2.579815 1_555
As3 Na8 2.969424 1_565
As3 Na10 2.969424 1_565
As3 Na6 2.969431 1_565
As3 Na12 3.088291 1_555
As3 Na14 3.088299 1_555
As3 Na15 3.088299 1_555
As3 Na2 3.303988 1_555
As3 Na0 3.303988 1_555
As3 Na3 3.303996 1_555
As4 Hf0 2.579815 1_555
As4 Na8 2.969424 1_655
As4 Na9 2.969424 1_655
As4 Na4 2.969431 1_655
As4 Na5 3.088291 1_555
As4 Na14 3.088299 1_555
As4 Na11 3.088299 1_555
As4 Na1 3.303988 1_555
As4 Na0 3.303988 1_555
As4 Na3 3.303996 1_555
As5 Ge0 2.515878 1_555
As5 Na15 3.050883 1_655
As5 Na11 3.050883 1_565
As5 Na14 3.050883 1_556
As5 Na0 3.128581 1_556
As5 Na2 3.128581 1_655
As5 Na1 3.128582 1_565
As5 Na10 3.175537 1_566
As5 Na8 3.175537 1_665
As5 Na9 3.175537 1_656
As6 Ge0 2.515870 1_555
As6 Na13 3.050885 1_565
As6 Na12 3.050885 1_556
As6 Na15 3.050892 1_555
As6 Na1 3.128575 1_565
As6 Na0 3.128575 1_556
As6 Na3 3.128582 1_555
As6 Na10 3.175531 1_566
As6 Na7 3.175539 1_556
As6 Na6 3.175539 1_565
As7 Hf0 2.579823 1_555
As7 Na4 2.969422 1_555
As7 Na6 2.969422 1_555
As7 Na7 2.969422 1_555
As7 Na5 3.088297 1_555
As7 Na12 3.088297 1_555
As7 Na13 3.088297 1_555
As7 Na0 3.303994 1_555
As7 Na2 3.303994 1_555
As7 Na1 3.303994 1_555
