# generated using pymatgen
data_LiV3(SeO6)2
_symmetry_space_group_name_H-M   'P 1'
_cell_length_a   6.21226088
_cell_length_b   7.06394532
_cell_length_c   10.51601059
_cell_angle_alpha   91.23418869
_cell_angle_beta   93.29750353
_cell_angle_gamma   105.38042679
_symmetry_Int_Tables_number   1
_chemical_formula_structural   LiV3(SeO6)2
_chemical_formula_sum   'Li2 V6 Se4 O24'
_cell_volume   443.88627524
_cell_formula_units_Z   2
loop_
 _symmetry_equiv_pos_site_id
 _symmetry_equiv_pos_as_xyz
  1  'x, y, z'
loop_
 _atom_site_type_symbol
 _atom_site_label
 _atom_site_symmetry_multiplicity
 _atom_site_fract_x
 _atom_site_fract_y
 _atom_site_fract_z
 _atom_site_occupancy
  Li  Li0  1  0.78485488  0.75176567  0.11238810  1
  Li  Li1  1  0.21513784  0.24823610  0.88761761  1
  V  V0  1  0.61055635  0.22469027  0.08560976  1
  V  V1  1  0.33469466  0.79401843  0.24655215  1
  V  V2  1  0.62530342  0.19647724  0.41820641  1
  V  V3  1  0.37469710  0.80352528  0.58179100  1
  V  V4  1  0.66529785  0.20597561  0.75344665  1
  V  V5  1  0.38944906  0.77531249  0.91439009  1
  Se  Se0  1  0.11753328  0.16259333  0.19359867  1
  Se  Se1  1  0.80399304  0.79385691  0.40946047  1
  Se  Se2  1  0.19600993  0.20614028  0.59054204  1
  Se  Se3  1  0.88248232  0.83740776  0.80640377  1
  O  O0  1  0.28576061  0.22343569  0.06911277  1
  O  O1  1  0.43303724  0.84417402  0.07893890  1
  O  O2  1  0.72321148  0.45717101  0.09626743  1
  O  O3  1  0.86545872  0.12687654  0.10742164  1
  O  O4  1  0.08968710  0.91010965  0.19773820  1
  O  O5  1  0.17641410  0.57424849  0.24023884  1
  O  O6  1  0.52840620  0.14550662  0.25218021  1
  O  O7  1  0.62479459  0.73069038  0.27478941  1
  O  O8  1  0.84453400  0.04694306  0.40513229  1
  O  O9  1  0.36739838  0.88041295  0.40797670  1
  O  O10  1  0.79932614  0.40844650  0.41816222  1
  O  O11  1  0.36183275  0.26821932  0.46564267  1
  O  O12  1  0.63816628  0.73178182  0.53435697  1
  O  O13  1  0.20067331  0.59155433  0.58183600  1
  O  O14  1  0.63259785  0.11958678  0.59202103  1
  O  O15  1  0.15546187  0.95305356  0.59486463  1
  O  O16  1  0.37519985  0.26930241  0.72521387  1
  O  O17  1  0.47158948  0.85449777  0.74781892  1
  O  O18  1  0.82358086  0.42574396  0.75976238  1
  O  O19  1  0.91030845  0.08988482  0.80225666  1
  O  O20  1  0.13454549  0.87313356  0.89258600  1
  O  O21  1  0.27678963  0.54283763  0.90372540  1
  O  O22  1  0.56697015  0.15582133  0.92106186  1
  O  O23  1  0.71424277  0.77656843  0.93088530  1
loop_
_geom_bond_atom_site_label_1
_geom_bond_atom_site_label_2
_geom_bond_distance
_geom_bond_site_symmetry_2
Li0 O23 1.955775 1_554
Li0 O7 2.013773 1_555
Li0 O2 2.015083 1_555
Li0 O4 2.068918 1_655
Li0 O1 2.450478 1_555
Li0 O3 2.565123 1_565
Li1 O0 1.955707 1_556
Li1 O16 2.013803 1_555
Li1 O21 2.015119 1_555
Li1 O19 2.068962 1_455
Li1 O22 2.450583 1_555
Li1 O20 2.565072 1_545
O0 Se0 1.712889 1_555
O0 V0 2.012842 1_555
O1 V5 1.773184 1_554
O1 V1 1.908289 1_555
O2 V0 1.603951 1_555
O3 Se0 1.718851 1_655
O3 V0 1.892879 1_555
O4 Se0 1.747385 1_565
O4 V1 1.960356 1_555
O5 V1 1.599890 1_555
O6 V2 1.810335 1_555
O6 V0 1.906631 1_555
O7 Se1 1.723926 1_555
O7 V1 1.976852 1_555
O8 Se1 1.740019 1_545
O8 V2 1.941105 1_555
O9 V1 1.773500 1_555
O9 V3 1.919457 1_555
O9 V2 2.373951 1_565
O10 V2 1.597552 1_555
O11 Se2 1.708640 1_555
O11 V2 1.925526 1_555
O12 Se1 1.708627 1_555
O12 V3 1.925515 1_555
O13 V3 1.597564 1_555
O14 V4 1.773499 1_555
O14 V2 1.919465 1_555
O14 V3 2.373924 1_545
O15 Se2 1.740014 1_565
O15 V3 1.941098 1_555
O16 Se2 1.723902 1_555
O16 V4 1.976831 1_555
O17 V3 1.810347 1_555
O17 V5 1.906626 1_555
O18 V4 1.599885 1_555
O19 Se3 1.747363 1_545
O19 V4 1.960361 1_555
O20 Se3 1.718810 1_455
O20 V5 1.892910 1_555
O21 V5 1.603920 1_555
O22 V0 1.773186 1_556
O22 V4 1.908277 1_555
O23 Se3 1.712895 1_555
O23 V5 2.012826 1_555
