# generated using pymatgen
data_KRb3PbI6
_symmetry_space_group_name_H-M   'P 1'
_cell_length_a   10.08424678
_cell_length_b   10.08424774
_cell_length_c   10.08424726
_cell_angle_alpha   90.66673401
_cell_angle_beta   90.66673275
_cell_angle_gamma   90.66673033
_symmetry_Int_Tables_number   1
_chemical_formula_structural   KRb3PbI6
_chemical_formula_sum   'K2 Rb6 Pb2 I12'
_cell_volume   1025.27778073
_cell_formula_units_Z   2
loop_
 _symmetry_equiv_pos_site_id
 _symmetry_equiv_pos_as_xyz
  1  'x, y, z'
loop_
 _atom_site_type_symbol
 _atom_site_label
 _atom_site_symmetry_multiplicity
 _atom_site_fract_x
 _atom_site_fract_y
 _atom_site_fract_z
 _atom_site_occupancy
  K  K0  1  0.25000000  0.25000000  0.25000000  1
  K  K1  1  0.75000000  0.75000000  0.75000000  1
  Rb  Rb0  1  0.36571073  0.13428927  0.75000000  1
  Rb  Rb1  1  0.13428927  0.75000000  0.36571073  1
  Rb  Rb2  1  0.75000000  0.36571073  0.13428927  1
  Rb  Rb3  1  0.63428927  0.86571073  0.25000000  1
  Rb  Rb4  1  0.25000000  0.63428927  0.86571073  1
  Rb  Rb5  1  0.86571073  0.25000000  0.63428927  1
  Pb  Pb0  1  0.00000000  0.00000000  0.00000000  1
  Pb  Pb1  1  0.50000000  0.50000000  0.50000000  1
  I  I0  1  0.94675630  0.07664073  0.30657760  1
  I  I1  1  0.07664073  0.30657760  0.94675630  1
  I  I2  1  0.30657760  0.94675630  0.07664073  1
  I  I3  1  0.57664073  0.44675630  0.80657760  1
  I  I4  1  0.80657760  0.57664073  0.44675630  1
  I  I5  1  0.44675630  0.80657760  0.57664073  1
  I  I6  1  0.19342240  0.42335927  0.55324370  1
  I  I7  1  0.42335927  0.55324370  0.19342240  1
  I  I8  1  0.55324370  0.19342240  0.42335927  1
  I  I9  1  0.92335927  0.69342240  0.05324370  1
  I  I10  1  0.05324370  0.92335927  0.69342240  1
  I  I11  1  0.69342240  0.05324370  0.92335927  1
loop_
_geom_bond_atom_site_label_1
_geom_bond_atom_site_label_2
_geom_bond_distance
_geom_bond_site_symmetry_2
I0 Pb0 3.230527 1_655
I0 K0 3.559829 1_655
I0 Rb3 3.814793 1_545
I0 Rb5 3.821912 1_555
I0 Rb1 3.866050 1_645
I0 Rb2 3.952865 1_555
I1 Pb0 3.230527 1_556
I1 K0 3.559829 1_556
I1 Rb5 3.814793 1_455
I1 Rb4 3.821912 1_555
I1 Rb2 3.866050 1_456
I1 Rb0 3.952865 1_555
I2 Pb0 3.230527 1_565
I2 K0 3.559829 1_565
I2 Rb4 3.814793 1_554
I2 Rb3 3.821912 1_555
I2 Rb0 3.866050 1_564
I2 Rb1 3.952865 1_555
I3 Pb1 3.230527 1_555
I3 K1 3.559829 1_555
I3 Rb0 3.814793 1_555
I3 Rb2 3.821912 1_556
I3 Rb4 3.866050 1_555
I3 Rb5 3.952865 1_555
I4 Pb1 3.230527 1_555
I4 K1 3.559829 1_555
I4 Rb2 3.814793 1_555
I4 Rb1 3.821912 1_655
I4 Rb5 3.866050 1_555
I4 Rb3 3.952865 1_555
I5 Pb1 3.230527 1_555
I5 K1 3.559829 1_555
I5 Rb1 3.814793 1_555
I5 Rb0 3.821912 1_565
I5 Rb3 3.866050 1_555
I5 Rb4 3.952865 1_555
I6 Pb1 3.230527 1_555
I6 K0 3.559829 1_555
I6 Rb4 3.814793 1_555
I6 Rb5 3.821912 1_455
I6 Rb1 3.866050 1_555
I6 Rb0 3.952865 1_555
I7 Pb1 3.230527 1_555
I7 K0 3.559829 1_555
I7 Rb3 3.814793 1_555
I7 Rb4 3.821912 1_554
I7 Rb2 3.866050 1_555
I7 Rb1 3.952865 1_555
I8 Pb1 3.230527 1_555
I8 K0 3.559829 1_555
I8 Rb5 3.814793 1_555
I8 Rb3 3.821912 1_545
I8 Rb0 3.866050 1_555
I8 Rb2 3.952865 1_555
I9 Pb0 3.230527 1_665
I9 K1 3.559829 1_554
I9 Rb1 3.814793 1_655
I9 Rb2 3.821912 1_555
I9 Rb4 3.866050 1_654
I9 Rb3 3.952865 1_555
I10 Pb0 3.230527 1_566
I10 K1 3.559829 1_455
I10 Rb0 3.814793 1_565
I10 Rb1 3.821912 1_555
I10 Rb5 3.866050 1_465
I10 Rb4 3.952865 1_555
I11 Pb0 3.230527 1_656
I11 K1 3.559829 1_545
I11 Rb2 3.814793 1_556
I11 Rb0 3.821912 1_555
I11 Rb3 3.866050 1_546
I11 Rb5 3.952865 1_555
