# generated using pymatgen
data_Li12ReRuN8
_symmetry_space_group_name_H-M   'P 1'
_cell_length_a   6.63807246
_cell_length_b   6.63807246
_cell_length_c   4.83326319
_cell_angle_alpha   90.00000000
_cell_angle_beta   90.00000000
_cell_angle_gamma   90.00000000
_symmetry_Int_Tables_number   1
_chemical_formula_structural   Li12ReRuN8
_chemical_formula_sum   'Li12 Re1 Ru1 N8'
_cell_volume   212.97293833
_cell_formula_units_Z   1
loop_
 _symmetry_equiv_pos_site_id
 _symmetry_equiv_pos_as_xyz
  1  'x, y, z'
loop_
 _atom_site_type_symbol
 _atom_site_label
 _atom_site_symmetry_multiplicity
 _atom_site_fract_x
 _atom_site_fract_y
 _atom_site_fract_z
 _atom_site_occupancy
  Li  Li0  1  0.00000000  0.50000000  0.58726781  1
  Li  Li1  1  0.50000000  0.00000000  0.90166563  1
  Li  Li2  1  0.50000000  0.00000000  0.41273219  1
  Li  Li3  1  0.00000000  0.50000000  0.09833437  1
  Li  Li4  1  0.22003938  0.22003938  0.50000000  1
  Li  Li5  1  0.77996062  0.77996062  0.50000000  1
  Li  Li6  1  0.70643410  0.70643410  0.00000000  1
  Li  Li7  1  0.29356590  0.29356590  0.00000000  1
  Li  Li8  1  0.77996062  0.22003938  0.50000000  1
  Li  Li9  1  0.22003938  0.77996062  0.50000000  1
  Li  Li10  1  0.29356590  0.70643410  0.00000000  1
  Li  Li11  1  0.70643410  0.29356590  0.00000000  1
  Re  Re0  1  0.00000000  0.00000000  0.00000000  1
  Ru  Ru0  1  0.50000000  0.50000000  0.50000000  1
  N  N0  1  0.24555163  0.50000000  0.31255155  1
  N  N1  1  0.75444837  0.50000000  0.31255155  1
  N  N2  1  0.76456857  0.00000000  0.19863630  1
  N  N3  1  0.23543143  0.00000000  0.19863630  1
  N  N4  1  0.50000000  0.24555163  0.68744845  1
  N  N5  1  0.50000000  0.75444837  0.68744845  1
  N  N6  1  0.00000000  0.76456857  0.80136370  1
  N  N7  1  0.00000000  0.23543143  0.80136370  1
loop_
_geom_bond_atom_site_label_1
_geom_bond_atom_site_label_2
_geom_bond_distance
_geom_bond_site_symmetry_2
Li0 N6 2.038406 1_555
Li0 N7 2.038406 1_555
Li0 N0 2.102345 1_555
Li0 N1 2.102345 1_455
Li1 N4 1.931024 1_555
Li1 N5 1.931024 1_545
Li1 N2 2.268154 1_556
Li1 N3 2.268154 1_556
Li2 N2 2.038406 1_555
Li2 N3 2.038406 1_555
Li2 N4 2.102345 1_555
Li2 N5 2.102345 1_545
Li3 N0 1.931024 1_555
Li3 N1 1.931024 1_455
Li3 N6 2.268154 1_554
Li3 N7 2.268154 1_554
Li4 N7 2.065308 1_555
Li4 N3 2.065308 1_555
Li4 N0 2.074401 1_555
Li4 N4 2.074401 1_555
Li5 N6 2.065308 1_655
Li5 N2 2.065308 1_565
Li5 N1 2.074401 1_555
Li5 N5 2.074401 1_555
Li6 N5 2.064320 1_554
Li6 N1 2.064320 1_555
Li6 N2 2.206380 1_565
Li6 N6 2.206380 1_654
Li7 N4 2.064320 1_554
Li7 N0 2.064320 1_555
Li7 N3 2.206380 1_555
Li7 N7 2.206380 1_554
Li8 N7 2.065308 1_655
Li8 N2 2.065308 1_555
Li8 N4 2.074401 1_555
Li8 N1 2.074401 1_555
Li9 N6 2.065308 1_555
Li9 N3 2.065308 1_565
Li9 N0 2.074401 1_555
Li9 N5 2.074401 1_555
Li10 N0 2.064320 1_555
Li10 N5 2.064320 1_554
Li10 N6 2.206380 1_554
Li10 N3 2.206380 1_565
Li11 N4 2.064320 1_554
Li11 N1 2.064320 1_555
Li11 N2 2.206380 1_555
Li11 N7 2.206380 1_654
N0 Ru0 1.916688 1_555
N1 Ru0 1.916688 1_555
N2 Re0 1.834147 1_655
N3 Re0 1.834147 1_555
N4 Ru0 1.916688 1_555
N5 Ru0 1.916688 1_555
N6 Re0 1.834147 1_566
N7 Re0 1.834147 1_556
