# generated using pymatgen
data_Y2Si5RuPt2
_symmetry_space_group_name_H-M   'P 1'
_cell_length_a   8.11052352
_cell_length_b   8.11052348
_cell_length_c   5.90195169
_cell_angle_alpha   68.64491302
_cell_angle_beta   68.64491387
_cell_angle_gamma   89.20224855
_symmetry_Int_Tables_number   1
_chemical_formula_structural   Y2Si5RuPt2
_chemical_formula_sum   'Y4 Si10 Ru2 Pt4'
_cell_volume   333.58593560
_cell_formula_units_Z   2
loop_
 _symmetry_equiv_pos_site_id
 _symmetry_equiv_pos_as_xyz
  1  'x, y, z'
loop_
 _atom_site_type_symbol
 _atom_site_label
 _atom_site_symmetry_multiplicity
 _atom_site_fract_x
 _atom_site_fract_y
 _atom_site_fract_z
 _atom_site_occupancy
  Y  Y0  1  0.86092073  0.60075316  0.76909657  1
  Y  Y1  1  0.39924684  0.13907927  0.73090343  1
  Y  Y2  1  0.13907927  0.39924684  0.23090343  1
  Y  Y3  1  0.60075316  0.86092073  0.26909657  1
  Si  Si0  1  0.04645603  0.25303891  0.85052665  1
  Si  Si1  1  0.74696109  0.95354397  0.64947335  1
  Si  Si2  1  0.95354397  0.74696109  0.14947335  1
  Si  Si3  1  0.25303891  0.04645603  0.35052665  1
  Si  Si4  1  0.22278602  0.77721398  0.75000000  1
  Si  Si5  1  0.77721398  0.22278602  0.25000000  1
  Si  Si6  1  0.49997131  0.50002869  0.75000000  1
  Si  Si7  1  0.50002869  0.49997131  0.25000000  1
  Si  Si8  1  0.77719512  0.22280488  0.75000000  1
  Si  Si9  1  0.22280488  0.77719512  0.25000000  1
  Ru  Ru0  1  0.99991556  0.00008444  0.75000000  1
  Ru  Ru1  1  0.00008444  0.99991556  0.25000000  1
  Pt  Pt0  1  0.24706236  0.52602617  0.61337346  1
  Pt  Pt1  1  0.47397383  0.75293764  0.88662654  1
  Pt  Pt2  1  0.75293764  0.47397383  0.38662654  1
  Pt  Pt3  1  0.52602617  0.24706236  0.11337346  1
loop_
_geom_bond_atom_site_label_1
_geom_bond_atom_site_label_2
_geom_bond_distance
_geom_bond_site_symmetry_2
Si0 Si5 2.496273 1_456
Si0 Si8 2.499166 1_455
Si0 Y1 2.910367 1_555
Si0 Y0 3.141657 1_455
Si0 Y2 3.194095 1_556
Si0 Y2 3.195280 1_555
Si1 Si5 2.496273 1_565
Si1 Si8 2.499166 1_565
Si1 Y0 2.910367 1_555
Si1 Y1 3.141657 1_565
Si1 Y3 3.194095 1_555
Si1 Y3 3.195280 1_556
Si2 Si4 2.496273 1_654
Si2 Si9 2.499166 1_655
Si2 Y3 2.910367 1_555
Si2 Y2 3.141657 1_655
Si2 Y0 3.194095 1_554
Si2 Y0 3.195280 1_555
Si3 Si4 2.496273 1_545
Si3 Si9 2.499166 1_545
Si3 Y2 2.910367 1_555
Si3 Y3 3.141657 1_545
Si3 Y1 3.194095 1_555
Si3 Y1 3.195280 1_554
Si4 Y2 3.198740 1_556
Si4 Y3 3.198740 1_555
Si4 Y1 3.230065 1_565
Si4 Y0 3.230065 1_455
Si5 Y0 3.198740 1_554
Si5 Y1 3.198740 1_555
Si5 Y3 3.230065 1_545
Si5 Y2 3.230065 1_655
Si6 Y3 3.101279 1_555
Si6 Y2 3.101279 1_556
Si6 Y1 3.102292 1_555
Si6 Y0 3.102292 1_555
Si7 Y1 3.101279 1_555
Si7 Y0 3.101279 1_554
Si7 Y3 3.102292 1_555
Si7 Y2 3.102292 1_555
Si8 Y0 3.199307 1_555
Si8 Y1 3.199307 1_555
Si8 Y3 3.228574 1_546
Si8 Y2 3.228574 1_655
Si9 Y2 3.199307 1_555
Si9 Y3 3.199307 1_555
Si9 Y1 3.228574 1_564
Si9 Y0 3.228574 1_455
Ru0 Si2 2.401112 1_546
Ru0 Si3 2.401112 1_655
Ru0 Si0 2.403057 1_655
Ru0 Si1 2.403057 1_545
Ru0 Si8 2.536760 1_555
Ru0 Si4 2.538469 1_645
Ru0 Y2 3.391281 1_655
Ru0 Y3 3.391281 1_546
Ru0 Y0 3.393607 1_545
Ru0 Y1 3.393607 1_655
Ru1 Si0 2.401112 1_564
Ru1 Si1 2.401112 1_455
Ru1 Si2 2.403057 1_455
Ru1 Si3 2.403057 1_565
Ru1 Si9 2.536760 1_555
Ru1 Si5 2.538469 1_465
Ru1 Y0 3.391281 1_455
Ru1 Y1 3.391281 1_564
Ru1 Y2 3.393607 1_565
Ru1 Y3 3.393607 1_455
Pt0 Si0 2.386042 1_555
Pt0 Si9 2.429454 1_555
Pt0 Si4 2.430856 1_555
Pt0 Si7 2.442721 1_555
Pt0 Si6 2.443553 1_555
Pt0 Y0 3.045783 1_455
Pt0 Y2 3.174133 1_555
Pt0 Y2 3.174698 1_556
Pt0 Y1 3.283911 1_555
Pt0 Y3 3.418721 1_555
Pt1 Si1 2.386042 1_555
Pt1 Si9 2.429454 1_556
Pt1 Si4 2.430856 1_555
Pt1 Si7 2.442721 1_556
Pt1 Si6 2.443553 1_555
Pt1 Y1 3.045783 1_565
Pt1 Y3 3.174133 1_556
Pt1 Y3 3.174698 1_555
Pt1 Y0 3.283911 1_555
Pt1 Y2 3.418721 1_556
Pt2 Si2 2.386042 1_555
Pt2 Si8 2.429454 1_555
Pt2 Si5 2.430856 1_555
Pt2 Si6 2.442721 1_555
Pt2 Si7 2.443553 1_555
Pt2 Y2 3.045783 1_655
Pt2 Y0 3.174133 1_555
Pt2 Y0 3.174698 1_554
Pt2 Y3 3.283911 1_555
Pt2 Y1 3.418721 1_555
Pt3 Si3 2.386042 1_555
Pt3 Si8 2.429454 1_554
Pt3 Si5 2.430856 1_555
Pt3 Si6 2.442721 1_554
Pt3 Si7 2.443553 1_555
Pt3 Y3 3.045783 1_545
Pt3 Y1 3.174133 1_554
Pt3 Y1 3.174698 1_555
Pt3 Y2 3.283911 1_555
Pt3 Y0 3.418721 1_554
