# generated using pymatgen
data_Sr6Sn8BiS
_symmetry_space_group_name_H-M   'P 1'
_cell_length_a   8.89548268
_cell_length_b   8.89548298
_cell_length_c   8.89548307
_cell_angle_alpha   119.85040371
_cell_angle_beta   119.85040829
_cell_angle_gamma   90.25929986
_symmetry_Int_Tables_number   1
_chemical_formula_structural   Sr6Sn8BiS
_chemical_formula_sum   'Sr6 Sn8 Bi1 S1'
_cell_volume   498.84963178
_cell_formula_units_Z   1
loop_
 _symmetry_equiv_pos_site_id
 _symmetry_equiv_pos_as_xyz
  1  'x, y, z'
loop_
 _atom_site_type_symbol
 _atom_site_label
 _atom_site_symmetry_multiplicity
 _atom_site_fract_x
 _atom_site_fract_y
 _atom_site_fract_z
 _atom_site_occupancy
  Sr  Sr0  1  0.26617855  0.26617855  0.00000000  1
  Sr  Sr1  1  0.73382145  0.73382145  0.00000000  1
  Sr  Sr2  1  0.18125922  0.65367950  0.83493972  1
  Sr  Sr3  1  0.81874078  0.34632050  0.16506028  1
  Sr  Sr4  1  0.65367950  0.81874078  0.47241928  1
  Sr  Sr5  1  0.34632050  0.18125922  0.52758072  1
  Sn  Sn0  1  0.83887480  0.32929699  0.78630665  1
  Sn  Sn1  1  0.16112520  0.67070301  0.21369335  1
  Sn  Sn2  1  0.54299033  0.05256814  0.21369335  1
  Sn  Sn3  1  0.32929699  0.54299033  0.49042219  1
  Sn  Sn4  1  0.94743186  0.16112520  0.49042219  1
  Sn  Sn5  1  0.45700967  0.94743186  0.78630665  1
  Sn  Sn6  1  0.67070301  0.45700967  0.50957781  1
  Sn  Sn7  1  0.05256814  0.83887480  0.50957781  1
  Bi  Bi0  1  0.00000000  0.00000000  0.00000000  1
  S  S0  1  0.50000000  0.50000000  0.00000000  1
loop_
_geom_bond_atom_site_label_1
_geom_bond_atom_site_label_2
_geom_bond_distance
_geom_bond_site_symmetry_2
Sn0 Sn6 2.953247 1_555
Sn0 Sn4 2.953247 1_555
Sn0 Sn1 3.077795 1_656
Sn0 Sr3 3.391097 1_556
Sn0 Sr0 3.502264 1_656
Sn0 Sr1 3.524906 1_556
Sn0 Sr5 3.622289 1_555
Sn0 Sr4 3.723747 1_545
Sn0 Sr2 3.893040 1_655
Sn1 Sn3 2.953247 1_555
Sn1 Sn7 2.953247 1_555
Sn1 Sr2 3.391097 1_554
Sn1 Sr1 3.502264 1_455
Sn1 Sr0 3.524906 1_555
Sn1 Sr4 3.622289 1_555
Sn1 Sr5 3.723747 1_565
Sn1 Sr3 3.893040 1_455
Sn2 Sn4 2.953247 1_555
Sn2 Sn6 2.953247 1_555
Sn2 Sn5 3.077795 1_544
Sn2 Sr2 3.391106 1_544
Sn2 Sr0 3.502264 1_555
Sn2 Sr1 3.524906 1_545
Sn2 Sr4 3.622281 1_545
Sn2 Sr5 3.723755 1_555
Sn2 Sr3 3.893053 1_555
Sn3 Sn5 2.953247 1_555
Sn3 Sn6 3.077794 1_555
Sn3 Sr5 3.391111 1_555
Sn3 Sr0 3.502264 1_555
Sn3 Sr1 3.524906 1_556
Sn3 Sr2 3.622296 1_555
Sn3 Sr3 3.723747 1_455
Sn3 Sr4 3.893052 1_555
Sn4 Sn7 3.077795 1_645
Sn4 Sr5 3.391102 1_655
Sn4 Sr1 3.502264 1_545
Sn4 Sr0 3.524906 1_656
Sn4 Sr2 3.622288 1_655
Sn4 Sr3 3.723755 1_555
Sn4 Sr4 3.893040 1_545
Sn5 Sn7 2.953247 1_555
Sn5 Sr3 3.391106 1_566
Sn5 Sr1 3.502264 1_556
Sn5 Sr0 3.524906 1_566
Sn5 Sr5 3.622281 1_565
Sn5 Sr4 3.723755 1_555
Sn5 Sr2 3.893053 1_555
Sn6 Sr4 3.391111 1_555
Sn6 Sr1 3.502264 1_556
Sn6 Sr0 3.524906 1_555
Sn6 Sr3 3.622296 1_555
Sn6 Sr2 3.723747 1_655
Sn6 Sr5 3.893052 1_555
Sn7 Sr4 3.391102 1_455
Sn7 Sr0 3.502264 1_566
Sn7 Sr1 3.524906 1_455
Sn7 Sr3 3.622288 1_455
Sn7 Sr2 3.723755 1_555
Sn7 Sr5 3.893040 1_565
Bi0 Sr0 3.340970 1_555
Bi0 Sr1 3.340970 1_445
Bi0 Sr3 3.484988 1_455
Bi0 Sr2 3.484988 1_544
Bi0 Sr5 3.484996 1_555
Bi0 Sr4 3.484996 1_444
S0 Sr1 2.934837 1_555
S0 Sr0 2.934837 1_555
S0 Sr5 3.154816 1_554
S0 Sr4 3.154816 1_555
S0 Sr2 3.154820 1_554
S0 Sr3 3.154820 1_555
