# generated using pymatgen
data_SiO2
_symmetry_space_group_name_H-M   'P 1'
_cell_length_a   17.36890994
_cell_length_b   17.36890994
_cell_length_c   17.36890994
_cell_angle_alpha   60.00000000
_cell_angle_beta   60.00000000
_cell_angle_gamma   60.00000000
_symmetry_Int_Tables_number   1
_chemical_formula_structural   SiO2
_chemical_formula_sum   'Si48 O96'
_cell_volume   3705.12352961
_cell_formula_units_Z   48
loop_
 _symmetry_equiv_pos_site_id
 _symmetry_equiv_pos_as_xyz
  1  'x, y, z'
loop_
 _atom_site_type_symbol
 _atom_site_label
 _atom_site_symmetry_multiplicity
 _atom_site_fract_x
 _atom_site_fract_y
 _atom_site_fract_z
 _atom_site_occupancy
  Si  Si0  1  0.46452400  0.10741500  0.64393900  1
  Si  Si1  1  0.46452400  0.28412200  0.64393900  1
  Si  Si2  1  0.28412200  0.46452400  0.64393900  1
  Si  Si3  1  0.28412200  0.10741500  0.64393900  1
  Si  Si4  1  0.10741500  0.46452400  0.64393900  1
  Si  Si5  1  0.10741500  0.28412200  0.64393900  1
  Si  Si6  1  0.46452400  0.28412200  0.10741500  1
  Si  Si7  1  0.46452400  0.64393900  0.10741500  1
  Si  Si8  1  0.46452400  0.10741500  0.28412200  1
  Si  Si9  1  0.46452400  0.64393900  0.28412200  1
  Si  Si10  1  0.28412200  0.64393900  0.10741500  1
  Si  Si11  1  0.28412200  0.46452400  0.10741500  1
  Si  Si12  1  0.10741500  0.64393900  0.28412200  1
  Si  Si13  1  0.10741500  0.46452400  0.28412200  1
  Si  Si14  1  0.35606100  0.89258500  0.53547600  1
  Si  Si15  1  0.35606100  0.71587800  0.53547600  1
  Si  Si16  1  0.28412200  0.10741500  0.46452400  1
  Si  Si17  1  0.28412200  0.64393900  0.46452400  1
  Si  Si18  1  0.10741500  0.64393900  0.46452400  1
  Si  Si19  1  0.10741500  0.28412200  0.46452400  1
  Si  Si20  1  0.35606100  0.53547600  0.71587800  1
  Si  Si21  1  0.35606100  0.89258500  0.71587800  1
  Si  Si22  1  0.64393900  0.46452400  0.10741500  1
  Si  Si23  1  0.64393900  0.28412200  0.10741500  1
  Si  Si24  1  0.35606100  0.53547600  0.89258500  1
  Si  Si25  1  0.35606100  0.71587800  0.89258500  1
  Si  Si26  1  0.64393900  0.10741500  0.28412200  1
  Si  Si27  1  0.64393900  0.46452400  0.28412200  1
  Si  Si28  1  0.89258500  0.71587800  0.53547600  1
  Si  Si29  1  0.89258500  0.35606100  0.53547600  1
  Si  Si30  1  0.71587800  0.35606100  0.53547600  1
  Si  Si31  1  0.71587800  0.89258500  0.53547600  1
  Si  Si32  1  0.64393900  0.28412200  0.46452400  1
  Si  Si33  1  0.64393900  0.10741500  0.46452400  1
  Si  Si34  1  0.89258500  0.35606100  0.71587800  1
  Si  Si35  1  0.89258500  0.53547600  0.71587800  1
  Si  Si36  1  0.71587800  0.35606100  0.89258500  1
  Si  Si37  1  0.71587800  0.53547600  0.89258500  1
  Si  Si38  1  0.53547600  0.35606100  0.71587800  1
  Si  Si39  1  0.53547600  0.89258500  0.71587800  1
  Si  Si40  1  0.53547600  0.35606100  0.89258500  1
  Si  Si41  1  0.53547600  0.71587800  0.89258500  1
  Si  Si42  1  0.89258500  0.71587800  0.35606100  1
  Si  Si43  1  0.89258500  0.53547600  0.35606100  1
  Si  Si44  1  0.71587800  0.89258500  0.35606100  1
  Si  Si45  1  0.71587800  0.53547600  0.35606100  1
  Si  Si46  1  0.53547600  0.89258500  0.35606100  1
  Si  Si47  1  0.53547600  0.71587800  0.35606100  1
  O  O0  1  0.35243600  0.64095800  0.86564800  1
  O  O1  1  0.00000000  0.28644300  0.50000000  1
  O  O2  1  0.13435200  0.35904200  0.64756400  1
  O  O3  1  0.00000000  0.50000000  0.71355700  1
  O  O4  1  0.50000000  0.28644300  0.71355700  1
  O  O5  1  0.28644300  0.71355700  0.50000000  1
  O  O6  1  0.64095800  0.35243600  0.86564800  1
  O  O7  1  0.64095800  0.64095800  0.86564800  1
  O  O8  1  0.46456600  0.46456600  0.88323500  1
  O  O9  1  0.46456600  0.68763200  0.88323500  1
  O  O10  1  0.28644300  0.00000000  0.71355700  1
  O  O11  1  0.50000000  0.71355700  0.00000000  1
  O  O12  1  0.28644300  0.50000000  0.00000000  1
  O  O13  1  0.46456600  0.46456600  0.68763200  1
  O  O14  1  0.31236800  0.53543400  0.53543400  1
  O  O15  1  0.31236800  0.11676500  0.53543400  1
  O  O16  1  0.46456600  0.88323500  0.68763200  1
  O  O17  1  0.13435200  0.64756400  0.35904200  1
  O  O18  1  0.13435200  0.35904200  0.35904200  1
  O  O19  1  0.00000000  0.71355700  0.28644300  1
  O  O20  1  0.35243600  0.64095800  0.64095800  1
  O  O21  1  0.35904200  0.13435200  0.64756400  1
  O  O22  1  0.35904200  0.35904200  0.64756400  1
  O  O23  1  0.35243600  0.86564800  0.64095800  1
  O  O24  1  0.11676500  0.31236800  0.53543400  1
  O  O25  1  0.11676500  0.53543400  0.53543400  1
  O  O26  1  0.28644300  0.50000000  0.71355700  1
  O  O27  1  0.82147200  0.82147200  0.53656100  1
  O  O28  1  0.82147200  0.32049600  0.53656100  1
  O  O29  1  0.50000000  0.00000000  0.28644300  1
  O  O30  1  0.71355700  0.00000000  0.50000000  1
  O  O31  1  0.68763200  0.46456600  0.88323500  1
  O  O32  1  0.32049600  0.82147200  0.53656100  1
  O  O33  1  0.71355700  0.28644300  0.00000000  1
  O  O34  1  0.82147200  0.82147200  0.32049600  1
  O  O35  1  0.67950400  0.17852800  0.17852800  1
  O  O36  1  0.67950400  0.46343900  0.17852800  1
  O  O37  1  0.82147200  0.53656100  0.32049600  1
  O  O38  1  0.28644300  0.71355700  0.00000000  1
  O  O39  1  0.46343900  0.67950400  0.17852800  1
  O  O40  1  0.46343900  0.17852800  0.17852800  1
  O  O41  1  0.67950400  0.17852800  0.46343900  1
  O  O42  1  0.31236800  0.53543400  0.11676500  1
  O  O43  1  0.53543400  0.31236800  0.53543400  1
  O  O44  1  0.53543400  0.11676500  0.53543400  1
  O  O45  1  0.64095800  0.35243600  0.64095800  1
  O  O46  1  0.17852800  0.67950400  0.17852800  1
  O  O47  1  0.17852800  0.46343900  0.17852800  1
  O  O48  1  0.64095800  0.86564800  0.64095800  1
  O  O49  1  0.35904200  0.13435200  0.35904200  1
  O  O50  1  0.82147200  0.32049600  0.82147200  1
  O  O51  1  0.82147200  0.53656100  0.82147200  1
  O  O52  1  0.46456600  0.88323500  0.46456600  1
  O  O53  1  0.35904200  0.64756400  0.35904200  1
  O  O54  1  0.46456600  0.68763200  0.46456600  1
  O  O55  1  0.11676500  0.53543400  0.31236800  1
  O  O56  1  0.28644300  0.00000000  0.50000000  1
  O  O57  1  0.50000000  0.00000000  0.71355700  1
  O  O58  1  0.46343900  0.17852800  0.67950400  1
  O  O59  1  0.17852800  0.67950400  0.46343900  1
  O  O60  1  0.17852800  0.17852800  0.46343900  1
  O  O61  1  0.17852800  0.46343900  0.67950400  1
  O  O62  1  0.32049600  0.82147200  0.82147200  1
  O  O63  1  0.32049600  0.53656100  0.82147200  1
  O  O64  1  0.17852800  0.17852800  0.67950400  1
  O  O65  1  0.71355700  0.50000000  0.28644300  1
  O  O66  1  0.00000000  0.28644300  0.71355700  1
  O  O67  1  0.53656100  0.82147200  0.32049600  1
  O  O68  1  0.88323500  0.46456600  0.68763200  1
  O  O69  1  0.53656100  0.82147200  0.82147200  1
  O  O70  1  0.53656100  0.32049600  0.82147200  1
  O  O71  1  0.71355700  0.50000000  0.00000000  1
  O  O72  1  0.50000000  0.28644300  0.00000000  1
  O  O73  1  0.71355700  0.00000000  0.28644300  1
  O  O74  1  0.53543400  0.31236800  0.11676500  1
  O  O75  1  0.53543400  0.53543400  0.11676500  1
  O  O76  1  0.64095800  0.64095800  0.35243600  1
  O  O77  1  0.64095800  0.86564800  0.35243600  1
  O  O78  1  0.64756400  0.13435200  0.35904200  1
  O  O79  1  0.64756400  0.35904200  0.35904200  1
  O  O80  1  0.35904200  0.35904200  0.13435200  1
  O  O81  1  0.35904200  0.64756400  0.13435200  1
  O  O82  1  0.68763200  0.46456600  0.46456600  1
  O  O83  1  0.53543400  0.11676500  0.31236800  1
  O  O84  1  0.68763200  0.88323500  0.46456600  1
  O  O85  1  0.53543400  0.53543400  0.31236800  1
  O  O86  1  0.71355700  0.28644300  0.50000000  1
  O  O87  1  0.50000000  0.71355700  0.28644300  1
  O  O88  1  0.00000000  0.50000000  0.28644300  1
  O  O89  1  0.00000000  0.71355700  0.50000000  1
  O  O90  1  0.88323500  0.68763200  0.46456600  1
  O  O91  1  0.88323500  0.46456600  0.46456600  1
  O  O92  1  0.86564800  0.35243600  0.64095800  1
  O  O93  1  0.86564800  0.64095800  0.64095800  1
  O  O94  1  0.64756400  0.35904200  0.13435200  1
  O  O95  1  0.86564800  0.64095800  0.35243600  1
loop_
_geom_bond_atom_site_label_1
_geom_bond_atom_site_label_2
_geom_bond_distance
_geom_bond_site_symmetry_2
O0 Si25 1.623701 1_555
O0 Si24 1.623701 1_555
O1 Si19 1.631595 1_555
O1 Si29 1.631595 1_455
O2 Si5 1.623701 1_555
O2 Si4 1.623701 1_555
O3 Si4 1.631595 1_555
O3 Si35 1.631595 1_455
O4 Si1 1.631595 1_555
O4 Si38 1.631595 1_555
O5 Si17 1.631595 1_555
O5 Si15 1.631595 1_555
O6 Si36 1.623701 1_555
O6 Si40 1.623701 1_555
O7 Si41 1.623701 1_555
O7 Si37 1.623701 1_555
O8 Si24 1.633359 1_555
O8 Si40 1.633359 1_555
O9 Si25 1.633356 1_555
O9 Si41 1.633372 1_555
O10 Si3 1.631595 1_555
O10 Si21 1.631595 1_545
O11 Si7 1.631595 1_555
O11 Si41 1.631595 1_554
O12 Si11 1.631595 1_555
O12 Si24 1.631595 1_554
O13 Si38 1.633361 1_555
O13 Si20 1.633361 1_555
O14 Si2 1.633361 1_555
O14 Si17 1.633361 1_555
O15 Si3 1.633356 1_555
O15 Si16 1.633372 1_555
O16 Si21 1.633356 1_555
O16 Si39 1.633372 1_555
O17 Si12 1.623701 1_555
O17 Si18 1.623701 1_555
O18 Si19 1.623701 1_555
O18 Si13 1.623701 1_555
O19 Si12 1.631595 1_555
O19 Si42 1.631595 1_455
O20 Si15 1.623701 1_555
O20 Si20 1.623701 1_555
O21 Si3 1.623701 1_555
O21 Si0 1.623701 1_555
O22 Si1 1.623701 1_555
O22 Si2 1.623701 1_555
O23 Si21 1.623701 1_555
O23 Si14 1.623701 1_555
O24 Si5 1.633356 1_555
O24 Si19 1.633372 1_555
O25 Si4 1.633359 1_555
O25 Si18 1.633359 1_555
O26 Si20 1.631595 1_555
O26 Si2 1.631595 1_555
O27 Si31 1.623471 1_555
O27 Si28 1.623471 1_555
O28 Si29 1.623458 1_555
O28 Si30 1.623475 1_555
O29 Si8 1.631595 1_555
O29 Si46 1.631595 1_545
O30 Si33 1.631595 1_555
O30 Si31 1.631595 1_545
O31 Si36 1.633356 1_555
O31 Si37 1.633372 1_555
O32 Si14 1.623458 1_555
O32 Si15 1.623475 1_555
O33 Si23 1.631595 1_555
O33 Si36 1.631595 1_554
O34 Si44 1.623468 1_555
O34 Si42 1.623468 1_555
O35 Si26 1.623468 1_555
O35 Si23 1.623468 1_555
O36 Si22 1.623458 1_555
O36 Si27 1.623475 1_555
O37 Si43 1.623458 1_555
O37 Si45 1.623475 1_555
O38 Si10 1.631595 1_555
O38 Si25 1.631595 1_554
O39 Si7 1.623458 1_555
O39 Si9 1.623475 1_555
O40 Si6 1.623471 1_555
O40 Si8 1.623471 1_555
O41 Si33 1.623458 1_555
O41 Si32 1.623475 1_555
O42 Si10 1.633356 1_555
O42 Si11 1.633372 1_555
O43 Si1 1.633361 1_555
O43 Si32 1.633361 1_555
O44 Si0 1.633359 1_555
O44 Si33 1.633359 1_555
O45 Si30 1.623701 1_555
O45 Si38 1.623701 1_555
O46 Si12 1.623468 1_555
O46 Si10 1.623468 1_555
O47 Si13 1.623471 1_555
O47 Si11 1.623471 1_555
O48 Si31 1.623701 1_555
O48 Si39 1.623701 1_555
O49 Si16 1.623701 1_555
O49 Si8 1.623701 1_555
O50 Si34 1.623468 1_555
O50 Si36 1.623468 1_555
O51 Si37 1.623471 1_555
O51 Si35 1.623471 1_555
O52 Si14 1.633359 1_555
O52 Si46 1.633359 1_555
O53 Si17 1.623701 1_555
O53 Si9 1.623701 1_555
O54 Si47 1.633361 1_555
O54 Si15 1.633361 1_555
O55 Si12 1.633356 1_555
O55 Si13 1.633372 1_555
O56 Si16 1.631595 1_555
O56 Si14 1.631595 1_545
O57 Si0 1.631595 1_555
O57 Si39 1.631595 1_545
O58 Si0 1.623458 1_555
O58 Si1 1.623475 1_555
O59 Si18 1.623458 1_555
O59 Si17 1.623475 1_555
O60 Si19 1.623471 1_555
O60 Si16 1.623471 1_555
O61 Si4 1.623458 1_555
O61 Si2 1.623475 1_555
O62 Si21 1.623468 1_555
O62 Si25 1.623468 1_555
O63 Si24 1.623458 1_555
O63 Si20 1.623475 1_555
O64 Si5 1.623468 1_555
O64 Si3 1.623468 1_555
O65 Si27 1.631595 1_555
O65 Si45 1.631595 1_555
O66 Si5 1.631595 1_555
O66 Si34 1.631595 1_455
O67 Si46 1.623458 1_555
O67 Si47 1.623475 1_555
O68 Si34 1.633356 1_555
O68 Si35 1.633372 1_555
O69 Si39 1.623471 1_555
O69 Si41 1.623471 1_555
O70 Si40 1.623458 1_555
O70 Si38 1.623475 1_555
O71 Si22 1.631595 1_555
O71 Si37 1.631595 1_554
O72 Si6 1.631595 1_555
O72 Si40 1.631595 1_554
O73 Si26 1.631595 1_555
O73 Si44 1.631595 1_545
O74 Si23 1.633356 1_555
O74 Si6 1.633372 1_555
O75 Si7 1.633359 1_555
O75 Si22 1.633359 1_555
O76 Si47 1.623701 1_555
O76 Si45 1.623701 1_555
O77 Si44 1.623701 1_555
O77 Si46 1.623701 1_555
O78 Si26 1.623701 1_555
O78 Si33 1.623701 1_555
O79 Si27 1.623701 1_555
O79 Si32 1.623701 1_555
O80 Si11 1.623701 1_555
O80 Si6 1.623701 1_555
O81 Si10 1.623701 1_555
O81 Si7 1.623701 1_555
O82 Si45 1.633361 1_555
O82 Si30 1.633361 1_555
O83 Si26 1.633356 1_555
O83 Si8 1.633372 1_555
O84 Si44 1.633356 1_555
O84 Si31 1.633372 1_555
O85 Si9 1.633361 1_555
O85 Si27 1.633361 1_555
O86 Si32 1.631595 1_555
O86 Si30 1.631595 1_555
O87 Si9 1.631595 1_555
O87 Si47 1.631595 1_555
O88 Si13 1.631595 1_555
O88 Si43 1.631595 1_455
O89 Si18 1.631595 1_555
O89 Si28 1.631595 1_455
O90 Si42 1.633356 1_555
O90 Si28 1.633372 1_555
O91 Si29 1.633359 1_555
O91 Si43 1.633359 1_555
O92 Si34 1.623701 1_555
O92 Si29 1.623701 1_555
O93 Si35 1.623701 1_555
O93 Si28 1.623701 1_555
O94 Si23 1.623701 1_555
O94 Si22 1.623701 1_555
O95 Si42 1.623701 1_555
O95 Si43 1.623701 1_555
