# generated using pymatgen
data_BaCuSb2Pt
_symmetry_space_group_name_H-M   'P 1'
_cell_length_a   4.74301222
_cell_length_b   4.74301222
_cell_length_c   10.75969731
_cell_angle_alpha   90.00000000
_cell_angle_beta   90.00000000
_cell_angle_gamma   90.00000000
_symmetry_Int_Tables_number   1
_chemical_formula_structural   BaCuSb2Pt
_chemical_formula_sum   'Ba2 Cu2 Sb4 Pt2'
_cell_volume   242.05192527
_cell_formula_units_Z   2
loop_
 _symmetry_equiv_pos_site_id
 _symmetry_equiv_pos_as_xyz
  1  'x, y, z'
loop_
 _atom_site_type_symbol
 _atom_site_label
 _atom_site_symmetry_multiplicity
 _atom_site_fract_x
 _atom_site_fract_y
 _atom_site_fract_z
 _atom_site_occupancy
  Ba  Ba0  1  0.00000000  0.50000000  0.75800442  1
  Ba  Ba1  1  0.50000000  0.00000000  0.24199558  1
  Cu  Cu0  1  0.00000000  0.00000000  0.00000000  1
  Cu  Cu1  1  0.50000000  0.50000000  0.00000000  1
  Sb  Sb0  1  0.00000000  0.00000000  0.50000000  1
  Sb  Sb1  1  0.50000000  0.50000000  0.50000000  1
  Sb  Sb2  1  0.00000000  0.50000000  0.12577603  1
  Sb  Sb3  1  0.50000000  0.00000000  0.87422397  1
  Pt  Pt0  1  0.00000000  0.50000000  0.37997619  1
  Pt  Pt1  1  0.50000000  0.00000000  0.62002381  1
loop_
_geom_bond_atom_site_label_1
_geom_bond_atom_site_label_2
_geom_bond_distance
_geom_bond_site_symmetry_2
Ba0 Cu1 3.521905 1_556
Ba0 Cu0 3.521905 1_566
Ba0 Cu1 3.521905 1_456
Ba0 Cu0 3.521905 1_556
Ba0 Sb3 3.579358 1_465
Ba0 Sb3 3.579358 1_555
Ba0 Sb3 3.579358 1_455
Ba0 Sb3 3.579358 1_565
Ba0 Sb1 3.651095 1_455
Ba0 Sb0 3.651095 1_565
Ba0 Sb1 3.651095 1_555
Ba0 Sb0 3.651095 1_555
Ba0 Pt1 3.667725 1_555
Ba0 Pt1 3.667725 1_565
Ba0 Pt1 3.667725 1_465
Ba0 Pt1 3.667725 1_455
Ba1 Cu0 3.521905 1_655
Ba1 Cu0 3.521905 1_555
Ba1 Cu1 3.521905 1_555
Ba1 Cu1 3.521905 1_545
Ba1 Sb2 3.579358 1_545
Ba1 Sb2 3.579358 1_555
Ba1 Sb2 3.579358 1_645
Ba1 Sb2 3.579358 1_655
Ba1 Sb0 3.651095 1_555
Ba1 Sb0 3.651095 1_655
Ba1 Sb1 3.651095 1_555
Ba1 Sb1 3.651095 1_545
Ba1 Pt0 3.667725 1_655
Ba1 Pt0 3.667725 1_545
Ba1 Pt0 3.667725 1_555
Ba1 Pt0 3.667725 1_645
Cu0 Sb2 2.730475 1_545
Cu0 Sb2 2.730475 1_555
Cu0 Sb3 2.730475 1_454
Cu0 Sb3 2.730475 1_554
Cu1 Sb2 2.730475 1_655
Cu1 Sb2 2.730475 1_555
Cu1 Sb3 2.730475 1_554
Cu1 Sb3 2.730475 1_564
Pt0 Sb1 2.700335 1_455
Pt0 Sb0 2.700335 1_565
Pt0 Sb1 2.700335 1_555
Pt0 Sb0 2.700335 1_555
Pt0 Sb2 2.735117 1_555
Pt1 Sb0 2.700335 1_655
Pt1 Sb1 2.700335 1_555
Pt1 Sb0 2.700335 1_555
Pt1 Sb1 2.700335 1_545
Pt1 Sb3 2.735117 1_555
