# generated using pymatgen
data_Li2Y(P3Pd10)2
_symmetry_space_group_name_H-M   'P 1'
_cell_length_a   8.52363244
_cell_length_b   8.52363211
_cell_length_c   8.52363210
_cell_angle_alpha   59.99999626
_cell_angle_beta   59.99999750
_cell_angle_gamma   59.99999271
_symmetry_Int_Tables_number   1
_chemical_formula_structural   Li2Y(P3Pd10)2
_chemical_formula_sum   'Li2 Y1 P6 Pd20'
_cell_volume   437.88398778
_cell_formula_units_Z   1
loop_
 _symmetry_equiv_pos_site_id
 _symmetry_equiv_pos_as_xyz
  1  'x, y, z'
loop_
 _atom_site_type_symbol
 _atom_site_label
 _atom_site_symmetry_multiplicity
 _atom_site_fract_x
 _atom_site_fract_y
 _atom_site_fract_z
 _atom_site_occupancy
  Li  Li0  1  0.00000000  0.00000000  0.00000000  1
  Li  Li1  1  0.75000000  0.75000000  0.75000000  1
  Y  Y0  1  0.25000000  0.25000000  0.25000000  1
  P  P0  1  0.73834753  0.26165247  0.26165247  1
  P  P1  1  0.73834753  0.73834753  0.26165247  1
  P  P2  1  0.73834753  0.26165247  0.73834753  1
  P  P3  1  0.26165247  0.73834753  0.26165247  1
  P  P4  1  0.26165247  0.73834753  0.73834753  1
  P  P5  1  0.26165247  0.26165247  0.73834753  1
  Pd  Pd0  1  0.34263576  0.00167328  0.00167328  1
  Pd  Pd1  1  0.00167328  0.65401667  0.34263576  1
  Pd  Pd2  1  0.34263576  0.00167328  0.65401667  1
  Pd  Pd3  1  0.00167328  0.65401667  0.00167328  1
  Pd  Pd4  1  0.65401667  0.34263576  0.00167328  1
  Pd  Pd5  1  0.61849452  0.61849452  0.14451345  1
  Pd  Pd6  1  0.38644866  0.84065601  0.38644866  1
  Pd  Pd7  1  0.14451345  0.61849452  0.61849452  1
  Pd  Pd8  1  0.65401667  0.00167328  0.34263576  1
  Pd  Pd9  1  0.00167328  0.34263576  0.65401667  1
  Pd  Pd10  1  0.65401667  0.00167328  0.00167328  1
  Pd  Pd11  1  0.00167328  0.00167328  0.34263576  1
  Pd  Pd12  1  0.61849452  0.14451345  0.61849452  1
  Pd  Pd13  1  0.34263576  0.65401667  0.00167328  1
  Pd  Pd14  1  0.38644866  0.38644866  0.38644866  1
  Pd  Pd15  1  0.61849452  0.61849452  0.61849452  1
  Pd  Pd16  1  0.38644866  0.38644866  0.84065601  1
  Pd  Pd17  1  0.00167328  0.00167328  0.65401667  1
  Pd  Pd18  1  0.84065601  0.38644866  0.38644866  1
  Pd  Pd19  1  0.00167328  0.34263576  0.00167328  1
loop_
_geom_bond_atom_site_label_1
_geom_bond_atom_site_label_2
_geom_bond_distance
_geom_bond_site_symmetry_2
Li0 Pd11 2.934833 1_555
Li0 Pd19 2.934833 1_555
Li0 Pd0 2.934833 1_555
Li0 Pd13 2.934837 1_545
Li0 Pd4 2.934837 1_455
Li0 Pd1 2.934837 1_545
Li0 Pd9 2.934837 1_554
Li0 Pd2 2.934837 1_554
Li0 Pd8 2.934837 1_455
Li0 Pd17 2.934841 1_554
Li0 Pd3 2.934841 1_545
Li0 Pd10 2.934842 1_455
Li1 Pd12 2.745623 1_565
Li1 Pd5 2.745623 1_556
Li1 Pd7 2.745623 1_655
Li1 Pd15 2.745644 1_555
Li1 Pd10 3.311277 1_566
Li1 Pd3 3.311277 1_656
Li1 Pd17 3.311278 1_665
Li1 Pd19 3.311281 1_656
Li1 Pd0 3.311281 1_566
Li1 Pd11 3.311281 1_665
Li1 Pd9 3.311284 1_655
Li1 Pd8 3.311285 1_565
Li1 Pd2 3.311285 1_565
Li1 Pd1 3.311285 1_655
Li1 Pd4 3.311285 1_556
Li1 Pd13 3.311285 1_556
P0 Pd11 2.338952 1_655
P0 Pd19 2.338952 1_655
P0 Pd4 2.338958 1_555
P0 Pd8 2.338958 1_555
P0 Pd14 2.451545 1_555
P0 Pd18 2.451559 1_555
P0 Pd5 2.483484 1_555
P0 Pd12 2.483484 1_555
P1 Pd8 2.338950 1_565
P1 Pd1 2.338950 1_655
P1 Pd10 2.338955 1_565
P1 Pd3 2.338955 1_655
P1 Pd18 2.451545 1_555
P1 Pd6 2.451545 1_555
P1 Pd15 2.483484 1_555
P1 Pd5 2.483505 1_555
P2 Pd4 2.338950 1_556
P2 Pd9 2.338950 1_655
P2 Pd17 2.338955 1_655
P2 Pd10 2.338955 1_556
P2 Pd18 2.451545 1_555
P2 Pd16 2.451545 1_555
P2 Pd15 2.483484 1_555
P2 Pd12 2.483505 1_555
P3 Pd11 2.338952 1_565
P3 Pd0 2.338952 1_565
P3 Pd13 2.338958 1_555
P3 Pd1 2.338958 1_555
P3 Pd14 2.451545 1_555
P3 Pd6 2.451559 1_555
P3 Pd7 2.483484 1_555
P3 Pd5 2.483484 1_555
P4 Pd13 2.338950 1_556
P4 Pd2 2.338950 1_565
P4 Pd17 2.338955 1_565
P4 Pd3 2.338955 1_556
P4 Pd16 2.451545 1_555
P4 Pd6 2.451545 1_555
P4 Pd15 2.483484 1_555
P4 Pd7 2.483505 1_555
P5 Pd0 2.338952 1_556
P5 Pd19 2.338952 1_556
P5 Pd2 2.338958 1_555
P5 Pd9 2.338958 1_555
P5 Pd14 2.451545 1_555
P5 Pd16 2.451559 1_555
P5 Pd7 2.483484 1_555
P5 Pd12 2.483484 1_555
Pd0 Pd10 2.654096 1_555
Pd0 Pd19 2.906238 1_555
Pd0 Pd11 2.906239 1_555
Pd0 Pd2 2.963297 1_554
Pd0 Pd13 2.963297 1_545
Pd0 Pd5 2.980768 1_545
Pd0 Pd12 2.980768 1_554
Pd0 Pd6 2.998408 1_545
Pd0 Pd16 2.998408 1_554
Pd0 Y0 3.274362 1_555
Pd1 Pd9 2.654096 1_555
Pd1 Pd13 2.906239 1_555
Pd1 Pd3 2.906239 1_555
Pd1 Pd8 2.963297 1_465
Pd1 Pd11 2.963297 1_565
Pd1 Pd7 2.980760 1_555
Pd1 Pd15 2.980772 1_455
Pd1 Pd18 2.998384 1_455
Pd1 Pd14 2.998404 1_555
Pd1 Y0 3.274354 1_555
Pd2 Pd8 2.654096 1_555
Pd2 Pd9 2.906238 1_555
Pd2 Pd6 2.998384 1_545
Pd2 Y0 3.274354 1_555
Pd3 Pd7 2.980776 1_554
Pd3 Pd5 2.980776 1_455
Pd3 Y0 3.274358 1_555
Pd4 Pd8 2.906239 1_555
Pd4 Pd9 2.963297 1_654
Pd4 Pd5 2.980760 1_555
Pd4 Y0 3.274355 1_555
Pd6 Y0 2.848836 1_565
Pd6 Pd8 2.998384 1_565
Pd7 Pd9 2.980760 1_555
Pd8 Y0 3.274354 1_555
Pd9 Y0 3.274354 1_555
Pd10 Pd8 2.906239 1_555
Pd10 Pd4 2.906239 1_555
Pd10 Pd3 2.963297 1_645
Pd10 Pd17 2.963297 1_654
Pd10 Pd12 2.980775 1_554
Pd10 Pd5 2.980776 1_545
Pd10 Pd16 2.998396 1_554
Pd10 Pd6 2.998396 1_545
Pd10 Y0 3.274358 1_555
Pd11 Pd17 2.654096 1_555
Pd11 Pd19 2.906239 1_555
Pd11 Pd8 2.963297 1_455
Pd11 Pd7 2.980768 1_545
Pd11 Pd12 2.980768 1_455
Pd11 Pd18 2.998408 1_455
Pd11 Pd6 2.998408 1_545
Pd11 Y0 3.274362 1_555
Pd12 Pd8 2.980760 1_555
Pd12 Pd2 2.980760 1_555
Pd12 Pd17 2.980776 1_655
Pd13 Pd4 2.654096 1_555
Pd13 Pd3 2.906239 1_555
Pd13 Pd2 2.963297 1_564
Pd13 Pd5 2.980760 1_555
Pd13 Pd15 2.980772 1_554
Pd13 Pd16 2.998384 1_554
Pd13 Pd14 2.998404 1_555
Pd13 Y0 3.274354 1_555
Pd14 Y0 2.848850 1_555
Pd14 Pd8 2.998404 1_555
Pd14 Pd2 2.998404 1_555
Pd14 Pd4 2.998404 1_555
Pd14 Pd9 2.998404 1_555
Pd15 Pd2 2.980772 1_565
Pd15 Pd9 2.980772 1_655
Pd15 Pd4 2.980772 1_556
Pd15 Pd8 2.980772 1_565
Pd16 Y0 2.848836 1_556
Pd16 Pd4 2.998384 1_556
Pd16 Pd3 2.998396 1_556
Pd16 Pd19 2.998408 1_556
Pd17 Pd9 2.906239 1_555
Pd17 Pd2 2.906239 1_555
Pd17 Pd3 2.963297 1_546
Pd17 Pd7 2.980775 1_545
Pd17 Pd18 2.998396 1_455
Pd17 Pd6 2.998396 1_545
Pd17 Y0 3.274358 1_555
Pd18 Y0 2.848836 1_655
Pd18 Pd9 2.998384 1_655
Pd18 Pd3 2.998396 1_655
Pd18 Pd19 2.998408 1_655
Pd19 Pd3 2.654096 1_555
Pd19 Pd9 2.963297 1_554
Pd19 Pd4 2.963297 1_455
Pd19 Pd5 2.980768 1_455
Pd19 Pd7 2.980768 1_554
Pd19 Y0 3.274362 1_555
