# generated using pymatgen
data_RbZrSi4N7
_symmetry_space_group_name_H-M   'P 1'
_cell_length_a   5.93923419
_cell_length_b   5.93923252
_cell_length_c   9.68559438
_cell_angle_alpha   90.00000000
_cell_angle_beta   90.00000000
_cell_angle_gamma   120.00014184
_symmetry_Int_Tables_number   1
_chemical_formula_structural   RbZrSi4N7
_chemical_formula_sum   'Rb2 Zr2 Si8 N14'
_cell_volume   295.88099260
_cell_formula_units_Z   2
loop_
 _symmetry_equiv_pos_site_id
 _symmetry_equiv_pos_as_xyz
  1  'x, y, z'
loop_
 _atom_site_type_symbol
 _atom_site_label
 _atom_site_symmetry_multiplicity
 _atom_site_fract_x
 _atom_site_fract_y
 _atom_site_fract_z
 _atom_site_occupancy
  Rb  Rb0  1  0.33333368  0.66666432  0.36167077  1
  Rb  Rb1  1  0.66666432  0.33333368  0.86166977  1
  Zr  Zr0  1  0.66666949  0.33333051  0.23612521  1
  Zr  Zr1  1  0.33333151  0.66666949  0.73612321  1
  Si  Si0  1  0.17397081  0.34793407  0.04699045  1
  Si  Si1  1  0.82602819  0.65206593  0.54699045  1
  Si  Si2  1  0.65206493  0.82602819  0.04699045  1
  Si  Si3  1  0.17397055  0.82602845  0.04699056  1
  Si  Si4  1  0.82602745  0.17396955  0.54698956  1
  Si  Si5  1  0.34793407  0.17397081  0.54699045  1
  Si  Si6  1  0.00000171  0.99999829  0.31218429  1
  Si  Si7  1  0.99999929  0.00000371  0.81218429  1
  N  N0  1  0.01676519  0.50837774  0.10404174  1
  N  N1  1  0.98323381  0.49162226  0.60404174  1
  N  N2  1  0.49162461  0.50837839  0.10404015  1
  N  N3  1  0.49162126  0.98323481  0.10404174  1
  N  N4  1  0.50837774  0.01676519  0.60404174  1
  N  N5  1  0.50837739  0.49162361  0.60404115  1
  N  N6  1  0.84257741  0.68515299  0.37006373  1
  N  N7  1  0.15742159  0.31484701  0.87006273  1
  N  N8  1  0.31484701  0.15742259  0.37006273  1
  N  N9  1  0.84257965  0.15742035  0.37006293  1
  N  N10  1  0.15742135  0.84257865  0.87006293  1
  N  N11  1  0.68515299  0.84257941  0.87006173  1
  N  N12  1  0.00000381  0.99999619  0.11948026  1
  N  N13  1  0.99999719  0.00000381  0.61947826  1
loop_
_geom_bond_atom_site_label_1
_geom_bond_atom_site_label_2
_geom_bond_distance
_geom_bond_site_symmetry_2
N0 Si0 1.724779 1_555
N0 Si3 1.724782 1_555
N0 Zr0 2.208899 1_455
N0 Rb1 2.958638 1_454
N0 Rb0 2.979557 1_555
N1 Si1 1.724779 1_555
N1 Si4 1.724795 1_555
N1 Zr1 2.208896 1_655
N1 Rb0 2.958627 1_655
N1 Rb1 2.979551 1_555
N2 Si2 1.724773 1_555
N2 Si0 1.724793 1_555
N2 Zr0 2.208898 1_555
N2 Rb1 2.958576 1_554
N2 Rb0 2.979595 1_555
N3 Si3 1.724782 1_555
N3 Si2 1.724784 1_555
N3 Zr0 2.208898 1_565
N3 Rb1 2.958631 1_564
N3 Rb0 2.979562 1_555
N4 Si5 1.724779 1_555
N4 Si4 1.724780 1_555
N4 Zr1 2.208887 1_545
N4 Rb0 2.958630 1_545
N4 Rb1 2.979548 1_555
N5 Si1 1.724781 1_555
N5 Si5 1.724790 1_555
N5 Zr1 2.208877 1_555
N5 Rb0 2.958576 1_555
N5 Rb1 2.979579 1_555
N6 Si6 1.713700 1_655
N6 Si1 1.722070 1_555
N6 Zr0 2.226565 1_555
N6 Rb0 2.972247 1_555
N6 Rb0 2.972255 1_655
N7 Si7 1.713687 1_455
N7 Si0 1.722080 1_556
N7 Zr1 2.226571 1_555
N7 Rb1 2.972247 1_555
N7 Rb1 2.972255 1_455
N8 Si6 1.713697 1_545
N8 Si5 1.722080 1_555
N8 Zr0 2.226560 1_555
N8 Rb0 2.972240 1_555
N8 Rb0 2.972260 1_545
N9 Si6 1.713695 1_645
N9 Si4 1.722077 1_555
N9 Zr0 2.226555 1_555
N9 Rb0 2.972238 1_655
N9 Rb0 2.972250 1_545
N10 Si7 1.713709 1_465
N10 Si3 1.722085 1_556
N10 Zr1 2.226562 1_555
N10 Rb1 2.972238 1_565
N10 Rb1 2.972250 1_455
N11 Si7 1.713699 1_565
N11 Si2 1.722090 1_556
N11 Zr1 2.226561 1_555
N11 Rb1 2.972242 1_565
N11 Rb1 2.972258 1_555
N12 Si6 1.866453 1_555
N12 Si3 1.922411 1_555
N12 Si0 1.922423 1_565
N12 Si2 1.922429 1_455
N13 Si7 1.866472 1_555
N13 Si4 1.922412 1_555
N13 Si5 1.922412 1_655
N13 Si1 1.922416 1_545
