# generated using pymatgen
data_K2MnCrF7
_symmetry_space_group_name_H-M   'P 1'
_cell_length_a   7.68047603
_cell_length_b   7.68047617
_cell_length_c   7.68047603
_cell_angle_alpha   120.64701795
_cell_angle_beta   117.22526422
_cell_angle_gamma   91.87747780
_symmetry_Int_Tables_number   1
_chemical_formula_structural   K2MnCrF7
_chemical_formula_sum   'K4 Mn2 Cr2 F14'
_cell_volume   324.98232777
_cell_formula_units_Z   2
loop_
 _symmetry_equiv_pos_site_id
 _symmetry_equiv_pos_as_xyz
  1  'x, y, z'
loop_
 _atom_site_type_symbol
 _atom_site_label
 _atom_site_symmetry_multiplicity
 _atom_site_fract_x
 _atom_site_fract_y
 _atom_site_fract_z
 _atom_site_occupancy
  K  K0  1  0.50000000  0.50000000  0.00000000  1
  K  K1  1  0.00000000  0.00000000  0.00000000  1
  K  K2  1  0.00000000  0.50000000  0.00000000  1
  K  K3  1  0.00000000  0.00000000  0.50000000  1
  Mn  Mn0  1  0.50000000  0.50000000  0.50000000  1
  Mn  Mn1  1  0.50000000  0.00000000  0.00000000  1
  Cr  Cr0  1  0.00000000  0.50000000  0.50000000  1
  Cr  Cr1  1  0.50000000  0.00000000  0.50000000  1
  F  F0  1  0.87754675  0.58624700  0.29129976  1
  F  F1  1  0.20505276  0.91375300  0.29129976  1
  F  F2  1  0.18436516  0.79619448  0.75533915  1
  F  F3  1  0.45914367  0.70380552  0.38817068  1
  F  F4  1  0.45914367  0.07097299  0.75533915  1
  F  F5  1  0.18436516  0.42902701  0.38817068  1
  F  F6  1  0.81563484  0.57097299  0.61182932  1
  F  F7  1  0.54085633  0.92902701  0.24466085  1
  F  F8  1  0.54085633  0.29619448  0.61182932  1
  F  F9  1  0.81563484  0.20380552  0.24466085  1
  F  F10  1  0.38827748  0.25000000  0.13827748  1
  F  F11  1  0.12245325  0.41375300  0.70870024  1
  F  F12  1  0.79494724  0.08624700  0.70870024  1
  F  F13  1  0.61172252  0.75000000  0.86172252  1
loop_
_geom_bond_atom_site_label_1
_geom_bond_atom_site_label_2
_geom_bond_distance
_geom_bond_site_symmetry_2
Cr0 F0 1.906996 1_455
Cr0 F11 1.906996 1_555
Cr0 F6 1.930289 1_455
Cr0 F5 1.930289 1_555
Cr0 F2 1.930290 1_555
Cr0 F9 1.930290 1_455
Cr1 F12 1.906996 1_555
Cr1 F1 1.906996 1_545
Cr1 F8 1.930289 1_555
Cr1 F3 1.930289 1_545
Cr1 F7 1.930296 1_545
Cr1 F4 1.930296 1_555
F0 K0 2.505997 1_555
F0 K2 2.604636 1_655
F0 K3 2.604636 1_665
F1 K1 2.505997 1_565
F1 K3 2.604636 1_565
F1 K2 2.604636 1_555
F2 Mn1 2.107764 1_566
F2 K1 2.750906 1_566
F2 K3 3.005885 1_565
F3 Mn0 2.107764 1_555
F3 K0 2.750911 1_555
F3 K2 3.005879 1_555
F4 Mn1 2.107757 1_556
F4 K0 2.750911 1_556
F4 K3 3.005880 1_555
F5 Mn0 2.107764 1_555
F5 K1 2.750911 1_555
F5 K2 3.005879 1_555
F6 Mn0 2.107764 1_555
F6 K1 2.750911 1_666
F6 K2 3.005879 1_656
F7 Mn1 2.107757 1_565
F7 K0 2.750911 1_555
F7 K3 3.005880 1_665
F8 Mn0 2.107764 1_555
F8 K0 2.750911 1_556
F8 K2 3.005879 1_656
F9 Mn1 2.107764 1_555
F9 K1 2.750906 1_655
F9 K3 3.005885 1_655
F10 Mn1 2.100925 1_555
F10 Mn0 2.100925 1_555
F10 K0 2.890666 1_555
F10 K1 2.890666 1_555
F11 K0 2.505997 1_556
F11 K2 2.604636 1_556
F11 K3 2.604636 1_555
F12 K1 2.505997 1_656
F12 K3 2.604636 1_655
F12 K2 2.604636 1_656
F13 Mn1 2.100925 1_566
F13 Mn0 2.100925 1_555
F13 K0 2.890666 1_556
F13 K1 2.890666 1_666
