# generated using pymatgen
data_HfTi5BI12
_symmetry_space_group_name_H-M   'P 1'
_cell_length_a   9.18882802
_cell_length_b   8.95897095
_cell_length_c   9.18117413
_cell_angle_alpha   107.21214442
_cell_angle_beta   107.16156590
_cell_angle_gamma   106.69923804
_symmetry_Int_Tables_number   1
_chemical_formula_structural   HfTi5BI12
_chemical_formula_sum   'Hf1 Ti5 B1 I12'
_cell_volume   629.02155277
_cell_formula_units_Z   1
loop_
 _symmetry_equiv_pos_site_id
 _symmetry_equiv_pos_as_xyz
  1  'x, y, z'
loop_
 _atom_site_type_symbol
 _atom_site_label
 _atom_site_symmetry_multiplicity
 _atom_site_fract_x
 _atom_site_fract_y
 _atom_site_fract_z
 _atom_site_occupancy
  Hf  Hf0  1  0.96876488  0.71705946  0.90875434  1
  Ti  Ti0  1  0.25542544  0.08550855  0.02804037  1
  Ti  Ti1  1  0.08379798  0.02935499  0.25708519  1
  Ti  Ti2  1  0.91742599  0.97556769  0.74532382  1
  Ti  Ti3  1  0.74518912  0.91931701  0.97325032  1
  Ti  Ti4  1  0.02885572  0.25951594  0.08577146  1
  B  B0  1  0.99946485  0.99270080  0.99803355  1
  I  I0  1  0.92890385  0.30927945  0.78543557  1
  I  I1  1  0.71171636  0.22716934  0.07612298  1
  I  I2  1  0.42618429  0.13540691  0.35571043  1
  I  I3  1  0.85641151  0.63420171  0.56072847  1
  I  I4  1  0.21792882  0.07729848  0.70928629  1
  I  I5  1  0.63110414  0.56273841  0.85750562  1
  I  I6  1  0.35766752  0.43460918  0.14102107  1
  I  I7  1  0.78177278  0.92810934  0.29129027  1
  I  I8  1  0.14160279  0.36432831  0.43024626  1
  I  I9  1  0.57528199  0.86701607  0.64395186  1
  I  I10  1  0.29848786  0.77848986  0.92446881  1
  I  I11  1  0.07401614  0.70233149  0.22797532  1
loop_
_geom_bond_atom_site_label_1
_geom_bond_atom_site_label_2
_geom_bond_distance
_geom_bond_site_symmetry_2
Hf0 I3 2.834751 1_555
Hf0 I5 2.836875 1_555
Hf0 I11 2.858663 1_656
Hf0 I10 2.870535 1_655
Hf0 I0 3.361681 1_555
B0 Ti0 2.158058 1_666
B0 Ti3 2.158274 1_555
B0 Ti2 2.160000 1_555
B0 Ti1 2.160783 1_666
B0 Ti4 2.190164 1_666
B0 Hf0 2.261625 1_555
I0 Ti4 2.848523 1_656
I0 Ti2 2.868692 1_545
I1 Ti3 2.776822 1_544
I1 Ti4 2.816234 1_655
I2 Ti1 2.777150 1_555
I2 Ti0 2.779853 1_555
I3 Ti2 2.815342 1_555
I4 Ti2 2.799296 1_445
I4 Ti0 2.819881 1_556
I5 Ti3 2.800433 1_555
I6 Ti0 2.748935 1_555
I6 Ti4 2.783462 1_555
I7 Ti1 2.803507 1_665
I7 Ti3 2.813341 1_554
I8 Ti1 2.752767 1_555
I8 Ti4 2.776210 1_555
I9 Ti2 2.770660 1_555
I9 Ti3 2.784478 1_555
I10 Ti0 2.815324 1_566
I11 Ti1 2.834479 1_565
