# generated using pymatgen
data_Ca3Al12Ir3Os
_symmetry_space_group_name_H-M   'P 1'
_cell_length_a   8.80811667
_cell_length_b   8.80811699
_cell_length_c   9.55297379
_cell_angle_alpha   90.00000000
_cell_angle_beta   90.00000000
_cell_angle_gamma   119.99999880
_symmetry_Int_Tables_number   1
_chemical_formula_structural   Ca3Al12Ir3Os
_chemical_formula_sum   'Ca6 Al24 Ir6 Os2'
_cell_volume   641.85267550
_cell_formula_units_Z   2
loop_
 _symmetry_equiv_pos_site_id
 _symmetry_equiv_pos_as_xyz
  1  'x, y, z'
loop_
 _atom_site_type_symbol
 _atom_site_label
 _atom_site_symmetry_multiplicity
 _atom_site_fract_x
 _atom_site_fract_y
 _atom_site_fract_z
 _atom_site_occupancy
  Ca  Ca0  1  0.19308162  0.38616323  0.25000000  1
  Ca  Ca1  1  0.80691838  0.61383677  0.75000000  1
  Ca  Ca2  1  0.61383677  0.80691838  0.25000000  1
  Ca  Ca3  1  0.38616323  0.19308162  0.75000000  1
  Ca  Ca4  1  0.19308162  0.80691838  0.25000000  1
  Ca  Ca5  1  0.80691838  0.19308162  0.75000000  1
  Al  Al0  1  0.33333300  0.66666700  0.99911293  1
  Al  Al1  1  0.66666700  0.33333300  0.00088707  1
  Al  Al2  1  0.66666700  0.33333300  0.49911293  1
  Al  Al3  1  0.33333300  0.66666700  0.50088707  1
  Al  Al4  1  0.16188206  0.32376313  0.57614004  1
  Al  Al5  1  0.83811794  0.67623687  0.42385996  1
  Al  Al6  1  0.67623687  0.83811794  0.57614004  1
  Al  Al7  1  0.83811794  0.67623687  0.07614004  1
  Al  Al8  1  0.32376313  0.16188206  0.42385996  1
  Al  Al9  1  0.16188206  0.32376313  0.92385996  1
  Al  Al10  1  0.16188206  0.83811794  0.57614004  1
  Al  Al11  1  0.32376313  0.16188206  0.07614004  1
  Al  Al12  1  0.83811794  0.16188206  0.42385996  1
  Al  Al13  1  0.67623687  0.83811794  0.92385996  1
  Al  Al14  1  0.83811794  0.16188206  0.07614004  1
  Al  Al15  1  0.16188206  0.83811794  0.92385996  1
  Al  Al16  1  0.56178609  0.12357218  0.25000000  1
  Al  Al17  1  0.43821391  0.87642782  0.75000000  1
  Al  Al18  1  0.87642782  0.43821391  0.25000000  1
  Al  Al19  1  0.12357218  0.56178609  0.75000000  1
  Al  Al20  1  0.56178609  0.43821391  0.25000000  1
  Al  Al21  1  0.43821391  0.56178609  0.75000000  1
  Al  Al22  1  0.00000000  0.00000000  0.25000000  1
  Al  Al23  1  0.00000000  0.00000000  0.75000000  1
  Ir  Ir0  1  0.50000000  0.00000000  0.00000000  1
  Ir  Ir1  1  0.00000000  0.50000000  0.00000000  1
  Ir  Ir2  1  0.50000000  0.00000000  0.50000000  1
  Ir  Ir3  1  0.50000000  0.50000000  0.00000000  1
  Ir  Ir4  1  0.00000000  0.50000000  0.50000000  1
  Ir  Ir5  1  0.50000000  0.50000000  0.50000000  1
  Os  Os0  1  0.00000000  0.00000000  0.00000000  1
  Os  Os1  1  0.00000000  0.00000000  0.50000000  1
loop_
_geom_bond_atom_site_label_1
_geom_bond_atom_site_label_2
_geom_bond_distance
_geom_bond_site_symmetry_2
Ca0 Ir5 3.362540 1_555
Ca0 Ir3 3.362540 1_555
Ca0 Ir4 3.362540 1_555
Ca0 Ir1 3.362540 1_555
Ca0 Ca2 3.706061 1_555
Ca0 Ca4 3.706061 1_555
Ca1 Ir5 3.362540 1_555
Ca1 Ir3 3.362540 1_556
Ca1 Ir1 3.362540 1_656
Ca1 Ir4 3.362540 1_655
Ca1 Ca3 3.706061 1_555
Ca1 Ca5 3.706061 1_555
Ca2 Ir2 3.362540 1_565
Ca2 Ir0 3.362540 1_565
Ca2 Ir5 3.362540 1_555
Ca2 Ir3 3.362540 1_555
Ca2 Ca4 3.706060 1_555
Ca3 Ir0 3.362540 1_556
Ca3 Ir2 3.362540 1_555
Ca3 Ir5 3.362540 1_555
Ca3 Ir3 3.362540 1_556
Ca3 Ca5 3.706060 1_555
Ca4 Ir0 3.362540 1_565
Ca4 Ir2 3.362540 1_565
Ca4 Ir4 3.362540 1_555
Ca4 Ir1 3.362540 1_555
Ca5 Ir2 3.362540 1_555
Ca5 Ir0 3.362540 1_556
Ca5 Ir4 3.362540 1_655
Ca5 Ir1 3.362540 1_656
Al0 Ir1 2.542696 1_556
Al0 Ir0 2.542696 1_566
Al0 Ir3 2.542704 1_556
Al0 Al15 2.712665 1_555
Al0 Al13 2.712680 1_555
Al0 Al9 2.712680 1_555
Al0 Al19 2.867667 1_555
Al0 Al17 2.867667 1_555
Al0 Al21 2.867671 1_555
Al0 Ca4 3.212869 1_556
Al0 Ca2 3.212874 1_556
Al0 Ca0 3.212874 1_556
Al1 Ir1 2.542696 1_655
Al1 Ir0 2.542696 1_555
Al1 Ir3 2.542704 1_555
Al1 Al14 2.712665 1_555
Al1 Al11 2.712680 1_555
Al1 Al7 2.712680 1_555
Al1 Al18 2.867667 1_555
Al1 Al16 2.867667 1_555
Al1 Al20 2.867671 1_555
Al1 Ca5 3.212869 1_554
Al1 Ca3 3.212874 1_554
Al1 Ca1 3.212874 1_554
Al2 Ir4 2.542696 1_655
Al2 Ir2 2.542696 1_555
Al2 Ir5 2.542704 1_555
Al2 Al8 2.712680 1_555
Al2 Al5 2.712680 1_555
Al2 Al20 2.867671 1_555
Al2 Ca5 3.212869 1_555
Al2 Ca3 3.212874 1_555
Al2 Ca1 3.212874 1_555
Al3 Ir4 2.542696 1_555
Al3 Ir2 2.542696 1_565
Al3 Ir5 2.542704 1_555
Al3 Al6 2.712680 1_555
Al3 Al4 2.712680 1_555
Al3 Ca4 3.212869 1_555
Al3 Ca2 3.212874 1_555
Al3 Ca0 3.212874 1_555
Al4 Os1 2.574566 1_555
Al4 Ir5 2.680528 1_555
Al4 Ir4 2.680536 1_555
Al4 Al8 2.866274 1_555
Al4 Ca0 3.151758 1_555
Al4 Ca3 3.203115 1_555
Al4 Ca5 3.203122 1_455
Al5 Os1 2.574566 1_665
Al5 Ir5 2.680528 1_555
Al5 Ir4 2.680536 1_655
Al5 Al6 2.866274 1_555
Al5 Ca1 3.151758 1_555
Al5 Ca2 3.203115 1_555
Al5 Ca4 3.203122 1_655
Al6 Os1 2.574566 1_665
Al6 Ir5 2.680529 1_555
Al6 Ir2 2.680536 1_565
Al6 Ca2 3.151758 1_555
Al6 Ca1 3.203115 1_555
Al6 Ca5 3.203122 1_565
Al7 Os0 2.574566 1_665
Al7 Ir3 2.680528 1_555
Al7 Ir1 2.680536 1_655
Al7 Ca1 3.151758 1_554
Al7 Ca2 3.203115 1_555
Al7 Ca4 3.203122 1_655
Al8 Os1 2.574566 1_555
Al8 Ir5 2.680529 1_555
Al8 Ir2 2.680536 1_555
Al8 Ca3 3.151758 1_555
Al8 Ca0 3.203115 1_555
Al8 Ca4 3.203122 1_545
Al9 Os0 2.574566 1_556
Al9 Ir3 2.680528 1_556
Al9 Ir1 2.680536 1_556
Al9 Ca0 3.151758 1_556
Al9 Ca3 3.203115 1_555
Al9 Ca5 3.203122 1_455
Al10 Os1 2.574573 1_565
Al10 Ir2 2.680528 1_565
Al10 Ir4 2.680528 1_555
Al10 Al3 2.712665 1_555
Al10 Al17 2.824049 1_555
Al10 Al19 2.824049 1_555
Al10 Al5 2.866287 1_455
Al10 Al8 2.866287 1_565
Al10 Al23 2.976221 1_565
Al10 Ca4 3.151757 1_555
Al10 Ca1 3.203121 1_455
Al10 Ca3 3.203121 1_565
Al11 Os0 2.574566 1_555
Al11 Ir3 2.680529 1_555
Al11 Ir0 2.680536 1_555
Al11 Al20 2.824051 1_555
Al11 Al16 2.824056 1_555
Al11 Al9 2.866274 1_554
Al11 Al15 2.866287 1_544
Al11 Al22 2.976214 1_555
Al11 Ca3 3.151758 1_554
Al11 Ca0 3.203115 1_555
Al11 Ca4 3.203122 1_545
Al12 Os1 2.574573 1_655
Al12 Ir2 2.680528 1_555
Al12 Ir4 2.680528 1_655
Al12 Al2 2.712665 1_555
Al12 Al16 2.824049 1_555
Al12 Al18 2.824049 1_555
Al12 Al4 2.866287 1_655
Al12 Al6 2.866287 1_545
Al12 Al22 2.976221 1_655
Al12 Ca5 3.151757 1_555
Al12 Ca0 3.203121 1_655
Al12 Ca2 3.203121 1_545
Al13 Os0 2.574566 1_666
Al13 Ir3 2.680529 1_556
Al13 Ir0 2.680536 1_566
Al13 Al21 2.824051 1_555
Al13 Al17 2.824056 1_555
Al13 Al7 2.866274 1_556
Al13 Al14 2.866287 1_566
Al13 Al23 2.976214 1_665
Al13 Ca2 3.151758 1_556
Al13 Ca1 3.203115 1_555
Al13 Ca5 3.203122 1_565
Al14 Os0 2.574573 1_655
Al14 Ir0 2.680528 1_555
Al14 Ir1 2.680528 1_655
Al14 Al16 2.824049 1_555
Al14 Al18 2.824049 1_555
Al14 Al9 2.866287 1_654
Al14 Al22 2.976221 1_655
Al14 Ca5 3.151757 1_554
Al14 Ca0 3.203121 1_655
Al14 Ca2 3.203121 1_545
Al15 Os0 2.574573 1_566
Al15 Ir0 2.680528 1_566
Al15 Ir1 2.680528 1_556
Al15 Al17 2.824049 1_555
Al15 Al19 2.824049 1_555
Al15 Al7 2.866287 1_456
Al15 Al23 2.976221 1_565
Al15 Ca4 3.151757 1_556
Al15 Ca1 3.203121 1_455
Al15 Ca3 3.203121 1_565
Al16 Ir2 2.567534 1_555
Al16 Ir0 2.567534 1_555
Al16 Al18 2.771401 1_555
Al16 Al20 2.771401 1_555
Al16 Al8 2.824056 1_555
Al16 Al2 2.867667 1_555
Al16 Ca4 3.044360 1_545
Al16 Ca2 3.044360 1_545
Al17 Ir0 2.567534 1_566
Al17 Ir2 2.567534 1_565
Al17 Al21 2.771401 1_555
Al17 Al19 2.771401 1_555
Al17 Al6 2.824056 1_555
Al17 Al3 2.867667 1_555
Al17 Ca5 3.044360 1_565
Al17 Ca3 3.044360 1_565
Al18 Ir1 2.567534 1_655
Al18 Ir4 2.567534 1_655
Al18 Al20 2.771401 1_555
Al18 Al5 2.824056 1_555
Al18 Al7 2.824056 1_555
Al18 Al2 2.867667 1_555
Al18 Ca0 3.044360 1_655
Al18 Ca4 3.044360 1_655
Al19 Ir1 2.567534 1_556
Al19 Ir4 2.567534 1_555
Al19 Al21 2.771401 1_555
Al19 Al9 2.824056 1_555
Al19 Al4 2.824056 1_555
Al19 Al3 2.867667 1_555
Al19 Ca1 3.044360 1_455
Al19 Ca5 3.044360 1_455
Al20 Ir5 2.567534 1_555
Al20 Ir3 2.567534 1_555
Al20 Al5 2.824051 1_555
Al20 Al7 2.824051 1_555
Al20 Al8 2.824051 1_555
Al20 Ca0 3.044360 1_555
Al20 Ca2 3.044360 1_555
Al21 Ir5 2.567534 1_555
Al21 Ir3 2.567534 1_556
Al21 Al9 2.824051 1_555
Al21 Al4 2.824051 1_555
Al21 Al6 2.824051 1_555
Al21 Al3 2.867671 1_555
Al21 Ca1 3.044360 1_555
Al21 Ca3 3.044360 1_555
Al22 Os0 2.388243 1_555
Al22 Os1 2.388243 1_555
Al22 Ca4 2.945674 1_545
Al22 Ca2 2.945674 1_445
Al22 Ca0 2.945674 1_555
Al22 Al8 2.976214 1_555
Al22 Al5 2.976214 1_445
Al22 Al7 2.976214 1_445
Al23 Os1 2.388243 1_555
Al23 Os0 2.388243 1_556
Al23 Ca5 2.945674 1_455
Al23 Ca3 2.945674 1_555
Al23 Ca1 2.945674 1_445
Al23 Al6 2.976214 1_445
Al23 Al9 2.976214 1_555
Al23 Al4 2.976214 1_555
