# generated using pymatgen
data_Sr6Ti2IrO12
_symmetry_space_group_name_H-M   'P 1'
_cell_length_a   8.73565879
_cell_length_b   8.73565850
_cell_length_c   6.89735002
_cell_angle_alpha   67.66171149
_cell_angle_beta   67.66170628
_cell_angle_gamma   36.72788899
_symmetry_Int_Tables_number   1
_chemical_formula_structural   Sr6Ti2IrO12
_chemical_formula_sum   'Sr6 Ti2 Ir1 O12'
_cell_volume   288.42213339
_cell_formula_units_Z   1
loop_
 _symmetry_equiv_pos_site_id
 _symmetry_equiv_pos_as_xyz
  1  'x, y, z'
loop_
 _atom_site_type_symbol
 _atom_site_label
 _atom_site_symmetry_multiplicity
 _atom_site_fract_x
 _atom_site_fract_y
 _atom_site_fract_z
 _atom_site_occupancy
  Sr  Sr0  1  0.88110735  0.88110735  0.71013136  1
  Sr  Sr1  1  0.21577737  0.21577737  0.70828337  1
  Sr  Sr2  1  0.54851557  0.54851557  0.70860373  1
  Sr  Sr3  1  0.45148443  0.45148443  0.29139627  1
  Sr  Sr4  1  0.78422263  0.78422263  0.29171663  1
  Sr  Sr5  1  0.11889265  0.11889265  0.28986864  1
  Ti  Ti0  1  0.66728717  0.66728717  0.99981010  1
  Ti  Ti1  1  0.33271283  0.33271283  0.00018990  1
  Ir  Ir0  1  0.00000000  0.00000000  0.00000000  1
  O  O0  1  0.94593159  0.94593159  0.32476145  1
  O  O1  1  0.27901622  0.27901622  0.31681646  1
  O  O2  1  0.61523089  0.61523089  0.31726262  1
  O  O3  1  0.38476911  0.38476911  0.68273738  1
  O  O4  1  0.72098378  0.72098378  0.68318354  1
  O  O5  1  0.05406841  0.05406841  0.67523855  1
  O  O6  1  0.50000000  0.00000000  0.00000000  1
  O  O7  1  0.83236557  0.33729203  0.99985898  1
  O  O8  1  0.16763443  0.66270797  0.00014102  1
  O  O9  1  0.00000000  0.50000000  0.00000000  1
  O  O10  1  0.33729203  0.83236557  0.99985898  1
  O  O11  1  0.66270797  0.16763443  0.00014102  1
loop_
_geom_bond_atom_site_label_1
_geom_bond_atom_site_label_2
_geom_bond_distance
_geom_bond_site_symmetry_2
Ir0 O7 1.977005 1_454
Ir0 O8 1.977005 1_545
Ir0 O10 1.977005 1_544
Ir0 O11 1.977005 1_455
Ir0 O5 2.052530 1_554
Ir0 O0 2.052530 1_445
O0 Sr0 2.435604 1_555
O0 Sr3 2.760252 1_655
O0 Sr3 2.760252 1_565
O0 Sr5 2.780347 1_665
O0 Sr4 2.780520 1_555
O1 Ti1 2.001178 1_555
O1 Sr1 2.474332 1_555
O1 Sr5 2.734845 1_555
O1 Sr4 2.756806 1_545
O1 Sr4 2.756806 1_455
O1 Sr3 2.794203 1_555
O2 Ti0 2.006383 1_554
O2 Sr2 2.473450 1_555
O2 Sr4 2.736355 1_555
O2 Sr5 2.757666 1_655
O2 Sr5 2.757666 1_565
O2 Sr3 2.791414 1_555
O3 Ti1 2.006383 1_556
O3 Sr3 2.473450 1_555
O3 Sr1 2.736355 1_555
O3 Sr0 2.757666 1_455
O3 Sr0 2.757666 1_545
O3 Sr2 2.791414 1_555
O4 Ti0 2.001178 1_555
O4 Sr4 2.474332 1_555
O4 Sr0 2.734845 1_555
O4 Sr1 2.756806 1_565
O4 Sr1 2.756806 1_655
O4 Sr2 2.794203 1_555
O5 Sr5 2.435604 1_555
O5 Sr2 2.760252 1_455
O5 Sr2 2.760252 1_545
O5 Sr0 2.780347 1_445
O5 Sr1 2.780520 1_555
O6 Ti1 1.943221 1_555
O6 Ti0 1.943221 1_544
O6 Sr0 2.671295 1_544
O6 Sr5 2.671295 1_555
O6 Sr4 2.679286 1_545
O6 Sr1 2.679286 1_554
O7 Ti0 1.930185 1_555
O7 Sr5 2.675123 1_656
O7 Sr1 2.681946 1_655
O7 Sr2 2.687661 1_555
O7 Sr3 2.688441 1_556
O8 Ti1 1.930185 1_555
O8 Sr0 2.675123 1_454
O8 Sr4 2.681946 1_455
O8 Sr3 2.687661 1_555
O8 Sr2 2.688441 1_554
O9 Ti1 1.943222 1_555
O9 Ti0 1.943222 1_454
O9 Sr0 2.671296 1_454
O9 Sr5 2.671296 1_555
O9 Sr4 2.679286 1_455
O9 Sr1 2.679286 1_554
O10 Ti0 1.930185 1_555
O10 Sr5 2.675123 1_566
O10 Sr1 2.681947 1_565
O10 Sr2 2.687661 1_555
O10 Sr3 2.688441 1_556
O11 Ti1 1.930185 1_555
O11 Sr0 2.675123 1_544
O11 Sr4 2.681947 1_545
O11 Sr3 2.687661 1_555
O11 Sr2 2.688441 1_554
