# generated using pymatgen
data_K4HfSbI12
_symmetry_space_group_name_H-M   'P 1'
_cell_length_a   8.42957047
_cell_length_b   8.06512747
_cell_length_c   13.86885326
_cell_angle_alpha   54.91713834
_cell_angle_beta   89.92905544
_cell_angle_gamma   89.67772434
_symmetry_Int_Tables_number   1
_chemical_formula_structural   K4HfSbI12
_chemical_formula_sum   'K4 Hf1 Sb1 I12'
_cell_volume   771.56608481
_cell_formula_units_Z   1
loop_
 _symmetry_equiv_pos_site_id
 _symmetry_equiv_pos_as_xyz
  1  'x, y, z'
loop_
 _atom_site_type_symbol
 _atom_site_label
 _atom_site_symmetry_multiplicity
 _atom_site_fract_x
 _atom_site_fract_y
 _atom_site_fract_z
 _atom_site_occupancy
  K  K0  1  0.58368136  0.72004197  0.25255221  1
  K  K1  1  0.08200862  0.27183872  0.24828544  1
  K  K2  1  0.41631864  0.27995803  0.74744779  1
  K  K3  1  0.91799138  0.72816128  0.75171456  1
  Hf  Hf0  1  0.00000000  0.00000000  0.00000000  1
  Sb  Sb0  1  0.50000000  0.00000000  0.50000000  1
  I  I0  1  0.99169232  0.83879010  0.24365232  1
  I  I1  1  0.49257892  0.15841644  0.24879902  1
  I  I2  1  0.00830768  0.16120990  0.75634768  1
  I  I3  1  0.50742108  0.84158356  0.75120098  1
  I  I4  1  0.69502692  0.65283303  0.55018522  1
  I  I5  1  0.18405029  0.33333186  0.95678232  1
  I  I6  1  0.30497308  0.34716697  0.44981478  1
  I  I7  1  0.81594971  0.66666814  0.04321768  1
  I  I8  1  0.71380056  0.22106026  0.96231702  1
  I  I9  1  0.20608663  0.76943469  0.54140880  1
  I  I10  1  0.28619944  0.77893974  0.03768298  1
  I  I11  1  0.79391337  0.23056531  0.45859120  1
loop_
_geom_bond_atom_site_label_1
_geom_bond_atom_site_label_2
_geom_bond_distance
_geom_bond_site_symmetry_2
Hf0 I2 2.839752 1_554
Hf0 I0 2.839752 1_445
Hf0 I10 2.855833 1_545
Hf0 I8 2.855833 1_454
Hf0 I5 2.861107 1_554
Hf0 I7 2.861107 1_445
I0 K0 3.558336 1_555
I0 K1 3.615240 1_665
I1 Sb0 2.942207 1_555
I1 K1 3.573772 1_555
I1 K0 3.584767 1_545
I2 K2 3.558336 1_555
I2 K3 3.615240 1_445
I3 Sb0 2.942207 1_565
I3 K3 3.573772 1_555
I3 K2 3.584767 1_565
I4 Sb0 2.955962 1_565
I4 K2 3.557258 1_555
I4 K3 3.700176 1_555
I4 K0 3.955450 1_555
I5 K3 3.575412 1_455
I5 K2 3.722977 1_555
I5 K1 3.875766 1_556
I6 Sb0 2.955962 1_555
I6 K0 3.557258 1_555
I6 K1 3.700176 1_555
I6 K2 3.955450 1_555
I7 K1 3.575412 1_655
I7 K0 3.722977 1_555
I7 K3 3.875766 1_554
I8 K2 3.711087 1_555
I8 K3 3.815173 1_555
I8 K0 3.882696 1_546
I9 Sb0 2.957486 1_565
I9 K3 3.659390 1_455
I9 K2 3.722474 1_555
I9 K1 3.881542 1_565
I10 K0 3.711087 1_555
I10 K1 3.815173 1_555
I10 K2 3.882696 1_564
I11 Sb0 2.957486 1_555
I11 K1 3.659390 1_655
I11 K0 3.722474 1_555
I11 K3 3.881542 1_545
