# generated using pymatgen
data_Sc3ZnAu2C
_symmetry_space_group_name_H-M   'P 1'
_cell_length_a   8.71194416
_cell_length_b   8.71194467
_cell_length_c   8.71194503
_cell_angle_alpha   60.00000235
_cell_angle_beta   60.00000042
_cell_angle_gamma   60.00000006
_symmetry_Int_Tables_number   1
_chemical_formula_structural   Sc3ZnAu2C
_chemical_formula_sum   'Sc12 Zn4 Au8 C4'
_cell_volume   467.55244233
_cell_formula_units_Z   4
loop_
 _symmetry_equiv_pos_site_id
 _symmetry_equiv_pos_as_xyz
  1  'x, y, z'
loop_
 _atom_site_type_symbol
 _atom_site_label
 _atom_site_symmetry_multiplicity
 _atom_site_fract_x
 _atom_site_fract_y
 _atom_site_fract_z
 _atom_site_occupancy
  Sc  Sc0  1  0.44189223  0.44189223  0.05810777  1
  Sc  Sc1  1  0.05810777  0.44189223  0.05810777  1
  Sc  Sc2  1  0.44189223  0.05810777  0.05810777  1
  Sc  Sc3  1  0.05810777  0.05810777  0.44189223  1
  Sc  Sc4  1  0.44189223  0.05810777  0.44189223  1
  Sc  Sc5  1  0.05810777  0.44189223  0.44189223  1
  Sc  Sc6  1  0.80810777  0.80810777  0.19189223  1
  Sc  Sc7  1  0.19189223  0.80810777  0.19189223  1
  Sc  Sc8  1  0.80810777  0.19189223  0.19189223  1
  Sc  Sc9  1  0.19189223  0.19189223  0.80810777  1
  Sc  Sc10  1  0.80810777  0.19189223  0.80810777  1
  Sc  Sc11  1  0.19189223  0.80810777  0.80810777  1
  Zn  Zn0  1  0.62500000  0.62500000  0.12500000  1
  Zn  Zn1  1  0.62500000  0.12500000  0.62500000  1
  Zn  Zn2  1  0.12500000  0.62500000  0.62500000  1
  Zn  Zn3  1  0.62500000  0.62500000  0.62500000  1
  Au  Au0  1  0.83639276  0.83639276  0.49082172  1
  Au  Au1  1  0.83639276  0.49082172  0.83639276  1
  Au  Au2  1  0.49082172  0.83639276  0.83639276  1
  Au  Au3  1  0.83639276  0.83639276  0.83639276  1
  Au  Au4  1  0.41360724  0.41360724  0.75917828  1
  Au  Au5  1  0.41360724  0.75917828  0.41360724  1
  Au  Au6  1  0.75917828  0.41360724  0.41360724  1
  Au  Au7  1  0.41360724  0.41360724  0.41360724  1
  C  C0  1  0.12500000  0.12500000  0.62500000  1
  C  C1  1  0.12500000  0.62500000  0.12500000  1
  C  C2  1  0.62500000  0.12500000  0.12500000  1
  C  C3  1  0.12500000  0.12500000  0.12500000  1
loop_
_geom_bond_atom_site_label_1
_geom_bond_atom_site_label_2
_geom_bond_distance
_geom_bond_site_symmetry_2
Au0 Zn2 2.689944 1_655
Au0 Zn3 2.689944 1_555
Au0 Zn1 2.689944 1_565
Au0 Sc7 2.871896 1_655
Au0 Sc6 2.871896 1_555
Au0 Sc8 2.871896 1_565
Au0 Sc4 3.118948 1_565
Au0 Sc3 3.118948 1_665
Au0 Sc5 3.118948 1_655
Au1 Zn2 2.689944 1_655
Au1 Zn3 2.689944 1_555
Au1 Zn0 2.689944 1_556
Au1 Sc9 2.871896 1_655
Au1 Sc10 2.871896 1_555
Au1 Sc8 2.871896 1_556
Au1 Sc0 3.118948 1_556
Au1 Sc1 3.118948 1_656
Au1 Sc5 3.118948 1_655
Au2 Zn1 2.689944 1_565
Au2 Zn3 2.689944 1_555
Au2 Zn0 2.689944 1_556
Au2 Sc11 2.871896 1_555
Au2 Sc9 2.871896 1_565
Au2 Sc7 2.871896 1_556
Au2 Sc2 3.118948 1_566
Au2 Sc0 3.118948 1_556
Au2 Sc4 3.118948 1_565
Au3 Zn2 2.689944 1_655
Au3 Zn0 2.689944 1_556
Au3 Zn1 2.689944 1_565
Au3 Sc11 2.871896 1_655
Au3 Sc10 2.871896 1_565
Au3 Sc6 2.871896 1_556
Au3 Sc2 3.118948 1_566
Au3 Sc1 3.118948 1_656
Au3 Sc3 3.118948 1_665
Au4 Zn2 2.689944 1_555
Au4 Zn3 2.689944 1_555
Au4 Zn1 2.689944 1_555
Au4 Sc1 2.871896 1_556
Au4 Sc0 2.871896 1_556
Au4 Sc2 2.871896 1_556
Au4 Sc10 3.118948 1_555
Au4 Sc9 3.118948 1_555
Au4 Sc11 3.118948 1_555
Au5 Zn2 2.689944 1_555
Au5 Zn3 2.689944 1_555
Au5 Zn0 2.689944 1_555
Au5 Sc3 2.871896 1_565
Au5 Sc4 2.871896 1_565
Au5 Sc2 2.871896 1_565
Au5 Sc6 3.118948 1_555
Au5 Sc7 3.118948 1_555
Au5 Sc11 3.118948 1_555
Au6 Zn1 2.689944 1_555
Au6 Zn3 2.689944 1_555
Au6 Zn0 2.689944 1_555
Au6 Sc5 2.871896 1_655
Au6 Sc3 2.871896 1_655
Au6 Sc1 2.871896 1_655
Au6 Sc8 3.118948 1_555
Au6 Sc6 3.118948 1_555
Au6 Sc10 3.118948 1_555
Au7 Zn2 2.689944 1_555
Au7 Zn0 2.689944 1_555
Au7 Zn1 2.689944 1_555
Au7 Sc5 2.871896 1_555
Au7 Sc4 2.871896 1_555
Au7 Sc0 2.871896 1_555
Au7 Sc8 3.118948 1_555
Au7 Sc7 3.118948 1_555
Au7 Sc9 3.118948 1_555
C0 Sc4 2.328700 1_555
C0 Sc10 2.328700 1_455
C0 Sc9 2.328700 1_555
C0 Sc3 2.328700 1_555
C0 Sc11 2.328700 1_545
C0 Sc5 2.328700 1_555
C1 Sc6 2.328700 1_455
C1 Sc0 2.328700 1_555
C1 Sc7 2.328700 1_555
C1 Sc1 2.328700 1_555
C1 Sc5 2.328701 1_555
C1 Sc11 2.328701 1_554
C2 Sc8 2.328700 1_555
C2 Sc2 2.328700 1_555
C2 Sc0 2.328700 1_555
C2 Sc6 2.328700 1_545
C2 Sc4 2.328700 1_555
C2 Sc10 2.328700 1_554
C3 Sc2 2.328700 1_555
C3 Sc8 2.328700 1_455
C3 Sc1 2.328700 1_555
C3 Sc7 2.328700 1_545
C3 Sc3 2.328701 1_555
C3 Sc9 2.328701 1_554
