# generated using pymatgen
data_Ca10Si3GeSb2
_symmetry_space_group_name_H-M   'P 1'
_cell_length_a   9.21258937
_cell_length_b   9.21259027
_cell_length_c   9.22152943
_cell_angle_alpha   129.98105183
_cell_angle_beta   129.98105116
_cell_angle_gamma   73.36250730
_symmetry_Int_Tables_number   1
_chemical_formula_structural   Ca10Si3GeSb2
_chemical_formula_sum   'Ca10 Si3 Ge1 Sb2'
_cell_volume   448.73360130
_cell_formula_units_Z   1
loop_
 _symmetry_equiv_pos_site_id
 _symmetry_equiv_pos_as_xyz
  1  'x, y, z'
loop_
 _atom_site_type_symbol
 _atom_site_label
 _atom_site_symmetry_multiplicity
 _atom_site_fract_x
 _atom_site_fract_y
 _atom_site_fract_z
 _atom_site_occupancy
  Ca  Ca0  1  0.49966635  0.50046931  0.00013566  1
  Ca  Ca1  1  0.00046931  0.99966635  0.00013566  1
  Ca  Ca2  1  0.30992155  0.80992155  0.84057062  1
  Ca  Ca3  1  0.80962899  0.96790804  0.49924112  1
  Ca  Ca4  1  0.46790804  0.30962899  0.49924112  1
  Ca  Ca5  1  0.18961213  0.03133408  0.49924112  1
  Ca  Ca6  1  0.53133408  0.68961213  0.49924112  1
  Ca  Ca7  1  0.03064906  0.53064906  0.84057062  1
  Ca  Ca8  1  0.69040467  0.19040467  0.16092893  1
  Ca  Ca9  1  0.97052426  0.47052426  0.16092893  1
  Si  Si0  1  0.38361704  0.88361704  0.26723308  1
  Si  Si1  1  0.88604363  0.61384402  0.49988765  1
  Si  Si2  1  0.11384402  0.38604363  0.49988765  1
  Ge  Ge0  1  0.61735585  0.11735585  0.73470969  1
  Sb  Sb0  1  0.74951151  0.74951151  0.99902201  1
  Sb  Sb1  1  0.24951151  0.24951151  0.99902201  1
loop_
_geom_bond_atom_site_label_1
_geom_bond_atom_site_label_2
_geom_bond_distance
_geom_bond_site_symmetry_2
Ca0 Si0 3.117618 1_555
Ca0 Ge0 3.121070 1_554
Ca0 Si2 3.138623 1_554
Ca0 Si1 3.140434 1_555
Ca0 Sb1 3.694116 1_554
Ca0 Sb0 3.694131 1_554
Ca1 Si0 3.117618 1_555
Ca1 Ge0 3.121070 1_464
Ca1 Si1 3.138623 1_454
Ca1 Si2 3.140434 1_565
Ca1 Sb0 3.694116 1_454
Ca1 Sb1 3.694131 1_564
Ca2 Si1 3.059935 1_455
Ca2 Si2 3.059935 1_555
Ca2 Si0 3.130585 1_556
Ca2 Sb0 3.315941 1_555
Ca2 Sb1 3.315942 1_565
Ca3 Si0 3.066470 1_555
Ca3 Ge0 3.074487 1_565
Ca3 Si1 3.136869 1_555
Ca3 Sb1 3.323822 1_665
Ca3 Sb0 3.325828 1_554
Ca4 Si0 3.066471 1_545
Ca4 Ge0 3.074487 1_555
Ca4 Si2 3.136869 1_555
Ca4 Sb0 3.323822 1_555
Ca4 Sb1 3.325828 1_554
Ca5 Si0 3.066479 1_545
Ca5 Ge0 3.074505 1_555
Ca5 Si2 3.136860 1_555
Ca5 Sb1 3.323817 1_555
Ca5 Sb0 3.325823 1_444
Ca6 Si0 3.066479 1_555
Ca6 Ge0 3.074506 1_565
Ca6 Si1 3.136860 1_555
Ca6 Sb0 3.323817 1_555
Ca6 Sb1 3.325823 1_554
Ca7 Si2 3.059935 1_555
Ca7 Si1 3.059935 1_455
Ca7 Si0 3.130594 1_556
Ca7 Sb0 3.315934 1_455
Ca7 Sb1 3.315935 1_555
Ca8 Si2 3.058330 1_655
Ca8 Si1 3.058331 1_555
Ca8 Ge0 3.132891 1_554
Ca8 Sb1 3.317944 1_554
Ca8 Sb0 3.317945 1_544
Ca9 Si1 3.058331 1_555
Ca9 Si2 3.058331 1_655
Ca9 Ge0 3.132871 1_554
Ca9 Sb1 3.317952 1_654
Ca9 Sb0 3.317952 1_554
Si1 Si2 2.507289 1_655
Ge0 Si0 2.579634 1_545
