# generated using pymatgen
data_Y6Al13V3Os7
_symmetry_space_group_name_H-M   'P 1'
_cell_length_a   8.92041195
_cell_length_b   8.92046852
_cell_length_c   8.92044524
_cell_angle_alpha   59.58795388
_cell_angle_beta   59.58792644
_cell_angle_gamma   59.58794285
_symmetry_Int_Tables_number   1
_chemical_formula_structural   Y6Al13V3Os7
_chemical_formula_sum   'Y6 Al13 V3 Os7'
_cell_volume   497.22986210
_cell_formula_units_Z   1
loop_
 _symmetry_equiv_pos_site_id
 _symmetry_equiv_pos_as_xyz
  1  'x, y, z'
loop_
 _atom_site_type_symbol
 _atom_site_label
 _atom_site_symmetry_multiplicity
 _atom_site_fract_x
 _atom_site_fract_y
 _atom_site_fract_z
 _atom_site_occupancy
  Y  Y0  1  0.71042836  0.71044250  0.28563233  1
  Y  Y1  1  0.28935521  0.71314557  0.28936563  1
  Y  Y2  1  0.71315510  0.28934974  0.28934078  1
  Y  Y3  1  0.28934389  0.28936363  0.71314997  1
  Y  Y4  1  0.71043730  0.28562929  0.71044642  1
  Y  Y5  1  0.28563741  0.71042867  0.71042291  1
  Al  Al0  1  0.88084190  0.88085003  0.88084694  1
  Al  Al1  1  0.12097273  0.12097589  0.64140401  1
  Al  Al2  1  0.12097377  0.64140556  0.12097712  1
  Al  Al3  1  0.64139918  0.12097438  0.12097636  1
  Al  Al4  1  0.12116653  0.12116667  0.12116959  1
  Al  Al5  1  0.67002553  0.67002920  0.98885990  1
  Al  Al6  1  0.67002414  0.98886801  0.67002530  1
  Al  Al7  1  0.98885627  0.67003020  0.67002638  1
  Al  Al8  1  0.66896485  0.66897530  0.66897207  1
  Al  Al9  1  0.33050539  0.33049598  0.01087191  1
  Al  Al10  1  0.33050339  0.01087314  0.33049893  1
  Al  Al11  1  0.01086880  0.33049866  0.33050311  1
  Al  Al12  1  0.33130028  0.33128991  0.33129438  1
  V  V0  1  0.87743912  0.87747840  0.36164367  1
  V  V1  1  0.87744884  0.36163972  0.87746730  1
  V  V2  1  0.36164390  0.87747337  0.87745201  1
  Os  Os0  1  0.00467904  0.00471184  0.00469945  1
  Os  Os1  1  0.99731519  0.99731389  0.49727869  1
  Os  Os2  1  0.50350918  0.99507424  0.50347463  1
  Os  Os3  1  0.99508181  0.50347324  0.50349614  1
  Os  Os4  1  0.50351878  0.50346035  0.99507656  1
  Os  Os5  1  0.99731384  0.49727045  0.99731465  1
  Os  Os6  1  0.49729325  0.99731517  0.99731585  1
loop_
_geom_bond_atom_site_label_1
_geom_bond_atom_site_label_2
_geom_bond_distance
_geom_bond_site_symmetry_2
Al0 Os0 2.714596 1_666
Al0 Os6 2.785679 1_555
Al0 Os1 2.785838 1_555
Al0 Os5 2.785931 1_555
Al0 Y4 2.980725 1_565
Al0 Y0 2.980779 1_556
Al0 Y5 2.980866 1_655
Al0 Al3 3.019935 1_566
Al0 Al1 3.019948 1_665
Al0 Al2 3.019979 1_656
Al1 Os0 2.633822 1_556
Al1 Os3 2.772413 1_455
Al1 Os2 2.772680 1_545
Al1 Al12 2.783347 1_555
Al1 Al11 2.793001 1_555
Al1 Al10 2.793028 1_555
Al1 Os1 2.861857 1_445
Al1 V2 2.997657 1_545
Al1 V1 2.997716 1_455
Al1 Y4 3.022338 1_455
Al1 Y5 3.022482 1_545
Al1 Y3 3.025282 1_555
Al2 Os0 2.633906 1_565
Al2 Os3 2.772567 1_455
Al2 Os4 2.772745 1_554
Al2 Al9 2.793077 1_555
Al2 Os5 2.861951 1_454
Al2 V2 2.997779 1_554
Al2 V0 2.997793 1_455
Al2 Y0 3.022422 1_455
Al2 Y5 3.022521 1_554
Al2 Y1 3.025327 1_555
Al3 Os0 2.633701 1_655
Al3 Os4 2.772326 1_554
Al3 Os2 2.772409 1_545
Al3 Al9 2.792944 1_555
Al3 Os6 2.861712 1_544
Al3 V0 2.997583 1_545
Al3 V1 2.997635 1_554
Al3 Y4 3.022315 1_554
Al3 Y0 3.022351 1_545
Al3 Y2 3.025203 1_555
Al4 Os0 2.552846 1_555
Al4 Os5 2.725378 1_454
Al4 Os1 2.725409 1_445
Al4 Os6 2.725528 1_544
Al4 Y2 2.995099 1_455
Al4 Y3 2.995185 1_554
Al4 Y1 2.995214 1_545
Al4 V2 3.065269 1_544
Al4 V0 3.065294 1_445
Al4 V1 3.065319 1_454
Al5 Os6 2.540558 1_555
Al5 Os5 2.540559 1_555
Al5 Os4 2.546494 1_555
Al5 V2 2.780566 1_555
Al5 V1 2.780570 1_555
Al5 Y0 3.054842 1_556
Al5 Y2 3.061097 1_556
Al5 Y1 3.061117 1_556
Al6 Os1 2.540555 1_555
Al6 Os6 2.540562 1_555
Al6 Os2 2.546466 1_555
Al6 V0 2.780494 1_555
Al6 V2 2.780497 1_555
Al6 Y4 3.054850 1_565
Al6 Y2 3.061125 1_565
Al6 Y3 3.061140 1_565
Al7 Os1 2.540550 1_555
Al7 Os5 2.540576 1_555
Al7 Os3 2.546543 1_555
Al7 V0 2.780623 1_555
Al7 V1 2.780642 1_555
Al7 Y5 3.054793 1_655
Al7 Y3 3.061046 1_655
Al7 Y1 3.061046 1_655
Al8 Os2 2.516191 1_555
Al8 Os4 2.516236 1_555
Al8 Os3 2.516339 1_555
Al8 V2 2.758862 1_555
Al8 V0 2.758879 1_555
Al8 V1 2.758908 1_555
Al8 Y5 3.089368 1_555
Al8 Y0 3.089400 1_555
Al8 Y4 3.089409 1_555
Al9 Os4 2.598654 1_554
Al9 Os6 2.601258 1_544
Al9 Os5 2.601333 1_454
Al9 Y4 3.057053 1_554
Al9 Y5 3.057151 1_554
Al9 Y3 3.071327 1_554
Al10 Os2 2.598662 1_545
Al10 Os6 2.601274 1_544
Al10 Os1 2.601311 1_445
Al10 Al3 2.792944 1_555
Al10 Y0 3.057036 1_545
Al10 Y5 3.057086 1_545
Al10 Y1 3.071314 1_545
Al11 Os3 2.598621 1_455
Al11 Os1 2.601285 1_445
Al11 Os5 2.601312 1_454
Al11 Al2 2.793055 1_555
Al11 Y4 3.057138 1_455
Al11 Y0 3.057178 1_455
Al11 Y2 3.071341 1_455
Al12 Os3 2.602783 1_455
Al12 Os2 2.602789 1_545
Al12 Os4 2.602795 1_554
Al12 Al3 2.783280 1_555
Al12 Al2 2.783374 1_555
Al12 Y2 3.073079 1_555
Al12 Y3 3.073136 1_555
Al12 Y1 3.073176 1_555
V0 Y2 3.028052 1_565
V0 Y1 3.028400 1_655
V0 Y0 3.031924 1_555
V1 Y2 3.028075 1_556
V1 Y3 3.028244 1_655
V1 Y4 3.031808 1_555
V2 Y3 3.028198 1_565
V2 Y1 3.028379 1_556
V2 Y5 3.032103 1_555
Os0 V1 2.588602 1_454
Os0 V0 2.588713 1_445
Os0 V2 2.588852 1_544
Os1 V0 2.743512 1_555
Os1 Y1 3.136015 1_655
Os1 Y2 3.136081 1_565
Os1 Y5 3.184354 1_655
Os1 Y4 3.184439 1_565
Os2 V0 2.712174 1_555
Os2 V2 2.712534 1_555
Os2 Y0 3.201410 1_555
Os2 Y5 3.201659 1_555
Os2 Y2 3.211551 1_565
Os2 Y3 3.211807 1_565
Os3 V1 2.712479 1_555
Os3 V0 2.712735 1_555
Os3 Y4 3.201466 1_555
Os3 Y0 3.201632 1_555
Os3 Y3 3.211519 1_655
Os3 Y1 3.211698 1_655
Os4 V1 2.712172 1_555
Os4 V2 2.712799 1_555
Os4 Y4 3.201326 1_555
Os4 Y5 3.201749 1_555
Os4 Y2 3.211428 1_556
Os4 Y1 3.211866 1_556
Os5 V1 2.743486 1_555
Os5 Y3 3.135948 1_655
Os5 Y2 3.135974 1_556
Os5 Y5 3.184444 1_655
Os5 Y0 3.184481 1_556
Os6 V2 2.743576 1_555
Os6 Y1 3.136161 1_556
Os6 Y3 3.136192 1_565
Os6 Y0 3.184261 1_556
Os6 Y4 3.184295 1_565
