# generated using pymatgen
data_Y16In4Pd3Ru
_symmetry_space_group_name_H-M   'P 1'
_cell_length_a   9.71943064
_cell_length_b   9.71942947
_cell_length_c   9.73402916
_cell_angle_alpha   60.04959930
_cell_angle_beta   60.04960371
_cell_angle_gamma   60.00000200
_symmetry_Int_Tables_number   1
_chemical_formula_structural   Y16In4Pd3Ru
_chemical_formula_sum   'Y16 In4 Pd3 Ru1'
_cell_volume   650.70545055
_cell_formula_units_Z   1
loop_
 _symmetry_equiv_pos_site_id
 _symmetry_equiv_pos_as_xyz
  1  'x, y, z'
loop_
 _atom_site_type_symbol
 _atom_site_label
 _atom_site_symmetry_multiplicity
 _atom_site_fract_x
 _atom_site_fract_y
 _atom_site_fract_z
 _atom_site_occupancy
  Y  Y0  1  0.43759181  0.43759181  0.06158102  1
  Y  Y1  1  0.64576790  0.64576790  0.06269729  1
  Y  Y2  1  0.18333613  0.81128441  0.19409505  1
  Y  Y3  1  0.06323537  0.43759181  0.06158102  1
  Y  Y4  1  0.19049402  0.81022604  0.80878493  1
  Y  Y5  1  0.06182350  0.44163910  0.43471490  1
  Y  Y6  1  0.81128441  0.18333613  0.19409505  1
  Y  Y7  1  0.65168436  0.65168436  0.64394678  1
  Y  Y8  1  0.81022604  0.19049402  0.80878493  1
  Y  Y9  1  0.19049402  0.19049402  0.80878493  1
  Y  Y10  1  0.05268550  0.65168436  0.64394678  1
  Y  Y11  1  0.43759181  0.06323537  0.06158102  1
  Y  Y12  1  0.06182350  0.06182350  0.43471490  1
  Y  Y13  1  0.65168436  0.05268550  0.64394678  1
  Y  Y14  1  0.81128441  0.81128441  0.19409505  1
  Y  Y15  1  0.44163910  0.06182350  0.43471490  1
  In  In0  1  0.41598962  0.41598962  0.41720141  1
  In  In1  1  0.41663227  0.41663227  0.75010219  1
  In  In2  1  0.41598962  0.75082035  0.41720141  1
  In  In3  1  0.75082035  0.41598962  0.41720141  1
  Pd  Pd0  1  0.43082518  0.85499668  0.85917947  1
  Pd  Pd1  1  0.85499668  0.85499668  0.85917947  1
  Pd  Pd2  1  0.85499668  0.43082518  0.85917947  1
  Ru  Ru0  1  0.85710438  0.85710438  0.42868487  1
loop_
_geom_bond_atom_site_label_1
_geom_bond_atom_site_label_2
_geom_bond_distance
_geom_bond_site_symmetry_2
In0 Y15 3.246370 1_555
In0 Y5 3.246370 1_555
In0 In1 3.246715 1_555
In0 In2 3.254364 1_555
In0 In3 3.254364 1_555
In0 Y0 3.265521 1_555
In0 Y1 3.388312 1_555
In0 Y13 3.430094 1_555
In0 Y10 3.430095 1_555
In0 Y9 3.500921 1_555
In0 Y2 3.532029 1_555
In0 Y6 3.532030 1_555
In1 In2 3.246724 1_555
In1 In3 3.246725 1_555
In1 Y11 3.248168 1_556
In1 Y3 3.248169 1_556
In1 Y0 3.248174 1_556
In1 Y13 3.465709 1_555
In1 Y10 3.465710 1_555
In1 Y7 3.465726 1_555
In1 Y4 3.508818 1_555
In1 Y9 3.508818 1_555
In1 Y8 3.508818 1_555
In2 Y15 3.246370 1_565
In2 Y12 3.246370 1_565
In2 In3 3.254364 1_555
In2 Y11 3.265517 1_565
In2 Y1 3.388312 1_555
In2 Y7 3.430094 1_555
In2 Y10 3.430095 1_555
In2 Y4 3.500913 1_555
In2 Y14 3.532026 1_555
In2 Y2 3.532034 1_555
In3 Y12 3.246370 1_655
In3 Y5 3.246370 1_655
In3 Y3 3.265517 1_655
In3 Y1 3.388312 1_555
In3 Y13 3.430094 1_555
In3 Y7 3.430094 1_555
In3 Y8 3.500913 1_555
In3 Y14 3.532025 1_555
In3 Y6 3.532034 1_555
Pd0 Y4 2.874029 1_555
Pd0 Y9 2.874035 1_565
Pd0 Y1 2.878523 1_556
Pd0 Y7 2.881594 1_555
Pd0 Y13 2.881614 1_565
Pd0 Y2 2.898896 1_556
Pd0 Y0 3.496617 1_556
Pd0 Y11 3.496634 1_566
Pd0 Y15 3.550745 1_565
Pd1 Y8 2.874038 1_565
Pd1 Y4 2.874038 1_655
Pd1 Y1 2.878502 1_556
Pd1 Y13 2.881593 1_565
Pd1 Y10 2.881593 1_655
Pd1 Y14 2.898902 1_556
Pd1 Y3 3.496622 1_656
Pd1 Y11 3.496623 1_566
Pd1 Y12 3.550753 1_665
Pd2 Y8 2.874029 1_555
Pd2 Y9 2.874035 1_655
Pd2 Y1 2.878523 1_556
Pd2 Y7 2.881594 1_555
Pd2 Y10 2.881614 1_655
Pd2 Y6 2.898896 1_556
Pd2 Y0 3.496617 1_556
Pd2 Y3 3.496634 1_656
Pd2 Y5 3.550745 1_655
Ru0 Y14 2.800040 1_555
Ru0 Y6 2.800052 1_565
Ru0 Y2 2.800053 1_655
Ru0 Y7 2.827518 1_555
Ru0 Y10 2.827538 1_655
Ru0 Y13 2.827538 1_565
Ru0 Y5 3.480496 1_655
Ru0 Y15 3.480497 1_565
Ru0 Y12 3.480522 1_665
