# generated using pymatgen
data_Nb3Al2PdC
_symmetry_space_group_name_H-M   'P 1'
_cell_length_a   8.36971947
_cell_length_b   8.36971957
_cell_length_c   8.36971772
_cell_angle_alpha   59.99999556
_cell_angle_beta   59.99999515
_cell_angle_gamma   59.99999265
_symmetry_Int_Tables_number   1
_chemical_formula_structural   Nb3Al2PdC
_chemical_formula_sum   'Nb12 Al8 Pd4 C4'
_cell_volume   414.58880209
_cell_formula_units_Z   4
loop_
 _symmetry_equiv_pos_site_id
 _symmetry_equiv_pos_as_xyz
  1  'x, y, z'
loop_
 _atom_site_type_symbol
 _atom_site_label
 _atom_site_symmetry_multiplicity
 _atom_site_fract_x
 _atom_site_fract_y
 _atom_site_fract_z
 _atom_site_occupancy
  Nb  Nb0  1  0.56793627  0.93206373  0.56793627  1
  Nb  Nb1  1  0.31793627  0.68206373  0.68206373  1
  Nb  Nb2  1  0.68206373  0.31793627  0.31793627  1
  Nb  Nb3  1  0.31793627  0.68206373  0.31793627  1
  Nb  Nb4  1  0.68206373  0.68206373  0.31793627  1
  Nb  Nb5  1  0.31793627  0.31793627  0.68206373  1
  Nb  Nb6  1  0.56793627  0.56793627  0.93206373  1
  Nb  Nb7  1  0.93206373  0.56793627  0.56793627  1
  Nb  Nb8  1  0.56793627  0.93206373  0.93206373  1
  Nb  Nb9  1  0.93206373  0.93206373  0.56793627  1
  Nb  Nb10  1  0.68206373  0.31793627  0.68206373  1
  Nb  Nb11  1  0.93206373  0.56793627  0.93206373  1
  Al  Al0  1  0.91656309  0.91656309  0.91656309  1
  Al  Al1  1  0.99968828  0.33343691  0.33343691  1
  Al  Al2  1  0.33343691  0.99968828  0.33343691  1
  Al  Al3  1  0.33343691  0.33343691  0.99968828  1
  Al  Al4  1  0.91656309  0.25031172  0.91656309  1
  Al  Al5  1  0.91656309  0.91656309  0.25031172  1
  Al  Al6  1  0.25031172  0.91656309  0.91656309  1
  Al  Al7  1  0.33343691  0.33343691  0.33343691  1
  Pd  Pd0  1  0.12500000  0.12500000  0.12500000  1
  Pd  Pd1  1  0.62500000  0.12500000  0.12500000  1
  Pd  Pd2  1  0.12500000  0.62500000  0.12500000  1
  Pd  Pd3  1  0.12500000  0.12500000  0.62500000  1
  C  C0  1  0.62500000  0.62500000  0.62500000  1
  C  C1  1  0.12500000  0.62500000  0.62500000  1
  C  C2  1  0.62500000  0.12500000  0.62500000  1
  C  C3  1  0.62500000  0.62500000  0.12500000  1
loop_
_geom_bond_atom_site_label_1
_geom_bond_atom_site_label_2
_geom_bond_distance
_geom_bond_site_symmetry_2
Nb0 Pd1 3.097347 1_565
Nb0 Pd3 3.097348 1_565
Nb1 Pd2 3.097347 1_556
Nb1 Pd3 3.097348 1_565
Nb2 Pd0 3.097348 1_655
Nb2 Pd1 3.097348 1_555
Nb3 Pd0 3.097348 1_565
Nb3 Pd2 3.097348 1_555
Nb4 Pd2 3.097348 1_655
Nb4 Pd1 3.097348 1_565
Nb5 Pd0 3.097348 1_556
Nb5 Pd3 3.097348 1_555
Nb6 Pd2 3.097348 1_556
Nb6 Pd1 3.097348 1_556
Nb7 Pd2 3.097347 1_655
Nb7 Pd3 3.097348 1_655
Nb8 Pd0 3.097348 1_566
Nb8 Pd1 3.097348 1_566
Nb9 Pd0 3.097348 1_665
Nb9 Pd3 3.097348 1_665
Nb10 Pd1 3.097347 1_556
Nb10 Pd3 3.097348 1_655
Nb11 Pd0 3.097348 1_656
Nb11 Pd2 3.097348 1_656
Al0 Pd1 2.563401 1_566
Al0 Pd2 2.563401 1_656
Al0 Pd3 2.563401 1_665
Al1 Pd0 2.563399 1_655
Al1 Pd3 2.563405 1_655
Al1 Pd2 2.563406 1_655
Al2 Pd0 2.563399 1_565
Al2 Pd3 2.563405 1_565
Al2 Pd1 2.563406 1_565
Al3 Pd0 2.563399 1_556
Al3 Pd1 2.563406 1_556
Al3 Pd2 2.563406 1_556
Al4 Pd0 2.563399 1_656
Al4 Pd3 2.563405 1_655
Al4 Pd1 2.563406 1_556
Al5 Pd0 2.563399 1_665
Al5 Pd1 2.563406 1_565
Al5 Pd2 2.563406 1_655
Al6 Pd0 2.563399 1_566
Al6 Pd3 2.563405 1_565
Al6 Pd2 2.563406 1_556
Al7 Pd1 2.563401 1_555
Al7 Pd2 2.563401 1_555
Al7 Pd3 2.563401 1_555
C0 Nb6 2.198745 1_555
C0 Nb4 2.198745 1_555
C0 Nb7 2.198745 1_555
C0 Nb1 2.198745 1_555
C0 Nb0 2.198745 1_555
C0 Nb10 2.198745 1_555
C1 Nb3 2.198745 1_555
C1 Nb11 2.198745 1_455
C1 Nb9 2.198745 1_455
C1 Nb5 2.198745 1_555
C1 Nb1 2.198745 1_555
C1 Nb7 2.198745 1_455
C2 Nb2 2.198745 1_555
C2 Nb8 2.198745 1_545
C2 Nb9 2.198745 1_545
C2 Nb5 2.198745 1_555
C2 Nb10 2.198745 1_555
C2 Nb0 2.198745 1_545
C3 Nb11 2.198745 1_554
C3 Nb3 2.198745 1_555
C3 Nb4 2.198745 1_555
C3 Nb6 2.198745 1_554
C3 Nb8 2.198745 1_554
C3 Nb2 2.198745 1_555
