# generated using pymatgen
data_Sc22Co2Os5Pt
_symmetry_space_group_name_H-M   'P 1'
_cell_length_a   9.42063083
_cell_length_b   9.41643599
_cell_length_c   9.42063073
_cell_angle_alpha   60.01472441
_cell_angle_beta   59.89457569
_cell_angle_gamma   60.01472471
_symmetry_Int_Tables_number   1
_chemical_formula_structural   Sc22Co2Os5Pt
_chemical_formula_sum   'Sc22 Co2 Os5 Pt1'
_cell_volume   590.58277695
_cell_formula_units_Z   1
loop_
 _symmetry_equiv_pos_site_id
 _symmetry_equiv_pos_as_xyz
  1  'x, y, z'
loop_
 _atom_site_type_symbol
 _atom_site_label
 _atom_site_symmetry_multiplicity
 _atom_site_fract_x
 _atom_site_fract_y
 _atom_site_fract_z
 _atom_site_occupancy
  Sc  Sc0  1  0.84436129  0.84290608  0.84436129  1
  Sc  Sc1  1  0.52782876  0.15979850  0.15257323  1
  Sc  Sc2  1  0.15257323  0.15979850  0.52782876  1
  Sc  Sc3  1  0.15563871  0.53162965  0.15563871  1
  Sc  Sc4  1  0.84742677  0.84020150  0.47217124  1
  Sc  Sc5  1  0.84436129  0.46837035  0.84436129  1
  Sc  Sc6  1  0.47217124  0.84020150  0.84742677  1
  Sc  Sc7  1  0.15563871  0.15709392  0.15563871  1
  Sc  Sc8  1  0.19309681  0.80690319  0.19309681  1
  Sc  Sc9  1  0.19410944  0.80609281  0.80589056  1
  Sc  Sc10  1  0.80589056  0.19390719  0.19410944  1
  Sc  Sc11  1  0.80589056  0.80609281  0.19410944  1
  Sc  Sc12  1  0.19410944  0.19390719  0.80589056  1
  Sc  Sc13  1  0.80690319  0.19309681  0.80690319  1
  Sc  Sc14  1  0.38196382  0.39159299  0.38196382  1
  Sc  Sc15  1  0.15380541  0.61425097  0.61769366  1
  Sc  Sc16  1  0.61803618  0.15552363  0.61803618  1
  Sc  Sc17  1  0.61769366  0.61425097  0.15380541  1
  Sc  Sc18  1  0.38196382  0.84447637  0.38196382  1
  Sc  Sc19  1  0.38230634  0.38574903  0.84619459  1
  Sc  Sc20  1  0.84619459  0.38574903  0.38230634  1
  Sc  Sc21  1  0.61803618  0.60840701  0.61803618  1
  Co  Co0  1  0.50000000  0.50000000  0.50000000  1
  Co  Co1  1  0.00000000  0.00000000  0.00000000  1
  Os  Os0  1  0.50000000  0.50000000  0.00000000  1
  Os  Os1  1  0.00000000  0.00000000  0.50000000  1
  Os  Os2  1  0.00000000  0.50000000  0.50000000  1
  Os  Os3  1  0.50000000  0.00000000  0.00000000  1
  Os  Os4  1  0.00000000  0.50000000  0.00000000  1
  Pt  Pt0  1  0.50000000  0.00000000  0.50000000  1
loop_
_geom_bond_atom_site_label_1
_geom_bond_atom_site_label_2
_geom_bond_distance
_geom_bond_site_symmetry_2
Co0 Sc18 2.650386 1_555
Co0 Sc16 2.650386 1_555
Co0 Sc21 2.650409 1_555
Co0 Sc14 2.650409 1_555
Co0 Sc19 2.660995 1_555
Co0 Sc17 2.660995 1_555
Co0 Sc20 2.660995 1_555
Co0 Sc15 2.660995 1_555
Co1 Sc8 2.575207 1_545
Co1 Sc13 2.575207 1_454
Co1 Sc10 2.582095 1_455
Co1 Sc9 2.582095 1_544
Co1 Sc12 2.582095 1_554
Co1 Sc11 2.582095 1_445
Os0 Sc6 2.707970 1_554
Os0 Sc1 2.707970 1_555
Os0 Sc5 2.731610 1_554
Os0 Sc3 2.731610 1_555
Os0 Sc14 2.945438 1_555
Os0 Sc21 2.945438 1_554
Os0 Sc17 2.974601 1_555
Os0 Sc19 2.974601 1_554
Os1 Sc2 2.707962 1_555
Os1 Sc4 2.707962 1_445
Os1 Sc0 2.731612 1_445
Os1 Sc7 2.731612 1_555
Os1 Sc16 2.945441 1_455
Os1 Sc18 2.945441 1_545
Os1 Sc15 2.974594 1_545
Os1 Sc20 2.974594 1_455
Os2 Sc4 2.707970 1_455
Os2 Sc2 2.707970 1_555
Os2 Sc5 2.731610 1_455
Os2 Sc3 2.731610 1_555
Os2 Sc14 2.945439 1_555
Os2 Sc21 2.945439 1_455
Os2 Sc20 2.974601 1_455
Os2 Sc15 2.974601 1_555
Os3 Sc1 2.707962 1_555
Os3 Sc6 2.707962 1_544
Os3 Sc0 2.731612 1_544
Os3 Sc7 2.731612 1_555
Os3 Sc18 2.945441 1_545
Os3 Sc16 2.945441 1_554
Os3 Sc19 2.974594 1_554
Os3 Sc17 2.974594 1_545
Os4 Sc0 2.723579 1_454
Os4 Sc7 2.723579 1_555
Os4 Sc3 2.723585 1_555
Os4 Sc5 2.723585 1_454
Os4 Sc20 2.945881 1_455
Os4 Sc15 2.945881 1_554
Os4 Sc19 2.945881 1_554
Os4 Sc17 2.945881 1_455
Pt0 Sc6 2.766965 1_545
Pt0 Sc1 2.766965 1_555
Pt0 Sc4 2.766965 1_545
Pt0 Sc2 2.766965 1_555
Pt0 Sc14 3.018846 1_555
Pt0 Sc21 3.018846 1_545
Pt0 Sc16 3.018871 1_555
Pt0 Sc18 3.018871 1_545
