# generated using pymatgen
data_Rb4Ba2ZrBi4
_symmetry_space_group_name_H-M   'P 1'
_cell_length_a   11.64480520
_cell_length_b   11.64480513
_cell_length_c   8.79603264
_cell_angle_alpha   88.58865395
_cell_angle_beta   88.58865658
_cell_angle_gamma   60.36525083
_symmetry_Int_Tables_number   1
_chemical_formula_structural   Rb4Ba2ZrBi4
_chemical_formula_sum   'Rb8 Ba4 Zr2 Bi8'
_cell_volume   1036.31609172
_cell_formula_units_Z   2
loop_
 _symmetry_equiv_pos_site_id
 _symmetry_equiv_pos_as_xyz
  1  'x, y, z'
loop_
 _atom_site_type_symbol
 _atom_site_label
 _atom_site_symmetry_multiplicity
 _atom_site_fract_x
 _atom_site_fract_y
 _atom_site_fract_z
 _atom_site_occupancy
  Rb  Rb0  1  0.94371853  0.52859130  0.37307509  1
  Rb  Rb1  1  0.52859130  0.94371853  0.37307509  1
  Rb  Rb2  1  0.72182998  0.13293841  0.18954699  1
  Rb  Rb3  1  0.13293841  0.72182998  0.18954699  1
  Rb  Rb4  1  0.14176952  0.14176952  0.20955943  1
  Rb  Rb5  1  0.27483325  0.86564728  0.69127366  1
  Rb  Rb6  1  0.86564728  0.27483325  0.69127366  1
  Rb  Rb7  1  0.85380024  0.85380024  0.65222515  1
  Ba  Ba0  1  0.52949982  0.52949982  0.37279171  1
  Ba  Ba1  1  0.05361486  0.47659017  0.87843807  1
  Ba  Ba2  1  0.47659017  0.05361486  0.87843807  1
  Ba  Ba3  1  0.47700524  0.47700524  0.87033314  1
  Zr  Zr0  1  0.33461965  0.33461965  0.48567748  1
  Zr  Zr1  1  0.66548882  0.66548882  0.98301630  1
  Bi  Bi0  1  0.39382108  0.79935479  0.09193862  1
  Bi  Bi1  1  0.79935479  0.39382108  0.09193862  1
  Bi  Bi2  1  0.80380843  0.80380843  0.06037802  1
  Bi  Bi3  1  0.60142720  0.20705643  0.59792436  1
  Bi  Bi4  1  0.20705643  0.60142720  0.59792436  1
  Bi  Bi5  1  0.20269814  0.20269814  0.61678120  1
  Bi  Bi6  1  0.33676617  0.33676617  0.15023243  1
  Bi  Bi7  1  0.65573470  0.65573470  0.65743054  1
loop_
_geom_bond_atom_site_label_1
_geom_bond_atom_site_label_2
_geom_bond_distance
_geom_bond_site_symmetry_2
Ba0 Bi7 3.617968 1_555
Ba0 Bi0 3.657013 1_555
Ba0 Bi1 3.657014 1_555
Ba0 Bi3 3.914940 1_555
Ba0 Bi4 3.914940 1_555
Ba1 Bi5 3.629379 1_555
Ba1 Bi4 3.683595 1_555
Ba1 Bi6 3.758419 1_556
Ba1 Bi2 3.827745 1_456
Ba1 Bi1 3.959946 1_456
Ba2 Bi5 3.629379 1_555
Ba2 Bi3 3.683595 1_555
Ba2 Bi6 3.758419 1_556
Ba2 Bi2 3.827745 1_546
Ba2 Bi0 3.959946 1_546
Ba3 Bi4 3.663070 1_555
Ba3 Bi3 3.663070 1_555
Ba3 Bi6 3.692759 1_556
Ba3 Bi1 3.936966 1_556
Ba3 Bi0 3.936966 1_556
Ba3 Bi7 4.008758 1_555
Bi0 Zr1 2.898819 1_554
Bi0 Rb3 3.650567 1_555
Bi0 Rb5 3.739645 1_554
Bi0 Rb4 3.750197 1_565
Bi0 Rb1 3.795942 1_555
Bi1 Zr1 2.898819 1_554
Bi1 Rb2 3.650567 1_555
Bi1 Rb6 3.739645 1_554
Bi1 Rb4 3.750197 1_655
Bi1 Rb0 3.795942 1_555
Bi2 Zr1 2.885384 1_554
Bi2 Rb3 3.665276 1_655
Bi2 Rb2 3.665276 1_565
Bi2 Rb7 3.700815 1_554
Bi2 Rb0 3.887609 1_555
Bi2 Rb1 3.887610 1_555
Bi3 Zr0 2.889477 1_555
Bi3 Rb6 3.649881 1_555
Bi3 Rb7 3.715304 1_545
Bi3 Rb2 3.784417 1_555
Bi3 Rb1 4.121656 1_545
Bi4 Zr0 2.889477 1_555
Bi4 Rb5 3.649881 1_555
Bi4 Rb7 3.715304 1_455
Bi4 Rb3 3.784416 1_555
Bi4 Rb0 4.121656 1_455
Bi5 Zr0 2.865126 1_555
Bi5 Rb5 3.630386 1_545
Bi5 Rb6 3.630386 1_455
Bi5 Rb4 3.819065 1_555
Bi5 Rb0 4.085512 1_455
Bi5 Rb1 4.085512 1_545
Bi6 Zr0 2.949671 1_555
Bi6 Rb2 3.920486 1_555
Bi6 Rb3 3.920487 1_555
Bi6 Rb4 3.945472 1_555
Bi7 Zr1 2.876164 1_555
Bi7 Rb1 3.814866 1_555
Bi7 Rb0 3.814866 1_555
Bi7 Rb6 3.871190 1_555
Bi7 Rb5 3.871190 1_555
Bi7 Rb7 3.986448 1_555
