# generated using pymatgen
data_Ti4SiTcB2
_symmetry_space_group_name_H-M   'P 1'
_cell_length_a   7.14962544
_cell_length_b   7.14965101
_cell_length_c   7.14916546
_cell_angle_alpha   130.47348267
_cell_angle_beta   130.47337037
_cell_angle_gamma   72.66014096
_symmetry_Int_Tables_number   1
_chemical_formula_structural   Ti4SiTcB2
_chemical_formula_sum   'Ti8 Si2 Tc2 B4'
_cell_volume   206.61959829
_cell_formula_units_Z   2
loop_
 _symmetry_equiv_pos_site_id
 _symmetry_equiv_pos_as_xyz
  1  'x, y, z'
loop_
 _atom_site_type_symbol
 _atom_site_label
 _atom_site_symmetry_multiplicity
 _atom_site_fract_x
 _atom_site_fract_y
 _atom_site_fract_z
 _atom_site_occupancy
  Ti  Ti0  1  0.80767079  0.95731289  0.49998741  1
  Ti  Ti1  1  0.30791786  0.80791642  0.85103231  1
  Ti  Ti2  1  0.19232921  0.04268711  0.50001259  1
  Ti  Ti3  1  0.54267776  0.69232441  0.50001062  1
  Ti  Ti4  1  0.04297112  0.54296958  0.85088732  1
  Ti  Ti5  1  0.69208214  0.19208358  0.14896769  1
  Ti  Ti6  1  0.95702888  0.45703042  0.14911268  1
  Ti  Ti7  1  0.45732224  0.30767559  0.49998938  1
  Si  Si0  1  0.74994935  0.75004957  0.00000083  1
  Si  Si1  1  0.25005065  0.24995043  0.99999917  1
  Tc  Tc0  1  0.00000000  0.00000000  0.00000000  1
  Tc  Tc1  1  0.50000000  0.50000000  0.00000000  1
  B  B0  1  0.38956488  0.88956427  0.27917781  1
  B  B1  1  0.88966925  0.61032894  0.49999879  1
  B  B2  1  0.61043512  0.11043573  0.72082219  1
  B  B3  1  0.11033075  0.38967106  0.50000121  1
loop_
_geom_bond_atom_site_label_1
_geom_bond_atom_site_label_2
_geom_bond_distance
_geom_bond_site_symmetry_2
Si0 Ti3 2.591579 1_554
Si0 Ti0 2.591584 1_555
Si0 Ti1 2.591614 1_554
Si0 Ti5 2.591642 1_565
Si0 Ti7 2.591696 1_554
Si0 Ti2 2.591738 1_665
Si0 Ti6 2.592074 1_555
Si0 Ti4 2.592089 1_654
Si1 Ti7 2.591579 1_556
Si1 Ti2 2.591584 1_555
Si1 Ti5 2.591614 1_556
Si1 Ti1 2.591642 1_545
Si1 Ti3 2.591696 1_556
Si1 Ti0 2.591738 1_445
Si1 Ti4 2.592074 1_555
Si1 Ti6 2.592089 1_456
Tc0 Ti1 2.685081 1_544
Tc0 Ti5 2.685081 1_455
Tc0 Ti6 2.685658 1_455
Tc0 Ti4 2.685658 1_544
Tc0 Ti3 2.685860 1_444
Tc0 Ti7 2.685860 1_555
Tc0 Ti2 2.686062 1_555
Tc0 Ti0 2.686062 1_444
Tc1 Ti5 2.685080 1_555
Tc1 Ti1 2.685080 1_554
Tc1 Ti6 2.685639 1_555
Tc1 Ti4 2.685639 1_554
Tc1 Ti0 2.685811 1_555
Tc1 Ti2 2.685811 1_554
Tc1 Ti3 2.686096 1_555
Tc1 Ti7 2.686096 1_554
B0 B2 1.870147 1_565
B0 Ti2 2.325041 1_565
B0 Ti3 2.325076 1_555
B0 Ti0 2.325278 1_555
B0 Ti7 2.325326 1_565
B0 Ti1 2.369487 1_554
B0 Ti4 2.369971 1_554
B0 Tc1 2.425456 1_555
B0 Tc0 2.425461 1_565
B1 B3 1.869298 1_655
B1 Ti5 2.325742 1_555
B1 Ti1 2.325754 1_655
B1 Ti6 2.326030 1_555
B1 Ti4 2.326042 1_655
B1 Ti0 2.373058 1_555
B1 Ti3 2.373104 1_555
B1 Tc1 2.425431 1_555
B1 Tc0 2.425439 1_666
B2 Ti0 2.325041 1_545
B2 Ti7 2.325076 1_555
B2 Ti2 2.325278 1_555
B2 Ti3 2.325326 1_545
B2 Ti5 2.369487 1_556
B2 Ti6 2.369971 1_556
B2 Tc1 2.425456 1_556
B2 Tc0 2.425461 1_656
B3 Ti1 2.325742 1_555
B3 Ti5 2.325754 1_455
B3 Ti4 2.326030 1_555
B3 Ti6 2.326042 1_455
B3 Ti2 2.373058 1_555
B3 Ti7 2.373104 1_555
B3 Tc1 2.425431 1_556
B3 Tc0 2.425439 1_555
