# generated using pymatgen
data_Cs4V2NiSe8
_symmetry_space_group_name_H-M   'P 1'
_cell_length_a   13.73944756
_cell_length_b   7.58500814
_cell_length_c   10.03242927
_cell_angle_alpha   85.25411209
_cell_angle_beta   90.00000000
_cell_angle_gamma   90.00000000
_symmetry_Int_Tables_number   1
_chemical_formula_structural   Cs4V2NiSe8
_chemical_formula_sum   'Cs8 V4 Ni2 Se16'
_cell_volume   1041.93317730
_cell_formula_units_Z   2
loop_
 _symmetry_equiv_pos_site_id
 _symmetry_equiv_pos_as_xyz
  1  'x, y, z'
loop_
 _atom_site_type_symbol
 _atom_site_label
 _atom_site_symmetry_multiplicity
 _atom_site_fract_x
 _atom_site_fract_y
 _atom_site_fract_z
 _atom_site_occupancy
  Cs  Cs0  1  0.13257155  0.80867214  0.69037820  1
  Cs  Cs1  1  0.63257155  0.19132786  0.80962180  1
  Cs  Cs2  1  0.86742845  0.19132786  0.30962180  1
  Cs  Cs3  1  0.36742845  0.80867214  0.19037820  1
  Cs  Cs4  1  0.34727078  0.25221849  0.53982991  1
  Cs  Cs5  1  0.84727078  0.74778151  0.96017009  1
  Cs  Cs6  1  0.65272922  0.74778151  0.46017009  1
  Cs  Cs7  1  0.15272922  0.25221849  0.03982991  1
  V  V0  1  0.42580610  0.74030047  0.77886796  1
  V  V1  1  0.92580610  0.25969953  0.72113204  1
  V  V2  1  0.57419390  0.25969953  0.22113204  1
  V  V3  1  0.07419390  0.74030047  0.27886796  1
  Ni  Ni0  1  0.00000000  0.50000000  0.50000000  1
  Ni  Ni1  1  0.50000000  0.50000000  0.00000000  1
  Se  Se0  1  0.08565971  0.31417894  0.66090174  1
  Se  Se1  1  0.58565971  0.68582106  0.83909826  1
  Se  Se2  1  0.91434029  0.68582106  0.33909826  1
  Se  Se3  1  0.41434029  0.31417894  0.16090174  1
  Se  Se4  1  0.39902787  0.74211465  0.55749901  1
  Se  Se5  1  0.89902787  0.25788535  0.94250099  1
  Se  Se6  1  0.60097213  0.25788535  0.44250099  1
  Se  Se7  1  0.10097213  0.74211465  0.05749901  1
  Se  Se8  1  0.14948148  0.50196563  0.38819569  1
  Se  Se9  1  0.64948148  0.49803437  0.11180431  1
  Se  Se10  1  0.85051852  0.49803437  0.61180431  1
  Se  Se11  1  0.35051852  0.50196563  0.88819569  1
  Se  Se12  1  0.37067531  0.99579428  0.85038389  1
  Se  Se13  1  0.87067531  0.00420572  0.64961611  1
  Se  Se14  1  0.62932469  0.00420572  0.14961611  1
  Se  Se15  1  0.12932469  0.99579428  0.35038389  1
loop_
_geom_bond_atom_site_label_1
_geom_bond_atom_site_label_2
_geom_bond_distance
_geom_bond_site_symmetry_2
Cs0 Se15 3.584700 1_555
Cs0 Ni0 3.631418 1_555
Cs0 Se7 3.701487 1_556
Cs0 Se0 3.841150 1_555
Cs0 Se0 3.875166 1_565
Cs0 Se13 3.900559 1_465
Cs0 Se4 3.942846 1_555
Cs0 Se12 3.958592 1_555
Cs0 Se8 3.977909 1_555
Cs0 Se11 4.189688 1_555
Cs1 Se14 3.584700 1_556
Cs1 Ni1 3.631418 1_556
Cs1 Se6 3.701487 1_555
Cs1 Se1 3.841150 1_555
Cs1 Se1 3.875166 1_545
Cs1 Se12 3.900559 1_545
Cs1 Se5 3.942846 1_555
Cs1 Se13 3.958592 1_555
Cs1 Se9 3.977909 1_556
Cs1 Se10 4.189688 1_555
Cs2 Se13 3.584700 1_555
Cs2 Ni0 3.631418 1_655
Cs2 Se5 3.701487 1_554
Cs2 Se2 3.841150 1_555
Cs2 Se2 3.875166 1_545
Cs2 Se15 3.900559 1_645
Cs2 Se6 3.942846 1_555
Cs2 Se14 3.958592 1_555
Cs2 Se10 3.977909 1_555
Cs2 Se9 4.189688 1_555
Cs3 Se12 3.584700 1_554
Cs3 Ni1 3.631418 1_555
Cs3 Se4 3.701487 1_555
Cs3 Se3 3.841150 1_555
Cs3 Se3 3.875166 1_565
Cs3 Se14 3.900559 1_565
Cs3 Se7 3.942846 1_555
Cs3 Se15 3.958592 1_555
Cs3 Se11 3.977909 1_554
Cs3 Se8 4.189688 1_555
Cs4 Se12 3.548330 1_545
Cs4 Se8 3.579213 1_555
Cs4 Se6 3.619194 1_555
Cs4 Se4 3.801811 1_555
Cs4 Se0 3.835407 1_555
Cs4 Se3 3.902093 1_555
Cs4 Se4 3.923502 1_545
Cs4 Se11 4.111051 1_555
Cs4 Se15 4.119917 1_545
Cs5 Se13 3.548330 1_565
Cs5 Se9 3.579213 1_556
Cs5 Se7 3.619194 1_656
Cs5 Se5 3.801811 1_555
Cs5 Se1 3.835407 1_555
Cs5 Se2 3.902093 1_556
Cs5 Se5 3.923502 1_565
Cs5 Se10 4.111051 1_555
Cs5 Se14 4.119917 1_566
Cs6 Se14 3.548330 1_565
Cs6 Se10 3.579213 1_555
Cs6 Se4 3.619194 1_555
Cs6 Se6 3.801811 1_555
Cs6 Se2 3.835407 1_555
Cs6 Se1 3.902093 1_555
Cs6 Se6 3.923502 1_565
Cs6 Se9 4.111051 1_555
Cs6 Se13 4.119917 1_565
Cs7 Se15 3.548330 1_545
Cs7 Se11 3.579213 1_554
Cs7 Se5 3.619194 1_454
Cs7 Se7 3.801811 1_555
Cs7 Se3 3.835407 1_555
Cs7 Se0 3.902093 1_554
Cs7 Se7 3.923502 1_545
Cs7 Se8 4.111051 1_555
Cs7 Se12 4.119917 1_544
Ni0 Se8 2.339586 1_555
Ni0 Se10 2.339586 1_455
Ni0 Se0 2.366636 1_555
Ni0 Se2 2.366636 1_455
Ni1 Se9 2.339586 1_555
Ni1 Se11 2.339586 1_554
Ni1 Se1 2.366636 1_554
Ni1 Se3 2.366636 1_555
Se0 V1 2.306144 1_455
Se1 V0 2.306144 1_555
Se2 V3 2.306144 1_655
Se3 V2 2.306144 1_555
Se4 V0 2.250056 1_555
Se5 V1 2.250056 1_555
Se6 V2 2.250056 1_555
Se7 V3 2.250056 1_555
Se8 V3 2.283191 1_555
Se9 V2 2.283191 1_555
Se10 V1 2.283191 1_555
Se11 V0 2.283191 1_555
Se12 V0 2.252588 1_555
Se13 V1 2.252588 1_555
Se14 V2 2.252588 1_555
Se15 V3 2.252588 1_555
