# generated using pymatgen
data_RbMn3CrO8
_symmetry_space_group_name_H-M   'P 1'
_cell_length_a   5.74729575
_cell_length_b   5.74729588
_cell_length_c   7.53134370
_cell_angle_alpha   68.15925116
_cell_angle_beta   68.15935550
_cell_angle_gamma   59.94946561
_symmetry_Int_Tables_number   1
_chemical_formula_structural   RbMn3CrO8
_chemical_formula_sum   'Rb1 Mn3 Cr1 O8'
_cell_volume   194.46230100
_cell_formula_units_Z   1
loop_
 _symmetry_equiv_pos_site_id
 _symmetry_equiv_pos_as_xyz
  1  'x, y, z'
loop_
 _atom_site_type_symbol
 _atom_site_label
 _atom_site_symmetry_multiplicity
 _atom_site_fract_x
 _atom_site_fract_y
 _atom_site_fract_z
 _atom_site_occupancy
  Rb  Rb0  1  0.00000000  0.00000000  0.50000000  1
  Mn  Mn0  1  0.50000000  0.50000000  0.00000000  1
  Mn  Mn1  1  0.50000000  0.00000000  0.00000000  1
  Mn  Mn2  1  0.00000000  0.50000000  0.00000000  1
  Cr  Cr0  1  0.00000000  0.00000000  0.00000000  1
  O  O0  1  0.70350882  0.21768702  0.85711866  1
  O  O1  1  0.21768802  0.70350782  0.85711866  1
  O  O2  1  0.28603225  0.28603325  0.14512648  1
  O  O3  1  0.78234053  0.78234153  0.14214050  1
  O  O4  1  0.21765947  0.21765847  0.85785950  1
  O  O5  1  0.71396775  0.71396675  0.85487452  1
  O  O6  1  0.78231198  0.29649218  0.14288134  1
  O  O7  1  0.29649118  0.78231298  0.14288134  1
loop_
_geom_bond_atom_site_label_1
_geom_bond_atom_site_label_2
_geom_bond_distance
_geom_bond_site_symmetry_2
Mn0 O6 1.902779 1_555
Mn0 O1 1.902779 1_554
Mn0 O7 1.902785 1_555
Mn0 O0 1.902785 1_554
Mn0 O5 1.932232 1_554
Mn0 O2 1.932233 1_555
Mn1 O3 1.899234 1_545
Mn1 O4 1.899234 1_554
Mn1 O0 1.902270 1_554
Mn1 O7 1.902270 1_545
Mn1 O5 1.929121 1_544
Mn1 O2 1.929126 1_555
Mn2 O3 1.899241 1_455
Mn2 O4 1.899241 1_554
Mn2 O1 1.902270 1_554
Mn2 O6 1.902270 1_455
Mn2 O5 1.929114 1_454
Mn2 O2 1.929119 1_555
Cr0 O4 1.962194 1_554
Cr0 O3 1.962194 1_445
Cr0 O7 1.963259 1_545
Cr0 O0 1.963259 1_454
Cr0 O6 1.963266 1_455
Cr0 O1 1.963266 1_544
O0 Rb0 2.943009 1_655
O1 Rb0 2.943008 1_565
O2 Rb0 2.952364 1_555
O5 Rb0 2.952368 1_665
O6 Rb0 2.943008 1_655
O7 Rb0 2.943009 1_565
