# generated using pymatgen
data_Nb4VTe8
_symmetry_space_group_name_H-M   'P 1'
_cell_length_a   7.50410009
_cell_length_b   7.50410050
_cell_length_c   13.75436382
_cell_angle_alpha   90.00000000
_cell_angle_beta   90.00000000
_cell_angle_gamma   120.00001159
_symmetry_Int_Tables_number   1
_chemical_formula_structural   Nb4VTe8
_chemical_formula_sum   'Nb8 V2 Te16'
_cell_volume   670.76184143
_cell_formula_units_Z   2
loop_
 _symmetry_equiv_pos_site_id
 _symmetry_equiv_pos_as_xyz
  1  'x, y, z'
loop_
 _atom_site_type_symbol
 _atom_site_label
 _atom_site_symmetry_multiplicity
 _atom_site_fract_x
 _atom_site_fract_y
 _atom_site_fract_z
 _atom_site_occupancy
  Nb  Nb0  1  0.00000000  0.00000000  0.25000000  1
  Nb  Nb1  1  0.00000000  0.00000000  0.75000000  1
  Nb  Nb2  1  0.51135507  0.02271113  0.25000000  1
  Nb  Nb3  1  0.48864493  0.97728887  0.75000000  1
  Nb  Nb4  1  0.97728887  0.48864493  0.25000000  1
  Nb  Nb5  1  0.02271113  0.51135507  0.75000000  1
  Nb  Nb6  1  0.51135507  0.48864493  0.25000000  1
  Nb  Nb7  1  0.48864493  0.51135507  0.75000000  1
  V  V0  1  0.00000000  0.00000000  0.00000000  1
  V  V1  1  0.00000000  0.00000000  0.50000000  1
  Te  Te0  1  0.33333300  0.66666700  0.61155438  1
  Te  Te1  1  0.66666700  0.33333300  0.38844562  1
  Te  Te2  1  0.66666700  0.33333300  0.11155438  1
  Te  Te3  1  0.33333300  0.66666700  0.88844562  1
  Te  Te4  1  0.16808088  0.33616276  0.12208024  1
  Te  Te5  1  0.83191912  0.66383724  0.87791976  1
  Te  Te6  1  0.66383724  0.83191912  0.12208024  1
  Te  Te7  1  0.83191912  0.66383724  0.62208024  1
  Te  Te8  1  0.33616276  0.16808088  0.87791976  1
  Te  Te9  1  0.16808088  0.33616276  0.37791976  1
  Te  Te10  1  0.16808088  0.83191912  0.12208024  1
  Te  Te11  1  0.33616276  0.16808088  0.62208024  1
  Te  Te12  1  0.83191912  0.16808088  0.87791976  1
  Te  Te13  1  0.66383724  0.83191912  0.37791976  1
  Te  Te14  1  0.83191912  0.16808088  0.62208024  1
  Te  Te15  1  0.16808088  0.83191912  0.37791976  1
loop_
_geom_bond_atom_site_label_1
_geom_bond_atom_site_label_2
_geom_bond_distance
_geom_bond_site_symmetry_2
Nb0 Te15 2.805046 1_545
Nb0 Te10 2.805046 1_545
Nb0 Te13 2.805051 1_445
Nb0 Te6 2.805051 1_445
Nb0 Te9 2.805051 1_555
Nb0 Te4 2.805051 1_555
Nb1 Te12 2.805046 1_455
Nb1 Te14 2.805046 1_455
Nb1 Te8 2.805051 1_555
Nb1 Te11 2.805051 1_555
Nb1 Te5 2.805051 1_445
Nb1 Te7 2.805051 1_445
Nb2 Te1 2.775076 1_555
Nb2 Te2 2.775076 1_555
Nb2 Te15 2.844826 1_545
Nb2 Te10 2.844826 1_545
Nb2 Te13 2.844826 1_545
Nb2 Te6 2.844826 1_545
Nb3 Te3 2.775076 1_555
Nb3 Te0 2.775076 1_555
Nb3 Te12 2.844826 1_565
Nb3 Te14 2.844826 1_565
Nb3 Te8 2.844826 1_565
Nb3 Te11 2.844826 1_565
Nb4 Te1 2.775076 1_555
Nb4 Te2 2.775076 1_555
Nb4 Te15 2.844826 1_655
Nb4 Te10 2.844826 1_655
Nb4 Te9 2.844826 1_655
Nb4 Te4 2.844826 1_655
Nb5 Te3 2.775076 1_555
Nb5 Te0 2.775076 1_555
Nb5 Te12 2.844826 1_455
Nb5 Te14 2.844826 1_455
Nb5 Te5 2.844826 1_455
Nb5 Te7 2.844826 1_455
Nb6 Te1 2.775086 1_555
Nb6 Te2 2.775086 1_555
Nb6 Te9 2.844826 1_555
Nb6 Te4 2.844826 1_555
Nb6 Te13 2.844826 1_555
Nb6 Te6 2.844826 1_555
Nb7 Te3 2.775086 1_555
Nb7 Te0 2.775086 1_555
Nb7 Te5 2.844826 1_555
Nb7 Te7 2.844826 1_555
Nb7 Te8 2.844826 1_555
Nb7 Te11 2.844826 1_555
Te4 V0 2.755381 1_555
Te5 V0 2.755381 1_666
Te6 V0 2.755381 1_665
Te7 V1 2.755381 1_665
Te8 V0 2.755381 1_556
Te9 V1 2.755381 1_555
Te10 V0 2.755376 1_565
Te11 V1 2.755381 1_555
Te12 V0 2.755376 1_656
Te13 V1 2.755381 1_665
Te14 V1 2.755376 1_655
Te15 V1 2.755376 1_565
