# generated using pymatgen
data_AuBrF6
_symmetry_space_group_name_H-M   'P 1'
_cell_length_a   5.23176217
_cell_length_b   5.70198743
_cell_length_c   8.57640430
_cell_angle_alpha   90.00000000
_cell_angle_beta   99.82236615
_cell_angle_gamma   90.00000000
_symmetry_Int_Tables_number   1
_chemical_formula_structural   AuBrF6
_chemical_formula_sum   'Au2 Br2 F12'
_cell_volume   252.09615177
_cell_formula_units_Z   2
loop_
 _symmetry_equiv_pos_site_id
 _symmetry_equiv_pos_as_xyz
  1  'x, y, z'
loop_
 _atom_site_type_symbol
 _atom_site_label
 _atom_site_symmetry_multiplicity
 _atom_site_fract_x
 _atom_site_fract_y
 _atom_site_fract_z
 _atom_site_occupancy
  Au  Au0  1  0.74918785  0.75609443  0.90570291  1
  Au  Au1  1  0.25081215  0.25609443  0.09429709  1
  Br  Br0  1  0.53219716  0.74202177  0.33012645  1
  Br  Br1  1  0.46780284  0.24202177  0.66987355  1
  F  F0  1  0.19717329  0.40438415  0.57560405  1
  F  F1  1  0.80282671  0.90438415  0.42439595  1
  F  F2  1  0.29923482  0.97411742  0.62593014  1
  F  F3  1  0.70076518  0.47411642  0.37406986  1
  F  F4  1  0.17417836  0.44643760  0.90800927  1
  F  F5  1  0.82582164  0.94643760  0.09199073  1
  F  F6  1  0.29038411  0.98518098  0.96775675  1
  F  F7  1  0.70961589  0.48518098  0.03224325  1
  F  F8  1  0.32733385  0.06946081  0.29210371  1
  F  F9  1  0.67266615  0.56946081  0.70789629  1
  F  F10  1  0.20736449  0.53230383  0.22758202  1
  F  F11  1  0.79263551  0.03230383  0.77241798  1
loop_
_geom_bond_atom_site_label_1
_geom_bond_atom_site_label_2
_geom_bond_distance
_geom_bond_site_symmetry_2
Au0 F5 1.916435 1_556
Au0 F7 1.919258 1_556
Au0 F11 1.981781 1_565
Au0 F9 1.984702 1_555
Au1 F4 1.916435 1_554
Au1 F6 1.919258 1_544
Au1 F10 1.981781 1_555
Au1 F8 1.984702 1_555
Br0 F1 1.767729 1_555
Br0 F3 1.771987 1_555
Br0 F10 2.140466 1_555
Br0 F8 2.149820 1_565
Br1 F0 1.767729 1_555
Br1 F2 1.771982 1_545
Br1 F11 2.140466 1_555
Br1 F9 2.149820 1_555
