# generated using pymatgen
data_NiSb2F12
_symmetry_space_group_name_H-M   'P 1'
_cell_length_a   4.95626229
_cell_length_b   5.34881054
_cell_length_c   8.61486215
_cell_angle_alpha   74.30948162
_cell_angle_beta   89.37119939
_cell_angle_gamma   62.86565525
_symmetry_Int_Tables_number   1
_chemical_formula_structural   NiSb2F12
_chemical_formula_sum   'Ni1 Sb2 F12'
_cell_volume   193.98144421
_cell_formula_units_Z   1
loop_
 _symmetry_equiv_pos_site_id
 _symmetry_equiv_pos_as_xyz
  1  'x, y, z'
loop_
 _atom_site_type_symbol
 _atom_site_label
 _atom_site_symmetry_multiplicity
 _atom_site_fract_x
 _atom_site_fract_y
 _atom_site_fract_z
 _atom_site_occupancy
  Ni  Ni0  1  0.50000000  0.50000000  0.50000000  1
  Sb  Sb0  1  0.76794599  0.00875382  0.23691152  1
  Sb  Sb1  1  0.23205401  0.99124618  0.76308848  1
  F  F0  1  0.95812601  0.24480176  0.21420622  1
  F  F1  1  0.04187399  0.75519824  0.78579378  1
  F  F2  1  0.04122328  0.75212558  0.13309671  1
  F  F3  1  0.49136045  0.76865496  0.62563104  1
  F  F4  1  0.50863955  0.23134504  0.37436896  1
  F  F5  1  0.95195281  0.24711238  0.56169380  1
  F  F6  1  0.04804719  0.75288762  0.43830620  1
  F  F7  1  0.42508063  0.24097888  0.69284019  1
  F  F8  1  0.57491937  0.75902112  0.30715981  1
  F  F9  1  0.53077652  0.76294870  0.94156261  1
  F  F10  1  0.46922348  0.23705130  0.05843739  1
  F  F11  1  0.95877672  0.24787442  0.86690329  1
loop_
_geom_bond_atom_site_label_1
_geom_bond_atom_site_label_2
_geom_bond_distance
_geom_bond_site_symmetry_2
F0 Sb0 1.862454 1_555
F1 Sb1 1.862454 1_555
F2 Sb0 1.860134 1_465
F3 Sb1 1.950630 1_555
F3 Ni0 2.005536 1_555
F4 Sb0 1.950630 1_555
F4 Ni0 2.005536 1_555
F5 Sb1 1.961112 1_645
F5 Ni0 2.000808 1_555
F6 Sb0 1.961112 1_465
F6 Ni0 2.000808 1_555
F7 Sb1 1.944609 1_545
F7 Ni0 2.007001 1_555
F8 Sb0 1.944609 1_565
F8 Ni0 2.007001 1_555
F9 Sb1 1.852699 1_555
F10 Sb0 1.852699 1_555
F11 Sb1 1.860134 1_645
