# generated using pymatgen
data_Li3InP2
_symmetry_space_group_name_H-M   'P 1'
_cell_length_a   4.20734482
_cell_length_b   4.20734482
_cell_length_c   6.04445306
_cell_angle_alpha   90.00000000
_cell_angle_beta   90.00000000
_cell_angle_gamma   90.00000000
_symmetry_Int_Tables_number   1
_chemical_formula_structural   Li3InP2
_chemical_formula_sum   'Li3 In1 P2'
_cell_volume   106.99739959
_cell_formula_units_Z   1
loop_
 _symmetry_equiv_pos_site_id
 _symmetry_equiv_pos_as_xyz
  1  'x, y, z'
loop_
 _atom_site_type_symbol
 _atom_site_label
 _atom_site_symmetry_multiplicity
 _atom_site_fract_x
 _atom_site_fract_y
 _atom_site_fract_z
 _atom_site_occupancy
  Li  Li0  1  0.50000000  0.50000000  0.00000000  1
  Li  Li1  1  0.00000000  0.00000000  0.00000000  1
  Li  Li2  1  0.50000000  0.50000000  0.50000000  1
  In  In0  1  0.00000000  0.00000000  0.50000000  1
  P  P0  1  0.00000000  0.50000000  0.24783283  1
  P  P1  1  0.50000000  0.00000000  0.75216717  1
loop_
_geom_bond_atom_site_label_1
_geom_bond_atom_site_label_2
_geom_bond_distance
_geom_bond_site_symmetry_2
Li0 P0 2.582534 1_655
Li0 P0 2.582534 1_555
Li0 P1 2.582534 1_554
Li0 P1 2.582534 1_564
Li1 P0 2.582534 1_555
Li1 P0 2.582534 1_545
Li1 P1 2.582534 1_554
Li1 P1 2.582534 1_454
Li2 P1 2.597819 1_565
Li2 P1 2.597819 1_555
Li2 P0 2.597819 1_655
Li2 P0 2.597819 1_555
In0 P1 2.597819 1_455
In0 P1 2.597819 1_555
In0 P0 2.597819 1_545
In0 P0 2.597819 1_555
In0 Li2 2.975042 1_455
In0 Li2 2.975042 1_555
In0 Li2 2.975042 1_445
In0 Li2 2.975042 1_545
In0 Li1 3.022227 1_555
In0 Li1 3.022227 1_556
