# generated using pymatgen
data_Na3Sr3InP4
_symmetry_space_group_name_H-M   'P 1'
_cell_length_a   9.55492673
_cell_length_b   9.55492690
_cell_length_c   7.44969332
_cell_angle_alpha   90.00000000
_cell_angle_beta   90.00000000
_cell_angle_gamma   120.00000281
_symmetry_Int_Tables_number   1
_chemical_formula_structural   Na3Sr3InP4
_chemical_formula_sum   'Na6 Sr6 In2 P8'
_cell_volume   589.01145972
_cell_formula_units_Z   2
loop_
 _symmetry_equiv_pos_site_id
 _symmetry_equiv_pos_as_xyz
  1  'x, y, z'
loop_
 _atom_site_type_symbol
 _atom_site_label
 _atom_site_symmetry_multiplicity
 _atom_site_fract_x
 _atom_site_fract_y
 _atom_site_fract_z
 _atom_site_occupancy
  Na  Na0  1  0.13474750  0.86525250  0.16454063  1
  Na  Na1  1  0.26949400  0.13474750  0.66454063  1
  Na  Na2  1  0.86525250  0.73050600  0.66454063  1
  Na  Na3  1  0.73050600  0.86525250  0.16454063  1
  Na  Na4  1  0.86525250  0.13474750  0.66454063  1
  Na  Na5  1  0.13474750  0.26949400  0.16454063  1
  Sr  Sr0  1  0.95019212  0.47509556  0.00150123  1
  Sr  Sr1  1  0.52490444  0.04980788  0.00150123  1
  Sr  Sr2  1  0.47509556  0.95019212  0.50150123  1
  Sr  Sr3  1  0.04980788  0.52490444  0.50150123  1
  Sr  Sr4  1  0.52490444  0.47509556  0.00150123  1
  Sr  Sr5  1  0.47509556  0.52490444  0.50150123  1
  In  In0  1  0.66666700  0.33333300  0.37679953  1
  In  In1  1  0.33333300  0.66666700  0.87679953  1
  P  P0  1  0.81452340  0.18547660  0.27543879  1
  P  P1  1  0.18547660  0.37095320  0.77543879  1
  P  P2  1  0.81452340  0.62904680  0.27543879  1
  P  P3  1  0.66666700  0.33333300  0.72986055  1
  P  P4  1  0.62904680  0.81452340  0.77543879  1
  P  P5  1  0.33333300  0.66666700  0.22986055  1
  P  P6  1  0.18547660  0.81452340  0.77543879  1
  P  P7  1  0.37095320  0.18547660  0.27543879  1
loop_
_geom_bond_atom_site_label_1
_geom_bond_atom_site_label_2
_geom_bond_distance
_geom_bond_site_symmetry_2
Na0 P2 2.869246 1_455
Na0 P7 2.869246 1_565
Na0 P6 3.017820 1_554
Na0 P5 3.322344 1_555
Na1 P1 2.869239 1_555
Na1 P6 2.869248 1_545
Na1 P7 3.017823 1_555
Na1 P3 3.322360 1_555
Na2 P4 2.869239 1_555
Na2 P6 2.869248 1_655
Na2 P2 3.017823 1_555
Na2 P3 3.322360 1_555
Na3 P2 2.869239 1_555
Na3 P0 2.869248 1_565
Na3 P4 3.017823 1_554
Na3 P5 3.322360 1_555
Na4 P1 2.869246 1_655
Na4 P4 2.869246 1_545
Na4 P0 3.017820 1_555
Na4 P3 3.322344 1_555
Na5 P7 2.869239 1_555
Na5 P0 2.869248 1_455
Na5 P1 3.017823 1_554
Na5 P5 3.322360 1_555
In0 P0 2.560827 1_555
In0 P7 2.560835 1_555
In0 P2 2.560835 1_555
In0 P3 2.630196 1_555
In1 P6 2.560827 1_555
In1 P4 2.560835 1_555
In1 P1 2.560835 1_555
In1 P5 2.630196 1_556
P0 Sr1 3.148921 1_555
P0 Sr0 3.148921 1_555
P0 Sr2 3.334293 1_545
P0 Sr3 3.334293 1_655
P1 Sr5 3.148921 1_555
P1 Sr3 3.148928 1_555
P1 Sr0 3.334287 1_456
P1 Sr4 3.334294 1_556
P2 Sr4 3.148921 1_555
P2 Sr0 3.148928 1_555
P2 Sr3 3.334287 1_655
P2 Sr5 3.334294 1_555
P3 Sr0 3.098287 1_556
P3 Sr1 3.098287 1_556
P3 Sr4 3.098287 1_556
P3 Sr3 3.598007 1_655
P3 Sr2 3.598007 1_545
P3 Sr5 3.598021 1_555
P4 Sr5 3.148921 1_555
P4 Sr2 3.148928 1_555
P4 Sr1 3.334287 1_566
P4 Sr4 3.334294 1_556
P5 Sr3 3.098287 1_555
P5 Sr2 3.098287 1_555
P5 Sr5 3.098287 1_555
P5 Sr0 3.598007 1_455
P5 Sr1 3.598007 1_565
P5 Sr4 3.598021 1_555
P6 Sr2 3.148921 1_555
P6 Sr3 3.148921 1_555
P6 Sr1 3.334293 1_566
P6 Sr0 3.334293 1_456
P7 Sr4 3.148921 1_555
P7 Sr1 3.148928 1_555
P7 Sr2 3.334287 1_545
P7 Sr5 3.334294 1_555
