# generated using pymatgen
data_KV(NiSe2)2
_symmetry_space_group_name_H-M   'P 1'
_cell_length_a   9.68329328
_cell_length_b   9.68329348
_cell_length_c   7.47950191
_cell_angle_alpha   90.00000000
_cell_angle_beta   90.00000000
_cell_angle_gamma   146.93902880
_symmetry_Int_Tables_number   1
_chemical_formula_structural   KV(NiSe2)2
_chemical_formula_sum   'K2 V2 Ni4 Se8'
_cell_volume   382.59425831
_cell_formula_units_Z   2
loop_
 _symmetry_equiv_pos_site_id
 _symmetry_equiv_pos_as_xyz
  1  'x, y, z'
loop_
 _atom_site_type_symbol
 _atom_site_label
 _atom_site_symmetry_multiplicity
 _atom_site_fract_x
 _atom_site_fract_y
 _atom_site_fract_z
 _atom_site_occupancy
  K  K0  1  0.17675602  0.80810723  0.75000000  1
  K  K1  1  0.80810723  0.17675602  0.25000000  1
  V  V0  1  0.64026145  0.85347519  0.75000000  1
  V  V1  1  0.85347519  0.64026145  0.25000000  1
  Ni  Ni0  1  0.74351504  0.74351504  0.50000000  1
  Ni  Ni1  1  0.74351504  0.74351504  0.00000000  1
  Ni  Ni2  1  0.35740824  0.13983707  0.25000000  1
  Ni  Ni3  1  0.13983707  0.35740824  0.75000000  1
  Se  Se0  1  0.60381940  0.39827013  0.99869363  1
  Se  Se1  1  0.39827013  0.60382040  0.49869363  1
  Se  Se2  1  0.99482404  0.00483937  0.75000000  1
  Se  Se3  1  0.39827013  0.60382040  0.00130637  1
  Se  Se4  1  0.19637801  0.78026320  0.25000000  1
  Se  Se5  1  0.78026320  0.19637801  0.75000000  1
  Se  Se6  1  0.00483937  0.99482404  0.25000000  1
  Se  Se7  1  0.60381940  0.39827013  0.50130637  1
loop_
_geom_bond_atom_site_label_1
_geom_bond_atom_site_label_2
_geom_bond_distance
_geom_bond_site_symmetry_2
K0 Se5 3.385074 1_565
K0 Se5 3.421750 1_455
K0 Se2 3.515401 1_465
K0 Se0 3.617171 1_455
K0 Se7 3.617171 1_455
K0 Se0 3.688763 1_565
K0 Se7 3.688763 1_565
K0 Se4 3.765688 1_556
K0 Se4 3.765688 1_555
K1 Se4 3.385074 1_655
K1 Se4 3.421750 1_545
K1 Se6 3.515401 1_645
K1 Se1 3.617165 1_545
K1 Se3 3.617165 1_545
K1 Se1 3.688761 1_655
K1 Se3 3.688761 1_655
K1 Se5 3.765688 1_555
K1 Se5 3.765688 1_554
Ni0 Se7 2.329412 1_555
Ni0 Se1 2.329418 1_555
Ni0 Se6 2.345185 1_655
Ni0 Se2 2.345185 1_565
Ni1 Se0 2.329412 1_554
Ni1 Se3 2.329418 1_555
Ni1 Se6 2.345185 1_655
Ni1 Se2 2.345185 1_564
Ni2 Se4 2.335450 1_545
Ni2 Se7 2.340978 1_555
Ni2 Se0 2.340978 1_554
Ni2 Se6 2.364694 1_545
Ni3 Se5 2.335450 1_455
Ni3 Se3 2.340979 1_556
Ni3 Se1 2.340979 1_555
Ni3 Se2 2.364694 1_455
Se0 V1 2.317965 1_556
Se1 V0 2.317963 1_555
Se2 V0 2.345443 1_545
Se3 V0 2.317963 1_554
Se4 V1 2.306056 1_455
Se5 V0 2.306056 1_545
Se6 V1 2.345443 1_455
Se7 V1 2.317965 1_555
