# generated using pymatgen
data_BaNaFeO3
_symmetry_space_group_name_H-M   'P 1'
_cell_length_a   6.19895670
_cell_length_b   6.19895675
_cell_length_c   5.55121287
_cell_angle_alpha   95.19370732
_cell_angle_beta   95.19371655
_cell_angle_gamma   124.90036571
_symmetry_Int_Tables_number   1
_chemical_formula_structural   BaNaFeO3
_chemical_formula_sum   'Ba2 Na2 Fe2 O6'
_cell_volume   171.56789563
_cell_formula_units_Z   2
loop_
 _symmetry_equiv_pos_site_id
 _symmetry_equiv_pos_as_xyz
  1  'x, y, z'
loop_
 _atom_site_type_symbol
 _atom_site_label
 _atom_site_symmetry_multiplicity
 _atom_site_fract_x
 _atom_site_fract_y
 _atom_site_fract_z
 _atom_site_occupancy
  Ba  Ba0  1  0.74266313  0.25733528  0.24999816  1
  Ba  Ba1  1  0.25733387  0.74266372  0.74999884  1
  Na  Na0  1  0.43402366  0.56597679  0.24999948  1
  Na  Na1  1  0.56597834  0.43402221  0.74999952  1
  Fe  Fe0  1  0.05132269  0.94867861  0.24999856  1
  Fe  Fe1  1  0.94867831  0.05132339  0.74999844  1
  O  O0  1  0.73676570  0.82999286  0.01330643  1
  O  O1  1  0.22413439  0.77586383  0.25000073  1
  O  O2  1  0.17000767  0.26323468  0.48669293  1
  O  O3  1  0.82999333  0.73676632  0.51330707  1
  O  O4  1  0.77586561  0.22413517  0.74999827  1
  O  O5  1  0.26323430  0.17000714  0.98669257  1
loop_
_geom_bond_atom_site_label_1
_geom_bond_atom_site_label_2
_geom_bond_distance
_geom_bond_site_symmetry_2
Ba0 O4 2.799496 1_555
Ba0 O4 2.799497 1_554
Ba0 O0 2.827661 1_545
Ba0 O2 2.827672 1_655
Ba0 O1 2.874361 1_655
Ba0 O1 2.874367 1_545
Ba0 O5 2.913987 1_554
Ba0 O3 2.914001 1_555
Ba1 O1 2.799484 1_555
Ba1 O1 2.799504 1_556
Ba1 O3 2.827650 1_455
Ba1 O5 2.827660 1_565
Ba1 O4 2.874356 1_455
Ba1 O4 2.874375 1_565
Ba1 O2 2.913995 1_555
Ba1 O0 2.914005 1_556
Na0 O0 2.290856 1_555
Na0 O2 2.290858 1_555
Na0 O1 2.307112 1_555
Na0 O5 2.319260 1_554
Na0 O3 2.319261 1_555
Na1 O3 2.290858 1_555
Na1 O5 2.290860 1_555
Na1 O4 2.307101 1_555
Na1 O2 2.319266 1_555
Na1 O0 2.319267 1_556
Fe0 O1 1.899581 1_555
Fe0 O0 1.946641 1_455
Fe0 O2 1.946645 1_565
Fe0 O5 2.095904 1_564
Fe0 O3 2.095918 1_455
Fe1 O4 1.899570 1_555
Fe1 O3 1.946640 1_545
Fe1 O5 1.946645 1_655
Fe1 O2 2.095903 1_655
Fe1 O0 2.095919 1_546
