# generated using pymatgen
data_Be7SiW4
_symmetry_space_group_name_H-M   'P 1'
_cell_length_a   4.46930334
_cell_length_b   4.46930315
_cell_length_c   7.39757418
_cell_angle_alpha   90.00000000
_cell_angle_beta   90.00000000
_cell_angle_gamma   120.00000872
_symmetry_Int_Tables_number   1
_chemical_formula_structural   Be7SiW4
_chemical_formula_sum   'Be7 Si1 W4'
_cell_volume   127.96746517
_cell_formula_units_Z   1
loop_
 _symmetry_equiv_pos_site_id
 _symmetry_equiv_pos_as_xyz
  1  'x, y, z'
loop_
 _atom_site_type_symbol
 _atom_site_label
 _atom_site_symmetry_multiplicity
 _atom_site_fract_x
 _atom_site_fract_y
 _atom_site_fract_z
 _atom_site_occupancy
  Be  Be0  1  0.00000000  0.00000000  0.00000000  1
  Be  Be1  1  0.82898412  0.17101588  0.24414926  1
  Be  Be2  1  0.82898412  0.65796824  0.24414926  1
  Be  Be3  1  0.34203176  0.17101588  0.24414926  1
  Be  Be4  1  0.17101588  0.82898412  0.75585074  1
  Be  Be5  1  0.17101588  0.34203176  0.75585074  1
  Be  Be6  1  0.65796824  0.82898412  0.75585074  1
  Si  Si0  1  0.00000000  0.00000000  0.50000000  1
  W  W0  1  0.33333300  0.66666700  0.43625989  1
  W  W1  1  0.66666700  0.33333300  0.56374011  1
  W  W2  1  0.66666700  0.33333300  0.93733769  1
  W  W3  1  0.33333300  0.66666700  0.06266231  1
loop_
_geom_bond_atom_site_label_1
_geom_bond_atom_site_label_2
_geom_bond_distance
_geom_bond_site_symmetry_2
Be0 Be2 2.239331 1_445
Be0 Be5 2.239331 1_554
Be0 Be3 2.239331 1_555
Be0 Be6 2.239331 1_444
Be0 Be1 2.239331 1_455
Be0 Be4 2.239331 1_544
Be0 W3 2.621658 1_545
Be0 W2 2.621658 1_454
Be0 W3 2.621661 1_555
Be0 W2 2.621661 1_444
Be0 W2 2.621661 1_554
Be0 W3 2.621661 1_445
Be1 Be2 2.176338 1_555
Be1 Be3 2.176338 1_555
Be1 Be2 2.292965 1_545
Be1 Be3 2.292966 1_655
Be1 Si0 2.309715 1_655
Be1 W2 2.594257 1_554
Be1 W3 2.607159 1_545
Be1 W3 2.607159 1_655
Be1 W0 2.648485 1_545
Be1 W0 2.648485 1_655
Be1 W1 2.677356 1_555
Be2 Be3 2.176337 1_555
Be2 Be3 2.292965 1_665
Be2 Si0 2.309715 1_665
Be2 W2 2.594259 1_554
Be2 W3 2.607157 1_655
Be2 W3 2.607161 1_555
Be2 W0 2.648484 1_655
Be2 W0 2.648488 1_555
Be2 W1 2.677358 1_555
Be3 Si0 2.309715 1_555
Be3 W2 2.594259 1_554
Be3 W3 2.607157 1_545
Be3 W3 2.607161 1_555
Be3 W0 2.648484 1_545
Be3 W0 2.648488 1_555
Be3 W1 2.677358 1_555
Be4 Be5 2.176338 1_555
Be4 Be6 2.176338 1_555
Be4 Be5 2.292965 1_565
Be4 Be6 2.292966 1_455
Be4 Si0 2.309715 1_565
Be4 W3 2.594257 1_556
Be4 W2 2.607159 1_565
Be4 W2 2.607159 1_455
Be4 W1 2.648485 1_565
Be4 W1 2.648485 1_455
Be4 W0 2.677356 1_555
Be5 Be6 2.176337 1_555
Be5 Be6 2.292965 1_445
Be5 Si0 2.309715 1_555
Be5 W3 2.594259 1_556
Be5 W2 2.607157 1_455
Be5 W2 2.607161 1_555
Be5 W1 2.648484 1_455
Be5 W1 2.648488 1_555
Be5 W0 2.677358 1_555
Be6 Si0 2.309715 1_665
Be6 W3 2.594259 1_556
Be6 W2 2.607157 1_565
Be6 W2 2.607161 1_555
Be6 W1 2.648484 1_565
Be6 W1 2.648488 1_555
Be6 W0 2.677358 1_555
Si0 W1 2.623079 1_455
Si0 W0 2.623079 1_545
Si0 W0 2.623083 1_555
Si0 W1 2.623083 1_445
Si0 W1 2.623083 1_555
Si0 W0 2.623083 1_445
