# generated using pymatgen
data_Sr6Ga(RhO6)2
_symmetry_space_group_name_H-M   'P 1'
_cell_length_a   8.70940640
_cell_length_b   8.70940580
_cell_length_c   6.86180816
_cell_angle_alpha   67.64378946
_cell_angle_beta   67.64378097
_cell_angle_gamma   36.85936291
_symmetry_Int_Tables_number   1
_chemical_formula_structural   Sr6Ga(RhO6)2
_chemical_formula_sum   'Sr6 Ga1 Rh2 O12'
_cell_volume   286.02776224
_cell_formula_units_Z   1
loop_
 _symmetry_equiv_pos_site_id
 _symmetry_equiv_pos_as_xyz
  1  'x, y, z'
loop_
 _atom_site_type_symbol
 _atom_site_label
 _atom_site_symmetry_multiplicity
 _atom_site_fract_x
 _atom_site_fract_y
 _atom_site_fract_z
 _atom_site_occupancy
  Sr  Sr0  1  0.21256822  0.21256822  0.71042639  1
  Sr  Sr1  1  0.88440159  0.88440159  0.70672425  1
  Sr  Sr2  1  0.54763512  0.54763512  0.71407323  1
  Sr  Sr3  1  0.78743178  0.78743178  0.28957361  1
  Sr  Sr4  1  0.45236488  0.45236488  0.28592677  1
  Sr  Sr5  1  0.11559841  0.11559841  0.29327575  1
  Ga  Ga0  1  0.00000000  0.00000000  0.00000000  1
  Rh  Rh0  1  0.66756203  0.66756203  0.00041543  1
  Rh  Rh1  1  0.33243797  0.33243797  0.99958457  1
  O  O0  1  0.27948057  0.27948057  0.32351797  1
  O  O1  1  0.94821983  0.94821983  0.31309817  1
  O  O2  1  0.61226305  0.61226305  0.32355500  1
  O  O3  1  0.72051943  0.72051943  0.67648203  1
  O  O4  1  0.38773695  0.38773695  0.67644500  1
  O  O5  1  0.05178017  0.05178017  0.68690183  1
  O  O6  1  0.00000000  0.50000000  0.00000000  1
  O  O7  1  0.66193611  0.16827038  0.00015265  1
  O  O8  1  0.33806389  0.83172962  0.99984735  1
  O  O9  1  0.50000000  0.00000000  0.00000000  1
  O  O10  1  0.16827038  0.66193611  0.00015265  1
  O  O11  1  0.83172962  0.33806389  0.99984735  1
loop_
_geom_bond_atom_site_label_1
_geom_bond_atom_site_label_2
_geom_bond_distance
_geom_bond_site_symmetry_2
Ga0 O1 1.968198 1_445
Ga0 O5 1.968198 1_554
Ga0 O11 1.977557 1_454
Ga0 O10 1.977557 1_545
Ga0 O8 1.977557 1_544
Ga0 O7 1.977557 1_455
O0 Rh1 2.036365 1_554
O0 Sr0 2.432525 1_555
O0 Sr3 2.761914 1_545
O0 Sr3 2.761914 1_455
O0 Sr4 2.763694 1_555
O0 Sr5 2.797890 1_555
O1 Sr1 2.474563 1_555
O1 Sr5 2.714334 1_665
O1 Sr3 2.725826 1_555
O1 Sr4 2.758696 1_655
O1 Sr4 2.758696 1_565
O2 Rh0 2.031463 1_555
O2 Sr2 2.454873 1_555
O2 Sr4 2.756075 1_555
O2 Sr5 2.760111 1_655
O2 Sr5 2.760112 1_565
O2 Sr3 2.809388 1_555
O3 Rh0 2.036365 1_556
O3 Sr3 2.432525 1_555
O3 Sr0 2.761914 1_565
O3 Sr0 2.761914 1_655
O3 Sr2 2.763694 1_555
O3 Sr1 2.797890 1_555
O4 Rh1 2.031463 1_555
O4 Sr4 2.454873 1_555
O4 Sr2 2.756075 1_555
O4 Sr1 2.760111 1_455
O4 Sr1 2.760112 1_545
O4 Sr0 2.809388 1_555
O5 Sr5 2.474563 1_555
O5 Sr1 2.714334 1_445
O5 Sr0 2.725826 1_555
O5 Sr2 2.758696 1_455
O5 Sr2 2.758696 1_545
O6 Rh1 1.936006 1_554
O6 Rh0 1.936006 1_455
O6 Sr3 2.685454 1_455
O6 Sr0 2.685454 1_554
O6 Sr1 2.700762 1_454
O6 Sr5 2.700762 1_555
O7 Rh1 1.928222 1_554
O7 Sr3 2.641822 1_545
O7 Sr4 2.653337 1_555
O7 Sr2 2.655254 1_554
O7 Sr1 2.659725 1_544
O8 Rh0 1.928222 1_556
O8 Sr0 2.641822 1_565
O8 Sr2 2.653337 1_555
O8 Sr4 2.655254 1_556
O8 Sr5 2.659725 1_566
O9 Rh1 1.936006 1_554
O9 Rh0 1.936006 1_545
O9 Sr3 2.685455 1_545
O9 Sr0 2.685455 1_554
O9 Sr1 2.700762 1_544
O9 Sr5 2.700762 1_555
O10 Rh1 1.928222 1_554
O10 Sr3 2.641822 1_455
O10 Sr4 2.653337 1_555
O10 Sr2 2.655254 1_554
O10 Sr1 2.659726 1_454
O11 Rh0 1.928222 1_556
O11 Sr0 2.641822 1_655
O11 Sr2 2.653337 1_555
O11 Sr4 2.655254 1_556
O11 Sr5 2.659726 1_656
