# generated using pymatgen
data_Rb2Hf(TeO4)3
_symmetry_space_group_name_H-M   'P 1'
_cell_length_a   7.20852798
_cell_length_b   7.20954140
_cell_length_c   7.30491990
_cell_angle_alpha   89.99999829
_cell_angle_beta   60.44919949
_cell_angle_gamma   120.00465468
_symmetry_Int_Tables_number   1
_chemical_formula_structural   Rb2Hf(TeO4)3
_chemical_formula_sum   'Rb2 Hf1 Te3 O12'
_cell_volume   270.23407474
_cell_formula_units_Z   1
loop_
 _symmetry_equiv_pos_site_id
 _symmetry_equiv_pos_as_xyz
  1  'x, y, z'
loop_
 _atom_site_type_symbol
 _atom_site_label
 _atom_site_symmetry_multiplicity
 _atom_site_fract_x
 _atom_site_fract_y
 _atom_site_fract_z
 _atom_site_occupancy
  Rb  Rb0  1  0.25442054  0.13104321  0.11830316  1
  Rb  Rb1  1  0.74557946  0.87662267  0.88169684  1
  Hf  Hf0  1  1.00000000  0.50375705  0.00000000  1
  Te  Te0  1  0.50002384  0.00398113  0.49993398  1
  Te  Te1  1  0.49997616  0.50395729  0.50006602  1
  Te  Te2  1  1.00000000  0.50384595  0.50000000  1
  O  O0  1  0.63945867  0.82354506  0.43466752  1
  O  O1  1  0.86315034  0.43525926  0.80351951  1
  O  O2  1  0.26495888  0.83700337  0.80345933  1
  O  O3  1  0.24563599  0.42965319  0.43462999  1
  O  O4  1  0.26487426  0.43530661  0.80357705  1
  O  O5  1  0.24567890  0.82350787  0.43455331  1
  O  O6  1  0.36054133  0.18408739  0.56533248  1
  O  O7  1  0.13684966  0.57210893  0.19648049  1
  O  O8  1  0.73512574  0.17043135  0.19642295  1
  O  O9  1  0.75432110  0.57782897  0.56544669  1
  O  O10  1  0.73504112  0.57204449  0.19654067  1
  O  O11  1  0.75436401  0.18401619  0.56537001  1
loop_
_geom_bond_atom_site_label_1
_geom_bond_atom_site_label_2
_geom_bond_distance
_geom_bond_site_symmetry_2
Hf0 O1 2.046073 1_554
Hf0 O7 2.046073 1_655
Hf0 O2 2.046270 1_654
Hf0 O10 2.046270 1_555
Hf0 O4 2.046463 1_654
Hf0 O8 2.046468 1_555
O0 Te1 1.938343 1_555
O0 Te0 1.940318 1_565
O0 Rb0 3.157941 1_665
O1 Te2 1.867688 1_555
O1 Rb0 3.126430 1_556
O2 Te0 1.868289 1_565
O2 Rb0 3.126983 1_566
O3 Te1 1.938825 1_555
O3 Te2 1.939757 1_455
O3 Rb0 3.157574 1_555
O4 Te1 1.867491 1_555
O4 Rb0 3.125215 1_556
O5 Te2 1.938823 1_455
O5 Te0 1.939184 1_565
O5 Rb0 3.158086 1_565
O6 Te0 1.938350 1_555
O6 Te1 1.940311 1_555
O6 Rb1 3.157941 1_445
O7 Te2 1.867688 1_455
O7 Rb1 3.126430 1_554
O8 Te0 1.867490 1_555
O8 Rb1 3.125210 1_544
O9 Te2 1.938823 1_555
O9 Te1 1.939184 1_555
O9 Rb1 3.158087 1_555
O10 Te1 1.868289 1_555
O10 Rb1 3.126983 1_554
O11 Te0 1.938823 1_555
O11 Te2 1.939762 1_555
O11 Rb1 3.157569 1_545
