# generated using pymatgen
data_TaReMoS6
_symmetry_space_group_name_H-M   'P 1'
_cell_length_a   5.55296852
_cell_length_b   5.55305205
_cell_length_c   6.78151969
_cell_angle_alpha   82.17282991
_cell_angle_beta   82.17648898
_cell_angle_gamma   119.99888633
_symmetry_Int_Tables_number   1
_chemical_formula_structural   TaReMoS6
_chemical_formula_sum   'Ta1 Re1 Mo1 S6'
_cell_volume   174.25693376
_cell_formula_units_Z   1
loop_
 _symmetry_equiv_pos_site_id
 _symmetry_equiv_pos_as_xyz
  1  'x, y, z'
loop_
 _atom_site_type_symbol
 _atom_site_label
 _atom_site_symmetry_multiplicity
 _atom_site_fract_x
 _atom_site_fract_y
 _atom_site_fract_z
 _atom_site_occupancy
  Ta  Ta0  1  0.49995955  0.83333413  0.49994874  1
  Re  Re0  1  0.83336923  0.50003183  0.50013777  1
  Mo  Mo0  1  0.16667053  0.16663486  0.49996566  1
  S  S0  1  0.58192806  0.25416075  0.26202298  1
  S  S1  1  0.23748675  0.57357344  0.26182140  1
  S  S2  1  0.91798947  0.90967357  0.26190858  1
  S  S3  1  0.75970046  0.75152124  0.73811015  1
  S  S4  1  0.42364613  0.09586700  0.73819988  1
  S  S5  1  0.07915383  0.41510718  0.73818384  1
loop_
_geom_bond_atom_site_label_1
_geom_bond_atom_site_label_2
_geom_bond_distance
_geom_bond_site_symmetry_2
Re0 S4 2.393096 1_555
Re0 S5 2.393173 1_655
Re0 S3 2.393209 1_555
Re0 S2 2.393505 1_555
Re0 S0 2.393572 1_555
Re0 S1 2.393943 1_655
Mo0 S0 2.410373 1_555
Mo0 S3 2.410849 1_445
Mo0 S2 2.411068 1_445
Mo0 S5 2.411150 1_555
Mo0 S1 2.411178 1_555
Mo0 S4 2.411698 1_555
S0 Ta0 2.445602 1_545
S1 Ta0 2.446572 1_555
S2 Ta0 2.446118 1_555
S3 Ta0 2.446395 1_555
S4 Ta0 2.447113 1_545
S5 Ta0 2.446973 1_555
