# generated using pymatgen
data_KBa4Bi3
_symmetry_space_group_name_H-M   'P 1'
_cell_length_a   10.30374660
_cell_length_b   10.28734591
_cell_length_c   8.08477174
_cell_angle_alpha   90.00000000
_cell_angle_beta   90.00000000
_cell_angle_gamma   119.94735130
_symmetry_Int_Tables_number   1
_chemical_formula_structural   KBa4Bi3
_chemical_formula_sum   'K2 Ba8 Bi6'
_cell_volume   742.55233114
_cell_formula_units_Z   2
loop_
 _symmetry_equiv_pos_site_id
 _symmetry_equiv_pos_as_xyz
  1  'x, y, z'
loop_
 _atom_site_type_symbol
 _atom_site_label
 _atom_site_symmetry_multiplicity
 _atom_site_fract_x
 _atom_site_fract_y
 _atom_site_fract_z
 _atom_site_occupancy
  K  K0  1  0.73108737  0.99932345  0.25000000  1
  K  K1  1  0.73108737  0.73176392  0.75000000  1
  Ba  Ba0  1  0.35137623  0.67568812  0.00000000  1
  Ba  Ba1  1  0.66398639  0.33199219  0.50000000  1
  Ba  Ba2  1  0.66398639  0.33199219  0.00000000  1
  Ba  Ba3  1  0.35137623  0.67568812  0.50000000  1
  Ba  Ba4  1  0.99568525  0.27576915  0.75000000  1
  Ba  Ba5  1  0.99568525  0.71991610  0.25000000  1
  Ba  Ba6  1  0.27007084  0.27425264  0.25000000  1
  Ba  Ba7  1  0.27007084  0.99581820  0.75000000  1
  Bi  Bi0  1  0.37103668  0.99845295  0.25000000  1
  Bi  Bi1  1  0.37103668  0.37258473  0.75000000  1
  Bi  Bi2  1  0.00139763  0.61915900  0.75000000  1
  Bi  Bi3  1  0.00139763  0.38223863  0.25000000  1
  Bi  Bi4  1  0.61535962  0.61131677  0.25000000  1
  Bi  Bi5  1  0.61535962  0.00404284  0.75000000  1
loop_
_geom_bond_atom_site_label_1
_geom_bond_atom_site_label_2
_geom_bond_distance
_geom_bond_site_symmetry_2
Ba0 Bi4 3.704132 1_555
Ba0 Bi5 3.704133 1_564
Ba0 Bi1 3.805213 1_554
Ba0 Bi0 3.805221 1_555
Ba0 Bi2 3.915810 1_554
Ba0 Bi3 3.915810 1_555
Ba0 Ba3 4.042386 1_554
Ba0 Ba3 4.042386 1_555
Ba0 K1 4.179935 1_554
Ba0 K0 4.179936 1_555
Ba0 Ba7 4.288048 1_554
Ba0 Ba6 4.288049 1_555
Ba0 Ba5 4.403288 1_455
Ba0 Ba4 4.403289 1_454
Ba1 Bi5 3.745748 1_555
Ba1 Bi4 3.745765 1_555
Ba1 Bi0 3.824812 1_545
Ba1 Bi1 3.824827 1_555
Ba1 Bi3 3.826873 1_655
Ba1 Bi2 3.826879 1_655
Ba1 Ba2 4.042386 1_555
Ba1 Ba2 4.042386 1_556
Ba1 Ba4 4.251392 1_555
Ba1 Ba5 4.251403 1_555
Ba1 Ba7 4.301727 1_545
Ba1 Ba6 4.301733 1_555
Ba1 K0 4.317129 1_545
Ba1 K1 4.317147 1_555
Ba2 Bi5 3.745748 1_554
Ba2 Bi4 3.745765 1_555
Ba2 Bi0 3.824812 1_545
Ba2 Bi1 3.824827 1_554
Ba2 Bi3 3.826873 1_655
Ba2 Bi2 3.826879 1_654
Ba2 Ba4 4.251392 1_554
Ba2 Ba5 4.251403 1_555
Ba2 Ba7 4.301727 1_544
Ba2 Ba6 4.301733 1_555
Ba2 K0 4.317129 1_545
Ba2 K1 4.317147 1_554
Ba3 Bi4 3.704132 1_555
Ba3 Bi5 3.704133 1_565
Ba3 Bi1 3.805213 1_555
Ba3 Bi0 3.805221 1_555
Ba3 Bi2 3.915810 1_555
Ba3 Bi3 3.915810 1_555
Ba3 K1 4.179935 1_555
Ba3 K0 4.179936 1_555
Ba3 Ba7 4.288048 1_555
Ba3 Ba6 4.288049 1_555
Ba3 Ba5 4.403288 1_455
Ba3 Ba4 4.403289 1_455
Ba4 Bi1 3.479065 1_655
Ba4 Bi5 3.497696 1_555
Ba4 Bi2 3.503559 1_655
Ba4 Bi3 4.180866 1_655
Ba4 Bi3 4.180866 1_656
Ba5 Bi0 3.479068 1_655
Ba5 Bi4 3.497696 1_555
Ba5 Bi3 3.503559 1_655
Ba5 Bi2 4.180866 1_655
Ba5 Bi2 4.180866 1_654
Ba6 Bi3 3.459510 1_555
Ba6 Bi0 3.475516 1_545
Ba6 Bi4 3.516295 1_555
Ba6 Bi1 4.170822 1_555
Ba6 Bi1 4.170822 1_554
Ba7 Bi2 3.459510 1_555
Ba7 Bi1 3.475526 1_565
Ba7 Bi5 3.516295 1_565
Ba7 Bi0 4.170821 1_556
Ba7 Bi0 4.170821 1_555
Bi0 K0 3.705409 1_555
Bi1 K1 3.705404 1_555
Bi2 K1 3.510065 1_455
Bi3 K0 3.510065 1_445
Bi4 K0 3.549980 1_555
Bi5 K1 3.549979 1_545
