# generated using pymatgen
data_Ti13Al9OsRh7
_symmetry_space_group_name_H-M   'P 1'
_cell_length_a   8.69905979
_cell_length_b   8.69905972
_cell_length_c   8.69905990
_cell_angle_alpha   59.66036591
_cell_angle_beta   59.66036733
_cell_angle_gamma   59.66037718
_symmetry_Int_Tables_number   1
_chemical_formula_structural   Ti13Al9OsRh7
_chemical_formula_sum   'Ti13 Al9 Os1 Rh7'
_cell_volume   461.88909104
_cell_formula_units_Z   1
loop_
 _symmetry_equiv_pos_site_id
 _symmetry_equiv_pos_as_xyz
  1  'x, y, z'
loop_
 _atom_site_type_symbol
 _atom_site_label
 _atom_site_symmetry_multiplicity
 _atom_site_fract_x
 _atom_site_fract_y
 _atom_site_fract_z
 _atom_site_occupancy
  Ti  Ti0  1  0.21230929  0.21230929  0.78848826  1
  Ti  Ti1  1  0.78848826  0.21230929  0.21230929  1
  Ti  Ti2  1  0.21230929  0.78848826  0.21230929  1
  Ti  Ti3  1  0.79810616  0.79810616  0.18664654  1
  Ti  Ti4  1  0.18664654  0.79810616  0.79810616  1
  Ti  Ti5  1  0.79810616  0.18664654  0.79810616  1
  Ti  Ti6  1  0.37809349  0.37809349  0.37809349  1
  Ti  Ti7  1  0.37918590  0.86705026  0.37918590  1
  Ti  Ti8  1  0.86705026  0.37918590  0.37918590  1
  Ti  Ti9  1  0.37918590  0.37918590  0.86705026  1
  Ti  Ti10  1  0.84541508  0.46630123  0.84541508  1
  Ti  Ti11  1  0.46630123  0.84541508  0.84541508  1
  Ti  Ti12  1  0.84541508  0.84541508  0.46630123  1
  Al  Al0  1  0.15279030  0.15279030  0.15279030  1
  Al  Al1  1  0.15703898  0.53424333  0.15703898  1
  Al  Al2  1  0.53424333  0.15703898  0.15703898  1
  Al  Al3  1  0.15703898  0.15703898  0.53424333  1
  Al  Al4  1  0.61962090  0.61962090  0.61962090  1
  Al  Al5  1  0.62061017  0.14170233  0.62061017  1
  Al  Al6  1  0.14170233  0.62061017  0.62061017  1
  Al  Al7  1  0.62061017  0.62061017  0.14170233  1
  Al  Al8  1  0.82823258  0.82823258  0.82823258  1
  Os  Os0  1  0.00398125  0.00398125  0.00398125  1
  Rh  Rh0  1  0.00440292  0.00440292  0.49765180  1
  Rh  Rh1  1  0.49765180  0.00440292  0.00440292  1
  Rh  Rh2  1  0.00440292  0.49765180  0.00440292  1
  Rh  Rh3  1  0.49922166  0.49922166  0.00189546  1
  Rh  Rh4  1  0.00189546  0.49922166  0.49922166  1
  Rh  Rh5  1  0.49922166  0.00189546  0.49922166  1
  Rh  Rh6  1  0.50072096  0.50072096  0.50072096  1
loop_
_geom_bond_atom_site_label_1
_geom_bond_atom_site_label_2
_geom_bond_distance
_geom_bond_site_symmetry_2
Al0 Rh0 2.488241 1_555
Al0 Rh2 2.488241 1_555
Al0 Rh1 2.488242 1_555
Al1 Rh4 2.493095 1_555
Al1 Rh3 2.493095 1_555
Al1 Rh2 2.502487 1_555
Al2 Rh5 2.493095 1_555
Al2 Rh3 2.493095 1_555
Al2 Rh1 2.502487 1_555
Al3 Rh4 2.493095 1_555
Al3 Rh5 2.493095 1_555
Al3 Rh0 2.502487 1_555
Al4 Rh6 2.540034 1_555
Al4 Rh3 2.706173 1_556
Al4 Rh5 2.706173 1_565
Al4 Rh4 2.706173 1_655
Al5 Rh6 2.539093 1_555
Al5 Rh1 2.715070 1_556
Al5 Rh0 2.715070 1_655
Al5 Rh5 2.725907 1_555
Al6 Rh6 2.539093 1_555
Al6 Rh2 2.715070 1_556
Al6 Rh0 2.715070 1_565
Al6 Rh4 2.725907 1_555
Al7 Rh6 2.539093 1_555
Al7 Rh1 2.715070 1_565
Al7 Rh2 2.715070 1_655
Al7 Rh3 2.725907 1_555
Al8 Rh0 2.536769 1_665
Al8 Rh2 2.536769 1_656
Al8 Rh1 2.536770 1_566
Os0 Ti3 2.535762 1_445
Os0 Ti5 2.535762 1_454
Os0 Ti4 2.535763 1_544
Os0 Ti0 2.556651 1_554
Os0 Ti2 2.556651 1_545
Os0 Ti1 2.556651 1_455
Rh0 Ti12 2.567980 1_445
Rh0 Ti8 2.652022 1_455
Rh0 Ti7 2.652022 1_545
Rh0 Ti4 3.022987 1_545
Rh0 Ti5 3.022987 1_455
Rh0 Ti1 3.114980 1_455
Rh0 Ti2 3.114980 1_545
Rh1 Ti11 2.567980 1_544
Rh1 Ti7 2.652022 1_545
Rh1 Ti9 2.652022 1_554
Rh1 Ti5 3.022987 1_554
Rh1 Ti3 3.022987 1_545
Rh1 Ti2 3.114979 1_545
Rh1 Ti0 3.114980 1_554
Rh2 Ti10 2.567980 1_454
Rh2 Ti8 2.652022 1_455
Rh2 Ti9 2.652022 1_554
Rh2 Ti4 3.022987 1_554
Rh2 Ti3 3.022987 1_455
Rh2 Ti1 3.114979 1_455
Rh2 Ti0 3.114980 1_554
Rh3 Ti11 2.526962 1_554
Rh3 Ti10 2.526962 1_554
Rh3 Ti6 2.661699 1_555
Rh3 Ti9 2.670781 1_554
Rh4 Ti10 2.526962 1_455
Rh4 Ti12 2.526962 1_455
Rh4 Ti6 2.661699 1_555
Rh4 Ti8 2.670781 1_455
Rh5 Ti11 2.526962 1_545
Rh5 Ti12 2.526962 1_545
Rh5 Ti6 2.661699 1_555
Rh5 Ti7 2.670781 1_545
Rh6 Ti9 2.590867 1_555
Rh6 Ti7 2.590867 1_555
Rh6 Ti8 2.590867 1_555
Rh6 Ti6 2.619664 1_555
