# generated using pymatgen
data_Lu8Sc2Bi5Pt
_symmetry_space_group_name_H-M   'P 1'
_cell_length_a   7.91475418
_cell_length_b   9.13507010
_cell_length_c   11.73144519
_cell_angle_alpha   90.00000000
_cell_angle_beta   90.00000000
_cell_angle_gamma   90.00000000
_symmetry_Int_Tables_number   1
_chemical_formula_structural   Lu8Sc2Bi5Pt
_chemical_formula_sum   'Lu16 Sc4 Bi10 Pt2'
_cell_volume   848.20500632
_cell_formula_units_Z   2
loop_
 _symmetry_equiv_pos_site_id
 _symmetry_equiv_pos_as_xyz
  1  'x, y, z'
loop_
 _atom_site_type_symbol
 _atom_site_label
 _atom_site_symmetry_multiplicity
 _atom_site_fract_x
 _atom_site_fract_y
 _atom_site_fract_z
 _atom_site_occupancy
  Lu  Lu0  1  0.18685896  0.03678735  0.93478848  1
  Lu  Lu1  1  0.31314104  0.03678735  0.43478848  1
  Lu  Lu2  1  0.31314104  0.46321265  0.43478848  1
  Lu  Lu3  1  0.33515385  0.75000000  0.71106599  1
  Lu  Lu4  1  0.45199034  0.75000000  0.00192700  1
  Lu  Lu5  1  0.15479008  0.25000000  0.21500998  1
  Lu  Lu6  1  0.82091245  0.92605612  0.06532063  1
  Lu  Lu7  1  0.62982388  0.75000000  0.30210515  1
  Lu  Lu8  1  0.04800966  0.75000000  0.50192700  1
  Lu  Lu9  1  0.67908755  0.92605612  0.56532063  1
  Lu  Lu10  1  0.18685896  0.46321265  0.93478848  1
  Lu  Lu11  1  0.34520992  0.25000000  0.71500998  1
  Lu  Lu12  1  0.16484615  0.75000000  0.21106599  1
  Lu  Lu13  1  0.67908755  0.57394388  0.56532063  1
  Lu  Lu14  1  0.82091245  0.57394388  0.06532063  1
  Lu  Lu15  1  0.87017612  0.75000000  0.80210515  1
  Sc  Sc0  1  0.98437706  0.25000000  0.49189301  1
  Sc  Sc1  1  0.68352404  0.25000000  0.27005007  1
  Sc  Sc2  1  0.51562294  0.25000000  0.99189301  1
  Sc  Sc3  1  0.81647596  0.25000000  0.77005007  1
  Bi  Bi0  1  0.05946128  0.48280097  0.67336642  1
  Bi  Bi1  1  0.56972177  0.50537343  0.82709768  1
  Bi  Bi2  1  0.93027823  0.99462657  0.32709768  1
  Bi  Bi3  1  0.44053872  0.01719903  0.17336642  1
  Bi  Bi4  1  0.56972177  0.99462657  0.82709768  1
  Bi  Bi5  1  0.44053872  0.48280097  0.17336642  1
  Bi  Bi6  1  0.05946128  0.01719903  0.67336642  1
  Bi  Bi7  1  0.93027823  0.50537343  0.32709768  1
  Bi  Bi8  1  0.60314279  0.25000000  0.52210797  1
  Bi  Bi9  1  0.89685721  0.25000000  0.02210797  1
  Pt  Pt0  1  0.41060625  0.75000000  0.48469241  1
  Pt  Pt1  1  0.08939375  0.75000000  0.98469241  1
loop_
_geom_bond_atom_site_label_1
_geom_bond_atom_site_label_2
_geom_bond_distance
_geom_bond_site_symmetry_2
Lu0 Pt1 2.793080 1_545
Lu0 Sc2 3.318618 1_555
Lu0 Lu6 3.428874 1_446
Lu1 Pt0 2.793080 1_545
Lu1 Sc0 3.318618 1_455
Lu1 Lu9 3.428874 1_545
Lu2 Pt0 2.793080 1_555
Lu2 Sc0 3.318618 1_455
Lu3 Pt0 2.722006 1_555
Lu3 Lu9 3.594456 1_555
Lu4 Pt1 2.876976 1_554
Lu4 Lu6 3.415501 1_555
Lu6 Pt1 2.827853 1_654
Lu6 Lu7 3.548282 1_555
Lu7 Pt0 2.756561 1_555
Lu7 Lu9 3.503388 1_555
Lu8 Pt0 2.876976 1_555
Lu8 Lu9 3.415501 1_455
Lu9 Pt0 2.827853 1_555
Lu10 Pt1 2.793080 1_555
Lu10 Sc2 3.318618 1_555
Lu10 Lu14 3.428874 1_456
Lu12 Pt1 2.722006 1_554
Lu12 Lu14 3.594456 1_455
Lu12 Lu6 3.594456 1_455
Lu13 Pt0 2.827853 1_555
Lu13 Lu9 3.216570 1_555
Lu13 Lu8 3.415501 1_655
Lu13 Lu2 3.428874 1_555
Lu13 Lu7 3.503388 1_555
Lu13 Lu15 3.548282 1_555
Lu13 Lu3 3.594456 1_555
Lu14 Pt1 2.827853 1_654
Lu14 Lu6 3.216570 1_555
Lu14 Lu4 3.415501 1_555
Lu14 Lu15 3.503388 1_554
Lu14 Lu7 3.548282 1_555
Lu15 Pt1 2.756561 1_655
Lu15 Lu6 3.503388 1_556
Lu15 Lu9 3.548282 1_555
Bi0 Sc0 3.067283 1_455
Bi0 Sc3 3.083461 1_455
Bi0 Lu11 3.142657 1_555
Bi0 Lu8 3.164044 1_555
Bi0 Lu10 3.233319 1_555
Bi0 Lu15 3.237796 1_455
Bi0 Lu3 3.303756 1_555
Bi0 Lu13 3.370958 1_455
Bi0 Lu2 3.449199 1_555
Bi1 Sc2 3.059926 1_555
Bi1 Sc3 3.115174 1_555
Bi1 Lu4 3.173119 1_556
Bi1 Lu3 3.208346 1_555
Bi1 Lu11 3.213857 1_555
Bi1 Lu13 3.251588 1_555
Bi1 Lu15 3.276393 1_555
Bi1 Lu10 3.305592 1_555
Bi1 Lu14 3.486446 1_556
Bi2 Sc0 3.059926 1_565
Bi2 Sc1 3.115174 1_565
Bi2 Lu8 3.173119 1_655
Bi2 Lu12 3.208346 1_655
Bi2 Lu5 3.213857 1_665
Bi2 Lu6 3.251588 1_555
Bi2 Lu7 3.276393 1_555
Bi2 Lu1 3.305592 1_665
Bi2 Lu9 3.486446 1_555
Bi3 Sc2 3.067283 1_554
Bi3 Sc1 3.083461 1_555
Bi3 Lu5 3.142657 1_555
Bi3 Lu4 3.164044 1_545
Bi3 Lu1 3.233319 1_555
Bi3 Lu7 3.237796 1_545
Bi3 Lu12 3.303756 1_545
Bi3 Lu6 3.370958 1_545
Bi3 Lu0 3.449199 1_554
Bi4 Sc2 3.059926 1_565
Bi4 Sc3 3.115174 1_565
Bi4 Lu4 3.173119 1_556
Bi4 Lu3 3.208346 1_555
Bi4 Lu11 3.213857 1_565
Bi4 Lu9 3.251588 1_555
Bi4 Lu15 3.276393 1_555
Bi4 Lu0 3.305592 1_565
Bi4 Lu6 3.486446 1_556
Bi5 Sc2 3.067283 1_554
Bi5 Sc1 3.083461 1_555
Bi5 Lu5 3.142657 1_555
Bi5 Lu4 3.164044 1_555
Bi5 Lu2 3.233319 1_555
Bi5 Lu7 3.237796 1_555
Bi5 Lu12 3.303756 1_555
Bi5 Lu14 3.370958 1_555
Bi5 Lu10 3.449199 1_554
Bi6 Sc0 3.067283 1_455
Bi6 Sc3 3.083461 1_455
Bi6 Lu11 3.142657 1_555
Bi6 Lu8 3.164044 1_545
Bi6 Lu0 3.233319 1_555
Bi6 Lu15 3.237796 1_445
Bi6 Lu3 3.303756 1_545
Bi6 Lu9 3.370958 1_445
Bi6 Lu1 3.449199 1_555
Bi7 Sc0 3.059926 1_555
Bi7 Sc1 3.115174 1_555
Bi7 Lu8 3.173119 1_655
Bi7 Lu12 3.208346 1_655
Bi7 Lu5 3.213857 1_655
Bi7 Lu14 3.251588 1_555
Bi7 Lu7 3.276393 1_555
Bi7 Lu2 3.305592 1_655
Bi7 Lu13 3.486446 1_555
Bi8 Sc1 3.024668 1_555
Bi8 Sc0 3.038124 1_555
Bi8 Lu11 3.047766 1_555
Bi8 Lu9 3.061937 1_545
Bi8 Lu13 3.061937 1_555
Bi8 Lu2 3.179829 1_555
Bi8 Lu1 3.179829 1_555
Bi8 Sc3 3.363274 1_555
Bi9 Sc3 3.024668 1_554
Bi9 Sc2 3.038124 1_554
Bi9 Lu5 3.047766 1_655
Bi9 Lu6 3.061937 1_545
Bi9 Lu14 3.061937 1_555
Bi9 Lu10 3.179829 1_654
Bi9 Lu0 3.179829 1_654
Bi9 Sc1 3.363274 1_555
