# generated using pymatgen
data_K4Sr2TiSb4
_symmetry_space_group_name_H-M   'P 1'
_cell_length_a   10.87228475
_cell_length_b   10.87228449
_cell_length_c   8.22799636
_cell_angle_alpha   88.19470387
_cell_angle_beta   88.19470759
_cell_angle_gamma   119.43932534
_symmetry_Int_Tables_number   1
_chemical_formula_structural   K4Sr2TiSb4
_chemical_formula_sum   'K8 Sr4 Ti2 Sb8'
_cell_volume   845.36272463
_cell_formula_units_Z   2
loop_
 _symmetry_equiv_pos_site_id
 _symmetry_equiv_pos_as_xyz
  1  'x, y, z'
loop_
 _atom_site_type_symbol
 _atom_site_label
 _atom_site_symmetry_multiplicity
 _atom_site_fract_x
 _atom_site_fract_y
 _atom_site_fract_z
 _atom_site_occupancy
  K  K0  1  0.04986432  0.52182697  0.62106418  1
  K  K1  1  0.52182697  0.04986432  0.12106418  1
  K  K2  1  0.28236748  0.13667283  0.83858892  1
  K  K3  1  0.87274839  0.73074831  0.77268582  1
  K  K4  1  0.85847119  0.14680136  0.81055234  1
  K  K5  1  0.73074831  0.87274839  0.27268582  1
  K  K6  1  0.13667283  0.28236748  0.33858892  1
  K  K7  1  0.14680136  0.85847119  0.31055234  1
  Sr  Sr0  1  0.47117066  0.93931222  0.61393293  1
  Sr  Sr1  1  0.47489960  0.52158734  0.62708415  1
  Sr  Sr2  1  0.93931222  0.47117066  0.11393293  1
  Sr  Sr3  1  0.52158734  0.47489960  0.12708415  1
  Ti  Ti0  1  0.66450537  0.33488990  0.51187776  1
  Ti  Ti1  1  0.33488990  0.66450537  0.01187776  1
  Sb  Sb0  1  0.60075502  0.79158043  0.87786764  1
  Sb  Sb1  1  0.20066260  0.39345805  0.92660826  1
  Sb  Sb2  1  0.19442090  0.79228977  0.90561308  1
  Sb  Sb3  1  0.39345805  0.20066260  0.42660826  1
  Sb  Sb4  1  0.79158043  0.60075502  0.37786764  1
  Sb  Sb5  1  0.79228977  0.19442090  0.40561308  1
  Sb  Sb6  1  0.66792067  0.35260662  0.83975893  1
  Sb  Sb7  1  0.35260662  0.66792067  0.33975893  1
loop_
_geom_bond_atom_site_label_1
_geom_bond_atom_site_label_2
_geom_bond_distance
_geom_bond_site_symmetry_2
K0 Sb2 3.566665 1_555
K0 Sb7 3.586539 1_555
K0 Sb1 3.639250 1_555
K0 Sb5 3.816719 1_455
K0 Sb4 3.903937 1_455
K0 Sb6 3.959466 1_455
K1 Sb5 3.566665 1_555
K1 Sb6 3.586539 1_554
K1 Sb3 3.639250 1_555
K1 Sb2 3.816719 1_544
K1 Sb0 3.903937 1_544
K1 Sb7 3.959466 1_545
K2 Sb2 3.399270 1_545
K2 Sb1 3.410681 1_555
K2 Sb3 3.492970 1_555
K2 Sb6 3.662429 1_555
K3 Sb0 3.424732 1_555
K3 Sb2 3.444123 1_655
K3 Sb4 3.545883 1_555
K3 Sb6 3.598057 1_555
K4 Sb0 3.493324 1_545
K4 Sb5 3.506495 1_555
K4 Sb1 3.538722 1_655
K4 Sb6 3.730395 1_555
K5 Sb4 3.424731 1_555
K5 Sb5 3.444123 1_565
K5 Sb0 3.545883 1_554
K5 Sb7 3.598057 1_555
K6 Sb5 3.399270 1_455
K6 Sb3 3.410681 1_555
K6 Sb1 3.492970 1_554
K6 Sb7 3.662429 1_555
K7 Sb4 3.493324 1_455
K7 Sb2 3.506495 1_554
K7 Sb3 3.538722 1_565
K7 Sb7 3.730395 1_555
Sr1 Ti0 3.657826 1_555
Sr3 Ti1 3.657826 1_555
Sb0 Ti1 2.693965 1_556
Sb0 Sr1 3.370178 1_555
Sb0 Sr0 3.387963 1_555
Sb0 Sr3 3.651160 1_556
Sb1 Ti1 2.696941 1_556
Sb1 Sr1 3.484526 1_555
Sb1 Sr3 3.618977 1_556
Sb1 Sr2 3.650972 1_456
Sb2 Ti1 2.668402 1_556
Sb2 Sr0 3.455973 1_555
Sb2 Sr2 3.553107 1_456
Sb3 Ti0 2.696941 1_555
Sb3 Sr3 3.484525 1_555
Sb3 Sr1 3.618977 1_555
Sb3 Sr0 3.650972 1_545
Sb4 Ti0 2.693965 1_555
Sb4 Sr3 3.370178 1_555
Sb4 Sr2 3.387963 1_555
Sb4 Sr1 3.651160 1_555
Sb5 Ti0 2.668402 1_555
Sb5 Sr2 3.455973 1_555
Sb5 Sr0 3.553107 1_545
Sb6 Ti0 2.710841 1_555
Sb6 Sr3 3.453775 1_556
Sb6 Sr2 3.510098 1_556
Sb6 Sr1 3.828875 1_555
Sb7 Ti1 2.710841 1_555
Sb7 Sr1 3.453775 1_555
Sb7 Sr0 3.510098 1_555
Sb7 Sr3 3.828875 1_555
