# generated using pymatgen
data_Li4Cd3SbPd8
_symmetry_space_group_name_H-M   'P 1'
_cell_length_a   5.85263622
_cell_length_b   5.85255633
_cell_length_c   7.24275707
_cell_angle_alpha   90.00014994
_cell_angle_beta   90.00025616
_cell_angle_gamma   89.99898939
_symmetry_Int_Tables_number   1
_chemical_formula_structural   Li4Cd3SbPd8
_chemical_formula_sum   'Li4 Cd3 Sb1 Pd8'
_cell_volume   248.08531187
_cell_formula_units_Z   1
loop_
 _symmetry_equiv_pos_site_id
 _symmetry_equiv_pos_as_xyz
  1  'x, y, z'
loop_
 _atom_site_type_symbol
 _atom_site_label
 _atom_site_symmetry_multiplicity
 _atom_site_fract_x
 _atom_site_fract_y
 _atom_site_fract_z
 _atom_site_occupancy
  Li  Li0  1  0.74999803  0.25000583  0.99999493  1
  Li  Li1  1  0.24999686  0.74999195  0.99999606  1
  Li  Li2  1  0.25000069  0.74999463  0.50000427  1
  Li  Li3  1  0.74999394  0.25001024  0.50000249  1
  Cd  Cd0  1  0.75001375  0.74998917  0.99998791  1
  Cd  Cd1  1  0.74998467  0.75000041  0.50001468  1
  Cd  Cd2  1  0.25000987  0.25000023  0.50001834  1
  Sb  Sb0  1  0.25004895  0.25002205  0.99999604  1
  Pd  Pd0  1  0.49882685  0.00117922  0.24478665  1
  Pd  Pd1  1  0.49881385  0.49881457  0.24478989  1
  Pd  Pd2  1  0.00117024  0.00117400  0.24482184  1
  Pd  Pd3  1  0.00117405  0.49882287  0.24481676  1
  Pd  Pd4  1  0.00116363  0.00117726  0.75517278  1
  Pd  Pd5  1  0.00116536  0.49882465  0.75517575  1
  Pd  Pd6  1  0.49882415  0.00117721  0.75521095  1
  Pd  Pd7  1  0.49881512  0.49882070  0.75520965  1
loop_
_geom_bond_atom_site_label_1
_geom_bond_atom_site_label_2
_geom_bond_distance
_geom_bond_site_symmetry_2
Li0 Pd7 2.724854 1_555
Li0 Pd6 2.724885 1_555
Li0 Pd1 2.724888 1_556
Li0 Pd0 2.724920 1_556
Li0 Pd5 2.725013 1_655
Li0 Pd4 2.725020 1_655
Li0 Pd3 2.725034 1_656
Li0 Pd2 2.725070 1_656
Li0 Sb0 2.926020 1_555
Li0 Sb0 2.926616 1_655
Li1 Pd7 2.724837 1_555
Li1 Pd1 2.724883 1_556
Li1 Pd6 2.724936 1_565
Li1 Pd0 2.724963 1_566
Li1 Pd3 2.725038 1_556
Li1 Pd5 2.725045 1_555
Li1 Pd2 2.725082 1_566
Li1 Pd4 2.725098 1_565
Li1 Sb0 2.926102 1_555
Li1 Sb0 2.926454 1_565
Li2 Pd4 2.774443 1_565
Li2 Pd5 2.774446 1_555
Li2 Pd2 2.774477 1_565
Li2 Pd3 2.774488 1_555
Li2 Pd7 2.774521 1_555
Li2 Pd1 2.774583 1_555
Li2 Pd6 2.774604 1_565
Li2 Pd0 2.774685 1_565
Li3 Pd5 2.774381 1_655
Li3 Pd4 2.774396 1_655
Li3 Pd3 2.774476 1_655
Li3 Pd2 2.774480 1_655
Li3 Pd7 2.774537 1_555
Li3 Pd1 2.774544 1_555
Li3 Pd6 2.774617 1_555
Li3 Pd0 2.774624 1_555
Cd0 Pd5 2.732259 1_655
Cd0 Pd7 2.732280 1_555
Cd0 Pd6 2.732284 1_565
Cd0 Pd3 2.732367 1_656
Cd0 Pd4 2.732375 1_665
Cd0 Pd0 2.732387 1_566
Cd0 Pd1 2.732428 1_556
Cd0 Pd2 2.732460 1_666
Cd0 Li0 2.926181 1_555
Cd0 Li1 2.926219 1_655
Cd0 Li0 2.926376 1_565
Cd0 Li1 2.926417 1_555
Cd1 Pd5 2.781607 1_655
Cd1 Pd4 2.781613 1_665
Cd1 Pd6 2.781721 1_565
Cd1 Pd7 2.781784 1_555
Cd1 Pd2 2.781805 1_665
Cd1 Pd3 2.781820 1_655
Cd1 Pd0 2.781868 1_565
Cd1 Pd1 2.781937 1_555
Cd1 Li3 2.926221 1_555
Cd1 Li2 2.926224 1_555
Cd1 Li3 2.926336 1_565
Cd1 Li2 2.926412 1_655
Cd2 Pd5 2.767125 1_555
Cd2 Pd4 2.767143 1_555
Cd2 Pd7 2.767174 1_555
Cd2 Pd6 2.767194 1_555
Cd2 Pd3 2.767302 1_555
Cd2 Pd2 2.767323 1_555
Cd2 Pd1 2.767345 1_555
Cd2 Pd0 2.767389 1_555
Cd2 Li3 2.926225 1_555
Cd2 Li2 2.926245 1_555
Cd2 Li2 2.926311 1_545
Cd2 Li3 2.926411 1_455
Pd0 Sb0 2.717399 1_554
Pd1 Sb0 2.717238 1_554
Pd2 Sb0 2.717934 1_554
Pd3 Sb0 2.717717 1_554
Pd4 Sb0 2.717919 1_555
Pd5 Sb0 2.717745 1_555
Pd6 Sb0 2.717374 1_555
Pd7 Sb0 2.717240 1_555
