# generated using pymatgen
data_GaSnBO4
_symmetry_space_group_name_H-M   'P 1'
_cell_length_a   5.85376986
_cell_length_b   7.31046647
_cell_length_c   7.92486264
_cell_angle_alpha   90.00000000
_cell_angle_beta   90.00000000
_cell_angle_gamma   90.00000000
_symmetry_Int_Tables_number   1
_chemical_formula_structural   GaSnBO4
_chemical_formula_sum   'Ga4 Sn4 B4 O16'
_cell_volume   339.13489390
_cell_formula_units_Z   4
loop_
 _symmetry_equiv_pos_site_id
 _symmetry_equiv_pos_as_xyz
  1  'x, y, z'
loop_
 _atom_site_type_symbol
 _atom_site_label
 _atom_site_symmetry_multiplicity
 _atom_site_fract_x
 _atom_site_fract_y
 _atom_site_fract_z
 _atom_site_occupancy
  Ga  Ga0  1  0.00000000  0.00000000  0.00000000  1
  Ga  Ga1  1  0.50000000  0.00000000  0.00000000  1
  Ga  Ga2  1  0.50000000  0.50000000  0.50000000  1
  Ga  Ga3  1  0.00000000  0.50000000  0.50000000  1
  Sn  Sn0  1  0.75000000  0.90637026  0.35937250  1
  Sn  Sn1  1  0.25000000  0.09362974  0.64062750  1
  Sn  Sn2  1  0.75000000  0.40637026  0.14062750  1
  Sn  Sn3  1  0.25000000  0.59362974  0.85937250  1
  B  B0  1  0.75000000  0.22185537  0.73000993  1
  B  B1  1  0.25000000  0.77814463  0.26999007  1
  B  B2  1  0.75000000  0.72185537  0.76999007  1
  B  B3  1  0.25000000  0.27814463  0.23000993  1
  O  O0  1  0.25000000  0.16560347  0.09163139  1
  O  O1  1  0.75000000  0.83439653  0.90836861  1
  O  O2  1  0.25000000  0.66560347  0.40836861  1
  O  O3  1  0.75000000  0.33439653  0.59163139  1
  O  O4  1  0.25000000  0.90102790  0.87324568  1
  O  O5  1  0.75000000  0.09897210  0.12675432  1
  O  O6  1  0.25000000  0.40102790  0.62675432  1
  O  O7  1  0.75000000  0.59897210  0.37324568  1
  O  O8  1  0.04567290  0.83638017  0.20019134  1
  O  O9  1  0.54567290  0.16361983  0.79980866  1
  O  O10  1  0.45432710  0.33638017  0.29980866  1
  O  O11  1  0.95432710  0.66361983  0.70019134  1
  O  O12  1  0.95432710  0.16361983  0.79980866  1
  O  O13  1  0.45432710  0.83638017  0.20019134  1
  O  O14  1  0.54567290  0.66361983  0.70019134  1
  O  O15  1  0.04567290  0.33638017  0.29980866  1
loop_
_geom_bond_atom_site_label_1
_geom_bond_atom_site_label_2
_geom_bond_distance
_geom_bond_site_symmetry_2
Ga0 O5 1.916821 1_455
Ga0 O4 1.916821 1_544
Ga0 O8 2.004787 1_545
Ga0 O12 2.004787 1_454
Ga0 O0 2.033378 1_555
Ga0 O1 2.033378 1_444
Ga1 O5 1.916821 1_555
Ga1 O4 1.916821 1_544
Ga1 O13 2.004787 1_545
Ga1 O9 2.004787 1_554
Ga1 O0 2.033378 1_555
Ga1 O1 2.033378 1_544
Ga2 O6 1.916821 1_555
Ga2 O7 1.916821 1_555
Ga2 O14 2.004787 1_555
Ga2 O10 2.004787 1_555
Ga2 O2 2.033378 1_555
Ga2 O3 2.033378 1_555
Ga3 O6 1.916821 1_555
Ga3 O7 1.916821 1_455
Ga3 O11 2.004787 1_455
Ga3 O15 2.004787 1_555
Ga3 O2 2.033378 1_555
Ga3 O3 2.033378 1_455
B0 O3 1.370942 1_555
B0 O12 1.384858 1_555
B0 O9 1.384858 1_555
B1 O2 1.370942 1_555
B1 O13 1.384858 1_555
B1 O8 1.384858 1_555
B2 O1 1.370942 1_555
B2 O11 1.384858 1_555
B2 O14 1.384858 1_555
B3 O0 1.370942 1_555
B3 O10 1.384858 1_555
B3 O15 1.384858 1_555
O4 Sn3 2.249912 1_555
O4 Sn1 2.319668 1_565
O5 Sn2 2.249912 1_555
O5 Sn0 2.319668 1_545
O6 Sn1 2.249912 1_555
O6 Sn3 2.319668 1_555
O7 Sn0 2.249912 1_555
O7 Sn2 2.319668 1_555
O8 Sn0 2.202004 1_455
O9 Sn1 2.202004 1_555
O10 Sn2 2.202004 1_555
O11 Sn3 2.202004 1_655
O12 Sn1 2.202004 1_655
O13 Sn0 2.202004 1_555
O14 Sn3 2.202004 1_555
O15 Sn2 2.202004 1_455
