# generated using pymatgen
data_Hf5AlGaSb2
_symmetry_space_group_name_H-M   'P 1'
_cell_length_a   8.48691045
_cell_length_b   8.48691134
_cell_length_c   5.72567455
_cell_angle_alpha   90.00000000
_cell_angle_beta   90.00000000
_cell_angle_gamma   119.67223939
_symmetry_Int_Tables_number   1
_chemical_formula_structural   Hf5AlGaSb2
_chemical_formula_sum   'Hf10 Al2 Ga2 Sb4'
_cell_volume   358.32860666
_cell_formula_units_Z   2
loop_
 _symmetry_equiv_pos_site_id
 _symmetry_equiv_pos_as_xyz
  1  'x, y, z'
loop_
 _atom_site_type_symbol
 _atom_site_label
 _atom_site_symmetry_multiplicity
 _atom_site_fract_x
 _atom_site_fract_y
 _atom_site_fract_z
 _atom_site_occupancy
  Hf  Hf0  1  0.73774123  0.73774123  0.75000000  1
  Hf  Hf1  1  0.26018417  0.99726241  0.75000000  1
  Hf  Hf2  1  0.99726241  0.26018417  0.75000000  1
  Hf  Hf3  1  0.27273592  0.27273592  0.25000000  1
  Hf  Hf4  1  0.72826262  0.01066350  0.25000000  1
  Hf  Hf5  1  0.01066350  0.72826262  0.25000000  1
  Hf  Hf6  1  0.66730878  0.32999999  0.00558652  1
  Hf  Hf7  1  0.32999999  0.66730878  0.00558652  1
  Hf  Hf8  1  0.32999999  0.66730878  0.49441348  1
  Hf  Hf9  1  0.66730878  0.32999999  0.49441348  1
  Al  Al0  1  0.38708760  0.00125743  0.25000000  1
  Al  Al1  1  0.00125743  0.38708760  0.25000000  1
  Ga  Ga0  1  0.00053609  0.00053609  0.01588517  1
  Ga  Ga1  1  0.00053609  0.00053609  0.48411483  1
  Sb  Sb0  1  0.39101267  0.39101267  0.75000000  1
  Sb  Sb1  1  0.60218857  0.99824268  0.75000000  1
  Sb  Sb2  1  0.99824268  0.60218857  0.75000000  1
  Sb  Sb3  1  0.61766945  0.61766945  0.25000000  1
loop_
_geom_bond_atom_site_label_1
_geom_bond_atom_site_label_2
_geom_bond_distance
_geom_bond_site_symmetry_2
Hf0 Sb2 2.954576 1_555
Hf0 Sb1 2.954576 1_555
Hf0 Sb0 2.957221 1_555
Hf0 Sb3 3.040491 1_555
Hf0 Sb3 3.040491 1_556
Hf1 Sb1 2.898451 1_555
Hf1 Sb0 2.954041 1_565
Hf1 Sb2 2.967235 1_455
Hf2 Sb2 2.898452 1_555
Hf2 Sb0 2.954041 1_655
Hf2 Sb1 2.967234 1_545
Hf3 Sb3 2.941911 1_555
Hf3 Sb0 3.035368 1_555
Hf3 Sb0 3.035368 1_554
Hf4 Sb3 2.984257 1_545
Hf4 Sb1 3.039759 1_544
Hf4 Sb1 3.039759 1_545
Hf5 Sb3 2.984257 1_455
Hf5 Sb2 3.039759 1_455
Hf5 Sb2 3.039759 1_454
Hf6 Hf9 2.798864 1_555
Hf6 Hf9 2.926810 1_554
Hf6 Sb1 2.972192 1_544
Hf6 Sb2 2.990402 1_554
Hf6 Sb0 3.018344 1_554
Hf6 Sb3 3.019069 1_555
Hf7 Hf8 2.798864 1_555
Hf7 Hf8 2.926810 1_554
Hf7 Sb2 2.972191 1_454
Hf7 Sb1 2.990403 1_554
Hf7 Sb0 3.018344 1_554
Hf7 Sb3 3.019068 1_555
Hf8 Sb2 2.972191 1_455
Hf8 Sb1 2.990403 1_555
Hf8 Sb0 3.018344 1_555
Hf8 Sb3 3.019068 1_555
Hf9 Sb1 2.972192 1_545
Hf9 Sb2 2.990402 1_555
Hf9 Sb0 3.018344 1_555
Hf9 Sb3 3.019069 1_555
Al0 Hf4 2.856846 1_555
Al0 Hf5 2.871528 1_545
Al0 Hf3 2.909325 1_555
Al0 Hf6 2.971375 1_555
Al0 Hf9 2.971375 1_555
Al0 Hf7 2.977627 1_545
Al0 Hf8 2.977627 1_545
Al0 Hf1 3.052999 1_544
Al0 Hf1 3.052999 1_545
Al1 Hf5 2.856846 1_555
Al1 Hf4 2.871529 1_455
Al1 Hf3 2.909325 1_555
Al1 Hf7 2.971375 1_555
Al1 Hf8 2.971375 1_555
Al1 Hf6 2.977627 1_455
Al1 Hf9 2.977627 1_455
Al1 Hf2 3.052999 1_454
Al1 Hf2 3.052999 1_455
Ga0 Hf3 2.680772 1_555
Ga0 Hf1 2.689777 1_544
Ga0 Hf2 2.689777 1_454
Ga0 Hf4 2.709334 1_455
Ga0 Hf5 2.709334 1_545
Ga0 Hf0 2.709483 1_444
Ga1 Hf3 2.680772 1_555
Ga1 Hf1 2.689777 1_545
Ga1 Hf2 2.689777 1_455
Ga1 Hf4 2.709334 1_455
Ga1 Hf5 2.709334 1_545
Ga1 Hf0 2.709483 1_445
