# generated using pymatgen
data_KRb2LuAs2
_symmetry_space_group_name_H-M   'P 1'
_cell_length_a   9.51088028
_cell_length_b   9.51087970
_cell_length_c   9.51088033
_cell_angle_alpha   130.65709076
_cell_angle_beta   68.24928240
_cell_angle_gamma   135.97516684
_symmetry_Int_Tables_number   1
_chemical_formula_structural   KRb2LuAs2
_chemical_formula_sum   'K2 Rb4 Lu2 As4'
_cell_volume   445.69040850
_cell_formula_units_Z   2
loop_
 _symmetry_equiv_pos_site_id
 _symmetry_equiv_pos_as_xyz
  1  'x, y, z'
loop_
 _atom_site_type_symbol
 _atom_site_label
 _atom_site_symmetry_multiplicity
 _atom_site_fract_x
 _atom_site_fract_y
 _atom_site_fract_z
 _atom_site_occupancy
  K  K0  1  0.75000000  0.25000000  0.50000000  1
  K  K1  1  0.25000000  0.75000000  0.50000000  1
  Rb  Rb0  1  0.31235608  0.72035126  0.03270934  1
  Rb  Rb1  1  0.18764392  0.22035126  0.40799518  1
  Rb  Rb2  1  0.81235608  0.77964774  0.59200482  1
  Rb  Rb3  1  0.68764392  0.27964874  0.96729166  1
  Lu  Lu0  1  0.25000000  0.25000000  0.00000000  1
  Lu  Lu1  1  0.74999900  0.74999900  0.00000000  1
  As  As0  1  0.90623005  0.19283303  0.09906408  1
  As  As1  1  0.59376895  0.69283303  0.28660298  1
  As  As2  1  0.40623005  0.30716697  0.71339802  1
  As  As3  1  0.09376995  0.80716697  0.90093692  1
loop_
_geom_bond_atom_site_label_1
_geom_bond_atom_site_label_2
_geom_bond_distance
_geom_bond_site_symmetry_2
As0 Lu1 2.775122 1_545
As0 Lu0 2.775122 1_655
As0 K0 3.362323 1_555
As0 K1 3.362327 1_655
As0 Rb3 3.510342 1_554
As0 Rb2 3.598315 1_544
As0 Rb0 3.865254 1_655
As0 Rb0 3.865260 1_545
As1 Lu0 2.775117 1_555
As1 Lu1 2.775117 1_555
As1 K1 3.362323 1_555
As1 K0 3.362327 1_565
As1 Rb2 3.510342 1_555
As1 Rb3 3.598315 1_554
As1 Rb1 3.865259 1_555
As1 Rb1 3.865266 1_665
As2 Lu1 2.775113 1_556
As2 Lu0 2.775113 1_556
As2 K1 3.362329 1_545
As2 K0 3.362333 1_555
As2 Rb1 3.510336 1_555
As2 Rb0 3.598308 1_556
As2 Rb2 3.865260 1_555
As2 Rb2 3.865260 1_445
As3 Lu0 2.775121 1_566
As3 Lu1 2.775126 1_456
As3 K0 3.362331 1_455
As3 K1 3.362332 1_555
As3 Rb0 3.510342 1_556
As3 Rb1 3.598308 1_566
As3 Rb3 3.865254 1_455
As3 Rb3 3.865260 1_565
