# generated using pymatgen
data_CsCuMoS4
_symmetry_space_group_name_H-M   'P 1'
_cell_length_a   6.52678089
_cell_length_b   6.52678160
_cell_length_c   6.52678171
_cell_angle_alpha   99.86906232
_cell_angle_beta   99.86906950
_cell_angle_gamma   131.08710066
_symmetry_Int_Tables_number   1
_chemical_formula_structural   CsCuMoS4
_chemical_formula_sum   'Cs1 Cu1 Mo1 S4'
_cell_volume   190.75479542
_cell_formula_units_Z   1
loop_
 _symmetry_equiv_pos_site_id
 _symmetry_equiv_pos_as_xyz
  1  'x, y, z'
loop_
 _atom_site_type_symbol
 _atom_site_label
 _atom_site_symmetry_multiplicity
 _atom_site_fract_x
 _atom_site_fract_y
 _atom_site_fract_z
 _atom_site_occupancy
  Cs  Cs0  1  0.75000000  0.25000000  0.50000000  1
  Cu  Cu0  1  0.50000000  0.50000000  0.00000000  1
  Mo  Mo0  1  0.00000000  0.00000000  0.00000000  1
  S  S0  1  0.34141446  0.42433910  0.29140229  1
  S  S1  1  0.13293581  0.05001118  0.70859771  1
  S  S2  1  0.94998882  0.65858554  0.08292564  1
  S  S3  1  0.57566090  0.86706419  0.91707436  1
loop_
_geom_bond_atom_site_label_1
_geom_bond_atom_site_label_2
_geom_bond_distance
_geom_bond_site_symmetry_2
Cs0 S0 3.678974 1_555
Cs0 S1 3.678974 1_655
Cs0 S2 3.678978 1_556
Cs0 S3 3.678978 1_544
Cs0 S3 3.821975 1_545
Cs0 S2 3.821979 1_445
Cs0 S1 3.821981 1_665
Cs0 S0 3.821985 1_655
Cs0 S2 3.918750 1_555
Cs0 S3 3.918754 1_655
Cs0 S0 3.918756 1_545
Cs0 S1 3.918760 1_555
Cu0 S0 2.292909 1_555
Cu0 S1 2.292912 1_554
Cu0 S2 2.292914 1_555
Cu0 S3 2.292918 1_554
Mo0 S1 2.209723 1_554
Mo0 S0 2.209726 1_555
Mo0 S3 2.209729 1_444
Mo0 S2 2.209732 1_445
