# generated using pymatgen
data_K2Cd(HgSe2)2
_symmetry_space_group_name_H-M   'P 1'
_cell_length_a   6.88786202
_cell_length_b   10.95800850
_cell_length_c   14.29845872
_cell_angle_alpha   90.00000000
_cell_angle_beta   90.00000000
_cell_angle_gamma   90.00000000
_symmetry_Int_Tables_number   1
_chemical_formula_structural   K2Cd(HgSe2)2
_chemical_formula_sum   'K8 Cd4 Hg8 Se16'
_cell_volume   1079.20835076
_cell_formula_units_Z   4
loop_
 _symmetry_equiv_pos_site_id
 _symmetry_equiv_pos_as_xyz
  1  'x, y, z'
loop_
 _atom_site_type_symbol
 _atom_site_label
 _atom_site_symmetry_multiplicity
 _atom_site_fract_x
 _atom_site_fract_y
 _atom_site_fract_z
 _atom_site_occupancy
  K  K0  1  0.72869153  0.87899320  0.50229778  1
  K  K1  1  0.27130847  0.12100680  0.49770222  1
  K  K2  1  0.77130847  0.62100680  0.00229778  1
  K  K3  1  0.72869153  0.12100680  0.99770222  1
  K  K4  1  0.22869153  0.37899320  0.99770222  1
  K  K5  1  0.27130847  0.87899320  0.00229778  1
  K  K6  1  0.77130847  0.37899320  0.49770222  1
  K  K7  1  0.22869153  0.62100680  0.50229778  1
  Cd  Cd0  1  0.59097728  0.50000000  0.75000000  1
  Cd  Cd1  1  0.40902272  0.50000000  0.25000000  1
  Cd  Cd2  1  0.90902272  0.00000000  0.25000000  1
  Cd  Cd3  1  0.09097728  0.00000000  0.75000000  1
  Hg  Hg0  1  0.58948538  0.84228313  0.75855245  1
  Hg  Hg1  1  0.41051462  0.15771687  0.24144755  1
  Hg  Hg2  1  0.91051462  0.65771687  0.25855245  1
  Hg  Hg3  1  0.58948538  0.15771687  0.74144755  1
  Hg  Hg4  1  0.08948538  0.34228313  0.74144755  1
  Hg  Hg5  1  0.41051462  0.84228313  0.25855245  1
  Hg  Hg6  1  0.91051462  0.34228313  0.24144755  1
  Hg  Hg7  1  0.08948538  0.65771687  0.75855245  1
  Se  Se0  1  0.82715585  0.63172310  0.63852801  1
  Se  Se1  1  0.17284415  0.36827690  0.36147199  1
  Se  Se2  1  0.67284415  0.86827690  0.13852801  1
  Se  Se3  1  0.82715585  0.36827690  0.86147199  1
  Se  Se4  1  0.32715585  0.13172310  0.86147199  1
  Se  Se5  1  0.17284415  0.63172310  0.13852801  1
  Se  Se6  1  0.67284415  0.13172310  0.36147199  1
  Se  Se7  1  0.32715585  0.86827690  0.63852801  1
  Se  Se8  1  0.86964813  0.87163659  0.86920216  1
  Se  Se9  1  0.13035187  0.12836341  0.13079784  1
  Se  Se10  1  0.63035187  0.62836341  0.36920216  1
  Se  Se11  1  0.86964813  0.12836341  0.63079784  1
  Se  Se12  1  0.36964813  0.37163659  0.63079784  1
  Se  Se13  1  0.13035187  0.87163659  0.36920216  1
  Se  Se14  1  0.63035187  0.37163659  0.13079784  1
  Se  Se15  1  0.36964813  0.62836341  0.86920216  1
loop_
_geom_bond_atom_site_label_1
_geom_bond_atom_site_label_2
_geom_bond_distance
_geom_bond_site_symmetry_2
K0 Se13 3.358886 1_655
K0 Se7 3.384857 1_555
K0 Se0 3.405302 1_555
K0 Se10 3.409279 1_555
K0 Se11 3.433016 1_565
K0 Se6 3.445604 1_565
K1 Se11 3.358886 1_455
K1 Se6 3.384857 1_555
K1 Se1 3.405302 1_555
K1 Se12 3.409279 1_555
K1 Se13 3.433016 1_545
K1 Se7 3.445604 1_545
K2 Se15 3.358886 1_554
K2 Se5 3.384857 1_655
K2 Se2 3.405302 1_555
K2 Se8 3.409279 1_554
K2 Se14 3.433016 1_555
K2 Se3 3.445604 1_554
K3 Se9 3.358886 1_656
K3 Se4 3.384857 1_555
K3 Se3 3.405302 1_555
K3 Se14 3.409279 1_556
K3 Se8 3.433016 1_545
K3 Se2 3.445604 1_546
K4 Se14 3.358886 1_556
K4 Se3 3.384857 1_455
K4 Se4 3.405302 1_555
K4 Se9 3.409279 1_556
K4 Se15 3.433016 1_555
K4 Se5 3.445604 1_556
K5 Se8 3.358886 1_454
K5 Se2 3.384857 1_555
K5 Se5 3.405302 1_555
K5 Se15 3.409279 1_554
K5 Se9 3.433016 1_565
K5 Se4 3.445604 1_564
K6 Se12 3.358886 1_555
K6 Se1 3.384857 1_655
K6 Se6 3.405302 1_555
K6 Se11 3.409279 1_555
K6 Se10 3.433016 1_555
K6 Se0 3.445604 1_555
K7 Se10 3.358886 1_555
K7 Se0 3.384857 1_455
K7 Se7 3.405302 1_555
K7 Se13 3.409279 1_555
K7 Se12 3.433016 1_555
K7 Se1 3.445604 1_555
Cd0 Se15 2.684698 1_555
Cd0 Se12 2.684698 1_555
Cd0 Se3 2.696346 1_555
Cd0 Se0 2.696346 1_555
Cd1 Se10 2.684698 1_555
Cd1 Se14 2.684698 1_555
Cd1 Se1 2.696346 1_555
Cd1 Se5 2.696346 1_555
Cd2 Se13 2.684698 1_645
Cd2 Se9 2.684698 1_655
Cd2 Se6 2.696346 1_555
Cd2 Se2 2.696346 1_545
Cd3 Se8 2.684698 1_445
Cd3 Se11 2.684698 1_455
Cd3 Se4 2.696346 1_555
Cd3 Se7 2.696346 1_545
Hg0 Se7 2.508227 1_555
Hg0 Se8 2.516028 1_555
Hg0 Se15 3.207943 1_555
Hg1 Se6 2.508227 1_555
Hg1 Se9 2.516028 1_555
Hg1 Se14 3.207943 1_555
Hg2 Se5 2.508227 1_655
Hg2 Se10 2.516028 1_555
Hg2 Se13 3.207943 1_655
Hg3 Se4 2.508227 1_555
Hg3 Se11 2.516028 1_555
Hg3 Se12 3.207943 1_555
Hg4 Se3 2.508227 1_455
Hg4 Se12 2.516028 1_555
Hg4 Se11 3.207943 1_455
Hg5 Se2 2.508227 1_555
Hg5 Se13 2.516028 1_555
Hg5 Se10 3.207943 1_555
Hg6 Se1 2.508227 1_655
Hg6 Se14 2.516028 1_555
Hg6 Se9 3.207943 1_655
Hg7 Se0 2.508227 1_455
Hg7 Se15 2.516028 1_555
Hg7 Se8 3.207943 1_455
