# generated using pymatgen
data_NiAs6Ru
_symmetry_space_group_name_H-M   'P 1'
_cell_length_a   7.24652164
_cell_length_b   7.24652194
_cell_length_c   8.39253860
_cell_angle_alpha   55.12312183
_cell_angle_beta   55.12312099
_cell_angle_gamma   71.03872969
_symmetry_Int_Tables_number   1
_chemical_formula_structural   NiAs6Ru
_chemical_formula_sum   'Ni2 As12 Ru2'
_cell_volume   296.60845973
_cell_formula_units_Z   2
loop_
 _symmetry_equiv_pos_site_id
 _symmetry_equiv_pos_as_xyz
  1  'x, y, z'
loop_
 _atom_site_type_symbol
 _atom_site_label
 _atom_site_symmetry_multiplicity
 _atom_site_fract_x
 _atom_site_fract_y
 _atom_site_fract_z
 _atom_site_occupancy
  Ni  Ni0  1  0.00000000  0.50000000  0.50000000  1
  Ni  Ni1  1  0.50000000  0.00000000  0.50000000  1
  As  As0  1  0.14635451  0.14635451  0.19813222  1
  As  As1  1  0.85364549  0.85364549  0.80186778  1
  As  As2  1  0.85040149  0.85040149  0.49676678  1
  As  As3  1  0.14959851  0.14959851  0.50323322  1
  As  As4  1  0.80205056  0.50593742  0.34773316  1
  As  As5  1  0.19794944  0.49406258  0.65226684  1
  As  As6  1  0.50593742  0.80205056  0.34773316  1
  As  As7  1  0.49406258  0.19794944  0.65226684  1
  As  As8  1  0.65672251  0.34947906  0.84869323  1
  As  As9  1  0.34327749  0.65052094  0.15130677  1
  As  As10  1  0.65052094  0.34327749  0.15130677  1
  As  As11  1  0.34947906  0.65672251  0.84869323  1
  Ru  Ru0  1  0.00000000  0.50000000  0.00000000  1
  Ru  Ru1  1  0.50000000  0.00000000  0.00000000  1
loop_
_geom_bond_atom_site_label_1
_geom_bond_atom_site_label_2
_geom_bond_distance
_geom_bond_site_symmetry_2
As0 Ru1 2.415454 1_555
As0 Ru0 2.415454 1_555
As0 As2 2.484991 1_445
As0 As3 2.587599 1_555
As1 Ru1 2.415454 1_566
As1 Ru0 2.415454 1_656
As1 As3 2.484991 1_665
As1 As2 2.587599 1_555
As2 Ni1 2.406126 1_565
As2 Ni0 2.406127 1_655
As3 Ni1 2.406126 1_555
As3 Ni0 2.406127 1_555
As4 Ni0 2.384514 1_655
As4 Ru0 2.427411 1_655
As4 As6 2.493314 1_555
As4 As7 2.585443 1_555
As5 Ni0 2.384514 1_555
As5 Ru0 2.427411 1_556
As5 As7 2.493314 1_555
As5 As6 2.585443 1_555
As6 Ni1 2.384514 1_565
As6 Ru1 2.427411 1_565
As7 Ni1 2.384514 1_555
As7 Ru1 2.427411 1_556
As8 Ni0 2.393582 1_655
As8 Ru1 2.420311 1_556
As9 Ni0 2.393582 1_555
As9 Ru1 2.420311 1_565
As10 Ni1 2.393582 1_555
As10 Ru0 2.420311 1_655
As10 As8 2.488846 1_554
As10 As9 2.587033 1_555
As11 Ni1 2.393582 1_565
As11 Ru0 2.420311 1_556
As11 As9 2.488846 1_556
As11 As8 2.587033 1_555
