# generated using pymatgen
data_Ca3BiI3
_symmetry_space_group_name_H-M   'P 1'
_cell_length_a   11.18439651
_cell_length_b   11.18439562
_cell_length_c   11.18439513
_cell_angle_alpha   109.47121974
_cell_angle_beta   109.47121813
_cell_angle_gamma   109.47121965
_symmetry_Int_Tables_number   1
_chemical_formula_structural   Ca3BiI3
_chemical_formula_sum   'Ca12 Bi4 I12'
_cell_volume   1077.00001841
_cell_formula_units_Z   4
loop_
 _symmetry_equiv_pos_site_id
 _symmetry_equiv_pos_as_xyz
  1  'x, y, z'
loop_
 _atom_site_type_symbol
 _atom_site_label
 _atom_site_symmetry_multiplicity
 _atom_site_fract_x
 _atom_site_fract_y
 _atom_site_fract_z
 _atom_site_occupancy
  Ca  Ca0  1  0.48527050  0.49263525  0.24263525  1
  Ca  Ca1  1  0.75000000  0.24263525  0.25736475  1
  Ca  Ca2  1  0.75000000  0.00736475  0.49263525  1
  Ca  Ca3  1  0.24263525  0.48527050  0.49263525  1
  Ca  Ca4  1  0.25736475  0.75000000  0.24263525  1
  Ca  Ca5  1  0.01472950  0.25736475  0.00736475  1
  Ca  Ca6  1  0.00736475  0.01472950  0.25736475  1
  Ca  Ca7  1  0.49263525  0.75000000  0.00736475  1
  Ca  Ca8  1  0.49263525  0.24263525  0.48527050  1
  Ca  Ca9  1  0.00736475  0.49263525  0.75000000  1
  Ca  Ca10  1  0.25736475  0.00736475  0.01472950  1
  Ca  Ca11  1  0.24263525  0.25736475  0.75000000  1
  Bi  Bi0  1  0.25000000  0.25000000  0.25000000  1
  Bi  Bi1  1  0.50000000  0.00000000  0.25000000  1
  Bi  Bi2  1  0.00000000  0.25000000  0.50000000  1
  Bi  Bi3  1  0.25000000  0.50000000  0.00000000  1
  I  I0  1  0.25000000  0.75030326  0.74969674  1
  I  I1  1  0.50060752  0.50030326  0.75030326  1
  I  I2  1  0.99939248  0.74969674  0.99969674  1
  I  I3  1  0.74969674  0.25000000  0.75030326  1
  I  I4  1  0.99969674  0.99939248  0.74969674  1
  I  I5  1  0.25000000  0.99969674  0.50030326  1
  I  I6  1  0.75030326  0.50060752  0.50030326  1
  I  I7  1  0.50030326  0.25000000  0.99969674  1
  I  I8  1  0.75030326  0.74969674  0.25000000  1
  I  I9  1  0.74969674  0.99969674  0.99939248  1
  I  I10  1  0.99969674  0.50030326  0.25000000  1
  I  I11  1  0.50030326  0.75030326  0.50060752  1
loop_
_geom_bond_atom_site_label_1
_geom_bond_atom_site_label_2
_geom_bond_distance
_geom_bond_site_symmetry_2
Ca0 I7 3.235488 1_554
Ca0 I11 3.235495 1_555
Ca0 I6 3.325241 1_555
Ca0 I8 3.325247 1_555
Ca1 I9 3.235495 1_544
Ca1 I6 3.235495 1_555
Ca1 I7 3.325247 1_554
Ca1 I10 3.325247 1_555
Ca2 I3 3.235488 1_555
Ca2 I8 3.235488 1_545
Ca2 I4 3.325254 1_545
Ca2 I11 3.325254 1_545
Ca3 I10 3.235488 1_455
Ca3 I1 3.235495 1_555
Ca3 I11 3.325241 1_555
Ca3 I0 3.325247 1_555
Ca4 I11 3.235495 1_555
Ca4 I2 3.235495 1_454
Ca4 I5 3.325247 1_555
Ca4 I10 3.325247 1_455
Ca5 I10 3.235488 1_455
Ca5 I4 3.235495 1_444
Ca5 I9 3.325241 1_444
Ca5 I3 3.325247 1_454
Ca6 I5 3.235488 1_545
Ca6 I9 3.235495 1_444
Ca6 I2 3.325241 1_444
Ca6 I8 3.325247 1_445
Ca7 I0 3.235488 1_554
Ca7 I8 3.235488 1_555
Ca7 I1 3.325254 1_554
Ca7 I9 3.325254 1_554
Ca8 I5 3.235488 1_545
Ca8 I6 3.235495 1_555
Ca8 I1 3.325241 1_555
Ca8 I3 3.325247 1_555
Ca9 I0 3.235488 1_555
Ca9 I3 3.235488 1_455
Ca9 I2 3.325254 1_455
Ca9 I6 3.325254 1_455
Ca10 I7 3.235488 1_554
Ca10 I2 3.235495 1_444
Ca10 I4 3.325241 1_444
Ca10 I0 3.325247 1_544
Ca11 I4 3.235495 1_445
Ca11 I1 3.235495 1_555
Ca11 I5 3.325247 1_545
Ca11 I7 3.325247 1_555
Bi0 Ca3 3.134987 1_555
Bi0 Ca10 3.134987 1_555
Bi0 Ca5 3.134987 1_555
Bi0 Ca0 3.134987 1_555
Bi0 Ca8 3.134987 1_555
Bi0 Ca6 3.134987 1_555
Bi1 Ca8 3.134987 1_555
Bi1 Ca7 3.134987 1_545
Bi1 Ca10 3.134987 1_555
Bi1 Ca4 3.134987 1_545
Bi1 Ca2 3.134987 1_555
Bi1 Ca1 3.134987 1_555
Bi2 Ca6 3.134987 1_555
Bi2 Ca9 3.134987 1_555
Bi2 Ca11 3.134987 1_555
Bi2 Ca3 3.134987 1_555
Bi2 Ca1 3.134987 1_455
Bi2 Ca2 3.134987 1_455
Bi3 Ca11 3.134987 1_554
Bi3 Ca4 3.134987 1_555
Bi3 Ca0 3.134987 1_555
Bi3 Ca5 3.134987 1_555
Bi3 Ca9 3.134987 1_554
Bi3 Ca7 3.134987 1_555
