# generated using pymatgen
data_Y6InTcNi
_symmetry_space_group_name_H-M   'P 1'
_cell_length_a   8.49110005
_cell_length_b   8.49109904
_cell_length_c   8.49109962
_cell_angle_alpha   113.36713073
_cell_angle_beta   110.64915340
_cell_angle_gamma   104.52095872
_symmetry_Int_Tables_number   1
_chemical_formula_structural   Y6InTcNi
_chemical_formula_sum   'Y12 In2 Tc2 Ni2'
_cell_volume   468.37224573
_cell_formula_units_Z   2
loop_
 _symmetry_equiv_pos_site_id
 _symmetry_equiv_pos_as_xyz
  1  'x, y, z'
loop_
 _atom_site_type_symbol
 _atom_site_label
 _atom_site_symmetry_multiplicity
 _atom_site_fract_x
 _atom_site_fract_y
 _atom_site_fract_z
 _atom_site_occupancy
  Y  Y0  1  0.43908088  0.24188381  0.19719707  1
  Y  Y1  1  0.56091912  0.75811619  0.80280293  1
  Y  Y2  1  0.04468574  0.24188381  0.80280293  1
  Y  Y3  1  0.95531426  0.75811619  0.19719707  1
  Y  Y4  1  0.18189722  0.28547078  0.46736900  1
  Y  Y5  1  0.81810278  0.71452922  0.53263100  1
  Y  Y6  1  0.18189722  0.71452922  0.89642644  1
  Y  Y7  1  0.81810278  0.28547078  0.10357356  1
  Y  Y8  1  0.33171889  0.65025668  0.31853779  1
  Y  Y9  1  0.66828111  0.34974332  0.68146221  1
  Y  Y10  1  0.33171889  0.01318210  0.68146221  1
  Y  Y11  1  0.66828111  0.98681790  0.31853779  1
  In  In0  1  0.50000000  0.50000000  0.00000000  1
  In  In1  1  0.00000000  0.00000000  0.00000000  1
  Tc  Tc0  1  0.32053607  1.00000000  0.32053607  1
  Tc  Tc1  1  0.67946393  0.00000000  0.67946393  1
  Ni  Ni0  1  0.11380545  0.61380545  0.50000000  1
  Ni  Ni1  1  0.88619455  0.38619455  0.50000000  1
loop_
_geom_bond_atom_site_label_1
_geom_bond_atom_site_label_2
_geom_bond_distance
_geom_bond_site_symmetry_2
Y0 Y9 3.465434 1_555
Y0 Y11 3.465441 1_545
Y0 Y5 3.544998 1_555
Y0 Y7 3.544999 1_555
Y0 Y8 3.651034 1_555
Y0 Y10 3.651034 1_554
Y0 Y6 3.665184 1_544
Y0 Y4 3.665191 1_555
Y0 Y2 3.810495 1_554
Y1 Y8 3.465434 1_555
Y1 Y10 3.465441 1_565
Y1 Y4 3.544998 1_555
Y1 Y6 3.544999 1_555
Y1 Y9 3.651034 1_555
Y1 Y11 3.651034 1_556
Y1 Y7 3.665184 1_566
Y1 Y5 3.665191 1_555
Y1 Y3 3.810495 1_556
Y2 Y9 3.465426 1_455
Y2 Y4 3.544996 1_555
Y2 Y6 3.544998 1_555
Y2 Y8 3.651034 1_556
Y2 Y7 3.665177 1_456
Y2 Y5 3.665183 1_445
Y3 Y8 3.465426 1_655
Y3 Y5 3.544996 1_555
Y3 Y7 3.544998 1_555
Y3 Y9 3.651034 1_554
Y3 Y6 3.665177 1_654
Y3 Y4 3.665183 1_665
Y10 Y3 3.465430 1_445
Y10 Y2 3.651036 1_555
Y11 Y2 3.465430 1_665
Y11 Y3 3.651036 1_555
In0 Y1 3.290618 1_554
In0 Y0 3.290618 1_555
In0 Y3 3.290625 1_555
In0 Y2 3.290625 1_554
In0 Y11 3.447855 1_555
In0 Y10 3.447855 1_554
In0 Y8 3.447862 1_555
In0 Y9 3.447862 1_554
In0 Y5 3.667415 1_555
In0 Y4 3.667415 1_554
In0 Y6 3.667421 1_554
In0 Y7 3.667421 1_555
In1 Tc0 3.096901 1_545
In1 Tc1 3.096901 1_454
In1 Y2 3.154562 1_554
In1 Y3 3.154562 1_445
In1 Y0 3.154564 1_555
In1 Y1 3.154564 1_444
In1 Y7 3.190446 1_455
In1 Y6 3.190446 1_544
In1 Y4 3.190452 1_555
In1 Y5 3.190452 1_444
Tc0 Y3 2.782323 1_455
Tc0 Y0 2.782330 1_565
Tc0 Y6 2.980705 1_554
Tc0 Y4 2.980707 1_565
Tc0 Y10 2.988479 1_565
Tc0 Y8 2.988482 1_555
Tc0 Y9 2.988482 1_565
Tc0 Y11 2.988485 1_555
Tc1 Y2 2.782323 1_655
Tc1 Y1 2.782330 1_545
Tc1 Y7 2.980705 1_556
Tc1 Y5 2.980707 1_545
Tc1 Y11 2.988479 1_545
Tc1 Y9 2.988482 1_555
Tc1 Y8 2.988482 1_545
Tc1 Y10 2.988485 1_555
Ni0 Ni1 2.365865 1_455
Ni0 Y8 2.827631 1_555
Ni0 Y10 2.827638 1_565
Ni0 Y5 2.914121 1_455
Ni0 Y7 2.914123 1_455
Ni0 Y6 2.914123 1_555
Ni0 Y4 2.914125 1_555
Ni0 Y3 3.287703 1_455
Ni0 Y1 3.287705 1_555
Ni1 Y9 2.827631 1_555
Ni1 Y11 2.827638 1_545
Ni1 Y4 2.914121 1_655
Ni1 Y6 2.914123 1_655
Ni1 Y7 2.914123 1_555
Ni1 Y5 2.914125 1_555
Ni1 Y2 3.287703 1_655
Ni1 Y0 3.287705 1_555
