# generated using pymatgen
data_CsMn4Ga5Se12
_symmetry_space_group_name_H-M   'P 1'
_cell_length_a   8.89184645
_cell_length_b   8.89261490
_cell_length_c   8.93239756
_cell_angle_alpha   107.10550927
_cell_angle_beta   107.88353314
_cell_angle_gamma   107.37753006
_symmetry_Int_Tables_number   1
_chemical_formula_structural   CsMn4Ga5Se12
_chemical_formula_sum   'Cs1 Mn4 Ga5 Se12'
_cell_volume   580.72826744
_cell_formula_units_Z   1
loop_
 _symmetry_equiv_pos_site_id
 _symmetry_equiv_pos_as_xyz
  1  'x, y, z'
loop_
 _atom_site_type_symbol
 _atom_site_label
 _atom_site_symmetry_multiplicity
 _atom_site_fract_x
 _atom_site_fract_y
 _atom_site_fract_z
 _atom_site_occupancy
  Cs  Cs0  1  0.99804524  0.99758672  0.99456410  1
  Mn  Mn0  1  0.63134427  0.70945783  0.39448174  1
  Mn  Mn1  1  0.39990141  0.63667638  0.71761732  1
  Mn  Mn2  1  0.71052443  0.39249464  0.63137470  1
  Mn  Mn3  1  0.18367616  0.56311888  0.02391933  1
  Ga  Ga0  1  0.48554573  0.33751412  0.94189589  1
  Ga  Ga1  1  0.93893231  0.49054447  0.34255186  1
  Ga  Ga2  1  0.33359355  0.93456501  0.48344536  1
  Ga  Ga3  1  0.02063730  0.18612850  0.55791315  1
  Ga  Ga4  1  0.55979260  0.02474274  0.18467175  1
  Se  Se0  1  0.78391002  0.93351190  0.29824720  1
  Se  Se1  1  0.30804642  0.79663042  0.93299427  1
  Se  Se2  1  0.92838328  0.29045853  0.77349699  1
  Se  Se3  1  0.07013194  0.69686599  0.23863723  1
  Se  Se4  1  0.23223309  0.07804673  0.69094058  1
  Se  Se5  1  0.69902885  0.23355306  0.07930722  1
  Se  Se6  1  0.37940327  0.43366790  0.14851730  1
  Se  Se7  1  0.14866115  0.37774212  0.44295993  1
  Se  Se8  1  0.43717282  0.14359996  0.37204362  1
  Se  Se9  1  0.86224227  0.63096540  0.55725478  1
  Se  Se10  1  0.55176957  0.85877201  0.62744203  1
  Se  Se11  1  0.63166430  0.54799568  0.86036264  1
loop_
_geom_bond_atom_site_label_1
_geom_bond_atom_site_label_2
_geom_bond_distance
_geom_bond_site_symmetry_2
Cs0 Se2 3.782008 1_565
Cs0 Se1 3.793342 1_655
Cs0 Se6 3.817334 1_666
Cs0 Se9 3.821720 1_555
Cs0 Se8 3.822491 1_666
Cs0 Se10 3.837292 1_555
Cs0 Se0 3.839497 1_556
Cs0 Se11 3.877708 1_555
Cs0 Se7 3.911519 1_666
Cs0 Se5 3.959753 1_566
Cs0 Se3 3.988806 1_656
Cs0 Se4 3.990446 1_665
Mn0 Se6 2.527045 1_555
Mn0 Se10 2.536515 1_555
Mn0 Se9 2.536950 1_555
Mn0 Se0 2.580350 1_555
Mn1 Se10 2.526614 1_555
Mn1 Se1 2.537856 1_555
Mn1 Se11 2.538311 1_555
Mn1 Se7 2.559235 1_555
Mn2 Se11 2.526617 1_555
Mn2 Se2 2.530759 1_555
Mn2 Se9 2.533958 1_555
Mn2 Se8 2.546574 1_555
Mn3 Se6 2.520621 1_555
Mn3 Se1 2.523214 1_554
Mn3 Se2 2.537463 1_454
Mn3 Se3 2.584001 1_555
Ga0 Se6 2.377339 1_556
Ga0 Se11 2.377451 1_555
Ga0 Se4 2.484778 1_555
Ga0 Se5 2.499883 1_556
Ga1 Se9 2.367563 1_555
Ga1 Se7 2.430599 1_655
Ga1 Se3 2.444818 1_655
Ga1 Se5 2.479610 1_555
Ga2 Se10 2.372916 1_555
Ga2 Se3 2.431999 1_555
Ga2 Se8 2.433555 1_565
Ga2 Se4 2.489419 1_565
Ga3 Se2 2.369745 1_455
Ga3 Se7 2.417049 1_555
Ga3 Se0 2.443113 1_445
Ga3 Se4 2.500924 1_555
Ga4 Se1 2.386187 1_544
Ga4 Se0 2.422176 1_545
Ga4 Se8 2.423970 1_555
Ga4 Se5 2.497403 1_555
