# generated using pymatgen
data_Na15Sn4
_symmetry_space_group_name_H-M   'P 1'
_cell_length_a   11.28047140
_cell_length_b   11.28047127
_cell_length_c   11.28047112
_cell_angle_alpha   109.47121859
_cell_angle_beta   109.47121835
_cell_angle_gamma   109.47122315
_symmetry_Int_Tables_number   1
_chemical_formula_structural   Na15Sn4
_chemical_formula_sum   'Na30 Sn8'
_cell_volume   1104.99382115
_cell_formula_units_Z   2
loop_
 _symmetry_equiv_pos_site_id
 _symmetry_equiv_pos_as_xyz
  1  'x, y, z'
loop_
 _atom_site_type_symbol
 _atom_site_label
 _atom_site_symmetry_multiplicity
 _atom_site_fract_x
 _atom_site_fract_y
 _atom_site_fract_z
 _atom_site_occupancy
  Na  Na0  1  0.25000000  0.62500000  0.37500000  1
  Na  Na1  1  0.37500000  0.25000000  0.62500000  1
  Na  Na2  1  0.12500000  0.75000000  0.87500000  1
  Na  Na3  1  0.87500000  0.12500000  0.75000000  1
  Na  Na4  1  0.62500000  0.37500000  0.25000000  1
  Na  Na5  1  0.75000000  0.87500000  0.12500000  1
  Na  Na6  1  0.11531044  0.08485442  0.27706226  1
  Na  Na7  1  0.91514558  0.69220684  0.03045501  1
  Na  Na8  1  0.16175282  0.88468956  0.46954499  1
  Na  Na9  1  0.46954499  0.16175282  0.88468956  1
  Na  Na10  1  0.72293774  0.33824718  0.80779316  1
  Na  Na11  1  0.80779316  0.72293774  0.33824718  1
  Na  Na12  1  0.69220684  0.03045501  0.91514558  1
  Na  Na13  1  0.83824718  0.22293774  0.30779316  1
  Na  Na14  1  0.53045501  0.19220684  0.41514558  1
  Na  Na15  1  0.66175282  0.96954499  0.38468956  1
  Na  Na16  1  0.22293774  0.30779316  0.83824718  1
  Na  Na17  1  0.41514558  0.53045501  0.19220684  1
  Na  Na18  1  0.96954499  0.38468956  0.66175282  1
  Na  Na19  1  0.27706226  0.11531044  0.08485442  1
  Na  Na20  1  0.08485442  0.27706226  0.11531044  1
  Na  Na21  1  0.30779316  0.83824718  0.22293774  1
  Na  Na22  1  0.19220684  0.41514558  0.53045501  1
  Na  Na23  1  0.38468956  0.66175282  0.96954499  1
  Na  Na24  1  0.58485442  0.61531044  0.77706226  1
  Na  Na25  1  0.77706226  0.58485442  0.61531044  1
  Na  Na26  1  0.61531044  0.77706226  0.58485442  1
  Na  Na27  1  0.33824718  0.80779316  0.72293774  1
  Na  Na28  1  0.03045501  0.91514558  0.69220684  1
  Na  Na29  1  0.88468956  0.46954499  0.16175282  1
  Sn  Sn0  1  0.41787547  0.41787547  0.41787547  1
  Sn  Sn1  1  0.58212453  0.50000000  0.00000000  1
  Sn  Sn2  1  -0.00000000  0.58212453  0.50000000  1
  Sn  Sn3  1  0.50000000  0.00000000  0.58212453  1
  Sn  Sn4  1  0.00000000  0.08212453  0.50000000  1
  Sn  Sn5  1  0.50000000  0.00000000  0.08212453  1
  Sn  Sn6  1  0.08212453  0.50000000  0.00000000  1
  Sn  Sn7  1  0.91787547  0.91787547  0.91787547  1
loop_
_geom_bond_atom_site_label_1
_geom_bond_atom_site_label_2
_geom_bond_distance
_geom_bond_site_symmetry_2
Na0 Na8 3.358416 1_555
Na0 Na20 3.358423 1_555
Na0 Na27 3.358427 1_555
Na0 Na17 3.358434 1_555
Na0 Na22 3.406588 1_555
Na0 Na21 3.406588 1_555
Na0 Na29 3.406595 1_455
Na0 Na26 3.406595 1_555
Na0 Sn2 3.517331 1_555
Na0 Sn3 3.517331 1_565
Na0 Sn6 3.517331 1_555
Na0 Sn0 3.517331 1_555
Na1 Na9 3.358416 1_555
Na1 Na6 3.358423 1_555
Na1 Na10 3.358427 1_555
Na1 Na22 3.358434 1_555
Na1 Na14 3.406588 1_555
Na1 Na16 3.406588 1_555
Na1 Na8 3.406595 1_545
Na1 Na24 3.406595 1_555
Na1 Sn0 3.517331 1_555
Na1 Sn4 3.517331 1_555
Na1 Sn3 3.517331 1_555
Na1 Sn1 3.517331 1_556
Na2 Na23 3.358416 1_555
Na2 Na25 3.358423 1_455
Na2 Na21 3.358427 1_556
Na2 Na28 3.358434 1_555
Na2 Na7 3.406588 1_456
Na2 Na27 3.406588 1_555
Na2 Sn6 3.517331 1_556
Na2 Sn2 3.517331 1_555
Na2 Sn5 3.517331 1_566
Na2 Sn7 3.517331 1_455
Na3 Sn4 3.517331 1_655
Na3 Sn7 3.517331 1_545
Na3 Sn6 3.517331 1_656
Na3 Sn3 3.517331 1_555
Na4 Na9 3.406595 1_554
Na4 Sn1 3.517331 1_555
Na4 Sn0 3.517331 1_555
Na4 Sn5 3.517331 1_555
Na4 Sn2 3.517331 1_655
Na5 Na7 3.358434 1_555
Na5 Na6 3.406595 1_665
Na5 Sn7 3.517331 1_554
Na5 Sn1 3.517331 1_555
Na5 Sn5 3.517331 1_565
Na5 Sn4 3.517331 1_665
Na6 Sn4 3.197354 1_555
Na6 Sn7 3.320324 1_444
Na6 Sn0 3.484869 1_555
Na6 Na8 3.658698 1_545
Na6 Na7 3.658698 1_445
Na7 Sn7 3.197357 1_554
Na7 Sn6 3.320314 1_655
Na7 Sn1 3.484871 1_555
Na8 Sn3 3.197345 1_565
Na8 Sn4 3.320332 1_565
Na8 Sn2 3.484864 1_555
Na9 Sn1 3.197345 1_556
Na9 Sn5 3.320332 1_556
Na9 Sn3 3.484865 1_555
Na10 Sn3 3.197348 1_555
Na10 Na7 3.296136 1_556
Na10 Na29 3.296136 1_556
Na10 Sn6 3.320322 1_656
Na10 Na3 3.406588 1_555
Na10 Na9 3.449208 1_555
Na10 Sn1 3.484867 1_556
Na10 Na18 3.658698 1_555
Na10 Na14 3.658698 1_555
Na11 Sn1 3.197348 1_555
Na11 Na8 3.296136 1_655
Na11 Na28 3.296136 1_655
Na11 Sn4 3.320322 1_665
Na11 Na4 3.358427 1_555
Na11 Na5 3.406588 1_555
Na11 Na29 3.449208 1_555
Na11 Sn2 3.484867 1_655
Na11 Na17 3.658698 1_555
Na11 Na15 3.658698 1_555
Na12 Sn7 3.197357 1_545
Na12 Na27 3.296136 1_545
Na12 Na9 3.296136 1_555
Na12 Sn5 3.320314 1_556
Na12 Na3 3.358434 1_555
Na12 Na5 3.406588 1_546
Na12 Na26 3.449233 1_545
Na12 Sn3 3.484872 1_555
Na12 Na13 3.658698 1_556
Na12 Na20 3.658698 1_656
Na13 Sn5 3.197348 1_555
Na13 Na18 3.296136 1_555
Na13 Na22 3.296136 1_655
Na13 Sn2 3.320322 1_655
Na13 Na5 3.358427 1_545
Na13 Na4 3.406588 1_555
Na13 Na15 3.449208 1_545
Na13 Sn4 3.484867 1_655
Na13 Na29 3.658698 1_555
Na14 Sn0 3.197357 1_555
Na14 Na21 3.296136 1_545
Na14 Na15 3.296136 1_545
Na14 Sn3 3.320314 1_555
Na14 Na4 3.358434 1_555
Na14 Na19 3.449233 1_555
Na14 Sn5 3.484872 1_555
Na14 Na25 3.658698 1_555
Na15 Sn4 3.197345 1_665
Na15 Na21 3.296136 1_555
Na15 Sn3 3.320332 1_565
Na15 Na5 3.358416 1_555
Na15 Na3 3.406595 1_565
Na15 Sn5 3.484865 1_565
Na15 Na26 3.658698 1_555
Na16 Sn4 3.197348 1_555
Na16 Na23 3.296136 1_555
Na16 Na17 3.296136 1_556
Na16 Sn1 3.320322 1_556
Na16 Na3 3.358427 1_455
Na16 Na18 3.449208 1_455
Na16 Sn6 3.484867 1_556
Na16 Na28 3.658698 1_545
Na16 Na9 3.658698 1_555
Na17 Sn0 3.197357 1_555
Na17 Na23 3.296136 1_554
Na17 Sn1 3.320314 1_555
Na17 Na4 3.406588 1_555
Na17 Na20 3.449233 1_555
Na17 Sn6 3.484872 1_555
Na17 Na26 3.658698 1_555
Na18 Sn6 3.197345 1_656
Na18 Na22 3.296136 1_655
Na18 Sn2 3.320332 1_655
Na18 Na3 3.358416 1_555
Na18 Na2 3.406595 1_655
Na18 Sn4 3.484865 1_655
Na18 Na25 3.658698 1_555
Na19 Sn5 3.197354 1_555
Na19 Na6 3.296139 1_555
Na19 Na20 3.296139 1_555
Na19 Sn7 3.320324 1_444
Na19 Na4 3.358422 1_555
Na19 Na2 3.406595 1_544
Na19 Sn0 3.484869 1_555
Na19 Na9 3.658698 1_554
Na19 Na28 3.658698 1_544
Na20 Sn6 3.197354 1_555
Na20 Na6 3.296139 1_555
Na20 Sn7 3.320324 1_444
Na20 Na3 3.406595 1_454
Na20 Sn0 3.484869 1_555
Na20 Na29 3.658698 1_455
Na21 Sn6 3.197348 1_555
Na21 Sn3 3.320322 1_565
Na21 Na23 3.449208 1_554
Na21 Sn5 3.484867 1_565
Na21 Na8 3.658698 1_555
Na21 Na7 3.658698 1_455
Na22 Sn0 3.197357 1_555
Na22 Sn2 3.320314 1_555
Na22 Na6 3.449233 1_555
Na22 Sn4 3.484871 1_555
Na22 Na27 3.658698 1_555
Na22 Na24 3.658698 1_555
Na23 Sn5 3.197345 1_566
Na23 Sn1 3.320332 1_556
Na23 Na5 3.406595 1_556
Na23 Sn6 3.484864 1_556
Na23 Na27 3.658698 1_555
Na23 Na24 3.658698 1_555
Na24 Sn1 3.197354 1_556
Na24 Na26 3.296139 1_555
Na24 Na25 3.296139 1_555
Na24 Sn0 3.320324 1_555
Na24 Na5 3.358423 1_556
Na24 Na7 3.449233 1_556
Na24 Sn7 3.484869 1_555
Na25 Sn2 3.197354 1_655
Na25 Na26 3.296139 1_555
Na25 Sn0 3.320324 1_555
Na25 Na4 3.406595 1_555
Na25 Na28 3.449233 1_655
Na25 Sn7 3.484869 1_555
Na26 Sn3 3.197354 1_565
Na26 Sn0 3.320324 1_555
Na26 Na3 3.358422 1_565
Na26 Sn7 3.484869 1_555
Na27 Sn2 3.197348 1_555
Na27 Na9 3.296136 1_565
Na27 Sn5 3.320322 1_566
Na27 Na8 3.449208 1_555
Na27 Sn3 3.484867 1_565
Na28 Sn7 3.197357 1_455
Na28 Na8 3.296136 1_555
Na28 Sn4 3.320314 1_565
Na28 Na3 3.406588 1_465
Na28 Sn2 3.484872 1_555
Na29 Sn2 3.197345 1_655
Na29 Na7 3.296136 1_555
Na29 Sn6 3.320332 1_655
Na29 Na4 3.358416 1_555
Na29 Sn1 3.484865 1_555
