# generated using pymatgen
data_LiSc6BBr12
_symmetry_space_group_name_H-M   'P 1'
_cell_length_a   8.56850654
_cell_length_b   8.56855784
_cell_length_c   8.56856906
_cell_angle_alpha   107.31188375
_cell_angle_beta   107.31241189
_cell_angle_gamma   107.31179975
_symmetry_Int_Tables_number   1
_chemical_formula_structural   LiSc6BBr12
_chemical_formula_sum   'Li1 Sc6 B1 Br12'
_cell_volume   519.39820102
_cell_formula_units_Z   1
loop_
 _symmetry_equiv_pos_site_id
 _symmetry_equiv_pos_as_xyz
  1  'x, y, z'
loop_
 _atom_site_type_symbol
 _atom_site_label
 _atom_site_symmetry_multiplicity
 _atom_site_fract_x
 _atom_site_fract_y
 _atom_site_fract_z
 _atom_site_occupancy
  Li  Li0  1  0.50304896  0.50304761  0.50304796  1
  Sc  Sc0  1  0.90265589  0.97350898  0.69885205  1
  Sc  Sc1  1  0.97350943  0.69885083  0.90265731  1
  Sc  Sc2  1  0.69885272  0.90266232  0.97351299  1
  Sc  Sc3  1  0.03092131  0.30562667  0.10184827  1
  Sc  Sc4  1  0.30562328  0.10184062  0.03091883  1
  Sc  Sc5  1  0.10184590  0.03091739  0.30562303  1
  B  B0  1  0.00218256  0.00218240  0.00218194  1
  Br  Br0  1  0.22724166  0.07853078  0.68796319  1
  Br  Br1  1  0.07853235  0.68795983  0.22723794  1
  Br  Br2  1  0.68796275  0.22724655  0.07854509  1
  Br  Br3  1  0.55123373  0.85033310  0.62624141  1
  Br  Br4  1  0.85032786  0.62624186  0.55123794  1
  Br  Br5  1  0.62622810  0.55124211  0.85030981  1
  Br  Br6  1  0.92553171  0.31624977  0.77721599  1
  Br  Br7  1  0.31624555  0.77721905  0.92553431  1
  Br  Br8  1  0.77721994  0.92553128  0.31624815  1
  Br  Br9  1  0.37802797  0.45311896  0.15388304  1
  Br  Br10  1  0.45311821  0.15387369  0.37802575  1
  Br  Br11  1  0.15389013  0.37801620  0.45311500  1
loop_
_geom_bond_atom_site_label_1
_geom_bond_atom_site_label_2
_geom_bond_distance
_geom_bond_site_symmetry_2
B0 Sc0 2.391451 1_444
B0 Sc2 2.391452 1_444
B0 Sc1 2.391470 1_444
B0 Sc4 2.392168 1_555
B0 Sc5 2.392187 1_555
B0 Sc3 2.392208 1_555
Br0 Sc0 2.696026 1_445
Br0 Sc4 2.742768 1_556
Br0 Sc5 2.983697 1_555
Br1 Sc1 2.696002 1_454
Br1 Sc5 2.742773 1_565
Br1 Sc3 2.983652 1_555
Br2 Sc2 2.696035 1_544
Br2 Sc3 2.742796 1_655
Br2 Sc4 2.983643 1_555
Br3 Sc0 2.677855 1_555
Br3 Li0 2.698095 1_555
Br3 Sc2 2.698817 1_555
Br4 Sc1 2.677850 1_555
Br4 Li0 2.698009 1_555
Br4 Sc0 2.698790 1_555
Br5 Sc2 2.677832 1_555
Br5 Li0 2.697871 1_555
Br5 Sc1 2.698828 1_555
Br6 Sc3 2.695525 1_656
Br6 Sc0 2.742174 1_545
Br6 Sc1 2.984898 1_555
Br7 Sc4 2.695439 1_566
Br7 Sc1 2.742110 1_455
Br7 Sc2 2.984924 1_555
Br8 Sc5 2.695472 1_665
Br8 Sc2 2.742141 1_554
Br8 Sc0 2.984915 1_555
Br9 Sc4 2.677125 1_555
Br9 Sc3 2.698178 1_555
Br9 Li0 2.709190 1_555
Br10 Sc5 2.677060 1_555
Br10 Sc4 2.698196 1_555
Br10 Li0 2.709264 1_555
Br11 Sc3 2.677054 1_555
Br11 Sc5 2.698111 1_555
Br11 Li0 2.709119 1_555
