# generated using pymatgen
data_Cd3FeP7N12
_symmetry_space_group_name_H-M   'P 1'
_cell_length_a   7.24155111
_cell_length_b   7.28710802
_cell_length_c   7.28710902
_cell_angle_alpha   109.59751194
_cell_angle_beta   109.34462801
_cell_angle_gamma   109.34463360
_symmetry_Int_Tables_number   1
_chemical_formula_structural   Cd3FeP7N12
_chemical_formula_sum   'Cd3 Fe1 P7 N12'
_cell_volume   296.48061368
_cell_formula_units_Z   1
loop_
 _symmetry_equiv_pos_site_id
 _symmetry_equiv_pos_as_xyz
  1  'x, y, z'
loop_
 _atom_site_type_symbol
 _atom_site_label
 _atom_site_symmetry_multiplicity
 _atom_site_fract_x
 _atom_site_fract_y
 _atom_site_fract_z
 _atom_site_occupancy
  Cd  Cd0  1  0.00287457  0.00000000  0.68763456  1
  Cd  Cd1  1  0.00287457  0.68763456  1.00000000  1
  Cd  Cd2  1  0.31524000  0.31236544  0.31236544  1
  Fe  Fe0  1  0.62727791  1.00000000  1.00000000  1
  P  P0  1  0.25571353  0.74837283  0.50101469  1
  P  P1  1  0.75469885  0.24735915  0.49898531  1
  P  P2  1  0.75469885  0.49898531  0.24735915  1
  P  P3  1  0.25571353  0.50101469  0.74837283  1
  P  P4  1  0.50733970  0.75264085  0.25162717  1
  P  P5  1  0.50733970  0.25162717  0.75264085  1
  P  P6  1  0.94654641  0.00000000  0.00000000  1
  N  N0  1  0.70774765  0.27326219  0.27326219  1
  N  N1  1  0.29194547  0.72069717  0.28773534  1
  N  N2  1  0.30423452  0.57727226  0.57727226  1
  N  N3  1  0.57124830  0.56703917  0.27930283  1
  N  N4  1  0.43448546  0.72673781  1.00000000  1
  N  N5  1  0.00420913  0.71226466  0.43296083  1
  N  N6  1  0.57124830  0.27930283  0.56703917  1
  N  N7  1  0.72696226  1.00000000  0.42272774  1
  N  N8  1  0.43448546  0.00000000  0.72673781  1
  N  N9  1  0.72696226  0.42272774  1.00000000  1
  N  N10  1  0.29194547  0.28773534  0.72069717  1
  N  N11  1  0.00420913  0.43296083  0.71226466  1
loop_
_geom_bond_atom_site_label_1
_geom_bond_atom_site_label_2
_geom_bond_distance
_geom_bond_site_symmetry_2
Cd0 N7 2.272297 1_445
Cd0 N5 2.292509 1_545
Cd0 N10 2.292509 1_555
Cd0 P6 2.441880 1_456
Cd1 N9 2.272297 1_455
Cd1 N11 2.292509 1_555
Cd1 N1 2.292509 1_556
Cd1 P6 2.441880 1_466
Cd2 N2 2.272297 1_555
Cd2 N3 2.292513 1_555
Cd2 N6 2.292513 1_555
Cd2 P6 2.441880 1_455
Fe0 N4 2.018065 1_555
Fe0 N8 2.018065 1_565
Fe0 N0 2.018065 1_566
Fe0 P6 2.311999 1_566
N0 P2 1.654422 1_555
N0 P1 1.654423 1_555
N1 P0 1.618631 1_555
N1 P4 1.621359 1_555
N2 P0 1.616325 1_555
N2 P3 1.616325 1_555
N3 P4 1.618621 1_555
N3 P2 1.621367 1_555
N4 P3 1.654426 1_555
N4 P4 1.654430 1_556
N5 P2 1.618625 1_455
N5 P0 1.621372 1_555
N6 P5 1.618621 1_555
N6 P1 1.621367 1_555
N7 P4 1.616331 1_555
N7 P1 1.616332 1_565
N8 P0 1.654426 1_545
N8 P5 1.654429 1_555
N9 P5 1.616331 1_555
N9 P2 1.616332 1_556
N10 P3 1.618631 1_555
N10 P5 1.621359 1_555
N11 P1 1.618625 1_455
N11 P3 1.621371 1_555
