# generated using pymatgen
data_BaH5Rh
_symmetry_space_group_name_H-M   'P 1'
_cell_length_a   4.97370281
_cell_length_b   6.89525310
_cell_length_c   9.55443035
_cell_angle_alpha   90.00000000
_cell_angle_beta   90.00000000
_cell_angle_gamma   90.00000000
_symmetry_Int_Tables_number   1
_chemical_formula_structural   BaH5Rh
_chemical_formula_sum   'Ba4 H20 Rh4'
_cell_volume   327.66861258
_cell_formula_units_Z   4
loop_
 _symmetry_equiv_pos_site_id
 _symmetry_equiv_pos_as_xyz
  1  'x, y, z'
loop_
 _atom_site_type_symbol
 _atom_site_label
 _atom_site_symmetry_multiplicity
 _atom_site_fract_x
 _atom_site_fract_y
 _atom_site_fract_z
 _atom_site_occupancy
  Ba  Ba0  1  0.24079271  0.35335167  0.18802827  1
  Ba  Ba1  1  0.74079271  0.64664833  0.81197173  1
  Ba  Ba2  1  0.74079271  0.85335167  0.31197173  1
  Ba  Ba3  1  0.24079271  0.14664833  0.68802827  1
  H  H0  1  0.91310731  0.54941486  0.51847963  1
  H  H1  1  0.41310731  0.45058514  0.48152037  1
  H  H2  1  0.41310731  0.04941486  0.98152037  1
  H  H3  1  0.91310731  0.95058514  0.01847963  1
  H  H4  1  0.02977651  0.68237080  0.08685655  1
  H  H5  1  0.52977651  0.31762920  0.91314345  1
  H  H6  1  0.52977651  0.18237080  0.41314345  1
  H  H7  1  0.02977651  0.81762920  0.58685655  1
  H  H8  1  0.47969329  0.71304934  0.07681417  1
  H  H9  1  0.97969329  0.28695066  0.92318583  1
  H  H10  1  0.97969329  0.21304934  0.42318583  1
  H  H11  1  0.47969329  0.78695066  0.57681417  1
  H  H12  1  0.23461912  0.77029711  0.88415459  1
  H  H13  1  0.73461912  0.22970289  0.11584541  1
  H  H14  1  0.73461912  0.27029711  0.61584541  1
  H  H15  1  0.23461912  0.72970289  0.38415459  1
  H  H16  1  0.23760883  0.94860633  0.20523007  1
  H  H17  1  0.73760883  0.05139367  0.79476993  1
  H  H18  1  0.73760883  0.44860633  0.29476993  1
  H  H19  1  0.23760883  0.55139367  0.70523007  1
  Rh  Rh0  1  0.23140121  0.64485360  0.54281611  1
  Rh  Rh1  1  0.73140121  0.35514640  0.45718389  1
  Rh  Rh2  1  0.73140121  0.14485360  0.95718389  1
  Rh  Rh3  1  0.23140121  0.85514640  0.04281611  1
loop_
_geom_bond_atom_site_label_1
_geom_bond_atom_site_label_2
_geom_bond_distance
_geom_bond_site_symmetry_2
Ba0 H4 2.680069 1_555
Ba0 H13 2.689833 1_555
Ba0 H13 2.746023 1_455
Ba0 H18 2.752711 1_555
Ba0 H10 2.769556 1_455
Ba0 H18 2.781176 1_455
Ba0 H16 2.795702 1_545
Ba0 H6 2.842881 1_555
Ba0 H9 2.880814 1_454
Ba0 H8 2.948285 1_555
Ba0 H2 3.003257 1_554
Ba0 H5 3.004058 1_554
Ba0 H1 3.007869 1_555
Ba0 H15 3.201026 1_555
Ba1 H5 2.680069 1_555
Ba1 H12 2.689833 1_655
Ba1 H12 2.746023 1_555
Ba1 H19 2.752711 1_655
Ba1 H11 2.769556 1_555
Ba1 H19 2.781176 1_555
Ba1 H17 2.795702 1_565
Ba1 H7 2.842881 1_655
Ba1 H8 2.880814 1_556
Ba1 H9 2.948285 1_555
Ba1 H3 3.003257 1_556
Ba1 H4 3.004058 1_656
Ba1 H0 3.007869 1_555
Ba1 H14 3.201026 1_555
Ba2 H6 2.680069 1_565
Ba2 H15 2.689833 1_655
Ba2 H15 2.746023 1_555
Ba2 H16 2.752711 1_655
Ba2 H8 2.769556 1_555
Ba2 H16 2.781176 1_555
Ba2 H18 2.795702 1_555
Ba2 H4 2.842881 1_655
Ba2 H11 2.880814 1_555
Ba2 H10 2.948285 1_565
Ba2 H0 3.003257 1_555
Ba2 H7 3.004058 1_655
Ba2 H3 3.007869 1_555
Ba2 H13 3.201026 1_565
Ba3 H7 2.680069 1_545
Ba3 H14 2.689833 1_555
Ba3 H14 2.746023 1_455
Ba3 H17 2.752711 1_555
Ba3 H9 2.769556 1_455
Ba3 H17 2.781176 1_455
Ba3 H19 2.795702 1_555
Ba3 H5 2.842881 1_555
Ba3 H10 2.880814 1_455
Ba3 H11 2.948285 1_545
Ba3 H1 3.003257 1_555
Ba3 H6 3.004058 1_555
Ba3 H2 3.007869 1_555
Ba3 H12 3.201026 1_545
H0 Rh1 1.718747 1_555
H0 Rh0 1.730125 1_655
H1 Rh0 1.718747 1_555
H1 Rh1 1.730125 1_555
H2 Rh3 1.718747 1_546
H2 Rh2 1.730125 1_555
H3 Rh2 1.718747 1_564
H3 Rh3 1.730125 1_655
H4 Rh3 1.613065 1_555
H5 Rh2 1.613065 1_555
H6 Rh1 1.613065 1_555
H7 Rh0 1.613065 1_555
H8 Rh3 1.609525 1_555
H9 Rh2 1.609525 1_555
H10 Rh1 1.609525 1_555
H11 Rh0 1.609525 1_555
H12 Rh3 1.624981 1_556
H13 Rh2 1.624981 1_554
H14 Rh1 1.624981 1_555
H15 Rh0 1.624981 1_555
H16 Rh3 1.680548 1_555
H17 Rh2 1.680548 1_555
H18 Rh1 1.680548 1_555
H19 Rh0 1.680548 1_555
