# generated using pymatgen
data_Be2NbNi2Rh
_symmetry_space_group_name_H-M   'P 1'
_cell_length_a   4.67524823
_cell_length_b   4.52994386
_cell_length_c   4.52994339
_cell_angle_alpha   60.72788192
_cell_angle_beta   58.93313716
_cell_angle_gamma   58.93312780
_symmetry_Int_Tables_number   1
_chemical_formula_structural   Be2NbNi2Rh
_chemical_formula_sum   'Be2 Nb1 Ni2 Rh1'
_cell_volume   67.07040688
_cell_formula_units_Z   1
loop_
 _symmetry_equiv_pos_site_id
 _symmetry_equiv_pos_as_xyz
  1  'x, y, z'
loop_
 _atom_site_type_symbol
 _atom_site_label
 _atom_site_symmetry_multiplicity
 _atom_site_fract_x
 _atom_site_fract_y
 _atom_site_fract_z
 _atom_site_occupancy
  Be  Be0  1  0.61712800  0.63554954  0.13019546  1
  Be  Be1  1  0.61712800  0.13019546  0.63554954  1
  Nb  Nb0  1  0.00146833  0.99853167  0.99853167  1
  Ni  Ni0  1  0.12360217  0.62599441  0.62599441  1
  Ni  Ni1  1  0.62441101  0.62599441  0.62599441  1
  Rh  Rh0  1  0.26626350  0.23373650  0.23373650  1
loop_
_geom_bond_atom_site_label_1
_geom_bond_atom_site_label_2
_geom_bond_distance
_geom_bond_site_symmetry_2
Be0 Ni0 2.242680 1_555
Be0 Ni1 2.242682 1_555
Be0 Be1 2.265325 1_564
Be0 Ni1 2.287923 1_554
Be0 Ni0 2.287926 1_654
Be0 Be1 2.314365 1_555
Be0 Rh0 2.472817 1_565
Be0 Nb0 2.671518 1_644
Be0 Nb0 2.696748 1_654
Be0 Nb0 2.696752 1_554
Be0 Rh0 2.770655 1_655
Be0 Rh0 2.770659 1_555
Be1 Ni0 2.242680 1_555
Be1 Ni1 2.242683 1_555
Be1 Ni1 2.287923 1_545
Be1 Ni0 2.287926 1_645
Be1 Rh0 2.472817 1_556
Be1 Nb0 2.671518 1_644
Be1 Nb0 2.696748 1_645
Be1 Nb0 2.696752 1_545
Be1 Rh0 2.770655 1_655
Be1 Rh0 2.770659 1_555
Nb0 Ni0 2.611094 1_555
Nb0 Ni1 2.611099 1_555
Nb0 Ni1 2.691239 1_465
Nb0 Ni1 2.691240 1_456
Nb0 Ni0 2.691243 1_556
Nb0 Ni0 2.691244 1_565
Nb0 Rh0 2.763304 1_566
Nb0 Rh0 2.763305 1_466
Nb0 Rh0 2.827626 1_565
Nb0 Rh0 2.827626 1_556
Ni0 Ni1 2.333843 1_455
Ni0 Ni1 2.341406 1_555
Ni0 Rh0 2.658863 1_556
Ni0 Rh0 2.658863 1_565
Ni0 Rh0 2.720473 1_555
Ni1 Rh0 2.658867 1_565
Ni1 Rh0 2.658867 1_556
Ni1 Rh0 2.720470 1_655
