# generated using pymatgen
data_Y11Cd4In5Ni4
_symmetry_space_group_name_H-M   'P 1'
_cell_length_a   13.03412238
_cell_length_b   13.03412298
_cell_length_c   3.59642776
_cell_angle_alpha   90.00000000
_cell_angle_beta   90.00000000
_cell_angle_gamma   112.46178774
_symmetry_Int_Tables_number   1
_chemical_formula_structural   Y11Cd4In5Ni4
_chemical_formula_sum   'Y11 Cd4 In5 Ni4'
_cell_volume   564.63807104
_cell_formula_units_Z   1
loop_
 _symmetry_equiv_pos_site_id
 _symmetry_equiv_pos_as_xyz
  1  'x, y, z'
loop_
 _atom_site_type_symbol
 _atom_site_label
 _atom_site_symmetry_multiplicity
 _atom_site_fract_x
 _atom_site_fract_y
 _atom_site_fract_z
 _atom_site_occupancy
  Y  Y0  1  0.08179363  0.41937022  0.00000000  1
  Y  Y1  1  0.91820637  0.58062978  0.00000000  1
  Y  Y2  1  0.41937022  0.08179363  0.00000000  1
  Y  Y3  1  0.58062978  0.91820637  0.00000000  1
  Y  Y4  1  0.62686206  0.37313794  0.00000000  1
  Y  Y5  1  0.37313794  0.62686206  0.00000000  1
  Y  Y6  1  0.83863033  0.16136967  0.00000000  1
  Y  Y7  1  0.16136967  0.83863033  0.00000000  1
  Y  Y8  1  0.00000000  0.00000000  0.00000000  1
  Y  Y9  1  0.31260165  0.31260165  0.00000000  1
  Y  Y10  1  0.68739835  0.68739835  0.00000000  1
  Cd  Cd0  1  0.83980584  0.36629104  0.50000000  1
  Cd  Cd1  1  0.16019416  0.63370896  0.50000000  1
  Cd  Cd2  1  0.36629104  0.83980584  0.50000000  1
  Cd  Cd3  1  0.63370896  0.16019416  0.50000000  1
  In  In0  1  0.07859329  0.22041916  0.50000000  1
  In  In1  1  0.92140671  0.77958084  0.50000000  1
  In  In2  1  0.22041916  0.07859329  0.50000000  1
  In  In3  1  0.77958084  0.92140671  0.50000000  1
  In  In4  1  0.50000000  0.50000000  0.50000000  1
  Ni  Ni0  1  0.24830535  0.44788444  0.50000000  1
  Ni  Ni1  1  0.75169465  0.55211556  0.50000000  1
  Ni  Ni2  1  0.44788444  0.24830535  0.50000000  1
  Ni  Ni3  1  0.55211556  0.75169465  0.50000000  1
loop_
_geom_bond_atom_site_label_1
_geom_bond_atom_site_label_2
_geom_bond_distance
_geom_bond_site_symmetry_2
Cd0 Cd3 2.986337 1_555
Cd0 Ni1 3.051368 1_555
Cd0 Y1 3.146615 1_556
Cd0 Y1 3.146615 1_555
Cd0 Y6 3.215061 1_555
Cd0 Y6 3.215061 1_556
Cd0 Y4 3.336826 1_556
Cd0 Y4 3.336826 1_555
Cd0 Y0 3.463107 1_656
Cd0 Y0 3.463107 1_655
Cd1 Cd2 2.986337 1_555
Cd1 Ni0 3.051368 1_555
Cd1 Y0 3.146615 1_556
Cd1 Y0 3.146615 1_555
Cd1 Y7 3.215061 1_555
Cd1 Y7 3.215061 1_556
Cd1 Y5 3.336826 1_556
Cd1 Y5 3.336826 1_555
Cd1 Y1 3.463107 1_456
Cd1 Y1 3.463107 1_455
Cd2 Ni3 3.051368 1_555
Cd2 Y3 3.146615 1_556
Cd2 Y3 3.146615 1_555
Cd2 Y7 3.215061 1_555
Cd2 Y7 3.215061 1_556
Cd2 Y5 3.336826 1_556
Cd2 Y5 3.336826 1_555
Cd2 Y2 3.463107 1_566
Cd2 Y2 3.463107 1_565
Cd3 Ni2 3.051368 1_555
Cd3 Y2 3.146615 1_556
Cd3 Y2 3.146615 1_555
Cd3 Y6 3.215061 1_555
Cd3 Y6 3.215061 1_556
Cd3 Y4 3.336826 1_555
Cd3 Y4 3.336826 1_556
Cd3 Y3 3.463107 1_545
Cd3 Y3 3.463107 1_546
In0 Ni0 2.944797 1_555
In0 In2 3.073384 1_555
In0 Y0 3.142785 1_555
In0 Y0 3.142785 1_556
In0 Y8 3.207495 1_555
In0 Y8 3.207495 1_556
In0 Y9 3.343641 1_556
In0 Y9 3.343641 1_555
In0 Y6 3.430601 1_456
In0 Y6 3.430601 1_455
In1 Ni1 2.944797 1_555
In1 In3 3.073384 1_555
In1 Y1 3.142785 1_555
In1 Y1 3.142785 1_556
In1 Y8 3.207495 1_666
In1 Y8 3.207495 1_665
In1 Y10 3.343641 1_556
In1 Y10 3.343641 1_555
In1 Y7 3.430601 1_656
In1 Y7 3.430601 1_655
In2 Ni2 2.944797 1_555
In2 Y2 3.142785 1_555
In2 Y2 3.142785 1_556
In2 Y8 3.207495 1_556
In2 Y8 3.207495 1_555
In2 Y9 3.343641 1_556
In2 Y9 3.343641 1_555
In2 Y7 3.430601 1_545
In2 Y7 3.430601 1_546
In3 Ni3 2.944797 1_555
In3 Y3 3.142785 1_555
In3 Y3 3.142785 1_556
In3 Y8 3.207495 1_665
In3 Y8 3.207495 1_666
In3 Y10 3.343641 1_555
In3 Y10 3.343641 1_556
In3 Y6 3.430601 1_565
In3 Y6 3.430601 1_566
In4 Ni1 3.085618 1_555
In4 Ni0 3.085618 1_555
In4 Ni3 3.085618 1_555
In4 Ni2 3.085618 1_555
In4 Y10 3.256831 1_555
In4 Y10 3.256831 1_556
In4 Y9 3.256831 1_556
In4 Y9 3.256831 1_555
In4 Y5 3.284998 1_556
In4 Y5 3.284998 1_555
In4 Y4 3.284998 1_556
In4 Y4 3.284998 1_555
Ni0 Y0 2.732341 1_556
Ni0 Y0 2.732341 1_555
Ni0 Y9 2.859068 1_556
Ni0 Y9 2.859068 1_555
Ni0 Y5 2.902170 1_555
Ni0 Y5 2.902170 1_556
Ni1 Y1 2.732341 1_556
Ni1 Y1 2.732341 1_555
Ni1 Y10 2.859068 1_556
Ni1 Y10 2.859068 1_555
Ni1 Y4 2.902170 1_555
Ni1 Y4 2.902170 1_556
Ni2 Y2 2.732341 1_555
Ni2 Y2 2.732341 1_556
Ni2 Y9 2.859068 1_555
Ni2 Y9 2.859068 1_556
Ni2 Y4 2.902170 1_556
Ni2 Y4 2.902170 1_555
Ni3 Y3 2.732341 1_555
Ni3 Y3 2.732341 1_556
Ni3 Y10 2.859068 1_555
Ni3 Y10 2.859068 1_556
Ni3 Y5 2.902170 1_555
Ni3 Y5 2.902170 1_556
