# generated using pymatgen
data_CaNiAs4F24
_symmetry_space_group_name_H-M   'P 1'
_cell_length_a   9.33579396
_cell_length_b   9.33579309
_cell_length_c   9.33579315
_cell_angle_alpha   132.97871454
_cell_angle_beta   132.97871407
_cell_angle_gamma   68.68758104
_symmetry_Int_Tables_number   1
_chemical_formula_structural   CaNiAs4F24
_chemical_formula_sum   'Ca1 Ni1 As4 F24'
_cell_volume   427.65064931
_cell_formula_units_Z   1
loop_
 _symmetry_equiv_pos_site_id
 _symmetry_equiv_pos_as_xyz
  1  'x, y, z'
loop_
 _atom_site_type_symbol
 _atom_site_label
 _atom_site_symmetry_multiplicity
 _atom_site_fract_x
 _atom_site_fract_y
 _atom_site_fract_z
 _atom_site_occupancy
  Ca  Ca0  1  0.75000000  0.25000000  0.50000000  1
  Ni  Ni0  1  0.00000000  0.00000000  0.00000000  1
  As  As0  1  0.78451118  0.78451118  0.00000000  1
  As  As1  1  0.21548882  0.21548882  1.00000000  1
  As  As2  1  0.97627057  0.47627057  0.50000000  1
  As  As3  1  0.52372943  0.02372943  0.50000000  1
  F  F0  1  0.86610820  0.76962413  0.21692091  1
  F  F1  1  0.55270322  0.64918830  0.78307909  1
  F  F2  1  0.41050753  0.78585182  0.29799391  1
  F  F3  1  0.35081170  0.13389180  0.90351592  1
  F  F4  1  0.23037587  0.44729678  0.09648408  1
  F  F5  1  0.21414818  0.51214209  0.62465471  1
  F  F6  1  0.64526272  0.26243589  0.69049077  1
  F  F7  1  0.73756411  0.42805487  0.38282783  1
  F  F8  1  0.04522804  0.35473728  0.61717217  1
  F  F9  1  0.07687159  0.27921736  0.09484071  1
  F  F10  1  0.18437565  0.98203088  0.90515929  1
  F  F11  1  0.57194513  0.95477196  0.30950923  1
  F  F12  1  0.72078264  0.81562435  0.79765623  1
  F  F13  1  0.01796912  0.92312841  0.20234377  1
  F  F14  1  0.29133352  0.08372845  0.32134929  1
  F  F15  1  0.91627155  0.23762084  0.20760607  1
  F  F16  1  0.03001577  0.70866648  0.79239393  1
  F  F17  1  0.43400832  0.29712727  0.30595385  1
  F  F18  1  0.99117443  0.12805347  0.69404615  1
  F  F19  1  0.76237916  0.96998423  0.67865071  1
  F  F20  1  0.70287273  0.00882557  0.13688005  1
  F  F21  1  0.87194653  0.56599168  0.86311995  1
  F  F22  1  0.48785791  0.11251262  0.70200609  1
  F  F23  1  0.88748738  0.58949247  0.37534529  1
loop_
_geom_bond_atom_site_label_1
_geom_bond_atom_site_label_2
_geom_bond_distance
_geom_bond_site_symmetry_2
Ca0 F17 2.243826 1_555
Ca0 F21 2.243827 1_555
Ca0 F20 2.243832 1_555
Ca0 F18 2.243834 1_555
Ca0 F7 2.477717 1_555
Ca0 F11 2.477725 1_545
Ca0 F6 2.477725 1_555
Ca0 F8 2.477731 1_655
As0 F1 1.704159 1_554
As0 F0 1.704163 1_555
As0 F12 1.759813 1_554
As0 F13 1.759829 1_655
As0 F20 1.765891 1_565
As0 F21 1.765901 1_554
As1 F3 1.704154 1_555
As1 F4 1.704163 1_556
As1 F9 1.759824 1_556
As1 F10 1.759827 1_545
As1 F18 1.765894 1_455
As1 F17 1.765898 1_556
As2 F23 1.698167 1_555
As2 F5 1.698175 1_655
As2 F8 1.760541 1_655
As2 F7 1.760553 1_555
As2 F16 1.805341 1_655
As2 F15 1.805342 1_555
As3 F2 1.698172 1_545
As3 F22 1.698175 1_555
As3 F6 1.760549 1_555
As3 F11 1.760549 1_545
As3 F14 1.805346 1_555
As3 F19 1.805346 1_545
F9 Ni0 2.332499 1_555
F10 Ni0 2.332490 1_566
F12 Ni0 2.332502 1_666
F13 Ni0 2.332481 1_565
F14 Ni0 2.057075 1_555
F15 Ni0 2.057080 1_655
F16 Ni0 2.057077 1_566
F19 Ni0 2.057075 1_666
