# generated using pymatgen
data_Sr8SbRhO12
_symmetry_space_group_name_H-M   'P 1'
_cell_length_a   6.92936824
_cell_length_b   6.92936997
_cell_length_c   6.92936861
_cell_angle_alpha   90.14197270
_cell_angle_beta   90.14198046
_cell_angle_gamma   90.14197760
_symmetry_Int_Tables_number   1
_chemical_formula_structural   Sr8SbRhO12
_chemical_formula_sum   'Sr8 Sb1 Rh1 O12'
_cell_volume   332.71857592
_cell_formula_units_Z   1
loop_
 _symmetry_equiv_pos_site_id
 _symmetry_equiv_pos_as_xyz
  1  'x, y, z'
loop_
 _atom_site_type_symbol
 _atom_site_label
 _atom_site_symmetry_multiplicity
 _atom_site_fract_x
 _atom_site_fract_y
 _atom_site_fract_z
 _atom_site_occupancy
  Sr  Sr0  1  0.87848925  0.60889298  0.26018769  1
  Sr  Sr1  1  0.12151075  0.39110702  0.73981231  1
  Sr  Sr2  1  0.26018769  0.87848925  0.60889298  1
  Sr  Sr3  1  0.60889298  0.26018769  0.87848925  1
  Sr  Sr4  1  0.74210698  0.74210698  0.74210698  1
  Sr  Sr5  1  0.39110702  0.73981231  0.12151075  1
  Sr  Sr6  1  0.25789302  0.25789302  0.25789302  1
  Sr  Sr7  1  0.73981231  0.12151075  0.39110702  1
  Sb  Sb0  1  0.00000000  0.00000000  0.00000000  1
  Rh  Rh0  1  0.50000000  0.50000000  0.50000000  1
  O  O0  1  0.43760954  0.57791756  0.78862747  1
  O  O1  1  0.57791756  0.78862747  0.43760954  1
  O  O2  1  0.94783103  0.27870334  0.06693481  1
  O  O3  1  0.56239046  0.42208244  0.21137253  1
  O  O4  1  0.21137253  0.56239046  0.42208244  1
  O  O5  1  0.05216897  0.72129666  0.93306519  1
  O  O6  1  0.78862747  0.43760954  0.57791756  1
  O  O7  1  0.72129666  0.93306519  0.05216897  1
  O  O8  1  0.06693481  0.94783103  0.27870334  1
  O  O9  1  0.93306519  0.05216897  0.72129666  1
  O  O10  1  0.42208244  0.21137253  0.56239046  1
  O  O11  1  0.27870334  0.06693481  0.94783103  1
loop_
_geom_bond_atom_site_label_1
_geom_bond_atom_site_label_2
_geom_bond_distance
_geom_bond_site_symmetry_2
O0 Rh0 2.116255 1_555
O0 Sr4 2.417360 1_555
O0 Sr1 2.562791 1_555
O0 Sr3 2.580670 1_555
O0 Sr5 2.583741 1_556
O0 Sr2 2.723695 1_555
O1 Rh0 2.116255 1_555
O1 Sr4 2.417360 1_555
O1 Sr5 2.562791 1_555
O1 Sr2 2.580670 1_555
O1 Sr7 2.583741 1_565
O1 Sr0 2.723694 1_555
O2 Sb0 2.018747 1_655
O2 Sr6 2.525132 1_655
O2 Sr1 2.685302 1_654
O2 Sr3 2.687028 1_554
O2 Sr0 2.693055 1_555
O2 Sr7 2.886260 1_555
O3 Rh0 2.116255 1_555
O3 Sr6 2.417360 1_555
O3 Sr0 2.562791 1_555
O3 Sr5 2.580670 1_555
O3 Sr3 2.583741 1_554
O3 Sr7 2.723695 1_555
O4 Rh0 2.116255 1_555
O4 Sr6 2.417360 1_555
O4 Sr2 2.562792 1_555
O4 Sr1 2.580670 1_555
O4 Sr0 2.583740 1_455
O4 Sr5 2.723694 1_555
O5 Sb0 2.018747 1_566
O5 Sr4 2.525132 1_455
O5 Sr0 2.685302 1_456
O5 Sr5 2.687028 1_556
O5 Sr1 2.693055 1_555
O5 Sr2 2.886260 1_555
O6 Rh0 2.116255 1_555
O6 Sr4 2.417360 1_555
O6 Sr7 2.562792 1_555
O6 Sr0 2.580670 1_555
O6 Sr1 2.583740 1_655
O6 Sr3 2.723694 1_555
O7 Sb0 2.018747 1_665
O7 Sr4 2.525133 1_554
O7 Sr3 2.685302 1_564
O7 Sr7 2.687029 1_565
O7 Sr5 2.693054 1_555
O7 Sr0 2.886260 1_555
O8 Sb0 2.018747 1_565
O8 Sr6 2.525133 1_565
O8 Sr7 2.685302 1_465
O8 Sr0 2.687029 1_455
O8 Sr2 2.693054 1_555
O8 Sr5 2.886260 1_555
O9 Sb0 2.018747 1_656
O9 Sr4 2.525133 1_545
O9 Sr2 2.685302 1_645
O9 Sr1 2.687029 1_655
O9 Sr7 2.693054 1_555
O9 Sr3 2.886260 1_555
O10 Rh0 2.116255 1_555
O10 Sr6 2.417360 1_555
O10 Sr3 2.562791 1_555
O10 Sr7 2.580670 1_555
O10 Sr2 2.583741 1_545
O10 Sr1 2.723694 1_555
O11 Sb0 2.018747 1_556
O11 Sr6 2.525133 1_556
O11 Sr5 2.685302 1_546
O11 Sr2 2.687029 1_545
O11 Sr3 2.693054 1_555
O11 Sr1 2.886260 1_555
