# generated using pymatgen
data_Ta3Ga2OsC
_symmetry_space_group_name_H-M   'P 1'
_cell_length_a   8.26021940
_cell_length_b   8.26021946
_cell_length_c   8.26013708
_cell_angle_alpha   60.00113917
_cell_angle_beta   60.00113892
_cell_angle_gamma   60.00054785
_symmetry_Int_Tables_number   1
_chemical_formula_structural   Ta3Ga2OsC
_chemical_formula_sum   'Ta12 Ga8 Os4 C4'
_cell_volume   398.53337828
_cell_formula_units_Z   4
loop_
 _symmetry_equiv_pos_site_id
 _symmetry_equiv_pos_as_xyz
  1  'x, y, z'
loop_
 _atom_site_type_symbol
 _atom_site_label
 _atom_site_symmetry_multiplicity
 _atom_site_fract_x
 _atom_site_fract_y
 _atom_site_fract_z
 _atom_site_occupancy
  Ta  Ta0  1  0.55724763  0.94274569  0.55726075  1
  Ta  Ta1  1  0.30725431  0.69275237  0.69273925  1
  Ta  Ta2  1  0.69274872  0.30725383  0.30725807  1
  Ta  Ta3  1  0.30725383  0.69274872  0.30725807  1
  Ta  Ta4  1  0.69273883  0.69273883  0.30726320  1
  Ta  Ta5  1  0.30725538  0.30725538  0.69274255  1
  Ta  Ta6  1  0.55726117  0.55726117  0.94273680  1
  Ta  Ta7  1  0.94274569  0.55724763  0.55726075  1
  Ta  Ta8  1  0.55725128  0.94274617  0.94274193  1
  Ta  Ta9  1  0.94274462  0.94274462  0.55725745  1
  Ta  Ta10  1  0.69275237  0.30725431  0.69273925  1
  Ta  Ta11  1  0.94274617  0.55725128  0.94274193  1
  Ga  Ga0  1  0.91395119  0.91395119  0.91396464  1
  Ga  Ga1  1  0.99188150  0.33604268  0.33603638  1
  Ga  Ga2  1  0.33604268  0.99188150  0.33603638  1
  Ga  Ga3  1  0.33604677  0.33604677  0.99186399  1
  Ga  Ga4  1  0.91395732  0.25811850  0.91396362  1
  Ga  Ga5  1  0.91395323  0.91395323  0.25813601  1
  Ga  Ga6  1  0.25811850  0.91395732  0.91396362  1
  Ga  Ga7  1  0.33604881  0.33604881  0.33603536  1
  Os  Os0  1  0.12500000  0.12500000  0.12500000  1
  Os  Os1  1  0.62500000  0.12500000  0.12500000  1
  Os  Os2  1  0.12500000  0.62500000  0.12500000  1
  Os  Os3  1  0.12500000  0.12500000  0.62500000  1
  C  C0  1  0.62500000  0.62500000  0.62500000  1
  C  C1  1  0.12500000  0.62500000  0.62500000  1
  C  C2  1  0.62500000  0.12500000  0.62500000  1
  C  C3  1  0.62500000  0.62500000  0.12500000  1
loop_
_geom_bond_atom_site_label_1
_geom_bond_atom_site_label_2
_geom_bond_distance
_geom_bond_site_symmetry_2
Ga0 Os1 2.547956 1_566
Ga0 Os2 2.547956 1_656
Ga0 Os3 2.548075 1_665
Ga0 Ta9 2.729424 1_555
Ga0 Ta8 2.729441 1_555
Ga0 Ta11 2.729441 1_555
Ga0 Ga6 2.842918 1_655
Ga0 Ga4 2.842918 1_565
Ga0 Ga5 2.842919 1_556
Ga0 Ta1 2.949339 1_655
Ga0 Ta10 2.949339 1_565
Ga0 Ta4 2.949341 1_556
Ga1 Os0 2.547925 1_655
Ga1 Os2 2.547951 1_655
Ga1 Os3 2.547958 1_655
Ga1 Ta2 2.729444 1_555
Ga1 Ta10 2.729484 1_555
Ga1 Ta4 2.729489 1_555
Ga1 Ga2 2.842870 1_645
Ga1 Ga7 2.842918 1_655
Ga1 Ga3 2.842945 1_654
Ga1 Ta7 2.949263 1_555
Ga1 Ta11 2.949298 1_554
Ga1 Ta9 2.949363 1_545
Ga2 Os0 2.547925 1_565
Ga2 Os1 2.547951 1_565
Ga2 Os3 2.547958 1_565
Ga2 Ta3 2.729444 1_555
Ga2 Ta1 2.729484 1_555
Ga2 Ta4 2.729489 1_555
Ga2 Ga7 2.842918 1_565
Ga2 Ga3 2.842945 1_564
Ga2 Ta0 2.949263 1_555
Ga2 Ta8 2.949298 1_554
Ga2 Ta9 2.949362 1_455
Ga3 Os1 2.547975 1_556
Ga3 Os2 2.547975 1_556
Ga3 Os0 2.548020 1_556
Ga3 Ta5 2.729401 1_555
Ga3 Ta10 2.729485 1_555
Ga3 Ta1 2.729485 1_555
Ga3 Ga7 2.842919 1_556
Ga3 Ta11 2.949311 1_455
Ga3 Ta8 2.949311 1_545
Ga3 Ta6 2.949323 1_555
Ga4 Os0 2.547925 1_656
Ga4 Os1 2.547951 1_556
Ga4 Os3 2.547958 1_655
Ga4 Ta11 2.729444 1_555
Ga4 Ta7 2.729484 1_555
Ga4 Ta6 2.729489 1_555
Ga4 Ga6 2.842870 1_645
Ga4 Ga5 2.842945 1_546
Ga4 Ta10 2.949263 1_555
Ga4 Ta2 2.949298 1_556
Ga4 Ta5 2.949362 1_655
Ga5 Os1 2.547975 1_565
Ga5 Os2 2.547975 1_655
Ga5 Os0 2.548020 1_665
Ga5 Ta9 2.729401 1_555
Ga5 Ta0 2.729485 1_555
Ga5 Ta7 2.729485 1_555
Ga5 Ga6 2.842945 1_654
Ga5 Ta3 2.949311 1_655
Ga5 Ta2 2.949311 1_565
Ga5 Ta4 2.949323 1_555
Ga6 Os0 2.547925 1_566
Ga6 Os2 2.547951 1_556
Ga6 Os3 2.547958 1_565
Ga6 Ta8 2.729444 1_555
Ga6 Ta0 2.729484 1_555
Ga6 Ta6 2.729489 1_555
Ga6 Ta1 2.949263 1_555
Ga6 Ta3 2.949298 1_556
Ga6 Ta5 2.949363 1_565
Ga7 Os1 2.547956 1_555
Ga7 Os2 2.547956 1_555
Ga7 Os3 2.548075 1_555
Ga7 Ta5 2.729424 1_555
Ga7 Ta2 2.729441 1_555
Ga7 Ta3 2.729441 1_555
Ga7 Ta7 2.949339 1_455
Ga7 Ta0 2.949339 1_545
Ga7 Ta6 2.949341 1_554
Os0 Ta8 2.966038 1_544
Os0 Ta2 2.966038 1_455
Os0 Ta11 2.966038 1_454
Os0 Ta3 2.966038 1_545
Os0 Ta9 2.966072 1_445
Os0 Ta5 2.966072 1_554
Os1 Ta2 2.966027 1_555
Os1 Ta8 2.966027 1_544
Os1 Ta0 2.966067 1_545
Os1 Ta10 2.966067 1_554
Os1 Ta6 2.966109 1_554
Os1 Ta4 2.966109 1_545
Os2 Ta3 2.966027 1_555
Os2 Ta11 2.966027 1_454
Os2 Ta7 2.966067 1_455
Os2 Ta1 2.966067 1_554
Os2 Ta6 2.966109 1_554
Os2 Ta4 2.966109 1_455
Os3 Ta5 2.965997 1_555
Os3 Ta9 2.965997 1_445
Os3 Ta0 2.966004 1_545
Os3 Ta10 2.966004 1_455
Os3 Ta7 2.966004 1_455
Os3 Ta1 2.966004 1_545
C0 Ta6 2.211455 1_555
C0 Ta4 2.211455 1_555
C0 Ta7 2.211518 1_555
C0 Ta1 2.211518 1_555
C0 Ta0 2.211518 1_555
C0 Ta10 2.211518 1_555
C1 Ta1 2.211488 1_555
C1 Ta7 2.211488 1_455
C1 Ta11 2.211499 1_455
C1 Ta3 2.211499 1_555
C1 Ta9 2.211518 1_455
C1 Ta5 2.211518 1_555
C2 Ta10 2.211488 1_555
C2 Ta0 2.211488 1_545
C2 Ta8 2.211499 1_545
C2 Ta2 2.211499 1_555
C2 Ta9 2.211518 1_545
C2 Ta5 2.211518 1_555
C3 Ta4 2.211461 1_555
C3 Ta6 2.211461 1_554
C3 Ta11 2.211538 1_554
C3 Ta3 2.211538 1_555
C3 Ta8 2.211538 1_554
C3 Ta2 2.211538 1_555
