# generated using pymatgen
data_K4In3GeI16
_symmetry_space_group_name_H-M   'P 1'
_cell_length_a   8.18560906
_cell_length_b   8.30849325
_cell_length_c   16.73824654
_cell_angle_alpha   82.39953593
_cell_angle_beta   90.10915085
_cell_angle_gamma   90.25707004
_symmetry_Int_Tables_number   1
_chemical_formula_structural   K4In3GeI16
_chemical_formula_sum   'K4 In3 Ge1 I16'
_cell_volume   1128.35592193
_cell_formula_units_Z   1
loop_
 _symmetry_equiv_pos_site_id
 _symmetry_equiv_pos_as_xyz
  1  'x, y, z'
loop_
 _atom_site_type_symbol
 _atom_site_label
 _atom_site_symmetry_multiplicity
 _atom_site_fract_x
 _atom_site_fract_y
 _atom_site_fract_z
 _atom_site_occupancy
  K  K0  1  0.49288659  0.25797621  0.64547926  1
  K  K1  1  0.99287588  0.74167392  0.85548646  1
  K  K2  1  0.50662450  0.74226951  0.35578506  1
  K  K3  1  0.00793495  0.25901100  0.14341942  1
  In  In0  1  0.35904238  0.24283699  0.36310052  1
  In  In1  1  0.86084009  0.75765793  0.13680822  1
  In  In2  1  0.63891935  0.75823836  0.63724152  1
  Ge  Ge0  1  0.14336125  0.24089287  0.86311816  1
  I  I0  1  0.84639501  0.12743092  0.90990860  1
  I  I1  1  0.33809963  0.87454191  0.58805564  1
  I  I2  1  0.16144161  0.87652885  0.08765666  1
  I  I3  1  0.65947613  0.12469234  0.41192773  1
  I  I4  1  0.38592985  0.44230659  0.21876711  1
  I  I5  1  0.88685427  0.55956366  0.28134745  1
  I  I6  1  0.61061959  0.56108590  0.78206420  1
  I  I7  1  0.11307296  0.43279567  0.72190047  1
  I  I8  1  0.64763389  0.00094955  0.16015866  1
  I  I9  1  0.14534486  0.99887516  0.33850089  1
  I  I10  1  0.35423939  0.00057967  0.83855312  1
  I  I11  1  0.85318910  0.00211991  0.66128429  1
  I  I12  1  0.24166596  0.42917789  0.47367791  1
  I  I13  1  0.74174266  0.57079010  0.02646375  1
  I  I14  1  0.75683795  0.56845476  0.52826347  1
  I  I15  1  0.25497516  0.42955033  0.97103442  1
loop_
_geom_bond_atom_site_label_1
_geom_bond_atom_site_label_2
_geom_bond_distance
_geom_bond_site_symmetry_2
Ge0 I7 2.682399 1_555
Ge0 I0 2.683744 1_455
Ge0 I15 2.698945 1_555
Ge0 I10 2.717736 1_555
I0 K1 3.653881 1_545
I1 In2 2.734613 1_555
I1 K0 3.667072 1_565
I2 In1 2.734563 1_455
I2 K3 3.657013 1_565
I3 In0 2.735162 1_555
I3 K2 3.646073 1_545
I4 In0 2.751581 1_555
I4 K2 3.732085 1_555
I4 K3 3.732873 1_555
I5 In1 2.748680 1_555
I5 K2 3.755178 1_555
I5 K3 3.755523 1_655
I6 In2 2.749791 1_555
I6 K1 3.739415 1_555
I6 K0 3.740393 1_555
I7 K0 3.736179 1_555
I7 K1 3.755349 1_455
I8 In1 2.743686 1_545
I8 K3 3.627870 1_655
I8 K2 3.847597 1_545
I9 In0 2.743021 1_565
I9 K2 3.642100 1_555
I9 K3 3.839240 1_565
I10 K1 3.638970 1_445
I10 K0 3.803880 1_555
I11 In2 2.743208 1_545
I11 K0 3.632051 1_555
I11 K1 3.834540 1_545
I12 In0 2.742984 1_555
I12 K0 3.666487 1_555
I12 K2 3.737986 1_555
I13 In1 2.740504 1_555
I13 K1 3.654208 1_554
I13 K3 3.739429 1_655
I14 In2 2.743464 1_555
I14 K2 3.676449 1_555
I14 K0 3.714740 1_555
I15 K3 3.652060 1_556
I15 K1 3.711601 1_455
