# generated using pymatgen
data_K2RbSbS3
_symmetry_space_group_name_H-M   'P 1'
_cell_length_a   9.60813889
_cell_length_b   9.60813889
_cell_length_c   9.60813889
_cell_angle_alpha   90.00000000
_cell_angle_beta   90.00000000
_cell_angle_gamma   90.00000000
_symmetry_Int_Tables_number   1
_chemical_formula_structural   K2RbSbS3
_chemical_formula_sum   'K8 Rb4 Sb4 S12'
_cell_volume   886.98814772
_cell_formula_units_Z   4
loop_
 _symmetry_equiv_pos_site_id
 _symmetry_equiv_pos_as_xyz
  1  'x, y, z'
loop_
 _atom_site_type_symbol
 _atom_site_label
 _atom_site_symmetry_multiplicity
 _atom_site_fract_x
 _atom_site_fract_y
 _atom_site_fract_z
 _atom_site_occupancy
  K  K0  1  0.18689437  0.68689437  0.81310563  1
  K  K1  1  0.68689437  0.81310563  0.18689437  1
  K  K2  1  0.81310563  0.18689437  0.68689437  1
  K  K3  1  0.31310563  0.31310563  0.31310563  1
  K  K4  1  0.69167852  0.19167852  0.30832148  1
  K  K5  1  0.19167852  0.30832148  0.69167852  1
  K  K6  1  0.30832148  0.69167852  0.19167852  1
  K  K7  1  0.80832148  0.80832148  0.80832148  1
  Rb  Rb0  1  0.92817443  0.42817443  0.07182557  1
  Rb  Rb1  1  0.42817443  0.07182557  0.92817443  1
  Rb  Rb2  1  0.07182557  0.92817443  0.42817443  1
  Rb  Rb3  1  0.57182557  0.57182557  0.57182557  1
  Sb  Sb0  1  0.47450749  0.97450749  0.52549251  1
  Sb  Sb1  1  0.97450749  0.52549251  0.47450749  1
  Sb  Sb2  1  0.52549251  0.47450749  0.97450749  1
  Sb  Sb3  1  0.02549251  0.02549251  0.02549251  1
  S  S0  1  0.00386652  0.78185741  0.09153157  1
  S  S1  1  0.90846843  0.50386652  0.71814259  1
  S  S2  1  0.28185741  0.40846843  0.99613348  1
  S  S3  1  0.50386652  0.71814259  0.90846843  1
  S  S4  1  0.40846843  0.99613348  0.28185741  1
  S  S5  1  0.78185741  0.09153157  0.00386652  1
  S  S6  1  0.99613348  0.28185741  0.40846843  1
  S  S7  1  0.09153157  0.00386652  0.78185741  1
  S  S8  1  0.71814259  0.90846843  0.50386652  1
  S  S9  1  0.49613348  0.21814259  0.59153157  1
  S  S10  1  0.59153157  0.49613348  0.21814259  1
  S  S11  1  0.21814259  0.59153157  0.49613348  1
loop_
_geom_bond_atom_site_label_1
_geom_bond_atom_site_label_2
_geom_bond_distance
_geom_bond_site_symmetry_2
K0 S7 3.194498 1_565
K0 S11 3.194498 1_555
K0 S3 3.194498 1_555
K0 S1 3.328886 1_455
K0 S0 3.328886 1_556
K0 S2 3.328886 1_555
K1 S0 3.194498 1_655
K1 S8 3.194498 1_555
K1 S10 3.194498 1_555
K1 S3 3.328886 1_554
K1 S5 3.328886 1_565
K1 S4 3.328886 1_555
K2 S5 3.194498 1_556
K2 S1 3.194498 1_555
K2 S9 3.194498 1_555
K2 S8 3.328886 1_545
K2 S7 3.328886 1_655
K2 S6 3.328886 1_555
K3 S4 3.194498 1_545
K3 S2 3.194498 1_554
K3 S6 3.194498 1_455
K3 S11 3.328886 1_555
K3 S9 3.328886 1_555
K3 S10 3.328886 1_555
K4 S5 3.199012 1_555
K4 S6 3.199012 1_555
K4 S10 3.199012 1_555
K4 S8 3.316495 1_545
K4 S4 3.316495 1_545
K4 S9 3.316495 1_555
K5 S7 3.199012 1_555
K5 S2 3.199012 1_555
K5 S9 3.199012 1_555
K5 S1 3.316495 1_455
K5 S6 3.316495 1_455
K5 S11 3.316495 1_555
K6 S4 3.199012 1_555
K6 S0 3.199012 1_555
K6 S11 3.199012 1_555
K6 S3 3.316495 1_554
K6 S2 3.316495 1_554
K6 S10 3.316495 1_555
K7 S8 3.199012 1_555
K7 S3 3.199012 1_555
K7 S1 3.199012 1_555
K7 S5 3.316495 1_566
K7 S0 3.316495 1_656
K7 S7 3.316495 1_665
Rb0 S2 3.480339 1_654
Rb0 S1 3.480339 1_554
Rb0 S0 3.480339 1_655
Rb0 S5 3.586752 1_555
Rb0 S6 3.586752 1_555
Rb0 S10 3.586752 1_555
Rb1 S4 3.480339 1_546
Rb1 S3 3.480339 1_545
Rb1 S5 3.480339 1_556
Rb1 S7 3.586752 1_555
Rb1 S2 3.586752 1_555
Rb1 S9 3.586752 1_555
Rb2 S6 3.480339 1_465
Rb2 S8 3.480339 1_455
Rb2 S7 3.480339 1_565
Rb2 S0 3.586752 1_555
Rb2 S11 3.586752 1_555
Rb2 S4 3.586752 1_555
Rb3 S9 3.480339 1_555
Rb3 S10 3.480339 1_555
Rb3 S11 3.480339 1_555
Rb3 S8 3.586752 1_555
Rb3 S1 3.586752 1_555
Rb3 S3 3.586752 1_555
S0 Sb3 2.434235 1_565
S1 Sb1 2.434235 1_555
S2 Sb2 2.434235 1_555
S3 Sb2 2.434235 1_555
S4 Sb0 2.434235 1_555
S5 Sb3 2.434235 1_655
S6 Sb1 2.434235 1_555
S7 Sb3 2.434235 1_556
S8 Sb0 2.434235 1_555
S9 Sb0 2.434235 1_545
S10 Sb2 2.434235 1_554
S11 Sb1 2.434235 1_455
