# generated using pymatgen
data_Y4SiAsSe2
_symmetry_space_group_name_H-M   'P 1'
_cell_length_a   7.12798209
_cell_length_b   7.12798162
_cell_length_c   7.12798132
_cell_angle_alpha   132.05169219
_cell_angle_beta   132.05168642
_cell_angle_gamma   70.14740214
_symmetry_Int_Tables_number   1
_chemical_formula_structural   Y4SiAsSe2
_chemical_formula_sum   'Y4 Si1 As1 Se2'
_cell_volume   195.73955830
_cell_formula_units_Z   1
loop_
 _symmetry_equiv_pos_site_id
 _symmetry_equiv_pos_as_xyz
  1  'x, y, z'
loop_
 _atom_site_type_symbol
 _atom_site_label
 _atom_site_symmetry_multiplicity
 _atom_site_fract_x
 _atom_site_fract_y
 _atom_site_fract_z
 _atom_site_occupancy
  Y  Y0  1  0.24560376  0.24560376  0.00000000  1
  Y  Y1  1  0.75439624  0.75439624  1.00000000  1
  Y  Y2  1  0.50767935  0.00767935  0.50000000  1
  Y  Y3  1  0.99232065  0.49232065  0.50000000  1
  Si  Si0  1  0.75000000  0.25000000  0.50000000  1
  As  As0  1  0.00000000  0.00000000  0.00000000  1
  Se  Se0  1  0.25000000  0.75000000  0.50000000  1
  Se  Se1  1  0.50000000  0.50000000  0.00000000  1
loop_
_geom_bond_atom_site_label_1
_geom_bond_atom_site_label_2
_geom_bond_distance
_geom_bond_site_symmetry_2
Si0 Y3 2.827221 1_555
Si0 Y2 2.827221 1_555
Si0 Y1 2.896728 1_544
Si0 Y1 2.896728 1_555
Si0 Y0 2.896728 1_656
Si0 Y0 2.896728 1_555
As0 Y0 2.865526 1_555
As0 Y1 2.865526 1_444
As0 Y3 2.897659 1_455
As0 Y3 2.897659 1_444
As0 Y2 2.897659 1_454
As0 Y2 2.897659 1_555
Se0 Y0 2.896728 1_566
Se0 Y0 2.896728 1_555
Se0 Y1 2.896728 1_454
Se0 Y1 2.896728 1_555
Se0 Y2 3.006416 1_565
Se0 Y3 3.006416 1_455
Se1 Y2 2.897659 1_554
Se1 Y2 2.897659 1_565
Se1 Y3 2.897659 1_555
Se1 Y3 2.897659 1_454
Se1 Y1 2.968111 1_554
Se1 Y0 2.968111 1_555
