# generated using pymatgen
data_K2AlFeO4
_symmetry_space_group_name_H-M   'P 1'
_cell_length_a   5.58528706
_cell_length_b   5.56024091
_cell_length_c   9.63578107
_cell_angle_alpha   54.86841143
_cell_angle_beta   90.00000000
_cell_angle_gamma   90.00000000
_symmetry_Int_Tables_number   1
_chemical_formula_structural   K2AlFeO4
_chemical_formula_sum   'K4 Al2 Fe2 O8'
_cell_volume   244.73181913
_cell_formula_units_Z   2
loop_
 _symmetry_equiv_pos_site_id
 _symmetry_equiv_pos_as_xyz
  1  'x, y, z'
loop_
 _atom_site_type_symbol
 _atom_site_label
 _atom_site_symmetry_multiplicity
 _atom_site_fract_x
 _atom_site_fract_y
 _atom_site_fract_z
 _atom_site_occupancy
  K  K0  1  0.28316635  0.26388761  0.24838735  1
  K  K1  1  0.78562411  0.51601075  0.99550372  1
  K  K2  1  0.71683365  0.26388761  0.74838735  1
  K  K3  1  0.21437589  0.51601075  0.49550372  1
  Al  Al0  1  0.70517738  0.74597825  0.24685175  1
  Al  Al1  1  0.29482262  0.74597825  0.74685175  1
  Fe  Fe0  1  0.20645813  0.99672500  0.99734434  1
  Fe  Fe1  1  0.79354187  0.99672500  0.49734434  1
  O  O0  1  0.73691739  0.38063312  0.30895360  1
  O  O1  1  0.23413404  0.74829614  0.92529867  1
  O  O2  1  0.10983239  0.97683748  0.57020355  1
  O  O3  1  0.59389321  0.86023466  0.68455602  1
  O  O4  1  0.26308261  0.38063312  0.80895360  1
  O  O5  1  0.76586596  0.74829614  0.42529867  1
  O  O6  1  0.89016761  0.97683748  0.07020355  1
  O  O7  1  0.40610679  0.86023466  0.18455602  1
loop_
_geom_bond_atom_site_label_1
_geom_bond_atom_site_label_2
_geom_bond_distance
_geom_bond_site_symmetry_2
K0 O1 2.714958 1_554
K0 O2 2.721092 1_545
K0 O7 2.734219 1_545
K0 O0 2.760580 1_555
K0 O7 3.081773 1_555
K0 O0 3.241344 1_455
K1 O0 2.673281 1_556
K1 O3 2.680912 1_555
K1 O6 2.713505 1_546
K1 O1 2.719466 1_655
K1 O6 3.089842 1_556
K1 O1 3.256994 1_555
K2 O5 2.714958 1_555
K2 O6 2.721092 1_546
K2 O3 2.734219 1_545
K2 O4 2.760580 1_555
K2 O3 3.081773 1_555
K2 O4 3.241344 1_655
K3 O4 2.673281 1_555
K3 O7 2.680912 1_555
K3 O2 2.713505 1_545
K3 O5 2.719466 1_455
K3 O2 3.089842 1_555
K3 O5 3.256994 1_555
Al0 O5 1.759876 1_555
Al0 O6 1.760084 1_555
Al0 O7 1.765005 1_555
Al0 O0 1.765526 1_555
Al1 O1 1.759876 1_555
Al1 O2 1.760084 1_555
Al1 O3 1.765005 1_555
Al1 O4 1.765526 1_555
Fe0 O4 1.868736 1_565
Fe0 O7 1.870272 1_556
Fe0 O1 1.875511 1_555
Fe0 O6 1.880570 1_456
Fe1 O0 1.868736 1_565
Fe1 O3 1.870272 1_555
Fe1 O5 1.875511 1_555
Fe1 O2 1.880570 1_655
