# generated using pymatgen
data_Ca5SnP2
_symmetry_space_group_name_H-M   'P 1'
_cell_length_a   9.02863903
_cell_length_b   9.02863947
_cell_length_c   9.02863842
_cell_angle_alpha   128.30215024
_cell_angle_beta   128.30215325
_cell_angle_gamma   76.13606484
_symmetry_Int_Tables_number   1
_chemical_formula_structural   Ca5SnP2
_chemical_formula_sum   'Ca10 Sn2 P4'
_cell_volume   440.58328455
_cell_formula_units_Z   2
loop_
 _symmetry_equiv_pos_site_id
 _symmetry_equiv_pos_as_xyz
  1  'x, y, z'
loop_
 _atom_site_type_symbol
 _atom_site_label
 _atom_site_symmetry_multiplicity
 _atom_site_fract_x
 _atom_site_fract_y
 _atom_site_fract_z
 _atom_site_occupancy
  Ca  Ca0  1  0.78644168  0.28644168  0.81686834  1
  Ca  Ca1  1  0.21355832  0.71355832  0.18313166  1
  Ca  Ca2  1  0.46957334  0.96957334  0.18313166  1
  Ca  Ca3  1  0.28644168  0.46957334  0.50000000  1
  Ca  Ca4  1  0.03042666  0.21355832  0.50000000  1
  Ca  Ca5  1  0.53042666  0.03042666  0.81686834  1
  Ca  Ca6  1  0.71355832  0.53042666  0.50000000  1
  Ca  Ca7  1  0.96957334  0.78644168  0.50000000  1
  Ca  Ca8  1  0.00000000  0.00000000  0.00000000  1
  Ca  Ca9  1  0.50000000  0.50000000  0.00000000  1
  Sn  Sn0  1  0.25000000  0.25000000  0.00000000  1
  Sn  Sn1  1  0.75000000  0.75000000  0.00000000  1
  P  P0  1  0.15304592  0.65304592  0.80609284  1
  P  P1  1  0.84695408  0.34695408  0.19390716  1
  P  P2  1  0.65304592  0.84695408  0.50000000  1
  P  P3  1  0.34695408  0.15304592  0.50000000  1
loop_
_geom_bond_atom_site_label_1
_geom_bond_atom_site_label_2
_geom_bond_distance
_geom_bond_site_symmetry_2
Ca0 P1 2.777999 1_556
Ca0 P3 3.054014 1_555
Ca0 P2 3.054015 1_545
Ca0 Sn0 3.434383 1_656
Ca0 Sn1 3.434384 1_556
Ca1 P0 2.777999 1_554
Ca1 P2 3.054014 1_555
Ca1 P3 3.054015 1_565
Ca1 Sn1 3.434383 1_455
Ca1 Sn0 3.434384 1_555
Ca2 P0 2.778009 1_554
Ca2 P2 3.054014 1_555
Ca2 P3 3.054014 1_565
Ca2 Sn1 3.434383 1_555
Ca2 Sn0 3.434383 1_565
Ca3 P3 2.778008 1_555
Ca3 P1 3.054013 1_455
Ca3 P0 3.054022 1_555
Ca3 Sn0 3.434383 1_555
Ca3 Sn1 3.434383 1_556
Ca4 P3 2.778008 1_555
Ca4 P0 3.054013 1_555
Ca4 P1 3.054022 1_455
Ca4 Sn0 3.434383 1_556
Ca4 Sn1 3.434383 1_445
Ca5 P1 2.778009 1_556
Ca5 P3 3.054014 1_555
Ca5 P2 3.054014 1_545
Ca5 Sn0 3.434383 1_556
Ca5 Sn1 3.434383 1_546
Ca6 P2 2.778008 1_555
Ca6 P0 3.054013 1_655
Ca6 P1 3.054022 1_555
Ca6 Sn1 3.434383 1_556
Ca6 Sn0 3.434383 1_555
Ca7 P2 2.778008 1_555
Ca7 P1 3.054013 1_555
Ca7 P0 3.054022 1_655
Ca7 Sn1 3.434383 1_555
Ca7 Sn0 3.434383 1_666
Ca8 P1 2.985506 1_455
Ca8 P0 2.985506 1_544
Ca8 P2 2.985508 1_444
Ca8 P3 2.985508 1_555
Ca8 Sn0 3.554030 1_555
Ca8 Sn1 3.554030 1_445
Ca9 P1 2.985506 1_555
Ca9 P0 2.985506 1_554
Ca9 P3 2.985508 1_554
Ca9 P2 2.985508 1_555
Ca9 Sn0 3.554030 1_555
Ca9 Sn1 3.554030 1_555
