# generated using pymatgen
data_Sr4Cu3Rh
_symmetry_space_group_name_H-M   'P 1'
_cell_length_a   4.26899632
_cell_length_b   4.26899567
_cell_length_c   15.76690982
_cell_angle_alpha   90.00000000
_cell_angle_beta   90.00000000
_cell_angle_gamma   119.99999018
_symmetry_Int_Tables_number   1
_chemical_formula_structural   Sr4Cu3Rh
_chemical_formula_sum   'Sr4 Cu3 Rh1'
_cell_volume   248.84490471
_cell_formula_units_Z   1
loop_
 _symmetry_equiv_pos_site_id
 _symmetry_equiv_pos_as_xyz
  1  'x, y, z'
loop_
 _atom_site_type_symbol
 _atom_site_label
 _atom_site_symmetry_multiplicity
 _atom_site_fract_x
 _atom_site_fract_y
 _atom_site_fract_z
 _atom_site_occupancy
  Sr  Sr0  1  0.33333300  0.66666700  0.37555841  1
  Sr  Sr1  1  0.66666700  0.33333300  0.62174760  1
  Sr  Sr2  1  0.66666700  0.33333300  0.87825240  1
  Sr  Sr3  1  0.33333300  0.66666700  0.12444159  1
  Cu  Cu0  1  0.00000000  0.00000000  0.75000000  1
  Cu  Cu1  1  0.33333300  0.66666700  0.75000000  1
  Cu  Cu2  1  0.66666700  0.33333300  0.25000000  1
  Rh  Rh0  1  0.00000000  0.00000000  0.25000000  1
loop_
_geom_bond_atom_site_label_1
_geom_bond_atom_site_label_2
_geom_bond_distance
_geom_bond_site_symmetry_2
Cu0 Cu1 2.464703 1_545
Cu0 Cu1 2.464707 1_555
Cu0 Cu1 2.464708 1_445
Cu0 Sr2 3.188076 1_455
Cu0 Sr1 3.188076 1_455
Cu0 Sr2 3.188079 1_445
Cu0 Sr1 3.188079 1_445
Cu0 Sr2 3.188079 1_555
Cu0 Sr1 3.188079 1_555
Cu1 Sr2 3.188076 1_565
Cu1 Sr1 3.188076 1_565
Cu1 Sr2 3.188077 1_455
Cu1 Sr1 3.188077 1_455
Cu1 Sr2 3.188082 1_555
Cu1 Sr1 3.188082 1_555
Cu2 Rh0 2.464703 1_655
Cu2 Rh0 2.464707 1_665
Cu2 Rh0 2.464708 1_555
Cu2 Sr0 3.161305 1_545
Cu2 Sr3 3.161305 1_545
Cu2 Sr0 3.161305 1_655
Cu2 Sr3 3.161305 1_655
Cu2 Sr0 3.161311 1_555
Cu2 Sr3 3.161311 1_555
Rh0 Sr0 3.161305 1_545
Rh0 Sr3 3.161305 1_545
Rh0 Sr0 3.161308 1_555
Rh0 Sr3 3.161308 1_555
Rh0 Sr0 3.161308 1_445
Rh0 Sr3 3.161308 1_445
