# generated using pymatgen
data_Cs3RbPbBr6
_symmetry_space_group_name_H-M   'P 1'
_cell_length_a   9.77364526
_cell_length_b   9.77364590
_cell_length_c   9.77364572
_cell_angle_alpha   90.36838699
_cell_angle_beta   90.36838637
_cell_angle_gamma   90.36838789
_symmetry_Int_Tables_number   1
_chemical_formula_structural   Cs3RbPbBr6
_chemical_formula_sum   'Cs6 Rb2 Pb2 Br12'
_cell_volume   933.56103734
_cell_formula_units_Z   2
loop_
 _symmetry_equiv_pos_site_id
 _symmetry_equiv_pos_as_xyz
  1  'x, y, z'
loop_
 _atom_site_type_symbol
 _atom_site_label
 _atom_site_symmetry_multiplicity
 _atom_site_fract_x
 _atom_site_fract_y
 _atom_site_fract_z
 _atom_site_occupancy
  Cs  Cs0  1  0.75000000  0.12851565  0.37148435  1
  Cs  Cs1  1  0.37148435  0.75000000  0.12851565  1
  Cs  Cs2  1  0.12851565  0.37148435  0.75000000  1
  Cs  Cs3  1  0.25000000  0.87148435  0.62851565  1
  Cs  Cs4  1  0.62851565  0.25000000  0.87148435  1
  Cs  Cs5  1  0.87148435  0.62851565  0.25000000  1
  Rb  Rb0  1  0.25000000  0.25000000  0.25000000  1
  Rb  Rb1  1  0.75000000  0.75000000  0.75000000  1
  Pb  Pb0  1  0.00000000  0.00000000  0.00000000  1
  Pb  Pb1  1  0.50000000  0.50000000  0.50000000  1
  Br  Br0  1  0.44660689  0.57706816  0.79675119  1
  Br  Br1  1  0.79675119  0.44660689  0.57706816  1
  Br  Br2  1  0.57706816  0.79675119  0.44660689  1
  Br  Br3  1  0.05339311  0.70324881  0.92293184  1
  Br  Br4  1  0.92293184  0.05339311  0.70324881  1
  Br  Br5  1  0.70324881  0.92293184  0.05339311  1
  Br  Br6  1  0.55339311  0.42293184  0.20324881  1
  Br  Br7  1  0.20324881  0.55339311  0.42293184  1
  Br  Br8  1  0.42293184  0.20324881  0.55339311  1
  Br  Br9  1  0.94660689  0.29675119  0.07706816  1
  Br  Br10  1  0.29675119  0.07706816  0.94660689  1
  Br  Br11  1  0.07706816  0.94660689  0.29675119  1
loop_
_geom_bond_atom_site_label_1
_geom_bond_atom_site_label_2
_geom_bond_distance
_geom_bond_site_symmetry_2
Br0 Pb1 3.041067 1_555
Br0 Rb1 3.438187 1_555
Br0 Cs2 3.714971 1_555
Br0 Cs1 3.726391 1_556
Br0 Cs4 3.741583 1_555
Br0 Cs3 3.842849 1_555
Br1 Pb1 3.041067 1_555
Br1 Rb1 3.438187 1_555
Br1 Cs0 3.714971 1_555
Br1 Cs2 3.726391 1_655
Br1 Cs5 3.741583 1_555
Br1 Cs4 3.842849 1_555
Br2 Pb1 3.041067 1_555
Br2 Rb1 3.438187 1_555
Br2 Cs1 3.714971 1_555
Br2 Cs0 3.726391 1_565
Br2 Cs3 3.741583 1_555
Br2 Cs5 3.842849 1_555
Br3 Pb0 3.041067 1_566
Br3 Rb1 3.438187 1_455
Br3 Cs1 3.714971 1_556
Br3 Cs2 3.726391 1_555
Br3 Cs5 3.741583 1_456
Br3 Cs3 3.842849 1_555
Br4 Pb0 3.041067 1_656
Br4 Rb1 3.438187 1_545
Br4 Cs2 3.714971 1_655
Br4 Cs0 3.726391 1_555
Br4 Cs3 3.741583 1_645
Br4 Cs4 3.842849 1_555
Br5 Pb0 3.041067 1_665
Br5 Rb1 3.438187 1_554
Br5 Cs0 3.714971 1_565
Br5 Cs1 3.726391 1_555
Br5 Cs4 3.741583 1_564
Br5 Cs5 3.842849 1_555
Br6 Pb1 3.041067 1_555
Br6 Rb0 3.438187 1_555
Br6 Cs5 3.714971 1_555
Br6 Cs4 3.726391 1_554
Br6 Cs1 3.741583 1_555
Br6 Cs0 3.842849 1_555
Br7 Pb1 3.041067 1_555
Br7 Rb0 3.438187 1_555
Br7 Cs3 3.714971 1_555
Br7 Cs5 3.726391 1_455
Br7 Cs2 3.741583 1_555
Br7 Cs1 3.842849 1_555
Br8 Pb1 3.041067 1_555
Br8 Rb0 3.438187 1_555
Br8 Cs4 3.714971 1_555
Br8 Cs3 3.726391 1_545
Br8 Cs0 3.741583 1_555
Br8 Cs2 3.842849 1_555
Br9 Pb0 3.041067 1_655
Br9 Rb0 3.438187 1_655
Br9 Cs4 3.714971 1_554
Br9 Cs5 3.726391 1_555
Br9 Cs2 3.741583 1_654
Br9 Cs0 3.842849 1_555
Br10 Pb0 3.041067 1_556
Br10 Rb0 3.438187 1_556
Br10 Cs3 3.714971 1_545
Br10 Cs4 3.726391 1_555
Br10 Cs1 3.741583 1_546
Br10 Cs2 3.842849 1_555
Br11 Pb0 3.041067 1_565
Br11 Rb0 3.438187 1_565
Br11 Cs5 3.714971 1_455
Br11 Cs3 3.726391 1_555
Br11 Cs0 3.741583 1_465
Br11 Cs1 3.842849 1_555
