# generated using pymatgen
data_Hf7Zr(ScSn3)2
_symmetry_space_group_name_H-M   'P 1'
_cell_length_a   8.42162981
_cell_length_b   8.44237348
_cell_length_c   5.77280942
_cell_angle_alpha   90.00000000
_cell_angle_beta   90.00000000
_cell_angle_gamma   120.21503292
_symmetry_Int_Tables_number   1
_chemical_formula_structural   Hf7Zr(ScSn3)2
_chemical_formula_sum   'Hf7 Zr1 Sc2 Sn6'
_cell_volume   354.67733843
_cell_formula_units_Z   1
loop_
 _symmetry_equiv_pos_site_id
 _symmetry_equiv_pos_as_xyz
  1  'x, y, z'
loop_
 _atom_site_type_symbol
 _atom_site_label
 _atom_site_symmetry_multiplicity
 _atom_site_fract_x
 _atom_site_fract_y
 _atom_site_fract_z
 _atom_site_occupancy
  Hf  Hf0  1  0.99932059  0.25147307  0.75000000  1
  Hf  Hf1  1  0.75762172  0.00101029  0.25000000  1
  Hf  Hf2  1  0.00005753  0.75265940  0.25000000  1
  Hf  Hf3  1  0.66725881  0.33226019  0.00039425  1
  Hf  Hf4  1  0.33225669  0.66406710  0.00031609  1
  Hf  Hf5  1  0.33225669  0.66406710  0.49968391  1
  Hf  Hf6  1  0.66725881  0.33226019  0.49960575  1
  Zr  Zr0  1  0.24083495  0.24158692  0.25000000  1
  Sc  Sc0  1  0.75669556  0.75849376  0.75000000  1
  Sc  Sc1  1  0.24572768  0.00118019  0.75000000  1
  Sn  Sn0  1  0.39246580  0.39121973  0.75000000  1
  Sn  Sn1  1  0.60761937  0.99856033  0.75000000  1
  Sn  Sn2  1  0.99995774  0.61114081  0.75000000  1
  Sn  Sn3  1  0.60995413  0.60965153  0.25000000  1
  Sn  Sn4  1  0.39176099  0.99840129  0.25000000  1
  Sn  Sn5  1  0.99895094  0.39196909  0.25000000  1
loop_
_geom_bond_atom_site_label_1
_geom_bond_atom_site_label_2
_geom_bond_distance
_geom_bond_site_symmetry_2
Hf0 Sn1 2.889921 1_545
Hf0 Sn0 2.902164 1_655
Hf0 Sn2 3.033753 1_555
Hf0 Sn5 3.121208 1_555
Hf0 Sn5 3.121208 1_556
Hf0 Hf1 3.551575 1_556
Hf0 Hf1 3.551575 1_555
Hf0 Zr0 3.556134 1_656
Hf0 Zr0 3.556134 1_655
Hf1 Sn5 2.876281 1_555
Hf1 Sn3 2.885724 1_545
Hf1 Sn4 3.070118 1_545
Hf1 Sn1 3.146633 1_544
Hf1 Sn1 3.146633 1_545
Hf1 Zr0 3.516620 1_655
Hf1 Sc0 3.536556 1_544
Hf1 Sc0 3.536556 1_545
Hf1 Hf3 3.552182 1_555
Hf1 Hf6 3.552182 1_555
Hf1 Hf4 3.570108 1_545
Hf1 Hf5 3.570108 1_545
Hf1 Hf2 3.587920 1_645
Hf2 Sn3 2.873792 1_455
Hf2 Sn4 2.880603 1_555
Hf2 Sn5 3.040403 1_455
Hf2 Sn2 3.123741 1_455
Hf2 Sn2 3.123741 1_454
Hf2 Zr0 3.567273 1_565
Hf3 Hf6 2.881853 1_555
Hf3 Hf6 2.890957 1_554
Hf3 Sn5 2.952311 1_555
Hf3 Sn4 2.970133 1_545
Hf3 Sn2 2.973809 1_554
Hf3 Sn0 2.975250 1_554
Hf3 Sn1 2.975606 1_544
Hf3 Sn3 2.988461 1_555
Hf3 Zr0 3.576586 1_555
Hf4 Hf5 2.882755 1_555
Hf4 Hf5 2.890054 1_554
Hf4 Sn5 2.956971 1_455
Hf4 Sn0 2.970995 1_554
Hf4 Sn3 2.973099 1_555
Hf4 Sn1 2.974759 1_554
Hf4 Sn2 2.976709 1_454
Hf4 Sn4 2.978586 1_555
Hf4 Zr0 3.553592 1_555
Hf5 Sn5 2.956971 1_455
Hf5 Sn0 2.970995 1_555
Hf5 Sn3 2.973099 1_555
Hf5 Sn1 2.974759 1_555
Hf5 Sn2 2.976709 1_455
Hf5 Sn4 2.978586 1_555
Hf5 Zr0 3.553592 1_555
Hf6 Sn5 2.952311 1_555
Hf6 Sn4 2.970133 1_545
Hf6 Sn2 2.973809 1_555
Hf6 Sn0 2.975250 1_555
Hf6 Sn1 2.975606 1_545
Hf6 Sn3 2.988461 1_555
Hf6 Zr0 3.576586 1_555
Sc0 Sn1 2.871384 1_555
Sc0 Sn2 2.882653 1_555
Sc0 Sn0 3.074142 1_555
Sc0 Sn3 3.142382 1_555
Sc0 Sn3 3.142382 1_556
Sc1 Sn2 2.875267 1_445
Sc1 Sn0 2.876527 1_555
Sc1 Sn1 3.058908 1_545
Sc1 Sn4 3.142201 1_546
Sc1 Sn4 3.142201 1_545
Sc1 Zr0 3.540691 1_556
Sc1 Zr0 3.540691 1_555
Sn0 Zr0 3.151856 1_555
Sn0 Zr0 3.151856 1_556
Sn3 Zr0 3.097855 1_555
Sn4 Zr0 2.908109 1_565
Sn5 Zr0 2.892136 1_655
