# generated using pymatgen
data_BaP2IrOs
_symmetry_space_group_name_H-M   'P 1'
_cell_length_a   6.88741307
_cell_length_b   6.88741320
_cell_length_c   6.88741441
_cell_angle_alpha   146.03893757
_cell_angle_beta   146.03894353
_cell_angle_gamma   48.78892580
_symmetry_Int_Tables_number   1
_chemical_formula_structural   BaP2IrOs
_chemical_formula_sum   'Ba1 P2 Ir1 Os1'
_cell_volume   101.51254365
_cell_formula_units_Z   1
loop_
 _symmetry_equiv_pos_site_id
 _symmetry_equiv_pos_as_xyz
  1  'x, y, z'
loop_
 _atom_site_type_symbol
 _atom_site_label
 _atom_site_symmetry_multiplicity
 _atom_site_fract_x
 _atom_site_fract_y
 _atom_site_fract_z
 _atom_site_occupancy
  Ba  Ba0  1  0.00000000  0.00000000  0.00000000  1
  P  P0  1  0.65436084  0.65436084  0.00000000  1
  P  P1  1  0.34563916  0.34563916  1.00000000  1
  Ir  Ir0  1  0.25000000  0.75000000  0.50000000  1
  Os  Os0  1  0.75000000  0.25000000  0.50000000  1
loop_
_geom_bond_atom_site_label_1
_geom_bond_atom_site_label_2
_geom_bond_distance
_geom_bond_site_symmetry_2
Ba0 P0 3.441182 1_556
Ba0 P1 3.441182 1_443
Ba0 P0 3.441182 1_545
Ba0 P1 3.441182 1_454
Ba0 P0 3.441182 1_455
Ba0 P1 3.441182 1_544
Ba0 P0 3.441183 1_444
Ba0 P1 3.441183 1_555
Ir0 P0 2.342100 1_455
Ir0 P1 2.342100 1_565
Ir0 P0 2.342101 1_556
Ir0 P1 2.342101 1_554
Os0 P1 2.342100 1_655
Os0 P0 2.342100 1_545
Os0 P1 2.342101 1_554
Os0 P0 2.342101 1_556
