# generated using pymatgen
data_Zr4CuSe
_symmetry_space_group_name_H-M   'P 1'
_cell_length_a   5.36734873
_cell_length_b   5.36734971
_cell_length_c   5.36734953
_cell_angle_alpha   104.99120355
_cell_angle_beta   104.99120535
_cell_angle_gamma   118.85916963
_symmetry_Int_Tables_number   1
_chemical_formula_structural   Zr4CuSe
_chemical_formula_sum   'Zr4 Cu1 Se1'
_cell_volume   116.59889102
_cell_formula_units_Z   1
loop_
 _symmetry_equiv_pos_site_id
 _symmetry_equiv_pos_as_xyz
  1  'x, y, z'
loop_
 _atom_site_type_symbol
 _atom_site_label
 _atom_site_symmetry_multiplicity
 _atom_site_fract_x
 _atom_site_fract_y
 _atom_site_fract_z
 _atom_site_occupancy
  Zr  Zr0  1  0.40525351  0.90525351  0.81050702  1
  Zr  Zr1  1  0.09474649  0.59474649  0.18949298  1
  Zr  Zr2  1  0.59474649  0.40525351  0.50000000  1
  Zr  Zr3  1  0.90525351  0.09474649  0.50000000  1
  Cu  Cu0  1  0.50000000  0.50000000  0.00000000  1
  Se  Se0  1  0.00000000  0.00000000  0.00000000  1
loop_
_geom_bond_atom_site_label_1
_geom_bond_atom_site_label_2
_geom_bond_distance
_geom_bond_site_symmetry_2
Cu0 Se0 2.729817 1_665
Cu0 Se0 2.729817 1_555
Cu0 Zr1 2.822936 1_655
Cu0 Zr1 2.822936 1_555
Cu0 Zr2 2.822937 1_554
Cu0 Zr3 2.822937 1_454
Cu0 Zr2 2.822937 1_555
Cu0 Zr0 2.822937 1_554
Cu0 Zr0 2.822937 1_544
Cu0 Zr3 2.822937 1_565
Se0 Zr0 2.822936 1_444
Se0 Zr0 2.822936 1_544
Se0 Zr3 2.822937 1_455
Se0 Zr2 2.822937 1_555
Se0 Zr3 2.822937 1_454
Se0 Zr1 2.822937 1_545
Se0 Zr1 2.822937 1_555
Se0 Zr2 2.822937 1_444
