# generated using pymatgen
data_RbNa7(FeO3)2
_symmetry_space_group_name_H-M   'P 1'
_cell_length_a   5.77086368
_cell_length_b   5.77086322
_cell_length_c   10.65016101
_cell_angle_alpha   88.48939048
_cell_angle_beta   88.48939057
_cell_angle_gamma   44.97133903
_symmetry_Int_Tables_number   1
_chemical_formula_structural   RbNa7(FeO3)2
_chemical_formula_sum   'Rb1 Na7 Fe2 O6'
_cell_volume   250.56971632
_cell_formula_units_Z   1
loop_
 _symmetry_equiv_pos_site_id
 _symmetry_equiv_pos_as_xyz
  1  'x, y, z'
loop_
 _atom_site_type_symbol
 _atom_site_label
 _atom_site_symmetry_multiplicity
 _atom_site_fract_x
 _atom_site_fract_y
 _atom_site_fract_z
 _atom_site_occupancy
  Rb  Rb0  1  0.00000000  0.00000000  0.50000000  1
  Na  Na0  1  0.85916393  0.85916393  0.22176148  1
  Na  Na1  1  0.72621110  0.72621110  0.60467507  1
  Na  Na2  1  0.23525928  0.23525928  0.09579529  1
  Na  Na3  1  0.27378890  0.27378890  0.39532493  1
  Na  Na4  1  0.14083607  0.14083607  0.77823852  1
  Na  Na5  1  0.76474072  0.76474072  0.90420471  1
  Na  Na6  1  0.50000000  0.50000000  0.00000000  1
  Fe  Fe0  1  0.58649242  0.58649242  0.25586093  1
  Fe  Fe1  1  0.41350758  0.41350758  0.74413907  1
  O  O0  1  0.58418433  0.58418433  0.77373668  1
  O  O1  1  0.68064092  0.68064092  0.10443368  1
  O  O2  1  0.31935908  0.31935908  0.89556632  1
  O  O3  1  0.68925012  0.68925012  0.39339207  1
  O  O4  1  0.41581567  0.41581567  0.22626332  1
  O  O5  1  0.31074988  0.31074988  0.60660793  1
loop_
_geom_bond_atom_site_label_1
_geom_bond_atom_site_label_2
_geom_bond_distance
_geom_bond_site_symmetry_2
Na0 O4 2.289138 1_565
Na0 O4 2.289138 1_655
Na0 O1 2.306874 1_555
Na0 O3 2.536841 1_555
Na1 O3 2.295510 1_555
Na1 O0 2.319559 1_555
Na1 O5 2.384422 1_565
Na1 O5 2.384422 1_655
Na2 O1 2.283829 1_545
Na2 O1 2.283829 1_455
Na2 O2 2.289686 1_554
Na2 O4 2.406440 1_555
Na3 O5 2.295510 1_555
Na3 O4 2.319559 1_555
Na3 O3 2.384422 1_545
Na3 O3 2.384422 1_455
Na4 O0 2.289138 1_545
Na4 O0 2.289138 1_455
Na4 O2 2.306874 1_555
Na4 O5 2.536841 1_555
Na5 O2 2.283829 1_565
Na5 O2 2.283829 1_655
Na5 O1 2.289686 1_556
Na5 O0 2.406440 1_555
Na6 O1 2.251746 1_555
Na6 O2 2.251746 1_554
Na6 O4 2.547427 1_555
Na6 O0 2.547427 1_554
Fe0 O3 1.854151 1_555
Fe0 O4 1.856077 1_555
Fe0 O1 1.875247 1_555
Fe1 O5 1.854151 1_555
Fe1 O0 1.856077 1_555
Fe1 O2 1.875247 1_555
O3 Rb0 3.178482 1_655
O3 Rb0 3.178483 1_565
O5 Rb0 3.178482 1_565
O5 Rb0 3.178483 1_655
