# generated using pymatgen
data_Cs2P2W
_symmetry_space_group_name_H-M   'P 1'
_cell_length_a   8.74835546
_cell_length_b   8.74835577
_cell_length_c   8.74835631
_cell_angle_alpha   139.36765830
_cell_angle_beta   125.84503621
_cell_angle_gamma   69.84879357
_symmetry_Int_Tables_number   1
_chemical_formula_structural   Cs2P2W
_chemical_formula_sum   'Cs4 P4 W2'
_cell_volume   347.04210026
_cell_formula_units_Z   2
loop_
 _symmetry_equiv_pos_site_id
 _symmetry_equiv_pos_as_xyz
  1  'x, y, z'
loop_
 _atom_site_type_symbol
 _atom_site_label
 _atom_site_symmetry_multiplicity
 _atom_site_fract_x
 _atom_site_fract_y
 _atom_site_fract_z
 _atom_site_occupancy
  Cs  Cs0  1  0.00127361  0.15559015  0.84568245  1
  Cs  Cs1  1  0.99872639  0.84440985  0.15431755  1
  Cs  Cs2  1  0.69009230  0.34440985  0.34568245  1
  Cs  Cs3  1  0.30990770  0.65559015  0.65431755  1
  P  P0  1  0.75025694  0.58754800  0.16270894  1
  P  P1  1  0.57516093  0.91245200  0.66270894  1
  P  P2  1  0.42483907  0.08754800  0.33729106  1
  P  P3  1  0.24974306  0.41245200  0.83729106  1
  W  W0  1  0.50000000  0.75000000  0.25000000  1
  W  W1  1  0.50000000  0.25000000  0.75000000  1
loop_
_geom_bond_atom_site_label_1
_geom_bond_atom_site_label_2
_geom_bond_distance
_geom_bond_site_symmetry_2
Cs0 P0 3.507485 1_445
Cs0 P0 3.507491 1_456
Cs0 P3 3.685461 1_555
Cs0 P1 3.780181 1_445
Cs0 P2 4.035213 1_556
Cs1 P3 3.507485 1_665
Cs1 P3 3.507491 1_654
Cs1 P0 3.685461 1_555
Cs1 P2 3.780181 1_665
Cs1 P1 4.035213 1_554
Cs2 P1 3.507484 1_555
Cs2 P1 3.507484 1_544
Cs2 P2 3.685468 1_555
Cs2 P0 3.780173 1_555
Cs2 P3 4.035215 1_655
Cs3 P2 3.507484 1_555
Cs3 P2 3.507484 1_566
Cs3 P1 3.685468 1_555
Cs3 P3 3.780173 1_555
Cs3 P0 4.035215 1_455
P0 W1 2.358641 1_554
P0 W0 2.358641 1_555
P1 W1 2.358641 1_565
P1 W0 2.358641 1_555
P2 W0 2.358641 1_545
P2 W1 2.358641 1_555
P3 W0 2.358641 1_556
P3 W1 2.358641 1_555
