# generated using pymatgen
data_Ag2Sn3OsS8
_symmetry_space_group_name_H-M   'P 1'
_cell_length_a   7.50908912
_cell_length_b   7.50909021
_cell_length_c   7.50908914
_cell_angle_alpha   60.22510296
_cell_angle_beta   60.22509685
_cell_angle_gamma   60.22509849
_symmetry_Int_Tables_number   1
_chemical_formula_structural   Ag2Sn3OsS8
_chemical_formula_sum   'Ag2 Sn3 Os1 S8'
_cell_volume   300.92239245
_cell_formula_units_Z   1
loop_
 _symmetry_equiv_pos_site_id
 _symmetry_equiv_pos_as_xyz
  1  'x, y, z'
loop_
 _atom_site_type_symbol
 _atom_site_label
 _atom_site_symmetry_multiplicity
 _atom_site_fract_x
 _atom_site_fract_y
 _atom_site_fract_z
 _atom_site_occupancy
  Ag  Ag0  1  0.38350849  0.38350849  0.38350849  1
  Ag  Ag1  1  0.61649151  0.61649151  0.61649151  1
  Sn  Sn0  1  0.00000000  0.50000000  0.00000000  1
  Sn  Sn1  1  0.00000000  0.00000000  0.50000000  1
  Sn  Sn2  1  0.50000000  0.00000000  0.00000000  1
  Os  Os0  1  0.00000000  0.00000000  0.00000000  1
  S  S0  1  0.77565510  0.20910877  0.77565510  1
  S  S1  1  0.75359168  0.75359168  0.75359168  1
  S  S2  1  0.79089123  0.22434490  0.22434490  1
  S  S3  1  0.22434490  0.22434490  0.79089123  1
  S  S4  1  0.22434490  0.79089123  0.22434490  1
  S  S5  1  0.24640832  0.24640832  0.24640832  1
  S  S6  1  0.20910877  0.77565510  0.77565510  1
  S  S7  1  0.77565510  0.77565510  0.20910877  1
loop_
_geom_bond_atom_site_label_1
_geom_bond_atom_site_label_2
_geom_bond_distance
_geom_bond_site_symmetry_2
Ag0 S5 2.517445 1_555
Ag0 S2 2.524101 1_555
Ag0 S3 2.524101 1_555
Ag0 S4 2.524101 1_555
Ag1 S1 2.517445 1_555
Ag1 S6 2.524101 1_555
Ag1 S7 2.524101 1_555
Ag1 S0 2.524101 1_555
Os0 S2 2.388666 1_455
Os0 S6 2.388666 1_544
Os0 S4 2.388666 1_545
Os0 S0 2.388666 1_454
Os0 S3 2.388666 1_554
Os0 S7 2.388666 1_445
S0 Sn1 2.593395 1_655
S0 Sn2 2.593395 1_556
S1 Sn2 2.621989 1_566
S1 Sn0 2.621989 1_656
S1 Sn1 2.621990 1_665
S2 Sn1 2.593395 1_655
S2 Sn0 2.593395 1_655
S3 Sn2 2.593395 1_556
S3 Sn0 2.593395 1_556
S4 Sn1 2.593395 1_565
S4 Sn2 2.593395 1_565
S5 Sn2 2.621989 1_555
S5 Sn0 2.621989 1_555
S5 Sn1 2.621990 1_555
S6 Sn1 2.593395 1_565
S6 Sn0 2.593395 1_556
S7 Sn2 2.593395 1_565
S7 Sn0 2.593395 1_655
