# generated using pymatgen
data_Zr2In(PO4)3
_symmetry_space_group_name_H-M   'P 1'
_cell_length_a   8.72661785
_cell_length_b   8.72661776
_cell_length_c   9.54629433
_cell_angle_alpha   117.19809957
_cell_angle_beta   117.19809314
_cell_angle_gamma   59.99999792
_symmetry_Int_Tables_number   1
_chemical_formula_structural   Zr2In(PO4)3
_chemical_formula_sum   'Zr4 In2 P6 O24'
_cell_volume   534.76241532
_cell_formula_units_Z   2
loop_
 _symmetry_equiv_pos_site_id
 _symmetry_equiv_pos_as_xyz
  1  'x, y, z'
loop_
 _atom_site_type_symbol
 _atom_site_label
 _atom_site_symmetry_multiplicity
 _atom_site_fract_x
 _atom_site_fract_y
 _atom_site_fract_z
 _atom_site_occupancy
  Zr  Zr0  1  0.34941330  0.34941330  0.04824189  1
  Zr  Zr1  1  0.15058570  0.15058570  0.45175711  1
  Zr  Zr2  1  0.84941430  0.84941330  0.54824289  1
  Zr  Zr3  1  0.65058570  0.65058670  0.95175811  1
  In  In0  1  0.00000000  0.00000000  0.00000000  1
  In  In1  1  0.49999900  0.50000000  0.49999900  1
  P  P0  1  0.75000000  0.03618070  0.25000000  1
  P  P1  1  0.46381930  0.74999900  0.25000000  1
  P  P2  1  0.03618070  0.46381830  0.25000000  1
  P  P3  1  0.96381930  0.53618070  0.75000000  1
  P  P4  1  0.53618070  0.25000000  0.75000000  1
  P  P5  1  0.25000000  0.96381930  0.75000000  1
  O  O0  1  0.86406341  0.48816087  0.10061264  1
  O  O1  1  0.74838735  0.86406341  0.10061264  1
  O  O2  1  0.48816087  0.74838735  0.10061264  1
  O  O3  1  0.57646329  0.20173919  0.20609828  1
  O  O4  1  0.42789580  0.57646329  0.20609828  1
  O  O5  1  0.20173919  0.42789480  0.20609828  1
  O  O6  1  0.92353571  0.07210520  0.29390272  1
  O  O7  1  0.29826081  0.92353771  0.29390272  1
  O  O8  1  0.07210520  0.29826081  0.29390272  1
  O  O9  1  0.75161365  0.01183913  0.39938736  1
  O  O10  1  0.63593559  0.75161265  0.39938736  1
  O  O11  1  0.01183913  0.63593559  0.39938736  1
  O  O12  1  0.98816087  0.36406441  0.60061264  1
  O  O13  1  0.36406441  0.24838735  0.60061264  1
  O  O14  1  0.24838735  0.98816187  0.60061264  1
  O  O15  1  0.92789480  0.70173919  0.70609728  1
  O  O16  1  0.70173919  0.07646329  0.70609728  1
  O  O17  1  0.07646429  0.92789480  0.70609728  1
  O  O18  1  0.79826181  0.57210520  0.79390272  1
  O  O19  1  0.57210520  0.42353671  0.79390272  1
  O  O20  1  0.42353671  0.79826081  0.79390272  1
  O  O21  1  0.51183913  0.25161365  0.89938736  1
  O  O22  1  0.25161265  0.13593559  0.89938736  1
  O  O23  1  0.13593559  0.51183913  0.89938736  1
loop_
_geom_bond_atom_site_label_1
_geom_bond_atom_site_label_2
_geom_bond_distance
_geom_bond_site_symmetry_2
O0 P2 1.527962 1_655
O0 Zr3 2.068722 1_554
O1 P0 1.527962 1_565
O1 Zr3 2.068710 1_554
O2 P1 1.527962 1_555
O2 Zr3 2.068719 1_554
O3 P0 1.530279 1_555
O3 Zr0 2.085635 1_555
O4 P1 1.530271 1_555
O4 Zr0 2.085644 1_555
O5 P2 1.530279 1_555
O5 Zr0 2.085633 1_555
O6 P0 1.530273 1_555
O6 Zr1 2.085633 1_655
O7 P1 1.530288 1_555
O7 Zr1 2.085623 1_565
O8 P2 1.530273 1_555
O8 Zr1 2.085626 1_555
O9 P0 1.527953 1_555
O9 Zr2 2.068734 1_545
O10 P1 1.527958 1_555
O10 Zr2 2.068720 1_555
O11 P2 1.527961 1_555
O11 Zr2 2.068723 1_455
O12 P3 1.527957 1_555
O12 Zr1 2.068725 1_655
O13 P4 1.527957 1_555
O13 Zr1 2.068725 1_555
O14 P5 1.527962 1_555
O14 Zr1 2.068718 1_565
O15 P3 1.530282 1_555
O15 Zr2 2.085619 1_555
O16 P4 1.530281 1_555
O16 Zr2 2.085628 1_545
O17 P5 1.530273 1_555
O17 Zr2 2.085637 1_455
O18 P3 1.530273 1_555
O18 Zr3 2.085638 1_555
O19 P4 1.530282 1_555
O19 Zr3 2.085634 1_555
O20 P5 1.530282 1_555
O20 Zr3 2.085627 1_555
O21 P4 1.527953 1_555
O21 Zr0 2.068728 1_556
O22 P5 1.527957 1_545
O22 Zr0 2.068712 1_556
O23 P3 1.527957 1_455
O23 Zr0 2.068722 1_556
