# generated using pymatgen
data_BaNa4(SiSe3)2
_symmetry_space_group_name_H-M   'P 1'
_cell_length_a   7.23754022
_cell_length_b   7.23758775
_cell_length_c   8.02280939
_cell_angle_alpha   81.14808025
_cell_angle_beta   81.14851665
_cell_angle_gamma   119.95454233
_symmetry_Int_Tables_number   1
_chemical_formula_structural   BaNa4(SiSe3)2
_chemical_formula_sum   'Ba1 Na4 Si2 Se6'
_cell_volume   346.46947319
_cell_formula_units_Z   1
loop_
 _symmetry_equiv_pos_site_id
 _symmetry_equiv_pos_as_xyz
  1  'x, y, z'
loop_
 _atom_site_type_symbol
 _atom_site_label
 _atom_site_symmetry_multiplicity
 _atom_site_fract_x
 _atom_site_fract_y
 _atom_site_fract_z
 _atom_site_occupancy
  Ba  Ba0  1  0.33197139  0.66803207  0.50000036  1
  Na  Na0  1  0.49460134  0.50540137  0.00000046  1
  Na  Na1  1  0.83660462  0.16339838  0.00000044  1
  Na  Na2  1  0.16917517  0.83082705  0.00000021  1
  Na  Na3  1  0.66623666  0.33376652  0.50000061  1
  Si  Si0  1  0.05101048  0.05012637  0.34546071  1
  Si  Si1  1  0.94987638  0.94899163  0.65453936  1
  Se  Se0  1  0.79322389  0.77265918  0.25290566  1
  Se  Se1  1  0.22734256  0.20677858  0.74709543  1
  Se  Se2  1  0.06463258  0.37341232  0.24789687  1
  Se  Se3  1  0.39223542  0.10347822  0.24546819  1
  Se  Se4  1  0.89649802  0.60775831  0.75452586  1
  Se  Se5  1  0.62659150  0.93536998  0.75210585  1
loop_
_geom_bond_atom_site_label_1
_geom_bond_atom_site_label_2
_geom_bond_distance
_geom_bond_site_symmetry_2
Ba0 Se0 3.259550 1_555
Ba0 Se1 3.259560 1_555
Ba0 Se3 3.265765 1_565
Ba0 Se4 3.265863 1_455
Ba0 Se2 3.285265 1_555
Ba0 Se5 3.285274 1_555
Na0 Se4 2.919640 1_554
Na0 Se3 2.919743 1_555
Na0 Se5 3.015616 1_554
Na0 Se2 3.015619 1_555
Na0 Se0 3.303360 1_555
Na0 Se1 3.303365 1_554
Na1 Se5 2.902555 1_544
Na1 Se2 2.902567 1_655
Na1 Se1 3.060121 1_654
Na1 Se0 3.060130 1_545
Na1 Se3 3.287106 1_555
Na1 Se4 3.287167 1_554
Na2 Se0 2.931195 1_455
Na2 Se1 2.931197 1_564
Na2 Se3 3.061329 1_565
Na2 Se4 3.061476 1_454
Na2 Se5 3.239893 1_554
Na2 Se2 3.239900 1_555
Na3 Se1 3.074201 1_555
Na3 Se0 3.074202 1_555
Na3 Se2 3.112491 1_655
Na3 Se5 3.112505 1_545
Na3 Se4 3.142107 1_555
Na3 Se3 3.142244 1_555
Se0 Si0 2.282297 1_665
Se1 Si1 2.282297 1_445
Se2 Si0 2.297682 1_555
Se3 Si0 2.287877 1_555
Se4 Si1 2.287856 1_555
Se5 Si1 2.297671 1_555
