# generated using pymatgen
data_K4Sr2HfBi4
_symmetry_space_group_name_H-M   'P 1'
_cell_length_a   11.19576468
_cell_length_b   11.19576386
_cell_length_c   8.38969083
_cell_angle_alpha   88.35134740
_cell_angle_beta   88.35134593
_cell_angle_gamma   60.24565449
_symmetry_Int_Tables_number   1
_chemical_formula_structural   K4Sr2HfBi4
_chemical_formula_sum   'K8 Sr4 Hf2 Bi8'
_cell_volume   912.45913966
_cell_formula_units_Z   2
loop_
 _symmetry_equiv_pos_site_id
 _symmetry_equiv_pos_as_xyz
  1  'x, y, z'
loop_
 _atom_site_type_symbol
 _atom_site_label
 _atom_site_symmetry_multiplicity
 _atom_site_fract_x
 _atom_site_fract_y
 _atom_site_fract_z
 _atom_site_occupancy
  K  K0  1  0.94418598  0.52672535  0.37130556  1
  K  K1  1  0.52672535  0.94418598  0.37130556  1
  K  K2  1  0.71916343  0.13389358  0.18723693  1
  K  K3  1  0.13389358  0.71916343  0.18723693  1
  K  K4  1  0.14257247  0.14257247  0.20905717  1
  K  K5  1  0.27702750  0.86495986  0.69164767  1
  K  K6  1  0.86495986  0.27702750  0.69164767  1
  K  K7  1  0.85384251  0.85384251  0.65068590  1
  Sr  Sr0  1  0.52797567  0.52797567  0.37099245  1
  Sr  Sr1  1  0.05311331  0.47768385  0.87686356  1
  Sr  Sr2  1  0.47768385  0.05311331  0.87686356  1
  Sr  Sr3  1  0.47834270  0.47834270  0.86849203  1
  Hf  Hf0  1  0.33524465  0.33524465  0.48975833  1
  Hf  Hf1  1  0.66482770  0.66482770  0.98418236  1
  Bi  Bi0  1  0.38592265  0.80283505  0.09702200  1
  Bi  Bi1  1  0.80283505  0.38592265  0.09702200  1
  Bi  Bi2  1  0.80689880  0.80689880  0.06166258  1
  Bi  Bi3  1  0.61028605  0.20430054  0.60187889  1
  Bi  Bi4  1  0.20430054  0.61028605  0.60187889  1
  Bi  Bi5  1  0.19926302  0.19926302  0.62486532  1
  Bi  Bi6  1  0.33674395  0.33674395  0.14359130  1
  Bi  Bi7  1  0.65480337  0.65480337  0.64761834  1
loop_
_geom_bond_atom_site_label_1
_geom_bond_atom_site_label_2
_geom_bond_distance
_geom_bond_site_symmetry_2
K0 K4 3.995626 1_655
K0 K7 4.075584 1_555
K0 Sr1 4.262834 1_654
K0 Sr1 4.390654 1_655
K1 K4 3.995627 1_565
K1 K7 4.075584 1_555
K1 Sr2 4.262834 1_564
K1 Sr2 4.390654 1_565
K2 Sr2 4.227894 1_554
K3 Sr1 4.227894 1_554
K4 Sr1 4.321564 1_554
K4 Sr2 4.321564 1_554
K5 Sr2 4.121305 1_565
K6 Sr1 4.121305 1_655
K7 Sr1 4.095348 1_655
K7 Sr2 4.095348 1_565
Hf0 Sr2 4.216143 1_555
Hf0 Sr1 4.216143 1_555
Hf1 Sr2 3.865382 1_565
Hf1 Sr1 3.865382 1_655
Bi0 Hf1 2.856430 1_554
Bi0 K3 3.445584 1_555
Bi0 Sr0 3.496826 1_555
Bi0 K4 3.542083 1_565
Bi0 K5 3.577359 1_554
Bi0 K1 3.630311 1_555
Bi0 Sr3 3.807945 1_554
Bi0 Sr2 3.843024 1_564
Bi1 Hf1 2.856429 1_554
Bi1 K2 3.445584 1_555
Bi1 Sr0 3.496826 1_555
Bi1 K4 3.542083 1_655
Bi1 K6 3.577359 1_554
Bi1 K0 3.630311 1_555
Bi1 Sr3 3.807946 1_554
Bi1 Sr1 3.843024 1_654
Bi2 Hf1 2.848280 1_554
Bi2 K2 3.474257 1_565
Bi2 K3 3.474258 1_655
Bi2 K7 3.536460 1_554
Bi2 Sr1 3.685903 1_654
Bi2 Sr2 3.685903 1_564
Bi2 K0 3.731721 1_555
Bi2 K1 3.731721 1_555
Bi3 Hf0 2.850036 1_555
Bi3 K6 3.438473 1_555
Bi3 Sr3 3.507842 1_555
Bi3 K7 3.514322 1_545
Bi3 Sr2 3.530428 1_555
Bi3 K2 3.628881 1_555
Bi3 Sr0 3.757327 1_555
Bi3 K1 4.028711 1_545
Bi4 Hf0 2.850036 1_555
Bi4 K5 3.438473 1_555
Bi4 Sr3 3.507842 1_555
Bi4 K7 3.514322 1_455
Bi4 Sr1 3.530428 1_555
Bi4 K3 3.628881 1_555
Bi4 Sr0 3.757327 1_555
Bi4 K0 4.028711 1_455
Bi5 Hf0 2.832363 1_555
Bi5 K5 3.428318 1_545
Bi5 K6 3.428318 1_455
Bi5 Sr1 3.461400 1_555
Bi5 Sr2 3.461400 1_555
Bi5 K4 3.691878 1_555
Bi5 K0 3.953556 1_455
Bi5 K1 3.953556 1_545
Bi6 Hf0 2.903414 1_555
Bi6 Sr3 3.525150 1_554
Bi6 Sr2 3.579568 1_554
Bi6 Sr1 3.579568 1_554
Bi6 K3 3.743530 1_555
Bi6 K2 3.743530 1_555
Bi6 K4 3.782409 1_555
Bi7 Hf1 2.836770 1_555
Bi7 Sr0 3.434970 1_555
Bi7 K1 3.615897 1_555
Bi7 K0 3.615898 1_555
Bi7 K6 3.693737 1_555
Bi7 K5 3.693737 1_555
Bi7 Sr3 3.833098 1_555
Bi7 K7 3.855850 1_555
