# generated using pymatgen
data_CsNaNi3S4
_symmetry_space_group_name_H-M   'P 1'
_cell_length_a   5.67860848
_cell_length_b   5.67860825
_cell_length_c   8.14587933
_cell_angle_alpha   100.38293689
_cell_angle_beta   100.38293906
_cell_angle_gamma   118.87734550
_symmetry_Int_Tables_number   1
_chemical_formula_structural   CsNaNi3S4
_chemical_formula_sum   'Cs1 Na1 Ni3 S4'
_cell_volume   215.08032514
_cell_formula_units_Z   1
loop_
 _symmetry_equiv_pos_site_id
 _symmetry_equiv_pos_as_xyz
  1  'x, y, z'
loop_
 _atom_site_type_symbol
 _atom_site_label
 _atom_site_symmetry_multiplicity
 _atom_site_fract_x
 _atom_site_fract_y
 _atom_site_fract_z
 _atom_site_occupancy
  Cs  Cs0  1  0.32308431  0.32308431  0.64616963  1
  Na  Na0  1  0.58973602  0.58973602  0.17947103  1
  Ni  Ni0  1  0.01255113  0.01255113  0.02510127  1
  Ni  Ni1  1  0.01170818  0.51170818  0.02341535  1
  Ni  Ni2  1  0.51170818  0.01170818  0.02341535  1
  S  S0  1  0.75010793  0.08508809  0.83519703  1
  S  S1  1  0.93839807  0.27761809  0.21601716  1
  S  S2  1  0.08508809  0.75010793  0.83519703  1
  S  S3  1  0.27761809  0.93839807  0.21601716  1
loop_
_geom_bond_atom_site_label_1
_geom_bond_atom_site_label_2
_geom_bond_distance
_geom_bond_site_symmetry_2
Cs0 S0 3.556295 1_555
Cs0 S2 3.556295 1_555
Cs0 S2 3.618400 1_545
Cs0 S0 3.618400 1_455
Cs0 S0 3.618400 1_565
Cs0 S2 3.618400 1_655
Cs0 S1 3.672404 1_455
Cs0 S3 3.672404 1_545
Na0 Ni2 3.078083 1_565
Na0 Ni2 3.078083 1_555
Na0 Ni1 3.078083 1_655
Na0 Ni1 3.078083 1_555
Na0 Ni0 3.117588 1_665
Na0 Ni0 3.117588 1_555
Na0 S1 3.243029 1_555
Na0 S3 3.243029 1_555
Na0 S1 3.341487 1_565
Na0 S3 3.341488 1_655
Na0 S3 3.341497 1_545
Na0 S1 3.341498 1_455
Ni0 S0 2.185251 1_454
Ni0 S2 2.185251 1_544
Ni0 S3 2.205906 1_545
Ni0 S1 2.205906 1_455
Ni1 S2 2.188756 1_554
Ni1 S0 2.188764 1_454
Ni1 S3 2.203288 1_555
Ni1 S1 2.203295 1_455
Ni2 S0 2.188756 1_554
Ni2 S2 2.188764 1_544
Ni2 S1 2.203288 1_555
Ni2 S3 2.203295 1_545
