# generated using pymatgen
data_Rb6AlH12Ir
_symmetry_space_group_name_H-M   'P 1'
_cell_length_a   6.18305123
_cell_length_b   6.18145668
_cell_length_c   10.71006760
_cell_angle_alpha   54.78213095
_cell_angle_beta   90.04977848
_cell_angle_gamma   89.99708838
_symmetry_Int_Tables_number   1
_chemical_formula_structural   Rb6AlH12Ir
_chemical_formula_sum   'Rb6 Al1 H12 Ir1'
_cell_volume   334.41759516
_cell_formula_units_Z   1
loop_
 _symmetry_equiv_pos_site_id
 _symmetry_equiv_pos_as_xyz
  1  'x, y, z'
loop_
 _atom_site_type_symbol
 _atom_site_label
 _atom_site_symmetry_multiplicity
 _atom_site_fract_x
 _atom_site_fract_y
 _atom_site_fract_z
 _atom_site_occupancy
  Rb  Rb0  1  0.50000000  0.50000000  0.00000000  1
  Rb  Rb1  1  0.00000000  0.50000000  0.50000000  1
  Rb  Rb2  1  0.99896169  0.74731383  0.75293730  1
  Rb  Rb3  1  0.50021702  0.24738135  0.75275700  1
  Rb  Rb4  1  0.00103831  0.25268617  0.24706270  1
  Rb  Rb5  1  0.49978298  0.75261865  0.24724300  1
  Al  Al0  1  0.00000000  0.00000000  0.00000000  1
  H  H0  1  0.69205455  0.81156273  0.49619673  1
  H  H1  1  0.21353893  0.18457540  0.00306061  1
  H  H2  1  0.30794545  0.18843727  0.50380327  1
  H  H3  1  0.78646107  0.81542460  0.99693939  1
  H  H4  1  0.81242011  0.20850757  0.00503860  1
  H  H5  1  0.30797247  0.81393750  0.49392005  1
  H  H6  1  0.18757989  0.79149243  0.99496140  1
  H  H7  1  0.69202753  0.18606250  0.50607995  1
  H  H8  1  0.00240257  0.79081485  0.20117176  1
  H  H9  1  0.50174237  0.20130596  0.30816401  1
  H  H10  1  0.99759743  0.20918515  0.79882824  1
  H  H11  1  0.49825763  0.79869404  0.69183599  1
  Ir  Ir0  1  0.50000000  0.00000000  0.50000000  1
loop_
_geom_bond_atom_site_label_1
_geom_bond_atom_site_label_2
_geom_bond_distance
_geom_bond_site_symmetry_2
Al0 H1 1.757639 1_555
Al0 H3 1.757639 1_444
Al0 H4 1.757690 1_455
Al0 H6 1.757690 1_544
Al0 H8 1.760975 1_545
Al0 H10 1.760975 1_454
H0 Ir0 1.680250 1_565
H0 Rb1 2.691688 1_655
H0 Rb5 3.125750 1_555
H0 Rb4 3.134086 1_665
H0 Rb2 3.170317 1_555
H0 Rb3 3.173826 1_555
H1 Rb0 2.620425 1_555
H1 Rb5 3.006465 1_545
H1 Rb3 3.047475 1_554
H1 Rb4 3.163501 1_555
H1 Rb2 3.206614 1_454
H2 Ir0 1.680250 1_555
H2 Rb1 2.691688 1_555
H2 Rb3 3.125750 1_555
H2 Rb2 3.134086 1_445
H2 Rb4 3.170317 1_555
H2 Rb5 3.173826 1_555
H3 Rb0 2.620425 1_556
H3 Rb3 3.006465 1_565
H3 Rb5 3.047475 1_556
H3 Rb2 3.163501 1_555
H3 Rb4 3.206614 1_656
H4 Rb0 2.620761 1_555
H4 Rb4 2.994137 1_655
H4 Rb2 3.057323 1_554
H4 Rb5 3.159917 1_545
H4 Rb3 3.213511 1_554
H5 Ir0 1.680226 1_565
H5 Rb1 2.692767 1_555
H5 Rb4 3.109291 1_565
H5 Rb5 3.112936 1_555
H5 Rb3 3.187334 1_555
H5 Rb2 3.194887 1_455
H6 Rb0 2.620761 1_556
H6 Rb2 2.994137 1_455
H6 Rb4 3.057323 1_556
H6 Rb3 3.159917 1_565
H6 Rb5 3.213511 1_556
H7 Ir0 1.680226 1_555
H7 Rb1 2.692767 1_655
H7 Rb2 3.109291 1_545
H7 Rb3 3.112936 1_555
H7 Rb5 3.187334 1_555
H7 Rb4 3.194887 1_655
H8 Rb1 2.615172 1_555
H8 Rb4 3.069371 1_555
H8 Rb5 3.101577 1_555
H8 Rb5 3.134569 1_455
H8 Rb4 3.164070 1_565
H9 Ir0 1.679618 1_555
H9 Rb0 2.696970 1_555
H9 Rb5 3.078171 1_555
H9 Rb4 3.134268 1_655
H9 Rb4 3.141694 1_555
H9 Rb5 3.194618 1_545
H10 Rb1 2.615172 1_655
H10 Rb2 3.069371 1_555
H10 Rb3 3.101577 1_555
H10 Rb3 3.134569 1_655
H10 Rb2 3.164070 1_545
H11 Ir0 1.679618 1_565
H11 Rb0 2.696970 1_556
H11 Rb3 3.078171 1_555
H11 Rb2 3.134268 1_455
H11 Rb2 3.141694 1_555
H11 Rb3 3.194618 1_565
