# generated using pymatgen
data_Na3Fe2RhO6
_symmetry_space_group_name_H-M   'P 1'
_cell_length_a   5.24079189
_cell_length_b   5.24077002
_cell_length_c   5.58446887
_cell_angle_alpha   98.99774824
_cell_angle_beta   98.99727243
_cell_angle_gamma   119.99874791
_symmetry_Int_Tables_number   1
_chemical_formula_structural   Na3Fe2RhO6
_chemical_formula_sum   'Na3 Fe2 Rh1 O6'
_cell_volume   126.16947549
_cell_formula_units_Z   1
loop_
 _symmetry_equiv_pos_site_id
 _symmetry_equiv_pos_as_xyz
  1  'x, y, z'
loop_
 _atom_site_type_symbol
 _atom_site_label
 _atom_site_symmetry_multiplicity
 _atom_site_fract_x
 _atom_site_fract_y
 _atom_site_fract_z
 _atom_site_occupancy
  Na  Na0  1  0.83466497  0.16532761  0.49999840  1
  Na  Na1  1  0.49999900  0.49999900  0.49999900  1
  Na  Na2  1  0.16533403  0.83467139  0.49999960  1
  Fe  Fe0  1  0.66682770  0.33316695  0.00000221  1
  Fe  Fe1  1  0.33317230  0.66683305  0.99999779  1
  Rh  Rh0  1  0.00000000  0.00000000  0.00000000  1
  O  O0  1  0.40508210  0.06876764  0.20619159  1
  O  O1  1  0.06876714  0.40507811  0.20619204  1
  O  O2  1  0.73224811  0.73224786  0.20588875  1
  O  O3  1  0.26775289  0.26775314  0.79411125  1
  O  O4  1  0.93123186  0.59492089  0.79380896  1
  O  O5  1  0.59491690  0.93123136  0.79380941  1
loop_
_geom_bond_atom_site_label_1
_geom_bond_atom_site_label_2
_geom_bond_distance
_geom_bond_site_symmetry_2
Na0 O0 2.337184 1_555
Na0 O4 2.337204 1_555
Na0 O2 2.340338 1_545
Na0 O3 2.340380 1_655
Na0 O1 2.347128 1_655
Na0 O5 2.347134 1_545
Na1 O3 2.330187 1_555
Na1 O2 2.330189 1_555
Na1 O0 2.346862 1_555
Na1 O5 2.346873 1_555
Na1 O1 2.346873 1_555
Na1 O4 2.346883 1_555
Na2 O5 2.337193 1_555
Na2 O1 2.337196 1_555
Na2 O3 2.340348 1_565
Na2 O2 2.340371 1_455
Na2 O0 2.347120 1_565
Na2 O4 2.347142 1_455
Fe0 O5 2.053491 1_544
Fe0 O1 2.053518 1_655
Fe0 O0 2.054264 1_555
Fe0 O4 2.054310 1_554
Fe0 O2 2.054586 1_555
Fe0 O3 2.054599 1_554
Fe1 O0 2.053491 1_566
Fe1 O4 2.053518 1_455
Fe1 O5 2.054255 1_555
Fe1 O1 2.054319 1_556
Fe1 O3 2.054584 1_555
Fe1 O2 2.054601 1_556
O0 Rh0 2.074423 1_555
O1 Rh0 2.074391 1_555
O2 Rh0 2.073743 1_665
O3 Rh0 2.073748 1_556
O4 Rh0 2.074391 1_666
O5 Rh0 2.074423 1_666
