# generated using pymatgen
data_InCu6IO8
_symmetry_space_group_name_H-M   'P 1'
_cell_length_a   6.48692136
_cell_length_b   6.48692153
_cell_length_c   6.48692101
_cell_angle_alpha   59.99999777
_cell_angle_beta   59.99999691
_cell_angle_gamma   60.00000448
_symmetry_Int_Tables_number   1
_chemical_formula_structural   InCu6IO8
_chemical_formula_sum   'In1 Cu6 I1 O8'
_cell_volume   193.01936695
_cell_formula_units_Z   1
loop_
 _symmetry_equiv_pos_site_id
 _symmetry_equiv_pos_as_xyz
  1  'x, y, z'
loop_
 _atom_site_type_symbol
 _atom_site_label
 _atom_site_symmetry_multiplicity
 _atom_site_fract_x
 _atom_site_fract_y
 _atom_site_fract_z
 _atom_site_occupancy
  In  In0  1  0.00000000  0.00000000  0.00000000  1
  Cu  Cu0  1  0.00000000  0.00000000  0.50000000  1
  Cu  Cu1  1  0.50000000  0.00000000  0.00000000  1
  Cu  Cu2  1  0.00000000  0.50000000  0.00000000  1
  Cu  Cu3  1  0.50000000  0.50000000  0.00000000  1
  Cu  Cu4  1  0.00000000  0.50000000  0.50000000  1
  Cu  Cu5  1  0.50000000  0.00000000  0.50000000  1
  I  I0  1  0.50000000  0.50000000  0.50000000  1
  O  O0  1  0.14244956  0.14244956  0.57265131  1
  O  O1  1  0.14244956  0.57265131  0.14244956  1
  O  O2  1  0.57265131  0.14244956  0.14244956  1
  O  O3  1  0.85755044  0.42734869  0.85755044  1
  O  O4  1  0.14244956  0.14244956  0.14244956  1
  O  O5  1  0.85755044  0.85755044  0.85755044  1
  O  O6  1  0.85755044  0.85755044  0.42734869  1
  O  O7  1  0.42734869  0.85755044  0.85755044  1
loop_
_geom_bond_atom_site_label_1
_geom_bond_atom_site_label_2
_geom_bond_distance
_geom_bond_site_symmetry_2
In0 O6 2.263473 1_445
In0 O0 2.263473 1_554
In0 O4 2.263473 1_555
In0 O5 2.263473 1_444
In0 O7 2.263473 1_544
In0 O2 2.263473 1_455
In0 O3 2.263473 1_454
In0 O1 2.263473 1_545
Cu0 O5 1.911740 1_445
Cu0 O4 1.911740 1_555
Cu0 O0 1.911740 1_555
Cu0 O6 1.911740 1_445
Cu0 I0 3.243461 1_545
Cu0 I0 3.243461 1_455
Cu1 O2 1.911740 1_555
Cu1 O7 1.911740 1_544
Cu1 O5 1.911740 1_544
Cu1 O4 1.911740 1_555
Cu1 I0 3.243461 1_554
Cu1 I0 3.243461 1_545
Cu2 O1 1.911740 1_555
Cu2 O3 1.911740 1_454
Cu2 O5 1.911740 1_454
Cu2 O4 1.911740 1_555
Cu2 I0 3.243460 1_554
Cu2 I0 3.243460 1_455
Cu3 O3 1.911740 1_554
Cu3 O1 1.911740 1_555
Cu3 O7 1.911740 1_554
Cu3 O2 1.911740 1_555
Cu3 I0 3.243461 1_554
Cu3 I0 3.243461 1_555
Cu4 O3 1.911740 1_455
Cu4 O1 1.911740 1_555
Cu4 O6 1.911740 1_455
Cu4 O0 1.911740 1_555
Cu4 I0 3.243461 1_555
Cu4 I0 3.243461 1_455
Cu5 O7 1.911740 1_545
Cu5 O2 1.911740 1_555
Cu5 O6 1.911740 1_545
Cu5 O0 1.911740 1_555
Cu5 I0 3.243461 1_555
Cu5 I0 3.243461 1_545
