# generated using pymatgen
data_Co2Te4Au
_symmetry_space_group_name_H-M   'P 1'
_cell_length_a   7.72113761
_cell_length_b   7.71463290
_cell_length_c   7.71565332
_cell_angle_alpha   90.01536217
_cell_angle_beta   120.03860710
_cell_angle_gamma   120.03497489
_symmetry_Int_Tables_number   1
_chemical_formula_structural   Co2Te4Au
_chemical_formula_sum   'Co4 Te8 Au2'
_cell_volume   324.57271521
_cell_formula_units_Z   2
loop_
 _symmetry_equiv_pos_site_id
 _symmetry_equiv_pos_as_xyz
  1  'x, y, z'
loop_
 _atom_site_type_symbol
 _atom_site_label
 _atom_site_symmetry_multiplicity
 _atom_site_fract_x
 _atom_site_fract_y
 _atom_site_fract_z
 _atom_site_occupancy
  Co  Co0  1  0.50000079  0.49999769  0.00000142  1
  Co  Co1  1  0.00000130  0.49999923  0.50000289  1
  Co  Co2  1  0.99999926  0.00000201  0.50000036  1
  Co  Co3  1  0.50000228  0.50000250  0.49999929  1
  Te  Te0  1  0.53218429  0.73316461  0.26616376  1
  Te  Te1  1  0.53230145  0.29932493  0.26609851  1
  Te  Te2  1  0.96782255  0.73383795  0.26683799  1
  Te  Te3  1  0.03233252  0.26612267  0.29935247  1
  Te  Te4  1  0.96767117  0.73388323  0.70065264  1
  Te  Te5  1  0.46781800  0.26683599  0.73383520  1
  Te  Te6  1  0.03218228  0.26617092  0.73316599  1
  Te  Te7  1  0.46769753  0.70067047  0.73389736  1
  Au  Au0  1  0.24991725  0.87477250  0.12510121  1
  Au  Au1  1  0.75007333  0.12522029  0.87489389  1
loop_
_geom_bond_atom_site_label_1
_geom_bond_atom_site_label_2
_geom_bond_distance
_geom_bond_site_symmetry_2
Co0 Te1 2.559240 1_555
Co0 Te7 2.559280 1_554
Co0 Te5 2.560159 1_554
Co0 Te0 2.560159 1_555
Co0 Te6 2.563189 1_554
Co0 Te2 2.563206 1_555
Co1 Te3 2.559450 1_555
Co1 Te4 2.559484 1_455
Co1 Te6 2.560297 1_555
Co1 Te2 2.560365 1_455
Co1 Te7 2.563488 1_555
Co1 Te1 2.563506 1_455
Co2 Te3 2.559199 1_655
Co2 Te4 2.559211 1_545
Co2 Te2 2.560133 1_545
Co2 Te6 2.560145 1_655
Co2 Te0 2.563165 1_545
Co2 Te5 2.563182 1_655
Co3 Te7 2.559557 1_555
Co3 Te1 2.559589 1_555
Co3 Te0 2.560378 1_555
Co3 Te5 2.560405 1_555
Co3 Te4 2.563342 1_555
Co3 Te3 2.563352 1_555
Au0 Te2 2.671492 1_455
Au0 Te0 2.671548 1_555
Au0 Te4 2.671563 1_454
Au0 Te1 2.671959 1_565
Au1 Te5 2.671524 1_555
Au1 Te6 2.671525 1_655
Au1 Te3 2.671626 1_656
Au1 Te7 2.671943 1_545
