# generated using pymatgen
data_Rb4Bi3PPt4
_symmetry_space_group_name_H-M   'P 1'
_cell_length_a   7.18832729
_cell_length_b   7.18832834
_cell_length_c   7.18832790
_cell_angle_alpha   90.69272134
_cell_angle_beta   90.69272199
_cell_angle_gamma   90.69272651
_symmetry_Int_Tables_number   1
_chemical_formula_structural   Rb4Bi3PPt4
_chemical_formula_sum   'Rb4 Bi3 P1 Pt4'
_cell_volume   371.35358355
_cell_formula_units_Z   1
loop_
 _symmetry_equiv_pos_site_id
 _symmetry_equiv_pos_as_xyz
  1  'x, y, z'
loop_
 _atom_site_type_symbol
 _atom_site_label
 _atom_site_symmetry_multiplicity
 _atom_site_fract_x
 _atom_site_fract_y
 _atom_site_fract_z
 _atom_site_occupancy
  Rb  Rb0  1  0.60656419  0.38990159  0.87899959  1
  Rb  Rb1  1  0.38990159  0.87899959  0.60656419  1
  Rb  Rb2  1  0.11614378  0.11614378  0.11614378  1
  Rb  Rb3  1  0.87899959  0.60656419  0.38990159  1
  Bi  Bi0  1  0.58605076  0.90729334  0.10101670  1
  Bi  Bi1  1  0.10101670  0.58605076  0.90729334  1
  Bi  Bi2  1  0.90729334  0.10101670  0.58605076  1
  P  P0  1  0.40230171  0.40230171  0.40230171  1
  Pt  Pt0  1  0.18635211  0.35765292  0.61750618  1
  Pt  Pt1  1  0.61750618  0.18635211  0.35765292  1
  Pt  Pt2  1  0.85021612  0.85021612  0.85021612  1
  Pt  Pt3  1  0.35765292  0.61750618  0.18635211  1
loop_
_geom_bond_atom_site_label_1
_geom_bond_atom_site_label_2
_geom_bond_distance
_geom_bond_site_symmetry_2
Bi0 Pt2 2.666109 1_554
Bi0 Pt1 2.714356 1_565
Bi0 Pt3 2.717275 1_555
Bi0 Rb3 3.678683 1_555
Bi0 Rb2 3.715249 1_565
Bi0 Rb1 3.810090 1_554
Bi0 Rb0 3.838087 1_564
Bi1 Pt2 2.666109 1_455
Bi1 Pt3 2.714355 1_556
Bi1 Pt0 2.717275 1_555
Bi1 Rb1 3.678683 1_555
Bi1 Rb2 3.715249 1_556
Bi1 Rb0 3.810090 1_455
Bi1 Rb3 3.838087 1_456
Bi2 Pt2 2.666109 1_545
Bi2 Pt0 2.714355 1_655
Bi2 Pt1 2.717275 1_555
Bi2 Rb0 3.678683 1_555
Bi2 Rb2 3.715249 1_655
Bi2 Rb3 3.810090 1_545
Bi2 Rb1 3.838087 1_645
P0 Pt0 2.227960 1_555
P0 Pt1 2.227960 1_555
P0 Pt3 2.227960 1_555
P0 Rb2 3.519485 1_555
P0 Rb3 3.714130 1_555
P0 Rb0 3.714130 1_555
P0 Rb1 3.714130 1_555
Pt0 Rb3 3.292179 1_455
Pt0 Rb0 3.542091 1_555
Pt0 Rb1 3.755475 1_545
Pt1 Rb1 3.292179 1_545
Pt1 Rb3 3.542091 1_555
Pt1 Rb0 3.755474 1_554
Pt2 Rb2 3.270671 1_666
Pt2 Rb1 3.734211 1_555
Pt2 Rb0 3.734212 1_555
Pt2 Rb3 3.734212 1_555
Pt3 Rb0 3.292179 1_554
Pt3 Rb1 3.542092 1_555
Pt3 Rb3 3.755474 1_455
