# generated using pymatgen
data_Rb3Mg2H9Ru
_symmetry_space_group_name_H-M   'P 1'
_cell_length_a   7.90476582
_cell_length_b   7.90476495
_cell_length_c   7.90476620
_cell_angle_alpha   44.63785370
_cell_angle_beta   44.63785018
_cell_angle_gamma   44.63785546
_symmetry_Int_Tables_number   1
_chemical_formula_structural   Rb3Mg2H9Ru
_chemical_formula_sum   'Rb3 Mg2 H9 Ru1'
_cell_volume   221.77229289
_cell_formula_units_Z   1
loop_
 _symmetry_equiv_pos_site_id
 _symmetry_equiv_pos_as_xyz
  1  'x, y, z'
loop_
 _atom_site_type_symbol
 _atom_site_label
 _atom_site_symmetry_multiplicity
 _atom_site_fract_x
 _atom_site_fract_y
 _atom_site_fract_z
 _atom_site_occupancy
  Rb  Rb0  1  0.00000000  0.00000000  0.00000000  1
  Rb  Rb1  1  0.78856938  0.78856938  0.78856938  1
  Rb  Rb2  1  0.21143062  0.21143062  0.21143062  1
  Mg  Mg0  1  0.61845224  0.61845224  0.61845224  1
  Mg  Mg1  1  0.38154776  0.38154776  0.38154776  1
  H  H0  1  0.00000000  0.50000000  0.50000000  1
  H  H1  1  0.50000000  0.00000000  0.50000000  1
  H  H2  1  0.50000000  0.50000000  0.00000000  1
  H  H3  1  0.72261321  0.31727547  0.31727547  1
  H  H4  1  0.31727547  0.72261321  0.31727547  1
  H  H5  1  0.31727547  0.31727547  0.72261321  1
  H  H6  1  0.68272453  0.68272453  0.27738679  1
  H  H7  1  0.68272453  0.27738679  0.68272453  1
  H  H8  1  0.27738679  0.68272453  0.68272453  1
  Ru  Ru0  1  0.50000000  0.50000000  0.50000000  1
loop_
_geom_bond_atom_site_label_1
_geom_bond_atom_site_label_2
_geom_bond_distance
_geom_bond_site_symmetry_2
H0 Mg1 2.014888 1_555
H0 Mg0 2.014888 1_455
H0 Rb0 3.001928 1_556
H0 Rb0 3.001928 1_565
H0 Rb1 3.123111 1_455
H0 Rb2 3.123111 1_555
H1 Mg1 2.014887 1_555
H1 Mg0 2.014887 1_545
H1 Rb0 3.001928 1_655
H1 Rb0 3.001928 1_556
H1 Rb1 3.123112 1_545
H1 Rb2 3.123112 1_555
H2 Mg1 2.014888 1_555
H2 Mg0 2.014888 1_554
H2 Rb0 3.001928 1_565
H2 Rb0 3.001928 1_655
H2 Rb1 3.123111 1_554
H2 Rb2 3.123111 1_555
H3 Ru0 1.733150 1_555
H3 Mg1 2.062425 1_555
H3 Rb2 2.850440 1_655
H3 Rb1 3.020418 1_554
H3 Rb1 3.020418 1_545
H4 Ru0 1.733150 1_555
H4 Mg1 2.062425 1_555
H4 Rb2 2.850440 1_565
H4 Rb1 3.020418 1_554
H4 Rb1 3.020418 1_455
H5 Ru0 1.733150 1_555
H5 Mg1 2.062425 1_555
H5 Rb2 2.850440 1_556
H5 Rb1 3.020418 1_455
H5 Rb1 3.020418 1_545
H6 Ru0 1.733150 1_555
H6 Mg0 2.062425 1_555
H6 Rb1 2.850440 1_554
H6 Rb2 3.020418 1_655
H6 Rb2 3.020418 1_565
H7 Ru0 1.733150 1_555
H7 Mg0 2.062425 1_555
H7 Rb1 2.850440 1_545
H7 Rb2 3.020418 1_556
H7 Rb2 3.020418 1_655
H8 Ru0 1.733150 1_555
H8 Mg0 2.062425 1_555
H8 Rb1 2.850440 1_455
H8 Rb2 3.020418 1_556
H8 Rb2 3.020418 1_565
