# generated using pymatgen
data_Y16Al4OsPd3
_symmetry_space_group_name_H-M   'P 1'
_cell_length_a   9.65333359
_cell_length_b   9.65333240
_cell_length_c   9.65333284
_cell_angle_alpha   59.48763093
_cell_angle_beta   59.48763635
_cell_angle_gamma   59.48762839
_symmetry_Int_Tables_number   1
_chemical_formula_structural   Y16Al4OsPd3
_chemical_formula_sum   'Y16 Al4 Os1 Pd3'
_cell_volume   628.67484954
_cell_formula_units_Z   1
loop_
 _symmetry_equiv_pos_site_id
 _symmetry_equiv_pos_as_xyz
  1  'x, y, z'
loop_
 _atom_site_type_symbol
 _atom_site_label
 _atom_site_symmetry_multiplicity
 _atom_site_fract_x
 _atom_site_fract_y
 _atom_site_fract_z
 _atom_site_occupancy
  Y  Y0  1  0.35773729  0.35773729  0.35773729  1
  Y  Y1  1  0.35049517  0.35049517  0.94173956  1
  Y  Y2  1  0.35049517  0.94173956  0.35049517  1
  Y  Y3  1  0.94173956  0.35049517  0.35049517  1
  Y  Y4  1  0.81364799  0.19107702  0.19107702  1
  Y  Y5  1  0.19164353  0.80595846  0.80595846  1
  Y  Y6  1  0.19107702  0.81364799  0.19107702  1
  Y  Y7  1  0.80595846  0.19164353  0.80595846  1
  Y  Y8  1  0.19107702  0.19107702  0.81364799  1
  Y  Y9  1  0.80595846  0.80595846  0.19164353  1
  Y  Y10  1  0.93546397  0.56302302  0.56302302  1
  Y  Y11  1  0.55633641  0.93801935  0.93801935  1
  Y  Y12  1  0.56302302  0.93546397  0.56302302  1
  Y  Y13  1  0.93801935  0.55633641  0.93801935  1
  Y  Y14  1  0.56302302  0.56302302  0.93546397  1
  Y  Y15  1  0.93801935  0.93801935  0.55633641  1
  Al  Al0  1  0.57780982  0.57780982  0.57780982  1
  Al  Al1  1  0.57887361  0.57887361  0.26660814  1
  Al  Al2  1  0.57887361  0.26660814  0.57887361  1
  Al  Al3  1  0.26660814  0.57887361  0.57887361  1
  Os  Os0  1  0.14257493  0.14257493  0.14257493  1
  Pd  Pd0  1  0.14652275  0.14652275  0.56849660  1
  Pd  Pd1  1  0.14652275  0.56849660  0.14652275  1
  Pd  Pd2  1  0.56849660  0.14652275  0.14652275  1
loop_
_geom_bond_atom_site_label_1
_geom_bond_atom_site_label_2
_geom_bond_distance
_geom_bond_site_symmetry_2
Y0 Y12 3.471722 1_545
Y0 Y14 3.471722 1_554
Y0 Y10 3.471722 1_455
Y0 Y6 3.576928 1_555
Y0 Y8 3.576929 1_555
Y0 Y4 3.576929 1_555
Y1 Y11 3.441317 1_545
Y1 Y13 3.441317 1_455
Y1 Y14 3.527534 1_555
Y10 Y3 3.527534 1_555
Y10 Y12 3.567417 1_555
Y10 Y14 3.567417 1_555
Y10 Y9 3.598870 1_555
Y10 Y7 3.598870 1_555
Y10 Y15 3.600098 1_555
Y10 Y13 3.600098 1_555
Y10 Y8 3.616398 1_655
Y10 Y6 3.616399 1_655
Y11 Y2 3.441317 1_556
Y11 Y8 3.523552 1_565
Y11 Y6 3.523552 1_556
Y11 Y14 3.600098 1_555
Y11 Y12 3.600098 1_555
Y11 Y9 3.623266 1_556
Y11 Y7 3.623266 1_565
Y11 Y13 3.655941 1_555
Y11 Y15 3.655942 1_555
Y12 Y2 3.527534 1_555
Y12 Y14 3.567417 1_555
Y12 Y9 3.598870 1_555
Y12 Y5 3.598871 1_555
Y12 Y15 3.600098 1_555
Y12 Y8 3.616399 1_565
Y12 Y4 3.616399 1_565
Y13 Y3 3.441317 1_556
Y13 Y8 3.523552 1_655
Y13 Y4 3.523552 1_556
Y13 Y14 3.600098 1_555
Y13 Y9 3.623266 1_556
Y13 Y5 3.623266 1_655
Y13 Y15 3.655941 1_555
Y14 Y7 3.598870 1_555
Y14 Y5 3.598870 1_555
Y14 Y4 3.616398 1_556
Y14 Y6 3.616399 1_556
Y15 Y3 3.441317 1_565
Y15 Y2 3.441318 1_655
Y15 Y4 3.523552 1_565
Y15 Y6 3.523552 1_655
Y15 Y7 3.623266 1_565
Y15 Y5 3.623266 1_655
Al0 Al2 2.993741 1_555
Al0 Al1 2.993741 1_555
Al0 Al3 2.993741 1_555
Al0 Y12 3.313713 1_555
Al0 Y14 3.313713 1_555
Al0 Y10 3.313714 1_555
Al0 Y2 3.347491 1_555
Al0 Y3 3.347492 1_555
Al0 Y1 3.347492 1_555
Al0 Y7 3.442264 1_555
Al0 Y5 3.442265 1_555
Al0 Y9 3.442265 1_555
Al1 Al2 2.991028 1_555
Al1 Al3 2.991028 1_555
Al1 Y0 3.271287 1_555
Al1 Y11 3.300967 1_554
Al1 Y13 3.300967 1_554
Al1 Y2 3.318423 1_555
Al1 Y3 3.318423 1_555
Al1 Y14 3.358942 1_554
Al1 Y9 3.434014 1_555
Al1 Y4 3.487184 1_555
Al1 Y6 3.487184 1_555
Al2 Al3 2.991028 1_555
Al2 Y0 3.271287 1_555
Al2 Y11 3.300967 1_545
Al2 Y15 3.300967 1_545
Al2 Y1 3.318423 1_555
Al2 Y3 3.318424 1_555
Al2 Y12 3.358942 1_545
Al2 Y7 3.434014 1_555
Al2 Y4 3.487185 1_555
Al2 Y8 3.487185 1_555
Al3 Y0 3.271287 1_555
Al3 Y15 3.300967 1_455
Al3 Y13 3.300967 1_455
Al3 Y1 3.318423 1_555
Al3 Y2 3.318423 1_555
Al3 Y10 3.358943 1_455
Al3 Y5 3.434014 1_555
Al3 Y6 3.487184 1_555
Al3 Y8 3.487184 1_555
Os0 Y6 2.779194 1_545
Os0 Y8 2.779195 1_554
Os0 Y4 2.779195 1_455
Os0 Y2 2.829094 1_545
Os0 Y3 2.829094 1_455
Os0 Y1 2.829094 1_554
Os0 Y13 3.419575 1_454
Os0 Y15 3.419576 1_445
Os0 Y11 3.419576 1_544
Pd0 Y5 2.856534 1_545
Pd0 Y7 2.856535 1_455
Pd0 Y8 2.867993 1_555
Pd0 Y0 2.872368 1_555
Pd0 Y3 2.877108 1_455
Pd0 Y2 2.877108 1_545
Pd0 Y10 3.448852 1_455
Pd0 Y12 3.448852 1_545
Pd0 Y15 3.565070 1_445
Pd1 Y5 2.856534 1_554
Pd1 Y9 2.856534 1_455
Pd1 Y6 2.867993 1_555
Pd1 Y0 2.872368 1_555
Pd1 Y1 2.877108 1_554
Pd1 Y3 2.877108 1_455
Pd1 Y10 3.448852 1_455
Pd1 Y14 3.448853 1_554
Pd1 Y13 3.565070 1_454
Pd2 Y9 2.856534 1_545
Pd2 Y7 2.856534 1_554
Pd2 Y4 2.867994 1_555
Pd2 Y0 2.872368 1_555
Pd2 Y1 2.877108 1_554
Pd2 Y2 2.877108 1_545
Pd2 Y14 3.448852 1_554
Pd2 Y12 3.448852 1_545
Pd2 Y11 3.565070 1_544
