# generated using pymatgen
data_BaNaTaSe4
_symmetry_space_group_name_H-M   'P 1'
_cell_length_a   10.00889487
_cell_length_b   6.99416837
_cell_length_c   13.01804923
_cell_angle_alpha   69.54162004
_cell_angle_beta   90.00000000
_cell_angle_gamma   90.00000000
_symmetry_Int_Tables_number   1
_chemical_formula_structural   BaNaTaSe4
_chemical_formula_sum   'Ba4 Na4 Ta4 Se16'
_cell_volume   853.83423934
_cell_formula_units_Z   4
loop_
 _symmetry_equiv_pos_site_id
 _symmetry_equiv_pos_as_xyz
  1  'x, y, z'
loop_
 _atom_site_type_symbol
 _atom_site_label
 _atom_site_symmetry_multiplicity
 _atom_site_fract_x
 _atom_site_fract_y
 _atom_site_fract_z
 _atom_site_occupancy
  Ba  Ba0  1  0.88043842  0.38225501  0.34403877  1
  Ba  Ba1  1  0.61956158  0.38225501  0.84403877  1
  Ba  Ba2  1  0.11956158  0.61774499  0.65596123  1
  Ba  Ba3  1  0.38043842  0.61774499  0.15596123  1
  Na  Na0  1  0.11462860  0.23042943  0.02887516  1
  Na  Na1  1  0.38537140  0.23042943  0.52887516  1
  Na  Na2  1  0.88537140  0.76957057  0.97112484  1
  Na  Na3  1  0.61462860  0.76957057  0.47112484  1
  Ta  Ta0  1  0.61899138  0.11976244  0.18407013  1
  Ta  Ta1  1  0.88100862  0.11976244  0.68407013  1
  Ta  Ta2  1  0.38100862  0.88023756  0.81592987  1
  Ta  Ta3  1  0.11899138  0.88023756  0.31592987  1
  Se  Se0  1  0.80519603  0.32403875  0.09016004  1
  Se  Se1  1  0.69480397  0.32403875  0.59016004  1
  Se  Se2  1  0.19480397  0.67596125  0.90983996  1
  Se  Se3  1  0.30519603  0.67596125  0.40983996  1
  Se  Se4  1  0.92777941  0.80927964  0.43187162  1
  Se  Se5  1  0.57222059  0.80927964  0.93187162  1
  Se  Se6  1  0.07222059  0.19072036  0.56812838  1
  Se  Se7  1  0.42777941  0.19072036  0.06812838  1
  Se  Se8  1  0.56537628  0.20866914  0.34176333  1
  Se  Se9  1  0.93462372  0.20866914  0.84176333  1
  Se  Se10  1  0.43462372  0.79133086  0.65823667  1
  Se  Se11  1  0.06537628  0.79133086  0.15823667  1
  Se  Se12  1  0.16444823  0.23607090  0.26283201  1
  Se  Se13  1  0.33555177  0.23607090  0.76283201  1
  Se  Se14  1  0.83555177  0.76392910  0.73716799  1
  Se  Se15  1  0.66444823  0.76392910  0.23716799  1
loop_
_geom_bond_atom_site_label_1
_geom_bond_atom_site_label_2
_geom_bond_distance
_geom_bond_site_symmetry_2
Ba0 Se12 3.316482 1_655
Ba0 Se15 3.337515 1_555
Ba0 Se6 3.355207 1_655
Ba0 Se8 3.382915 1_555
Ba0 Se0 3.549187 1_555
Ba0 Se11 3.553189 1_655
Ba0 Se4 3.583218 1_555
Ba0 Se1 3.601624 1_555
Ba0 Se4 3.793236 1_545
Ba1 Se13 3.316482 1_555
Ba1 Se14 3.337515 1_555
Ba1 Se7 3.355207 1_556
Ba1 Se9 3.382915 1_555
Ba1 Se1 3.549187 1_555
Ba1 Se10 3.553189 1_555
Ba1 Se5 3.583218 1_555
Ba1 Se0 3.601624 1_556
Ba1 Se5 3.793236 1_545
Ba2 Se14 3.316482 1_455
Ba2 Se13 3.337515 1_555
Ba2 Se4 3.355207 1_455
Ba2 Se10 3.382915 1_555
Ba2 Se2 3.549187 1_555
Ba2 Se9 3.553189 1_455
Ba2 Se6 3.583218 1_555
Ba2 Se3 3.601624 1_555
Ba2 Se6 3.793236 1_565
Ba3 Se15 3.316482 1_555
Ba3 Se12 3.337515 1_555
Ba3 Se5 3.355207 1_554
Ba3 Se11 3.382915 1_555
Ba3 Se3 3.549187 1_555
Ba3 Se8 3.553189 1_555
Ba3 Se7 3.583218 1_555
Ba3 Se2 3.601624 1_554
Ba3 Se7 3.793236 1_565
Na0 Se11 2.982514 1_545
Na0 Se2 3.062662 1_554
Na0 Se9 3.075961 1_454
Na0 Se12 3.100042 1_555
Na0 Se7 3.172198 1_555
Na0 Se0 3.319969 1_455
Na1 Se10 2.982514 1_545
Na1 Se3 3.062662 1_555
Na1 Se8 3.075961 1_555
Na1 Se13 3.100042 1_555
Na1 Se6 3.172198 1_555
Na1 Se1 3.319969 1_555
Na2 Se9 2.982514 1_565
Na2 Se0 3.062662 1_556
Na2 Se11 3.075961 1_656
Na2 Se14 3.100042 1_555
Na2 Se5 3.172198 1_555
Na2 Se2 3.319969 1_655
Na3 Se8 2.982514 1_565
Na3 Se1 3.062662 1_555
Na3 Se10 3.075961 1_555
Na3 Se15 3.100042 1_555
Na3 Se4 3.172198 1_555
Na3 Se3 3.319969 1_555
Se0 Ta0 2.405877 1_555
Se1 Ta1 2.405877 1_555
Se2 Ta2 2.405877 1_555
Se3 Ta3 2.405877 1_555
Se4 Ta3 2.379804 1_655
Se5 Ta2 2.379804 1_555
Se6 Ta1 2.379804 1_455
Se7 Ta0 2.379804 1_555
Se8 Ta0 2.404418 1_555
Se9 Ta1 2.404418 1_555
Se10 Ta2 2.404418 1_555
Se11 Ta3 2.404418 1_555
Se12 Ta3 2.382463 1_545
Se13 Ta2 2.382463 1_545
Se14 Ta1 2.382463 1_565
Se15 Ta0 2.382463 1_565
