# generated using pymatgen
data_Hf4Bi2Os
_symmetry_space_group_name_H-M   'P 1'
_cell_length_a   8.24219339
_cell_length_b   8.24219287
_cell_length_c   8.24219320
_cell_angle_alpha   96.18038511
_cell_angle_beta   96.18038517
_cell_angle_gamma   141.69127969
_symmetry_Int_Tables_number   1
_chemical_formula_structural   Hf4Bi2Os
_chemical_formula_sum   'Hf8 Bi4 Os2'
_cell_volume   327.87955837
_cell_formula_units_Z   2
loop_
 _symmetry_equiv_pos_site_id
 _symmetry_equiv_pos_as_xyz
  1  'x, y, z'
loop_
 _atom_site_type_symbol
 _atom_site_label
 _atom_site_symmetry_multiplicity
 _atom_site_fract_x
 _atom_site_fract_y
 _atom_site_fract_z
 _atom_site_occupancy
  Hf  Hf0  1  0.08481368  0.20003634  0.28484903  1
  Hf  Hf1  1  0.91518632  0.79996366  0.71515097  1
  Hf  Hf2  1  0.79996366  0.08481368  0.88477734  1
  Hf  Hf3  1  0.41518632  0.70003634  0.11522266  1
  Hf  Hf4  1  0.20003634  0.91518632  0.11522266  1
  Hf  Hf5  1  0.58481368  0.29996366  0.88477734  1
  Hf  Hf6  1  0.70003634  0.58481368  0.28484903  1
  Hf  Hf7  1  0.29996366  0.41518632  0.71515097  1
  Bi  Bi0  1  0.13838965  0.63838965  0.77677830  1
  Bi  Bi1  1  0.86161035  0.36161035  0.22322170  1
  Bi  Bi2  1  0.36161035  0.13838965  0.50000000  1
  Bi  Bi3  1  0.63838965  0.86161035  0.50000000  1
  Os  Os0  1  0.25000000  0.25000000  0.00000000  1
  Os  Os1  1  0.75000000  0.75000000  0.00000000  1
loop_
_geom_bond_atom_site_label_1
_geom_bond_atom_site_label_2
_geom_bond_distance
_geom_bond_site_symmetry_2
Hf0 Os0 2.748067 1_555
Hf0 Os1 2.748069 1_445
Hf1 Os1 2.748067 1_556
Hf1 Os0 2.748069 1_666
Hf2 Os1 2.748074 1_546
Hf2 Os0 2.748074 1_656
Hf3 Os0 2.748074 1_555
Hf3 Os1 2.748074 1_555
Hf4 Os0 2.748074 1_565
Hf4 Os1 2.748074 1_455
Hf5 Os1 2.748074 1_556
Hf5 Os0 2.748074 1_556
Hf6 Os1 2.748067 1_555
Hf6 Os0 2.748069 1_555
Hf7 Os0 2.748067 1_556
Hf7 Os1 2.748069 1_556
Bi0 Hf7 3.034015 1_555
Bi0 Hf1 3.034016 1_455
Bi0 Hf4 3.122463 1_556
Bi0 Hf3 3.122463 1_556
Bi0 Hf5 3.290410 1_565
Bi0 Hf2 3.290410 1_565
Bi0 Hf2 3.290414 1_455
Bi0 Hf5 3.290414 1_455
Bi1 Hf6 3.034015 1_555
Bi1 Hf0 3.034016 1_655
Bi1 Hf2 3.122463 1_554
Bi1 Hf5 3.122463 1_554
Bi1 Hf3 3.290410 1_545
Bi1 Hf4 3.290410 1_545
Bi1 Hf4 3.290414 1_655
Bi1 Hf3 3.290414 1_655
Bi2 Hf4 3.034018 1_545
Bi2 Hf5 3.034018 1_555
Bi2 Hf7 3.122460 1_555
Bi2 Hf0 3.122460 1_555
Bi2 Hf1 3.290412 1_555
Bi2 Hf6 3.290412 1_445
Bi2 Hf6 3.290416 1_555
Bi2 Hf1 3.290416 1_445
Bi3 Hf2 3.034018 1_565
Bi3 Hf3 3.034018 1_555
Bi3 Hf6 3.122460 1_555
Bi3 Hf1 3.122460 1_555
Bi3 Hf0 3.290412 1_555
Bi3 Hf7 3.290412 1_665
Bi3 Hf7 3.290416 1_555
Bi3 Hf0 3.290416 1_665
