# generated using pymatgen
data_CaZnPRh2
_symmetry_space_group_name_H-M   'P 1'
_cell_length_a   5.76639590
_cell_length_b   5.76639554
_cell_length_c   5.76639599
_cell_angle_alpha   138.35701264
_cell_angle_beta   138.35701065
_cell_angle_gamma   60.35666505
_symmetry_Int_Tables_number   1
_chemical_formula_structural   CaZnPRh2
_chemical_formula_sum   'Ca1 Zn1 P1 Rh2'
_cell_volume   83.77152540
_cell_formula_units_Z   1
loop_
 _symmetry_equiv_pos_site_id
 _symmetry_equiv_pos_as_xyz
  1  'x, y, z'
loop_
 _atom_site_type_symbol
 _atom_site_label
 _atom_site_symmetry_multiplicity
 _atom_site_fract_x
 _atom_site_fract_y
 _atom_site_fract_z
 _atom_site_occupancy
  Ca  Ca0  1  0.99933573  0.99933573  0.00000000  1
  Zn  Zn0  1  0.61387453  0.61387453  0.00000000  1
  P  P0  1  0.36450124  0.36450124  1.00000000  1
  Rh  Rh0  1  0.76114425  0.26114425  0.50000000  1
  Rh  Rh1  1  0.26114425  0.76114425  0.50000000  1
loop_
_geom_bond_atom_site_label_1
_geom_bond_atom_site_label_2
_geom_bond_distance
_geom_bond_site_symmetry_2
Ca0 Zn0 3.115540 1_666
Ca0 Zn0 3.115540 1_554
Ca0 Zn0 3.115541 1_565
Ca0 Zn0 3.115541 1_655
Ca0 Rh0 3.136955 1_554
Ca0 Rh1 3.136956 1_554
Ca0 Rh1 3.136956 1_655
Ca0 Rh0 3.136956 1_565
Ca0 P0 3.195253 1_553
Ca0 P0 3.195254 1_665
Ca0 P0 3.195254 1_654
Ca0 P0 3.195254 1_564
Ca0 Rh1 3.318764 1_665
Ca0 Rh0 3.318764 1_665
Ca0 Rh0 3.318764 1_564
Ca0 Rh1 3.318765 1_654
P0 Rh1 2.294147 1_545
P0 Rh0 2.294147 1_455
P0 Rh1 2.294147 1_556
P0 Rh0 2.294147 1_556
P0 Zn0 2.486175 1_556
Rh0 Zn0 2.521313 1_545
Rh0 Zn0 2.521313 1_556
Rh1 Zn0 2.521313 1_455
Rh1 Zn0 2.521313 1_556
