# generated using pymatgen
data_PrPS4
_symmetry_space_group_name_H-M   'P 1'
_cell_length_a   12.48033240
_cell_length_b   12.48025799
_cell_length_c   12.48034793
_cell_angle_alpha   127.66496700
_cell_angle_beta   127.66502903
_cell_angle_gamma   77.16800270
_symmetry_Int_Tables_number   1
_chemical_formula_structural   PrPS4
_chemical_formula_sum   'Pr8 P8 S32'
_cell_volume   1182.07355123
_cell_formula_units_Z   8
loop_
 _symmetry_equiv_pos_site_id
 _symmetry_equiv_pos_as_xyz
  1  'x, y, z'
loop_
 _atom_site_type_symbol
 _atom_site_label
 _atom_site_symmetry_multiplicity
 _atom_site_fract_x
 _atom_site_fract_y
 _atom_site_fract_z
 _atom_site_occupancy
  Pr  Pr0  1  0.50000143  0.50000098  0.00000216  1
  Pr  Pr1  1  0.24999802  0.74999758  0.49999620  1
  Pr  Pr2  1  0.74999903  0.25000172  0.50000023  1
  Pr  Pr3  1  0.00000016  -0.00000208  -0.00000227  1
  Pr  Pr4  1  0.25000034  0.24999785  -0.00000070  1
  Pr  Pr5  1  0.00000005  0.49999747  0.49999825  1
  Pr  Pr6  1  0.49999820  0.00000080  0.49999811  1
  Pr  Pr7  1  0.74999999  0.75000336  0.00000319  1
  P  P0  1  0.62499505  0.91265050  0.78765299  1
  P  P1  1  0.62500099  0.41264644  0.28764572  1
  P  P2  1  0.16265151  0.37500393  0.28765167  1
  P  P3  1  0.08734690  0.87499851  0.71234442  1
  P  P4  1  0.12500265  0.33734434  0.71234701  1
  P  P5  1  0.12499544  0.83734965  0.21235528  1
  P  P6  1  0.58735301  0.87500169  0.21235022  1
  P  P7  1  0.66265669  0.37500468  0.78765387  1
  S  S0  1  0.98638568  0.71727474  0.45701329  1
  S  S1  1  0.26026163  0.52938312  0.54298951  1
  S  S2  1  0.27938224  0.23638338  0.76911130  1
  S  S3  1  0.46727486  0.51026287  0.23087891  1
  S  S4  1  0.98973268  0.03272500  0.76911220  1
  S  S5  1  0.26361053  0.22062044  0.23088784  1
  S  S6  1  0.78272587  0.51360894  0.54297829  1
  S  S7  1  0.97062286  0.23973299  0.45700896  1
  S  S8  1  0.60574484  0.78725488  0.31506856  1
  S  S9  1  0.53725729  0.72218286  0.68151444  1
  S  S10  1  0.04067236  0.85575347  0.31850065  1
  S  S11  1  0.64425294  0.45933126  0.68151088  1
  S  S12  1  0.77781985  0.96274489  0.31849473  1
  S  S13  1  0.20931728  0.02781215  0.31506156  1
  S  S14  1  0.71273760  0.89426201  0.68493145  1
  S  S15  1  0.47219336  0.29067491  0.68493726  1
  S  S16  1  0.14425713  0.46274501  0.18492638  1
  S  S17  1  0.21273970  0.52781133  0.81848447  1
  S  S18  1  0.70932613  0.39424579  0.18150461  1
  S  S19  1  0.10574651  0.79067063  0.81848451  1
  S  S20  1  0.97218729  0.28726239  0.18151394  1
  S  S21  1  0.54067413  0.22218307  0.18493288  1
  S  S22  1  0.03725971  0.35573863  0.81507043  1
  S  S23  1  0.27781253  0.95932624  0.81506520  1
  S  S24  1  0.48973613  0.72062277  0.95701020  1
  S  S25  1  0.47061586  0.01361182  0.73088823  1
  S  S26  1  0.28272687  0.73973840  0.26912250  1
  S  S27  1  0.76026501  0.21727367  0.73088078  1
  S  S28  1  0.48639342  0.02938327  0.26911912  1
  S  S29  1  0.96727287  0.73638520  0.95702297  1
  S  S30  1  0.77937713  0.01026662  0.04299156  1
  S  S31  1  0.76361624  0.53272582  0.04298604  1
loop_
_geom_bond_atom_site_label_1
_geom_bond_atom_site_label_2
_geom_bond_distance
_geom_bond_site_symmetry_2
Pr0 S8 2.930517 1_555
Pr0 S15 2.930539 1_554
Pr0 S18 2.930566 1_555
Pr0 S17 2.930582 1_554
Pr0 S3 3.074062 1_555
Pr0 S24 3.074146 1_554
Pr0 S2 3.074169 1_554
Pr0 S31 3.074228 1_555
Pr1 S16 2.930525 1_555
Pr1 S10 2.930533 1_555
Pr1 S23 2.930538 1_555
Pr1 S9 2.930578 1_555
Pr1 S26 3.074063 1_555
Pr1 S1 3.074072 1_555
Pr1 S25 3.074126 1_565
Pr1 S0 3.074197 1_455
Pr2 S21 2.930493 1_555
Pr2 S12 2.930553 1_545
Pr2 S11 2.930558 1_555
Pr2 S22 2.930592 1_655
Pr2 S27 3.074091 1_555
Pr2 S28 3.074095 1_555
Pr2 S6 3.074163 1_555
Pr2 S7 3.074171 1_555
Pr3 S13 2.930479 1_555
Pr3 S19 2.930567 1_544
Pr3 S14 2.930589 1_444
Pr3 S20 2.930603 1_455
Pr3 S4 3.074133 1_454
Pr3 S5 3.074136 1_555
Pr3 S30 3.074183 1_455
Pr3 S29 3.074255 1_444
Pr4 S22 2.965600 1_554
Pr4 S23 2.965622 1_544
Pr4 S16 2.965640 1_555
Pr4 S21 2.965664 1_555
Pr4 S4 3.021909 1_454
Pr4 S3 3.021917 1_555
Pr4 S5 3.021922 1_555
Pr4 S2 3.021927 1_554
Pr5 S20 2.965630 1_455
Pr5 S17 2.965647 1_555
Pr5 S19 2.965648 1_555
Pr5 S18 2.965685 1_455
Pr5 S6 3.021799 1_455
Pr5 S0 3.021854 1_455
Pr5 S1 3.021868 1_555
Pr5 S7 3.021873 1_455
Pr6 S14 2.965605 1_545
Pr6 S15 2.965622 1_555
Pr6 S8 2.965682 1_545
Pr6 S13 2.965718 1_555
Pr6 S28 3.021885 1_555
Pr6 S26 3.021885 1_545
Pr6 S27 3.021915 1_555
Pr6 S25 3.021981 1_555
Pr7 S9 2.965632 1_554
Pr7 S12 2.965659 1_555
Pr7 S11 2.965665 1_554
Pr7 S10 2.965693 1_655
Pr7 S29 3.021764 1_554
Pr7 S31 3.021834 1_555
Pr7 S30 3.021864 1_565
Pr7 S24 3.021868 1_554
P0 S9 2.034623 1_555
P0 S14 2.034651 1_555
P0 S25 2.036220 1_565
P0 S30 2.036228 1_566
P1 S18 2.034616 1_555
P1 S21 2.034649 1_555
P1 S6 2.036179 1_555
P1 S3 2.036239 1_555
P2 S20 2.034617 1_455
P2 S16 2.034641 1_555
P2 S1 2.036227 1_555
P2 S5 2.036231 1_555
P3 S19 2.034633 1_555
P3 S23 2.034649 1_555
P3 S0 2.036166 1_455
P3 S4 2.036224 1_465
P4 S17 2.034618 1_555
P4 S22 2.034648 1_555
P4 S2 2.036219 1_555
P4 S7 2.036229 1_455
P5 S10 2.034625 1_555
P5 S13 2.034648 1_565
P5 S29 2.036170 1_454
P5 S26 2.036242 1_555
P6 S12 2.034622 1_555
P6 S8 2.034640 1_555
P6 S28 2.036231 1_565
P6 S24 2.036231 1_554
P7 S11 2.034631 1_555
P7 S15 2.034654 1_555
P7 S31 2.036172 1_556
P7 S27 2.036224 1_555
