# generated using pymatgen
data_Mn4Co2PbO12
_symmetry_space_group_name_H-M   'P 1'
_cell_length_a   7.92472820
_cell_length_b   7.92472812
_cell_length_c   9.36163560
_cell_angle_alpha   55.08251949
_cell_angle_beta   55.08252035
_cell_angle_gamma   64.96431686
_symmetry_Int_Tables_number   1
_chemical_formula_structural   Mn4Co2PbO12
_chemical_formula_sum   'Mn8 Co4 Pb2 O24'
_cell_volume   391.28597050
_cell_formula_units_Z   2
loop_
 _symmetry_equiv_pos_site_id
 _symmetry_equiv_pos_as_xyz
  1  'x, y, z'
loop_
 _atom_site_type_symbol
 _atom_site_label
 _atom_site_symmetry_multiplicity
 _atom_site_fract_x
 _atom_site_fract_y
 _atom_site_fract_z
 _atom_site_occupancy
  Mn  Mn0  1  0.67081031  0.00313146  0.81666135  1
  Mn  Mn1  1  0.18801351  0.51961168  0.47722676  1
  Mn  Mn2  1  0.81198649  0.48038832  0.52277324  1
  Mn  Mn3  1  0.32918969  0.99686854  0.18333865  1
  Mn  Mn4  1  0.99686854  0.32918969  0.18333865  1
  Mn  Mn5  1  0.00313146  0.67081031  0.81666135  1
  Mn  Mn6  1  0.51961168  0.18801351  0.47722676  1
  Mn  Mn7  1  0.48038832  0.81198649  0.52277324  1
  Co  Co0  1  0.85398311  0.85398311  0.47288377  1
  Co  Co1  1  0.33394195  0.33394195  0.82203168  1
  Co  Co2  1  0.14601689  0.14601689  0.52711623  1
  Co  Co3  1  0.66605805  0.66605805  0.17796832  1
  Pb  Pb0  1  0.27746845  0.72253155  1.00000000  1
  Pb  Pb1  1  0.72253155  0.27746845  0.00000000  1
  O  O0  1  0.70479650  0.70479650  0.94059584  1
  O  O1  1  0.00971990  0.67367342  0.34823595  1
  O  O2  1  0.67367342  0.00971990  0.34823595  1
  O  O3  1  0.68431712  0.01859112  0.60563872  1
  O  O4  1  0.01859112  0.68431712  0.60563872  1
  O  O5  1  0.04266824  0.04266824  0.27461076  1
  O  O6  1  0.71024102  0.37579189  0.26845949  1
  O  O7  1  0.37579189  0.71024102  0.26845949  1
  O  O8  1  0.98140888  0.31568288  0.39436128  1
  O  O9  1  0.99028010  0.32632658  0.65176405  1
  O  O10  1  0.03604637  0.37116791  0.94184356  1
  O  O11  1  0.37116791  0.03604637  0.94184356  1
  O  O12  1  0.29520350  0.29520350  0.05940416  1
  O  O13  1  0.96395363  0.62883209  0.05815644  1
  O  O14  1  0.33986011  0.33986011  0.35225540  1
  O  O15  1  0.35677603  0.35677603  0.60219698  1
  O  O16  1  0.28975898  0.62420811  0.73154051  1
  O  O17  1  0.62420811  0.28975898  0.73154051  1
  O  O18  1  0.95733176  0.95733176  0.72538924  1
  O  O19  1  0.64322397  0.64322397  0.39780302  1
  O  O20  1  0.31568288  0.98140888  0.39436128  1
  O  O21  1  0.66013989  0.66013989  0.64774460  1
  O  O22  1  0.32632658  0.99028010  0.65176405  1
  O  O23  1  0.62883209  0.96395363  0.05815644  1
loop_
_geom_bond_atom_site_label_1
_geom_bond_atom_site_label_2
_geom_bond_distance
_geom_bond_site_symmetry_2
Mn0 O3 1.849619 1_555
Mn0 O18 1.858481 1_545
Mn0 O17 1.866988 1_555
Mn0 O0 1.920107 1_545
Mn0 O11 1.928743 1_555
Mn0 O23 1.934196 1_546
Mn1 O4 1.848460 1_555
Mn1 O15 1.850621 1_555
Mn1 O7 1.873372 1_555
Mn1 O14 1.921282 1_555
Mn1 O9 1.925260 1_455
Mn1 O1 1.936652 1_555
Mn2 O8 1.848460 1_555
Mn2 O19 1.850621 1_555
Mn2 O17 1.873372 1_555
Mn2 O21 1.921282 1_555
Mn2 O1 1.925260 1_655
Mn2 O9 1.936652 1_555
Mn3 O20 1.849619 1_555
Mn3 O5 1.858481 1_565
Mn3 O7 1.866988 1_555
Mn3 O12 1.920107 1_565
Mn3 O23 1.928743 1_555
Mn3 O11 1.934196 1_564
Mn4 O8 1.849619 1_555
Mn4 O5 1.858481 1_655
Mn4 O6 1.866988 1_555
Mn4 O12 1.920107 1_655
Mn4 O13 1.928743 1_555
Mn4 O10 1.934196 1_654
Mn5 O4 1.849619 1_555
Mn5 O18 1.858481 1_455
Mn5 O16 1.866988 1_555
Mn5 O0 1.920107 1_455
Mn5 O10 1.928743 1_555
Mn5 O13 1.934196 1_456
Mn6 O3 1.848460 1_555
Mn6 O15 1.850621 1_555
Mn6 O6 1.873372 1_555
Mn6 O14 1.921282 1_555
Mn6 O22 1.925260 1_545
Mn6 O2 1.936652 1_555
Mn7 O20 1.848460 1_555
Mn7 O19 1.850621 1_555
Mn7 O16 1.873372 1_555
Mn7 O21 1.921282 1_555
Mn7 O2 1.925260 1_565
Mn7 O22 1.936652 1_555
Co0 O5 1.858685 1_665
Co0 O4 1.874178 1_655
Co0 O3 1.874178 1_565
Co0 O21 1.907606 1_555
Co0 O2 1.922026 1_565
Co0 O1 1.922026 1_655
Co1 O15 1.864394 1_555
Co1 O16 1.886427 1_555
Co1 O17 1.886427 1_555
Co1 O12 1.909046 1_556
Co1 O11 1.917361 1_555
Co1 O10 1.917361 1_555
Co2 O18 1.858685 1_445
Co2 O8 1.874178 1_455
Co2 O20 1.874178 1_545
Co2 O14 1.907606 1_555
Co2 O22 1.922026 1_545
Co2 O9 1.922026 1_455
Co3 O19 1.864394 1_555
Co3 O6 1.886427 1_555
Co3 O7 1.886427 1_555
Co3 O0 1.909046 1_554
Co3 O23 1.917361 1_555
Co3 O13 1.917361 1_555
O1 Pb0 2.571286 1_554
O2 Pb1 2.571286 1_555
O9 Pb1 2.571286 1_556
O10 Pb1 2.563341 1_456
O11 Pb0 2.563341 1_545
O13 Pb0 2.563341 1_654
O22 Pb0 2.571286 1_555
O23 Pb1 2.563341 1_565
