# generated using pymatgen
data_Fe2CoO4
_symmetry_space_group_name_H-M   'P 1'
_cell_length_a   6.03930700
_cell_length_b   6.03930700
_cell_length_c   14.72946400
_cell_angle_alpha   90.00000000
_cell_angle_beta   90.00000000
_cell_angle_gamma   119.99998910
_symmetry_Int_Tables_number   1
_chemical_formula_structural   Fe2CoO4
_chemical_formula_sum   'Fe12 Co6 O24'
_cell_volume   465.25584437
_cell_formula_units_Z   6
loop_
 _symmetry_equiv_pos_site_id
 _symmetry_equiv_pos_as_xyz
  1  'x, y, z'
loop_
 _atom_site_type_symbol
 _atom_site_label
 _atom_site_symmetry_multiplicity
 _atom_site_fract_x
 _atom_site_fract_y
 _atom_site_fract_z
 _atom_site_occupancy
  Fe  Fe0  1  0.66627600  0.66374600  0.87643700  1
  Fe  Fe1  1  0.16632300  0.66730800  0.99928200  1
  Fe  Fe2  1  0.33625400  0.00253000  0.20977000  1
  Fe  Fe3  1  0.66730800  0.16632300  0.00071800  1
  Fe  Fe4  1  0.83367700  0.50098400  0.33405200  1
  Fe  Fe5  1  0.99747000  0.33372400  0.54310400  1
  Fe  Fe6  1  0.33269200  0.49901600  0.33261500  1
  Fe  Fe7  1  0.66374600  0.66627600  0.12356300  1
  Fe  Fe8  1  0.49901600  0.33269200  0.66738500  1
  Fe  Fe9  1  0.33372400  0.99747000  0.45689600  1
  Fe  Fe10  1  0.50098400  0.83367700  0.66594800  1
  Fe  Fe11  1  0.00253000  0.33625400  0.79023000  1
  Co  Co0  1  0.32995100  0.00000000  0.83333300  1
  Co  Co1  1  0.00000000  0.32995100  0.16666700  1
  Co  Co2  1  0.83340000  0.00000000  0.33333300  1
  Co  Co3  1  0.16660000  0.16660000  0.00000000  1
  Co  Co4  1  0.67004900  0.67004900  0.50000000  1
  Co  Co5  1  0.00000000  0.83340000  0.66666700  1
  O  O0  1  0.01216800  0.83298600  0.92020500  1
  O  O1  1  0.49869300  0.31705300  0.91986500  1
  O  O2  1  0.33815000  0.99478100  0.07742400  1
  O  O3  1  0.49264400  0.84032600  0.92225000  1
  O  O4  1  0.84032600  0.49264400  0.07775000  1
  O  O5  1  0.68294700  0.18164000  0.25319800  1
  O  O6  1  0.99478100  0.33815000  0.92257600  1
  O  O7  1  0.83298600  0.01216800  0.07979500  1
  O  O8  1  0.15967400  0.65231800  0.25558400  1
  O  O9  1  0.00521900  0.34336900  0.41075700  1
  O  O10  1  0.31705300  0.49869300  0.08013500  1
  O  O11  1  0.16701400  0.17918300  0.25353800  1
  O  O12  1  0.50130700  0.81836000  0.41346900  1
  O  O13  1  0.34768200  0.50735600  0.58891700  1
  O  O14  1  0.50735600  0.34768200  0.41108300  1
  O  O15  1  0.66185000  0.65663100  0.25591000  1
  O  O16  1  0.82081700  0.98783200  0.58687200  1
  O  O17  1  0.65663100  0.66185000  0.74409000  1
  O  O18  1  0.98783200  0.82081700  0.41312800  1
  O  O19  1  0.81836000  0.50130700  0.58653100  1
  O  O20  1  0.17918300  0.16701400  0.74646200  1
  O  O21  1  0.34336900  0.00521900  0.58924300  1
  O  O22  1  0.18164000  0.68294700  0.74680200  1
  O  O23  1  0.65231800  0.15967400  0.74441600  1
loop_
_geom_bond_atom_site_label_1
_geom_bond_atom_site_label_2
_geom_bond_distance
_geom_bond_site_symmetry_2
Fe0 O0 1.920648 1_655
Fe0 O1 1.923108 1_555
Fe0 O17 1.950133 1_555
Fe0 O3 1.952043 1_555
Fe1 O0 2.038652 1_555
Fe1 O3 2.050330 1_555
Fe1 O10 2.052047 1_556
Fe1 O6 2.059629 1_455
Fe1 O4 2.061052 1_456
Fe1 O2 2.064139 1_556
Fe2 O11 1.920653 1_555
Fe2 O5 1.923108 1_555
Fe2 O2 1.950118 1_545
Fe2 O8 1.952049 1_545
Fe3 O7 2.038652 1_555
Fe3 O4 2.050330 1_555
Fe3 O1 2.052047 1_554
Fe3 O2 2.059629 1_545
Fe3 O3 2.061052 1_544
Fe3 O6 2.064139 1_554
Fe4 O18 2.038644 1_555
Fe4 O14 2.050322 1_555
Fe4 O5 2.052052 1_555
Fe4 O9 2.059617 1_655
Fe4 O8 2.061052 1_655
Fe4 O15 2.064143 1_555
Fe5 O16 1.920649 1_545
Fe5 O19 1.923103 1_555
Fe5 O9 1.950133 1_655
Fe5 O13 1.952044 1_655
Fe6 O11 2.038652 1_555
Fe6 O8 2.050317 1_555
Fe6 O12 2.052052 1_555
Fe6 O15 2.059621 1_555
Fe6 O14 2.061056 1_555
Fe6 O9 2.064138 1_555
Fe7 O7 1.920648 1_565
Fe7 O10 1.923108 1_555
Fe7 O15 1.950133 1_555
Fe7 O4 1.952043 1_555
Fe8 O20 2.038652 1_555
Fe8 O23 2.050317 1_555
Fe8 O19 2.052052 1_555
Fe8 O17 2.059621 1_555
Fe8 O13 2.061056 1_555
Fe8 O21 2.064138 1_555
Fe9 O18 1.920649 1_455
Fe9 O12 1.923103 1_555
Fe9 O21 1.950133 1_565
Fe9 O14 1.952044 1_565
Fe10 O16 2.038644 1_555
Fe10 O13 2.050322 1_555
Fe10 O22 2.052052 1_555
Fe10 O21 2.059617 1_565
Fe10 O23 2.061052 1_565
Fe10 O17 2.064143 1_555
Fe11 O20 1.920653 1_555
Fe11 O22 1.923108 1_555
Fe11 O6 1.950118 1_455
Fe11 O23 1.952049 1_455
Co0 O22 2.092388 1_545
Co0 O1 2.092397 1_555
Co0 O20 2.098127 1_555
Co0 O0 2.098140 1_545
Co0 O3 2.134978 1_545
Co0 O23 2.134979 1_555
Co1 O5 2.092388 1_455
Co1 O10 2.092397 1_555
Co1 O11 2.098127 1_555
Co1 O7 2.098140 1_455
Co1 O4 2.134978 1_455
Co1 O8 2.134979 1_555
Co2 O5 2.102128 1_555
Co2 O12 2.102137 1_545
Co2 O11 2.105128 1_655
Co2 O18 2.105132 1_545
Co2 O15 2.127374 1_545
Co2 O9 2.127382 1_655
Co3 O1 2.102128 1_554
Co3 O10 2.102128 1_555
Co3 O0 2.105127 1_544
Co3 O7 2.105127 1_455
Co3 O2 2.127381 1_545
Co3 O6 2.127381 1_454
Co4 O19 2.092387 1_555
Co4 O12 2.092387 1_555
Co4 O16 2.098140 1_555
Co4 O18 2.098140 1_555
Co4 O13 2.134979 1_555
Co4 O14 2.134979 1_555
Co5 O22 2.102128 1_555
Co5 O19 2.102137 1_455
Co5 O20 2.105128 1_565
Co5 O16 2.105132 1_455
Co5 O17 2.127374 1_455
Co5 O21 2.127382 1_565
