# generated using pymatgen
data_Ta3CrGa2C
_symmetry_space_group_name_H-M   'P 1'
_cell_length_a   8.24058366
_cell_length_b   8.24058378
_cell_length_c   8.24058306
_cell_angle_alpha   60.00000288
_cell_angle_beta   60.00000240
_cell_angle_gamma   60.00000438
_symmetry_Int_Tables_number   1
_chemical_formula_structural   Ta3CrGa2C
_chemical_formula_sum   'Ta12 Cr4 Ga8 C4'
_cell_volume   395.69350940
_cell_formula_units_Z   4
loop_
 _symmetry_equiv_pos_site_id
 _symmetry_equiv_pos_as_xyz
  1  'x, y, z'
loop_
 _atom_site_type_symbol
 _atom_site_label
 _atom_site_symmetry_multiplicity
 _atom_site_fract_x
 _atom_site_fract_y
 _atom_site_fract_z
 _atom_site_occupancy
  Ta  Ta0  1  0.55606141  0.94393859  0.55606141  1
  Ta  Ta1  1  0.30606141  0.69393859  0.69393859  1
  Ta  Ta2  1  0.69393859  0.30606141  0.30606141  1
  Ta  Ta3  1  0.30606141  0.69393859  0.30606141  1
  Ta  Ta4  1  0.69393859  0.69393859  0.30606141  1
  Ta  Ta5  1  0.30606141  0.30606141  0.69393859  1
  Ta  Ta6  1  0.55606141  0.55606141  0.94393859  1
  Ta  Ta7  1  0.94393859  0.55606141  0.55606141  1
  Ta  Ta8  1  0.55606141  0.94393859  0.94393859  1
  Ta  Ta9  1  0.94393859  0.94393859  0.55606141  1
  Ta  Ta10  1  0.69393859  0.30606141  0.69393859  1
  Ta  Ta11  1  0.94393859  0.55606141  0.94393859  1
  Cr  Cr0  1  0.12500000  0.12500000  0.12500000  1
  Cr  Cr1  1  0.62500000  0.12500000  0.12500000  1
  Cr  Cr2  1  0.12500000  0.62500000  0.12500000  1
  Cr  Cr3  1  0.12500000  0.12500000  0.62500000  1
  Ga  Ga0  1  0.91327380  0.91327380  0.91327380  1
  Ga  Ga1  1  0.98982039  0.33672620  0.33672620  1
  Ga  Ga2  1  0.33672620  0.98982039  0.33672620  1
  Ga  Ga3  1  0.33672620  0.33672620  0.98982039  1
  Ga  Ga4  1  0.91327380  0.26017961  0.91327380  1
  Ga  Ga5  1  0.91327380  0.91327380  0.26017961  1
  Ga  Ga6  1  0.26017961  0.91327380  0.91327380  1
  Ga  Ga7  1  0.33672620  0.33672620  0.33672620  1
  C  C0  1  0.62500000  0.62500000  0.62500000  1
  C  C1  1  0.12500000  0.62500000  0.62500000  1
  C  C2  1  0.62500000  0.12500000  0.62500000  1
  C  C3  1  0.62500000  0.62500000  0.12500000  1
loop_
_geom_bond_atom_site_label_1
_geom_bond_atom_site_label_2
_geom_bond_distance
_geom_bond_site_symmetry_2
Cr0 Ga2 2.546798 1_545
Cr0 Ga4 2.546798 1_454
Cr0 Ga1 2.546798 1_455
Cr0 Ga6 2.546798 1_544
Cr0 Ga3 2.546798 1_554
Cr0 Ga5 2.546798 1_445
Cr0 Ta9 2.949006 1_445
Cr0 Ta5 2.949006 1_554
Cr0 Ta8 2.949006 1_544
Cr0 Ta2 2.949006 1_455
Cr0 Ta11 2.949006 1_454
Cr0 Ta3 2.949006 1_545
Cr1 Ga7 2.546800 1_555
Cr1 Ga0 2.546800 1_544
Cr1 Ga4 2.546805 1_554
Cr1 Ga2 2.546805 1_545
Cr1 Ga5 2.546805 1_545
Cr1 Ga3 2.546805 1_554
Cr1 Ta2 2.949006 1_555
Cr1 Ta0 2.949006 1_545
Cr1 Ta10 2.949006 1_554
Cr1 Ta8 2.949006 1_544
Cr1 Ta6 2.949006 1_554
Cr1 Ta4 2.949006 1_545
Cr2 Ga7 2.546800 1_555
Cr2 Ga0 2.546800 1_454
Cr2 Ga6 2.546805 1_554
Cr2 Ga1 2.546805 1_455
Cr2 Ga5 2.546805 1_455
Cr2 Ga3 2.546805 1_554
Cr2 Ta3 2.949006 1_555
Cr2 Ta7 2.949006 1_455
Cr2 Ta11 2.949006 1_454
Cr2 Ta1 2.949006 1_554
Cr2 Ta6 2.949006 1_554
Cr2 Ta4 2.949006 1_455
Cr3 Ga7 2.546800 1_555
Cr3 Ga0 2.546800 1_445
Cr3 Ga4 2.546805 1_455
Cr3 Ga2 2.546805 1_545
Cr3 Ga6 2.546805 1_545
Cr3 Ga1 2.546805 1_455
Cr3 Ta5 2.949006 1_555
Cr3 Ta9 2.949006 1_445
Cr3 Ta0 2.949006 1_545
Cr3 Ta10 2.949006 1_455
Cr3 Ta7 2.949006 1_455
Cr3 Ta1 2.949006 1_545
Ga0 Ta9 2.714569 1_555
Ga0 Ta8 2.714569 1_555
Ga0 Ta11 2.714569 1_555
Ga0 Ga5 2.858706 1_556
Ga0 Ga6 2.858706 1_655
Ga0 Ga4 2.858706 1_565
Ga0 Ta4 2.928616 1_556
Ga0 Ta1 2.928616 1_655
Ga0 Ta10 2.928616 1_565
Ga1 Ta2 2.714561 1_555
Ga1 Ta10 2.714565 1_555
Ga1 Ta4 2.714566 1_555
Ga1 Ga3 2.858706 1_654
Ga1 Ga7 2.858706 1_655
Ga1 Ga2 2.858707 1_645
Ga1 Ta11 2.928613 1_554
Ga1 Ta9 2.928613 1_545
Ga1 Ta7 2.928620 1_555
Ga2 Ta3 2.714561 1_555
Ga2 Ta1 2.714565 1_555
Ga2 Ta4 2.714566 1_555
Ga2 Ga3 2.858706 1_564
Ga2 Ga7 2.858706 1_565
Ga2 Ta8 2.928613 1_554
Ga2 Ta9 2.928613 1_455
Ga2 Ta0 2.928620 1_555
Ga3 Ta5 2.714560 1_555
Ga3 Ta10 2.714565 1_555
Ga3 Ta1 2.714565 1_555
Ga3 Ga7 2.858706 1_556
Ga3 Ta11 2.928613 1_455
Ga3 Ta8 2.928613 1_545
Ga3 Ta6 2.928620 1_555
Ga4 Ta11 2.714561 1_555
Ga4 Ta7 2.714565 1_555
Ga4 Ta6 2.714566 1_555
Ga4 Ga5 2.858706 1_546
Ga4 Ga6 2.858707 1_645
Ga4 Ta2 2.928613 1_556
Ga4 Ta5 2.928613 1_655
Ga4 Ta10 2.928620 1_555
Ga5 Ta9 2.714560 1_555
Ga5 Ta0 2.714565 1_555
Ga5 Ta7 2.714565 1_555
Ga5 Ga6 2.858706 1_654
Ga5 Ta3 2.928613 1_655
Ga5 Ta2 2.928613 1_565
Ga5 Ta4 2.928620 1_555
Ga6 Ta8 2.714561 1_555
Ga6 Ta0 2.714565 1_555
Ga6 Ta6 2.714566 1_555
Ga6 Ta3 2.928613 1_556
Ga6 Ta5 2.928613 1_565
Ga6 Ta1 2.928620 1_555
Ga7 Ta5 2.714569 1_555
Ga7 Ta2 2.714569 1_555
Ga7 Ta3 2.714569 1_555
Ga7 Ta6 2.928616 1_554
Ga7 Ta7 2.928616 1_455
Ga7 Ta0 2.928616 1_545
C0 Ta6 2.211258 1_555
C0 Ta4 2.211258 1_555
C0 Ta7 2.211258 1_555
C0 Ta1 2.211258 1_555
C0 Ta0 2.211258 1_555
C0 Ta10 2.211258 1_555
C1 Ta1 2.211258 1_555
C1 Ta11 2.211258 1_455
C1 Ta3 2.211258 1_555
C1 Ta7 2.211258 1_455
C1 Ta9 2.211258 1_455
C1 Ta5 2.211258 1_555
C2 Ta10 2.211258 1_555
C2 Ta8 2.211258 1_545
C2 Ta2 2.211258 1_555
C2 Ta0 2.211258 1_545
C2 Ta9 2.211258 1_545
C2 Ta5 2.211258 1_555
C3 Ta4 2.211258 1_555
C3 Ta6 2.211258 1_554
C3 Ta11 2.211258 1_554
C3 Ta3 2.211258 1_555
C3 Ta8 2.211258 1_554
C3 Ta2 2.211258 1_555
