# generated using pymatgen
data_AgRu2PbO7
_symmetry_space_group_name_H-M   'P 1'
_cell_length_a   7.19788271
_cell_length_b   7.19788303
_cell_length_c   7.29441826
_cell_angle_alpha   59.55534230
_cell_angle_beta   59.55534081
_cell_angle_gamma   59.62646954
_symmetry_Int_Tables_number   1
_chemical_formula_structural   AgRu2PbO7
_chemical_formula_sum   'Ag2 Ru4 Pb2 O14'
_cell_volume   264.67262712
_cell_formula_units_Z   2
loop_
 _symmetry_equiv_pos_site_id
 _symmetry_equiv_pos_as_xyz
  1  'x, y, z'
loop_
 _atom_site_type_symbol
 _atom_site_label
 _atom_site_symmetry_multiplicity
 _atom_site_fract_x
 _atom_site_fract_y
 _atom_site_fract_z
 _atom_site_occupancy
  Ag  Ag0  1  0.62500000  0.12500000  0.12500000  1
  Ag  Ag1  1  0.12500000  0.62500000  0.12500000  1
  Ru  Ru0  1  0.62500000  0.62500000  0.62500000  1
  Ru  Ru1  1  0.12500000  0.62500000  0.62500000  1
  Ru  Ru2  1  0.62500000  0.62500000  0.12500000  1
  Ru  Ru3  1  0.62500000  0.12500000  0.62500000  1
  Pb  Pb0  1  0.12500000  0.12500000  0.12500000  1
  Pb  Pb1  1  0.12500000  0.12500000  0.62500000  1
  O  O0  1  0.98315332  0.98315332  0.01684668  1
  O  O1  1  0.26684668  0.26684668  0.23315332  1
  O  O2  1  0.29734593  0.29734593  0.70265407  1
  O  O3  1  0.55481914  0.55481914  0.94518086  1
  O  O4  1  0.70041614  0.30468009  0.68781663  1
  O  O5  1  0.70041614  0.30468009  0.30708714  1
  O  O6  1  0.30468009  0.70041614  0.68781663  1
  O  O7  1  0.30468009  0.70041614  0.30708714  1
  O  O8  1  0.69518086  0.69518086  0.30481914  1
  O  O9  1  0.94531991  0.54958386  0.56218337  1
  O  O10  1  0.54958386  0.94531991  0.94291286  1
  O  O11  1  0.95265407  0.95265407  0.54734593  1
  O  O12  1  0.94531991  0.54958386  0.94291286  1
  O  O13  1  0.54958386  0.94531991  0.56218337  1
loop_
_geom_bond_atom_site_label_1
_geom_bond_atom_site_label_2
_geom_bond_distance
_geom_bond_site_symmetry_2
Ag0 O0 2.098598 1_545
Ag0 O1 2.098598 1_555
Ag0 O3 2.554556 1_554
Ag0 O8 2.554556 1_545
Ag0 O13 2.629258 1_545
Ag0 O4 2.629258 1_554
Ag0 O5 2.629259 1_555
Ag0 O10 2.629259 1_544
Ag1 O0 2.098598 1_455
Ag1 O1 2.098598 1_555
Ag1 O3 2.554556 1_554
Ag1 O8 2.554556 1_455
Ag1 O9 2.629258 1_455
Ag1 O6 2.629258 1_554
Ag1 O7 2.629259 1_555
Ag1 O12 2.629259 1_454
O0 Pb1 2.322498 1_664
O0 Pb0 2.322498 1_665
O1 Pb1 2.322498 1_555
O1 Pb0 2.322498 1_555
O2 Ru3 1.954872 1_555
O2 Ru1 1.954872 1_555
O2 Pb0 2.525694 1_556
O2 Pb1 2.525694 1_555
O3 Ru0 1.957519 1_555
O3 Ru2 1.957519 1_556
O4 Ru0 1.932949 1_555
O4 Ru3 1.933881 1_555
O4 Pb1 2.531162 1_655
O5 Ru2 1.932949 1_555
O5 Ru3 1.933881 1_555
O5 Pb0 2.531162 1_655
O6 Ru0 1.932949 1_555
O6 Ru1 1.933881 1_555
O6 Pb1 2.531162 1_565
O7 Ru2 1.932949 1_555
O7 Ru1 1.933881 1_555
O7 Pb0 2.531162 1_565
O8 Ru0 1.957519 1_555
O8 Ru2 1.957519 1_555
O9 Ru0 1.932949 1_555
O9 Ru1 1.933881 1_655
O9 Pb1 2.531162 1_655
O10 Ru2 1.932949 1_556
O10 Ru3 1.933881 1_565
O10 Pb0 2.531162 1_566
O11 Ru3 1.954872 1_565
O11 Ru1 1.954872 1_655
O11 Pb0 2.525694 1_665
O11 Pb1 2.525694 1_665
O12 Ru2 1.932949 1_556
O12 Ru1 1.933881 1_655
O12 Pb0 2.531162 1_656
O13 Ru0 1.932949 1_555
O13 Ru3 1.933881 1_565
O13 Pb1 2.531162 1_565
