# generated using pymatgen
data_Sr5Sn2BiF
_symmetry_space_group_name_H-M   'P 1'
_cell_length_a   10.00135826
_cell_length_b   10.00135824
_cell_length_c   10.00142662
_cell_angle_alpha   128.67817212
_cell_angle_beta   128.67817085
_cell_angle_gamma   75.52849467
_symmetry_Int_Tables_number   1
_chemical_formula_structural   Sr5Sn2BiF
_chemical_formula_sum   'Sr10 Sn4 Bi2 F2'
_cell_volume   593.23521370
_cell_formula_units_Z   2
loop_
 _symmetry_equiv_pos_site_id
 _symmetry_equiv_pos_as_xyz
  1  'x, y, z'
loop_
 _atom_site_type_symbol
 _atom_site_label
 _atom_site_symmetry_multiplicity
 _atom_site_fract_x
 _atom_site_fract_y
 _atom_site_fract_z
 _atom_site_occupancy
  Sr  Sr0  1  0.50000000  0.50000000  0.00000000  1
  Sr  Sr1  1  0.00000000  0.00000000  0.00000000  1
  Sr  Sr2  1  0.51238236  0.01238236  0.81835263  1
  Sr  Sr3  1  0.19403073  0.69403073  0.18164637  1
  Sr  Sr4  1  0.01234629  0.19402617  0.50000000  1
  Sr  Sr5  1  0.69402617  0.51234629  0.50000000  1
  Sr  Sr6  1  0.48761764  0.98761764  0.18164737  1
  Sr  Sr7  1  0.80596927  0.30596927  0.81835363  1
  Sr  Sr8  1  0.98765371  0.80597383  0.50000000  1
  Sr  Sr9  1  0.30597383  0.48765371  0.50000000  1
  Sn  Sn0  1  0.87511433  0.37511433  0.25022965  1
  Sn  Sn1  1  0.12488567  0.62488567  0.74977135  1
  Sn  Sn2  1  0.37509738  0.12490262  0.50000000  1
  Sn  Sn3  1  0.62490262  0.87509738  0.50000000  1
  Bi  Bi0  1  0.25000000  0.25000000  0.00000000  1
  Bi  Bi1  1  0.75000000  0.75000000  0.00000000  1
  F  F0  1  0.24999814  0.74999814  0.50000000  1
  F  F1  1  0.75000186  0.25000186  0.50000000  1
loop_
_geom_bond_atom_site_label_1
_geom_bond_atom_site_label_2
_geom_bond_distance
_geom_bond_site_symmetry_2
Sn0 Sn1 3.059731 1_655
Sn0 Sr5 3.395789 1_555
Sn0 Sr4 3.395789 1_655
Sn0 Sr8 3.395798 1_555
Sn0 Sr9 3.395798 1_655
Sn0 Sr1 3.424604 1_655
Sn0 Sr0 3.424604 1_555
Sn0 Sr7 3.519311 1_554
Sn0 Sr2 3.519319 1_554
Sn1 Sr4 3.395795 1_555
Sn1 Sr5 3.395795 1_455
Sn1 Sr9 3.395797 1_555
Sn1 Sr8 3.395797 1_455
Sn1 Sr1 3.424601 1_566
Sn1 Sr0 3.424601 1_556
Sn1 Sr3 3.519301 1_556
Sn1 Sr6 3.519319 1_556
Sn2 Sn3 3.060100 1_545
Sn2 Sr3 3.395784 1_545
Sn2 Sr7 3.395784 1_555
Sn2 Sr6 3.395798 1_545
Sn2 Sr2 3.395798 1_555
Sn2 Sr0 3.424544 1_556
Sn2 Sr1 3.424544 1_555
Sn2 Sr9 3.519486 1_555
Sn2 Sr4 3.519486 1_555
Sn3 Sr7 3.395784 1_565
Sn3 Sr3 3.395784 1_555
Sn3 Sr2 3.395798 1_565
Sn3 Sr6 3.395798 1_555
Sn3 Sr0 3.424544 1_555
Sn3 Sr1 3.424544 1_666
Sn3 Sr5 3.519486 1_555
Sn3 Sr8 3.519486 1_555
Bi0 Sr8 3.644143 1_444
Bi0 Sr5 3.644143 1_555
Bi0 Sr9 3.644145 1_555
Bi0 Sr4 3.644145 1_554
Bi0 Sr2 3.644185 1_554
Bi0 Sr6 3.644185 1_545
Bi0 Sr3 3.644193 1_555
Bi0 Sr7 3.644193 1_454
Bi0 Sr1 3.953223 1_555
Bi0 Sr0 3.953223 1_555
Bi1 Sr4 3.644143 1_665
Bi1 Sr9 3.644143 1_554
Bi1 Sr5 3.644145 1_554
Bi1 Sr8 3.644145 1_555
Bi1 Sr6 3.644185 1_555
Bi1 Sr2 3.644185 1_564
Bi1 Sr7 3.644193 1_554
Bi1 Sr3 3.644193 1_655
Bi1 Sr1 3.953223 1_665
Bi1 Sr0 3.953223 1_555
F0 Sr9 2.542360 1_555
F0 Sr8 2.542360 1_455
F0 Sr2 2.542777 1_565
F0 Sr3 2.542799 1_555
F1 Sr5 2.542360 1_555
F1 Sr4 2.542360 1_655
F1 Sr6 2.542777 1_545
F1 Sr7 2.542799 1_555
