# generated using pymatgen
data_Co5Si7(Mo6C)2
_symmetry_space_group_name_H-M   'P 1'
_cell_length_a   7.68631686
_cell_length_b   7.68631632
_cell_length_c   7.68631579
_cell_angle_alpha   60.33399832
_cell_angle_beta   60.33400048
_cell_angle_gamma   60.33400005
_symmetry_Int_Tables_number   1
_chemical_formula_structural   Co5Si7(Mo6C)2
_chemical_formula_sum   'Co5 Si7 Mo12 C2'
_cell_volume   323.52598586
_cell_formula_units_Z   1
loop_
 _symmetry_equiv_pos_site_id
 _symmetry_equiv_pos_as_xyz
  1  'x, y, z'
loop_
 _atom_site_type_symbol
 _atom_site_label
 _atom_site_symmetry_multiplicity
 _atom_site_fract_x
 _atom_site_fract_y
 _atom_site_fract_z
 _atom_site_occupancy
  Co  Co0  1  0.83016933  0.83016933  0.83016933  1
  Co  Co1  1  0.61786259  0.61786259  0.14056190  1
  Co  Co2  1  0.61786259  0.14056190  0.61786259  1
  Co  Co3  1  0.14056190  0.61786259  0.61786259  1
  Co  Co4  1  0.62740779  0.62740779  0.62740779  1
  Si  Si0  1  0.41590583  0.41590583  0.75459466  1
  Si  Si1  1  0.41590583  0.75459466  0.41590583  1
  Si  Si2  1  0.75459466  0.41590583  0.41590583  1
  Si  Si3  1  0.41426005  0.41426005  0.41426005  1
  Si  Si4  1  0.83641277  0.83641277  0.50518240  1
  Si  Si5  1  0.83641277  0.50518240  0.83641277  1
  Si  Si6  1  0.50518240  0.83641277  0.83641277  1
  Mo  Mo0  1  0.05335783  0.05335783  0.44903165  1
  Mo  Mo1  1  0.44367546  0.05532514  0.44367546  1
  Mo  Mo2  1  0.05532514  0.44367546  0.44367546  1
  Mo  Mo3  1  0.44367546  0.44367546  0.05532514  1
  Mo  Mo4  1  0.05335783  0.44903165  0.05335783  1
  Mo  Mo5  1  0.44903165  0.05335783  0.05335783  1
  Mo  Mo6  1  0.19062344  0.19062344  0.80788306  1
  Mo  Mo7  1  0.80636561  0.18796599  0.80636561  1
  Mo  Mo8  1  0.18796599  0.80636561  0.80636561  1
  Mo  Mo9  1  0.80636561  0.80636561  0.18796599  1
  Mo  Mo10  1  0.19062344  0.80788306  0.19062344  1
  Mo  Mo11  1  0.80788306  0.19062344  0.19062344  1
  C  C0  1  0.25032957  0.25032957  0.25032957  1
  C  C1  1  0.99888038  0.99888038  0.99888038  1
loop_
_geom_bond_atom_site_label_1
_geom_bond_atom_site_label_2
_geom_bond_distance
_geom_bond_site_symmetry_2
Co0 Co2 2.438468 1_565
Co0 Co1 2.438468 1_556
Co0 Co3 2.438468 1_655
Co0 Si4 2.451393 1_555
Co0 Si5 2.451393 1_555
Co0 Si6 2.451393 1_555
Co0 Mo9 2.582088 1_556
Co0 Mo7 2.582088 1_565
Co0 Mo8 2.582089 1_655
Co0 Mo0 2.726108 1_665
Co0 Mo4 2.726108 1_656
Co0 Mo5 2.726108 1_566
Co1 Si3 2.286977 1_555
Co1 Si2 2.308253 1_555
Co1 Si1 2.308253 1_555
Co1 Si6 2.390381 1_554
Co1 Si5 2.390381 1_554
Co1 Mo9 2.730307 1_555
Co1 Mo3 2.743228 1_555
Co1 Mo11 2.760968 1_555
Co1 Mo10 2.760968 1_555
Co1 Mo5 2.770958 1_565
Co1 Mo4 2.770958 1_655
Co2 Si3 2.286977 1_555
Co2 Si0 2.308253 1_555
Co2 Si2 2.308253 1_555
Co2 Si6 2.390381 1_545
Co2 Si4 2.390381 1_545
Co2 Mo7 2.730307 1_555
Co2 Mo1 2.743228 1_555
Co2 Mo11 2.760968 1_555
Co2 Mo6 2.760968 1_555
Co2 Mo5 2.770957 1_556
Co2 Mo0 2.770958 1_655
Co3 Si3 2.286977 1_555
Co3 Si0 2.308253 1_555
Co3 Si1 2.308253 1_555
Co3 Si4 2.390381 1_455
Co3 Si5 2.390381 1_455
Co3 Mo8 2.730307 1_555
Co3 Mo2 2.743228 1_555
Co3 Mo10 2.760968 1_555
Co3 Mo6 2.760968 1_555
Co3 Mo4 2.770957 1_556
Co3 Mo0 2.770958 1_565
Co4 Si6 2.368730 1_555
Co4 Si5 2.368730 1_555
Co4 Si4 2.368730 1_555
Co4 Si2 2.389776 1_555
Co4 Si1 2.389776 1_555
Co4 Si0 2.389776 1_555
Co4 Mo3 2.754130 1_556
Co4 Mo1 2.754130 1_565
Co4 Mo2 2.754131 1_655
Co4 Mo9 2.804932 1_555
Co4 Mo7 2.804932 1_555
Co4 Mo8 2.804932 1_555
Si0 Si1 2.616401 1_555
Si0 Si2 2.616401 1_555
Si0 Si3 2.628502 1_555
Si1 Si2 2.616401 1_555
Si1 Si3 2.628503 1_555
Si2 Si3 2.628503 1_555
Si4 Si5 2.558783 1_555
Si4 Si6 2.558784 1_555
Si5 Si6 2.558784 1_555
Mo0 Si2 2.577906 1_455
Mo0 Si1 2.577906 1_545
Mo0 Si4 2.659905 1_445
Mo1 Si1 2.540882 1_545
Mo1 Si3 2.555263 1_555
Mo1 Si6 2.786500 1_545
Mo1 Si4 2.786500 1_545
Mo2 Si2 2.540882 1_455
Mo2 Si3 2.555263 1_555
Mo2 Si5 2.786500 1_455
Mo2 Si4 2.786500 1_455
Mo3 Si0 2.540882 1_554
Mo3 Si3 2.555263 1_555
Mo3 Si6 2.786500 1_554
Mo3 Si5 2.786500 1_554
Mo4 Si2 2.577905 1_455
Mo4 Si0 2.577906 1_554
Mo4 Si5 2.659904 1_454
Mo5 Si1 2.577905 1_545
Mo5 Si0 2.577905 1_554
Mo5 Si6 2.659904 1_544
Mo6 Si6 2.593074 1_545
Mo6 Si5 2.593074 1_455
Mo6 Si3 2.773438 1_555
Mo6 Si0 2.780023 1_555
Mo7 Si5 2.686868 1_555
Mo7 Si2 2.742660 1_555
Mo7 Si0 2.742660 1_555
Mo8 Si6 2.686868 1_555
Mo8 Si1 2.742660 1_555
Mo8 Si0 2.742660 1_555
Mo9 Si4 2.686867 1_555
Mo9 Si2 2.742660 1_555
Mo9 Si1 2.742660 1_555
Mo10 Si6 2.593074 1_554
Mo10 Si4 2.593074 1_455
Mo10 Si3 2.773438 1_555
Mo10 Si1 2.780022 1_555
Mo11 Si5 2.593074 1_554
Mo11 Si4 2.593074 1_545
Mo11 Si3 2.773438 1_555
Mo11 Si2 2.780022 1_555
C0 Mo2 2.107125 1_555
C0 Mo1 2.107125 1_555
C0 Mo3 2.107125 1_555
C0 Mo5 2.146644 1_555
C0 Mo4 2.146644 1_555
C0 Mo0 2.146644 1_555
C1 Mo11 2.089495 1_566
C1 Mo10 2.089495 1_656
C1 Mo6 2.089495 1_665
C1 Mo8 2.097915 1_655
C1 Mo7 2.097915 1_565
C1 Mo9 2.097915 1_556
