# generated using pymatgen
data_Cs2Ir(OF2)2
_symmetry_space_group_name_H-M   'P 1'
_cell_length_a   8.02365778
_cell_length_b   8.02365734
_cell_length_c   7.40214973
_cell_angle_alpha   90.00000000
_cell_angle_beta   90.00000000
_cell_angle_gamma   134.36707132
_symmetry_Int_Tables_number   1
_chemical_formula_structural   Cs2Ir(OF2)2
_chemical_formula_sum   'Cs4 Ir2 O4 F8'
_cell_volume   340.66894389
_cell_formula_units_Z   2
loop_
 _symmetry_equiv_pos_site_id
 _symmetry_equiv_pos_as_xyz
  1  'x, y, z'
loop_
 _atom_site_type_symbol
 _atom_site_label
 _atom_site_symmetry_multiplicity
 _atom_site_fract_x
 _atom_site_fract_y
 _atom_site_fract_z
 _atom_site_occupancy
  Cs  Cs0  1  0.43700590  0.52657785  0.25000000  1
  Cs  Cs1  1  0.52657785  0.43700590  0.75000000  1
  Cs  Cs2  1  0.74657480  0.20083755  0.25000000  1
  Cs  Cs3  1  0.20083755  0.74657480  0.75000000  1
  Ir  Ir0  1  0.10631763  0.87437857  0.25000000  1
  Ir  Ir1  1  0.87437857  0.10631763  0.75000000  1
  O  O0  1  0.06804398  0.30085183  0.93140536  1
  O  O1  1  0.30085183  0.06804398  0.06859464  1
  O  O2  1  0.30085183  0.06804398  0.43140536  1
  O  O3  1  0.06804398  0.30085183  0.56859464  1
  F  F0  1  0.95321302  0.98204488  0.25000000  1
  F  F1  1  0.98204488  0.95321302  0.75000000  1
  F  F2  1  0.86580103  0.62767255  0.07042530  1
  F  F3  1  0.62767255  0.86580103  0.92957470  1
  F  F4  1  0.62767255  0.86580103  0.57042530  1
  F  F5  1  0.86580103  0.62767255  0.42957470  1
  F  F6  1  0.22131190  0.72399614  0.25000000  1
  F  F7  1  0.72399614  0.22131190  0.75000000  1
loop_
_geom_bond_atom_site_label_1
_geom_bond_atom_site_label_2
_geom_bond_distance
_geom_bond_site_symmetry_2
Cs0 F6 3.055833 1_555
Cs0 F0 3.056476 1_555
Cs0 F4 3.090466 1_555
Cs0 F3 3.090466 1_554
Cs0 O3 3.179217 1_555
Cs0 O0 3.179217 1_554
Cs0 F5 3.218543 1_555
Cs0 F2 3.218543 1_555
Cs0 F0 3.230933 1_445
Cs0 O2 3.303254 1_555
Cs0 O1 3.303254 1_555
Cs1 F7 3.055833 1_555
Cs1 F1 3.056476 1_555
Cs1 F2 3.090466 1_556
Cs1 F5 3.090466 1_555
Cs1 O1 3.179217 1_556
Cs1 O2 3.179217 1_555
Cs1 F3 3.218543 1_555
Cs1 F4 3.218543 1_555
Cs1 F1 3.230933 1_445
Cs1 O0 3.303254 1_555
Cs1 O3 3.303254 1_555
Cs2 F6 3.125455 1_655
Cs2 F5 3.135167 1_555
Cs2 F2 3.135167 1_555
Cs2 F6 3.138464 1_545
Cs2 F0 3.146638 1_545
Cs2 O3 3.156554 1_655
Cs2 O0 3.156554 1_654
Cs2 F4 3.189927 1_545
Cs2 F3 3.189927 1_544
Cs2 O2 3.224812 1_555
Cs2 O1 3.224812 1_555
Cs3 F7 3.125455 1_565
Cs3 F3 3.135167 1_555
Cs3 F4 3.135167 1_555
Cs3 F7 3.138464 1_455
Cs3 F1 3.146638 1_455
Cs3 O1 3.156554 1_566
Cs3 O2 3.156554 1_565
Cs3 F2 3.189927 1_456
Cs3 F5 3.189927 1_455
Cs3 O0 3.224812 1_555
Cs3 O3 3.224812 1_555
Ir0 O2 1.806109 1_565
Ir0 O1 1.806109 1_565
Ir1 O0 1.806109 1_655
Ir1 O3 1.806109 1_655
F0 Ir0 1.933790 1_655
F1 Ir1 1.933790 1_565
F2 Ir0 2.016702 1_655
F3 Ir1 2.016702 1_565
F4 Ir1 2.016702 1_565
F5 Ir0 2.016702 1_655
F6 Ir0 1.965765 1_555
F7 Ir1 1.965765 1_555
