# generated using pymatgen
data_CaSb12PdRu3
_symmetry_space_group_name_H-M   'P 1'
_cell_length_a   8.10437635
_cell_length_b   8.10437614
_cell_length_c   8.10437490
_cell_angle_alpha   109.41651489
_cell_angle_beta   109.41651402
_cell_angle_gamma   109.41651274
_symmetry_Int_Tables_number   1
_chemical_formula_structural   CaSb12PdRu3
_chemical_formula_sum   'Ca1 Sb12 Pd1 Ru3'
_cell_volume   410.59472160
_cell_formula_units_Z   1
loop_
 _symmetry_equiv_pos_site_id
 _symmetry_equiv_pos_as_xyz
  1  'x, y, z'
loop_
 _atom_site_type_symbol
 _atom_site_label
 _atom_site_symmetry_multiplicity
 _atom_site_fract_x
 _atom_site_fract_y
 _atom_site_fract_z
 _atom_site_occupancy
  Ca  Ca0  1  0.00000000  0.00000000  0.00000000  1
  Sb  Sb0  1  0.66101918  0.84994401  0.50243949  1
  Sb  Sb1  1  0.33898082  0.15005599  0.49756051  1
  Sb  Sb2  1  0.84142964  0.17979045  0.33746501  1
  Sb  Sb3  1  0.82020955  0.66253499  0.15857036  1
  Sb  Sb4  1  0.84994401  0.50243949  0.66101918  1
  Sb  Sb5  1  0.17979045  0.33746501  0.84142964  1
  Sb  Sb6  1  0.15857036  0.82020955  0.66253499  1
  Sb  Sb7  1  0.50243949  0.66101918  0.84994401  1
  Sb  Sb8  1  0.49756051  0.33898082  0.15005599  1
  Sb  Sb9  1  0.15005599  0.49756051  0.33898082  1
  Sb  Sb10  1  0.33746501  0.84142964  0.17979045  1
  Sb  Sb11  1  0.66253499  0.15857036  0.82020955  1
  Pd  Pd0  1  0.50000000  0.50000000  0.50000000  1
  Ru  Ru0  1  0.00000000  0.00000000  0.50000000  1
  Ru  Ru1  1  0.50000000  0.00000000  0.00000000  1
  Ru  Ru2  1  0.00000000  0.50000000  0.00000000  1
loop_
_geom_bond_atom_site_label_1
_geom_bond_atom_site_label_2
_geom_bond_distance
_geom_bond_site_symmetry_2
Ca0 Sb2 3.490960 1_455
Ca0 Sb6 3.490960 1_544
Ca0 Sb5 3.490960 1_554
Ca0 Sb3 3.490960 1_445
Ca0 Sb10 3.490961 1_545
Ca0 Sb11 3.490961 1_454
Ca0 Sb1 3.526971 1_555
Ca0 Sb0 3.526971 1_444
Ca0 Sb9 3.526971 1_555
Ca0 Sb4 3.526971 1_444
Ca0 Sb8 3.526972 1_555
Ca0 Sb7 3.526972 1_444
Sb0 Sb11 2.926501 1_565
Sb0 Sb10 2.986501 1_555
Sb1 Sb10 2.926501 1_545
Sb1 Sb11 2.986501 1_555
Sb2 Sb9 2.926501 1_655
Sb2 Sb4 2.986501 1_555
Sb3 Sb7 2.926501 1_554
Sb3 Sb8 2.986502 1_555
Sb4 Sb6 2.926501 1_655
Sb5 Sb8 2.926501 1_556
Sb5 Sb7 2.986502 1_555
Sb6 Sb9 2.986501 1_555
Pd0 Sb7 2.689157 1_555
Pd0 Sb8 2.689157 1_555
Pd0 Sb0 2.689158 1_555
Pd0 Sb1 2.689158 1_555
Pd0 Sb4 2.689158 1_555
Pd0 Sb9 2.689158 1_555
Ru0 Sb1 2.618664 1_555
Ru0 Sb0 2.618664 1_445
Ru0 Sb5 2.626399 1_555
Ru0 Sb3 2.626399 1_445
Ru0 Sb6 2.627804 1_545
Ru0 Sb2 2.627804 1_455
Ru1 Sb8 2.618664 1_555
Ru1 Sb7 2.618664 1_544
Ru1 Sb2 2.626399 1_555
Ru1 Sb6 2.626399 1_544
Ru1 Sb11 2.627804 1_554
Ru1 Sb10 2.627804 1_545
Ru2 Sb4 2.618664 1_454
Ru2 Sb9 2.618664 1_555
Ru2 Sb10 2.626399 1_555
Ru2 Sb11 2.626399 1_454
Ru2 Sb3 2.627804 1_455
Ru2 Sb5 2.627804 1_554
