# generated using pymatgen
data_K16ZrSnP8
_symmetry_space_group_name_H-M   'P 1'
_cell_length_a   10.71866131
_cell_length_b   10.71866861
_cell_length_c   10.71816266
_cell_angle_alpha   60.00156145
_cell_angle_beta   60.00153894
_cell_angle_gamma   60.00746651
_symmetry_Int_Tables_number   1
_chemical_formula_structural   K16ZrSnP8
_chemical_formula_sum   'K16 Zr1 Sn1 P8'
_cell_volume   870.80600517
_cell_formula_units_Z   1
loop_
 _symmetry_equiv_pos_site_id
 _symmetry_equiv_pos_as_xyz
  1  'x, y, z'
loop_
 _atom_site_type_symbol
 _atom_site_label
 _atom_site_symmetry_multiplicity
 _atom_site_fract_x
 _atom_site_fract_y
 _atom_site_fract_z
 _atom_site_occupancy
  K  K0  1  0.62345419  0.12957511  0.62348635  1
  K  K1  1  0.62348255  0.62348355  0.12952591  1
  K  K2  1  0.12957611  0.62345519  0.62348535  1
  K  K3  1  0.62348255  0.62348355  0.62350899  1
  K  K4  1  0.02356688  0.02356588  0.47643312  1
  K  K5  1  0.77780138  0.22218589  0.22213060  1
  K  K6  1  0.22218389  0.77780238  0.77788414  1
  K  K7  1  0.77783025  0.77783225  0.22216875  1
  K  K8  1  0.77780138  0.22218589  0.77788114  1
  K  K9  1  0.22218389  0.77780238  0.22212960  1
  K  K10  1  0.47640185  0.02359549  0.47633893  1
  K  K11  1  0.47640185  0.02359549  0.02366374  1
  K  K12  1  0.02359649  0.47639985  0.47633793  1
  K  K13  1  0.02359649  0.47639985  0.02366574  1
  K  K14  1  0.22214608  0.22214608  0.77785392  1
  K  K15  1  0.47635002  0.47634902  0.02364998  1
  Zr  Zr0  1  0.75005833  0.75005633  0.74994267  1
  Sn  Sn0  1  0.49999054  0.49999154  0.50000846  1
  P  P0  1  0.40015060  0.79948856  0.40018092  1
  P  P1  1  0.84841372  0.84841372  0.45479352  1
  P  P2  1  0.45494589  0.84838684  0.84833463  1
  P  P3  1  0.84841372  0.84841372  0.84837904  1
  P  P4  1  0.79948856  0.40015060  0.40018092  1
  P  P5  1  0.40014798  0.40014798  0.40016535  1
  P  P6  1  0.40014798  0.40014798  0.79953870  1
  P  P7  1  0.84838684  0.45494589  0.84833463  1
loop_
_geom_bond_atom_site_label_1
_geom_bond_atom_site_label_2
_geom_bond_distance
_geom_bond_site_symmetry_2
K0 Sn0 3.242003 1_555
K0 Zr0 3.321670 1_545
K0 P4 3.422573 1_555
K0 P6 3.422941 1_555
K0 P5 3.422954 1_555
K0 P2 3.461345 1_545
K0 P3 3.462588 1_545
K0 P1 3.462601 1_545
K1 Sn0 3.242235 1_555
K1 Zr0 3.321879 1_554
K1 P5 3.423066 1_555
K1 P0 3.423190 1_555
K1 P4 3.423198 1_555
K1 P2 3.461698 1_554
K1 P7 3.461704 1_554
K1 P3 3.462326 1_554
K2 Sn0 3.241983 1_555
K2 Zr0 3.321658 1_455
K2 P0 3.422557 1_555
K2 P6 3.422938 1_555
K2 P5 3.422952 1_555
K2 P7 3.461359 1_455
K2 P3 3.462589 1_455
K2 P1 3.462602 1_455
K3 Sn0 3.242252 1_555
K3 Zr0 3.321870 1_555
K3 P6 3.423068 1_555
K3 P0 3.423190 1_555
K3 P4 3.423198 1_555
K3 P2 3.461706 1_555
K3 P7 3.461712 1_555
K3 P1 3.462324 1_555
K4 P1 3.390834 1_445
K4 P3 3.390841 1_445
K4 P0 3.420700 1_545
K4 P4 3.420712 1_455
K5 P1 3.421662 1_545
K5 P7 3.421873 1_554
K5 P4 3.444082 1_555
K5 P5 3.444086 1_555
K6 P3 3.421647 1_455
K6 P2 3.421885 1_555
K6 P0 3.444093 1_555
K6 P6 3.444103 1_555
K7 P1 3.421406 1_555
K7 P3 3.421406 1_554
K7 P0 3.444151 1_555
K7 P4 3.444168 1_555
K8 P3 3.421659 1_545
K8 P7 3.421896 1_555
K8 P4 3.444063 1_555
K8 P6 3.444084 1_555
K9 P1 3.421647 1_455
K9 P2 3.421870 1_554
K9 P0 3.444102 1_555
K9 P5 3.444103 1_555
K10 P2 3.391796 1_545
K10 P1 3.392084 1_545
K10 P0 3.419822 1_545
K10 P5 3.420390 1_555
K11 P2 3.391777 1_544
K11 P3 3.392084 1_544
K11 P0 3.419830 1_545
K11 P6 3.420390 1_554
K12 P7 3.391809 1_455
K12 P1 3.392108 1_455
K12 P4 3.419808 1_455
K12 P5 3.420384 1_555
K13 P7 3.391791 1_454
K13 P3 3.392108 1_454
K13 P4 3.419816 1_455
K13 P6 3.420384 1_554
K14 P7 3.422148 1_455
K14 P2 3.422150 1_545
K14 P5 3.443949 1_555
K14 P6 3.443949 1_555
K15 P7 3.392510 1_554
K15 P2 3.392519 1_554
K15 P6 3.419774 1_554
K15 P5 3.419784 1_555
P0 Sn0 2.621294 1_555
P1 Zr0 2.582963 1_555
P2 Zr0 2.582916 1_555
P3 Zr0 2.582963 1_555
P4 Sn0 2.621300 1_555
P5 Sn0 2.621295 1_555
P6 Sn0 2.621304 1_555
P7 Zr0 2.582901 1_555
