# generated using pymatgen
data_Si2Ni4BMo6
_symmetry_space_group_name_H-M   'P 1'
_cell_length_a   7.70810623
_cell_length_b   7.70810569
_cell_length_c   7.70810577
_cell_angle_alpha   59.99999965
_cell_angle_beta   60.00000197
_cell_angle_gamma   59.99999417
_symmetry_Int_Tables_number   1
_chemical_formula_structural   Si2Ni4BMo6
_chemical_formula_sum   'Si4 Ni8 B2 Mo12'
_cell_volume   323.83814662
_cell_formula_units_Z   2
loop_
 _symmetry_equiv_pos_site_id
 _symmetry_equiv_pos_as_xyz
  1  'x, y, z'
loop_
 _atom_site_type_symbol
 _atom_site_label
 _atom_site_symmetry_multiplicity
 _atom_site_fract_x
 _atom_site_fract_y
 _atom_site_fract_z
 _atom_site_occupancy
  Si  Si0  1  0.62500000  0.62500000  0.12500000  1
  Si  Si1  1  0.62500000  0.12500000  0.62500000  1
  Si  Si2  1  0.12500000  0.62500000  0.62500000  1
  Si  Si3  1  0.62500000  0.62500000  0.62500000  1
  Ni  Ni0  1  0.41834108  0.41834108  0.74497476  1
  Ni  Ni1  1  0.41834108  0.74497476  0.41834108  1
  Ni  Ni2  1  0.74497476  0.41834108  0.41834108  1
  Ni  Ni3  1  0.41834108  0.41834108  0.41834108  1
  Ni  Ni4  1  0.83165892  0.83165892  0.50502524  1
  Ni  Ni5  1  0.83165892  0.50502524  0.83165892  1
  Ni  Ni6  1  0.50502524  0.83165892  0.83165892  1
  Ni  Ni7  1  0.83165892  0.83165892  0.83165892  1
  B  B0  1  0.25000000  0.25000000  0.25000000  1
  B  B1  1  0.00000000  0.00000000  0.00000000  1
  Mo  Mo0  1  0.05137059  0.05137059  0.44862941  1
  Mo  Mo1  1  0.44862941  0.05137059  0.44862941  1
  Mo  Mo2  1  0.05137059  0.44862941  0.44862941  1
  Mo  Mo3  1  0.44862941  0.44862941  0.05137059  1
  Mo  Mo4  1  0.05137059  0.44862941  0.05137059  1
  Mo  Mo5  1  0.44862941  0.05137059  0.05137059  1
  Mo  Mo6  1  0.19862941  0.19862941  0.80137059  1
  Mo  Mo7  1  0.80137059  0.19862941  0.80137059  1
  Mo  Mo8  1  0.19862941  0.80137059  0.80137059  1
  Mo  Mo9  1  0.80137059  0.80137059  0.19862941  1
  Mo  Mo10  1  0.19862941  0.80137059  0.19862941  1
  Mo  Mo11  1  0.80137059  0.19862941  0.19862941  1
loop_
_geom_bond_atom_site_label_1
_geom_bond_atom_site_label_2
_geom_bond_distance
_geom_bond_site_symmetry_2
Ni0 Si1 2.349758 1_555
Ni0 Si2 2.349758 1_555
Ni0 Si3 2.349771 1_555
Ni0 Ni1 2.517727 1_555
Ni0 Ni3 2.517727 1_555
Ni0 Ni2 2.517727 1_555
Ni1 Si0 2.349758 1_555
Ni1 Si2 2.349759 1_555
Ni1 Si3 2.349771 1_555
Ni1 Ni2 2.517727 1_555
Ni1 Ni3 2.517727 1_555
Ni2 Si0 2.349758 1_555
Ni2 Si1 2.349758 1_555
Ni2 Si3 2.349771 1_555
Ni2 Ni3 2.517727 1_555
Ni3 Si1 2.349767 1_555
Ni3 Si2 2.349767 1_555
Ni3 Si0 2.349767 1_555
Ni4 Si1 2.349758 1_565
Ni4 Si2 2.349758 1_655
Ni4 Si3 2.349771 1_555
Ni4 Ni5 2.517727 1_555
Ni4 Ni7 2.517727 1_555
Ni4 Ni6 2.517727 1_555
Ni5 Si0 2.349758 1_556
Ni5 Si2 2.349759 1_655
Ni5 Si3 2.349771 1_555
Ni5 Ni6 2.517727 1_555
Ni5 Ni7 2.517727 1_555
Ni6 Si0 2.349758 1_556
Ni6 Si1 2.349758 1_565
Ni6 Si3 2.349771 1_555
Ni6 Ni7 2.517727 1_555
Ni7 Si1 2.349767 1_565
Ni7 Si2 2.349767 1_655
Ni7 Si0 2.349767 1_556
B0 Mo1 2.165241 1_555
B0 Mo2 2.165241 1_555
B0 Mo4 2.165241 1_555
B0 Mo5 2.165241 1_555
B0 Mo3 2.165241 1_555
B0 Mo0 2.165241 1_555
B1 Mo11 2.165241 1_455
B1 Mo10 2.165241 1_545
B1 Mo7 2.165241 1_454
B1 Mo8 2.165241 1_544
B1 Mo6 2.165241 1_554
B1 Mo9 2.165241 1_445
Mo0 Ni2 2.616106 1_455
Mo0 Ni1 2.616106 1_545
Mo0 Ni4 2.705737 1_445
Mo0 Ni7 2.705745 1_445
Mo0 Si2 2.722098 1_545
Mo0 Si1 2.722099 1_455
Mo1 Ni3 2.616100 1_555
Mo1 Ni1 2.616116 1_545
Mo1 Ni6 2.705751 1_545
Mo1 Ni4 2.705751 1_545
Mo1 Si3 2.722098 1_545
Mo1 Si1 2.722099 1_555
Mo2 Ni3 2.616100 1_555
Mo2 Ni2 2.616116 1_455
Mo2 Ni4 2.705750 1_455
Mo2 Ni5 2.705751 1_455
Mo2 Si2 2.722098 1_555
Mo2 Si3 2.722099 1_455
Mo3 Ni3 2.616100 1_555
Mo3 Ni0 2.616116 1_554
Mo3 Ni6 2.705751 1_554
Mo3 Ni5 2.705751 1_554
Mo3 Si3 2.722099 1_554
Mo3 Si0 2.722099 1_555
Mo4 Ni2 2.616107 1_455
Mo4 Ni0 2.616107 1_554
Mo4 Ni5 2.705737 1_454
Mo4 Ni7 2.705744 1_454
Mo4 Si2 2.722098 1_554
Mo4 Si0 2.722099 1_455
Mo5 Ni0 2.616106 1_554
Mo5 Ni1 2.616106 1_545
Mo5 Ni6 2.705737 1_544
Mo5 Ni7 2.705744 1_544
Mo5 Si0 2.722098 1_545
Mo5 Si1 2.722099 1_554
Mo6 Ni6 2.616106 1_545
Mo6 Ni5 2.616106 1_455
Mo6 Ni0 2.705737 1_555
Mo6 Ni3 2.705745 1_555
Mo6 Si2 2.722098 1_555
Mo6 Si1 2.722099 1_555
Mo7 Ni7 2.616100 1_545
Mo7 Ni5 2.616116 1_555
Mo7 Ni2 2.705751 1_555
Mo7 Ni0 2.705751 1_555
Mo7 Si3 2.722098 1_555
Mo7 Si1 2.722099 1_555
Mo8 Ni7 2.616100 1_455
Mo8 Ni6 2.616116 1_555
Mo8 Ni0 2.705750 1_555
Mo8 Ni1 2.705751 1_555
Mo8 Si2 2.722098 1_555
Mo8 Si3 2.722099 1_555
Mo9 Ni7 2.616100 1_554
Mo9 Ni4 2.616116 1_555
Mo9 Ni2 2.705751 1_555
Mo9 Ni1 2.705751 1_555
Mo9 Si0 2.722099 1_555
Mo9 Si3 2.722099 1_555
Mo10 Ni6 2.616107 1_554
Mo10 Ni4 2.616107 1_455
Mo10 Ni1 2.705737 1_555
Mo10 Ni3 2.705744 1_555
Mo10 Si2 2.722098 1_555
Mo10 Si0 2.722099 1_555
Mo11 Ni4 2.616106 1_545
Mo11 Ni5 2.616106 1_554
Mo11 Ni2 2.705737 1_555
Mo11 Ni3 2.705744 1_555
Mo11 Si0 2.722098 1_555
Mo11 Si1 2.722099 1_555
