# generated using pymatgen
data_K5GeAsP2
_symmetry_space_group_name_H-M   'P 1'
_cell_length_a   5.18225690
_cell_length_b   14.28203629
_cell_length_c   15.49774408
_cell_angle_alpha   90.00000000
_cell_angle_beta   90.00000000
_cell_angle_gamma   90.00000000
_symmetry_Int_Tables_number   1
_chemical_formula_structural   K5GeAsP2
_chemical_formula_sum   'K20 Ge4 As4 P8'
_cell_volume   1147.03733856
_cell_formula_units_Z   4
loop_
 _symmetry_equiv_pos_site_id
 _symmetry_equiv_pos_as_xyz
  1  'x, y, z'
loop_
 _atom_site_type_symbol
 _atom_site_label
 _atom_site_symmetry_multiplicity
 _atom_site_fract_x
 _atom_site_fract_y
 _atom_site_fract_z
 _atom_site_occupancy
  K  K0  1  0.25000000  0.94385056  0.29795224  1
  K  K1  1  0.75000000  0.05614944  0.70204776  1
  K  K2  1  0.75000000  0.44385056  0.20204776  1
  K  K3  1  0.25000000  0.55614944  0.79795224  1
  K  K4  1  0.25000000  0.12463851  0.51801370  1
  K  K5  1  0.75000000  0.87536149  0.48198630  1
  K  K6  1  0.75000000  0.62463851  0.98198630  1
  K  K7  1  0.25000000  0.37536149  0.01801370  1
  K  K8  1  0.25000000  0.42370337  0.56697747  1
  K  K9  1  0.75000000  0.57629663  0.43302253  1
  K  K10  1  0.75000000  0.92370337  0.93302253  1
  K  K11  1  0.25000000  0.07629663  0.06697747  1
  K  K12  1  0.25000000  0.82052059  0.08151599  1
  K  K13  1  0.75000000  0.17947941  0.91848401  1
  K  K14  1  0.75000000  0.32052059  0.41848401  1
  K  K15  1  0.25000000  0.67947941  0.58151599  1
  K  K16  1  0.25000000  0.23531927  0.26336862  1
  K  K17  1  0.75000000  0.76468073  0.73663138  1
  K  K18  1  0.75000000  0.73531927  0.23663138  1
  K  K19  1  0.25000000  0.26468073  0.76336862  1
  Ge  Ge0  1  0.25000000  0.58652552  0.28799663  1
  Ge  Ge1  1  0.75000000  0.41347448  0.71200337  1
  Ge  Ge2  1  0.75000000  0.08652552  0.21200337  1
  Ge  Ge3  1  0.25000000  0.91347448  0.78799663  1
  As  As0  1  0.25000000  0.59225968  0.13408772  1
  As  As1  1  0.75000000  0.40774032  0.86591228  1
  As  As2  1  0.75000000  0.09225968  0.36591228  1
  As  As3  1  0.25000000  0.90774032  0.63408772  1
  P  P0  1  0.25000000  0.44571733  0.35356776  1
  P  P1  1  0.75000000  0.55428267  0.64643224  1
  P  P2  1  0.75000000  0.94571733  0.14643224  1
  P  P3  1  0.25000000  0.05428267  0.85356776  1
  P  P4  1  0.25000000  0.71843003  0.36961686  1
  P  P5  1  0.75000000  0.28156997  0.63038314  1
  P  P6  1  0.75000000  0.21843003  0.13038314  1
  P  P7  1  0.25000000  0.78156997  0.86961686  1
loop_
_geom_bond_atom_site_label_1
_geom_bond_atom_site_label_2
_geom_bond_distance
_geom_bond_site_symmetry_2
K0 P4 3.405653 1_555
K0 P2 3.496968 1_455
K0 P2 3.496968 1_555
K1 P5 3.405653 1_555
K1 P3 3.496968 1_655
K1 P3 3.496968 1_555
K2 P6 3.405653 1_555
K2 P0 3.496968 1_555
K2 P0 3.496968 1_655
K3 P7 3.405653 1_555
K3 P1 3.496968 1_555
K3 P1 3.496968 1_455
K8 P0 3.322279 1_555
K8 P1 3.421727 1_555
K8 P1 3.421727 1_455
K8 P5 3.435150 1_555
K8 P5 3.435150 1_455
K9 P1 3.322279 1_555
K9 P0 3.421727 1_555
K9 P0 3.421727 1_655
K9 P4 3.435150 1_555
K9 P4 3.435150 1_655
K10 P2 3.322279 1_556
K10 P3 3.421727 1_565
K10 P3 3.421727 1_665
K10 P7 3.435150 1_655
K10 P7 3.435150 1_555
K11 P3 3.322279 1_554
K11 P2 3.421727 1_545
K11 P2 3.421727 1_445
K11 P6 3.435150 1_555
K11 P6 3.435150 1_455
K12 P2 3.305037 1_455
K12 P2 3.305037 1_555
K12 P7 3.330743 1_554
K13 P3 3.305037 1_555
K13 P3 3.305037 1_655
K13 P6 3.330743 1_556
K14 P0 3.305037 1_655
K14 P0 3.305037 1_555
K14 P5 3.330743 1_555
K15 P1 3.305037 1_555
K15 P1 3.305037 1_455
K15 P4 3.330743 1_555
K16 P0 3.314148 1_555
K16 P6 3.319601 1_555
K16 P6 3.319601 1_455
K17 P1 3.314148 1_555
K17 P7 3.319601 1_655
K17 P7 3.319601 1_555
K18 P2 3.314148 1_555
K18 P4 3.319601 1_655
K18 P4 3.319601 1_555
K19 P3 3.314148 1_555
K19 P5 3.319601 1_555
K19 P5 3.319601 1_455
Ge0 P0 2.253199 1_555
Ge0 P4 2.269139 1_555
Ge0 K9 3.433202 1_455
Ge0 K9 3.433202 1_555
Ge0 K18 3.444356 1_555
Ge0 K18 3.444356 1_455
Ge0 K2 3.555332 1_555
Ge0 K2 3.555332 1_455
Ge1 P1 2.253199 1_555
Ge1 P5 2.269139 1_555
Ge1 K8 3.433202 1_555
Ge1 K8 3.433202 1_655
Ge1 K19 3.444356 1_555
Ge1 K19 3.444356 1_655
Ge1 K3 3.555332 1_555
Ge1 K3 3.555332 1_655
Ge2 P2 2.253199 1_545
Ge2 P6 2.269139 1_555
Ge2 K11 3.433202 1_655
Ge2 K11 3.433202 1_555
Ge2 K16 3.444356 1_555
Ge2 K16 3.444356 1_655
Ge2 K0 3.555332 1_645
Ge2 K0 3.555332 1_545
Ge3 P3 2.253199 1_565
Ge3 P7 2.269139 1_555
Ge3 K10 3.433202 1_555
Ge3 K10 3.433202 1_455
Ge3 K17 3.444356 1_455
Ge3 K17 3.444356 1_555
Ge3 K1 3.555332 1_465
Ge3 K1 3.555332 1_565
As0 Ge0 2.386646 1_555
As0 K12 3.360298 1_555
As0 K2 3.509398 1_555
As0 K2 3.509398 1_455
As0 K6 3.533316 1_454
As0 K6 3.533316 1_554
As0 K7 3.582182 1_555
As0 K18 3.662524 1_455
As0 K18 3.662524 1_555
As1 Ge1 2.386646 1_555
As1 K13 3.360298 1_555
As1 K3 3.509398 1_555
As1 K3 3.509398 1_655
As1 K7 3.533316 1_556
As1 K7 3.533316 1_656
As1 K6 3.582182 1_555
As1 K19 3.662524 1_555
As1 K19 3.662524 1_655
As2 Ge2 2.386646 1_555
As2 K14 3.360298 1_555
As2 K0 3.509398 1_545
As2 K0 3.509398 1_645
As2 K4 3.533316 1_555
As2 K4 3.533316 1_655
As2 K5 3.582182 1_545
As2 K16 3.662524 1_555
As2 K16 3.662524 1_655
As3 Ge3 2.386646 1_555
As3 K15 3.360298 1_555
As3 K1 3.509398 1_465
As3 K1 3.509398 1_565
As3 K5 3.533316 1_455
As3 K5 3.533316 1_555
As3 K4 3.582182 1_565
As3 K17 3.662524 1_455
As3 K17 3.662524 1_555
