# generated using pymatgen
data_CsTi2I7
_symmetry_space_group_name_H-M   'P 1'
_cell_length_a   12.62468100
_cell_length_b   12.62468100
_cell_length_c   12.62468100
_cell_angle_alpha   90.00000000
_cell_angle_beta   90.00000000
_cell_angle_gamma   90.00000000
_symmetry_Int_Tables_number   1
_chemical_formula_structural   CsTi2I7
_chemical_formula_sum   'Cs4 Ti8 I28'
_cell_volume   2012.15410765
_cell_formula_units_Z   4
loop_
 _symmetry_equiv_pos_site_id
 _symmetry_equiv_pos_as_xyz
  1  'x, y, z'
loop_
 _atom_site_type_symbol
 _atom_site_label
 _atom_site_symmetry_multiplicity
 _atom_site_fract_x
 _atom_site_fract_y
 _atom_site_fract_z
 _atom_site_occupancy
  Cs  Cs0  1  0.50000000  0.00000000  0.50000000  1
  Cs  Cs1  1  0.00000000  0.50000000  0.50000000  1
  Cs  Cs2  1  0.50000000  0.50000000  0.00000000  1
  Cs  Cs3  1  0.00000000  0.00000000  0.00000000  1
  Ti  Ti0  1  0.37793200  0.37793200  0.37793200  1
  Ti  Ti1  1  0.12206800  0.87793200  0.37793200  1
  Ti  Ti2  1  0.87793200  0.37793200  0.12206800  1
  Ti  Ti3  1  0.37793200  0.12206800  0.87793200  1
  Ti  Ti4  1  0.87793200  0.12206800  0.62206800  1
  Ti  Ti5  1  0.62206800  0.62206800  0.62206800  1
  Ti  Ti6  1  0.62206800  0.87793200  0.12206800  1
  Ti  Ti7  1  0.12206800  0.62206800  0.87793200  1
  I  I0  1  0.00000000  0.00000000  0.50000000  1
  I  I1  1  0.23722200  0.00040500  0.25646200  1
  I  I2  1  0.50000000  0.00000000  0.00000000  1
  I  I3  1  0.00000000  0.50000000  0.00000000  1
  I  I4  1  0.26277800  0.50040500  0.25646200  1
  I  I5  1  0.25646200  0.26277800  0.50040500  1
  I  I6  1  0.50040500  0.25646200  0.26277800  1
  I  I7  1  0.73722200  0.49959500  0.74353800  1
  I  I8  1  0.74353800  0.73722200  0.49959500  1
  I  I9  1  0.49959500  0.74353800  0.73722200  1
  I  I10  1  0.50000000  0.50000000  0.50000000  1
  I  I11  1  0.73722200  0.00040500  0.24353800  1
  I  I12  1  0.24353800  0.73722200  0.00040500  1
  I  I13  1  0.00040500  0.24353800  0.73722200  1
  I  I14  1  0.26277800  0.99959500  0.75646200  1
  I  I15  1  0.75646200  0.26277800  0.99959500  1
  I  I16  1  0.99959500  0.75646200  0.26277800  1
  I  I17  1  0.49959500  0.75646200  0.23722200  1
  I  I18  1  0.23722200  0.49959500  0.75646200  1
  I  I19  1  0.75646200  0.23722200  0.49959500  1
  I  I20  1  0.50040500  0.24353800  0.76277800  1
  I  I21  1  0.76277800  0.50040500  0.24353800  1
  I  I22  1  0.24353800  0.76277800  0.50040500  1
  I  I23  1  0.74353800  0.76277800  0.99959500  1
  I  I24  1  0.99959500  0.74353800  0.76277800  1
  I  I25  1  0.76277800  0.99959500  0.74353800  1
  I  I26  1  0.25646200  0.23722200  0.00040500  1
  I  I27  1  0.00040500  0.25646200  0.23722200  1
loop_
_geom_bond_atom_site_label_1
_geom_bond_atom_site_label_2
_geom_bond_distance
_geom_bond_site_symmetry_2
Cs0 I14 4.410464 1_545
Cs0 I6 4.410464 1_555
Cs0 I19 4.410464 1_555
Cs0 I11 4.410464 1_555
Cs0 I9 4.410464 1_545
Cs0 I22 4.410464 1_545
Cs0 I8 4.523147 1_545
Cs0 I5 4.523147 1_555
Cs0 I25 4.523147 1_545
Cs0 I1 4.523147 1_555
Cs0 I20 4.523147 1_555
Cs0 I17 4.523147 1_545
Cs1 I18 4.410464 1_555
Cs1 I16 4.410464 1_455
Cs1 I13 4.410464 1_555
Cs1 I5 4.410464 1_555
Cs1 I8 4.410464 1_455
Cs1 I21 4.410464 1_455
Cs1 I24 4.523147 1_455
Cs1 I22 4.523147 1_555
Cs1 I4 4.523147 1_555
Cs1 I27 4.523147 1_555
Cs1 I7 4.523147 1_455
Cs1 I19 4.523147 1_455
Cs2 I17 4.410464 1_555
Cs2 I4 4.410464 1_555
Cs2 I15 4.410464 1_554
Cs2 I7 4.410464 1_554
Cs2 I12 4.410464 1_555
Cs2 I20 4.410464 1_554
Cs2 I21 4.523147 1_555
Cs2 I23 4.523147 1_554
Cs2 I6 4.523147 1_555
Cs2 I9 4.523147 1_554
Cs2 I26 4.523147 1_555
Cs2 I18 4.523147 1_554
Cs3 I23 4.410464 1_444
Cs3 I1 4.410464 1_555
Cs3 I27 4.410464 1_555
Cs3 I26 4.410464 1_555
Cs3 I25 4.410464 1_444
Cs3 I24 4.410464 1_444
Cs3 I13 4.523147 1_554
Cs3 I12 4.523147 1_545
Cs3 I11 4.523147 1_455
Cs3 I16 4.523147 1_445
Cs3 I14 4.523147 1_544
Cs3 I15 4.523147 1_454
I0 Ti4 2.669211 1_455
I0 Ti1 2.669211 1_545
I1 Ti1 2.618367 1_545
I2 Ti6 2.669211 1_545
I2 Ti3 2.669211 1_554
I3 Ti7 2.669211 1_554
I3 Ti2 2.669211 1_455
I4 Ti0 2.618367 1_555
I5 Ti0 2.618367 1_555
I6 Ti0 2.618367 1_555
I7 Ti5 2.618367 1_555
I8 Ti5 2.618367 1_555
I9 Ti5 2.618367 1_555
I10 Ti5 2.669211 1_555
I10 Ti0 2.669211 1_555
I11 Ti6 2.618367 1_545
I12 Ti7 2.618367 1_554
I13 Ti4 2.618367 1_455
I14 Ti3 2.618367 1_565
I15 Ti2 2.618367 1_556
I16 Ti1 2.618367 1_655
I17 Ti6 2.618367 1_555
I18 Ti7 2.618367 1_555
I19 Ti4 2.618367 1_555
I20 Ti3 2.618367 1_555
I21 Ti2 2.618367 1_555
I22 Ti1 2.618367 1_555
I23 Ti6 2.618367 1_556
I24 Ti7 2.618367 1_655
I25 Ti4 2.618367 1_565
I26 Ti3 2.618367 1_554
I27 Ti2 2.618367 1_455
