# generated using pymatgen
data_AlV3TcS8
_symmetry_space_group_name_H-M   'P 1'
_cell_length_a   6.89233638
_cell_length_b   6.89233626
_cell_length_c   6.80600015
_cell_angle_alpha   59.57948763
_cell_angle_beta   59.57948775
_cell_angle_gamma   60.00000704
_symmetry_Int_Tables_number   1
_chemical_formula_structural   AlV3TcS8
_chemical_formula_sum   'Al1 V3 Tc1 S8'
_cell_volume   227.15383124
_cell_formula_units_Z   1
loop_
 _symmetry_equiv_pos_site_id
 _symmetry_equiv_pos_as_xyz
  1  'x, y, z'
loop_
 _atom_site_type_symbol
 _atom_site_label
 _atom_site_symmetry_multiplicity
 _atom_site_fract_x
 _atom_site_fract_y
 _atom_site_fract_z
 _atom_site_occupancy
  Al  Al0  1  0.00204167  0.00204167  0.99387498  1
  V  V0  1  0.60931212  0.18303181  0.59834296  1
  V  V1  1  0.18303181  0.60931212  0.59834296  1
  V  V2  1  0.60931212  0.60931212  0.59834296  1
  Tc  Tc0  1  0.60158260  0.60158260  0.19525019  1
  S  S0  1  0.37370182  0.37370182  0.87889655  1
  S  S1  1  0.36679643  0.88994784  0.37646030  1
  S  S2  1  0.88994784  0.36679643  0.37646030  1
  S  S3  1  0.36679643  0.36679643  0.37646030  1
  S  S4  1  0.86653097  0.86653097  0.40040608  1
  S  S5  1  0.86270749  0.40552922  0.86905381  1
  S  S6  1  0.40552922  0.86270749  0.86905381  1
  S  S7  1  0.86270749  0.86270749  0.86905381  1
loop_
_geom_bond_atom_site_label_1
_geom_bond_atom_site_label_2
_geom_bond_distance
_geom_bond_site_symmetry_2
Al0 S4 2.244658 1_446
Al0 S5 2.267329 1_455
Al0 S6 2.267329 1_545
Al0 S7 2.267340 1_445
S0 V2 2.297173 1_555
S0 V0 2.297186 1_555
S0 V1 2.297186 1_555
S1 V2 2.276139 1_555
S1 V1 2.276148 1_555
S1 Tc0 2.309741 1_555
S2 V2 2.276139 1_555
S2 V0 2.276148 1_555
S2 Tc0 2.309741 1_555
S3 V1 2.276137 1_555
S3 V0 2.276137 1_555
S3 Tc0 2.309725 1_555
S4 V2 2.531112 1_555
S4 V0 2.531112 1_565
S4 V1 2.531112 1_655
S5 Tc0 2.559997 1_556
S5 V2 2.569553 1_555
S5 V1 2.569558 1_655
S6 Tc0 2.559997 1_556
S6 V2 2.569553 1_555
S6 V0 2.569558 1_565
S7 Tc0 2.559997 1_556
S7 V1 2.569554 1_655
S7 V0 2.569554 1_565
