# generated using pymatgen
data_Er2Ru2O7
_symmetry_space_group_name_H-M   'P 1'
_cell_length_a   7.18731900
_cell_length_b   7.18731900
_cell_length_c   7.18731900
_cell_angle_alpha   60.00000000
_cell_angle_beta   60.00000000
_cell_angle_gamma   60.00000000
_symmetry_Int_Tables_number   1
_chemical_formula_structural   Er2Ru2O7
_chemical_formula_sum   'Er4 Ru4 O14'
_cell_volume   262.53412597
_cell_formula_units_Z   2
loop_
 _symmetry_equiv_pos_site_id
 _symmetry_equiv_pos_as_xyz
  1  'x, y, z'
loop_
 _atom_site_type_symbol
 _atom_site_label
 _atom_site_symmetry_multiplicity
 _atom_site_fract_x
 _atom_site_fract_y
 _atom_site_fract_z
 _atom_site_occupancy
  Er  Er0  1  0.12500000  0.12500000  0.62500000  1
  Er  Er1  1  0.12500000  0.62500000  0.12500000  1
  Er  Er2  1  0.62500000  0.12500000  0.12500000  1
  Er  Er3  1  0.12500000  0.12500000  0.12500000  1
  Ru  Ru0  1  0.62500000  0.62500000  0.12500000  1
  Ru  Ru1  1  0.62500000  0.12500000  0.62500000  1
  Ru  Ru2  1  0.12500000  0.62500000  0.62500000  1
  Ru  Ru3  1  0.62500000  0.62500000  0.62500000  1
  O  O0  1  0.25000000  0.25000000  0.25000000  1
  O  O1  1  0.00000000  0.00000000  0.00000000  1
  O  O2  1  0.53840700  0.96159300  0.53840700  1
  O  O3  1  0.28840700  0.71159300  0.28840700  1
  O  O4  1  0.53840700  0.53840700  0.96159300  1
  O  O5  1  0.96159300  0.53840700  0.53840700  1
  O  O6  1  0.53840700  0.96159300  0.96159300  1
  O  O7  1  0.96159300  0.96159300  0.53840700  1
  O  O8  1  0.96159300  0.53840700  0.96159300  1
  O  O9  1  0.71159300  0.28840700  0.28840700  1
  O  O10  1  0.28840700  0.71159300  0.71159300  1
  O  O11  1  0.71159300  0.28840700  0.71159300  1
  O  O12  1  0.28840700  0.28840700  0.71159300  1
  O  O13  1  0.71159300  0.71159300  0.28840700  1
loop_
_geom_bond_atom_site_label_1
_geom_bond_atom_site_label_2
_geom_bond_distance
_geom_bond_site_symmetry_2
Er0 O1 2.200658 1_556
Er0 O0 2.200658 1_555
Er0 O12 2.446896 1_555
Er0 O2 2.446896 1_545
Er0 O5 2.446896 1_455
Er0 O10 2.446896 1_545
Er0 O11 2.446896 1_455
Er0 O7 2.446896 1_445
Er1 O1 2.200658 1_565
Er1 O0 2.200658 1_555
Er1 O3 2.446896 1_555
Er1 O5 2.446896 1_455
Er1 O4 2.446896 1_554
Er1 O13 2.446896 1_455
Er1 O10 2.446896 1_554
Er1 O8 2.446896 1_454
Er2 O1 2.200658 1_655
Er2 O0 2.200658 1_555
Er2 O9 2.446896 1_555
Er2 O2 2.446896 1_545
Er2 O4 2.446896 1_554
Er2 O11 2.446896 1_554
Er2 O13 2.446896 1_545
Er2 O6 2.446896 1_544
Er3 O1 2.200658 1_555
Er3 O0 2.200658 1_555
Er3 O6 2.446896 1_544
Er3 O8 2.446896 1_454
Er3 O7 2.446896 1_445
Er3 O9 2.446896 1_455
Er3 O12 2.446896 1_554
Er3 O3 2.446896 1_545
O2 Ru3 2.000822 1_555
O2 Ru1 2.000822 1_565
O3 Ru2 2.000822 1_555
O3 Ru0 2.000822 1_555
O4 Ru3 2.000822 1_555
O4 Ru0 2.000822 1_556
O5 Ru3 2.000822 1_555
O5 Ru2 2.000822 1_655
O6 Ru1 2.000822 1_565
O6 Ru0 2.000822 1_556
O7 Ru2 2.000822 1_655
O7 Ru1 2.000822 1_565
O8 Ru0 2.000822 1_556
O8 Ru2 2.000822 1_655
O9 Ru0 2.000822 1_555
O9 Ru1 2.000822 1_555
O10 Ru2 2.000822 1_555
O10 Ru3 2.000822 1_555
O11 Ru1 2.000822 1_555
O11 Ru3 2.000822 1_555
O12 Ru1 2.000822 1_555
O12 Ru2 2.000822 1_555
O13 Ru0 2.000822 1_555
O13 Ru3 2.000822 1_555
