# generated using pymatgen
data_Ag6AsS5Br
_symmetry_space_group_name_H-M   'P 1'
_cell_length_a   7.45738798
_cell_length_b   7.45738868
_cell_length_c   12.96058231
_cell_angle_alpha   73.28682544
_cell_angle_beta   73.28682512
_cell_angle_gamma   60.05670552
_symmetry_Int_Tables_number   1
_chemical_formula_structural   Ag6AsS5Br
_chemical_formula_sum   'Ag12 As2 S10 Br2'
_cell_volume   589.10159783
_cell_formula_units_Z   2
loop_
 _symmetry_equiv_pos_site_id
 _symmetry_equiv_pos_as_xyz
  1  'x, y, z'
loop_
 _atom_site_type_symbol
 _atom_site_label
 _atom_site_symmetry_multiplicity
 _atom_site_fract_x
 _atom_site_fract_y
 _atom_site_fract_z
 _atom_site_occupancy
  Ag  Ag0  1  0.03126483  0.95047062  0.88679879  1
  Ag  Ag1  1  0.26729278  0.38339037  0.61051396  1
  Ag  Ag2  1  0.00870975  0.53058137  0.88491366  1
  Ag  Ag3  1  0.38339037  0.26729278  0.11051396  1
  Ag  Ag4  1  0.45188243  0.50918605  0.88665110  1
  Ag  Ag5  1  0.53058137  0.00870975  0.38491366  1
  Ag  Ag6  1  0.87786659  0.11916563  0.61092250  1
  Ag  Ag7  1  0.76864238  0.60930160  0.11041488  1
  Ag  Ag8  1  0.60930160  0.76864238  0.61041488  1
  Ag  Ag9  1  0.11916563  0.87786659  0.11092250  1
  Ag  Ag10  1  0.50918605  0.45188243  0.38665110  1
  Ag  Ag11  1  0.95047062  0.03126483  0.38679879  1
  As  As0  1  0.00090519  0.50132969  0.37380449  1
  As  As1  1  0.50132969  0.00090519  0.87380449  1
  S  S0  1  0.93933281  0.44293263  0.55342740  1
  S  S1  1  0.44293263  0.93933281  0.05342740  1
  S  S2  1  0.18834813  0.20357646  0.31216138  1
  S  S3  1  0.68931954  0.17253111  0.81285428  1
  S  S4  1  0.17253111  0.68931954  0.31285428  1
  S  S5  1  0.20357646  0.18834813  0.81216138  1
  S  S6  1  0.70406855  0.67224172  0.31137547  1
  S  S7  1  0.11817549  0.61696826  0.02055444  1
  S  S8  1  0.61696826  0.11817549  0.52055444  1
  S  S9  1  0.67224172  0.70406855  0.81137547  1
  Br  Br0  1  0.74646241  0.24004161  0.14273766  1
  Br  Br1  1  0.24004161  0.74646241  0.64273766  1
loop_
_geom_bond_atom_site_label_1
_geom_bond_atom_site_label_2
_geom_bond_distance
_geom_bond_site_symmetry_2
Ag0 S7 2.483548 1_556
Ag0 S5 2.511477 1_565
Ag0 S3 2.537833 1_465
Ag1 S0 2.548304 1_455
Ag1 S8 2.549517 1_555
Ag1 S5 2.638353 1_555
Ag1 Br1 2.756615 1_555
Ag2 S7 2.484695 1_556
Ag2 S9 2.510722 1_455
Ag2 S5 2.531398 1_555
Ag3 S1 2.548304 1_545
Ag3 S7 2.549517 1_555
Ag3 S2 2.638353 1_555
Ag3 Br0 2.756614 1_555
Ag4 S7 2.484427 1_556
Ag4 S3 2.514413 1_555
Ag4 S9 2.531979 1_555
Ag5 S8 2.484695 1_555
Ag5 S6 2.510723 1_545
Ag5 S2 2.531398 1_555
Ag6 S0 2.543334 1_555
Ag6 S8 2.547003 1_555
Ag6 S3 2.628461 1_555
Ag6 Br1 2.770785 1_645
Ag7 S7 2.553129 1_655
Ag7 S1 2.553657 1_555
Ag7 S6 2.644253 1_555
Ag7 Br0 2.745386 1_555
Ag8 S8 2.553129 1_565
Ag8 S0 2.553657 1_555
Ag8 S9 2.644253 1_555
Ag8 Br1 2.745386 1_555
Ag9 S1 2.543333 1_555
Ag9 S7 2.547003 1_555
Ag9 S4 2.628461 1_555
Ag9 Br0 2.770785 1_465
Ag10 S8 2.484427 1_555
Ag10 S4 2.514413 1_555
Ag10 S6 2.531979 1_555
Ag11 S8 2.483548 1_555
Ag11 S2 2.511477 1_655
Ag11 S4 2.537833 1_645
As0 S6 2.190837 1_455
As0 S4 2.190939 1_555
As0 S2 2.191386 1_555
As0 S0 2.195868 1_455
As1 S9 2.190837 1_545
As1 S3 2.190939 1_555
As1 S5 2.191386 1_555
As1 S1 2.195868 1_546
