# generated using pymatgen
data_Sc12Fe2CoPb2
_symmetry_space_group_name_H-M   'P 1'
_cell_length_a   7.85306714
_cell_length_b   7.85306638
_cell_length_c   7.85306700
_cell_angle_alpha   108.67736376
_cell_angle_beta   108.67735800
_cell_angle_gamma   111.07087461
_symmetry_Int_Tables_number   1
_chemical_formula_structural   Sc12Fe2CoPb2
_chemical_formula_sum   'Sc12 Fe2 Co1 Pb2'
_cell_volume   372.59862876
_cell_formula_units_Z   1
loop_
 _symmetry_equiv_pos_site_id
 _symmetry_equiv_pos_as_xyz
  1  'x, y, z'
loop_
 _atom_site_type_symbol
 _atom_site_label
 _atom_site_symmetry_multiplicity
 _atom_site_fract_x
 _atom_site_fract_y
 _atom_site_fract_z
 _atom_site_occupancy
  Sc  Sc0  1  0.30639351  0.30639351  0.61278701  1
  Sc  Sc1  1  0.69360649  0.69360649  0.38721299  1
  Sc  Sc2  1  0.30639351  0.69360649  0.00000000  1
  Sc  Sc3  1  0.69360649  0.30639351  1.00000000  1
  Sc  Sc4  1  0.43141327  0.19582400  0.23559027  1
  Sc  Sc5  1  0.56858673  0.80417600  0.76440973  1
  Sc  Sc6  1  0.96023273  0.19582400  0.76440973  1
  Sc  Sc7  1  0.19582400  0.96023273  0.76440973  1
  Sc  Sc8  1  0.03976727  0.80417600  0.23559027  1
  Sc  Sc9  1  0.80417600  0.03976727  0.23559027  1
  Sc  Sc10  1  0.19582400  0.43141327  0.23559027  1
  Sc  Sc11  1  0.80417600  0.56858673  0.76440973  1
  Fe  Fe0  1  0.37674234  0.37674234  0.00000000  1
  Fe  Fe1  1  0.62325766  0.62325766  1.00000000  1
  Co  Co0  1  0.00000000  0.00000000  0.00000000  1
  Pb  Pb0  1  0.50000000  0.00000000  0.50000000  1
  Pb  Pb1  1  0.00000000  0.50000000  0.50000000  1
loop_
_geom_bond_atom_site_label_1
_geom_bond_atom_site_label_2
_geom_bond_distance
_geom_bond_site_symmetry_2
Sc0 Sc5 3.255699 1_555
Sc0 Sc11 3.255699 1_555
Sc0 Sc7 3.255705 1_545
Sc0 Sc6 3.255705 1_455
Sc0 Sc4 3.364593 1_555
Sc0 Sc10 3.364593 1_555
Sc0 Sc8 3.364599 1_545
Sc0 Sc9 3.364599 1_455
Sc1 Sc4 3.255699 1_555
Sc1 Sc10 3.255699 1_555
Sc1 Sc9 3.255705 1_565
Sc1 Sc8 3.255705 1_655
Sc1 Sc5 3.364593 1_555
Sc1 Sc11 3.364593 1_555
Sc1 Sc6 3.364599 1_565
Sc1 Sc7 3.364599 1_655
Sc2 Sc6 3.255700 1_454
Sc2 Sc9 3.255700 1_565
Sc2 Sc5 3.255704 1_554
Sc2 Sc8 3.364591 1_555
Sc2 Sc7 3.364591 1_554
Sc2 Sc4 3.364600 1_565
Sc3 Sc8 3.255700 1_656
Sc3 Sc7 3.255700 1_545
Sc3 Sc4 3.255704 1_556
Sc3 Sc6 3.364591 1_555
Sc3 Sc9 3.364591 1_556
Sc3 Sc5 3.364600 1_545
Sc4 Sc7 3.050738 1_544
Sc4 Sc8 3.480976 1_545
Sc4 Sc9 3.556790 1_555
Sc5 Sc9 3.050738 1_566
Sc5 Sc6 3.480976 1_565
Sc5 Sc7 3.556790 1_555
Sc6 Sc7 3.050750 1_645
Sc6 Sc9 3.556791 1_555
Sc7 Sc8 3.556791 1_555
Sc8 Sc9 3.050750 1_465
Sc10 Sc4 3.050725 1_555
Sc10 Sc6 3.050738 1_454
Sc10 Sc2 3.255704 1_555
Sc10 Sc3 3.364601 1_454
Sc10 Sc9 3.480976 1_455
Sc10 Sc8 3.556790 1_555
Sc10 Sc5 3.556791 1_555
Sc11 Sc5 3.050725 1_555
Sc11 Sc8 3.050738 1_656
Sc11 Sc3 3.255704 1_555
Sc11 Sc2 3.364601 1_656
Sc11 Sc7 3.480976 1_655
Sc11 Sc6 3.556790 1_555
Sc11 Sc4 3.556791 1_555
Fe0 Fe1 2.191039 1_554
Fe0 Sc10 2.690575 1_555
Fe0 Sc4 2.690575 1_555
Fe0 Sc7 2.690582 1_544
Fe0 Sc6 2.690582 1_454
Fe0 Sc2 2.735981 1_555
Fe0 Sc3 2.735981 1_554
Fe0 Sc0 2.735981 1_554
Fe0 Sc1 2.735981 1_555
Fe1 Sc11 2.690575 1_555
Fe1 Sc5 2.690575 1_555
Fe1 Sc9 2.690582 1_566
Fe1 Sc8 2.690582 1_656
Fe1 Sc3 2.735981 1_555
Fe1 Sc2 2.735981 1_556
Fe1 Sc1 2.735981 1_556
Fe1 Sc0 2.735981 1_555
Co0 Sc10 2.771782 1_555
Co0 Sc11 2.771782 1_444
Co0 Sc4 2.771783 1_555
Co0 Sc5 2.771783 1_444
Co0 Sc7 2.771790 1_544
Co0 Sc9 2.771790 1_455
Co0 Sc8 2.771790 1_545
Co0 Sc6 2.771790 1_454
Pb0 Sc6 2.981766 1_555
Pb0 Sc8 2.981766 1_545
Pb0 Sc5 2.981773 1_545
Pb0 Sc4 2.981773 1_555
Pb0 Sc0 3.318676 1_555
Pb0 Sc1 3.318676 1_545
Pb0 Sc3 3.318676 1_555
Pb0 Sc2 3.318676 1_545
Pb0 Sc9 3.629149 1_555
Pb0 Sc7 3.629149 1_545
Pb0 Sc11 3.629155 1_555
Pb0 Sc10 3.629155 1_545
Pb1 Sc9 2.981766 1_455
Pb1 Sc7 2.981766 1_555
Pb1 Sc11 2.981773 1_455
Pb1 Sc10 2.981773 1_555
Pb1 Sc0 3.318676 1_555
Pb1 Sc1 3.318676 1_455
Pb1 Sc2 3.318676 1_556
Pb1 Sc3 3.318676 1_454
Pb1 Sc8 3.629149 1_555
Pb1 Sc6 3.629149 1_455
Pb1 Sc5 3.629156 1_555
Pb1 Sc4 3.629156 1_455
