# generated using pymatgen
data_RhSeF
_symmetry_space_group_name_H-M   'P 1'
_cell_length_a   6.28259133
_cell_length_b   6.28259150
_cell_length_c   6.09110229
_cell_angle_alpha   58.22921173
_cell_angle_beta   58.22921198
_cell_angle_gamma   31.47567726
_symmetry_Int_Tables_number   1
_chemical_formula_structural   RhSeF
_chemical_formula_sum   'Rh2 Se2 F2'
_cell_volume   105.08532287
_cell_formula_units_Z   2
loop_
 _symmetry_equiv_pos_site_id
 _symmetry_equiv_pos_as_xyz
  1  'x, y, z'
loop_
 _atom_site_type_symbol
 _atom_site_label
 _atom_site_symmetry_multiplicity
 _atom_site_fract_x
 _atom_site_fract_y
 _atom_site_fract_z
 _atom_site_occupancy
  Rh  Rh0  1  0.74821092  0.74821092  0.24482232  1
  Rh  Rh1  1  0.25178908  0.25178908  0.75517768  1
  Se  Se0  1  0.12768846  0.12768846  0.55599594  1
  Se  Se1  1  0.87231154  0.87231154  0.44400406  1
  F  F0  1  0.64763104  0.64763104  0.03784928  1
  F  F1  1  0.35236896  0.35236896  0.96215072  1
loop_
_geom_bond_atom_site_label_1
_geom_bond_atom_site_label_2
_geom_bond_distance
_geom_bond_site_symmetry_2
Rh0 Se0 2.366090 1_565
Rh0 Se0 2.366090 1_655
Rh0 Se1 2.390989 1_555
Rh1 Se1 2.366090 1_545
Rh1 Se1 2.366090 1_455
Rh1 Se0 2.390989 1_555
F0 Rh0 2.178723 1_555
F0 Rh1 2.254392 1_654
F0 Rh1 2.254392 1_564
F1 Rh1 2.178723 1_555
F1 Rh0 2.254392 1_456
F1 Rh0 2.254392 1_546
