# generated using pymatgen
data_Hf2GaH
_symmetry_space_group_name_H-M   'P 1'
_cell_length_a   5.42097981
_cell_length_b   5.42097908
_cell_length_c   5.42097925
_cell_angle_alpha   104.51644488
_cell_angle_beta   104.51643398
_cell_angle_gamma   119.91299802
_symmetry_Int_Tables_number   1
_chemical_formula_structural   Hf2GaH
_chemical_formula_sum   'Hf4 Ga2 H2'
_cell_volume   119.53197132
_cell_formula_units_Z   2
loop_
 _symmetry_equiv_pos_site_id
 _symmetry_equiv_pos_as_xyz
  1  'x, y, z'
loop_
 _atom_site_type_symbol
 _atom_site_label
 _atom_site_symmetry_multiplicity
 _atom_site_fract_x
 _atom_site_fract_y
 _atom_site_fract_z
 _atom_site_occupancy
  Hf  Hf0  1  0.16077852  0.66077852  0.82155804  1
  Hf  Hf1  1  0.83922148  0.33922148  0.17844196  1
  Hf  Hf2  1  0.33922148  0.16077852  0.50000000  1
  Hf  Hf3  1  0.66077852  0.83922148  0.50000000  1
  Ga  Ga0  1  0.25000000  0.25000000  0.00000000  1
  Ga  Ga1  1  0.75000000  0.75000000  0.00000000  1
  H  H0  1  0.75000000  0.25000000  0.50000000  1
  H  H1  1  0.25000000  0.75000000  0.50000000  1
loop_
_geom_bond_atom_site_label_1
_geom_bond_atom_site_label_2
_geom_bond_distance
_geom_bond_site_symmetry_2
Ga0 Ga1 2.714053 1_555
Ga0 Ga1 2.714053 1_445
Ga0 Hf0 2.836887 1_554
Ga0 Hf1 2.836887 1_455
Ga0 Hf0 2.836889 1_544
Ga0 Hf2 2.836889 1_554
Ga0 Hf3 2.836890 1_555
Ga0 Hf2 2.836890 1_555
Ga0 Hf1 2.836890 1_555
Ga0 Hf3 2.836890 1_444
Ga1 Hf1 2.836887 1_555
Ga1 Hf0 2.836887 1_654
Ga1 Hf1 2.836889 1_565
Ga1 Hf3 2.836889 1_555
Ga1 Hf2 2.836890 1_554
Ga1 Hf3 2.836890 1_554
Ga1 Hf0 2.836890 1_554
Ga1 Hf2 2.836890 1_665
H0 Hf3 2.029399 1_545
H0 Hf2 2.029400 1_555
H0 Hf0 2.029401 1_655
H0 Hf1 2.029405 1_555
H1 Hf2 2.029399 1_565
H1 Hf3 2.029400 1_555
H1 Hf1 2.029401 1_455
H1 Hf0 2.029405 1_555
