# generated using pymatgen
data_Sr2AuBrO2
_symmetry_space_group_name_H-M   'P 1'
_cell_length_a   10.00479907
_cell_length_b   10.00479932
_cell_length_c   10.00479962
_cell_angle_alpha   23.50501887
_cell_angle_beta   23.50501597
_cell_angle_gamma   23.50501445
_symmetry_Int_Tables_number   1
_chemical_formula_structural   Sr2AuBrO2
_chemical_formula_sum   'Sr2 Au1 Br1 O2'
_cell_volume   139.88635518
_cell_formula_units_Z   1
loop_
 _symmetry_equiv_pos_site_id
 _symmetry_equiv_pos_as_xyz
  1  'x, y, z'
loop_
 _atom_site_type_symbol
 _atom_site_label
 _atom_site_symmetry_multiplicity
 _atom_site_fract_x
 _atom_site_fract_y
 _atom_site_fract_z
 _atom_site_occupancy
  Sr  Sr0  1  0.25480183  0.25480183  0.25480183  1
  Sr  Sr1  1  0.74519817  0.74519817  0.74519817  1
  Au  Au0  1  0.50000000  0.50000000  0.50000000  1
  Br  Br0  1  0.00000000  0.00000000  0.00000000  1
  O  O0  1  0.43113639  0.43113639  0.43113639  1
  O  O1  1  0.56886361  0.56886361  0.56886361  1
loop_
_geom_bond_atom_site_label_1
_geom_bond_atom_site_label_2
_geom_bond_distance
_geom_bond_site_symmetry_2
Au0 O1 2.008920 1_555
Au0 O0 2.008920 1_555
Br0 Sr1 3.284120 1_544
Br0 Sr0 3.284120 1_455
Br0 Sr1 3.284120 1_454
Br0 Sr0 3.284120 1_545
Br0 Sr1 3.284120 1_445
Br0 Sr0 3.284120 1_554
O0 Sr1 2.419304 1_455
O0 Sr1 2.419304 1_545
O0 Sr1 2.419305 1_554
O1 Sr0 2.419304 1_655
O1 Sr0 2.419304 1_565
O1 Sr0 2.419305 1_556
