# generated using pymatgen
data_Zr10In3B2Sb3
_symmetry_space_group_name_H-M   'P 1'
_cell_length_a   8.54784468
_cell_length_b   8.54784476
_cell_length_c   5.82998997
_cell_angle_alpha   90.00000000
_cell_angle_beta   90.00000000
_cell_angle_gamma   119.99999971
_symmetry_Int_Tables_number   1
_chemical_formula_structural   Zr10In3B2Sb3
_chemical_formula_sum   'Zr10 In3 B2 Sb3'
_cell_volume   368.90257708
_cell_formula_units_Z   1
loop_
 _symmetry_equiv_pos_site_id
 _symmetry_equiv_pos_as_xyz
  1  'x, y, z'
loop_
 _atom_site_type_symbol
 _atom_site_label
 _atom_site_symmetry_multiplicity
 _atom_site_fract_x
 _atom_site_fract_y
 _atom_site_fract_z
 _atom_site_occupancy
  Zr  Zr0  1  0.66666700  0.33333300  0.00115902  1
  Zr  Zr1  1  0.33333300  0.66666700  0.00115902  1
  Zr  Zr2  1  0.33333300  0.66666700  0.49884098  1
  Zr  Zr3  1  0.66666700  0.33333300  0.49884098  1
  Zr  Zr4  1  0.77490633  0.77490633  0.75000000  1
  Zr  Zr5  1  0.22509367  0.00000000  0.75000000  1
  Zr  Zr6  1  0.00000000  0.22509367  0.75000000  1
  Zr  Zr7  1  0.23108664  0.23108664  0.25000000  1
  Zr  Zr8  1  0.76891336  0.00000000  0.25000000  1
  Zr  Zr9  1  0.00000000  0.76891336  0.25000000  1
  In  In0  1  0.60315920  0.60315920  0.25000000  1
  In  In1  1  0.39684080  0.00000000  0.25000000  1
  In  In2  1  0.00000000  0.39684080  0.25000000  1
  B  B0  1  0.00000000  0.00000000  0.00584484  1
  B  B1  1  0.00000000  0.00000000  0.49415516  1
  Sb  Sb0  1  0.40089288  0.40089288  0.75000000  1
  Sb  Sb1  1  0.59910712  0.00000000  0.75000000  1
  Sb  Sb2  1  0.00000000  0.59910712  0.75000000  1
loop_
_geom_bond_atom_site_label_1
_geom_bond_atom_site_label_2
_geom_bond_distance
_geom_bond_site_symmetry_2
In0 Zr9 2.950914 1_655
In0 Zr8 2.950914 1_565
In0 Zr2 2.995167 1_555
In0 Zr1 2.995167 1_555
In0 Zr3 2.995167 1_555
In0 Zr0 2.995167 1_555
In0 Zr7 3.180419 1_555
In0 Zr4 3.263804 1_555
In0 Zr4 3.263804 1_554
In0 Sb0 3.389164 1_554
In0 Sb0 3.389164 1_555
In1 Zr9 2.950914 1_545
In1 Zr7 2.950914 1_555
In1 Zr2 2.995160 1_545
In1 Zr1 2.995160 1_545
In1 Zr3 2.995163 1_555
In1 Zr0 2.995163 1_555
In1 Zr8 3.180418 1_555
In1 Zr5 3.263804 1_555
In1 Zr5 3.263804 1_554
In1 Sb1 3.389164 1_555
In1 Sb1 3.389164 1_554
In2 Zr7 2.950914 1_555
In2 Zr8 2.950914 1_455
In2 Zr3 2.995160 1_455
In2 Zr0 2.995160 1_455
In2 Zr2 2.995163 1_555
In2 Zr1 2.995163 1_555
In2 Zr9 3.180419 1_555
In2 Zr6 3.263804 1_555
In2 Zr6 3.263804 1_554
In2 Sb2 3.389164 1_554
In2 Sb2 3.389164 1_555
B0 Zr5 2.434506 1_554
B0 Zr4 2.434506 1_444
B0 Zr6 2.434506 1_554
B0 Zr8 2.434730 1_455
B0 Zr7 2.434730 1_555
B0 Zr9 2.434730 1_545
B1 Zr5 2.434506 1_555
B1 Zr4 2.434506 1_445
B1 Zr6 2.434506 1_555
B1 Zr8 2.434730 1_455
B1 Zr7 2.434730 1_555
B1 Zr9 2.434730 1_545
Sb0 Zr6 2.975139 1_555
Sb0 Zr5 2.975139 1_555
Sb0 Zr0 2.991745 1_556
Sb0 Zr3 2.991745 1_555
Sb0 Zr1 2.991745 1_556
Sb0 Zr2 2.991745 1_555
Sb0 Zr4 3.197009 1_555
Sb0 Zr7 3.256376 1_555
Sb0 Zr7 3.256376 1_556
Sb1 Zr6 2.975139 1_655
Sb1 Zr4 2.975139 1_545
Sb1 Zr0 2.991737 1_556
Sb1 Zr3 2.991737 1_555
Sb1 Zr1 2.991740 1_546
Sb1 Zr2 2.991740 1_545
Sb1 Zr5 3.197009 1_555
Sb1 Zr8 3.256376 1_556
Sb1 Zr8 3.256376 1_555
Sb2 Zr4 2.975139 1_455
Sb2 Zr5 2.975139 1_565
Sb2 Zr1 2.991737 1_556
Sb2 Zr2 2.991737 1_555
Sb2 Zr0 2.991740 1_456
Sb2 Zr3 2.991740 1_455
Sb2 Zr6 3.197009 1_555
Sb2 Zr9 3.256376 1_556
Sb2 Zr9 3.256376 1_555
