# generated using pymatgen
data_LiTc2Sn8Ge
_symmetry_space_group_name_H-M   'P 1'
_cell_length_a   7.29458923
_cell_length_b   7.29458906
_cell_length_c   7.29458899
_cell_angle_alpha   123.77102764
_cell_angle_beta   123.77102907
_cell_angle_gamma   83.58375774
_symmetry_Int_Tables_number   1
_chemical_formula_structural   LiTc2Sn8Ge
_chemical_formula_sum   'Li1 Tc2 Sn8 Ge1'
_cell_volume   257.05500444
_cell_formula_units_Z   1
loop_
 _symmetry_equiv_pos_site_id
 _symmetry_equiv_pos_as_xyz
  1  'x, y, z'
loop_
 _atom_site_type_symbol
 _atom_site_label
 _atom_site_symmetry_multiplicity
 _atom_site_fract_x
 _atom_site_fract_y
 _atom_site_fract_z
 _atom_site_occupancy
  Li  Li0  1  0.00000000  0.00000000  0.00000000  1
  Tc  Tc0  1  0.27470929  0.27470929  0.00000000  1
  Tc  Tc1  1  0.72529071  0.72529071  1.00000000  1
  Sn  Sn0  1  0.71870319  0.52667178  0.52417875  1
  Sn  Sn1  1  0.52667178  0.00249303  0.80796858  1
  Sn  Sn2  1  0.19452444  0.71870319  0.19203142  1
  Sn  Sn3  1  0.80547556  0.28129681  0.80796858  1
  Sn  Sn4  1  0.47332822  0.99750697  0.19203142  1
  Sn  Sn5  1  0.28129681  0.47332822  0.47582125  1
  Sn  Sn6  1  0.99750697  0.80547556  0.52417875  1
  Sn  Sn7  1  0.00249303  0.19452444  0.47582125  1
  Ge  Ge0  1  0.50000000  0.50000000  0.00000000  1
loop_
_geom_bond_atom_site_label_1
_geom_bond_atom_site_label_2
_geom_bond_distance
_geom_bond_site_symmetry_2
Li0 Sn5 2.919103 1_555
Li0 Sn0 2.919103 1_444
Li0 Sn6 2.919103 1_444
Li0 Sn7 2.919103 1_555
Li0 Sn3 2.919103 1_454
Li0 Sn2 2.919103 1_545
Li0 Sn1 2.919103 1_454
Li0 Sn4 2.919103 1_545
Li0 Tc0 2.988085 1_555
Li0 Tc1 2.988085 1_444
Sn0 Tc0 2.870115 1_555
Sn0 Tc1 2.896219 1_555
Sn1 Tc0 2.870115 1_556
Sn1 Tc1 2.896219 1_545
Sn2 Tc0 2.870115 1_555
Sn2 Tc1 2.896219 1_454
Sn3 Tc1 2.870115 1_555
Sn3 Tc0 2.896219 1_656
Sn4 Tc1 2.870115 1_554
Sn4 Tc0 2.896219 1_565
Sn5 Tc1 2.870115 1_555
Sn5 Tc0 2.896219 1_555
Sn6 Tc1 2.870115 1_554
Sn6 Tc0 2.896219 1_666
Sn7 Tc0 2.870115 1_556
Sn7 Tc1 2.896219 1_444
Ge0 Tc1 2.450546 1_554
Ge0 Tc0 2.450546 1_555
