# generated using pymatgen
data_Sr8Cd3Si12Ni
_symmetry_space_group_name_H-M   'P 1'
_cell_length_a   11.90900052
_cell_length_b   10.32523619
_cell_length_c   8.41155325
_cell_angle_alpha   78.20416995
_cell_angle_beta   57.98998673
_cell_angle_gamma   43.74224621
_symmetry_Int_Tables_number   1
_chemical_formula_structural   Sr8Cd3Si12Ni
_chemical_formula_sum   'Sr8 Cd3 Si12 Ni1'
_cell_volume   577.60882451
_cell_formula_units_Z   1
loop_
 _symmetry_equiv_pos_site_id
 _symmetry_equiv_pos_as_xyz
  1  'x, y, z'
loop_
 _atom_site_type_symbol
 _atom_site_label
 _atom_site_symmetry_multiplicity
 _atom_site_fract_x
 _atom_site_fract_y
 _atom_site_fract_z
 _atom_site_occupancy
  Sr  Sr0  1  0.13353392  0.12283829  0.86337246  1
  Sr  Sr1  1  0.86357972  0.88044533  0.13323103  1
  Sr  Sr2  1  0.13556597  0.12361322  0.37337678  1
  Sr  Sr3  1  0.37324686  0.36721174  0.13579122  1
  Sr  Sr4  1  0.61839522  0.63462850  0.37779067  1
  Sr  Sr5  1  0.37773891  0.36933864  0.61834304  1
  Sr  Sr6  1  0.63141726  0.62837550  0.86859715  1
  Sr  Sr7  1  0.86834521  0.87161832  0.63153243  1
  Cd  Cd0  1  0.08296496  0.41707162  0.08302670  1
  Cd  Cd1  1  0.83248925  0.16776335  0.83230823  1
  Cd  Cd2  1  0.16669603  0.83335011  0.16661733  1
  Si  Si0  1  0.90997742  0.59584396  0.43263893  1
  Si  Si1  1  0.09472931  0.39924962  0.57992129  1
  Si  Si2  1  0.43236459  0.06140050  0.91021892  1
  Si  Si3  1  0.58006055  0.92571100  0.09447040  1
  Si  Si4  1  0.33572845  0.65545427  0.82385388  1
  Si  Si5  1  0.65910549  0.33990369  0.18079731  1
  Si  Si6  1  0.82441347  0.18570660  0.33519645  1
  Si  Si7  1  0.18059292  0.82062646  0.65920113  1
  Si  Si8  1  0.90810348  0.59204715  0.90765847  1
  Si  Si9  1  0.57552263  0.92467492  0.57530413  1
  Si  Si10  1  0.33944443  0.65997861  0.34022011  1
  Si  Si11  1  0.65895601  0.33991192  0.65998099  1
  Ni  Ni0  1  0.41702991  0.08323969  0.41654796  1
loop_
_geom_bond_atom_site_label_1
_geom_bond_atom_site_label_2
_geom_bond_distance
_geom_bond_site_symmetry_2
Cd0 Si8 2.550947 1_454
Cd0 Si0 2.569362 1_455
Cd0 Si2 2.569865 1_554
Cd0 Sr3 3.372579 1_555
Cd0 Sr2 3.375211 1_555
Cd0 Sr0 3.387889 1_554
Cd0 Sr1 3.389691 1_455
Cd0 Sr4 3.402955 1_455
Cd0 Sr5 3.403742 1_554
Cd1 Si11 2.519155 1_555
Cd1 Si7 2.533308 1_645
Cd1 Si5 2.534953 1_556
Cd1 Sr0 3.417213 1_655
Cd1 Sr1 3.417805 1_546
Cd1 Sr2 3.421731 1_655
Cd1 Sr3 3.426857 1_556
Cd1 Sr6 3.436478 1_555
Cd1 Sr7 3.441605 1_545
Cd2 Si10 2.522704 1_555
Cd2 Si4 2.531505 1_554
Cd2 Si6 2.533000 1_465
Cd2 Sr1 3.439277 1_455
Cd2 Sr0 3.441186 1_564
Cd2 Sr6 3.453903 1_554
Cd2 Sr7 3.456366 1_455
Cd2 Sr2 3.462149 1_565
Cd2 Sr3 3.465604 1_555
Si0 Si9 2.427099 1_555
Si0 Si1 2.429909 1_655
Si0 Sr7 3.190783 1_555
Si0 Sr6 3.249956 1_555
Si0 Sr3 3.351527 1_655
Si0 Sr1 3.374413 1_555
Si0 Sr2 3.447751 1_655
Si0 Sr4 3.470552 1_555
Si1 Si8 2.420272 1_455
Si1 Sr2 3.237387 1_555
Si1 Sr0 3.244061 1_555
Si1 Sr3 3.294072 1_555
Si1 Sr5 3.342022 1_555
Si1 Sr6 3.349771 1_455
Si1 Sr7 3.445352 1_455
Si2 Si9 2.427464 1_545
Si2 Si3 2.429027 1_546
Si2 Sr6 3.190351 1_545
Si2 Sr7 3.250693 1_545
Si2 Sr2 3.350805 1_556
Si2 Sr0 3.368245 1_555
Si2 Sr3 3.447803 1_556
Si2 Sr5 3.474662 1_555
Si3 Si8 2.420435 1_554
Si3 Sr3 3.238071 1_565
Si3 Sr1 3.248012 1_555
Si3 Sr2 3.296308 1_565
Si3 Sr4 3.341155 1_555
Si3 Sr7 3.347816 1_554
Si3 Sr6 3.442229 1_554
Si4 Si7 2.331154 1_555
Si4 Sr5 3.316841 1_555
Si4 Sr4 3.368986 1_555
Si4 Sr1 3.445340 1_456
Si4 Sr3 3.474288 1_556
Si4 Sr0 3.494909 1_565
Si4 Sr6 3.543891 1_555
Si5 Si6 2.330972 1_555
Si5 Sr5 3.282937 1_555
Si5 Sr4 3.364437 1_555
Si5 Sr1 3.412740 1_545
Si5 Sr3 3.427490 1_555
Si5 Sr6 3.489651 1_554
Si5 Sr0 3.497333 1_654
Si6 Sr4 3.308798 1_555
Si6 Sr5 3.377249 1_555
Si6 Sr0 3.440373 1_654
Si6 Sr2 3.462623 1_655
Si6 Sr1 3.501858 1_545
Si6 Sr7 3.553898 1_545
Si7 Sr4 3.283597 1_555
Si7 Sr5 3.366701 1_555
Si7 Sr0 3.412381 1_565
Si7 Sr2 3.423815 1_565
Si7 Sr7 3.492497 1_455
Si7 Sr1 3.494602 1_456
Si8 Sr7 3.225115 1_555
Si8 Sr6 3.227621 1_555
Si8 Sr0 3.420789 1_655
Si8 Sr1 3.422070 1_556
Si8 Sr5 3.430196 1_655
Si8 Sr4 3.433663 1_556
Si9 Sr0 3.272308 1_565
Si9 Sr1 3.272822 1_555
Si9 Sr5 3.302804 1_565
Si9 Sr4 3.303840 1_555
Si9 Sr7 3.401000 1_555
Si9 Sr6 3.406129 1_555
Si10 Si5 2.331052 1_555
Si10 Si7 2.331056 1_555
Si10 Sr5 3.312070 1_555
Si10 Sr4 3.320693 1_555
Si10 Sr3 3.448173 1_555
Si10 Sr2 3.452993 1_565
Si10 Sr7 3.486544 1_455
Si10 Sr6 3.492972 1_554
Si11 Si6 2.328014 1_555
Si11 Si4 2.328558 1_555
Si11 Sr5 3.340746 1_555
Si11 Sr4 3.356491 1_555
Si11 Sr7 3.474727 1_545
Si11 Sr6 3.489037 1_555
Si11 Sr3 3.509076 1_556
Si11 Sr2 3.520629 1_655
Ni0 Si9 2.310727 1_545
Ni0 Si1 2.326537 1_555
Ni0 Si3 2.327473 1_545
Ni0 Sr3 3.272838 1_555
Ni0 Sr2 3.278836 1_555
Ni0 Sr1 3.295387 1_545
Ni0 Sr0 3.297462 1_555
Ni0 Sr5 3.322246 1_555
Ni0 Sr4 3.324340 1_545
