# generated using pymatgen
data_Sc7NiI12
_symmetry_space_group_name_H-M   'P 1'
_cell_length_a   9.33462712
_cell_length_b   9.33462678
_cell_length_c   9.33462739
_cell_angle_alpha   107.49873200
_cell_angle_beta   107.49873037
_cell_angle_gamma   107.49873119
_symmetry_Int_Tables_number   1
_chemical_formula_structural   Sc7NiI12
_chemical_formula_sum   'Sc7 Ni1 I12'
_cell_volume   667.95665938
_cell_formula_units_Z   1
loop_
 _symmetry_equiv_pos_site_id
 _symmetry_equiv_pos_as_xyz
  1  'x, y, z'
loop_
 _atom_site_type_symbol
 _atom_site_label
 _atom_site_symmetry_multiplicity
 _atom_site_fract_x
 _atom_site_fract_y
 _atom_site_fract_z
 _atom_site_occupancy
  Sc  Sc0  1  0.90534973  0.97061745  0.71138031  1
  Sc  Sc1  1  0.71138031  0.90534973  0.97061745  1
  Sc  Sc2  1  0.97061745  0.71138031  0.90534973  1
  Sc  Sc3  1  0.09465027  0.02938255  0.28861969  1
  Sc  Sc4  1  0.28861969  0.09465027  0.02938255  1
  Sc  Sc5  1  0.02938255  0.28861969  0.09465027  1
  Sc  Sc6  1  0.50000000  0.50000000  0.50000000  1
  Ni  Ni0  1  0.00000000  0.00000000  0.00000000  1
  I  I0  1  0.92462035  0.31228875  0.77588047  1
  I  I1  1  0.77588047  0.92462035  0.31228875  1
  I  I2  1  0.31228875  0.77588047  0.92462035  1
  I  I3  1  0.07537965  0.68771125  0.22411953  1
  I  I4  1  0.22411953  0.07537965  0.68771125  1
  I  I5  1  0.68771125  0.22411953  0.07537965  1
  I  I6  1  0.54012391  0.84705875  0.61548534  1
  I  I7  1  0.61548534  0.54012391  0.84705875  1
  I  I8  1  0.84705875  0.61548534  0.54012391  1
  I  I9  1  0.45987609  0.15294125  0.38451466  1
  I  I10  1  0.38451466  0.45987609  0.15294125  1
  I  I11  1  0.15294125  0.38451466  0.45987609  1
loop_
_geom_bond_atom_site_label_1
_geom_bond_atom_site_label_2
_geom_bond_distance
_geom_bond_site_symmetry_2
Ni0 Sc5 2.468349 1_555
Ni0 Sc2 2.468349 1_444
Ni0 Sc4 2.468349 1_555
Ni0 Sc1 2.468349 1_444
Ni0 Sc0 2.468349 1_444
Ni0 Sc3 2.468349 1_555
I0 Sc5 2.938485 1_656
I0 Sc0 3.000338 1_545
I0 Sc2 3.397325 1_555
I1 Sc3 2.938485 1_665
I1 Sc1 3.000339 1_554
I1 Sc0 3.397325 1_555
I2 Sc4 2.938485 1_566
I2 Sc2 3.000338 1_455
I2 Sc1 3.397325 1_555
I3 Sc2 2.938485 1_454
I3 Sc3 3.000338 1_565
I3 Sc5 3.397325 1_555
I4 Sc0 2.938485 1_445
I4 Sc4 3.000339 1_556
I4 Sc3 3.397325 1_555
I5 Sc1 2.938485 1_544
I5 Sc5 3.000338 1_655
I5 Sc4 3.397325 1_555
I6 Sc6 2.953826 1_555
I6 Sc0 2.988936 1_555
I6 Sc1 3.007702 1_555
I7 Sc6 2.953826 1_555
I7 Sc1 2.988936 1_555
I7 Sc2 3.007702 1_555
I8 Sc6 2.953826 1_555
I8 Sc2 2.988936 1_555
I8 Sc0 3.007702 1_555
I9 Sc6 2.953826 1_555
I9 Sc3 2.988936 1_555
I9 Sc4 3.007702 1_555
I10 Sc6 2.953826 1_555
I10 Sc4 2.988936 1_555
I10 Sc5 3.007702 1_555
I11 Sc6 2.953826 1_555
I11 Sc5 2.988936 1_555
I11 Sc3 3.007702 1_555
