# generated using pymatgen
data_MnCo7PbO16
_symmetry_space_group_name_H-M   'P 1'
_cell_length_a   5.63117065
_cell_length_b   6.72352811
_cell_length_c   6.89282219
_cell_angle_alpha   89.75881425
_cell_angle_beta   78.27857496
_cell_angle_gamma   77.89970293
_symmetry_Int_Tables_number   1
_chemical_formula_structural   MnCo7PbO16
_chemical_formula_sum   'Mn1 Co7 Pb1 O16'
_cell_volume   249.65126583
_cell_formula_units_Z   1
loop_
 _symmetry_equiv_pos_site_id
 _symmetry_equiv_pos_as_xyz
  1  'x, y, z'
loop_
 _atom_site_type_symbol
 _atom_site_label
 _atom_site_symmetry_multiplicity
 _atom_site_fract_x
 _atom_site_fract_y
 _atom_site_fract_z
 _atom_site_occupancy
  Mn  Mn0  1  0.58132409  0.51465708  0.17843479  1
  Co  Co0  1  0.08161657  0.51129798  0.18263217  1
  Co  Co1  1  0.16915368  0.81522595  0.52349517  1
  Co  Co2  1  0.66840533  0.81527773  0.52838546  1
  Co  Co3  1  0.33772844  0.18350815  0.47823553  1
  Co  Co4  1  0.83727749  0.18283666  0.48516522  1
  Co  Co5  1  0.42784521  0.48809111  0.81466087  1
  Co  Co6  1  0.92857839  0.49246000  0.81505354  1
  Pb  Pb0  1  0.99550946  0.01443611  0.01465475  1
  O  O0  1  0.83157351  0.65385617  0.05350070  1
  O  O1  1  0.32517273  0.65247022  0.05274529  1
  O  O2  1  0.98249162  0.68983254  0.39307560  1
  O  O3  1  0.48369909  0.69286509  0.39389776  1
  O  O4  1  0.85329786  0.96230872  0.65413895  1
  O  O5  1  0.34737354  0.96433988  0.65077456  1
  O  O6  1  0.34585462  0.36229616  0.27577546  1
  O  O7  1  0.84642482  0.35452035  0.27146412  1
  O  O8  1  0.16901052  0.63202044  0.71488398  1
  O  O9  1  0.66720770  0.62951956  0.71428927  1
  O  O10  1  0.15247798  0.03457559  0.35442102  1
  O  O11  1  0.66022748  0.03361773  0.35664579  1
  O  O12  1  0.02680199  0.30865035  0.60636593  1
  O  O13  1  0.52461834  0.30780096  0.60602193  1
  O  O14  1  0.17767425  0.35348625  0.94284497  1
  O  O15  1  0.68575328  0.35004722  0.93843219  1
loop_
_geom_bond_atom_site_label_1
_geom_bond_atom_site_label_2
_geom_bond_distance
_geom_bond_site_symmetry_2
Mn0 O3 1.830472 1_555
Mn0 O6 1.860103 1_555
Mn0 O7 1.873027 1_555
Mn0 O1 1.905360 1_555
Mn0 O15 1.911729 1_554
Mn0 O0 1.912178 1_555
Co0 O2 1.805922 1_455
Co0 O6 1.840558 1_555
Co0 O7 1.868276 1_455
Co0 O14 1.887086 1_554
Co0 O1 1.903477 1_555
Co0 O0 1.905185 1_455
Co1 O8 1.801088 1_555
Co1 O3 1.834267 1_555
Co1 O2 1.840007 1_455
Co1 O10 1.874553 1_565
Co1 O5 1.889177 1_555
Co1 O4 1.889899 1_455
Co2 O9 1.785626 1_555
Co2 O3 1.837292 1_555
Co2 O2 1.849439 1_555
Co2 O11 1.880872 1_565
Co2 O5 1.900550 1_555
Co2 O4 1.902111 1_555
Co3 O12 1.820405 1_555
Co3 O13 1.825736 1_555
Co3 O6 1.837819 1_555
Co3 O5 1.888577 1_545
Co3 O10 1.904240 1_555
Co3 O11 1.907217 1_555
Co4 O13 1.813704 1_555
Co4 O12 1.816370 1_655
Co4 O7 1.866717 1_555
Co4 O4 1.880220 1_545
Co4 O11 1.889713 1_555
Co4 O10 1.890009 1_655
Co5 O13 1.803839 1_555
Co5 O8 1.828725 1_555
Co5 O9 1.831007 1_555
Co5 O14 1.899044 1_555
Co5 O1 1.900196 1_556
Co5 O15 1.905298 1_555
Co6 O12 1.818654 1_655
Co6 O8 1.826920 1_655
Co6 O9 1.827347 1_555
Co6 O14 1.887363 1_655
Co6 O0 1.891823 1_556
Co6 O15 1.891931 1_555
O0 Pb0 2.762946 1_565
O1 Pb0 2.781457 1_465
O4 Pb0 2.805848 1_566
O5 Pb0 2.835206 1_466
O7 Pb0 2.773456 1_555
O10 Pb0 2.679236 1_455
O11 Pb0 2.688909 1_555
O14 Pb0 2.694157 1_456
O15 Pb0 2.668812 1_556
