# generated using pymatgen
data_Ti10CuSiSb4
_symmetry_space_group_name_H-M   'P 1'
_cell_length_a   5.12560132
_cell_length_b   7.78838006
_cell_length_c   7.78838092
_cell_angle_alpha   83.78402019
_cell_angle_beta   70.78861731
_cell_angle_gamma   70.78861883
_symmetry_Int_Tables_number   1
_chemical_formula_structural   Ti10CuSiSb4
_chemical_formula_sum   'Ti10 Cu1 Si1 Sb4'
_cell_volume   277.24853557
_cell_formula_units_Z   1
loop_
 _symmetry_equiv_pos_site_id
 _symmetry_equiv_pos_as_xyz
  1  'x, y, z'
loop_
 _atom_site_type_symbol
 _atom_site_label
 _atom_site_symmetry_multiplicity
 _atom_site_fract_x
 _atom_site_fract_y
 _atom_site_fract_z
 _atom_site_occupancy
  Ti  Ti0  1  0.25000000  0.50000000  0.50000000  1
  Ti  Ti1  1  0.75000000  0.50000000  0.50000000  1
  Ti  Ti2  1  0.07012755  0.13828602  0.71501398  1
  Ti  Ti3  1  0.92342556  0.86171398  0.28498602  1
  Ti  Ti4  1  0.78514153  0.28498602  0.13828602  1
  Ti  Ti5  1  0.42987245  0.28498602  0.86171398  1
  Ti  Ti6  1  0.20841257  0.71501398  0.86171398  1
  Ti  Ti7  1  0.57657444  0.71501398  0.13828602  1
  Ti  Ti8  1  0.71485847  0.86171398  0.71501398  1
  Ti  Ti9  1  0.29158743  0.13828602  0.28498602  1
  Cu  Cu0  1  0.25000000  0.00000000  0.00000000  1
  Si  Si0  1  0.75000000  0.00000000  0.00000000  1
  Sb  Sb0  1  0.16396739  0.50000000  0.17206423  1
  Sb  Sb1  1  0.83603261  0.50000000  0.82793577  1
  Sb  Sb2  1  0.33603261  0.82793577  0.50000000  1
  Sb  Sb3  1  0.66396739  0.17206423  0.50000000  1
loop_
_geom_bond_atom_site_label_1
_geom_bond_atom_site_label_2
_geom_bond_distance
_geom_bond_site_symmetry_2
Ti0 Ti1 2.562801 1_455
Ti0 Ti1 2.562801 1_555
Cu0 Si0 2.562801 1_455
Cu0 Si0 2.562801 1_555
Cu0 Ti5 2.666847 1_554
Cu0 Ti4 2.666848 1_455
Cu0 Ti2 2.666848 1_554
Cu0 Ti8 2.666848 1_544
Cu0 Ti6 2.666850 1_544
Cu0 Ti9 2.666850 1_555
Cu0 Ti7 2.666853 1_545
Cu0 Ti3 2.666853 1_445
Si0 Ti7 2.650922 1_545
Si0 Ti3 2.650923 1_545
Si0 Ti6 2.650925 1_644
Si0 Ti9 2.650925 1_555
Si0 Ti4 2.650927 1_555
Si0 Ti8 2.650927 1_544
Si0 Ti5 2.650928 1_554
Si0 Ti2 2.650928 1_654
Sb0 Ti1 2.731121 1_455
Sb0 Ti0 2.731123 1_555
Sb0 Ti5 2.776840 1_554
Sb0 Ti6 2.776841 1_554
Sb0 Ti3 2.786951 1_455
Sb0 Ti9 2.786952 1_555
Sb0 Ti7 3.007639 1_455
Sb0 Ti4 3.007652 1_555
Sb0 Ti4 3.035664 1_455
Sb0 Ti7 3.035678 1_555
Sb1 Ti0 2.731121 1_655
Sb1 Ti1 2.731123 1_555
Sb1 Ti7 2.776840 1_556
Sb1 Ti4 2.776841 1_556
Sb1 Ti2 2.786951 1_655
Sb1 Ti8 2.786951 1_555
Sb1 Ti6 3.007643 1_655
Sb1 Ti5 3.007651 1_555
Sb1 Ti5 3.035665 1_655
Sb1 Ti6 3.035674 1_555
Sb2 Ti1 2.731121 1_555
Sb2 Ti0 2.731123 1_555
Sb2 Ti2 2.776840 1_565
Sb2 Ti9 2.776840 1_565
Sb2 Ti7 2.786952 1_555
Sb2 Ti6 2.786952 1_555
Sb2 Ti3 3.007639 1_555
Sb2 Ti8 3.007652 1_455
Sb2 Ti8 3.035665 1_555
Sb2 Ti3 3.035678 1_455
Sb3 Ti0 2.731121 1_555
Sb3 Ti1 2.731123 1_555
Sb3 Ti3 2.776840 1_545
Sb3 Ti8 2.776840 1_545
Sb3 Ti5 2.786952 1_555
Sb3 Ti4 2.786952 1_555
Sb3 Ti9 3.007643 1_555
Sb3 Ti2 3.007652 1_655
Sb3 Ti2 3.035665 1_555
Sb3 Ti9 3.035674 1_655
