# generated using pymatgen
data_TeAu2SeBr16
_symmetry_space_group_name_H-M   'P 1'
_cell_length_a   7.96319330
_cell_length_b   8.98491160
_cell_length_c   10.23862852
_cell_angle_alpha   87.22782764
_cell_angle_beta   71.93211025
_cell_angle_gamma   82.66758654
_symmetry_Int_Tables_number   1
_chemical_formula_structural   TeAu2SeBr16
_chemical_formula_sum   'Te1 Au2 Se1 Br16'
_cell_volume   690.71154214
_cell_formula_units_Z   1
loop_
 _symmetry_equiv_pos_site_id
 _symmetry_equiv_pos_as_xyz
  1  'x, y, z'
loop_
 _atom_site_type_symbol
 _atom_site_label
 _atom_site_symmetry_multiplicity
 _atom_site_fract_x
 _atom_site_fract_y
 _atom_site_fract_z
 _atom_site_occupancy
  Te  Te0  1  0.37703598  0.73984931  0.27303292  1
  Au  Au0  1  0.99968791  0.11030387  0.31577976  1
  Au  Au1  1  0.99608763  0.89882802  0.68401370  1
  Se  Se0  1  0.61430283  0.25813708  0.73299680  1
  Br  Br0  1  0.28924653  0.07160711  0.36154647  1
  Br  Br1  1  0.70969819  0.94092479  0.63529902  1
  Br  Br2  1  0.91322682  0.32486817  0.47245817  1
  Br  Br3  1  0.07453978  0.67348877  0.53851816  1
  Br  Br4  1  0.07914742  0.89433577  0.16058524  1
  Br  Br5  1  0.92170600  0.12169424  0.82879814  1
  Br  Br6  1  0.72339312  0.16333096  0.25830846  1
  Br  Br7  1  0.27336935  0.84722851  0.74098727  1
  Br  Br8  1  0.40280392  0.31198743  0.61472647  1
  Br  Br9  1  0.60952711  0.67626728  0.39214218  1
  Br  Br10  1  0.63845866  0.50299390  0.79453662  1
  Br  Br11  1  0.35215960  0.47720184  0.21133905  1
  Br  Br12  1  0.41618919  0.18373633  0.94193584  1
  Br  Br13  1  0.59848987  0.80103012  0.04743087  1
  Br  Br14  1  0.92491788  0.40958927  0.06704049  1
  Br  Br15  1  0.08601322  0.59259623  0.92852136  1
loop_
_geom_bond_atom_site_label_1
_geom_bond_atom_site_label_2
_geom_bond_distance
_geom_bond_site_symmetry_2
Au0 Br6 2.433607 1_555
Au0 Br2 2.457484 1_555
Au0 Br4 2.460037 1_645
Au0 Br0 2.471242 1_655
Au1 Br7 2.437658 1_655
Au1 Br5 2.449043 1_565
Au1 Br1 2.461706 1_555
Au1 Br3 2.469870 1_655
Br0 Te0 3.087344 1_545
Br1 Se0 2.992098 1_565
Br2 Se0 3.067977 1_555
Br3 Te0 3.113681 1_555
Br4 Te0 3.094879 1_555
Br5 Se0 3.010703 1_555
Br8 Se0 2.353161 1_555
Br9 Te0 2.510830 1_555
Br10 Se0 2.364607 1_555
Br11 Te0 2.519588 1_555
Br12 Se0 2.355755 1_555
Br13 Te0 2.519011 1_555
Br14 Br15 2.354808 1_654
