# generated using pymatgen
data_Ca5ReMoN7
_symmetry_space_group_name_H-M   'P 1'
_cell_length_a   6.09992395
_cell_length_b   9.05438063
_cell_length_c   8.90843325
_cell_angle_alpha   115.78322259
_cell_angle_beta   97.75975553
_cell_angle_gamma   88.74896091
_symmetry_Int_Tables_number   1
_chemical_formula_structural   Ca5ReMoN7
_chemical_formula_sum   'Ca10 Re2 Mo2 N14'
_cell_volume   438.60683464
_cell_formula_units_Z   2
loop_
 _symmetry_equiv_pos_site_id
 _symmetry_equiv_pos_as_xyz
  1  'x, y, z'
loop_
 _atom_site_type_symbol
 _atom_site_label
 _atom_site_symmetry_multiplicity
 _atom_site_fract_x
 _atom_site_fract_y
 _atom_site_fract_z
 _atom_site_occupancy
  Ca  Ca0  1  0.84170084  0.60798848  0.32010814  1
  Ca  Ca1  1  0.26222348  0.98816059  0.55686920  1
  Ca  Ca2  1  0.70249284  0.41611559  0.85717365  1
  Ca  Ca3  1  0.29750716  0.58388441  0.14282635  1
  Ca  Ca4  1  0.39262311  0.78869656  0.91420287  1
  Ca  Ca5  1  0.60737689  0.21130344  0.08579713  1
  Ca  Ca6  1  0.15829916  0.39201152  0.67989186  1
  Ca  Ca7  1  0.89079422  0.86533905  0.75693052  1
  Ca  Ca8  1  0.10920578  0.13466095  0.24306948  1
  Ca  Ca9  1  0.73777652  0.01183941  0.44313080  1
  Re  Re0  1  0.58393561  0.34831553  0.47459710  1
  Re  Re1  1  0.41606439  0.65168447  0.52540290  1
  Mo  Mo0  1  0.12469750  0.21766897  0.92617586  1
  Mo  Mo1  1  0.87530250  0.78233103  0.07382414  1
  N  N0  1  0.49355929  0.54010111  0.67178967  1
  N  N1  1  0.50644071  0.45989889  0.32821033  1
  N  N2  1  0.14067618  0.72958438  0.55807175  1
  N  N3  1  0.85932382  0.27041562  0.44192825  1
  N  N4  1  0.41438606  0.18068324  0.47340533  1
  N  N5  1  0.58561394  0.81931676  0.52659467  1
  N  N6  1  0.95129178  0.13121072  0.71672990  1
  N  N7  1  0.04870822  0.86878928  0.28327010  1
  N  N8  1  0.23792100  0.05168603  0.97775717  1
  N  N9  1  0.76207900  0.94831397  0.02224283  1
  N  N10  1  0.36765681  0.32700790  0.90847290  1
  N  N11  1  0.96085409  0.36176588  0.09122026  1
  N  N12  1  0.03914591  0.63823412  0.90877974  1
  N  N13  1  0.63234319  0.67299210  0.09152710  1
loop_
_geom_bond_atom_site_label_1
_geom_bond_atom_site_label_2
_geom_bond_distance
_geom_bond_site_symmetry_2
Ca0 N11 2.455813 1_555
Ca0 N2 2.458726 1_655
Ca0 N1 2.495833 1_555
Ca0 N13 2.536017 1_555
Ca0 N5 2.658687 1_555
Ca0 N7 2.862619 1_655
Ca1 N7 2.391163 1_555
Ca1 N4 2.416103 1_565
Ca1 N5 2.440199 1_555
Ca1 N2 2.476093 1_555
Ca1 N6 2.514062 1_465
Ca2 N10 2.382491 1_555
Ca2 N13 2.434112 1_556
Ca2 N0 2.567865 1_555
Ca2 N11 2.654140 1_556
Ca2 N12 2.755764 1_655
Ca2 N6 2.838529 1_555
Ca3 N13 2.382491 1_555
Ca3 N10 2.434112 1_554
Ca3 N1 2.567865 1_555
Ca3 N12 2.654140 1_554
Ca3 N11 2.755764 1_455
Ca3 N7 2.838529 1_555
Ca4 N8 2.398864 1_565
Ca4 N0 2.485762 1_555
Ca4 N9 2.537798 1_556
Ca4 N13 2.545621 1_556
Ca4 N12 2.559361 1_555
Ca5 N9 2.398864 1_545
Ca5 N1 2.485762 1_555
Ca5 N8 2.537798 1_554
Ca5 N10 2.545621 1_554
Ca5 N11 2.559361 1_555
Ca6 N12 2.455813 1_555
Ca6 N3 2.458726 1_455
Ca6 N0 2.495833 1_555
Ca6 N10 2.536017 1_555
Ca6 N4 2.658687 1_555
Ca6 N6 2.862619 1_455
Ca7 N9 2.386995 1_556
Ca7 N2 2.392822 1_655
Ca7 N5 2.471450 1_555
Ca7 N6 2.623739 1_565
Ca7 N8 2.709989 1_665
Ca7 N12 2.980800 1_655
Ca8 N8 2.386995 1_554
Ca8 N3 2.392822 1_455
Ca8 N4 2.471450 1_555
Ca8 N7 2.623739 1_545
Ca8 N9 2.709989 1_445
Ca8 N11 2.980800 1_455
Ca9 N6 2.391163 1_555
Ca9 N5 2.416103 1_545
Ca9 N4 2.440199 1_555
Ca9 N3 2.476093 1_555
Ca9 N7 2.514062 1_645
Mo0 N8 1.848382 1_555
Mo0 N6 1.856226 1_455
Mo0 N10 1.861287 1_555
Mo0 N11 1.879881 1_456
Mo1 N9 1.848382 1_555
Mo1 N7 1.856226 1_655
Mo1 N13 1.861287 1_555
Mo1 N12 1.879881 1_654
N0 Re1 1.975769 1_555
N0 Re0 1.992804 1_555
N1 Re0 1.975769 1_555
N1 Re1 1.992804 1_555
N2 Re1 1.818183 1_555
N3 Re0 1.818183 1_555
N4 Re0 1.850693 1_555
N5 Re1 1.850693 1_555
