# generated using pymatgen
data_Be5Nb6CuRu6
_symmetry_space_group_name_H-M   'P 1'
_cell_length_a   7.34201006
_cell_length_b   7.34287135
_cell_length_c   7.34227725
_cell_angle_alpha   126.35556545
_cell_angle_beta   129.07503668
_cell_angle_gamma   77.10202099
_symmetry_Int_Tables_number   1
_chemical_formula_structural   Be5Nb6CuRu6
_chemical_formula_sum   'Be5 Nb6 Cu1 Ru6'
_cell_volume   240.20809659
_cell_formula_units_Z   1
loop_
 _symmetry_equiv_pos_site_id
 _symmetry_equiv_pos_as_xyz
  1  'x, y, z'
loop_
 _atom_site_type_symbol
 _atom_site_label
 _atom_site_symmetry_multiplicity
 _atom_site_fract_x
 _atom_site_fract_y
 _atom_site_fract_z
 _atom_site_occupancy
  Be  Be0  1  0.75001337  0.49683692  0.24672623  1
  Be  Be1  1  0.25004823  0.49658380  0.74690986  1
  Be  Be2  1  0.33351642  0.83042597  0.49702043  1
  Be  Be3  1  0.66560420  0.16357375  0.49630524  1
  Be  Be4  1  0.83366813  0.83012049  0.99625374  1
  Nb  Nb0  1  0.55071960  0.08600072  0.03686831  1
  Nb  Nb1  1  0.45552514  0.50755300  0.55220086  1
  Nb  Nb2  1  0.95539605  0.50704171  0.05145513  1
  Nb  Nb3  1  0.04869978  0.08547262  0.53509414  1
  Nb  Nb4  1  0.74404749  0.89744129  0.65186601  1
  Nb  Nb5  1  0.24511831  0.89701717  0.15302953  1
  Cu  Cu0  1  0.16714559  0.16338871  0.99745110  1
  Ru  Ru0  1  0.49990786  0.24121534  0.74142767  1
  Ru  Ru1  1  0.99437279  0.23863575  0.24433088  1
  Ru  Ru2  1  0.12839485  0.74286691  0.61467444  1
  Ru  Ru3  1  0.87221896  0.49873631  0.62659089  1
  Ru  Ru4  1  0.62864922  0.75288429  0.12419543  1
  Ru  Ru5  1  0.37695702  0.50640424  0.12979910  1
loop_
_geom_bond_atom_site_label_1
_geom_bond_atom_site_label_2
_geom_bond_distance
_geom_bond_site_symmetry_2
Be0 Ru5 2.294602 1_555
Be0 Ru2 2.296192 1_655
Be0 Ru1 2.301166 1_555
Be0 Ru0 2.313755 1_554
Be0 Ru4 2.320579 1_555
Be0 Ru3 2.321386 1_555
Be0 Nb0 2.689450 1_555
Be0 Nb4 2.689981 1_555
Be0 Nb2 2.690424 1_555
Be1 Ru5 2.294351 1_556
Be1 Ru2 2.297425 1_555
Be1 Ru1 2.301357 1_455
Be1 Ru0 2.313218 1_555
Be1 Ru3 2.320225 1_455
Be1 Ru4 2.321505 1_556
Be1 Nb5 2.689241 1_556
Be1 Nb1 2.689958 1_555
Be1 Nb3 2.691584 1_555
Be2 Ru2 2.481627 1_555
Be2 Ru5 2.484354 1_555
Be2 Ru0 2.505008 1_565
Be2 Nb5 2.509053 1_555
Be2 Nb4 2.509667 1_555
Be2 Nb1 2.514061 1_555
Be2 Nb0 2.514812 1_566
Be2 Nb3 2.515191 1_565
Be2 Nb2 2.516241 1_455
Be3 Ru0 2.505642 1_555
Be3 Ru4 2.508940 1_545
Be3 Ru3 2.513801 1_555
Be3 Nb5 2.598812 1_545
Be3 Nb1 2.599407 1_555
Be3 Nb0 2.600872 1_555
Be3 Nb4 2.601838 1_545
Be3 Nb2 2.603164 1_556
Be3 Nb3 2.604783 1_655
Be4 Ru1 2.469985 1_566
Be4 Ru3 2.489720 1_555
Be4 Ru4 2.503040 1_556
Be4 Nb5 2.510041 1_656
Be4 Nb0 2.511769 1_566
Be4 Nb4 2.512030 1_555
Be4 Nb3 2.512563 1_666
Be4 Nb1 2.513320 1_555
Be4 Nb2 2.515497 1_556
Nb0 Ru4 2.737459 1_545
Nb0 Ru1 2.745384 1_555
Nb0 Ru2 2.771716 1_544
Nb0 Ru0 2.804408 1_554
Nb0 Ru3 2.873281 1_555
Nb0 Ru5 2.909389 1_555
Nb1 Ru3 2.740287 1_555
Nb1 Ru2 2.749747 1_555
Nb1 Ru5 2.768974 1_555
Nb1 Ru4 2.796691 1_556
Nb1 Ru0 2.868336 1_555
Nb1 Ru1 2.918321 1_455
Nb2 Ru3 2.738106 1_554
Nb2 Ru2 2.753734 1_655
Nb2 Ru5 2.768181 1_655
Nb2 Ru4 2.799628 1_555
Nb2 Ru0 2.867894 1_554
Nb2 Ru1 2.918568 1_555
Nb3 Ru4 2.733981 1_445
Nb3 Ru1 2.748529 1_455
Nb3 Ru2 2.768962 1_545
Nb3 Ru0 2.808502 1_555
Nb3 Ru3 2.874675 1_455
Nb3 Ru5 2.913053 1_556
Nb4 Ru0 2.741424 1_565
Nb4 Ru5 2.753810 1_555
Nb4 Ru1 2.762812 1_566
Nb4 Ru3 2.799493 1_555
Nb4 Ru4 2.870960 1_555
Nb4 Ru2 2.915470 1_655
Nb5 Ru0 2.743770 1_565
Nb5 Ru5 2.753438 1_555
Nb5 Ru1 2.762516 1_465
Nb5 Ru3 2.796489 1_454
Nb5 Ru4 2.872211 1_555
Nb5 Ru2 2.915127 1_554
Cu0 Ru1 2.568762 1_456
Cu0 Ru5 2.569907 1_556
Cu0 Ru2 2.570932 1_545
Cu0 Nb1 2.602441 1_556
Cu0 Nb2 2.604087 1_456
Cu0 Nb5 2.604396 1_546
Cu0 Nb0 2.605901 1_556
Cu0 Nb4 2.607336 1_445
Cu0 Nb3 2.608759 1_555
