# generated using pymatgen
data_Sr3Y(Al3Pd)6
_symmetry_space_group_name_H-M   'P 1'
_cell_length_a   7.67740869
_cell_length_b   7.68318971
_cell_length_c   9.61329958
_cell_angle_alpha   90.00000000
_cell_angle_beta   90.00000000
_cell_angle_gamma   119.42935058
_symmetry_Int_Tables_number   1
_chemical_formula_structural   Sr3Y(Al3Pd)6
_chemical_formula_sum   'Sr3 Y1 Al18 Pd6'
_cell_volume   493.88747443
_cell_formula_units_Z   1
loop_
 _symmetry_equiv_pos_site_id
 _symmetry_equiv_pos_as_xyz
  1  'x, y, z'
loop_
 _atom_site_type_symbol
 _atom_site_label
 _atom_site_symmetry_multiplicity
 _atom_site_fract_x
 _atom_site_fract_y
 _atom_site_fract_z
 _atom_site_occupancy
  Sr  Sr0  1  0.99414486  0.66958472  0.25000000  1
  Sr  Sr1  1  0.00300135  0.33018327  0.75000000  1
  Sr  Sr2  1  0.67179567  0.99472586  0.25000000  1
  Y  Y0  1  0.32905371  0.00240928  0.75000000  1
  Al  Al0  1  0.13871743  0.13662907  0.25000000  1
  Al  Al1  1  0.86979330  0.86576003  0.75000000  1
  Al  Al2  1  0.00682334  0.33520629  0.07220015  1
  Al  Al3  1  0.99791197  0.66748705  0.92305055  1
  Al  Al4  1  0.99791197  0.66748705  0.57694945  1
  Al  Al5  1  0.33499882  0.00539078  0.43062728  1
  Al  Al6  1  0.00682334  0.33520629  0.42779985  1
  Al  Al7  1  0.66238502  0.99594406  0.57688742  1
  Al  Al8  1  0.66238502  0.99594406  0.92311258  1
  Al  Al9  1  0.33499882  0.00539078  0.06937272  1
  Al  Al10  1  0.33487710  0.33243546  0.55532843  1
  Al  Al11  1  0.66254186  0.66266828  0.45767596  1
  Al  Al12  1  0.66254186  0.66266828  0.04232404  1
  Al  Al13  1  0.33487710  0.33243546  0.94467157  1
  Al  Al14  1  0.34310588  0.54304930  0.25000000  1
  Al  Al15  1  0.65189575  0.45268307  0.75000000  1
  Al  Al16  1  0.54105034  0.34110991  0.25000000  1
  Al  Al17  1  0.45877454  0.66574237  0.75000000  1
  Pd  Pd0  1  0.67013690  0.32767762  0.99765840  1
  Pd  Pd1  1  0.32826845  0.67181181  0.99757660  1
  Pd  Pd2  1  0.32826845  0.67181181  0.50242340  1
  Pd  Pd3  1  0.67013690  0.32767762  0.50234160  1
  Pd  Pd4  1  0.00138962  0.00044022  0.99738556  1
  Pd  Pd5  1  0.00138962  0.00044022  0.50261444  1
loop_
_geom_bond_atom_site_label_1
_geom_bond_atom_site_label_2
_geom_bond_distance
_geom_bond_site_symmetry_2
Al0 Pd5 2.649484 1_555
Al0 Pd4 2.649484 1_554
Al0 Al16 2.690822 1_555
Al0 Al14 2.719894 1_555
Al0 Al6 2.791571 1_555
Al0 Al2 2.791571 1_555
Al0 Al9 2.792121 1_555
Al0 Al5 2.792121 1_555
Al0 Sr0 3.192885 1_445
Al0 Sr2 3.193491 1_445
Al1 Pd4 2.592283 1_665
Al1 Pd5 2.592283 1_665
Al1 Al3 2.743752 1_555
Al1 Al4 2.743752 1_555
Al1 Al17 2.748407 1_555
Al1 Al15 2.766543 1_555
Al1 Al8 2.805483 1_555
Al1 Al7 2.805483 1_555
Al1 Y0 3.145892 1_665
Al1 Sr1 3.192527 1_665
Al2 Pd1 2.649803 1_554
Al2 Pd4 2.651248 1_554
Al2 Pd0 2.655470 1_454
Al2 Al3 2.958015 1_454
Al2 Al8 3.011266 1_444
Al2 Sr1 3.097606 1_554
Al2 Sr2 3.125461 1_445
Al2 Sr0 3.126815 1_455
Al3 Pd1 2.619981 1_655
Al3 Pd4 2.643548 1_665
Al3 Pd0 2.684588 1_555
Al3 Al9 2.968792 1_666
Al3 Y0 3.069806 1_665
Al3 Sr1 3.095931 1_655
Al3 Sr0 3.143310 1_556
Al4 Pd2 2.619981 1_655
Al4 Pd5 2.643548 1_665
Al4 Pd3 2.684588 1_555
Al4 Al6 2.958015 1_655
Al4 Al5 2.968792 1_665
Al4 Y0 3.069806 1_665
Al4 Sr1 3.095931 1_655
Al4 Sr0 3.143310 1_555
Al5 Pd2 2.630136 1_545
Al5 Pd5 2.635270 1_555
Al5 Pd3 2.639337 1_555
Al5 Al7 2.911884 1_545
Al5 Y0 3.070483 1_555
Al5 Sr0 3.144046 1_445
Al5 Sr2 3.148980 1_545
Al6 Pd2 2.649803 1_555
Al6 Pd5 2.651248 1_555
Al6 Pd3 2.655470 1_455
Al6 Al7 3.011266 1_445
Al6 Sr1 3.097606 1_555
Al6 Sr2 3.125461 1_445
Al6 Sr0 3.126815 1_455
Al7 Pd3 2.619976 1_565
Al7 Pd2 2.648908 1_555
Al7 Pd5 2.682643 1_665
Al7 Y0 3.073433 1_565
Al7 Sr1 3.098936 1_665
Al7 Sr2 3.143417 1_555
Al8 Pd0 2.619976 1_565
Al8 Pd1 2.648908 1_555
Al8 Pd4 2.682643 1_665
Al8 Al9 2.911884 1_566
Al8 Y0 3.073433 1_565
Al8 Sr1 3.098936 1_665
Al8 Sr2 3.143417 1_556
Al9 Pd1 2.630136 1_544
Al9 Pd4 2.635270 1_554
Al9 Pd0 2.639337 1_554
Al9 Y0 3.070483 1_554
Al9 Sr0 3.144046 1_445
Al9 Sr2 3.148980 1_545
Al10 Pd5 2.626917 1_555
Al10 Pd3 2.641659 1_555
Al10 Pd2 2.681467 1_555
Al10 Al11 2.715675 1_555
Al10 Al5 2.784475 1_555
Al10 Al6 2.810606 1_555
Al10 Al15 2.840755 1_555
Al10 Al17 2.927679 1_555
Al10 Y0 3.134072 1_555
Al10 Sr1 3.154564 1_555
Al11 Pd2 2.636916 1_555
Al11 Pd3 2.638121 1_555
Al11 Pd5 2.656072 1_665
Al11 Al4 2.802119 1_555
Al11 Al7 2.805916 1_555
Al11 Al14 2.937688 1_555
Al11 Al16 2.948746 1_555
Al11 Sr2 3.212737 1_555
Al11 Sr0 3.215129 1_555
Al12 Pd1 2.636916 1_554
Al12 Pd0 2.638121 1_554
Al12 Pd4 2.656072 1_664
Al12 Al13 2.715675 1_554
Al12 Al3 2.802119 1_554
Al12 Al8 2.805916 1_554
Al12 Al14 2.937688 1_555
Al12 Al16 2.948746 1_555
Al12 Sr2 3.212737 1_555
Al12 Sr0 3.215129 1_555
Al13 Pd4 2.626917 1_555
Al13 Pd0 2.641659 1_555
Al13 Pd1 2.681467 1_555
Al13 Al9 2.784475 1_556
Al13 Al2 2.810606 1_556
Al13 Al15 2.840755 1_555
Al13 Al17 2.927679 1_555
Al13 Y0 3.134072 1_555
Al13 Sr1 3.154564 1_555
Al14 Pd2 2.644039 1_555
Al14 Pd1 2.644039 1_554
Al14 Al16 2.652140 1_555
Al14 Al6 2.843530 1_555
Al14 Al2 2.843530 1_555
Al14 Sr2 3.131339 1_555
Al14 Sr0 3.268393 1_455
Al15 Pd0 2.596635 1_555
Al15 Pd3 2.596635 1_555
Al15 Al17 2.695015 1_555
Al15 Al3 2.870524 1_555
Al15 Al4 2.870524 1_555
Al15 Y0 3.112135 1_555
Al15 Sr1 3.262692 1_655
Al16 Pd3 2.641594 1_555
Al16 Pd0 2.641594 1_554
Al16 Al9 2.856768 1_555
Al16 Al5 2.856768 1_555
Al16 Sr0 3.137303 1_555
Al16 Sr2 3.273451 1_545
Al17 Pd1 2.591626 1_555
Al17 Pd2 2.591626 1_555
Al17 Al8 2.784286 1_555
Al17 Al7 2.784286 1_555
Al17 Sr1 3.166339 1_555
Al17 Y0 3.195982 1_565
