# generated using pymatgen
data_Ta10ZnSi5
_symmetry_space_group_name_H-M   'P 1'
_cell_length_a   7.53039887
_cell_length_b   7.53039790
_cell_length_c   7.53039914
_cell_angle_alpha   128.39352644
_cell_angle_beta   128.39351995
_cell_angle_gamma   75.98839659
_symmetry_Int_Tables_number   1
_chemical_formula_structural   Ta10ZnSi5
_chemical_formula_sum   'Ta10 Zn1 Si5'
_cell_volume   255.04791552
_cell_formula_units_Z   1
loop_
 _symmetry_equiv_pos_site_id
 _symmetry_equiv_pos_as_xyz
  1  'x, y, z'
loop_
 _atom_site_type_symbol
 _atom_site_label
 _atom_site_symmetry_multiplicity
 _atom_site_fract_x
 _atom_site_fract_y
 _atom_site_fract_z
 _atom_site_occupancy
  Ta  Ta0  1  0.01795292  0.18860018  0.50566638  1
  Ta  Ta1  1  0.68293379  0.51228654  0.49433362  1
  Ta  Ta2  1  0.51228654  0.01795292  0.82935274  1
  Ta  Ta3  1  0.18860018  0.68293379  0.17064726  1
  Ta  Ta4  1  0.98771346  0.81706621  0.50566638  1
  Ta  Ta5  1  0.31139982  0.48204708  0.49433362  1
  Ta  Ta6  1  0.48204708  0.98771346  0.17064726  1
  Ta  Ta7  1  0.81706621  0.31139982  0.82935274  1
  Ta  Ta8  1  0.99958808  0.99958808  0.00000000  1
  Ta  Ta9  1  0.50041192  0.50041192  1.00000000  1
  Zn  Zn0  1  0.75000000  0.75000000  0.00000000  1
  Si  Si0  1  0.25000000  0.25000000  0.00000000  1
  Si  Si1  1  0.37054641  0.12945359  0.50000000  1
  Si  Si2  1  0.62945359  0.87054641  0.50000000  1
  Si  Si3  1  0.87054641  0.37054641  0.24109182  1
  Si  Si4  1  0.12945359  0.62945359  0.75890818  1
loop_
_geom_bond_atom_site_label_1
_geom_bond_atom_site_label_2
_geom_bond_distance
_geom_bond_site_symmetry_2
Ta0 Zn0 2.746198 1_445
Ta1 Zn0 2.746198 1_556
Ta2 Zn0 2.746198 1_546
Ta3 Zn0 2.746198 1_455
Ta4 Zn0 2.746198 1_555
Ta5 Zn0 2.746198 1_556
Ta6 Zn0 2.746198 1_555
Ta7 Zn0 2.746197 1_556
Ta8 Zn0 2.962363 1_555
Ta9 Zn0 2.962363 1_556
Si0 Ta3 2.701495 1_555
Si0 Ta4 2.701495 1_444
Si0 Ta6 2.701495 1_545
Si0 Ta2 2.701495 1_554
Si0 Ta7 2.701496 1_454
Si0 Ta5 2.701496 1_555
Si0 Ta1 2.701496 1_555
Si0 Ta0 2.701496 1_554
Si0 Ta9 2.972141 1_554
Si0 Ta8 2.972141 1_445
Si1 Si2 2.400367 1_545
Si1 Ta9 2.573170 1_555
Si1 Ta8 2.573170 1_445
Si1 Ta5 2.606642 1_555
Si1 Ta0 2.606642 1_555
Si1 Ta6 2.619152 1_545
Si1 Ta2 2.619152 1_555
Si1 Ta3 2.643115 1_545
Si1 Ta7 2.643115 1_555
Si2 Ta9 2.573170 1_554
Si2 Ta8 2.573170 1_556
Si2 Ta1 2.606642 1_555
Si2 Ta4 2.606642 1_555
Si2 Ta7 2.619151 1_565
Si2 Ta3 2.619152 1_555
Si2 Ta2 2.643115 1_565
Si2 Ta6 2.643115 1_555
Si3 Si4 2.400377 1_655
Si3 Ta8 2.573168 1_545
Si3 Ta9 2.573168 1_554
Si3 Ta7 2.606635 1_554
Si3 Ta2 2.606643 1_554
Si3 Ta5 2.619150 1_655
Si3 Ta1 2.619158 1_555
Si3 Ta4 2.643113 1_555
Si3 Ta0 2.643121 1_655
Si4 Ta8 2.573167 1_456
Si4 Ta9 2.573168 1_555
Si4 Ta3 2.606635 1_556
Si4 Ta6 2.606643 1_556
Si4 Ta0 2.619149 1_555
Si4 Ta4 2.619158 1_455
Si4 Ta1 2.643113 1_455
Si4 Ta5 2.643121 1_555
