# generated using pymatgen
data_Zr6Zn18BIr5
_symmetry_space_group_name_H-M   'P 1'
_cell_length_a   8.62147016
_cell_length_b   8.62146972
_cell_length_c   8.62147005
_cell_angle_alpha   59.93790148
_cell_angle_beta   59.93790682
_cell_angle_gamma   59.93790613
_symmetry_Int_Tables_number   1
_chemical_formula_structural   Zr6Zn18BIr5
_chemical_formula_sum   'Zr6 Zn18 B1 Ir5'
_cell_volume   452.49821515
_cell_formula_units_Z   1
loop_
 _symmetry_equiv_pos_site_id
 _symmetry_equiv_pos_as_xyz
  1  'x, y, z'
loop_
 _atom_site_type_symbol
 _atom_site_label
 _atom_site_symmetry_multiplicity
 _atom_site_fract_x
 _atom_site_fract_y
 _atom_site_fract_z
 _atom_site_occupancy
  Zr  Zr0  1  0.69652681  0.29714270  0.29714270  1
  Zr  Zr1  1  0.30347319  0.70285730  0.70285730  1
  Zr  Zr2  1  0.29714270  0.69652681  0.29714270  1
  Zr  Zr3  1  0.70285730  0.30347319  0.70285730  1
  Zr  Zr4  1  0.29714270  0.29714270  0.69652681  1
  Zr  Zr5  1  0.70285730  0.70285730  0.30347319  1
  Zn  Zn0  1  0.11862556  0.11862556  0.63777864  1
  Zn  Zn1  1  0.11862556  0.63777864  0.11862556  1
  Zn  Zn2  1  0.88137444  0.88137444  0.36222136  1
  Zn  Zn3  1  0.88137444  0.36222136  0.88137444  1
  Zn  Zn4  1  0.63777864  0.11862556  0.11862556  1
  Zn  Zn5  1  0.36222136  0.88137444  0.88137444  1
  Zn  Zn6  1  0.50000000  0.00000000  0.00000000  1
  Zn  Zn7  1  0.00000000  0.50000000  0.00000000  1
  Zn  Zn8  1  0.00000000  0.00000000  0.50000000  1
  Zn  Zn9  1  0.32997103  0.32997103  0.32997103  1
  Zn  Zn10  1  0.67002897  0.67002897  0.67002897  1
  Zn  Zn11  1  0.33009006  0.33009006  0.99843335  1
  Zn  Zn12  1  0.33009006  0.99843335  0.33009006  1
  Zn  Zn13  1  0.66990994  0.66990994  0.00156665  1
  Zn  Zn14  1  0.66990994  0.00156665  0.66990994  1
  Zn  Zn15  1  0.99843335  0.33009006  0.33009006  1
  Zn  Zn16  1  0.00156665  0.66990994  0.66990994  1
  Zn  Zn17  1  0.00000000  0.00000000  0.00000000  1
  B  B0  1  0.50000000  0.50000000  0.50000000  1
  Ir  Ir0  1  0.11854022  0.11854022  0.11854022  1
  Ir  Ir1  1  0.88145978  0.88145978  0.88145978  1
  Ir  Ir2  1  0.00000000  0.50000000  0.50000000  1
  Ir  Ir3  1  0.50000000  0.00000000  0.50000000  1
  Ir  Ir4  1  0.50000000  0.50000000  0.00000000  1
loop_
_geom_bond_atom_site_label_1
_geom_bond_atom_site_label_2
_geom_bond_distance
_geom_bond_site_symmetry_2
Zn0 Zn17 2.548051 1_556
Zn0 Zn8 2.642940 1_555
Zn0 Zn9 2.705527 1_555
Zn0 Zn15 2.729556 1_455
Zn0 Zn12 2.729556 1_545
Zn0 Zn5 2.969249 1_545
Zn0 Zn3 2.969249 1_455
Zn0 Zr1 2.976754 1_545
Zn0 Zr3 2.976754 1_455
Zn0 Zr4 2.988191 1_555
Zn1 Zn17 2.548051 1_565
Zn1 Zn7 2.642940 1_555
Zn1 Zn9 2.705527 1_555
Zn1 Zn15 2.729556 1_455
Zn1 Zn11 2.729556 1_554
Zn1 Zn5 2.969249 1_554
Zn1 Zn2 2.969249 1_455
Zn1 Zr1 2.976754 1_554
Zn1 Zr5 2.976754 1_455
Zn1 Zr2 2.988191 1_555
Zn2 Zn8 2.642940 1_665
Zn2 Zn4 2.969249 1_565
Zn2 Zr0 2.976754 1_565
Zn2 Zr2 2.976754 1_655
Zn2 Zr5 2.988191 1_555
Zn3 Zn7 2.642940 1_656
Zn3 Zn4 2.969249 1_556
Zn3 Zr0 2.976754 1_556
Zn3 Zr4 2.976754 1_655
Zn3 Zr3 2.988191 1_555
Zn4 Zn6 2.642940 1_555
Zn4 Zn9 2.705527 1_555
Zn4 Zr5 2.976754 1_545
Zn4 Zr3 2.976754 1_554
Zn4 Zr0 2.988191 1_555
Zn5 Zn6 2.642940 1_566
Zn5 Zr4 2.976754 1_565
Zn5 Zr2 2.976754 1_556
Zn5 Zr1 2.988191 1_555
Zn6 Zr3 3.138066 1_554
Zn6 Zr2 3.138066 1_545
Zn6 Zr5 3.138066 1_545
Zn6 Zr4 3.138066 1_554
Zn7 Zr1 3.138066 1_554
Zn7 Zr0 3.138066 1_455
Zn7 Zr5 3.138066 1_455
Zn7 Zr4 3.138066 1_554
Zn8 Zr1 3.138066 1_545
Zn8 Zr0 3.138066 1_455
Zn8 Zr3 3.138066 1_455
Zn8 Zr2 3.138066 1_545
Zn10 Zn3 2.705527 1_555
Zn10 Zn2 2.705527 1_555
Zn10 Zn5 2.705527 1_555
Zn10 Zn14 2.857314 1_565
Zn10 Zn13 2.857314 1_556
Zn10 Zn16 2.857315 1_655
Zn11 Zn6 2.459599 1_556
Zn11 Zn7 2.459599 1_556
Zn11 Zn4 2.729556 1_556
Zn11 Zn12 2.856684 1_546
Zn11 Zn15 2.856684 1_456
Zn11 Zn9 2.857314 1_556
Zn11 Zr4 2.915250 1_555
Zn11 Zr1 2.918374 1_555
Zn11 Zr3 2.918375 1_555
Zn12 Zn6 2.459599 1_565
Zn12 Zn8 2.459599 1_565
Zn12 Zn4 2.729556 1_565
Zn12 Zn15 2.856684 1_465
Zn12 Zn9 2.857314 1_565
Zn12 Zr2 2.915250 1_555
Zn12 Zr1 2.918375 1_555
Zn12 Zr5 2.918375 1_555
Zn13 Zn6 2.459599 1_565
Zn13 Zn7 2.459599 1_655
Zn13 Zn5 2.729556 1_554
Zn13 Zn3 2.729556 1_554
Zn13 Zn14 2.856684 1_564
Zn13 Zn16 2.856684 1_654
Zn13 Zr5 2.915250 1_555
Zn13 Zr0 2.918374 1_555
Zn13 Zr2 2.918375 1_555
Zn14 Zn6 2.459599 1_556
Zn14 Zn8 2.459599 1_655
Zn14 Zn5 2.729556 1_545
Zn14 Zn2 2.729556 1_545
Zn14 Zn16 2.856684 1_645
Zn14 Zr3 2.915250 1_555
Zn14 Zr0 2.918375 1_555
Zn14 Zr4 2.918375 1_555
Zn15 Zn8 2.459599 1_655
Zn15 Zn7 2.459599 1_655
Zn15 Zn9 2.857315 1_655
Zn15 Zr0 2.915250 1_555
Zn15 Zr5 2.918375 1_555
Zn15 Zr3 2.918375 1_555
Zn16 Zn8 2.459599 1_565
Zn16 Zn7 2.459599 1_556
Zn16 Zn3 2.729556 1_455
Zn16 Zn2 2.729556 1_455
Zn16 Zr1 2.915250 1_555
Zn16 Zr4 2.918375 1_555
Zn16 Zr2 2.918375 1_555
Zn17 Zn3 2.548051 1_454
Zn17 Zn2 2.548051 1_445
Zn17 Zn5 2.548051 1_544
Zn17 Zn4 2.548051 1_455
B0 Zr5 2.472872 1_555
B0 Zr4 2.472872 1_555
B0 Zr3 2.472872 1_555
B0 Zr2 2.472872 1_555
B0 Zr1 2.472872 1_555
B0 Zr0 2.472872 1_555
Ir0 Zn17 2.504530 1_555
Ir0 Zn7 2.686344 1_555
Ir0 Zn8 2.686344 1_555
Ir0 Zn6 2.686345 1_555
Ir0 Zn11 2.696979 1_554
Ir0 Zn12 2.696979 1_545
Ir0 Zn15 2.696979 1_455
Ir0 Zn2 2.890782 1_445
Ir0 Zn3 2.890782 1_454
Ir0 Zn5 2.890782 1_544
Ir0 Zr2 3.021497 1_545
Ir0 Zr4 3.021497 1_554
Ir0 Zr0 3.021497 1_455
Ir1 Zn17 2.504530 1_666
Ir1 Zn7 2.686344 1_656
Ir1 Zn8 2.686344 1_665
Ir1 Zn6 2.686345 1_566
Ir1 Zn13 2.696979 1_556
Ir1 Zn14 2.696979 1_565
Ir1 Zn16 2.696979 1_655
Ir1 Zn0 2.890782 1_665
Ir1 Zn1 2.890782 1_656
Ir1 Zn4 2.890782 1_566
Ir1 Zr3 3.021497 1_565
Ir1 Zr5 3.021497 1_556
Ir1 Zr1 3.021497 1_655
Ir2 Zn10 2.487482 1_455
Ir2 Zn9 2.487482 1_555
Ir2 Zn16 2.545863 1_555
Ir2 Zn15 2.545863 1_455
Ir2 Zn0 2.683849 1_555
Ir2 Zn2 2.683849 1_455
Ir2 Zn3 2.683849 1_455
Ir2 Zn1 2.683849 1_555
Ir2 Zr2 3.063248 1_555
Ir2 Zr3 3.063248 1_455
Ir2 Zr4 3.063248 1_555
Ir2 Zr5 3.063248 1_455
Ir3 Zn10 2.487482 1_545
Ir3 Zn9 2.487482 1_555
Ir3 Zn14 2.545863 1_555
Ir3 Zn12 2.545863 1_545
Ir3 Zn5 2.683850 1_545
Ir3 Zn4 2.683850 1_555
Ir3 Zn2 2.683850 1_545
Ir3 Zn0 2.683850 1_555
Ir3 Zr0 3.063248 1_555
Ir3 Zr1 3.063248 1_545
Ir3 Zr4 3.063248 1_555
Ir3 Zr5 3.063248 1_545
Ir4 Zn10 2.487482 1_554
Ir4 Zn9 2.487482 1_555
Ir4 Zn13 2.545863 1_555
Ir4 Zn11 2.545863 1_554
Ir4 Zn5 2.683849 1_554
Ir4 Zn4 2.683849 1_555
Ir4 Zn3 2.683850 1_554
Ir4 Zn1 2.683850 1_555
Ir4 Zr0 3.063248 1_555
Ir4 Zr1 3.063248 1_554
Ir4 Zr2 3.063248 1_555
Ir4 Zr3 3.063248 1_554
