# generated using pymatgen
data_BeSiIrRu
_symmetry_space_group_name_H-M   'P 1'
_cell_length_a   4.04050319
_cell_length_b   4.04050377
_cell_length_c   4.04050423
_cell_angle_alpha   60.00001234
_cell_angle_beta   60.00000754
_cell_angle_gamma   60.00000518
_symmetry_Int_Tables_number   1
_chemical_formula_structural   BeSiIrRu
_chemical_formula_sum   'Be1 Si1 Ir1 Ru1'
_cell_volume   46.64355250
_cell_formula_units_Z   1
loop_
 _symmetry_equiv_pos_site_id
 _symmetry_equiv_pos_as_xyz
  1  'x, y, z'
loop_
 _atom_site_type_symbol
 _atom_site_label
 _atom_site_symmetry_multiplicity
 _atom_site_fract_x
 _atom_site_fract_y
 _atom_site_fract_z
 _atom_site_occupancy
  Be  Be0  1  0.50000000  0.50000000  0.50000000  1
  Si  Si0  1  0.00000000  0.00000000  0.00000000  1
  Ir  Ir0  1  0.75000000  0.75000000  0.75000000  1
  Ru  Ru0  1  0.25000000  0.25000000  0.25000000  1
loop_
_geom_bond_atom_site_label_1
_geom_bond_atom_site_label_2
_geom_bond_distance
_geom_bond_site_symmetry_2
Be0 Ir0 2.474293 1_455
Be0 Ru0 2.474293 1_655
Be0 Ru0 2.474293 1_555
Be0 Ir0 2.474293 1_555
Be0 Ir0 2.474293 1_545
Be0 Ru0 2.474293 1_565
Be0 Ir0 2.474294 1_554
Be0 Ru0 2.474294 1_556
Ir0 Si0 2.474293 1_566
Ir0 Si0 2.474293 1_666
Ir0 Si0 2.474293 1_656
Ir0 Si0 2.474294 1_665
Ru0 Si0 2.474293 1_655
Ru0 Si0 2.474293 1_555
Ru0 Si0 2.474293 1_565
Ru0 Si0 2.474294 1_556
