# generated using pymatgen
data_Cs2Na2SiSe4
_symmetry_space_group_name_H-M   'P 1'
_cell_length_a   6.78601650
_cell_length_b   6.78601650
_cell_length_c   14.05028172
_cell_angle_alpha   90.00000000
_cell_angle_beta   90.00000000
_cell_angle_gamma   90.00000000
_symmetry_Int_Tables_number   1
_chemical_formula_structural   Cs2Na2SiSe4
_chemical_formula_sum   'Cs4 Na4 Si2 Se8'
_cell_volume   647.01575300
_cell_formula_units_Z   2
loop_
 _symmetry_equiv_pos_site_id
 _symmetry_equiv_pos_as_xyz
  1  'x, y, z'
loop_
 _atom_site_type_symbol
 _atom_site_label
 _atom_site_symmetry_multiplicity
 _atom_site_fract_x
 _atom_site_fract_y
 _atom_site_fract_z
 _atom_site_occupancy
  Cs  Cs0  1  0.74726709  0.74726709  0.00000000  1
  Cs  Cs1  1  0.25273291  0.74726709  0.50000000  1
  Cs  Cs2  1  0.74726709  0.25273291  0.50000000  1
  Cs  Cs3  1  0.25273291  0.25273291  0.00000000  1
  Na  Na0  1  0.00000000  0.50000000  0.75000000  1
  Na  Na1  1  0.50000000  0.00000000  0.75000000  1
  Na  Na2  1  0.00000000  0.50000000  0.25000000  1
  Na  Na3  1  0.50000000  0.00000000  0.25000000  1
  Si  Si0  1  0.50000000  0.50000000  0.75000000  1
  Si  Si1  1  0.50000000  0.50000000  0.25000000  1
  Se  Se0  1  0.69348283  0.69348283  0.65324029  1
  Se  Se1  1  0.30651717  0.30651717  0.65324029  1
  Se  Se2  1  0.69348283  0.69348283  0.34675971  1
  Se  Se3  1  0.69348283  0.30651717  0.15324029  1
  Se  Se4  1  0.30651717  0.69348283  0.84675971  1
  Se  Se5  1  0.30651717  0.30651717  0.34675971  1
  Se  Se6  1  0.30651717  0.69348283  0.15324029  1
  Se  Se7  1  0.69348283  0.30651717  0.84675971  1
loop_
_geom_bond_atom_site_label_1
_geom_bond_atom_site_label_2
_geom_bond_distance
_geom_bond_site_symmetry_2
Cs0 Se6 3.703325 1_555
Cs0 Se3 3.703325 1_555
Cs0 Se4 3.703325 1_554
Cs0 Se7 3.703325 1_554
Cs1 Se1 3.703325 1_555
Cs1 Se0 3.703325 1_555
Cs1 Se5 3.703325 1_555
Cs1 Se2 3.703325 1_555
Cs2 Se1 3.703325 1_555
Cs2 Se0 3.703325 1_555
Cs2 Se5 3.703325 1_555
Cs2 Se2 3.703325 1_555
Cs3 Se6 3.703325 1_555
Cs3 Se3 3.703325 1_555
Cs3 Se4 3.703325 1_554
Cs3 Se7 3.703325 1_554
Na0 Se4 2.810459 1_555
Na0 Se7 2.810459 1_455
Na0 Se1 2.810459 1_555
Na0 Se0 2.810459 1_455
Na1 Se7 2.810459 1_555
Na1 Se4 2.810459 1_545
Na1 Se1 2.810459 1_555
Na1 Se0 2.810459 1_545
Na2 Se5 2.810459 1_555
Na2 Se2 2.810459 1_455
Na2 Se6 2.810459 1_555
Na2 Se3 2.810459 1_455
Na3 Se5 2.810459 1_555
Na3 Se2 2.810459 1_545
Na3 Se3 2.810459 1_555
Na3 Se6 2.810459 1_545
Se0 Si0 2.301318 1_555
Se1 Si0 2.301318 1_555
Se2 Si1 2.301318 1_555
Se3 Si1 2.301318 1_555
Se4 Si0 2.301318 1_555
Se5 Si1 2.301318 1_555
Se6 Si1 2.301318 1_555
Se7 Si0 2.301318 1_555
