# generated using pymatgen
data_AlCd2AgS4
_symmetry_space_group_name_H-M   'P 1'
_cell_length_a   6.62551511
_cell_length_b   6.91367368
_cell_length_c   8.15062970
_cell_angle_alpha   90.00000000
_cell_angle_beta   90.00000000
_cell_angle_gamma   90.00000000
_symmetry_Int_Tables_number   1
_chemical_formula_structural   AlCd2AgS4
_chemical_formula_sum   'Al2 Cd4 Ag2 S8'
_cell_volume   373.35303748
_cell_formula_units_Z   2
loop_
 _symmetry_equiv_pos_site_id
 _symmetry_equiv_pos_as_xyz
  1  'x, y, z'
loop_
 _atom_site_type_symbol
 _atom_site_label
 _atom_site_symmetry_multiplicity
 _atom_site_fract_x
 _atom_site_fract_y
 _atom_site_fract_z
 _atom_site_occupancy
  Al  Al0  1  0.49099079  0.67657171  0.50000000  1
  Al  Al1  1  0.99099079  0.32342829  0.00000000  1
  Cd  Cd0  1  0.48682485  0.17538650  0.25270063  1
  Cd  Cd1  1  0.98682485  0.82461350  0.75270063  1
  Cd  Cd2  1  0.48682485  0.17538650  0.74729937  1
  Cd  Cd3  1  0.98682485  0.82461350  0.24729937  1
  Ag  Ag0  1  0.99022097  0.34155915  0.50000000  1
  Ag  Ag1  1  0.49022097  0.65844085  0.00000000  1
  S  S0  1  0.10478475  0.63102874  0.00000000  1
  S  S1  1  0.60478475  0.36897126  0.50000000  1
  S  S2  1  0.15067430  0.68038289  0.50000000  1
  S  S3  1  0.65067430  0.31961711  0.00000000  1
  S  S4  1  0.60271925  0.82348098  0.26954287  1
  S  S5  1  0.10271925  0.17651902  0.76954287  1
  S  S6  1  0.10271925  0.17651902  0.23045713  1
  S  S7  1  0.60271925  0.82348098  0.73045713  1
loop_
_geom_bond_atom_site_label_1
_geom_bond_atom_site_label_2
_geom_bond_distance
_geom_bond_site_symmetry_2
Al0 S2 2.254926 1_555
Al0 S1 2.256339 1_555
Al0 S7 2.260060 1_555
Al0 S4 2.260060 1_555
Al1 S3 2.254926 1_555
Al1 S0 2.256339 1_655
Al1 S6 2.260060 1_655
Al1 S5 2.260060 1_654
Cd0 S3 2.532799 1_555
Cd0 S1 2.542618 1_555
Cd0 S6 2.551359 1_555
Cd0 S4 2.554946 1_545
Cd1 S2 2.532799 1_655
Cd1 S0 2.542618 1_656
Cd1 S7 2.551359 1_555
Cd1 S5 2.554946 1_665
Cd2 S3 2.532799 1_556
Cd2 S1 2.542618 1_555
Cd2 S5 2.551359 1_555
Cd2 S7 2.554946 1_545
Cd3 S2 2.532799 1_655
Cd3 S0 2.542618 1_655
Cd3 S4 2.551359 1_555
Cd3 S6 2.554946 1_665
Ag0 S1 2.560736 1_555
Ag0 S2 2.572457 1_655
Ag0 S5 2.585359 1_655
Ag0 S6 2.585359 1_655
Ag1 S0 2.560736 1_555
Ag1 S3 2.572457 1_555
Ag1 S4 2.585359 1_555
Ag1 S7 2.585359 1_554
