# generated using pymatgen
data_Li4B4RuRh3
_symmetry_space_group_name_H-M   'P 1'
_cell_length_a   6.85335520
_cell_length_b   5.98559025
_cell_length_c   5.50419028
_cell_angle_alpha   73.09992376
_cell_angle_beta   56.68490579
_cell_angle_gamma   50.22913191
_symmetry_Int_Tables_number   1
_chemical_formula_structural   Li4B4RuRh3
_chemical_formula_sum   'Li4 B4 Ru1 Rh3'
_cell_volume   144.37590955
_cell_formula_units_Z   1
loop_
 _symmetry_equiv_pos_site_id
 _symmetry_equiv_pos_as_xyz
  1  'x, y, z'
loop_
 _atom_site_type_symbol
 _atom_site_label
 _atom_site_symmetry_multiplicity
 _atom_site_fract_x
 _atom_site_fract_y
 _atom_site_fract_z
 _atom_site_occupancy
  Li  Li0  1  0.12496408  0.62318532  0.62664001  1
  Li  Li1  1  0.61928220  0.62831496  0.62555725  1
  Li  Li2  1  0.62831496  0.61928220  0.12684559  1
  Li  Li3  1  0.62318532  0.12496408  0.62521060  1
  B  B0  1  0.42615536  0.06801462  0.42083691  1
  B  B1  1  0.18365443  0.82218949  0.17498360  1
  B  B2  1  0.06801462  0.42615536  0.08499210  1
  B  B3  1  0.82218949  0.18365443  0.81917248  1
  Ru  Ru0  1  0.11626291  0.11626291  0.38373709  1
  Rh  Rh0  1  0.38477680  0.38477680  0.11522320  1
  Rh  Rh1  1  0.86803065  0.86803065  0.13196935  1
  Rh  Rh2  1  0.13517019  0.13517019  0.86482981  1
loop_
_geom_bond_atom_site_label_1
_geom_bond_atom_site_label_2
_geom_bond_distance
_geom_bond_site_symmetry_2
Li0 Rh1 2.583213 1_456
Li0 Rh0 2.590247 1_555
Li0 Rh2 2.805184 1_555
Li1 Rh2 2.567332 1_565
Li1 Ru0 2.608044 1_655
Li2 Rh2 2.567332 1_654
Li2 Ru0 2.608044 1_565
Li3 Rh1 2.583213 1_545
Li3 Rh0 2.590247 1_556
Li3 Rh2 2.805185 1_555
B0 Ru0 2.071961 1_555
B0 Rh2 2.074318 1_555
B0 Rh1 2.076321 1_545
B0 Rh0 2.118178 1_555
B0 Li1 2.324965 1_545
B0 Li3 2.384412 1_555
B0 Li2 2.656192 1_545
B0 Li0 2.725889 1_555
B1 Ru0 2.045650 1_565
B1 Rh0 2.061153 1_555
B1 Rh2 2.121688 1_564
B1 Rh1 2.139086 1_455
B1 Li2 2.323091 1_555
B1 Li0 2.356642 1_555
B1 Li1 2.663697 1_554
B1 Li3 2.725454 1_465
B2 Ru0 2.071964 1_555
B2 Rh2 2.074313 1_554
B2 Rh1 2.076321 1_455
B2 Rh0 2.118181 1_555
B2 Li2 2.324963 1_455
B2 Li0 2.384407 1_554
B2 Li1 2.656196 1_455
B2 Li3 2.725888 1_554
B3 Ru0 2.045651 1_655
B3 Rh0 2.061154 1_556
B3 Rh2 2.121689 1_655
B3 Rh1 2.139086 1_546
B3 Li1 2.323090 1_555
B3 Li3 2.356642 1_555
B3 Li2 2.663697 1_556
B3 Li0 2.725453 1_645
