# generated using pymatgen
data_KBaHg3Bi
_symmetry_space_group_name_H-M   'P 1'
_cell_length_a   6.75355269
_cell_length_b   6.59755220
_cell_length_c   6.59755257
_cell_angle_alpha   132.94222862
_cell_angle_beta   104.10122055
_cell_angle_gamma   93.88425821
_symmetry_Int_Tables_number   1
_chemical_formula_structural   KBaHg3Bi
_chemical_formula_sum   'K1 Ba1 Hg3 Bi1'
_cell_volume   197.07813750
_cell_formula_units_Z   1
loop_
 _symmetry_equiv_pos_site_id
 _symmetry_equiv_pos_as_xyz
  1  'x, y, z'
loop_
 _atom_site_type_symbol
 _atom_site_label
 _atom_site_symmetry_multiplicity
 _atom_site_fract_x
 _atom_site_fract_y
 _atom_site_fract_z
 _atom_site_occupancy
  K  K0  1  0.28435152  0.03803021  0.24632230  1
  Ba  Ba0  1  0.71851754  0.96538681  0.75313173  1
  Hg  Hg0  1  0.73245673  0.67457785  0.05787988  1
  Hg  Hg1  1  0.87296454  0.32862417  0.54434037  1
  Hg  Hg2  1  0.09650238  0.65253980  0.44396257  1
  Bi  Bi0  1  0.29520630  0.34084016  0.95436414  1
loop_
_geom_bond_atom_site_label_1
_geom_bond_atom_site_label_2
_geom_bond_distance
_geom_bond_site_symmetry_2
Ba0 Hg2 3.528733 1_666
Ba0 Hg2 3.528737 1_655
Ba0 Hg0 3.594544 1_556
Ba0 Hg0 3.601941 1_566
Ba0 Hg0 3.601942 1_555
Ba0 Hg1 3.686193 1_565
Ba0 Hg1 3.747451 1_566
Ba0 Hg1 3.747455 1_555
Ba0 Bi0 3.794678 1_565
Ba0 Bi0 3.794689 1_554
Ba0 Bi0 3.841835 1_665
Ba0 Hg2 3.870569 1_555
Hg0 Hg1 2.985412 1_565
Hg0 Hg1 2.985417 1_554
Hg0 Hg2 3.171054 1_655
Hg0 K0 3.695561 1_665
Hg0 K0 3.899828 1_565
Hg0 K0 3.899828 1_554
Hg1 Hg2 3.043527 1_655
Hg1 K0 3.656062 1_555
Hg1 K0 3.675324 1_655
Hg1 K0 3.675328 1_666
Hg2 K0 3.747889 1_555
Hg2 K0 3.747893 1_566
Hg2 K0 3.829561 1_565
Bi0 Hg2 3.146266 1_545
Bi0 Hg2 3.146275 1_556
Bi0 Hg0 3.181545 1_556
Bi0 Hg1 3.371809 1_455
Bi0 K0 3.593842 1_555
Bi0 K0 3.593854 1_566
Bi0 K0 3.605424 1_556
