# generated using pymatgen
data_BaSr4(AuO4)2
_symmetry_space_group_name_H-M   'P 1'
_cell_length_a   6.83336114
_cell_length_b   6.83336164
_cell_length_c   6.83336150
_cell_angle_alpha   103.47986554
_cell_angle_beta   103.47986670
_cell_angle_gamma   122.26206905
_symmetry_Int_Tables_number   1
_chemical_formula_structural   BaSr4(AuO4)2
_chemical_formula_sum   'Ba1 Sr4 Au2 O8'
_cell_volume   236.28948586
_cell_formula_units_Z   1
loop_
 _symmetry_equiv_pos_site_id
 _symmetry_equiv_pos_as_xyz
  1  'x, y, z'
loop_
 _atom_site_type_symbol
 _atom_site_label
 _atom_site_symmetry_multiplicity
 _atom_site_fract_x
 _atom_site_fract_y
 _atom_site_fract_z
 _atom_site_occupancy
  Ba  Ba0  1  0.00000000  0.00000000  0.00000000  1
  Sr  Sr0  1  0.27865753  0.27865753  0.55731506  1
  Sr  Sr1  1  0.72134247  0.72134247  0.44268494  1
  Sr  Sr2  1  0.72134247  0.27865753  0.00000000  1
  Sr  Sr3  1  0.27865753  0.72134247  1.00000000  1
  Au  Au0  1  0.25000000  0.75000000  0.50000000  1
  Au  Au1  1  0.75000000  0.25000000  0.50000000  1
  O  O0  1  0.49584199  0.75631167  0.73953032  1
  O  O1  1  0.01678135  0.75631167  0.26046968  1
  O  O2  1  0.24368833  0.50415801  0.26046968  1
  O  O3  1  0.24368833  0.98321865  0.73953032  1
  O  O4  1  0.75631167  0.49584199  0.73953032  1
  O  O5  1  0.75631167  0.01678135  0.26046968  1
  O  O6  1  0.50415801  0.24368833  0.26046968  1
  O  O7  1  0.98321865  0.24368833  0.73953032  1
loop_
_geom_bond_atom_site_label_1
_geom_bond_atom_site_label_2
_geom_bond_distance
_geom_bond_site_symmetry_2
Ba0 O6 2.728470 1_555
Ba0 O0 2.728470 1_444
Ba0 O5 2.728470 1_455
Ba0 O3 2.728470 1_544
Ba0 O1 2.728470 1_545
Ba0 O7 2.728470 1_454
Ba0 O2 2.728470 1_555
Ba0 O4 2.728470 1_444
Au0 O0 2.027542 1_555
Au0 O1 2.027542 1_555
Au0 O3 2.027542 1_555
Au0 O2 2.027542 1_555
Au1 O6 2.027542 1_555
Au1 O7 2.027542 1_555
Au1 O5 2.027542 1_555
Au1 O4 2.027542 1_555
O0 Sr3 2.545352 1_555
O0 Sr0 2.545352 1_555
O0 Sr1 2.858412 1_555
O0 Sr2 2.858412 1_566
O1 Sr1 2.545352 1_455
O1 Sr2 2.545352 1_455
O1 Sr3 2.858412 1_554
O1 Sr0 2.858412 1_565
O2 Sr1 2.545352 1_555
O2 Sr3 2.545352 1_554
O2 Sr2 2.858412 1_455
O2 Sr0 2.858412 1_555
O3 Sr2 2.545352 1_566
O3 Sr0 2.545352 1_565
O3 Sr1 2.858412 1_455
O3 Sr3 2.858412 1_555
O4 Sr0 2.545352 1_555
O4 Sr2 2.545352 1_556
O4 Sr3 2.858412 1_655
O4 Sr1 2.858412 1_555
O5 Sr3 2.545352 1_544
O5 Sr1 2.545352 1_545
O5 Sr0 2.858412 1_655
O5 Sr2 2.858412 1_555
O6 Sr2 2.545352 1_555
O6 Sr1 2.545352 1_555
O6 Sr0 2.858412 1_555
O6 Sr3 2.858412 1_544
O7 Sr0 2.545352 1_655
O7 Sr3 2.545352 1_655
O7 Sr2 2.858412 1_556
O7 Sr1 2.858412 1_545
