# generated using pymatgen
data_Cd4Ir3OsO14
_symmetry_space_group_name_H-M   'P 1'
_cell_length_a   7.16974323
_cell_length_b   7.16974314
_cell_length_c   7.21709792
_cell_angle_alpha   60.21681108
_cell_angle_beta   60.21681400
_cell_angle_gamma   60.00000001
_symmetry_Int_Tables_number   1
_chemical_formula_structural   Cd4Ir3OsO14
_chemical_formula_sum   'Cd4 Ir3 Os1 O14'
_cell_volume   263.19054811
_cell_formula_units_Z   1
loop_
 _symmetry_equiv_pos_site_id
 _symmetry_equiv_pos_as_xyz
  1  'x, y, z'
loop_
 _atom_site_type_symbol
 _atom_site_label
 _atom_site_symmetry_multiplicity
 _atom_site_fract_x
 _atom_site_fract_y
 _atom_site_fract_z
 _atom_site_occupancy
  Cd  Cd0  1  0.12500000  0.12500000  0.12500000  1
  Cd  Cd1  1  0.62500000  0.12500000  0.12500000  1
  Cd  Cd2  1  0.12500000  0.62500000  0.12500000  1
  Cd  Cd3  1  0.12500000  0.12500000  0.62500000  1
  Ir  Ir0  1  0.62500000  0.62500000  0.62500000  1
  Ir  Ir1  1  0.12500000  0.62500000  0.62500000  1
  Ir  Ir2  1  0.62500000  0.12500000  0.62500000  1
  Os  Os0  1  0.62500000  0.62500000  0.12500000  1
  O  O0  1  0.25015381  0.25015381  0.24953956  1
  O  O1  1  0.99984619  0.99984619  0.00046044  1
  O  O2  1  0.55496737  0.95275334  0.53952594  1
  O  O3  1  0.30895746  0.69427225  0.30249703  1
  O  O4  1  0.55572775  0.55572775  0.94750297  1
  O  O5  1  0.95275334  0.55496737  0.53952594  1
  O  O6  1  0.55572775  0.94104254  0.94750297  1
  O  O7  1  0.95275334  0.95275334  0.53952594  1
  O  O8  1  0.94104254  0.55572775  0.94750297  1
  O  O9  1  0.69427225  0.30895746  0.30249703  1
  O  O10  1  0.29724666  0.69503263  0.71047406  1
  O  O11  1  0.69503263  0.29724666  0.71047406  1
  O  O12  1  0.29724666  0.29724666  0.71047406  1
  O  O13  1  0.69427225  0.69427225  0.30249703  1
loop_
_geom_bond_atom_site_label_1
_geom_bond_atom_site_label_2
_geom_bond_distance
_geom_bond_site_symmetry_2
Cd0 O0 2.196790 1_555
Cd0 O1 2.196790 1_445
Cd0 O7 2.486923 1_445
Cd0 O12 2.486923 1_554
Cd0 O8 2.567658 1_454
Cd0 O3 2.567658 1_545
Cd0 O6 2.567658 1_544
Cd0 O9 2.567658 1_455
Cd1 O0 2.196784 1_555
Cd1 O1 2.196784 1_545
Cd1 O2 2.486923 1_545
Cd1 O11 2.486923 1_554
Cd1 O9 2.567653 1_555
Cd1 O6 2.567653 1_544
Cd1 O4 2.567659 1_554
Cd1 O13 2.567659 1_545
Cd2 O1 2.196784 1_455
Cd2 O0 2.196784 1_555
Cd2 O5 2.486923 1_455
Cd2 O10 2.486923 1_554
Cd2 O3 2.567653 1_555
Cd2 O8 2.567653 1_454
Cd2 O4 2.567659 1_554
Cd2 O13 2.567659 1_455
Cd3 O1 2.219712 1_446
Cd3 O0 2.219712 1_555
Cd3 O5 2.543538 1_455
Cd3 O10 2.543538 1_545
Cd3 O2 2.543538 1_545
Cd3 O11 2.543538 1_455
Cd3 O12 2.543538 1_555
Cd3 O7 2.543538 1_445
Ir0 O2 1.960208 1_555
Ir0 O11 1.960208 1_555
Ir0 O5 1.960208 1_555
Ir0 O10 1.960208 1_555
Ir0 O4 1.964844 1_555
Ir0 O13 1.964844 1_555
Ir1 O7 1.960208 1_455
Ir1 O12 1.960208 1_555
Ir1 O10 1.960208 1_555
Ir1 O5 1.960208 1_455
Ir1 O8 1.964842 1_455
Ir1 O3 1.964842 1_555
Ir2 O7 1.960208 1_545
Ir2 O12 1.960208 1_555
Ir2 O11 1.960208 1_555
Ir2 O2 1.960208 1_545
Ir2 O6 1.964842 1_545
Ir2 O9 1.964842 1_555
O3 Os0 1.909230 1_555
O4 Os0 1.909225 1_556
O6 Os0 1.909230 1_556
O8 Os0 1.909230 1_556
O9 Os0 1.909230 1_555
O13 Os0 1.909225 1_555
