# generated using pymatgen
data_Cs2V3GaF12
_symmetry_space_group_name_H-M   'P 1'
_cell_length_a   7.39410083
_cell_length_b   7.39410112
_cell_length_c   7.39410130
_cell_angle_alpha   59.86667110
_cell_angle_beta   59.86666987
_cell_angle_gamma   59.86666381
_symmetry_Int_Tables_number   1
_chemical_formula_structural   Cs2V3GaF12
_chemical_formula_sum   'Cs2 V3 Ga1 F12'
_cell_volume   284.98710318
_cell_formula_units_Z   1
loop_
 _symmetry_equiv_pos_site_id
 _symmetry_equiv_pos_as_xyz
  1  'x, y, z'
loop_
 _atom_site_type_symbol
 _atom_site_label
 _atom_site_symmetry_multiplicity
 _atom_site_fract_x
 _atom_site_fract_y
 _atom_site_fract_z
 _atom_site_occupancy
  Cs  Cs0  1  0.37257055  0.37257055  0.37257055  1
  Cs  Cs1  1  0.62742945  0.62742945  0.62742945  1
  V  V0  1  0.50000000  0.00000000  0.00000000  1
  V  V1  1  0.00000000  0.00000000  0.50000000  1
  V  V2  1  0.00000000  0.50000000  0.00000000  1
  Ga  Ga0  1  0.00000000  0.00000000  0.00000000  1
  F  F0  1  0.93686309  0.32444136  0.32444136  1
  F  F1  1  0.30418785  0.93484496  0.93484496  1
  F  F2  1  0.32444136  0.32444136  0.93686309  1
  F  F3  1  0.93484496  0.93484496  0.30418785  1
  F  F4  1  0.93484496  0.30418785  0.93484496  1
  F  F5  1  0.32444136  0.93686309  0.32444136  1
  F  F6  1  0.06313691  0.67555864  0.67555864  1
  F  F7  1  0.69581215  0.06515504  0.06515504  1
  F  F8  1  0.67555864  0.67555864  0.06313691  1
  F  F9  1  0.06515504  0.06515504  0.69581215  1
  F  F10  1  0.06515504  0.69581215  0.06515504  1
  F  F11  1  0.67555864  0.06313691  0.67555864  1
loop_
_geom_bond_atom_site_label_1
_geom_bond_atom_site_label_2
_geom_bond_distance
_geom_bond_site_symmetry_2
Cs0 F11 3.165328 1_555
Cs0 F6 3.165328 1_555
Cs0 F8 3.165329 1_555
Cs0 F7 3.213153 1_555
Cs0 F10 3.213153 1_555
Cs0 F9 3.213154 1_555
Cs1 F5 3.165328 1_555
Cs1 F0 3.165328 1_555
Cs1 F2 3.165329 1_555
Cs1 F1 3.213153 1_555
Cs1 F4 3.213153 1_555
Cs1 F3 3.213154 1_555
F0 V1 2.003836 1_655
F0 V2 2.003836 1_655
F1 Ga0 1.892146 1_566
F1 V0 2.047967 1_566
F2 V2 2.003836 1_556
F2 V0 2.003836 1_556
F3 Ga0 1.892146 1_665
F3 V1 2.047967 1_665
F4 Ga0 1.892146 1_656
F4 V2 2.047967 1_656
F5 V1 2.003836 1_565
F5 V0 2.003836 1_565
F6 V1 2.003836 1_565
F6 V2 2.003836 1_556
F7 Ga0 1.892146 1_655
F7 V0 2.047967 1_555
F8 V2 2.003836 1_655
F8 V0 2.003836 1_565
F9 Ga0 1.892146 1_556
F9 V1 2.047967 1_555
F10 Ga0 1.892146 1_565
F10 V2 2.047967 1_555
F11 V1 2.003836 1_655
F11 V0 2.003836 1_556
