# generated using pymatgen
data_Nb2I3BrO2
_symmetry_space_group_name_H-M   'P 1'
_cell_length_a   7.94009113
_cell_length_b   7.95389821
_cell_length_c   7.48045360
_cell_angle_alpha   76.05562448
_cell_angle_beta   76.01576394
_cell_angle_gamma   28.67912418
_symmetry_Int_Tables_number   1
_chemical_formula_structural   Nb2I3BrO2
_chemical_formula_sum   'Nb2 I3 Br1 O2'
_cell_volume   219.57330670
_cell_formula_units_Z   1
loop_
 _symmetry_equiv_pos_site_id
 _symmetry_equiv_pos_as_xyz
  1  'x, y, z'
loop_
 _atom_site_type_symbol
 _atom_site_label
 _atom_site_symmetry_multiplicity
 _atom_site_fract_x
 _atom_site_fract_y
 _atom_site_fract_z
 _atom_site_occupancy
  Nb  Nb0  1  0.01921574  0.98321294  0.79301282  1
  Nb  Nb1  1  0.01890065  0.98401937  0.20557625  1
  I  I0  1  0.11238377  0.14776844  0.43384638  1
  I  I1  1  0.85307847  0.89696435  0.56392599  1
  I  I2  1  0.82847412  0.86454811  0.07887722  1
  Br  Br0  1  0.12619820  0.15814065  0.92630981  1
  O  O0  1  0.49032644  0.51293440  0.78757574  1
  O  O1  1  0.49028562  0.51354974  0.21087579  1
loop_
_geom_bond_atom_site_label_1
_geom_bond_atom_site_label_2
_geom_bond_distance
_geom_bond_site_symmetry_2
Nb0 O0 1.853247 1_555
Nb0 O0 2.084007 1_465
Nb1 O1 1.854254 1_555
Nb1 O1 2.083099 1_465
I0 Nb0 2.919307 1_545
I0 Nb1 2.922989 1_545
I1 Nb0 2.897318 1_655
I1 Nb1 2.897932 1_655
I2 Nb0 2.779839 1_654
I2 Nb1 2.781213 1_655
Br0 Nb0 2.608352 1_545
Br0 Nb1 2.612222 1_546
