# generated using pymatgen
data_RbAlSbH
_symmetry_space_group_name_H-M   'P 1'
_cell_length_a   4.43336252
_cell_length_b   4.43336190
_cell_length_c   6.32810624
_cell_angle_alpha   90.00000000
_cell_angle_beta   90.00000000
_cell_angle_gamma   119.99999729
_symmetry_Int_Tables_number   1
_chemical_formula_structural   RbAlSbH
_chemical_formula_sum   'Rb1 Al1 Sb1 H1'
_cell_volume   107.71367288
_cell_formula_units_Z   1
loop_
 _symmetry_equiv_pos_site_id
 _symmetry_equiv_pos_as_xyz
  1  'x, y, z'
loop_
 _atom_site_type_symbol
 _atom_site_label
 _atom_site_symmetry_multiplicity
 _atom_site_fract_x
 _atom_site_fract_y
 _atom_site_fract_z
 _atom_site_occupancy
  Rb  Rb0  1  0.00000000  0.00000000  0.00427663  1
  Al  Al0  1  0.66666700  0.33333300  0.57603800  1
  Sb  Sb0  1  0.33333300  0.66666700  0.44050694  1
  H  H0  1  0.66666700  0.33333300  0.83627843  1
loop_
_geom_bond_atom_site_label_1
_geom_bond_atom_site_label_2
_geom_bond_distance
_geom_bond_site_symmetry_2
Rb0 Sb0 3.764569 1_545
Rb0 Sb0 3.764571 1_555
Rb0 Sb0 3.764572 1_445
Al0 H0 1.646829 1_555
Al0 Sb0 2.699468 1_545
Al0 Sb0 2.699468 1_655
Al0 Sb0 2.699475 1_555
H0 Rb0 2.771598 1_656
H0 Rb0 2.771602 1_666
H0 Rb0 2.771602 1_556
