# generated using pymatgen
data_Nb3Tc2Ge3Rh
_symmetry_space_group_name_H-M   'P 1'
_cell_length_a   6.66453727
_cell_length_b   7.46223879
_cell_length_c   7.57135721
_cell_angle_alpha   119.52438275
_cell_angle_beta   116.11122247
_cell_angle_gamma   89.99999543
_symmetry_Int_Tables_number   1
_chemical_formula_structural   Nb3Tc2Ge3Rh
_chemical_formula_sum   'Nb6 Tc4 Ge6 Rh2'
_cell_volume   282.64525809
_cell_formula_units_Z   2
loop_
 _symmetry_equiv_pos_site_id
 _symmetry_equiv_pos_as_xyz
  1  'x, y, z'
loop_
 _atom_site_type_symbol
 _atom_site_label
 _atom_site_symmetry_multiplicity
 _atom_site_fract_x
 _atom_site_fract_y
 _atom_site_fract_z
 _atom_site_occupancy
  Nb  Nb0  1  0.89665536  0.95210449  0.40420799  1
  Nb  Nb1  1  0.49244737  0.04789551  0.59579201  1
  Nb  Nb2  1  0.50036589  0.51240459  0.52480818  1
  Nb  Nb3  1  0.97555772  0.48759541  0.47519182  1
  Nb  Nb4  1  0.09941484  0.74867814  0.99735627  1
  Nb  Nb5  1  0.10205757  0.25132186  0.00264373  1
  Tc  Tc0  1  0.24901012  0.91863275  0.75454875  1
  Tc  Tc1  1  0.49446237  0.08136725  0.24545125  1
  Tc  Tc2  1  0.24901012  0.33591500  0.75454875  1
  Tc  Tc3  1  0.49446237  0.66408500  0.24545125  1
  Ge  Ge0  1  0.16027695  0.66975556  0.32851949  1
  Ge  Ge1  1  0.83175746  0.33024444  0.67148051  1
  Ge  Ge2  1  0.16027695  0.15876292  0.32851949  1
  Ge  Ge3  1  0.83175746  0.84123708  0.67148051  1
  Ge  Ge4  1  0.47350174  0.71161558  0.92323416  1
  Ge  Ge5  1  0.55026857  0.28838442  0.07676584  1
  Rh  Rh0  1  0.74835607  0.50000000  1.00000000  1
  Rh  Rh1  1  0.74835607  0.00000000  1.00000000  1
loop_
_geom_bond_atom_site_label_1
_geom_bond_atom_site_label_2
_geom_bond_distance
_geom_bond_site_symmetry_2
Nb0 Tc2 2.789785 1_665
Nb0 Tc0 2.789793 1_655
Nb0 Tc1 2.804760 1_565
Nb0 Tc3 2.804761 1_555
Nb0 Rh1 2.980976 1_564
Nb0 Rh0 2.980981 1_554
Nb1 Tc3 2.789788 1_545
Nb1 Tc1 2.789796 1_555
Nb1 Tc2 2.804765 1_555
Nb1 Tc0 2.804765 1_545
Nb1 Rh1 2.980976 1_555
Nb1 Rh0 2.980981 1_555
Nb2 Tc3 2.835961 1_555
Nb2 Tc1 2.835961 1_555
Nb2 Rh1 3.283096 1_565
Nb2 Rh0 3.283100 1_555
Nb3 Tc2 2.835959 1_655
Nb3 Tc0 2.835959 1_655
Nb3 Rh1 3.283096 1_554
Nb3 Rh0 3.283099 1_554
Nb4 Tc3 2.770215 1_556
Nb4 Tc1 2.770220 1_566
Nb4 Rh1 2.999296 1_465
Nb4 Rh0 2.999296 1_455
Nb5 Tc2 2.770215 1_554
Nb5 Tc0 2.770219 1_544
Nb5 Rh0 2.999290 1_454
Nb5 Rh1 2.999291 1_454
Ge0 Rh0 2.492386 1_454
Ge0 Tc3 2.562129 1_555
Ge0 Tc0 2.572971 1_555
Ge0 Nb3 2.699569 1_455
Ge0 Nb4 2.712634 1_554
Ge0 Nb1 2.717906 1_565
Ge0 Nb2 2.734866 1_555
Ge0 Nb0 2.747842 1_455
Ge0 Nb5 2.748126 1_555
Ge1 Rh0 2.492386 1_555
Ge1 Tc2 2.562122 1_655
Ge1 Tc1 2.572969 1_555
Ge1 Nb2 2.699569 1_555
Ge1 Nb5 2.712632 1_656
Ge1 Nb0 2.717906 1_545
Ge1 Nb3 2.734866 1_555
Ge1 Nb1 2.747842 1_555
Ge1 Nb4 2.748128 1_655
Ge2 Rh1 2.492386 1_454
Ge2 Tc1 2.562127 1_555
Ge2 Tc2 2.572971 1_555
Ge2 Nb3 2.699569 1_455
Ge2 Nb4 2.712629 1_544
Ge2 Nb1 2.717905 1_555
Ge2 Nb2 2.734877 1_555
Ge2 Nb0 2.747832 1_445
Ge2 Nb5 2.748131 1_555
Ge3 Rh1 2.492386 1_565
Ge3 Tc0 2.562121 1_655
Ge3 Tc3 2.572969 1_555
Ge3 Nb2 2.699569 1_555
Ge3 Nb5 2.712628 1_666
Ge3 Nb0 2.717905 1_555
Ge3 Nb3 2.734876 1_555
Ge3 Nb1 2.747832 1_565
Ge3 Nb4 2.748133 1_655
Ge4 Rh0 2.480787 1_555
Ge4 Rh1 2.480804 1_565
Ge4 Tc2 2.553149 1_555
Ge4 Tc0 2.553162 1_555
Ge4 Tc3 2.578742 1_556
Ge4 Tc1 2.578760 1_566
Ge4 Nb2 2.719849 1_555
Ge4 Nb4 2.772304 1_555
Ge4 Nb0 2.992362 1_556
Ge4 Nb3 3.133162 1_455
Ge5 Rh0 2.480783 1_554
Ge5 Rh1 2.480800 1_554
Ge5 Tc3 2.553149 1_555
Ge5 Tc1 2.553162 1_555
Ge5 Tc2 2.578747 1_554
Ge5 Tc0 2.578765 1_544
Ge5 Nb3 2.719846 1_555
Ge5 Nb5 2.772317 1_555
Ge5 Nb1 2.992359 1_554
Ge5 Nb2 3.133166 1_555
Rh0 Tc3 2.888129 1_556
Rh0 Tc2 2.888135 1_555
Rh1 Tc1 2.888128 1_556
Rh1 Tc0 2.888134 1_545
