# generated using pymatgen
data_Mn3GaF10
_symmetry_space_group_name_H-M   'P 1'
_cell_length_a   5.23206865
_cell_length_b   5.39696375
_cell_length_c   7.58827476
_cell_angle_alpha   66.72502606
_cell_angle_beta   70.33971986
_cell_angle_gamma   71.31875311
_symmetry_Int_Tables_number   1
_chemical_formula_structural   Mn3GaF10
_chemical_formula_sum   'Mn3 Ga1 F10'
_cell_volume   180.96022858
_cell_formula_units_Z   1
loop_
 _symmetry_equiv_pos_site_id
 _symmetry_equiv_pos_as_xyz
  1  'x, y, z'
loop_
 _atom_site_type_symbol
 _atom_site_label
 _atom_site_symmetry_multiplicity
 _atom_site_fract_x
 _atom_site_fract_y
 _atom_site_fract_z
 _atom_site_occupancy
  Mn  Mn0  1  0.53671114  0.46478650  0.76244197  1
  Mn  Mn1  1  0.46328886  0.53521350  0.23755803  1
  Mn  Mn2  1  0.00000000  0.00000000  0.50000000  1
  Ga  Ga0  1  0.00000000  0.00000000  0.00000000  1
  F  F0  1  0.10381194  0.88053378  0.24399871  1
  F  F1  1  0.89618806  0.11946622  0.75600129  1
  F  F2  1  0.20844412  0.27411043  0.35863168  1
  F  F3  1  0.72549428  0.79123581  0.12231770  1
  F  F4  1  0.72017621  0.31437405  0.03877628  1
  F  F5  1  0.67444602  0.27901968  0.45328031  1
  F  F6  1  0.27982379  0.68562595  0.96122372  1
  F  F7  1  0.32555398  0.72098032  0.54671969  1
  F  F8  1  0.27450572  0.20876419  0.87768230  1
  F  F9  1  0.79155588  0.72588957  0.64136832  1
loop_
_geom_bond_atom_site_label_1
_geom_bond_atom_site_label_2
_geom_bond_distance
_geom_bond_site_symmetry_2
F0 Ga0 1.909922 1_565
F0 Mn2 2.130720 1_565
F0 Mn1 2.185817 1_555
F1 Ga0 1.909922 1_656
F1 Mn2 2.130720 1_655
F1 Mn0 2.185817 1_555
F2 Mn2 1.876390 1_555
F2 Mn1 1.990954 1_555
F3 Ga0 1.872664 1_665
F3 Mn1 2.002034 1_555
F4 Ga0 1.903184 1_655
F4 Mn1 2.129017 1_555
F4 Mn0 2.342513 1_554
F5 Mn2 1.906803 1_655
F5 Mn1 2.064364 1_555
F6 Ga0 1.903184 1_566
F6 Mn0 2.129017 1_555
F6 Mn1 2.342513 1_556
F7 Mn2 1.906803 1_565
F7 Mn0 2.064364 1_555
F8 Ga0 1.872664 1_556
F8 Mn0 2.002034 1_555
F9 Mn2 1.876390 1_665
F9 Mn0 1.990954 1_555
