# generated using pymatgen
data_Sr4GaGeIr4
_symmetry_space_group_name_H-M   'P 1'
_cell_length_a   5.85928727
_cell_length_b   5.85928655
_cell_length_c   7.69830128
_cell_angle_alpha   80.57839647
_cell_angle_beta   80.57839765
_cell_angle_gamma   62.80763558
_symmetry_Int_Tables_number   1
_chemical_formula_structural   Sr4GaGeIr4
_chemical_formula_sum   'Sr4 Ga1 Ge1 Ir4'
_cell_volume   230.71777785
_cell_formula_units_Z   1
loop_
 _symmetry_equiv_pos_site_id
 _symmetry_equiv_pos_as_xyz
  1  'x, y, z'
loop_
 _atom_site_type_symbol
 _atom_site_label
 _atom_site_symmetry_multiplicity
 _atom_site_fract_x
 _atom_site_fract_y
 _atom_site_fract_z
 _atom_site_occupancy
  Sr  Sr0  1  0.99113099  0.71827564  0.13820988  1
  Sr  Sr1  1  0.28172436  0.00886901  0.36179012  1
  Sr  Sr2  1  0.00977031  0.28390410  0.85966268  1
  Sr  Sr3  1  0.71609590  0.99022969  0.64033732  1
  Ga  Ga0  1  0.42614730  0.57385270  0.75000000  1
  Ge  Ge0  1  0.57030699  0.42969301  0.25000000  1
  Ir  Ir0  1  0.49332464  0.78593261  0.99512264  1
  Ir  Ir1  1  0.21406739  0.50667536  0.50487736  1
  Ir  Ir2  1  0.51095121  0.21351808  0.01556793  1
  Ir  Ir3  1  0.78648192  0.48904879  0.48443207  1
loop_
_geom_bond_atom_site_label_1
_geom_bond_atom_site_label_2
_geom_bond_distance
_geom_bond_site_symmetry_2
Ga0 Ir0 2.591885 1_555
Ga0 Ir1 2.591885 1_555
Ga0 Ir2 2.616249 1_556
Ga0 Ir3 2.616249 1_555
Ga0 Sr3 3.233976 1_545
Ga0 Sr2 3.233976 1_655
Ga0 Sr3 3.492161 1_555
Ga0 Sr2 3.492161 1_555
Ge0 Ir2 2.517708 1_555
Ge0 Ir3 2.517708 1_555
Ge0 Ir0 2.549242 1_554
Ge0 Ir1 2.549243 1_555
Ge0 Sr1 3.217341 1_565
Ge0 Sr0 3.217342 1_455
Ge0 Sr3 3.561809 1_545
Ge0 Sr2 3.561809 1_654
Ir0 Ir2 2.585171 1_566
Ir0 Sr0 3.119347 1_556
Ir0 Sr3 3.128388 1_555
Ir0 Sr1 3.129280 1_566
Ir0 Sr0 3.144960 1_456
Ir0 Sr2 3.169207 1_565
Ir0 Sr2 3.276078 1_655
Ir1 Ir3 2.585171 1_455
Ir1 Sr1 3.119347 1_555
Ir1 Sr2 3.128388 1_555
Ir1 Sr0 3.129280 1_455
Ir1 Sr1 3.144960 1_565
Ir1 Sr3 3.169207 1_455
Ir1 Sr3 3.276078 1_545
Ir2 Sr1 3.098272 1_555
Ir2 Sr0 3.120658 1_545
Ir2 Sr2 3.153416 1_654
Ir2 Sr2 3.181030 1_554
Ir2 Sr3 3.188098 1_544
Ir2 Sr0 3.264184 1_455
Ir3 Sr0 3.098272 1_555
Ir3 Sr1 3.120658 1_655
Ir3 Sr3 3.153416 1_545
Ir3 Sr3 3.181030 1_555
Ir3 Sr2 3.188098 1_655
Ir3 Sr1 3.264183 1_565
