# generated using pymatgen
data_Rb3LiIrO4
_symmetry_space_group_name_H-M   'P 1'
_cell_length_a   7.45011164
_cell_length_b   7.45011158
_cell_length_c   6.11499936
_cell_angle_alpha   78.71247628
_cell_angle_beta   78.71247349
_cell_angle_gamma   85.74885637
_symmetry_Int_Tables_number   1
_chemical_formula_structural   Rb3LiIrO4
_chemical_formula_sum   'Rb6 Li2 Ir2 O8'
_cell_volume   326.17831639
_cell_formula_units_Z   2
loop_
 _symmetry_equiv_pos_site_id
 _symmetry_equiv_pos_as_xyz
  1  'x, y, z'
loop_
 _atom_site_type_symbol
 _atom_site_label
 _atom_site_symmetry_multiplicity
 _atom_site_fract_x
 _atom_site_fract_y
 _atom_site_fract_z
 _atom_site_occupancy
  Rb  Rb0  1  0.06782096  0.24474321  0.02344582  1
  Rb  Rb1  1  0.59467579  0.40532421  0.25000000  1
  Rb  Rb2  1  0.24474321  0.06782096  0.52344582  1
  Rb  Rb3  1  0.75525679  0.93217904  0.47655418  1
  Rb  Rb4  1  0.93217904  0.75525679  0.97655418  1
  Rb  Rb5  1  0.40532421  0.59467579  0.75000000  1
  Li  Li0  1  0.73037755  0.26962245  0.75000000  1
  Li  Li1  1  0.26962245  0.73037755  0.25000000  1
  Ir  Ir0  1  0.50000000  0.00000000  0.00000000  1
  Ir  Ir1  1  0.00000000  0.50000000  0.50000000  1
  O  O0  1  0.20168942  0.48464164  0.25212447  1
  O  O1  1  0.91123121  0.26989390  0.47717230  1
  O  O2  1  0.48464164  0.20168942  0.75212447  1
  O  O3  1  0.26989390  0.91123121  0.97717230  1
  O  O4  1  0.08876879  0.73010610  0.52282770  1
  O  O5  1  0.73010610  0.08876879  0.02282770  1
  O  O6  1  0.51535836  0.79831058  0.24787553  1
  O  O7  1  0.79831058  0.51535836  0.74787553  1
loop_
_geom_bond_atom_site_label_1
_geom_bond_atom_site_label_2
_geom_bond_distance
_geom_bond_site_symmetry_2
Li0 O1 1.928189 1_555
Li0 O5 1.928189 1_556
Li0 O7 1.932222 1_555
Li0 O2 1.932222 1_555
Li1 O4 1.928189 1_555
Li1 O3 1.928189 1_554
Li1 O0 1.932222 1_555
Li1 O6 1.932222 1_555
Ir0 O3 1.921883 1_544
Ir0 O5 1.921883 1_555
Ir0 O6 1.928537 1_545
Ir0 O2 1.928537 1_554
Ir1 O4 1.921883 1_555
Ir1 O1 1.921883 1_455
Ir1 O0 1.928537 1_555
Ir1 O7 1.928537 1_455
O0 Rb0 2.816567 1_555
O0 Rb1 2.941589 1_555
O0 Rb5 3.126822 1_554
O1 Rb0 2.828101 1_655
O1 Rb2 2.841502 1_655
O1 Rb3 2.849481 1_545
O1 Rb1 2.981735 1_555
O2 Rb2 2.816567 1_555
O2 Rb5 2.941589 1_555
O2 Rb1 3.126822 1_555
O3 Rb2 2.828101 1_565
O3 Rb0 2.841502 1_566
O3 Rb4 2.849481 1_455
O3 Rb5 2.981735 1_555
O4 Rb4 2.828101 1_455
O4 Rb3 2.841502 1_455
O4 Rb2 2.849481 1_565
O4 Rb5 2.981735 1_555
O5 Rb3 2.828101 1_545
O5 Rb4 2.841502 1_544
O5 Rb0 2.849481 1_655
O5 Rb1 2.981735 1_555
O6 Rb3 2.816567 1_555
O6 Rb1 2.941589 1_555
O6 Rb5 3.126822 1_555
O7 Rb4 2.816567 1_555
O7 Rb5 2.941589 1_555
O7 Rb1 3.126822 1_556
