# generated using pymatgen
data_BaMn3O6
_symmetry_space_group_name_H-M   'P 1'
_cell_length_a   4.05609004
_cell_length_b   5.78279135
_cell_length_c   10.82206711
_cell_angle_alpha   97.87344666
_cell_angle_beta   100.80299388
_cell_angle_gamma   90.00005564
_symmetry_Int_Tables_number   1
_chemical_formula_structural   BaMn3O6
_chemical_formula_sum   'Ba2 Mn6 O12'
_cell_volume   246.90208425
_cell_formula_units_Z   2
loop_
 _symmetry_equiv_pos_site_id
 _symmetry_equiv_pos_as_xyz
  1  'x, y, z'
loop_
 _atom_site_type_symbol
 _atom_site_label
 _atom_site_symmetry_multiplicity
 _atom_site_fract_x
 _atom_site_fract_y
 _atom_site_fract_z
 _atom_site_occupancy
  Ba  Ba0  1  0.06785100  0.28436600  0.13570700  1
  Ba  Ba1  1  0.93214900  0.71564400  0.86429600  1
  Mn  Mn0  1  0.56329500  0.78221800  0.12646600  1
  Mn  Mn1  1  0.43670500  0.21779100  0.87353600  1
  Mn  Mn2  1  0.70610300  0.85261500  0.41229400  1
  Mn  Mn3  1  0.29389600  0.14737800  0.58770500  1
  Mn  Mn4  1  0.29432300  0.64822300  0.58860700  1
  Mn  Mn5  1  0.70567500  0.35177300  0.41139100  1
  O  O0  1  0.50000200  0.00000800  0.00000300  1
  O  O1  1  0.50000100  0.50000400  0.00000300  1
  O  O2  1  0.64496100  0.57454700  0.28994000  1
  O  O3  1  0.35503900  0.42545000  0.71005900  1
  O  O4  1  0.64380000  0.06505300  0.28761600  1
  O  O5  1  0.35620000  0.93494200  0.71238400  1
  O  O6  1  0.06400100  0.78121500  0.12807500  1
  O  O7  1  0.93599700  0.21879100  0.87192200  1
  O  O8  1  0.22679500  0.36123700  0.45359100  1
  O  O9  1  0.77320400  0.63875400  0.54640600  1
  O  O10  1  0.77079300  0.13513500  0.54157400  1
  O  O11  1  0.22920600  0.86485800  0.45842600  1
loop_
_geom_bond_atom_site_label_1
_geom_bond_atom_site_label_2
_geom_bond_distance
_geom_bond_site_symmetry_2
Ba0 O7 2.776730 1_454
Ba0 O0 2.869859 1_455
Ba0 O0 2.869948 1_555
Ba0 O1 2.872362 1_455
Ba0 O1 2.872441 1_555
Ba0 O6 2.885607 1_555
Ba0 O6 2.899416 1_545
Ba0 O2 2.974765 1_555
Ba0 O2 2.974879 1_455
Ba0 O4 2.983287 1_555
Ba0 O4 2.983390 1_455
Ba0 O8 3.346279 1_555
Ba1 O6 2.776667 1_656
Ba1 O0 2.869897 1_666
Ba1 O0 2.869972 1_566
Ba1 O1 2.872387 1_656
Ba1 O1 2.872464 1_556
Ba1 O7 2.885619 1_555
Ba1 O7 2.899400 1_565
Ba1 O3 2.974816 1_555
Ba1 O3 2.974942 1_655
Ba1 O5 2.983258 1_555
Ba1 O5 2.983370 1_655
Ba1 O9 3.346341 1_555
Mn0 O1 1.964356 1_555
Mn0 O0 1.966124 1_565
Mn0 O6 2.027732 1_655
Mn0 O6 2.028532 1_555
Mn0 O4 2.197324 1_565
Mn0 O2 2.245915 1_555
Mn1 O1 1.964376 1_556
Mn1 O0 1.966127 1_556
Mn1 O7 2.027731 1_455
Mn1 O7 2.028535 1_555
Mn1 O5 2.197390 1_545
Mn1 O3 2.245897 1_555
Mn2 O2 1.921994 1_555
Mn2 O4 1.928699 1_565
Mn2 O10 1.982820 1_565
Mn2 O9 2.013377 1_555
Mn2 O11 2.085244 1_555
Mn2 O11 2.085503 1_655
Mn3 O3 1.922011 1_555
Mn3 O5 1.928699 1_545
Mn3 O11 1.982813 1_545
Mn3 O8 2.013386 1_555
Mn3 O10 2.085240 1_555
Mn3 O10 2.085503 1_455
Mn4 O3 1.946879 1_555
Mn4 O5 1.967711 1_555
Mn4 O11 1.991984 1_555
Mn4 O8 2.037110 1_555
Mn4 O9 2.076083 1_555
Mn4 O9 2.076200 1_455
Mn5 O2 1.946876 1_555
Mn5 O4 1.967703 1_555
Mn5 O10 1.992013 1_555
Mn5 O9 2.037083 1_555
Mn5 O8 2.076075 1_555
Mn5 O8 2.076203 1_655
