# generated using pymatgen
data_SrBr2
_symmetry_space_group_name_H-M   'P 1'
_cell_length_a   7.19748453
_cell_length_b   11.66459546
_cell_length_c   11.66459546
_cell_angle_alpha   90.00000000
_cell_angle_beta   90.00000000
_cell_angle_gamma   90.00000000
_symmetry_Int_Tables_number   1
_chemical_formula_structural   SrBr2
_chemical_formula_sum   'Sr10 Br20'
_cell_volume   979.30980631
_cell_formula_units_Z   10
loop_
 _symmetry_equiv_pos_site_id
 _symmetry_equiv_pos_as_xyz
  1  'x, y, z'
loop_
 _atom_site_type_symbol
 _atom_site_label
 _atom_site_symmetry_multiplicity
 _atom_site_fract_x
 _atom_site_fract_y
 _atom_site_fract_z
 _atom_site_occupancy
  Sr  Sr0  1  0.25189588  0.08542783  0.60442506  1
  Sr  Sr1  1  0.25189588  0.60442506  0.41457217  1
  Sr  Sr2  1  0.25189588  0.89557494  0.08542783  1
  Sr  Sr3  1  0.25189588  0.41457217  0.89557494  1
  Sr  Sr4  1  0.34923150  0.25000000  0.25000000  1
  Sr  Sr5  1  0.65076850  0.75000000  0.75000000  1
  Sr  Sr6  1  0.74810412  0.10442506  0.91457217  1
  Sr  Sr7  1  0.74810412  0.39557494  0.58542783  1
  Sr  Sr8  1  0.74810412  0.58542783  0.10442506  1
  Sr  Sr9  1  0.74810412  0.91457217  0.39557494  1
  Br  Br0  1  0.00000000  0.25000000  0.75000000  1
  Br  Br1  1  0.00000000  0.75000000  0.25000000  1
  Br  Br2  1  0.12348263  0.04012332  0.34757126  1
  Br  Br3  1  0.12348263  0.15242874  0.04012332  1
  Br  Br4  1  0.12348263  0.34757126  0.45987668  1
  Br  Br5  1  0.12348263  0.45987668  0.15242874  1
  Br  Br6  1  0.40289731  0.54258421  0.66107360  1
  Br  Br7  1  0.40289731  0.66107360  0.95741579  1
  Br  Br8  1  0.40289731  0.83892640  0.54258421  1
  Br  Br9  1  0.40289731  0.95741579  0.83892640  1
  Br  Br10  1  0.50000000  0.25000000  0.75000000  1
  Br  Br11  1  0.50000000  0.75000000  0.25000000  1
  Br  Br12  1  0.59710269  0.04258421  0.16107360  1
  Br  Br13  1  0.59710269  0.16107360  0.45741679  1
  Br  Br14  1  0.59710269  0.33892640  0.04258421  1
  Br  Br15  1  0.59710269  0.45741679  0.33892640  1
  Br  Br16  1  0.87651737  0.54012332  0.84757126  1
  Br  Br17  1  0.87651737  0.65242874  0.54012332  1
  Br  Br18  1  0.87651737  0.84757126  0.95987668  1
  Br  Br19  1  0.87651737  0.95987668  0.65242874  1
loop_
_geom_bond_atom_site_label_1
_geom_bond_atom_site_label_2
_geom_bond_distance
_geom_bond_site_symmetry_2
Br0 Sr7 3.139364 1_455
Br0 Sr6 3.139364 1_455
Br0 Sr3 3.139364 1_555
Br0 Sr0 3.139364 1_555
Br1 Sr9 3.139364 1_455
Br1 Sr8 3.139364 1_455
Br1 Sr1 3.139364 1_555
Br1 Sr2 3.139364 1_555
Br2 Sr9 3.123768 1_445
Br2 Sr4 3.150986 1_555
Br2 Sr0 3.179638 1_555
Br2 Sr2 3.612104 1_545
Br3 Sr6 3.123768 1_454
Br3 Sr4 3.150986 1_555
Br3 Sr2 3.179638 1_545
Br3 Sr3 3.612104 1_554
Br4 Sr7 3.123768 1_455
Br4 Sr4 3.150986 1_555
Br4 Sr1 3.179638 1_555
Br4 Sr0 3.612104 1_555
Br5 Sr8 3.123768 1_455
Br5 Sr4 3.150986 1_555
Br5 Sr3 3.179638 1_554
Br5 Sr1 3.612104 1_555
Br6 Sr7 3.145232 1_555
Br6 Sr1 3.157392 1_555
Br6 Sr5 3.180000 1_555
Br6 Sr3 3.300467 1_555
Br7 Sr8 3.145232 1_556
Br7 Sr3 3.157392 1_555
Br7 Sr5 3.180000 1_555
Br7 Sr2 3.300467 1_556
Br8 Sr9 3.145232 1_555
Br8 Sr0 3.157392 1_565
Br8 Sr5 3.180000 1_555
Br8 Sr1 3.300467 1_555
Br9 Sr6 3.145232 1_565
Br9 Sr2 3.157392 1_556
Br9 Sr5 3.180000 1_555
Br9 Sr0 3.300467 1_565
Br10 Sr6 3.123682 1_555
Br10 Sr7 3.123682 1_555
Br10 Sr3 3.123682 1_555
Br10 Sr0 3.123682 1_555
Br11 Sr2 3.123682 1_555
Br11 Sr1 3.123682 1_555
Br11 Sr9 3.123682 1_555
Br11 Sr8 3.123682 1_555
Br12 Sr2 3.145232 1_545
Br12 Sr6 3.157392 1_554
Br12 Sr4 3.180000 1_555
Br12 Sr9 3.300467 1_545
Br13 Sr0 3.145225 1_555
Br13 Sr9 3.157394 1_545
Br13 Sr4 3.180009 1_555
Br13 Sr7 3.300462 1_555
Br14 Sr3 3.145232 1_554
Br14 Sr8 3.157392 1_555
Br14 Sr4 3.180000 1_555
Br14 Sr6 3.300467 1_554
Br15 Sr1 3.145225 1_555
Br15 Sr7 3.157394 1_555
Br15 Sr4 3.180009 1_555
Br15 Sr8 3.300462 1_555
Br16 Sr3 3.123768 1_655
Br16 Sr5 3.150986 1_555
Br16 Sr8 3.179638 1_556
Br16 Sr7 3.612104 1_555
Br17 Sr1 3.123768 1_655
Br17 Sr5 3.150986 1_555
Br17 Sr7 3.179638 1_555
Br17 Sr9 3.612104 1_555
Br18 Sr2 3.123768 1_656
Br18 Sr5 3.150986 1_555
Br18 Sr6 3.179638 1_565
Br18 Sr8 3.612104 1_556
Br19 Sr0 3.123768 1_665
Br19 Sr5 3.150986 1_555
Br19 Sr9 3.179638 1_555
Br19 Sr6 3.612104 1_565
