# generated using pymatgen
data_Cs6Rb3InAs4
_symmetry_space_group_name_H-M   'P 1'
_cell_length_a   10.70156011
_cell_length_b   10.70155972
_cell_length_c   11.45765071
_cell_angle_alpha   90.00000000
_cell_angle_beta   90.00000000
_cell_angle_gamma   119.99999823
_symmetry_Int_Tables_number   1
_chemical_formula_structural   Cs6Rb3InAs4
_chemical_formula_sum   'Cs12 Rb6 In2 As8'
_cell_volume   1136.37165457
_cell_formula_units_Z   2
loop_
 _symmetry_equiv_pos_site_id
 _symmetry_equiv_pos_as_xyz
  1  'x, y, z'
loop_
 _atom_site_type_symbol
 _atom_site_label
 _atom_site_symmetry_multiplicity
 _atom_site_fract_x
 _atom_site_fract_y
 _atom_site_fract_z
 _atom_site_occupancy
  Cs  Cs0  1  0.20755344  0.79244656  0.95220342  1
  Cs  Cs1  1  0.20755344  0.41510688  0.95220342  1
  Cs  Cs2  1  0.58489312  0.79244656  0.95220342  1
  Cs  Cs3  1  0.41510688  0.20755344  0.45220342  1
  Cs  Cs4  1  0.79244656  0.58489312  0.04779658  1
  Cs  Cs5  1  0.79244656  0.20755344  0.45220342  1
  Cs  Cs6  1  0.79244656  0.58489312  0.45220342  1
  Cs  Cs7  1  0.20755344  0.79244656  0.54779658  1
  Cs  Cs8  1  0.58489312  0.79244656  0.54779658  1
  Cs  Cs9  1  0.41510688  0.20755344  0.04779658  1
  Cs  Cs10  1  0.79244656  0.20755344  0.04779658  1
  Cs  Cs11  1  0.20755344  0.41510688  0.54779658  1
  Rb  Rb0  1  0.24117823  0.12058861  0.75000000  1
  Rb  Rb1  1  0.87941139  0.12058861  0.75000000  1
  Rb  Rb2  1  0.75882177  0.87941139  0.25000000  1
  Rb  Rb3  1  0.12058861  0.24117823  0.25000000  1
  Rb  Rb4  1  0.12058861  0.87941139  0.25000000  1
  Rb  Rb5  1  0.87941139  0.75882177  0.75000000  1
  In  In0  1  0.33333300  0.66666700  0.25000000  1
  In  In1  1  0.66666700  0.33333300  0.75000000  1
  As  As0  1  0.00000000  0.00000000  0.00000000  1
  As  As1  1  0.04760946  0.52380423  0.25000000  1
  As  As2  1  0.47619577  0.95239054  0.25000000  1
  As  As3  1  0.52380423  0.04760946  0.75000000  1
  As  As4  1  0.52380423  0.47619577  0.75000000  1
  As  As5  1  0.00000000  0.00000000  0.50000000  1
  As  As6  1  0.47619577  0.52380423  0.25000000  1
  As  As7  1  0.95239054  0.47619577  0.75000000  1
loop_
_geom_bond_atom_site_label_1
_geom_bond_atom_site_label_2
_geom_bond_distance
_geom_bond_site_symmetry_2
As0 Rb1 3.633308 1_454
As0 Rb4 3.633308 1_545
As0 Rb3 3.633313 1_555
As0 Rb5 3.633313 1_444
As0 Rb0 3.633313 1_554
As0 Rb2 3.633313 1_445
As0 Cs10 3.885919 1_455
As0 Cs0 3.885919 1_544
As0 Cs4 3.885919 1_445
As0 Cs1 3.885919 1_554
As0 Cs9 3.885919 1_555
As0 Cs2 3.885919 1_444
As1 In0 2.648035 1_555
As1 Rb3 3.481368 1_555
As1 Rb4 3.481389 1_555
As1 Cs5 3.877672 1_455
As1 Cs10 3.877672 1_455
As1 Cs6 3.877678 1_455
As1 Cs4 3.877678 1_455
As2 In0 2.648035 1_555
As2 Rb2 3.481368 1_555
As2 Rb4 3.481389 1_555
As2 Cs5 3.877672 1_565
As2 Cs10 3.877672 1_565
As2 Cs3 3.877678 1_565
As2 Cs9 3.877678 1_565
As3 In1 2.648035 1_555
As3 Rb0 3.481368 1_555
As3 Rb1 3.481389 1_555
As3 Cs0 3.877672 1_545
As3 Cs7 3.877672 1_545
As3 Cs2 3.877678 1_545
As3 Cs8 3.877678 1_545
As4 In1 2.648054 1_555
As4 Rb0 3.481382 1_555
As4 Rb5 3.481382 1_555
As4 Cs2 3.877669 1_555
As4 Cs8 3.877669 1_555
As4 Cs1 3.877669 1_555
As4 Cs11 3.877669 1_555
As5 Rb1 3.633308 1_455
As5 Rb4 3.633308 1_545
As5 Rb3 3.633313 1_555
As5 Rb5 3.633313 1_445
As5 Rb0 3.633313 1_555
As5 Rb2 3.633313 1_445
As5 Cs7 3.885919 1_545
As5 Cs5 3.885919 1_455
As5 Cs6 3.885919 1_445
As5 Cs11 3.885919 1_555
As5 Cs8 3.885919 1_445
As5 Cs3 3.885919 1_555
As6 In0 2.648054 1_555
As6 Rb2 3.481382 1_555
As6 Rb3 3.481382 1_555
As6 Cs3 3.877669 1_555
As6 Cs9 3.877669 1_555
As6 Cs6 3.877669 1_555
As6 Cs4 3.877669 1_555
As7 In1 2.648035 1_555
As7 Rb5 3.481368 1_555
As7 Rb1 3.481389 1_555
As7 Cs0 3.877672 1_655
As7 Cs7 3.877672 1_655
As7 Cs1 3.877678 1_655
As7 Cs11 3.877678 1_655
