# generated using pymatgen
data_NaLu(InCl3)2
_symmetry_space_group_name_H-M   'P 1'
_cell_length_a   7.12891196
_cell_length_b   7.55093820
_cell_length_c   12.50381667
_cell_angle_alpha   90.00000000
_cell_angle_beta   123.85328481
_cell_angle_gamma   90.00000000
_symmetry_Int_Tables_number   1
_chemical_formula_structural   NaLu(InCl3)2
_chemical_formula_sum   'Na2 Lu2 In4 Cl12'
_cell_volume   558.97066659
_cell_formula_units_Z   2
loop_
 _symmetry_equiv_pos_site_id
 _symmetry_equiv_pos_as_xyz
  1  'x, y, z'
loop_
 _atom_site_type_symbol
 _atom_site_label
 _atom_site_symmetry_multiplicity
 _atom_site_fract_x
 _atom_site_fract_y
 _atom_site_fract_z
 _atom_site_occupancy
  Na  Na0  1  0.50000000  0.00000000  0.00000000  1
  Na  Na1  1  0.50000100  0.50000000  0.50000000  1
  Lu  Lu0  1  0.00000000  0.50000000  0.00000000  1
  Lu  Lu1  1  0.00000000  0.00000000  0.50000000  1
  In  In0  1  0.27753311  0.06921263  0.25768685  1
  In  In1  1  0.72246689  0.56921263  0.24231315  1
  In  In2  1  0.27753211  0.43078737  0.75768685  1
  In  In3  1  0.72246689  0.93078737  0.74231215  1
  Cl  Cl0  1  0.32975523  0.30994846  0.03507034  1
  Cl  Cl1  1  0.23461115  0.78141257  0.04292811  1
  Cl  Cl2  1  0.15662041  0.47973354  0.24148202  1
  Cl  Cl3  1  0.84337959  0.97973354  0.25851798  1
  Cl  Cl4  1  0.76538985  0.28141257  0.45707289  1
  Cl  Cl5  1  0.67024477  0.80994846  0.46493066  1
  Cl  Cl6  1  0.32975623  0.19005154  0.53507034  1
  Cl  Cl7  1  0.23461115  0.71858743  0.54292811  1
  Cl  Cl8  1  0.15661941  0.02026646  0.74148202  1
  Cl  Cl9  1  0.84338059  0.52026746  0.75851798  1
  Cl  Cl10  1  0.76538885  0.21858743  0.95707289  1
  Cl  Cl11  1  0.67024377  0.69005154  0.96493066  1
loop_
_geom_bond_atom_site_label_1
_geom_bond_atom_site_label_2
_geom_bond_distance
_geom_bond_site_symmetry_2
Cl0 Lu0 2.574770 1_555
Cl0 Na0 2.781312 1_555
Cl0 In1 3.209765 1_555
Cl1 Lu0 2.569154 1_555
Cl1 Na0 2.779073 1_565
Cl2 Lu0 2.575077 1_555
Cl2 Na1 2.765611 1_555
Cl2 In1 3.173600 1_455
Cl2 In0 3.193484 1_555
Cl3 Lu1 2.575077 1_665
Cl3 Na0 2.765609 1_565
Cl3 In0 3.173600 1_665
Cl3 In1 3.193484 1_555
Cl4 Lu1 2.569152 1_655
Cl4 Na1 2.779066 1_555
Cl5 Lu1 2.574774 1_665
Cl5 Na1 2.781303 1_555
Cl5 In0 3.209769 1_565
Cl6 Lu1 2.574776 1_555
Cl6 Na1 2.781312 1_555
Cl6 In3 3.209758 1_545
Cl7 Lu1 2.569154 1_565
Cl7 Na1 2.779078 1_555
Cl8 Lu1 2.575079 1_555
Cl8 Na0 2.765611 1_556
Cl8 In3 3.173586 1_445
Cl8 In2 3.193484 1_555
Cl9 Lu0 2.575079 1_656
Cl9 Na1 2.765610 1_555
Cl9 In2 3.173587 1_655
Cl9 In3 3.193477 1_555
Cl10 Lu0 2.569156 1_656
Cl10 Na0 2.779066 1_556
Cl11 Lu0 2.574780 1_656
Cl11 Na0 2.781303 1_566
Cl11 In2 3.209769 1_555
