# generated using pymatgen
data_Mn2AlSiRu4
_symmetry_space_group_name_H-M   'P 1'
_cell_length_a   7.24632827
_cell_length_b   7.24632891
_cell_length_c   7.24632821
_cell_angle_alpha   33.56661468
_cell_angle_beta   33.56662405
_cell_angle_gamma   33.56661917
_symmetry_Int_Tables_number   1
_chemical_formula_structural   Mn2AlSiRu4
_chemical_formula_sum   'Mn2 Al1 Si1 Ru4'
_cell_volume   103.61116033
_cell_formula_units_Z   1
loop_
 _symmetry_equiv_pos_site_id
 _symmetry_equiv_pos_as_xyz
  1  'x, y, z'
loop_
 _atom_site_type_symbol
 _atom_site_label
 _atom_site_symmetry_multiplicity
 _atom_site_fract_x
 _atom_site_fract_y
 _atom_site_fract_z
 _atom_site_occupancy
  Mn  Mn0  1  0.25101108  0.25101108  0.25101108  1
  Mn  Mn1  1  0.74898892  0.74898892  0.74898892  1
  Al  Al0  1  0.00000000  0.00000000  0.00000000  1
  Si  Si0  1  0.50000000  0.50000000  0.50000000  1
  Ru  Ru0  1  0.87295584  0.87295584  0.87295584  1
  Ru  Ru1  1  0.37737960  0.37737960  0.37737960  1
  Ru  Ru2  1  0.12704416  0.12704416  0.12704416  1
  Ru  Ru3  1  0.62262040  0.62262040  0.62262040  1
loop_
_geom_bond_atom_site_label_1
_geom_bond_atom_site_label_2
_geom_bond_distance
_geom_bond_site_symmetry_2
Mn0 Ru3 2.540255 1_545
Mn0 Ru3 2.540255 1_554
Mn0 Ru3 2.540256 1_455
Mn0 Ru2 2.540705 1_555
Mn0 Ru0 2.584109 1_454
Mn0 Ru0 2.584109 1_445
Mn0 Ru0 2.584110 1_544
Mn0 Ru1 2.589926 1_555
Mn1 Ru1 2.540255 1_565
Mn1 Ru1 2.540255 1_556
Mn1 Ru1 2.540256 1_655
Mn1 Ru0 2.540705 1_555
Mn1 Ru2 2.584109 1_656
Mn1 Ru2 2.584109 1_665
Mn1 Ru2 2.584110 1_566
Mn1 Ru3 2.589926 1_555
Al0 Ru1 2.579230 1_545
Al0 Ru3 2.579230 1_454
Al0 Ru1 2.579230 1_554
Al0 Ru3 2.579230 1_445
Al0 Ru1 2.579231 1_455
Al0 Ru3 2.579231 1_544
Al0 Ru2 2.603773 1_555
Al0 Ru0 2.603773 1_444
Ru0 Si0 2.548912 1_565
Ru0 Si0 2.548913 1_556
Ru0 Si0 2.548913 1_655
Ru1 Si0 2.513108 1_555
Ru2 Si0 2.548912 1_545
Ru2 Si0 2.548913 1_554
Ru2 Si0 2.548913 1_455
Ru3 Si0 2.513108 1_555
