# generated using pymatgen
data_Cs3KCdBr6
_symmetry_space_group_name_H-M   'P 1'
_cell_length_a   9.55984002
_cell_length_b   9.55983942
_cell_length_c   9.55983888
_cell_angle_alpha   91.66151745
_cell_angle_beta   91.66151565
_cell_angle_gamma   91.66151734
_symmetry_Int_Tables_number   1
_chemical_formula_structural   Cs3KCdBr6
_chemical_formula_sum   'Cs6 K2 Cd2 Br12'
_cell_volume   872.55501791
_cell_formula_units_Z   2
loop_
 _symmetry_equiv_pos_site_id
 _symmetry_equiv_pos_as_xyz
  1  'x, y, z'
loop_
 _atom_site_type_symbol
 _atom_site_label
 _atom_site_symmetry_multiplicity
 _atom_site_fract_x
 _atom_site_fract_y
 _atom_site_fract_z
 _atom_site_occupancy
  Cs  Cs0  1  0.37352657  0.12647343  0.75000000  1
  Cs  Cs1  1  0.12647343  0.75000000  0.37352657  1
  Cs  Cs2  1  0.75000000  0.37352657  0.12647343  1
  Cs  Cs3  1  0.62647343  0.87352657  0.25000000  1
  Cs  Cs4  1  0.25000000  0.62647343  0.87352657  1
  Cs  Cs5  1  0.87352657  0.25000000  0.62647343  1
  K  K0  1  0.25000000  0.25000000  0.25000000  1
  K  K1  1  0.75000000  0.75000000  0.75000000  1
  Cd  Cd0  1  0.00000000  0.00000000  0.00000000  1
  Cd  Cd1  1  0.50000000  0.50000000  0.50000000  1
  Br  Br0  1  0.95280142  0.07778491  0.28192840  1
  Br  Br1  1  0.07778491  0.28192840  0.95280142  1
  Br  Br2  1  0.28192840  0.95280142  0.07778491  1
  Br  Br3  1  0.57778491  0.45280142  0.78192840  1
  Br  Br4  1  0.78192840  0.57778491  0.45280142  1
  Br  Br5  1  0.45280142  0.78192840  0.57778491  1
  Br  Br6  1  0.21807160  0.42221509  0.54719858  1
  Br  Br7  1  0.42221509  0.54719858  0.21807160  1
  Br  Br8  1  0.54719858  0.21807160  0.42221509  1
  Br  Br9  1  0.92221509  0.71807160  0.04719858  1
  Br  Br10  1  0.04719858  0.92221509  0.71807160  1
  Br  Br11  1  0.71807160  0.04719858  0.92221509  1
loop_
_geom_bond_atom_site_label_1
_geom_bond_atom_site_label_2
_geom_bond_distance
_geom_bond_site_symmetry_2
Br0 Cd0 2.827429 1_655
Br0 K0 3.268648 1_655
Br0 Cs3 3.632527 1_545
Br0 Cs1 3.703928 1_645
Br0 Cs5 3.746537 1_555
Br0 Cs2 3.788805 1_555
Br1 Cd0 2.827429 1_556
Br1 K0 3.268648 1_556
Br1 Cs5 3.632527 1_455
Br1 Cs2 3.703928 1_456
Br1 Cs4 3.746537 1_555
Br1 Cs0 3.788805 1_555
Br2 Cd0 2.827429 1_565
Br2 K0 3.268648 1_565
Br2 Cs4 3.632527 1_554
Br2 Cs0 3.703928 1_564
Br2 Cs3 3.746537 1_555
Br2 Cs1 3.788805 1_555
Br3 Cd1 2.827429 1_555
Br3 K1 3.268648 1_555
Br3 Cs0 3.632527 1_555
Br3 Cs4 3.703928 1_555
Br3 Cs2 3.746537 1_556
Br3 Cs5 3.788805 1_555
Br4 Cd1 2.827429 1_555
Br4 K1 3.268648 1_555
Br4 Cs2 3.632527 1_555
Br4 Cs5 3.703928 1_555
Br4 Cs1 3.746537 1_655
Br4 Cs3 3.788805 1_555
Br5 Cd1 2.827429 1_555
Br5 K1 3.268648 1_555
Br5 Cs1 3.632527 1_555
Br5 Cs3 3.703928 1_555
Br5 Cs0 3.746537 1_565
Br5 Cs4 3.788805 1_555
Br6 Cd1 2.827429 1_555
Br6 K0 3.268648 1_555
Br6 Cs4 3.632527 1_555
Br6 Cs1 3.703928 1_555
Br6 Cs5 3.746537 1_455
Br6 Cs0 3.788805 1_555
Br7 Cd1 2.827429 1_555
Br7 K0 3.268648 1_555
Br7 Cs3 3.632527 1_555
Br7 Cs2 3.703928 1_555
Br7 Cs4 3.746537 1_554
Br7 Cs1 3.788805 1_555
Br8 Cd1 2.827429 1_555
Br8 K0 3.268648 1_555
Br8 Cs5 3.632527 1_555
Br8 Cs0 3.703928 1_555
Br8 Cs3 3.746537 1_545
Br8 Cs2 3.788805 1_555
Br9 Cd0 2.827429 1_665
Br9 K1 3.268648 1_554
Br9 Cs1 3.632527 1_655
Br9 Cs4 3.703928 1_654
Br9 Cs2 3.746537 1_555
Br9 Cs3 3.788805 1_555
Br10 Cd0 2.827429 1_566
Br10 K1 3.268648 1_455
Br10 Cs0 3.632527 1_565
Br10 Cs5 3.703928 1_465
Br10 Cs1 3.746537 1_555
Br10 Cs4 3.788805 1_555
Br11 Cd0 2.827429 1_656
Br11 K1 3.268648 1_545
Br11 Cs2 3.632527 1_556
Br11 Cs3 3.703928 1_546
Br11 Cs0 3.746537 1_555
Br11 Cs5 3.788805 1_555
