# generated using pymatgen
data_HgBi3(Rh2O7)2
_symmetry_space_group_name_H-M   'P 1'
_cell_length_a   7.32027467
_cell_length_b   7.11407139
_cell_length_c   7.32039130
_cell_angle_alpha   59.04937063
_cell_angle_beta   60.01688836
_cell_angle_gamma   59.04906069
_symmetry_Int_Tables_number   1
_chemical_formula_structural   HgBi3(Rh2O7)2
_chemical_formula_sum   'Hg1 Bi3 Rh4 O14'
_cell_volume   265.65959626
_cell_formula_units_Z   1
loop_
 _symmetry_equiv_pos_site_id
 _symmetry_equiv_pos_as_xyz
  1  'x, y, z'
loop_
 _atom_site_type_symbol
 _atom_site_label
 _atom_site_symmetry_multiplicity
 _atom_site_fract_x
 _atom_site_fract_y
 _atom_site_fract_z
 _atom_site_occupancy
  Hg  Hg0  1  0.12500000  0.62500000  0.12500000  1
  Bi  Bi0  1  0.12500000  0.12500000  0.12500000  1
  Bi  Bi1  1  0.62500000  0.12500000  0.12500000  1
  Bi  Bi2  1  0.12500000  0.12500000  0.62500000  1
  Rh  Rh0  1  0.62500000  0.62500000  0.62500000  1
  Rh  Rh1  1  0.62500000  0.62500000  0.12500000  1
  Rh  Rh2  1  0.12500000  0.62500000  0.62500000  1
  Rh  Rh3  1  0.62500000  0.12500000  0.62500000  1
  O  O0  1  0.25218760  0.24355725  0.25218306  1
  O  O1  1  0.29568336  0.71012530  0.29567156  1
  O  O2  1  0.95600720  0.96110702  0.54146954  1
  O  O3  1  0.54151531  0.96106470  0.54151795  1
  O  O4  1  0.69848482  0.71009881  0.29568802  1
  O  O5  1  0.95430425  0.53990146  0.55151673  1
  O  O6  1  0.70848469  0.28893530  0.70848205  1
  O  O7  1  0.29399280  0.28889298  0.70853046  1
  O  O8  1  0.70853289  0.28890110  0.29398128  1
  O  O9  1  0.29569575  0.71009854  0.69848327  1
  O  O10  1  0.95431664  0.53987470  0.95432844  1
  O  O11  1  0.55151518  0.53990119  0.95431198  1
  O  O12  1  0.99781240  0.00644275  0.99781694  1
  O  O13  1  0.54146711  0.96109890  0.95601872  1
loop_
_geom_bond_atom_site_label_1
_geom_bond_atom_site_label_2
_geom_bond_distance
_geom_bond_site_symmetry_2
Hg0 O12 2.183176 1_464
Hg0 O0 2.183176 1_555
Hg0 O1 2.570137 1_555
Hg0 O10 2.570137 1_454
Hg0 O4 2.571101 1_455
Hg0 O11 2.571101 1_554
Hg0 O5 2.571158 1_455
Hg0 O9 2.571158 1_554
Bi0 O0 2.219655 1_555
Bi0 O12 2.219655 1_454
Bi0 O10 2.409822 1_454
Bi0 O1 2.409822 1_545
Bi0 O13 2.498386 1_544
Bi0 O8 2.498386 1_455
Bi0 O7 2.498446 1_554
Bi0 O2 2.498446 1_445
Bi1 O12 2.219600 1_554
Bi1 O0 2.219600 1_555
Bi1 O11 2.409946 1_554
Bi1 O4 2.409946 1_545
Bi1 O8 2.497337 1_555
Bi1 O13 2.497337 1_544
Bi1 O3 2.498697 1_545
Bi1 O6 2.498697 1_554
Bi2 O12 2.219670 1_455
Bi2 O0 2.219670 1_555
Bi2 O5 2.409944 1_455
Bi2 O9 2.409944 1_545
Bi2 O7 2.497339 1_555
Bi2 O2 2.497339 1_445
Bi2 O3 2.498632 1_545
Bi2 O6 2.498632 1_455
O1 Rh1 2.001344 1_555
O1 Rh2 2.001453 1_555
O2 Rh2 1.957329 1_655
O2 Rh3 1.987721 1_565
O3 Rh0 1.957134 1_555
O3 Rh3 1.986602 1_565
O4 Rh1 2.000498 1_555
O4 Rh0 2.001251 1_555
O5 Rh2 2.000529 1_655
O5 Rh0 2.001161 1_555
O6 Rh0 1.957134 1_555
O6 Rh3 1.986602 1_555
O7 Rh2 1.957329 1_555
O7 Rh3 1.987721 1_555
O8 Rh1 1.957279 1_555
O8 Rh3 1.987830 1_555
O9 Rh2 2.000529 1_555
O9 Rh0 2.001161 1_555
O10 Rh1 2.001344 1_556
O10 Rh2 2.001453 1_655
O11 Rh1 2.000498 1_556
O11 Rh0 2.001251 1_555
O13 Rh1 1.957279 1_556
O13 Rh3 1.987830 1_565
