# generated using pymatgen
data_Lu4FeSi4Rh
_symmetry_space_group_name_H-M   'P 1'
_cell_length_a   5.49065689
_cell_length_b   5.49065579
_cell_length_c   9.79097953
_cell_angle_alpha   64.12649578
_cell_angle_beta   64.12649865
_cell_angle_gamma   44.36914691
_symmetry_Int_Tables_number   1
_chemical_formula_structural   Lu4FeSi4Rh
_chemical_formula_sum   'Lu4 Fe1 Si4 Rh1'
_cell_volume   182.04854977
_cell_formula_units_Z   1
loop_
 _symmetry_equiv_pos_site_id
 _symmetry_equiv_pos_as_xyz
  1  'x, y, z'
loop_
 _atom_site_type_symbol
 _atom_site_label
 _atom_site_symmetry_multiplicity
 _atom_site_fract_x
 _atom_site_fract_y
 _atom_site_fract_z
 _atom_site_occupancy
  Lu  Lu0  1  0.99836804  0.99836804  0.32624415  1
  Lu  Lu1  1  0.00282664  0.00282664  0.67184215  1
  Lu  Lu2  1  0.81248041  0.81248041  0.10834618  1
  Lu  Lu3  1  0.18611889  0.18611889  0.88873091  1
  Fe  Fe0  1  0.27320358  0.27320358  0.36763795  1
  Si  Si0  1  0.64566797  0.64566797  0.43465089  1
  Si  Si1  1  0.36262289  0.36262289  0.55881857  1
  Si  Si2  1  0.50681121  0.50681121  0.12272158  1
  Si  Si3  1  0.48437442  0.48437442  0.88278556  1
  Rh  Rh0  1  0.72752595  0.72752595  0.63822006  1
loop_
_geom_bond_atom_site_label_1
_geom_bond_atom_site_label_2
_geom_bond_distance
_geom_bond_site_symmetry_2
Lu0 Si2 2.848715 1_655
Lu0 Si2 2.848715 1_565
Lu0 Si1 2.902806 1_655
Lu0 Si1 2.902806 1_565
Lu0 Rh0 2.997658 1_555
Lu0 Si0 3.027656 1_565
Lu0 Si0 3.027657 1_655
Lu0 Si0 3.225039 1_555
Lu1 Si3 2.869469 1_455
Lu1 Si3 2.869469 1_545
Lu1 Si0 2.936298 1_455
Lu1 Si0 2.936298 1_545
Lu1 Rh0 2.968737 1_445
Lu1 Rh0 2.986326 1_455
Lu1 Rh0 2.986327 1_545
Lu1 Si1 3.007044 1_545
Lu1 Si1 3.007045 1_455
Lu2 Si0 2.824248 1_555
Lu2 Si2 2.912888 1_565
Lu2 Si2 2.912889 1_655
Lu2 Si3 2.931263 1_564
Lu2 Si3 2.931264 1_654
Lu2 Si2 3.044365 1_555
Lu3 Si1 2.861965 1_555
Lu3 Si3 2.936411 1_545
Lu3 Si3 2.936412 1_455
Lu3 Si2 2.989002 1_546
Lu3 Si2 2.989002 1_456
Lu3 Si3 3.005784 1_555
Lu3 Rh0 3.085146 1_545
Lu3 Rh0 3.085146 1_455
Fe0 Si0 2.368235 1_545
Fe0 Si0 2.368236 1_455
Fe0 Si1 2.436131 1_555
Fe0 Si2 2.454374 1_555
Fe0 Lu1 2.951551 1_555
Fe0 Lu0 2.971530 1_455
Fe0 Lu0 2.971531 1_545
Fe0 Lu0 3.006958 1_445
Fe0 Lu2 3.153919 1_545
Fe0 Lu2 3.153919 1_455
Si0 Si1 2.542353 1_555
Si2 Si3 2.464955 1_554
Rh0 Si1 2.404817 1_565
Rh0 Si1 2.404818 1_655
Rh0 Si0 2.495826 1_555
Rh0 Si3 2.503321 1_555
