# generated using pymatgen
data_Ta10Ga4SiP
_symmetry_space_group_name_H-M   'P 1'
_cell_length_a   6.60695306
_cell_length_b   7.57806886
_cell_length_c   6.60170662
_cell_angle_alpha   115.87992139
_cell_angle_beta   89.88081807
_cell_angle_gamma   115.90191359
_symmetry_Int_Tables_number   1
_chemical_formula_structural   Ta10Ga4SiP
_chemical_formula_sum   'Ta10 Ga4 Si1 P1'
_cell_volume   260.14641607
_cell_formula_units_Z   1
loop_
 _symmetry_equiv_pos_site_id
 _symmetry_equiv_pos_as_xyz
  1  'x, y, z'
loop_
 _atom_site_type_symbol
 _atom_site_label
 _atom_site_symmetry_multiplicity
 _atom_site_fract_x
 _atom_site_fract_y
 _atom_site_fract_z
 _atom_site_occupancy
  Ta  Ta0  1  0.99281862  1.00000000  0.99968164  1
  Ta  Ta1  1  0.50667379  0.00000000  0.49602709  1
  Ta  Ta2  1  0.51973748  0.70349422  0.69021823  1
  Ta  Ta3  1  0.19149790  0.69681329  0.01210489  1
  Ta  Ta4  1  0.68268145  0.70448440  0.18753836  1
  Ta  Ta5  1  0.00486579  0.69315440  0.51031764  1
  Ta  Ta6  1  0.49468561  0.30318671  0.31529260  1
  Ta  Ta7  1  0.81624426  0.29650578  0.98672502  1
  Ta  Ta8  1  0.31171239  0.30684560  0.81716424  1
  Ta  Ta9  1  0.97819805  0.29551560  0.48305497  1
  Ga  Ga0  1  0.75127124  0.49992795  0.75573747  1
  Ga  Ga1  1  0.25134329  0.50007205  0.25580852  1
  Ga  Ga2  1  0.13468874  0.00000000  0.36756726  1
  Ga  Ga3  1  0.36202931  1.00000000  0.86281417  1
  Si  Si0  1  0.87256980  1.00000000  0.62991692  1
  P  P0  1  0.62898027  0.00000000  0.13003298  1
loop_
_geom_bond_atom_site_label_1
_geom_bond_atom_site_label_2
_geom_bond_distance
_geom_bond_site_symmetry_2
Ga0 Ta9 2.733416 1_555
Ga0 Ta4 2.735901 1_556
Ga0 Ta5 2.737284 1_655
Ga0 Ta7 2.742077 1_555
Ga0 Ta8 2.745914 1_555
Ga0 Ta2 2.748426 1_555
Ga0 Ta3 2.752263 1_656
Ga0 Ta6 2.753044 1_555
Ga0 Ta1 2.982636 1_555
Ga0 Ta0 2.983392 1_555
Ga1 Ta4 2.733411 1_555
Ga1 Ta9 2.735909 1_455
Ga1 Ta8 2.737276 1_554
Ga1 Ta2 2.742074 1_555
Ga1 Ta5 2.745919 1_555
Ga1 Ta7 2.748416 1_454
Ga1 Ta6 2.752273 1_555
Ga1 Ta3 2.753046 1_555
Ga1 Ta1 2.982636 1_565
Ga1 Ta0 2.983392 1_444
Ga2 Si0 2.446702 1_445
Ga2 Ta1 2.601556 1_555
Ga2 Ta0 2.605093 1_444
Ga2 Ta3 2.639986 1_545
Ga2 Ta6 2.639986 1_555
Ga2 Ta9 2.682252 1_455
Ga2 Ta4 2.682258 1_445
Ga2 Ta5 2.682898 1_545
Ga2 Ta8 2.682903 1_555
Ga3 P0 2.497148 1_566
Ga3 Ta0 2.599561 1_455
Ga3 Ta1 2.601334 1_565
Ga3 Ta8 2.626001 1_565
Ga3 Ta5 2.626008 1_555
Ga3 Ta3 2.688897 1_556
Ga3 Ta6 2.688901 1_566
Ga3 Ta2 2.690401 1_555
Ga3 Ta7 2.690406 1_565
Si0 Ta0 2.568682 1_555
Si0 Ta1 2.575708 1_565
Si0 Ta7 2.615772 1_565
Si0 Ta2 2.615772 1_555
Si0 Ta5 2.639035 1_655
Si0 Ta8 2.639040 1_665
Si0 Ta9 2.639946 1_565
Si0 Ta4 2.639952 1_555
P0 Ta1 2.546137 1_555
P0 Ta0 2.551565 1_544
P0 Ta4 2.592681 1_545
P0 Ta9 2.592688 1_555
P0 Ta6 2.623998 1_555
P0 Ta3 2.624002 1_545
P0 Ta7 2.626149 1_554
P0 Ta2 2.626154 1_544
