# generated using pymatgen
data_Pr2USe4
_symmetry_space_group_name_H-M   'P 1'
_cell_length_a   7.70755838
_cell_length_b   7.70755838
_cell_length_c   7.70755838
_cell_angle_alpha   109.33885962
_cell_angle_beta   109.33885962
_cell_angle_gamma   109.73626823
_symmetry_Int_Tables_number   1
_chemical_formula_structural   Pr2USe4
_chemical_formula_sum   'Pr4 U2 Se8'
_cell_volume   352.46954940
_cell_formula_units_Z   2
loop_
 _symmetry_equiv_pos_site_id
 _symmetry_equiv_pos_as_xyz
  1  'x, y, z'
loop_
 _atom_site_type_symbol
 _atom_site_label
 _atom_site_symmetry_multiplicity
 _atom_site_fract_x
 _atom_site_fract_y
 _atom_site_fract_z
 _atom_site_occupancy
  Pr  Pr0  1  0.49885000  0.87500000  0.12385000  1
  Pr  Pr1  1  0.75115000  0.37500000  0.87615000  1
  Pr  Pr2  1  0.12500000  0.24885000  0.62385000  1
  Pr  Pr3  1  0.62500000  0.50115000  0.37615000  1
  U  U0  1  0.25000000  0.75000000  0.50000000  1
  U  U1  1  0.00000000  0.00000000  0.00000000  1
  Se  Se0  1  0.02991800  0.63102500  0.75101500  1
  Se  Se1  1  0.52890400  0.63001100  0.74898500  1
  Se  Se2  1  0.88102500  0.77991800  0.25101500  1
  Se  Se3  1  0.36897500  0.11998900  0.39889300  1
  Se  Se4  1  0.72109600  0.97008200  0.60110700  1
  Se  Se5  1  0.88001100  0.27890400  0.24898500  1
  Se  Se6  1  0.36998900  0.11897500  0.89889300  1
  Se  Se7  1  0.22008200  0.47109600  0.10110700  1
loop_
_geom_bond_atom_site_label_1
_geom_bond_atom_site_label_2
_geom_bond_distance
_geom_bond_site_symmetry_2
Pr0 Se3 3.015375 1_565
Pr0 Se1 3.015381 1_554
Pr0 Se7 3.034853 1_555
Pr0 Se5 3.034856 1_565
Pr0 Se0 3.131949 1_554
Pr0 Se6 3.131952 1_564
Pr0 Se4 3.193121 1_555
Pr0 Se2 3.193121 1_555
Pr1 Se4 3.015375 1_545
Pr1 Se2 3.015379 1_556
Pr1 Se0 3.034847 1_655
Pr1 Se6 3.034853 1_555
Pr1 Se5 3.131945 1_556
Pr1 Se7 3.131952 1_656
Pr1 Se3 3.193121 1_555
Pr1 Se1 3.193123 1_555
Pr2 Se6 3.015375 1_555
Pr2 Se5 3.015381 1_455
Pr2 Se4 3.034853 1_445
Pr2 Se1 3.034856 1_555
Pr2 Se2 3.131949 1_445
Pr2 Se3 3.131952 1_555
Pr2 Se7 3.193121 1_556
Pr2 Se0 3.193121 1_555
Pr3 Se7 3.015375 1_555
Pr3 Se0 3.015379 1_655
Pr3 Se2 3.034847 1_555
Pr3 Se3 3.034853 1_555
Pr3 Se1 3.131945 1_555
Pr3 Se4 3.131952 1_555
Pr3 Se6 3.193121 1_554
Pr3 Se5 3.193123 1_555
Se0 U1 2.990836 1_566
Se0 U0 3.124018 1_555
Se1 U0 2.990835 1_555
Se1 U1 3.124011 1_666
Se2 U0 2.990836 1_655
Se2 U1 3.124018 1_665
Se3 U1 2.990839 1_555
Se3 U0 3.124011 1_545
Se4 U1 2.990839 1_666
Se4 U0 3.124011 1_555
Se5 U1 2.990835 1_655
Se5 U0 3.124011 1_655
Se6 U0 2.990839 1_545
Se6 U1 3.124011 1_556
Se7 U0 2.990839 1_555
Se7 U1 3.124011 1_555
