# generated using pymatgen
data_Y2SiPtI2
_symmetry_space_group_name_H-M   'P 1'
_cell_length_a   4.19227317
_cell_length_b   4.19227267
_cell_length_c   11.68282052
_cell_angle_alpha   90.00000000
_cell_angle_beta   90.00000000
_cell_angle_gamma   119.99999617
_symmetry_Int_Tables_number   1
_chemical_formula_structural   Y2SiPtI2
_chemical_formula_sum   'Y2 Si1 Pt1 I2'
_cell_volume   177.81870731
_cell_formula_units_Z   1
loop_
 _symmetry_equiv_pos_site_id
 _symmetry_equiv_pos_as_xyz
  1  'x, y, z'
loop_
 _atom_site_type_symbol
 _atom_site_label
 _atom_site_symmetry_multiplicity
 _atom_site_fract_x
 _atom_site_fract_y
 _atom_site_fract_z
 _atom_site_occupancy
  Y  Y0  1  0.00000000  0.00000000  0.84117861  1
  Y  Y1  1  0.00000000  0.00000000  0.16072783  1
  Si  Si0  1  0.66666700  0.33333300  0.00951199  1
  Pt  Pt0  1  0.33333300  0.66666700  0.98964897  1
  I  I0  1  0.33333300  0.66666700  0.33529541  1
  I  I1  1  0.66666700  0.33333300  0.66363618  1
loop_
_geom_bond_atom_site_label_1
_geom_bond_atom_site_label_2
_geom_bond_distance
_geom_bond_site_symmetry_2
Si0 Y1 2.996556 1_655
Si0 Y1 2.996558 1_665
Si0 Y1 2.996559 1_555
Si0 Y0 3.118641 1_654
Si0 Y0 3.118644 1_664
Si0 Y0 3.118644 1_554
Pt0 Si0 2.431506 1_566
Pt0 Si0 2.431506 1_456
Pt0 Si0 2.431513 1_556
Pt0 Y0 2.977758 1_565
Pt0 Y0 2.977761 1_555
Pt0 Y0 2.977762 1_665
Pt0 Y1 3.138966 1_566
Pt0 Y1 3.138969 1_556
Pt0 Y1 3.138969 1_666
I0 Y1 3.165074 1_565
I0 Y1 3.165077 1_555
I0 Y1 3.165077 1_665
I1 Y0 3.187579 1_655
I1 Y0 3.187582 1_665
I1 Y0 3.187582 1_555
