# generated using pymatgen
data_CsAsClF3
_symmetry_space_group_name_H-M   'P 1'
_cell_length_a   4.72074559
_cell_length_b   7.83205282
_cell_length_c   8.57672036
_cell_angle_alpha   113.09766314
_cell_angle_beta   98.16361942
_cell_angle_gamma   103.83891575
_symmetry_Int_Tables_number   1
_chemical_formula_structural   CsAsClF3
_chemical_formula_sum   'Cs2 As2 Cl2 F6'
_cell_volume   273.16883375
_cell_formula_units_Z   2
loop_
 _symmetry_equiv_pos_site_id
 _symmetry_equiv_pos_as_xyz
  1  'x, y, z'
loop_
 _atom_site_type_symbol
 _atom_site_label
 _atom_site_symmetry_multiplicity
 _atom_site_fract_x
 _atom_site_fract_y
 _atom_site_fract_z
 _atom_site_occupancy
  Cs  Cs0  1  0.98812071  0.66590306  0.31701835  1
  Cs  Cs1  1  0.01187961  0.33412546  0.68300418  1
  As  As0  1  0.35269427  0.14416055  0.20201122  1
  As  As1  1  0.64732589  0.85586398  0.79803839  1
  Cl  Cl0  1  0.46365990  0.77656738  0.06892786  1
  Cl  Cl1  1  0.53636677  0.22342602  0.93106362  1
  F  F0  1  0.36168823  0.39435511  0.30616555  1
  F  F1  1  0.74855004  0.22541335  0.28869741  1
  F  F2  1  0.30747863  0.11555871  0.39734121  1
  F  F3  1  0.69249594  0.88441254  0.60261940  1
  F  F4  1  0.25139571  0.77458170  0.71130852  1
  F  F5  1  0.63834632  0.60563015  0.69380329  1
loop_
_geom_bond_atom_site_label_1
_geom_bond_atom_site_label_2
_geom_bond_distance
_geom_bond_site_symmetry_2
Cs0 F0 3.054076 1_655
Cs0 F3 3.114626 1_555
Cs0 F4 3.122026 1_655
Cs0 F0 3.167776 1_555
Cs0 F2 3.226699 1_665
Cs0 F1 3.261610 1_555
Cs0 F3 3.414842 1_655
Cs1 F5 3.053750 1_455
Cs1 F2 3.115035 1_555
Cs1 F1 3.122138 1_455
Cs1 F5 3.167921 1_555
Cs1 F3 3.226973 1_445
Cs1 F4 3.261396 1_555
Cs1 F2 3.415131 1_455
As0 F1 1.764993 1_555
As0 F0 1.793208 1_555
As0 F2 1.809826 1_555
As0 Cl1 2.825617 1_554
As0 Cl0 2.859879 1_545
As1 F4 1.765349 1_555
As1 F5 1.793549 1_555
As1 F3 1.810344 1_555
As1 Cl0 2.825245 1_556
As1 Cl1 2.859631 1_565
Cl0 Cs0 3.491576 1_455
Cl0 Cs0 3.519371 1_555
Cl0 Cs1 3.601767 1_554
Cl1 Cs1 3.491371 1_655
Cl1 Cs1 3.519474 1_555
Cl1 Cs0 3.601987 1_556
