# generated using pymatgen
data_LiHg2BrO2
_symmetry_space_group_name_H-M   'P 1'
_cell_length_a   6.41680382
_cell_length_b   6.41689166
_cell_length_c   9.16989707
_cell_angle_alpha   90.00000000
_cell_angle_beta   90.00000000
_cell_angle_gamma   120.00116984
_symmetry_Int_Tables_number   1
_chemical_formula_structural   LiHg2BrO2
_chemical_formula_sum   'Li3 Hg6 Br3 O6'
_cell_volume   326.98922445
_cell_formula_units_Z   3
loop_
 _symmetry_equiv_pos_site_id
 _symmetry_equiv_pos_as_xyz
  1  'x, y, z'
loop_
 _atom_site_type_symbol
 _atom_site_label
 _atom_site_symmetry_multiplicity
 _atom_site_fract_x
 _atom_site_fract_y
 _atom_site_fract_z
 _atom_site_occupancy
  Li  Li0  1  0.00000000  0.00000000  0.16763417  1
  Li  Li1  1  0.00000000  0.00000000  0.83235196  1
  Li  Li2  1  0.00000000  0.00000000  0.50003010  1
  Hg  Hg0  1  0.50000000  0.50000000  0.00310462  1
  Hg  Hg1  1  0.00000000  0.50000000  0.33625784  1
  Hg  Hg2  1  0.50000000  0.00000000  0.66968736  1
  Hg  Hg3  1  0.00000000  0.50000000  0.99689314  1
  Hg  Hg4  1  0.50000000  0.50000000  0.66373850  1
  Hg  Hg5  1  0.50000000  0.00000000  0.33031182  1
  Br  Br0  1  0.50000000  0.00000000  0.99999688  1
  Br  Br1  1  0.50000000  0.50000000  0.33348948  1
  Br  Br2  1  0.00000000  0.50000000  0.66650816  1
  O  O0  1  0.86696360  0.73392279  0.99999762  1
  O  O1  1  0.13299421  0.86691659  0.33330840  1
  O  O2  1  0.73392214  0.86691925  0.66669196  1
  O  O3  1  0.26607786  0.13308075  0.66669196  1
  O  O4  1  0.13303640  0.26607721  0.99999762  1
  O  O5  1  0.86700579  0.13308341  0.33330840  1
loop_
_geom_bond_atom_site_label_1
_geom_bond_atom_site_label_2
_geom_bond_distance
_geom_bond_site_symmetry_2
Li0 O1 2.120000 1_545
Li0 O5 2.120000 1_455
Li0 O4 2.132919 1_554
Li0 O0 2.132919 1_444
Li1 O3 2.119882 1_555
Li1 O2 2.119882 1_445
Li1 O4 2.132979 1_555
Li1 O0 2.132979 1_445
Li2 O3 2.126475 1_555
Li2 O2 2.126475 1_445
Li2 O1 2.126894 1_545
Li2 O5 2.126894 1_455
Hg0 O0 2.064955 1_554
Hg0 O4 2.064955 1_554
Hg1 O1 2.064741 1_555
Hg1 O5 2.064741 1_455
Hg2 O2 2.065184 1_545
Hg2 O3 2.065184 1_555
Hg3 O0 2.064990 1_455
Hg3 O4 2.064990 1_555
Hg4 O2 2.064736 1_555
Hg4 O3 2.064736 1_555
Hg5 O5 2.065159 1_555
Hg5 O1 2.065159 1_545
Br0 Hg2 3.028904 1_555
Br0 Hg5 3.028954 1_556
Br0 Hg3 3.208493 1_545
Br0 Hg3 3.208493 1_655
Br0 Hg0 3.208572 1_556
Br0 Hg0 3.208572 1_546
Br1 Hg4 3.028350 1_555
Br1 Hg0 3.029595 1_555
Br1 Hg1 3.208502 1_655
Br1 Hg1 3.208502 1_555
Br1 Hg5 3.208578 1_555
Br1 Hg5 3.208578 1_565
Br2 Hg1 3.028361 1_555
Br2 Hg3 3.029596 1_555
Br2 Hg2 3.208500 1_455
Br2 Hg2 3.208500 1_565
Br2 Hg4 3.208502 1_455
Br2 Hg4 3.208502 1_555
