# generated using pymatgen
data_P10Au7Br
_symmetry_space_group_name_H-M   'P 1'
_cell_length_a   6.21196496
_cell_length_b   6.21196518
_cell_length_c   11.22525725
_cell_angle_alpha   90.00000000
_cell_angle_beta   90.00000000
_cell_angle_gamma   119.99999884
_symmetry_Int_Tables_number   1
_chemical_formula_structural   P10Au7Br
_chemical_formula_sum   'P10 Au7 Br1'
_cell_volume   375.13272281
_cell_formula_units_Z   1
loop_
 _symmetry_equiv_pos_site_id
 _symmetry_equiv_pos_as_xyz
  1  'x, y, z'
loop_
 _atom_site_type_symbol
 _atom_site_label
 _atom_site_symmetry_multiplicity
 _atom_site_fract_x
 _atom_site_fract_y
 _atom_site_fract_z
 _atom_site_occupancy
  P  P0  1  0.66666700  0.33333300  0.70563303  1
  P  P1  1  0.37378919  0.00000000  0.79514878  1
  P  P2  1  0.62621081  0.62621081  0.20485122  1
  P  P3  1  1.00000000  0.37378919  0.20485122  1
  P  P4  1  1.00000000  0.37378919  0.79514878  1
  P  P5  1  0.62621081  0.62621081  0.79514878  1
  P  P6  1  0.37378919  0.00000000  0.20485122  1
  P  P7  1  0.33333300  0.66666700  0.29436697  1
  P  P8  1  0.33333300  0.66666700  0.70563303  1
  P  P9  1  0.66666700  0.33333300  0.29436697  1
  Au  Au0  1  0.33333300  0.66666700  0.50000000  1
  Au  Au1  1  0.00000000  0.00000000  0.23297206  1
  Au  Au2  1  0.66666700  0.33333300  0.50000000  1
  Au  Au3  1  0.00000000  0.00000000  0.76702794  1
  Au  Au4  1  0.00000000  0.44264890  0.00000000  1
  Au  Au5  1  0.55735110  0.55735110  0.00000000  1
  Au  Au6  1  0.44264890  0.00000000  0.00000000  1
  Br  Br0  1  0.00000000  0.00000000  0.50000000  1
loop_
_geom_bond_atom_site_label_1
_geom_bond_atom_site_label_2
_geom_bond_distance
_geom_bond_site_symmetry_2
P0 P4 2.200018 1_555
P0 P1 2.200020 1_555
P0 P5 2.200023 1_555
P1 P8 2.200018 1_545
P2 P7 2.200023 1_555
P2 P9 2.200023 1_555
P3 P9 2.200018 1_555
P3 P7 2.200020 1_655
P4 P8 2.200020 1_655
P5 P8 2.200023 1_555
P6 P7 2.200018 1_545
P6 P9 2.200020 1_555
Au0 P8 2.308284 1_555
Au0 P7 2.308284 1_555
Au1 P6 2.343324 1_555
Au1 P3 2.343324 1_455
Au1 P2 2.343324 1_445
Au1 Br0 2.997457 1_555
Au2 P0 2.308284 1_555
Au2 P9 2.308284 1_555
Au3 P1 2.343324 1_555
Au3 P4 2.343324 1_455
Au3 P5 2.343324 1_445
Au3 Br0 2.997457 1_555
Au4 P3 2.338955 1_455
Au4 P4 2.338955 1_454
Au5 P2 2.338955 1_555
Au5 P5 2.338955 1_554
Au6 P6 2.338955 1_555
Au6 P1 2.338955 1_554
