# generated using pymatgen
data_Al2Tc3B2
_symmetry_space_group_name_H-M   'P 1'
_cell_length_a   8.85955773
_cell_length_b   8.85955769
_cell_length_c   3.04021277
_cell_angle_alpha   90.00000000
_cell_angle_beta   90.00000000
_cell_angle_gamma   160.36930304
_symmetry_Int_Tables_number   1
_chemical_formula_structural   Al2Tc3B2
_chemical_formula_sum   'Al2 Tc3 B2'
_cell_volume   80.16979524
_cell_formula_units_Z   1
loop_
 _symmetry_equiv_pos_site_id
 _symmetry_equiv_pos_as_xyz
  1  'x, y, z'
loop_
 _atom_site_type_symbol
 _atom_site_label
 _atom_site_symmetry_multiplicity
 _atom_site_fract_x
 _atom_site_fract_y
 _atom_site_fract_z
 _atom_site_occupancy
  Al  Al0  1  0.41776452  0.58223548  0.50000000  1
  Al  Al1  1  0.58223548  0.41776452  0.50000000  1
  Tc  Tc0  1  0.17979792  0.82020208  0.00000000  1
  Tc  Tc1  1  0.82020208  0.17979792  0.00000000  1
  Tc  Tc2  1  0.00000000  0.00000000  0.00000000  1
  B  B0  1  0.27937514  0.72062486  0.50000000  1
  B  B1  1  0.72062486  0.27937514  0.50000000  1
loop_
_geom_bond_atom_site_label_1
_geom_bond_atom_site_label_2
_geom_bond_distance
_geom_bond_site_symmetry_2
Al0 B0 2.416244 1_555
Al0 Tc2 2.579407 1_556
Al0 Tc2 2.579407 1_555
Al0 Tc2 2.579407 1_665
Al0 Tc2 2.579407 1_666
Al0 Tc1 2.737410 1_566
Al0 Tc1 2.737410 1_565
Al0 Tc1 2.737410 1_455
Al0 Tc1 2.737410 1_456
Al1 B1 2.416244 1_555
Al1 Tc2 2.579407 1_666
Al1 Tc2 2.579407 1_665
Al1 Tc2 2.579407 1_556
Al1 Tc2 2.579407 1_555
Al1 Tc0 2.737410 1_546
Al1 Tc0 2.737410 1_545
Al1 Tc0 2.737410 1_655
Al1 Tc0 2.737410 1_656
B0 B1 1.825722 1_565
B0 B1 1.825722 1_455
B0 Tc1 2.258299 1_455
B0 Tc1 2.258299 1_456
B0 Tc1 2.258299 1_566
B0 Tc1 2.258299 1_565
B0 Tc0 2.309422 1_555
B0 Tc0 2.309422 1_556
B1 Tc0 2.258299 1_656
B1 Tc0 2.258299 1_655
B1 Tc0 2.258299 1_546
B1 Tc0 2.258299 1_545
B1 Tc1 2.309422 1_556
B1 Tc1 2.309422 1_555
