# generated using pymatgen
data_Na2Ag4Te3
_symmetry_space_group_name_H-M   'P 1'
_cell_length_a   9.18134064
_cell_length_b   9.18134068
_cell_length_c   11.77152740
_cell_angle_alpha   73.64961025
_cell_angle_beta   73.64960927
_cell_angle_gamma   29.28074591
_symmetry_Int_Tables_number   1
_chemical_formula_structural   Na2Ag4Te3
_chemical_formula_sum   'Na4 Ag8 Te6'
_cell_volume   464.32847305
_cell_formula_units_Z   2
loop_
 _symmetry_equiv_pos_site_id
 _symmetry_equiv_pos_as_xyz
  1  'x, y, z'
loop_
 _atom_site_type_symbol
 _atom_site_label
 _atom_site_symmetry_multiplicity
 _atom_site_fract_x
 _atom_site_fract_y
 _atom_site_fract_z
 _atom_site_occupancy
  Na  Na0  1  0.18472765  0.18472765  0.64962394  1
  Na  Na1  1  0.81527235  0.81527235  0.35037606  1
  Na  Na2  1  0.65912526  0.65912526  0.16842139  1
  Na  Na3  1  0.34087474  0.34087474  0.83157861  1
  Ag  Ag0  1  0.40842868  0.40842868  0.53832613  1
  Ag  Ag1  1  0.99860612  0.99860612  0.87738541  1
  Ag  Ag2  1  0.97497425  0.97497425  0.63163418  1
  Ag  Ag3  1  0.41464471  0.41464471  0.07138880  1
  Ag  Ag4  1  0.59157132  0.59157132  0.46167387  1
  Ag  Ag5  1  0.58535529  0.58535529  0.92861120  1
  Ag  Ag6  1  0.02502575  0.02502575  0.36836582  1
  Ag  Ag7  1  0.00139388  0.00139388  0.12261459  1
  Te  Te0  1  0.15566848  0.15566848  0.96715193  1
  Te  Te1  1  0.81750347  0.81750347  0.63146633  1
  Te  Te2  1  0.53878957  0.53878957  0.71331178  1
  Te  Te3  1  0.18249653  0.18249653  0.36853367  1
  Te  Te4  1  0.46121043  0.46121043  0.28668822  1
  Te  Te5  1  0.84433152  0.84433152  0.03284807  1
loop_
_geom_bond_atom_site_label_1
_geom_bond_atom_site_label_2
_geom_bond_distance
_geom_bond_site_symmetry_2
Na0 Te1 3.271409 1_545
Na0 Te1 3.271409 1_455
Na0 Te3 3.320612 1_555
Na0 Te2 3.396867 1_455
Na0 Te2 3.396867 1_545
Na0 Te0 3.621418 1_555
Na1 Te3 3.271409 1_565
Na1 Te3 3.271409 1_655
Na1 Te1 3.320612 1_555
Na1 Te4 3.396867 1_655
Na1 Te4 3.396867 1_565
Na1 Te5 3.621418 1_555
Na2 Te5 3.212204 1_555
Na2 Te0 3.329706 1_654
Na2 Te0 3.329707 1_564
Na2 Te4 3.384308 1_555
Na2 Te3 3.416977 1_565
Na2 Te3 3.416977 1_655
Na3 Te0 3.212204 1_555
Na3 Te5 3.329706 1_456
Na3 Te5 3.329707 1_546
Na3 Te2 3.384308 1_555
Na3 Te1 3.416977 1_545
Na3 Te1 3.416977 1_455
Ag0 Te4 2.835023 1_555
Ag0 Te1 2.857653 1_455
Ag0 Te1 2.857653 1_545
Ag0 Na3 3.308480 1_555
Ag1 Te5 2.818292 1_556
Ag1 Ag7 2.901520 1_666
Ag1 Ag5 2.943632 1_565
Ag1 Ag5 2.943632 1_655
Ag1 Te2 2.970312 1_655
Ag1 Te2 2.970312 1_565
Ag1 Ag2 3.041668 1_555
Ag1 Te0 3.258684 1_665
Ag1 Ag3 3.292920 1_566
Ag1 Ag3 3.292920 1_656
Ag1 Na0 3.600507 1_665
Ag1 Na3 3.795823 1_565
Ag1 Na3 3.795823 1_655
Ag2 Te1 2.798275 1_555
Ag2 Te2 2.868687 1_565
Ag2 Te2 2.868687 1_655
Ag3 Te5 2.735202 1_545
Ag3 Te5 2.735202 1_455
Ag3 Te4 2.885786 1_555
Ag3 Ag7 2.943632 1_565
Ag3 Ag7 2.943632 1_655
Ag3 Ag5 3.009505 1_554
Ag3 Na3 3.440885 1_554
Ag4 Te2 2.835023 1_555
Ag4 Te3 2.857653 1_655
Ag4 Te3 2.857653 1_565
Ag4 Na2 3.308480 1_555
Ag5 Te0 2.735202 1_565
Ag5 Te0 2.735202 1_655
Ag5 Te2 2.885786 1_555
Ag5 Ag7 3.292920 1_566
Ag5 Ag7 3.292920 1_656
Ag5 Na2 3.440885 1_556
Ag6 Te3 2.798275 1_555
Ag6 Te4 2.868687 1_545
Ag6 Te4 2.868687 1_455
Ag6 Ag7 3.041668 1_555
Ag7 Te0 2.818292 1_554
Ag7 Te4 2.970312 1_455
Ag7 Te4 2.970312 1_545
Ag7 Te5 3.258684 1_445
Ag7 Na1 3.600507 1_445
Ag7 Na2 3.795823 1_545
Ag7 Na2 3.795823 1_455
