# generated using pymatgen
data_ZrBe2Cu2Pd
_symmetry_space_group_name_H-M   'P 1'
_cell_length_a   4.81659914
_cell_length_b   4.69424081
_cell_length_c   4.69424241
_cell_angle_alpha   60.19113578
_cell_angle_beta   59.13397551
_cell_angle_gamma   59.13395610
_symmetry_Int_Tables_number   1
_chemical_formula_structural   ZrBe2Cu2Pd
_chemical_formula_sum   'Zr1 Be2 Cu2 Pd1'
_cell_volume   74.15696755
_cell_formula_units_Z   1
loop_
 _symmetry_equiv_pos_site_id
 _symmetry_equiv_pos_as_xyz
  1  'x, y, z'
loop_
 _atom_site_type_symbol
 _atom_site_label
 _atom_site_symmetry_multiplicity
 _atom_site_fract_x
 _atom_site_fract_y
 _atom_site_fract_z
 _atom_site_occupancy
  Zr  Zr0  1  0.00052283  0.99947717  0.99947717  1
  Be  Be0  1  0.61776699  0.63146400  0.13300202  1
  Be  Be1  1  0.61776699  0.13300202  0.63146400  1
  Cu  Cu0  1  0.12444607  0.62418567  0.62418567  1
  Cu  Cu1  1  0.62718060  0.62418567  0.62418567  1
  Pd  Pd0  1  0.26231552  0.23768448  0.23768448  1
loop_
_geom_bond_atom_site_label_1
_geom_bond_atom_site_label_2
_geom_bond_distance
_geom_bond_site_symmetry_2
Be0 Cu1 2.312357 1_555
Be0 Cu0 2.312363 1_555
Be0 Be1 2.346658 1_555
Be0 Be1 2.361139 1_564
Be0 Cu0 2.382560 1_654
Be0 Cu1 2.382565 1_554
Be0 Pd0 2.607469 1_565
Be0 Zr0 2.764806 1_644
Be0 Zr0 2.789574 1_654
Be0 Zr0 2.789574 1_554
Be0 Pd0 2.840858 1_555
Be0 Pd0 2.840859 1_655
Be1 Cu1 2.312356 1_555
Be1 Cu0 2.312362 1_555
Be1 Cu0 2.382559 1_645
Be1 Cu1 2.382564 1_545
Be1 Pd0 2.607470 1_556
Be1 Zr0 2.764807 1_644
Be1 Zr0 2.789574 1_645
Be1 Zr0 2.789574 1_545
Be1 Pd0 2.840859 1_555
Be1 Pd0 2.840859 1_655
Cu0 Cu1 2.395128 1_455
Cu0 Cu1 2.421471 1_555
Cu0 Zr0 2.737020 1_555
Cu0 Pd0 2.749150 1_565
Cu0 Pd0 2.749151 1_556
Cu0 Zr0 2.764112 1_545
Cu0 Zr0 2.764113 1_554
Cu0 Pd0 2.797295 1_555
Cu1 Zr0 2.737016 1_555
Cu1 Pd0 2.749146 1_565
Cu1 Pd0 2.749147 1_556
Cu1 Zr0 2.764117 1_645
Cu1 Zr0 2.764118 1_654
Cu1 Pd0 2.797299 1_655
Pd0 Zr0 2.868344 1_544
Pd0 Zr0 2.868345 1_644
Pd0 Zr0 2.910811 1_554
Pd0 Zr0 2.910813 1_545
