# generated using pymatgen
data_K4Hf6SiI18
_symmetry_space_group_name_H-M   'P 1'
_cell_length_a   11.08062338
_cell_length_b   11.22881051
_cell_length_c   11.36091186
_cell_angle_alpha   118.58672579
_cell_angle_beta   100.33608396
_cell_angle_gamma   103.89896227
_symmetry_Int_Tables_number   1
_chemical_formula_structural   K4Hf6SiI18
_chemical_formula_sum   'K4 Hf6 Si1 I18'
_cell_volume   1130.76111290
_cell_formula_units_Z   1
loop_
 _symmetry_equiv_pos_site_id
 _symmetry_equiv_pos_as_xyz
  1  'x, y, z'
loop_
 _atom_site_type_symbol
 _atom_site_label
 _atom_site_symmetry_multiplicity
 _atom_site_fract_x
 _atom_site_fract_y
 _atom_site_fract_z
 _atom_site_occupancy
  K  K0  1  0.64665172  0.53572460  0.22629368  1
  K  K1  1  0.35334828  0.46427540  0.77370632  1
  K  K2  1  0.68662697  0.22716200  0.56640214  1
  K  K3  1  0.31337303  0.77283800  0.43359786  1
  Hf  Hf0  1  0.15015819  0.05610921  0.22798589  1
  Hf  Hf1  1  0.84984181  0.94389079  0.77201411  1
  Hf  Hf2  1  0.86472819  0.12604032  0.13258990  1
  Hf  Hf3  1  0.13527181  0.87395968  0.86741010  1
  Hf  Hf4  1  0.14388694  0.23719625  0.04503225  1
  Hf  Hf5  1  0.85611306  0.76280375  0.95496775  1
  Si  Si0  1  0.00000000  0.00000000  0.00000000  1
  I  I0  1  0.00944729  0.41533853  0.20105393  1
  I  I1  1  0.99055271  0.58466147  0.79894607  1
  I  I2  1  0.33472439  0.33822296  0.31458500  1
  I  I3  1  0.66527561  0.66177704  0.68541500  1
  I  I4  1  0.32140300  0.52718254  0.09850064  1
  I  I5  1  0.67859700  0.47281746  0.90149936  1
  I  I6  1  0.00604745  0.79362706  0.21068535  1
  I  I7  1  0.99395255  0.20637294  0.78931465  1
  I  I8  1  0.70317945  0.28039502  0.29371990  1
  I  I9  1  0.29682055  0.71960498  0.70628010  1
  I  I10  1  0.31896051  0.12888843  0.90174164  1
  I  I11  1  0.68103949  0.87111157  0.09825836  1
  I  I12  1  0.01776165  0.20812015  0.41376918  1
  I  I13  1  0.98223835  0.79187985  0.58623082  1
  I  I14  1  0.32448579  0.92181726  0.11018534  1
  I  I15  1  0.67551421  0.07818274  0.88981466  1
  I  I16  1  0.33656618  0.12230479  0.50630887  1
  I  I17  1  0.66343382  0.87769521  0.49369113  1
loop_
_geom_bond_atom_site_label_1
_geom_bond_atom_site_label_2
_geom_bond_distance
_geom_bond_site_symmetry_2
Hf0 Si0 2.502466 1_555
Hf0 I14 2.862178 1_545
Hf0 I6 2.889183 1_545
Hf0 I2 2.892823 1_555
Hf0 I12 2.896044 1_555
Hf0 I16 3.080043 1_555
Hf1 Si0 2.502466 1_666
Hf1 I15 2.862178 1_565
Hf1 I7 2.889183 1_565
Hf1 I3 2.892823 1_555
Hf1 I13 2.896044 1_555
Hf1 I17 3.080043 1_555
Hf2 Si0 2.511566 1_655
Hf2 I15 2.873522 1_554
Hf2 I11 2.887323 1_545
Hf2 I0 2.891516 1_655
Hf2 I12 2.901248 1_655
Hf2 I8 3.031423 1_555
Hf3 Si0 2.511566 1_566
Hf3 I14 2.873522 1_556
Hf3 I10 2.887323 1_565
Hf3 I1 2.891516 1_455
Hf3 I13 2.901248 1_455
Hf3 I9 3.031423 1_555
Hf4 Si0 2.502156 1_555
Hf4 I10 2.874807 1_554
Hf4 I2 2.887175 1_555
Hf4 I0 2.889350 1_555
Hf4 I7 2.889558 1_454
Hf4 I4 3.072815 1_555
Hf5 Si0 2.502156 1_666
Hf5 I11 2.874807 1_556
Hf5 I3 2.887175 1_555
Hf5 I1 2.889350 1_555
Hf5 I6 2.889558 1_656
Hf5 I5 3.072815 1_555
I0 K3 3.820864 1_555
I1 K2 3.820864 1_555
I4 K3 3.507143 1_555
I4 K1 3.512057 1_554
I4 K0 3.595640 1_555
I5 K2 3.507143 1_555
I5 K0 3.512057 1_556
I5 K1 3.595640 1_555
I6 K3 3.989665 1_555
I7 K2 3.989665 1_555
I8 K2 3.451283 1_555
I8 K0 3.462858 1_555
I9 K3 3.451283 1_555
I9 K1 3.462858 1_555
I16 K1 3.507020 1_555
I16 K3 3.533298 1_545
I16 K2 3.603409 1_555
I17 K0 3.507020 1_555
I17 K2 3.533298 1_565
I17 K3 3.603409 1_555
