# generated using pymatgen
data_Th3Pd5
_symmetry_space_group_name_H-M   'P 1'
_cell_length_a   7.70164369
_cell_length_b   7.70164369
_cell_length_c   3.46655200
_cell_angle_alpha   90.00000000
_cell_angle_beta   90.00000000
_cell_angle_gamma   119.99999736
_symmetry_Int_Tables_number   1
_chemical_formula_structural   Th3Pd5
_chemical_formula_sum   'Th3 Pd5'
_cell_volume   178.07182421
_cell_formula_units_Z   1
loop_
 _symmetry_equiv_pos_site_id
 _symmetry_equiv_pos_as_xyz
  1  'x, y, z'
loop_
 _atom_site_type_symbol
 _atom_site_label
 _atom_site_symmetry_multiplicity
 _atom_site_fract_x
 _atom_site_fract_y
 _atom_site_fract_z
 _atom_site_occupancy
  Th  Th0  1  0.72862600  0.00000000  0.00000000  1
  Th  Th1  1  0.27137400  0.27137400  0.00000000  1
  Th  Th2  1  0.00000000  0.72862600  0.00000000  1
  Pd  Pd0  1  0.33333300  0.66666700  0.00000000  1
  Pd  Pd1  1  0.66666700  0.33333300  0.00000000  1
  Pd  Pd2  1  0.35947500  0.00000000  0.50000000  1
  Pd  Pd3  1  0.64052500  0.64052500  0.50000000  1
  Pd  Pd4  1  0.00000000  0.35947500  0.50000000  1
loop_
_geom_bond_atom_site_label_1
_geom_bond_atom_site_label_2
_geom_bond_distance
_geom_bond_site_symmetry_2
Pd0 Th2 2.836075 1_555
Pd0 Th0 2.836080 1_565
Pd0 Th1 2.836083 1_555
Pd0 Pd2 3.019683 1_565
Pd0 Pd2 3.019683 1_564
Pd0 Pd4 3.019686 1_554
Pd0 Pd4 3.019686 1_555
Pd0 Pd3 3.019689 1_555
Pd0 Pd3 3.019689 1_554
Pd1 Th0 2.836075 1_555
Pd1 Th2 2.836080 1_655
Pd1 Th1 2.836083 1_555
Pd1 Pd4 3.019683 1_655
Pd1 Pd4 3.019683 1_654
Pd1 Pd2 3.019686 1_555
Pd1 Pd2 3.019686 1_554
Pd1 Pd3 3.019689 1_555
Pd1 Pd3 3.019689 1_554
Pd2 Th1 3.041542 1_555
Pd2 Th1 3.041542 1_556
Pd2 Th2 3.041542 1_546
Pd2 Th2 3.041542 1_545
Pd2 Th0 3.329758 1_555
Pd2 Th0 3.329758 1_556
Pd3 Th0 3.041542 1_565
Pd3 Th0 3.041542 1_566
Pd3 Th2 3.041542 1_655
Pd3 Th2 3.041542 1_656
Pd3 Th1 3.329758 1_556
Pd3 Th1 3.329758 1_555
Pd4 Th1 3.041542 1_555
Pd4 Th1 3.041542 1_556
Pd4 Th0 3.041542 1_455
Pd4 Th0 3.041542 1_456
Pd4 Th2 3.329758 1_556
Pd4 Th2 3.329758 1_555
