# generated using pymatgen
data_Cs2Cd(PS3)2
_symmetry_space_group_name_H-M   'P 1'
_cell_length_a   12.80321926
_cell_length_b   6.34363181
_cell_length_c   9.73897316
_cell_angle_alpha   53.83966497
_cell_angle_beta   90.00000000
_cell_angle_gamma   90.00000000
_symmetry_Int_Tables_number   1
_chemical_formula_structural   Cs2Cd(PS3)2
_chemical_formula_sum   'Cs4 Cd2 P4 S12'
_cell_volume   638.61980497
_cell_formula_units_Z   2
loop_
 _symmetry_equiv_pos_site_id
 _symmetry_equiv_pos_as_xyz
  1  'x, y, z'
loop_
 _atom_site_type_symbol
 _atom_site_label
 _atom_site_symmetry_multiplicity
 _atom_site_fract_x
 _atom_site_fract_y
 _atom_site_fract_z
 _atom_site_occupancy
  Cs  Cs0  1  0.32807476  0.21528340  0.52231728  1
  Cs  Cs1  1  0.67192524  0.78471660  0.47768272  1
  Cs  Cs2  1  0.82807476  0.78471660  0.97768272  1
  Cs  Cs3  1  0.17192524  0.21528340  0.02231728  1
  Cd  Cd0  1  0.50000000  0.50000000  0.00000000  1
  Cd  Cd1  1  0.00000000  0.50000000  0.50000000  1
  P  P0  1  0.46091866  0.84023251  0.12206266  1
  P  P1  1  0.03908134  0.84023251  0.62206266  1
  P  P2  1  0.96091866  0.15976749  0.37793734  1
  P  P3  1  0.53908134  0.15976749  0.87793734  1
  S  S0  1  0.07677191  0.00103992  0.74192219  1
  S  S1  1  0.66282830  0.27172287  0.95091408  1
  S  S2  1  0.06767403  0.45108953  0.25519679  1
  S  S3  1  0.92322809  0.99896008  0.25807781  1
  S  S4  1  0.42322809  0.00103992  0.24192219  1
  S  S5  1  0.33717170  0.72827713  0.04908592  1
  S  S6  1  0.43232597  0.45108953  0.75519679  1
  S  S7  1  0.56767403  0.54891047  0.24480321  1
  S  S8  1  0.57677191  0.99896008  0.75807781  1
  S  S9  1  0.16282830  0.72827713  0.54908592  1
  S  S10  1  0.93232597  0.54891047  0.74480321  1
  S  S11  1  0.83717170  0.27172287  0.45091408  1
loop_
_geom_bond_atom_site_label_1
_geom_bond_atom_site_label_2
_geom_bond_distance
_geom_bond_site_symmetry_2
Cs0 S9 3.624633 1_545
Cs0 S6 3.628590 1_555
Cs0 S0 3.652846 1_555
Cs0 S8 3.684484 1_545
Cs0 S5 3.761038 1_555
Cs0 S7 3.800533 1_555
Cs0 S4 3.894618 1_555
Cs0 S2 3.940604 1_555
Cs0 S9 4.016884 1_555
Cs1 S11 3.624633 1_565
Cs1 S7 3.628590 1_555
Cs1 S3 3.652846 1_555
Cs1 S4 3.684484 1_565
Cs1 S1 3.761038 1_555
Cs1 S6 3.800533 1_555
Cs1 S8 3.894618 1_555
Cs1 S10 3.940604 1_555
Cs1 S11 4.016884 1_555
Cs2 S1 3.624633 1_565
Cs2 S10 3.628590 1_555
Cs2 S8 3.652846 1_555
Cs2 S0 3.684484 1_665
Cs2 S11 3.761038 1_556
Cs2 S2 3.800533 1_656
Cs2 S3 3.894618 1_556
Cs2 S7 3.940604 1_556
Cs2 S1 4.016884 1_555
Cs3 S5 3.624633 1_545
Cs3 S2 3.628590 1_555
Cs3 S4 3.652846 1_555
Cs3 S3 3.684484 1_445
Cs3 S9 3.761038 1_554
Cs3 S10 3.800533 1_454
Cs3 S0 3.894618 1_554
Cs3 S6 3.940604 1_554
Cs3 S5 4.016884 1_555
Cd0 S7 2.721034 1_555
Cd0 S6 2.721034 1_554
Cd0 S5 2.736523 1_555
Cd0 S1 2.736523 1_554
Cd0 S8 2.781242 1_554
Cd0 S4 2.781242 1_555
Cd1 S10 2.721034 1_455
Cd1 S2 2.721034 1_555
Cd1 S9 2.736523 1_555
Cd1 S11 2.736523 1_455
Cd1 S0 2.781242 1_555
Cd1 S3 2.781242 1_455
P0 S4 2.010301 1_565
P0 S7 2.026179 1_555
P0 S5 2.028636 1_555
P1 S0 2.010301 1_565
P1 S10 2.026179 1_455
P1 S9 2.028636 1_555
P2 S3 2.010301 1_545
P2 S2 2.026179 1_655
P2 S11 2.028636 1_555
P3 S8 2.010301 1_545
P3 S6 2.026179 1_555
P3 S1 2.028636 1_555
