# generated using pymatgen
data_CsNb(MoSe3)2
_symmetry_space_group_name_H-M   'P 1'
_cell_length_a   5.89514626
_cell_length_b   5.89514707
_cell_length_c   18.79579691
_cell_angle_alpha   90.00000000
_cell_angle_beta   90.00000000
_cell_angle_gamma   119.99999545
_symmetry_Int_Tables_number   1
_chemical_formula_structural   CsNb(MoSe3)2
_chemical_formula_sum   'Cs2 Nb2 Mo4 Se12'
_cell_volume   565.69276524
_cell_formula_units_Z   2
loop_
 _symmetry_equiv_pos_site_id
 _symmetry_equiv_pos_as_xyz
  1  'x, y, z'
loop_
 _atom_site_type_symbol
 _atom_site_label
 _atom_site_symmetry_multiplicity
 _atom_site_fract_x
 _atom_site_fract_y
 _atom_site_fract_z
 _atom_site_occupancy
  Cs  Cs0  1  0.00000000  0.00000000  0.00000000  1
  Cs  Cs1  1  0.00000000  0.00000000  0.50000000  1
  Nb  Nb0  1  0.66666700  0.33333300  0.25000000  1
  Nb  Nb1  1  0.33333300  0.66666700  0.75000000  1
  Mo  Mo0  1  0.00000000  0.00000000  0.75000000  1
  Mo  Mo1  1  0.00000000  0.00000000  0.25000000  1
  Mo  Mo2  1  0.33333300  0.66666700  0.25000000  1
  Mo  Mo3  1  0.66666700  0.33333300  0.75000000  1
  Se  Se0  1  0.32836697  0.99318981  0.16252903  1
  Se  Se1  1  0.00681019  0.33517716  0.16252903  1
  Se  Se2  1  0.66482284  0.67163303  0.16252903  1
  Se  Se3  1  0.33517716  0.32836697  0.66252903  1
  Se  Se4  1  0.66482284  0.67163303  0.33747097  1
  Se  Se5  1  0.67163303  0.00681019  0.66252903  1
  Se  Se6  1  0.99318981  0.66482284  0.66252903  1
  Se  Se7  1  0.99318981  0.66482284  0.83747097  1
  Se  Se8  1  0.33517716  0.32836697  0.83747097  1
  Se  Se9  1  0.00681019  0.33517716  0.33747097  1
  Se  Se10  1  0.32836697  0.99318981  0.33747097  1
  Se  Se11  1  0.67163303  0.00681019  0.83747097  1
loop_
_geom_bond_atom_site_label_1
_geom_bond_atom_site_label_2
_geom_bond_distance
_geom_bond_site_symmetry_2
Cs0 Se0 3.627495 1_545
Cs0 Se11 3.627495 1_454
Cs0 Se2 3.627496 1_445
Cs0 Se8 3.627496 1_554
Cs0 Se1 3.627496 1_555
Cs0 Se7 3.627496 1_444
Cs1 Se5 3.627495 1_455
Cs1 Se10 3.627495 1_545
Cs1 Se3 3.627496 1_555
Cs1 Se4 3.627496 1_445
Cs1 Se6 3.627496 1_445
Cs1 Se9 3.627496 1_555
Nb0 Se9 2.588850 1_655
Nb0 Se1 2.588850 1_655
Nb0 Se10 2.588852 1_545
Nb0 Se0 2.588852 1_545
Nb0 Se4 2.588854 1_555
Nb0 Se2 2.588854 1_555
Nb1 Se7 2.588850 1_455
Nb1 Se6 2.588850 1_455
Nb1 Se11 2.588852 1_565
Nb1 Se5 2.588852 1_565
Nb1 Se8 2.588854 1_555
Nb1 Se3 2.588854 1_555
Mo0 Se11 2.555300 1_455
Mo0 Se5 2.555300 1_455
Mo0 Se8 2.555300 1_555
Mo0 Se3 2.555300 1_555
Mo0 Se7 2.555300 1_445
Mo0 Se6 2.555300 1_445
Mo1 Se10 2.555300 1_545
Mo1 Se0 2.555300 1_545
Mo1 Se4 2.555300 1_445
Mo1 Se2 2.555300 1_445
Mo1 Se9 2.555300 1_555
Mo1 Se1 2.555300 1_555
Mo2 Se10 2.542729 1_555
Mo2 Se0 2.542729 1_555
Mo2 Se9 2.542731 1_555
Mo2 Se1 2.542731 1_555
Mo2 Se4 2.542733 1_555
Mo2 Se2 2.542733 1_555
Mo3 Se11 2.542729 1_555
Mo3 Se5 2.542729 1_555
Mo3 Se7 2.542731 1_555
Mo3 Se6 2.542731 1_555
Mo3 Se8 2.542733 1_555
Mo3 Se3 2.542733 1_555
