# generated using pymatgen
data_Pr2Mo2C3
_symmetry_space_group_name_H-M   'P 1'
_cell_length_a   6.70610247
_cell_length_b   5.99234019
_cell_length_c   12.05906401
_cell_angle_alpha   68.09284005
_cell_angle_beta   90.00000000
_cell_angle_gamma   90.00000000
_symmetry_Int_Tables_number   1
_chemical_formula_structural   Pr2Mo2C3
_chemical_formula_sum   'Pr8 Mo8 C12'
_cell_volume   449.60358278
_cell_formula_units_Z   4
loop_
 _symmetry_equiv_pos_site_id
 _symmetry_equiv_pos_as_xyz
  1  'x, y, z'
loop_
 _atom_site_type_symbol
 _atom_site_label
 _atom_site_symmetry_multiplicity
 _atom_site_fract_x
 _atom_site_fract_y
 _atom_site_fract_z
 _atom_site_occupancy
  Pr  Pr0  1  0.78288784  0.68547822  0.90924659  1
  Pr  Pr1  1  0.28288784  0.31452178  0.59075341  1
  Pr  Pr2  1  0.21711216  0.31452178  0.09075341  1
  Pr  Pr3  1  0.71711216  0.68547822  0.40924659  1
  Pr  Pr4  1  0.99891510  0.72904918  0.63637224  1
  Pr  Pr5  1  0.49891510  0.27095082  0.86362776  1
  Pr  Pr6  1  0.00108490  0.27095082  0.36362776  1
  Pr  Pr7  1  0.50108490  0.72904918  0.13637224  1
  Mo  Mo0  1  0.99497828  0.81958600  0.11910547  1
  Mo  Mo1  1  0.49497828  0.18041400  0.38089453  1
  Mo  Mo2  1  0.00502172  0.18041400  0.88089453  1
  Mo  Mo3  1  0.50502172  0.81958600  0.61910547  1
  Mo  Mo4  1  0.75472474  0.17695905  0.65814450  1
  Mo  Mo5  1  0.24527526  0.82304095  0.34185550  1
  Mo  Mo6  1  0.74527526  0.17695905  0.15814450  1
  Mo  Mo7  1  0.25472474  0.82304095  0.84185550  1
  C  C0  1  0.62698020  0.50427087  0.64067410  1
  C  C1  1  0.12698020  0.49572913  0.85932590  1
  C  C2  1  0.37301980  0.49572913  0.35932590  1
  C  C3  1  0.87301980  0.50427087  0.14067410  1
  C  C4  1  0.21646556  0.93968362  0.98875940  1
  C  C5  1  0.71646556  0.06031638  0.51124060  1
  C  C6  1  0.78353444  0.06031638  0.01124060  1
  C  C7  1  0.28353444  0.93968362  0.48875940  1
  C  C8  1  0.48762450  0.03395709  0.24793388  1
  C  C9  1  0.01237550  0.03395709  0.74793388  1
  C  C10  1  0.98762450  0.96604291  0.25206612  1
  C  C11  1  0.51237550  0.96604291  0.75206612  1
loop_
_geom_bond_atom_site_label_1
_geom_bond_atom_site_label_2
_geom_bond_distance
_geom_bond_site_symmetry_2
C0 Mo3 1.984931 1_555
C0 Mo4 2.077708 1_555
C0 Pr3 2.659262 1_555
C0 Pr5 2.667575 1_555
C0 Pr1 2.736911 1_555
C0 Pr4 2.825955 1_555
C1 Mo2 1.984931 1_555
C1 Mo7 2.077708 1_555
C1 Pr2 2.659262 1_556
C1 Pr4 2.667575 1_455
C1 Pr0 2.736911 1_455
C1 Pr5 2.825955 1_555
C2 Mo1 1.984931 1_555
C2 Mo5 2.077708 1_555
C2 Pr1 2.659262 1_555
C2 Pr7 2.667575 1_555
C2 Pr3 2.736911 1_555
C2 Pr6 2.825955 1_555
C3 Mo0 1.984931 1_555
C3 Mo6 2.077708 1_555
C3 Pr0 2.659262 1_554
C3 Pr6 2.667575 1_655
C3 Pr2 2.736911 1_655
C3 Pr7 2.825955 1_555
C4 Mo0 2.085830 1_456
C4 Mo2 2.093638 1_565
C4 Mo7 2.148639 1_555
C4 Pr7 2.593896 1_556
C4 Pr5 2.751369 1_565
C4 Pr2 2.935907 1_566
C5 Mo1 2.085830 1_555
C5 Mo3 2.093638 1_545
C5 Mo4 2.148639 1_555
C5 Pr6 2.593896 1_655
C5 Pr4 2.751369 1_545
C5 Pr3 2.935907 1_545
C6 Mo2 2.085830 1_654
C6 Mo0 2.093638 1_545
C6 Mo6 2.148639 1_555
C6 Pr5 2.593896 1_554
C6 Pr7 2.751369 1_545
C6 Pr0 2.935907 1_544
C7 Mo3 2.085830 1_555
C7 Mo1 2.093638 1_565
C7 Mo5 2.148639 1_555
C7 Pr4 2.593896 1_455
C7 Pr6 2.751369 1_565
C7 Pr1 2.935907 1_565
C8 Mo6 2.049328 1_555
C8 Mo1 2.096070 1_555
C8 Mo5 2.110296 1_545
C8 Pr7 2.643979 1_545
C8 Pr2 2.707813 1_555
C8 Pr3 2.735312 1_545
C9 Mo4 2.049328 1_455
C9 Mo2 2.096070 1_555
C9 Mo7 2.110296 1_545
C9 Pr4 2.643979 1_445
C9 Pr1 2.707813 1_555
C9 Pr0 2.735312 1_445
C10 Mo5 2.049328 1_655
C10 Mo0 2.096070 1_555
C10 Mo6 2.110296 1_565
C10 Pr6 2.643979 1_665
C10 Pr3 2.707813 1_555
C10 Pr2 2.735312 1_665
C11 Mo7 2.049328 1_555
C11 Mo3 2.096070 1_555
C11 Mo4 2.110296 1_565
C11 Pr5 2.643979 1_565
C11 Pr0 2.707813 1_555
C11 Pr1 2.735312 1_565
