# generated using pymatgen
data_Ba2VRuF14
_symmetry_space_group_name_H-M   'P 1'
_cell_length_a   4.77451335
_cell_length_b   7.53930007
_cell_length_c   7.68444309
_cell_angle_alpha   107.39793437
_cell_angle_beta   102.66627930
_cell_angle_gamma   90.26368552
_symmetry_Int_Tables_number   1
_chemical_formula_structural   Ba2VRuF14
_chemical_formula_sum   'Ba2 V1 Ru1 F14'
_cell_volume   256.80208075
_cell_formula_units_Z   1
loop_
 _symmetry_equiv_pos_site_id
 _symmetry_equiv_pos_as_xyz
  1  'x, y, z'
loop_
 _atom_site_type_symbol
 _atom_site_label
 _atom_site_symmetry_multiplicity
 _atom_site_fract_x
 _atom_site_fract_y
 _atom_site_fract_z
 _atom_site_occupancy
  Ba  Ba0  1  0.16030964  0.33757937  0.76861683  1
  Ba  Ba1  1  0.83720157  0.65861774  0.22629758  1
  V  V0  1  0.35182442  0.18202117  0.28373769  1
  Ru  Ru0  1  0.64889150  0.81750611  0.71578926  1
  F  F0  1  0.12284265  0.18280516  0.06866439  1
  F  F1  1  0.41169444  0.80347914  0.48078816  1
  F  F2  1  0.58042105  0.19685145  0.51008594  1
  F  F3  1  0.51462601  0.04551612  0.82670773  1
  F  F4  1  0.48492370  0.96578005  0.18128273  1
  F  F5  1  0.35820676  0.69119594  0.76821907  1
  F  F6  1  0.88958458  0.82194155  0.94333037  1
  F  F7  1  0.28865981  0.57020554  0.10221450  1
  F  F8  1  0.07730530  0.05846976  0.34105185  1
  F  F9  1  0.21025608  0.39643066  0.40338528  1
  F  F10  1  0.71010504  0.42816004  0.89398183  1
  F  F11  1  0.78978382  0.59163210  0.59395113  1
  F  F12  1  0.62842386  0.30885305  0.23981171  1
  F  F13  1  0.93494077  0.94295607  0.65208394  1
loop_
_geom_bond_atom_site_label_1
_geom_bond_atom_site_label_2
_geom_bond_distance
_geom_bond_site_symmetry_2
Ba0 F10 2.557932 1_455
Ba0 F7 2.575966 1_556
Ba0 F10 2.601184 1_555
Ba0 F5 2.825491 1_555
Ba0 F3 2.863669 1_555
Ba0 F0 2.915096 1_556
Ba0 F13 2.960771 1_445
Ba0 F2 3.006397 1_455
Ba0 F11 3.021112 1_455
Ba0 F9 3.027867 1_555
Ba0 F2 3.098794 1_555
Ba0 F8 3.266034 1_555
Ba1 F7 2.556192 1_655
Ba1 F10 2.562353 1_554
Ba1 F7 2.592575 1_555
Ba1 F12 2.853604 1_555
Ba1 F6 2.853738 1_554
Ba1 F4 2.927671 1_555
Ba1 F1 2.980544 1_655
Ba1 F8 3.019069 1_665
Ba1 F11 3.069337 1_555
Ba1 F9 3.083793 1_655
Ba1 F1 3.103241 1_555
Ba1 F13 3.262742 1_555
F0 V0 1.772081 1_555
F1 Ru0 1.882195 1_555
F2 V0 1.810844 1_555
F3 Ru0 1.861739 1_545
F4 V0 1.772840 1_565
F5 Ru0 1.859538 1_555
F6 Ru0 1.860801 1_555
F8 V0 1.807437 1_555
F9 V0 1.819086 1_555
F11 Ru0 1.887420 1_555
F12 V0 1.774612 1_555
F13 Ru0 1.886176 1_555
