# generated using pymatgen
data_Ba2LiAlGe2
_symmetry_space_group_name_H-M   'P 1'
_cell_length_a   8.95113295
_cell_length_b   8.95113168
_cell_length_c   8.95113320
_cell_angle_alpha   136.98652562
_cell_angle_beta   62.13337925
_cell_angle_gamma   137.41054015
_symmetry_Int_Tables_number   1
_chemical_formula_structural   Ba2LiAlGe2
_chemical_formula_sum   'Ba4 Li2 Al2 Ge4'
_cell_volume   327.16369147
_cell_formula_units_Z   2
loop_
 _symmetry_equiv_pos_site_id
 _symmetry_equiv_pos_as_xyz
  1  'x, y, z'
loop_
 _atom_site_type_symbol
 _atom_site_label
 _atom_site_symmetry_multiplicity
 _atom_site_fract_x
 _atom_site_fract_y
 _atom_site_fract_z
 _atom_site_occupancy
  Ba  Ba0  1  0.83838649  0.26069464  0.09908013  1
  Ba  Ba1  1  0.66161451  0.76069564  0.42230816  1
  Ba  Ba2  1  0.33838649  0.23930636  0.57769184  1
  Ba  Ba3  1  0.16161351  0.73930536  0.90091887  1
  Li  Li0  1  0.74999900  0.24999900  0.50000000  1
  Li  Li1  1  0.24999900  0.75000000  0.50000100  1
  Al  Al0  1  0.24999900  0.24999900  0.00000000  1
  Al  Al1  1  0.75000000  0.75000000  0.00000000  1
  Ge  Ge0  1  0.40522404  0.73145897  0.13668100  1
  Ge  Ge1  1  0.09477696  0.23145797  0.32623393  1
  Ge  Ge2  1  0.90522404  0.76854303  0.67376707  1
  Ge  Ge3  1  0.59477696  0.26854303  0.86332000  1
loop_
_geom_bond_atom_site_label_1
_geom_bond_atom_site_label_2
_geom_bond_distance
_geom_bond_site_symmetry_2
Ba0 Li1 3.354167 1_655
Ba0 Li0 3.354173 1_555
Ba0 Ge2 3.388777 1_544
Ba0 Ge0 3.413879 1_545
Ba0 Ge0 3.413886 1_655
Ba0 Ge2 3.487118 1_555
Ba0 Ge3 3.735976 1_554
Ba1 Li0 3.354154 1_565
Ba1 Li1 3.354170 1_555
Ba1 Ge3 3.388773 1_554
Ba1 Ge1 3.413879 1_665
Ba1 Ge1 3.413886 1_555
Ba1 Ge3 3.487108 1_565
Ba1 Ge2 3.735999 1_555
Ba2 Li0 3.354163 1_555
Ba2 Li1 3.354169 1_545
Ba2 Ge0 3.388779 1_556
Ba2 Ge2 3.413884 1_555
Ba2 Ge2 3.413890 1_445
Ba2 Ge0 3.487107 1_545
Ba2 Ge1 3.735984 1_555
Ba3 Li1 3.354155 1_555
Ba3 Li0 3.354164 1_455
Ba3 Ge1 3.388778 1_566
Ba3 Ge3 3.413880 1_565
Ba3 Ge3 3.413881 1_455
Ba3 Ge1 3.487107 1_555
Ba3 Ge0 3.735984 1_556
Al0 Ge2 2.657376 1_444
Al0 Ge1 2.657380 1_555
Al0 Ge3 2.657392 1_554
Al0 Ge0 2.657399 1_555
Al0 Ba3 3.422140 1_544
Al0 Ba0 3.422143 1_455
Al0 Ba1 3.422150 1_555
Al0 Ba2 3.422152 1_554
Al1 Ge2 2.657380 1_554
Al1 Ge3 2.657387 1_554
Al1 Ge1 2.657388 1_665
Al1 Ge0 2.657388 1_555
Al1 Ba1 3.422141 1_555
Al1 Ba3 3.422144 1_654
Al1 Ba2 3.422146 1_554
Al1 Ba0 3.422149 1_565
Ge0 Li0 2.803638 1_565
Ge0 Li1 2.803658 1_555
Ge1 Li1 2.803642 1_555
Ge1 Li0 2.803650 1_455
Ge2 Li1 2.803634 1_655
Ge2 Li0 2.803645 1_555
Ge3 Li0 2.803646 1_555
Ge3 Li1 2.803650 1_545
