# generated using pymatgen
data_Ta5B2As
_symmetry_space_group_name_H-M   'P 1'
_cell_length_a   7.28386315
_cell_length_b   7.28386323
_cell_length_c   7.28386390
_cell_angle_alpha   129.31467402
_cell_angle_beta   129.31467340
_cell_angle_gamma   74.50477602
_symmetry_Int_Tables_number   1
_chemical_formula_structural   Ta5B2As
_chemical_formula_sum   'Ta10 B4 As2'
_cell_volume   225.42189014
_cell_formula_units_Z   2
loop_
 _symmetry_equiv_pos_site_id
 _symmetry_equiv_pos_as_xyz
  1  'x, y, z'
loop_
 _atom_site_type_symbol
 _atom_site_label
 _atom_site_symmetry_multiplicity
 _atom_site_fract_x
 _atom_site_fract_y
 _atom_site_fract_z
 _atom_site_occupancy
  Ta  Ta0  1  0.52642247  0.69634579  0.50000000  1
  Ta  Ta1  1  0.19634579  0.02642247  0.50000000  1
  Ta  Ta2  1  0.02642247  0.52642247  0.83007768  1
  Ta  Ta3  1  0.69634579  0.19634579  0.16992232  1
  Ta  Ta4  1  0.47357753  0.30365421  0.50000000  1
  Ta  Ta5  1  0.80365421  0.97357753  0.50000000  1
  Ta  Ta6  1  0.97357753  0.47357753  0.16992232  1
  Ta  Ta7  1  0.30365421  0.80365421  0.83007768  1
  Ta  Ta8  1  0.50000000  0.50000000  0.00000000  1
  Ta  Ta9  1  0.00000000  0.00000000  0.00000000  1
  B  B0  1  0.88037080  0.61962920  0.50000000  1
  B  B1  1  0.11962920  0.38037080  0.50000000  1
  B  B2  1  0.38037080  0.88037080  0.26073961  1
  B  B3  1  0.61962920  0.11962920  0.73926039  1
  As  As0  1  0.25000000  0.25000000  0.00000000  1
  As  As1  1  0.75000000  0.75000000  0.00000000  1
loop_
_geom_bond_atom_site_label_1
_geom_bond_atom_site_label_2
_geom_bond_distance
_geom_bond_site_symmetry_2
B0 B1 2.109838 1_655
B0 Ta7 2.411306 1_655
B0 Ta3 2.411306 1_555
B0 Ta6 2.411314 1_555
B0 Ta2 2.411314 1_655
B0 Ta9 2.486315 1_666
B0 Ta8 2.486315 1_555
B0 Ta0 2.487801 1_555
B0 Ta5 2.487801 1_555
B1 Ta3 2.411306 1_455
B1 Ta7 2.411306 1_555
B1 Ta2 2.411314 1_555
B1 Ta6 2.411314 1_455
B1 Ta9 2.486315 1_555
B1 Ta8 2.486315 1_556
B1 Ta4 2.487801 1_555
B1 Ta1 2.487801 1_555
B2 B3 2.109856 1_565
B2 Ta5 2.411303 1_555
B2 Ta4 2.411303 1_565
B2 Ta1 2.411319 1_565
B2 Ta0 2.411319 1_555
B2 Ta8 2.486310 1_555
B2 Ta9 2.486311 1_565
B2 Ta7 2.487780 1_554
B2 Ta2 2.487802 1_554
B3 Ta1 2.411303 1_555
B3 Ta0 2.411303 1_545
B3 Ta5 2.411319 1_545
B3 Ta4 2.411319 1_555
B3 Ta8 2.486310 1_556
B3 Ta9 2.486311 1_656
B3 Ta3 2.487780 1_556
B3 Ta6 2.487802 1_556
As0 Ta6 2.662615 1_455
As0 Ta2 2.662615 1_554
As0 Ta5 2.662619 1_444
As0 Ta0 2.662619 1_555
As0 Ta1 2.662619 1_554
As0 Ta4 2.662619 1_555
As0 Ta3 2.662620 1_555
As0 Ta7 2.662620 1_544
As0 Ta8 2.898893 1_555
As0 Ta9 2.898893 1_555
As1 Ta2 2.662615 1_654
As1 Ta6 2.662615 1_555
As1 Ta1 2.662619 1_665
As1 Ta4 2.662619 1_554
As1 Ta5 2.662619 1_555
As1 Ta0 2.662619 1_554
As1 Ta7 2.662620 1_554
As1 Ta3 2.662620 1_565
As1 Ta9 2.898893 1_665
As1 Ta8 2.898893 1_555
