# generated using pymatgen
data_Ta4CuSiH2
_symmetry_space_group_name_H-M   'P 1'
_cell_length_a   5.10446949
_cell_length_b   5.10446984
_cell_length_c   5.10446962
_cell_angle_alpha   104.58364743
_cell_angle_beta   104.58365724
_cell_angle_gamma   119.76301454
_symmetry_Int_Tables_number   1
_chemical_formula_structural   Ta4CuSiH2
_chemical_formula_sum   'Ta4 Cu1 Si1 H2'
_cell_volume   99.86779388
_cell_formula_units_Z   1
loop_
 _symmetry_equiv_pos_site_id
 _symmetry_equiv_pos_as_xyz
  1  'x, y, z'
loop_
 _atom_site_type_symbol
 _atom_site_label
 _atom_site_symmetry_multiplicity
 _atom_site_fract_x
 _atom_site_fract_y
 _atom_site_fract_z
 _atom_site_occupancy
  Ta  Ta0  1  0.16647613  0.66647613  0.83295326  1
  Ta  Ta1  1  0.83352387  0.33352387  0.16704674  1
  Ta  Ta2  1  0.33352387  0.16647613  0.50000000  1
  Ta  Ta3  1  0.66647613  0.83352387  0.50000000  1
  Cu  Cu0  1  0.25000000  0.25000000  0.00000000  1
  Si  Si0  1  0.75000000  0.75000000  0.00000000  1
  H  H0  1  0.75000000  0.25000000  0.50000000  1
  H  H1  1  0.25000000  0.75000000  0.50000000  1
loop_
_geom_bond_atom_site_label_1
_geom_bond_atom_site_label_2
_geom_bond_distance
_geom_bond_site_symmetry_2
Cu0 Si0 2.561372 1_555
Cu0 Si0 2.561372 1_445
Cu0 Ta0 2.656670 1_554
Cu0 Ta1 2.656670 1_455
Cu0 Ta3 2.656672 1_444
Cu0 Ta3 2.656672 1_555
Cu0 Ta1 2.656672 1_555
Cu0 Ta2 2.656672 1_555
Cu0 Ta2 2.656673 1_554
Cu0 Ta0 2.656673 1_544
Si0 Ta1 2.656670 1_555
Si0 Ta0 2.656670 1_654
Si0 Ta2 2.656672 1_665
Si0 Ta2 2.656672 1_554
Si0 Ta0 2.656672 1_554
Si0 Ta3 2.656672 1_554
Si0 Ta3 2.656673 1_555
Si0 Ta1 2.656673 1_565
H0 Ta2 1.949696 1_555
H0 Ta3 1.949696 1_545
H0 Ta0 1.949698 1_655
H0 Ta1 1.949701 1_555
H1 Ta3 1.949696 1_555
H1 Ta2 1.949696 1_565
H1 Ta1 1.949698 1_455
H1 Ta0 1.949701 1_555
