# generated using pymatgen
data_Lu12InFe3Sb
_symmetry_space_group_name_H-M   'P 1'
_cell_length_a   8.15791796
_cell_length_b   8.15791914
_cell_length_c   8.15791873
_cell_angle_alpha   108.20121369
_cell_angle_beta   108.98988875
_cell_angle_gamma   111.23804806
_symmetry_Int_Tables_number   1
_chemical_formula_structural   Lu12InFe3Sb
_chemical_formula_sum   'Lu12 In1 Fe3 Sb1'
_cell_volume   417.62394883
_cell_formula_units_Z   1
loop_
 _symmetry_equiv_pos_site_id
 _symmetry_equiv_pos_as_xyz
  1  'x, y, z'
loop_
 _atom_site_type_symbol
 _atom_site_label
 _atom_site_symmetry_multiplicity
 _atom_site_fract_x
 _atom_site_fract_y
 _atom_site_fract_z
 _atom_site_occupancy
  Lu  Lu0  1  0.30501099  0.31212145  0.61713245  1
  Lu  Lu1  1  0.69498901  0.68787855  0.38286755  1
  Lu  Lu2  1  0.69498901  0.31212145  0.00711046  1
  Lu  Lu3  1  0.30501099  0.68787855  0.99288954  1
  Lu  Lu4  1  0.18980098  0.42661999  0.23681901  1
  Lu  Lu5  1  0.81019902  0.57338001  0.76318099  1
  Lu  Lu6  1  0.18980098  0.95298198  0.76318099  1
  Lu  Lu7  1  0.95664552  0.19353646  0.76311106  1
  Lu  Lu8  1  0.81019902  0.04701802  0.23681901  1
  Lu  Lu9  1  0.04335448  0.80646354  0.23688894  1
  Lu  Lu10  1  0.43042540  0.19353646  0.23688894  1
  Lu  Lu11  1  0.56957460  0.80646354  0.76311106  1
  In  In0  1  0.00000000  0.50000000  0.50000000  1
  Fe  Fe0  1  0.37950309  0.37950309  1.00000000  1
  Fe  Fe1  1  0.62049691  0.62049691  0.00000000  1
  Fe  Fe2  1  0.00000000  0.00000000  0.00000000  1
  Sb  Sb0  1  0.50000000  0.00000000  0.50000000  1
loop_
_geom_bond_atom_site_label_1
_geom_bond_atom_site_label_2
_geom_bond_distance
_geom_bond_site_symmetry_2
Lu0 Sb0 3.511488 1_555
Lu1 Sb0 3.511488 1_565
Lu2 Sb0 3.511488 1_554
Lu3 Sb0 3.511488 1_566
Lu4 Sb0 3.808906 1_565
Lu5 Sb0 3.808906 1_555
Lu6 Sb0 3.808906 1_565
Lu7 Sb0 3.065210 1_555
Lu8 Sb0 3.808906 1_555
Lu9 Sb0 3.065210 1_565
Lu10 Sb0 3.065224 1_555
Lu11 Sb0 3.065224 1_565
In0 Lu5 3.065554 1_455
In0 Lu4 3.065554 1_555
In0 Lu6 3.065555 1_555
In0 Lu8 3.065555 1_455
In0 Lu0 3.403559 1_555
In0 Lu1 3.403559 1_455
In0 Lu3 3.403560 1_555
In0 Lu2 3.403560 1_455
In0 Lu11 3.766781 1_555
In0 Lu10 3.766781 1_455
In0 Lu9 3.766782 1_555
In0 Lu7 3.766782 1_455
Fe0 Fe1 2.220382 1_556
Fe0 Lu2 2.806641 1_556
Fe0 Lu0 2.806641 1_555
Fe0 Lu3 2.806641 1_555
Fe0 Lu1 2.806641 1_556
Fe0 Lu10 2.823911 1_556
Fe0 Lu7 2.823924 1_455
Fe0 Lu4 2.861470 1_556
Fe0 Lu6 2.861470 1_545
Fe1 Lu3 2.806641 1_554
Fe1 Lu1 2.806641 1_555
Fe1 Lu2 2.806641 1_555
Fe1 Lu0 2.806641 1_554
Fe1 Lu11 2.823911 1_554
Fe1 Lu9 2.823924 1_655
Fe1 Lu5 2.861470 1_554
Fe1 Lu8 2.861470 1_565
Fe2 Lu6 2.862027 1_544
Fe2 Lu8 2.862027 1_455
Fe2 Lu4 2.862027 1_555
Fe2 Lu5 2.862027 1_444
Fe2 Lu10 2.866764 1_555
Fe2 Lu11 2.866764 1_444
Fe2 Lu7 2.866766 1_454
Fe2 Lu9 2.866766 1_545
