# generated using pymatgen
data_TcBi4Pt3F28
_symmetry_space_group_name_H-M   'P 1'
_cell_length_a   5.48072468
_cell_length_b   9.08011509
_cell_length_c   12.14587185
_cell_angle_alpha   61.56169802
_cell_angle_beta   90.03335117
_cell_angle_gamma   90.05031974
_symmetry_Int_Tables_number   1
_chemical_formula_structural   TcBi4Pt3F28
_chemical_formula_sum   'Tc1 Bi4 Pt3 F28'
_cell_volume   531.50818682
_cell_formula_units_Z   1
loop_
 _symmetry_equiv_pos_site_id
 _symmetry_equiv_pos_as_xyz
  1  'x, y, z'
loop_
 _atom_site_type_symbol
 _atom_site_label
 _atom_site_symmetry_multiplicity
 _atom_site_fract_x
 _atom_site_fract_y
 _atom_site_fract_z
 _atom_site_occupancy
  Tc  Tc0  1  0.75609182  0.72836820  0.04071466  1
  Bi  Bi0  1  0.26162612  0.81300232  0.26433961  1
  Bi  Bi1  1  0.73694640  0.18643856  0.73723554  1
  Bi  Bi2  1  0.76301085  0.18522546  0.23860122  1
  Bi  Bi3  1  0.23689194  0.81324924  0.76098840  1
  Pt  Pt0  1  0.24290802  0.26947446  0.96019152  1
  Pt  Pt1  1  0.25675513  0.27058833  0.45946445  1
  Pt  Pt2  1  0.74277420  0.72966336  0.54073019  1
  F  F0  1  0.91972644  0.70962575  0.40897151  1
  F  F1  1  0.07532564  0.28982111  0.59032739  1
  F  F2  1  0.42598376  0.29070518  0.08985028  1
  F  F3  1  0.56426564  0.71194188  0.91315619  1
  F  F4  1  0.46381265  0.72860003  0.12984026  1
  F  F5  1  0.54324844  0.27187105  0.87397140  1
  F  F6  1  0.95560976  0.27481290  0.37294796  1
  F  F7  1  0.04635119  0.72562271  0.62517991  1
  F  F8  1  0.94059730  0.74534883  0.17076477  1
  F  F9  1  0.06739716  0.25452695  0.82608360  1
  F  F10  1  0.43199099  0.25891640  0.32411229  1
  F  F11  1  0.57303004  0.74335723  0.67669267  1
  F  F12  1  0.77282393  0.48820293  0.13615777  1
  F  F13  1  0.22986338  0.51189050  0.86271535  1
  F  F14  1  0.26952868  0.51325252  0.36405784  1
  F  F15  1  0.72970980  0.48723119  0.63684858  1
  F  F16  1  0.93529088  0.27386501  0.04067090  1
  F  F17  1  0.05862006  0.72644703  0.95658213  1
  F  F18  1  0.43180422  0.72709082  0.46231112  1
  F  F19  1  0.56533645  0.27369666  0.53950480  1
  F  F20  1  0.74384718  0.97535987  0.44857435  1
  F  F21  1  0.25600197  0.02507201  0.55069501  1
  F  F22  1  0.24364340  0.02392124  0.05364651  1
  F  F23  1  0.75684498  0.97270841  0.94514153  1
  F  F24  1  0.60712161  0.96581434  0.22920865  1
  F  F25  1  0.39463116  0.03261293  0.77004799  1
  F  F26  1  0.10643447  0.03376257  0.27249650  1
  F  F27  1  0.89415433  0.96792105  0.72717817  1
loop_
_geom_bond_atom_site_label_1
_geom_bond_atom_site_label_2
_geom_bond_distance
_geom_bond_site_symmetry_2
Bi0 F26 2.223431 1_565
Bi0 F24 2.263932 1_555
Bi0 F8 2.329288 1_455
Bi0 F18 2.339320 1_555
Bi0 F22 2.357651 1_565
Bi0 F4 2.383272 1_555
Bi0 F14 2.395259 1_555
Bi0 F0 2.430766 1_455
Bi1 F27 2.219950 1_545
Bi1 F25 2.257373 1_555
Bi1 F9 2.336254 1_655
Bi1 F19 2.338057 1_555
Bi1 F23 2.342516 1_545
Bi1 F5 2.391126 1_555
Bi1 F15 2.403388 1_555
Bi1 F1 2.431034 1_655
Bi2 F24 2.219353 1_545
Bi2 F26 2.251231 1_655
Bi2 F16 2.340340 1_555
Bi2 F10 2.341809 1_555
Bi2 F20 2.348983 1_545
Bi2 F6 2.387326 1_555
Bi2 F12 2.420555 1_555
Bi2 F2 2.438162 1_555
Bi3 F25 2.220942 1_565
Bi3 F27 2.263646 1_455
Bi3 F17 2.331868 1_555
Bi3 F11 2.338398 1_555
Bi3 F21 2.356961 1_565
Bi3 F7 2.385597 1_555
Bi3 F13 2.407404 1_555
Bi3 F3 2.420985 1_555
F0 Pt2 1.952982 1_555
F1 Pt1 1.952462 1_555
F2 Pt0 1.952171 1_554
F3 Tc0 1.935420 1_556
F4 Tc0 1.934454 1_555
F5 Pt0 1.946014 1_555
F6 Pt1 1.946670 1_655
F7 Pt2 1.945256 1_455
F8 Tc0 1.941963 1_555
F9 Pt0 1.950745 1_555
F10 Pt1 1.950445 1_555
F11 Pt2 1.950790 1_555
F12 Tc0 1.923625 1_555
F13 Pt0 1.941666 1_555
F14 Pt1 1.941842 1_555
F15 Pt2 1.940619 1_555
F16 Pt0 1.959263 1_654
F17 Tc0 1.952618 1_456
F18 Pt2 1.957485 1_555
F19 Pt1 1.957128 1_555
F20 Pt2 1.962575 1_555
F21 Pt1 1.960858 1_555
F22 Pt0 1.961977 1_554
F23 Tc0 1.953702 1_556
