# generated using pymatgen
data_K2TaF7
_symmetry_space_group_name_H-M   'P 1'
_cell_length_a   12.63593148
_cell_length_b   5.78646048
_cell_length_c   8.46028405
_cell_angle_alpha   90.06546845
_cell_angle_beta   90.00000000
_cell_angle_gamma   90.00000000
_symmetry_Int_Tables_number   1
_chemical_formula_structural   K2TaF7
_chemical_formula_sum   'K8 Ta4 F28'
_cell_volume   618.59287668
_cell_formula_units_Z   4
loop_
 _symmetry_equiv_pos_site_id
 _symmetry_equiv_pos_as_xyz
  1  'x, y, z'
loop_
 _atom_site_type_symbol
 _atom_site_label
 _atom_site_symmetry_multiplicity
 _atom_site_fract_x
 _atom_site_fract_y
 _atom_site_fract_z
 _atom_site_occupancy
  K  K0  1  0.21771020  0.76141776  0.05375749  1
  K  K1  1  0.71771020  0.23858224  0.44624251  1
  K  K2  1  0.78228980  0.23858224  0.94624251  1
  K  K3  1  0.28228980  0.76141776  0.55375749  1
  K  K4  1  0.05942751  0.23637346  0.31905933  1
  K  K5  1  0.55942751  0.76362654  0.18094067  1
  K  K6  1  0.94057249  0.76362654  0.68094067  1
  K  K7  1  0.44057249  0.23637346  0.81905933  1
  Ta  Ta0  1  0.37128387  0.27212863  0.27801929  1
  Ta  Ta1  1  0.87128387  0.72787137  0.22198071  1
  Ta  Ta2  1  0.62871613  0.72787137  0.72198071  1
  Ta  Ta3  1  0.12871613  0.27212863  0.77801929  1
  F  F0  1  0.42281941  0.56412942  0.36994066  1
  F  F1  1  0.92281941  0.43587058  0.13005934  1
  F  F2  1  0.57718059  0.43587058  0.63005934  1
  F  F3  1  0.07718059  0.56412942  0.86994066  1
  F  F4  1  0.37668184  0.18760757  0.50031691  1
  F  F5  1  0.87668184  0.81239243  -0.00031691  1
  F  F6  1  0.62331816  0.81239243  0.49968309  1
  F  F7  1  0.12331816  0.18760757  0.00031691  1
  F  F8  1  0.52305200  0.20932430  0.28644072  1
  F  F9  1  0.02305200  0.79067570  0.21355928  1
  F  F10  1  0.47694800  0.79067570  0.71355928  1
  F  F11  1  0.97694800  0.20932430  0.78644072  1
  F  F12  1  0.24437531  0.04169262  0.80062532  1
  F  F13  1  0.74437531  0.95830738  0.69937468  1
  F  F14  1  0.75562469  0.95830738  0.19937468  1
  F  F15  1  0.25562469  0.04169262  0.30062532  1
  F  F16  1  0.25828232  0.46114496  0.79144668  1
  F  F17  1  0.75828232  0.53885504  0.70855332  1
  F  F18  1  0.74171768  0.53885504  0.20855332  1
  F  F19  1  0.24171768  0.46114496  0.29144668  1
  F  F20  1  0.10784901  0.04095049  0.60804482  1
  F  F21  1  0.60784901  0.95904951  0.89195518  1
  F  F22  1  0.89215099  0.95904951  0.39195518  1
  F  F23  1  0.39215099  0.04095049  0.10804482  1
  F  F24  1  0.11039385  0.46512531  0.58807675  1
  F  F25  1  0.61039385  0.53487469  0.91192325  1
  F  F26  1  0.88960615  0.53487469  0.41192325  1
  F  F27  1  0.38960615  0.46512531  0.08807675  1
loop_
_geom_bond_atom_site_label_1
_geom_bond_atom_site_label_2
_geom_bond_distance
_geom_bond_site_symmetry_2
F0 Ta0 1.969966 1_555
F0 K3 2.621232 1_555
F0 K5 2.621691 1_555
F1 Ta1 1.969966 1_555
F1 K2 2.621232 1_554
F1 K4 2.621691 1_655
F2 Ta2 1.969966 1_555
F2 K1 2.621232 1_555
F2 K7 2.621691 1_555
F3 Ta3 1.969966 1_555
F3 K0 2.621232 1_556
F3 K6 2.621691 1_455
F4 Ta0 1.944990 1_555
F4 K3 2.776935 1_545
F4 K7 2.828706 1_555
F5 Ta1 1.944990 1_555
F5 K2 2.776935 1_564
F5 K6 2.828706 1_554
F6 Ta2 1.944990 1_555
F6 K1 2.776935 1_565
F6 K5 2.828706 1_555
F7 Ta3 1.944990 1_554
F7 K0 2.776935 1_545
F7 K4 2.828706 1_555
F8 Ta0 1.953177 1_555
F8 K5 2.766582 1_545
F8 K1 2.811765 1_555
F9 Ta1 1.953177 1_455
F9 K4 2.766582 1_565
F9 K0 2.811765 1_555
F10 Ta2 1.953177 1_555
F10 K7 2.766582 1_565
F10 K3 2.811765 1_555
F11 Ta3 1.953177 1_655
F11 K6 2.766582 1_545
F11 K2 2.811765 1_555
F12 Ta3 1.987715 1_555
F12 K3 2.685917 1_545
F12 K0 2.708878 1_546
F12 K7 2.727464 1_555
F13 Ta2 1.987715 1_555
F13 K2 2.685917 1_565
F13 K1 2.708878 1_565
F13 K6 2.727464 1_555
F14 Ta1 1.987715 1_555
F14 K1 2.685917 1_565
F14 K2 2.708878 1_564
F14 K5 2.727464 1_555
F15 Ta0 1.987715 1_555
F15 K0 2.685917 1_545
F15 K3 2.708878 1_545
F15 K4 2.727464 1_555
F16 Ta3 1.972123 1_555
F16 K7 2.655671 1_555
F16 K3 2.676334 1_555
F16 K0 2.863204 1_556
F17 Ta2 1.972123 1_555
F17 K6 2.655671 1_555
F17 K2 2.676334 1_555
F17 K1 2.863204 1_555
F18 Ta1 1.972123 1_555
F18 K5 2.655671 1_555
F18 K1 2.676334 1_555
F18 K2 2.863204 1_554
F19 Ta0 1.972123 1_555
F19 K4 2.655671 1_555
F19 K0 2.676334 1_555
F19 K3 2.863204 1_555
F20 Ta3 1.980534 1_555
F20 K6 2.724968 1_445
F20 K4 2.763501 1_555
F20 K3 2.772032 1_545
F21 Ta2 1.980534 1_555
F21 K7 2.724968 1_565
F21 K5 2.763501 1_556
F21 K2 2.772032 1_565
F22 Ta1 1.980534 1_555
F22 K4 2.724968 1_665
F22 K6 2.763501 1_555
F22 K1 2.772032 1_565
F23 Ta0 1.980534 1_555
F23 K5 2.724968 1_545
F23 K7 2.763501 1_554
F23 K0 2.772032 1_545
F24 Ta3 1.971603 1_555
F24 K4 2.709235 1_555
F24 K3 2.782583 1_555
F24 K6 2.863962 1_455
F25 Ta2 1.971603 1_555
F25 K5 2.709235 1_556
F25 K2 2.782583 1_555
F25 K7 2.863962 1_555
F26 Ta1 1.971603 1_555
F26 K6 2.709235 1_555
F26 K1 2.782583 1_555
F26 K4 2.863962 1_655
F27 Ta0 1.971603 1_555
F27 K7 2.709235 1_554
F27 K0 2.782583 1_555
F27 K5 2.863962 1_555
