# generated using pymatgen
data_Rb3Ag(AsAu)2
_symmetry_space_group_name_H-M   'P 1'
_cell_length_a   7.99124130
_cell_length_b   7.72533435
_cell_length_c   7.99124274
_cell_angle_alpha   46.78231036
_cell_angle_beta   47.82423762
_cell_angle_gamma   46.78230653
_symmetry_Int_Tables_number   1
_chemical_formula_structural   Rb3Ag(AsAu)2
_chemical_formula_sum   'Rb3 Ag1 As2 Au2'
_cell_volume   242.21388743
_cell_formula_units_Z   1
loop_
 _symmetry_equiv_pos_site_id
 _symmetry_equiv_pos_as_xyz
  1  'x, y, z'
loop_
 _atom_site_type_symbol
 _atom_site_label
 _atom_site_symmetry_multiplicity
 _atom_site_fract_x
 _atom_site_fract_y
 _atom_site_fract_z
 _atom_site_occupancy
  Rb  Rb0  1  0.50000000  0.50000000  0.50000000  1
  Rb  Rb1  1  0.91189985  0.91501658  0.91189985  1
  Rb  Rb2  1  0.08810015  0.08498342  0.08810015  1
  Ag  Ag0  1  0.50000000  0.00000000  0.50000000  1
  As  As0  1  0.24996015  0.25260173  0.24996015  1
  As  As1  1  0.75003985  0.74739827  0.75003985  1
  Au  Au0  1  0.00000000  0.50000000  0.50000000  1
  Au  Au1  1  0.50000000  0.50000000  0.00000000  1
loop_
_geom_bond_atom_site_label_1
_geom_bond_atom_site_label_2
_geom_bond_distance
_geom_bond_site_symmetry_2
Ag0 As1 2.544415 1_545
Ag0 As0 2.544415 1_555
Ag0 Au0 3.122174 1_555
Ag0 Au0 3.122174 1_645
Ag0 Au1 3.122175 1_546
Ag0 Au1 3.122175 1_555
Ag0 Rb2 3.721011 1_655
Ag0 Rb1 3.721011 1_445
Ag0 Rb2 3.721011 1_556
Ag0 Rb1 3.721011 1_544
Ag0 Rb0 3.862667 1_545
Ag0 Rb0 3.862667 1_555
As0 Au1 2.505489 1_555
As0 Au0 2.505489 1_555
As0 Rb2 3.443429 1_555
As0 Rb1 3.566097 1_454
As0 Rb1 3.694223 1_544
As0 Rb1 3.694224 1_445
As0 Rb0 3.915244 1_545
As1 Au1 2.505489 1_556
As1 Au0 2.505489 1_655
As1 Rb1 3.443429 1_555
As1 Rb2 3.566097 1_656
As1 Rb2 3.694223 1_566
As1 Rb2 3.694224 1_665
As1 Rb0 3.915244 1_565
Au0 Rb2 3.553378 1_565
Au0 Rb1 3.553378 1_445
Au0 Rb2 3.684749 1_556
Au0 Rb1 3.684749 1_454
Au0 Rb0 3.995621 1_455
Au0 Rb0 3.995621 1_555
Au1 Rb2 3.553378 1_565
Au1 Rb1 3.553378 1_544
Au1 Rb2 3.684748 1_655
Au1 Rb1 3.684748 1_454
Au1 Rb0 3.995621 1_555
Au1 Rb0 3.995621 1_554
