# generated using pymatgen
data_Rb3B2Pt6Au
_symmetry_space_group_name_H-M   'P 1'
_cell_length_a   8.51580628
_cell_length_b   8.51580613
_cell_length_c   8.51580708
_cell_angle_alpha   39.32069350
_cell_angle_beta   39.32069653
_cell_angle_gamma   39.32069484
_symmetry_Int_Tables_number   1
_chemical_formula_structural   Rb3B2Pt6Au
_chemical_formula_sum   'Rb3 B2 Pt6 Au1'
_cell_volume   223.13381946
_cell_formula_units_Z   1
loop_
 _symmetry_equiv_pos_site_id
 _symmetry_equiv_pos_as_xyz
  1  'x, y, z'
loop_
 _atom_site_type_symbol
 _atom_site_label
 _atom_site_symmetry_multiplicity
 _atom_site_fract_x
 _atom_site_fract_y
 _atom_site_fract_z
 _atom_site_occupancy
  Rb  Rb0  1  0.85790888  0.85790888  0.85790888  1
  Rb  Rb1  1  0.14209112  0.14209112  0.14209112  1
  Rb  Rb2  1  0.00000000  0.00000000  0.00000000  1
  B  B0  1  0.66936170  0.66936170  0.66936170  1
  B  B1  1  0.33063830  0.33063830  0.33063830  1
  Pt  Pt0  1  0.44172445  0.93264688  0.44172445  1
  Pt  Pt1  1  0.44172445  0.44172445  0.93264688  1
  Pt  Pt2  1  0.93264688  0.44172445  0.44172445  1
  Pt  Pt3  1  0.55827555  0.06735312  0.55827555  1
  Pt  Pt4  1  0.55827555  0.55827555  0.06735312  1
  Pt  Pt5  1  0.06735312  0.55827555  0.55827555  1
  Au  Au0  1  0.50000000  0.50000000  0.50000000  1
loop_
_geom_bond_atom_site_label_1
_geom_bond_atom_site_label_2
_geom_bond_distance
_geom_bond_site_symmetry_2
Rb0 Rb2 3.344928 1_666
Rb1 Rb2 3.344928 1_555
B0 Pt3 2.177130 1_565
B0 Pt5 2.177131 1_655
B0 Pt4 2.177131 1_556
B0 Pt1 2.215266 1_555
B0 Pt0 2.215266 1_555
B0 Pt2 2.215266 1_555
B0 Rb2 3.308928 1_656
B0 Rb2 3.308928 1_566
B0 Rb2 3.308928 1_665
B1 Pt0 2.177130 1_545
B1 Pt2 2.177131 1_455
B1 Pt1 2.177131 1_554
B1 Pt4 2.215266 1_555
B1 Pt3 2.215266 1_555
B1 Pt5 2.215266 1_555
B1 Rb2 3.308928 1_565
B1 Rb2 3.308928 1_655
B1 Rb2 3.308928 1_556
Pt0 Rb2 3.208132 1_665
Pt0 Rb2 3.208133 1_566
Pt0 Rb0 3.438992 1_455
Pt0 Rb0 3.438992 1_554
Pt0 Rb1 3.491902 1_565
Pt1 Rb2 3.208132 1_566
Pt1 Rb2 3.208132 1_656
Pt1 Rb0 3.438992 1_545
Pt1 Rb0 3.438992 1_455
Pt1 Rb1 3.491901 1_556
Pt2 Rb2 3.208132 1_665
Pt2 Rb2 3.208133 1_656
Pt2 Rb0 3.438991 1_545
Pt2 Rb0 3.438992 1_554
Pt2 Rb1 3.491902 1_655
Pt3 Rb2 3.208132 1_556
Pt3 Rb2 3.208133 1_655
Pt3 Rb1 3.438992 1_655
Pt3 Rb1 3.438992 1_556
Pt3 Rb0 3.491902 1_545
Pt4 Rb2 3.208132 1_655
Pt4 Rb2 3.208132 1_565
Pt4 Rb1 3.438992 1_565
Pt4 Rb1 3.438992 1_655
Pt4 Rb0 3.491901 1_554
Pt5 Rb2 3.208132 1_556
Pt5 Rb2 3.208133 1_565
Pt5 Rb1 3.438991 1_565
Pt5 Rb1 3.438992 1_556
Pt5 Rb0 3.491902 1_455
Au0 Pt0 2.964802 1_555
Au0 Pt3 2.964802 1_555
Au0 Pt2 2.964802 1_555
Au0 Pt5 2.964802 1_555
Au0 Pt1 2.964802 1_555
Au0 Pt4 2.964802 1_555
Au0 Rb1 3.358522 1_565
Au0 Rb0 3.358522 1_545
Au0 Rb0 3.358522 1_554
Au0 Rb1 3.358522 1_556
Au0 Rb0 3.358522 1_455
Au0 Rb1 3.358522 1_655
