# generated using pymatgen
data_Ca3(PO4)2
_symmetry_space_group_name_H-M   'P 1'
_cell_length_a   6.89615019
_cell_length_b   6.89615098
_cell_length_c   6.89615141
_cell_angle_alpha   44.54431139
_cell_angle_beta   44.54430161
_cell_angle_gamma   44.54431058
_symmetry_Int_Tables_number   1
_chemical_formula_structural   Ca3(PO4)2
_chemical_formula_sum   'Ca3 P2 O8'
_cell_volume   146.73598514
_cell_formula_units_Z   1
loop_
 _symmetry_equiv_pos_site_id
 _symmetry_equiv_pos_as_xyz
  1  'x, y, z'
loop_
 _atom_site_type_symbol
 _atom_site_label
 _atom_site_symmetry_multiplicity
 _atom_site_fract_x
 _atom_site_fract_y
 _atom_site_fract_z
 _atom_site_occupancy
  Ca  Ca0  1  0.00000000  -0.00000000  0.00000000  1
  Ca  Ca1  1  0.20312251  0.20312251  0.20312251  1
  Ca  Ca2  1  0.79687749  0.79687749  0.79687749  1
  P  P0  1  0.40502234  0.40502234  0.40502234  1
  P  P1  1  0.59497766  0.59497766  0.59497766  1
  O  O0  1  0.72716678  0.72716678  0.24690282  1
  O  O1  1  0.72716678  0.24690282  0.72716678  1
  O  O2  1  0.24690282  0.72716678  0.72716678  1
  O  O3  1  0.75309718  0.27283322  0.27283322  1
  O  O4  1  0.27283322  0.27283322  0.75309718  1
  O  O5  1  0.32343945  0.32343945  0.32343945  1
  O  O6  1  0.67656055  0.67656055  0.67656055  1
  O  O7  1  0.27283322  0.75309718  0.27283322  1
loop_
_geom_bond_atom_site_label_1
_geom_bond_atom_site_label_2
_geom_bond_distance
_geom_bond_site_symmetry_2
Ca0 O0 2.427411 1_445
Ca0 O4 2.427411 1_554
Ca0 O3 2.427411 1_455
Ca0 O2 2.427411 1_544
Ca0 O7 2.427411 1_545
Ca0 O1 2.427411 1_454
Ca1 O5 2.238140 1_555
Ca1 O3 2.483895 1_455
Ca1 O7 2.483895 1_545
Ca1 O4 2.483895 1_554
Ca1 O1 2.675705 1_554
Ca1 O1 2.675705 1_455
Ca1 O0 2.675706 1_545
Ca1 O0 2.675706 1_455
Ca1 O2 2.675706 1_554
Ca1 O2 2.675706 1_545
Ca2 O6 2.238140 1_555
Ca2 O2 2.483895 1_655
Ca2 O1 2.483895 1_565
Ca2 O0 2.483895 1_556
Ca2 O7 2.675705 1_556
Ca2 O7 2.675705 1_655
Ca2 O4 2.675706 1_565
Ca2 O4 2.675706 1_655
Ca2 O3 2.675706 1_556
Ca2 O3 2.675706 1_565
O0 P1 1.539557 1_555
O1 P1 1.539557 1_555
O2 P1 1.539557 1_555
O3 P0 1.539557 1_555
O4 P0 1.539557 1_555
O5 P0 1.517608 1_555
O6 P1 1.517608 1_555
O7 P0 1.539557 1_555
