# generated using pymatgen
data_Hf8NbNi2Au
_symmetry_space_group_name_H-M   'P 1'
_cell_length_a   8.70689493
_cell_length_b   8.70689460
_cell_length_c   8.73839670
_cell_angle_alpha   59.88023931
_cell_angle_beta   59.88024056
_cell_angle_gamma   59.50780936
_symmetry_Int_Tables_number   1
_chemical_formula_structural   Hf8NbNi2Au
_chemical_formula_sum   'Hf16 Nb2 Ni4 Au2'
_cell_volume   465.82104658
_cell_formula_units_Z   2
loop_
 _symmetry_equiv_pos_site_id
 _symmetry_equiv_pos_as_xyz
  1  'x, y, z'
loop_
 _atom_site_type_symbol
 _atom_site_label
 _atom_site_symmetry_multiplicity
 _atom_site_fract_x
 _atom_site_fract_y
 _atom_site_fract_z
 _atom_site_occupancy
  Hf  Hf0  1  0.70256794  0.10290922  0.09726142  1
  Hf  Hf1  1  0.10290922  0.70256794  0.09726142  1
  Hf  Hf2  1  0.10188639  0.10188639  0.69463594  1
  Hf  Hf3  1  0.10188639  0.10188639  0.10159127  1
  Hf  Hf4  1  0.31044890  0.31044890  0.68955110  1
  Hf  Hf5  1  0.68553046  0.68553046  0.31446954  1
  Hf  Hf6  1  0.31486140  0.67413758  0.31656869  1
  Hf  Hf7  1  0.67413758  0.31486140  0.69443233  1
  Hf  Hf8  1  0.67413758  0.31486140  0.31656869  1
  Hf  Hf9  1  0.31486140  0.67413758  0.69443233  1
  Hf  Hf10  1  0.94931940  0.94931940  0.55068060  1
  Hf  Hf11  1  0.54523378  0.54523378  0.95476622  1
  Hf  Hf12  1  0.94935428  0.55740910  0.93924988  1
  Hf  Hf13  1  0.55740910  0.94935428  0.55398774  1
  Hf  Hf14  1  0.55740910  0.94935428  0.93924988  1
  Hf  Hf15  1  0.94935428  0.55740910  0.55398774  1
  Nb  Nb0  1  0.33306278  0.33306278  0.99927443  1
  Nb  Nb1  1  0.33306278  0.33306278  0.33460001  1
  Ni  Ni0  1  0.32446040  0.89645006  0.88954527  1
  Ni  Ni1  1  0.89645006  0.32446040  0.88954527  1
  Ni  Ni2  1  0.89508529  0.89508529  0.32599677  1
  Ni  Ni3  1  0.89508529  0.89508529  0.88383365  1
  Au  Au0  1  0.99195453  0.33953267  0.33425640  1
  Au  Au1  1  0.33953267  0.99195453  0.33425640  1
loop_
_geom_bond_atom_site_label_1
_geom_bond_atom_site_label_2
_geom_bond_distance
_geom_bond_site_symmetry_2
Hf0 Ni1 2.565338 1_554
Hf0 Ni3 2.594923 1_544
Hf0 Ni2 2.594929 1_545
Hf0 Nb1 3.098288 1_555
Hf0 Nb0 3.098288 1_554
Hf0 Hf7 3.122371 1_554
Hf0 Hf8 3.122371 1_555
Hf0 Hf5 3.189512 1_545
Hf1 Ni0 2.565338 1_554
Hf1 Ni3 2.594923 1_454
Hf1 Ni2 2.594929 1_455
Hf1 Nb1 3.098288 1_555
Hf1 Nb0 3.098288 1_554
Hf1 Hf9 3.122371 1_554
Hf1 Hf6 3.122372 1_555
Hf1 Hf5 3.189512 1_455
Hf2 Ni3 2.555888 1_445
Hf2 Ni1 2.567713 1_455
Hf2 Ni0 2.567713 1_545
Hf2 Nb1 3.066211 1_555
Hf2 Hf4 3.127584 1_555
Hf2 Hf9 3.209995 1_545
Hf2 Hf7 3.209995 1_455
Hf3 Ni2 2.555889 1_445
Hf3 Ni1 2.567707 1_454
Hf3 Ni0 2.567707 1_544
Hf3 Nb0 3.066211 1_554
Hf3 Hf4 3.127584 1_554
Hf3 Hf6 3.209995 1_545
Hf3 Hf8 3.209995 1_455
Hf4 Nb1 2.917464 1_555
Hf4 Nb0 2.917464 1_555
Hf4 Ni0 3.083484 1_545
Hf4 Ni1 3.083484 1_455
Hf4 Hf6 3.208007 1_555
Hf4 Hf8 3.208007 1_555
Hf4 Hf9 3.208007 1_555
Hf4 Hf7 3.208007 1_555
Hf5 Ni3 3.227323 1_554
Hf5 Ni2 3.227329 1_555
Hf5 Hf7 3.269524 1_555
Hf5 Hf9 3.269524 1_555
Hf5 Hf8 3.269525 1_555
Hf5 Hf6 3.269525 1_555
Hf6 Nb1 2.819026 1_555
Hf6 Hf8 3.104879 1_555
Hf6 Ni2 3.128504 1_455
Hf6 Ni0 3.206242 1_554
Hf6 Hf9 3.301922 1_555
Hf7 Nb0 2.819026 1_555
Hf7 Hf9 3.104879 1_555
Hf7 Ni3 3.128506 1_545
Hf7 Ni1 3.206250 1_555
Hf7 Hf8 3.301922 1_555
Hf8 Nb1 2.819026 1_555
Hf8 Ni2 3.128504 1_545
Hf8 Ni1 3.206242 1_554
Hf9 Nb0 2.819025 1_555
Hf9 Ni3 3.128506 1_455
Hf9 Ni0 3.206250 1_555
Hf10 Ni2 2.527463 1_555
Hf10 Ni3 2.527471 1_555
Hf10 Hf8 3.271296 1_565
Hf10 Hf7 3.271296 1_565
Hf10 Hf6 3.271296 1_655
Hf10 Hf9 3.271296 1_655
Hf11 Ni0 2.599253 1_555
Hf11 Ni1 2.599253 1_555
Hf11 Nb1 2.999641 1_556
Hf11 Nb0 2.999642 1_555
Hf11 Hf8 3.192276 1_556
Hf11 Hf6 3.192276 1_556
Hf11 Hf7 3.192276 1_555
Hf11 Hf9 3.192276 1_555
Hf12 Ni3 2.548117 1_555
Hf12 Ni1 2.558857 1_555
Hf12 Nb0 3.059409 1_655
Hf12 Hf9 3.163059 1_655
Hf12 Hf4 3.198818 1_655
Hf12 Hf5 3.283758 1_556
Hf12 Hf8 3.360236 1_556
Hf13 Ni2 2.548117 1_555
Hf13 Ni0 2.558857 1_555
Hf13 Nb1 3.059412 1_565
Hf13 Hf8 3.163058 1_565
Hf13 Hf4 3.198814 1_565
Hf13 Hf5 3.283765 1_555
Hf13 Hf9 3.360239 1_555
Hf14 Ni3 2.548117 1_555
Hf14 Ni0 2.558857 1_555
Hf14 Nb0 3.059409 1_565
Hf14 Hf7 3.163058 1_565
Hf14 Hf4 3.198818 1_565
Hf14 Hf5 3.283758 1_556
Hf14 Hf6 3.360236 1_556
Hf15 Ni2 2.548117 1_555
Hf15 Ni1 2.558857 1_555
Hf15 Nb1 3.059412 1_655
Hf15 Hf6 3.163058 1_655
Hf15 Hf4 3.198814 1_655
Hf15 Hf5 3.283765 1_555
Hf15 Hf7 3.360239 1_555
Nb0 Nb1 2.930208 1_556
Au0 Hf5 2.829677 1_555
Au0 Nb0 2.943303 1_654
Au0 Nb1 2.943303 1_655
Au0 Hf7 2.965340 1_555
Au0 Hf8 2.965340 1_555
Au0 Au1 3.003784 1_645
Au0 Hf10 3.063403 1_545
Au0 Hf2 3.096813 1_655
Au0 Hf3 3.096813 1_655
Au0 Hf12 3.106418 1_554
Au0 Hf15 3.106426 1_555
Au0 Hf1 3.120059 1_655
Au1 Hf5 2.829677 1_555
Au1 Nb0 2.943303 1_564
Au1 Nb1 2.943303 1_565
Au1 Hf9 2.965340 1_555
Au1 Hf6 2.965340 1_555
Au1 Hf10 3.063403 1_455
Au1 Hf2 3.096813 1_565
Au1 Hf3 3.096813 1_565
Au1 Hf14 3.106418 1_554
Au1 Hf13 3.106426 1_555
Au1 Hf0 3.120059 1_565
