# generated using pymatgen
data_Ta9Ti(Ga2P)2
_symmetry_space_group_name_H-M   'P 1'
_cell_length_a   6.57227136
_cell_length_b   7.54464179
_cell_length_c   6.56136842
_cell_angle_alpha   115.79757824
_cell_angle_beta   89.95308203
_cell_angle_gamma   115.84352370
_symmetry_Int_Tables_number   1
_chemical_formula_structural   Ta9Ti(Ga2P)2
_chemical_formula_sum   'Ta9 Ti1 Ga4 P2'
_cell_volume   256.36439244
_cell_formula_units_Z   1
loop_
 _symmetry_equiv_pos_site_id
 _symmetry_equiv_pos_as_xyz
  1  'x, y, z'
loop_
 _atom_site_type_symbol
 _atom_site_label
 _atom_site_symmetry_multiplicity
 _atom_site_fract_x
 _atom_site_fract_y
 _atom_site_fract_z
 _atom_site_occupancy
  Ta  Ta0  1  0.50724034  0.00000000  0.49854408  1
  Ta  Ta1  1  0.52153691  0.70705166  0.69092853  1
  Ta  Ta2  1  0.19361058  0.69301962  0.01098098  1
  Ta  Ta3  1  0.68232475  0.70538264  0.19121896  1
  Ta  Ta4  1  0.00444700  0.69508869  0.50826344  1
  Ta  Ta5  1  0.50059196  0.30698038  0.31796237  1
  Ta  Ta6  1  0.81448625  0.29294834  0.98387787  1
  Ta  Ta7  1  0.30935931  0.30491131  0.81317675  1
  Ta  Ta8  1  0.97694311  0.29461736  0.48583832  1
  Ti  Ti0  1  0.98955472  1.00000000  0.99652800  1
  Ga  Ga0  1  0.75282073  0.50382742  0.75962479  1
  Ga  Ga1  1  0.24899331  0.49617258  0.25579737  1
  Ga  Ga2  1  0.13566851  0.00000000  0.35635918  1
  Ga  Ga3  1  0.35591291  1.00000000  0.86755068  1
  P  P0  1  0.87415385  1.00000000  0.63414972  1
  P  P1  1  0.63235575  0.00000000  0.12919996  1
loop_
_geom_bond_atom_site_label_1
_geom_bond_atom_site_label_2
_geom_bond_distance
_geom_bond_site_symmetry_2
Ga0 Ta3 2.722207 1_556
Ga0 Ta8 2.728168 1_555
Ga0 Ta6 2.731543 1_555
Ga0 Ta5 2.732590 1_555
Ga0 Ta1 2.738464 1_555
Ga0 Ta2 2.739288 1_656
Ga0 Ta7 2.741207 1_555
Ga0 Ta4 2.742940 1_655
Ga0 Ti0 2.951577 1_555
Ga0 Ta0 2.996119 1_555
Ga1 Ta8 2.722215 1_455
Ga1 Ta3 2.728169 1_555
Ga1 Ta1 2.731535 1_555
Ga1 Ta2 2.732598 1_555
Ga1 Ta6 2.738456 1_454
Ga1 Ta5 2.739296 1_555
Ga1 Ta4 2.741208 1_555
Ga1 Ta7 2.742931 1_554
Ga1 Ti0 2.951577 1_444
Ga1 Ta0 2.996119 1_565
Ga2 P0 2.504224 1_445
Ga2 Ti0 2.549537 1_444
Ga2 Ta0 2.614918 1_555
Ga2 Ta2 2.616076 1_545
Ga2 Ta5 2.616077 1_555
Ga2 Ta8 2.669692 1_455
Ga2 Ta3 2.669697 1_445
Ga2 Ta4 2.700708 1_545
Ga2 Ta7 2.700718 1_555
Ga3 P1 2.500681 1_566
Ga3 Ti0 2.551540 1_455
Ga3 Ta7 2.615553 1_565
Ga3 Ta4 2.615563 1_555
Ga3 Ta0 2.616748 1_565
Ga3 Ta2 2.670062 1_556
Ga3 Ta5 2.670066 1_566
Ga3 Ta1 2.697944 1_555
Ga3 Ta6 2.697948 1_565
P0 Ti0 2.496325 1_555
P0 Ta0 2.571050 1_565
P0 Ta6 2.577629 1_565
P0 Ta1 2.577629 1_555
P0 Ta4 2.601926 1_655
P0 Ta7 2.601932 1_665
P0 Ta8 2.629937 1_565
P0 Ta3 2.629947 1_555
P1 Ti0 2.503139 1_544
P1 Ta0 2.558473 1_555
P1 Ta3 2.576456 1_545
P1 Ta8 2.576466 1_555
P1 Ta6 2.598624 1_554
P1 Ta1 2.598628 1_544
P1 Ta5 2.626435 1_555
P1 Ta2 2.626439 1_545
