# generated using pymatgen
data_NiH7C3NO6
_symmetry_space_group_name_H-M   'P 1'
_cell_length_a   12.47139604
_cell_length_b   12.47013033
_cell_length_c   8.11208776
_cell_angle_alpha   90.00000000
_cell_angle_beta   90.00000000
_cell_angle_gamma   120.00263400
_symmetry_Int_Tables_number   1
_chemical_formula_structural   NiH7C3NO6
_chemical_formula_sum   'Ni6 H42 C18 N6 O36'
_cell_volume   1092.54116108
_cell_formula_units_Z   6
loop_
 _symmetry_equiv_pos_site_id
 _symmetry_equiv_pos_as_xyz
  1  'x, y, z'
loop_
 _atom_site_type_symbol
 _atom_site_label
 _atom_site_symmetry_multiplicity
 _atom_site_fract_x
 _atom_site_fract_y
 _atom_site_fract_z
 _atom_site_occupancy
  Ni  Ni0  1  0.33505467  0.33185385  0.58647906  1
  Ni  Ni1  1  0.66816797  0.00320408  0.58647384  1
  Ni  Ni2  1  0.99673520  0.66494586  0.58642156  1
  Ni  Ni3  1  0.66494533  0.66814615  0.08647906  1
  Ni  Ni4  1  0.33183203  0.99679592  0.08647384  1
  Ni  Ni5  1  0.00326480  0.33505414  0.08642156  1
  H  H0  1  0.26743902  0.13797825  0.32485753  1
  H  H1  1  0.86196507  0.12939734  0.32483823  1
  H  H2  1  0.87067709  0.73273422  0.32482088  1
  H  H3  1  0.73256098  0.86202175  0.82485753  1
  H  H4  1  0.13803493  0.87060266  0.82483823  1
  H  H5  1  0.12932291  0.26726578  0.82482088  1
  H  H6  1  0.51362337  0.45129280  0.30462479  1
  H  H7  1  0.54866952  0.06237846  0.30456926  1
  H  H8  1  0.93765368  0.48623846  0.30453534  1
  H  H9  1  0.48637663  0.54870720  0.80462479  1
  H  H10  1  0.45133048  0.93762154  0.80456926  1
  H  H11  1  0.06234632  0.51376154  0.80453534  1
  H  H12  1  0.18554516  0.39747532  0.36250095  1
  H  H13  1  0.60268367  0.78817991  0.36239596  1
  H  H14  1  0.21176399  0.81445561  0.36245434  1
  H  H15  1  0.81445484  0.60252468  0.86250095  1
  H  H16  1  0.39731633  0.21182009  0.86239596  1
  H  H17  1  0.78823601  0.18554439  0.86245434  1
  H  H18  1  0.57756333  0.30773032  0.49889629  1
  H  H19  1  0.69225695  0.26979603  0.49887463  1
  H  H20  1  0.73017934  0.42240440  0.49887564  1
  H  H21  1  0.42243667  0.69226968  0.99889629  1
  H  H22  1  0.30774305  0.73020397  0.99887463  1
  H  H23  1  0.26982066  0.57759560  0.99887564  1
  H  H24  1  0.66668581  0.33332177  0.66373535  1
  H  H25  1  0.33331419  0.66667823  0.16373535  1
  H  H26  1  0.35827763  0.60259338  0.49876458  1
  H  H27  1  0.39741229  0.75571829  0.49872116  1
  H  H28  1  0.24427852  0.64172096  0.49871385  1
  H  H29  1  0.64172237  0.39740662  0.99876458  1
  H  H30  1  0.60258771  0.24428171  0.99872116  1
  H  H31  1  0.75572148  0.35827904  0.99871385  1
  H  H32  1  0.33331012  0.66670800  0.66359264  1
  H  H33  1  0.66668988  0.33329200  0.16359264  1
  H  H34  1  0.02610905  0.08929939  0.17451087  1
  H  H35  1  0.91066766  0.93680478  0.17448188  1
  H  H36  1  0.06318902  0.97386659  0.17449809  1
  H  H37  1  0.97389095  0.91070061  0.67451087  1
  H  H38  1  0.08933234  0.06319522  0.67448188  1
  H  H39  1  0.93681098  0.02613341  0.67449809  1
  H  H40  1  0.00001807  0.00002595  0.00977632  1
  H  H41  1  0.99998193  0.99997405  0.50977632  1
  C  C0  1  0.36848278  0.18222145  0.33219391  1
  C  C1  1  0.81772434  0.18620184  0.33218170  1
  C  C2  1  0.81385960  0.63168415  0.33217760  1
  C  C3  1  0.63151722  0.81777855  0.83219391  1
  C  C4  1  0.18227566  0.81379816  0.83218170  1
  C  C5  1  0.18614040  0.36831585  0.83217760  1
  C  C6  1  0.47572430  0.51284818  0.32423382  1
  C  C7  1  0.48713147  0.96291635  0.32418418  1
  C  C8  1  0.03711259  0.52419170  0.32413588  1
  C  C9  1  0.52427570  0.48715182  0.82423382  1
  C  C10  1  0.51286853  0.03708365  0.82418418  1
  C  C11  1  0.96288741  0.47580830  0.82413588  1
  C  C12  1  0.14614042  0.29737808  0.34758373  1
  C  C13  1  0.70278977  0.84884550  0.34754609  1
  C  C14  1  0.15111684  0.85391323  0.34760344  1
  C  C15  1  0.85385958  0.70262192  0.84758373  1
  C  C16  1  0.29721023  0.15115450  0.84754609  1
  C  C17  1  0.84888316  0.14608677  0.84760344  1
  N  N0  1  0.66666998  0.33331403  0.53844865  1
  N  N1  1  0.33333002  0.66668597  0.03844865  1
  N  N2  1  0.33331245  0.66668003  0.53822624  1
  N  N3  1  0.66668755  0.33331997  0.03822624  1
  N  N4  1  0.99999787  0.99999463  0.13509398  1
  N  N5  1  0.00000213  0.00000537  0.63509398  1
  O  O0  1  0.42249108  0.26251854  0.44441730  1
  O  O1  1  0.73743665  0.15989981  0.44443072  1
  O  O2  1  0.84030633  0.57762087  0.44414259  1
  O  O3  1  0.57750892  0.73748146  0.94441730  1
  O  O4  1  0.26256335  0.84010019  0.94443072  1
  O  O5  1  0.15969367  0.42237913  0.94414259  1
  O  O6  1  0.42495807  0.15199883  0.23048595  1
  O  O7  1  0.84794749  0.27291160  0.23049777  1
  O  O8  1  0.72694414  0.57519878  0.23077793  1
  O  O9  1  0.57504193  0.84800117  0.73048595  1
  O  O10  1  0.15205251  0.72708840  0.73049777  1
  O  O11  1  0.27305586  0.42480122  0.73077793  1
  O  O12  1  0.40154824  0.48888012  0.44402911  1
  O  O13  1  0.51115202  0.91270180  0.44391341  1
  O  O14  1  0.08729793  0.59840217  0.44389621  1
  O  O15  1  0.59845176  0.51111988  0.94402911  1
  O  O16  1  0.48884798  0.08729820  0.94391341  1
  O  O17  1  0.91270207  0.40159783  0.94389621  1
  O  O18  1  0.50795934  0.60339187  0.22868351  1
  O  O19  1  0.39655546  0.90460227  0.22868738  1
  O  O20  1  0.09544889  0.49198685  0.22858578  1
  O  O21  1  0.49204066  0.39660813  0.72868351  1
  O  O22  1  0.60344454  0.09539773  0.72868738  1
  O  O23  1  0.90455111  0.50801315  0.72858578  1
  O  O24  1  0.17763450  0.23994953  0.44592401  1
  O  O25  1  0.76023858  0.93754614  0.44621314  1
  O  O26  1  0.06242282  0.82268555  0.44626370  1
  O  O27  1  0.82236550  0.76005047  0.94592401  1
  O  O28  1  0.23976142  0.06245386  0.94621314  1
  O  O29  1  0.93757718  0.17731445  0.94626370  1
  O  O30  1  0.07035522  0.24553160  0.22999633  1
  O  O31  1  0.75457449  0.82508424  0.22968954  1
  O  O32  1  0.17489709  0.92946152  0.22974334  1
  O  O33  1  0.92964478  0.75446840  0.72999633  1
  O  O34  1  0.24542551  0.17491576  0.72968954  1
  O  O35  1  0.82510291  0.07053848  0.72974334  1
loop_
_geom_bond_atom_site_label_1
_geom_bond_atom_site_label_2
_geom_bond_distance
_geom_bond_site_symmetry_2
Ni0 O0 2.051250 1_555
Ni0 O11 2.051289 1_555
Ni0 O24 2.053695 1_555
Ni0 O12 2.057516 1_555
Ni0 O21 2.057871 1_555
Ni0 O34 2.059455 1_555
Ni1 O1 2.050370 1_555
Ni1 O9 2.052184 1_545
Ni1 O25 2.055158 1_545
Ni1 O22 2.057249 1_555
Ni1 O13 2.058034 1_545
Ni1 O35 2.059825 1_555
Ni2 O2 2.049223 1_555
Ni2 O10 2.053631 1_655
Ni2 O26 2.054627 1_655
Ni2 O23 2.057039 1_555
Ni2 O33 2.058395 1_555
Ni2 O14 2.058706 1_655
Ni3 O3 2.051250 1_554
Ni3 O8 2.051289 1_555
Ni3 O27 2.053695 1_554
Ni3 O15 2.057516 1_554
Ni3 O18 2.057871 1_555
Ni3 O31 2.059455 1_555
Ni4 O4 2.050370 1_554
Ni4 O6 2.052184 1_565
Ni4 O28 2.055158 1_564
Ni4 O19 2.057249 1_555
Ni4 O16 2.058034 1_564
Ni4 O32 2.059825 1_555
Ni5 O5 2.049223 1_554
Ni5 O7 2.053631 1_455
Ni5 O29 2.054627 1_454
Ni5 O20 2.057039 1_555
Ni5 O30 2.058395 1_555
Ni5 O17 2.058706 1_454
H18 N0 1.041689 1_555
H19 N0 1.041657 1_555
H20 N0 1.041458 1_555
H21 N1 1.041689 1_556
H22 N1 1.041657 1_556
H23 N1 1.041458 1_556
H24 N0 1.016337 1_555
H25 N1 1.016337 1_555
H26 N2 1.042558 1_555
H27 N2 1.042543 1_555
H28 N2 1.042556 1_555
H29 N3 1.042558 1_556
H30 N3 1.042543 1_556
H31 N3 1.042556 1_556
H32 N2 1.016983 1_555
H33 N3 1.016983 1_555
H34 N4 1.042020 1_445
H35 N4 1.042222 1_555
H36 N4 1.042210 1_455
H37 N5 1.042020 1_665
H38 N5 1.042222 1_555
H39 N5 1.042210 1_655
H40 N4 1.016588 1_445
H41 N5 1.016588 1_665
C0 H0 1.095730 1_555
C0 O6 1.258694 1_555
C0 O0 1.269087 1_555
C1 H1 1.095722 1_555
C1 O7 1.258593 1_555
C1 O1 1.269205 1_555
C2 H2 1.095702 1_555
C2 O8 1.258628 1_555
C2 O2 1.269107 1_555
C3 H3 1.095730 1_555
C3 O9 1.258694 1_555
C3 O3 1.269087 1_555
C4 H4 1.095722 1_555
C4 O10 1.258593 1_555
C4 O4 1.269205 1_555
C5 H5 1.095702 1_555
C5 O11 1.258628 1_555
C5 O5 1.269107 1_555
C6 H6 1.095792 1_555
C6 O18 1.258299 1_555
C6 O12 1.270025 1_555
C7 H7 1.095770 1_565
C7 O19 1.258349 1_555
C7 O13 1.269953 1_555
C8 H8 1.095786 1_455
C8 O20 1.258406 1_555
C8 O14 1.269920 1_555
C9 H9 1.095792 1_555
C9 O21 1.258299 1_555
C9 O15 1.270025 1_555
C10 H10 1.095770 1_545
C10 O22 1.258349 1_555
C10 O16 1.269953 1_555
C11 H11 1.095786 1_655
C11 O23 1.258406 1_555
C11 O17 1.269920 1_555
C12 H12 1.095787 1_555
C12 O24 1.258902 1_555
C12 O30 1.268888 1_555
C13 H13 1.095869 1_555
C13 O25 1.258921 1_555
C13 O31 1.268986 1_555
C14 H14 1.095846 1_555
C14 O26 1.258948 1_555
C14 O32 1.268933 1_555
C15 H15 1.095787 1_555
C15 O27 1.258902 1_555
C15 O33 1.268888 1_555
C16 H16 1.095869 1_555
C16 O28 1.258921 1_555
C16 O34 1.268986 1_555
C17 H17 1.095846 1_555
C17 O29 1.258948 1_555
C17 O35 1.268933 1_555
