# generated using pymatgen
data_Na2TiSe2O
_symmetry_space_group_name_H-M   'P 1'
_cell_length_a   13.96095492
_cell_length_b   5.89645800
_cell_length_c   7.13583576
_cell_angle_alpha   67.16133382
_cell_angle_beta   90.00000000
_cell_angle_gamma   90.00000000
_symmetry_Int_Tables_number   1
_chemical_formula_structural   Na2TiSe2O
_chemical_formula_sum   'Na8 Ti4 Se8 O4'
_cell_volume   541.37016543
_cell_formula_units_Z   4
loop_
 _symmetry_equiv_pos_site_id
 _symmetry_equiv_pos_as_xyz
  1  'x, y, z'
loop_
 _atom_site_type_symbol
 _atom_site_label
 _atom_site_symmetry_multiplicity
 _atom_site_fract_x
 _atom_site_fract_y
 _atom_site_fract_z
 _atom_site_occupancy
  Na  Na0  1  0.35969793  0.45214947  0.60621988  1
  Na  Na1  1  0.93975637  0.35393860  0.79506697  1
  Na  Na2  1  0.14030207  0.95214947  0.60621988  1
  Na  Na3  1  0.43975637  0.14606140  0.20493303  1
  Na  Na4  1  0.56024363  0.85393860  0.79506697  1
  Na  Na5  1  0.85969793  0.04785053  0.39378012  1
  Na  Na6  1  0.06024363  0.64606140  0.20493303  1
  Na  Na7  1  0.64030207  0.54785053  0.39378012  1
  Ti  Ti0  1  0.31289706  0.83913683  0.98001903  1
  Ti  Ti1  1  0.68710294  0.16086317  0.01998097  1
  Ti  Ti2  1  0.18710294  0.33913683  0.98001903  1
  Ti  Ti3  1  0.81289706  0.66086317  0.01998097  1
  Se  Se0  1  0.55813862  0.35678270  0.80504807  1
  Se  Se1  1  0.35677062  0.94072181  0.63636481  1
  Se  Se2  1  0.85677062  0.55927819  0.36363519  1
  Se  Se3  1  0.94186138  0.85678270  0.80504807  1
  Se  Se4  1  0.64322938  0.05927819  0.36363519  1
  Se  Se5  1  0.14322938  0.44072181  0.63636481  1
  Se  Se6  1  0.44186138  0.64321730  0.19495193  1
  Se  Se7  1  0.05813862  0.14321730  0.19495193  1
  O  O0  1  0.70951891  0.87032502  0.98097717  1
  O  O1  1  0.20951891  0.62967498  0.01902283  1
  O  O2  1  0.79048109  0.37032502  0.98097717  1
  O  O3  1  0.29048109  0.12967498  0.01902283  1
loop_
_geom_bond_atom_site_label_1
_geom_bond_atom_site_label_2
_geom_bond_distance
_geom_bond_site_symmetry_2
Na0 Se6 2.937880 1_555
Na0 Se1 2.939098 1_545
Na0 Se1 2.971241 1_555
Na0 O3 2.979673 1_556
Na0 Se5 3.028646 1_555
Na0 Se0 3.063514 1_555
Na1 O2 2.492375 1_555
Na1 Se3 2.904705 1_545
Na1 Se3 2.993508 1_555
Na1 Se5 3.027200 1_655
Na1 Se2 3.064734 1_555
Na1 Se7 3.108952 1_656
Na2 Se7 2.937880 1_565
Na2 Se5 2.939098 1_555
Na2 Se5 2.971241 1_565
Na2 O1 2.979673 1_556
Na2 Se1 3.028646 1_555
Na2 Se3 3.063514 1_455
Na3 O3 2.492375 1_555
Na3 Se6 2.904705 1_555
Na3 Se6 2.993508 1_545
Na3 Se4 3.027200 1_555
Na3 Se1 3.064734 1_545
Na3 Se0 3.108952 1_554
Na4 O0 2.492375 1_555
Na4 Se0 2.904705 1_555
Na4 Se0 2.993508 1_565
Na4 Se1 3.027200 1_555
Na4 Se4 3.064734 1_565
Na4 Se6 3.108952 1_556
Na5 Se3 2.937880 1_545
Na5 Se2 2.939098 1_555
Na5 Se2 2.971241 1_545
Na5 O2 2.979673 1_554
Na5 Se4 3.028646 1_555
Na5 Se7 3.063514 1_655
Na6 O1 2.492375 1_555
Na6 Se7 2.904705 1_565
Na6 Se7 2.993508 1_555
Na6 Se2 3.027200 1_455
Na6 Se5 3.064734 1_555
Na6 Se3 3.108952 1_454
Na7 Se0 2.937880 1_555
Na7 Se4 2.939098 1_565
Na7 Se4 2.971241 1_555
Na7 O0 2.979673 1_554
Na7 Se2 3.028646 1_555
Na7 Se6 3.063514 1_555
Se0 Ti1 2.356510 1_556
Se1 Ti0 2.367972 1_555
Se2 Ti3 2.367972 1_555
Se3 Ti3 2.356510 1_556
Se4 Ti1 2.367972 1_555
Se5 Ti2 2.367972 1_555
Se6 Ti0 2.356510 1_554
Se7 Ti2 2.356510 1_554
O0 Ti3 1.849065 1_556
O0 Ti1 1.865585 1_566
O1 Ti0 1.849065 1_554
O1 Ti2 1.865585 1_554
O2 Ti1 1.849065 1_556
O2 Ti3 1.865585 1_556
O3 Ti2 1.849065 1_554
O3 Ti0 1.865585 1_544
