# generated using pymatgen
data_Sr6TcSbO12
_symmetry_space_group_name_H-M   'P 1'
_cell_length_a   6.08947651
_cell_length_b   5.85338397
_cell_length_c   10.23294657
_cell_angle_alpha   54.84800537
_cell_angle_beta   89.79879876
_cell_angle_gamma   89.79694139
_symmetry_Int_Tables_number   1
_chemical_formula_structural   Sr6TcSbO12
_chemical_formula_sum   'Sr6 Tc1 Sb1 O12'
_cell_volume   298.22206987
_cell_formula_units_Z   1
loop_
 _symmetry_equiv_pos_site_id
 _symmetry_equiv_pos_as_xyz
  1  'x, y, z'
loop_
 _atom_site_type_symbol
 _atom_site_label
 _atom_site_symmetry_multiplicity
 _atom_site_fract_x
 _atom_site_fract_y
 _atom_site_fract_z
 _atom_site_occupancy
  Sr  Sr0  1  0.50000000  0.50000000  0.50000000  1
  Sr  Sr1  1  0.95005390  0.72400817  0.26323221  1
  Sr  Sr2  1  0.44636721  0.25806610  0.25761650  1
  Sr  Sr3  1  0.00000000  0.50000000  0.00000000  1
  Sr  Sr4  1  0.55363279  0.74193390  0.74238350  1
  Sr  Sr5  1  0.04994610  0.27599183  0.73676779  1
  Tc  Tc0  1  0.50000000  0.00000000  0.00000000  1
  Sb  Sb0  1  0.00000000  0.00000000  0.50000000  1
  O  O0  1  0.45967496  0.11487442  0.78902804  1
  O  O1  1  0.24239576  0.78040945  0.05984376  1
  O  O2  1  0.18345626  0.31969998  0.45327431  1
  O  O3  1  0.66708345  0.69370360  0.04350481  1
  O  O4  1  0.73115901  0.24141257  0.43436027  1
  O  O5  1  0.95180670  0.88012752  0.72508453  1
  O  O6  1  0.04819330  0.11987248  0.27491547  1
  O  O7  1  0.26884099  0.75858743  0.56563973  1
  O  O8  1  0.33291655  0.30629640  0.95649519  1
  O  O9  1  0.81654374  0.68030002  0.54672569  1
  O  O10  1  0.75760424  0.21959055  0.94015624  1
  O  O11  1  0.54032504  0.88512558  0.21097196  1
loop_
_geom_bond_atom_site_label_1
_geom_bond_atom_site_label_2
_geom_bond_distance
_geom_bond_site_symmetry_2
O0 Tc0 1.871933 1_556
O0 Sr0 2.492192 1_555
O0 Sr4 2.551382 1_545
O0 Sr5 2.610083 1_555
O1 Tc0 1.894478 1_565
O1 Sr3 2.535487 1_555
O1 Sr1 2.607055 1_455
O1 Sr2 2.802195 1_555
O1 Sr5 3.110952 1_564
O2 Sb0 1.989791 1_555
O2 Sr0 2.379066 1_555
O2 Sr1 2.469549 1_455
O2 Sr2 2.739905 1_555
O2 Sr5 2.876173 1_555
O3 Tc0 1.875889 1_565
O3 Sr3 2.480368 1_655
O3 Sr2 2.584466 1_555
O3 Sr1 2.923165 1_555
O3 Sr4 3.010587 1_554
O4 Sb0 2.006601 1_655
O4 Sr0 2.423341 1_555
O4 Sr2 2.471023 1_555
O4 Sr1 2.671537 1_555
O4 Sr4 3.006405 1_545
O5 Sb0 2.004820 1_665
O5 Sr3 2.396749 1_656
O5 Sr5 2.463720 1_665
O5 Sr4 2.531933 1_555
O6 Sb0 2.004820 1_555
O6 Sr3 2.396749 1_555
O6 Sr1 2.463720 1_445
O6 Sr2 2.531933 1_555
O7 Sb0 2.006601 1_565
O7 Sr0 2.423341 1_555
O7 Sr4 2.471023 1_555
O7 Sr5 2.671537 1_555
O7 Sr2 3.006405 1_565
O8 Tc0 1.875889 1_556
O8 Sr3 2.480368 1_556
O8 Sr4 2.584466 1_555
O8 Sr5 2.923165 1_555
O8 Sr2 3.010587 1_556
O9 Sb0 1.989791 1_665
O9 Sr0 2.379066 1_555
O9 Sr5 2.469549 1_655
O9 Sr4 2.739905 1_555
O9 Sr1 2.876173 1_555
O10 Tc0 1.894478 1_556
O10 Sr3 2.535487 1_656
O10 Sr5 2.607055 1_655
O10 Sr4 2.802195 1_555
O10 Sr1 3.110952 1_546
O11 Tc0 1.871933 1_565
O11 Sr0 2.492192 1_555
O11 Sr2 2.551382 1_565
O11 Sr1 2.610083 1_555
