# generated using pymatgen
data_Ba3Si2HgRh6
_symmetry_space_group_name_H-M   'P 1'
_cell_length_a   5.88762780
_cell_length_b   5.88762783
_cell_length_c   16.12817235
_cell_angle_alpha   90.00000000
_cell_angle_beta   90.00000000
_cell_angle_gamma   119.99998876
_symmetry_Int_Tables_number   1
_chemical_formula_structural   Ba3Si2HgRh6
_chemical_formula_sum   'Ba6 Si4 Hg2 Rh12'
_cell_volume   484.16850319
_cell_formula_units_Z   2
loop_
 _symmetry_equiv_pos_site_id
 _symmetry_equiv_pos_as_xyz
  1  'x, y, z'
loop_
 _atom_site_type_symbol
 _atom_site_label
 _atom_site_symmetry_multiplicity
 _atom_site_fract_x
 _atom_site_fract_y
 _atom_site_fract_z
 _atom_site_occupancy
  Ba  Ba0  1  0.66666700  0.33333300  0.95913903  1
  Ba  Ba1  1  0.66666700  0.33333300  0.54086097  1
  Ba  Ba2  1  0.33333300  0.66666700  0.04086097  1
  Ba  Ba3  1  0.66666700  0.33333300  0.75000000  1
  Ba  Ba4  1  0.33333300  0.66666700  0.45913903  1
  Ba  Ba5  1  0.33333300  0.66666700  0.25000000  1
  Si  Si0  1  0.66666700  0.33333300  0.25000000  1
  Si  Si1  1  0.00000000  0.00000000  0.25000000  1
  Si  Si2  1  0.00000000  0.00000000  0.75000000  1
  Si  Si3  1  0.33333300  0.66666700  0.75000000  1
  Hg  Hg0  1  0.00000000  0.00000000  0.50000000  1
  Hg  Hg1  1  0.00000000  0.00000000  0.00000000  1
  Rh  Rh0  1  0.16474531  0.32948961  0.85175552  1
  Rh  Rh1  1  0.16474531  0.32948961  0.64824448  1
  Rh  Rh2  1  0.67051039  0.83525469  0.85175552  1
  Rh  Rh3  1  0.32948961  0.16474531  0.35175552  1
  Rh  Rh4  1  0.83525469  0.67051039  0.35175552  1
  Rh  Rh5  1  0.83525469  0.16474531  0.35175552  1
  Rh  Rh6  1  0.83525469  0.16474531  0.14824448  1
  Rh  Rh7  1  0.32948961  0.16474531  0.14824448  1
  Rh  Rh8  1  0.67051039  0.83525469  0.64824448  1
  Rh  Rh9  1  0.16474531  0.83525469  0.64824448  1
  Rh  Rh10  1  0.83525469  0.67051039  0.14824448  1
  Rh  Rh11  1  0.16474531  0.83525469  0.85175552  1
loop_
_geom_bond_atom_site_label_1
_geom_bond_atom_site_label_2
_geom_bond_distance
_geom_bond_site_symmetry_2
Ba0 Ba3 3.373030 1_555
Ba0 Rh0 3.415538 1_655
Ba0 Rh0 3.415538 1_555
Ba0 Rh2 3.415538 1_545
Ba0 Rh2 3.415538 1_555
Ba0 Rh11 3.415539 1_545
Ba0 Rh11 3.415539 1_655
Ba0 Hg1 3.462513 1_656
Ba0 Hg1 3.462518 1_556
Ba0 Hg1 3.462518 1_666
Ba0 Rh6 3.501100 1_556
Ba0 Rh7 3.501105 1_556
Ba0 Rh10 3.501105 1_556
Ba1 Ba3 3.373030 1_555
Ba1 Rh1 3.415538 1_655
Ba1 Rh1 3.415538 1_555
Ba1 Rh8 3.415538 1_545
Ba1 Rh8 3.415538 1_555
Ba1 Rh9 3.415539 1_545
Ba1 Rh9 3.415539 1_655
Ba1 Hg0 3.462513 1_655
Ba1 Hg0 3.462518 1_555
Ba1 Hg0 3.462518 1_665
Ba1 Rh5 3.501100 1_555
Ba1 Rh3 3.501105 1_555
Ba1 Rh4 3.501105 1_555
Ba2 Ba5 3.373030 1_555
Ba2 Rh10 3.415538 1_455
Ba2 Rh10 3.415538 1_555
Ba2 Rh7 3.415538 1_565
Ba2 Rh7 3.415538 1_555
Ba2 Rh6 3.415539 1_565
Ba2 Rh6 3.415539 1_455
Ba2 Hg1 3.462513 1_565
Ba2 Hg1 3.462518 1_665
Ba2 Hg1 3.462518 1_555
Ba2 Rh11 3.501100 1_554
Ba2 Rh2 3.501105 1_554
Ba2 Rh0 3.501105 1_554
Ba3 Rh0 3.370420 1_655
Ba3 Rh1 3.370420 1_655
Ba3 Rh0 3.370420 1_555
Ba3 Rh1 3.370420 1_555
Ba3 Rh2 3.370420 1_545
Ba3 Rh8 3.370420 1_545
Ba3 Rh2 3.370420 1_555
Ba3 Rh8 3.370420 1_555
Ba3 Rh11 3.370421 1_545
Ba3 Rh9 3.370421 1_545
Ba3 Rh11 3.370421 1_655
Ba3 Rh9 3.370421 1_655
Ba3 Si2 3.399220 1_655
Ba3 Si3 3.399220 1_655
Ba3 Si3 3.399220 1_545
Ba3 Si2 3.399226 1_555
Ba3 Si2 3.399226 1_665
Ba3 Si3 3.399230 1_555
Ba4 Ba5 3.373030 1_555
Ba4 Rh4 3.415538 1_455
Ba4 Rh4 3.415538 1_555
Ba4 Rh3 3.415538 1_565
Ba4 Rh3 3.415538 1_555
Ba4 Rh5 3.415539 1_565
Ba4 Rh5 3.415539 1_455
Ba4 Hg0 3.462513 1_565
Ba4 Hg0 3.462518 1_665
Ba4 Hg0 3.462518 1_555
Ba4 Rh9 3.501100 1_555
Ba4 Rh8 3.501105 1_555
Ba4 Rh1 3.501105 1_555
Ba5 Rh4 3.370420 1_455
Ba5 Rh10 3.370420 1_455
Ba5 Rh4 3.370420 1_555
Ba5 Rh10 3.370420 1_555
Ba5 Rh3 3.370420 1_565
Ba5 Rh7 3.370420 1_565
Ba5 Rh3 3.370420 1_555
Ba5 Rh7 3.370420 1_555
Ba5 Rh5 3.370421 1_565
Ba5 Rh6 3.370421 1_565
Ba5 Rh5 3.370421 1_455
Ba5 Rh6 3.370421 1_455
Ba5 Si1 3.399220 1_565
Ba5 Si0 3.399220 1_455
Ba5 Si0 3.399220 1_565
Ba5 Si1 3.399226 1_665
Ba5 Si1 3.399226 1_555
Ba5 Si0 3.399230 1_555
Hg0 Rh8 2.922141 1_445
Hg0 Rh3 2.922141 1_555
Hg0 Rh1 2.922141 1_555
Hg0 Rh4 2.922141 1_445
Hg0 Rh9 2.922144 1_545
Hg0 Rh5 2.922144 1_455
Hg1 Rh2 2.922141 1_444
Hg1 Rh7 2.922141 1_555
Hg1 Rh0 2.922141 1_554
Hg1 Rh10 2.922141 1_445
Hg1 Rh11 2.922144 1_544
Hg1 Rh6 2.922144 1_455
Rh0 Si2 2.348564 1_555
Rh0 Si3 2.376763 1_555
Rh1 Si2 2.348564 1_555
Rh1 Si3 2.376763 1_555
Rh2 Si2 2.348564 1_665
Rh2 Si3 2.376763 1_555
Rh3 Si1 2.348564 1_555
Rh3 Si0 2.376763 1_555
Rh4 Si1 2.348564 1_665
Rh4 Si0 2.376763 1_555
Rh5 Si1 2.348568 1_655
Rh5 Si0 2.376755 1_555
Rh6 Si1 2.348568 1_655
Rh6 Si0 2.376755 1_555
Rh7 Si1 2.348564 1_555
Rh7 Si0 2.376763 1_555
Rh8 Si2 2.348564 1_665
Rh8 Si3 2.376763 1_555
Rh9 Si2 2.348568 1_565
Rh9 Si3 2.376755 1_555
Rh10 Si1 2.348564 1_665
Rh10 Si0 2.376763 1_555
Rh11 Si2 2.348568 1_565
Rh11 Si3 2.376755 1_555
