# generated using pymatgen
data_Lu3MnAl3Si2
_symmetry_space_group_name_H-M   'P 1'
_cell_length_a   6.74146776
_cell_length_b   6.74146841
_cell_length_c   4.15048461
_cell_angle_alpha   90.00000000
_cell_angle_beta   90.00000000
_cell_angle_gamma   120.00000163
_symmetry_Int_Tables_number   1
_chemical_formula_structural   Lu3MnAl3Si2
_chemical_formula_sum   'Lu3 Mn1 Al3 Si2'
_cell_volume   163.35724410
_cell_formula_units_Z   1
loop_
 _symmetry_equiv_pos_site_id
 _symmetry_equiv_pos_as_xyz
  1  'x, y, z'
loop_
 _atom_site_type_symbol
 _atom_site_label
 _atom_site_symmetry_multiplicity
 _atom_site_fract_x
 _atom_site_fract_y
 _atom_site_fract_z
 _atom_site_occupancy
  Lu  Lu0  1  0.41962676  1.00000000  0.00000000  1
  Lu  Lu1  1  0.00000000  0.41962676  0.00000000  1
  Lu  Lu2  1  0.58037224  0.58037324  0.00000000  1
  Mn  Mn0  1  0.00000000  0.00000000  0.00000000  1
  Al  Al0  1  0.76287168  0.00000000  0.50000100  1
  Al  Al1  1  0.23712732  0.23712832  0.50000100  1
  Al  Al2  1  1.00000000  0.76287068  0.50000100  1
  Si  Si0  1  0.66666700  0.33333300  0.50000100  1
  Si  Si1  1  0.33333300  0.66666600  0.50000100  1
loop_
_geom_bond_atom_site_label_1
_geom_bond_atom_site_label_2
_geom_bond_distance
_geom_bond_site_symmetry_2
Lu0 Mn0 2.828900 1_565
Lu0 Si0 2.896114 1_564
Lu0 Si1 2.896117 1_554
Lu0 Si0 2.896120 1_565
Lu0 Si1 2.896123 1_555
Lu1 Mn0 2.828901 1_555
Lu1 Si0 2.896113 1_454
Lu1 Si1 2.896113 1_554
Lu1 Si0 2.896119 1_455
Lu1 Si1 2.896119 1_555
Lu2 Mn0 2.828904 1_665
Lu2 Si1 2.896109 1_554
Lu2 Si1 2.896115 1_555
Lu2 Si0 2.896121 1_554
Lu2 Si0 2.896126 1_555
Al0 Mn0 2.619563 1_656
Al0 Mn0 2.619570 1_655
Al0 Si0 2.632061 1_555
Al0 Si1 2.632068 1_545
Al0 Al1 2.768838 1_655
Al0 Al2 2.768850 1_545
Al0 Lu0 3.108230 1_546
Al0 Lu0 3.108235 1_545
Al0 Lu2 3.215980 1_546
Al0 Lu1 3.215980 1_656
Al0 Lu2 3.215985 1_545
Al0 Lu1 3.215986 1_655
Al1 Mn0 2.619561 1_556
Al1 Mn0 2.619568 1_555
Al1 Si1 2.632059 1_555
Al1 Si0 2.632074 1_555
Al1 Al2 2.768850 1_445
Al1 Lu2 3.108230 1_556
Al1 Lu2 3.108235 1_555
Al1 Lu1 3.215976 1_556
Al1 Lu1 3.215981 1_555
Al1 Lu0 3.215985 1_546
Al1 Lu0 3.215990 1_545
Al2 Mn0 2.619568 1_666
Al2 Mn0 2.619574 1_665
Al2 Si1 2.632061 1_655
Al2 Si0 2.632061 1_555
Al2 Lu1 3.108225 1_656
Al2 Lu1 3.108230 1_655
Al2 Lu0 3.215981 1_656
Al2 Lu2 3.215985 1_556
Al2 Lu0 3.215986 1_655
Al2 Lu2 3.215991 1_555
