# generated using pymatgen
data_Zr9Ni11
_symmetry_space_group_name_H-M   'P 1'
_cell_length_a   7.77259804
_cell_length_b   7.77259804
_cell_length_c   7.77259804
_cell_angle_alpha   99.99162236
_cell_angle_beta   99.99162236
_cell_angle_gamma   130.76754036
_symmetry_Int_Tables_number   1
_chemical_formula_structural   Zr9Ni11
_chemical_formula_sum   'Zr9 Ni11'
_cell_volume   323.31380862
_cell_formula_units_Z   1
loop_
 _symmetry_equiv_pos_site_id
 _symmetry_equiv_pos_as_xyz
  1  'x, y, z'
loop_
 _atom_site_type_symbol
 _atom_site_label
 _atom_site_symmetry_multiplicity
 _atom_site_fract_x
 _atom_site_fract_y
 _atom_site_fract_z
 _atom_site_occupancy
  Zr  Zr0  1  0.00000000  0.00000000  0.00000000  1
  Zr  Zr1  1  0.24755900  0.58482100  0.83238000  1
  Zr  Zr2  1  0.41517900  0.24755900  0.66273900  1
  Zr  Zr3  1  0.58482100  0.75244100  0.33726100  1
  Zr  Zr4  1  0.75244100  0.41517900  0.16762000  1
  Zr  Zr5  1  0.31132400  0.90940100  0.22072500  1
  Zr  Zr6  1  0.09059900  0.31132400  0.40192300  1
  Zr  Zr7  1  0.90940100  0.68867600  0.59807700  1
  Zr  Zr8  1  0.68867600  0.09059900  0.77927500  1
  Ni  Ni0  1  0.50000000  0.50000000  0.00000000  1
  Ni  Ni1  1  0.75000000  0.25000000  0.50000000  1
  Ni  Ni2  1  0.25000000  0.75000000  0.50000000  1
  Ni  Ni3  1  0.32455900  0.98191800  0.89513000  1
  Ni  Ni4  1  0.42942900  0.32455900  0.34264100  1
  Ni  Ni5  1  0.98191800  0.08678800  0.65735900  1
  Ni  Ni6  1  0.08678800  0.42942900  0.10487000  1
  Ni  Ni7  1  0.67544100  0.01808200  0.10487000  1
  Ni  Ni8  1  0.57057100  0.67544100  0.65735900  1
  Ni  Ni9  1  0.01808200  0.91321200  0.34264100  1
  Ni  Ni10  1  0.91321200  0.57057100  0.89513000  1
loop_
_geom_bond_atom_site_label_1
_geom_bond_atom_site_label_2
_geom_bond_distance
_geom_bond_site_symmetry_2
Ni0 Zr3 2.661265 1_555
Ni0 Zr2 2.661265 1_554
Ni0 Zr4 2.661271 1_555
Ni0 Zr1 2.661271 1_554
Ni0 Zr0 3.237585 1_665
Ni0 Zr0 3.237585 1_555
Ni1 Zr5 2.644835 1_545
Ni1 Zr7 2.644835 1_555
Ni1 Zr8 2.644835 1_555
Ni1 Zr6 2.644835 1_655
Ni1 Zr4 3.075563 1_555
Ni1 Zr1 3.075563 1_655
Ni1 Zr3 3.075564 1_545
Ni1 Zr2 3.075568 1_555
Ni2 Zr7 2.644835 1_455
Ni2 Zr6 2.644835 1_555
Ni2 Zr5 2.644835 1_555
Ni2 Zr8 2.644835 1_565
Ni2 Zr1 3.075563 1_555
Ni2 Zr4 3.075563 1_455
Ni2 Zr2 3.075564 1_565
Ni2 Zr3 3.075568 1_555
Ni3 Zr7 2.630919 1_455
Ni3 Zr1 2.662008 1_555
Ni3 Zr5 2.691173 1_556
Ni3 Zr4 2.709430 1_566
Ni3 Zr8 2.749586 1_565
Ni3 Zr2 2.803248 1_565
Ni3 Zr0 2.860913 1_566
Ni4 Zr5 2.630919 1_545
Ni4 Zr2 2.662016 1_555
Ni4 Zr6 2.691173 1_555
Ni4 Zr3 2.709433 1_555
Ni4 Zr7 2.749586 1_555
Ni4 Zr4 2.803254 1_555
Ni4 Zr0 2.860913 1_555
Ni5 Zr8 2.630919 1_555
Ni5 Zr3 2.662013 1_545
Ni5 Zr7 2.691173 1_545
Ni5 Zr2 2.709428 1_655
Ni5 Zr6 2.749586 1_655
Ni5 Zr1 2.803254 1_655
Ni5 Zr0 2.860913 1_656
Ni6 Zr6 2.630919 1_555
Ni6 Zr4 2.662008 1_455
Ni6 Zr8 2.691173 1_454
Ni6 Zr1 2.709430 1_554
Ni6 Zr5 2.749586 1_555
Ni6 Zr3 2.803252 1_555
Ni6 Zr0 2.860913 1_555
Ni7 Zr6 2.630919 1_655
Ni7 Zr4 2.662008 1_555
Ni7 Zr8 2.691173 1_554
Ni7 Zr1 2.709430 1_544
Ni7 Zr5 2.749586 1_545
Ni7 Zr3 2.803248 1_545
Ni7 Zr0 2.860913 1_655
Ni8 Zr8 2.630919 1_565
Ni8 Zr3 2.662016 1_555
Ni8 Zr7 2.691173 1_555
Ni8 Zr2 2.709433 1_555
Ni8 Zr6 2.749586 1_555
Ni8 Zr1 2.803254 1_555
Ni8 Zr0 2.860913 1_666
Ni9 Zr5 2.630919 1_555
Ni9 Zr2 2.662013 1_565
Ni9 Zr6 2.691173 1_565
Ni9 Zr3 2.709428 1_455
Ni9 Zr7 2.749586 1_455
Ni9 Zr4 2.803254 1_455
Ni9 Zr0 2.860913 1_565
Ni10 Zr7 2.630919 1_555
Ni10 Zr1 2.662008 1_655
Ni10 Zr5 2.691173 1_656
Ni10 Zr4 2.709430 1_556
Ni10 Zr8 2.749586 1_555
Ni10 Zr2 2.803252 1_555
Ni10 Zr0 2.860913 1_666
