# generated using pymatgen
data_Tc3(SeS)2
_symmetry_space_group_name_H-M   'P 1'
_cell_length_a   6.45151006
_cell_length_b   6.51245465
_cell_length_c   6.53115594
_cell_angle_alpha   93.72488239
_cell_angle_beta   92.97647915
_cell_angle_gamma   94.58437228
_symmetry_Int_Tables_number   1
_chemical_formula_structural   Tc3(SeS)2
_chemical_formula_sum   'Tc6 Se4 S4'
_cell_volume   272.50147620
_cell_formula_units_Z   2
loop_
 _symmetry_equiv_pos_site_id
 _symmetry_equiv_pos_as_xyz
  1  'x, y, z'
loop_
 _atom_site_type_symbol
 _atom_site_label
 _atom_site_symmetry_multiplicity
 _atom_site_fract_x
 _atom_site_fract_y
 _atom_site_fract_z
 _atom_site_occupancy
  Tc  Tc0  1  0.58738964  0.45511176  0.76480221  1
  Tc  Tc1  1  0.45066606  0.76728342  0.58722166  1
  Tc  Tc2  1  0.77133024  0.59342260  0.44985203  1
  Tc  Tc3  1  0.41105818  0.54954596  0.23080182  1
  Tc  Tc4  1  0.54828078  0.23165660  0.41038221  1
  Tc  Tc5  1  0.22759582  0.41250866  0.54855200  1
  Se  Se0  1  0.74155297  0.37069592  0.11977517  1
  Se  Se1  1  0.36104527  0.12204926  0.73930421  1
  Se  Se2  1  0.79391290  0.79810562  0.78898699  1
  Se  Se3  1  0.20613870  0.20551171  0.21098415  1
  S  S0  1  0.86550440  0.28632581  0.61701021  1
  S  S1  1  0.28032149  0.61853909  0.87030401  1
  S  S2  1  0.62232131  0.87191290  0.28365880  1
  S  S3  1  0.13288325  0.71733170  0.37836453  1
loop_
_geom_bond_atom_site_label_1
_geom_bond_atom_site_label_2
_geom_bond_distance
_geom_bond_site_symmetry_2
Se0 Tc4 2.503130 1_555
Se0 Tc2 2.508866 1_555
Se0 Tc0 2.584546 1_554
Se0 Tc3 2.622313 1_555
Se1 Tc0 2.507267 1_555
Se1 Tc5 2.515281 1_555
Se1 Tc1 2.575624 1_545
Se1 Tc4 2.629547 1_555
Se2 Tc0 2.499261 1_555
Se2 Tc2 2.501176 1_555
Se2 Tc1 2.504425 1_555
Se3 Tc4 2.491961 1_555
Se3 Tc5 2.499894 1_555
Se3 Tc3 2.501094 1_555
S0 Tc4 2.381320 1_555
S0 Tc0 2.390947 1_555
S0 Tc2 2.443336 1_555
S0 Tc5 2.486284 1_655
S1 Tc5 2.412141 1_555
S1 Tc1 2.416179 1_555
S1 Tc0 2.432210 1_555
S1 Tc3 2.539410 1_556
S2 Tc3 2.404972 1_555
S2 Tc2 2.412012 1_555
S2 Tc1 2.429898 1_555
S2 Tc4 2.523879 1_565
S3 Tc3 2.387434 1_555
S3 Tc1 2.390621 1_555
S3 Tc5 2.441254 1_555
S3 Tc2 2.484186 1_455
