# generated using pymatgen
data_CsLuZnS3
_symmetry_space_group_name_H-M   'P 1'
_cell_length_a   8.02840204
_cell_length_b   8.02840159
_cell_length_c   10.37007445
_cell_angle_alpha   90.00000000
_cell_angle_beta   90.00000000
_cell_angle_gamma   151.59089784
_symmetry_Int_Tables_number   1
_chemical_formula_structural   CsLuZnS3
_chemical_formula_sum   'Cs2 Lu2 Zn2 S6'
_cell_volume   318.00328275
_cell_formula_units_Z   2
loop_
 _symmetry_equiv_pos_site_id
 _symmetry_equiv_pos_as_xyz
  1  'x, y, z'
loop_
 _atom_site_type_symbol
 _atom_site_label
 _atom_site_symmetry_multiplicity
 _atom_site_fract_x
 _atom_site_fract_y
 _atom_site_fract_z
 _atom_site_occupancy
  Cs  Cs0  1  0.74021993  0.25978007  0.25000000  1
  Cs  Cs1  1  0.25978007  0.74021993  0.75000000  1
  Lu  Lu0  1  0.00000000  0.00000000  0.00000000  1
  Lu  Lu1  1  0.00000000  0.00000000  0.50000000  1
  Zn  Zn0  1  0.46098582  0.53901418  0.25000000  1
  Zn  Zn1  1  0.53901418  0.46098582  0.75000000  1
  S  S0  1  0.38886030  0.61113970  0.05662271  1
  S  S1  1  0.94987394  0.05012606  0.75000000  1
  S  S2  1  0.38886030  0.61113970  0.44337729  1
  S  S3  1  0.05012606  0.94987394  0.25000000  1
  S  S4  1  0.61113970  0.38886030  0.94337729  1
  S  S5  1  0.61113970  0.38886030  0.55662271  1
loop_
_geom_bond_atom_site_label_1
_geom_bond_atom_site_label_2
_geom_bond_distance
_geom_bond_site_symmetry_2
Cs0 S3 3.554803 1_655
Cs0 S3 3.554804 1_545
Cs0 S2 3.640844 1_545
Cs0 S0 3.640844 1_545
Cs0 S2 3.640844 1_655
Cs0 S0 3.640844 1_655
Cs0 S5 3.761325 1_555
Cs0 S4 3.761325 1_554
Cs1 S1 3.554803 1_455
Cs1 S1 3.554804 1_565
Cs1 S4 3.640844 1_565
Cs1 S5 3.640844 1_565
Cs1 S4 3.640844 1_455
Cs1 S5 3.640844 1_455
Cs1 S0 3.761325 1_556
Cs1 S2 3.761325 1_555
Lu0 S0 2.686766 1_555
Lu0 S4 2.686766 1_444
Lu0 S4 2.686767 1_554
Lu0 S0 2.686767 1_445
Lu0 S3 2.707389 1_545
Lu0 S1 2.707389 1_454
Lu1 S2 2.686766 1_555
Lu1 S5 2.686766 1_445
Lu1 S5 2.686767 1_555
Lu1 S2 2.686767 1_445
Lu1 S3 2.707389 1_545
Lu1 S1 2.707389 1_455
S0 Zn0 2.298222 1_555
S1 Zn1 2.409639 1_545
S1 Zn1 2.409639 1_655
S2 Zn0 2.298222 1_555
S3 Zn0 2.409639 1_565
S3 Zn0 2.409639 1_455
S4 Zn1 2.298222 1_555
S5 Zn1 2.298222 1_555
