# generated using pymatgen
data_Na2Zr(CrSe3)2
_symmetry_space_group_name_H-M   'P 1'
_cell_length_a   6.48290582
_cell_length_b   6.48290531
_cell_length_c   7.31727559
_cell_angle_alpha   81.65129132
_cell_angle_beta   81.65128943
_cell_angle_gamma   120.20062804
_symmetry_Int_Tables_number   1
_chemical_formula_structural   Na2Zr(CrSe3)2
_chemical_formula_sum   'Na2 Zr1 Cr2 Se6'
_cell_volume   254.26445066
_cell_formula_units_Z   1
loop_
 _symmetry_equiv_pos_site_id
 _symmetry_equiv_pos_as_xyz
  1  'x, y, z'
loop_
 _atom_site_type_symbol
 _atom_site_label
 _atom_site_symmetry_multiplicity
 _atom_site_fract_x
 _atom_site_fract_y
 _atom_site_fract_z
 _atom_site_occupancy
  Na  Na0  1  0.16257769  0.83742231  0.50000000  1
  Na  Na1  1  0.83742231  0.16257769  0.50000000  1
  Zr  Zr0  1  0.00000000  0.00000000  0.00000000  1
  Cr  Cr0  1  0.33256129  0.66743871  0.00000000  1
  Cr  Cr1  1  0.66743871  0.33256129  1.00000000  1
  Se  Se0  1  0.93181263  0.58392284  0.20910739  1
  Se  Se1  1  0.28017919  0.28017919  0.20963713  1
  Se  Se2  1  0.58392284  0.93181263  0.20910739  1
  Se  Se3  1  0.71982081  0.71982081  0.79036287  1
  Se  Se4  1  0.06818737  0.41607716  0.79089261  1
  Se  Se5  1  0.41607716  0.06818737  0.79089261  1
loop_
_geom_bond_atom_site_label_1
_geom_bond_atom_site_label_2
_geom_bond_distance
_geom_bond_site_symmetry_2
Na0 Se4 2.935674 1_555
Na0 Se2 2.935674 1_555
Na0 Se1 2.981842 1_565
Na0 Se3 2.981842 1_455
Na0 Se0 2.989423 1_455
Na0 Se5 2.989423 1_565
Na1 Se0 2.935674 1_555
Na1 Se5 2.935674 1_555
Na1 Se3 2.981842 1_545
Na1 Se1 2.981842 1_655
Na1 Se4 2.989423 1_655
Na1 Se2 2.989423 1_545
Cr0 Se5 2.563964 1_564
Cr0 Se0 2.563964 1_455
Cr0 Se2 2.570974 1_555
Cr0 Se4 2.570974 1_554
Cr0 Se1 2.577594 1_555
Cr0 Se3 2.577594 1_554
Cr1 Se2 2.563964 1_546
Cr1 Se4 2.563964 1_655
Cr1 Se5 2.570974 1_555
Cr1 Se0 2.570974 1_556
Cr1 Se3 2.577594 1_555
Cr1 Se1 2.577594 1_556
Se0 Zr0 2.686624 1_665
Se1 Zr0 2.692682 1_555
Se2 Zr0 2.686624 1_665
Se3 Zr0 2.692682 1_666
Se4 Zr0 2.686624 1_556
Se5 Zr0 2.686624 1_556
