# generated using pymatgen
data_Cs4Bi4PdPt
_symmetry_space_group_name_H-M   'P 1'
_cell_length_a   8.55842794
_cell_length_b   8.55842764
_cell_length_c   7.09134211
_cell_angle_alpha   89.87509657
_cell_angle_beta   90.12490510
_cell_angle_gamma   125.93123634
_symmetry_Int_Tables_number   1
_chemical_formula_structural   Cs4Bi4PdPt
_chemical_formula_sum   'Cs4 Bi4 Pd1 Pt1'
_cell_volume   420.58228224
_cell_formula_units_Z   1
loop_
 _symmetry_equiv_pos_site_id
 _symmetry_equiv_pos_as_xyz
  1  'x, y, z'
loop_
 _atom_site_type_symbol
 _atom_site_label
 _atom_site_symmetry_multiplicity
 _atom_site_fract_x
 _atom_site_fract_y
 _atom_site_fract_z
 _atom_site_occupancy
  Cs  Cs0  1  0.60525758  0.39474242  0.75243384  1
  Cs  Cs1  1  0.39474242  0.60525758  0.24756616  1
  Cs  Cs2  1  0.19362670  0.80637330  0.75083035  1
  Cs  Cs3  1  0.80637330  0.19362670  0.24916965  1
  Bi  Bi0  1  0.71043594  0.90830698  0.74988769  1
  Bi  Bi1  1  0.90830698  0.71043594  0.25011231  1
  Bi  Bi2  1  0.28956406  0.09169302  0.25011231  1
  Bi  Bi3  1  0.09169302  0.28956406  0.74988769  1
  Pd  Pd0  1  0.00000000  0.00000000  0.50000000  1
  Pt  Pt0  1  0.00000000  0.00000000  0.00000000  1
loop_
_geom_bond_atom_site_label_1
_geom_bond_atom_site_label_2
_geom_bond_distance
_geom_bond_site_symmetry_2
Cs2 Pd0 3.442862 1_565
Cs2 Pt0 3.444238 1_566
Cs3 Pd0 3.442862 1_655
Cs3 Pt0 3.444238 1_655
Bi0 Pt0 2.758189 1_666
Bi0 Pd0 2.761908 1_665
Bi0 Bi3 2.966195 1_665
Bi0 Cs0 3.935176 1_555
Bi0 Cs2 3.974441 1_555
Bi0 Cs3 4.104219 1_566
Bi0 Cs3 4.106911 1_565
Bi0 Cs1 4.273119 1_556
Bi0 Cs1 4.299963 1_555
Bi1 Pt0 2.758189 1_665
Bi1 Pd0 2.761908 1_665
Bi1 Bi2 2.966195 1_665
Bi1 Cs1 3.935176 1_555
Bi1 Cs3 3.974441 1_555
Bi1 Cs2 4.104219 1_654
Bi1 Cs2 4.106911 1_655
Bi1 Cs0 4.273119 1_554
Bi1 Cs0 4.299963 1_555
Bi2 Pt0 2.758189 1_555
Bi2 Pd0 2.761908 1_555
Bi2 Cs1 3.935176 1_555
Bi2 Cs3 3.974441 1_555
Bi2 Cs2 4.104219 1_544
Bi2 Cs2 4.106911 1_545
Bi2 Cs0 4.273119 1_554
Bi2 Cs0 4.299963 1_555
Bi3 Pt0 2.758189 1_556
Bi3 Pd0 2.761908 1_555
Bi3 Cs0 3.935176 1_555
Bi3 Cs2 3.974441 1_555
Bi3 Cs3 4.104219 1_456
Bi3 Cs3 4.106911 1_455
Bi3 Cs1 4.273119 1_556
Bi3 Cs1 4.299963 1_555
