# generated using pymatgen
data_TiGaRh3S8
_symmetry_space_group_name_H-M   'P 1'
_cell_length_a   6.86053943
_cell_length_b   6.86053933
_cell_length_c   6.86053987
_cell_angle_alpha   62.00042872
_cell_angle_beta   62.00042375
_cell_angle_gamma   62.00042939
_symmetry_Int_Tables_number   1
_chemical_formula_structural   TiGaRh3S8
_chemical_formula_sum   'Ti1 Ga1 Rh3 S8'
_cell_volume   238.54478916
_cell_formula_units_Z   1
loop_
 _symmetry_equiv_pos_site_id
 _symmetry_equiv_pos_as_xyz
  1  'x, y, z'
loop_
 _atom_site_type_symbol
 _atom_site_label
 _atom_site_symmetry_multiplicity
 _atom_site_fract_x
 _atom_site_fract_y
 _atom_site_fract_z
 _atom_site_occupancy
  Ti  Ti0  1  0.59692405  0.59692405  0.59692405  1
  Ga  Ga0  1  0.00962091  0.00962091  0.00962091  1
  Rh  Rh0  1  0.62456177  0.62456177  0.13930714  1
  Rh  Rh1  1  0.62456177  0.13930714  0.62456177  1
  Rh  Rh2  1  0.13930714  0.62456177  0.62456177  1
  S  S0  1  0.36861557  0.36861557  0.87155635  1
  S  S1  1  0.36861557  0.87155635  0.36861557  1
  S  S2  1  0.87155635  0.36861557  0.36861557  1
  S  S3  1  0.38804580  0.38804580  0.38804580  1
  S  S4  1  0.86326164  0.86326164  0.41196911  1
  S  S5  1  0.86326164  0.41196911  0.86326164  1
  S  S6  1  0.41196911  0.86326164  0.86326164  1
  S  S7  1  0.86969668  0.86969668  0.86969668  1
loop_
_geom_bond_atom_site_label_1
_geom_bond_atom_site_label_2
_geom_bond_distance
_geom_bond_site_symmetry_2
Ga0 S7 2.315223 1_444
Ga0 S6 2.318992 1_544
Ga0 S5 2.318992 1_454
Ga0 S4 2.318992 1_445
Rh0 S3 2.334583 1_555
Rh0 S1 2.354806 1_555
Rh0 S2 2.354807 1_555
Rh0 S5 2.415465 1_554
Rh0 S6 2.415465 1_554
Rh0 S7 2.427350 1_554
Rh1 S3 2.334584 1_555
Rh1 S2 2.354806 1_555
Rh1 S0 2.354806 1_555
Rh1 S6 2.415465 1_545
Rh1 S4 2.415465 1_545
Rh1 S7 2.427351 1_545
Rh2 S3 2.334584 1_555
Rh2 S1 2.354806 1_555
Rh2 S0 2.354807 1_555
Rh2 S5 2.415465 1_455
Rh2 S4 2.415465 1_455
Rh2 S7 2.427350 1_455
S0 Ti0 2.284368 1_555
S1 Ti0 2.284369 1_555
S2 Ti0 2.284369 1_555
S4 Ti0 2.658662 1_555
S5 Ti0 2.658662 1_555
S6 Ti0 2.658662 1_555
