# generated using pymatgen
data_Rb4Si2AgAu6
_symmetry_space_group_name_H-M   'P 1'
_cell_length_a   9.99181923
_cell_length_b   9.99181921
_cell_length_c   9.99181961
_cell_angle_alpha   38.22404158
_cell_angle_beta   38.22404366
_cell_angle_gamma   38.22404097
_symmetry_Int_Tables_number   1
_chemical_formula_structural   Rb4Si2AgAu6
_chemical_formula_sum   'Rb4 Si2 Ag1 Au6'
_cell_volume   342.95045694
_cell_formula_units_Z   1
loop_
 _symmetry_equiv_pos_site_id
 _symmetry_equiv_pos_as_xyz
  1  'x, y, z'
loop_
 _atom_site_type_symbol
 _atom_site_label
 _atom_site_symmetry_multiplicity
 _atom_site_fract_x
 _atom_site_fract_y
 _atom_site_fract_z
 _atom_site_occupancy
  Rb  Rb0  1  0.68245427  0.68245427  0.68245427  1
  Rb  Rb1  1  0.31754573  0.31754573  0.31754573  1
  Rb  Rb2  1  0.80826472  0.80826472  0.80826472  1
  Rb  Rb3  1  0.19173528  0.19173528  0.19173528  1
  Si  Si0  1  0.54465174  0.54465174  0.54465174  1
  Si  Si1  1  0.45534826  0.45534826  0.45534826  1
  Ag  Ag0  1  0.00000000  0.00000000  0.00000000  1
  Au  Au0  1  0.22709346  0.22709346  0.79714068  1
  Au  Au1  1  0.79714068  0.22709346  0.22709346  1
  Au  Au2  1  0.22709346  0.79714068  0.22709346  1
  Au  Au3  1  0.77290654  0.20285932  0.77290654  1
  Au  Au4  1  0.77290654  0.77290654  0.20285932  1
  Au  Au5  1  0.20285932  0.77290654  0.77290654  1
loop_
_geom_bond_atom_site_label_1
_geom_bond_atom_site_label_2
_geom_bond_distance
_geom_bond_site_symmetry_2
Ag0 Au0 2.835985 1_554
Ag0 Au4 2.835985 1_445
Ag0 Au2 2.835985 1_545
Ag0 Au3 2.835985 1_454
Ag0 Au1 2.835986 1_455
Ag0 Au5 2.835986 1_544
Au0 Si1 2.400665 1_555
Au0 Au2 2.813166 1_546
Au0 Au1 2.813167 1_456
Au0 Rb3 3.407877 1_556
Au0 Rb1 3.503001 1_555
Au0 Rb2 3.653404 1_455
Au0 Rb2 3.653404 1_545
Au0 Rb0 3.785805 1_455
Au0 Rb0 3.785805 1_545
Au1 Si1 2.400665 1_555
Au1 Au2 2.813166 1_645
Au1 Rb3 3.407877 1_655
Au1 Rb1 3.503001 1_555
Au1 Rb2 3.653404 1_554
Au1 Rb2 3.653405 1_545
Au1 Rb0 3.785805 1_545
Au1 Rb0 3.785805 1_554
Au2 Si1 2.400665 1_555
Au2 Rb3 3.407877 1_565
Au2 Rb1 3.503001 1_555
Au2 Rb2 3.653405 1_554
Au2 Rb2 3.653405 1_455
Au2 Rb0 3.785805 1_455
Au2 Rb0 3.785805 1_554
Au3 Si0 2.400665 1_555
Au3 Au5 2.813166 1_645
Au3 Au4 2.813166 1_546
Au3 Rb2 3.407877 1_545
Au3 Rb0 3.503001 1_555
Au3 Rb3 3.653405 1_556
Au3 Rb3 3.653405 1_655
Au3 Rb1 3.785805 1_655
Au3 Rb1 3.785805 1_556
Au4 Si0 2.400665 1_555
Au4 Au5 2.813167 1_654
Au4 Rb2 3.407877 1_554
Au4 Rb0 3.503001 1_555
Au4 Rb3 3.653404 1_655
Au4 Rb3 3.653404 1_565
Au4 Rb1 3.785805 1_655
Au4 Rb1 3.785805 1_565
Au5 Si0 2.400665 1_555
Au5 Rb2 3.407877 1_455
Au5 Rb0 3.503001 1_555
Au5 Rb3 3.653404 1_556
Au5 Rb3 3.653405 1_565
Au5 Rb1 3.785805 1_565
Au5 Rb1 3.785805 1_556
