# generated using pymatgen
data_V7Tc3(B2P)2
_symmetry_space_group_name_H-M   'P 1'
_cell_length_a   5.75089283
_cell_length_b   5.75089204
_cell_length_c   6.69415180
_cell_angle_alpha   115.40503971
_cell_angle_beta   115.43744501
_cell_angle_gamma   90.03681085
_symmetry_Int_Tables_number   1
_chemical_formula_structural   V7Tc3(B2P)2
_chemical_formula_sum   'V7 Tc3 B4 P2'
_cell_volume   175.89579726
_cell_formula_units_Z   1
loop_
 _symmetry_equiv_pos_site_id
 _symmetry_equiv_pos_as_xyz
  1  'x, y, z'
loop_
 _atom_site_type_symbol
 _atom_site_label
 _atom_site_symmetry_multiplicity
 _atom_site_fract_x
 _atom_site_fract_y
 _atom_site_fract_z
 _atom_site_occupancy
  V  V0  1  0.50383490  0.50293964  0.00488577  1
  V  V1  1  0.00194513  0.00104987  0.00488577  1
  V  V2  1  0.53061971  0.69009785  0.72071956  1
  V  V3  1  0.97056309  0.47146188  0.27704873  1
  V  V4  1  0.30558885  0.80648764  0.27704873  1
  V  V5  1  0.80626638  0.96844407  0.27470845  1
  V  V6  1  0.46888008  0.30831232  0.27719040  1
  Tc  Tc0  1  0.03512062  0.53479624  0.72303718  1
  Tc  Tc1  1  0.68823794  0.18791456  0.72303718  1
  Tc  Tc2  1  0.19141750  0.03108381  0.72250331  1
  B  B0  1  0.61806757  0.11525401  0.00224107  1
  B  B1  1  0.38698806  0.88417350  0.00224107  1
  B  B2  1  0.88237613  0.61888613  0.00126226  1
  B  B3  1  0.11787155  0.38588852  0.00375907  1
  P  P0  1  0.24788982  0.24838204  0.49271574  1
  P  P1  1  0.74433270  0.74482593  0.49271574  1
loop_
_geom_bond_atom_site_label_1
_geom_bond_atom_site_label_2
_geom_bond_distance
_geom_bond_site_symmetry_2
V0 V5 2.569154 1_555
V0 V3 2.576667 1_555
V0 V6 2.584780 1_555
V0 V4 2.593166 1_555
V0 V2 2.609413 1_554
V1 V5 2.569134 1_445
V1 V4 2.576660 1_545
V1 V6 2.584800 1_555
V1 V3 2.593172 1_455
V1 V2 2.609420 1_444
Tc0 V1 2.599043 1_566
Tc0 V0 2.605283 1_556
Tc0 V3 2.701557 1_455
Tc1 V0 2.599037 1_556
Tc1 V1 2.605283 1_656
Tc1 V4 2.701539 1_545
Tc2 V1 2.615291 1_556
Tc2 V0 2.615297 1_556
B0 B1 1.878768 1_545
B0 V5 2.199460 1_545
B0 V6 2.227286 1_555
B0 V2 2.239028 1_544
B0 Tc2 2.243854 1_554
B0 Tc1 2.269046 1_554
B0 V3 2.290766 1_555
B0 V1 2.298608 1_655
B0 V0 2.319640 1_555
B1 V5 2.199463 1_555
B1 V6 2.227293 1_565
B1 V2 2.239017 1_554
B1 Tc2 2.243848 1_564
B1 Tc0 2.269065 1_554
B1 V4 2.290757 1_555
B1 V0 2.298610 1_555
B1 V1 2.319650 1_565
B2 B3 1.905777 1_655
B2 V3 2.218903 1_555
B2 V4 2.218913 1_655
B2 Tc0 2.259975 1_654
B2 Tc1 2.259986 1_554
B2 V5 2.261749 1_555
B2 V2 2.276880 1_554
B2 V1 2.289467 1_665
B2 V0 2.289474 1_555
B3 V3 2.205932 1_455
B3 V4 2.205937 1_555
B3 Tc0 2.259259 1_554
B3 Tc1 2.259279 1_454
B3 V6 2.269784 1_555
B3 Tc2 2.296962 1_554
B3 V0 2.315017 1_555
B3 V1 2.315031 1_555
P0 V6 2.411793 1_555
P0 V3 2.426438 1_455
P0 V4 2.432519 1_545
P0 V2 2.441777 1_555
P0 V5 2.442666 1_445
P0 Tc1 2.453191 1_555
P0 Tc0 2.455949 1_555
P0 Tc2 2.472099 1_555
P0 V1 2.594603 1_555
P0 V0 2.723963 1_556
P1 V6 2.411777 1_555
P1 V4 2.426430 1_555
P1 V3 2.432528 1_555
P1 V2 2.441786 1_555
P1 V5 2.442681 1_555
P1 Tc0 2.453202 1_655
P1 Tc1 2.455945 1_565
P1 Tc2 2.472090 1_665
P1 V0 2.594603 1_555
P1 V1 2.723963 1_666
