# generated using pymatgen
data_Ga2AgCl8
_symmetry_space_group_name_H-M   'P 1'
_cell_length_a   7.54098733
_cell_length_b   6.71935084
_cell_length_c   12.68379379
_cell_angle_alpha   86.61749460
_cell_angle_beta   90.00000000
_cell_angle_gamma   90.00000000
_symmetry_Int_Tables_number   1
_chemical_formula_structural   Ga2AgCl8
_chemical_formula_sum   'Ga4 Ag2 Cl16'
_cell_volume   641.57503015
_cell_formula_units_Z   2
loop_
 _symmetry_equiv_pos_site_id
 _symmetry_equiv_pos_as_xyz
  1  'x, y, z'
loop_
 _atom_site_type_symbol
 _atom_site_label
 _atom_site_symmetry_multiplicity
 _atom_site_fract_x
 _atom_site_fract_y
 _atom_site_fract_z
 _atom_site_occupancy
  Ga  Ga0  1  0.72756309  0.80244387  0.18621890  1
  Ga  Ga1  1  0.77243691  0.80244387  0.68621890  1
  Ga  Ga2  1  0.27243691  0.19755613  0.81378110  1
  Ga  Ga3  1  0.22756309  0.19755613  0.31378110  1
  Ag  Ag0  1  0.50000000  0.00000000  0.50000000  1
  Ag  Ag1  1  0.00000000  0.00000000  0.00000000  1
  Cl  Cl0  1  0.76058877  0.10715678  0.60109180  1
  Cl  Cl1  1  0.26058877  0.89284322  0.89890820  1
  Cl  Cl2  1  0.98102787  0.68948291  0.11542058  1
  Cl  Cl3  1  0.48102787  0.31051709  0.38457942  1
  Cl  Cl4  1  0.01897213  0.31051709  0.88457942  1
  Cl  Cl5  1  0.51897213  0.68948291  0.61542058  1
  Cl  Cl6  1  0.26605155  0.16684690  0.14725807  1
  Cl  Cl7  1  0.76605155  0.83315310  0.35274193  1
  Cl  Cl8  1  0.73394845  0.83315310  0.85274193  1
  Cl  Cl9  1  0.23394845  0.16684690  0.64725807  1
  Cl  Cl10  1  0.50444175  0.63485261  0.14090507  1
  Cl  Cl11  1  0.00444175  0.36514739  0.35909493  1
  Cl  Cl12  1  0.49555825  0.36514739  0.85909493  1
  Cl  Cl13  1  0.99555825  0.63485261  0.64090507  1
  Cl  Cl14  1  0.73941123  0.10715678  0.10109180  1
  Cl  Cl15  1  0.23941123  0.89284322  0.39890820  1
loop_
_geom_bond_atom_site_label_1
_geom_bond_atom_site_label_2
_geom_bond_distance
_geom_bond_site_symmetry_2
Ag0 Cl0 2.476508 1_555
Ag0 Cl15 2.476508 1_545
Ag0 Cl5 2.481251 1_545
Ag0 Cl3 2.481251 1_555
Ag0 Cl9 3.002968 1_555
Ag0 Cl7 3.002968 1_545
Ag1 Cl14 2.476508 1_455
Ag1 Cl1 2.476508 1_544
Ag1 Cl2 2.481251 1_445
Ag1 Cl4 2.481251 1_554
Ag1 Cl6 3.002968 1_555
Ag1 Cl8 3.002968 1_444
Cl0 Ga1 2.259443 1_545
Cl1 Ga2 2.259443 1_565
Cl2 Ga0 2.261922 1_555
Cl3 Ga3 2.261922 1_555
Cl4 Ga2 2.261922 1_555
Cl5 Ga1 2.261922 1_555
Cl6 Ga3 2.153927 1_555
Cl7 Ga0 2.153927 1_555
Cl8 Ga1 2.153927 1_555
Cl9 Ga2 2.153927 1_555
Cl10 Ga0 2.122691 1_555
Cl11 Ga3 2.122691 1_555
Cl12 Ga2 2.122691 1_555
Cl13 Ga1 2.122691 1_555
Cl14 Ga0 2.259443 1_545
Cl15 Ga3 2.259443 1_565
