# generated using pymatgen
data_BiIrF7
_symmetry_space_group_name_H-M   'P 1'
_cell_length_a   5.54154534
_cell_length_b   9.06575805
_cell_length_c   12.09833533
_cell_angle_alpha   62.23970046
_cell_angle_beta   90.00000000
_cell_angle_gamma   90.00000000
_symmetry_Int_Tables_number   1
_chemical_formula_structural   BiIrF7
_chemical_formula_sum   'Bi4 Ir4 F28'
_cell_volume   537.84452756
_cell_formula_units_Z   4
loop_
 _symmetry_equiv_pos_site_id
 _symmetry_equiv_pos_as_xyz
  1  'x, y, z'
loop_
 _atom_site_type_symbol
 _atom_site_label
 _atom_site_symmetry_multiplicity
 _atom_site_fract_x
 _atom_site_fract_y
 _atom_site_fract_z
 _atom_site_occupancy
  Bi  Bi0  1  0.77142864  0.81336347  0.26329180  1
  Bi  Bi1  1  0.27142864  0.18663653  0.23670820  1
  Bi  Bi2  1  0.22857136  0.18663653  0.73670820  1
  Bi  Bi3  1  0.72857136  0.81336347  0.76329180  1
  Ir  Ir0  1  0.24408417  0.72913905  0.54142826  1
  Ir  Ir1  1  0.74408417  0.27086095  0.95857174  1
  Ir  Ir2  1  0.75591583  0.27086095  0.45857174  1
  Ir  Ir3  1  0.25591583  0.72913905  0.04142826  1
  F  F0  1  0.93697968  0.72335036  0.45716669  1
  F  F1  1  0.43697968  0.27664964  0.04283331  1
  F  F2  1  0.06302032  0.27664964  0.54283331  1
  F  F3  1  0.56302032  0.72335036  0.95716669  1
  F  F4  1  0.07440996  0.71052223  0.91226989  1
  F  F5  1  0.57440996  0.28947777  0.58773011  1
  F  F6  1  0.92559004  0.28947777  0.08773011  1
  F  F7  1  0.42559004  0.71052223  0.41226989  1
  F  F8  1  0.73595511  0.50994973  0.86175131  1
  F  F9  1  0.23595511  0.49005027  0.63824869  1
  F  F10  1  0.26404489  0.49005027  0.13824869  1
  F  F11  1  0.76404489  0.50994973  0.36175131  1
  F  F12  1  0.74530098  0.02893797  0.05163000  1
  F  F13  1  0.24530098  0.97106203  0.44837000  1
  F  F14  1  0.25469902  0.97106203  0.94837000  1
  F  F15  1  0.75469902  0.02893797  0.55163000  1
  F  F16  1  0.06689113  0.74718911  0.67232984  1
  F  F17  1  0.56689113  0.25281089  0.82767016  1
  F  F18  1  0.93310887  0.25281089  0.32767016  1
  F  F19  1  0.43310887  0.74718911  0.17232984  1
  F  F20  1  0.04416547  0.27286528  0.86830835  1
  F  F21  1  0.54416547  0.72713472  0.63169165  1
  F  F22  1  0.95583453  0.72713472  0.13169165  1
  F  F23  1  0.45583453  0.27286528  0.36830835  1
  F  F24  1  0.10575005  0.96621712  0.22805664  1
  F  F25  1  0.60575005  0.03378288  0.27194336  1
  F  F26  1  0.89424995  0.03378288  0.77194336  1
  F  F27  1  0.39424995  0.96621712  0.72805664  1
loop_
_geom_bond_atom_site_label_1
_geom_bond_atom_site_label_2
_geom_bond_distance
_geom_bond_site_symmetry_2
Bi0 F24 2.232495 1_655
Bi0 F25 2.245398 1_565
Bi0 F0 2.286084 1_555
Bi0 F22 2.312944 1_555
Bi0 F19 2.387660 1_555
Bi0 F12 2.394969 1_565
Bi0 F11 2.436090 1_555
Bi0 F7 2.495064 1_555
Bi1 F25 2.232495 1_555
Bi1 F24 2.245398 1_545
Bi1 F1 2.286084 1_555
Bi1 F23 2.312944 1_555
Bi1 F18 2.387660 1_455
Bi1 F13 2.394969 1_545
Bi1 F10 2.436090 1_555
Bi1 F6 2.495064 1_455
Bi2 F26 2.232495 1_455
Bi2 F27 2.245398 1_545
Bi2 F2 2.286084 1_555
Bi2 F20 2.312944 1_555
Bi2 F17 2.387660 1_555
Bi2 F14 2.394969 1_545
Bi2 F9 2.436090 1_555
Bi2 F5 2.495064 1_555
Bi3 F27 2.232495 1_555
Bi3 F26 2.245398 1_565
Bi3 F3 2.286084 1_555
Bi3 F21 2.312944 1_555
Bi3 F16 2.387660 1_655
Bi3 F15 2.394969 1_565
Bi3 F8 2.436090 1_555
Bi3 F4 2.495064 1_655
F0 Ir0 1.997011 1_655
F1 Ir1 1.997011 1_554
F2 Ir2 1.997011 1_455
F3 Ir3 1.997011 1_556
F4 Ir3 1.930690 1_556
F5 Ir2 1.930690 1_555
F6 Ir1 1.930690 1_554
F7 Ir0 1.930690 1_555
F8 Ir1 1.925387 1_555
F9 Ir0 1.925387 1_555
F10 Ir3 1.925387 1_555
F11 Ir2 1.925387 1_555
F12 Ir1 1.943597 1_554
F13 Ir0 1.943597 1_555
F14 Ir3 1.943597 1_556
F15 Ir2 1.943597 1_555
F16 Ir0 1.934022 1_555
F17 Ir1 1.934022 1_555
F18 Ir2 1.934022 1_555
F19 Ir3 1.934022 1_555
F20 Ir1 1.984861 1_455
F21 Ir0 1.984861 1_555
F22 Ir3 1.984861 1_655
F23 Ir2 1.984861 1_555
