# generated using pymatgen
data_Sc6AlIn5Au6
_symmetry_space_group_name_H-M   'P 1'
_cell_length_a   7.60366009
_cell_length_b   7.58347896
_cell_length_c   7.22913300
_cell_angle_alpha   89.99999989
_cell_angle_beta   89.87844488
_cell_angle_gamma   119.91224582
_symmetry_Int_Tables_number   1
_chemical_formula_structural   Sc6AlIn5Au6
_chemical_formula_sum   'Sc6 Al1 In5 Au6'
_cell_volume   361.31840178
_cell_formula_units_Z   1
loop_
 _symmetry_equiv_pos_site_id
 _symmetry_equiv_pos_as_xyz
  1  'x, y, z'
loop_
 _atom_site_type_symbol
 _atom_site_label
 _atom_site_symmetry_multiplicity
 _atom_site_fract_x
 _atom_site_fract_y
 _atom_site_fract_z
 _atom_site_occupancy
  Sc  Sc0  1  0.59794917  0.98477096  0.75141863  1
  Sc  Sc1  1  0.01614956  0.61162132  0.74836066  1
  Sc  Sc2  1  0.38639447  0.40248325  0.74889804  1
  Sc  Sc3  1  0.98385044  0.59547176  0.25163934  1
  Sc  Sc4  1  0.61360553  0.01608878  0.25110196  1
  Sc  Sc5  1  0.40205083  0.38682179  0.24858137  1
  Al  Al0  1  1.00000000  0.27598348  0.50000000  1
  In  In0  1  0.73425519  0.73196557  0.99966510  1
  In  In1  1  0.26574481  0.99771039  0.00033490  1
  In  In2  1  1.00000000  0.27507139  0.00000000  1
  In  In3  1  0.71827613  0.71798815  0.50023994  1
  In  In4  1  0.28172387  0.99971301  0.49976006  1
  Au  Au0  1  0.00032337  0.01393619  0.73480529  1
  Au  Au1  1  0.99967663  0.01361282  0.26519471  1
  Au  Au2  1  0.66411851  0.33194590  0.96694366  1
  Au  Au3  1  0.68177694  0.32938140  0.52811767  1
  Au  Au4  1  0.31822306  0.64760546  0.47188233  1
  Au  Au5  1  0.33588149  0.66782839  0.03305634  1
loop_
_geom_bond_atom_site_label_1
_geom_bond_atom_site_label_2
_geom_bond_distance
_geom_bond_site_symmetry_2
Al0 Au0 2.614437 1_655
Al0 Au1 2.614437 1_555
Al0 Au3 2.652392 1_555
Al0 Au4 2.652397 1_655
Al0 Sc1 3.066991 1_655
Al0 Sc3 3.066991 1_555
Al0 Sc4 3.162464 1_555
Al0 Sc2 3.162464 1_655
Al0 Sc0 3.281649 1_545
Al0 Sc5 3.281649 1_655
In0 Sc5 3.139440 1_556
In0 Sc2 3.155084 1_555
In0 Sc0 3.155919 1_555
In0 Sc3 3.156768 1_556
In0 Sc1 3.265282 1_655
In0 Sc4 3.279069 1_566
In1 Sc0 3.139440 1_554
In1 Sc4 3.155084 1_565
In1 Sc5 3.155919 1_565
In1 Sc1 3.156767 1_554
In1 Sc3 3.265281 1_455
In1 Sc2 3.279069 1_564
In2 Sc1 3.086201 1_654
In2 Sc3 3.086201 1_555
In2 Sc4 3.163346 1_555
In2 Sc2 3.163346 1_654
In2 Sc0 3.276058 1_544
In2 Sc5 3.276058 1_655
In3 Sc2 3.046808 1_555
In3 Sc5 3.065019 1_555
In3 Sc3 3.166472 1_555
In3 Sc0 3.172759 1_555
In3 Sc4 3.284541 1_565
In3 Sc1 3.291998 1_655
In4 Sc4 3.046811 1_565
In4 Sc0 3.065023 1_555
In4 Sc1 3.166477 1_555
In4 Sc5 3.172753 1_565
In4 Sc2 3.284535 1_565
In4 Sc3 3.292003 1_455
Au0 In2 2.757147 1_456
Au0 In4 2.773405 1_545
Au0 In3 2.779695 1_445
Au0 In0 2.828505 1_445
Au0 In1 2.834951 1_546
Au0 Sc2 2.946938 1_555
Au0 Sc0 2.957623 1_445
Au0 Sc1 3.114253 1_545
Au1 In2 2.757147 1_555
Au1 In3 2.773408 1_545
Au1 In4 2.779691 1_645
Au1 In1 2.828505 1_645
Au1 In0 2.834951 1_544
Au1 Sc4 2.946939 1_555
Au1 Sc5 2.957623 1_655
Au1 Sc3 3.114253 1_545
Au2 In2 2.804795 1_556
Au2 In0 2.815987 1_555
Au2 In1 2.828032 1_546
Au2 Sc0 2.880017 1_545
Au2 Sc2 2.893247 1_555
Au2 Sc1 2.912056 1_655
Au2 Sc5 3.016463 1_556
Au2 Sc4 3.030491 1_556
Au2 Sc3 3.052149 1_556
Au3 In4 2.821916 1_545
Au3 In3 2.826032 1_555
Au3 Sc1 2.858332 1_655
Au3 Sc0 2.859378 1_545
Au3 Sc4 2.949547 1_555
Au3 Sc3 2.949621 1_555
Au3 Sc2 3.020885 1_555
Au3 Sc5 3.120826 1_555
Au4 In3 2.821921 1_555
Au4 In4 2.826032 1_555
Au4 Sc3 2.858330 1_455
Au4 Sc5 2.859384 1_555
Au4 Sc2 2.949553 1_555
Au4 Sc1 2.949619 1_555
Au4 Sc4 3.020881 1_565
Au4 Sc0 3.120822 1_555
Au5 In2 2.804799 1_455
Au5 In1 2.815980 1_555
Au5 In0 2.828034 1_554
Au5 Sc5 2.880023 1_555
Au5 Sc4 2.893243 1_565
Au5 Sc3 2.912054 1_455
Au5 Sc0 3.016459 1_554
Au5 Sc2 3.030496 1_554
Au5 Sc1 3.052147 1_554
