# generated using pymatgen
data_Hf16Ta2Pt5Rh
_symmetry_space_group_name_H-M   'P 1'
_cell_length_a   8.75568465
_cell_length_b   8.83573110
_cell_length_c   8.83573166
_cell_angle_alpha   60.26709343
_cell_angle_beta   60.30762749
_cell_angle_gamma   60.30763519
_symmetry_Int_Tables_number   1
_chemical_formula_structural   Hf16Ta2Pt5Rh
_chemical_formula_sum   'Hf16 Ta2 Pt5 Rh1'
_cell_volume   486.56518925
_cell_formula_units_Z   1
loop_
 _symmetry_equiv_pos_site_id
 _symmetry_equiv_pos_as_xyz
  1  'x, y, z'
loop_
 _atom_site_type_symbol
 _atom_site_label
 _atom_site_symmetry_multiplicity
 _atom_site_fract_x
 _atom_site_fract_y
 _atom_site_fract_z
 _atom_site_occupancy
  Hf  Hf0  1  0.16466850  0.61235253  0.61235253  1
  Hf  Hf1  1  0.61498436  0.15202697  0.62056654  1
  Hf  Hf2  1  0.61498436  0.62056654  0.15202697  1
  Hf  Hf3  1  0.60964894  0.61274286  0.61274286  1
  Hf  Hf4  1  0.81718075  0.81732553  0.18833262  1
  Hf  Hf5  1  0.17709143  0.18746637  0.81745285  1
  Hf  Hf6  1  0.81718075  0.18833262  0.81732553  1
  Hf  Hf7  1  0.17709143  0.81745285  0.18746637  1
  Hf  Hf8  1  0.17513466  0.81794991  0.81794991  1
  Hf  Hf9  1  0.81827473  0.18171665  0.18171665  1
  Hf  Hf10  1  0.45125767  0.44556845  0.05266629  1
  Hf  Hf11  1  0.05084879  0.05194856  0.44497317  1
  Hf  Hf12  1  0.45125767  0.05266629  0.44556845  1
  Hf  Hf13  1  0.05084879  0.44497317  0.05194856  1
  Hf  Hf14  1  0.04066409  0.45938548  0.45938548  1
  Hf  Hf15  1  0.45074098  0.05056313  0.05056313  1
  Ta  Ta0  1  0.83638782  0.49333672  0.83513491  1
  Ta  Ta1  1  0.83638782  0.83513491  0.49333672  1
  Pt  Pt0  1  0.81030314  0.39497975  0.39497975  1
  Pt  Pt1  1  0.39782353  0.81405248  0.39043050  1
  Pt  Pt2  1  0.39782353  0.39043050  0.81405248  1
  Pt  Pt3  1  0.40105597  0.39463818  0.39463818  1
  Pt  Pt4  1  0.49576984  0.83217603  0.83217603  1
  Rh  Rh0  1  0.84259545  0.83221253  0.83221253  1
loop_
_geom_bond_atom_site_label_1
_geom_bond_atom_site_label_2
_geom_bond_distance
_geom_bond_site_symmetry_2
Hf0 Pt1 2.713082 1_555
Hf0 Pt2 2.713082 1_555
Hf0 Pt3 2.732501 1_555
Hf0 Rh0 2.896351 1_455
Hf0 Ta0 2.928873 1_455
Hf0 Ta1 2.928873 1_455
Hf0 Hf14 3.090620 1_555
Hf0 Hf11 3.192872 1_565
Hf0 Hf13 3.192872 1_556
Hf0 Hf8 3.195575 1_555
Hf0 Hf5 3.229889 1_555
Hf0 Hf7 3.229889 1_555
Hf1 Pt2 2.712755 1_555
Hf1 Pt0 2.742535 1_555
Hf1 Pt3 2.751454 1_555
Hf1 Pt4 2.884438 1_545
Hf1 Rh0 2.885343 1_545
Hf1 Ta1 2.906455 1_545
Hf1 Hf15 3.129302 1_556
Hf1 Hf11 3.147220 1_655
Hf1 Hf12 3.163210 1_555
Hf1 Hf6 3.228693 1_555
Hf1 Hf5 3.250778 1_555
Hf1 Hf9 3.299779 1_555
Hf2 Pt1 2.712755 1_555
Hf2 Pt0 2.742535 1_555
Hf2 Pt3 2.751454 1_555
Hf2 Pt4 2.884439 1_554
Hf2 Rh0 2.885342 1_554
Hf2 Ta0 2.906455 1_554
Hf2 Hf4 3.228693 1_555
Hf2 Hf7 3.250778 1_555
Hf2 Hf9 3.299779 1_555
Hf3 Pt2 2.708765 1_555
Hf3 Pt1 2.708765 1_555
Hf3 Pt0 2.732270 1_555
Hf3 Pt4 2.900144 1_555
Hf3 Ta1 2.940890 1_555
Hf3 Ta0 2.940890 1_555
Hf3 Hf4 3.226662 1_555
Hf3 Hf6 3.226663 1_555
Hf3 Hf8 3.262256 1_555
Hf4 Ta1 2.865582 1_555
Hf4 Rh0 2.982043 1_554
Hf4 Hf7 3.148037 1_655
Hf4 Hf9 3.195785 1_565
Hf4 Pt1 3.198400 1_555
Hf4 Hf8 3.220361 1_654
Hf4 Pt0 3.258587 1_555
Hf4 Hf6 3.291344 1_564
Hf5 Ta0 2.863103 1_455
Hf5 Pt4 2.988999 1_545
Hf5 Hf6 3.148037 1_455
Hf5 Hf9 3.195345 1_456
Hf5 Pt2 3.205432 1_555
Hf5 Pt3 3.266206 1_555
Hf5 Hf8 3.271287 1_545
Hf5 Hf7 3.282530 1_546
Hf6 Ta0 2.865582 1_555
Hf6 Rh0 2.982043 1_545
Hf6 Hf9 3.195785 1_556
Hf6 Pt2 3.198400 1_555
Hf6 Hf8 3.220361 1_645
Hf6 Pt0 3.258587 1_555
Hf7 Ta1 2.863103 1_455
Hf7 Pt4 2.988999 1_554
Hf7 Hf9 3.195345 1_465
Hf7 Pt1 3.205432 1_555
Hf7 Pt3 3.266206 1_555
Hf7 Hf8 3.271287 1_554
Hf8 Rh0 2.792484 1_455
Hf8 Pt4 2.937320 1_555
Hf8 Pt1 3.292090 1_555
Hf8 Pt2 3.292090 1_555
Hf9 Ta0 2.927786 1_554
Hf9 Ta1 2.927786 1_545
Hf9 Pt3 3.212025 1_555
Hf9 Pt0 3.219896 1_555
Hf10 Pt3 2.656515 1_555
Hf10 Pt2 2.668918 1_554
Hf10 Ta0 3.070457 1_554
Hf10 Pt4 3.095432 1_554
Hf10 Hf2 3.163210 1_555
Hf10 Hf3 3.195005 1_554
Hf10 Hf6 3.260135 1_554
Hf10 Hf9 3.260843 1_555
Hf10 Hf7 3.348614 1_555
Hf10 Hf8 3.360063 1_554
Hf10 Hf14 3.613160 1_555
Hf11 Pt0 2.662150 1_455
Hf11 Pt1 2.666092 1_545
Hf11 Ta1 3.055366 1_445
Hf11 Rh0 3.088437 1_445
Hf11 Hf9 3.256670 1_455
Hf11 Hf7 3.256875 1_545
Hf11 Hf8 3.299197 1_545
Hf11 Hf6 3.359134 1_455
Hf11 Hf14 3.620723 1_555
Hf12 Pt3 2.656514 1_555
Hf12 Pt1 2.668918 1_545
Hf12 Ta1 3.070457 1_545
Hf12 Pt4 3.095433 1_545
Hf12 Hf3 3.195005 1_545
Hf12 Hf4 3.260135 1_545
Hf12 Hf9 3.260843 1_555
Hf12 Hf5 3.348614 1_555
Hf12 Hf8 3.360063 1_545
Hf12 Hf14 3.613160 1_555
Hf13 Pt0 2.662150 1_455
Hf13 Pt2 2.666092 1_554
Hf13 Ta0 3.055366 1_454
Hf13 Rh0 3.088437 1_454
Hf13 Hf2 3.147220 1_455
Hf13 Hf9 3.256670 1_455
Hf13 Hf5 3.256875 1_554
Hf13 Hf8 3.299197 1_554
Hf13 Hf4 3.359134 1_455
Hf13 Hf14 3.620723 1_555
Hf14 Pt0 2.703939 1_455
Hf14 Pt3 2.712830 1_555
Hf14 Ta0 2.980786 1_455
Hf14 Ta1 2.980786 1_455
Hf14 Hf3 3.098908 1_455
Hf14 Hf6 3.250489 1_455
Hf14 Hf4 3.250489 1_455
Hf14 Hf7 3.251127 1_555
Hf14 Hf5 3.251127 1_555
Hf15 Pt1 2.637361 1_545
Hf15 Pt2 2.637361 1_554
Hf15 Pt4 3.128603 1_544
Hf15 Rh0 3.129299 1_544
Hf15 Hf2 3.129302 1_545
Hf15 Hf6 3.294432 1_554
Hf15 Hf4 3.294433 1_545
Hf15 Hf7 3.315534 1_545
Hf15 Hf5 3.315535 1_554
Ta0 Ta1 3.032221 1_555
Pt4 Ta1 3.002066 1_555
Pt4 Ta0 3.002067 1_555
Pt4 Rh0 3.037015 1_555
Rh0 Ta0 3.008670 1_555
Rh0 Ta1 3.008670 1_555
