# generated using pymatgen
data_Sr6MnCrN6
_symmetry_space_group_name_H-M   'P 1'
_cell_length_a   7.70334890
_cell_length_b   7.70334857
_cell_length_c   5.26592552
_cell_angle_alpha   90.00000000
_cell_angle_beta   90.00000000
_cell_angle_gamma   120.00000983
_symmetry_Int_Tables_number   1
_chemical_formula_structural   Sr6MnCrN6
_chemical_formula_sum   'Sr6 Mn1 Cr1 N6'
_cell_volume   270.62282221
_cell_formula_units_Z   1
loop_
 _symmetry_equiv_pos_site_id
 _symmetry_equiv_pos_as_xyz
  1  'x, y, z'
loop_
 _atom_site_type_symbol
 _atom_site_label
 _atom_site_symmetry_multiplicity
 _atom_site_fract_x
 _atom_site_fract_y
 _atom_site_fract_z
 _atom_site_occupancy
  Sr  Sr0  1  0.64087318  0.72599190  0.75000000  1
  Sr  Sr1  1  0.91130495  0.63593519  0.25000000  1
  Sr  Sr2  1  0.72463024  0.08869505  0.25000000  1
  Sr  Sr3  1  0.27400810  0.91488128  0.75000000  1
  Sr  Sr4  1  0.08511872  0.35912682  0.75000000  1
  Sr  Sr5  1  0.36406481  0.27536976  0.25000000  1
  Mn  Mn0  1  0.66666700  0.33333300  0.75000000  1
  Cr  Cr0  1  0.33333300  0.66666700  0.25000000  1
  N  N0  1  0.88266776  0.57309393  0.75000000  1
  N  N1  1  0.31104746  0.87782230  0.25000000  1
  N  N2  1  0.56677584  0.68895254  0.25000000  1
  N  N3  1  0.42690607  0.30957483  0.75000000  1
  N  N4  1  0.69042517  0.11733224  0.75000000  1
  N  N5  1  0.12217770  0.43322416  0.25000000  1
loop_
_geom_bond_atom_site_label_1
_geom_bond_atom_site_label_2
_geom_bond_distance
_geom_bond_site_symmetry_2
Mn0 N4 1.762579 1_555
Mn0 N0 1.762587 1_555
Mn0 N3 1.762594 1_555
Cr0 N1 1.718881 1_555
Cr0 N5 1.718890 1_555
Cr0 N2 1.718897 1_555
N0 Sr0 2.655280 1_555
N0 Sr1 2.666216 1_555
N0 Sr1 2.666216 1_556
N0 Sr4 2.778402 1_655
N0 Sr3 2.843054 1_655
N1 Sr3 2.678966 1_555
N1 Sr3 2.678966 1_554
N1 Sr1 2.686369 1_455
N1 Sr2 2.759312 1_565
N1 Sr5 2.880042 1_565
N2 Sr0 2.678964 1_554
N2 Sr0 2.678964 1_555
N2 Sr2 2.686370 1_565
N2 Sr5 2.759312 1_555
N2 Sr1 2.880035 1_555
N3 Sr3 2.655287 1_545
N3 Sr5 2.666216 1_555
N3 Sr5 2.666216 1_556
N3 Sr0 2.778395 1_555
N3 Sr4 2.843050 1_555
N4 Sr4 2.655286 1_655
N4 Sr2 2.666217 1_556
N4 Sr2 2.666217 1_555
N4 Sr3 2.778395 1_545
N4 Sr0 2.843057 1_545
N5 Sr4 2.678964 1_555
N5 Sr4 2.678964 1_554
N5 Sr5 2.686364 1_555
N5 Sr1 2.759319 1_455
N5 Sr2 2.880039 1_455
