# generated using pymatgen
data_Fe3Hg(NO3)8
_symmetry_space_group_name_H-M   'P 1'
_cell_length_a   7.60506896
_cell_length_b   7.60506891
_cell_length_c   7.60506904
_cell_angle_alpha   87.86508742
_cell_angle_beta   87.86508322
_cell_angle_gamma   87.86508960
_symmetry_Int_Tables_number   1
_chemical_formula_structural   Fe3Hg(NO3)8
_chemical_formula_sum   'Fe3 Hg1 N8 O24'
_cell_volume   438.96114952
_cell_formula_units_Z   1
loop_
 _symmetry_equiv_pos_site_id
 _symmetry_equiv_pos_as_xyz
  1  'x, y, z'
loop_
 _atom_site_type_symbol
 _atom_site_label
 _atom_site_symmetry_multiplicity
 _atom_site_fract_x
 _atom_site_fract_y
 _atom_site_fract_z
 _atom_site_occupancy
  Fe  Fe0  1  0.50000000  0.50000000  0.00000000  1
  Fe  Fe1  1  0.00000000  0.50000000  0.50000000  1
  Fe  Fe2  1  0.50000000  0.00000000  0.50000000  1
  Hg  Hg0  1  0.00000000  0.00000000  0.00000000  1
  N  N0  1  0.34045112  0.19432871  0.83106943  1
  N  N1  1  0.83106943  0.34045112  0.19432871  1
  N  N2  1  0.19432871  0.83106943  0.34045112  1
  N  N3  1  0.67811157  0.67811157  0.67811157  1
  N  N4  1  0.65954888  0.80567129  0.16893057  1
  N  N5  1  0.16893057  0.65954888  0.80567129  1
  N  N6  1  0.80567129  0.16893057  0.65954888  1
  N  N7  1  0.32188843  0.32188843  0.32188843  1
  O  O0  1  0.46685522  0.29887503  0.82542163  1
  O  O1  1  0.82542163  0.46685522  0.29887503  1
  O  O2  1  0.29887503  0.82542163  0.46685522  1
  O  O3  1  0.21972363  0.21274307  0.94706138  1
  O  O4  1  0.33681414  0.07540219  0.72211243  1
  O  O5  1  0.72211243  0.33681414  0.07540219  1
  O  O6  1  0.68797151  0.55465779  0.79223381  1
  O  O7  1  0.21274307  0.94706138  0.21972363  1
  O  O8  1  0.79223381  0.68797151  0.55465779  1
  O  O9  1  0.94706138  0.21972363  0.21274307  1
  O  O10  1  0.55465779  0.79223381  0.68797151  1
  O  O11  1  0.07540219  0.72211243  0.33681414  1
  O  O12  1  0.53314478  0.70112497  0.17457837  1
  O  O13  1  0.17457837  0.53314478  0.70112497  1
  O  O14  1  0.70112497  0.17457837  0.53314478  1
  O  O15  1  0.78027637  0.78725693  0.05293862  1
  O  O16  1  0.66318586  0.92459781  0.27788757  1
  O  O17  1  0.27788757  0.66318586  0.92459781  1
  O  O18  1  0.31202849  0.44534221  0.20776619  1
  O  O19  1  0.78725693  0.05293862  0.78027637  1
  O  O20  1  0.20776619  0.31202849  0.44534221  1
  O  O21  1  0.05293862  0.78027637  0.78725693  1
  O  O22  1  0.44534221  0.20776619  0.31202849  1
  O  O23  1  0.92459781  0.27788757  0.66318586  1
loop_
_geom_bond_atom_site_label_1
_geom_bond_atom_site_label_2
_geom_bond_distance
_geom_bond_site_symmetry_2
Fe0 O12 2.090651 1_555
Fe0 O0 2.090651 1_554
Fe0 O6 2.130739 1_554
Fe0 O18 2.130739 1_555
Fe0 O5 2.141331 1_555
Fe0 O17 2.141331 1_554
Fe1 O13 2.090651 1_555
Fe1 O1 2.090651 1_455
Fe1 O8 2.130739 1_455
Fe1 O20 2.130739 1_555
Fe1 O11 2.141331 1_555
Fe1 O23 2.141331 1_455
Fe2 O14 2.090651 1_555
Fe2 O2 2.090651 1_545
Fe2 O10 2.130739 1_545
Fe2 O22 2.130739 1_555
Fe2 O4 2.141331 1_555
Fe2 O16 2.141331 1_545
Hg0 O15 2.382191 1_445
Hg0 O3 2.382191 1_554
Hg0 O9 2.382191 1_455
Hg0 O21 2.382191 1_544
Hg0 O19 2.382191 1_454
Hg0 O7 2.382191 1_545
N0 O4 1.250925 1_555
N0 O3 1.256990 1_555
N0 O0 1.268639 1_555
N1 O5 1.250925 1_555
N1 O9 1.256990 1_555
N1 O1 1.268639 1_555
N2 O11 1.250925 1_555
N2 O7 1.256990 1_555
N2 O2 1.268639 1_555
N3 O8 1.256688 1_555
N3 O6 1.256688 1_555
N3 O10 1.256688 1_555
N4 O16 1.250925 1_555
N4 O15 1.256990 1_555
N4 O12 1.268639 1_555
N5 O17 1.250925 1_555
N5 O21 1.256990 1_555
N5 O13 1.268639 1_555
N6 O23 1.250925 1_555
N6 O19 1.256990 1_555
N6 O14 1.268639 1_555
N7 O20 1.256688 1_555
N7 O18 1.256688 1_555
N7 O22 1.256688 1_555
