# generated using pymatgen
data_Ce2Y2O7
_symmetry_space_group_name_H-M   'P 1'
_cell_length_a   9.38404800
_cell_length_b   9.39212095
_cell_length_c   9.41691688
_cell_angle_alpha   109.48554886
_cell_angle_beta   109.32648776
_cell_angle_gamma   109.33803563
_symmetry_Int_Tables_number   1
_chemical_formula_structural   Ce2Y2O7
_chemical_formula_sum   'Ce8 Y8 O28'
_cell_volume   640.98038919
_cell_formula_units_Z   4
loop_
 _symmetry_equiv_pos_site_id
 _symmetry_equiv_pos_as_xyz
  1  'x, y, z'
loop_
 _atom_site_type_symbol
 _atom_site_label
 _atom_site_symmetry_multiplicity
 _atom_site_fract_x
 _atom_site_fract_y
 _atom_site_fract_z
 _atom_site_occupancy
  Ce  Ce0  1  0.22638600  0.25179000  0.99334400  1
  Ce  Ce1  1  0.26269100  0.75541400  0.51096500  1
  Ce  Ce2  1  0.72927200  0.22888600  0.47571300  1
  Ce  Ce3  1  0.99894300  0.25180200  0.25180900  1
  Ce  Ce4  1  0.76733700  0.51936500  0.27803000  1
  Ce  Ce5  1  0.00096200  0.00475900  0.50590900  1
  Ce  Ce6  1  0.25028100  0.99273400  0.24352900  1
  Ce  Ce7  1  0.76543000  0.74169200  0.01411200  1
  Y  Y0  1  0.74479700  0.02720000  0.74946300  1
  Y  Y1  1  0.49900000  0.99182600  0.99116400  1
  Y  Y2  1  0.00053400  0.50398700  0.02219200  1
  Y  Y3  1  0.03235800  0.77717000  0.75911600  1
  Y  Y4  1  0.25818400  0.48136500  0.73375200  1
  Y  Y5  1  0.50681500  0.25671000  0.72927500  1
  Y  Y6  1  0.48159300  0.48005600  0.47654600  1
  Y  Y7  1  0.49715200  0.74451200  0.27247500  1
  O  O0  1  0.27823000  0.03578800  0.99618100  1
  O  O1  1  0.24243700  0.51341000  0.98240800  1
  O  O2  1  0.99219900  0.73776900  0.97468800  1
  O  O3  1  0.50431900  0.03136100  0.76859800  1
  O  O4  1  0.26522200  0.24425900  0.76191100  1
  O  O5  1  0.97901300  0.99136900  0.75417900  1
  O  O6  1  0.52324700  0.52932500  0.75903000  1
  O  O7  1  0.25714300  0.73133800  0.76852400  1
  O  O8  1  0.77308200  0.28334100  0.74277600  1
  O  O9  1  0.24373100  0.48723700  0.48663900  1
  O  O10  1  0.01394300  0.76692100  0.50923600  1
  O  O11  1  0.49021500  0.23607300  0.47578000  1
  O  O12  1  0.51783200  0.75155200  0.52355700  1
  O  O13  1  0.24978000  0.00152300  0.49183200  1
  O  O14  1  0.23263800  0.23732300  0.23712800  1
  O  O15  1  0.99687700  0.26241500  0.51176600  1
  O  O16  1  0.77537800  0.52125900  0.53593600  1
  O  O17  1  0.25102800  0.75044200  0.26414100  1
  O  O18  1  0.72884500  0.25006800  0.22923500  1
  O  O19  1  0.49537800  0.47622700  0.23212600  1
  O  O20  1  0.00046500  0.99672700  0.25379800  1
  O  O21  1  0.74733800  0.00385100  0.49899000  1
  O  O22  1  0.73905200  0.75362800  0.24432700  1
  O  O23  1  0.49223700  0.96819800  0.22320100  1
  O  O24  1  0.00451900  0.50888900  0.26903000  1
  O  O25  1  0.98860000  0.25489000  0.00817900  1
  O  O26  1  0.73438900  0.48293100  0.01350100  1
  O  O27  1  0.72492800  0.94641500  0.97591200  1
loop_
_geom_bond_atom_site_label_1
_geom_bond_atom_site_label_2
_geom_bond_distance
_geom_bond_site_symmetry_2
Ce0 O0 2.243727 1_555
Ce0 O25 2.290444 1_456
Ce0 O4 2.308135 1_555
Ce0 O14 2.327304 1_556
Ce0 O19 2.329866 1_556
Ce0 O5 2.355350 1_445
Ce0 O1 2.450496 1_555
Ce1 O17 2.274302 1_555
Ce1 O24 2.352308 1_555
Ce1 O10 2.367240 1_555
Ce1 O12 2.370718 1_555
Ce1 O9 2.391555 1_555
Ce1 O13 2.416397 1_565
Ce1 O3 2.452835 1_565
Ce1 O7 2.525497 1_555
Ce2 O21 2.250709 1_555
Ce2 O8 2.252478 1_555
Ce2 O11 2.266770 1_555
Ce2 O15 2.315441 1_555
Ce2 O23 2.367457 1_545
Ce2 O18 2.393608 1_555
Ce2 O16 2.461941 1_555
Ce3 O9 2.251197 1_655
Ce3 O25 2.274353 1_555
Ce3 O14 2.287470 1_655
Ce3 O24 2.347076 1_655
Ce3 O20 2.406726 1_645
Ce3 O15 2.423404 1_555
Ce3 O18 2.466462 1_555
Ce3 O27 2.703862 1_544
Ce4 O10 2.286052 1_655
Ce4 O24 2.288024 1_655
Ce4 O18 2.290972 1_555
Ce4 O26 2.295532 1_555
Ce4 O19 2.309169 1_555
Ce4 O16 2.398642 1_555
Ce4 O22 2.410198 1_555
Ce5 O10 2.286936 1_545
Ce5 O20 2.348416 1_545
Ce5 O21 2.356344 1_455
Ce5 O13 2.391554 1_555
Ce5 O4 2.398346 1_555
Ce5 O15 2.415449 1_455
Ce5 O22 2.439066 1_445
Ce5 O5 2.453961 1_445
Ce6 O11 2.252570 1_565
Ce6 O13 2.313657 1_565
Ce6 O17 2.349592 1_555
Ce6 O14 2.376105 1_565
Ce6 O20 2.390040 1_555
Ce6 O23 2.418642 1_555
Ce6 O2 2.462789 1_454
Ce6 O0 2.572978 1_564
Ce7 O27 2.196792 1_554
Ce7 O22 2.232742 1_555
Ce7 O6 2.258640 1_554
Ce7 O2 2.287650 1_554
Ce7 O20 2.301263 1_655
Ce7 O26 2.347771 1_555
O0 Y1 2.254554 1_545
O0 Y3 2.338508 1_545
O1 Y4 2.320281 1_555
O1 Y2 2.398584 1_556
O1 Y7 2.484521 1_556
O2 Y3 2.305459 1_655
O2 Y2 2.402755 1_656
O3 Y1 2.260369 1_545
O3 Y5 2.261203 1_555
O3 Y0 2.334386 1_555
O4 Y4 2.348118 1_555
O4 Y5 2.357443 1_555
O5 Y3 2.239194 1_655
O5 Y0 2.319738 1_565
O6 Y4 2.289338 1_555
O6 Y6 2.411214 1_555
O6 Y5 2.426809 1_555
O7 Y4 2.263582 1_555
O7 Y3 2.268433 1_555
O7 Y1 2.298535 1_555
O8 Y2 2.342900 1_656
O8 Y0 2.356073 1_555
O8 Y5 2.382572 1_555
O9 Y6 2.287300 1_555
O9 Y4 2.306129 1_555
O10 Y3 2.268242 1_555
O11 Y5 2.277163 1_555
O11 Y6 2.317283 1_555
O12 Y7 2.283856 1_555
O12 Y6 2.320926 1_555
O12 Y0 2.332214 1_565
O13 Y5 2.363933 1_555
O14 Y6 2.301228 1_555
O15 Y4 2.238575 1_655
O16 Y3 2.333680 1_655
O16 Y6 2.488270 1_555
O17 Y7 2.304740 1_555
O17 Y2 2.325455 1_555
O18 Y1 2.295232 1_544
O19 Y6 2.336816 1_555
O19 Y7 2.413124 1_555
O21 Y0 2.303836 1_555
O21 Y7 2.329501 1_545
O22 Y7 2.348444 1_555
O23 Y1 2.287745 1_554
O23 Y7 2.309006 1_555
O24 Y2 2.297069 1_555
O25 Y2 2.261455 1_655
O25 Y0 2.310321 1_554
O26 Y5 2.378336 1_554
O26 Y2 2.410436 1_655
O27 Y1 2.336020 1_555
O27 Y0 2.531146 1_565
