# generated using pymatgen
data_NbTcWS6
_symmetry_space_group_name_H-M   'P 1'
_cell_length_a   5.57234167
_cell_length_b   5.57316013
_cell_length_c   6.72093813
_cell_angle_alpha   82.23364213
_cell_angle_beta   82.15261684
_cell_angle_gamma   119.98827311
_symmetry_Int_Tables_number   1
_chemical_formula_structural   NbTcWS6
_chemical_formula_sum   'Nb1 Tc1 W1 S6'
_cell_volume   173.98369705
_cell_formula_units_Z   1
loop_
 _symmetry_equiv_pos_site_id
 _symmetry_equiv_pos_as_xyz
  1  'x, y, z'
loop_
 _atom_site_type_symbol
 _atom_site_label
 _atom_site_symmetry_multiplicity
 _atom_site_fract_x
 _atom_site_fract_y
 _atom_site_fract_z
 _atom_site_occupancy
  Nb  Nb0  1  0.49977001  0.83322234  0.50013998  1
  Tc  Tc0  1  0.83321944  0.49977966  0.50007577  1
  W  W0  1  0.16697138  0.16693978  0.49982219  1
  S  S0  1  0.58045508  0.25560042  0.26041627  1
  S  S1  1  0.23445995  0.56949189  0.26015542  1
  S  S2  1  0.92085988  0.90982406  0.26051567  1
  S  S3  1  0.76426044  0.75359407  0.73950245  1
  S  S4  1  0.42299210  0.09925099  0.73987960  1
  S  S5  1  0.07691273  0.41220179  0.73979166  1
loop_
_geom_bond_atom_site_label_1
_geom_bond_atom_site_label_2
_geom_bond_distance
_geom_bond_site_symmetry_2
Nb0 S0 2.461383 1_565
Nb0 S2 2.462256 1_555
Nb0 S3 2.462822 1_555
Nb0 S1 2.463167 1_555
Nb0 S5 2.463215 1_555
Nb0 S4 2.463514 1_565
S0 Tc0 2.392927 1_555
S0 W0 2.403449 1_555
S1 Tc0 2.393308 1_455
S1 W0 2.404950 1_555
S2 Tc0 2.393405 1_555
S2 W0 2.404515 1_665
S3 Tc0 2.393272 1_555
S3 W0 2.404108 1_665
S4 Tc0 2.393026 1_555
S4 W0 2.404730 1_555
S5 Tc0 2.392777 1_455
S5 W0 2.404561 1_555
