# generated using pymatgen
data_Na2PPt2
_symmetry_space_group_name_H-M   'P 1'
_cell_length_a   5.42467606
_cell_length_b   5.42467506
_cell_length_c   7.28363646
_cell_angle_alpha   97.31671693
_cell_angle_beta   97.31671142
_cell_angle_gamma   66.03004888
_symmetry_Int_Tables_number   1
_chemical_formula_structural   Na2PPt2
_chemical_formula_sum   'Na4 P2 Pt4'
_cell_volume   193.57965024
_cell_formula_units_Z   2
loop_
 _symmetry_equiv_pos_site_id
 _symmetry_equiv_pos_as_xyz
  1  'x, y, z'
loop_
 _atom_site_type_symbol
 _atom_site_label
 _atom_site_symmetry_multiplicity
 _atom_site_fract_x
 _atom_site_fract_y
 _atom_site_fract_z
 _atom_site_occupancy
  Na  Na0  1  0.03493139  0.26231425  0.14872138  1
  Na  Na1  1  0.73768475  0.96506861  0.35127862  1
  Na  Na2  1  0.26231525  0.03493139  0.64872138  1
  Na  Na3  1  0.96506861  0.73768575  0.85127962  1
  P  P0  1  0.43498943  0.56501057  0.25000000  1
  P  P1  1  0.56501057  0.43498943  0.75000000  1
  Pt  Pt0  1  0.48915383  0.76006114  0.00186009  1
  Pt  Pt1  1  0.23993886  0.51084717  0.49813891  1
  Pt  Pt2  1  0.76006114  0.48915283  0.50186109  1
  Pt  Pt3  1  0.51084717  0.23993886  0.99813891  1
loop_
_geom_bond_atom_site_label_1
_geom_bond_atom_site_label_2
_geom_bond_distance
_geom_bond_site_symmetry_2
Na0 Pt3 2.883660 1_554
Na0 Pt3 2.958464 1_454
Na0 Pt2 3.005548 1_455
Na0 Pt0 3.018794 1_545
Na0 Pt1 3.025720 1_555
Na0 P0 3.129385 1_455
Na0 P0 3.182648 1_555
Na0 Pt0 3.260988 1_455
Na1 Pt2 2.883658 1_555
Na1 Pt2 2.958465 1_565
Na1 Pt3 3.005547 1_564
Na1 Pt1 3.018791 1_655
Na1 Pt0 3.025721 1_555
Na1 P0 3.129384 1_565
Na1 P0 3.182644 1_555
Na1 Pt1 3.260986 1_565
Na2 Pt1 2.883658 1_555
Na2 Pt1 2.958465 1_545
Na2 Pt0 3.005541 1_546
Na2 Pt2 3.018791 1_455
Na2 Pt3 3.025718 1_555
Na2 P1 3.129384 1_545
Na2 P1 3.182644 1_555
Na2 Pt2 3.260986 1_545
Na3 Pt0 2.883648 1_556
Na3 Pt0 2.958465 1_656
Na3 Pt1 3.005554 1_655
Na3 Pt3 3.018786 1_565
Na3 Pt2 3.025726 1_555
Na3 P1 3.129387 1_655
Na3 P1 3.182649 1_555
Na3 Pt3 3.260987 1_655
P0 Pt1 2.312433 1_555
P0 Pt0 2.312442 1_555
P0 Pt3 2.328717 1_554
P0 Pt2 2.328717 1_555
P1 Pt3 2.312433 1_555
P1 Pt2 2.312433 1_555
P1 Pt0 2.328712 1_556
P1 Pt1 2.328717 1_555
Pt0 Pt3 2.656845 1_564
Pt0 Pt3 2.772538 1_554
Pt1 Pt2 2.656848 1_455
Pt1 Pt2 2.772536 1_555
