# generated using pymatgen
data_Na2LiAlSb2
_symmetry_space_group_name_H-M   'P 1'
_cell_length_a   9.82229198
_cell_length_b   9.82229235
_cell_length_c   6.29787533
_cell_angle_alpha   90.00000000
_cell_angle_beta   90.00000000
_cell_angle_gamma   98.59526394
_symmetry_Int_Tables_number   1
_chemical_formula_structural   Na2LiAlSb2
_chemical_formula_sum   'Na8 Li4 Al4 Sb8'
_cell_volume   600.77863847
_cell_formula_units_Z   4
loop_
 _symmetry_equiv_pos_site_id
 _symmetry_equiv_pos_as_xyz
  1  'x, y, z'
loop_
 _atom_site_type_symbol
 _atom_site_label
 _atom_site_symmetry_multiplicity
 _atom_site_fract_x
 _atom_site_fract_y
 _atom_site_fract_z
 _atom_site_occupancy
  Na  Na0  1  0.42657701  0.07342299  0.25000000  1
  Na  Na1  1  0.07342299  0.42657701  0.75000000  1
  Na  Na2  1  0.57342299  0.92657701  0.75000000  1
  Na  Na3  1  0.32621311  0.67378689  0.28029112  1
  Na  Na4  1  0.82621311  0.17378689  0.21970888  1
  Na  Na5  1  0.67378689  0.32621311  0.71970888  1
  Na  Na6  1  0.17378689  0.82621311  0.78029112  1
  Na  Na7  1  0.92657701  0.57342299  0.25000000  1
  Li  Li0  1  0.38011499  0.38011499  0.50000000  1
  Li  Li1  1  0.11988501  0.11988501  0.00000000  1
  Li  Li2  1  0.61988501  0.61988501  0.50000000  1
  Li  Li3  1  0.88011499  0.88011499  0.00000000  1
  Al  Al0  1  0.87008840  0.87008840  0.50000000  1
  Al  Al1  1  0.12991160  0.12991160  0.50000000  1
  Al  Al2  1  0.62991160  0.62991160  0.00000000  1
  Al  Al3  1  0.37008840  0.37008840  0.00000000  1
  Sb  Sb0  1  0.11039933  0.88960067  0.28003505  1
  Sb  Sb1  1  0.61039933  0.38960067  0.21996495  1
  Sb  Sb2  1  0.88960067  0.11039933  0.71996495  1
  Sb  Sb3  1  0.38960067  0.61039933  0.78003505  1
  Sb  Sb4  1  0.14061683  0.35938317  0.25000000  1
  Sb  Sb5  1  0.35938317  0.14061683  0.75000000  1
  Sb  Sb6  1  0.85938317  0.64061683  0.75000000  1
  Sb  Sb7  1  0.64061683  0.85938317  0.25000000  1
loop_
_geom_bond_atom_site_label_1
_geom_bond_atom_site_label_2
_geom_bond_distance
_geom_bond_site_symmetry_2
Na0 Sb7 3.187632 1_545
Na0 Sb5 3.304119 1_555
Na0 Sb5 3.304119 1_554
Na0 Sb0 3.356253 1_545
Na0 Sb1 3.356253 1_555
Na1 Sb6 3.187632 1_455
Na1 Sb4 3.304119 1_556
Na1 Sb4 3.304119 1_555
Na1 Sb3 3.356253 1_555
Na1 Sb2 3.356253 1_455
Na2 Sb5 3.187632 1_565
Na2 Sb7 3.304119 1_556
Na2 Sb7 3.304119 1_555
Na2 Sb2 3.356253 1_565
Na2 Sb3 3.356253 1_555
Na3 Sb0 3.214051 1_555
Na3 Sb3 3.285850 1_555
Na3 Sb3 3.288940 1_554
Na3 Sb7 3.348682 1_555
Na3 Sb4 3.348682 1_555
Na4 Sb1 3.214051 1_555
Na4 Sb2 3.285850 1_554
Na4 Sb2 3.288940 1_555
Na4 Sb4 3.348682 1_655
Na4 Sb7 3.348682 1_545
Na5 Sb2 3.214051 1_555
Na5 Sb1 3.285850 1_555
Na5 Sb1 3.288940 1_556
Na5 Sb5 3.348682 1_555
Na5 Sb6 3.348682 1_555
Na6 Sb3 3.214051 1_555
Na6 Sb0 3.285850 1_556
Na6 Sb0 3.288940 1_555
Na6 Sb6 3.348682 1_455
Na6 Sb5 3.348682 1_565
Na7 Sb4 3.187632 1_655
Na7 Sb6 3.304119 1_554
Na7 Sb6 3.304119 1_555
Na7 Sb1 3.356253 1_555
Na7 Sb0 3.356253 1_655
Li0 Sb4 2.812671 1_555
Li0 Sb5 2.812671 1_555
Li0 Sb1 2.858732 1_555
Li0 Sb3 2.858732 1_555
Li1 Sb5 2.812671 1_554
Li1 Sb4 2.812671 1_555
Li1 Sb2 2.858732 1_454
Li1 Sb0 2.858732 1_545
Li2 Sb6 2.812671 1_555
Li2 Sb7 2.812671 1_555
Li2 Sb3 2.858732 1_555
Li2 Sb1 2.858732 1_555
Li3 Sb7 2.812671 1_555
Li3 Sb6 2.812671 1_554
Li3 Sb0 2.858732 1_655
Li3 Sb2 2.858732 1_564
Al0 Sb0 2.718843 1_655
Al0 Sb2 2.718843 1_565
Al0 Sb7 2.738503 1_555
Al0 Sb6 2.738503 1_555
Al1 Sb2 2.718843 1_455
Al1 Sb0 2.718843 1_545
Al1 Sb5 2.738503 1_555
Al1 Sb4 2.738503 1_555
Al2 Sb3 2.718843 1_554
Al2 Sb1 2.718843 1_555
Al2 Sb6 2.738503 1_554
Al2 Sb7 2.738503 1_555
Al3 Sb1 2.718843 1_555
Al3 Sb3 2.718843 1_554
Al3 Sb4 2.738503 1_555
Al3 Sb5 2.738503 1_554
