# generated using pymatgen
data_Sr2AlCrH10
_symmetry_space_group_name_H-M   'P 1'
_cell_length_a   4.53212183
_cell_length_b   5.10154210
_cell_length_c   12.51226548
_cell_angle_alpha   94.92969005
_cell_angle_beta   90.00000000
_cell_angle_gamma   90.00000000
_symmetry_Int_Tables_number   1
_chemical_formula_structural   Sr2AlCrH10
_chemical_formula_sum   'Sr4 Al2 Cr2 H20'
_cell_volume   288.22359059
_cell_formula_units_Z   2
loop_
 _symmetry_equiv_pos_site_id
 _symmetry_equiv_pos_as_xyz
  1  'x, y, z'
loop_
 _atom_site_type_symbol
 _atom_site_label
 _atom_site_symmetry_multiplicity
 _atom_site_fract_x
 _atom_site_fract_y
 _atom_site_fract_z
 _atom_site_occupancy
  Sr  Sr0  1  0.28150828  0.17886069  0.65853527  1
  Sr  Sr1  1  0.78150828  0.32113931  0.34146473  1
  Sr  Sr2  1  0.23153389  0.78276614  0.15065124  1
  Sr  Sr3  1  0.73153389  0.71723386  0.84934876  1
  Al  Al0  1  0.17803113  0.84870784  0.41329770  1
  Al  Al1  1  0.67803113  0.65129216  0.58670230  1
  Cr  Cr0  1  0.28912961  0.23288700  0.92513848  1
  Cr  Cr1  1  0.78912961  0.26711300  0.07486152  1
  H  H0  1  0.52949891  0.39305687  0.51351077  1
  H  H1  1  0.02949891  0.10694313  0.48648923  1
  H  H2  1  0.00752985  0.46178955  0.99838636  1
  H  H3  1  0.50752985  0.03821045  0.00161364  1
  H  H4  1  0.19816728  0.97173320  0.83474166  1
  H  H5  1  0.69816728  0.52826680  0.16525834  1
  H  H6  1  0.32437991  0.05350759  0.32535410  1
  H  H7  1  0.82437991  0.44649241  0.67464590  1
  H  H8  1  0.20200843  0.45819371  0.83564420  1
  H  H9  1  0.70200843  0.04180629  0.16435580  1
  H  H10  1  0.30212898  0.57430711  0.33879181  1
  H  H11  1  0.80212898  0.92569289  0.66120819  1
  H  H12  1  0.58922186  0.21546075  0.84572611  1
  H  H13  1  0.08922186  0.28453925  0.15427389  1
  H  H14  1  0.87815949  0.82526029  0.32787706  1
  H  H15  1  0.37815949  0.67473971  0.67212294  1
  H  H16  1  0.00768903  0.03859764  0.99894937  1
  H  H17  1  0.50768903  0.46140236  0.00105063  1
  H  H18  1  0.48101335  0.86565063  0.50274029  1
  H  H19  1  0.98101335  0.63434937  0.49725971  1
loop_
_geom_bond_atom_site_label_1
_geom_bond_atom_site_label_2
_geom_bond_distance
_geom_bond_site_symmetry_2
Al0 H1 1.679290 1_565
Al0 H10 1.709014 1_555
Al0 H6 1.714624 1_565
Al0 H14 1.726763 1_455
Al0 H18 1.768854 1_555
Al0 H19 1.815012 1_455
Al1 H0 1.679290 1_555
Al1 H11 1.709014 1_555
Al1 H7 1.714624 1_555
Al1 H15 1.726763 1_555
Al1 H19 1.768854 1_555
Al1 H18 1.815012 1_555
Cr0 H12 1.682191 1_555
Cr0 H8 1.718183 1_555
Cr0 H4 1.721996 1_545
Cr0 H3 1.745001 1_556
Cr0 H17 1.747022 1_556
Cr0 H16 1.902536 1_555
Cr0 H2 1.910100 1_555
Cr1 H13 1.682191 1_655
Cr1 H9 1.718183 1_555
Cr1 H5 1.721996 1_555
Cr1 H2 1.745001 1_654
Cr1 H16 1.747022 1_654
Cr1 H17 1.902536 1_555
Cr1 H3 1.910100 1_555
H0 Sr1 2.436678 1_555
H0 Sr0 2.467949 1_555
H1 Sr0 2.436678 1_555
H1 Sr1 2.467949 1_455
H2 Sr2 2.608739 1_556
H2 Sr3 2.675439 1_455
H3 Sr3 2.608739 1_544
H3 Sr2 2.675439 1_545
H4 Sr3 2.496481 1_455
H4 Sr0 2.553526 1_565
H4 Sr3 2.757377 1_555
H5 Sr2 2.496481 1_555
H5 Sr1 2.553526 1_555
H5 Sr2 2.757377 1_655
H6 Sr1 2.479852 1_555
H6 Sr2 2.518761 1_545
H6 Sr1 2.812622 1_455
H7 Sr0 2.479852 1_655
H7 Sr3 2.518761 1_555
H7 Sr0 2.812622 1_555
H8 Sr3 2.506654 1_455
H8 Sr0 2.555111 1_555
H8 Sr3 2.737924 1_555
H9 Sr2 2.506654 1_545
H9 Sr1 2.555111 1_555
H9 Sr2 2.737924 1_645
H10 Sr1 2.529199 1_555
H10 Sr2 2.684250 1_555
H10 Sr1 2.691459 1_455
H11 Sr0 2.529199 1_665
H11 Sr3 2.684250 1_555
H11 Sr0 2.691459 1_565
H12 Sr3 2.626446 1_545
H12 Sr3 2.636431 1_555
H12 Sr0 2.718531 1_555
H13 Sr2 2.626446 1_555
H13 Sr2 2.636431 1_545
H13 Sr1 2.718531 1_455
H14 Sr1 2.558610 1_565
H14 Sr1 2.628698 1_555
H14 Sr2 2.728843 1_655
H15 Sr0 2.558610 1_555
H15 Sr0 2.628698 1_565
H15 Sr3 2.728843 1_555
H16 Sr2 2.600241 1_546
H16 Sr3 2.688977 1_445
H17 Sr3 2.600241 1_554
H17 Sr2 2.688977 1_555
H18 Sr0 2.575911 1_565
H19 Sr1 2.575911 1_555
