# generated using pymatgen
data_MgSiO3
_symmetry_space_group_name_H-M   'P 1'
_cell_length_a   4.83090700
_cell_length_b   4.98102600
_cell_length_c   6.97886800
_cell_angle_alpha   90.00000000
_cell_angle_beta   90.00000000
_cell_angle_gamma   90.00000000
_symmetry_Int_Tables_number   1
_chemical_formula_structural   MgSiO3
_chemical_formula_sum   'Mg4 Si4 O12'
_cell_volume   167.93161695
_cell_formula_units_Z   4
loop_
 _symmetry_equiv_pos_site_id
 _symmetry_equiv_pos_as_xyz
  1  'x, y, z'
loop_
 _atom_site_type_symbol
 _atom_site_label
 _atom_site_symmetry_multiplicity
 _atom_site_fract_x
 _atom_site_fract_y
 _atom_site_fract_z
 _atom_site_occupancy
  Mg  Mg0  1  0.51461900  0.55606800  0.25000000  1
  Mg  Mg1  1  0.01461900  0.94393200  0.75000000  1
  Mg  Mg2  1  0.98538100  0.05606800  0.25000000  1
  Mg  Mg3  1  0.48538100  0.44393200  0.75000000  1
  Si  Si0  1  0.50000000  0.00000000  0.50000000  1
  Si  Si1  1  0.00000000  0.50000000  0.50000000  1
  Si  Si2  1  0.00000000  0.50000000  0.00000000  1
  Si  Si3  1  0.50000000  0.00000000  0.00000000  1
  O  O0  1  0.19658600  0.20175100  0.94662200  1
  O  O1  1  0.69658600  0.29824900  0.05337800  1
  O  O2  1  0.30341400  0.70175100  0.55337800  1
  O  O3  1  0.80341400  0.79824900  0.44662200  1
  O  O4  1  0.80341400  0.79824900  0.05337800  1
  O  O5  1  0.30341400  0.70175100  0.94662200  1
  O  O6  1  0.69658600  0.29824900  0.44662200  1
  O  O7  1  0.19658600  0.20175100  0.55337800  1
  O  O8  1  0.10324200  0.46540600  0.25000000  1
  O  O9  1  0.60324200  0.03459400  0.75000000  1
  O  O10  1  0.39675800  0.96540600  0.25000000  1
  O  O11  1  0.89675800  0.53459400  0.75000000  1
loop_
_geom_bond_atom_site_label_1
_geom_bond_atom_site_label_2
_geom_bond_distance
_geom_bond_site_symmetry_2
Mg0 O8 2.037987 1_555
Mg0 O6 2.074817 1_555
Mg0 O1 2.074817 1_555
Mg0 O10 2.116931 1_555
Mg0 O3 2.298811 1_555
Mg0 O4 2.298811 1_555
Mg0 O2 2.459734 1_555
Mg0 O5 2.459734 1_554
Mg1 O9 2.037987 1_465
Mg1 O0 2.074817 1_565
Mg1 O7 2.074817 1_565
Mg1 O11 2.116931 1_455
Mg1 O5 2.298811 1_555
Mg1 O2 2.298811 1_555
Mg1 O4 2.459734 1_456
Mg1 O3 2.459734 1_455
Mg2 O10 2.037987 1_645
Mg2 O3 2.074817 1_545
Mg2 O4 2.074817 1_545
Mg2 O8 2.116931 1_655
Mg2 O6 2.298811 1_555
Mg2 O1 2.298811 1_555
Mg2 O7 2.459734 1_655
Mg2 O0 2.459734 1_654
Mg3 O11 2.037987 1_555
Mg3 O5 2.074817 1_555
Mg3 O2 2.074817 1_555
Mg3 O9 2.116931 1_555
Mg3 O0 2.298811 1_555
Mg3 O7 2.298811 1_555
Mg3 O1 2.459734 1_556
Mg3 O6 2.459734 1_555
O0 Si2 1.802122 1_556
O0 Si3 1.815796 1_556
O1 Si3 1.802122 1_555
O1 Si2 1.815796 1_655
O2 Si0 1.802122 1_565
O2 Si1 1.815796 1_555
O3 Si1 1.802122 1_655
O3 Si0 1.815796 1_565
O4 Si2 1.802122 1_655
O4 Si3 1.815796 1_565
O5 Si3 1.802122 1_566
O5 Si2 1.815796 1_556
O6 Si0 1.802122 1_555
O6 Si1 1.815796 1_655
O7 Si1 1.802122 1_555
O7 Si0 1.815796 1_555
O8 Si2 1.822768 1_555
O8 Si1 1.822768 1_555
O9 Si3 1.822768 1_556
O9 Si0 1.822768 1_555
O10 Si3 1.822768 1_565
O10 Si0 1.822768 1_565
O11 Si2 1.822768 1_656
O11 Si1 1.822768 1_655
