# generated using pymatgen
data_Na4InGa3Sn8
_symmetry_space_group_name_H-M   'P 1'
_cell_length_a   6.15799885
_cell_length_b   6.47147734
_cell_length_c   11.06621009
_cell_angle_alpha   89.33400134
_cell_angle_beta   90.21468143
_cell_angle_gamma   89.95519540
_symmetry_Int_Tables_number   1
_chemical_formula_structural   Na4InGa3Sn8
_chemical_formula_sum   'Na4 In1 Ga3 Sn8'
_cell_volume   440.97037343
_cell_formula_units_Z   1
loop_
 _symmetry_equiv_pos_site_id
 _symmetry_equiv_pos_as_xyz
  1  'x, y, z'
loop_
 _atom_site_type_symbol
 _atom_site_label
 _atom_site_symmetry_multiplicity
 _atom_site_fract_x
 _atom_site_fract_y
 _atom_site_fract_z
 _atom_site_occupancy
  Na  Na0  1  0.85473503  0.63670337  0.07703760  1
  Na  Na1  1  0.70600993  0.29224604  0.59417582  1
  Na  Na2  1  0.35301474  0.85940856  0.92246645  1
  Na  Na3  1  0.20811752  0.21236287  0.40550599  1
  In  In0  1  0.38449682  0.40867889  0.11323855  1
  Ga  Ga0  1  0.59151788  0.90377104  0.39026288  1
  Ga  Ga1  1  0.89231402  0.08854371  0.88152571  1
  Ga  Ga2  1  0.09299078  0.59519749  0.61398579  1
  Sn  Sn0  1  0.77759349  0.73585120  0.76361480  1
  Sn  Sn1  1  0.71557658  0.26189309  0.27884648  1
  Sn  Sn2  1  0.26857569  0.77908902  0.23788454  1
  Sn  Sn3  1  0.21286308  0.23478406  0.72796109  1
  Sn  Sn4  1  0.91570464  0.62805012  0.38910308  1
  Sn  Sn5  1  0.57127502  0.37540511  0.87709406  1
  Sn  Sn6  1  0.41434606  0.87247661  0.61366723  1
  Sn  Sn7  1  0.04086774  0.11553984  0.11363094  1
loop_
_geom_bond_atom_site_label_1
_geom_bond_atom_site_label_2
_geom_bond_distance
_geom_bond_site_symmetry_2
Na0 Sn2 3.243400 1_655
Na0 Sn5 3.296163 1_554
Na0 Sn7 3.333384 1_665
Na0 Sn1 3.390704 1_555
Na0 Sn4 3.472132 1_555
Na0 Sn0 3.550016 1_554
Na0 Sn7 3.579328 1_655
Na1 Sn6 3.263252 1_545
Na1 Sn5 3.292122 1_555
Na1 Sn4 3.384052 1_555
Na1 Sn3 3.402198 1_555
Na1 Sn3 3.467392 1_655
Na1 Sn0 3.474539 1_555
Na1 Sn1 3.498018 1_555
Na2 Sn0 3.260256 1_555
Na2 Sn7 3.320320 1_566
Na2 Sn3 3.337704 1_565
Na2 Sn6 3.439521 1_555
Na2 Sn5 3.450273 1_555
Na2 Sn2 3.563126 1_556
Na2 Sn5 3.630747 1_565
Na3 Sn4 3.238936 1_455
Na3 Sn1 3.350076 1_455
Na3 Sn2 3.400856 1_545
Na3 Sn6 3.407810 1_545
Na3 Sn1 3.443325 1_555
Na3 Sn7 3.450951 1_555
Na3 Sn3 3.573001 1_555
In0 Sn7 2.843007 1_555
In0 Sn5 2.869397 1_554
In0 Sn2 2.870516 1_555
In0 Sn1 2.888966 1_555
In0 Na0 3.274891 1_555
In0 Na2 3.585464 1_554
In0 Na0 3.598528 1_455
In0 Na3 3.631442 1_555
Ga0 Sn4 2.676659 1_555
Ga0 Sn6 2.711500 1_555
Ga0 Sn1 2.723670 1_565
Ga0 Sn2 2.730996 1_555
Ga0 Na3 3.097468 1_565
Ga0 Na1 3.468722 1_565
Ga1 Sn5 2.710806 1_555
Ga1 Sn7 2.730891 1_656
Ga1 Sn0 2.734233 1_545
Ga1 Sn3 2.769595 1_655
Ga1 Na2 3.228125 1_645
Ga2 Sn6 2.672345 1_555
Ga2 Sn4 2.719775 1_455
Ga2 Sn0 2.720086 1_455
Ga2 Sn3 2.738207 1_555
Ga2 Na1 3.095802 1_455
Ga2 Na3 3.479318 1_555
Sn0 Sn6 2.910980 1_555
Sn0 Sn5 2.929299 1_555
Sn1 Sn7 2.883933 1_655
Sn1 Sn4 2.946674 1_555
Sn2 Sn4 2.910345 1_455
Sn2 Sn7 2.916996 1_565
Sn3 Sn5 2.904102 1_555
Sn3 Sn6 2.951734 1_545
