# generated using pymatgen
data_Ba4Cd(BiO4)3
_symmetry_space_group_name_H-M   'P 1'
_cell_length_a   7.48234485
_cell_length_b   7.48234502
_cell_length_c   7.48234494
_cell_angle_alpha   109.47122303
_cell_angle_beta   109.47122351
_cell_angle_gamma   109.47121728
_symmetry_Int_Tables_number   1
_chemical_formula_structural   Ba4Cd(BiO4)3
_chemical_formula_sum   'Ba4 Cd1 Bi3 O12'
_cell_volume   322.47145337
_cell_formula_units_Z   1
loop_
 _symmetry_equiv_pos_site_id
 _symmetry_equiv_pos_as_xyz
  1  'x, y, z'
loop_
 _atom_site_type_symbol
 _atom_site_label
 _atom_site_symmetry_multiplicity
 _atom_site_fract_x
 _atom_site_fract_y
 _atom_site_fract_z
 _atom_site_occupancy
  Ba  Ba0  1  0.00000000  0.50000000  0.00000000  1
  Ba  Ba1  1  0.50000000  0.00000000  0.00000000  1
  Ba  Ba2  1  0.50000000  0.50000000  0.50000000  1
  Ba  Ba3  1  0.00000000  0.00000000  0.50000000  1
  Cd  Cd0  1  0.00000000  0.00000000  0.00000000  1
  Bi  Bi0  1  0.50000000  0.00000000  0.50000000  1
  Bi  Bi1  1  0.50000000  0.50000000  0.00000000  1
  Bi  Bi2  1  0.00000000  0.50000000  0.50000000  1
  O  O0  1  0.74131269  0.74131269  1.00000000  1
  O  O1  1  0.25000000  0.50000000  0.75000000  1
  O  O2  1  0.25868731  0.00000000  0.25868731  1
  O  O3  1  0.50000000  0.75000000  0.25000000  1
  O  O4  1  0.75000000  0.25000000  0.50000000  1
  O  O5  1  0.75000000  0.50000000  0.25000000  1
  O  O6  1  1.00000000  0.74131269  0.74131269  1
  O  O7  1  0.00000000  0.25868731  0.25868731  1
  O  O8  1  0.25868731  0.25868731  0.00000000  1
  O  O9  1  0.25000000  0.75000000  0.50000000  1
  O  O10  1  0.50000000  0.25000000  0.75000000  1
  O  O11  1  0.74131269  1.00000000  0.74131269  1
loop_
_geom_bond_atom_site_label_1
_geom_bond_atom_site_label_2
_geom_bond_distance
_geom_bond_site_symmetry_2
Ba0 O4 3.054654 1_454
Ba0 O9 3.054654 1_555
Ba0 O10 3.054654 1_454
Ba0 O3 3.054654 1_555
Ba0 O1 3.054655 1_554
Ba0 O5 3.054655 1_455
Ba0 O0 3.055576 1_454
Ba0 O8 3.055576 1_555
Ba0 O2 3.055577 1_565
Ba0 O11 3.055577 1_444
Ba0 O6 3.055577 1_454
Ba0 O7 3.055577 1_555
Ba1 O4 3.054654 1_555
Ba1 O9 3.054654 1_544
Ba1 O1 3.054655 1_544
Ba1 O5 3.054655 1_555
Ba1 O10 3.054655 1_554
Ba1 O3 3.054655 1_545
Ba1 O7 3.055576 1_655
Ba1 O6 3.055576 1_444
Ba1 O8 3.055576 1_555
Ba1 O0 3.055576 1_544
Ba1 O2 3.055577 1_555
Ba1 O11 3.055577 1_544
Ba2 O4 3.054654 1_555
Ba2 O9 3.054654 1_555
Ba2 O1 3.054655 1_555
Ba2 O5 3.054655 1_555
Ba2 O10 3.054655 1_555
Ba2 O3 3.054655 1_555
Ba2 O0 3.055576 1_555
Ba2 O8 3.055576 1_555
Ba2 O6 3.055576 1_555
Ba2 O7 3.055576 1_555
Ba2 O2 3.055577 1_555
Ba2 O11 3.055577 1_555
Ba3 O4 3.054654 1_455
Ba3 O9 3.054654 1_545
Ba3 O10 3.054654 1_555
Ba3 O3 3.054654 1_445
Ba3 O1 3.054655 1_555
Ba3 O5 3.054655 1_445
Ba3 O8 3.055576 1_556
Ba3 O0 3.055576 1_444
Ba3 O2 3.055577 1_555
Ba3 O11 3.055577 1_445
Ba3 O7 3.055577 1_555
Ba3 O6 3.055577 1_445
Cd0 O2 2.235024 1_555
Cd0 O11 2.235024 1_444
Cd0 O7 2.235024 1_555
Cd0 O6 2.235024 1_444
Cd0 O8 2.235024 1_555
Cd0 O0 2.235024 1_444
Bi0 O11 2.084910 1_545
Bi0 O2 2.084910 1_555
Bi0 O3 2.159967 1_545
Bi0 O10 2.159967 1_555
Bi0 O4 2.159967 1_555
Bi0 O9 2.159967 1_545
Bi1 O0 2.084910 1_554
Bi1 O8 2.084910 1_555
Bi1 O1 2.159967 1_554
Bi1 O5 2.159967 1_555
Bi1 O3 2.159967 1_555
Bi1 O10 2.159967 1_554
Bi2 O6 2.084910 1_455
Bi2 O7 2.084910 1_555
Bi2 O5 2.159967 1_455
Bi2 O1 2.159967 1_555
Bi2 O9 2.159967 1_555
Bi2 O4 2.159967 1_455
