# generated using pymatgen
data_KRb2YSb2
_symmetry_space_group_name_H-M   'P 1'
_cell_length_a   10.12771661
_cell_length_b   10.12771668
_cell_length_c   10.12771641
_cell_angle_alpha   132.25974952
_cell_angle_beta   67.31835277
_cell_angle_gamma   135.48915706
_symmetry_Int_Tables_number   1
_chemical_formula_structural   KRb2YSb2
_chemical_formula_sum   'K2 Rb4 Y2 Sb4'
_cell_volume   530.06906973
_cell_formula_units_Z   2
loop_
 _symmetry_equiv_pos_site_id
 _symmetry_equiv_pos_as_xyz
  1  'x, y, z'
loop_
 _atom_site_type_symbol
 _atom_site_label
 _atom_site_symmetry_multiplicity
 _atom_site_fract_x
 _atom_site_fract_y
 _atom_site_fract_z
 _atom_site_occupancy
  K  K0  1  0.75000000  0.25000000  0.50000000  1
  K  K1  1  0.25000000  0.75000000  0.50000000  1
  Rb  Rb0  1  0.31739895  0.74469190  0.06208984  1
  Rb  Rb1  1  0.18260105  0.24469090  0.42729295  1
  Rb  Rb2  1  0.81739895  0.75530910  0.57270705  1
  Rb  Rb3  1  0.68260105  0.25530910  0.93791016  1
  Y  Y0  1  0.25000000  0.25000000  0.00000000  1
  Y  Y1  1  0.75000000  0.75000000  0.00000000  1
  Sb  Sb0  1  0.89994200  0.20171152  0.10165153  1
  Sb  Sb1  1  0.60006000  0.70171052  0.30177052  1
  Sb  Sb2  1  0.39994100  0.29828948  0.69822948  1
  Sb  Sb3  1  0.10005900  0.79828948  0.89834847  1
loop_
_geom_bond_atom_site_label_1
_geom_bond_atom_site_label_2
_geom_bond_distance
_geom_bond_site_symmetry_2
K0 Sb2 3.535808 1_555
K0 Sb3 3.535808 1_655
K0 Sb0 3.535813 1_555
K0 Sb1 3.535817 1_545
K1 Sb0 3.535804 1_455
K1 Sb3 3.535809 1_555
K1 Sb2 3.535812 1_565
K1 Sb1 3.535817 1_555
Rb0 Sb3 3.690497 1_554
Rb0 Sb2 3.914712 1_554
Rb0 Sb0 4.095556 1_455
Rb0 Sb0 4.095563 1_565
Rb1 Sb2 3.690489 1_555
Rb1 Sb3 3.914711 1_544
Rb1 Sb1 4.095550 1_445
Rb1 Sb1 4.095557 1_555
Rb2 Sb1 3.690481 1_555
Rb2 Sb0 3.914711 1_566
Rb2 Sb2 4.095556 1_665
Rb2 Sb2 4.095556 1_555
Rb3 Sb0 3.690506 1_556
Rb3 Sb1 3.914699 1_556
Rb3 Sb3 4.095556 1_545
Rb3 Sb3 4.095556 1_655
Sb0 Y0 3.042626 1_655
Sb0 Y1 3.042636 1_545
Sb1 Y0 3.042640 1_555
Sb1 Y1 3.042640 1_555
Sb2 Y1 3.042635 1_556
Sb2 Y0 3.042640 1_556
Sb3 Y0 3.042631 1_566
Sb3 Y1 3.042631 1_456
