# generated using pymatgen
data_Na2Hg(SeO4)2
_symmetry_space_group_name_H-M   'P 1'
_cell_length_a   6.76464087
_cell_length_b   6.76467442
_cell_length_c   8.89086723
_cell_angle_alpha   71.91870932
_cell_angle_beta   108.07974733
_cell_angle_gamma   100.82359352
_symmetry_Int_Tables_number   1
_chemical_formula_structural   Na2Hg(SeO4)2
_chemical_formula_sum   'Na4 Hg2 Se4 O16'
_cell_volume   365.77565541
_cell_formula_units_Z   2
loop_
 _symmetry_equiv_pos_site_id
 _symmetry_equiv_pos_as_xyz
  1  'x, y, z'
loop_
 _atom_site_type_symbol
 _atom_site_label
 _atom_site_symmetry_multiplicity
 _atom_site_fract_x
 _atom_site_fract_y
 _atom_site_fract_z
 _atom_site_occupancy
  Na  Na0  1  0.29789560  0.56001258  0.55060327  1
  Na  Na1  1  0.56001297  0.29796240  0.94932156  1
  Na  Na2  1  0.44000047  0.70206008  0.05067390  1
  Na  Na3  1  0.70209483  0.44000495  0.44934367  1
  Hg  Hg0  1  0.05673459  0.05672112  0.24999770  1
  Hg  Hg1  1  0.94329026  0.94323869  0.75000272  1
  Se  Se0  1  0.02481264  0.42910812  0.80144179  1
  Se  Se1  1  0.57091322  0.97516985  0.30143287  1
  Se  Se2  1  0.42914569  0.02485595  0.69858003  1
  Se  Se3  1  0.97513613  0.57087418  0.19854773  1
  O  O0  1  0.30500066  0.99921219  0.84121672  1
  O  O1  1  0.00080689  0.69504356  0.34118692  1
  O  O2  1  0.99914928  0.30495630  0.65880996  1
  O  O3  1  0.69504043  0.00080270  0.15878270  1
  O  O4  1  0.27569136  0.93135125  0.54716321  1
  O  O5  1  0.06866653  0.72436587  0.04710967  1
  O  O6  1  0.93127905  0.27564309  0.95289057  1
  O  O7  1  0.72440067  0.06868930  0.45284762  1
  O  O8  1  0.27546574  0.51084477  0.85646735  1
  O  O9  1  0.48916844  0.72447737  0.35646096  1
  O  O10  1  0.51088450  0.27550984  0.64358666  1
  O  O11  1  0.72444691  0.48915642  0.14351763  1
  O  O12  1  0.62468314  0.87701932  0.80335109  1
  O  O13  1  0.12297994  0.37528251  0.30332059  1
  O  O14  1  0.87695978  0.62465797  0.69666741  1
  O  O15  1  0.37533929  0.12298063  0.19667666  1
loop_
_geom_bond_atom_site_label_1
_geom_bond_atom_site_label_2
_geom_bond_distance
_geom_bond_site_symmetry_2
Na0 O9 2.354753 1_555
Na0 O1 2.377219 1_555
Na0 O10 2.403705 1_555
Na0 O4 2.534705 1_555
Na0 O2 2.617895 1_455
Na0 O8 2.684115 1_555
Na0 O13 2.707532 1_555
Na1 O11 2.354768 1_556
Na1 O3 2.377679 1_556
Na1 O8 2.403590 1_555
Na1 O6 2.534032 1_555
Na1 O0 2.617471 1_545
Na1 O10 2.683096 1_555
Na1 O15 2.707809 1_556
Na2 O8 2.355034 1_554
Na2 O0 2.377575 1_554
Na2 O11 2.403141 1_555
Na2 O5 2.534482 1_555
Na2 O3 2.617521 1_565
Na2 O9 2.683419 1_555
Na2 O12 2.707597 1_554
Na3 O10 2.355169 1_555
Na3 O2 2.377277 1_555
Na3 O9 2.403349 1_555
Na3 O7 2.534538 1_555
Na3 O1 2.617492 1_655
Na3 O11 2.683619 1_555
Na3 O14 2.707468 1_555
Hg0 O13 2.282336 1_555
Hg0 O15 2.282585 1_555
Hg0 O1 2.323339 1_545
Hg0 O3 2.323468 1_455
Hg0 O6 2.558018 1_454
Hg0 O4 2.558428 1_545
Hg1 O14 2.282486 1_555
Hg1 O12 2.282720 1_555
Hg1 O2 2.323555 1_565
Hg1 O0 2.323595 1_655
Hg1 O5 2.557846 1_656
Hg1 O7 2.558278 1_565
O0 Se2 1.677303 1_565
O1 Se3 1.677422 1_455
O2 Se0 1.677291 1_655
O3 Se1 1.677339 1_545
O4 Se2 1.644561 1_565
O5 Se3 1.644834 1_455
O6 Se0 1.644861 1_655
O7 Se1 1.644668 1_545
O8 Se0 1.649541 1_555
O9 Se1 1.649778 1_555
O10 Se2 1.649515 1_555
O11 Se3 1.649728 1_555
O12 Se2 1.664715 1_565
O13 Se3 1.665011 1_455
O14 Se0 1.664841 1_655
O15 Se1 1.664779 1_545
