# generated using pymatgen
data_Zr2FeP2Pd
_symmetry_space_group_name_H-M   'P 1'
_cell_length_a   3.74474383
_cell_length_b   6.48002695
_cell_length_c   7.33760911
_cell_angle_alpha   87.72771702
_cell_angle_beta   90.00000000
_cell_angle_gamma   90.00000000
_symmetry_Int_Tables_number   1
_chemical_formula_structural   Zr2FeP2Pd
_chemical_formula_sum   'Zr4 Fe2 P4 Pd2'
_cell_volume   177.91471699
_cell_formula_units_Z   2
loop_
 _symmetry_equiv_pos_site_id
 _symmetry_equiv_pos_as_xyz
  1  'x, y, z'
loop_
 _atom_site_type_symbol
 _atom_site_label
 _atom_site_symmetry_multiplicity
 _atom_site_fract_x
 _atom_site_fract_y
 _atom_site_fract_z
 _atom_site_occupancy
  Zr  Zr0  1  0.25000000  0.52566159  0.69282908  1
  Zr  Zr1  1  0.75000000  0.47433841  0.30717092  1
  Zr  Zr2  1  0.25000000  0.02049033  0.82728786  1
  Zr  Zr3  1  0.75000000  0.97950967  0.17271214  1
  Fe  Fe0  1  0.75000000  0.36753201  0.94402487  1
  Fe  Fe1  1  0.25000000  0.63246799  0.05597513  1
  P  P0  1  0.25000000  0.28278012  0.09355405  1
  P  P1  1  0.75000000  0.71721988  0.90644595  1
  P  P2  1  0.25000000  0.74870633  0.35470903  1
  P  P3  1  0.75000000  0.25129367  0.64529097  1
  Pd  Pd0  1  0.75000000  0.84922199  0.56478261  1
  Pd  Pd1  1  0.25000000  0.15077801  0.43521739  1
loop_
_geom_bond_atom_site_label_1
_geom_bond_atom_site_label_2
_geom_bond_distance
_geom_bond_site_symmetry_2
Fe0 P0 2.227875 1_556
Fe0 P0 2.227875 1_656
Fe0 P1 2.271824 1_555
Fe0 P3 2.345870 1_555
Fe0 Zr1 2.779474 1_556
Fe0 Zr0 2.793437 1_655
Fe0 Zr0 2.793437 1_555
Fe1 P1 2.227875 1_454
Fe1 P1 2.227875 1_554
Fe1 P0 2.271824 1_555
Fe1 P2 2.345870 1_555
Fe1 Zr0 2.779474 1_554
Fe1 Zr1 2.793437 1_555
Fe1 Zr1 2.793437 1_455
P0 Pd1 2.616607 1_555
P0 Zr2 2.639940 1_554
P0 Zr3 2.759464 1_445
P0 Zr3 2.759464 1_545
P0 Zr1 2.767265 1_555
P0 Zr1 2.767265 1_455
P1 Pd0 2.616607 1_555
P1 Zr3 2.639940 1_556
P1 Zr2 2.759464 1_565
P1 Zr2 2.759464 1_665
P1 Zr0 2.767265 1_555
P1 Zr0 2.767265 1_655
P2 Pd0 2.526989 1_455
P2 Pd0 2.526989 1_555
P2 Zr1 2.614880 1_555
P2 Zr1 2.614880 1_455
P2 Pd1 2.694311 1_565
P2 Zr3 2.714333 1_555
P2 Zr3 2.714333 1_455
P2 Zr0 2.821342 1_555
P3 Pd1 2.526989 1_655
P3 Pd1 2.526989 1_555
P3 Zr0 2.614880 1_555
P3 Zr0 2.614880 1_655
P3 Pd0 2.694311 1_545
P3 Zr2 2.714333 1_555
P3 Zr2 2.714333 1_655
P3 Zr1 2.821342 1_555
Pd0 Pd1 2.842668 1_665
Pd0 Pd1 2.842668 1_565
Pd0 Zr2 2.935489 1_565
Pd0 Zr2 2.935489 1_665
Pd0 Zr0 2.937413 1_555
Pd0 Zr0 2.937413 1_655
Pd0 Zr3 2.965891 1_555
Pd0 Zr1 3.136633 1_555
Pd1 Zr3 2.935489 1_445
Pd1 Zr3 2.935489 1_545
Pd1 Zr1 2.937413 1_555
Pd1 Zr1 2.937413 1_455
Pd1 Zr2 2.965891 1_555
Pd1 Zr0 3.136633 1_555
