# generated using pymatgen
data_KGaSiS4
_symmetry_space_group_name_H-M   'P 1'
_cell_length_a   15.91656084
_cell_length_b   6.80808133
_cell_length_c   7.18430344
_cell_angle_alpha   70.17769578
_cell_angle_beta   90.00000000
_cell_angle_gamma   90.00000000
_symmetry_Int_Tables_number   1
_chemical_formula_structural   KGaSiS4
_chemical_formula_sum   'K4 Ga4 Si4 S16'
_cell_volume   732.37299888
_cell_formula_units_Z   4
loop_
 _symmetry_equiv_pos_site_id
 _symmetry_equiv_pos_as_xyz
  1  'x, y, z'
loop_
 _atom_site_type_symbol
 _atom_site_label
 _atom_site_symmetry_multiplicity
 _atom_site_fract_x
 _atom_site_fract_y
 _atom_site_fract_z
 _atom_site_occupancy
  K  K0  1  0.39192779  0.94966169  0.18391007  1
  K  K1  1  0.89192779  0.05033831  0.81608993  1
  K  K2  1  0.59911509  0.52053314  0.83823427  1
  K  K3  1  0.09911509  0.47946686  0.16176573  1
  Ga  Ga0  1  0.58656257  0.15342117  0.49003594  1
  Ga  Ga1  1  0.08656257  0.84657883  0.50996406  1
  Ga  Ga2  1  0.27298057  0.59215959  0.70033910  1
  Ga  Ga3  1  0.77298057  0.40784041  0.29966090  1
  Si  Si0  1  0.42210011  0.31696131  0.53808465  1
  Si  Si1  1  0.92210011  0.68303869  0.46191535  1
  Si  Si2  1  0.72590874  0.90797059  0.27645828  1
  Si  Si3  1  0.22590874  0.09202941  0.72354172  1
  S  S0  1  0.60143182  0.87292152  0.38969573  1
  S  S1  1  0.10143182  0.12707848  0.61030427  1
  S  S2  1  0.41150204  0.58981777  0.61699837  1
  S  S3  1  0.91150204  0.41018223  0.38300163  1
  S  S4  1  0.80404233  0.79062099  0.53696316  1
  S  S5  1  0.30404233  0.20937901  0.46303684  1
  S  S6  1  0.20099146  0.71683154  0.41822502  1
  S  S7  1  0.70099146  0.28316846  0.58177498  1
  S  S8  1  0.75769522  0.21672084  0.09455191  1
  S  S9  1  0.25769522  0.78327916  0.90544809  1
  S  S10  1  0.23909488  0.26621147  0.91623940  1
  S  S11  1  0.73909488  0.73378853  0.08376060  1
  S  S12  1  0.99343819  0.91484693  0.24625371  1
  S  S13  1  0.49343819  0.08515307  0.75374629  1
  S  S14  1  0.99320518  0.61961769  0.72683808  1
  S  S15  1  0.49320518  0.38038231  0.27316192  1
loop_
_geom_bond_atom_site_label_1
_geom_bond_atom_site_label_2
_geom_bond_distance
_geom_bond_site_symmetry_2
K0 S2 3.257328 1_555
K0 S13 3.328471 1_564
K0 S9 3.374457 1_554
K0 S10 3.383665 1_564
K0 S5 3.392538 1_565
K0 S6 3.573868 1_555
K0 S15 3.589392 1_565
K0 S0 3.613073 1_555
K1 S3 3.257328 1_555
K1 S12 3.328471 1_546
K1 S8 3.374457 1_556
K1 S11 3.383665 1_546
K1 S4 3.392538 1_545
K1 S7 3.573868 1_555
K1 S14 3.589392 1_545
K1 S1 3.613073 1_655
K2 S7 3.264176 1_555
K2 S0 3.301199 1_555
K2 S2 3.340272 1_555
K2 S8 3.384792 1_556
K2 S15 3.390208 1_556
K2 S11 3.452567 1_556
K2 S13 3.633692 1_555
K3 S6 3.264176 1_555
K3 S1 3.301199 1_555
K3 S3 3.340272 1_455
K3 S9 3.384792 1_554
K3 S14 3.390208 1_454
K3 S10 3.452567 1_554
K3 S12 3.633692 1_455
Ga0 S7 2.219615 1_555
Ga0 S0 2.270711 1_545
Ga0 S15 2.321719 1_555
Ga0 S13 2.324911 1_555
Ga1 S6 2.219615 1_555
Ga1 S1 2.270711 1_565
Ga1 S14 2.321719 1_455
Ga1 S12 2.324911 1_455
Ga2 S6 2.230358 1_555
Ga2 S9 2.285597 1_555
Ga2 S2 2.286111 1_555
Ga2 S10 2.299285 1_555
Ga3 S7 2.230358 1_555
Ga3 S8 2.285597 1_555
Ga3 S3 2.286111 1_555
Ga3 S11 2.299285 1_555
S0 Si2 2.124252 1_555
S1 Si3 2.124252 1_555
S2 Si0 2.124836 1_555
S3 Si1 2.124836 1_555
S4 Si1 2.150790 1_555
S4 Si2 2.161823 1_555
S5 Si0 2.150790 1_555
S5 Si3 2.161823 1_555
S8 Si2 2.125842 1_545
S9 Si3 2.125842 1_565
S10 Si3 2.116658 1_555
S11 Si2 2.116658 1_555
S12 Si1 2.126526 1_555
S13 Si0 2.126526 1_555
S14 Si1 2.128951 1_555
S15 Si0 2.128951 1_555
