# generated using pymatgen
data_Li4Ta5(NbN4)3
_symmetry_space_group_name_H-M   'P 1'
_cell_length_a   5.23208039
_cell_length_b   5.23194890
_cell_length_c   10.31181540
_cell_angle_alpha   90.00000000
_cell_angle_beta   90.00000000
_cell_angle_gamma   119.99917090
_symmetry_Int_Tables_number   1
_chemical_formula_structural   Li4Ta5(NbN4)3
_chemical_formula_sum   'Li4 Ta5 Nb3 N12'
_cell_volume   244.45970943
_cell_formula_units_Z   1
loop_
 _symmetry_equiv_pos_site_id
 _symmetry_equiv_pos_as_xyz
  1  'x, y, z'
loop_
 _atom_site_type_symbol
 _atom_site_label
 _atom_site_symmetry_multiplicity
 _atom_site_fract_x
 _atom_site_fract_y
 _atom_site_fract_z
 _atom_site_occupancy
  Li  Li0  1  0.33334766  0.66699054  0.99996240  1
  Li  Li1  1  0.33334766  0.66699054  0.50003760  1
  Li  Li2  1  0.66665234  0.33364188  0.50003760  1
  Li  Li3  1  0.66665234  0.33364188  0.99996240  1
  Ta  Ta0  1  1.00000000  0.00298085  0.50025948  1
  Ta  Ta1  1  1.00000000  0.00298085  0.99974052  1
  Ta  Ta2  1  0.64454602  0.64283938  0.25000000  1
  Ta  Ta3  1  0.35545398  0.99829335  0.25000000  1
  Ta  Ta4  1  1.00000000  0.64445544  0.75000000  1
  Nb  Nb0  1  0.00000000  0.35506965  0.25000000  1
  Nb  Nb1  1  0.64452599  0.99854345  0.75000000  1
  Nb  Nb2  1  0.35547401  0.35401746  0.75000000  1
  N  N0  1  0.68611782  0.68148793  0.62390534  1
  N  N1  1  0.68611782  0.68148793  0.87609466  1
  N  N2  1  0.32286794  0.31797197  0.12398087  1
  N  N3  1  0.32286794  0.31797197  0.37601913  1
  N  N4  1  0.31388218  0.99537011  0.87609466  1
  N  N5  1  0.31388218  0.99537011  0.62390534  1
  N  N6  1  0.00000000  0.68669088  0.37487419  1
  N  N7  1  0.00000000  0.68669088  0.12512581  1
  N  N8  1  0.67713206  0.99510303  0.12398087  1
  N  N9  1  0.67713206  0.99510303  0.37601913  1
  N  N10  1  1.00000000  0.32315443  0.87721464  1
  N  N11  1  1.00000000  0.32315443  0.62278536  1
loop_
_geom_bond_atom_site_label_1
_geom_bond_atom_site_label_2
_geom_bond_distance
_geom_bond_site_symmetry_2
Li0 N8 2.174871 1_556
Li0 N10 2.177782 1_455
Li0 N4 2.183710 1_555
Li0 N2 2.207443 1_556
Li0 N7 2.213162 1_556
Li0 N1 2.214486 1_555
Li1 N9 2.174871 1_555
Li1 N11 2.177782 1_455
Li1 N5 2.183710 1_555
Li1 N3 2.207443 1_555
Li1 N6 2.213162 1_555
Li1 N0 2.214486 1_555
Li2 N3 2.174875 1_555
Li2 N11 2.177780 1_555
Li2 N0 2.183714 1_555
Li2 N9 2.207443 1_545
Li2 N6 2.213164 1_655
Li2 N5 2.214484 1_545
Li3 N2 2.174875 1_556
Li3 N10 2.177780 1_555
Li3 N1 2.183714 1_555
Li3 N8 2.207443 1_546
Li3 N7 2.213164 1_656
Li3 N4 2.214484 1_545
N0 Ta0 2.095147 1_565
N0 Nb2 2.157542 1_555
N0 Ta4 2.177939 1_555
N0 Nb1 2.202428 1_555
N1 Ta1 2.095147 1_565
N1 Nb2 2.157542 1_555
N1 Ta4 2.177939 1_555
N1 Nb1 2.202428 1_555
N2 Ta1 2.104055 1_454
N2 Ta2 2.132995 1_555
N2 Ta3 2.190954 1_545
N2 Nb0 2.215365 1_555
N3 Ta0 2.104055 1_455
N3 Ta2 2.132995 1_555
N3 Ta3 2.190954 1_545
N3 Nb0 2.215365 1_555
N4 Ta1 2.095148 1_465
N4 Nb1 2.157542 1_555
N4 Ta4 2.177939 1_455
N4 Nb2 2.202428 1_565
N5 Ta0 2.095148 1_465
N5 Nb1 2.157542 1_555
N5 Ta4 2.177939 1_455
N5 Nb2 2.202428 1_565
N6 Ta0 2.100030 1_465
N6 Nb0 2.160655 1_555
N6 Ta3 2.177798 1_555
N6 Ta2 2.177798 1_455
N7 Ta1 2.100030 1_464
N7 Nb0 2.160655 1_555
N7 Ta3 2.177798 1_555
N7 Ta2 2.177798 1_455
N8 Ta1 2.104053 1_564
N8 Ta3 2.132997 1_555
N8 Ta2 2.190950 1_555
N8 Nb0 2.215367 1_665
N9 Ta0 2.104053 1_565
N9 Ta3 2.132997 1_555
N9 Ta2 2.190950 1_555
N9 Nb0 2.215367 1_665
N10 Ta1 2.098192 1_555
N10 Ta4 2.132304 1_555
N10 Nb1 2.214888 1_545
N10 Nb2 2.214888 1_655
N11 Ta0 2.098192 1_555
N11 Ta4 2.132304 1_555
N11 Nb1 2.214888 1_545
N11 Nb2 2.214888 1_655
