# generated using pymatgen
data_Y20CdAg5Os2
_symmetry_space_group_name_H-M   'P 1'
_cell_length_a   9.54416483
_cell_length_b   9.53052474
_cell_length_c   9.73330661
_cell_angle_alpha   90.00000000
_cell_angle_beta   90.00000000
_cell_angle_gamma   119.94918230
_symmetry_Int_Tables_number   1
_chemical_formula_structural   Y20CdAg5Os2
_chemical_formula_sum   'Y20 Cd1 Ag5 Os2'
_cell_volume   767.12819122
_cell_formula_units_Z   1
loop_
 _symmetry_equiv_pos_site_id
 _symmetry_equiv_pos_as_xyz
  1  'x, y, z'
loop_
 _atom_site_type_symbol
 _atom_site_label
 _atom_site_symmetry_multiplicity
 _atom_site_fract_x
 _atom_site_fract_y
 _atom_site_fract_z
 _atom_site_occupancy
  Y  Y0  1  0.00564966  0.00282148  0.49167024  1
  Y  Y1  1  0.00564966  0.00282148  0.00832976  1
  Y  Y2  1  0.20855948  0.79021418  0.43983944  1
  Y  Y3  1  0.20855867  0.41832938  0.43984037  1
  Y  Y4  1  0.58290189  0.79144281  0.44169733  1
  Y  Y5  1  0.79106515  0.20725137  0.55990646  1
  Y  Y6  1  0.79106938  0.58383321  0.55989939  1
  Y  Y7  1  0.41929673  0.20965427  0.55911512  1
  Y  Y8  1  0.79106515  0.20725137  0.94009354  1
  Y  Y9  1  0.79106938  0.58383321  0.94010061  1
  Y  Y10  1  0.41929673  0.20965427  0.94088488  1
  Y  Y11  1  0.20855948  0.79021418  0.06016056  1
  Y  Y12  1  0.20855867  0.41832938  0.06015963  1
  Y  Y13  1  0.58290189  0.79144281  0.05830267  1
  Y  Y14  1  0.53909136  0.46077836  0.25000000  1
  Y  Y15  1  0.53909240  0.07831574  0.25000000  1
  Y  Y16  1  0.91824367  0.45912222  0.25000000  1
  Y  Y17  1  0.45165589  0.53382226  0.75000000  1
  Y  Y18  1  0.45164510  0.91782079  0.75000000  1
  Y  Y19  1  0.07581120  0.53790714  0.75000000  1
  Cd  Cd0  1  0.77649224  0.88822897  0.75000000  1
  Ag  Ag0  1  0.88313959  0.11756357  0.25000000  1
  Ag  Ag1  1  0.88312224  0.76557181  0.25000000  1
  Ag  Ag2  1  0.23692540  0.11847803  0.25000000  1
  Ag  Ag3  1  0.11288904  0.88668806  0.75000000  1
  Ag  Ag4  1  0.11290291  0.22620617  0.75000000  1
  Os  Os0  1  0.33532635  0.66764648  0.25000000  1
  Os  Os1  1  0.66945971  0.33475800  0.75000000  1
loop_
_geom_bond_atom_site_label_1
_geom_bond_atom_site_label_2
_geom_bond_distance
_geom_bond_site_symmetry_2
Cd0 Y1 3.148571 1_666
Cd0 Y0 3.148571 1_665
Cd0 Y17 3.250359 1_555
Cd0 Y18 3.250390 1_555
Cd0 Y13 3.401151 1_556
Cd0 Y4 3.401151 1_555
Cd0 Y9 3.501726 1_555
Cd0 Y6 3.501726 1_555
Cd0 Y8 3.502119 1_565
Cd0 Y5 3.502119 1_565
Ag0 Y0 3.061499 1_655
Ag0 Y1 3.061499 1_655
Ag0 Y16 3.101587 1_555
Ag0 Y15 3.113818 1_555
Ag0 Y5 3.369218 1_555
Ag0 Y8 3.369218 1_554
Ag0 Y3 3.519667 1_655
Ag0 Y12 3.519667 1_655
Ag0 Y4 3.529907 1_545
Ag0 Y13 3.529907 1_545
Ag1 Y0 3.061557 1_665
Ag1 Y1 3.061557 1_665
Ag1 Y16 3.101599 1_555
Ag1 Y14 3.113846 1_555
Ag1 Y6 3.369106 1_555
Ag1 Y9 3.369106 1_554
Ag1 Y11 3.519723 1_655
Ag1 Y2 3.519723 1_655
Ag1 Y4 3.529566 1_555
Ag1 Y13 3.529566 1_555
Ag2 Y0 3.031677 1_555
Ag2 Y1 3.031677 1_555
Ag2 Y15 3.092855 1_555
Ag2 Y14 3.092871 1_555
Ag2 Y7 3.365545 1_555
Ag2 Y10 3.365545 1_554
Ag2 Y3 3.525161 1_555
Ag2 Y12 3.525161 1_555
Ag2 Y11 3.525554 1_545
Ag2 Y2 3.525554 1_545
Ag3 Y18 3.095710 1_555
Ag3 Y1 3.118641 1_566
Ag3 Y0 3.118641 1_565
Ag3 Y19 3.162299 1_555
Ag3 Cd0 3.217983 1_455
Ag3 Ag4 3.235720 1_565
Ag3 Y11 3.410434 1_556
Ag3 Y2 3.410434 1_555
Ag3 Y9 3.512408 1_455
Ag3 Y6 3.512408 1_455
Ag3 Y10 3.534234 1_565
Ag3 Y7 3.534234 1_565
Ag4 Y17 3.095812 1_555
Ag4 Y1 3.118755 1_556
Ag4 Y0 3.118755 1_555
Ag4 Y19 3.162318 1_555
Ag4 Cd0 3.218412 1_445
Ag4 Y12 3.410384 1_556
Ag4 Y3 3.410384 1_555
Ag4 Y8 3.512428 1_455
Ag4 Y5 3.512428 1_455
Ag4 Y10 3.533949 1_555
Ag4 Y7 3.533949 1_555
Os0 Y3 2.766520 1_555
Os0 Y12 2.766520 1_555
Os0 Y2 2.766538 1_555
Os0 Y11 2.766538 1_555
Os0 Y4 2.770046 1_555
Os0 Y13 2.770046 1_555
Os0 Y14 3.390798 1_555
Os0 Y15 3.391278 1_565
Os0 Y16 3.449156 1_455
Os1 Y9 2.766734 1_555
Os1 Y6 2.766734 1_555
Os1 Y8 2.766835 1_555
Os1 Y5 2.766835 1_555
Os1 Y10 2.780609 1_555
Os1 Y7 2.780609 1_555
Os1 Y19 3.360412 1_655
Os1 Y17 3.443584 1_555
Os1 Y18 3.444339 1_545
