# generated using pymatgen
data_Li12Ca6Ag4N
_symmetry_space_group_name_H-M   'P 1'
_cell_length_a   8.64701131
_cell_length_b   8.64701212
_cell_length_c   8.64701118
_cell_angle_alpha   109.47121609
_cell_angle_beta   109.47121800
_cell_angle_gamma   109.47122800
_symmetry_Int_Tables_number   1
_chemical_formula_structural   Li12Ca6Ag4N
_chemical_formula_sum   'Li12 Ca6 Ag4 N1'
_cell_volume   497.70983617
_cell_formula_units_Z   1
loop_
 _symmetry_equiv_pos_site_id
 _symmetry_equiv_pos_as_xyz
  1  'x, y, z'
loop_
 _atom_site_type_symbol
 _atom_site_label
 _atom_site_symmetry_multiplicity
 _atom_site_fract_x
 _atom_site_fract_y
 _atom_site_fract_z
 _atom_site_occupancy
  Li  Li0  1  0.67332539  0.33666319  0.33666319  1
  Li  Li1  1  0.33666319  1.00000000  0.66333681  1
  Li  Li2  1  0.33666319  0.67332539  0.33666319  1
  Li  Li3  1  0.33666319  0.33666319  0.67332539  1
  Li  Li4  1  0.33666319  0.66333681  1.00000000  1
  Li  Li5  1  1.00000000  0.33666319  0.66333681  1
  Li  Li6  1  0.00000000  0.66333681  0.33666319  1
  Li  Li7  1  0.66333681  0.66333681  0.32667461  1
  Li  Li8  1  0.66333681  0.00000000  0.33666319  1
  Li  Li9  1  0.66333681  0.33666319  0.00000000  1
  Li  Li10  1  0.66333681  0.32667461  0.66333681  1
  Li  Li11  1  0.32667461  0.66333681  0.66333681  1
  Ca  Ca0  1  1.00000000  0.24372780  0.24372780  1
  Ca  Ca1  1  0.24372780  0.00000000  0.24372780  1
  Ca  Ca2  1  0.75627220  1.00000000  0.75627220  1
  Ca  Ca3  1  0.75627220  0.75627220  0.00000000  1
  Ca  Ca4  1  0.24372780  0.24372780  1.00000000  1
  Ca  Ca5  1  0.00000000  0.75627220  0.75627220  1
  Ag  Ag0  1  0.50000000  0.50000000  0.50000000  1
  Ag  Ag1  1  0.50000000  0.00000000  0.00000000  1
  Ag  Ag2  1  0.00000000  0.50000000  0.00000000  1
  Ag  Ag3  1  0.00000000  0.00000000  0.50000000  1
  N  N0  1  0.00000000  0.00000000  0.00000000  1
loop_
_geom_bond_atom_site_label_1
_geom_bond_atom_site_label_2
_geom_bond_distance
_geom_bond_site_symmetry_2
Ca0 N0 2.433551 1_655
Ca1 N0 2.433551 1_555
Ca2 N0 2.433551 1_666
Ca3 N0 2.433551 1_665
Ca4 N0 2.433551 1_556
Ca5 N0 2.433551 1_566
Ag0 Li7 2.779994 1_555
Ag0 Li3 2.779994 1_555
Ag0 Li11 2.779995 1_555
Ag0 Li0 2.779995 1_555
Ag0 Li10 2.779995 1_555
Ag0 Li2 2.779995 1_555
Ag1 Li8 2.780002 1_555
Ag1 Li1 2.780002 1_544
Ag1 Li9 2.780002 1_555
Ag1 Li4 2.780002 1_544
Ag1 Li0 2.780004 1_555
Ag1 Li11 2.780004 1_544
Ag2 Li4 2.780002 1_554
Ag2 Li9 2.780002 1_455
Ag2 Li6 2.780002 1_555
Ag2 Li5 2.780002 1_454
Ag2 Li2 2.780004 1_555
Ag2 Li10 2.780004 1_454
Ag3 Li1 2.780002 1_545
Ag3 Li8 2.780002 1_455
Ag3 Li5 2.780002 1_455
Ag3 Li6 2.780002 1_545
Ag3 Li3 2.780003 1_555
Ag3 Li7 2.780003 1_445
