# generated using pymatgen
data_Rb2TiBe3As4
_symmetry_space_group_name_H-M   'P 1'
_cell_length_a   7.77220509
_cell_length_b   7.77239993
_cell_length_c   5.55794589
_cell_angle_alpha   90.00000000
_cell_angle_beta   90.00000000
_cell_angle_gamma   138.00705798
_symmetry_Int_Tables_number   1
_chemical_formula_structural   Rb2TiBe3As4
_chemical_formula_sum   'Rb2 Ti1 Be3 As4'
_cell_volume   224.62866588
_cell_formula_units_Z   1
loop_
 _symmetry_equiv_pos_site_id
 _symmetry_equiv_pos_as_xyz
  1  'x, y, z'
loop_
 _atom_site_type_symbol
 _atom_site_label
 _atom_site_symmetry_multiplicity
 _atom_site_fract_x
 _atom_site_fract_y
 _atom_site_fract_z
 _atom_site_occupancy
  Rb  Rb0  1  0.50000000  0.00000000  0.25175927  1
  Rb  Rb1  1  0.00000000  0.50000000  0.74824931  1
  Ti  Ti0  1  0.00000000  0.00000000  0.99997763  1
  Be  Be0  1  0.50000000  0.50000000  0.50000293  1
  Be  Be1  1  0.50000000  0.50000000  0.00000105  1
  Be  Be2  1  0.00000000  0.00000000  0.50000676  1
  As  As0  1  0.65020531  0.83424838  0.74232440  1
  As  As1  1  0.16574576  0.34978447  0.25767713  1
  As  As2  1  0.83425424  0.65021553  0.25767713  1
  As  As3  1  0.34979469  0.16575162  0.74232440  1
loop_
_geom_bond_atom_site_label_1
_geom_bond_atom_site_label_2
_geom_bond_distance
_geom_bond_site_symmetry_2
As0 Be0 2.327596 1_555
As0 Be1 2.377997 1_556
As0 Be2 2.378762 1_665
As0 Ti0 2.428036 1_665
As0 Rb0 3.562606 1_565
As0 Rb1 3.573973 1_555
As0 Rb1 3.640952 1_665
As0 Rb0 3.643496 1_566
As1 Be0 2.327560 1_555
As1 Be1 2.377946 1_555
As1 Be2 2.378816 1_555
As1 Ti0 2.428203 1_554
As1 Rb1 3.562654 1_555
As1 Rb0 3.574159 1_565
As1 Rb0 3.640803 1_455
As1 Rb1 3.643483 1_554
As2 Be0 2.327560 1_555
As2 Be1 2.377946 1_555
As2 Be2 2.378816 1_665
As2 Ti0 2.428203 1_664
As2 Rb1 3.562654 1_655
As2 Rb0 3.574159 1_555
As2 Rb0 3.640803 1_665
As2 Rb1 3.643483 1_654
As3 Be0 2.327596 1_555
As3 Be1 2.377997 1_556
As3 Be2 2.378762 1_555
As3 Ti0 2.428036 1_555
As3 Rb0 3.562606 1_555
As3 Rb1 3.573973 1_655
As3 Rb1 3.640952 1_545
As3 Rb0 3.643496 1_556
