# generated using pymatgen
data_KBiTeO5
_symmetry_space_group_name_H-M   'P 1'
_cell_length_a   6.34634342
_cell_length_b   7.37782397
_cell_length_c   10.21233605
_cell_angle_alpha   90.00000000
_cell_angle_beta   90.00000000
_cell_angle_gamma   106.22428159
_symmetry_Int_Tables_number   1
_chemical_formula_structural   KBiTeO5
_chemical_formula_sum   'K4 Bi4 Te4 O20'
_cell_volume   459.12137722
_cell_formula_units_Z   4
loop_
 _symmetry_equiv_pos_site_id
 _symmetry_equiv_pos_as_xyz
  1  'x, y, z'
loop_
 _atom_site_type_symbol
 _atom_site_label
 _atom_site_symmetry_multiplicity
 _atom_site_fract_x
 _atom_site_fract_y
 _atom_site_fract_z
 _atom_site_occupancy
  K  K0  1  0.61813574  0.21886532  0.78225974  1
  K  K1  1  0.88186426  0.78113468  0.28225974  1
  K  K2  1  0.38186426  0.78113468  0.21774026  1
  K  K3  1  0.11813574  0.21886532  0.71774026  1
  Bi  Bi0  1  0.55593733  0.70908051  0.86773030  1
  Bi  Bi1  1  0.94406267  0.29091949  0.36773030  1
  Bi  Bi2  1  0.44406267  0.29091949  0.13226970  1
  Bi  Bi3  1  0.05593733  0.70908051  0.63226970  1
  Te  Te0  1  0.00000000  0.00000000  0.00000000  1
  Te  Te1  1  0.50000000  0.00000000  0.50000000  1
  Te  Te2  1  0.00000000  0.50000000  0.00000000  1
  Te  Te3  1  0.50000000  0.50000000  0.50000000  1
  O  O0  1  0.70303652  0.49647175  0.95492980  1
  O  O1  1  0.79696348  0.50352825  0.45492980  1
  O  O2  1  0.29696348  0.50352825  0.04507020  1
  O  O3  1  0.20303652  0.49647175  0.54507020  1
  O  O4  1  0.08773449  0.76941335  0.04316540  1
  O  O5  1  0.41226551  0.23058665  0.54316540  1
  O  O6  1  0.91226551  0.23058665  0.95683460  1
  O  O7  1  0.58773449  0.76941335  0.45683460  1
  O  O8  1  0.89949683  0.44979689  0.17644080  1
  O  O9  1  0.60050317  0.55020311  0.67644080  1
  O  O10  1  0.10050317  0.55020311  0.82355920  1
  O  O11  1  0.39949683  0.44979689  0.32355920  1
  O  O12  1  0.10145897  0.10069683  0.17169496  1
  O  O13  1  0.39854103  0.89930317  0.67169496  1
  O  O14  1  0.89854103  0.89930317  0.82830504  1
  O  O15  1  0.60145897  0.10069683  0.32830504  1
  O  O16  1  0.28948720  0.11593481  0.94357739  1
  O  O17  1  0.21051280  0.88406519  0.44357739  1
  O  O18  1  0.71051280  0.88406519  0.05642261  1
  O  O19  1  0.78948720  0.11593481  0.55642261  1
loop_
_geom_bond_atom_site_label_1
_geom_bond_atom_site_label_2
_geom_bond_distance
_geom_bond_site_symmetry_2
K0 O6 2.565168 1_555
K0 O16 2.599203 1_555
K0 O13 2.634329 1_545
K0 O0 2.641581 1_555
K0 O9 2.703523 1_555
K0 O19 2.745878 1_555
K0 O5 2.782009 1_555
K1 O7 2.565168 1_555
K1 O17 2.599203 1_655
K1 O12 2.634329 1_665
K1 O1 2.641581 1_555
K1 O8 2.703523 1_555
K1 O18 2.745878 1_555
K1 O4 2.782009 1_655
K2 O4 2.565168 1_555
K2 O18 2.599203 1_555
K2 O15 2.634329 1_565
K2 O2 2.641581 1_555
K2 O11 2.703523 1_555
K2 O17 2.745878 1_555
K2 O7 2.782009 1_555
K3 O5 2.565168 1_555
K3 O19 2.599203 1_455
K3 O14 2.634329 1_445
K3 O3 2.641581 1_555
K3 O10 2.703523 1_555
K3 O16 2.745878 1_555
K3 O6 2.782009 1_455
Bi0 O0 2.223343 1_555
Bi0 O14 2.270260 1_555
Bi0 O9 2.335688 1_555
Bi0 O18 2.373738 1_556
Bi0 O2 2.624540 1_556
Bi0 O13 2.785440 1_555
Bi0 O10 2.835199 1_555
Bi1 O1 2.223343 1_555
Bi1 O15 2.270260 1_555
Bi1 O8 2.335688 1_555
Bi1 O19 2.373738 1_555
Bi1 O3 2.624540 1_655
Bi1 O12 2.785440 1_655
Bi1 O11 2.835199 1_655
Bi2 O2 2.223343 1_555
Bi2 O12 2.270260 1_555
Bi2 O11 2.335688 1_555
Bi2 O16 2.373738 1_554
Bi2 O0 2.624540 1_554
Bi2 O15 2.785440 1_555
Bi2 O8 2.835199 1_555
Bi3 O3 2.223343 1_555
Bi3 O13 2.270260 1_555
Bi3 O10 2.335688 1_555
Bi3 O17 2.373738 1_555
Bi3 O1 2.624540 1_455
Bi3 O14 2.785440 1_455
Bi3 O9 2.835199 1_455
O0 Te2 1.933120 1_656
O1 Te3 1.933120 1_555
O2 Te2 1.933120 1_555
O3 Te3 1.933120 1_555
O4 Te2 1.958773 1_555
O4 Te0 1.981874 1_565
O5 Te3 1.958773 1_555
O5 Te1 1.981874 1_555
O6 Te2 1.958773 1_656
O6 Te0 1.981874 1_656
O7 Te3 1.958773 1_555
O7 Te1 1.981874 1_565
O8 Te2 1.912785 1_655
O9 Te3 1.912785 1_555
O10 Te2 1.912785 1_556
O11 Te3 1.912785 1_555
O12 Te0 1.942591 1_555
O13 Te1 1.942591 1_565
O14 Te0 1.942591 1_666
O15 Te1 1.942591 1_555
O16 Te0 1.887001 1_556
O17 Te1 1.887001 1_565
O18 Te0 1.887001 1_665
O19 Te1 1.887001 1_555
