# generated using pymatgen
data_LiMn3O4
_symmetry_space_group_name_H-M   'P 1'
_cell_length_a   5.27902258
_cell_length_b   6.32666036
_cell_length_c   5.27905103
_cell_angle_alpha   91.83670580
_cell_angle_beta   106.67390782
_cell_angle_gamma   91.83550156
_symmetry_Int_Tables_number   1
_chemical_formula_structural   LiMn3O4
_chemical_formula_sum   'Li2 Mn6 O8'
_cell_volume   168.65610758
_cell_formula_units_Z   2
loop_
 _symmetry_equiv_pos_site_id
 _symmetry_equiv_pos_as_xyz
  1  'x, y, z'
loop_
 _atom_site_type_symbol
 _atom_site_label
 _atom_site_symmetry_multiplicity
 _atom_site_fract_x
 _atom_site_fract_y
 _atom_site_fract_z
 _atom_site_occupancy
  Li  Li0  1  0.50000000  0.25000000  0.00000100  1
  Li  Li1  1  0.50000000  0.75000000  0.00000200  1
  Mn  Mn0  1  0.99999800  0.75000000  0.50000000  1
  Mn  Mn1  1  0.99999700  0.24999800  0.50000000  1
  Mn  Mn2  1  0.00657000  0.99622400  0.00010100  1
  Mn  Mn3  1  0.99343300  0.50377500  0.99990400  1
  Mn  Mn4  1  0.49990200  0.50377300  0.49343500  1
  Mn  Mn5  1  0.50009400  0.99622900  0.50656000  1
  O  O0  1  0.77346000  0.02177500  0.27345600  1
  O  O1  1  0.74605600  0.49928900  0.24605700  1
  O  O2  1  0.22654300  0.47822500  0.72654300  1
  O  O3  1  0.25394300  0.00071100  0.75394500  1
  O  O4  1  0.76419700  0.24999500  0.73580300  1
  O  O5  1  0.74248200  0.74999700  0.75751600  1
  O  O6  1  0.23580500  0.25000500  0.26419600  1
  O  O7  1  0.25751900  0.75000400  0.24248300  1
loop_
_geom_bond_atom_site_label_1
_geom_bond_atom_site_label_2
_geom_bond_distance
_geom_bond_site_symmetry_2
Li0 O1 2.152013 1_555
Li0 O3 2.152015 1_554
Li0 O6 2.237540 1_555
Li0 O4 2.237561 1_554
Li0 O0 2.307387 1_555
Li0 O2 2.307387 1_554
Li1 O7 2.053638 1_555
Li1 O5 2.053663 1_554
Li1 O1 2.277328 1_555
Li1 O3 2.277335 1_564
Li1 O0 2.368617 1_565
Li1 O2 2.368621 1_554
Mn0 O5 2.180974 1_555
Mn0 O7 2.180999 1_655
Mn0 O1 2.192345 1_555
Mn0 O3 2.192356 1_665
Mn0 O0 2.293400 1_565
Mn0 O2 2.293413 1_655
Mn1 O0 1.975655 1_555
Mn1 O2 1.975690 1_655
Mn1 O4 1.997068 1_555
Mn1 O6 1.997106 1_655
Mn1 O3 2.306823 1_655
Mn1 O1 2.306826 1_555
Mn2 O3 2.090110 1_564
Mn2 O0 2.154005 1_465
Mn2 O5 2.172274 1_454
Mn2 O6 2.179434 1_565
Mn2 O7 2.259661 1_555
Mn2 O4 2.326427 1_464
Mn3 O1 2.090114 1_556
Mn3 O2 2.154031 1_655
Mn3 O7 2.172266 1_656
Mn3 O4 2.179446 1_555
Mn3 O5 2.259688 1_555
Mn3 O6 2.326405 1_656
Mn4 O1 2.090122 1_555
Mn4 O2 2.154016 1_555
Mn4 O5 2.172234 1_555
Mn4 O6 2.179390 1_555
Mn4 O7 2.259722 1_555
Mn4 O4 2.326439 1_555
Mn5 O3 2.090139 1_565
Mn5 O0 2.154029 1_565
Mn5 O7 2.172219 1_555
Mn5 O4 2.179403 1_565
Mn5 O5 2.259747 1_555
Mn5 O6 2.326406 1_565
