# generated using pymatgen
data_Ba5Sr5(InSb3)4
_symmetry_space_group_name_H-M   'P 1'
_cell_length_a   4.80389972
_cell_length_b   13.15286648
_cell_length_c   15.10361057
_cell_angle_alpha   89.83432264
_cell_angle_beta   90.00000000
_cell_angle_gamma   90.00000000
_symmetry_Int_Tables_number   1
_chemical_formula_structural   Ba5Sr5(InSb3)4
_chemical_formula_sum   'Ba5 Sr5 In4 Sb12'
_cell_volume   954.31842354
_cell_formula_units_Z   1
loop_
 _symmetry_equiv_pos_site_id
 _symmetry_equiv_pos_as_xyz
  1  'x, y, z'
loop_
 _atom_site_type_symbol
 _atom_site_label
 _atom_site_symmetry_multiplicity
 _atom_site_fract_x
 _atom_site_fract_y
 _atom_site_fract_z
 _atom_site_occupancy
  Ba  Ba0  1  0.50000000  0.08431629  0.75197893  1
  Ba  Ba1  1  0.50000000  0.17198939  0.01971467  1
  Ba  Ba2  1  0.50000000  0.41575950  0.25277898  1
  Ba  Ba3  1  0.50000000  0.82145798  0.98202051  1
  Ba  Ba4  1  0.50000000  0.33093614  0.51929113  1
  Sr  Sr0  1  0.50000000  0.99963363  0.49895153  1
  Sr  Sr1  1  0.50000000  0.58619058  0.74696392  1
  Sr  Sr2  1  0.50000000  0.91095943  0.25100165  1
  Sr  Sr3  1  0.50000000  0.49960919  0.99800771  1
  Sr  Sr4  1  0.50000000  0.67782862  0.48424938  1
  In  In0  1  0.00000000  0.32747845  0.71120907  1
  In  In1  1  0.00000000  0.17468452  0.21227663  1
  In  In2  1  0.00000000  0.67716320  0.28747432  1
  In  In3  1  0.00000000  0.82055804  0.78466860  1
  Sb  Sb0  1  0.00000000  0.64366555  0.89673813  1
  Sb  Sb1  1  0.50000000  0.66760434  0.17871353  1
  Sb  Sb2  1  0.00000000  0.00987455  0.91057812  1
  Sb  Sb3  1  0.00000000  0.49256121  0.40984684  1
  Sb  Sb4  1  0.50000000  0.34100890  0.81799043  1
  Sb  Sb5  1  0.50000000  0.15864299  0.31909625  1
  Sb  Sb6  1  0.00000000  0.34989335  0.09421584  1
  Sb  Sb7  1  0.00000000  0.15234714  0.59355082  1
  Sb  Sb8  1  0.00000000  0.98080649  0.10003304  1
  Sb  Sb9  1  0.50000000  0.83128077  0.67629752  1
  Sb  Sb10  1  0.00000000  0.52590012  0.59736096  1
  Sb  Sb11  1  0.00000000  0.84785164  0.40499252  1
loop_
_geom_bond_atom_site_label_1
_geom_bond_atom_site_label_2
_geom_bond_distance
_geom_bond_site_symmetry_2
Ba0 Sb7 3.504756 1_655
Ba0 Sb7 3.504756 1_555
Ba0 Sb9 3.522091 1_545
Ba0 Sb4 3.523141 1_555
Ba0 Sb2 3.528813 1_655
Ba0 Sb2 3.528813 1_555
Ba1 Sb6 3.539223 1_655
Ba1 Sb6 3.539223 1_555
Ba1 Sb2 3.612944 1_654
Ba1 Sb2 3.612944 1_554
Ba1 Sb8 3.680565 1_545
Ba1 Sb8 3.680565 1_645
Ba1 Sb4 3.766396 1_554
Ba1 In1 3.772253 1_555
Ba1 In1 3.772253 1_655
Ba2 Sb1 3.493207 1_555
Ba2 Sb6 3.502473 1_555
Ba2 Sb6 3.502473 1_655
Ba2 Sb5 3.524255 1_555
Ba2 Sb3 3.525822 1_555
Ba2 Sb3 3.525822 1_655
Ba3 Sb1 3.589674 1_556
Ba3 Sb0 3.593661 1_655
Ba3 Sb0 3.593661 1_555
Ba3 Sb2 3.613833 1_565
Ba3 Sb2 3.613833 1_665
Ba3 Sb8 3.655233 1_656
Ba3 Sb8 3.655233 1_556
Ba3 In3 3.828111 1_655
Ba3 In3 3.828111 1_555
Ba4 Sb7 3.539730 1_555
Ba4 Sb7 3.539730 1_655
Ba4 Sb3 3.605638 1_655
Ba4 Sb3 3.605638 1_555
Ba4 Sb10 3.708507 1_655
Ba4 Sb10 3.708507 1_555
Ba4 In0 3.764686 1_555
Ba4 In0 3.764686 1_655
Ba4 Sb5 3.783862 1_555
In0 Sb4 2.898925 1_455
In0 Sb4 2.898925 1_555
In0 Sb7 2.913356 1_555
In0 Sb10 3.121204 1_555
In1 Sb5 2.900836 1_455
In1 Sb5 2.900836 1_555
In1 Sb6 2.909734 1_555
In1 Sb8 3.066228 1_545
In2 Sb11 2.865956 1_555
In2 Sb1 2.912862 1_455
In2 Sb1 2.912862 1_555
In2 Sb3 3.047219 1_555
In2 Sr4 3.821316 1_455
In2 Sr4 3.821316 1_555
In3 Sb0 2.873251 1_555
In3 Sb9 2.909814 1_455
In3 Sb9 2.909814 1_555
In3 Sb2 3.137543 1_565
Sb0 Sr1 3.386439 1_555
Sb0 Sr1 3.386439 1_455
Sb0 Sr3 3.417920 1_555
Sb0 Sr3 3.417920 1_455
Sb1 Sr2 3.384892 1_555
Sb1 Sr3 3.516592 1_554
Sb2 Sb8 2.885786 1_546
Sb3 Sr4 3.603608 1_555
Sb3 Sr4 3.603608 1_455
Sb4 Sr1 3.395645 1_555
Sb4 Sr3 3.431745 1_555
Sb5 Sr2 3.419073 1_545
Sb5 Sr0 3.423506 1_545
Sb6 Sr3 3.426661 1_554
Sb6 Sr3 3.426661 1_454
Sb7 Sr0 3.444120 1_445
Sb7 Sr0 3.444120 1_545
Sb8 Sr2 3.435174 1_455
Sb8 Sr2 3.435174 1_555
Sb9 Sr1 3.392803 1_555
Sb9 Sr0 3.470394 1_555
Sb9 Sr4 3.538521 1_555
Sb10 Sb3 2.867139 1_555
Sb10 Sr1 3.393244 1_455
Sb10 Sr1 3.393244 1_555
Sb10 Sr4 3.558288 1_455
Sb10 Sr4 3.558288 1_555
Sb11 Sr0 3.432949 1_555
Sb11 Sr0 3.432949 1_455
Sb11 Sr2 3.443343 1_455
Sb11 Sr2 3.443343 1_555
Sb11 Sr4 3.491108 1_455
Sb11 Sr4 3.491108 1_555
