# generated using pymatgen
data_Ba3LuBi3
_symmetry_space_group_name_H-M   'P 1'
_cell_length_a   5.14368507
_cell_length_b   14.65291602
_cell_length_c   16.19212001
_cell_angle_alpha   90.00000000
_cell_angle_beta   90.00000000
_cell_angle_gamma   90.00000000
_symmetry_Int_Tables_number   1
_chemical_formula_structural   Ba3LuBi3
_chemical_formula_sum   'Ba12 Lu4 Bi12'
_cell_volume   1220.39984807
_cell_formula_units_Z   4
loop_
 _symmetry_equiv_pos_site_id
 _symmetry_equiv_pos_as_xyz
  1  'x, y, z'
loop_
 _atom_site_type_symbol
 _atom_site_label
 _atom_site_symmetry_multiplicity
 _atom_site_fract_x
 _atom_site_fract_y
 _atom_site_fract_z
 _atom_site_occupancy
  Ba  Ba0  1  0.25000000  0.42779173  0.10358924  1
  Ba  Ba1  1  0.25000000  0.14993728  0.99682654  1
  Ba  Ba2  1  0.25000000  0.22790475  0.28850917  1
  Ba  Ba3  1  0.75000000  0.27209525  0.78850917  1
  Ba  Ba4  1  0.75000000  0.35006272  0.49682654  1
  Ba  Ba5  1  0.25000000  0.92779173  0.39641076  1
  Ba  Ba6  1  0.75000000  0.77209525  0.71149083  1
  Ba  Ba7  1  0.75000000  0.85006272  0.00317346  1
  Ba  Ba8  1  0.25000000  0.72790475  0.21149083  1
  Ba  Ba9  1  0.75000000  0.07220827  0.60358924  1
  Ba  Ba10  1  0.75000000  0.57220827  0.89641076  1
  Ba  Ba11  1  0.25000000  0.64993728  0.50317346  1
  Lu  Lu0  1  0.75000000  0.55249788  0.29637662  1
  Lu  Lu1  1  0.75000000  0.05249788  0.20362338  1
  Lu  Lu2  1  0.25000000  0.44750212  0.70362338  1
  Lu  Lu3  1  0.25000000  0.94750212  0.79637662  1
  Bi  Bi0  1  0.75000000  0.24130495  0.12718644  1
  Bi  Bi1  1  0.75000000  0.74130495  0.37281356  1
  Bi  Bi2  1  0.75000000  0.59979429  0.11485487  1
  Bi  Bi3  1  0.25000000  0.25869505  0.62718644  1
  Bi  Bi4  1  0.25000000  0.75869505  0.87281356  1
  Bi  Bi5  1  0.75000000  0.09979429  0.38514513  1
  Bi  Bi6  1  0.25000000  0.90020571  0.61485487  1
  Bi  Bi7  1  0.25000000  0.40020571  0.88514513  1
  Bi  Bi8  1  0.75000000  0.03896102  0.85219996  1
  Bi  Bi9  1  0.25000000  0.46103898  0.35219996  1
  Bi  Bi10  1  0.25000000  0.96103898  0.14780004  1
  Bi  Bi11  1  0.75000000  0.53896102  0.64780004  1
loop_
_geom_bond_atom_site_label_1
_geom_bond_atom_site_label_2
_geom_bond_distance
_geom_bond_site_symmetry_2
Ba0 Bi7 3.560095 1_554
Ba0 Bi2 3.605518 1_455
Ba0 Bi2 3.605518 1_555
Ba0 Bi0 3.771914 1_455
Ba0 Bi0 3.771914 1_555
Ba0 Bi9 4.054906 1_555
Ba1 Bi0 3.586399 1_556
Ba1 Bi0 3.586399 1_456
Ba1 Bi10 3.692873 1_546
Ba1 Bi8 3.839627 1_455
Ba1 Bi8 3.839627 1_555
Ba1 Bi7 4.088795 1_555
Ba2 Bi5 3.547765 1_455
Ba2 Bi5 3.547765 1_555
Ba2 Bi9 3.568371 1_555
Ba2 Bi0 3.671007 1_455
Ba2 Bi0 3.671007 1_555
Ba3 Bi7 3.547765 1_655
Ba3 Bi7 3.547765 1_555
Ba3 Bi8 3.568371 1_555
Ba3 Bi3 3.671007 1_655
Ba3 Bi3 3.671007 1_555
Ba4 Bi3 3.586399 1_655
Ba4 Bi3 3.586399 1_555
Ba4 Bi11 3.692873 1_555
Ba4 Bi9 3.839627 1_555
Ba4 Bi9 3.839627 1_655
Ba4 Bi5 4.088795 1_555
Ba5 Bi6 3.560095 1_555
Ba5 Bi5 3.605518 1_565
Ba5 Bi5 3.605518 1_465
Ba5 Bi1 3.771914 1_555
Ba5 Bi1 3.771914 1_455
Ba5 Bi10 4.054906 1_555
Ba6 Bi6 3.547765 1_555
Ba6 Bi6 3.547765 1_655
Ba6 Bi11 3.568371 1_555
Ba6 Bi4 3.671007 1_655
Ba6 Bi4 3.671007 1_555
Ba7 Bi4 3.586399 1_554
Ba7 Bi4 3.586399 1_654
Ba7 Bi8 3.692873 1_564
Ba7 Bi10 3.839627 1_655
Ba7 Bi10 3.839627 1_555
Ba7 Bi2 4.088795 1_555
Ba8 Bi2 3.547765 1_555
Ba8 Bi2 3.547765 1_455
Ba8 Bi10 3.568371 1_555
Ba8 Bi1 3.671007 1_555
Ba8 Bi1 3.671007 1_455
Ba9 Bi5 3.560095 1_555
Ba9 Bi6 3.605518 1_545
Ba9 Bi6 3.605518 1_645
Ba9 Bi3 3.771914 1_555
Ba9 Bi3 3.771914 1_655
Ba9 Bi8 4.054906 1_555
Ba10 Bi2 3.560095 1_556
Ba10 Bi7 3.605518 1_555
Ba10 Bi7 3.605518 1_655
Ba10 Bi4 3.771914 1_555
Ba10 Bi4 3.771914 1_655
Ba10 Bi11 4.054906 1_555
Ba11 Bi1 3.586399 1_455
Ba11 Bi1 3.586399 1_555
Ba11 Bi9 3.692873 1_555
Ba11 Bi11 3.839627 1_555
Ba11 Bi11 3.839627 1_455
Ba11 Bi6 4.088795 1_555
Bi0 Lu1 3.030804 1_555
Bi1 Lu0 3.030804 1_555
Bi2 Lu0 3.019821 1_555
Bi3 Lu2 3.030804 1_555
Bi4 Lu3 3.030804 1_555
Bi5 Lu1 3.019821 1_555
Bi6 Lu3 3.019821 1_555
Bi7 Lu2 3.019821 1_555
Bi8 Lu3 3.037660 1_645
Bi8 Lu3 3.037660 1_545
Bi9 Lu0 3.037660 1_455
Bi9 Lu0 3.037660 1_555
Bi10 Lu1 3.037660 1_465
Bi10 Lu1 3.037660 1_565
Bi11 Lu2 3.037660 1_555
Bi11 Lu2 3.037660 1_655
