# generated using pymatgen
data_Sc6Al(Ga3Ni8)2
_symmetry_space_group_name_H-M   'P 1'
_cell_length_a   8.20960335
_cell_length_b   8.20960356
_cell_length_c   8.20960361
_cell_angle_alpha   59.99999979
_cell_angle_beta   59.99999894
_cell_angle_gamma   60.00000014
_symmetry_Int_Tables_number   1
_chemical_formula_structural   Sc6Al(Ga3Ni8)2
_chemical_formula_sum   'Sc6 Al1 Ga6 Ni16'
_cell_volume   391.24747391
_cell_formula_units_Z   1
loop_
 _symmetry_equiv_pos_site_id
 _symmetry_equiv_pos_as_xyz
  1  'x, y, z'
loop_
 _atom_site_type_symbol
 _atom_site_label
 _atom_site_symmetry_multiplicity
 _atom_site_fract_x
 _atom_site_fract_y
 _atom_site_fract_z
 _atom_site_occupancy
  Sc  Sc0  1  0.71617300  0.71617300  0.28382700  1
  Sc  Sc1  1  0.28382700  0.71617300  0.28382700  1
  Sc  Sc2  1  0.71617300  0.28382700  0.28382700  1
  Sc  Sc3  1  0.28382700  0.28382700  0.71617300  1
  Sc  Sc4  1  0.71617300  0.28382700  0.71617300  1
  Sc  Sc5  1  0.28382700  0.71617300  0.71617300  1
  Al  Al0  1  0.00000000  0.00000000  0.00000000  1
  Ga  Ga0  1  0.00000000  0.00000000  0.50000000  1
  Ga  Ga1  1  0.50000000  0.00000000  0.50000000  1
  Ga  Ga2  1  0.00000000  0.50000000  0.50000000  1
  Ga  Ga3  1  0.50000000  0.50000000  0.00000000  1
  Ga  Ga4  1  0.00000000  0.50000000  0.00000000  1
  Ga  Ga5  1  0.50000000  0.00000000  0.00000000  1
  Ni  Ni0  1  0.87824420  0.87824420  0.36526640  1
  Ni  Ni1  1  0.87824420  0.36526640  0.87824420  1
  Ni  Ni2  1  0.36526640  0.87824420  0.87824420  1
  Ni  Ni3  1  0.87824420  0.87824420  0.87824420  1
  Ni  Ni4  1  0.12175580  0.12175580  0.63473360  1
  Ni  Ni5  1  0.12175580  0.63473360  0.12175580  1
  Ni  Ni6  1  0.63473360  0.12175580  0.12175580  1
  Ni  Ni7  1  0.12175580  0.12175580  0.12175580  1
  Ni  Ni8  1  0.67071158  0.67071158  0.98786627  1
  Ni  Ni9  1  0.67071158  0.98786627  0.67071158  1
  Ni  Ni10  1  0.98786627  0.67071158  0.67071158  1
  Ni  Ni11  1  0.67071158  0.67071158  0.67071158  1
  Ni  Ni12  1  0.32928842  0.32928842  0.01213373  1
  Ni  Ni13  1  0.32928842  0.01213373  0.32928842  1
  Ni  Ni14  1  0.01213373  0.32928842  0.32928842  1
  Ni  Ni15  1  0.32928842  0.32928842  0.32928842  1
loop_
_geom_bond_atom_site_label_1
_geom_bond_atom_site_label_2
_geom_bond_distance
_geom_bond_site_symmetry_2
Al0 Ni2 2.448422 1_544
Al0 Ni6 2.448422 1_455
Al0 Ni0 2.448422 1_445
Al0 Ni4 2.448422 1_554
Al0 Ni5 2.448422 1_545
Al0 Ni1 2.448422 1_454
Al0 Ni7 2.448429 1_555
Al0 Ni3 2.448429 1_444
Ga0 Ni13 2.371301 1_555
Ga0 Ni9 2.371301 1_445
Ga0 Ni14 2.371301 1_555
Ga0 Ni10 2.371301 1_445
Ga0 Ni3 2.536160 1_445
Ga0 Ni7 2.536160 1_555
Ga0 Ni4 2.536166 1_555
Ga0 Ni0 2.536166 1_445
Ga0 Sc5 2.928983 1_545
Ga0 Sc2 2.928983 1_455
Ga0 Sc4 2.928983 1_455
Ga0 Sc1 2.928983 1_545
Ga1 Ni11 2.371304 1_545
Ga1 Ni15 2.371304 1_555
Ga1 Ni9 2.371308 1_545
Ga1 Ni13 2.371308 1_555
Ga1 Ni0 2.536160 1_545
Ga1 Ni4 2.536160 1_555
Ga1 Ni2 2.536160 1_545
Ga1 Ni6 2.536160 1_555
Ga1 Sc2 2.928983 1_555
Ga1 Sc5 2.928983 1_545
Ga1 Sc3 2.928983 1_555
Ga1 Sc0 2.928983 1_545
Ga2 Ni11 2.371304 1_455
Ga2 Ni15 2.371304 1_555
Ga2 Ni10 2.371308 1_455
Ga2 Ni14 2.371308 1_555
Ga2 Ni1 2.536160 1_455
Ga2 Ni5 2.536160 1_555
Ga2 Ni0 2.536160 1_455
Ga2 Ni4 2.536160 1_555
Ga2 Sc1 2.928983 1_555
Ga2 Sc4 2.928983 1_455
Ga2 Sc3 2.928983 1_555
Ga2 Sc0 2.928983 1_455
Ga3 Ni11 2.371304 1_554
Ga3 Ni15 2.371304 1_555
Ga3 Ni8 2.371308 1_554
Ga3 Ni12 2.371308 1_555
Ga3 Ni1 2.536160 1_554
Ga3 Ni5 2.536160 1_555
Ga3 Ni2 2.536160 1_554
Ga3 Ni6 2.536160 1_555
Ga3 Sc1 2.928983 1_555
Ga3 Sc4 2.928983 1_554
Ga3 Sc2 2.928983 1_555
Ga3 Sc5 2.928983 1_554
Ga4 Ni12 2.371301 1_555
Ga4 Ni8 2.371301 1_454
Ga4 Ni14 2.371301 1_555
Ga4 Ni10 2.371301 1_454
Ga4 Ni3 2.536160 1_454
Ga4 Ni7 2.536160 1_555
Ga4 Ni5 2.536166 1_555
Ga4 Ni1 2.536166 1_454
Ga4 Sc5 2.928983 1_554
Ga4 Sc2 2.928983 1_455
Ga4 Sc0 2.928983 1_455
Ga4 Sc3 2.928983 1_554
Ga5 Ni13 2.371301 1_555
Ga5 Ni9 2.371301 1_544
Ga5 Ni12 2.371301 1_555
Ga5 Ni8 2.371301 1_544
Ga5 Ni3 2.536160 1_544
Ga5 Ni7 2.536160 1_555
Ga5 Ni6 2.536166 1_555
Ga5 Ni2 2.536166 1_544
Ga5 Sc4 2.928983 1_554
Ga5 Sc1 2.928983 1_545
Ga5 Sc0 2.928983 1_545
Ga5 Sc3 2.928983 1_554
Ni0 Ni11 2.540026 1_555
Ni0 Ni9 2.540034 1_555
Ni0 Ni10 2.540034 1_555
Ni0 Sc0 2.745392 1_555
Ni0 Sc1 2.745399 1_655
Ni0 Sc2 2.745399 1_565
Ni0 Ni5 2.827190 1_655
Ni0 Ni6 2.827190 1_565
Ni0 Ni7 2.827202 1_665
Ni1 Ni11 2.540026 1_555
Ni1 Ni10 2.540034 1_555
Ni1 Ni8 2.540034 1_555
Ni1 Sc4 2.745392 1_555
Ni1 Sc3 2.745399 1_655
Ni1 Sc2 2.745399 1_556
Ni1 Ni6 2.827190 1_556
Ni1 Ni4 2.827190 1_655
Ni1 Ni7 2.827202 1_656
Ni2 Ni9 2.540034 1_555
Ni2 Ni8 2.540034 1_555
Ni2 Sc5 2.745392 1_555
Ni2 Sc1 2.745399 1_556
Ni2 Sc3 2.745399 1_565
Ni2 Ni5 2.827190 1_556
Ni2 Ni4 2.827190 1_565
Ni2 Ni7 2.827202 1_566
Ni3 Ni8 2.540021 1_555
Ni3 Ni9 2.540021 1_555
Ni3 Sc5 2.745398 1_655
Ni3 Sc0 2.745398 1_556
Ni3 Sc4 2.745398 1_565
Ni3 Ni4 2.827202 1_665
Ni3 Ni5 2.827202 1_656
Ni3 Ni6 2.827202 1_566
Ni4 Sc3 2.745392 1_555
Ni4 Sc4 2.745399 1_455
Ni4 Sc5 2.745399 1_545
Ni5 Sc1 2.745392 1_555
Ni5 Sc0 2.745399 1_455
Ni5 Sc5 2.745399 1_554
Ni6 Sc2 2.745392 1_555
Ni6 Sc4 2.745399 1_554
Ni6 Sc0 2.745399 1_545
Ni7 Sc2 2.745398 1_455
Ni7 Sc3 2.745398 1_554
Ni7 Sc1 2.745398 1_545
Ni8 Ni9 2.603714 1_555
Ni8 Sc0 2.852203 1_556
Ni8 Sc1 2.852208 1_556
Ni8 Sc2 2.852208 1_556
Ni9 Sc4 2.852203 1_565
Ni9 Sc3 2.852208 1_565
Ni9 Sc2 2.852208 1_565
Ni10 Ni3 2.540021 1_555
Ni10 Ni8 2.603714 1_555
Ni10 Ni11 2.603714 1_555
Ni10 Ni9 2.603714 1_555
Ni10 Sc5 2.852203 1_655
Ni10 Sc1 2.852208 1_655
Ni10 Sc3 2.852208 1_655
Ni11 Ni2 2.540026 1_555
Ni11 Ni9 2.603714 1_555
Ni11 Ni8 2.603714 1_555
Ni11 Sc5 2.852211 1_555
Ni11 Sc4 2.852211 1_555
Ni11 Sc0 2.852211 1_555
Ni12 Ni7 2.540021 1_555
Ni12 Ni6 2.540034 1_555
Ni12 Ni5 2.540034 1_555
Ni12 Ni14 2.603714 1_555
Ni12 Ni13 2.603714 1_555
Ni12 Ni15 2.603714 1_555
Ni12 Sc3 2.852203 1_554
Ni12 Sc4 2.852208 1_554
Ni12 Sc5 2.852208 1_554
Ni13 Ni7 2.540021 1_555
Ni13 Ni6 2.540034 1_555
Ni13 Ni4 2.540034 1_555
Ni13 Ni14 2.603714 1_555
Ni13 Ni15 2.603714 1_555
Ni13 Sc1 2.852203 1_545
Ni13 Sc0 2.852208 1_545
Ni13 Sc5 2.852208 1_545
Ni14 Ni7 2.540021 1_555
Ni14 Ni5 2.540034 1_555
Ni14 Ni4 2.540034 1_555
Ni14 Ni15 2.603714 1_555
Ni14 Sc2 2.852203 1_455
Ni14 Sc4 2.852208 1_455
Ni14 Sc0 2.852208 1_455
Ni15 Ni4 2.540026 1_555
Ni15 Ni6 2.540026 1_555
Ni15 Ni5 2.540026 1_555
Ni15 Sc2 2.852211 1_555
Ni15 Sc1 2.852211 1_555
Ni15 Sc3 2.852211 1_555
