# generated using pymatgen
data_KBC7
_symmetry_space_group_name_H-M   'P 1'
_cell_length_a   11.66176851
_cell_length_b   10.96127420
_cell_length_c   5.04678944
_cell_angle_alpha   81.76661570
_cell_angle_beta   69.45070476
_cell_angle_gamma   25.53889183
_symmetry_Int_Tables_number   1
_chemical_formula_structural   KBC7
_chemical_formula_sum   'K2 B2 C14'
_cell_volume   235.14675773
_cell_formula_units_Z   2
loop_
 _symmetry_equiv_pos_site_id
 _symmetry_equiv_pos_as_xyz
  1  'x, y, z'
loop_
 _atom_site_type_symbol
 _atom_site_label
 _atom_site_symmetry_multiplicity
 _atom_site_fract_x
 _atom_site_fract_y
 _atom_site_fract_z
 _atom_site_occupancy
  K  K0  1  0.01548101  0.98451899  0.98451899  1
  K  K1  1  0.25070509  0.24929491  0.24929491  1
  B  B0  1  0.54083551  0.20923401  0.29348767  1
  B  B1  1  0.95644182  0.29348767  0.20923401  1
  C  C0  1  0.29066974  0.95941981  0.54204679  1
  C  C1  1  0.20786366  0.54204679  0.95941981  1
  C  C2  1  0.71181925  0.03831111  0.95156891  1
  C  C3  1  0.29830073  0.95156891  0.03831111  1
  C  C4  1  0.95318132  0.29698608  0.71076224  1
  C  C5  1  0.03907036  0.71076224  0.29698608  1
  C  C6  1  0.03898113  0.70999672  0.79160577  1
  C  C7  1  0.45941639  0.79160577  0.70999672  1
  C  C8  1  0.78635120  0.46407865  0.03813152  1
  C  C9  1  0.71143862  0.03813152  0.46407865  1
  C  C10  1  0.19972690  0.55056513  0.46370061  1
  C  C11  1  0.78600736  0.46370061  0.55056513  1
  C  C12  1  0.45851006  0.79044097  0.20584910  1
  C  C13  1  0.54520086  0.20584910  0.79044097  1
loop_
_geom_bond_atom_site_label_1
_geom_bond_atom_site_label_2
_geom_bond_distance
_geom_bond_site_symmetry_2
B0 C9 1.491103 1_555
B0 C10 1.491251 1_555
B0 C2 1.494199 1_554
B0 K1 3.083955 1_555
B0 K0 3.094187 1_644
B1 C8 1.491099 1_555
B1 C11 1.491254 1_555
B1 C3 1.494201 1_645
B1 K1 3.083966 1_655
B1 K0 3.094177 1_644
C0 C7 1.471979 1_555
C0 C12 1.472080 1_555
C0 C4 1.475137 1_465
C0 K0 2.985444 1_555
C0 K1 2.993741 1_565
C1 C6 1.471979 1_555
C1 C13 1.472082 1_555
C1 C5 1.475137 1_556
C1 K0 2.985444 1_555
C1 K1 2.993741 1_556
C2 C6 1.432310 1_645
C2 K1 3.066523 1_556
C2 K0 3.087550 1_645
C3 C7 1.432310 1_554
C3 K1 3.066523 1_565
C3 K0 3.087550 1_554
C4 C8 1.431467 1_556
C4 K0 3.004397 1_645
C4 K1 3.022990 1_655
C5 C9 1.431467 1_465
C5 K0 3.004397 1_554
C5 K1 3.022990 1_555
C6 K0 3.039961 1_555
C7 K0 3.039961 1_555
C8 K0 3.065544 1_644
C9 K0 3.065544 1_644
C10 C6 1.430167 1_555
C10 C5 1.431121 1_555
C10 K1 3.075477 1_555
C11 C7 1.430167 1_555
C11 C4 1.431121 1_555
C11 K1 3.075477 1_655
C12 C8 1.430033 1_555
C12 C3 1.432297 1_555
C12 K1 3.027422 1_565
C13 C9 1.430036 1_555
C13 C2 1.432292 1_555
C13 K1 3.027431 1_556
