# generated using pymatgen
data_Rb3Cu(AsAu)2
_symmetry_space_group_name_H-M   'P 1'
_cell_length_a   7.87799517
_cell_length_b   7.87799463
_cell_length_c   7.66023573
_cell_angle_alpha   46.39501939
_cell_angle_beta   46.39502123
_cell_angle_gamma   48.68767517
_symmetry_Int_Tables_number   1
_chemical_formula_structural   Rb3Cu(AsAu)2
_chemical_formula_sum   'Rb3 Cu1 As2 Au2'
_cell_volume   233.33646783
_cell_formula_units_Z   1
loop_
 _symmetry_equiv_pos_site_id
 _symmetry_equiv_pos_as_xyz
  1  'x, y, z'
loop_
 _atom_site_type_symbol
 _atom_site_label
 _atom_site_symmetry_multiplicity
 _atom_site_fract_x
 _atom_site_fract_y
 _atom_site_fract_z
 _atom_site_occupancy
  Rb  Rb0  1  0.91597879  0.91597879  0.90585948  1
  Rb  Rb1  1  0.50000000  0.50000000  0.50000000  1
  Rb  Rb2  1  0.08402121  0.08402121  0.09414052  1
  Cu  Cu0  1  0.50000000  0.50000000  0.00000000  1
  As  As0  1  0.26670674  0.26670674  0.22737795  1
  As  As1  1  0.73329326  0.73329326  0.77262205  1
  Au  Au0  1  0.00000000  0.50000000  0.50000000  1
  Au  Au1  1  0.50000000  0.00000000  0.50000000  1
loop_
_geom_bond_atom_site_label_1
_geom_bond_atom_site_label_2
_geom_bond_distance
_geom_bond_site_symmetry_2
Cu0 Rb2 3.719845 1_565
Cu0 Rb0 3.719845 1_544
Cu0 Rb2 3.719845 1_655
Cu0 Rb0 3.719845 1_454
Cu0 Rb1 3.830118 1_555
Cu0 Rb1 3.830118 1_554
As0 Cu0 2.327670 1_555
As0 Au0 2.509354 1_555
As0 Au1 2.509354 1_555
As0 Rb2 3.459955 1_555
As0 Rb0 3.569919 1_445
As0 Rb0 3.634981 1_454
As0 Rb0 3.634982 1_544
As0 Rb1 3.743081 1_554
As1 Cu0 2.327670 1_556
As1 Au0 2.509354 1_655
As1 Au1 2.509354 1_565
As1 Rb0 3.459955 1_555
As1 Rb2 3.569919 1_665
As1 Rb2 3.634981 1_656
As1 Rb2 3.634982 1_566
As1 Rb1 3.743081 1_556
Au0 Rb2 3.551021 1_556
Au0 Rb0 3.551021 1_454
Au0 Rb2 3.567079 1_565
Au0 Rb0 3.567079 1_445
Au0 Rb1 3.938998 1_555
Au0 Rb1 3.938998 1_455
Au1 Rb2 3.551021 1_556
Au1 Rb0 3.551021 1_544
Au1 Rb2 3.567079 1_655
Au1 Rb0 3.567079 1_445
Au1 Rb1 3.938997 1_545
Au1 Rb1 3.938997 1_555
