# generated using pymatgen
data_AlSnSbO6
_symmetry_space_group_name_H-M   'P 1'
_cell_length_a   4.60619248
_cell_length_b   9.21321247
_cell_length_c   9.16127231
_cell_angle_alpha   89.99998070
_cell_angle_beta   90.00001885
_cell_angle_gamma   90.00011142
_symmetry_Int_Tables_number   1
_chemical_formula_structural   AlSnSbO6
_chemical_formula_sum   'Al4 Sn4 Sb4 O24'
_cell_volume   388.78451631
_cell_formula_units_Z   4
loop_
 _symmetry_equiv_pos_site_id
 _symmetry_equiv_pos_as_xyz
  1  'x, y, z'
loop_
 _atom_site_type_symbol
 _atom_site_label
 _atom_site_symmetry_multiplicity
 _atom_site_fract_x
 _atom_site_fract_y
 _atom_site_fract_z
 _atom_site_occupancy
  Al  Al0  1  0.49999581  0.75000738  0.16708761  1
  Al  Al1  1  0.00000299  0.49999655  0.66707534  1
  Al  Al2  1  0.50000042  0.24999967  0.16707957  1
  Al  Al3  1  0.00000307  0.99999556  0.66707162  1
  Sn  Sn0  1  0.50000232  0.24999776  0.49935128  1
  Sn  Sn1  1  0.49999899  0.74999227  0.49935103  1
  Sn  Sn2  1  0.00000003  0.00000264  0.99933632  1
  Sn  Sn3  1  0.99999266  0.50000738  0.99933880  1
  Sb  Sb0  1  0.50000163  0.25000108  0.83318925  1
  Sb  Sb1  1  0.49999909  0.75000282  0.83319209  1
  Sb  Sb2  1  0.99999850  0.00000398  0.33319312  1
  Sb  Sb3  1  0.00000372  0.49999138  0.33319089  1
  O  O0  1  0.20403516  0.39806505  0.17178183  1
  O  O1  1  0.20403597  0.89807207  0.17178896  1
  O  O2  1  0.79596577  0.10193579  0.17178584  1
  O  O3  1  0.79595899  0.60193242  0.17179207  1
  O  O4  1  0.29598979  0.14805606  0.67179071  1
  O  O5  1  0.29598815  0.64805386  0.67179355  1
  O  O6  1  0.70400840  0.35194599  0.67179046  1
  O  O7  1  0.70401419  0.85193971  0.67178898  1
  O  O8  1  0.18580392  0.40717361  0.50456387  1
  O  O9  1  0.18580404  0.90717592  0.50456153  1
  O  O10  1  0.81420646  0.09282503  0.50456504  1
  O  O11  1  0.81420331  0.59281717  0.50456213  1
  O  O12  1  0.31422635  0.15716280  0.00456831  1
  O  O13  1  0.31420728  0.65717487  0.00457250  1
  O  O14  1  0.68578609  0.34283368  0.00456872  1
  O  O15  1  0.68578888  0.84283416  0.00457134  1
  O  O16  1  0.19496824  0.40256825  0.82384100  1
  O  O17  1  0.19497741  0.90256988  0.82383531  1
  O  O18  1  0.80502597  0.09743149  0.82383370  1
  O  O19  1  0.80501832  0.59743183  0.82383669  1
  O  O20  1  0.30498385  0.15258972  0.32383837  1
  O  O21  1  0.30498463  0.65258309  0.32383880  1
  O  O22  1  0.69501396  0.34740950  0.32383764  1
  O  O23  1  0.69500867  0.84741756  0.32384274  1
loop_
_geom_bond_atom_site_label_1
_geom_bond_atom_site_label_2
_geom_bond_distance
_geom_bond_site_symmetry_2
Al0 O23 1.916933 1_555
Al0 O21 1.916963 1_555
Al0 O15 1.918464 1_555
Al0 O13 1.918470 1_555
Al0 O1 1.929045 1_555
Al0 O3 1.929124 1_555
Al1 O16 1.916982 1_555
Al1 O19 1.917025 1_455
Al1 O11 1.918431 1_455
Al1 O8 1.918432 1_555
Al1 O6 1.929066 1_455
Al1 O5 1.929080 1_555
Al2 O22 1.916953 1_555
Al2 O20 1.916965 1_555
Al2 O12 1.918431 1_555
Al2 O14 1.918440 1_555
Al2 O2 1.929059 1_555
Al2 O0 1.929068 1_555
Al3 O17 1.916976 1_555
Al3 O18 1.917016 1_465
Al3 O9 1.918409 1_555
Al3 O10 1.918414 1_465
Al3 O7 1.929082 1_455
Al3 O4 1.929106 1_565
O0 Sb3 1.987885 1_555
O0 Sn3 2.064273 1_454
O1 Sb2 1.987889 1_465
O1 Sn2 2.064278 1_564
O2 Sb2 1.987898 1_555
O2 Sn2 2.064264 1_654
O3 Sb3 1.987907 1_655
O3 Sn3 2.064255 1_554
O4 Sb0 1.987849 1_555
O4 Sn0 2.064181 1_555
O5 Sb1 1.987865 1_555
O5 Sn1 2.064186 1_555
O6 Sb0 1.987840 1_555
O6 Sn0 2.064193 1_555
O7 Sb1 1.987852 1_555
O7 Sn1 2.064201 1_555
O8 Sb3 1.982073 1_555
O8 Sn0 2.047883 1_555
O9 Sb2 1.982091 1_465
O9 Sn1 2.047922 1_555
O10 Sb2 1.982063 1_555
O10 Sn0 2.047881 1_555
O11 Sb3 1.982093 1_655
O11 Sn1 2.047897 1_555
O12 Sb0 1.982148 1_554
O12 Sn2 2.047871 1_554
O13 Sb1 1.982150 1_554
O13 Sn3 2.047881 1_454
O14 Sb0 1.982147 1_554
O14 Sn3 2.047895 1_554
O15 Sb1 1.982151 1_554
O15 Sn2 2.047877 1_664
O16 Sb0 1.989295 1_555
O16 Sn3 2.048771 1_455
O17 Sb1 1.989259 1_555
O17 Sn2 2.048772 1_565
O18 Sb0 1.989284 1_555
O18 Sn2 2.048760 1_655
O19 Sb1 1.989276 1_555
O19 Sn3 2.048739 1_555
O20 Sb2 1.989258 1_455
O20 Sn0 2.048838 1_555
O21 Sb3 1.989281 1_555
O21 Sn1 2.048830 1_555
O22 Sb3 1.989246 1_655
O22 Sn0 2.048845 1_555
O23 Sb2 1.989275 1_565
O23 Sn1 2.048857 1_555
