# generated using pymatgen
data_Lu12Ni4HgRu
_symmetry_space_group_name_H-M   'P 1'
_cell_length_a   8.02586565
_cell_length_b   8.02586696
_cell_length_c   8.02586508
_cell_angle_alpha   110.98193871
_cell_angle_beta   110.39351192
_cell_angle_gamma   107.06523652
_symmetry_Int_Tables_number   1
_chemical_formula_structural   Lu12Ni4HgRu
_chemical_formula_sum   'Lu12 Ni4 Hg1 Ru1'
_cell_volume   397.43868656
_cell_formula_units_Z   1
loop_
 _symmetry_equiv_pos_site_id
 _symmetry_equiv_pos_as_xyz
  1  'x, y, z'
loop_
 _atom_site_type_symbol
 _atom_site_label
 _atom_site_symmetry_multiplicity
 _atom_site_fract_x
 _atom_site_fract_y
 _atom_site_fract_z
 _atom_site_occupancy
  Lu  Lu0  1  0.41942182  0.22942440  0.18999843  1
  Lu  Lu1  1  0.58057818  0.77057560  0.81000157  1
  Lu  Lu2  1  0.03942597  0.22942440  0.81000157  1
  Lu  Lu3  1  0.96057403  0.77057560  0.18999843  1
  Lu  Lu4  1  0.17952883  0.27761027  0.45713810  1
  Lu  Lu5  1  0.82047117  0.72238973  0.54286190  1
  Lu  Lu6  1  0.17952883  0.72238973  0.90191856  1
  Lu  Lu7  1  0.82047117  0.27761027  0.09808144  1
  Lu  Lu8  1  0.32449280  0.62856389  0.30407009  1
  Lu  Lu9  1  0.67550720  0.37143611  0.69592991  1
  Lu  Lu10  1  0.32449280  0.02042271  0.69592991  1
  Lu  Lu11  1  0.67550720  0.97957729  0.30407009  1
  Ni  Ni0  1  0.35247879  0.00000000  0.35247879  1
  Ni  Ni1  1  0.64752121  0.00000000  0.64752121  1
  Ni  Ni2  1  0.11966949  0.61966949  0.50000000  1
  Ni  Ni3  1  0.88033051  0.38033051  0.50000000  1
  Hg  Hg0  1  0.50000000  0.50000000  0.00000000  1
  Ru  Ru0  1  0.00000000  0.00000000  0.00000000  1
loop_
_geom_bond_atom_site_label_1
_geom_bond_atom_site_label_2
_geom_bond_distance
_geom_bond_site_symmetry_2
Lu0 Ni0 2.647063 1_555
Lu0 Ru0 2.796616 1_555
Lu0 Ni3 3.184219 1_555
Lu1 Ni1 2.647063 1_565
Lu1 Ru0 2.796616 1_666
Lu1 Ni2 3.184219 1_555
Lu2 Ni1 2.647064 1_455
Lu2 Ru0 2.796622 1_556
Lu2 Ni3 3.184213 1_455
Lu3 Ni0 2.647064 1_665
Lu3 Ru0 2.796622 1_665
Lu3 Ni2 3.184213 1_655
Lu4 Ni2 2.845854 1_555
Lu4 Ni3 2.845857 1_455
Lu4 Ni0 2.980614 1_555
Lu4 Ru0 3.013083 1_555
Lu5 Ni3 2.845854 1_555
Lu5 Ni2 2.845857 1_655
Lu5 Ni1 2.980614 1_565
Lu5 Ru0 3.013083 1_666
Lu6 Ni2 2.845855 1_555
Lu6 Ni3 2.845855 1_455
Lu6 Ni0 2.980615 1_566
Lu6 Ru0 3.013090 1_566
Lu7 Ni3 2.845855 1_555
Lu7 Ni2 2.845855 1_655
Lu7 Ni1 2.980615 1_554
Lu7 Ru0 3.013090 1_655
Lu8 Ni2 2.644490 1_555
Lu8 Ni0 2.793755 1_565
Lu8 Ni1 2.793759 1_565
Lu9 Ni3 2.644490 1_555
Lu9 Ni1 2.793755 1_555
Lu9 Ni0 2.793759 1_555
Lu10 Ni2 2.644490 1_545
Lu10 Ni0 2.793762 1_555
Lu10 Ni1 2.793762 1_555
Lu11 Ni3 2.644490 1_565
Lu11 Ni1 2.793762 1_565
Lu11 Ni0 2.793762 1_565
Ni2 Ni3 2.283435 1_455
Hg0 Lu3 3.113510 1_555
Hg0 Lu2 3.113510 1_554
Hg0 Lu1 3.113511 1_554
Hg0 Lu0 3.113511 1_555
Hg0 Lu11 3.232642 1_555
Hg0 Lu10 3.232642 1_554
Hg0 Lu8 3.232642 1_555
Hg0 Lu9 3.232642 1_554
Hg0 Lu7 3.565176 1_555
Hg0 Lu6 3.565176 1_554
Hg0 Lu5 3.565182 1_555
Hg0 Lu4 3.565182 1_554
