# generated using pymatgen
data_Y4GaGe5Ir7
_symmetry_space_group_name_H-M   'P 1'
_cell_length_a   7.24579108
_cell_length_b   7.24579211
_cell_length_c   7.24579111
_cell_angle_alpha   109.62778849
_cell_angle_beta   109.62778346
_cell_angle_gamma   109.15854338
_symmetry_Int_Tables_number   1
_chemical_formula_structural   Y4GaGe5Ir7
_chemical_formula_sum   'Y4 Ga1 Ge5 Ir7'
_cell_volume   292.83696188
_cell_formula_units_Z   1
loop_
 _symmetry_equiv_pos_site_id
 _symmetry_equiv_pos_as_xyz
  1  'x, y, z'
loop_
 _atom_site_type_symbol
 _atom_site_label
 _atom_site_symmetry_multiplicity
 _atom_site_fract_x
 _atom_site_fract_y
 _atom_site_fract_z
 _atom_site_occupancy
  Y  Y0  1  0.99929178  0.99929178  0.50592722  1
  Y  Y1  1  0.99929178  0.49336456  0.00000000  1
  Y  Y2  1  0.49336456  0.99929178  0.00000000  1
  Y  Y3  1  0.49336456  0.49336456  0.49407278  1
  Ga  Ga0  1  0.68795773  0.68795773  0.00000000  1
  Ge  Ge0  1  0.31495977  0.99682812  0.31813165  1
  Ge  Ge1  1  0.99682812  0.31495977  0.31813165  1
  Ge  Ge2  1  0.32818765  0.32818765  1.00000000  1
  Ge  Ge3  1  0.67869648  0.99682812  0.68186835  1
  Ge  Ge4  1  0.99682812  0.67869648  0.68186835  1
  Ir  Ir0  1  0.74807452  0.24807452  0.50000000  1
  Ir  Ir1  1  0.75246351  0.50136369  0.25109982  1
  Ir  Ir2  1  0.50136369  0.25026387  0.74890018  1
  Ir  Ir3  1  0.25026387  0.50136369  0.74890018  1
  Ir  Ir4  1  0.24807452  0.74807452  0.50000000  1
  Ir  Ir5  1  0.50136369  0.75246351  0.25109982  1
  Ir  Ir6  1  0.00962364  0.00962364  0.00000000  1
loop_
_geom_bond_atom_site_label_1
_geom_bond_atom_site_label_2
_geom_bond_distance
_geom_bond_site_symmetry_2
Ga0 Ir5 2.617779 1_555
Ga0 Ir3 2.617779 1_554
Ga0 Ir1 2.617779 1_555
Ga0 Ir2 2.617779 1_554
Ga0 Ir6 2.701664 1_665
Ga0 Y3 3.027322 1_554
Ga0 Y0 3.027322 1_555
Ga0 Y1 3.027322 1_555
Ga0 Y2 3.027322 1_555
Ge0 Ir2 2.574464 1_565
Ge0 Ir5 2.574464 1_555
Ge0 Ir4 2.582929 1_555
Ge0 Ir0 2.599893 1_565
Ge0 Ir6 2.658746 1_565
Ge0 Y2 2.999879 1_555
Ge0 Y3 2.999880 1_565
Ge0 Y0 3.030657 1_455
Ge0 Y1 3.030657 1_455
Ge1 Ir3 2.574464 1_655
Ge1 Ir1 2.574464 1_555
Ge1 Ir0 2.582928 1_555
Ge1 Ir4 2.599893 1_655
Ge1 Ir6 2.658746 1_655
Ge1 Y3 2.999879 1_655
Ge1 Y1 2.999879 1_555
Ge1 Y2 3.030657 1_545
Ge1 Y0 3.030657 1_545
Ge2 Ir2 2.551907 1_555
Ge2 Ir1 2.551907 1_556
Ge2 Ir3 2.551907 1_555
Ge2 Ir5 2.551907 1_556
Ge2 Ir6 2.675611 1_556
Ge2 Y3 2.997286 1_556
Ge2 Y0 2.997286 1_445
Ge2 Y1 2.997286 1_456
Ge2 Y2 2.997286 1_546
Ge3 Ir5 2.574464 1_555
Ge3 Ir2 2.574464 1_565
Ge3 Ir4 2.582928 1_555
Ge3 Ir0 2.599893 1_565
Ge3 Ir6 2.658746 1_666
Ge3 Y0 2.999879 1_555
Ge3 Y1 2.999879 1_566
Ge3 Y2 3.030657 1_556
Ge3 Y3 3.030657 1_555
Ge4 Ir1 2.574464 1_555
Ge4 Ir3 2.574464 1_655
Ge4 Ir0 2.582929 1_555
Ge4 Ir4 2.599893 1_655
Ge4 Ir6 2.658746 1_666
Ge4 Y2 2.999879 1_656
Ge4 Y0 2.999880 1_555
Ge4 Y3 3.030657 1_555
Ge4 Y1 3.030657 1_556
Ir0 Y1 2.952607 1_556
Ir0 Y2 2.952607 1_545
Ir0 Y3 2.952607 1_555
Ir0 Y0 2.952607 1_545
Ir1 Y1 2.948815 1_555
Ir1 Y0 2.948815 1_555
Ir1 Y3 2.974051 1_555
Ir1 Y2 2.974052 1_545
Ir2 Y1 2.948815 1_556
Ir2 Y3 2.948815 1_555
Ir2 Y0 2.974051 1_445
Ir2 Y2 2.974052 1_546
Ir3 Y3 2.948815 1_555
Ir3 Y2 2.948815 1_556
Ir3 Y1 2.974051 1_456
Ir3 Y0 2.974052 1_445
Ir4 Y2 2.952607 1_556
Ir4 Y1 2.952607 1_455
Ir4 Y0 2.952607 1_455
Ir4 Y3 2.952607 1_555
Ir5 Y0 2.948815 1_555
Ir5 Y2 2.948815 1_555
Ir5 Y1 2.974051 1_455
Ir5 Y3 2.974052 1_555
