# generated using pymatgen
data_Nb4Te8H3
_symmetry_space_group_name_H-M   'P 1'
_cell_length_a   3.63799253
_cell_length_b   3.63799396
_cell_length_c   30.13772543
_cell_angle_alpha   90.00000000
_cell_angle_beta   90.00000000
_cell_angle_gamma   119.99999626
_symmetry_Int_Tables_number   1
_chemical_formula_structural   Nb4Te8H3
_chemical_formula_sum   'Nb4 Te8 H3'
_cell_volume   345.43385255
_cell_formula_units_Z   1
loop_
 _symmetry_equiv_pos_site_id
 _symmetry_equiv_pos_as_xyz
  1  'x, y, z'
loop_
 _atom_site_type_symbol
 _atom_site_label
 _atom_site_symmetry_multiplicity
 _atom_site_fract_x
 _atom_site_fract_y
 _atom_site_fract_z
 _atom_site_occupancy
  Nb  Nb0  1  0.66666700  0.33333300  0.00000000  1
  Nb  Nb1  1  0.66666700  0.33333300  0.50000000  1
  Nb  Nb2  1  0.33333300  0.66666700  0.24931124  1
  Nb  Nb3  1  0.33333300  0.66666700  0.75068876  1
  Te  Te0  1  0.66666700  0.33333300  0.31342773  1
  Te  Te1  1  0.66666700  0.33333300  0.81480844  1
  Te  Te2  1  0.33333300  0.66666700  0.93822443  1
  Te  Te3  1  0.33333300  0.66666700  0.43590509  1
  Te  Te4  1  0.33333300  0.66666700  0.06177557  1
  Te  Te5  1  0.33333300  0.66666700  0.56409491  1
  Te  Te6  1  0.66666700  0.33333300  0.18519156  1
  Te  Te7  1  0.66666700  0.33333300  0.68657227  1
  H  H0  1  0.00000000  0.00000000  0.50000000  1
  H  H1  1  0.00000000  0.00000000  0.24944822  1
  H  H2  1  0.00000000  0.00000000  0.75055178  1
loop_
_geom_bond_atom_site_label_1
_geom_bond_atom_site_label_2
_geom_bond_distance
_geom_bond_site_symmetry_2
Nb0 Te4 2.806753 1_655
Nb0 Te2 2.806753 1_654
Nb0 Te4 2.806753 1_545
Nb0 Te2 2.806753 1_544
Nb0 Te4 2.806758 1_555
Nb0 Te2 2.806758 1_554
Nb1 Te5 2.853598 1_655
Nb1 Te3 2.853598 1_655
Nb1 Te5 2.853599 1_545
Nb1 Te3 2.853599 1_545
Nb1 Te5 2.853603 1_555
Nb1 Te3 2.853603 1_555
Nb2 Te0 2.854038 1_455
Nb2 Te0 2.854039 1_565
Nb2 Te0 2.854043 1_555
Nb2 Te6 2.854104 1_455
Nb2 Te6 2.854104 1_565
Nb2 Te6 2.854108 1_555
Nb3 Te7 2.854038 1_455
Nb3 Te7 2.854039 1_565
Nb3 Te7 2.854043 1_555
Nb3 Te1 2.854104 1_455
Nb3 Te1 2.854104 1_565
Nb3 Te1 2.854108 1_555
H0 Nb1 2.100394 1_455
H0 Nb1 2.100397 1_555
H0 Nb1 2.100398 1_445
H1 Nb2 2.100398 1_545
H1 Nb2 2.100401 1_445
H1 Nb2 2.100402 1_555
H2 Nb3 2.100398 1_545
H2 Nb3 2.100401 1_445
H2 Nb3 2.100402 1_555
