# generated using pymatgen
data_Rb6InBiSb2
_symmetry_space_group_name_H-M   'P 1'
_cell_length_a   6.35056190
_cell_length_b   11.02548354
_cell_length_c   12.76079430
_cell_angle_alpha   78.95165480
_cell_angle_beta   90.00000000
_cell_angle_gamma   90.00000000
_symmetry_Int_Tables_number   1
_chemical_formula_structural   Rb6InBiSb2
_chemical_formula_sum   'Rb12 In2 Bi2 Sb4'
_cell_volume   876.92548548
_cell_formula_units_Z   2
loop_
 _symmetry_equiv_pos_site_id
 _symmetry_equiv_pos_as_xyz
  1  'x, y, z'
loop_
 _atom_site_type_symbol
 _atom_site_label
 _atom_site_symmetry_multiplicity
 _atom_site_fract_x
 _atom_site_fract_y
 _atom_site_fract_z
 _atom_site_occupancy
  Rb  Rb0  1  0.75000000  0.46298225  0.07693858  1
  Rb  Rb1  1  0.25000000  0.53701775  0.92306142  1
  Rb  Rb2  1  0.75000000  0.74412581  0.22227254  1
  Rb  Rb3  1  0.25000000  0.25587419  0.77772746  1
  Rb  Rb4  1  0.25000000  0.56253827  0.53190737  1
  Rb  Rb5  1  0.75000000  0.43746173  0.46809263  1
  Rb  Rb6  1  0.25000000  0.86312486  0.02348192  1
  Rb  Rb7  1  0.75000000  0.13687514  0.97651808  1
  Rb  Rb8  1  0.25000000  0.87861731  0.67416743  1
  Rb  Rb9  1  0.75000000  0.12138269  0.32583257  1
  Rb  Rb10  1  0.25000000  0.91822222  0.37022764  1
  Rb  Rb11  1  0.75000000  0.08177778  0.62977236  1
  In  In0  1  0.25000000  0.32389616  0.28241885  1
  In  In1  1  0.75000000  0.67610384  0.71758115  1
  Bi  Bi0  1  0.25000000  0.17016067  0.12003749  1
  Bi  Bi1  1  0.75000000  0.82983933  0.87996251  1
  Sb  Sb0  1  0.25000000  0.21095920  0.49771288  1
  Sb  Sb1  1  0.75000000  0.78904080  0.50228712  1
  Sb  Sb2  1  0.25000000  0.57802410  0.22200941  1
  Sb  Sb3  1  0.75000000  0.42197590  0.77799059  1
loop_
_geom_bond_atom_site_label_1
_geom_bond_atom_site_label_2
_geom_bond_distance
_geom_bond_site_symmetry_2
Rb0 Sb3 3.926609 1_554
Rb0 Sb2 4.002274 1_655
Rb0 Sb2 4.002274 1_555
Rb1 Sb2 3.926609 1_556
Rb1 Sb3 4.002274 1_555
Rb1 Sb3 4.002274 1_455
Rb2 Sb2 3.665873 1_655
Rb2 Sb2 3.665873 1_555
Rb2 Sb1 3.700169 1_555
Rb3 Sb3 3.665873 1_455
Rb3 Sb3 3.665873 1_555
Rb3 Sb0 3.700169 1_555
Rb4 Sb2 3.925403 1_555
Rb4 Sb0 3.983040 1_555
Rb4 Sb1 4.012481 1_455
Rb4 Sb1 4.012481 1_555
Rb5 Sb3 3.925403 1_555
Rb5 Sb1 3.983040 1_555
Rb5 Sb0 4.012481 1_555
Rb5 Sb0 4.012481 1_655
Rb6 Sb2 3.639590 1_555
Rb7 Sb3 3.639590 1_555
Rb8 Sb0 3.915921 1_565
Rb8 Sb1 4.086410 1_455
Rb8 Sb1 4.086410 1_555
Rb9 Sb1 3.915921 1_545
Rb9 Sb0 4.086410 1_555
Rb9 Sb0 4.086410 1_655
Rb10 Sb1 3.745787 1_455
Rb10 Sb1 3.745787 1_555
Rb10 Sb0 3.882801 1_565
Rb11 Sb0 3.745787 1_555
Rb11 Sb0 3.745787 1_655
Rb11 Sb1 3.882801 1_545
In0 Sb2 2.759885 1_555
In0 Sb0 2.790540 1_555
In0 Rb9 3.860137 1_455
In0 Rb9 3.860137 1_555
In1 Sb3 2.759885 1_555
In1 Sb1 2.790540 1_555
In1 Rb8 3.860137 1_555
In1 Rb8 3.860137 1_655
Bi0 In0 2.917682 1_555
Bi0 Rb7 3.718709 1_554
Bi0 Rb7 3.718709 1_454
Bi0 Rb10 3.809163 1_545
Bi0 Rb6 3.817916 1_545
Bi0 Rb9 4.089838 1_455
Bi0 Rb9 4.089838 1_555
Bi0 Rb3 4.288546 1_554
Bi0 Rb1 4.333771 1_554
Bi1 In1 2.917682 1_555
Bi1 Rb6 3.718709 1_556
Bi1 Rb6 3.718709 1_656
Bi1 Rb11 3.809163 1_565
Bi1 Rb7 3.817916 1_565
Bi1 Rb8 4.089838 1_555
Bi1 Rb8 4.089838 1_655
Bi1 Rb2 4.288546 1_556
Bi1 Rb0 4.333771 1_556
