# generated using pymatgen
data_MnNb2MoS6
_symmetry_space_group_name_H-M   'P 1'
_cell_length_a   5.75041745
_cell_length_b   5.75041795
_cell_length_c   12.79353235
_cell_angle_alpha   90.00000000
_cell_angle_beta   90.00000000
_cell_angle_gamma   120.00000286
_symmetry_Int_Tables_number   1
_chemical_formula_structural   MnNb2MoS6
_chemical_formula_sum   'Mn2 Nb4 Mo2 S12'
_cell_volume   366.36997520
_cell_formula_units_Z   2
loop_
 _symmetry_equiv_pos_site_id
 _symmetry_equiv_pos_as_xyz
  1  'x, y, z'
loop_
 _atom_site_type_symbol
 _atom_site_label
 _atom_site_symmetry_multiplicity
 _atom_site_fract_x
 _atom_site_fract_y
 _atom_site_fract_z
 _atom_site_occupancy
  Mn  Mn0  1  0.66666700  0.33333300  0.74769069  1
  Mn  Mn1  1  0.33333300  0.66666700  0.24769069  1
  Nb  Nb0  1  0.66666700  0.33333300  0.49930131  1
  Nb  Nb1  1  0.33333300  0.66666700  0.99930131  1
  Nb  Nb2  1  0.00000000  0.00000000  0.49994493  1
  Nb  Nb3  1  0.00000000  0.00000000  0.99994493  1
  Mo  Mo0  1  0.33333300  0.66666700  0.50138638  1
  Mo  Mo1  1  0.66666700  0.33333300  0.00138638  1
  S  S0  1  0.33842424  0.32960936  0.12243440  1
  S  S1  1  0.67039064  0.00881488  0.12243440  1
  S  S2  1  0.99118512  0.66157576  0.12243440  1
  S  S3  1  0.00881488  0.33842424  0.62243440  1
  S  S4  1  0.66726873  0.00467359  0.87812450  1
  S  S5  1  0.66157576  0.67039064  0.62243440  1
  S  S6  1  0.32960936  0.99118512  0.62243440  1
  S  S7  1  0.66259613  0.66726873  0.37812450  1
  S  S8  1  0.33273127  0.99532641  0.37812450  1
  S  S9  1  0.33740387  0.33273127  0.87812450  1
  S  S10  1  0.99532641  0.66259613  0.87812450  1
  S  S11  1  0.00467359  0.33740387  0.37812450  1
loop_
_geom_bond_atom_site_label_1
_geom_bond_atom_site_label_2
_geom_bond_distance
_geom_bond_site_symmetry_2
Mn0 S4 2.522493 1_555
Mn0 S10 2.522498 1_555
Mn0 S9 2.522502 1_555
Mn0 S3 2.526301 1_655
Mn0 S6 2.526303 1_545
Mn0 S5 2.526305 1_555
Mn1 S8 2.522493 1_555
Mn1 S11 2.522498 1_555
Mn1 S7 2.522502 1_555
Mn1 S2 2.526301 1_455
Mn1 S1 2.526303 1_565
Mn1 S0 2.526305 1_555
Nb0 S11 2.477156 1_655
Nb0 S8 2.477156 1_545
Nb0 S7 2.477156 1_555
Nb0 S3 2.509159 1_655
Nb0 S6 2.509161 1_545
Nb0 S5 2.509163 1_555
Nb1 S10 2.477156 1_455
Nb1 S4 2.477156 1_565
Nb1 S9 2.477156 1_555
Nb1 S2 2.509159 1_456
Nb1 S1 2.509161 1_566
Nb1 S0 2.509163 1_556
Nb2 S11 2.478300 1_555
Nb2 S7 2.478302 1_445
Nb2 S8 2.478304 1_545
Nb2 S5 2.479288 1_445
Nb2 S6 2.479288 1_545
Nb2 S3 2.479289 1_555
Nb3 S10 2.478300 1_445
Nb3 S9 2.478302 1_555
Nb3 S4 2.478304 1_455
Nb3 S0 2.479288 1_556
Nb3 S1 2.479288 1_456
Nb3 S2 2.479289 1_446
Mo0 S6 2.433323 1_555
Mo0 S3 2.433325 1_555
Mo0 S5 2.433327 1_555
Mo0 S8 2.462756 1_555
Mo0 S11 2.462761 1_555
Mo0 S7 2.462765 1_555
Mo1 S1 2.433323 1_555
Mo1 S2 2.433325 1_555
Mo1 S0 2.433327 1_555
Mo1 S4 2.462756 1_554
Mo1 S10 2.462761 1_554
Mo1 S9 2.462765 1_554
