# generated using pymatgen
data_Na2W4O13
_symmetry_space_group_name_H-M   'P 1'
_cell_length_a   3.85188954
_cell_length_b   8.53469624
_cell_length_c   8.69695654
_cell_angle_alpha   96.31728406
_cell_angle_beta   102.71161975
_cell_angle_gamma   89.95253344
_symmetry_Int_Tables_number   1
_chemical_formula_structural   Na2W4O13
_chemical_formula_sum   'Na2 W4 O13'
_cell_volume   277.12804788
_cell_formula_units_Z   1
loop_
 _symmetry_equiv_pos_site_id
 _symmetry_equiv_pos_as_xyz
  1  'x, y, z'
loop_
 _atom_site_type_symbol
 _atom_site_label
 _atom_site_symmetry_multiplicity
 _atom_site_fract_x
 _atom_site_fract_y
 _atom_site_fract_z
 _atom_site_occupancy
  Na  Na0  1  0.71025400  0.69435000  0.42301000  1
  Na  Na1  1  0.28974700  0.30565100  0.57699000  1
  W  W0  1  0.92394200  0.63155200  0.82829600  1
  W  W1  1  0.07605900  0.36844800  0.17170400  1
  W  W2  1  0.89207500  0.02013100  0.80637300  1
  W  W3  1  0.10792600  0.97986900  0.19362700  1
  O  O0  1  0.99895500  0.84597200  0.99404900  1
  O  O1  1  0.59694300  0.99237700  0.18420200  1
  O  O2  1  0.42760300  0.64371100  0.84586200  1
  O  O3  1  0.57239800  0.35628900  0.15413900  1
  O  O4  1  0.00000000  0.50000000  0.00000000  1
  O  O5  1  0.83585900  0.48645400  0.65933200  1
  O  O6  1  0.16414200  0.51354500  0.34066800  1
  O  O7  1  0.82443600  0.14927500  0.65602900  1
  O  O8  1  0.15362100  0.19333500  0.30775300  1
  O  O9  1  0.40305800  0.00762300  0.81579800  1
  O  O10  1  0.00104600  0.15402800  0.00595100  1
  O  O11  1  0.17556200  0.85072500  0.34397100  1
  O  O12  1  0.84638000  0.80666400  0.69224700  1
loop_
_geom_bond_atom_site_label_1
_geom_bond_atom_site_label_2
_geom_bond_distance
_geom_bond_site_symmetry_2
Na0 O12 2.375534 1_555
Na0 O11 2.463705 1_555
Na0 O11 2.492822 1_655
Na0 O6 2.500805 1_655
Na0 O6 2.533427 1_555
Na0 O5 2.823120 1_555
Na1 O8 2.375539 1_555
Na1 O7 2.463701 1_555
Na1 O7 2.492836 1_455
Na1 O5 2.500795 1_455
Na1 O5 2.533417 1_555
Na1 O6 2.823107 1_555
O0 W3 1.933517 1_656
O0 W0 2.178876 1_555
O0 W2 2.297855 1_565
O1 W3 1.906940 1_555
O1 W3 1.955172 1_655
O2 W0 1.914236 1_455
O2 W0 1.952939 1_555
O3 W1 1.914237 1_655
O3 W1 1.952937 1_555
O4 W1 1.937074 1_555
O4 W0 1.937074 1_454
O5 W0 1.785730 1_555
O6 W1 1.785725 1_555
O7 W2 1.777398 1_555
O8 W3 1.964951 1_545
O8 W1 1.988903 1_555
O9 W2 1.906940 1_555
O9 W2 1.955172 1_455
O10 W2 1.933517 1_454
O10 W1 2.178876 1_555
O10 W3 2.297855 1_545
O11 W3 1.777398 1_555
O12 W2 1.964959 1_565
O12 W0 1.988896 1_555
