# generated using pymatgen
data_MnBe7Al3Cu
_symmetry_space_group_name_H-M   'P 1'
_cell_length_a   4.35993514
_cell_length_b   4.35993472
_cell_length_c   7.23658282
_cell_angle_alpha   90.00000000
_cell_angle_beta   90.00000000
_cell_angle_gamma   120.00001058
_symmetry_Int_Tables_number   1
_chemical_formula_structural   MnBe7Al3Cu
_chemical_formula_sum   'Mn1 Be7 Al3 Cu1'
_cell_volume   119.13082182
_cell_formula_units_Z   1
loop_
 _symmetry_equiv_pos_site_id
 _symmetry_equiv_pos_as_xyz
  1  'x, y, z'
loop_
 _atom_site_type_symbol
 _atom_site_label
 _atom_site_symmetry_multiplicity
 _atom_site_fract_x
 _atom_site_fract_y
 _atom_site_fract_z
 _atom_site_occupancy
  Mn  Mn0  1  0.33333300  0.66666700  0.44802907  1
  Be  Be0  1  0.00000000  0.00000000  0.49554161  1
  Be  Be1  1  0.83415851  0.66831702  0.26190436  1
  Be  Be2  1  0.16921681  0.83078319  0.73409543  1
  Be  Be3  1  0.66156639  0.83078319  0.73409543  1
  Be  Be4  1  0.33168298  0.16584149  0.26190436  1
  Be  Be5  1  0.83415851  0.16584149  0.26190436  1
  Be  Be6  1  0.16921681  0.33843361  0.73409543  1
  Al  Al0  1  0.33333300  0.66666700  0.09257863  1
  Al  Al1  1  0.66666700  0.33333300  0.54455694  1
  Al  Al2  1  0.66666700  0.33333300  0.93832692  1
  Cu  Cu0  1  0.00000000  0.00000000  0.99296744  1
loop_
_geom_bond_atom_site_label_1
_geom_bond_atom_site_label_2
_geom_bond_distance
_geom_bond_site_symmetry_2
Be0 Be1 2.104050 1_445
Be0 Be4 2.104050 1_555
Be0 Be5 2.104050 1_455
Be0 Be6 2.147811 1_555
Be0 Be3 2.147811 1_445
Be0 Be2 2.147812 1_545
Be0 Mn0 2.540581 1_545
Be0 Mn0 2.540584 1_555
Be0 Mn0 2.540584 1_445
Be1 Be4 2.169174 1_665
Be1 Be5 2.169174 1_565
Be1 Be4 2.190760 1_555
Be1 Be5 2.190760 1_555
Be1 Cu0 2.314319 1_664
Be1 Mn0 2.562508 1_655
Be1 Mn0 2.562511 1_555
Be2 Be6 2.146612 1_555
Be2 Be3 2.146612 1_555
Be2 Be6 2.213323 1_565
Be2 Be3 2.213323 1_455
Be2 Cu0 2.267679 1_565
Be2 Mn0 2.412772 1_555
Be3 Be6 2.146612 1_555
Be3 Be6 2.213322 1_665
Be3 Cu0 2.267679 1_665
Be3 Mn0 2.412773 1_555
Be4 Be5 2.169174 1_455
Be4 Be5 2.190761 1_555
Be4 Cu0 2.314319 1_554
Be4 Mn0 2.562508 1_545
Be4 Mn0 2.562511 1_555
Be5 Cu0 2.314319 1_654
Be5 Mn0 2.562509 1_655
Be5 Mn0 2.562509 1_545
Be6 Cu0 2.267679 1_555
Be6 Mn0 2.412773 1_555
Al0 Be4 2.500749 1_565
Al0 Be1 2.500749 1_455
Al0 Be5 2.500750 1_455
Al0 Be5 2.500750 1_565
Al0 Be4 2.500753 1_555
Al0 Be1 2.500753 1_555
Al0 Mn0 2.572247 1_555
Al0 Cu0 2.618387 1_564
Al0 Cu0 2.618390 1_554
Al0 Cu0 2.618390 1_664
Al0 Al2 2.753608 1_564
Al0 Al2 2.753608 1_454
Al0 Al2 2.753615 1_554
Al1 Be5 2.404917 1_555
Al1 Be1 2.404919 1_555
Al1 Be4 2.404919 1_555
Al1 Be0 2.542075 1_655
Al1 Be0 2.542079 1_665
Al1 Be0 2.542079 1_555
Al1 Be3 2.575643 1_545
Al1 Be6 2.575643 1_655
Al1 Be2 2.575644 1_545
Al1 Be2 2.575644 1_655
Al1 Be3 2.575646 1_555
Al1 Be6 2.575647 1_555
Al1 Mn0 2.612332 1_545
Al1 Mn0 2.612332 1_655
Al1 Mn0 2.612339 1_555
Al1 Al2 2.849549 1_555
Al2 Cu0 2.548074 1_655
Al2 Cu0 2.548077 1_665
Al2 Cu0 2.548078 1_555
Al2 Be3 2.633803 1_545
Al2 Be6 2.633804 1_655
Al2 Be2 2.633805 1_545
Al2 Be2 2.633805 1_655
Al2 Be3 2.633807 1_555
Al2 Be6 2.633807 1_555
Al2 Be5 2.661366 1_556
Al2 Be1 2.661368 1_556
Al2 Be4 2.661368 1_556
