# generated using pymatgen
data_NdPS4
_symmetry_space_group_name_H-M   'P 1'
_cell_length_a   12.42035647
_cell_length_b   12.42035647
_cell_length_c   12.42035647
_cell_angle_alpha   127.68210927
_cell_angle_beta   127.68210927
_cell_angle_gamma   77.14056723
_symmetry_Int_Tables_number   1
_chemical_formula_structural   NdPS4
_chemical_formula_sum   'Nd8 P8 S32'
_cell_volume   1164.63327765
_cell_formula_units_Z   8
loop_
 _symmetry_equiv_pos_site_id
 _symmetry_equiv_pos_as_xyz
  1  'x, y, z'
loop_
 _atom_site_type_symbol
 _atom_site_label
 _atom_site_symmetry_multiplicity
 _atom_site_fract_x
 _atom_site_fract_y
 _atom_site_fract_z
 _atom_site_occupancy
  Nd  Nd0  1  0.50000000  0.50000000  -0.00000000  1
  Nd  Nd1  1  0.25000000  0.75000000  0.50000000  1
  Nd  Nd2  1  0.75000000  0.25000000  0.50000000  1
  Nd  Nd3  1  -0.00000000  -0.00000000  -0.00000000  1
  Nd  Nd4  1  0.25000000  0.25000000  -0.00000000  1
  Nd  Nd5  1  -0.00000000  0.50000000  0.50000000  1
  Nd  Nd6  1  0.50000000  -0.00000000  0.50000000  1
  Nd  Nd7  1  0.75000000  0.75000000  -0.00000000  1
  P  P0  1  0.62500000  0.91287854  0.78787854  1
  P  P1  1  0.62500000  0.41287854  0.28787854  1
  P  P2  1  0.16287854  0.37500000  0.28787854  1
  P  P3  1  0.08712146  0.87500000  0.71212146  1
  P  P4  1  0.12500000  0.33712146  0.71212146  1
  P  P5  1  0.12500000  0.83712146  0.21212146  1
  P  P6  1  0.58712146  0.87500000  0.21212146  1
  P  P7  1  0.66287854  0.37500000  0.78787854  1
  S  S0  1  0.98601737  0.71595745  0.45577573  1
  S  S1  1  0.26018171  0.53024164  0.54422427  1
  S  S2  1  0.28024164  0.23601737  0.77005992  1
  S  S3  1  0.46595745  0.51018171  0.22994008  1
  S  S4  1  0.98981829  0.03404255  0.77005992  1
  S  S5  1  0.26398263  0.21975836  0.22994008  1
  S  S6  1  0.78404255  0.51398263  0.54422427  1
  S  S7  1  0.96975836  0.23981829  0.45577573  1
  S  S8  1  0.77815602  0.96353710  0.31856836  1
  S  S9  1  0.71353710  0.89496874  0.68538108  1
  S  S10  1  0.20958766  0.02815602  0.31461892  1
  S  S11  1  0.47184398  0.29041234  0.68538108  1
  S  S12  1  0.60503126  0.78646290  0.31461892  1
  S  S13  1  0.04041234  0.85503126  0.31856836  1
  S  S14  1  0.53646290  0.72184398  0.68143164  1
  S  S15  1  0.64496874  0.45958766  0.68143164  1
  S  S16  1  0.97184398  0.28646290  0.18143164  1
  S  S17  1  0.03646290  0.35503126  0.81461892  1
  S  S18  1  0.54041234  0.22184398  0.18538108  1
  S  S19  1  0.27815602  0.95958766  0.81461892  1
  S  S20  1  0.14496874  0.46353710  0.18538108  1
  S  S21  1  0.70958766  0.39496874  0.18143164  1
  S  S22  1  0.21353710  0.52815602  0.81856836  1
  S  S23  1  0.10503126  0.79041234  0.81856836  1
  S  S24  1  0.48981829  0.71975836  0.95577573  1
  S  S25  1  0.46975836  0.01398263  0.72994008  1
  S  S26  1  0.28404255  0.73981829  0.27005992  1
  S  S27  1  0.76018171  0.21595745  0.72994008  1
  S  S28  1  0.48601737  0.03024164  0.27005992  1
  S  S29  1  0.96595745  0.73601737  0.95577573  1
  S  S30  1  0.78024164  0.01018171  0.04422427  1
  S  S31  1  0.76398263  0.53404255  0.04422427  1
loop_
_geom_bond_atom_site_label_1
_geom_bond_atom_site_label_2
_geom_bond_distance
_geom_bond_site_symmetry_2
Nd0 S12 2.909803 1_555
Nd0 S11 2.909803 1_554
Nd0 S21 2.909803 1_555
Nd0 S22 2.909803 1_554
Nd0 S2 3.059756 1_554
Nd0 S31 3.059756 1_555
Nd0 S24 3.059756 1_554
Nd0 S3 3.059756 1_555
Nd1 S14 2.909803 1_555
Nd1 S20 2.909803 1_555
Nd1 S19 2.909803 1_555
Nd1 S13 2.909803 1_555
Nd1 S0 3.059756 1_455
Nd1 S25 3.059756 1_565
Nd1 S1 3.059756 1_555
Nd1 S26 3.059756 1_555
Nd2 S17 2.909803 1_655
Nd2 S15 2.909803 1_555
Nd2 S18 2.909803 1_555
Nd2 S8 2.909803 1_545
Nd2 S6 3.059756 1_555
Nd2 S28 3.059756 1_555
Nd2 S7 3.059756 1_555
Nd2 S27 3.059756 1_555
Nd3 S16 2.909803 1_455
Nd3 S23 2.909803 1_544
Nd3 S10 2.909803 1_555
Nd3 S9 2.909803 1_444
Nd3 S29 3.059756 1_444
Nd3 S5 3.059756 1_555
Nd3 S30 3.059756 1_455
Nd3 S4 3.059756 1_454
Nd4 S19 2.950218 1_544
Nd4 S20 2.950218 1_555
Nd4 S17 2.950218 1_554
Nd4 S18 2.950218 1_555
Nd4 S3 3.000614 1_555
Nd4 S4 3.000614 1_454
Nd4 S2 3.000614 1_554
Nd4 S5 3.000614 1_555
Nd5 S22 2.950218 1_555
Nd5 S21 2.950218 1_455
Nd5 S23 2.950218 1_555
Nd5 S16 2.950218 1_455
Nd5 S1 3.000614 1_555
Nd5 S7 3.000614 1_455
Nd5 S0 3.000614 1_455
Nd5 S6 3.000614 1_455
Nd6 S9 2.950218 1_545
Nd6 S12 2.950218 1_545
Nd6 S11 2.950218 1_555
Nd6 S10 2.950218 1_555
Nd6 S26 3.000614 1_545
Nd6 S27 3.000614 1_555
Nd6 S25 3.000614 1_555
Nd6 S28 3.000614 1_555
Nd7 S8 2.950218 1_555
Nd7 S13 2.950218 1_655
Nd7 S15 2.950218 1_554
Nd7 S14 2.950218 1_554
Nd7 S30 3.000614 1_565
Nd7 S24 3.000614 1_554
Nd7 S29 3.000614 1_554
Nd7 S31 3.000614 1_555
P0 S9 2.033670 1_555
P0 S14 2.033670 1_555
P0 S25 2.035489 1_565
P0 S30 2.035489 1_566
P1 S18 2.033670 1_555
P1 S21 2.033670 1_555
P1 S3 2.035488 1_555
P1 S6 2.035489 1_555
P2 S20 2.033670 1_555
P2 S16 2.033670 1_455
P2 S5 2.035489 1_555
P2 S1 2.035489 1_555
P3 S23 2.033670 1_555
P3 S19 2.033670 1_555
P3 S4 2.035488 1_465
P3 S0 2.035489 1_455
P4 S22 2.033670 1_555
P4 S17 2.033670 1_555
P4 S2 2.035489 1_555
P4 S7 2.035489 1_455
P5 S13 2.033670 1_555
P5 S10 2.033670 1_565
P5 S26 2.035488 1_555
P5 S29 2.035489 1_454
P6 S8 2.033670 1_555
P6 S12 2.033670 1_555
P6 S28 2.035489 1_565
P6 S24 2.035489 1_554
P7 S11 2.033670 1_555
P7 S15 2.033670 1_555
P7 S27 2.035488 1_555
P7 S31 2.035489 1_556
