# generated using pymatgen
data_Rb2Y7BBr18
_symmetry_space_group_name_H-M   'P 1'
_cell_length_a   10.45542026
_cell_length_b   10.45541934
_cell_length_c   11.36623309
_cell_angle_alpha   117.38281100
_cell_angle_beta   62.61719040
_cell_angle_gamma   120.00000322
_symmetry_Int_Tables_number   1
_chemical_formula_structural   Rb2Y7BBr18
_chemical_formula_sum   'Rb2 Y7 B1 Br18'
_cell_volume   911.75201064
_cell_formula_units_Z   1
loop_
 _symmetry_equiv_pos_site_id
 _symmetry_equiv_pos_as_xyz
  1  'x, y, z'
loop_
 _atom_site_type_symbol
 _atom_site_label
 _atom_site_symmetry_multiplicity
 _atom_site_fract_x
 _atom_site_fract_y
 _atom_site_fract_z
 _atom_site_occupancy
  Rb  Rb0  1  0.22151352  0.77848648  0.33546244  1
  Rb  Rb1  1  0.77848748  0.22151252  0.66453756  1
  Y  Y0  1  0.77141944  0.10834617  0.15876940  1
  Y  Y1  1  0.89165283  0.82184266  0.15876940  1
  Y  Y2  1  0.17815834  0.22858056  0.15876940  1
  Y  Y3  1  0.50000000  0.50000000  0.50000000  1
  Y  Y4  1  0.82184266  0.77142044  0.84123060  1
  Y  Y5  1  0.10834617  0.17815634  0.84123060  1
  Y  Y6  1  0.22857956  0.89165183  0.84123060  1
  B  B0  1  0.00000000  0.00000000  0.00000000  1
  Br  Br0  1  0.28548449  0.43342462  0.00948738  1
  Br  Br1  1  0.56657338  0.86154825  0.00948738  1
  Br  Br2  1  0.13845275  0.71451651  0.00948738  1
  Br  Br3  1  0.94244622  0.35256168  0.34051019  1
  Br  Br4  1  0.06960527  0.05755378  0.34051019  1
  Br  Br5  1  0.64743732  0.93039473  0.34051019  1
  Br  Br6  1  0.50555429  0.20335495  0.33363178  1
  Br  Br7  1  0.79664405  0.63583213  0.33363178  1
  Br  Br8  1  0.36416787  0.49444471  0.33363178  1
  Br  Br9  1  0.63583213  0.50555529  0.66636822  1
  Br  Br10  1  0.20335695  0.36416987  0.66636822  1
  Br  Br11  1  0.49444471  0.79664405  0.66636822  1
  Br  Br12  1  0.35256168  0.06960427  0.65948881  1
  Br  Br13  1  0.93039573  0.94244522  0.65948881  1
  Br  Br14  1  0.05755378  0.64743732  0.65948881  1
  Br  Br15  1  0.86154925  0.28548449  0.99051262  1
  Br  Br16  1  0.43342462  0.13845075  0.99051262  1
  Br  Br17  1  0.71451551  0.56657538  0.99051262  1
loop_
_geom_bond_atom_site_label_1
_geom_bond_atom_site_label_2
_geom_bond_distance
_geom_bond_site_symmetry_2
B0 Y5 2.666658 1_554
B0 Y4 2.666663 1_444
B0 Y1 2.666663 1_445
B0 Y0 2.666666 1_455
B0 Y6 2.666669 1_544
B0 Y2 2.666672 1_555
Br0 Y5 2.798340 1_554
Br0 Y2 2.813061 1_555
Br0 Rb0 3.876677 1_555
Br1 Y4 2.798354 1_554
Br1 Y0 2.813068 1_565
Br1 Rb0 3.876677 1_555
Br2 Y6 2.798315 1_554
Br2 Y1 2.813061 1_455
Br2 Rb0 3.876699 1_555
Br3 Y0 2.822144 1_555
Br3 Y2 2.840711 1_655
Br3 Rb1 3.855619 1_555
Br3 Rb0 3.928793 1_655
Br4 Y2 2.822141 1_555
Br4 Y1 2.840709 1_445
Br4 Rb1 3.855619 1_455
Br4 Rb0 3.928817 1_545
Br5 Y1 2.822144 1_555
Br5 Y0 2.840701 1_565
Br5 Rb1 3.855623 1_565
Br5 Rb0 3.928778 1_555
Br6 Y3 2.807649 1_555
Br6 Y0 2.920104 1_555
Br6 Rb0 3.922861 1_545
Br7 Y3 2.807646 1_555
Br7 Y1 2.920096 1_555
Br7 Rb0 3.922879 1_655
Br8 Y3 2.807652 1_555
Br8 Y2 2.920090 1_555
Br8 Rb0 3.922840 1_555
Br9 Y3 2.807652 1_555
Br9 Y4 2.920099 1_555
Br9 Rb1 3.922857 1_555
Br10 Y3 2.807635 1_555
Br10 Y5 2.920114 1_555
Br10 Rb1 3.922873 1_455
Br11 Y3 2.807643 1_555
Br11 Y6 2.920099 1_555
Br11 Rb1 3.922865 1_565
Br12 Y5 2.822145 1_555
Br12 Y6 2.840718 1_545
Br12 Rb0 3.855606 1_545
Br12 Rb1 3.928802 1_555
Br13 Y4 2.822135 1_555
Br13 Y5 2.840704 1_665
Br13 Rb0 3.855614 1_655
Br13 Rb1 3.928811 1_565
Br14 Y6 2.822143 1_555
Br14 Y4 2.840716 1_455
Br14 Rb0 3.855607 1_555
Br14 Rb1 3.928793 1_455
Br15 Y0 2.798331 1_556
Br15 Y5 2.813047 1_655
Br15 Rb1 3.876697 1_555
Br16 Y2 2.798339 1_556
Br16 Y6 2.813064 1_545
Br16 Rb1 3.876689 1_555
Br17 Y1 2.798332 1_556
Br17 Y4 2.813067 1_555
Br17 Rb1 3.876685 1_555
