# generated using pymatgen
data_Y20Cd3Hg3Pt2
_symmetry_space_group_name_H-M   'P 1'
_cell_length_a   9.79234320
_cell_length_b   9.79236641
_cell_length_c   9.64046203
_cell_angle_alpha   90.00000000
_cell_angle_beta   90.00000000
_cell_angle_gamma   119.99987397
_symmetry_Int_Tables_number   1
_chemical_formula_structural   Y20Cd3Hg3Pt2
_chemical_formula_sum   'Y20 Cd3 Hg3 Pt2'
_cell_volume   800.57737598
_cell_formula_units_Z   1
loop_
 _symmetry_equiv_pos_site_id
 _symmetry_equiv_pos_as_xyz
  1  'x, y, z'
loop_
 _atom_site_type_symbol
 _atom_site_label
 _atom_site_symmetry_multiplicity
 _atom_site_fract_x
 _atom_site_fract_y
 _atom_site_fract_z
 _atom_site_occupancy
  Y  Y0  1  0.20752073  0.79247927  0.93858942  1
  Y  Y1  1  0.20752073  0.41503945  0.93858942  1
  Y  Y2  1  0.58495955  0.79247927  0.93858942  1
  Y  Y3  1  0.79255882  0.20744118  0.06109865  1
  Y  Y4  1  0.79255882  0.58511664  0.06109865  1
  Y  Y5  1  0.41488336  0.20744118  0.06109865  1
  Y  Y6  1  0.79255882  0.20744118  0.43890135  1
  Y  Y7  1  0.79255882  0.58511664  0.43890135  1
  Y  Y8  1  0.41488336  0.20744118  0.43890135  1
  Y  Y9  1  0.20752073  0.79247927  0.56141058  1
  Y  Y10  1  0.20752073  0.41503945  0.56141058  1
  Y  Y11  1  0.58495955  0.79247927  0.56141058  1
  Y  Y12  1  0.54238863  0.45761137  0.75000000  1
  Y  Y13  1  0.54238863  0.08477525  0.75000000  1
  Y  Y14  1  0.91522475  0.45761137  0.75000000  1
  Y  Y15  1  0.45705356  0.54294644  0.25000000  1
  Y  Y16  1  0.45705356  0.91410812  0.25000000  1
  Y  Y17  1  0.08589188  0.54294644  0.25000000  1
  Y  Y18  1  0.00000000  0.00000000  0.98515929  1
  Y  Y19  1  0.00000000  0.00000000  0.51484071  1
  Cd  Cd0  1  0.11312345  0.88687755  0.25000000  1
  Cd  Cd1  1  0.11312445  0.22624889  0.25000000  1
  Cd  Cd2  1  0.77375111  0.88687555  0.25000000  1
  Hg  Hg0  1  0.87628082  0.12371818  0.75000000  1
  Hg  Hg1  1  0.87628082  0.75256364  0.75000000  1
  Hg  Hg2  1  0.24743636  0.12371918  0.75000000  1
  Pt  Pt0  1  0.33333300  0.66666600  0.75000000  1
  Pt  Pt1  1  0.66666700  0.33333300  0.25000000  1
loop_
_geom_bond_atom_site_label_1
_geom_bond_atom_site_label_2
_geom_bond_distance
_geom_bond_site_symmetry_2
Cd0 Y19 3.193747 1_565
Cd0 Y18 3.193747 1_564
Cd0 Y16 3.242789 1_555
Cd0 Y17 3.242803 1_555
Cd0 Cd2 3.323241 1_455
Cd0 Cd1 3.323244 1_565
Cd0 Y0 3.402392 1_554
Cd0 Y9 3.402392 1_555
Cd0 Y8 3.553323 1_565
Cd0 Y5 3.553323 1_565
Cd0 Y7 3.553331 1_455
Cd0 Y4 3.553331 1_455
Cd1 Y19 3.193766 1_555
Cd1 Y18 3.193766 1_554
Cd1 Y15 3.242784 1_555
Cd1 Y17 3.242787 1_555
Cd1 Cd2 3.323270 1_445
Cd1 Y1 3.402374 1_554
Cd1 Y10 3.402374 1_555
Cd1 Y6 3.553317 1_455
Cd1 Y3 3.553317 1_455
Cd1 Y8 3.553325 1_555
Cd1 Y5 3.553325 1_555
Cd2 Y19 3.193763 1_665
Cd2 Y18 3.193763 1_664
Cd2 Y16 3.242780 1_555
Cd2 Y15 3.242786 1_555
Cd2 Y2 3.402376 1_554
Cd2 Y11 3.402376 1_555
Cd2 Y6 3.553323 1_565
Cd2 Y3 3.553323 1_565
Cd2 Y7 3.553330 1_555
Cd2 Y4 3.553330 1_555
Hg0 Y18 3.089120 1_655
Hg0 Y19 3.089120 1_655
Hg0 Y13 3.096577 1_555
Hg0 Y14 3.096591 1_555
Hg0 Y3 3.318316 1_556
Hg0 Y6 3.318316 1_555
Hg0 Y11 3.565304 1_545
Hg0 Y2 3.565304 1_545
Hg0 Y10 3.565308 1_655
Hg0 Y1 3.565308 1_655
Hg1 Y18 3.089118 1_665
Hg1 Y19 3.089118 1_665
Hg1 Y12 3.096597 1_555
Hg1 Y14 3.096618 1_555
Hg1 Y4 3.318325 1_556
Hg1 Y7 3.318325 1_555
Hg1 Y11 3.565285 1_555
Hg1 Y2 3.565285 1_555
Hg1 Y9 3.565311 1_655
Hg1 Y0 3.565311 1_655
Hg2 Y18 3.089115 1_555
Hg2 Y19 3.089115 1_555
Hg2 Y12 3.096599 1_555
Hg2 Y13 3.096612 1_555
Hg2 Y5 3.318324 1_556
Hg2 Y8 3.318324 1_555
Hg2 Y10 3.565282 1_555
Hg2 Y1 3.565282 1_555
Hg2 Y9 3.565318 1_545
Hg2 Y0 3.565318 1_545
Pt0 Y9 2.803380 1_555
Pt0 Y0 2.803380 1_555
Pt0 Y11 2.803388 1_555
Pt0 Y2 2.803388 1_555
Pt0 Y10 2.803391 1_555
Pt0 Y1 2.803391 1_555
Pt1 Y6 2.806351 1_555
Pt1 Y3 2.806351 1_555
Pt1 Y8 2.806352 1_555
Pt1 Y5 2.806352 1_555
Pt1 Y7 2.806356 1_555
Pt1 Y4 2.806356 1_555
Pt1 Y17 3.555207 1_655
Pt1 Y16 3.555215 1_545
Pt1 Y15 3.555221 1_555
