# generated using pymatgen
data_Sr(FeCl4)2
_symmetry_space_group_name_H-M   'P 1'
_cell_length_a   7.10666464
_cell_length_b   7.15335611
_cell_length_c   12.83719852
_cell_angle_alpha   85.05940572
_cell_angle_beta   90.00000000
_cell_angle_gamma   90.00000000
_symmetry_Int_Tables_number   1
_chemical_formula_structural   Sr(FeCl4)2
_chemical_formula_sum   'Sr2 Fe4 Cl16'
_cell_volume   650.17356945
_cell_formula_units_Z   2
loop_
 _symmetry_equiv_pos_site_id
 _symmetry_equiv_pos_as_xyz
  1  'x, y, z'
loop_
 _atom_site_type_symbol
 _atom_site_label
 _atom_site_symmetry_multiplicity
 _atom_site_fract_x
 _atom_site_fract_y
 _atom_site_fract_z
 _atom_site_occupancy
  Sr  Sr0  1  0.84824428  0.50000000  0.75000000  1
  Sr  Sr1  1  0.15175572  0.50000000  0.25000000  1
  Fe  Fe0  1  0.26532701  0.31751530  0.92318848  1
  Fe  Fe1  1  0.73467299  0.68248470  0.07681152  1
  Fe  Fe2  1  0.26532701  0.68248470  0.57681152  1
  Fe  Fe3  1  0.73467299  0.31751530  0.42318848  1
  Cl  Cl0  1  0.30448521  0.25338900  0.09255948  1
  Cl  Cl1  1  0.17965691  0.61113679  0.88699420  1
  Cl  Cl2  1  0.03020617  0.15630426  0.86348196  1
  Cl  Cl3  1  0.82034309  0.61113679  0.38699420  1
  Cl  Cl4  1  0.53210553  0.74333353  0.65331463  1
  Cl  Cl5  1  0.46789447  0.74333353  0.15331463  1
  Cl  Cl6  1  0.69551479  0.25338900  0.59255948  1
  Cl  Cl7  1  0.30448521  0.74661100  0.40744052  1
  Cl  Cl8  1  0.53210553  0.25666647  0.84668537  1
  Cl  Cl9  1  0.46789447  0.25666647  0.34668537  1
  Cl  Cl10  1  0.17965691  0.38886321  0.61300580  1
  Cl  Cl11  1  0.82034309  0.38886321  0.11300580  1
  Cl  Cl12  1  0.69551479  0.74661100  0.90744052  1
  Cl  Cl13  1  0.96979383  0.84369574  0.13651804  1
  Cl  Cl14  1  0.96979383  0.15630426  0.36348196  1
  Cl  Cl15  1  0.03020617  0.84369574  0.63651804  1
loop_
_geom_bond_atom_site_label_1
_geom_bond_atom_site_label_2
_geom_bond_distance
_geom_bond_site_symmetry_2
Cl0 Fe0 2.200780 1_554
Cl0 Sr1 2.998179 1_555
Cl1 Fe0 2.197738 1_555
Cl1 Sr0 3.084273 1_455
Cl2 Fe0 2.204898 1_555
Cl2 Sr0 3.036798 1_455
Cl3 Fe3 2.197738 1_555
Cl3 Sr1 3.084273 1_655
Cl4 Fe2 2.195915 1_555
Cl4 Sr0 3.040702 1_555
Cl5 Fe1 2.195915 1_555
Cl5 Sr1 3.040702 1_555
Cl6 Fe3 2.200780 1_555
Cl6 Sr0 2.998179 1_555
Cl7 Fe2 2.200780 1_555
Cl7 Sr1 2.998179 1_555
Cl8 Fe0 2.195915 1_555
Cl8 Sr0 3.040702 1_555
Cl9 Fe3 2.195915 1_555
Cl9 Sr1 3.040702 1_555
Cl10 Fe2 2.197738 1_555
Cl10 Sr0 3.084273 1_455
Cl11 Fe1 2.197738 1_555
Cl11 Sr1 3.084273 1_655
Cl12 Fe1 2.200780 1_556
Cl12 Sr0 2.998179 1_555
Cl13 Fe1 2.204898 1_555
Cl13 Sr1 3.036798 1_655
Cl14 Fe3 2.204898 1_555
Cl14 Sr1 3.036798 1_655
Cl15 Fe2 2.204898 1_555
Cl15 Sr0 3.036798 1_455
