# generated using pymatgen
data_Zr5Nb5Sn6As
_symmetry_space_group_name_H-M   'P 1'
_cell_length_a   5.68748111
_cell_length_b   8.43726686
_cell_length_c   8.41805627
_cell_angle_alpha   120.07552794
_cell_angle_beta   89.84910951
_cell_angle_gamma   90.30108287
_symmetry_Int_Tables_number   1
_chemical_formula_structural   Zr5Nb5Sn6As
_chemical_formula_sum   'Zr5 Nb5 Sn6 As1'
_cell_volume   349.56438680
_cell_formula_units_Z   1
loop_
 _symmetry_equiv_pos_site_id
 _symmetry_equiv_pos_as_xyz
  1  'x, y, z'
loop_
 _atom_site_type_symbol
 _atom_site_label
 _atom_site_symmetry_multiplicity
 _atom_site_fract_x
 _atom_site_fract_y
 _atom_site_fract_z
 _atom_site_occupancy
  Zr  Zr0  1  0.76628231  0.74262486  0.74447236  1
  Zr  Zr1  1  0.76628231  0.99815249  0.25552764  1
  Zr  Zr2  1  0.24032328  0.74624318  1.00000000  1
  Zr  Zr3  1  0.22862117  0.25198539  0.25098762  1
  Zr  Zr4  1  0.22862117  0.00099877  0.74901238  1
  Nb  Nb0  1  0.49942273  0.33353528  0.66649834  1
  Nb  Nb1  1  0.49942273  0.66703694  0.33350166  1
  Nb  Nb2  1  0.99911129  0.66710552  0.33400923  1
  Nb  Nb3  1  0.99911129  0.33309628  0.66599077  1
  Nb  Nb4  1  0.76914840  0.25716745  1.00000000  1
  Sn  Sn0  1  0.74992835  0.60040945  1.00000000  1
  Sn  Sn1  1  0.74349777  0.39334728  0.39127460  1
  Sn  Sn2  1  0.74349777  0.00207369  0.60872540  1
  Sn  Sn3  1  0.25200044  0.39712185  0.00000000  1
  Sn  Sn4  1  0.25300762  0.60315054  0.60323746  1
  Sn  Sn5  1  0.25300762  0.99991409  0.39676254  1
  As  As0  1  0.50871477  0.00603894  0.00000000  1
loop_
_geom_bond_atom_site_label_1
_geom_bond_atom_site_label_2
_geom_bond_distance
_geom_bond_site_symmetry_2
Nb0 Sn5 2.934717 1_545
Nb0 Sn3 2.937222 1_556
Nb0 Sn0 2.938222 1_555
Nb0 Sn2 2.942571 1_555
Nb0 Sn4 2.945191 1_555
Nb0 Sn1 2.949075 1_555
Nb1 Sn4 2.934721 1_555
Nb1 Sn3 2.937222 1_555
Nb1 Sn0 2.938222 1_554
Nb1 Sn1 2.942578 1_555
Nb1 Sn5 2.945198 1_555
Nb1 Sn2 2.949080 1_565
Nb2 Sn0 2.942388 1_554
Nb2 Sn5 2.953605 1_655
Nb2 Sn3 2.959225 1_655
Nb2 Sn1 2.959387 1_555
Nb2 Sn4 2.960412 1_655
Nb2 Sn2 2.987264 1_565
Nb3 Sn0 2.942388 1_555
Nb3 Sn4 2.953598 1_655
Nb3 Sn3 2.959226 1_656
Nb3 Sn2 2.959379 1_555
Nb3 Sn5 2.960406 1_645
Nb3 Sn1 2.987260 1_555
Nb4 Sn2 2.897666 1_555
Nb4 Sn1 2.897668 1_556
Nb4 Sn0 2.898661 1_555
Nb4 Sn3 2.983616 1_656
Nb4 Sn3 3.175206 1_556
Sn0 Zr1 2.942814 1_556
Sn0 Zr0 2.942814 1_555
Sn0 Zr2 3.042541 1_655
Sn0 Zr2 3.154679 1_555
Sn1 Zr1 2.936903 1_545
Sn1 Zr0 2.959304 1_555
Sn1 Zr3 3.005939 1_655
Sn1 Zr3 3.156294 1_555
Sn2 Zr0 2.936911 1_545
Sn2 Zr1 2.959301 1_545
Sn2 Zr4 3.005939 1_655
Sn2 Zr4 3.156294 1_555
Sn3 Zr4 2.927662 1_554
Sn3 Zr3 2.927669 1_555
Sn3 Zr2 2.946727 1_554
Sn4 Zr2 2.928525 1_555
Sn4 Zr4 2.944194 1_565
Sn4 Zr3 2.963567 1_555
Sn4 Zr0 3.012660 1_455
Sn4 Zr0 3.146458 1_555
Sn5 Zr2 2.928527 1_554
Sn5 Zr3 2.944179 1_565
Sn5 Zr4 2.963567 1_565
Sn5 Zr1 3.012658 1_455
Sn5 Zr1 3.146456 1_555
As0 Nb4 2.578852 1_554
As0 Zr3 2.632590 1_555
As0 Zr4 2.632593 1_554
As0 Zr0 2.634097 1_544
As0 Zr1 2.634097 1_545
As0 Zr2 2.664520 1_544
