# generated using pymatgen
data_Ca4Ga2Ir3Pt
_symmetry_space_group_name_H-M   'P 1'
_cell_length_a   5.72340605
_cell_length_b   5.73103185
_cell_length_c   7.60922261
_cell_angle_alpha   79.32846838
_cell_angle_beta   79.49542782
_cell_angle_gamma   59.56846293
_symmetry_Int_Tables_number   1
_chemical_formula_structural   Ca4Ga2Ir3Pt
_chemical_formula_sum   'Ca4 Ga2 Ir3 Pt1'
_cell_volume   210.32625862
_cell_formula_units_Z   1
loop_
 _symmetry_equiv_pos_site_id
 _symmetry_equiv_pos_as_xyz
  1  'x, y, z'
loop_
 _atom_site_type_symbol
 _atom_site_label
 _atom_site_symmetry_multiplicity
 _atom_site_fract_x
 _atom_site_fract_y
 _atom_site_fract_z
 _atom_site_occupancy
  Ca  Ca0  1  0.78522696  0.50950218  0.35526336  1
  Ca  Ca1  1  0.49359340  0.21279669  0.14216164  1
  Ca  Ca2  1  0.21435769  0.49224912  0.64477757  1
  Ca  Ca3  1  0.50450273  0.78431107  0.85811720  1
  Ga  Ga0  1  0.09901179  0.90778687  0.24414694  1
  Ga  Ga1  1  0.91466694  0.08929326  0.75418098  1
  Ir  Ir0  1  0.00734304  0.71383415  0.01158257  1
  Ir  Ir1  1  0.27514538  0.99198395  0.48963291  1
  Ir  Ir2  1  0.99002415  0.28978682  0.98959328  1
  Pt  Pt0  1  0.71612892  0.00845689  0.51054254  1
loop_
_geom_bond_atom_site_label_1
_geom_bond_atom_site_label_2
_geom_bond_distance
_geom_bond_site_symmetry_2
Ca0 Ir0 2.998009 1_655
Ca0 Ir1 2.999216 1_555
Ca0 Ir1 3.033489 1_645
Ca0 Ir2 3.052020 1_554
Ca0 Pt0 3.085688 1_555
Ca0 Pt0 3.108810 1_565
Ca0 Ca2 3.541394 1_655
Ca0 Ca2 3.627715 1_555
Ca1 Ir0 2.972198 1_555
Ca1 Ir0 3.046244 1_645
Ca1 Ir1 3.051809 1_545
Ca1 Pt0 3.070185 1_555
Ca1 Ir2 3.081042 1_554
Ca1 Ir2 3.096964 1_454
Ca1 Ca3 3.530838 1_544
Ca1 Ca3 3.597154 1_554
Ca2 Pt0 2.981832 1_555
Ca2 Ir2 3.005394 1_455
Ca2 Pt0 3.053504 1_465
Ca2 Ir1 3.053623 1_555
Ca2 Ir0 3.064216 1_556
Ca2 Ir1 3.134945 1_545
Ca2 Ga1 3.151483 1_465
Ca2 Ga1 3.427571 1_455
Ca2 Ga0 3.442805 1_555
Ca2 Ca3 3.605496 1_555
Ca2 Ga1 3.635841 1_555
Ca2 Ca3 3.684074 1_545
Ca2 Ca3 3.695373 1_455
Ca3 Ir2 2.956448 1_555
Ca3 Pt0 3.043338 1_565
Ca3 Ir0 3.066161 1_556
Ca3 Ir2 3.069435 1_465
Ca3 Ir1 3.086246 1_555
Ca3 Ga1 3.092118 1_465
Ca3 Ir0 3.111690 1_656
Ca3 Ga0 3.336995 1_556
Ca3 Ga1 3.486988 1_565
Ca3 Ga1 3.608243 1_555
Ga0 Ir1 2.500309 1_555
Ga0 Ir0 2.510026 1_555
Ga0 Ir2 2.533852 1_464
Ga0 Pt0 2.603212 1_465
Ga1 Ir2 2.502220 1_555
Ga1 Ir1 2.521049 1_645
Ga1 Ir0 2.531681 1_646
Ga1 Pt0 2.561693 1_555
Ir0 Ir2 2.518830 1_454
Ir1 Pt0 2.607260 1_565
Ir1 Pt0 3.128075 1_465
