# generated using pymatgen
data_Sr4Ga3PdI2
_symmetry_space_group_name_H-M   'P 1'
_cell_length_a   4.43198035
_cell_length_b   4.43198044
_cell_length_c   18.18193869
_cell_angle_alpha   90.00000000
_cell_angle_beta   90.00000000
_cell_angle_gamma   119.99999933
_symmetry_Int_Tables_number   1
_chemical_formula_structural   Sr4Ga3PdI2
_chemical_formula_sum   'Sr4 Ga3 Pd1 I2'
_cell_volume   309.29043186
_cell_formula_units_Z   1
loop_
 _symmetry_equiv_pos_site_id
 _symmetry_equiv_pos_as_xyz
  1  'x, y, z'
loop_
 _atom_site_type_symbol
 _atom_site_label
 _atom_site_symmetry_multiplicity
 _atom_site_fract_x
 _atom_site_fract_y
 _atom_site_fract_z
 _atom_site_occupancy
  Sr  Sr0  1  0.00000000  0.00000000  0.38909600  1
  Sr  Sr1  1  0.00000000  0.00000000  0.88268615  1
  Sr  Sr2  1  0.00000000  0.00000000  0.61135354  1
  Sr  Sr3  1  0.00000000  0.00000000  0.11730892  1
  Ga  Ga0  1  0.33333300  0.66666700  0.99197536  1
  Ga  Ga1  1  0.33333300  0.66666700  0.50123503  1
  Ga  Ga2  1  0.66666700  0.33333300  0.00810146  1
  Pd  Pd0  1  0.66666700  0.33333300  0.49813844  1
  I  I0  1  0.33333300  0.66666700  0.24850372  1
  I  I1  1  0.66666700  0.33333300  0.75160037  1
loop_
_geom_bond_atom_site_label_1
_geom_bond_atom_site_label_2
_geom_bond_distance
_geom_bond_site_symmetry_2
Ga0 Ga2 2.575546 1_456
Ga0 Ga2 2.575546 1_566
Ga0 Ga2 2.575554 1_556
Ga0 Sr1 3.239752 1_565
Ga0 Sr1 3.239756 1_665
Ga0 Sr1 3.239756 1_555
Ga0 Sr3 3.426431 1_566
Ga0 Sr3 3.426434 1_666
Ga0 Sr3 3.426434 1_556
Ga1 Pd0 2.559422 1_455
Ga1 Pd0 2.559422 1_565
Ga1 Pd0 2.559430 1_555
Ga1 Sr2 3.249022 1_565
Ga1 Sr2 3.249025 1_665
Ga1 Sr2 3.249026 1_555
Ga1 Sr0 3.271789 1_565
Ga1 Sr0 3.271792 1_665
Ga1 Sr0 3.271792 1_555
Ga2 Sr3 3.238841 1_655
Ga2 Sr3 3.238844 1_555
Ga2 Sr3 3.238844 1_665
Ga2 Sr1 3.427420 1_654
Ga2 Sr1 3.427423 1_554
Ga2 Sr1 3.427423 1_664
Pd0 Sr0 3.237002 1_655
Pd0 Sr0 3.237005 1_555
Pd0 Sr0 3.237006 1_665
Pd0 Sr2 3.284017 1_655
Pd0 Sr2 3.284020 1_555
Pd0 Sr2 3.284020 1_665
I0 Sr3 3.498212 1_565
I0 Sr3 3.498215 1_665
I0 Sr3 3.498215 1_555
I0 Sr0 3.616882 1_565
I0 Sr0 3.616885 1_665
I0 Sr0 3.616885 1_555
I1 Sr1 3.496861 1_655
I1 Sr1 3.496864 1_555
I1 Sr1 3.496864 1_665
I1 Sr2 3.612445 1_655
I1 Sr2 3.612448 1_555
I1 Sr2 3.612448 1_665
