# generated using pymatgen
data_Zn3Ga4Pd7
_symmetry_space_group_name_H-M   'P 1'
_cell_length_a   6.95678963
_cell_length_b   6.95678963
_cell_length_c   6.95678978
_cell_angle_alpha   113.65112705
_cell_angle_beta   113.65112705
_cell_angle_gamma   113.65111813
_symmetry_Int_Tables_number   1
_chemical_formula_structural   Zn3Ga4Pd7
_chemical_formula_sum   'Zn3 Ga4 Pd7'
_cell_volume   209.74103114
_cell_formula_units_Z   1
loop_
 _symmetry_equiv_pos_site_id
 _symmetry_equiv_pos_as_xyz
  1  'x, y, z'
loop_
 _atom_site_type_symbol
 _atom_site_label
 _atom_site_symmetry_multiplicity
 _atom_site_fract_x
 _atom_site_fract_y
 _atom_site_fract_z
 _atom_site_occupancy
  Zn  Zn0  1  0.63401700  0.89416000  0.45231400  1
  Zn  Zn1  1  0.89416000  0.45231400  0.63401700  1
  Zn  Zn2  1  0.45231400  0.63401700  0.89416000  1
  Ga  Ga0  1  0.10911400  0.53575200  0.36524100  1
  Ga  Ga1  1  0.53575200  0.36524100  0.10911400  1
  Ga  Ga2  1  0.36524100  0.10911400  0.53575200  1
  Ga  Ga3  1  0.97761000  0.97761000  0.97761000  1
  Pd  Pd0  1  0.96767900  0.13147700  0.37653200  1
  Pd  Pd1  1  0.86026300  0.60529200  0.03279800  1
  Pd  Pd2  1  0.03279800  0.86026300  0.60529200  1
  Pd  Pd3  1  0.60529200  0.03279800  0.86026300  1
  Pd  Pd4  1  0.13147700  0.37653200  0.96767900  1
  Pd  Pd5  1  0.49675000  0.49675000  0.49675000  1
  Pd  Pd6  1  0.37653200  0.96767900  0.13147700  1
loop_
_geom_bond_atom_site_label_1
_geom_bond_atom_site_label_2
_geom_bond_distance
_geom_bond_site_symmetry_2
Ga0 Pd2 2.610637 1_555
Ga0 Pd0 2.627392 1_455
Ga0 Pd4 2.631738 1_554
Ga0 Pd1 2.633839 1_455
Ga0 Pd5 2.643780 1_555
Ga0 Pd3 2.657629 1_565
Ga0 Pd3 2.699607 1_454
Ga1 Pd1 2.610637 1_555
Ga1 Pd4 2.627392 1_554
Ga1 Pd6 2.631738 1_545
Ga1 Pd3 2.633839 1_554
Ga1 Pd5 2.643780 1_555
Ga1 Pd2 2.657629 1_655
Ga1 Pd2 2.699607 1_544
Ga2 Pd3 2.610637 1_555
Ga2 Pd6 2.627392 1_545
Ga2 Pd0 2.631738 1_455
Ga2 Pd2 2.633839 1_545
Ga2 Pd5 2.643780 1_555
Ga2 Pd1 2.657629 1_556
Ga2 Pd1 2.699607 1_445
Ga3 Pd5 2.576055 1_555
Ga3 Pd6 2.584979 1_656
Ga3 Pd0 2.584980 1_566
Ga3 Pd4 2.584980 1_665
Ga3 Pd3 2.622114 1_565
Ga3 Pd2 2.622114 1_655
Ga3 Pd1 2.622114 1_556
Ga3 Pd5 2.781128 1_666
Pd0 Zn1 2.625872 1_555
Pd0 Zn0 2.645207 1_545
Pd0 Zn2 2.676934 1_544
Pd0 Zn2 2.694044 1_655
Pd1 Zn1 2.691095 1_554
Pd1 Zn2 2.727270 1_554
Pd2 Zn0 2.691095 1_455
Pd2 Zn1 2.727270 1_455
Pd3 Zn2 2.691095 1_545
Pd3 Zn0 2.727270 1_545
Pd4 Zn2 2.625872 1_555
Pd4 Zn1 2.645207 1_455
Pd4 Zn0 2.676934 1_445
Pd4 Zn0 2.694044 1_556
Pd5 Zn1 2.730447 1_555
Pd5 Zn2 2.730447 1_555
Pd5 Zn0 2.730447 1_555
Pd6 Zn0 2.625872 1_555
Pd6 Zn2 2.645207 1_554
Pd6 Zn1 2.676934 1_454
Pd6 Zn1 2.694044 1_565
