# generated using pymatgen
data_Hf8Pt4C
_symmetry_space_group_name_H-M   'P 1'
_cell_length_a   8.78702293
_cell_length_b   8.78702125
_cell_length_c   8.78702128
_cell_angle_alpha   120.08683337
_cell_angle_beta   119.90815537
_cell_angle_gamma   90.00441142
_symmetry_Int_Tables_number   1
_chemical_formula_structural   Hf8Pt4C
_chemical_formula_sum   'Hf16 Pt8 C2'
_cell_volume   479.76132616
_cell_formula_units_Z   2
loop_
 _symmetry_equiv_pos_site_id
 _symmetry_equiv_pos_as_xyz
  1  'x, y, z'
loop_
 _atom_site_type_symbol
 _atom_site_label
 _atom_site_symmetry_multiplicity
 _atom_site_fract_x
 _atom_site_fract_y
 _atom_site_fract_z
 _atom_site_occupancy
  Hf  Hf0  1  0.94139626  0.19139626  0.75000000  1
  Hf  Hf1  1  0.31239627  0.56239627  0.75000000  1
  Hf  Hf2  1  0.94053177  0.56122535  0.75811239  1
  Hf  Hf3  1  0.30311196  0.18241938  0.74188761  1
  Hf  Hf4  1  0.94053177  0.18241938  0.37930641  1
  Hf  Hf5  1  0.30311196  0.56122535  0.12069359  1
  Hf  Hf6  1  0.05860374  0.80860374  0.25000000  1
  Hf  Hf7  1  0.68760373  0.43760373  0.25000000  1
  Hf  Hf8  1  0.05946823  0.43877465  0.24188761  1
  Hf  Hf9  1  0.69688804  0.81758062  0.25811239  1
  Hf  Hf10  1  0.05946823  0.81758062  0.62069359  1
  Hf  Hf11  1  0.69688804  0.43877465  0.87930641  1
  Hf  Hf12  1  0.50000000  0.00000000  0.00000000  1
  Hf  Hf13  1  0.50000000  0.50000000  0.50000000  1
  Hf  Hf14  1  0.50000000  0.00000000  0.50000000  1
  Hf  Hf15  1  0.00000000  0.00000000  0.00000000  1
  Pt  Pt0  1  0.71942783  0.77494609  0.55551926  1
  Pt  Pt1  1  0.71942783  0.16390758  0.94448074  1
  Pt  Pt2  1  0.71676091  0.77837522  0.93838569  1
  Pt  Pt3  1  0.33998952  0.77837522  0.56161431  1
  Pt  Pt4  1  0.28057217  0.22505391  0.44448074  1
  Pt  Pt5  1  0.28057217  0.83609242  0.05551926  1
  Pt  Pt6  1  0.28323909  0.22162478  0.06161431  1
  Pt  Pt7  1  0.66001048  0.22162478  0.43838569  1
  C  C0  1  0.00000000  0.50000000  0.00000000  1
  C  C1  1  0.00000000  0.00000000  0.50000000  1
loop_
_geom_bond_atom_site_label_1
_geom_bond_atom_site_label_2
_geom_bond_distance
_geom_bond_site_symmetry_2
Hf0 Pt7 2.767571 1_555
Hf0 Pt6 2.767572 1_656
Hf0 Pt1 3.243544 1_555
Hf0 Pt0 3.243548 1_545
Hf1 Pt4 2.710082 1_555
Hf1 Pt5 2.710091 1_556
Hf1 Pt3 3.154460 1_555
Hf1 Pt2 3.154460 1_555
Hf2 Pt5 2.733944 1_656
Hf2 Pt7 2.749734 1_555
Hf2 Pt2 3.176873 1_555
Hf2 Pt0 3.220860 1_555
Hf3 Pt4 2.733949 1_555
Hf3 Pt6 2.749729 1_556
Hf3 Pt3 3.176876 1_545
Hf3 Pt1 3.220878 1_555
Hf4 Pt4 2.733941 1_655
Hf4 Pt7 2.749734 1_555
Hf4 Pt2 3.176872 1_544
Hf4 Pt1 3.220863 1_554
Hf5 Pt5 2.733949 1_555
Hf5 Pt6 2.749734 1_555
Hf5 Pt3 3.176868 1_555
Hf5 Pt0 3.220873 1_555
Hf6 Pt3 2.767571 1_555
Hf6 Pt2 2.767572 1_454
Hf6 Pt5 3.243544 1_555
Hf6 Pt4 3.243548 1_565
Hf7 Pt0 2.710082 1_555
Hf7 Pt1 2.710091 1_554
Hf7 Pt7 3.154460 1_555
Hf7 Pt6 3.154460 1_555
Hf8 Pt1 2.733944 1_454
Hf8 Pt3 2.749734 1_555
Hf8 Pt6 3.176873 1_555
Hf8 Pt4 3.220860 1_555
Hf9 Pt0 2.733949 1_555
Hf9 Pt2 2.749729 1_554
Hf9 Pt7 3.176876 1_565
Hf9 Pt5 3.220878 1_555
Hf10 Pt0 2.733941 1_455
Hf10 Pt3 2.749734 1_555
Hf10 Pt6 3.176872 1_566
Hf10 Pt5 3.220863 1_556
Hf11 Pt1 2.733949 1_555
Hf11 Pt2 2.749734 1_555
Hf11 Pt7 3.176868 1_555
Hf11 Pt4 3.220873 1_555
Hf12 Pt1 2.769845 1_554
Hf12 Pt5 2.769845 1_545
Hf12 Pt3 2.772217 1_544
Hf12 Pt7 2.772217 1_555
Hf12 Pt2 2.772218 1_544
Hf12 Pt6 2.772218 1_555
Hf13 Pt0 2.769844 1_555
Hf13 Pt4 2.769844 1_555
Hf13 Pt2 2.772217 1_555
Hf13 Pt6 2.772217 1_555
Hf13 Pt3 2.772218 1_555
Hf13 Pt7 2.772218 1_555
Hf14 Pt7 2.806823 1_555
Hf14 Pt3 2.806823 1_545
Hf14 Pt1 2.810012 1_555
Hf14 Pt5 2.810012 1_545
Hf14 Pt0 2.810018 1_545
Hf14 Pt4 2.810018 1_555
Hf15 Pt6 2.806823 1_555
Hf15 Pt2 2.806823 1_444
Hf15 Pt5 2.810006 1_545
Hf15 Pt1 2.810006 1_454
Hf15 Pt4 2.810011 1_555
Hf15 Pt0 2.810011 1_444
C0 Hf5 2.262527 1_555
C0 Hf11 2.262527 1_454
C0 Hf8 2.262535 1_555
C0 Hf2 2.262535 1_454
C0 Hf6 2.311576 1_555
C0 Hf0 2.311576 1_454
C1 Hf3 2.262529 1_555
C1 Hf9 2.262529 1_445
C1 Hf4 2.262535 1_455
C1 Hf10 2.262535 1_545
C1 Hf0 2.311576 1_455
C1 Hf6 2.311576 1_545
