# generated using pymatgen
data_Rb3LiSi4
_symmetry_space_group_name_H-M   'P 1'
_cell_length_a   7.87677359
_cell_length_b   9.88875103
_cell_length_c   12.79790114
_cell_angle_alpha   90.00000000
_cell_angle_beta   90.00000000
_cell_angle_gamma   90.00000000
_symmetry_Int_Tables_number   1
_chemical_formula_structural   Rb3LiSi4
_chemical_formula_sum   'Rb12 Li4 Si16'
_cell_volume   996.84711406
_cell_formula_units_Z   4
loop_
 _symmetry_equiv_pos_site_id
 _symmetry_equiv_pos_as_xyz
  1  'x, y, z'
loop_
 _atom_site_type_symbol
 _atom_site_label
 _atom_site_symmetry_multiplicity
 _atom_site_fract_x
 _atom_site_fract_y
 _atom_site_fract_z
 _atom_site_occupancy
  Rb  Rb0  1  0.64950345  0.25000000  0.40067569  1
  Rb  Rb1  1  0.14950345  0.25000000  0.09932431  1
  Rb  Rb2  1  0.35049655  0.75000000  0.59932431  1
  Rb  Rb3  1  0.85049655  0.75000000  0.90067569  1
  Rb  Rb4  1  0.65187256  0.44558714  0.69391708  1
  Rb  Rb5  1  0.15187256  0.05441286  0.80608292  1
  Rb  Rb6  1  0.34812744  0.94558714  0.30608292  1
  Rb  Rb7  1  0.84812744  0.55441286  0.19391708  1
  Rb  Rb8  1  0.34812744  0.55441286  0.30608292  1
  Rb  Rb9  1  0.84812744  0.94558714  0.19391708  1
  Rb  Rb10  1  0.65187256  0.05441286  0.69391708  1
  Rb  Rb11  1  0.15187256  0.44558714  0.80608292  1
  Li  Li0  1  0.50000000  0.50000000  0.00000000  1
  Li  Li1  1  0.00000000  0.00000000  0.50000000  1
  Li  Li2  1  0.50000000  0.00000000  0.00000000  1
  Li  Li3  1  0.00000000  0.50000000  0.50000000  1
  Si  Si0  1  0.36596839  0.75000000  0.90548963  1
  Si  Si1  1  0.86596839  0.75000000  0.59451037  1
  Si  Si2  1  0.63403161  0.25000000  0.09451037  1
  Si  Si3  1  0.13403161  0.25000000  0.40548963  1
  Si  Si4  1  0.72512461  0.63061921  0.45314783  1
  Si  Si5  1  0.22512461  0.86938079  0.04685217  1
  Si  Si6  1  0.27487539  0.13061921  0.54685217  1
  Si  Si7  1  0.77487539  0.36938079  0.95314783  1
  Si  Si8  1  0.01215164  0.25000000  0.58009138  1
  Si  Si9  1  0.51215164  0.25000000  0.91990862  1
  Si  Si10  1  0.98784836  0.75000000  0.41990862  1
  Si  Si11  1  0.48784836  0.75000000  0.08009138  1
  Si  Si12  1  0.22512461  0.63061921  0.04685217  1
  Si  Si13  1  0.72512461  0.86938079  0.45314783  1
  Si  Si14  1  0.77487539  0.13061921  0.95314783  1
  Si  Si15  1  0.27487539  0.36938079  0.54685217  1
loop_
_geom_bond_atom_site_label_1
_geom_bond_atom_site_label_2
_geom_bond_distance
_geom_bond_site_symmetry_2
Rb0 Si8 3.664950 1_655
Rb0 Si15 3.687945 1_555
Rb0 Si6 3.687945 1_555
Rb0 Si3 3.817016 1_655
Rb0 Si4 3.869407 1_555
Rb0 Si13 3.869407 1_545
Rb0 Si2 3.920168 1_555
Rb1 Si9 3.664950 1_554
Rb1 Si7 3.687945 1_454
Rb1 Si14 3.687945 1_454
Rb1 Si2 3.817016 1_555
Rb1 Si12 3.869407 1_555
Rb1 Si5 3.869407 1_545
Rb1 Si3 3.920168 1_555
Rb2 Si10 3.664950 1_455
Rb2 Si13 3.687945 1_555
Rb2 Si4 3.687945 1_555
Rb2 Si1 3.817016 1_455
Rb2 Si6 3.869407 1_565
Rb2 Si15 3.869407 1_555
Rb2 Si0 3.920168 1_555
Rb3 Si11 3.664950 1_556
Rb3 Si5 3.687945 1_656
Rb3 Si12 3.687945 1_656
Rb3 Si0 3.817016 1_555
Rb3 Si14 3.869407 1_565
Rb3 Si7 3.869407 1_555
Rb3 Si1 3.920168 1_555
Rb4 Si7 3.537389 1_555
Rb4 Si15 3.595599 1_555
Rb4 Si4 3.629809 1_555
Rb4 Si9 3.649236 1_555
Rb4 Si1 3.677507 1_555
Rb4 Si8 3.730439 1_655
Rb5 Si6 3.537389 1_555
Rb5 Si14 3.595599 1_455
Rb5 Si5 3.629809 1_546
Rb5 Si8 3.649236 1_555
Rb5 Si0 3.677507 1_545
Rb5 Si9 3.730439 1_555
Rb6 Si5 3.537389 1_555
Rb6 Si13 3.595599 1_555
Rb6 Si6 3.629809 1_565
Rb6 Si11 3.649236 1_555
Rb6 Si3 3.677507 1_565
Rb6 Si10 3.730439 1_455
Rb7 Si4 3.537389 1_555
Rb7 Si12 3.595599 1_655
Rb7 Si7 3.629809 1_554
Rb7 Si10 3.649236 1_555
Rb7 Si2 3.677507 1_555
Rb7 Si11 3.730439 1_555
Rb8 Si12 3.537389 1_555
Rb8 Si4 3.595599 1_555
Rb8 Si15 3.629809 1_555
Rb8 Si11 3.649236 1_555
Rb8 Si3 3.677507 1_555
Rb8 Si10 3.730439 1_455
Rb9 Si13 3.537389 1_555
Rb9 Si5 3.595599 1_655
Rb9 Si14 3.629809 1_564
Rb9 Si10 3.649236 1_555
Rb9 Si2 3.677507 1_565
Rb9 Si11 3.730439 1_555
Rb10 Si14 3.537389 1_555
Rb10 Si6 3.595599 1_555
Rb10 Si13 3.629809 1_545
Rb10 Si9 3.649236 1_555
Rb10 Si1 3.677507 1_545
Rb10 Si8 3.730439 1_655
Rb11 Si15 3.537389 1_555
Rb11 Si7 3.595599 1_455
Rb11 Si12 3.629809 1_556
Rb11 Si8 3.649236 1_555
Rb11 Si0 3.677507 1_555
Rb11 Si9 3.730439 1_555
Li0 Si7 2.591469 1_554
Li0 Si12 2.591469 1_555
Li0 Si11 2.677966 1_555
Li0 Si9 2.677966 1_554
Li0 Si2 2.947756 1_555
Li0 Si0 2.947756 1_554
Li1 Si13 2.591469 1_445
Li1 Si6 2.591469 1_555
Li1 Si8 2.677966 1_555
Li1 Si10 2.677966 1_445
Li1 Si1 2.947756 1_445
Li1 Si3 2.947756 1_555
Li2 Si14 2.591469 1_554
Li2 Si5 2.591469 1_545
Li2 Si11 2.677966 1_545
Li2 Si9 2.677966 1_554
Li2 Si2 2.947756 1_555
Li2 Si0 2.947756 1_544
Li3 Si4 2.591469 1_455
Li3 Si15 2.591469 1_555
Li3 Si8 2.677966 1_555
Li3 Si10 2.677966 1_455
Li3 Si1 2.947756 1_455
Li3 Si3 2.947756 1_555
Si0 Si5 2.428457 1_556
Si0 Si12 2.428457 1_556
Si0 Si11 2.432034 1_556
Si1 Si13 2.428457 1_555
Si1 Si4 2.428457 1_555
Si1 Si10 2.432034 1_555
Si2 Si7 2.428457 1_554
Si2 Si9 2.432034 1_554
Si3 Si6 2.428457 1_555
Si3 Si8 2.432034 1_555
Si6 Si8 2.420141 1_555
Si7 Si9 2.420141 1_555
Si10 Si13 2.420141 1_555
Si10 Si4 2.420141 1_555
Si11 Si5 2.420141 1_555
Si11 Si12 2.420141 1_555
Si12 Si5 2.361054 1_555
Si13 Si4 2.361054 1_555
Si14 Si7 2.361054 1_555
Si14 Si9 2.420141 1_555
Si14 Si2 2.428457 1_556
Si15 Si6 2.361054 1_555
Si15 Si8 2.420141 1_555
Si15 Si3 2.428457 1_555
