# generated using pymatgen
data_SrGa2IrRh
_symmetry_space_group_name_H-M   'P 1'
_cell_length_a   8.52535291
_cell_length_b   7.31540893
_cell_length_c   5.99705067
_cell_angle_alpha   78.96256585
_cell_angle_beta   57.37365588
_cell_angle_gamma   43.66378590
_symmetry_Int_Tables_number   1
_chemical_formula_structural   SrGa2IrRh
_chemical_formula_sum   'Sr2 Ga4 Ir2 Rh2'
_cell_volume   204.40675253
_cell_formula_units_Z   2
loop_
 _symmetry_equiv_pos_site_id
 _symmetry_equiv_pos_as_xyz
  1  'x, y, z'
loop_
 _atom_site_type_symbol
 _atom_site_label
 _atom_site_symmetry_multiplicity
 _atom_site_fract_x
 _atom_site_fract_y
 _atom_site_fract_z
 _atom_site_occupancy
  Sr  Sr0  1  0.50000000  0.50000000  0.50000000  1
  Sr  Sr1  1  0.75000000  0.75000000  0.75000000  1
  Ga  Ga0  1  0.81820780  0.18179220  0.81820780  1
  Ga  Ga1  1  0.18179220  0.81820780  0.18179220  1
  Ga  Ga2  1  0.43163594  0.06836406  0.43163594  1
  Ga  Ga3  1  0.06836406  0.43163594  0.06836406  1
  Ir  Ir0  1  0.11634610  0.11634610  0.88365390  1
  Ir  Ir1  1  0.88365390  0.88365390  0.11634610  1
  Rh  Rh0  1  0.13339257  0.13339257  0.36660743  1
  Rh  Rh1  1  0.36660743  0.36660743  0.13339257  1
loop_
_geom_bond_atom_site_label_1
_geom_bond_atom_site_label_2
_geom_bond_distance
_geom_bond_site_symmetry_2
Ga0 Rh0 2.413267 1_655
Ga0 Rh1 2.413267 1_556
Ga0 Ir1 2.467150 1_546
Ga0 Ir0 2.467150 1_655
Ga0 Sr0 3.341365 1_555
Ga0 Sr0 3.470314 1_556
Ga0 Sr0 3.470314 1_645
Ga0 Sr1 3.727167 1_545
Ga0 Sr1 3.727167 1_555
Ga1 Rh0 2.413266 1_565
Ga1 Rh1 2.413266 1_555
Ga1 Ir0 2.467150 1_564
Ga1 Ir1 2.467150 1_455
Ga1 Sr0 3.341365 1_555
Ga1 Sr0 3.470314 1_554
Ga1 Sr0 3.470314 1_465
Ga1 Sr1 3.727167 1_455
Ga1 Sr1 3.727167 1_554
Ga2 Ir0 2.416361 1_555
Ga2 Ir1 2.416362 1_545
Ga2 Rh1 2.468107 1_555
Ga2 Rh0 2.468107 1_555
Ga2 Sr1 3.343006 1_545
Ga2 Sr1 3.469412 1_544
Ga2 Sr1 3.469412 1_455
Ga2 Sr0 3.727483 1_555
Ga2 Sr0 3.727483 1_545
Ga3 Ir0 2.416361 1_554
Ga3 Ir1 2.416361 1_455
Ga3 Rh0 2.468107 1_555
Ga3 Rh1 2.468107 1_555
Ga3 Sr1 3.343006 1_454
Ga3 Sr1 3.469412 1_455
Ga3 Sr1 3.469412 1_544
Ga3 Sr0 3.727483 1_554
Ga3 Sr0 3.727483 1_455
Ir0 Sr0 3.292710 1_545
Ir0 Sr0 3.292710 1_456
Ir0 Sr1 3.494976 1_455
Ir0 Sr1 3.494976 1_545
Ir1 Sr0 3.292710 1_565
Ir1 Sr0 3.292710 1_654
Ir1 Sr1 3.494976 1_554
Ir1 Sr1 3.494976 1_555
Rh0 Sr1 3.294377 1_455
Rh0 Sr1 3.294378 1_544
Rh0 Sr0 3.493174 1_545
Rh0 Sr0 3.493174 1_455
Rh1 Sr1 3.294377 1_544
Rh1 Sr1 3.294378 1_455
Rh1 Sr0 3.493174 1_555
Rh1 Sr0 3.493174 1_554
