# generated using pymatgen
data_Cs8Sn4BiSb3
_symmetry_space_group_name_H-M   'P 1'
_cell_length_a   6.78273040
_cell_length_b   7.39495337
_cell_length_c   14.30334908
_cell_angle_alpha   90.12812502
_cell_angle_beta   90.00000000
_cell_angle_gamma   90.00000000
_symmetry_Int_Tables_number   1
_chemical_formula_structural   Cs8Sn4BiSb3
_chemical_formula_sum   'Cs8 Sn4 Bi1 Sb3'
_cell_volume   717.42523198
_cell_formula_units_Z   1
loop_
 _symmetry_equiv_pos_site_id
 _symmetry_equiv_pos_as_xyz
  1  'x, y, z'
loop_
 _atom_site_type_symbol
 _atom_site_label
 _atom_site_symmetry_multiplicity
 _atom_site_fract_x
 _atom_site_fract_y
 _atom_site_fract_z
 _atom_site_occupancy
  Cs  Cs0  1  0.75000000  0.37801839  0.66123286  1
  Cs  Cs1  1  0.25000000  0.60857084  0.33849539  1
  Cs  Cs2  1  0.75000000  0.62149960  0.15647708  1
  Cs  Cs3  1  0.25000000  0.16446841  0.51780062  1
  Cs  Cs4  1  0.25000000  0.83378631  0.01742085  1
  Cs  Cs5  1  0.75000000  0.82720920  0.49823931  1
  Cs  Cs6  1  0.75000000  0.17267181  0.99410895  1
  Cs  Cs7  1  0.25000000  0.39419820  0.84015657  1
  Sn  Sn0  1  0.47076957  0.10211067  0.24794545  1
  Sn  Sn1  1  0.02923043  0.10211067  0.24794545  1
  Sn  Sn2  1  0.02797252  0.89580005  0.75123646  1
  Sn  Sn3  1  0.47202748  0.89580005  0.75123646  1
  Bi  Bi0  1  0.75000000  0.31391705  0.37508952  1
  Sb  Sb0  1  0.25000000  0.33115679  0.11431384  1
  Sb  Sb1  1  0.25000000  0.66794023  0.61597845  1
  Sb  Sb2  1  0.75000000  0.69073974  0.87232475  1
loop_
_geom_bond_atom_site_label_1
_geom_bond_atom_site_label_2
_geom_bond_distance
_geom_bond_site_symmetry_2
Cs0 Sb2 3.799079 1_555
Cs0 Sb1 4.064862 1_555
Cs0 Sb1 4.064862 1_655
Cs0 Sn2 4.236605 1_645
Cs0 Sn3 4.236605 1_545
Cs0 Sn2 4.455450 1_655
Cs0 Sn3 4.455450 1_555
Cs1 Sb0 3.802766 1_555
Cs1 Sb1 3.992170 1_555
Cs1 Sn0 4.154661 1_565
Cs1 Sn1 4.154661 1_565
Cs1 Sn0 4.233784 1_555
Cs1 Sn1 4.233784 1_555
Cs2 Sb0 4.058224 1_555
Cs2 Sb0 4.058224 1_655
Cs2 Sb2 4.097592 1_554
Cs2 Sn1 4.231961 1_665
Cs2 Sn0 4.231961 1_565
Cs2 Sn1 4.480328 1_655
Cs2 Sn0 4.480328 1_555
Cs3 Sb1 3.934104 1_545
Cs3 Sb1 3.976235 1_555
Cs3 Sn0 4.164764 1_555
Cs3 Sn1 4.164764 1_555
Cs3 Sn3 4.170521 1_545
Cs3 Sn2 4.170521 1_545
Cs4 Sb0 3.927572 1_565
Cs4 Sb0 3.969792 1_555
Cs4 Sb2 4.113107 1_554
Cs4 Sb2 4.113107 1_454
Cs4 Sn3 4.120892 1_554
Cs4 Sn2 4.120892 1_554
Cs4 Sn0 4.125803 1_565
Cs4 Sn1 4.125803 1_565
Cs5 Sb1 3.966545 1_655
Cs5 Sb1 3.966545 1_555
Cs5 Sn2 4.110826 1_655
Cs5 Sn3 4.110826 1_555
Cs5 Sn1 4.535293 1_665
Cs5 Sn0 4.535293 1_565
Cs6 Sb2 3.963289 1_545
Cs6 Sb0 3.977689 1_656
Cs6 Sb0 3.977689 1_556
Cs6 Sn1 4.129145 1_656
Cs6 Sn0 4.129145 1_556
Cs6 Sb2 4.212051 1_555
Cs6 Sn2 4.447803 1_645
Cs6 Sn3 4.447803 1_545
Cs7 Sb1 3.795851 1_555
Cs7 Sb0 3.950016 1_556
Cs7 Sb2 4.064161 1_555
Cs7 Sb2 4.064161 1_455
Cs7 Sn3 4.177131 1_545
Cs7 Sn2 4.177131 1_545
Cs7 Sn3 4.203056 1_555
Cs7 Sn2 4.203056 1_555
Sn0 Sn1 2.994841 1_555
Sn2 Sn3 3.011905 1_555
Bi0 Sn1 3.055296 1_655
Bi0 Sn0 3.055296 1_555
Bi0 Cs2 3.870771 1_555
Bi0 Cs5 4.010634 1_545
Bi0 Cs1 4.065495 1_555
Bi0 Cs1 4.065495 1_655
Bi0 Cs3 4.110903 1_655
Bi0 Cs3 4.110903 1_555
Bi0 Cs0 4.119114 1_555
Bi0 Cs5 4.180993 1_555
Sb0 Sn0 2.962942 1_555
Sb0 Sn1 2.962942 1_555
Sb1 Sn3 2.972444 1_555
Sb1 Sn2 2.972444 1_555
Sb2 Sn2 2.977540 1_655
Sb2 Sn3 2.977540 1_555
