# generated using pymatgen
data_Sr10AlTc3N14
_symmetry_space_group_name_H-M   'P 1'
_cell_length_a   6.39076644
_cell_length_b   9.12400744
_cell_length_c   9.21504016
_cell_angle_alpha   113.96306695
_cell_angle_beta   98.29873050
_cell_angle_gamma   90.29038148
_symmetry_Int_Tables_number   1
_chemical_formula_structural   Sr10AlTc3N14
_chemical_formula_sum   'Sr10 Al1 Tc3 N14'
_cell_volume   484.66213287
_cell_formula_units_Z   1
loop_
 _symmetry_equiv_pos_site_id
 _symmetry_equiv_pos_as_xyz
  1  'x, y, z'
loop_
 _atom_site_type_symbol
 _atom_site_label
 _atom_site_symmetry_multiplicity
 _atom_site_fract_x
 _atom_site_fract_y
 _atom_site_fract_z
 _atom_site_occupancy
  Sr  Sr0  1  0.85443852  0.57797402  0.34292319  1
  Sr  Sr1  1  0.26590743  0.99791872  0.56534293  1
  Sr  Sr2  1  0.69813615  0.40301047  0.83302092  1
  Sr  Sr3  1  0.29632929  0.58403321  0.15484503  1
  Sr  Sr4  1  0.39784944  0.78020938  0.90436265  1
  Sr  Sr5  1  0.60697275  0.21526050  0.10580505  1
  Sr  Sr6  1  0.15044016  0.40874825  0.64888179  1
  Sr  Sr7  1  0.87657091  0.83984833  0.76091989  1
  Sr  Sr8  1  0.12406495  0.16510974  0.24989799  1
  Sr  Sr9  1  0.72965998  0.03242595  0.42962128  1
  Al  Al0  1  0.58204922  0.36188378  0.47616230  1
  Tc  Tc0  1  0.41714945  0.65676409  0.52628626  1
  Tc  Tc1  1  0.12073864  0.21511613  0.91261989  1
  Tc  Tc2  1  0.87639236  0.77527726  0.08698735  1
  N  N0  1  0.55876528  0.55563825  0.66404868  1
  N  N1  1  0.45193168  0.44964214  0.33568662  1
  N  N2  1  0.16165280  0.70914166  0.58543798  1
  N  N3  1  0.84658598  0.30091893  0.41531851  1
  N  N4  1  0.41710642  0.19853184  0.48879169  1
  N  N5  1  0.58464545  0.80954274  0.51653673  1
  N  N6  1  0.94938660  0.14145926  0.71966977  1
  N  N7  1  0.04291812  0.84503327  0.28054443  1
  N  N8  1  0.22559915  0.05244921  0.95901105  1
  N  N9  1  0.76804935  0.94160072  0.04692094  1
  N  N10  1  0.34736425  0.32839060  0.90535198  1
  N  N11  1  0.97316796  0.34131210  0.06675063  1
  N  N12  1  0.02511903  0.65647612  0.92929478  1
  N  N13  1  0.65100770  0.65627934  0.08895668  1
loop_
_geom_bond_atom_site_label_1
_geom_bond_atom_site_label_2
_geom_bond_distance
_geom_bond_site_symmetry_2
Al0 N4 1.872550 1_555
Al0 N3 1.873951 1_555
Al0 N1 1.883157 1_555
Al0 N0 1.932819 1_555
N0 Tc0 1.977440 1_555
N0 Sr2 2.555521 1_555
N0 Sr4 2.674492 1_555
N0 Sr6 2.886589 1_555
N0 Sr7 3.031368 1_555
N1 Tc0 2.031348 1_555
N1 Sr3 2.542306 1_555
N1 Sr5 2.643858 1_555
N1 Sr0 2.801580 1_555
N1 Sr8 3.091043 1_555
N2 Tc0 1.801342 1_555
N2 Sr7 2.581167 1_455
N2 Sr0 2.611190 1_455
N2 Sr1 2.799024 1_555
N2 Sr4 2.915075 1_555
N2 Sr6 3.028296 1_555
N3 Sr8 2.504389 1_655
N3 Sr6 2.534807 1_655
N3 Sr9 2.617075 1_555
N3 Sr5 2.829673 1_555
N3 Sr0 2.866329 1_555
N4 Sr1 2.451395 1_545
N4 Sr9 2.501572 1_555
N4 Sr8 2.589451 1_555
N4 Sr6 2.686982 1_555
N5 Tc0 1.792027 1_555
N5 Sr7 2.627675 1_555
N5 Sr1 2.641530 1_555
N5 Sr9 2.674704 1_565
N5 Sr0 2.843216 1_555
N6 Tc1 1.808897 1_655
N6 Sr9 2.616859 1_555
N6 Sr1 2.678393 1_645
N6 Sr2 2.803990 1_555
N6 Sr7 2.970149 1_545
N6 Sr6 3.086477 1_655
N7 Tc2 1.800577 1_455
N7 Sr1 2.605915 1_555
N7 Sr9 2.781910 1_465
N7 Sr3 2.824066 1_555
N7 Sr0 3.004403 1_455
N7 Sr8 3.094215 1_565
N8 Tc1 1.810354 1_555
N8 Sr4 2.609004 1_545
N8 Sr8 2.633175 1_556
N8 Sr5 2.712217 1_556
N8 Sr7 2.823964 1_445
N9 Tc2 1.819513 1_555
N9 Sr5 2.583649 1_565
N9 Sr7 2.614473 1_554
N9 Sr4 2.643405 1_554
N9 Sr8 2.908602 1_665
N10 Tc1 1.799806 1_555
N10 Sr3 2.588597 1_556
N10 Sr2 2.591812 1_555
N10 Sr5 2.812754 1_556
N10 Sr6 2.874936 1_555
N11 Tc1 1.817071 1_654
N11 Sr5 2.735170 1_555
N11 Sr0 2.797371 1_555
N11 Sr3 2.799643 1_655
N11 Sr2 2.819105 1_554
N11 Sr8 2.848302 1_655
N12 Tc2 1.821989 1_456
N12 Sr4 2.709758 1_555
N12 Sr7 2.794179 1_455
N12 Sr3 2.801536 1_556
N12 Sr2 2.872507 1_455
N12 Sr6 2.880779 1_555
N13 Tc2 1.805977 1_555
N13 Sr3 2.578405 1_555
N13 Sr2 2.603472 1_554
N13 Sr4 2.752478 1_554
N13 Sr0 2.857802 1_555
