# generated using pymatgen
data_Ca3Be2(SiPd5)4
_symmetry_space_group_name_H-M   'P 1'
_cell_length_a   8.61533122
_cell_length_b   8.55145556
_cell_length_c   8.55145533
_cell_angle_alpha   60.49480212
_cell_angle_beta   59.75260382
_cell_angle_gamma   59.75260081
_symmetry_Int_Tables_number   1
_chemical_formula_structural   Ca3Be2(SiPd5)4
_chemical_formula_sum   'Ca3 Be2 Si4 Pd20'
_cell_volume   445.43900884
_cell_formula_units_Z   1
loop_
 _symmetry_equiv_pos_site_id
 _symmetry_equiv_pos_as_xyz
  1  'x, y, z'
loop_
 _atom_site_type_symbol
 _atom_site_label
 _atom_site_symmetry_multiplicity
 _atom_site_fract_x
 _atom_site_fract_y
 _atom_site_fract_z
 _atom_site_occupancy
  Ca  Ca0  1  0.25000000  0.25000000  0.25000000  1
  Ca  Ca1  1  0.75000000  0.75000000  0.75000000  1
  Ca  Ca2  1  0.00000000  0.00000000  0.00000000  1
  Be  Be0  1  0.72768332  0.27231668  0.27231668  1
  Be  Be1  1  0.27231668  0.72768332  0.72768332  1
  Si  Si0  1  0.26998969  0.73001031  0.26998969  1
  Si  Si1  1  0.73001031  0.26998969  0.73001031  1
  Si  Si2  1  0.26998969  0.26998969  0.73001031  1
  Si  Si3  1  0.73001031  0.73001031  0.26998969  1
  Pd  Pd0  1  0.38797885  0.38229610  0.38229610  1
  Pd  Pd1  1  0.61202115  0.61770390  0.61770390  1
  Pd  Pd2  1  0.38229610  0.38797885  0.84742996  1
  Pd  Pd3  1  0.38229610  0.84742996  0.38797885  1
  Pd  Pd4  1  0.61770390  0.61202115  0.15257004  1
  Pd  Pd5  1  0.61770390  0.15257004  0.61202115  1
  Pd  Pd6  1  0.84742996  0.38229610  0.38229610  1
  Pd  Pd7  1  0.15257004  0.61770390  0.61770390  1
  Pd  Pd8  1  0.34394342  1.00000000  0.00000000  1
  Pd  Pd9  1  0.65605658  0.00000000  1.00000000  1
  Pd  Pd10  1  1.00000000  0.34394342  0.65605658  1
  Pd  Pd11  1  0.00000000  0.65605658  0.34394342  1
  Pd  Pd12  1  0.99559874  0.34196164  0.00440126  1
  Pd  Pd13  1  0.65803836  0.00440126  0.34196164  1
  Pd  Pd14  1  0.00440126  0.65803836  0.99559874  1
  Pd  Pd15  1  0.34196164  0.99559874  0.65803836  1
  Pd  Pd16  1  0.99559874  0.00440126  0.34196164  1
  Pd  Pd17  1  0.00440126  0.99559874  0.65803836  1
  Pd  Pd18  1  0.65803836  0.34196164  0.00440126  1
  Pd  Pd19  1  0.34196164  0.65803836  0.99559874  1
loop_
_geom_bond_atom_site_label_1
_geom_bond_atom_site_label_2
_geom_bond_distance
_geom_bond_site_symmetry_2
Ca0 Pd6 2.818389 1_455
Ca0 Pd3 2.818389 1_545
Ca0 Pd2 2.818389 1_554
Ca0 Pd0 2.818396 1_555
Ca1 Pd7 2.818389 1_655
Ca1 Pd5 2.818389 1_565
Ca1 Pd4 2.818389 1_556
Ca1 Pd1 2.818396 1_555
Ca2 Pd16 2.923948 1_455
Ca2 Pd17 2.923948 1_544
Ca2 Pd12 2.923948 1_455
Ca2 Pd14 2.923948 1_544
Ca2 Pd19 2.923948 1_544
Ca2 Pd18 2.923948 1_455
Ca2 Pd13 2.923948 1_455
Ca2 Pd15 2.923948 1_544
Ca2 Pd8 2.963187 1_545
Ca2 Pd9 2.963187 1_454
Ca2 Pd11 2.963187 1_545
Ca2 Pd10 2.963187 1_454
Be0 Pd18 2.375838 1_555
Be0 Pd16 2.375838 1_555
Be0 Pd13 2.375838 1_555
Be0 Pd12 2.375838 1_555
Be0 Pd0 2.378983 1_555
Be0 Pd4 2.378983 1_555
Be0 Pd5 2.378983 1_555
Be0 Pd6 2.378990 1_555
Be1 Pd19 2.375838 1_555
Be1 Pd17 2.375838 1_555
Be1 Pd15 2.375838 1_555
Be1 Pd14 2.375838 1_555
Be1 Pd1 2.378983 1_555
Be1 Pd2 2.378983 1_555
Be1 Pd3 2.378983 1_555
Be1 Pd7 2.378990 1_555
Pd0 Si0 2.433653 1_555
Pd0 Si2 2.433653 1_555
Pd1 Si1 2.433653 1_555
Pd1 Si3 2.433653 1_555
Pd2 Si1 2.433653 1_555
Pd2 Si2 2.433660 1_555
Pd3 Si3 2.433653 1_555
Pd3 Si0 2.433660 1_555
Pd4 Si0 2.433653 1_555
Pd4 Si3 2.433660 1_555
Pd5 Si2 2.433653 1_555
Pd5 Si1 2.433660 1_555
Pd6 Si3 2.433653 1_555
Pd6 Si1 2.433653 1_555
Pd7 Si2 2.433653 1_555
Pd7 Si0 2.433653 1_555
Pd8 Si2 2.411732 1_564
Pd8 Si0 2.411733 1_555
Pd9 Si3 2.411732 1_546
Pd9 Si1 2.411733 1_555
Pd10 Si2 2.411732 1_655
Pd10 Si1 2.411733 1_555
Pd11 Si3 2.411732 1_455
Pd11 Si0 2.411733 1_555
Pd12 Si2 2.416874 1_654
Pd13 Si3 2.416874 1_545
Pd14 Si3 2.416874 1_456
Pd15 Si2 2.416874 1_565
Pd16 Si0 2.416874 1_645
Pd17 Si1 2.416874 1_465
Pd18 Si1 2.416873 1_554
Pd19 Si0 2.416873 1_556
