# generated using pymatgen
data_Li2Hg(P3Pd10)2
_symmetry_space_group_name_H-M   'P 1'
_cell_length_a   8.50576597
_cell_length_b   8.50576583
_cell_length_c   8.50576693
_cell_angle_alpha   59.99999572
_cell_angle_beta   59.99999625
_cell_angle_gamma   59.99999697
_symmetry_Int_Tables_number   1
_chemical_formula_structural   Li2Hg(P3Pd10)2
_chemical_formula_sum   'Li2 Hg1 P6 Pd20'
_cell_volume   435.13628076
_cell_formula_units_Z   1
loop_
 _symmetry_equiv_pos_site_id
 _symmetry_equiv_pos_as_xyz
  1  'x, y, z'
loop_
 _atom_site_type_symbol
 _atom_site_label
 _atom_site_symmetry_multiplicity
 _atom_site_fract_x
 _atom_site_fract_y
 _atom_site_fract_z
 _atom_site_occupancy
  Li  Li0  1  0.00000000  0.00000000  0.00000000  1
  Li  Li1  1  0.75000000  0.75000000  0.75000000  1
  Hg  Hg0  1  0.25000000  0.25000000  0.25000000  1
  P  P0  1  0.73634289  0.26365711  0.26365711  1
  P  P1  1  0.73634289  0.73634289  0.26365711  1
  P  P2  1  0.73634289  0.26365711  0.73634289  1
  P  P3  1  0.26365711  0.73634289  0.26365711  1
  P  P4  1  0.26365711  0.73634289  0.73634289  1
  P  P5  1  0.26365711  0.26365711  0.73634289  1
  Pd  Pd0  1  0.34379692  0.99888912  0.99888912  1
  Pd  Pd1  1  0.99888912  0.65842385  0.34379692  1
  Pd  Pd2  1  0.34379692  0.99888912  0.65842385  1
  Pd  Pd3  1  0.99888912  0.65842385  0.99888912  1
  Pd  Pd4  1  0.65842385  0.34379692  0.99888912  1
  Pd  Pd5  1  0.61684987  0.61684987  0.14944938  1
  Pd  Pd6  1  0.38378967  0.84863399  0.38378967  1
  Pd  Pd7  1  0.14944938  0.61684987  0.61684987  1
  Pd  Pd8  1  0.65842385  0.99888912  0.34379692  1
  Pd  Pd9  1  0.99888912  0.34379692  0.65842385  1
  Pd  Pd10  1  0.65842385  0.99888912  0.99888912  1
  Pd  Pd11  1  0.99888912  0.99888912  0.34379692  1
  Pd  Pd12  1  0.61684987  0.14944938  0.61684987  1
  Pd  Pd13  1  0.34379692  0.65842385  0.99888912  1
  Pd  Pd14  1  0.38378967  0.38378967  0.38378967  1
  Pd  Pd15  1  0.61684987  0.61684987  0.61684987  1
  Pd  Pd16  1  0.38378967  0.38378967  0.84863399  1
  Pd  Pd17  1  0.99888912  0.99888912  0.65842385  1
  Pd  Pd18  1  0.84863399  0.38378967  0.38378967  1
  Pd  Pd19  1  0.99888912  0.34379692  0.99888912  1
loop_
_geom_bond_atom_site_label_1
_geom_bond_atom_site_label_2
_geom_bond_distance
_geom_bond_site_symmetry_2
Li0 Pd19 2.914838 1_454
Li0 Pd0 2.914838 1_544
Li0 Pd11 2.914838 1_445
Li0 Pd4 2.914842 1_454
Li0 Pd13 2.914842 1_544
Li0 Pd9 2.914842 1_454
Li0 Pd1 2.914842 1_445
Li0 Pd2 2.914842 1_544
Li0 Pd8 2.914842 1_445
Li0 Pd3 2.914846 1_444
Li0 Pd10 2.914846 1_444
Li0 Pd17 2.914847 1_444
Li1 Pd12 2.774147 1_565
Li1 Pd7 2.774147 1_655
Li1 Pd5 2.774148 1_556
Li1 Pd15 2.774155 1_555
Li1 Pd17 3.279289 1_555
Li1 Pd10 3.279290 1_555
Li1 Pd3 3.279290 1_555
Li1 Pd19 3.279293 1_555
Li1 Pd11 3.279293 1_555
Li1 Pd0 3.279293 1_555
Li1 Pd4 3.279296 1_555
Li1 Pd13 3.279297 1_555
Li1 Pd9 3.279297 1_555
Li1 Pd2 3.279297 1_555
Li1 Pd8 3.279297 1_555
Li1 Pd1 3.279297 1_555
Hg0 Pd6 2.787458 1_545
Hg0 Pd18 2.787458 1_455
Hg0 Pd16 2.787459 1_554
Hg0 Pd14 2.787479 1_555
Hg0 Pd13 3.303703 1_554
Hg0 Pd4 3.303703 1_554
Hg0 Pd1 3.303703 1_455
Hg0 Pd8 3.303703 1_545
Hg0 Pd2 3.303703 1_545
Hg0 Pd9 3.303703 1_455
Hg0 Pd3 3.303707 1_454
Hg0 Pd17 3.303707 1_445
Hg0 Pd10 3.303707 1_544
Hg0 Pd11 3.303710 1_445
Hg0 Pd0 3.303711 1_544
Hg0 Pd19 3.303711 1_454
P0 Pd11 2.341220 1_545
P0 Pd19 2.341220 1_554
P0 Pd8 2.341226 1_545
P0 Pd4 2.341226 1_554
P0 Pd14 2.448760 1_555
P0 Pd18 2.448781 1_555
P0 Pd5 2.453036 1_555
P0 Pd12 2.453036 1_555
P1 Pd8 2.341218 1_555
P1 Pd1 2.341218 1_555
P1 Pd10 2.341223 1_554
P1 Pd3 2.341223 1_554
P1 Pd18 2.448760 1_555
P1 Pd6 2.448760 1_555
P1 Pd15 2.453036 1_555
P1 Pd5 2.453043 1_555
P2 Pd9 2.341218 1_555
P2 Pd4 2.341218 1_555
P2 Pd17 2.341223 1_545
P2 Pd10 2.341223 1_545
P2 Pd16 2.448760 1_555
P2 Pd18 2.448760 1_555
P2 Pd15 2.453036 1_555
P2 Pd12 2.453043 1_555
P3 Pd11 2.341220 1_455
P3 Pd0 2.341220 1_554
P3 Pd1 2.341226 1_455
P3 Pd13 2.341226 1_554
P3 Pd14 2.448760 1_555
P3 Pd6 2.448781 1_555
P3 Pd5 2.453036 1_555
P3 Pd7 2.453036 1_555
P4 Pd2 2.341218 1_555
P4 Pd13 2.341218 1_555
P4 Pd17 2.341223 1_455
P4 Pd3 2.341223 1_455
P4 Pd16 2.448760 1_555
P4 Pd6 2.448760 1_555
P4 Pd15 2.453036 1_555
P4 Pd7 2.453043 1_555
P5 Pd0 2.341221 1_545
P5 Pd19 2.341221 1_455
P5 Pd2 2.341226 1_545
P5 Pd9 2.341226 1_455
P5 Pd14 2.448760 1_555
P5 Pd16 2.448781 1_555
P5 Pd7 2.453036 1_555
P5 Pd12 2.453036 1_555
Pd0 Pd10 2.676143 1_555
Pd0 Pd13 2.895918 1_555
Pd0 Pd2 2.895918 1_555
Pd0 Pd19 2.933705 1_465
Pd0 Pd11 2.933705 1_456
Pd0 Pd5 2.976463 1_556
Pd0 Pd12 2.976463 1_565
Pd0 Pd16 2.993683 1_565
Pd0 Pd6 2.993683 1_556
Pd1 Pd9 2.676143 1_555
Pd1 Pd8 2.895918 1_555
Pd1 Pd11 2.895918 1_555
Pd1 Pd13 2.933705 1_654
Pd1 Pd3 2.933705 1_554
Pd1 Pd15 2.976463 1_555
Pd1 Pd7 2.976464 1_655
Pd1 Pd18 2.993651 1_555
Pd1 Pd14 2.993677 1_655
Pd2 Pd8 2.676143 1_555
Pd2 Pd9 2.933705 1_465
Pd2 Pd6 2.993651 1_555
Pd3 Pd5 2.976463 1_556
Pd3 Pd7 2.976464 1_655
Pd4 Pd9 2.895918 1_555
Pd4 Pd8 2.933705 1_546
Pd4 Pd5 2.976463 1_556
Pd6 Pd8 2.993651 1_555
Pd7 Pd9 2.976463 1_455
Pd10 Pd3 2.895918 1_555
Pd10 Pd17 2.895918 1_555
Pd10 Pd4 2.933705 1_565
Pd10 Pd8 2.933705 1_556
Pd10 Pd5 2.976463 1_556
Pd10 Pd12 2.976464 1_565
Pd10 Pd16 2.993667 1_565
Pd10 Pd6 2.993668 1_556
Pd11 Pd17 2.676143 1_555
Pd11 Pd8 2.895918 1_555
Pd11 Pd19 2.933705 1_564
Pd11 Pd7 2.976463 1_655
Pd11 Pd12 2.976463 1_565
Pd11 Pd18 2.993683 1_565
Pd11 Pd6 2.993683 1_655
Pd12 Pd17 2.976463 1_545
Pd12 Pd2 2.976463 1_545
Pd12 Pd8 2.976464 1_545
Pd13 Pd4 2.676143 1_555
Pd13 Pd2 2.895918 1_555
Pd13 Pd3 2.933705 1_455
Pd13 Pd5 2.976463 1_556
Pd13 Pd15 2.976463 1_555
Pd13 Pd16 2.993651 1_555
Pd13 Pd14 2.993677 1_556
Pd14 Pd2 2.993677 1_545
Pd14 Pd8 2.993677 1_545
Pd14 Pd9 2.993677 1_455
Pd14 Pd4 2.993677 1_554
Pd15 Pd8 2.976463 1_555
Pd15 Pd2 2.976463 1_555
Pd15 Pd9 2.976463 1_555
Pd15 Pd4 2.976463 1_555
Pd16 Pd4 2.993651 1_555
Pd16 Pd3 2.993667 1_455
Pd16 Pd19 2.993683 1_455
Pd17 Pd3 2.895918 1_555
Pd17 Pd9 2.933705 1_565
Pd17 Pd2 2.933705 1_655
Pd17 Pd7 2.976463 1_655
Pd17 Pd18 2.993667 1_565
Pd17 Pd6 2.993668 1_655
Pd18 Pd9 2.993651 1_555
Pd18 Pd3 2.993668 1_554
Pd18 Pd19 2.993683 1_554
Pd19 Pd3 2.676143 1_555
Pd19 Pd4 2.895918 1_555
Pd19 Pd9 2.895918 1_555
Pd19 Pd5 2.976463 1_556
Pd19 Pd7 2.976463 1_655
