# generated using pymatgen
data_RbBa4(BeAs)10
_symmetry_space_group_name_H-M   'P 1'
_cell_length_a   9.11216766
_cell_length_b   9.11198139
_cell_length_c   9.11146812
_cell_angle_alpha   123.71352892
_cell_angle_beta   123.70521466
_cell_angle_gamma   83.69037434
_symmetry_Int_Tables_number   1
_chemical_formula_structural   RbBa4(BeAs)10
_chemical_formula_sum   'Rb1 Ba4 Be10 As10'
_cell_volume   501.60181406
_cell_formula_units_Z   1
loop_
 _symmetry_equiv_pos_site_id
 _symmetry_equiv_pos_as_xyz
  1  'x, y, z'
loop_
 _atom_site_type_symbol
 _atom_site_label
 _atom_site_symmetry_multiplicity
 _atom_site_fract_x
 _atom_site_fract_y
 _atom_site_fract_z
 _atom_site_occupancy
  Rb  Rb0  1  0.00000025  0.00000016  0.99999992  1
  Ba  Ba0  1  0.38834845  0.80349388  0.19184215  1
  Ba  Ba1  1  0.80349872  0.61165891  0.41515845  1
  Ba  Ba2  1  0.19650066  0.38834074  0.58484180  1
  Ba  Ba3  1  0.61165202  0.19650502  0.80815839  1
  Be  Be0  1  0.95277641  0.65362671  0.10267233  1
  Be  Be1  1  0.34640453  0.44894707  0.29918785  1
  Be  Be2  1  0.74999850  0.25000464  0.50002411  1
  Be  Be3  1  0.14973930  0.04728765  0.70087864  1
  Be  Be4  1  0.55109438  0.85019195  0.89752538  1
  Be  Be5  1  0.65359459  0.55105595  0.70081215  1
  Be  Be6  1  0.04722318  0.34637310  0.89732851  1
  Be  Be7  1  0.44890578  0.14980808  0.10247497  1
  Be  Be8  1  0.85026246  0.95271063  0.29912048  1
  Be  Be9  1  0.25000142  0.74999529  0.49997567  1
  As  As0  1  0.94980650  0.54500395  0.79967119  1
  As  As1  1  0.34646804  0.34649054  0.00001001  1
  As  As2  1  0.74532664  0.15022262  0.20037983  1
  As  As3  1  0.15020592  0.94984928  0.40489614  1
  As  As4  1  0.54496677  0.74534067  0.59516919  1
  As  As5  1  0.65353071  0.65350859  0.99998888  1
  As  As6  1  0.05019379  0.45499556  0.20033025  1
  As  As7  1  0.45503430  0.25466354  0.40483274  1
  As  As8  1  0.84979426  0.05014905  0.59510065  1
  As  As9  1  0.25467345  0.84977643  0.79961933  1
loop_
_geom_bond_atom_site_label_1
_geom_bond_atom_site_label_2
_geom_bond_distance
_geom_bond_site_symmetry_2
As0 Be2 2.325200 1_555
As0 Be6 2.326699 1_655
As0 Be5 2.328914 1_555
As0 Be0 2.343488 1_556
As0 Ba0 3.341120 1_656
As0 Ba1 3.379485 1_555
As0 Rb0 3.437909 1_665
As0 Ba2 3.463906 1_655
As1 Be7 2.340355 1_555
As1 Be3 2.340500 1_554
As1 Be6 2.340681 1_554
As1 Be1 2.340719 1_555
As1 Ba0 3.474274 1_555
As1 Ba2 3.474482 1_554
As1 Ba3 3.474556 1_554
As1 Ba1 3.474556 1_555
As2 Be2 2.325165 1_555
As2 Be7 2.327175 1_555
As2 Be8 2.329619 1_545
As2 Be4 2.343045 1_544
As2 Ba3 3.340947 1_554
As2 Ba2 3.379438 1_655
As2 Rb0 3.438343 1_654
As2 Ba1 3.463227 1_555
As3 Be9 2.325227 1_555
As3 Be3 2.327045 1_565
As3 Be0 2.328771 1_455
As3 Be8 2.342721 1_455
As3 Ba2 3.340831 1_565
As3 Ba0 3.379501 1_555
As3 Rb0 3.438356 1_564
As3 Ba3 3.463444 1_565
As4 Be9 2.325230 1_555
As4 Be1 2.326798 1_555
As4 Be4 2.329089 1_555
As4 Be5 2.342938 1_555
As4 Ba1 3.341161 1_555
As4 Ba3 3.379314 1_565
As4 Rb0 3.438266 1_665
As4 Ba0 3.463697 1_555
As5 Be4 2.340354 1_555
As5 Be8 2.340502 1_556
As5 Be0 2.340683 1_556
As5 Be5 2.340720 1_555
As5 Ba3 3.474280 1_555
As5 Ba1 3.474489 1_556
As5 Ba2 3.474550 1_555
As5 Ba0 3.474551 1_556
As6 Be9 2.325200 1_555
As6 Be0 2.326705 1_455
As6 Be1 2.328903 1_555
As6 Be6 2.343490 1_554
As6 Ba3 3.341121 1_454
As6 Ba2 3.379476 1_555
As6 Rb0 3.437899 1_554
As6 Ba1 3.463906 1_455
As7 Be2 2.325229 1_555
As7 Be5 2.326786 1_555
As7 Be7 2.329088 1_555
As7 Be1 2.342940 1_555
As7 Ba2 3.341164 1_555
As7 Ba0 3.379356 1_545
As7 Rb0 3.438278 1_554
As7 Ba3 3.463720 1_555
As8 Be2 2.325224 1_555
As8 Be8 2.327034 1_545
As8 Be6 2.328782 1_655
As8 Be3 2.342730 1_655
As8 Ba1 3.340827 1_545
As8 Ba3 3.379522 1_555
As8 Rb0 3.438369 1_655
As8 Ba0 3.463441 1_545
As9 Be9 2.325161 1_555
As9 Be4 2.327172 1_555
As9 Be3 2.329611 1_565
As9 Be7 2.343051 1_566
As9 Ba0 3.340959 1_556
As9 Ba1 3.379442 1_455
As9 Rb0 3.438344 1_565
As9 Ba2 3.463223 1_555
