# generated using pymatgen
data_Be2V3ZnN
_symmetry_space_group_name_H-M   'P 1'
_cell_length_a   7.47606343
_cell_length_b   7.47606286
_cell_length_c   7.47606285
_cell_angle_alpha   60.00000440
_cell_angle_beta   60.00000692
_cell_angle_gamma   60.00000461
_symmetry_Int_Tables_number   1
_chemical_formula_structural   Be2V3ZnN
_chemical_formula_sum   'Be8 V12 Zn4 N4'
_cell_volume   295.46355610
_cell_formula_units_Z   4
loop_
 _symmetry_equiv_pos_site_id
 _symmetry_equiv_pos_as_xyz
  1  'x, y, z'
loop_
 _atom_site_type_symbol
 _atom_site_label
 _atom_site_symmetry_multiplicity
 _atom_site_fract_x
 _atom_site_fract_y
 _atom_site_fract_z
 _atom_site_occupancy
  Be  Be0  1  0.74300217  0.41899961  0.41899961  1
  Be  Be1  1  0.41899961  0.74300217  0.41899961  1
  Be  Be2  1  0.41899961  0.41899961  0.74300217  1
  Be  Be3  1  0.41899961  0.41899961  0.41899961  1
  Be  Be4  1  0.50699783  0.83100039  0.83100039  1
  Be  Be5  1  0.83100039  0.50699783  0.83100039  1
  Be  Be6  1  0.83100039  0.83100039  0.50699783  1
  Be  Be7  1  0.83100039  0.83100039  0.83100039  1
  V  V0  1  0.81716209  0.81716209  0.18283791  1
  V  V1  1  0.18283791  0.18283791  0.81716209  1
  V  V2  1  0.81716209  0.18283791  0.81716209  1
  V  V3  1  0.18283791  0.81716209  0.18283791  1
  V  V4  1  0.18283791  0.81716209  0.81716209  1
  V  V5  1  0.81716209  0.18283791  0.18283791  1
  V  V6  1  0.43283791  0.43283791  0.06716209  1
  V  V7  1  0.06716209  0.06716209  0.43283791  1
  V  V8  1  0.43283791  0.06716209  0.43283791  1
  V  V9  1  0.06716209  0.43283791  0.06716209  1
  V  V10  1  0.06716209  0.43283791  0.43283791  1
  V  V11  1  0.43283791  0.06716209  0.06716209  1
  Zn  Zn0  1  0.12500000  0.62500000  0.62500000  1
  Zn  Zn1  1  0.62500000  0.12500000  0.62500000  1
  Zn  Zn2  1  0.62500000  0.62500000  0.12500000  1
  Zn  Zn3  1  0.62500000  0.62500000  0.62500000  1
  N  N0  1  0.62500000  0.12500000  0.12500000  1
  N  N1  1  0.12500000  0.62500000  0.12500000  1
  N  N2  1  0.12500000  0.12500000  0.62500000  1
  N  N3  1  0.12500000  0.12500000  0.12500000  1
loop_
_geom_bond_atom_site_label_1
_geom_bond_atom_site_label_2
_geom_bond_distance
_geom_bond_site_symmetry_2
Be0 Zn3 2.275181 1_555
Be0 Zn2 2.275187 1_555
Be0 Zn1 2.275187 1_555
Be0 Be3 2.422264 1_555
Be0 Be1 2.422264 1_555
Be0 Be2 2.422264 1_555
Be0 V10 2.531128 1_655
Be0 V7 2.531132 1_655
Be0 V9 2.531132 1_655
Be0 V2 2.775107 1_555
Be0 V0 2.775107 1_555
Be0 V5 2.775113 1_555
Be1 Zn3 2.275181 1_555
Be1 Zn2 2.275187 1_555
Be1 Zn0 2.275188 1_555
Be1 Be3 2.422263 1_555
Be1 Be2 2.422264 1_555
Be1 V8 2.531128 1_565
Be1 V11 2.531132 1_565
Be1 V7 2.531132 1_565
Be1 V4 2.775107 1_555
Be1 V0 2.775107 1_555
Be1 V3 2.775113 1_555
Be2 Zn3 2.275181 1_555
Be2 Zn1 2.275187 1_555
Be2 Zn0 2.275187 1_555
Be2 Be3 2.422263 1_555
Be2 V6 2.531128 1_556
Be2 V11 2.531132 1_556
Be2 V9 2.531133 1_556
Be2 V4 2.775107 1_555
Be2 V2 2.775107 1_555
Be2 V1 2.775113 1_555
Be3 Zn1 2.275183 1_555
Be3 Zn0 2.275184 1_555
Be3 Zn2 2.275184 1_555
Be3 V8 2.531136 1_555
Be3 V6 2.531136 1_555
Be3 V10 2.531136 1_555
Be3 V3 2.775110 1_555
Be3 V1 2.775110 1_555
Be3 V5 2.775110 1_555
Be4 Zn3 2.275181 1_555
Be4 Zn2 2.275187 1_556
Be4 Zn1 2.275187 1_565
Be4 Be7 2.422264 1_555
Be4 Be5 2.422264 1_555
Be4 Be6 2.422264 1_555
Be4 V4 2.531128 1_555
Be4 V1 2.531132 1_565
Be4 V3 2.531132 1_556
Be4 V8 2.775107 1_565
Be4 V6 2.775107 1_556
Be4 V11 2.775113 1_566
Be5 Zn3 2.275181 1_555
Be5 Zn2 2.275187 1_556
Be5 Zn0 2.275188 1_655
Be5 Be7 2.422263 1_555
Be5 Be6 2.422264 1_555
Be5 V2 2.531128 1_555
Be5 V5 2.531132 1_556
Be5 V1 2.531132 1_655
Be5 V10 2.775107 1_655
Be5 V6 2.775107 1_556
Be5 V9 2.775113 1_656
Be6 Zn3 2.275181 1_555
Be6 Zn1 2.275187 1_565
Be6 Zn0 2.275187 1_655
Be6 Be7 2.422263 1_555
Be6 V0 2.531128 1_555
Be6 V5 2.531132 1_565
Be6 V3 2.531133 1_655
Be6 V10 2.775107 1_655
Be6 V8 2.775107 1_565
Be6 V7 2.775113 1_665
Be7 Zn1 2.275183 1_565
Be7 Zn0 2.275184 1_655
Be7 Zn2 2.275184 1_556
Be7 V2 2.531136 1_565
Be7 V0 2.531136 1_556
Be7 V4 2.531136 1_655
Be7 V9 2.775110 1_656
Be7 V7 2.775110 1_665
Be7 V11 2.775110 1_566
N0 V5 1.966509 1_555
N0 V11 1.966509 1_555
N0 V6 1.966510 1_555
N0 V0 1.966510 1_545
N0 V8 1.966510 1_555
N0 V2 1.966510 1_554
N1 V3 1.966509 1_555
N1 V9 1.966509 1_555
N1 V10 1.966510 1_555
N1 V4 1.966510 1_554
N1 V6 1.966510 1_555
N1 V0 1.966510 1_455
N2 V1 1.966509 1_555
N2 V7 1.966509 1_555
N2 V4 1.966509 1_545
N2 V10 1.966509 1_555
N2 V2 1.966510 1_455
N2 V8 1.966510 1_555
N3 V9 1.966509 1_555
N3 V3 1.966509 1_545
N3 V7 1.966509 1_555
N3 V1 1.966509 1_554
N3 V11 1.966510 1_555
N3 V5 1.966510 1_455
