# generated using pymatgen
data_Yb3GeO
_symmetry_space_group_name_H-M   'P 1'
_cell_length_a   6.39982197
_cell_length_b   6.39982197
_cell_length_c   6.08606252
_cell_angle_alpha   61.66415725
_cell_angle_beta   61.66415725
_cell_angle_gamma   69.65404577
_symmetry_Int_Tables_number   1
_chemical_formula_structural   Yb3GeO
_chemical_formula_sum   'Yb6 Ge2 O2'
_cell_volume   190.68919578
_cell_formula_units_Z   2
loop_
 _symmetry_equiv_pos_site_id
 _symmetry_equiv_pos_as_xyz
  1  'x, y, z'
loop_
 _atom_site_type_symbol
 _atom_site_label
 _atom_site_symmetry_multiplicity
 _atom_site_fract_x
 _atom_site_fract_y
 _atom_site_fract_z
 _atom_site_occupancy
  Yb  Yb0  1  0.83232289  0.16767711  0.75000000  1
  Yb  Yb1  1  0.16767711  0.83232289  0.25000000  1
  Yb  Yb2  1  0.68992888  0.68942017  0.81076754  1
  Yb  Yb3  1  0.31057983  0.31007012  0.68923246  1
  Yb  Yb4  1  0.31007112  0.31057983  0.18923246  1
  Yb  Yb5  1  0.68942017  0.68992888  0.31076754  1
  Ge  Ge0  1  0.78477360  0.21522640  0.25000000  1
  Ge  Ge1  1  0.21522640  0.78477360  0.75000000  1
  O  O0  1  0.50000000  0.00000000  0.00000000  1
  O  O1  1  0.00000000  0.50000000  0.50000000  1
loop_
_geom_bond_atom_site_label_1
_geom_bond_atom_site_label_2
_geom_bond_distance
_geom_bond_site_symmetry_2
Ge0 Yb1 2.798981 1_645
Ge0 Yb3 3.046720 1_555
Ge0 Yb2 3.046722 1_554
Ge0 Yb5 3.049892 1_555
Ge0 Yb4 3.049892 1_555
Ge0 Yb0 3.062818 1_555
Ge0 Yb0 3.062818 1_554
Ge0 Yb4 3.441371 1_655
Ge0 Yb5 3.441371 1_545
Ge0 Yb3 3.448421 1_654
Ge0 Yb2 3.448421 1_545
Ge1 Yb0 2.798981 1_465
Ge1 Yb4 3.046722 1_556
Ge1 Yb5 3.046722 1_555
Ge1 Yb2 3.049892 1_555
Ge1 Yb3 3.049899 1_555
Ge1 Yb1 3.062818 1_556
Ge1 Yb1 3.062818 1_555
Ge1 Yb3 3.441365 1_565
Ge1 Yb2 3.441371 1_455
Ge1 Yb5 3.448421 1_456
Ge1 Yb4 3.448421 1_565
O0 Yb0 2.226017 1_554
O0 Yb1 2.226017 1_545
O0 Yb4 2.432844 1_555
O0 Yb2 2.432844 1_544
O0 Yb3 2.434233 1_554
O0 Yb5 2.434234 1_545
O1 Yb1 2.226017 1_555
O1 Yb0 2.226017 1_455
O1 Yb3 2.432844 1_555
O1 Yb5 2.432844 1_455
O1 Yb2 2.434234 1_455
O1 Yb4 2.434234 1_555
