# generated using pymatgen
data_Mg3GeP7N12
_symmetry_space_group_name_H-M   'P 1'
_cell_length_a   7.20098171
_cell_length_b   7.20098192
_cell_length_c   7.20098194
_cell_angle_alpha   109.48856893
_cell_angle_beta   109.48856757
_cell_angle_gamma   109.48856131
_symmetry_Int_Tables_number   1
_chemical_formula_structural   Mg3GeP7N12
_chemical_formula_sum   'Mg3 Ge1 P7 N12'
_cell_volume   287.25926454
_cell_formula_units_Z   1
loop_
 _symmetry_equiv_pos_site_id
 _symmetry_equiv_pos_as_xyz
  1  'x, y, z'
loop_
 _atom_site_type_symbol
 _atom_site_label
 _atom_site_symmetry_multiplicity
 _atom_site_fract_x
 _atom_site_fract_y
 _atom_site_fract_z
 _atom_site_occupancy
  Mg  Mg0  1  0.00233720  0.65519323  0.00233720  1
  Mg  Mg1  1  0.65519323  0.00233720  0.00233720  1
  Mg  Mg2  1  0.00233720  0.00233720  0.65519323  1
  Ge  Ge0  1  0.32853399  0.32853399  0.32853399  1
  P  P0  1  0.50055285  0.25098103  0.75224206  1
  P  P1  1  0.50055285  0.75224206  0.25098103  1
  P  P2  1  0.75224206  0.25098103  0.50055285  1
  P  P3  1  0.25098103  0.50055285  0.75224206  1
  P  P4  1  0.75224206  0.50055285  0.25098103  1
  P  P5  1  0.25098103  0.75224206  0.50055285  1
  P  P6  1  0.99410407  0.99410407  0.99410407  1
  N  N0  1  0.00107764  0.72363584  0.43754515  1
  N  N1  1  0.27752011  0.71167866  0.27752011  1
  N  N2  1  0.28906772  0.56481779  0.56481779  1
  N  N3  1  0.56481779  0.56481779  0.28906772  1
  N  N4  1  0.56481779  0.28906772  0.56481779  1
  N  N5  1  0.72363584  0.00107764  0.43754515  1
  N  N6  1  0.43754515  0.00107764  0.72363584  1
  N  N7  1  0.72363584  0.43754515  0.00107764  1
  N  N8  1  0.27752011  0.27752011  0.71167866  1
  N  N9  1  0.71167866  0.27752011  0.27752011  1
  N  N10  1  0.00107764  0.43754515  0.72363584  1
  N  N11  1  0.43754515  0.72363584  0.00107764  1
loop_
_geom_bond_atom_site_label_1
_geom_bond_atom_site_label_2
_geom_bond_distance
_geom_bond_site_symmetry_2
Mg0 N1 2.079227 1_555
Mg0 N10 2.088977 1_554
Mg0 N7 2.088977 1_455
Mg0 P6 2.480678 1_454
Mg1 N9 2.079227 1_555
Mg1 N6 2.088977 1_554
Mg1 N11 2.088977 1_545
Mg1 P6 2.480678 1_544
Mg2 N8 2.079227 1_555
Mg2 N5 2.088977 1_455
Mg2 N0 2.088977 1_545
Mg2 P6 2.480678 1_445
Ge0 N2 2.141128 1_555
Ge0 N4 2.141128 1_555
Ge0 N3 2.141128 1_555
Ge0 P6 2.406161 1_444
N0 P4 1.621528 1_455
N0 P5 1.622399 1_555
N1 P1 1.621813 1_555
N1 P5 1.621813 1_555
N2 P5 1.640102 1_555
N2 P3 1.640102 1_555
N3 P4 1.640102 1_555
N3 P1 1.640102 1_555
N4 P2 1.640102 1_555
N4 P0 1.640102 1_555
N5 P1 1.621528 1_545
N5 P2 1.622399 1_555
N6 P5 1.621528 1_545
N6 P0 1.622399 1_555
N7 P0 1.621528 1_554
N7 P4 1.622399 1_555
N8 P0 1.621813 1_555
N8 P3 1.621813 1_555
N9 P2 1.621813 1_555
N9 P4 1.621813 1_555
N10 P2 1.621528 1_455
N10 P3 1.622399 1_555
N11 P3 1.621528 1_554
N11 P1 1.622399 1_555
