# generated using pymatgen
data_CsSc(RhSe2)4
_symmetry_space_group_name_H-M   'P 1'
_cell_length_a   9.59776041
_cell_length_b   9.59776069
_cell_length_c   9.19999781
_cell_angle_alpha   74.53647819
_cell_angle_beta   74.53647755
_cell_angle_gamma   22.43034660
_symmetry_Int_Tables_number   1
_chemical_formula_structural   CsSc(RhSe2)4
_chemical_formula_sum   'Cs1 Sc1 Rh4 Se8'
_cell_volume   311.18823257
_cell_formula_units_Z   1
loop_
 _symmetry_equiv_pos_site_id
 _symmetry_equiv_pos_as_xyz
  1  'x, y, z'
loop_
 _atom_site_type_symbol
 _atom_site_label
 _atom_site_symmetry_multiplicity
 _atom_site_fract_x
 _atom_site_fract_y
 _atom_site_fract_z
 _atom_site_occupancy
  Cs  Cs0  1  0.49175477  0.49175477  0.50778732  1
  Sc  Sc0  1  0.65092213  0.65092213  0.01713394  1
  Rh  Rh0  1  0.00528328  0.00528328  0.99737676  1
  Rh  Rh1  1  0.34013839  0.34013839  0.98195522  1
  Rh  Rh2  1  0.30182940  0.30182940  0.32978399  1
  Rh  Rh3  1  0.70731025  0.70731025  0.67554675  1
  Se  Se0  1  0.42752988  0.42752988  0.13331390  1
  Se  Se1  1  0.91300284  0.91300284  0.84677312  1
  Se  Se2  1  0.82720087  0.82720087  0.48255685  1
  Se  Se3  1  0.76278476  0.76278476  0.16288683  1
  Se  Se4  1  0.24262084  0.24262084  0.83179384  1
  Se  Se5  1  0.17995322  0.17995322  0.51772164  1
  Se  Se6  1  0.08015090  0.08015090  0.19226906  1
  Se  Se7  1  0.56951949  0.56951949  0.82310077  1
loop_
_geom_bond_atom_site_label_1
_geom_bond_atom_site_label_2
_geom_bond_distance
_geom_bond_site_symmetry_2
Cs0 Se6 3.471947 1_655
Cs0 Se6 3.471947 1_565
Cs0 Se7 3.587226 1_555
Cs0 Se1 3.591025 1_455
Cs0 Se1 3.591025 1_545
Cs0 Se2 3.678234 1_455
Cs0 Se2 3.678234 1_545
Cs0 Se0 3.949219 1_555
Cs0 Se5 4.028148 1_655
Cs0 Se5 4.028149 1_565
Sc0 Se6 2.586345 1_565
Sc0 Se6 2.586345 1_655
Sc0 Se7 2.650145 1_554
Sc0 Se3 2.787435 1_555
Sc0 Se4 2.787956 1_654
Sc0 Se4 2.787956 1_564
Rh0 Se0 2.489306 1_456
Rh0 Se0 2.489306 1_546
Rh0 Se1 2.499518 1_445
Rh0 Se7 2.542431 1_545
Rh0 Se7 2.542431 1_455
Rh0 Se6 2.564399 1_556
Rh1 Se0 2.427414 1_556
Rh1 Se1 2.446635 1_545
Rh1 Se1 2.446635 1_455
Rh1 Se4 2.580493 1_555
Rh1 Se3 2.656832 1_456
Rh1 Se3 2.656832 1_546
Rh2 Se2 2.460343 1_545
Rh2 Se2 2.460343 1_455
Rh2 Se5 2.469543 1_555
Rh2 Se0 2.557976 1_555
Rh2 Se3 2.645062 1_455
Rh2 Se3 2.645062 1_545
Rh3 Se2 2.463624 1_555
Rh3 Se5 2.502959 1_565
Rh3 Se5 2.502959 1_655
Rh3 Se4 2.551965 1_655
Rh3 Se4 2.551965 1_565
Rh3 Se7 2.580572 1_555
Rh3 Sc0 3.031392 1_556
