# generated using pymatgen
data_Li3CaTcN3
_symmetry_space_group_name_H-M   'P 1'
_cell_length_a   7.09246099
_cell_length_b   7.09246118
_cell_length_c   7.09246143
_cell_angle_alpha   48.34836180
_cell_angle_beta   48.34835995
_cell_angle_gamma   48.34836512
_symmetry_Int_Tables_number   1
_chemical_formula_structural   Li3CaTcN3
_chemical_formula_sum   'Li6 Ca2 Tc2 N6'
_cell_volume   182.62384054
_cell_formula_units_Z   2
loop_
 _symmetry_equiv_pos_site_id
 _symmetry_equiv_pos_as_xyz
  1  'x, y, z'
loop_
 _atom_site_type_symbol
 _atom_site_label
 _atom_site_symmetry_multiplicity
 _atom_site_fract_x
 _atom_site_fract_y
 _atom_site_fract_z
 _atom_site_occupancy
  Li  Li0  1  0.47538255  0.89532659  0.23857343  1
  Li  Li1  1  0.89532659  0.23857343  0.47538255  1
  Li  Li2  1  0.76142657  0.52461745  0.10467341  1
  Li  Li3  1  0.52461745  0.10467341  0.76142657  1
  Li  Li4  1  0.10467341  0.76142657  0.52461745  1
  Li  Li5  1  0.23857343  0.47538255  0.89532659  1
  Ca  Ca0  1  0.33822386  0.33822386  0.33822386  1
  Ca  Ca1  1  0.66177614  0.66177614  0.66177614  1
  Tc  Tc0  1  0.94010741  0.94010741  0.94010741  1
  Tc  Tc1  1  0.05989259  0.05989259  0.05989259  1
  N  N0  1  0.22361972  0.90725576  0.60267419  1
  N  N1  1  0.60267419  0.22361972  0.90725576  1
  N  N2  1  0.77638028  0.09274424  0.39732581  1
  N  N3  1  0.09274424  0.39732581  0.77638028  1
  N  N4  1  0.39732581  0.77638028  0.09274424  1
  N  N5  1  0.90725576  0.60267419  0.22361972  1
loop_
_geom_bond_atom_site_label_1
_geom_bond_atom_site_label_2
_geom_bond_distance
_geom_bond_site_symmetry_2
Li0 N0 1.955689 1_555
Li0 N1 2.111875 1_564
Li0 N4 2.151654 1_555
Li0 N5 2.260932 1_555
Li1 N5 1.955689 1_555
Li1 N0 2.111876 1_645
Li1 N2 2.151654 1_555
Li1 N1 2.260932 1_555
Li2 N4 1.955689 1_555
Li2 N3 2.111875 1_654
Li2 N5 2.151654 1_555
Li2 N2 2.260932 1_555
Li3 N2 1.955689 1_555
Li3 N4 2.111875 1_546
Li3 N1 2.151654 1_555
Li3 N3 2.260932 1_555
Li4 N3 1.955689 1_555
Li4 N2 2.111876 1_465
Li4 N0 2.151654 1_555
Li4 N4 2.260932 1_555
Li5 N1 1.955689 1_555
Li5 N5 2.111875 1_456
Li5 N3 2.151654 1_555
Li5 N0 2.260932 1_555
Ca0 N4 2.536524 1_555
Ca0 N2 2.536524 1_555
Ca0 N3 2.536524 1_555
Ca0 N0 2.679027 1_545
Ca0 N5 2.679027 1_455
Ca0 N1 2.679027 1_554
Ca1 N1 2.536524 1_555
Ca1 N0 2.536524 1_555
Ca1 N5 2.536524 1_555
Ca1 N2 2.679027 1_565
Ca1 N3 2.679027 1_655
Ca1 N4 2.679027 1_556
N0 Tc0 1.883370 1_455
N1 Tc0 1.883370 1_545
N2 Tc1 1.883370 1_655
N3 Tc1 1.883370 1_556
N4 Tc1 1.883370 1_565
N5 Tc0 1.883370 1_554
