# generated using pymatgen
data_Nb16GaNi7N4
_symmetry_space_group_name_H-M   'P 1'
_cell_length_a   8.25517155
_cell_length_b   8.24951866
_cell_length_c   8.24951897
_cell_angle_alpha   60.00000276
_cell_angle_beta   60.02265215
_cell_angle_gamma   60.02265184
_symmetry_Int_Tables_number   1
_chemical_formula_structural   Nb16GaNi7N4
_chemical_formula_sum   'Nb16 Ga1 Ni7 N4'
_cell_volume   397.39002369
_cell_formula_units_Z   1
loop_
 _symmetry_equiv_pos_site_id
 _symmetry_equiv_pos_as_xyz
  1  'x, y, z'
loop_
 _atom_site_type_symbol
 _atom_site_label
 _atom_site_symmetry_multiplicity
 _atom_site_fract_x
 _atom_site_fract_y
 _atom_site_fract_z
 _atom_site_occupancy
  Nb  Nb0  1  0.12566570  0.62477877  0.62477877  1
  Nb  Nb1  1  0.61648356  0.11967328  0.63192108  1
  Nb  Nb2  1  0.61648356  0.63192108  0.11967328  1
  Nb  Nb3  1  0.61648356  0.63192108  0.63192108  1
  Nb  Nb4  1  0.81491456  0.81259009  0.18624818  1
  Nb  Nb5  1  0.18057412  0.18290639  0.81825975  1
  Nb  Nb6  1  0.81491456  0.18624818  0.81259009  1
  Nb  Nb7  1  0.18057412  0.81825975  0.18290639  1
  Nb  Nb8  1  0.18057412  0.81825975  0.81825975  1
  Nb  Nb9  1  0.81491456  0.18624818  0.18624818  1
  Nb  Nb10  1  0.43263360  0.43265895  0.06735323  1
  Nb  Nb11  1  0.06980934  0.05868432  0.43575317  1
  Nb  Nb12  1  0.43263360  0.06735323  0.43265895  1
  Nb  Nb13  1  0.06980934  0.43575317  0.05868432  1
  Nb  Nb14  1  0.06980934  0.43575317  0.43575317  1
  Nb  Nb15  1  0.43263360  0.06735323  0.06735323  1
  Ga  Ga0  1  0.76008278  0.41330607  0.41330607  1
  Ni  Ni0  1  0.42298025  0.73715897  0.41993039  1
  Ni  Ni1  1  0.42298025  0.41993039  0.73715897  1
  Ni  Ni2  1  0.42298025  0.41993039  0.41993039  1
  Ni  Ni3  1  0.51126432  0.82957823  0.82957823  1
  Ni  Ni4  1  0.82914490  0.51329584  0.82877963  1
  Ni  Ni5  1  0.82914490  0.82877963  0.51329584  1
  Ni  Ni6  1  0.82914490  0.82877963  0.82877963  1
  N  N0  1  0.62661808  0.12446064  0.12446064  1
  N  N1  1  0.12558138  0.62340985  0.12550388  1
  N  N2  1  0.12558138  0.12550388  0.62340985  1
  N  N3  1  0.12558138  0.12550388  0.12550388  1
loop_
_geom_bond_atom_site_label_1
_geom_bond_atom_site_label_2
_geom_bond_distance
_geom_bond_site_symmetry_2
Nb0 Ni6 2.501022 1_455
Nb0 Ni4 2.501031 1_455
Nb0 Ni5 2.501031 1_455
Nb0 Ni0 2.510298 1_555
Nb0 Ni1 2.510298 1_555
Nb0 Ni2 2.510307 1_555
Nb1 Ni3 2.429013 1_545
Nb1 Ni5 2.493981 1_545
Nb1 Ni6 2.493986 1_545
Nb1 Ni2 2.500267 1_555
Nb1 Ni1 2.500271 1_555
Nb2 Ni3 2.429013 1_554
Nb2 Ni4 2.493981 1_554
Nb2 Ni6 2.493986 1_554
Nb2 Ni2 2.500267 1_555
Nb2 Ni0 2.500271 1_555
Nb3 Ni3 2.429012 1_555
Nb3 Ni5 2.493988 1_555
Nb3 Ni4 2.493988 1_555
Nb3 Ni1 2.500264 1_555
Nb3 Ni0 2.500264 1_555
Nb4 Ni5 2.829046 1_555
Nb4 Ni6 2.829054 1_554
Nb4 Ni0 3.025104 1_555
Nb5 Ni4 2.817061 1_455
Nb5 Ni3 2.826305 1_545
Nb5 Ni1 3.088593 1_555
Nb5 Ni2 3.088593 1_555
Nb6 Ni4 2.829046 1_555
Nb6 Ni6 2.829054 1_545
Nb6 Ni1 3.025104 1_555
Nb7 Ni5 2.817061 1_455
Nb7 Ni3 2.826305 1_554
Nb7 Ni0 3.088593 1_555
Nb7 Ni2 3.088593 1_555
Nb8 Ni6 2.817061 1_455
Nb8 Ni3 2.826301 1_555
Nb8 Ni1 3.088593 1_555
Nb8 Ni0 3.088593 1_555
Nb9 Ni5 2.829051 1_545
Nb9 Ni4 2.829051 1_554
Nb9 Ni2 3.025101 1_555
Nb10 Ni1 2.819319 1_554
Nb10 Ni2 2.819327 1_555
Nb10 Ni3 3.069101 1_554
Nb10 Ni4 3.075587 1_554
Nb11 Ni0 2.791161 1_545
Nb11 Ni5 3.039010 1_445
Nb11 Ni6 3.039010 1_445
Nb12 Ni0 2.819318 1_545
Nb12 Ni2 2.819327 1_555
Nb12 Ni3 3.069101 1_545
Nb12 Ni5 3.075587 1_545
Nb13 Ni1 2.791161 1_554
Nb13 Ni4 3.039010 1_454
Nb13 Ni6 3.039010 1_454
Nb14 Ni2 2.791161 1_555
Nb14 Ni5 3.039010 1_455
Nb14 Ni4 3.039010 1_455
Nb15 Ni1 2.819323 1_554
Nb15 Ni0 2.819323 1_545
Nb15 Ni3 3.069101 1_544
Nb15 Ni6 3.075584 1_544
Ga0 Nb3 2.624860 1_555
Ga0 Nb1 2.624873 1_555
Ga0 Nb2 2.624873 1_555
Ga0 Ni0 2.729321 1_555
Ga0 Ni1 2.729321 1_555
Ga0 Ni2 2.729324 1_555
Ga0 Nb14 2.754383 1_655
Ga0 Nb11 2.754388 1_655
Ga0 Nb13 2.754388 1_655
Ga0 Nb9 3.006002 1_555
Ga0 Nb4 3.006002 1_555
Ga0 Nb6 3.006002 1_555
Ni0 Ni2 2.616983 1_555
Ni0 Ni1 2.616983 1_555
Ni1 Ni2 2.616983 1_555
Ni3 Ni4 2.617588 1_555
Ni3 Ni5 2.617588 1_555
Ni3 Ni6 2.617592 1_555
Ni4 Ni6 2.602589 1_555
Ni4 Ni5 2.602590 1_555
Ni5 Ni6 2.602589 1_555
N0 Nb10 2.176699 1_555
N0 Nb12 2.176699 1_555
N0 Nb15 2.176705 1_555
N0 Nb4 2.186133 1_545
N0 Nb6 2.186133 1_554
N0 Nb9 2.186138 1_555
N1 Nb10 2.164524 1_555
N1 Nb8 2.172405 1_554
N1 Nb7 2.172410 1_555
N1 Nb13 2.175222 1_555
N1 Nb14 2.175229 1_555
N1 Nb4 2.182206 1_455
N2 Nb12 2.164524 1_555
N2 Nb8 2.172405 1_545
N2 Nb5 2.172410 1_555
N2 Nb11 2.175223 1_555
N2 Nb14 2.175228 1_555
N2 Nb6 2.182206 1_455
N3 Nb15 2.164524 1_555
N3 Nb7 2.172402 1_545
N3 Nb5 2.172402 1_554
N3 Nb13 2.175230 1_555
N3 Nb11 2.175230 1_555
N3 Nb9 2.182202 1_455
