# generated using pymatgen
data_CaTa8PbO22
_symmetry_space_group_name_H-M   'P 1'
_cell_length_a   6.25589042
_cell_length_b   6.25588976
_cell_length_c   12.35930399
_cell_angle_alpha   90.00000000
_cell_angle_beta   90.00000000
_cell_angle_gamma   120.00000348
_symmetry_Int_Tables_number   1
_chemical_formula_structural   CaTa8PbO22
_chemical_formula_sum   'Ca1 Ta8 Pb1 O22'
_cell_volume   418.89275719
_cell_formula_units_Z   1
loop_
 _symmetry_equiv_pos_site_id
 _symmetry_equiv_pos_as_xyz
  1  'x, y, z'
loop_
 _atom_site_type_symbol
 _atom_site_label
 _atom_site_symmetry_multiplicity
 _atom_site_fract_x
 _atom_site_fract_y
 _atom_site_fract_z
 _atom_site_occupancy
  Ca  Ca0  1  0.66666700  0.33333300  0.25000000  1
  Ta  Ta0  1  0.66666700  0.33333300  0.75000000  1
  Ta  Ta1  1  0.33333300  0.66666700  0.25000000  1
  Ta  Ta2  1  0.64330402  0.00087411  0.49813387  1
  Ta  Ta3  1  0.64330402  0.64243092  0.00186613  1
  Ta  Ta4  1  0.99912589  0.35669598  0.00186613  1
  Ta  Ta5  1  0.99912589  0.64243092  0.49813387  1
  Ta  Ta6  1  0.35756908  0.35669598  0.49813387  1
  Ta  Ta7  1  0.35756908  0.00087411  0.00186613  1
  Pb  Pb0  1  0.33333300  0.66666700  0.75000000  1
  O  O0  1  0.33333300  0.66666700  0.53043177  1
  O  O1  1  0.66666700  0.33333300  0.03611749  1
  O  O2  1  0.66666700  0.33333300  0.46388251  1
  O  O3  1  0.33333300  0.66666700  0.96956823  1
  O  O4  1  0.24484726  0.99954166  0.49820062  1
  O  O5  1  0.24484726  0.24530561  0.00179938  1
  O  O6  1  0.00045834  0.75515274  0.00179938  1
  O  O7  1  0.00045834  0.24530561  0.49820062  1
  O  O8  1  0.75469439  0.75515274  0.49820062  1
  O  O9  1  0.75469439  0.99954166  0.00179938  1
  O  O10  1  0.37884492  0.94519085  0.15663975  1
  O  O11  1  0.43462602  0.37157401  0.65306996  1
  O  O12  1  0.93694699  0.56537398  0.65306996  1
  O  O13  1  0.05480915  0.43365407  0.15663975  1
  O  O14  1  0.56634593  0.62115508  0.15663975  1
  O  O15  1  0.43462602  0.06305301  0.84693004  1
  O  O16  1  0.62842599  0.56537398  0.84693004  1
  O  O17  1  0.62842599  0.06305301  0.65306996  1
  O  O18  1  0.93694699  0.37157401  0.84693004  1
  O  O19  1  0.05480915  0.62115508  0.34336025  1
  O  O20  1  0.56634593  0.94519085  0.34336025  1
  O  O21  1  0.37884492  0.43365407  0.34336025  1
loop_
_geom_bond_atom_site_label_1
_geom_bond_atom_site_label_2
_geom_bond_distance
_geom_bond_site_symmetry_2
Ca0 O20 2.469292 1_545
Ca0 O13 2.469292 1_655
Ca0 O10 2.469294 1_545
Ca0 O19 2.469294 1_655
Ca0 O14 2.469298 1_555
Ca0 O21 2.469298 1_555
Ca0 O2 2.643439 1_555
Ca0 O1 2.643439 1_555
O0 Ta2 2.058306 1_565
O0 Ta6 2.058306 1_555
O0 Ta5 2.058306 1_455
O0 Pb0 2.713711 1_555
O1 Ta4 2.054814 1_555
O1 Ta7 2.054820 1_555
O1 Ta3 2.054826 1_555
O2 Ta2 2.054814 1_555
O2 Ta5 2.054820 1_555
O2 Ta6 2.054827 1_555
O3 Ta7 2.058306 1_566
O3 Ta4 2.058306 1_456
O3 Ta3 2.058306 1_556
O3 Pb0 2.713711 1_555
O4 Ta6 1.978349 1_565
O4 Ta5 1.979842 1_455
O4 Ta2 2.488545 1_565
O5 Ta7 1.978343 1_555
O5 Ta4 1.979847 1_455
O5 Ta3 2.488547 1_555
O6 Ta3 1.978349 1_455
O6 Ta7 1.979842 1_565
O6 Ta4 2.488544 1_455
O7 Ta2 1.978348 1_455
O7 Ta6 1.979841 1_555
O7 Ta5 2.488551 1_455
O8 Ta5 1.978343 1_555
O8 Ta2 1.979847 1_565
O8 Ta6 2.488547 1_555
O9 Ta4 1.978347 1_565
O9 Ta3 1.979840 1_555
O9 Ta7 2.488551 1_565
O10 Ta7 1.960763 1_565
O10 Ta1 1.988061 1_555
O11 Ta6 1.965459 1_555
O11 Ta0 1.986678 1_555
O11 Pb0 2.532688 1_555
O12 Ta5 1.965459 1_555
O12 Ta0 1.986672 1_555
O12 Pb0 2.532688 1_655
O13 Ta4 1.960762 1_455
O13 Ta1 1.988063 1_555
O14 Ta3 1.960762 1_555
O14 Ta1 1.988066 1_555
O15 Ta7 1.965459 1_556
O15 Ta0 1.986672 1_555
O15 Pb0 2.532688 1_545
O16 Ta3 1.965459 1_556
O16 Ta0 1.986678 1_555
O16 Pb0 2.532688 1_555
O17 Ta2 1.965459 1_555
O17 Ta0 1.986668 1_555
O17 Pb0 2.532688 1_545
O18 Ta4 1.965459 1_556
O18 Ta0 1.986668 1_555
O18 Pb0 2.532688 1_655
O19 Ta5 1.960763 1_455
O19 Ta1 1.988061 1_555
O20 Ta2 1.960762 1_565
O20 Ta1 1.988063 1_555
O21 Ta6 1.960762 1_555
O21 Ta1 1.988066 1_555
