# generated using pymatgen
data_Ca3Al12(OsPd)2
_symmetry_space_group_name_H-M   'P 1'
_cell_length_a   8.84449735
_cell_length_b   8.87651903
_cell_length_c   9.55641756
_cell_angle_alpha   90.00000000
_cell_angle_beta   90.00000000
_cell_angle_gamma   119.88073782
_symmetry_Int_Tables_number   1
_chemical_formula_structural   Ca3Al12(OsPd)2
_chemical_formula_sum   'Ca6 Al24 Os4 Pd4'
_cell_volume   650.52240722
_cell_formula_units_Z   2
loop_
 _symmetry_equiv_pos_site_id
 _symmetry_equiv_pos_as_xyz
  1  'x, y, z'
loop_
 _atom_site_type_symbol
 _atom_site_label
 _atom_site_symmetry_multiplicity
 _atom_site_fract_x
 _atom_site_fract_y
 _atom_site_fract_z
 _atom_site_occupancy
  Ca  Ca0  1  0.18905075  0.37810151  0.25000000  1
  Ca  Ca1  1  0.81094925  0.62189849  0.75000000  1
  Ca  Ca2  1  0.61103131  0.80794121  0.25000000  1
  Ca  Ca3  1  0.38896869  0.19205879  0.75000000  1
  Ca  Ca4  1  0.19690890  0.80794121  0.25000000  1
  Ca  Ca5  1  0.80309110  0.19205879  0.75000000  1
  Al  Al0  1  0.33612369  0.67224839  0.99958840  1
  Al  Al1  1  0.66387631  0.32775161  0.00041160  1
  Al  Al2  1  0.66387631  0.32775161  0.49958840  1
  Al  Al3  1  0.33612369  0.67224839  0.50041160  1
  Al  Al4  1  0.16039252  0.32078403  0.58086556  1
  Al  Al5  1  0.83960748  0.67921597  0.41913444  1
  Al  Al6  1  0.67753163  0.84566737  0.57909663  1
  Al  Al7  1  0.83960748  0.67921597  0.08086556  1
  Al  Al8  1  0.32246837  0.15433263  0.42090337  1
  Al  Al9  1  0.16039252  0.32078403  0.91913444  1
  Al  Al10  1  0.16813674  0.84566737  0.57909663  1
  Al  Al11  1  0.32246837  0.15433263  0.07909663  1
  Al  Al12  1  0.83186326  0.15433263  0.42090337  1
  Al  Al13  1  0.67753163  0.84566737  0.92090337  1
  Al  Al14  1  0.83186326  0.15433263  0.07909663  1
  Al  Al15  1  0.16813674  0.84566737  0.92090337  1
  Al  Al16  1  0.55988093  0.11976286  0.25000000  1
  Al  Al17  1  0.44011907  0.88023714  0.75000000  1
  Al  Al18  1  0.87350152  0.43477333  0.25000000  1
  Al  Al19  1  0.12649848  0.56522667  0.75000000  1
  Al  Al20  1  0.56127181  0.43477333  0.25000000  1
  Al  Al21  1  0.43872819  0.56522667  0.75000000  1
  Al  Al22  1  0.99880830  0.99761761  0.25000000  1
  Al  Al23  1  0.00119170  0.00238239  0.75000000  1
  Os  Os0  1  0.50000000  0.00000000  0.00000000  1
  Os  Os1  1  0.50000000  0.00000000  0.50000000  1
  Os  Os2  1  0.00000000  0.00000000  0.00000000  1
  Os  Os3  1  0.00000000  0.00000000  0.50000000  1
  Pd  Pd0  1  0.00000000  0.50000000  0.00000000  1
  Pd  Pd1  1  0.50000000  0.50000000  0.00000000  1
  Pd  Pd2  1  0.00000000  0.50000000  0.50000000  1
  Pd  Pd3  1  0.50000000  0.50000000  0.50000000  1
loop_
_geom_bond_atom_site_label_1
_geom_bond_atom_site_label_2
_geom_bond_distance
_geom_bond_site_symmetry_2
Ca0 Pd0 3.387786 1_555
Ca0 Pd2 3.387786 1_555
Ca0 Pd1 3.387786 1_555
Ca0 Pd3 3.387786 1_555
Ca0 Ca2 3.781331 1_555
Ca0 Ca4 3.781335 1_555
Ca1 Pd0 3.387786 1_656
Ca1 Pd2 3.387786 1_655
Ca1 Pd3 3.387786 1_555
Ca1 Pd1 3.387786 1_556
Ca1 Ca3 3.781331 1_555
Ca1 Ca5 3.781335 1_555
Ca2 Os1 3.353607 1_565
Ca2 Os0 3.353607 1_565
Ca2 Pd1 3.386635 1_555
Ca2 Pd3 3.386635 1_555
Ca2 Ca4 3.662705 1_555
Ca3 Os1 3.353607 1_555
Ca3 Os0 3.353607 1_556
Ca3 Pd3 3.386635 1_555
Ca3 Pd1 3.386635 1_556
Ca3 Ca5 3.662705 1_555
Ca4 Os1 3.353612 1_565
Ca4 Os0 3.353612 1_565
Ca4 Pd0 3.386634 1_555
Ca4 Pd2 3.386634 1_555
Ca5 Os1 3.353612 1_555
Ca5 Os0 3.353612 1_556
Ca5 Pd0 3.386634 1_656
Ca5 Pd2 3.386634 1_655
Al0 Os0 2.522547 1_566
Al0 Pd0 2.578096 1_556
Al0 Pd1 2.578104 1_556
Al0 Al15 2.724223 1_555
Al0 Al13 2.724238 1_555
Al0 Al9 2.812193 1_555
Al0 Al17 2.872553 1_555
Al0 Al19 2.876455 1_555
Al0 Al21 2.876459 1_555
Al0 Ca4 3.189228 1_556
Al0 Ca2 3.189228 1_556
Al0 Ca0 3.294222 1_556
Al1 Os0 2.522547 1_555
Al1 Pd0 2.578096 1_655
Al1 Pd1 2.578104 1_555
Al1 Al14 2.724223 1_555
Al1 Al11 2.724238 1_555
Al1 Al7 2.812193 1_555
Al1 Al16 2.872553 1_555
Al1 Al18 2.876455 1_555
Al1 Al20 2.876459 1_555
Al1 Ca5 3.189228 1_554
Al1 Ca3 3.189228 1_554
Al1 Ca1 3.294222 1_554
Al2 Os1 2.522547 1_555
Al2 Pd2 2.578096 1_655
Al2 Pd3 2.578104 1_555
Al2 Al8 2.724238 1_555
Al2 Al5 2.812193 1_555
Al2 Al20 2.876459 1_555
Al2 Ca5 3.189228 1_555
Al2 Ca3 3.189228 1_555
Al2 Ca1 3.294222 1_555
Al3 Os1 2.522547 1_565
Al3 Pd2 2.578096 1_555
Al3 Pd3 2.578104 1_555
Al3 Al6 2.724238 1_555
Al3 Al4 2.812193 1_555
Al3 Ca4 3.189228 1_555
Al3 Ca2 3.189228 1_555
Al3 Ca0 3.294222 1_555
Al4 Os3 2.587036 1_555
Al4 Pd3 2.718239 1_555
Al4 Pd2 2.718246 1_555
Al4 Al8 2.947041 1_555
Al4 Ca0 3.192515 1_555
Al4 Ca3 3.210419 1_555
Al4 Ca5 3.210419 1_455
Al5 Os3 2.587036 1_665
Al5 Pd3 2.718239 1_555
Al5 Pd2 2.718246 1_655
Al5 Al6 2.947041 1_555
Al5 Ca1 3.192515 1_555
Al5 Ca2 3.210419 1_555
Al5 Ca4 3.210419 1_655
Al6 Os3 2.586373 1_665
Al6 Os1 2.656468 1_565
Al6 Pd3 2.766042 1_555
Al6 Ca5 3.154761 1_565
Al6 Ca2 3.186339 1_555
Al6 Ca1 3.215677 1_555
Al7 Os2 2.587036 1_665
Al7 Pd1 2.718239 1_555
Al7 Pd0 2.718246 1_655
Al7 Ca1 3.192515 1_554
Al7 Ca2 3.210419 1_555
Al7 Ca4 3.210419 1_655
Al8 Os3 2.586373 1_555
Al8 Os1 2.656468 1_555
Al8 Pd3 2.766042 1_555
Al8 Ca4 3.154761 1_545
Al8 Ca3 3.186339 1_555
Al8 Ca0 3.215677 1_555
Al9 Os2 2.587036 1_556
Al9 Pd1 2.718239 1_556
Al9 Pd0 2.718246 1_556
Al9 Ca0 3.192515 1_556
Al9 Ca3 3.210419 1_555
Al9 Ca5 3.210419 1_455
Al10 Os3 2.586381 1_565
Al10 Os1 2.656461 1_565
Al10 Al3 2.724223 1_555
Al10 Pd2 2.766042 1_555
Al10 Al17 2.795128 1_555
Al10 Al8 2.815868 1_565
Al10 Al19 2.843660 1_555
Al10 Al5 2.947054 1_455
Al10 Al23 2.971415 1_565
Al10 Ca3 3.154761 1_565
Al10 Ca4 3.186337 1_555
Al10 Ca1 3.215683 1_455
Al11 Os2 2.586373 1_555
Al11 Os0 2.656468 1_555
Al11 Pd1 2.766042 1_555
Al11 Al16 2.795128 1_555
Al11 Al15 2.815868 1_544
Al11 Al20 2.843663 1_555
Al11 Al9 2.947041 1_554
Al11 Al22 2.971415 1_445
Al11 Ca4 3.154761 1_545
Al11 Ca3 3.186339 1_554
Al11 Ca0 3.215677 1_555
Al12 Os3 2.586381 1_655
Al12 Os1 2.656461 1_555
Al12 Al2 2.724223 1_555
Al12 Pd2 2.766042 1_655
Al12 Al16 2.795128 1_555
Al12 Al6 2.815868 1_545
Al12 Al18 2.843660 1_555
Al12 Al4 2.947054 1_655
Al12 Al22 2.971415 1_545
Al12 Ca2 3.154761 1_545
Al12 Ca5 3.186337 1_555
Al12 Ca0 3.215683 1_655
Al13 Os2 2.586373 1_666
Al13 Os0 2.656468 1_566
Al13 Pd1 2.766042 1_556
Al13 Al17 2.795128 1_555
Al13 Al14 2.815868 1_566
Al13 Al21 2.843663 1_555
Al13 Al7 2.947041 1_556
Al13 Al23 2.971415 1_665
Al13 Ca5 3.154761 1_565
Al13 Ca2 3.186339 1_556
Al13 Ca1 3.215677 1_555
Al14 Os2 2.586381 1_655
Al14 Os0 2.656461 1_555
Al14 Pd0 2.766042 1_655
Al14 Al16 2.795128 1_555
Al14 Al18 2.843660 1_555
Al14 Al9 2.947054 1_654
Al14 Al22 2.971415 1_545
Al14 Ca2 3.154761 1_545
Al14 Ca5 3.186337 1_554
Al14 Ca0 3.215683 1_655
Al15 Os2 2.586381 1_566
Al15 Os0 2.656461 1_566
Al15 Pd0 2.766042 1_556
Al15 Al17 2.795128 1_555
Al15 Al19 2.843660 1_555
Al15 Al7 2.947054 1_456
Al15 Al23 2.971415 1_565
Al15 Ca3 3.154761 1_565
Al15 Ca4 3.186337 1_556
Al15 Ca1 3.215683 1_455
Al16 Os0 2.560753 1_555
Al16 Os1 2.560753 1_555
Al16 Al20 2.790088 1_555
Al16 Al18 2.790093 1_555
Al16 Al8 2.795128 1_555
Al16 Al2 2.872553 1_555
Al16 Ca2 3.018867 1_545
Al16 Ca4 3.018867 1_545
Al17 Os0 2.560753 1_566
Al17 Os1 2.560753 1_565
Al17 Al21 2.790088 1_555
Al17 Al19 2.790093 1_555
Al17 Al6 2.795128 1_555
Al17 Al3 2.872553 1_555
Al17 Ca3 3.018867 1_565
Al17 Ca5 3.018867 1_565
Al18 Pd0 2.578634 1_655
Al18 Pd2 2.578634 1_655
Al18 Al20 2.761515 1_555
Al18 Al7 2.838748 1_555
Al18 Al5 2.838748 1_555
Al18 Al2 2.876455 1_555
Al18 Ca0 3.072608 1_655
Al18 Ca4 3.116622 1_655
Al19 Pd2 2.578634 1_555
Al19 Pd0 2.578634 1_556
Al19 Al21 2.761515 1_555
Al19 Al4 2.838748 1_555
Al19 Al9 2.838748 1_555
Al19 Al3 2.876455 1_555
Al19 Ca1 3.072608 1_455
Al19 Ca5 3.116622 1_455
Al20 Pd1 2.578634 1_555
Al20 Pd3 2.578634 1_555
Al20 Al7 2.838744 1_555
Al20 Al5 2.838744 1_555
Al20 Al8 2.843663 1_555
Al20 Ca0 3.072608 1_555
Al20 Ca2 3.116626 1_555
Al21 Pd3 2.578634 1_555
Al21 Pd1 2.578634 1_556
Al21 Al4 2.838744 1_555
Al21 Al9 2.838744 1_555
Al21 Al6 2.843663 1_555
Al21 Al3 2.876459 1_555
Al21 Ca1 3.072608 1_555
Al21 Ca3 3.116626 1_555
Al22 Os2 2.389175 1_665
Al22 Os3 2.389175 1_665
Al22 Ca0 2.928399 1_665
Al22 Al7 2.935616 1_555
Al22 Al5 2.935616 1_555
Al22 Al8 2.971415 1_665
Al22 Ca4 2.973869 1_655
Al22 Ca2 2.973869 1_555
Al23 Os2 2.389175 1_556
Al23 Os3 2.389175 1_555
Al23 Ca1 2.928399 1_445
Al23 Al4 2.935616 1_555
Al23 Al9 2.935616 1_555
Al23 Al6 2.971415 1_445
Al23 Ca5 2.973869 1_455
Al23 Ca3 2.973869 1_555
