# generated using pymatgen
data_CaY3(Rh2O7)2
_symmetry_space_group_name_H-M   'P 1'
_cell_length_a   7.17488279
_cell_length_b   7.15413922
_cell_length_c   7.17488270
_cell_angle_alpha   59.90403413
_cell_angle_beta   59.99999596
_cell_angle_gamma   59.90403548
_symmetry_Int_Tables_number   1
_chemical_formula_structural   CaY3(Rh2O7)2
_chemical_formula_sum   'Ca1 Y3 Rh4 O14'
_cell_volume   260.04021541
_cell_formula_units_Z   1
loop_
 _symmetry_equiv_pos_site_id
 _symmetry_equiv_pos_as_xyz
  1  'x, y, z'
loop_
 _atom_site_type_symbol
 _atom_site_label
 _atom_site_symmetry_multiplicity
 _atom_site_fract_x
 _atom_site_fract_y
 _atom_site_fract_z
 _atom_site_occupancy
  Ca  Ca0  1  0.12500000  0.62500000  0.12500000  1
  Y  Y0  1  0.12500000  0.12500000  0.62500000  1
  Y  Y1  1  0.62500000  0.12500000  0.12500000  1
  Y  Y2  1  0.12500000  0.12500000  0.12500000  1
  Rh  Rh0  1  0.62500000  0.62500000  0.62500000  1
  Rh  Rh1  1  0.12500000  0.62500000  0.62500000  1
  Rh  Rh2  1  0.62500000  0.62500000  0.12500000  1
  Rh  Rh3  1  0.62500000  0.12500000  0.62500000  1
  O  O0  1  0.29390428  0.71261622  0.69957522  1
  O  O1  1  0.54156825  0.95949420  0.95736929  1
  O  O2  1  0.69957522  0.71261622  0.29390428  1
  O  O3  1  0.29263071  0.29050580  0.70843175  1
  O  O4  1  0.99706270  0.00880990  0.99706270  1
  O  O5  1  0.29390428  0.71261622  0.29390428  1
  O  O6  1  0.70843175  0.29050580  0.70843175  1
  O  O7  1  0.95609572  0.53738378  0.95609572  1
  O  O8  1  0.55042478  0.53738378  0.95609572  1
  O  O9  1  0.95736929  0.95949420  0.54156825  1
  O  O10  1  0.25293730  0.24119010  0.25293730  1
  O  O11  1  0.54156825  0.95949420  0.54156825  1
  O  O12  1  0.70843175  0.29050580  0.29263071  1
  O  O13  1  0.95609572  0.53738378  0.55042478  1
loop_
_geom_bond_atom_site_label_1
_geom_bond_atom_site_label_2
_geom_bond_distance
_geom_bond_site_symmetry_2
Ca0 O4 2.238703 1_464
Ca0 O10 2.238703 1_555
Ca0 O13 2.514443 1_455
Ca0 O0 2.514443 1_554
Ca0 O8 2.514443 1_554
Ca0 O2 2.514443 1_455
Ca0 O5 2.514443 1_555
Ca0 O7 2.514443 1_454
O0 Rh0 1.973435 1_555
O0 Rh1 1.973435 1_555
O0 Y0 2.436902 1_565
O1 Rh3 1.974507 1_565
O1 Rh2 1.981983 1_556
O1 Y2 2.462908 1_566
O1 Y1 2.462908 1_566
O2 Rh0 1.973435 1_555
O2 Rh2 1.973435 1_555
O2 Y1 2.436902 1_565
O3 Rh3 1.974507 1_555
O3 Rh1 1.981983 1_555
O3 Y2 2.462908 1_556
O3 Y0 2.462908 1_555
O4 Y0 2.179265 1_655
O4 Y1 2.179265 1_556
O4 Y2 2.179277 1_656
O5 Rh1 1.973435 1_555
O5 Rh2 1.973435 1_555
O5 Y2 2.436902 1_565
O6 Rh3 1.974507 1_555
O6 Rh0 1.981983 1_555
O6 Y1 2.462908 1_556
O6 Y0 2.462908 1_655
O7 Rh1 1.973435 1_655
O7 Rh2 1.973435 1_556
O7 Y2 2.436902 1_656
O8 Rh0 1.973435 1_555
O8 Rh2 1.973435 1_556
O8 Y1 2.436902 1_556
O9 Rh3 1.974507 1_565
O9 Rh1 1.981983 1_655
O9 Y2 2.462908 1_665
O9 Y0 2.462908 1_665
O10 Y0 2.179265 1_555
O10 Y1 2.179265 1_555
O10 Y2 2.179277 1_555
O11 Rh3 1.974507 1_565
O11 Rh0 1.981983 1_555
O11 Y1 2.462908 1_565
O11 Y0 2.462908 1_565
O12 Rh3 1.974507 1_555
O12 Rh2 1.981983 1_555
O12 Y2 2.462908 1_655
O12 Y1 2.462908 1_555
O13 Rh0 1.973435 1_555
O13 Rh1 1.973435 1_655
O13 Y0 2.436902 1_655
