# generated using pymatgen
data_ZrAl5Ni2
_symmetry_space_group_name_H-M   'P 1'
_cell_length_a   3.99434216
_cell_length_b   3.99434308
_cell_length_c   7.76541317
_cell_angle_alpha   104.90325915
_cell_angle_beta   104.90326972
_cell_angle_gamma   90.00000011
_symmetry_Int_Tables_number   1
_chemical_formula_structural   ZrAl5Ni2
_chemical_formula_sum   'Zr1 Al5 Ni2'
_cell_volume   115.40967082
_cell_formula_units_Z   1
loop_
 _symmetry_equiv_pos_site_id
 _symmetry_equiv_pos_as_xyz
  1  'x, y, z'
loop_
 _atom_site_type_symbol
 _atom_site_label
 _atom_site_symmetry_multiplicity
 _atom_site_fract_x
 _atom_site_fract_y
 _atom_site_fract_z
 _atom_site_occupancy
  Zr  Zr0  1  -0.00000000  -0.00000000  0.00000000  1
  Al  Al0  1  0.50000000  0.50000000  0.00000000  1
  Al  Al1  1  0.64823299  0.14823299  0.29646599  1
  Al  Al2  1  0.14823299  0.64823299  0.29646599  1
  Al  Al3  1  0.35176701  0.85176701  0.70353401  1
  Al  Al4  1  0.85176701  0.35176701  0.70353401  1
  Ni  Ni0  1  0.23970856  0.23970856  0.47941712  1
  Ni  Ni1  1  0.76029144  0.76029144  0.52058288  1
loop_
_geom_bond_atom_site_label_1
_geom_bond_atom_site_label_2
_geom_bond_distance
_geom_bond_site_symmetry_2
Al0 Zr0 2.824427 1_665
Al0 Zr0 2.824427 1_555
Al0 Zr0 2.824427 1_655
Al0 Zr0 2.824427 1_565
Al0 Al1 2.930457 1_555
Al0 Al3 2.930457 1_554
Al0 Al4 2.930457 1_554
Al0 Al2 2.930457 1_555
Al0 Al2 2.930458 1_655
Al0 Al4 2.930458 1_454
Al0 Al3 2.930458 1_544
Al0 Al1 2.930458 1_565
Al1 Ni0 2.395839 1_555
Al1 Ni0 2.395839 1_655
Al1 Ni1 2.572325 1_545
Al1 Ni1 2.572326 1_555
Al1 Zr0 2.930457 1_655
Al1 Zr0 2.930458 1_555
Al2 Ni0 2.395839 1_555
Al2 Ni0 2.395840 1_565
Al2 Ni1 2.572325 1_455
Al2 Ni1 2.572325 1_555
Al2 Zr0 2.930457 1_565
Al2 Zr0 2.930458 1_555
Al3 Ni1 2.395839 1_555
Al3 Ni1 2.395839 1_455
Al3 Ni0 2.572325 1_565
Al3 Ni0 2.572326 1_555
Al3 Zr0 2.930457 1_566
Al3 Zr0 2.930458 1_666
Al4 Ni1 2.395839 1_555
Al4 Ni1 2.395840 1_545
Al4 Ni0 2.572325 1_655
Al4 Ni0 2.572325 1_555
Al4 Zr0 2.930457 1_656
Al4 Zr0 2.930458 1_666
