# generated using pymatgen
data_CaZnCdPd3
_symmetry_space_group_name_H-M   'P 1'
_cell_length_a   5.15533280
_cell_length_b   5.15533248
_cell_length_c   5.15533269
_cell_angle_alpha   64.51051459
_cell_angle_beta   64.51051818
_cell_angle_gamma   64.51051602
_symmetry_Int_Tables_number   1
_chemical_formula_structural   CaZnCdPd3
_chemical_formula_sum   'Ca1 Zn1 Cd1 Pd3'
_cell_volume   106.46792329
_cell_formula_units_Z   1
loop_
 _symmetry_equiv_pos_site_id
 _symmetry_equiv_pos_as_xyz
  1  'x, y, z'
loop_
 _atom_site_type_symbol
 _atom_site_label
 _atom_site_symmetry_multiplicity
 _atom_site_fract_x
 _atom_site_fract_y
 _atom_site_fract_z
 _atom_site_occupancy
  Ca  Ca0  1  0.12400908  0.12400908  0.12400908  1
  Zn  Zn0  1  0.50086117  0.50086117  0.50086117  1
  Cd  Cd0  1  0.87123088  0.87123088  0.87123088  1
  Pd  Pd0  1  0.50221408  0.50221408  0.99947070  1
  Pd  Pd1  1  0.99947070  0.50221408  0.50221408  1
  Pd  Pd2  1  0.50221408  0.99947070  0.50221408  1
loop_
_geom_bond_atom_site_label_1
_geom_bond_atom_site_label_2
_geom_bond_distance
_geom_bond_site_symmetry_2
Ca0 Pd1 3.022016 1_455
Ca0 Pd0 3.022016 1_554
Ca0 Pd2 3.022016 1_545
Ca0 Cd0 3.078889 1_444
Ca0 Pd1 3.131129 1_445
Ca0 Pd0 3.131129 1_544
Ca0 Pd1 3.131129 1_454
Ca0 Pd0 3.131129 1_454
Ca0 Pd2 3.131129 1_544
Ca0 Pd2 3.131129 1_445
Ca0 Zn0 3.220913 1_545
Ca0 Zn0 3.220914 1_554
Ca0 Zn0 3.220914 1_455
Ca0 Cd0 3.325060 1_454
Ca0 Cd0 3.325060 1_445
Ca0 Cd0 3.325060 1_544
Cd0 Pd1 2.936889 1_555
Cd0 Pd0 2.936889 1_555
Cd0 Pd2 2.936889 1_555
Cd0 Pd1 3.174894 1_565
Cd0 Pd0 3.174894 1_565
Cd0 Pd1 3.174894 1_556
Cd0 Pd0 3.174894 1_655
Cd0 Pd2 3.174894 1_556
Cd0 Pd2 3.174894 1_655
Cd0 Zn0 3.208865 1_565
Cd0 Zn0 3.208865 1_556
Cd0 Zn0 3.208865 1_655
Pd0 Zn0 2.576521 1_555
Pd0 Zn0 2.578852 1_556
Pd0 Pd2 2.736264 1_555
Pd0 Pd1 2.736265 1_555
Pd0 Pd2 2.766456 1_546
Pd0 Pd1 2.766457 1_456
Pd1 Zn0 2.576521 1_555
Pd1 Zn0 2.578852 1_655
Pd1 Pd2 2.736264 1_555
Pd1 Pd2 2.766456 1_645
Pd2 Zn0 2.576521 1_555
Pd2 Zn0 2.578852 1_565
