# generated using pymatgen
data_CsSb12PdRu3
_symmetry_space_group_name_H-M   'P 1'
_cell_length_a   8.17113024
_cell_length_b   8.17113066
_cell_length_c   8.17112887
_cell_angle_alpha   109.54546741
_cell_angle_beta   109.54546874
_cell_angle_gamma   109.54547760
_symmetry_Int_Tables_number   1
_chemical_formula_structural   CsSb12PdRu3
_chemical_formula_sum   'Cs1 Sb12 Pd1 Ru3'
_cell_volume   418.81746932
_cell_formula_units_Z   1
loop_
 _symmetry_equiv_pos_site_id
 _symmetry_equiv_pos_as_xyz
  1  'x, y, z'
loop_
 _atom_site_type_symbol
 _atom_site_label
 _atom_site_symmetry_multiplicity
 _atom_site_fract_x
 _atom_site_fract_y
 _atom_site_fract_z
 _atom_site_occupancy
  Cs  Cs0  1  0.00000000  0.00000000  0.00000000  1
  Sb  Sb0  1  0.65679534  0.84903558  0.49492713  1
  Sb  Sb1  1  0.34320466  0.15096442  0.50507287  1
  Sb  Sb2  1  0.84041376  0.18248729  0.34264282  1
  Sb  Sb3  1  0.81751271  0.65735718  0.15958624  1
  Sb  Sb4  1  0.84903558  0.49492713  0.65679534  1
  Sb  Sb5  1  0.18248729  0.34264282  0.84041376  1
  Sb  Sb6  1  0.15958624  0.81751271  0.65735718  1
  Sb  Sb7  1  0.49492713  0.65679534  0.84903558  1
  Sb  Sb8  1  0.50507287  0.34320466  0.15096442  1
  Sb  Sb9  1  0.15096442  0.50507287  0.34320466  1
  Sb  Sb10  1  0.34264282  0.84041376  0.18248729  1
  Sb  Sb11  1  0.65735718  0.15958624  0.81751271  1
  Pd  Pd0  1  0.50000000  0.50000000  0.50000000  1
  Ru  Ru0  1  0.00000000  0.00000000  0.50000000  1
  Ru  Ru1  1  0.50000000  0.00000000  0.00000000  1
  Ru  Ru2  1  0.00000000  0.50000000  0.00000000  1
loop_
_geom_bond_atom_site_label_1
_geom_bond_atom_site_label_2
_geom_bond_distance
_geom_bond_site_symmetry_2
Cs0 Sb5 3.565546 1_554
Cs0 Sb3 3.565546 1_445
Cs0 Sb2 3.565546 1_455
Cs0 Sb6 3.565546 1_544
Cs0 Sb10 3.565546 1_545
Cs0 Sb11 3.565546 1_454
Cs0 Sb1 3.599070 1_555
Cs0 Sb0 3.599070 1_444
Cs0 Sb8 3.599070 1_555
Cs0 Sb7 3.599070 1_444
Cs0 Sb9 3.599071 1_555
Cs0 Sb4 3.599071 1_444
Sb0 Sb10 2.913032 1_555
Sb0 Sb11 2.982570 1_565
Sb1 Sb11 2.913032 1_555
Sb1 Sb10 2.982570 1_545
Sb2 Sb4 2.913032 1_555
Sb2 Sb9 2.982570 1_655
Sb3 Sb8 2.913032 1_555
Sb3 Sb7 2.982570 1_554
Sb4 Sb6 2.982570 1_655
Sb5 Sb7 2.913032 1_555
Sb5 Sb8 2.982570 1_556
Sb6 Sb9 2.913032 1_555
Pd0 Sb7 2.728898 1_555
Pd0 Sb8 2.728898 1_555
Pd0 Sb0 2.728898 1_555
Pd0 Sb1 2.728898 1_555
Pd0 Sb4 2.728898 1_555
Pd0 Sb9 2.728898 1_555
Ru0 Sb0 2.638407 1_445
Ru0 Sb1 2.638407 1_555
Ru0 Sb5 2.649489 1_555
Ru0 Sb3 2.649489 1_445
Ru0 Sb6 2.653140 1_545
Ru0 Sb2 2.653140 1_455
Ru1 Sb8 2.638407 1_555
Ru1 Sb7 2.638407 1_544
Ru1 Sb2 2.649489 1_555
Ru1 Sb6 2.649489 1_544
Ru1 Sb11 2.653140 1_554
Ru1 Sb10 2.653140 1_545
Ru2 Sb9 2.638406 1_555
Ru2 Sb4 2.638406 1_454
Ru2 Sb10 2.649490 1_555
Ru2 Sb11 2.649490 1_454
Ru2 Sb3 2.653140 1_455
Ru2 Sb5 2.653140 1_554
