# generated using pymatgen
data_CaAl2GaAu
_symmetry_space_group_name_H-M   'P 1'
_cell_length_a   4.10019488
_cell_length_b   4.10011489
_cell_length_c   6.52091100
_cell_angle_alpha   71.52682220
_cell_angle_beta   71.52677188
_cell_angle_gamma   89.98965700
_symmetry_Int_Tables_number   1
_chemical_formula_structural   CaAl2GaAu
_chemical_formula_sum   'Ca1 Al2 Ga1 Au1'
_cell_volume   98.00446415
_cell_formula_units_Z   1
loop_
 _symmetry_equiv_pos_site_id
 _symmetry_equiv_pos_as_xyz
  1  'x, y, z'
loop_
 _atom_site_type_symbol
 _atom_site_label
 _atom_site_symmetry_multiplicity
 _atom_site_fract_x
 _atom_site_fract_y
 _atom_site_fract_z
 _atom_site_occupancy
  Ca  Ca0  1  0.99613724  0.99613212  0.00834151  1
  Al  Al0  1  0.74987967  0.25135651  0.49865629  1
  Al  Al1  1  0.25135908  0.74987374  0.49866306  1
  Ga  Ga0  1  0.39034614  0.39036961  0.21979813  1
  Au  Au0  1  0.61227787  0.61226802  0.77454301  1
loop_
_geom_bond_atom_site_label_1
_geom_bond_atom_site_label_2
_geom_bond_distance
_geom_bond_site_symmetry_2
Ca0 Ga0 3.146595 1_555
Ca0 Ga0 3.150118 1_655
Ca0 Ga0 3.150280 1_565
Ca0 Ga0 3.154760 1_665
Al0 Au0 2.605402 1_555
Al0 Au0 2.605934 1_545
Al0 Ga0 2.616317 1_655
Al0 Ga0 2.616538 1_555
Al0 Al1 2.890398 1_555
Al0 Al1 2.899512 1_545
Al0 Al1 2.899532 1_655
Al0 Al1 2.907573 1_645
Al1 Au0 2.605414 1_555
Al1 Au0 2.605936 1_455
Al1 Ga0 2.616387 1_565
Al1 Ga0 2.616456 1_555
Au0 Ga0 2.595737 1_556
Au0 Ca0 3.195169 1_446
Au0 Ca0 3.203403 1_546
Au0 Ca0 3.203438 1_456
Au0 Ca0 3.212596 1_556
