# generated using pymatgen
data_Zr3SiTc3As2
_symmetry_space_group_name_H-M   'P 1'
_cell_length_a   7.79727112
_cell_length_b   7.79727191
_cell_length_c   7.79727252
_cell_angle_alpha   126.84130607
_cell_angle_beta   126.99078785
_cell_angle_gamma   78.38775660
_symmetry_Int_Tables_number   1
_chemical_formula_structural   Zr3SiTc3As2
_chemical_formula_sum   'Zr6 Si2 Tc6 As4'
_cell_volume   293.44422052
_cell_formula_units_Z   2
loop_
 _symmetry_equiv_pos_site_id
 _symmetry_equiv_pos_as_xyz
  1  'x, y, z'
loop_
 _atom_site_type_symbol
 _atom_site_label
 _atom_site_symmetry_multiplicity
 _atom_site_fract_x
 _atom_site_fract_y
 _atom_site_fract_z
 _atom_site_occupancy
  Zr  Zr0  1  0.45023437  0.65369401  0.70345964  1
  Zr  Zr1  1  0.54976563  0.25322627  0.20345964  1
  Zr  Zr2  1  0.74998072  0.85303683  0.60305511  1
  Zr  Zr3  1  0.25001928  0.85307640  0.10305511  1
  Zr  Zr4  1  0.04986044  0.25325539  0.70339495  1
  Zr  Zr5  1  0.95013956  0.65353450  0.20339495  1
  Si  Si0  1  0.25010782  0.25354995  0.50344413  1
  Si  Si1  1  0.74989218  0.25333631  0.00344413  1
  Tc  Tc0  1  0.50000000  0.50126657  0.00126657  1
  Tc  Tc1  1  1.00000000  0.50126657  0.50126657  1
  Tc  Tc2  1  0.12378098  0.25324436  0.12917112  1
  Tc  Tc3  1  0.87621902  0.00539014  0.12946438  1
  Tc  Tc4  1  0.37592675  0.00539014  0.62917112  1
  Tc  Tc5  1  0.62407325  0.25324436  0.62946438  1
  As  As0  1  0.33328741  0.58661029  0.25322223  1
  As  As1  1  0.66671259  0.91993481  0.25332187  1
  As  As2  1  0.16661394  0.91993481  0.75322223  1
  As  As3  1  0.83338606  0.58661029  0.75332187  1
loop_
_geom_bond_atom_site_label_1
_geom_bond_atom_site_label_2
_geom_bond_distance
_geom_bond_site_symmetry_2
Si0 Tc0 2.452995 1_556
Si0 Tc1 2.453005 1_455
Si0 Tc5 2.453600 1_555
Si0 Tc2 2.453613 1_555
Si0 Tc4 2.453737 1_555
Si0 Tc3 2.453746 1_455
Si0 Zr0 2.792499 1_555
Si0 Zr4 2.793518 1_555
Si0 Zr3 2.793730 1_545
Si1 Tc0 2.452995 1_555
Si1 Tc1 2.452995 1_555
Si1 Tc4 2.453603 1_554
Si1 Tc3 2.453608 1_555
Si1 Tc5 2.453745 1_554
Si1 Tc2 2.453751 1_655
Si1 Zr1 2.792482 1_555
Si1 Zr5 2.793525 1_555
Si1 Zr2 2.793740 1_544
Tc0 Zr4 2.998266 1_554
Tc0 Zr5 2.998266 1_555
Tc0 Zr1 2.999134 1_555
Tc0 Zr0 2.999141 1_554
Tc0 Zr2 3.008699 1_555
Tc0 Zr3 3.008708 1_555
Tc1 Zr4 2.998267 1_655
Tc1 Zr5 2.998267 1_555
Tc1 Zr1 2.999137 1_555
Tc1 Zr0 2.999140 1_655
Tc1 Zr3 3.008700 1_656
Tc1 Zr2 3.008703 1_555
Tc2 Zr2 2.997220 1_444
Tc2 Zr5 2.997551 1_455
Tc2 Zr3 2.998156 1_545
Tc2 Zr0 2.999423 1_555
Tc2 Zr4 3.008579 1_554
Tc2 Zr1 3.008762 1_555
Tc3 Zr3 2.997224 1_645
Tc3 Zr4 2.997544 1_655
Tc3 Zr2 2.998181 1_544
Tc3 Zr1 2.999424 1_555
Tc3 Zr5 3.008574 1_545
Tc3 Zr0 3.008760 1_544
Tc4 Zr3 2.997229 1_545
Tc4 Zr4 2.997551 1_555
Tc4 Zr2 2.998169 1_545
Tc4 Zr1 2.999423 1_556
Tc4 Zr5 3.008579 1_445
Tc4 Zr0 3.008762 1_545
Tc5 Zr2 2.997213 1_545
Tc5 Zr5 2.997548 1_556
Tc5 Zr3 2.998165 1_545
Tc5 Zr0 2.999425 1_555
Tc5 Zr4 3.008583 1_655
Tc5 Zr1 3.008774 1_555
As0 Tc0 2.673805 1_555
As0 Tc4 2.674231 1_565
As0 Tc2 2.674633 1_555
As0 Zr5 2.750859 1_455
As0 Zr0 2.750861 1_555
As0 Zr4 2.750955 1_554
As0 Zr3 2.751164 1_555
As0 Zr1 2.751218 1_555
As0 Zr2 2.751254 1_555
As1 Tc0 2.673807 1_555
As1 Tc5 2.674240 1_565
As1 Tc3 2.674619 1_565
As1 Zr4 2.750859 1_665
As1 Zr1 2.750865 1_565
As1 Zr5 2.750954 1_555
As1 Zr2 2.751151 1_555
As1 Zr0 2.751218 1_554
As1 Zr3 2.751251 1_555
As2 Tc1 2.673809 1_455
As2 Tc2 2.674240 1_566
As2 Tc4 2.674619 1_565
As2 Zr1 2.750856 1_566
As2 Zr4 2.750860 1_565
As2 Zr5 2.750952 1_455
As2 Zr2 2.751163 1_455
As2 Zr0 2.751212 1_555
As2 Zr3 2.751246 1_556
As3 Tc1 2.673812 1_555
As3 Tc3 2.674231 1_566
As3 Tc5 2.674633 1_555
As3 Zr0 2.750849 1_555
As3 Zr5 2.750861 1_556
As3 Zr4 2.750963 1_655
As3 Zr3 2.751165 1_656
As3 Zr1 2.751217 1_555
As3 Zr2 2.751256 1_555
