# generated using pymatgen
data_Zr4Si4Au
_symmetry_space_group_name_H-M   'P 1'
_cell_length_a   5.30410073
_cell_length_b   5.30410128
_cell_length_c   8.86825463
_cell_angle_alpha   71.12176371
_cell_angle_beta   71.12176070
_cell_angle_gamma   42.54597646
_symmetry_Int_Tables_number   1
_chemical_formula_structural   Zr4Si4Au
_chemical_formula_sum   'Zr4 Si4 Au1'
_cell_volume   158.20796765
_cell_formula_units_Z   1
loop_
 _symmetry_equiv_pos_site_id
 _symmetry_equiv_pos_as_xyz
  1  'x, y, z'
loop_
 _atom_site_type_symbol
 _atom_site_label
 _atom_site_symmetry_multiplicity
 _atom_site_fract_x
 _atom_site_fract_y
 _atom_site_fract_z
 _atom_site_occupancy
  Zr  Zr0  1  0.10684654  0.10684654  0.61671269  1
  Zr  Zr1  1  0.89315346  0.89315346  0.38328731  1
  Zr  Zr2  1  0.75477403  0.75477403  0.83873516  1
  Zr  Zr3  1  0.24522597  0.24522597  0.16126484  1
  Si  Si0  1  0.38459898  0.38459898  0.61168078  1
  Si  Si1  1  0.61540102  0.61540102  0.38831922  1
  Si  Si2  1  0.45923879  0.45923879  0.84038665  1
  Si  Si3  1  0.54076121  0.54076121  0.15961335  1
  Au  Au0  1  0.00000000  0.00000000  0.00000000  1
loop_
_geom_bond_atom_site_label_1
_geom_bond_atom_site_label_2
_geom_bond_distance
_geom_bond_site_symmetry_2
Si0 Si2 2.386906 1_555
Si0 Si1 2.447613 1_555
Si0 Zr0 2.730516 1_555
Si0 Zr2 2.758673 1_455
Si0 Zr2 2.758674 1_545
Si0 Zr1 2.773796 1_545
Si0 Zr1 2.773796 1_455
Si0 Zr0 2.932605 1_655
Si0 Zr0 2.932606 1_565
Si1 Si3 2.386906 1_555
Si1 Zr1 2.730516 1_555
Si1 Zr3 2.758673 1_655
Si1 Zr3 2.758674 1_565
Si1 Zr0 2.773796 1_565
Si1 Zr0 2.773796 1_655
Si1 Zr1 2.932605 1_455
Si1 Zr1 2.932606 1_545
Si2 Zr0 2.785162 1_655
Si2 Zr0 2.785163 1_565
Si2 Zr2 2.794522 1_455
Si2 Zr2 2.794522 1_545
Si2 Zr3 2.897021 1_556
Si2 Zr2 2.916427 1_555
Si3 Zr1 2.785162 1_455
Si3 Zr1 2.785163 1_545
Si3 Zr3 2.794522 1_655
Si3 Zr3 2.794522 1_565
Si3 Zr2 2.897021 1_554
Si3 Zr3 2.916427 1_555
Au0 Si3 2.503065 1_545
Au0 Si2 2.503065 1_454
Au0 Si3 2.503065 1_455
Au0 Si2 2.503065 1_544
Au0 Zr2 3.096831 1_544
Au0 Zr3 3.096831 1_455
Au0 Zr2 3.096832 1_454
Au0 Zr3 3.096832 1_545
Au0 Zr1 3.190026 1_445
Au0 Zr0 3.190026 1_554
Au0 Zr3 3.213926 1_555
Au0 Zr2 3.213926 1_444
