# generated using pymatgen
data_BaReP2Ir
_symmetry_space_group_name_H-M   'P 1'
_cell_length_a   6.83427201
_cell_length_b   6.83427191
_cell_length_c   6.83427308
_cell_angle_alpha   145.31550358
_cell_angle_beta   145.31549912
_cell_angle_gamma   49.86460043
_symmetry_Int_Tables_number   1
_chemical_formula_structural   BaReP2Ir
_chemical_formula_sum   'Ba1 Re1 P2 Ir1'
_cell_volume   102.87591541
_cell_formula_units_Z   1
loop_
 _symmetry_equiv_pos_site_id
 _symmetry_equiv_pos_as_xyz
  1  'x, y, z'
loop_
 _atom_site_type_symbol
 _atom_site_label
 _atom_site_symmetry_multiplicity
 _atom_site_fract_x
 _atom_site_fract_y
 _atom_site_fract_z
 _atom_site_occupancy
  Ba  Ba0  1  0.00000000  0.00000000  0.00000000  1
  Re  Re0  1  0.25000000  0.75000000  0.50000000  1
  P  P0  1  0.65557335  0.65557335  0.00000000  1
  P  P1  1  0.34442665  0.34442665  1.00000000  1
  Ir  Ir0  1  0.75000000  0.25000000  0.50000000  1
loop_
_geom_bond_atom_site_label_1
_geom_bond_atom_site_label_2
_geom_bond_distance
_geom_bond_site_symmetry_2
Ba0 P1 3.466738 1_544
Ba0 P0 3.466738 1_455
Ba0 P0 3.466738 1_545
Ba0 P1 3.466738 1_454
Ba0 P0 3.466738 1_556
Ba0 P1 3.466738 1_443
Ba0 P0 3.466739 1_444
Ba0 P1 3.466739 1_555
Ba0 Ir0 3.708343 1_444
Ba0 Ir0 3.708343 1_555
Ba0 Ir0 3.708344 1_455
Ba0 Ir0 3.708344 1_454
P0 Re0 2.349427 1_655
P0 Re0 2.349427 1_554
P1 Re0 2.349426 1_545
P1 Re0 2.349427 1_556
Ir0 P0 2.349426 1_545
Ir0 P1 2.349427 1_655
Ir0 P0 2.349427 1_556
Ir0 P1 2.349427 1_554
Ir0 Re0 2.880967 1_645
Ir0 Re0 2.880967 1_555
Ir0 Re0 2.880968 1_544
Ir0 Re0 2.880968 1_656
