# generated using pymatgen
data_K5CaNbAs4
_symmetry_space_group_name_H-M   'P 1'
_cell_length_a   10.33867100
_cell_length_b   10.33867245
_cell_length_c   7.74149089
_cell_angle_alpha   87.97636874
_cell_angle_beta   87.97637004
_cell_angle_gamma   120.23707059
_symmetry_Int_Tables_number   1
_chemical_formula_structural   K5CaNbAs4
_chemical_formula_sum   'K10 Ca2 Nb2 As8'
_cell_volume   713.09710589
_cell_formula_units_Z   2
loop_
 _symmetry_equiv_pos_site_id
 _symmetry_equiv_pos_as_xyz
  1  'x, y, z'
loop_
 _atom_site_type_symbol
 _atom_site_label
 _atom_site_symmetry_multiplicity
 _atom_site_fract_x
 _atom_site_fract_y
 _atom_site_fract_z
 _atom_site_occupancy
  K  K0  1  0.46709169  0.52389541  0.60562305  1
  K  K1  1  0.05653765  0.52877430  0.60809966  1
  K  K2  1  0.52389541  0.46709169  0.10562305  1
  K  K3  1  0.52877430  0.05653765  0.10809966  1
  K  K4  1  0.86242482  0.14242251  0.79233589  1
  K  K5  1  0.29647421  0.15540382  0.83822527  1
  K  K6  1  0.85518078  0.71821521  0.76366713  1
  K  K7  1  0.14242251  0.86242482  0.29233589  1
  K  K8  1  0.71821521  0.85518078  0.26366713  1
  K  K9  1  0.15540382  0.29647421  0.33822527  1
  Ca  Ca0  1  0.46085266  0.93255363  0.59997749  1
  Ca  Ca1  1  0.93255363  0.46085266  0.09997749  1
  Nb  Nb0  1  0.67137838  0.32818971  0.50002955  1
  Nb  Nb1  1  0.32818971  0.67137838  0.00002955  1
  As  As0  1  0.69277948  0.34563086  0.81991123  1
  As  As1  1  0.34563086  0.69277948  0.31991123  1
  As  As2  1  0.19295710  0.79657444  0.88703175  1
  As  As3  1  0.58698050  0.80327853  0.85940385  1
  As  As4  1  0.18170382  0.40070350  0.93289512  1
  As  As5  1  0.79657444  0.19295710  0.38703175  1
  As  As6  1  0.40070350  0.18170382  0.43289512  1
  As  As7  1  0.80327853  0.58698050  0.35940385  1
loop_
_geom_bond_atom_site_label_1
_geom_bond_atom_site_label_2
_geom_bond_distance
_geom_bond_site_symmetry_2
As0 Nb0 2.498776 1_555
As0 Ca1 3.138923 1_556
As0 K3 3.308078 1_556
As0 K6 3.341078 1_555
As0 K4 3.354394 1_555
As0 K2 3.413127 1_556
As0 K5 3.535411 1_555
As0 K1 3.548342 1_655
As1 Nb1 2.498776 1_555
As1 Ca0 3.138924 1_555
As1 K1 3.308078 1_555
As1 K8 3.341078 1_555
As1 K7 3.354394 1_555
As1 K0 3.413127 1_555
As1 K9 3.535412 1_555
As1 K3 3.548343 1_565
As2 Nb1 2.494874 1_556
As2 Ca0 3.163687 1_555
As2 K5 3.305236 1_565
As2 K7 3.312807 1_556
As2 K1 3.319955 1_555
As2 K6 3.347294 1_455
As2 Ca1 3.447323 1_456
As2 K3 3.681428 1_566
As3 Nb1 2.493612 1_556
As3 Ca0 3.044810 1_555
As3 K4 3.222392 1_565
As3 K0 3.272035 1_555
As3 K6 3.371680 1_555
As3 K8 3.407116 1_556
As3 K3 3.575722 1_566
As3 K2 3.646978 1_556
As4 Nb1 2.506935 1_556
As4 Ca1 3.182727 1_456
As4 K9 3.238386 1_556
As4 K4 3.285106 1_455
As4 K1 3.386789 1_555
As4 K5 3.387827 1_555
As4 K0 3.493730 1_555
As4 K2 3.567702 1_556
As5 Nb0 2.494874 1_555
As5 Ca1 3.163687 1_555
As5 K9 3.305235 1_655
As5 K4 3.312807 1_555
As5 K3 3.319955 1_555
As5 K8 3.347295 1_545
As5 Ca0 3.447323 1_545
As5 K1 3.681429 1_655
As6 Nb0 2.506934 1_555
As6 Ca0 3.182727 1_545
As6 K5 3.238386 1_555
As6 K7 3.285106 1_545
As6 K3 3.386789 1_555
As6 K9 3.387826 1_555
As6 K2 3.493730 1_555
As6 K0 3.567703 1_555
As7 Nb0 2.493613 1_555
As7 Ca1 3.044810 1_555
As7 K7 3.222392 1_655
As7 K2 3.272035 1_555
As7 K8 3.371680 1_555
As7 K6 3.407116 1_555
As7 K1 3.575721 1_655
As7 K0 3.646978 1_555
