# generated using pymatgen
data_SrRh2PbO7
_symmetry_space_group_name_H-M   'P 1'
_cell_length_a   7.22682237
_cell_length_b   7.26001539
_cell_length_c   7.26001574
_cell_angle_alpha   60.06049573
_cell_angle_beta   60.15112093
_cell_angle_gamma   60.15112456
_symmetry_Int_Tables_number   1
_chemical_formula_structural   SrRh2PbO7
_chemical_formula_sum   'Sr2 Rh4 Pb2 O14'
_cell_volume   270.08148285
_cell_formula_units_Z   2
loop_
 _symmetry_equiv_pos_site_id
 _symmetry_equiv_pos_as_xyz
  1  'x, y, z'
loop_
 _atom_site_type_symbol
 _atom_site_label
 _atom_site_symmetry_multiplicity
 _atom_site_fract_x
 _atom_site_fract_y
 _atom_site_fract_z
 _atom_site_occupancy
  Sr  Sr0  1  0.62500000  0.12500000  0.62500000  1
  Sr  Sr1  1  0.62500000  0.62500000  0.12500000  1
  Rh  Rh0  1  0.62500000  0.12500000  0.12500000  1
  Rh  Rh1  1  0.12500000  0.62500000  0.12500000  1
  Rh  Rh2  1  0.12500000  0.12500000  0.62500000  1
  Rh  Rh3  1  0.12500000  0.12500000  0.12500000  1
  Pb  Pb0  1  0.12500000  0.62500000  0.62500000  1
  Pb  Pb1  1  0.62500000  0.62500000  0.62500000  1
  O  O0  1  0.80025790  0.79568929  0.21565230  1
  O  O1  1  0.18839952  0.21565230  0.79568929  1
  O  O2  1  0.80025790  0.21565230  0.79568929  1
  O  O3  1  0.18839952  0.79568929  0.21565230  1
  O  O4  1  0.20488738  0.79511262  0.79511262  1
  O  O5  1  0.80162417  0.19837583  0.19837583  1
  O  O6  1  0.44974210  0.45431071  0.03434770  1
  O  O7  1  0.06160048  0.03434770  0.45431071  1
  O  O8  1  0.44974210  0.03434770  0.45431071  1
  O  O9  1  0.06160048  0.45431071  0.03434770  1
  O  O10  1  0.04511262  0.45488738  0.45488738  1
  O  O11  1  0.44837583  0.05162417  0.05162417  1
  O  O12  1  0.48217097  0.51782903  0.51782903  1
  O  O13  1  0.76782903  0.73217097  0.73217097  1
loop_
_geom_bond_atom_site_label_1
_geom_bond_atom_site_label_2
_geom_bond_distance
_geom_bond_site_symmetry_2
O0 Rh1 1.964216 1_655
O0 Rh0 1.999540 1_565
O0 Pb1 2.472106 1_555
O0 Sr1 2.603676 1_555
O1 Rh2 1.964211 1_555
O1 Rh3 1.999541 1_556
O1 Pb0 2.472107 1_555
O1 Sr0 2.603682 1_555
O2 Rh2 1.964216 1_655
O2 Rh0 1.999540 1_556
O2 Pb1 2.472106 1_555
O2 Sr0 2.603677 1_555
O3 Rh1 1.964211 1_555
O3 Rh3 1.999541 1_565
O3 Pb0 2.472107 1_555
O3 Sr1 2.603682 1_555
O4 Rh2 1.993861 1_565
O4 Rh1 1.993861 1_556
O4 Pb1 2.515126 1_555
O4 Pb0 2.515126 1_555
O5 Rh3 1.958013 1_655
O5 Rh0 1.958013 1_555
O5 Sr1 2.569205 1_555
O5 Sr0 2.569205 1_555
O6 Rh1 1.964216 1_555
O6 Rh0 1.999540 1_555
O6 Pb1 2.472106 1_554
O6 Sr1 2.603676 1_555
O7 Rh2 1.964211 1_555
O7 Rh3 1.999541 1_555
O7 Pb0 2.472107 1_545
O7 Sr0 2.603682 1_455
O8 Rh2 1.964216 1_555
O8 Rh0 1.999540 1_555
O8 Pb1 2.472106 1_545
O8 Sr0 2.603677 1_555
O9 Rh1 1.964211 1_555
O9 Rh3 1.999541 1_555
O9 Pb0 2.472107 1_554
O9 Sr1 2.603682 1_455
O10 Rh2 1.993861 1_555
O10 Rh1 1.993861 1_555
O10 Pb1 2.515126 1_455
O10 Pb0 2.515126 1_555
O11 Rh3 1.958013 1_555
O11 Rh0 1.958013 1_555
O11 Sr1 2.569205 1_545
O11 Sr0 2.569205 1_554
O12 Pb0 2.116451 1_555
O12 Pb1 2.116451 1_555
O12 Sr0 2.336365 1_555
O12 Sr1 2.336365 1_555
O13 Pb0 2.116451 1_655
O13 Pb1 2.116451 1_555
O13 Sr0 2.336365 1_565
O13 Sr1 2.336365 1_556
