# generated using pymatgen
data_Ti8Al15VPt6
_symmetry_space_group_name_H-M   'P 1'
_cell_length_a   8.65333637
_cell_length_b   8.65333748
_cell_length_c   8.65333674
_cell_angle_alpha   120.20520741
_cell_angle_beta   119.70417401
_cell_angle_gamma   90.07904945
_symmetry_Int_Tables_number   1
_chemical_formula_structural   Ti8Al15VPt6
_chemical_formula_sum   'Ti8 Al15 V1 Pt6'
_cell_volume   458.48203681
_cell_formula_units_Z   1
loop_
 _symmetry_equiv_pos_site_id
 _symmetry_equiv_pos_as_xyz
  1  'x, y, z'
loop_
 _atom_site_type_symbol
 _atom_site_label
 _atom_site_symmetry_multiplicity
 _atom_site_fract_x
 _atom_site_fract_y
 _atom_site_fract_z
 _atom_site_occupancy
  Ti  Ti0  1  0.78970298  0.28926767  0.07524750  1
  Ti  Ti1  1  0.21401917  0.28926767  0.49956469  1
  Ti  Ti2  1  0.20903328  0.70903328  0.50000000  1
  Ti  Ti3  1  0.21401917  0.71445549  0.92475250  1
  Ti  Ti4  1  0.78970298  0.71445549  0.50043531  1
  Ti  Ti5  1  0.78489927  0.28489927  0.50000000  1
  Ti  Ti6  1  0.38333737  0.11830852  0.73497114  1
  Ti  Ti7  1  0.38333737  0.64836723  0.26502886  1
  Al  Al0  1  0.99701673  0.49701673  0.50000000  1
  Al  Al1  1  0.15663770  0.34630794  0.18966925  1
  Al  Al2  1  0.15663770  0.96696745  0.81033075  1
  Al  Al3  1  0.15581947  0.34481573  0.81100374  1
  Al  Al4  1  0.53381098  0.34481573  0.18899626  1
  Al  Al5  1  0.84446470  0.65415431  0.80969060  1
  Al  Al6  1  0.84446470  0.03477310  0.19030940  1
  Al  Al7  1  0.84260271  0.65563126  0.18697144  1
  Al  Al8  1  0.46865982  0.65563126  0.81302856  1
  Al  Al9  1  0.38103132  0.11981987  0.26121145  1
  Al  Al10  1  0.85860942  0.11981987  0.73878855  1
  Al  Al11  1  0.61883996  0.88107836  0.26223939  1
  Al  Al12  1  0.61883996  0.35660057  0.73776061  1
  Al  Al13  1  0.62065616  0.88052110  0.74013606  1
  Al  Al14  1  0.14038404  0.88052110  0.25986394  1
  V  V0  1  0.49694635  0.99694635  0.50000000  1
  Pt  Pt0  1  0.99846015  0.99888163  0.49934596  1
  Pt  Pt1  1  0.49953467  0.99888163  0.00042148  1
  Pt  Pt2  1  0.49981978  0.49981978  1.00000000  1
  Pt  Pt3  1  0.49953467  0.49911320  0.50065404  1
  Pt  Pt4  1  0.99846015  0.49911320  0.99957852  1
  Pt  Pt5  1  0.00071623  0.00071623  0.00000000  1
loop_
_geom_bond_atom_site_label_1
_geom_bond_atom_site_label_2
_geom_bond_distance
_geom_bond_site_symmetry_2
Ti0 Ti6 2.926623 1_554
Ti1 Ti6 2.926625 1_555
Ti2 Ti6 2.941489 1_565
Ti2 Ti7 2.941491 1_555
Ti3 Ti7 2.926617 1_556
Ti4 Ti7 2.926625 1_555
Ti6 V0 2.457421 1_545
Ti7 V0 2.457414 1_555
Al0 Ti2 2.592797 1_655
Al0 Ti5 2.594031 1_555
Al0 Ti1 2.601432 1_655
Al0 Ti3 2.601437 1_655
Al0 Ti0 2.601438 1_555
Al0 Ti4 2.601438 1_555
Al1 Pt4 2.507958 1_454
Al1 Pt3 2.507967 1_555
Al1 Pt5 2.512568 1_555
Al1 Ti2 2.752672 1_555
Al1 Ti0 2.773835 1_455
Al1 Ti1 2.773843 1_555
Al1 Al10 2.834562 1_454
Al1 Al9 2.834571 1_555
Al2 Pt1 2.507963 1_556
Al2 Pt0 2.507978 1_455
Al2 Pt5 2.512558 1_566
Al2 Ti2 2.752675 1_555
Al2 Ti3 2.773827 1_555
Al2 Ti4 2.773832 1_455
Al2 Al9 2.834562 1_566
Al3 Pt2 2.508359 1_555
Al3 Pt4 2.512873 1_455
Al3 Pt0 2.512875 1_445
Al3 Ti1 2.791050 1_555
Al3 Ti3 2.791056 1_555
Al3 Ti5 2.800790 1_455
Al4 Pt2 2.508361 1_554
Al4 Pt3 2.512875 1_555
Al4 Pt1 2.512875 1_545
Al4 Ti4 2.791059 1_555
Al4 Ti0 2.791064 1_555
Al4 Ti5 2.800793 1_555
Al4 Al9 2.822208 1_555
Al5 Pt4 2.515704 1_555
Al5 Pt3 2.515710 1_555
Al5 Pt5 2.519228 1_666
Al5 Ti5 2.769065 1_555
Al5 Ti3 2.794134 1_655
Al5 Ti4 2.794149 1_555
Al6 Pt0 2.515699 1_545
Al6 Pt1 2.515713 1_545
Al6 Pt5 2.519222 1_655
Al6 Ti5 2.769073 1_555
Al6 Ti1 2.794139 1_655
Al6 Ti0 2.794151 1_555
Al7 Pt0 2.499086 1_555
Al7 Pt4 2.499088 1_554
Al7 Pt2 2.504373 1_554
Al7 Ti4 2.769162 1_555
Al7 Ti0 2.769162 1_555
Al7 Ti2 2.798122 1_655
Al8 Pt3 2.499081 1_555
Al8 Pt1 2.499088 1_556
Al8 Pt2 2.504373 1_555
Al8 Ti1 2.769164 1_555
Al8 Ti3 2.769170 1_555
Al8 Ti2 2.798122 1_555
Al9 V0 2.562393 1_545
Al9 Pt3 2.675726 1_555
Al9 Pt1 2.675726 1_545
Al9 Pt5 2.697492 1_555
Al9 Ti5 2.895415 1_555
Al9 Ti3 2.899940 1_544
Al9 Ti1 2.899947 1_555
Al10 V0 2.562400 1_545
Al10 Pt0 2.675726 1_545
Al10 Pt4 2.675726 1_555
Al10 Pt5 2.697492 1_656
Al10 Al3 2.822206 1_655
Al10 Al2 2.834562 1_645
Al10 Ti5 2.895415 1_555
Al10 Ti4 2.899939 1_545
Al10 Ti0 2.899946 1_556
Al10 Al11 2.918014 1_545
Al10 Al12 2.918021 1_555
Al10 Al13 2.926473 1_545
Al11 V0 2.535515 1_555
Al11 Pt2 2.689996 1_554
Al11 Pt0 2.691951 1_555
Al11 Pt1 2.691958 1_555
Al11 Al7 2.821543 1_555
Al11 Al8 2.821548 1_554
Al11 Al6 2.828125 1_565
Al11 Ti7 2.880102 1_555
Al11 Ti5 2.886321 1_565
Al11 Ti4 2.913666 1_555
Al11 Ti3 2.913679 1_554
Al11 Al9 2.918021 1_565
Al12 V0 2.535515 1_545
Al12 Pt2 2.690003 1_555
Al12 Pt3 2.691945 1_555
Al12 Pt4 2.691951 1_555
Al12 Al7 2.821548 1_556
Al12 Al8 2.821548 1_555
Al12 Al5 2.828118 1_555
Al12 Ti6 2.880114 1_555
Al12 Ti5 2.886314 1_555
Al12 Ti0 2.913673 1_556
Al12 Ti1 2.913680 1_555
Al12 Al9 2.918014 1_555
Al13 V0 2.526627 1_555
Al13 Pt1 2.691077 1_556
Al13 Pt3 2.691085 1_555
Al13 Pt5 2.694906 1_666
Al13 Al8 2.822260 1_555
Al13 Al6 2.826927 1_566
Al13 Al5 2.826937 1_555
Al13 Ti6 2.909715 1_565
Al13 Ti7 2.909721 1_555
Al13 Ti0 2.919048 1_566
Al13 Ti4 2.919056 1_555
Al13 Ti2 2.958836 1_555
Al14 V0 2.526634 1_555
Al14 Pt0 2.691070 1_455
Al14 Pt4 2.691084 1_454
Al14 Pt5 2.694899 1_565
Al14 Al7 2.822258 1_455
Al14 Al6 2.826913 1_465
Al14 Al5 2.826923 1_454
Al14 Ti6 2.909721 1_565
Al14 Ti7 2.909722 1_555
Al14 Ti3 2.919048 1_554
Al14 Ti1 2.919049 1_565
Al14 Al9 2.926467 1_565
Al14 Ti2 2.958843 1_555
Pt0 Ti6 2.730902 1_665
Pt0 Ti4 3.057608 1_555
Pt0 Ti5 3.090265 1_565
Pt0 Ti2 3.102872 1_655
Pt0 Ti1 3.126076 1_665
Pt1 Ti6 2.730903 1_564
Pt1 Ti3 3.057608 1_554
Pt1 Ti5 3.090266 1_565
Pt1 Ti2 3.102871 1_554
Pt1 Ti0 3.126087 1_565
Pt2 Ti6 2.693731 1_555
Pt2 Ti7 2.693731 1_556
Pt2 Ti4 3.102183 1_556
Pt2 Ti0 3.102184 1_556
Pt2 Ti1 3.102184 1_555
Pt2 Ti3 3.102190 1_555
Pt3 Ti7 2.730917 1_555
Pt3 Ti1 3.057603 1_555
Pt3 Ti5 3.090267 1_555
Pt3 Ti2 3.102870 1_555
Pt3 Ti4 3.126093 1_555
Pt4 Ti7 2.730903 1_656
Pt4 Ti0 3.057602 1_556
Pt4 Ti5 3.090266 1_555
Pt4 Ti2 3.102871 1_656
Pt4 Ti3 3.126081 1_655
Pt5 Ti3 3.089943 1_544
Pt5 Ti4 3.089949 1_444
Pt5 Ti0 3.089949 1_455
Pt5 Ti1 3.089950 1_555
