# generated using pymatgen
data_Lu6Sc4In5Sn
_symmetry_space_group_name_H-M   'P 1'
_cell_length_a   8.69824172
_cell_length_b   8.73216395
_cell_length_c   6.17756460
_cell_angle_alpha   90.00000000
_cell_angle_beta   90.00000000
_cell_angle_gamma   120.12909300
_symmetry_Int_Tables_number   1
_chemical_formula_structural   Lu6Sc4In5Sn
_chemical_formula_sum   'Lu6 Sc4 In5 Sn1'
_cell_volume   405.82132785
_cell_formula_units_Z   1
loop_
 _symmetry_equiv_pos_site_id
 _symmetry_equiv_pos_as_xyz
  1  'x, y, z'
loop_
 _atom_site_type_symbol
 _atom_site_label
 _atom_site_symmetry_multiplicity
 _atom_site_fract_x
 _atom_site_fract_y
 _atom_site_fract_z
 _atom_site_occupancy
  Lu  Lu0  1  0.76605233  0.76515619  0.75000000  1
  Lu  Lu1  1  0.23394767  0.99910385  0.75000000  1
  Lu  Lu2  1  0.00000000  0.23799774  0.75000000  1
  Lu  Lu3  1  0.23582219  0.23499217  0.25000000  1
  Lu  Lu4  1  0.76417781  0.99916998  0.25000000  1
  Lu  Lu5  1  1.00000000  0.76415287  0.25000000  1
  Sc  Sc0  1  0.67016322  0.33527956  0.99857842  1
  Sc  Sc1  1  0.32983678  0.66511734  0.99857842  1
  Sc  Sc2  1  0.32983678  0.66511734  0.50142158  1
  Sc  Sc3  1  0.67016322  0.33527956  0.50142158  1
  In  In0  1  0.40543465  0.40565658  0.75000000  1
  In  In1  1  0.59456535  0.00022292  0.75000000  1
  In  In2  1  0.00000000  0.60041795  0.75000000  1
  In  In3  1  0.59337083  0.59349572  0.25000000  1
  In  In4  1  0.40662917  0.00012489  0.25000000  1
  Sn  Sn0  1  1.00000000  0.39871434  0.25000000  1
loop_
_geom_bond_atom_site_label_1
_geom_bond_atom_site_label_2
_geom_bond_distance
_geom_bond_site_symmetry_2
Lu0 Lu1 3.520014 1_655
Lu0 Lu2 3.571296 1_665
Lu0 Lu5 3.701284 1_556
Lu0 Lu5 3.701284 1_555
Lu0 Lu4 3.708095 1_555
Lu0 Lu4 3.708095 1_556
Lu0 Sc0 3.741836 1_555
Lu0 Sc3 3.741836 1_555
Lu0 Sc1 3.767029 1_555
Lu0 Sc2 3.767029 1_555
Lu1 Lu2 3.571296 1_565
Lu1 Lu5 3.701284 1_456
Lu1 Lu5 3.701284 1_455
Lu1 Lu3 3.708095 1_565
Lu1 Lu3 3.708095 1_566
Lu1 Sc1 3.741828 1_555
Lu1 Sc2 3.741828 1_555
Lu1 Sc0 3.767026 1_565
Lu1 Sc3 3.767026 1_565
Lu2 Sn0 3.392656 1_455
Lu2 Sn0 3.392656 1_456
Lu2 Sc0 3.709116 1_455
Lu2 Sc3 3.709116 1_455
Lu2 Sc1 3.709121 1_555
Lu2 Sc2 3.709121 1_555
Lu2 Lu4 3.715224 1_446
Lu2 Lu4 3.715224 1_445
Lu2 Lu3 3.715224 1_555
Lu2 Lu3 3.715224 1_556
Lu3 Sn0 3.032402 1_455
Lu3 Lu4 3.548218 1_445
Lu3 Lu5 3.555998 1_445
Lu3 Sc2 3.755611 1_555
Lu3 Sc1 3.755611 1_554
Lu3 Sc3 3.759143 1_555
Lu3 Sc0 3.759143 1_554
Lu4 Sn0 3.032402 1_565
Lu4 Lu5 3.555998 1_555
Lu4 Sc3 3.755603 1_565
Lu4 Sc0 3.755603 1_564
Lu4 Sc2 3.759140 1_555
Lu4 Sc1 3.759140 1_554
Lu5 Sn0 3.191069 1_555
Lu5 Sc2 3.725876 1_655
Lu5 Sc1 3.725876 1_654
Lu5 Sc3 3.725881 1_555
Lu5 Sc0 3.725881 1_554
Sc0 Sn0 3.058584 1_556
Sc0 Sc3 3.071218 1_555
Sc0 Sc3 3.106346 1_556
Sc1 Sn0 3.058586 1_456
Sc1 Sc2 3.071218 1_555
Sc1 Sc2 3.106346 1_556
Sc2 Sn0 3.058586 1_455
Sc3 Sn0 3.058584 1_555
In0 Lu2 3.065442 1_555
In0 Sc1 3.069090 1_555
In0 Sc2 3.069090 1_555
In0 Sc0 3.075496 1_555
In0 Sc3 3.075496 1_555
In0 Lu1 3.084152 1_545
In0 Lu0 3.131850 1_555
In0 Lu3 3.425035 1_555
In0 Lu3 3.425035 1_556
In0 In3 3.494492 1_555
In0 In3 3.494492 1_556
In1 Lu2 3.065441 1_655
In1 Sc0 3.069075 1_555
In1 Sc3 3.069075 1_555
In1 Sc1 3.075496 1_545
In1 Sc2 3.075496 1_545
In1 Lu0 3.084160 1_545
In1 Lu1 3.131846 1_545
In1 Lu4 3.425037 1_546
In1 Lu4 3.425037 1_545
In1 In4 3.494490 1_555
In1 In4 3.494490 1_556
In2 Lu1 3.024733 1_555
In2 Lu0 3.024733 1_455
In2 Sc1 3.046512 1_555
In2 Sc2 3.046512 1_555
In2 Sc0 3.046514 1_455
In2 Sc3 3.046514 1_455
In2 Lu2 3.164713 1_555
In2 Lu5 3.403644 1_455
In2 Lu5 3.403644 1_456
In3 Lu5 3.072367 1_555
In3 Sc3 3.074826 1_555
In3 Sc0 3.074826 1_554
In3 Lu4 3.077743 1_555
In3 Sc2 3.081762 1_555
In3 Sc1 3.081762 1_554
In3 Lu3 3.114238 1_555
In3 Lu0 3.432680 1_554
In3 Lu0 3.432680 1_555
In4 Lu5 3.072367 1_445
In4 Sc2 3.074818 1_545
In4 Sc1 3.074818 1_544
In4 Lu3 3.077743 1_555
In4 Sc3 3.081757 1_555
In4 Sc0 3.081757 1_554
In4 Lu4 3.114238 1_545
In4 Lu1 3.432680 1_544
In4 Lu1 3.432680 1_545
