# generated using pymatgen
data_Sr3Ti2O7
_symmetry_space_group_name_H-M   'P 1'
_cell_length_a   3.90867599
_cell_length_b   3.90867610
_cell_length_c   10.55260473
_cell_angle_alpha   100.67402677
_cell_angle_beta   100.67402529
_cell_angle_gamma   89.99444451
_symmetry_Int_Tables_number   1
_chemical_formula_structural   Sr3Ti2O7
_chemical_formula_sum   'Sr3 Ti2 O7'
_cell_volume   155.59136360
_cell_formula_units_Z   1
loop_
 _symmetry_equiv_pos_site_id
 _symmetry_equiv_pos_as_xyz
  1  'x, y, z'
loop_
 _atom_site_type_symbol
 _atom_site_label
 _atom_site_symmetry_multiplicity
 _atom_site_fract_x
 _atom_site_fract_y
 _atom_site_fract_z
 _atom_site_occupancy
  Sr  Sr0  1  0.31560957  0.31560956  0.63127003  1
  Sr  Sr1  1  0.50000000  0.50000000  0.00000000  1
  Sr  Sr2  1  0.68439043  0.68439044  0.36872997  1
  Ti  Ti0  1  0.09754414  0.09754416  0.19506566  1
  Ti  Ti1  1  0.90245586  0.90245584  0.80493434  1
  O  O0  1  0.90380960  0.40381427  0.80766066  1
  O  O1  1  0.80633119  0.80633120  0.61265616  1
  O  O2  1  0.00000000  -0.00000000  0.00000000  1
  O  O3  1  0.59618570  0.09619039  0.19233934  1
  O  O4  1  0.09619040  0.59618573  0.19233934  1
  O  O5  1  0.40381430  0.90380961  0.80766066  1
  O  O6  1  0.19366881  0.19366880  0.38734384  1
loop_
_geom_bond_atom_site_label_1
_geom_bond_atom_site_label_2
_geom_bond_distance
_geom_bond_site_symmetry_2
O0 Ti1 1.954517 1_545
O0 Ti1 1.954554 1_555
O0 Sr0 2.654510 1_655
O0 Sr0 2.654527 1_555
O0 Sr1 2.766969 1_556
O0 Sr1 2.767074 1_656
O1 Ti1 1.958196 1_555
O1 Sr2 2.484189 1_555
O1 Sr0 2.770211 1_565
O1 Sr0 2.770211 1_655
O1 Sr0 2.770320 1_665
O1 Sr0 2.770637 1_555
O2 Ti0 1.986584 1_555
O2 Ti1 1.986584 1_444
O2 Sr1 2.763717 1_545
O2 Sr1 2.763717 1_455
O2 Sr1 2.763985 1_555
O2 Sr1 2.763985 1_445
O3 Ti0 1.954517 1_655
O3 Ti0 1.954554 1_555
O3 Sr2 2.654510 1_545
O3 Sr2 2.654527 1_555
O3 Sr1 2.766970 1_555
O3 Sr1 2.767074 1_545
O4 Ti0 1.954517 1_565
O4 Ti0 1.954554 1_555
O4 Sr2 2.654510 1_455
O4 Sr2 2.654527 1_555
O4 Sr1 2.766969 1_555
O4 Sr1 2.767074 1_455
O5 Ti1 1.954517 1_455
O5 Ti1 1.954554 1_555
O5 Sr0 2.654510 1_565
O5 Sr0 2.654527 1_555
O5 Sr1 2.766970 1_556
O5 Sr1 2.767074 1_566
O6 Ti0 1.958196 1_555
O6 Sr0 2.484189 1_555
O6 Sr2 2.770211 1_545
O6 Sr2 2.770211 1_455
O6 Sr2 2.770320 1_445
O6 Sr2 2.770637 1_555
