# generated using pymatgen
data_Na6In4AgPt
_symmetry_space_group_name_H-M   'P 1'
_cell_length_a   9.44073587
_cell_length_b   9.52746395
_cell_length_c   9.52746337
_cell_angle_alpha   60.31589989
_cell_angle_beta   60.30066226
_cell_angle_gamma   60.30066818
_symmetry_Int_Tables_number   1
_chemical_formula_structural   Na6In4AgPt
_chemical_formula_sum   'Na12 In8 Ag2 Pt2'
_cell_volume   610.15439340
_cell_formula_units_Z   2
loop_
 _symmetry_equiv_pos_site_id
 _symmetry_equiv_pos_as_xyz
  1  'x, y, z'
loop_
 _atom_site_type_symbol
 _atom_site_label
 _atom_site_symmetry_multiplicity
 _atom_site_fract_x
 _atom_site_fract_y
 _atom_site_fract_z
 _atom_site_occupancy
  Na  Na0  1  0.04550465  0.45587108  0.04159185  1
  Na  Na1  1  0.79303782  0.20696218  0.20696218  1
  Na  Na2  1  0.20633620  0.79366380  0.79366380  1
  Na  Na3  1  0.79296758  0.20840815  0.79412892  1
  Na  Na4  1  0.20449535  0.20840815  0.79412892  1
  Na  Na5  1  0.79296758  0.79412892  0.20840815  1
  Na  Na6  1  0.04550465  0.04159185  0.45587108  1
  Na  Na7  1  0.45696218  0.04303782  0.04303782  1
  Na  Na8  1  0.04366380  0.45633620  0.45633620  1
  Na  Na9  1  0.45703242  0.45587108  0.04159185  1
  Na  Na10  1  0.20449535  0.79412892  0.20840815  1
  Na  Na11  1  0.45703242  0.04159185  0.45587108  1
  In  In0  1  0.84153241  0.82725062  0.82725062  1
  In  In1  1  0.74603466  0.42274938  0.42274938  1
  In  In2  1  0.41327907  0.74729327  0.42614958  1
  In  In3  1  0.41327907  0.42614958  0.74729327  1
  In  In4  1  0.83672093  0.50270673  0.82385042  1
  In  In5  1  0.83672093  0.82385042  0.50270673  1
  In  In6  1  0.50396534  0.82725062  0.82725062  1
  In  In7  1  0.40846759  0.42274938  0.42274938  1
  Ag  Ag0  1  0.62500000  0.12500000  0.62500000  1
  Ag  Ag1  1  0.62500000  0.62500000  0.12500000  1
  Pt  Pt0  1  0.62500000  0.62500000  0.62500000  1
  Pt  Pt1  1  0.12500000  0.62500000  0.62500000  1
loop_
_geom_bond_atom_site_label_1
_geom_bond_atom_site_label_2
_geom_bond_distance
_geom_bond_site_symmetry_2
Na0 Pt1 3.290203 1_554
Na2 Pt0 3.279797 1_555
Na2 Pt1 3.279797 1_555
Na3 Pt0 3.290203 1_555
Na4 Pt1 3.290203 1_555
Na5 Pt0 3.290203 1_555
Na6 Pt1 3.290203 1_545
Na8 Pt0 3.279797 1_455
Na8 Pt1 3.279797 1_555
Na9 Pt0 3.290203 1_554
Na10 Pt1 3.290203 1_555
Na11 Pt0 3.290203 1_545
In0 Pt1 2.836519 1_655
In0 Na2 3.159648 1_655
In0 Na6 3.222819 1_665
In0 Na0 3.222820 1_656
In0 Na5 3.294823 1_556
In0 Na3 3.294824 1_565
In0 Na7 3.320948 1_566
In1 Pt0 2.836516 1_555
In1 Na8 3.159639 1_655
In1 Na3 3.222816 1_555
In1 Na5 3.222816 1_555
In1 Na0 3.294820 1_655
In1 Na6 3.294820 1_655
In1 Na1 3.320953 1_555
In2 Pt0 2.863634 1_555
In2 Pt1 2.863641 1_555
In2 Na11 3.187902 1_565
In2 Na6 3.187908 1_565
In2 Na2 3.189164 1_555
In2 Na5 3.263627 1_555
In2 Na10 3.263636 1_555
In2 Na7 3.302421 1_565
In3 Pt0 2.863633 1_555
In3 Pt1 2.863641 1_555
In3 Na9 3.187902 1_556
In3 Na0 3.187907 1_556
In3 Na2 3.189164 1_555
In3 Na3 3.263628 1_555
In3 Na4 3.263636 1_555
In3 Na7 3.302421 1_556
In4 Pt0 2.863634 1_555
In4 Pt1 2.863641 1_655
In4 Na3 3.187902 1_555
In4 Na4 3.187908 1_655
In4 Na8 3.189164 1_655
In4 Na9 3.263627 1_556
In4 Na0 3.263636 1_656
In4 Na1 3.302421 1_556
In5 Pt0 2.863633 1_555
In5 Pt1 2.863641 1_655
In5 Na5 3.187902 1_555
In5 Na10 3.187907 1_655
In5 Na8 3.189164 1_655
In5 Na11 3.263628 1_565
In5 Na6 3.263636 1_665
In5 Na1 3.302421 1_565
In6 Pt0 2.836516 1_555
In6 Na2 3.159639 1_555
In6 Na11 3.222816 1_565
In6 Na9 3.222816 1_556
In6 Na10 3.294820 1_556
In6 Na4 3.294820 1_565
In6 Na7 3.320953 1_566
In7 Pt1 2.836519 1_555
In7 Na8 3.159648 1_555
In7 Na4 3.222819 1_555
In7 Na10 3.222820 1_555
In7 Na9 3.294823 1_555
In7 Na11 3.294824 1_555
In7 Na1 3.320948 1_555
Ag0 In0 2.946571 1_545
Ag0 In7 2.946571 1_555
Ag0 In1 2.946576 1_555
Ag0 In6 2.946576 1_545
Ag0 In3 2.984233 1_555
Ag0 In5 2.984233 1_545
Ag0 Na6 3.285033 1_655
Ag0 Na4 3.285033 1_555
Ag0 Na3 3.285033 1_555
Ag0 Na11 3.285033 1_555
Ag0 Na7 3.297836 1_556
Ag0 Na1 3.297836 1_555
Ag1 In0 2.946571 1_554
Ag1 In7 2.946571 1_555
Ag1 In1 2.946576 1_555
Ag1 In6 2.946576 1_554
Ag1 In2 2.984233 1_555
Ag1 In4 2.984233 1_554
Ag1 Na0 3.285033 1_655
Ag1 Na10 3.285033 1_555
Ag1 Na5 3.285033 1_555
Ag1 Na9 3.285033 1_555
Ag1 Na7 3.297836 1_565
Ag1 Na1 3.297836 1_555
