# generated using pymatgen
data_CsY10(C2Br9)2
_symmetry_space_group_name_H-M   'P 1'
_cell_length_a   10.55047535
_cell_length_b   10.63520588
_cell_length_c   10.80034224
_cell_angle_alpha   113.11949669
_cell_angle_beta   87.74451528
_cell_angle_gamma   118.55209853
_symmetry_Int_Tables_number   1
_chemical_formula_structural   CsY10(C2Br9)2
_chemical_formula_sum   'Cs1 Y10 C4 Br18'
_cell_volume   962.35260316
_cell_formula_units_Z   1
loop_
 _symmetry_equiv_pos_site_id
 _symmetry_equiv_pos_as_xyz
  1  'x, y, z'
loop_
 _atom_site_type_symbol
 _atom_site_label
 _atom_site_symmetry_multiplicity
 _atom_site_fract_x
 _atom_site_fract_y
 _atom_site_fract_z
 _atom_site_occupancy
  Cs  Cs0  1  0.50000000  0.00000000  0.50000000  1
  Y  Y0  1  0.66007361  0.71616724  0.70102749  1
  Y  Y1  1  0.28256421  0.36649188  0.01112542  1
  Y  Y2  1  0.09272073  0.40946153  0.30124197  1
  Y  Y3  1  0.95866638  0.03541361  0.33350177  1
  Y  Y4  1  0.90727927  0.59053847  0.69875803  1
  Y  Y5  1  0.11343791  0.94162384  0.00133002  1
  Y  Y6  1  0.04133362  0.96458639  0.66649823  1
  Y  Y7  1  0.33992639  0.28383276  0.29897251  1
  Y  Y8  1  0.71743579  0.63350812  0.98887458  1
  Y  Y9  1  0.88656209  0.05837616  0.99866998  1
  C  C0  1  0.15790769  0.22956105  0.12415068  1
  C  C1  1  0.84209231  0.77043895  0.87584932  1
  C  C2  1  0.92153039  0.85021923  0.79478242  1
  C  C3  1  0.07846961  0.14978077  0.20521758  1
  Br  Br0  1  0.44758829  0.52759502  0.83218176  1
  Br  Br1  1  0.38681713  0.03871257  0.16150389  1
  Br  Br2  1  0.77625638  0.85588528  0.49779170  1
  Br  Br3  1  0.83450594  0.31310198  0.15452123  1
  Br  Br4  1  0.55241171  0.47240498  0.16781824  1
  Br  Br5  1  0.22374362  0.14411472  0.50220830  1
  Br  Br6  1  0.31867050  0.10106673  0.82926583  1
  Br  Br7  1  0.68132950  0.89893327  0.17073417  1
  Br  Br8  1  0.97575895  0.75842429  0.17491348  1
  Br  Br9  1  0.93052639  0.30202677  0.50248868  1
  Br  Br10  1  0.02424105  0.24157571  0.82508652  1
  Br  Br11  1  0.06947361  0.69797323  0.49751132  1
  Br  Br12  1  0.26138811  0.62797940  0.18671340  1
  Br  Br13  1  0.73861189  0.37202060  0.81328660  1
  Br  Br14  1  0.63745420  0.43025339  0.49796975  1
  Br  Br15  1  0.16549406  0.68689802  0.84547877  1
  Br  Br16  1  0.61318287  0.96128743  0.83849611  1
  Br  Br17  1  0.36254580  0.56974661  0.50203025  1
loop_
_geom_bond_atom_site_label_1
_geom_bond_atom_site_label_2
_geom_bond_distance
_geom_bond_site_symmetry_2
C0 C3 1.426462 1_555
C0 Y1 2.186192 1_555
C0 Y7 2.440509 1_555
C0 Y2 2.464229 1_555
C0 Y9 2.594708 1_454
C0 Y5 2.615883 1_545
C1 C2 1.426462 1_555
C1 Y8 2.186192 1_555
C1 Y0 2.440509 1_555
C1 Y4 2.464229 1_555
C1 Y5 2.594708 1_656
C1 Y9 2.615883 1_565
C2 Y6 2.170867 1_655
C2 Y0 2.448266 1_555
C2 Y4 2.468107 1_555
C2 Y9 2.602800 1_565
C2 Y5 2.606135 1_656
C3 Y3 2.170867 1_455
C3 Y7 2.448266 1_555
C3 Y2 2.468107 1_555
C3 Y5 2.602800 1_545
C3 Y9 2.606135 1_454
Br0 Y8 2.838140 1_555
Br0 Y0 2.955923 1_555
Br0 Y1 3.030854 1_556
Br1 Y7 2.716721 1_555
Br1 Y5 2.919077 1_545
Br1 Cs0 4.117826 1_555
Br2 Y6 2.852062 1_655
Br2 Y0 3.022761 1_555
Br2 Y3 3.062172 1_565
Br2 Cs0 3.883417 1_565
Br3 Y2 2.716389 1_655
Br3 Y9 2.870975 1_554
Br4 Y1 2.838140 1_555
Br4 Y7 2.955923 1_555
Br4 Y8 3.030854 1_554
Br5 Y3 2.852062 1_455
Br5 Y7 3.022761 1_555
Br5 Y6 3.062172 1_545
Br5 Cs0 3.883417 1_555
Br6 Y6 2.846061 1_545
Br6 Y1 2.930259 1_556
Br6 Y5 3.108940 1_546
Br6 Cs0 3.986253 1_555
Br7 Y3 2.846061 1_565
Br7 Y8 2.930259 1_554
Br7 Y9 3.108940 1_564
Br7 Cs0 3.986253 1_565
Br8 Y8 2.846715 1_554
Br8 Y3 2.857507 1_565
Br8 Y5 3.060977 1_655
Br9 Y3 2.856088 1_555
Br9 Y2 2.957453 1_655
Br9 Y4 3.088565 1_555
Br9 Cs0 4.116464 1_555
Br10 Y1 2.846715 1_556
Br10 Y6 2.857507 1_545
Br10 Y9 3.060977 1_455
Br11 Y6 2.856088 1_555
Br11 Y4 2.957453 1_455
Br11 Y2 3.088565 1_555
Br11 Cs0 4.116464 1_565
Br12 Y1 2.792689 1_555
Br12 Y2 2.868549 1_555
Br12 Cs0 3.751875 1_565
Br13 Y8 2.792689 1_555
Br13 Y4 2.868549 1_555
Br13 Cs0 3.751875 1_555
Br14 Y0 2.867650 1_555
Br14 Y4 2.942248 1_555
Br14 Y7 3.182438 1_555
Br14 Cs0 4.095700 1_555
Br15 Y4 2.716389 1_455
Br15 Y5 2.870975 1_556
Br16 Y0 2.716721 1_555
Br16 Y9 2.919077 1_565
Br16 Cs0 4.117826 1_565
Br17 Y7 2.867650 1_555
Br17 Y2 2.942248 1_555
Br17 Y0 3.182438 1_555
Br17 Cs0 4.095700 1_565
