# generated using pymatgen
data_NbAs(P2O7)2
_symmetry_space_group_name_H-M   'P 1'
_cell_length_a   8.44123398
_cell_length_b   4.90387917
_cell_length_c   7.08671321
_cell_angle_alpha   72.98091871
_cell_angle_beta   92.75234496
_cell_angle_gamma   89.06484742
_symmetry_Int_Tables_number   1
_chemical_formula_structural   NbAs(P2O7)2
_chemical_formula_sum   'Nb1 As1 P4 O14'
_cell_volume   280.04098821
_cell_formula_units_Z   1
loop_
 _symmetry_equiv_pos_site_id
 _symmetry_equiv_pos_as_xyz
  1  'x, y, z'
loop_
 _atom_site_type_symbol
 _atom_site_label
 _atom_site_symmetry_multiplicity
 _atom_site_fract_x
 _atom_site_fract_y
 _atom_site_fract_z
 _atom_site_occupancy
  Nb  Nb0  1  0.04335267  0.22228858  0.28786763  1
  As  As0  1  0.55510744  0.75196561  0.72191148  1
  P  P0  1  0.86325617  0.62507964  0.53284751  1
  P  P1  1  0.26058092  0.77531940  0.09563281  1
  P  P2  1  0.79510534  0.20148290  0.89167190  1
  P  P3  1  0.38184750  0.39550892  0.47057821  1
  O  O0  1  0.79427405  0.92428576  0.84890107  1
  O  O1  1  0.32302528  0.90512368  0.90245849  1
  O  O2  1  0.97479975  0.87208266  0.49624129  1
  O  O3  1  0.68982121  0.72080784  0.52094223  1
  O  O4  1  0.39173183  0.59426039  0.60135471  1
  O  O5  1  0.63636872  0.35563968  0.87804563  1
  O  O6  1  0.90898575  0.41885268  0.74327752  1
  O  O7  1  0.39607994  0.59003455  0.24726520  1
  O  O8  1  0.12425917  0.56552061  0.09872863  1
  O  O9  1  0.88710435  0.46072295  0.38387653  1
  O  O10  1  0.20986768  0.29141705  0.47553007  1
  O  O11  1  0.50552215  0.16496599  0.50776098  1
  O  O12  1  0.88387463  0.17880809  0.09285567  1
  O  O13  1  0.19825047  0.98583502  0.20225245  1
loop_
_geom_bond_atom_site_label_1
_geom_bond_atom_site_label_2
_geom_bond_distance
_geom_bond_site_symmetry_2
Nb0 O12 1.941854 1_455
Nb0 O13 1.964896 1_545
Nb0 O8 1.975058 1_555
Nb0 O10 1.989776 1_555
Nb0 O9 2.017720 1_455
Nb0 O2 2.023557 1_445
As0 O4 1.881048 1_555
As0 O3 1.903178 1_555
As0 O5 2.024077 1_555
As0 O11 2.166172 1_565
As0 O0 2.434368 1_555
O0 P2 1.476830 1_565
O1 P1 1.458512 1_556
O2 P0 1.515839 1_555
O3 P0 1.520961 1_555
O4 P3 1.529646 1_555
O5 P2 1.512616 1_555
O6 P0 1.563571 1_555
O6 P2 1.624990 1_555
O7 P1 1.601565 1_555
O7 P3 1.602242 1_555
O8 P1 1.552736 1_555
O9 P0 1.522458 1_555
O10 P3 1.545279 1_555
O11 P3 1.482606 1_555
O12 P2 1.551914 1_554
O13 P1 1.546133 1_555
