# generated using pymatgen
data_Y6Zn4Pd9Pt4
_symmetry_space_group_name_H-M   'P 1'
_cell_length_a   8.20446240
_cell_length_b   8.20446325
_cell_length_c   8.17896537
_cell_angle_alpha   109.40828007
_cell_angle_beta   109.40828215
_cell_angle_gamma   109.53409044
_symmetry_Int_Tables_number   1
_chemical_formula_structural   Y6Zn4Pd9Pt4
_chemical_formula_sum   'Y6 Zn4 Pd9 Pt4'
_cell_volume   424.14418230
_cell_formula_units_Z   1
loop_
 _symmetry_equiv_pos_site_id
 _symmetry_equiv_pos_as_xyz
  1  'x, y, z'
loop_
 _atom_site_type_symbol
 _atom_site_label
 _atom_site_symmetry_multiplicity
 _atom_site_fract_x
 _atom_site_fract_y
 _atom_site_fract_z
 _atom_site_occupancy
  Y  Y0  1  0.70077443  0.70077443  0.00246100  1
  Y  Y1  1  0.29922557  0.00000000  0.30168656  1
  Y  Y2  1  0.00000000  0.29922557  0.30168656  1
  Y  Y3  1  0.30059966  0.30059966  0.99906871  1
  Y  Y4  1  0.69940034  1.00000000  0.69846905  1
  Y  Y5  1  1.00000000  0.69940034  0.69846905  1
  Zn  Zn0  1  0.00000000  0.00000000  0.50007933  1
  Zn  Zn1  1  1.00000000  0.49986939  0.99987766  1
  Zn  Zn2  1  0.49986939  1.00000000  0.99987766  1
  Zn  Zn3  1  0.50013061  0.50013061  0.50000827  1
  Pd  Pd0  1  0.66711300  0.33222891  0.99989980  1
  Pd  Pd1  1  0.33288700  0.66511590  0.33278579  1
  Pd  Pd2  1  0.00000000  0.33311742  0.66884973  1
  Pd  Pd3  1  0.33222891  0.66711300  0.99989980  1
  Pd  Pd4  1  0.33311742  0.00000000  0.66884973  1
  Pd  Pd5  1  0.66511590  0.33288700  0.33278579  1
  Pd  Pd6  1  0.66688258  0.66688258  0.33572931  1
  Pd  Pd7  1  0.66777109  0.33488410  0.66767089  1
  Pd  Pd8  1  0.33488410  0.66777109  0.66767089  1
  Pt  Pt0  1  0.33222315  0.33222315  0.66337819  1
  Pt  Pt1  1  0.66777685  0.00000000  0.33115404  1
  Pt  Pt2  1  1.00000000  0.66777685  0.33115404  1
  Pt  Pt3  1  1.00000000  1.00000000  0.99848812  1
loop_
_geom_bond_atom_site_label_1
_geom_bond_atom_site_label_2
_geom_bond_distance
_geom_bond_site_symmetry_2
Y0 Zn0 3.362648 1_665
Y0 Zn1 3.385525 1_554
Y0 Zn2 3.385525 1_554
Y0 Zn3 3.391744 1_554
Y1 Zn0 3.362648 1_555
Y1 Zn1 3.385525 1_444
Y1 Zn3 3.385525 1_555
Y1 Zn2 3.391744 1_544
Y2 Zn0 3.362648 1_555
Y2 Zn2 3.385524 1_444
Y2 Zn3 3.385525 1_555
Y2 Zn1 3.391744 1_454
Y3 Zn0 3.372672 1_555
Y3 Zn3 3.382197 1_556
Y3 Zn1 3.384588 1_455
Y3 Zn2 3.384588 1_545
Y4 Zn0 3.372672 1_665
Y4 Zn2 3.382197 1_555
Y4 Zn1 3.384588 1_565
Y4 Zn3 3.384588 1_555
Y5 Zn0 3.372672 1_665
Y5 Zn1 3.382197 1_555
Y5 Zn2 3.384587 1_655
Y5 Zn3 3.384587 1_555
Pd0 Zn2 2.609769 1_545
Pd0 Zn1 2.615222 1_555
Pd0 Pd4 2.727474 1_555
Pd0 Pt2 2.734175 1_556
Pd0 Y3 2.927988 1_555
Pd0 Y0 2.935166 1_556
Pd0 Y4 3.166840 1_545
Pd0 Y2 3.175461 1_656
Pd1 Zn3 2.609773 1_555
Pd1 Zn1 2.615218 1_454
Pd1 Pd6 2.727480 1_555
Pd1 Pt2 2.734177 1_455
Pd1 Y4 2.927991 1_555
Pd1 Y1 2.935163 1_565
Pd1 Y3 3.166835 1_554
Pd1 Y2 3.175465 1_555
Pd2 Zn1 2.596221 1_455
Pd2 Zn0 2.620633 1_555
Pd2 Pd3 2.727474 1_555
Pd2 Pd7 2.727474 1_455
Pd2 Pt0 2.743317 1_555
Pd2 Pt1 2.743320 1_455
Pd2 Y2 2.922407 1_555
Pd2 Y5 2.933566 1_455
Pd2 Y3 3.152813 1_555
Pd2 Y4 3.152813 1_445
Pd3 Zn1 2.609768 1_455
Pd3 Zn2 2.615222 1_555
Pd3 Pt1 2.734175 1_566
Pd3 Y3 2.927988 1_555
Pd3 Y0 2.935166 1_556
Pd3 Y5 3.166839 1_455
Pd3 Y1 3.175461 1_566
Pd4 Zn2 2.596221 1_545
Pd4 Zn0 2.620632 1_555
Pd4 Pd8 2.727475 1_545
Pd4 Pt0 2.743317 1_555
Pd4 Pt2 2.743320 1_445
Pd4 Y1 2.922407 1_555
Pd4 Y4 2.933565 1_545
Pd4 Y5 3.152813 1_445
Pd4 Y3 3.152813 1_555
Pd5 Zn3 2.609773 1_555
Pd5 Zn2 2.615218 1_544
Pd5 Pd6 2.727480 1_555
Pd5 Pt1 2.734178 1_555
Pd5 Y5 2.927991 1_555
Pd5 Y2 2.935163 1_655
Pd5 Y3 3.166835 1_554
Pd5 Y1 3.175465 1_555
Pd6 Zn3 2.596242 1_555
Pd6 Zn0 2.620628 1_665
Pd6 Pt2 2.743311 1_555
Pd6 Pt1 2.743311 1_565
Pd6 Y0 2.922382 1_555
Pd6 Y3 2.933559 1_554
Pd6 Y5 3.152828 1_555
Pd6 Y4 3.152828 1_555
Pd7 Zn1 2.609768 1_555
Pd7 Zn3 2.615222 1_555
Pd7 Pt0 2.734177 1_555
Pd7 Y4 2.927988 1_545
Pd7 Y1 2.935166 1_555
Pd7 Y5 3.166839 1_555
Pd7 Y0 3.175461 1_556
Pd8 Zn2 2.609768 1_555
Pd8 Zn3 2.615222 1_555
Pd8 Pt0 2.734178 1_555
Pd8 Y5 2.927988 1_455
Pd8 Y2 2.935166 1_555
Pd8 Y4 3.166839 1_555
Pd8 Y0 3.175461 1_556
Pt0 Zn3 2.599715 1_555
Pt0 Zn0 2.614496 1_555
Pt0 Y3 2.928276 1_555
Pt0 Y0 2.952439 1_556
Pt0 Y2 3.141577 1_555
Pt0 Y1 3.141577 1_555
Pt1 Zn2 2.599708 1_544
Pt1 Zn0 2.614498 1_655
Pt1 Y4 2.928284 1_545
Pt1 Y1 2.952441 1_555
Pt1 Y2 3.141572 1_655
Pt1 Y0 3.141572 1_545
Pt2 Zn1 2.599708 1_554
Pt2 Zn0 2.614498 1_665
Pt2 Y5 2.928284 1_555
Pt2 Y2 2.952441 1_655
Pt2 Y0 3.141572 1_555
Pt2 Y1 3.141572 1_665
Pt3 Y4 2.842848 1_555
Pt3 Y3 2.842848 1_665
Pt3 Y5 2.842848 1_555
Pt3 Y1 2.851413 1_666
Pt3 Y0 2.851413 1_556
Pt3 Y2 2.851413 1_666
