# generated using pymatgen
data_KLiHgSe2
_symmetry_space_group_name_H-M   'P 1'
_cell_length_a   7.69467231
_cell_length_b   7.69467238
_cell_length_c   7.69467226
_cell_angle_alpha   147.64785861
_cell_angle_beta   147.64786635
_cell_angle_gamma   46.40546616
_symmetry_Int_Tables_number   1
_chemical_formula_structural   KLiHgSe2
_chemical_formula_sum   'K1 Li1 Hg1 Se2'
_cell_volume   129.99659376
_cell_formula_units_Z   1
loop_
 _symmetry_equiv_pos_site_id
 _symmetry_equiv_pos_as_xyz
  1  'x, y, z'
loop_
 _atom_site_type_symbol
 _atom_site_label
 _atom_site_symmetry_multiplicity
 _atom_site_fract_x
 _atom_site_fract_y
 _atom_site_fract_z
 _atom_site_occupancy
  K  K0  1  0.00000000  0.00000000  0.00000000  1
  Li  Li0  1  0.75000000  0.25000000  0.50000000  1
  Hg  Hg0  1  0.25000000  0.75000000  0.50000000  1
  Se  Se0  1  0.63538418  0.63538418  1.00000000  1
  Se  Se1  1  0.36461582  0.36461582  0.00000000  1
loop_
_geom_bond_atom_site_label_1
_geom_bond_atom_site_label_2
_geom_bond_distance
_geom_bond_site_symmetry_2
K0 Se0 3.585749 1_555
K0 Se1 3.585749 1_444
K0 Se0 3.585749 1_443
K0 Se1 3.585749 1_556
K0 Se0 3.585749 1_544
K0 Se1 3.585749 1_455
K0 Se0 3.585749 1_454
K0 Se1 3.585749 1_545
Li0 Se1 2.687665 1_656
Li0 Se1 2.687665 1_555
Li0 Se0 2.687666 1_555
Li0 Se0 2.687666 1_544
Hg0 Se0 2.687665 1_454
Hg0 Se0 2.687665 1_555
Hg0 Se1 2.687666 1_555
Hg0 Se1 2.687666 1_566
Hg0 Li0 3.031591 1_566
Hg0 Li0 3.031591 1_454
Hg0 Li0 3.031591 1_555
Hg0 Li0 3.031591 1_465
