# generated using pymatgen
data_Hf9Mo4N3
_symmetry_space_group_name_H-M   'P 1'
_cell_length_a   8.55312622
_cell_length_b   8.55312513
_cell_length_c   8.39038069
_cell_angle_alpha   90.00000000
_cell_angle_beta   90.00000000
_cell_angle_gamma   120.00000036
_symmetry_Int_Tables_number   1
_chemical_formula_structural   Hf9Mo4N3
_chemical_formula_sum   'Hf18 Mo8 N6'
_cell_volume   531.57188479
_cell_formula_units_Z   2
loop_
 _symmetry_equiv_pos_site_id
 _symmetry_equiv_pos_as_xyz
  1  'x, y, z'
loop_
 _atom_site_type_symbol
 _atom_site_label
 _atom_site_symmetry_multiplicity
 _atom_site_fract_x
 _atom_site_fract_y
 _atom_site_fract_z
 _atom_site_occupancy
  Hf  Hf0  1  0.45456230  0.90912359  0.25000000  1
  Hf  Hf1  1  0.54543770  0.09087641  0.75000000  1
  Hf  Hf2  1  0.09087641  0.54543770  0.25000000  1
  Hf  Hf3  1  0.90912359  0.45456230  0.75000000  1
  Hf  Hf4  1  0.45456230  0.54543770  0.25000000  1
  Hf  Hf5  1  0.54543770  0.45456230  0.75000000  1
  Hf  Hf6  1  0.20694646  0.41389393  0.55804486  1
  Hf  Hf7  1  0.79305354  0.58610607  0.44195514  1
  Hf  Hf8  1  0.58610607  0.79305354  0.55804486  1
  Hf  Hf9  1  0.79305354  0.58610607  0.05804486  1
  Hf  Hf10  1  0.41389393  0.20694646  0.44195514  1
  Hf  Hf11  1  0.20694646  0.41389393  0.94195514  1
  Hf  Hf12  1  0.20694646  0.79305354  0.55804486  1
  Hf  Hf13  1  0.41389393  0.20694646  0.05804486  1
  Hf  Hf14  1  0.79305354  0.20694646  0.44195514  1
  Hf  Hf15  1  0.58610607  0.79305354  0.94195514  1
  Hf  Hf16  1  0.79305354  0.20694646  0.05804486  1
  Hf  Hf17  1  0.20694646  0.79305354  0.94195514  1
  Mo  Mo0  1  0.10782383  0.21564566  0.25000000  1
  Mo  Mo1  1  0.89217617  0.78435434  0.75000000  1
  Mo  Mo2  1  0.78435434  0.89217617  0.25000000  1
  Mo  Mo3  1  0.21564566  0.10782383  0.75000000  1
  Mo  Mo4  1  0.10782383  0.89217617  0.25000000  1
  Mo  Mo5  1  0.89217617  0.10782383  0.75000000  1
  Mo  Mo6  1  0.00000000  0.00000000  0.00000000  1
  Mo  Mo7  1  0.00000000  0.00000000  0.50000000  1
  N  N0  1  0.50000000  0.00000000  0.00000000  1
  N  N1  1  0.00000000  0.50000000  0.00000000  1
  N  N2  1  0.50000000  0.00000000  0.50000000  1
  N  N3  1  0.50000000  0.50000000  0.00000000  1
  N  N4  1  0.00000000  0.50000000  0.50000000  1
  N  N5  1  0.50000000  0.50000000  0.50000000  1
loop_
_geom_bond_atom_site_label_1
_geom_bond_atom_site_label_2
_geom_bond_distance
_geom_bond_site_symmetry_2
Hf0 N0 2.202958 1_565
Hf0 N2 2.202958 1_565
Hf0 Mo4 2.895943 1_555
Hf0 Mo2 2.895952 1_555
Hf1 N2 2.202958 1_555
Hf1 N0 2.202958 1_556
Hf1 Mo5 2.895943 1_555
Hf1 Mo3 2.895952 1_555
Hf2 N4 2.202958 1_555
Hf2 N1 2.202958 1_555
Hf2 Mo4 2.895943 1_555
Hf2 Mo0 2.895951 1_555
Hf3 N1 2.202958 1_656
Hf3 N4 2.202958 1_655
Hf3 Mo5 2.895943 1_555
Hf3 Mo1 2.895951 1_555
Hf4 N3 2.202956 1_555
Hf4 N5 2.202956 1_555
Hf4 Mo2 2.895947 1_555
Hf4 Mo0 2.895947 1_555
Hf5 N5 2.202956 1_555
Hf5 N3 2.202956 1_556
Hf5 Mo3 2.895947 1_555
Hf5 Mo1 2.895947 1_555
Hf6 N4 2.283903 1_555
Hf6 N5 2.283911 1_555
Hf6 Mo0 2.972647 1_555
Hf6 Mo7 3.104247 1_555
Hf6 Mo3 3.106034 1_555
Hf6 Mo5 3.106038 1_455
Hf7 N4 2.283903 1_655
Hf7 N5 2.283911 1_555
Hf7 Mo1 2.972647 1_555
Hf7 Mo7 3.104247 1_665
Hf7 Mo2 3.106034 1_555
Hf7 Mo4 3.106038 1_655
Hf8 N2 2.283903 1_565
Hf8 N5 2.283911 1_555
Hf8 Mo2 2.972647 1_555
Hf8 Mo7 3.104247 1_665
Hf8 Mo1 3.106034 1_555
Hf8 Mo5 3.106038 1_565
Hf9 N1 2.283903 1_655
Hf9 N3 2.283911 1_555
Hf9 Mo1 2.972647 1_554
Hf9 Mo6 3.104247 1_665
Hf9 Mo2 3.106034 1_555
Hf9 Mo4 3.106038 1_655
Hf10 N2 2.283903 1_555
Hf10 N5 2.283911 1_555
Hf10 Mo3 2.972647 1_555
Hf10 Mo7 3.104247 1_555
Hf10 Mo0 3.106034 1_555
Hf10 Mo4 3.106038 1_545
Hf11 N1 2.283903 1_556
Hf11 N3 2.283911 1_556
Hf11 Mo0 2.972647 1_556
Hf11 Mo6 3.104247 1_556
Hf11 Mo3 3.106034 1_555
Hf11 Mo5 3.106038 1_455
Hf12 N4 2.283909 1_555
Hf12 N2 2.283909 1_565
Hf12 Mo4 2.972636 1_555
Hf12 Mo7 3.104239 1_565
Hf12 Mo3 3.106041 1_565
Hf12 Mo1 3.106041 1_455
Hf13 N0 2.283903 1_555
Hf13 N3 2.283911 1_555
Hf13 Mo3 2.972647 1_554
Hf13 Mo6 3.104247 1_555
Hf13 Mo0 3.106034 1_555
Hf13 Mo4 3.106038 1_545
Hf14 N4 2.283909 1_655
Hf14 N2 2.283909 1_555
Hf14 Mo5 2.972636 1_555
Hf14 Mo7 3.104239 1_655
Hf14 Mo2 3.106041 1_545
Hf14 Mo0 3.106041 1_655
Hf15 N0 2.283903 1_566
Hf15 N3 2.283911 1_556
Hf15 Mo2 2.972647 1_556
Hf15 Mo6 3.104247 1_666
Hf15 Mo1 3.106034 1_555
Hf15 Mo5 3.106038 1_565
Hf16 N1 2.283909 1_655
Hf16 N0 2.283909 1_555
Hf16 Mo5 2.972636 1_554
Hf16 Mo6 3.104239 1_655
Hf16 Mo2 3.106041 1_545
Hf16 Mo0 3.106041 1_655
Hf17 N1 2.283909 1_556
Hf17 N0 2.283909 1_566
Hf17 Mo4 2.972636 1_556
Hf17 Mo6 3.104239 1_566
Hf17 Mo3 3.106041 1_565
Hf17 Mo1 3.106041 1_455
Mo0 Mo6 2.636548 1_555
Mo0 Mo7 2.636548 1_555
Mo0 Mo4 2.766675 1_545
Mo0 Mo2 2.766675 1_445
Mo1 Mo7 2.636548 1_665
Mo1 Mo6 2.636548 1_666
Mo1 Mo5 2.766675 1_565
Mo1 Mo3 2.766675 1_665
Mo2 Mo7 2.636548 1_665
Mo2 Mo6 2.636548 1_665
Mo2 Mo4 2.766675 1_655
Mo3 Mo6 2.636548 1_556
Mo3 Mo7 2.636548 1_555
Mo3 Mo5 2.766675 1_455
Mo4 Mo6 2.636557 1_565
Mo4 Mo7 2.636557 1_565
Mo5 Mo6 2.636557 1_656
Mo5 Mo7 2.636557 1_655
