# generated using pymatgen
data_HfAl3(GaFe2)3
_symmetry_space_group_name_H-M   'P 1'
_cell_length_a   6.47804991
_cell_length_b   6.47805105
_cell_length_c   6.47804950
_cell_angle_alpha   135.36398894
_cell_angle_beta   98.85680654
_cell_angle_gamma   97.72680566
_symmetry_Int_Tables_number   1
_chemical_formula_structural   HfAl3(GaFe2)3
_chemical_formula_sum   'Hf1 Al3 Ga3 Fe6'
_cell_volume   176.68403034
_cell_formula_units_Z   1
loop_
 _symmetry_equiv_pos_site_id
 _symmetry_equiv_pos_as_xyz
  1  'x, y, z'
loop_
 _atom_site_type_symbol
 _atom_site_label
 _atom_site_symmetry_multiplicity
 _atom_site_fract_x
 _atom_site_fract_y
 _atom_site_fract_z
 _atom_site_occupancy
  Hf  Hf0  1  0.99954584  0.99954584  1.00000000  1
  Al  Al0  1  0.81381199  0.31381199  0.50000000  1
  Al  Al1  1  0.65707498  0.65707498  0.00000000  1
  Al  Al2  1  0.34345702  0.34345702  0.00000000  1
  Ga  Ga0  1  0.33598191  0.00299682  0.33298510  1
  Ga  Ga1  1  0.17560912  0.67560912  0.50000000  1
  Ga  Ga2  1  0.67001072  0.00299682  0.66701490  1
  Fe  Fe0  1  0.75793431  0.49948096  0.25845436  1
  Fe  Fe1  1  0.24102660  0.49948096  0.74154564  1
  Fe  Fe2  1  0.00193222  0.00055002  0.49970899  1
  Fe  Fe3  1  0.50084103  0.00055002  0.99861781  1
  Fe  Fe4  1  0.00193222  0.50222322  0.00138219  1
  Fe  Fe5  1  0.50084103  0.50222322  0.50029101  1
loop_
_geom_bond_atom_site_label_1
_geom_bond_atom_site_label_2
_geom_bond_distance
_geom_bond_site_symmetry_2
Al0 Fe4 2.502708 1_656
Al0 Fe3 2.502708 1_554
Al0 Fe5 2.502708 1_555
Al0 Fe2 2.502708 1_655
Al0 Fe1 2.578221 1_655
Al0 Fe0 2.578222 1_555
Al0 Al1 2.799348 1_556
Al0 Al1 2.799348 1_545
Al0 Hf0 2.925365 1_544
Al0 Hf0 2.925366 1_555
Al0 Ga0 2.999787 1_555
Al0 Ga2 2.999789 1_555
Al0 Ga1 3.083689 1_655
Al1 Fe0 2.558798 1_555
Al1 Fe1 2.558800 1_554
Al1 Fe5 2.570284 1_554
Al1 Fe2 2.570284 1_665
Al1 Fe4 2.570284 1_655
Al1 Fe3 2.570285 1_564
Al1 Al2 2.673046 1_555
Al1 Hf0 2.918966 1_554
Al2 Fe0 2.551794 1_555
Al2 Fe1 2.551800 1_554
Al2 Fe5 2.560766 1_555
Al2 Fe2 2.560767 1_554
Al2 Fe4 2.560767 1_555
Al2 Fe3 2.560767 1_554
Al2 Ga1 2.845758 1_555
Al2 Ga1 2.845759 1_544
Al2 Hf0 2.931243 1_444
Ga0 Hf0 2.806092 1_444
Ga0 Ga2 2.814737 1_555
Ga1 Hf0 2.881595 1_455
Ga1 Hf0 2.881596 1_444
Ga2 Hf0 2.806096 1_545
Fe0 Fe5 2.449531 1_555
Fe0 Fe3 2.449534 1_554
Fe0 Fe2 2.473281 1_665
Fe0 Fe4 2.473283 1_655
Fe0 Ga1 2.529129 1_655
Fe0 Ga2 2.578042 1_554
Fe0 Ga2 2.578043 1_565
Fe1 Fe4 2.449536 1_556
Fe1 Fe2 2.449537 1_555
Fe1 Fe5 2.473278 1_555
Fe1 Fe3 2.473279 1_565
Fe1 Ga1 2.529123 1_555
Fe1 Ga0 2.578042 1_566
Fe1 Ga0 2.578043 1_555
Fe2 Fe4 2.451787 1_545
Fe2 Fe4 2.468252 1_556
Fe2 Ga1 2.517659 1_545
Fe2 Ga2 2.549630 1_455
Fe2 Ga0 2.566017 1_555
Fe3 Fe5 2.451787 1_545
Fe3 Fe5 2.468252 1_556
Fe3 Ga1 2.517659 1_545
Fe3 Ga0 2.549624 1_556
Fe3 Ga2 2.566014 1_555
Fe4 Ga1 2.517659 1_555
Fe4 Ga2 2.549628 1_454
Fe4 Ga0 2.566018 1_565
Fe5 Ga1 2.517659 1_555
Fe5 Ga0 2.549625 1_555
Fe5 Ga2 2.566017 1_565
