# generated using pymatgen
data_LuCoBr
_symmetry_space_group_name_H-M   'P 1'
_cell_length_a   3.84012203
_cell_length_b   3.84012184
_cell_length_c   11.28022830
_cell_angle_alpha   90.00000000
_cell_angle_beta   90.00000000
_cell_angle_gamma   120.00001016
_symmetry_Int_Tables_number   1
_chemical_formula_structural   LuCoBr
_chemical_formula_sum   'Lu2 Co2 Br2'
_cell_volume   144.05837330
_cell_formula_units_Z   2
loop_
 _symmetry_equiv_pos_site_id
 _symmetry_equiv_pos_as_xyz
  1  'x, y, z'
loop_
 _atom_site_type_symbol
 _atom_site_label
 _atom_site_symmetry_multiplicity
 _atom_site_fract_x
 _atom_site_fract_y
 _atom_site_fract_z
 _atom_site_occupancy
  Lu  Lu0  1  0.00000000  0.00000000  0.16404467  1
  Lu  Lu1  1  0.00000000  0.00000000  0.83595533  1
  Co  Co0  1  0.66666700  0.33333400  0.00975448  1
  Co  Co1  1  0.33333400  0.66666700  0.99024552  1
  Br  Br0  1  0.33333400  0.66666700  0.32950331  1
  Br  Br1  1  0.66666700  0.33333400  0.67049669  1
loop_
_geom_bond_atom_site_label_1
_geom_bond_atom_site_label_2
_geom_bond_distance
_geom_bond_site_symmetry_2
Co0 Co1 2.227988 1_554
Co0 Co1 2.227991 1_544
Co0 Co1 2.227991 1_654
Co0 Lu0 2.818615 1_665
Co0 Lu0 2.818618 1_555
Co0 Lu0 2.818618 1_655
Co0 Lu1 2.959567 1_664
Co0 Lu1 2.959570 1_554
Co0 Lu1 2.959570 1_654
Co1 Lu1 2.818615 1_665
Co1 Lu1 2.818618 1_555
Co1 Lu1 2.818618 1_565
Co1 Lu0 2.959567 1_666
Co1 Lu0 2.959570 1_556
Co1 Lu0 2.959570 1_566
Br0 Lu0 2.898101 1_665
Br0 Lu0 2.898104 1_555
Br0 Lu0 2.898104 1_565
Br1 Lu1 2.898101 1_665
Br1 Lu1 2.898104 1_555
Br1 Lu1 2.898104 1_655
