# generated using pymatgen
data_ZrTa2(NbN3)2
_symmetry_space_group_name_H-M   'P 1'
_cell_length_a   5.28031717
_cell_length_b   5.27008323
_cell_length_c   10.49189685
_cell_angle_alpha   89.98816010
_cell_angle_beta   90.00590370
_cell_angle_gamma   119.93591489
_symmetry_Int_Tables_number   1
_chemical_formula_structural   ZrTa2(NbN3)2
_chemical_formula_sum   'Zr2 Ta4 Nb4 N12'
_cell_volume   253.01263431
_cell_formula_units_Z   2
loop_
 _symmetry_equiv_pos_site_id
 _symmetry_equiv_pos_as_xyz
  1  'x, y, z'
loop_
 _atom_site_type_symbol
 _atom_site_label
 _atom_site_symmetry_multiplicity
 _atom_site_fract_x
 _atom_site_fract_y
 _atom_site_fract_z
 _atom_site_occupancy
  Zr  Zr0  1  0.33009864  0.66504982  0.50000000  1
  Zr  Zr1  1  0.66594780  0.33297340  0.00000000  1
  Ta  Ta0  1  0.66654156  0.33327078  0.50000000  1
  Ta  Ta1  1  0.33037144  0.66518622  1.00000000  1
  Ta  Ta2  1  0.67757890  0.99941633  0.74989965  1
  Ta  Ta3  1  0.67757890  0.67816257  0.25010035  1
  Nb  Nb0  1  0.99999229  0.32410486  0.24993108  1
  Nb  Nb1  1  0.99999229  0.67588743  0.75006892  1
  Nb  Nb2  1  0.32395089  0.32366429  0.74994112  1
  Nb  Nb3  1  0.32395089  0.00028660  0.25005888  1
  N  N0  1  0.35514509  0.34554440  0.37712215  1
  N  N1  1  0.66020026  0.00532464  0.37778273  1
  N  N2  1  0.98622137  0.65213584  0.37786089  1
  N  N3  1  0.00501418  0.34303805  0.87802190  1
  N  N4  1  0.65010603  0.98612777  0.12222019  1
  N  N5  1  0.65010603  0.66397926  0.87777981  1
  N  N6  1  0.34531077  0.99013884  0.87695372  1
  N  N7  1  0.66020026  0.65487561  0.62221727  1
  N  N8  1  0.98622137  0.33408453  0.62213911  1
  N  N9  1  0.00501418  0.66197713  0.12197810  1
  N  N10  1  0.35514509  0.00959969  0.62287785  1
  N  N11  1  0.34531077  0.35517293  0.12304628  1
loop_
_geom_bond_atom_site_label_1
_geom_bond_atom_site_label_2
_geom_bond_distance
_geom_bond_site_symmetry_2
N0 Ta0 2.115558 1_555
N0 Zr0 2.176701 1_555
N0 Ta3 2.183657 1_555
N0 Nb3 2.194750 1_555
N0 Nb0 2.257982 1_455
N1 Ta0 2.139059 1_555
N1 Zr0 2.185890 1_545
N1 Nb0 2.198202 1_555
N1 Nb3 2.213903 1_555
N1 Ta3 2.221416 1_545
N2 Ta0 2.117519 1_555
N2 Ta3 2.166615 1_555
N2 Zr0 2.195468 1_655
N2 Nb0 2.218531 1_555
N2 Nb3 2.253540 1_665
N3 Ta1 2.135664 1_555
N3 Zr1 2.179856 1_456
N3 Nb2 2.196483 1_555
N3 Nb1 2.219323 1_455
N3 Ta2 2.225154 1_445
N4 Ta1 2.122714 1_554
N4 Ta3 2.165502 1_555
N4 Zr1 2.199780 1_565
N4 Nb3 2.213443 1_565
N4 Nb0 2.257740 1_565
N5 Ta1 2.122714 1_555
N5 Ta2 2.165498 1_555
N5 Zr1 2.199788 1_556
N5 Nb2 2.213446 1_555
N5 Nb1 2.257742 1_555
N6 Ta1 2.114214 1_555
N6 Zr1 2.178301 1_566
N6 Ta2 2.184588 1_555
N6 Nb1 2.196878 1_455
N6 Nb2 2.252765 1_565
N7 Ta0 2.139059 1_555
N7 Zr0 2.185893 1_555
N7 Nb1 2.198202 1_555
N7 Nb2 2.213903 1_555
N7 Ta2 2.221416 1_555
N8 Ta0 2.117522 1_555
N8 Ta2 2.166612 1_545
N8 Zr0 2.195471 1_655
N8 Nb1 2.218535 1_555
N8 Nb2 2.253538 1_655
N9 Ta1 2.135664 1_554
N9 Zr1 2.179860 1_455
N9 Nb3 2.196481 1_565
N9 Nb0 2.219327 1_455
N9 Ta3 2.225152 1_455
N10 Ta0 2.115560 1_555
N10 Zr0 2.176692 1_545
N10 Ta2 2.183655 1_545
N10 Nb2 2.194754 1_555
N10 Nb1 2.257980 1_445
N11 Ta1 2.114214 1_554
N11 Zr1 2.178306 1_555
N11 Ta3 2.184586 1_555
N11 Nb0 2.196876 1_455
N11 Nb3 2.252769 1_555
