# generated using pymatgen
data_K2Zn(PPd2)3
_symmetry_space_group_name_H-M   'P 1'
_cell_length_a   6.93802060
_cell_length_b   6.94735630
_cell_length_c   6.93802056
_cell_angle_alpha   128.48428839
_cell_angle_beta   120.56700917
_cell_angle_gamma   82.44335669
_symmetry_Int_Tables_number   1
_chemical_formula_structural   K2Zn(PPd2)3
_chemical_formula_sum   'K2 Zn1 P3 Pd6'
_cell_volume   216.74497985
_cell_formula_units_Z   1
loop_
 _symmetry_equiv_pos_site_id
 _symmetry_equiv_pos_as_xyz
  1  'x, y, z'
loop_
 _atom_site_type_symbol
 _atom_site_label
 _atom_site_symmetry_multiplicity
 _atom_site_fract_x
 _atom_site_fract_y
 _atom_site_fract_z
 _atom_site_occupancy
  K  K0  1  0.01213189  0.01074124  0.99860935  1
  K  K1  1  0.49646706  0.99626862  0.49980156  1
  Zn  Zn0  1  0.33891142  0.33859381  0.99968239  1
  P  P0  1  0.82956641  0.32722822  0.49766281  1
  P  P1  1  0.62281027  0.62218187  0.99937261  1
  P  P2  1  0.19773687  0.69516292  0.49742605  1
  Pd  Pd0  1  0.96152403  0.50283283  0.96837704  1
  Pd  Pd1  1  0.53445579  0.50283283  0.54130980  1
  Pd  Pd2  1  0.96193920  0.99020697  0.45686057  1
  Pd  Pd3  1  0.80254435  0.50437137  0.29580703  1
  Pd  Pd4  1  0.20856434  0.50437137  0.70182602  1
  Pd  Pd5  1  0.53334839  0.99020697  0.02826777  1
loop_
_geom_bond_atom_site_label_1
_geom_bond_atom_site_label_2
_geom_bond_distance
_geom_bond_site_symmetry_2
K0 Pd3 3.324260 1_445
K0 Pd4 3.324261 1_545
K0 Pd4 3.326273 1_556
K0 Pd3 3.326277 1_456
K0 Zn0 3.412939 1_555
K0 K1 3.443133 1_546
K0 K1 3.443133 1_445
K0 Pd0 3.456621 1_445
K0 Pd1 3.456623 1_445
K0 Pd5 3.457383 1_446
K0 Pd2 3.457397 1_446
K0 Pd2 3.504797 1_445
K0 Pd5 3.504811 1_546
K0 Pd0 3.515238 1_455
K0 Pd1 3.515238 1_556
K0 P0 3.560947 1_456
K0 P0 3.577239 1_445
K0 P2 3.583494 1_556
K0 P2 3.588799 1_545
K1 P2 3.120032 1_555
K1 P1 3.292900 1_554
K1 P1 3.293125 1_565
K1 Pd1 3.382766 1_565
K1 Pd0 3.382771 1_565
K1 Pd2 3.383358 1_555
K1 Pd5 3.383366 1_555
K1 Zn0 3.433040 1_565
K1 Zn0 3.440246 1_554
K1 P0 3.478917 1_565
K1 Pd5 3.570104 1_556
K1 Pd2 3.570111 1_455
K1 Pd0 3.580215 1_454
K1 Pd1 3.580219 1_555
K1 Pd4 3.640098 1_565
K1 Pd3 3.640099 1_566
K1 Pd3 3.649611 1_555
K1 Pd4 3.649616 1_554
P0 Pd2 2.297761 1_545
P0 Pd5 2.297761 1_545
P0 Pd0 2.299146 1_555
P0 Pd1 2.299152 1_555
P0 Pd4 2.308339 1_655
P0 Pd3 2.308341 1_555
P1 Pd3 2.381788 1_556
P1 Pd4 2.381795 1_555
P1 Pd2 2.456397 1_556
P1 Pd5 2.456398 1_556
P1 Pd1 2.456796 1_555
P1 Pd0 2.456798 1_555
P1 Zn0 2.965061 1_555
P2 Pd4 2.445128 1_555
P2 Pd3 2.445134 1_455
P2 Pd1 2.509509 1_555
P2 Pd0 2.509509 1_454
P2 Pd2 2.514938 1_455
P2 Pd5 2.514942 1_556
Pd0 Zn0 2.673759 1_655
Pd0 Pd1 2.937575 1_555
Pd0 Pd2 2.942986 1_556
Pd0 Pd3 2.982053 1_556
Pd0 Pd2 3.091184 1_545
Pd0 Pd4 3.100187 1_655
Pd1 Zn0 2.673766 1_554
Pd1 Pd5 2.942977 1_556
Pd1 Pd4 2.982043 1_555
Pd1 Pd5 3.091193 1_545
Pd1 Pd3 3.100187 1_555
Pd2 Zn0 2.680274 1_665
Pd2 Pd5 2.948058 1_555
Pd2 Pd3 2.982433 1_555
Pd2 Pd4 3.109648 1_665
Pd3 Zn0 2.683710 1_554
Pd3 Pd5 3.109639 1_545
Pd4 Zn0 2.683715 1_555
Pd4 Pd5 2.982439 1_556
Pd5 Zn0 2.680278 1_564
