# generated using pymatgen
data_V3GaReSe8
_symmetry_space_group_name_H-M   'P 1'
_cell_length_a   7.25424019
_cell_length_b   7.25444780
_cell_length_c   7.14214880
_cell_angle_alpha   59.47923998
_cell_angle_beta   59.47930771
_cell_angle_gamma   59.99993611
_symmetry_Int_Tables_number   1
_chemical_formula_structural   V3GaReSe8
_chemical_formula_sum   'V3 Ga1 Re1 Se8'
_cell_volume   263.66138302
_cell_formula_units_Z   1
loop_
 _symmetry_equiv_pos_site_id
 _symmetry_equiv_pos_as_xyz
  1  'x, y, z'
loop_
 _atom_site_type_symbol
 _atom_site_label
 _atom_site_symmetry_multiplicity
 _atom_site_fract_x
 _atom_site_fract_y
 _atom_site_fract_z
 _atom_site_occupancy
  V  V0  1  0.60762868  0.60762770  0.59546482  1
  V  V1  1  0.18930822  0.60759189  0.59547897  1
  V  V2  1  0.60761548  0.18931152  0.59546575  1
  Ga  Ga0  1  0.00127862  0.00130108  0.99617812  1
  Re  Re0  1  0.59932040  0.59926706  0.20206914  1
  Se  Se0  1  0.86020333  0.86023551  0.86805338  1
  Se  Se1  1  0.41151745  0.86024899  0.86804653  1
  Se  Se2  1  0.86024837  0.41152096  0.86804949  1
  Se  Se3  1  0.86422006  0.86422300  0.40735368  1
  Se  Se4  1  0.36453382  0.36450077  0.37281515  1
  Se  Se5  1  0.89812476  0.36451044  0.37282433  1
  Se  Se6  1  0.36451681  0.89808183  0.37283835  1
  Se  Se7  1  0.37148498  0.37157924  0.88536130  1
loop_
_geom_bond_atom_site_label_1
_geom_bond_atom_site_label_2
_geom_bond_distance
_geom_bond_site_symmetry_2
Ga0 Se3 2.378741 1_446
Ga0 Se2 2.424970 1_455
Ga0 Se1 2.425014 1_545
Ga0 Se0 2.425205 1_445
Re0 Se5 2.443376 1_555
Re0 Se4 2.443388 1_555
Re0 Se6 2.443546 1_555
Re0 Se2 2.695317 1_554
Re0 Se1 2.695556 1_554
Re0 Se0 2.695689 1_554
Se0 V2 2.715719 1_565
Se0 V1 2.715963 1_655
Se1 V2 2.715675 1_565
Se1 V0 2.715892 1_555
Se2 V1 2.715513 1_655
Se2 V0 2.715856 1_555
Se3 V0 2.668228 1_555
Se3 V1 2.668321 1_655
Se3 V2 2.668322 1_565
Se4 V2 2.409930 1_555
Se4 V1 2.410061 1_555
Se5 V2 2.409807 1_555
Se5 V0 2.410030 1_555
Se6 V1 2.409763 1_555
Se6 V0 2.409870 1_555
Se7 V1 2.424945 1_555
Se7 V2 2.425457 1_555
Se7 V0 2.425589 1_555
