# generated using pymatgen
data_MgAl2(Ni10B3)2
_symmetry_space_group_name_H-M   'P 1'
_cell_length_a   7.36413392
_cell_length_b   7.36413465
_cell_length_c   7.36413333
_cell_angle_alpha   60.00000591
_cell_angle_beta   60.00000264
_cell_angle_gamma   60.00000503
_symmetry_Int_Tables_number   1
_chemical_formula_structural   MgAl2(Ni10B3)2
_chemical_formula_sum   'Mg1 Al2 Ni20 B6'
_cell_volume   282.39050357
_cell_formula_units_Z   1
loop_
 _symmetry_equiv_pos_site_id
 _symmetry_equiv_pos_as_xyz
  1  'x, y, z'
loop_
 _atom_site_type_symbol
 _atom_site_label
 _atom_site_symmetry_multiplicity
 _atom_site_fract_x
 _atom_site_fract_y
 _atom_site_fract_z
 _atom_site_occupancy
  Mg  Mg0  1  0.75000000  0.75000000  0.75000000  1
  Al  Al0  1  0.00000000  0.00000000  0.00000000  1
  Al  Al1  1  0.25000000  0.25000000  0.25000000  1
  Ni  Ni0  1  0.00040150  0.33752794  0.66166907  1
  Ni  Ni1  1  0.00040150  0.00040150  0.66166907  1
  Ni  Ni2  1  0.66166907  0.33752794  0.00040150  1
  Ni  Ni3  1  0.00040150  0.33752794  0.00040150  1
  Ni  Ni4  1  0.33752794  0.00040150  0.66166907  1
  Ni  Ni5  1  0.33752794  0.00040150  0.00040150  1
  Ni  Ni6  1  0.66166907  0.00040150  0.00040150  1
  Ni  Ni7  1  0.33752794  0.66166907  0.00040150  1
  Ni  Ni8  1  0.66166907  0.00040150  0.33752794  1
  Ni  Ni9  1  0.00040150  0.00040150  0.33752794  1
  Ni  Ni10  1  0.00040150  0.66166907  0.00040150  1
  Ni  Ni11  1  0.00040150  0.66166907  0.33752794  1
  Ni  Ni12  1  0.61373479  0.15879462  0.61373479  1
  Ni  Ni13  1  0.38104003  0.38104003  0.85688092  1
  Ni  Ni14  1  0.85688092  0.38104003  0.38104003  1
  Ni  Ni15  1  0.38104003  0.38104003  0.38104003  1
  Ni  Ni16  1  0.15879462  0.61373479  0.61373479  1
  Ni  Ni17  1  0.61373479  0.61373479  0.61373479  1
  Ni  Ni18  1  0.61373479  0.61373479  0.15879462  1
  Ni  Ni19  1  0.38104003  0.85688092  0.38104003  1
  B  B0  1  0.72619960  0.27380040  0.72619960  1
  B  B1  1  0.72619960  0.27380040  0.27380040  1
  B  B2  1  0.27380040  0.72619960  0.72619960  1
  B  B3  1  0.27380040  0.27380040  0.72619960  1
  B  B4  1  0.72619960  0.72619960  0.27380040  1
  B  B5  1  0.27380040  0.72619960  0.27380040  1
loop_
_geom_bond_atom_site_label_1
_geom_bond_atom_site_label_2
_geom_bond_distance
_geom_bond_site_symmetry_2
Mg0 Ni18 2.457996 1_556
Mg0 Ni16 2.457996 1_655
Mg0 Ni12 2.457997 1_565
Mg0 Ni17 2.458002 1_555
Al0 Ni9 2.488561 1_555
Al0 Ni1 2.488561 1_554
Al0 Ni5 2.488561 1_555
Al0 Ni4 2.488561 1_554
Al0 Ni8 2.488561 1_455
Al0 Ni6 2.488561 1_455
Al0 Ni0 2.488561 1_554
Al0 Ni3 2.488561 1_555
Al0 Ni11 2.488561 1_545
Al0 Ni10 2.488561 1_545
Al0 Ni2 2.488561 1_455
Al0 Ni7 2.488561 1_545
Al1 Ni13 2.363742 1_554
Al1 Ni14 2.363743 1_455
Al1 Ni19 2.363743 1_545
Al1 Ni15 2.363748 1_555
B0 Ni17 2.043983 1_555
B0 Ni12 2.043989 1_555
B0 Ni2 2.070874 1_556
B0 Ni0 2.070874 1_655
B0 Ni6 2.070874 1_556
B0 Ni1 2.070874 1_655
B0 Ni14 2.077764 1_555
B0 Ni13 2.077764 1_555
B1 Ni12 2.043983 1_555
B1 Ni18 2.043983 1_555
B1 Ni2 2.070874 1_555
B1 Ni3 2.070874 1_655
B1 Ni8 2.070874 1_555
B1 Ni9 2.070874 1_655
B1 Ni15 2.077764 1_555
B1 Ni14 2.077770 1_555
B2 Ni17 2.043983 1_555
B2 Ni16 2.043989 1_555
B2 Ni7 2.070874 1_556
B2 Ni10 2.070874 1_556
B2 Ni4 2.070874 1_565
B2 Ni1 2.070874 1_565
B2 Ni19 2.077764 1_555
B2 Ni13 2.077764 1_555
B3 Ni12 2.043983 1_555
B3 Ni16 2.043983 1_555
B3 Ni0 2.070874 1_555
B3 Ni3 2.070874 1_556
B3 Ni5 2.070874 1_556
B3 Ni4 2.070874 1_555
B3 Ni15 2.077764 1_555
B3 Ni13 2.077770 1_555
B4 Ni17 2.043983 1_555
B4 Ni18 2.043989 1_555
B4 Ni10 2.070874 1_655
B4 Ni11 2.070874 1_655
B4 Ni8 2.070874 1_565
B4 Ni6 2.070874 1_565
B4 Ni19 2.077764 1_555
B4 Ni14 2.077764 1_555
B5 Ni16 2.043983 1_555
B5 Ni18 2.043983 1_555
B5 Ni7 2.070874 1_555
B5 Ni11 2.070874 1_555
B5 Ni5 2.070874 1_565
B5 Ni9 2.070874 1_565
B5 Ni15 2.077764 1_555
B5 Ni19 2.077770 1_555
