# generated using pymatgen
data_Y2TcWC3
_symmetry_space_group_name_H-M   'P 1'
_cell_length_a   6.05468295
_cell_length_b   6.05468247
_cell_length_c   5.71315655
_cell_angle_alpha   112.46492407
_cell_angle_beta   112.46492246
_cell_angle_gamma   32.26985878
_symmetry_Int_Tables_number   1
_chemical_formula_structural   Y2TcWC3
_chemical_formula_sum   'Y2 Tc1 W1 C3'
_cell_volume   102.59369226
_cell_formula_units_Z   1
loop_
 _symmetry_equiv_pos_site_id
 _symmetry_equiv_pos_as_xyz
  1  'x, y, z'
loop_
 _atom_site_type_symbol
 _atom_site_label
 _atom_site_symmetry_multiplicity
 _atom_site_fract_x
 _atom_site_fract_y
 _atom_site_fract_z
 _atom_site_occupancy
  Y  Y0  1  0.60868424  0.60868424  0.31819018  1
  Y  Y1  1  0.39168420  0.39168420  0.67269933  1
  Tc  Tc0  1  0.84043763  0.84043763  0.18090019  1
  W  W0  1  0.15975067  0.15975067  0.82607958  1
  C  C0  1  0.24916227  0.24916227  0.22999260  1
  C  C1  1  0.99849193  0.99849193  0.50099354  1
  C  C2  1  0.75178906  0.75178906  0.77114259  1
loop_
_geom_bond_atom_site_label_1
_geom_bond_atom_site_label_2
_geom_bond_distance
_geom_bond_site_symmetry_2
C0 Tc0 2.067372 1_455
C0 Tc0 2.067373 1_545
C0 W0 2.120709 1_554
C0 Y1 2.410327 1_555
C0 Y0 2.531871 1_545
C0 Y0 2.531872 1_455
C1 Tc0 2.012376 1_555
C1 W0 2.048524 1_665
C1 Y1 2.511321 1_655
C1 Y1 2.511321 1_565
C1 Y0 2.574861 1_565
C1 Y0 2.574861 1_655
C2 W0 2.084040 1_655
C2 W0 2.084040 1_565
C2 Tc0 2.150150 1_556
C2 Y0 2.457756 1_555
C2 Y1 2.554161 1_565
C2 Y1 2.554162 1_655
