# generated using pymatgen
data_Hf5V(Ga2Sn)2
_symmetry_space_group_name_H-M   'P 1'
_cell_length_a   5.53908236
_cell_length_b   8.65949191
_cell_length_c   9.22285253
_cell_angle_alpha   90.00000000
_cell_angle_beta   90.00000000
_cell_angle_gamma   90.00000000
_symmetry_Int_Tables_number   1
_chemical_formula_structural   Hf5V(Ga2Sn)2
_chemical_formula_sum   'Hf10 V2 Ga8 Sn4'
_cell_volume   442.38001382
_cell_formula_units_Z   2
loop_
 _symmetry_equiv_pos_site_id
 _symmetry_equiv_pos_as_xyz
  1  'x, y, z'
loop_
 _atom_site_type_symbol
 _atom_site_label
 _atom_site_symmetry_multiplicity
 _atom_site_fract_x
 _atom_site_fract_y
 _atom_site_fract_z
 _atom_site_occupancy
  Hf  Hf0  1  0.00000000  0.25000000  0.87893265  1
  Hf  Hf1  1  0.50000000  0.75000000  0.12106735  1
  Hf  Hf2  1  0.75688658  0.47115658  0.61039719  1
  Hf  Hf3  1  0.25688658  0.52884342  0.38960281  1
  Hf  Hf4  1  0.74311342  0.97115658  0.38960281  1
  Hf  Hf5  1  0.24311342  0.02884342  0.61039719  1
  Hf  Hf6  1  0.75037217  0.37243256  0.19869521  1
  Hf  Hf7  1  0.25037217  0.62756744  0.80130479  1
  Hf  Hf8  1  0.74962783  0.87243256  0.80130479  1
  Hf  Hf9  1  0.24962783  0.12756744  0.19869521  1
  V  V0  1  0.00000000  0.75000000  0.11492599  1
  V  V1  1  0.50000000  0.25000000  0.88507401  1
  Ga  Ga0  1  0.00000000  0.75000000  0.56935178  1
  Ga  Ga1  1  0.50000000  0.25000000  0.43064822  1
  Ga  Ga2  1  0.00000000  0.25000000  0.43394976  1
  Ga  Ga3  1  0.50000000  0.75000000  0.56605024  1
  Ga  Ga4  1  0.73250510  0.14103067  0.65259451  1
  Ga  Ga5  1  0.23250510  0.85896933  0.34740549  1
  Ga  Ga6  1  0.76749490  0.64103067  0.34740549  1
  Ga  Ga7  1  0.26749490  0.35896933  0.65259451  1
  Sn  Sn0  1  0.74936207  0.04934538  0.08151884  1
  Sn  Sn1  1  0.24936207  0.95065462  0.91848116  1
  Sn  Sn2  1  0.75063793  0.54934538  0.91848116  1
  Sn  Sn3  1  0.25063793  0.45065462  0.08151884  1
loop_
_geom_bond_atom_site_label_1
_geom_bond_atom_site_label_2
_geom_bond_distance
_geom_bond_site_symmetry_2
Hf0 V1 2.770120 1_555
Hf0 V1 2.770120 1_455
Hf0 Sn3 2.904743 1_556
Hf0 Sn0 2.904743 1_456
Hf0 Sn2 2.959772 1_455
Hf0 Sn1 2.959772 1_545
Hf1 V0 2.770120 1_555
Hf1 V0 2.770120 1_655
Hf1 Sn1 2.904743 1_554
Hf1 Sn2 2.904743 1_554
Hf1 Sn0 2.959772 1_565
Hf1 Sn3 2.959772 1_555
Hf2 Sn2 2.921174 1_555
Hf3 Sn3 2.921174 1_555
Hf4 Sn0 2.921174 1_565
Hf5 Sn1 2.921174 1_545
Hf6 Sn0 2.999244 1_555
Hf6 Sn2 3.004319 1_554
Hf6 Sn3 3.047776 1_555
Hf6 Sn3 3.050451 1_655
Hf7 Sn1 2.999244 1_555
Hf7 Sn3 3.004319 1_556
Hf7 Sn2 3.047776 1_455
Hf7 Sn2 3.050451 1_555
Hf8 Sn2 2.999244 1_555
Hf8 Sn0 3.004319 1_566
Hf8 Sn1 3.047776 1_655
Hf8 Sn1 3.050451 1_555
Hf9 Sn3 2.999244 1_555
Hf9 Sn1 3.004319 1_544
Hf9 Sn0 3.047776 1_555
Hf9 Sn0 3.050451 1_455
Ga0 Ga5 2.595984 1_555
Ga0 Ga6 2.595984 1_455
Ga0 Hf8 2.761124 1_455
Ga0 Hf7 2.761124 1_555
Ga0 Ga3 2.769709 1_455
Ga0 Ga3 2.769709 1_555
Ga0 Hf5 2.790556 1_565
Ga0 Hf2 2.790556 1_455
Ga0 Hf4 2.905272 1_455
Ga0 Hf3 2.905272 1_555
Ga1 Ga4 2.595984 1_555
Ga1 Ga7 2.595984 1_555
Ga1 Hf6 2.761124 1_555
Ga1 Hf9 2.761124 1_555
Ga1 Ga2 2.769709 1_655
Ga1 Ga2 2.769709 1_555
Ga1 Hf3 2.790556 1_555
Ga1 Hf4 2.790556 1_545
Ga1 Hf2 2.905272 1_555
Ga1 Hf5 2.905272 1_555
Ga2 Ga7 2.674354 1_555
Ga2 Ga4 2.674354 1_455
Ga2 Hf6 2.782731 1_455
Ga2 Hf9 2.782731 1_555
Ga2 Hf3 2.832397 1_555
Ga2 Hf4 2.832397 1_445
Ga2 Hf2 2.851190 1_455
Ga2 Hf5 2.851190 1_555
Ga3 Ga6 2.674354 1_555
Ga3 Ga5 2.674354 1_555
Ga3 Hf8 2.782731 1_555
Ga3 Hf7 2.782731 1_555
Ga3 Hf5 2.832397 1_565
Ga3 Hf2 2.832397 1_555
Ga3 Hf4 2.851190 1_555
Ga3 Hf3 2.851190 1_555
Ga4 V1 2.673253 1_555
Ga4 Hf8 2.701854 1_545
Ga4 Hf0 2.728254 1_655
Ga4 Hf4 2.837354 1_545
Ga4 Hf2 2.888251 1_555
Ga4 Hf5 2.905783 1_555
Ga4 Hf5 3.015714 1_655
Ga5 V0 2.673253 1_555
Ga5 Hf9 2.701854 1_565
Ga5 Hf1 2.728254 1_555
Ga5 Hf5 2.837354 1_565
Ga5 Hf3 2.888251 1_555
Ga5 Hf4 2.905783 1_455
Ga5 Hf4 3.015714 1_555
Ga6 V0 2.673253 1_655
Ga6 Hf6 2.701854 1_555
Ga6 Hf1 2.728254 1_555
Ga6 Hf2 2.837354 1_555
Ga6 Hf4 2.888251 1_555
Ga6 Hf3 2.905783 1_655
Ga6 Hf3 3.015714 1_555
Ga7 V1 2.673253 1_555
Ga7 Hf7 2.701854 1_555
Ga7 Hf0 2.728254 1_555
Ga7 Hf3 2.837354 1_555
Ga7 Hf5 2.888251 1_555
Ga7 Hf2 2.905783 1_555
Ga7 Hf2 3.015714 1_455
Sn0 V1 2.865224 1_554
Sn0 V0 2.956638 1_645
Sn0 Sn1 3.265234 1_544
Sn0 Sn1 3.265234 1_644
Sn1 V0 2.865224 1_556
Sn1 V1 2.956638 1_565
Sn2 V0 2.865224 1_656
Sn2 V1 2.956638 1_555
Sn2 Sn3 3.265234 1_556
Sn2 Sn3 3.265234 1_656
Sn3 V1 2.865224 1_554
Sn3 V0 2.956638 1_555
