# generated using pymatgen
data_Ba3Sc2TcO9
_symmetry_space_group_name_H-M   'P 1'
_cell_length_a   5.81977417
_cell_length_b   5.81977476
_cell_length_c   7.14689542
_cell_angle_alpha   90.00000000
_cell_angle_beta   90.00000000
_cell_angle_gamma   119.99999114
_symmetry_Int_Tables_number   1
_chemical_formula_structural   Ba3Sc2TcO9
_chemical_formula_sum   'Ba3 Sc2 Tc1 O9'
_cell_volume   209.63336574
_cell_formula_units_Z   1
loop_
 _symmetry_equiv_pos_site_id
 _symmetry_equiv_pos_as_xyz
  1  'x, y, z'
loop_
 _atom_site_type_symbol
 _atom_site_label
 _atom_site_symmetry_multiplicity
 _atom_site_fract_x
 _atom_site_fract_y
 _atom_site_fract_z
 _atom_site_occupancy
  Ba  Ba0  1  0.00000000  0.00000000  0.50000000  1
  Ba  Ba1  1  0.66666700  0.33333300  0.82689755  1
  Ba  Ba2  1  0.33333300  0.66666700  0.17310245  1
  Sc  Sc0  1  0.66666700  0.33333300  0.34207566  1
  Sc  Sc1  1  0.33333300  0.66666700  0.65792434  1
  Tc  Tc0  1  0.00000000  0.00000000  0.00000000  1
  O  O0  1  0.68697282  0.84348591  0.84586125  1
  O  O1  1  0.31302718  0.15651409  0.15413875  1
  O  O2  1  0.00000000  0.50000000  0.50000000  1
  O  O3  1  0.50000000  0.00000000  0.50000000  1
  O  O4  1  0.15651409  0.31302718  0.84586125  1
  O  O5  1  0.84348591  0.68697282  0.15413875  1
  O  O6  1  0.50000000  0.50000000  0.50000000  1
  O  O7  1  0.15651409  0.84348591  0.84586125  1
  O  O8  1  0.84348591  0.15651409  0.15413875  1
loop_
_geom_bond_atom_site_label_1
_geom_bond_atom_site_label_2
_geom_bond_distance
_geom_bond_site_symmetry_2
Ba0 O3 2.909887 1_455
Ba0 O3 2.909887 1_555
Ba0 O2 2.909887 1_545
Ba0 O2 2.909887 1_555
Ba0 O6 2.909888 1_555
Ba0 O6 2.909888 1_445
Ba0 O1 2.932412 1_555
Ba0 O0 2.932412 1_445
Ba0 O4 2.932412 1_555
Ba0 O5 2.932412 1_445
Ba0 O8 2.932414 1_455
Ba0 O7 2.932414 1_545
Ba1 O2 2.877635 1_655
Ba1 O3 2.877636 1_555
Ba1 O6 2.877638 1_555
Ba1 O4 2.914839 1_655
Ba1 O4 2.914839 1_555
Ba1 O0 2.914839 1_545
Ba1 O0 2.914839 1_555
Ba1 O7 2.914839 1_545
Ba1 O7 2.914839 1_655
Ba1 O8 2.940510 1_556
Ba1 O1 2.940516 1_556
Ba1 O5 2.940516 1_556
Ba2 O2 2.877635 1_555
Ba2 O3 2.877636 1_565
Ba2 O6 2.877638 1_555
Ba2 O5 2.914839 1_455
Ba2 O5 2.914839 1_555
Ba2 O1 2.914839 1_565
Ba2 O1 2.914839 1_555
Ba2 O8 2.914839 1_565
Ba2 O8 2.914839 1_455
Ba2 O7 2.940510 1_554
Ba2 O0 2.940516 1_554
Ba2 O4 2.940516 1_554
O0 Tc0 1.924221 1_666
O0 Sc1 2.231801 1_555
O1 Tc0 1.924221 1_555
O1 Sc0 2.231801 1_555
O2 Sc1 2.023949 1_555
O2 Sc0 2.023949 1_455
O3 Sc0 2.023949 1_555
O3 Sc1 2.023949 1_545
O4 Tc0 1.924221 1_556
O4 Sc1 2.231802 1_555
O5 Tc0 1.924221 1_665
O5 Sc0 2.231802 1_555
O6 Sc1 2.023953 1_555
O6 Sc0 2.023953 1_555
O7 Tc0 1.924225 1_566
O7 Sc1 2.231793 1_555
O8 Tc0 1.924225 1_655
O8 Sc0 2.231793 1_555
