# generated using pymatgen
data_Tm2S3
_symmetry_space_group_name_H-M   'P 1'
_cell_length_a   13.61010067
_cell_length_b   13.61010067
_cell_length_c   13.61010067
_cell_angle_alpha   144.82025059
_cell_angle_beta   144.82025059
_cell_angle_gamma   50.60247281
_symmetry_Int_Tables_number   1
_chemical_formula_structural   Tm2S3
_chemical_formula_sum   'Tm16 S24'
_cell_volume   832.60826004
_cell_formula_units_Z   8
loop_
 _symmetry_equiv_pos_site_id
 _symmetry_equiv_pos_as_xyz
  1  'x, y, z'
loop_
 _atom_site_type_symbol
 _atom_site_label
 _atom_site_symmetry_multiplicity
 _atom_site_fract_x
 _atom_site_fract_y
 _atom_site_fract_z
 _atom_site_occupancy
  Tm  Tm0  1  0.85082000  0.95084700  0.37865300  1
  Tm  Tm1  1  0.57219400  0.47216800  0.62134700  1
  Tm  Tm2  1  0.16483800  0.16483800  0.00000000  1
  Tm  Tm3  1  0.87500000  0.50803700  0.13303700  1
  Tm  Tm4  1  0.58516200  0.08516200  0.50000000  1
  Tm  Tm5  1  0.17780600  0.29915300  0.39997300  1
  Tm  Tm6  1  0.37500000  0.74196300  0.86696300  1
  Tm  Tm7  1  0.89918000  0.77783200  0.60002700  1
  Tm  Tm8  1  0.22216800  0.82219400  0.12134700  1
  Tm  Tm9  1  0.49196300  0.62500000  0.36696300  1
  Tm  Tm10  1  0.91483800  0.41483800  0.50000000  1
  Tm  Tm11  1  0.70084700  0.10082000  0.87865300  1
  Tm  Tm12  1  0.25803700  0.12500000  0.63303700  1
  Tm  Tm13  1  0.83516200  0.83516200  0.00000000  1
  Tm  Tm14  1  0.52783200  0.14918000  0.10002700  1
  Tm  Tm15  1  0.04915300  0.42780600  0.89997300  1
  S  S0  1  0.07426600  0.82805700  0.61524900  1
  S  S1  1  0.86638600  0.24859800  0.74560600  1
  S  S2  1  0.88361400  0.12922000  0.88221200  1
  S  S3  1  0.50299200  0.12078000  0.25439400  1
  S  S4  1  0.24700800  0.00140200  0.11778800  1
  S  S5  1  0.67573400  0.79098300  0.25379100  1
  S  S6  1  0.21280800  0.45901700  0.38475100  1
  S  S7  1  0.53719200  0.42194300  0.74620900  1
  S  S8  1  0.40380600  0.15814300  0.59725700  1
  S  S9  1  0.19345200  0.59619400  0.75433700  1
  S  S10  1  0.84185700  0.43911500  0.24566300  1
  S  S11  1  0.20901700  0.46280800  0.88475100  1
  S  S12  1  0.57805700  0.32426600  0.11524900  1
  S  S13  1  0.99859800  0.11638600  0.24560600  1
  S  S14  1  0.56088500  0.80654800  0.40274300  1
  S  S15  1  0.87078000  0.75299200  0.75439400  1
  S  S16  1  0.75140200  0.49700800  0.61778800  1
  S  S17  1  0.54098300  0.92573400  0.75379100  1
  S  S18  1  0.17194300  0.78719200  0.24620900  1
  S  S19  1  0.55654800  0.81088500  0.90274300  1
  S  S20  1  0.90814300  0.65380600  0.09725700  1
  S  S21  1  0.34619400  0.44345200  0.25433700  1
  S  S22  1  0.87922000  0.13361400  0.38221200  1
  S  S23  1  0.18911500  0.09185700  0.74566300  1
loop_
_geom_bond_atom_site_label_1
_geom_bond_atom_site_label_2
_geom_bond_distance
_geom_bond_site_symmetry_2
S0 Tm7 2.686592 1_455
S0 Tm2 2.708172 1_566
S0 Tm6 2.722953 1_555
S0 Tm3 2.927229 1_455
S0 Tm0 2.957650 1_455
S1 Tm15 2.707807 1_655
S1 Tm2 2.714923 1_656
S1 Tm0 2.772269 1_545
S1 Tm4 2.917056 1_555
S1 Tm3 3.060179 1_556
S1 Tm1 3.166693 1_555
S2 Tm11 2.707807 1_555
S2 Tm4 2.714923 1_555
S2 Tm7 2.772276 1_545
S2 Tm2 2.917056 1_656
S2 Tm3 3.060179 1_556
S2 Tm5 3.166685 1_656
S3 Tm14 2.707795 1_555
S3 Tm2 2.714923 1_555
S3 Tm1 2.772275 1_555
S3 Tm4 2.917056 1_555
S3 Tm6 3.060179 1_544
S3 Tm0 3.166685 1_545
S4 Tm8 2.707797 1_545
S4 Tm4 2.714923 1_555
S4 Tm5 2.772269 1_555
S4 Tm2 2.917056 1_555
S4 Tm6 3.060179 1_544
S4 Tm7 3.166686 1_444
S5 Tm0 2.686581 1_555
S5 Tm4 2.708172 1_565
S5 Tm6 2.722953 1_554
S5 Tm3 2.927229 1_555
S5 Tm7 2.957660 1_555
S6 Tm5 2.686581 1_555
S6 Tm2 2.708172 1_555
S6 Tm3 2.722953 1_455
S6 Tm6 2.927229 1_555
S6 Tm1 2.957653 1_555
S7 Tm1 2.686594 1_555
S7 Tm4 2.708172 1_555
S7 Tm3 2.722953 1_556
S7 Tm6 2.927229 1_555
S7 Tm5 2.957650 1_555
S8 Tm11 2.681537 1_555
S8 Tm12 2.729647 1_555
S8 Tm5 2.789844 1_555
S8 Tm8 2.954921 1_545
S8 Tm4 2.985056 1_555
S9 Tm5 2.681531 1_555
S9 Tm6 2.729634 1_555
S9 Tm8 2.789844 1_556
S9 Tm7 2.954917 1_455
S9 Tm10 2.985067 1_455
S10 Tm7 2.681525 1_555
S10 Tm3 2.729634 1_555
S10 Tm11 2.789852 1_554
S10 Tm5 2.954924 1_655
S10 Tm10 2.985067 1_555
S11 Tm15 2.686581 1_555
S11 Tm10 2.708172 1_455
S11 Tm12 2.722953 1_555
S11 Tm9 2.927229 1_556
S11 Tm8 2.957653 1_556
S12 Tm14 2.686592 1_555
S12 Tm10 2.708172 1_555
S12 Tm9 2.722953 1_555
S12 Tm12 2.927229 1_554
S12 Tm11 2.957650 1_554
S13 Tm5 2.707807 1_655
S13 Tm10 2.714923 1_555
S13 Tm11 2.772269 1_554
S13 Tm13 2.917056 1_545
S13 Tm12 3.060179 1_655
S13 Tm8 3.166693 1_645
S14 Tm8 2.681525 1_555
S14 Tm9 2.729623 1_555
S14 Tm7 2.789854 1_555
S14 Tm11 2.954917 1_565
S14 Tm4 2.985076 1_565
S15 Tm7 2.707795 1_555
S15 Tm10 2.714923 1_555
S15 Tm8 2.772275 1_656
S15 Tm13 2.917056 1_556
S15 Tm9 3.060179 1_555
S15 Tm11 3.166685 1_565
S16 Tm1 2.707797 1_555
S16 Tm13 2.714923 1_556
S16 Tm15 2.772269 1_655
S16 Tm10 2.917056 1_555
S16 Tm9 3.060179 1_555
S16 Tm14 3.166686 1_555
S17 Tm11 2.686581 1_565
S17 Tm13 2.708172 1_556
S17 Tm9 2.722953 1_555
S17 Tm12 2.927229 1_565
S17 Tm14 2.957660 1_566
S18 Tm8 2.686594 1_555
S18 Tm13 2.708172 1_455
S18 Tm12 2.722953 1_565
S18 Tm9 2.927229 1_555
S18 Tm15 2.957650 1_554
S19 Tm1 2.681525 1_555
S19 Tm6 2.729623 1_555
S19 Tm14 2.789854 1_566
S19 Tm0 2.954917 1_556
S19 Tm13 2.985076 1_556
S20 Tm0 2.681537 1_555
S20 Tm3 2.729647 1_555
S20 Tm15 2.789844 1_654
S20 Tm1 2.954921 1_554
S20 Tm13 2.985056 1_555
S21 Tm15 2.681531 1_554
S21 Tm9 2.729634 1_555
S21 Tm1 2.789844 1_555
S21 Tm14 2.954917 1_555
S21 Tm2 2.985067 1_555
S22 Tm0 2.707807 1_545
S22 Tm13 2.714923 1_545
S22 Tm14 2.772276 1_555
S22 Tm10 2.917056 1_555
S22 Tm12 3.060179 1_655
S22 Tm15 3.166685 1_655
S23 Tm14 2.681525 1_556
S23 Tm12 2.729634 1_555
S23 Tm0 2.789852 1_445
S23 Tm15 2.954924 1_555
S23 Tm2 2.985067 1_556
