# generated using pymatgen
data_CsZnInF6
_symmetry_space_group_name_H-M   'P 1'
_cell_length_a   7.59687425
_cell_length_b   7.59687465
_cell_length_c   7.59687468
_cell_angle_alpha   121.37532138
_cell_angle_beta   118.51193545
_cell_angle_gamma   90.11551934
_symmetry_Int_Tables_number   1
_chemical_formula_structural   CsZnInF6
_chemical_formula_sum   'Cs2 Zn2 In2 F12'
_cell_volume   310.04197858
_cell_formula_units_Z   2
loop_
 _symmetry_equiv_pos_site_id
 _symmetry_equiv_pos_as_xyz
  1  'x, y, z'
loop_
 _atom_site_type_symbol
 _atom_site_label
 _atom_site_symmetry_multiplicity
 _atom_site_fract_x
 _atom_site_fract_y
 _atom_site_fract_z
 _atom_site_occupancy
  Cs  Cs0  1  0.84872057  0.59872057  0.25000000  1
  Cs  Cs1  1  0.15127943  0.40127943  0.75000000  1
  Zn  Zn0  1  0.50000000  0.00000000  0.00000000  1
  Zn  Zn1  1  0.50000000  0.50000000  0.50000000  1
  In  In0  1  0.50000000  0.00000000  0.50000000  1
  In  In1  1  0.00000000  0.00000000  0.00000000  1
  F  F0  1  0.82899139  0.07899139  0.75000000  1
  F  F1  1  0.44158212  0.69158212  0.75000000  1
  F  F2  1  0.81922557  0.67322321  0.73518985  1
  F  F3  1  0.43803336  0.08403473  0.76481015  1
  F  F4  1  0.81922557  0.08403473  0.14600236  1
  F  F5  1  0.43803336  0.67322321  0.35399764  1
  F  F6  1  0.17100861  0.92100861  0.25000000  1
  F  F7  1  0.55841788  0.30841788  0.25000000  1
  F  F8  1  0.18077443  0.32677679  0.26481015  1
  F  F9  1  0.56196664  0.91596527  0.23518985  1
  F  F10  1  0.18077443  0.91596527  0.85399764  1
  F  F11  1  0.56196664  0.32677679  0.64600236  1
loop_
_geom_bond_atom_site_label_1
_geom_bond_atom_site_label_2
_geom_bond_distance
_geom_bond_site_symmetry_2
Cs0 F7 3.115751 1_555
Cs0 F8 3.261312 1_655
Cs0 F11 3.261312 1_554
Cs0 F10 3.261312 1_655
Cs0 F9 3.261318 1_555
Cs0 F6 3.459042 1_655
Cs1 F1 3.115751 1_555
Cs1 F2 3.261312 1_455
Cs1 F5 3.261312 1_556
Cs1 F4 3.261312 1_455
Cs1 F3 3.261318 1_555
Cs1 F0 3.459042 1_455
F0 In0 2.118784 1_555
F0 In1 2.118784 1_656
F1 Zn1 1.962455 1_555
F1 Zn0 1.962455 1_566
F2 Zn1 2.051212 1_555
F2 In1 2.060152 1_666
F3 Zn0 2.051206 1_556
F3 In0 2.060153 1_555
F4 Zn0 2.051211 1_555
F4 In1 2.060152 1_655
F5 Zn1 2.051212 1_555
F5 In0 2.060152 1_565
F6 In0 2.118784 1_565
F6 In1 2.118784 1_565
F7 Zn1 1.962455 1_555
F7 Zn0 1.962455 1_555
F8 Zn1 2.051212 1_555
F8 In1 2.060152 1_555
F9 Zn0 2.051206 1_565
F9 In0 2.060153 1_565
F10 Zn0 2.051211 1_566
F10 In1 2.060152 1_566
F11 Zn1 2.051212 1_555
F11 In0 2.060152 1_555
