# generated using pymatgen
data_Cs2(AlAg)5
_symmetry_space_group_name_H-M   'P 1'
_cell_length_a   7.35746138
_cell_length_b   7.35746222
_cell_length_c   5.50378846
_cell_angle_alpha   90.00000000
_cell_angle_beta   90.00000000
_cell_angle_gamma   107.55647971
_symmetry_Int_Tables_number   1
_chemical_formula_structural   Cs2(AlAg)5
_chemical_formula_sum   'Cs2 Al5 Ag5'
_cell_volume   284.05474813
_cell_formula_units_Z   1
loop_
 _symmetry_equiv_pos_site_id
 _symmetry_equiv_pos_as_xyz
  1  'x, y, z'
loop_
 _atom_site_type_symbol
 _atom_site_label
 _atom_site_symmetry_multiplicity
 _atom_site_fract_x
 _atom_site_fract_y
 _atom_site_fract_z
 _atom_site_occupancy
  Cs  Cs0  1  0.87081601  0.87081601  0.00000000  1
  Cs  Cs1  1  0.14957604  0.14957604  0.50000000  1
  Al  Al0  1  0.29923438  0.68494928  0.24989087  1
  Al  Al1  1  0.29923438  0.68494928  0.75010913  1
  Al  Al2  1  0.68494928  0.29923438  0.24989087  1
  Al  Al3  1  0.68494928  0.29923438  0.75010913  1
  Al  Al4  1  0.57305947  0.57305947  0.50000000  1
  Ag  Ag0  1  0.45069364  0.00555634  0.00000000  1
  Ag  Ag1  1  0.96886699  0.55609839  0.50000000  1
  Ag  Ag2  1  0.55609839  0.96886699  0.50000000  1
  Ag  Ag3  1  0.00555634  0.45069364  0.00000000  1
  Ag  Ag4  1  0.45696482  0.45696482  0.00000000  1
loop_
_geom_bond_atom_site_label_1
_geom_bond_atom_site_label_2
_geom_bond_distance
_geom_bond_site_symmetry_2
Cs0 Cs1 3.667168 1_664
Cs0 Cs1 3.667168 1_665
Al0 Al1 2.750693 1_554
Al0 Al1 2.753095 1_555
Al0 Al4 2.762607 1_555
Al0 Cs1 4.000791 1_555
Al0 Cs0 4.037039 1_455
Al0 Cs1 4.130875 1_565
Al1 Al4 2.762607 1_555
Al1 Cs1 4.000791 1_555
Al1 Cs0 4.037039 1_456
Al1 Cs1 4.130875 1_565
Al2 Al3 2.750693 1_554
Al2 Al3 2.753095 1_555
Al2 Al4 2.762607 1_555
Al2 Cs1 4.000790 1_555
Al2 Cs0 4.037040 1_545
Al2 Cs1 4.130875 1_655
Al3 Al4 2.762607 1_555
Al3 Cs1 4.000790 1_555
Al3 Cs0 4.037040 1_546
Al3 Cs1 4.130875 1_655
Al4 Cs1 3.682284 1_555
Al4 Cs0 3.778380 1_555
Al4 Cs0 3.778380 1_556
Ag0 Al0 2.666786 1_545
Ag0 Al1 2.666786 1_544
Ag0 Al2 2.698918 1_555
Ag0 Al3 2.698918 1_554
Ag0 Ag2 2.893700 1_545
Ag0 Ag2 2.893700 1_544
Ag0 Ag4 3.307595 1_555
Ag0 Cs0 3.519363 1_545
Ag0 Cs1 3.875595 1_554
Ag0 Cs1 3.875595 1_555
Ag0 Cs0 4.078424 1_445
Ag1 Al1 2.703994 1_655
Ag1 Al0 2.703994 1_655
Ag1 Al3 2.729173 1_555
Ag1 Al2 2.729173 1_555
Ag1 Ag3 2.893700 1_656
Ag1 Ag3 2.893700 1_655
Ag1 Al4 2.952180 1_555
Ag1 Cs1 3.621152 1_655
Ag1 Cs0 3.802993 1_556
Ag1 Cs0 3.802993 1_555
Ag1 Cs1 4.163117 1_665
Ag2 Al3 2.703994 1_565
Ag2 Al2 2.703994 1_565
Ag2 Al1 2.729173 1_555
Ag2 Al0 2.729173 1_555
Ag2 Al4 2.952180 1_555
Ag2 Cs1 3.621152 1_565
Ag2 Cs0 3.802993 1_556
Ag2 Cs0 3.802993 1_555
Ag2 Cs1 4.163117 1_665
Ag3 Al2 2.666786 1_455
Ag3 Al3 2.666786 1_454
Ag3 Al0 2.698918 1_555
Ag3 Al1 2.698918 1_554
Ag3 Ag4 3.307595 1_555
Ag3 Cs0 3.519364 1_455
Ag3 Cs1 3.875595 1_554
Ag3 Cs1 3.875595 1_555
Ag3 Cs0 4.078425 1_445
Ag4 Al2 2.688182 1_555
Ag4 Al3 2.688182 1_554
Ag4 Al0 2.688182 1_555
Ag4 Al1 2.688182 1_554
Ag4 Al4 2.931203 1_554
Ag4 Al4 2.931203 1_555
Ag4 Cs0 3.598530 1_555
Ag4 Cs1 3.836256 1_555
Ag4 Cs1 3.836256 1_554
