# generated using pymatgen
data_K3CdH5
_symmetry_space_group_name_H-M   'P 1'
_cell_length_a   7.94108768
_cell_length_b   7.94108810
_cell_length_c   7.94108781
_cell_angle_alpha   122.84065531
_cell_angle_beta   122.84065952
_cell_angle_gamma   85.14644773
_symmetry_Int_Tables_number   1
_chemical_formula_structural   K3CdH5
_chemical_formula_sum   'K6 Cd2 H10'
_cell_volume   337.57341899
_cell_formula_units_Z   2
loop_
 _symmetry_equiv_pos_site_id
 _symmetry_equiv_pos_as_xyz
  1  'x, y, z'
loop_
 _atom_site_type_symbol
 _atom_site_label
 _atom_site_symmetry_multiplicity
 _atom_site_fract_x
 _atom_site_fract_y
 _atom_site_fract_z
 _atom_site_occupancy
  K  K0  1  0.18048626  0.68048626  0.86097252  1
  K  K1  1  0.81951374  0.31951374  0.13902748  1
  K  K2  1  0.68048626  0.81951374  0.50000000  1
  K  K3  1  0.31951374  0.18048626  0.50000000  1
  K  K4  1  0.25000000  0.25000000  0.00000000  1
  K  K5  1  0.75000000  0.75000000  0.00000000  1
  Cd  Cd0  1  0.25000000  0.75000000  0.50000000  1
  Cd  Cd1  1  0.75000000  0.25000000  0.50000000  1
  H  H0  1  0.47973542  0.97973542  0.76907337  1
  H  H1  1  0.21066205  0.71066205  0.23092663  1
  H  H2  1  0.97973542  0.21066205  0.50000000  1
  H  H3  1  0.71066205  0.47973542  0.50000000  1
  H  H4  1  0.52026458  0.02026458  0.23092663  1
  H  H5  1  0.78933795  0.28933795  0.76907337  1
  H  H6  1  0.02026458  0.78933795  0.50000000  1
  H  H7  1  0.28933795  0.52026458  0.50000000  1
  H  H8  1  0.50000000  0.50000000  0.00000000  1
  H  H9  1  0.00000000  0.00000000  0.00000000  1
loop_
_geom_bond_atom_site_label_1
_geom_bond_atom_site_label_2
_geom_bond_distance
_geom_bond_site_symmetry_2
Cd0 H6 1.824664 1_555
Cd0 H1 1.824664 1_555
Cd0 H7 1.824664 1_555
Cd0 H0 1.824664 1_555
Cd1 H2 1.824664 1_555
Cd1 H5 1.824664 1_555
Cd1 H3 1.824664 1_555
Cd1 H4 1.824664 1_555
H0 K1 2.688558 1_566
H0 K3 3.021347 1_565
H0 K2 3.021347 1_555
H1 K0 2.688558 1_554
H1 K2 3.021347 1_555
H1 K3 3.021347 1_565
H2 K3 2.688558 1_655
H2 K1 3.021347 1_555
H2 K0 3.021347 1_655
H3 K2 2.688558 1_555
H3 K1 3.021347 1_555
H3 K0 3.021347 1_655
H4 K0 2.688558 1_544
H4 K2 3.021347 1_545
H4 K3 3.021347 1_555
H5 K1 2.688558 1_556
H5 K3 3.021347 1_555
H5 K2 3.021347 1_545
H6 K2 2.688558 1_455
H6 K0 3.021347 1_555
H6 K1 3.021347 1_455
H7 K3 2.688558 1_555
H7 K0 3.021347 1_555
H7 K1 3.021347 1_455
H8 K1 2.788108 1_555
H8 K0 2.788108 1_554
H8 K2 2.788108 1_555
H8 K3 2.788108 1_554
H8 K4 2.923961 1_555
H8 K5 2.923961 1_555
H9 K1 2.788108 1_455
H9 K0 2.788108 1_544
H9 K3 2.788108 1_555
H9 K2 2.788108 1_444
H9 K4 2.923961 1_555
H9 K5 2.923961 1_445
