# generated using pymatgen
data_MnB4Ir4Pd3
_symmetry_space_group_name_H-M   'P 1'
_cell_length_a   6.81807465
_cell_length_b   6.11291392
_cell_length_c   5.52958504
_cell_angle_alpha   70.25047966
_cell_angle_beta   57.51082038
_cell_angle_gamma   50.51640704
_symmetry_Int_Tables_number   1
_chemical_formula_structural   MnB4Ir4Pd3
_chemical_formula_sum   'Mn1 B4 Ir4 Pd3'
_cell_volume   150.03264841
_cell_formula_units_Z   1
loop_
 _symmetry_equiv_pos_site_id
 _symmetry_equiv_pos_as_xyz
  1  'x, y, z'
loop_
 _atom_site_type_symbol
 _atom_site_label
 _atom_site_symmetry_multiplicity
 _atom_site_fract_x
 _atom_site_fract_y
 _atom_site_fract_z
 _atom_site_occupancy
  Mn  Mn0  1  0.93757900  0.78261881  0.39733956  1
  B  B0  1  0.05391245  0.98624065  0.57368953  1
  B  B1  1  0.67738700  0.84006647  0.18619420  1
  B  B2  1  0.41659613  0.56280115  0.96073945  1
  B  B3  1  0.27260488  0.19684317  0.84728617  1
  Ir  Ir0  1  0.10132641  0.63499017  0.87655632  1
  Ir  Ir1  1  0.37264334  0.85196678  0.14735432  1
  Ir  Ir2  1  0.61482700  0.14764052  0.85272308  1
  Ir  Ir3  1  0.39556232  0.87378381  0.62621390  1
  Pd  Pd0  1  0.46487175  0.30810240  0.36691801  1
  Pd  Pd1  1  0.86239331  0.36835300  0.31824985  1
  Pd  Pd2  1  0.88549841  0.39139207  0.79153561  1
loop_
_geom_bond_atom_site_label_1
_geom_bond_atom_site_label_2
_geom_bond_distance
_geom_bond_site_symmetry_2
Mn0 Pd2 2.705969 1_555
Mn0 Pd0 2.790232 1_655
Mn0 Pd0 2.790254 1_565
Mn0 Pd1 3.083362 1_555
Mn0 Pd1 3.181623 1_565
B0 Ir1 2.118856 1_555
B0 Ir3 2.130365 1_555
B0 Ir2 2.150992 1_465
B0 Ir0 2.188204 1_555
B0 Pd1 2.242559 1_465
B0 Pd2 2.411868 1_465
B0 Mn0 2.456846 1_455
B1 Ir0 2.093736 1_654
B1 Ir3 2.113642 1_555
B1 Ir2 2.144575 1_564
B1 Ir1 2.155257 1_555
B1 Pd1 2.319497 1_555
B1 Mn0 2.406103 1_555
B1 Pd0 2.527566 1_565
B2 Ir2 2.102203 1_555
B2 Ir1 2.122748 1_556
B2 Ir3 2.148933 1_555
B2 Ir0 2.182137 1_555
B2 Pd0 2.314333 1_556
B2 Pd2 2.320186 1_555
B2 Mn0 2.538020 1_456
B3 Ir3 2.126566 1_545
B3 Ir0 2.162364 1_555
B3 Ir1 2.164706 1_546
B3 Ir2 2.170809 1_555
B3 Pd2 2.260529 1_455
B3 Pd0 2.325685 1_555
B3 Pd1 2.448489 1_456
Ir0 Mn0 2.715652 1_456
Ir0 Mn0 3.059973 1_455
Ir1 Mn0 2.772656 1_455
Ir2 Mn0 2.786066 1_545
Ir3 Mn0 2.898672 1_555
