# generated using pymatgen
data_Sr3Ca(CdSb2)2
_symmetry_space_group_name_H-M   'P 1'
_cell_length_a   4.74319174
_cell_length_b   7.56773202
_cell_length_c   18.27216890
_cell_angle_alpha   90.00000000
_cell_angle_beta   90.00000000
_cell_angle_gamma   90.00000000
_symmetry_Int_Tables_number   1
_chemical_formula_structural   Sr3Ca(CdSb2)2
_chemical_formula_sum   'Sr6 Ca2 Cd4 Sb8'
_cell_volume   655.88323057
_cell_formula_units_Z   2
loop_
 _symmetry_equiv_pos_site_id
 _symmetry_equiv_pos_as_xyz
  1  'x, y, z'
loop_
 _atom_site_type_symbol
 _atom_site_label
 _atom_site_symmetry_multiplicity
 _atom_site_fract_x
 _atom_site_fract_y
 _atom_site_fract_z
 _atom_site_occupancy
  Sr  Sr0  1  0.75000000  0.76420941  0.44785333  1
  Sr  Sr1  1  0.25000000  0.73579059  0.94785333  1
  Sr  Sr2  1  0.25000000  0.53190691  0.72781830  1
  Sr  Sr3  1  0.75000000  0.96809309  0.22781830  1
  Sr  Sr4  1  0.75000000  0.27730368  0.05159503  1
  Sr  Sr5  1  0.25000000  0.22269632  0.55159503  1
  Ca  Ca0  1  0.75000000  0.46569917  0.27291116  1
  Ca  Ca1  1  0.25000000  0.03430083  0.77291116  1
  Cd  Cd0  1  0.25000000  0.63539896  0.15428587  1
  Cd  Cd1  1  0.75000000  0.86460104  0.65428587  1
  Cd  Cd2  1  0.75000000  0.36924908  0.84681977  1
  Cd  Cd3  1  0.25000000  0.13075092  0.34681977  1
  Sb  Sb0  1  0.75000000  0.24182015  0.68755947  1
  Sb  Sb1  1  0.25000000  0.74256188  0.31415448  1
  Sb  Sb2  1  0.25000000  0.25817985  0.18755947  1
  Sb  Sb3  1  0.75000000  0.74049137  0.07610627  1
  Sb  Sb4  1  0.75000000  0.75743812  0.81415448  1
  Sb  Sb5  1  0.25000000  0.25635006  0.92089433  1
  Sb  Sb6  1  0.75000000  0.24364994  0.42089433  1
  Sb  Sb7  1  0.25000000  0.75950863  0.57610627  1
loop_
_geom_bond_atom_site_label_1
_geom_bond_atom_site_label_2
_geom_bond_distance
_geom_bond_site_symmetry_2
Ca0 Sb6 3.183590 1_555
Ca0 Sb2 3.243919 1_655
Ca0 Sb2 3.243919 1_555
Ca0 Sb1 3.253052 1_655
Ca0 Sb1 3.253052 1_555
Ca1 Sb5 3.183590 1_555
Ca1 Sb0 3.243919 1_455
Ca1 Sb0 3.243919 1_555
Ca1 Sb4 3.253052 1_445
Ca1 Sb4 3.253052 1_545
Cd0 Sb3 2.880561 1_455
Cd0 Sb3 2.880561 1_555
Cd0 Sb2 2.918718 1_555
Cd0 Sb1 3.031631 1_555
Cd0 Sr3 3.710625 1_455
Cd0 Sr3 3.710625 1_555
Cd1 Sb7 2.880561 1_555
Cd1 Sb7 2.880561 1_655
Cd1 Sb0 2.918718 1_565
Cd1 Sb4 3.031631 1_555
Cd1 Sr2 3.710625 1_555
Cd1 Sr2 3.710625 1_655
Cd2 Sb5 2.861192 1_555
Cd2 Sb5 2.861192 1_655
Cd2 Sb4 2.997731 1_555
Cd2 Sb0 3.065656 1_555
Cd2 Sr2 3.444965 1_555
Cd2 Sr2 3.444965 1_655
Cd3 Sb6 2.861192 1_555
Cd3 Sb6 2.861192 1_455
Cd3 Sb1 2.997731 1_545
Cd3 Sb2 3.065656 1_555
Cd3 Sr3 3.444965 1_545
Cd3 Sr3 3.444965 1_445
Sb0 Sr2 3.314353 1_555
Sb0 Sr2 3.314353 1_655
Sb0 Sr5 3.437657 1_555
Sb0 Sr5 3.437657 1_655
Sb1 Sr3 3.320566 1_455
Sb1 Sr3 3.320566 1_555
Sb1 Sr0 3.408724 1_455
Sb1 Sr0 3.408724 1_555
Sb2 Sr3 3.314353 1_545
Sb2 Sr3 3.314353 1_445
Sb2 Sr4 3.437657 1_555
Sb2 Sr4 3.437657 1_455
Sb3 Sr3 3.263640 1_555
Sb3 Sr1 3.334297 1_554
Sb3 Sr1 3.334297 1_654
Sb3 Sr4 3.533777 1_555
Sb4 Sr2 3.320566 1_555
Sb4 Sr2 3.320566 1_655
Sb4 Sr1 3.408724 1_655
Sb4 Sr1 3.408724 1_555
Sb5 Sr4 3.369427 1_456
Sb5 Sr4 3.369427 1_556
Sb5 Sr1 3.661564 1_555
Sb5 Sr1 3.970133 1_545
Sb6 Sr5 3.369427 1_555
Sb6 Sr5 3.369427 1_655
Sb6 Sr0 3.661564 1_545
Sb6 Sr0 3.970133 1_555
Sb7 Sr2 3.263640 1_555
Sb7 Sr0 3.334297 1_455
Sb7 Sr0 3.334297 1_555
Sb7 Sr5 3.533777 1_565
