# generated using pymatgen
data_TiGaNi
_symmetry_space_group_name_H-M   'P 1'
_cell_length_a   6.76116704
_cell_length_b   6.76116512
_cell_length_c   3.09538607
_cell_angle_alpha   90.00000000
_cell_angle_beta   90.00000000
_cell_angle_gamma   119.99999943
_symmetry_Int_Tables_number   1
_chemical_formula_structural   TiGaNi
_chemical_formula_sum   'Ti3 Ga3 Ni3'
_cell_volume   122.54304450
_cell_formula_units_Z   3
loop_
 _symmetry_equiv_pos_site_id
 _symmetry_equiv_pos_as_xyz
  1  'x, y, z'
loop_
 _atom_site_type_symbol
 _atom_site_label
 _atom_site_symmetry_multiplicity
 _atom_site_fract_x
 _atom_site_fract_y
 _atom_site_fract_z
 _atom_site_occupancy
  Ti  Ti0  1  -0.00000000  0.60794838  0.50000000  1
  Ti  Ti1  1  0.39205162  0.39205162  0.50000000  1
  Ti  Ti2  1  0.60794838  0.00000000  0.50000000  1
  Ga  Ga0  1  0.00000000  0.27373862  0.00000000  1
  Ga  Ga1  1  0.72626138  0.72626138  -0.00000000  1
  Ga  Ga2  1  0.27373862  -0.00000000  0.00000000  1
  Ni  Ni0  1  -0.00000000  0.00000000  0.50000000  1
  Ni  Ni1  1  0.33333300  0.66666700  -0.00000000  1
  Ni  Ni2  1  0.66666700  0.33333300  -0.00000000  1
loop_
_geom_bond_atom_site_label_1
_geom_bond_atom_site_label_2
_geom_bond_distance
_geom_bond_site_symmetry_2
Ga0 Ni0 2.412630 1_554
Ga0 Ni0 2.412630 1_555
Ga0 Ni2 2.479857 1_455
Ga0 Ni1 2.479861 1_555
Ga0 Ti0 2.738861 1_554
Ga0 Ti0 2.738861 1_555
Ga0 Ti2 2.818012 1_455
Ga0 Ti2 2.818012 1_454
Ga0 Ti1 2.818012 1_555
Ga0 Ti1 2.818012 1_554
Ga1 Ni0 2.412630 1_665
Ga1 Ni0 2.412630 1_664
Ga1 Ni2 2.479863 1_555
Ga1 Ni1 2.479864 1_555
Ga1 Ti1 2.738861 1_555
Ga1 Ti1 2.738861 1_554
Ga1 Ti2 2.818012 1_565
Ga1 Ti2 2.818012 1_564
Ga1 Ti0 2.818012 1_655
Ga1 Ti0 2.818012 1_654
Ga2 Ni0 2.412631 1_554
Ga2 Ni0 2.412631 1_555
Ga2 Ni1 2.479856 1_545
Ga2 Ni2 2.479861 1_555
Ga2 Ti2 2.738862 1_554
Ga2 Ti2 2.738862 1_555
Ga2 Ti1 2.818012 1_555
Ga2 Ti1 2.818012 1_554
Ga2 Ti0 2.818012 1_544
Ga2 Ti0 2.818012 1_545
Ni0 Ti0 2.650726 1_545
Ni0 Ti1 2.650726 1_555
Ni0 Ti2 2.650726 1_455
Ni1 Ti0 2.595666 1_555
Ni1 Ti0 2.595666 1_554
Ni1 Ti2 2.595667 1_565
Ni1 Ti2 2.595667 1_564
Ni1 Ti1 2.595671 1_555
Ni1 Ti1 2.595671 1_554
Ni2 Ti2 2.595665 1_554
Ni2 Ti2 2.595665 1_555
Ni2 Ti0 2.595668 1_655
Ni2 Ti0 2.595668 1_654
Ni2 Ti1 2.595671 1_555
Ni2 Ti1 2.595671 1_554
