# generated using pymatgen
data_NbGa(SeO3)4
_symmetry_space_group_name_H-M   'P 1'
_cell_length_a   8.10526898
_cell_length_b   8.19066082
_cell_length_c   8.23386658
_cell_angle_alpha   89.43343846
_cell_angle_beta   90.00000000
_cell_angle_gamma   90.00000000
_symmetry_Int_Tables_number   1
_chemical_formula_structural   NbGa(SeO3)4
_chemical_formula_sum   'Nb2 Ga2 Se8 O24'
_cell_volume   546.59916753
_cell_formula_units_Z   2
loop_
 _symmetry_equiv_pos_site_id
 _symmetry_equiv_pos_as_xyz
  1  'x, y, z'
loop_
 _atom_site_type_symbol
 _atom_site_label
 _atom_site_symmetry_multiplicity
 _atom_site_fract_x
 _atom_site_fract_y
 _atom_site_fract_z
 _atom_site_occupancy
  Nb  Nb0  1  0.00000000  0.00000000  0.50000000  1
  Nb  Nb1  1  0.50000000  0.00000000  0.00000000  1
  Ga  Ga0  1  0.00000000  0.50000000  0.00000000  1
  Ga  Ga1  1  0.50000000  0.50000000  0.50000000  1
  Se  Se0  1  0.31464891  0.65113181  0.18935001  1
  Se  Se1  1  0.81464891  0.34886819  0.31064999  1
  Se  Se2  1  0.66961845  0.80148698  0.66143720  1
  Se  Se3  1  0.16961845  0.19851302  0.83856280  1
  Se  Se4  1  0.68535109  0.34886819  0.81064999  1
  Se  Se5  1  0.18535109  0.65113181  0.68935001  1
  Se  Se6  1  0.33038155  0.19851302  0.33856280  1
  Se  Se7  1  0.83038155  0.80148698  0.16143720  1
  O  O0  1  0.23829298  0.53531423  0.03878009  1
  O  O1  1  0.73829298  0.46468577  0.46121991  1
  O  O2  1  0.76227254  0.96018707  0.55413362  1
  O  O3  1  0.26227254  0.03981293  0.94586638  1
  O  O4  1  0.53596952  0.91880113  0.77310761  1
  O  O5  1  0.45840879  0.52097062  0.26548935  1
  O  O6  1  0.95840879  0.47902938  0.23451065  1
  O  O7  1  0.03596952  0.08119887  0.72689239  1
  O  O8  1  0.94675537  0.22373062  0.42682079  1
  O  O9  1  0.54013096  0.73726205  0.51663558  1
  O  O10  1  0.44675537  0.77626938  0.07317921  1
  O  O11  1  0.04013096  0.26273795  0.98336442  1
  O  O12  1  0.76170702  0.46468577  0.96121991  1
  O  O13  1  0.26170702  0.53531423  0.53878009  1
  O  O14  1  0.23772746  0.03981293  0.44586638  1
  O  O15  1  0.73772746  0.96018707  0.05413362  1
  O  O16  1  0.46403048  0.08119887  0.22689239  1
  O  O17  1  0.54159121  0.47902938  0.73451065  1
  O  O18  1  0.04159121  0.52097062  0.76548935  1
  O  O19  1  0.96403048  0.91880113  0.27310761  1
  O  O20  1  0.05324463  0.77626938  0.57317921  1
  O  O21  1  0.45986904  0.26273795  0.48336442  1
  O  O22  1  0.55324463  0.22373062  0.92682079  1
  O  O23  1  0.95986904  0.73726205  0.01663558  1
loop_
_geom_bond_atom_site_label_1
_geom_bond_atom_site_label_2
_geom_bond_distance
_geom_bond_site_symmetry_2
Nb0 O20 1.971176 1_545
Nb0 O8 1.971176 1_455
Nb0 O2 2.003714 1_445
Nb0 O14 2.003714 1_555
Nb0 O19 2.010489 1_445
Nb0 O7 2.010489 1_555
Nb1 O10 1.971176 1_545
Nb1 O22 1.971176 1_554
Nb1 O3 2.003714 1_554
Nb1 O15 2.003714 1_545
Nb1 O4 2.010489 1_544
Nb1 O16 2.010489 1_555
Ga0 O6 1.965979 1_455
Ga0 O18 1.965979 1_554
Ga0 O23 1.976454 1_455
Ga0 O11 1.976454 1_554
Ga0 O0 1.979360 1_555
Ga0 O12 1.979360 1_454
Ga1 O17 1.965979 1_555
Ga1 O5 1.965979 1_555
Ga1 O9 1.976454 1_555
Ga1 O21 1.976454 1_555
Ga1 O1 1.979360 1_555
Ga1 O13 1.979360 1_555
O0 Se0 1.686179 1_555
O1 Se1 1.686179 1_555
O2 Se2 1.735371 1_555
O3 Se3 1.735371 1_555
O4 Se2 1.720366 1_555
O5 Se0 1.695321 1_555
O6 Se1 1.695321 1_555
O7 Se3 1.720366 1_555
O8 Se1 1.758589 1_555
O9 Se2 1.676952 1_555
O10 Se0 1.758589 1_555
O11 Se3 1.676952 1_555
O12 Se4 1.686179 1_555
O13 Se5 1.686179 1_555
O14 Se6 1.735371 1_555
O15 Se7 1.735371 1_555
O16 Se6 1.720366 1_555
O17 Se4 1.695321 1_555
O18 Se5 1.695321 1_555
O19 Se7 1.720366 1_555
O20 Se5 1.758589 1_555
O21 Se6 1.676952 1_555
O22 Se4 1.758589 1_555
O23 Se7 1.676952 1_555
