# generated using pymatgen
data_Cs2MnGeO4
_symmetry_space_group_name_H-M   'P 1'
_cell_length_a   6.04296067
_cell_length_b   12.76207728
_cell_length_c   8.27641778
_cell_angle_alpha   90.00000000
_cell_angle_beta   90.00000000
_cell_angle_gamma   90.00000000
_symmetry_Int_Tables_number   1
_chemical_formula_structural   Cs2MnGeO4
_chemical_formula_sum   'Cs8 Mn4 Ge4 O16'
_cell_volume   638.28339022
_cell_formula_units_Z   4
loop_
 _symmetry_equiv_pos_site_id
 _symmetry_equiv_pos_as_xyz
  1  'x, y, z'
loop_
 _atom_site_type_symbol
 _atom_site_label
 _atom_site_symmetry_multiplicity
 _atom_site_fract_x
 _atom_site_fract_y
 _atom_site_fract_z
 _atom_site_occupancy
  Cs  Cs0  1  0.50000000  0.07200687  0.54903044  1
  Cs  Cs1  1  0.00000000  0.57200687  0.54903044  1
  Cs  Cs2  1  0.00000000  0.42799313  0.04903044  1
  Cs  Cs3  1  0.50000000  0.92799313  0.04903044  1
  Cs  Cs4  1  0.50000000  0.41197545  0.39975729  1
  Cs  Cs5  1  0.00000000  0.91197545  0.39975729  1
  Cs  Cs6  1  0.00000000  0.08802455  0.89975729  1
  Cs  Cs7  1  0.50000000  0.58802455  0.89975729  1
  Mn  Mn0  1  0.50000000  0.79541807  0.62537568  1
  Mn  Mn1  1  0.00000000  0.70458193  0.12537568  1
  Mn  Mn2  1  0.00000000  0.29541807  0.62537568  1
  Mn  Mn3  1  0.50000000  0.20458193  0.12537568  1
  Ge  Ge0  1  0.50000000  0.30992913  0.83600867  1
  Ge  Ge1  1  0.00000000  0.80992913  0.83600867  1
  Ge  Ge2  1  0.00000000  0.19007087  0.33600867  1
  Ge  Ge3  1  0.50000000  0.69007087  0.33600867  1
  O  O0  1  0.50000000  0.17259093  0.87529729  1
  O  O1  1  0.00000000  0.67259093  0.87529729  1
  O  O2  1  0.00000000  0.32740907  0.37529729  1
  O  O3  1  0.50000000  0.82740907  0.37529729  1
  O  O4  1  0.00000000  0.14273049  0.53952891  1
  O  O5  1  0.50000000  0.64273049  0.53952891  1
  O  O6  1  0.50000000  0.35726951  0.03952891  1
  O  O7  1  0.00000000  0.85726951  0.03952891  1
  O  O8  1  0.23515501  0.14293543  0.23355136  1
  O  O9  1  0.73515501  0.64293543  0.23355136  1
  O  O10  1  0.26484499  0.35706457  0.73355136  1
  O  O11  1  0.76484499  0.85706457  0.73355136  1
  O  O12  1  0.76484499  0.14293543  0.23355136  1
  O  O13  1  0.26484499  0.64293543  0.23355136  1
  O  O14  1  0.73515501  0.35706457  0.73355136  1
  O  O15  1  0.23515501  0.85706457  0.73355136  1
loop_
_geom_bond_atom_site_label_1
_geom_bond_atom_site_label_2
_geom_bond_distance
_geom_bond_site_symmetry_2
Cs0 O0 2.989903 1_555
Cs0 O4 3.154390 1_555
Cs0 O4 3.154390 1_655
Cs0 O8 3.193482 1_555
Cs0 O12 3.193482 1_555
Cs0 O3 3.436824 1_545
Cs0 O15 3.523967 1_545
Cs0 O11 3.523967 1_545
Cs1 O1 2.989903 1_555
Cs1 O5 3.154390 1_555
Cs1 O5 3.154390 1_455
Cs1 O9 3.193482 1_455
Cs1 O13 3.193482 1_555
Cs1 O2 3.436824 1_555
Cs1 O10 3.523967 1_555
Cs1 O14 3.523967 1_455
Cs2 O2 2.989903 1_555
Cs2 O6 3.154390 1_455
Cs2 O6 3.154390 1_555
Cs2 O14 3.193482 1_454
Cs2 O10 3.193482 1_554
Cs2 O1 3.436824 1_554
Cs2 O9 3.523967 1_455
Cs2 O13 3.523967 1_555
Cs3 O3 2.989903 1_555
Cs3 O7 3.154390 1_655
Cs3 O7 3.154390 1_555
Cs3 O11 3.193482 1_554
Cs3 O15 3.193482 1_554
Cs3 O0 3.436824 1_564
Cs3 O8 3.523967 1_565
Cs3 O12 3.523967 1_565
Cs4 O6 3.062055 1_555
Cs4 O5 3.163973 1_555
Cs4 O14 3.184727 1_555
Cs4 O10 3.184727 1_555
Cs4 O2 3.214824 1_655
Cs4 O2 3.214824 1_555
Cs5 O7 3.062055 1_555
Cs5 O4 3.163973 1_565
Cs5 O11 3.184727 1_455
Cs5 O15 3.184727 1_555
Cs5 O3 3.214824 1_555
Cs5 O3 3.214824 1_455
Cs6 O4 3.062055 1_555
Cs6 O7 3.163973 1_546
Cs6 O8 3.184727 1_556
Cs6 O12 3.184727 1_456
Cs6 O0 3.214824 1_455
Cs6 O0 3.214824 1_555
Cs7 O5 3.062055 1_555
Cs7 O6 3.163973 1_556
Cs7 O13 3.184727 1_556
Cs7 O9 3.184727 1_556
Cs7 O1 3.214824 1_555
Cs7 O1 3.214824 1_655
Mn0 O15 1.995486 1_555
Mn0 O11 1.995486 1_555
Mn0 O5 2.074102 1_555
Mn0 O3 2.109636 1_555
Mn1 O9 1.995486 1_455
Mn1 O13 1.995486 1_555
Mn1 O7 2.074102 1_555
Mn1 O1 2.109636 1_554
Mn2 O14 1.995486 1_455
Mn2 O10 1.995486 1_555
Mn2 O4 2.074102 1_555
Mn2 O2 2.109636 1_555
Mn3 O8 1.995486 1_555
Mn3 O12 1.995486 1_555
Mn3 O6 2.074102 1_555
Mn3 O0 2.109636 1_554
Ge0 O10 1.760756 1_555
Ge0 O14 1.760756 1_555
Ge0 O0 1.782629 1_555
Ge0 O6 1.789491 1_556
Ge1 O11 1.760756 1_455
Ge1 O15 1.760756 1_555
Ge1 O1 1.782629 1_555
Ge1 O7 1.789491 1_556
Ge2 O12 1.760756 1_455
Ge2 O8 1.760756 1_555
Ge2 O2 1.782629 1_555
Ge2 O4 1.789491 1_555
Ge3 O13 1.760756 1_555
Ge3 O9 1.760756 1_555
Ge3 O3 1.782629 1_555
Ge3 O5 1.789491 1_555
