# generated using pymatgen
data_Cd4Te(PN2)6
_symmetry_space_group_name_H-M   'P 1'
_cell_length_a   7.44407514
_cell_length_b   7.44407560
_cell_length_c   7.44407532
_cell_angle_alpha   109.47121987
_cell_angle_beta   109.47122113
_cell_angle_gamma   109.47121888
_symmetry_Int_Tables_number   1
_chemical_formula_structural   Cd4Te(PN2)6
_chemical_formula_sum   'Cd4 Te1 P6 N12'
_cell_volume   317.54874610
_cell_formula_units_Z   1
loop_
 _symmetry_equiv_pos_site_id
 _symmetry_equiv_pos_as_xyz
  1  'x, y, z'
loop_
 _atom_site_type_symbol
 _atom_site_label
 _atom_site_symmetry_multiplicity
 _atom_site_fract_x
 _atom_site_fract_y
 _atom_site_fract_z
 _atom_site_occupancy
  Cd  Cd0  1  0.63659256  0.00000000  1.00000000  1
  Cd  Cd1  1  0.00000000  0.00000000  0.63659256  1
  Cd  Cd2  1  0.00000000  0.63659256  0.00000000  1
  Cd  Cd3  1  0.36340744  0.36340744  0.36340744  1
  Te  Te0  1  0.00000000  0.00000000  0.00000000  1
  P  P0  1  0.25000000  0.75000000  0.50000000  1
  P  P1  1  0.75000000  0.25000000  0.50000000  1
  P  P2  1  0.75000000  0.50000000  0.25000000  1
  P  P3  1  0.25000000  0.50000000  0.75000000  1
  P  P4  1  0.50000000  0.75000000  0.25000000  1
  P  P5  1  0.50000000  0.25000000  0.75000000  1
  N  N0  1  0.70785910  0.29171372  0.29171372  1
  N  N1  1  0.29171372  0.70785910  0.29171372  1
  N  N2  1  0.29214090  0.58385461  0.58385461  1
  N  N3  1  0.58385461  0.58385461  0.29214090  1
  N  N4  1  0.41614539  0.70828628  0.00000000  1
  N  N5  1  0.00000000  0.70828628  0.41614539  1
  N  N6  1  0.58385461  0.29214090  0.58385461  1
  N  N7  1  0.70828628  0.00000000  0.41614539  1
  N  N8  1  0.41614539  0.00000000  0.70828628  1
  N  N9  1  0.70828628  0.41614539  0.00000000  1
  N  N10  1  0.29171372  0.29171372  0.70785910  1
  N  N11  1  0.00000000  0.41614539  0.70828628  1
loop_
_geom_bond_atom_site_label_1
_geom_bond_atom_site_label_2
_geom_bond_distance
_geom_bond_site_symmetry_2
Cd0 N8 2.243400 1_555
Cd0 N0 2.243400 1_556
Cd0 N4 2.243400 1_546
Cd0 Te0 2.705232 1_656
Cd1 N7 2.243400 1_455
Cd1 N5 2.243400 1_545
Cd1 N10 2.243400 1_555
Cd1 Te0 2.705232 1_556
Cd2 N1 2.243400 1_555
Cd2 N9 2.243400 1_455
Cd2 N11 2.243400 1_554
Cd2 Te0 2.705232 1_565
Cd3 N6 2.243400 1_555
Cd3 N2 2.243400 1_555
Cd3 N3 2.243400 1_555
Cd3 Te0 2.705232 1_555
N0 P1 1.631113 1_555
N0 P2 1.631113 1_555
N1 P4 1.631113 1_555
N1 P0 1.631113 1_555
N2 P3 1.631113 1_555
N2 P0 1.631113 1_555
N3 P2 1.631113 1_555
N3 P4 1.631113 1_555
N4 P4 1.631113 1_555
N4 P3 1.631113 1_554
N5 P0 1.631113 1_555
N5 P2 1.631113 1_455
N6 P1 1.631113 1_555
N6 P5 1.631113 1_555
N7 P1 1.631113 1_555
N7 P4 1.631113 1_545
N8 P5 1.631113 1_555
N8 P0 1.631113 1_545
N9 P2 1.631113 1_555
N9 P5 1.631113 1_554
N10 P5 1.631113 1_555
N10 P3 1.631113 1_555
N11 P3 1.631113 1_555
N11 P1 1.631113 1_455
