# generated using pymatgen
data_Ba3Sc2WO9
_symmetry_space_group_name_H-M   'P 1'
_cell_length_a   5.84561658
_cell_length_b   5.84561711
_cell_length_c   7.17461157
_cell_angle_alpha   90.00000000
_cell_angle_beta   90.00000000
_cell_angle_gamma   119.99998598
_symmetry_Int_Tables_number   1
_chemical_formula_structural   Ba3Sc2WO9
_chemical_formula_sum   'Ba3 Sc2 W1 O9'
_cell_volume   212.31944896
_cell_formula_units_Z   1
loop_
 _symmetry_equiv_pos_site_id
 _symmetry_equiv_pos_as_xyz
  1  'x, y, z'
loop_
 _atom_site_type_symbol
 _atom_site_label
 _atom_site_symmetry_multiplicity
 _atom_site_fract_x
 _atom_site_fract_y
 _atom_site_fract_z
 _atom_site_occupancy
  Ba  Ba0  1  0.00000000  0.00000000  0.50000000  1
  Ba  Ba1  1  0.66666700  0.33333300  0.82516794  1
  Ba  Ba2  1  0.33333300  0.66666700  0.17483206  1
  Sc  Sc0  1  0.66666700  0.33333300  0.34306850  1
  Sc  Sc1  1  0.33333300  0.66666700  0.65693150  1
  W  W0  1  0.00000000  0.00000000  0.00000000  1
  O  O0  1  0.68599254  0.84299627  0.84545241  1
  O  O1  1  0.31400746  0.15700373  0.15454759  1
  O  O2  1  0.00000000  0.50000000  0.50000000  1
  O  O3  1  0.50000000  0.00000000  0.50000000  1
  O  O4  1  0.15700373  0.31400746  0.84545241  1
  O  O5  1  0.84299627  0.68599254  0.15454759  1
  O  O6  1  0.50000000  0.50000000  0.50000000  1
  O  O7  1  0.15700373  0.84299627  0.84545241  1
  O  O8  1  0.84299627  0.15700373  0.15454759  1
loop_
_geom_bond_atom_site_label_1
_geom_bond_atom_site_label_2
_geom_bond_distance
_geom_bond_site_symmetry_2
Ba0 O3 2.922808 1_455
Ba0 O3 2.922808 1_555
Ba0 O2 2.922809 1_545
Ba0 O2 2.922809 1_555
Ba0 O6 2.922809 1_555
Ba0 O6 2.922809 1_445
Ba0 O7 2.944466 1_545
Ba0 O8 2.944466 1_455
Ba0 O0 2.944466 1_445
Ba0 O1 2.944466 1_555
Ba0 O4 2.944466 1_555
Ba0 O5 2.944466 1_445
Ba1 O2 2.879283 1_655
Ba1 O3 2.879283 1_555
Ba1 O6 2.879286 1_555
Ba1 O4 2.928061 1_655
Ba1 O0 2.928061 1_545
Ba1 O7 2.928065 1_545
Ba1 O7 2.928065 1_655
Ba1 O4 2.928067 1_555
Ba1 O0 2.928067 1_555
Ba1 O8 2.961745 1_556
Ba1 O1 2.961748 1_556
Ba1 O5 2.961748 1_556
Ba2 O2 2.879283 1_555
Ba2 O3 2.879283 1_565
Ba2 O6 2.879286 1_555
Ba2 O5 2.928061 1_455
Ba2 O1 2.928061 1_565
Ba2 O8 2.928065 1_565
Ba2 O8 2.928065 1_455
Ba2 O5 2.928067 1_555
Ba2 O1 2.928067 1_555
Ba2 O7 2.961745 1_554
Ba2 O0 2.961748 1_554
Ba2 O4 2.961748 1_554
O0 W0 1.938159 1_666
O0 Sc1 2.239823 1_555
O1 W0 1.938159 1_555
O1 Sc0 2.239823 1_555
O2 Sc1 2.028620 1_555
O2 Sc0 2.028620 1_455
O3 Sc0 2.028620 1_555
O3 Sc1 2.028620 1_545
O4 W0 1.938159 1_556
O4 Sc1 2.239823 1_555
O5 W0 1.938159 1_665
O5 Sc0 2.239823 1_555
O6 Sc1 2.028624 1_555
O6 Sc0 2.028624 1_555
O7 W0 1.938159 1_566
O7 Sc1 2.239819 1_555
O8 W0 1.938159 1_655
O8 Sc0 2.239819 1_555
