# generated using pymatgen
data_Rb2As4S7
_symmetry_space_group_name_H-M   'P 1'
_cell_length_a   8.06856199
_cell_length_b   9.37276704
_cell_length_c   10.97966150
_cell_angle_alpha   96.48595826
_cell_angle_beta   83.01249761
_cell_angle_gamma   113.52562819
_symmetry_Int_Tables_number   1
_chemical_formula_structural   Rb2As4S7
_chemical_formula_sum   'Rb4 As8 S14'
_cell_volume   753.76920125
_cell_formula_units_Z   2
loop_
 _symmetry_equiv_pos_site_id
 _symmetry_equiv_pos_as_xyz
  1  'x, y, z'
loop_
 _atom_site_type_symbol
 _atom_site_label
 _atom_site_symmetry_multiplicity
 _atom_site_fract_x
 _atom_site_fract_y
 _atom_site_fract_z
 _atom_site_occupancy
  Rb  Rb0  1  0.21528456  0.26760577  0.11987603  1
  Rb  Rb1  1  0.36756928  0.69846192  0.53893636  1
  Rb  Rb2  1  0.63243072  0.30153808  0.46106364  1
  Rb  Rb3  1  0.78471544  0.73239423  0.88012397  1
  As  As0  1  0.02466542  0.96762422  0.34950026  1
  As  As1  1  0.20202596  0.39987910  0.81713296  1
  As  As2  1  0.71791464  0.18974003  0.05039166  1
  As  As3  1  0.48504338  0.15943547  0.78329310  1
  As  As4  1  0.28208536  0.81025997  0.94960834  1
  As  As5  1  0.97533458  0.03237578  0.65049974  1
  As  As6  1  0.79797404  0.60012090  0.18286704  1
  As  As7  1  0.51495662  0.84056453  0.21670690  1
  S  S0  1  0.80745274  0.92549769  0.15968892  1
  S  S1  1  0.61053696  0.33119883  0.95142872  1
  S  S2  1  0.46457571  0.46731823  0.71253152  1
  S  S3  1  0.20716490  0.01872955  0.51962484  1
  S  S4  1  0.99927709  0.71614592  0.33335256  1
  S  S5  1  0.38946304  0.66880117  0.04857128  1
  S  S6  1  0.46280136  0.05813686  0.17452497  1
  S  S7  1  0.00072291  0.28385408  0.66664744  1
  S  S8  1  0.53719864  0.94186314  0.82547503  1
  S  S9  1  0.87567823  0.38140803  0.18741315  1
  S  S10  1  0.12432177  0.61859197  0.81258685  1
  S  S11  1  0.79283510  0.98127045  0.48037516  1
  S  S12  1  0.53542429  0.53268177  0.28746848  1
  S  S13  1  0.19254726  0.07450231  0.84031108  1
loop_
_geom_bond_atom_site_label_1
_geom_bond_atom_site_label_2
_geom_bond_distance
_geom_bond_site_symmetry_2
Rb0 S9 3.294867 1_455
Rb0 S12 3.351308 1_555
Rb0 S1 3.353037 1_554
Rb0 S13 3.368720 1_554
Rb0 S6 3.448313 1_555
Rb0 S0 3.583883 1_445
Rb0 S5 3.592564 1_555
Rb1 S10 3.367557 1_555
Rb1 S2 3.404206 1_555
Rb1 S12 3.416557 1_555
Rb1 S11 3.435206 1_555
Rb1 S8 3.729504 1_555
Rb1 S3 3.747374 1_565
Rb2 S9 3.367557 1_555
Rb2 S12 3.404206 1_555
Rb2 S2 3.416557 1_555
Rb2 S3 3.435206 1_555
Rb2 S6 3.729504 1_555
Rb2 S11 3.747374 1_545
Rb3 S10 3.294867 1_655
Rb3 S2 3.351308 1_555
Rb3 S5 3.353037 1_556
Rb3 S0 3.368720 1_556
Rb3 S8 3.448313 1_555
Rb3 S13 3.583883 1_665
Rb3 S1 3.592564 1_555
As0 S11 2.252914 1_455
As0 S4 2.271132 1_455
As0 S3 2.406410 1_565
As0 S0 2.778696 1_455
As0 Rb0 3.719294 1_565
As1 S2 2.170085 1_555
As1 S7 2.321139 1_555
As1 S10 2.377941 1_555
As1 Rb0 3.704182 1_556
As2 S9 2.267326 1_555
As2 S1 2.271724 1_554
As2 S6 2.299214 1_555
As3 S13 2.201963 1_555
As3 S8 2.344360 1_545
As3 S1 2.346709 1_555
As3 Rb2 3.805500 1_555
As4 S10 2.267326 1_555
As4 S5 2.271724 1_556
As4 S8 2.299214 1_555
As5 S3 2.252914 1_655
As5 S7 2.271132 1_655
As5 S11 2.406410 1_545
As5 S13 2.778696 1_655
As5 Rb3 3.719294 1_545
As6 S12 2.170085 1_555
As6 S4 2.321139 1_555
As6 S9 2.377941 1_555
As6 Rb3 3.704182 1_554
As7 S0 2.201963 1_555
As7 S6 2.344360 1_565
As7 S5 2.346709 1_555
As7 Rb1 3.805500 1_555
