# generated using pymatgen
data_VTe6As3O22
_symmetry_space_group_name_H-M   'P 1'
_cell_length_a   6.59318168
_cell_length_b   7.69250834
_cell_length_c   10.51645678
_cell_angle_alpha   68.48651517
_cell_angle_beta   89.79447390
_cell_angle_gamma   77.85304424
_symmetry_Int_Tables_number   1
_chemical_formula_structural   VTe6As3O22
_chemical_formula_sum   'V1 Te6 As3 O22'
_cell_volume   483.51548159
_cell_formula_units_Z   1
loop_
 _symmetry_equiv_pos_site_id
 _symmetry_equiv_pos_as_xyz
  1  'x, y, z'
loop_
 _atom_site_type_symbol
 _atom_site_label
 _atom_site_symmetry_multiplicity
 _atom_site_fract_x
 _atom_site_fract_y
 _atom_site_fract_z
 _atom_site_occupancy
  V  V0  1  0.30382498  0.28940603  0.11173773  1
  Te  Te0  1  0.68964295  0.77324272  0.48123798  1
  Te  Te1  1  0.31554833  0.22637421  0.52046068  1
  Te  Te2  1  0.79307457  0.33541388  0.20703619  1
  Te  Te3  1  0.20158465  0.66044187  0.79602880  1
  Te  Te4  1  0.77087549  0.94923467  0.15850184  1
  Te  Te5  1  0.23674636  0.05280172  0.83946046  1
  As  As0  1  0.68431175  0.70337043  0.88939982  1
  As  As1  1  0.19255861  0.72061532  0.39441752  1
  As  As2  1  0.81320850  0.28103051  0.60543103  1
  O  O0  1  0.19322139  0.41519694  0.94199825  1
  O  O1  1  0.79882822  0.58799901  0.05419301  1
  O  O2  1  0.74705990  0.03853702  0.31052230  1
  O  O3  1  0.26415894  0.96998991  0.68577511  1
  O  O4  1  0.46772787  0.40645354  0.15149079  1
  O  O5  1  0.52060468  0.58452695  0.84908494  1
  O  O6  1  0.70652779  0.71819119  0.31958171  1
  O  O7  1  0.30072682  0.28778445  0.67987319  1
  O  O8  1  0.08753390  0.84311980  0.23064804  1
  O  O9  1  0.91954360  0.16148368  0.76869066  1
  O  O10  1  0.00855057  0.69503439  0.51135384  1
  O  O11  1  0.99623537  0.30762967  0.48820340  1
  O  O12  1  0.81979746  0.22075241  0.07380966  1
  O  O13  1  0.17020748  0.78649689  0.92174106  1
  O  O14  1  0.44672807  0.07062307  0.12312591  1
  O  O15  1  0.55839949  0.92308870  0.88463159  1
  O  O16  1  0.35582686  0.83087789  0.44387702  1
  O  O17  1  0.65070246  0.16936252  0.55740328  1
  O  O18  1  0.11279037  0.26995125  0.22658952  1
  O  O19  1  0.86990089  0.71822144  0.77594021  1
  O  O20  1  0.32403638  0.49935368  0.40392939  1
  O  O21  1  0.67951330  0.50339324  0.59382706  1
loop_
_geom_bond_atom_site_label_1
_geom_bond_atom_site_label_2
_geom_bond_distance
_geom_bond_site_symmetry_2
As0 O19 1.697761 1_555
As0 O5 1.698040 1_555
As0 O15 1.701779 1_555
As0 O1 1.720597 1_556
As1 O16 1.691326 1_555
As1 O8 1.696268 1_555
As1 O20 1.706830 1_555
As1 O10 1.713228 1_555
As2 O17 1.688311 1_555
As2 O9 1.692419 1_555
As2 O11 1.710594 1_555
As2 O21 1.711996 1_555
O0 V0 1.760696 1_556
O0 Te3 1.959006 1_555
O1 Te2 2.024925 1_555
O2 Te4 1.952119 1_545
O2 Te2 2.226698 1_555
O2 Te0 2.272509 1_545
O3 Te5 1.937846 1_565
O3 Te1 2.188417 1_565
O3 Te3 2.360026 1_555
O4 V0 1.685841 1_555
O4 Te2 2.126669 1_555
O5 Te3 2.080619 1_555
O6 Te0 1.894398 1_555
O6 Te4 2.076627 1_555
O7 Te1 1.898278 1_555
O7 Te5 2.086345 1_555
O8 Te4 2.107308 1_455
O9 Te5 2.108482 1_655
O10 Te0 2.053271 1_455
O11 Te1 2.057626 1_655
O12 Te2 1.900325 1_555
O12 Te4 2.043731 1_545
O13 Te3 1.893342 1_555
O13 Te5 2.052597 1_565
O14 V0 1.708850 1_555
O14 Te4 2.118699 1_545
O15 Te5 2.118440 1_565
O16 Te0 2.159337 1_555
O17 Te1 2.167843 1_555
O18 V0 1.733061 1_555
O18 Te2 2.054200 1_455
O19 Te3 2.133049 1_655
O20 Te1 2.018925 1_555
O21 Te0 1.992617 1_555
