# generated using pymatgen
data_Lu3Sc5Se12
_symmetry_space_group_name_H-M   'P 1'
_cell_length_a   12.88319778
_cell_length_b   12.28159197
_cell_length_c   6.77218530
_cell_angle_alpha   79.35669204
_cell_angle_beta   69.53772437
_cell_angle_gamma   31.35937232
_symmetry_Int_Tables_number   1
_chemical_formula_structural   Lu3Sc5Se12
_chemical_formula_sum   'Lu3 Sc5 Se12'
_cell_volume   508.01002389
_cell_formula_units_Z   1
loop_
 _symmetry_equiv_pos_site_id
 _symmetry_equiv_pos_as_xyz
  1  'x, y, z'
loop_
 _atom_site_type_symbol
 _atom_site_label
 _atom_site_symmetry_multiplicity
 _atom_site_fract_x
 _atom_site_fract_y
 _atom_site_fract_z
 _atom_site_occupancy
  Lu  Lu0  1  0.50222531  0.50222531  0.99777469  1
  Lu  Lu1  1  0.25256434  0.25256434  0.74743566  1
  Lu  Lu2  1  0.74769429  0.74769429  0.25230571  1
  Sc  Sc0  1  0.33436505  0.33436505  0.16563495  1
  Sc  Sc1  1  0.16651279  0.16651279  0.33348721  1
  Sc  Sc2  1  0.91737843  0.91737843  0.08262157  1
  Sc  Sc3  1  0.08250546  0.08250546  0.91749454  1
  Sc  Sc4  1  0.99777810  0.99777810  0.50222190  1
  Se  Se0  1  0.01039968  0.49014971  0.49004880  1
  Se  Se1  1  0.49014971  0.01039968  0.00940181  1
  Se  Se2  1  0.23881210  0.76106500  0.75526281  1
  Se  Se3  1  0.76106500  0.23881210  0.24486109  1
  Se  Se4  1  0.67090075  0.16434121  0.84047449  1
  Se  Se5  1  0.84823078  0.31474698  0.66322773  1
  Se  Se6  1  0.31474698  0.84823078  0.17379451  1
  Se  Se7  1  0.16434121  0.67090075  0.32428455  1
  Se  Se8  1  0.58352364  0.08421023  0.40394827  1
  Se  Se9  1  0.40416002  0.92843612  0.58401100  1
  Se  Se10  1  0.92843612  0.40416002  0.08339285  1
  Se  Se11  1  0.08421023  0.58352364  0.92831887  1
loop_
_geom_bond_atom_site_label_1
_geom_bond_atom_site_label_2
_geom_bond_distance
_geom_bond_site_symmetry_2
Lu0 Se6 2.764412 1_556
Lu0 Se5 2.764413 1_555
Lu0 Se4 2.773272 1_555
Lu0 Se7 2.773275 1_556
Lu0 Se2 2.804192 1_555
Lu0 Se3 2.804197 1_556
Lu1 Se8 2.766187 1_555
Lu1 Se11 2.766190 1_555
Lu1 Se1 2.768073 1_556
Lu1 Se0 2.768073 1_555
Lu1 Se9 2.779268 1_545
Lu1 Se10 2.779269 1_456
Lu2 Se10 2.770142 1_555
Lu2 Se9 2.770142 1_555
Lu2 Se1 2.774474 1_565
Lu2 Se0 2.774474 1_655
Lu2 Se11 2.780217 1_654
Lu2 Se8 2.780219 1_565
Sc0 Se11 2.701008 1_554
Sc0 Se8 2.701014 1_555
Sc0 Se1 2.722284 1_555
Sc0 Se0 2.722285 1_555
Sc0 Se4 2.751100 1_554
Sc0 Se7 2.751102 1_555
Sc1 Se9 2.704111 1_545
Sc1 Se10 2.704111 1_455
Sc1 Se0 2.716799 1_555
Sc1 Se1 2.716799 1_555
Sc1 Se6 2.732263 1_545
Sc1 Se5 2.732264 1_455
Sc2 Se2 2.706469 1_654
Sc2 Se3 2.706472 1_565
Sc2 Se4 2.706813 1_564
Sc2 Se7 2.706819 1_655
Sc2 Se11 2.735916 1_654
Sc2 Se8 2.735919 1_565
Sc3 Se2 2.706581 1_545
Sc3 Se3 2.706584 1_456
Sc3 Se6 2.706896 1_546
Sc3 Se5 2.706896 1_455
Sc3 Se10 2.738006 1_456
Sc3 Se9 2.738006 1_545
Sc4 Se5 2.710231 1_565
Sc4 Se6 2.710232 1_655
Sc4 Se7 2.727647 1_655
Sc4 Se4 2.727650 1_565
Sc4 Se3 2.737450 1_565
Sc4 Se2 2.737455 1_655
