# generated using pymatgen
data_Ca6ReTcH14
_symmetry_space_group_name_H-M   'P 1'
_cell_length_a   5.20749993
_cell_length_b   5.20749913
_cell_length_c   12.08557090
_cell_angle_alpha   90.00000000
_cell_angle_beta   90.00000000
_cell_angle_gamma   119.99999882
_symmetry_Int_Tables_number   1
_chemical_formula_structural   Ca6ReTcH14
_chemical_formula_sum   'Ca6 Re1 Tc1 H14'
_cell_volume   283.82868594
_cell_formula_units_Z   1
loop_
 _symmetry_equiv_pos_site_id
 _symmetry_equiv_pos_as_xyz
  1  'x, y, z'
loop_
 _atom_site_type_symbol
 _atom_site_label
 _atom_site_symmetry_multiplicity
 _atom_site_fract_x
 _atom_site_fract_y
 _atom_site_fract_z
 _atom_site_occupancy
  Ca  Ca0  1  0.00000000  0.00000000  0.24916082  1
  Ca  Ca1  1  0.00000000  0.00000000  0.75083918  1
  Ca  Ca2  1  0.33333300  0.66666700  0.43583165  1
  Ca  Ca3  1  0.66666700  0.33333300  0.56416835  1
  Ca  Ca4  1  0.66666700  0.33333300  0.93661116  1
  Ca  Ca5  1  0.33333300  0.66666700  0.06338884  1
  Re  Re0  1  0.00000000  0.00000000  0.50000000  1
  Tc  Tc0  1  0.00000000  0.00000000  0.00000000  1
  H  H0  1  0.33333300  0.66666700  0.24947229  1
  H  H1  1  0.66666700  0.33333300  0.75052771  1
  H  H2  1  0.15878656  0.84121344  0.91200722  1
  H  H3  1  0.15878656  0.31757412  0.91200722  1
  H  H4  1  0.68242588  0.84121344  0.91200722  1
  H  H5  1  0.84121344  0.15878656  0.08799278  1
  H  H6  1  0.84121344  0.68242588  0.08799278  1
  H  H7  1  0.31757412  0.15878656  0.08799278  1
  H  H8  1  0.84153803  0.15846197  0.41182894  1
  H  H9  1  0.84153803  0.68307406  0.41182894  1
  H  H10  1  0.31692594  0.15846197  0.41182894  1
  H  H11  1  0.15846197  0.84153803  0.58817106  1
  H  H12  1  0.15846197  0.31692594  0.58817106  1
  H  H13  1  0.68307406  0.84153803  0.58817106  1
loop_
_geom_bond_atom_site_label_1
_geom_bond_atom_site_label_2
_geom_bond_distance
_geom_bond_site_symmetry_2
Ca0 H5 2.417675 1_455
Ca0 H6 2.417677 1_445
Ca0 H7 2.417678 1_555
Ca0 H8 2.430582 1_455
Ca0 H9 2.430587 1_445
Ca0 H10 2.430587 1_555
Ca1 H2 2.417675 1_545
Ca1 H3 2.417677 1_555
Ca1 H4 2.417678 1_445
Ca1 H11 2.430582 1_545
Ca1 H12 2.430587 1_555
Ca1 H13 2.430587 1_445
Ca2 H0 2.252259 1_555
Ca2 H12 2.424349 1_555
Ca2 H13 2.424349 1_555
Ca2 H11 2.424352 1_555
Ca2 H10 2.620896 1_565
Ca2 H9 2.620896 1_455
Ca2 H8 2.620904 1_455
Ca2 H8 2.620904 1_565
Ca2 H10 2.620912 1_555
Ca2 H9 2.620912 1_555
Ca3 H1 2.252259 1_555
Ca3 H9 2.424349 1_555
Ca3 H10 2.424349 1_555
Ca3 H8 2.424352 1_555
Ca3 H13 2.620896 1_545
Ca3 H12 2.620896 1_655
Ca3 H11 2.620904 1_655
Ca3 H11 2.620904 1_545
Ca3 H13 2.620912 1_555
Ca3 H12 2.620912 1_555
Ca4 H1 2.248925 1_555
Ca4 H6 2.413662 1_556
Ca4 H5 2.413662 1_556
Ca4 H7 2.413662 1_556
Ca4 H4 2.621632 1_545
Ca4 H3 2.621632 1_655
Ca4 H2 2.621638 1_655
Ca4 H2 2.621638 1_545
Ca4 H4 2.621642 1_555
Ca4 H3 2.621643 1_555
Ca5 H0 2.248925 1_555
Ca5 H3 2.413662 1_554
Ca5 H2 2.413662 1_554
Ca5 H4 2.413662 1_554
Ca5 H7 2.621632 1_565
Ca5 H6 2.621632 1_455
Ca5 H5 2.621638 1_455
Ca5 H5 2.621638 1_565
Ca5 H7 2.621642 1_555
Ca5 H6 2.621643 1_555
H2 Tc0 1.783846 1_566
H3 Tc0 1.783850 1_556
H4 Tc0 1.783850 1_666
H5 Tc0 1.783846 1_655
H6 Tc0 1.783850 1_665
H7 Tc0 1.783850 1_555
H8 Re0 1.782783 1_655
H9 Re0 1.782791 1_665
H10 Re0 1.782791 1_555
H11 Re0 1.782783 1_565
H12 Re0 1.782791 1_555
H13 Re0 1.782791 1_665
