# generated using pymatgen
data_Sr6Co4TcO15
_symmetry_space_group_name_H-M   'P 1'
_cell_length_a   6.89989120
_cell_length_b   6.89989187
_cell_length_c   6.89989116
_cell_angle_alpha   87.21101530
_cell_angle_beta   87.21101793
_cell_angle_gamma   87.21101201
_symmetry_Int_Tables_number   1
_chemical_formula_structural   Sr6Co4TcO15
_chemical_formula_sum   'Sr6 Co4 Tc1 O15'
_cell_volume   327.36278675
_cell_formula_units_Z   1
loop_
 _symmetry_equiv_pos_site_id
 _symmetry_equiv_pos_as_xyz
  1  'x, y, z'
loop_
 _atom_site_type_symbol
 _atom_site_label
 _atom_site_symmetry_multiplicity
 _atom_site_fract_x
 _atom_site_fract_y
 _atom_site_fract_z
 _atom_site_occupancy
  Sr  Sr0  1  0.50000000  0.86956383  0.13043617  1
  Sr  Sr1  1  0.13043617  0.50000000  0.86956383  1
  Sr  Sr2  1  0.86956383  0.13043617  0.50000000  1
  Sr  Sr3  1  1.00000000  0.68383844  0.31616156  1
  Sr  Sr4  1  0.31616156  0.00000000  0.68383844  1
  Sr  Sr5  1  0.68383844  0.31616156  0.00000000  1
  Co  Co0  1  0.70619665  0.70619665  0.70619665  1
  Co  Co1  1  0.29380335  0.29380335  0.29380335  1
  Co  Co2  1  0.90225745  0.90225745  0.90225745  1
  Co  Co3  1  0.09774255  0.09774255  0.09774255  1
  Tc  Tc0  1  0.50000000  0.50000000  0.50000000  1
  O  O0  1  0.38322328  0.55400534  0.25273499  1
  O  O1  1  0.25273499  0.38322328  0.55400534  1
  O  O2  1  0.55400534  0.25273499  0.38322328  1
  O  O3  1  0.61677672  0.74726501  0.44599466  1
  O  O4  1  0.44599466  0.61677672  0.74726501  1
  O  O5  1  0.74726501  0.44599466  0.61677672  1
  O  O6  1  0.20827434  0.03557572  0.34544597  1
  O  O7  1  0.34544597  0.20827434  0.03557572  1
  O  O8  1  0.03557572  0.34544597  0.20827434  1
  O  O9  1  0.79172566  0.65455403  0.96442428  1
  O  O10  1  0.96442428  0.79172566  0.65455403  1
  O  O11  1  0.15554571  0.84445429  1.00000000  1
  O  O12  1  0.84445429  1.00000000  0.15554571  1
  O  O13  1  0.00000000  0.15554571  0.84445429  1
  O  O14  1  0.65455403  0.96442428  0.79172566  1
loop_
_geom_bond_atom_site_label_1
_geom_bond_atom_site_label_2
_geom_bond_distance
_geom_bond_site_symmetry_2
Co0 O9 1.915703 1_555
Co0 O10 1.915704 1_555
Co0 O14 1.915704 1_555
Co0 O3 1.930177 1_555
Co0 O4 1.930177 1_555
Co0 O5 1.930177 1_555
Co1 O8 1.915703 1_555
Co1 O7 1.915704 1_555
Co1 O6 1.915704 1_555
Co1 O2 1.930177 1_555
Co1 O1 1.930177 1_555
Co1 O0 1.930177 1_555
Co2 O11 1.920655 1_655
Co2 O12 1.920655 1_556
Co2 O13 1.920655 1_665
Co2 O14 1.926246 1_555
Co2 O10 1.926246 1_555
Co2 O9 1.926246 1_555
Co3 O13 1.920655 1_554
Co3 O12 1.920655 1_445
Co3 O11 1.920655 1_544
Co3 O6 1.926246 1_555
Co3 O7 1.926246 1_555
Co3 O8 1.926246 1_555
O0 Tc0 1.934310 1_555
O0 Sr0 2.455155 1_555
O0 Sr3 2.771435 1_455
O0 Sr5 3.103511 1_555
O1 Tc0 1.934310 1_555
O1 Sr1 2.455155 1_555
O1 Sr4 2.771436 1_555
O1 Sr3 3.103511 1_455
O2 Tc0 1.934310 1_555
O2 Sr2 2.455155 1_555
O2 Sr5 2.771435 1_555
O2 Sr4 3.103511 1_555
O3 Tc0 1.934310 1_555
O3 Sr0 2.455155 1_555
O3 Sr3 2.771435 1_555
O3 Sr4 3.103511 1_565
O4 Tc0 1.934310 1_555
O4 Sr1 2.455155 1_555
O4 Sr4 2.771436 1_565
O4 Sr5 3.103511 1_556
O5 Tc0 1.934310 1_555
O5 Sr2 2.455155 1_555
O5 Sr5 2.771435 1_556
O5 Sr3 3.103511 1_555
O6 Sr4 2.482259 1_555
O6 Sr2 2.589215 1_455
O6 Sr0 2.686085 1_545
O6 Sr3 2.900253 1_445
O7 Sr5 2.482259 1_555
O7 Sr0 2.589215 1_545
O7 Sr1 2.686085 1_554
O7 Sr4 2.900253 1_554
O8 Sr3 2.482260 1_455
O8 Sr1 2.589215 1_554
O8 Sr2 2.686085 1_455
O8 Sr5 2.900253 1_455
O9 Sr5 2.482260 1_556
O9 Sr1 2.589215 1_655
O9 Sr0 2.686085 1_556
O9 Sr3 2.900253 1_556
O10 Sr3 2.482259 1_555
O10 Sr2 2.589215 1_565
O10 Sr1 2.686085 1_655
O10 Sr4 2.900253 1_665
O11 Sr0 2.598481 1_556
O11 Sr1 2.598481 1_555
O11 Sr4 2.606057 1_565
O11 Sr3 2.606057 1_456
O12 Sr2 2.598481 1_565
O12 Sr0 2.598481 1_555
O12 Sr5 2.606057 1_565
O12 Sr3 2.606057 1_555
O13 Sr2 2.598481 1_455
O13 Sr1 2.598481 1_555
O13 Sr5 2.606057 1_456
O13 Sr4 2.606057 1_555
O14 Sr4 2.482259 1_565
O14 Sr0 2.589215 1_556
O14 Sr2 2.686085 1_565
O14 Sr5 2.900253 1_566
