# generated using pymatgen
data_BaCr2(Sb6Os)2
_symmetry_space_group_name_H-M   'P 1'
_cell_length_a   8.24699855
_cell_length_b   8.24699912
_cell_length_c   8.20815983
_cell_angle_alpha   109.33442283
_cell_angle_beta   109.28783035
_cell_angle_gamma   109.98166028
_symmetry_Int_Tables_number   1
_chemical_formula_structural   BaCr2(Sb6Os)2
_chemical_formula_sum   'Ba1 Cr2 Sb12 Os2'
_cell_volume   428.72314343
_cell_formula_units_Z   1
loop_
 _symmetry_equiv_pos_site_id
 _symmetry_equiv_pos_as_xyz
  1  'x, y, z'
loop_
 _atom_site_type_symbol
 _atom_site_label
 _atom_site_symmetry_multiplicity
 _atom_site_fract_x
 _atom_site_fract_y
 _atom_site_fract_z
 _atom_site_occupancy
  Ba  Ba0  1  0.00000000  0.00000000  0.00000000  1
  Cr  Cr0  1  0.00000000  0.00000000  0.50000000  1
  Cr  Cr1  1  0.50000000  0.50000000  0.50000000  1
  Sb  Sb0  1  0.35030395  0.18919770  0.85113144  1
  Sb  Sb1  1  0.64969605  0.81080230  0.14886856  1
  Sb  Sb2  1  0.66193374  0.50082649  0.85113144  1
  Sb  Sb3  1  0.33806626  0.49917351  0.14886856  1
  Sb  Sb4  1  0.18953174  0.83908547  0.33914251  1
  Sb  Sb5  1  0.81046826  0.16091453  0.66085749  1
  Sb  Sb6  1  0.49994195  0.85038922  0.66085749  1
  Sb  Sb7  1  0.50005805  0.14961078  0.33914251  1
  Sb  Sb8  1  0.84245529  0.33863369  0.18108898  1
  Sb  Sb9  1  0.15754471  0.66136631  0.81891102  1
  Sb  Sb10  1  0.84831149  0.65017196  0.49848144  1
  Sb  Sb11  1  0.15168851  0.34982804  0.50151856  1
  Os  Os0  1  0.50000000  0.00000000  0.00000000  1
  Os  Os1  1  0.00000000  0.50000000  0.00000000  1
loop_
_geom_bond_atom_site_label_1
_geom_bond_atom_site_label_2
_geom_bond_distance
_geom_bond_site_symmetry_2
Ba0 Sb8 3.564229 1_455
Ba0 Sb9 3.564229 1_544
Ba0 Sb0 3.575980 1_554
Ba0 Sb1 3.575980 1_445
Ba0 Sb3 3.575987 1_555
Ba0 Sb2 3.575987 1_444
Ba0 Sb4 3.597605 1_545
Ba0 Sb5 3.597605 1_454
Ba0 Sb7 3.597612 1_555
Ba0 Sb6 3.597612 1_444
Ba0 Sb11 3.619609 1_555
Ba0 Sb10 3.619609 1_444
Cr0 Sb11 2.718049 1_555
Cr0 Sb10 2.718049 1_445
Cr0 Sb0 2.743767 1_555
Cr0 Sb1 2.743767 1_445
Cr0 Sb5 2.751073 1_455
Cr0 Sb4 2.751073 1_545
Cr1 Sb10 2.718065 1_555
Cr1 Sb11 2.718065 1_555
Cr1 Sb2 2.743771 1_555
Cr1 Sb3 2.743771 1_555
Cr1 Sb6 2.751077 1_555
Cr1 Sb7 2.751077 1_555
Sb0 Sb2 2.948864 1_555
Sb0 Sb3 2.952994 1_556
Sb1 Sb3 2.948864 1_555
Sb1 Sb2 2.952994 1_554
Sb4 Sb7 2.938422 1_565
Sb4 Sb6 2.956909 1_555
Sb5 Sb6 2.938422 1_545
Sb5 Sb7 2.956909 1_555
Sb10 Sb9 2.945683 1_655
Sb10 Sb8 2.964868 1_555
Sb11 Sb8 2.945683 1_455
Sb11 Sb9 2.964868 1_555
Os0 Sb7 2.644985 1_555
Os0 Sb6 2.644985 1_544
Os0 Sb1 2.652206 1_545
Os0 Sb0 2.652206 1_554
Os0 Sb8 2.659410 1_555
Os0 Sb9 2.659410 1_544
Os1 Sb4 2.644989 1_555
Os1 Sb5 2.644989 1_454
Os1 Sb3 2.652202 1_555
Os1 Sb2 2.652202 1_454
Os1 Sb9 2.659410 1_554
Os1 Sb8 2.659410 1_455
