# generated using pymatgen
data_LiZr6Zn22As
_symmetry_space_group_name_H-M   'P 1'
_cell_length_a   8.68968832
_cell_length_b   8.68968758
_cell_length_c   8.68968895
_cell_angle_alpha   60.00000218
_cell_angle_beta   60.00000501
_cell_angle_gamma   59.99999625
_symmetry_Int_Tables_number   1
_chemical_formula_structural   LiZr6Zn22As
_chemical_formula_sum   'Li1 Zr6 Zn22 As1'
_cell_volume   463.97823351
_cell_formula_units_Z   1
loop_
 _symmetry_equiv_pos_site_id
 _symmetry_equiv_pos_as_xyz
  1  'x, y, z'
loop_
 _atom_site_type_symbol
 _atom_site_label
 _atom_site_symmetry_multiplicity
 _atom_site_fract_x
 _atom_site_fract_y
 _atom_site_fract_z
 _atom_site_occupancy
  Li  Li0  1  0.00000000  0.00000000  0.00000000  1
  Zr  Zr0  1  0.71292674  0.28707326  0.28707326  1
  Zr  Zr1  1  0.28707326  0.71292674  0.71292674  1
  Zr  Zr2  1  0.28707326  0.71292674  0.28707326  1
  Zr  Zr3  1  0.71292674  0.28707326  0.71292674  1
  Zr  Zr4  1  0.28707326  0.28707326  0.71292674  1
  Zr  Zr5  1  0.71292674  0.71292674  0.28707326  1
  Zn  Zn0  1  0.12195867  0.12195867  0.12195867  1
  Zn  Zn1  1  0.87804133  0.87804133  0.87804133  1
  Zn  Zn2  1  0.12195867  0.12195867  0.63412600  1
  Zn  Zn3  1  0.12195867  0.63412600  0.12195867  1
  Zn  Zn4  1  0.87804133  0.87804133  0.36587400  1
  Zn  Zn5  1  0.87804133  0.36587400  0.87804133  1
  Zn  Zn6  1  0.63412600  0.12195867  0.12195867  1
  Zn  Zn7  1  0.36587400  0.87804133  0.87804133  1
  Zn  Zn8  1  0.50000000  0.00000000  0.00000000  1
  Zn  Zn9  1  0.00000000  0.50000000  0.50000000  1
  Zn  Zn10  1  0.00000000  0.50000000  0.00000000  1
  Zn  Zn11  1  0.50000000  0.00000000  0.50000000  1
  Zn  Zn12  1  0.00000000  0.00000000  0.50000000  1
  Zn  Zn13  1  0.50000000  0.50000000  0.00000000  1
  Zn  Zn14  1  0.33227341  0.33227341  0.33227341  1
  Zn  Zn15  1  0.66772659  0.66772659  0.66772659  1
  Zn  Zn16  1  0.33227341  0.33227341  0.00317978  1
  Zn  Zn17  1  0.33227341  0.00317978  0.33227341  1
  Zn  Zn18  1  0.66772659  0.66772659  0.99682022  1
  Zn  Zn19  1  0.66772659  0.99682022  0.66772659  1
  Zn  Zn20  1  0.00317978  0.33227341  0.33227341  1
  Zn  Zn21  1  0.99682022  0.66772659  0.66772659  1
  As  As0  1  0.50000000  0.50000000  0.50000000  1
loop_
_geom_bond_atom_site_label_1
_geom_bond_atom_site_label_2
_geom_bond_distance
_geom_bond_site_symmetry_2
Li0 Zn5 2.595913 1_454
Li0 Zn3 2.595913 1_545
Li0 Zn7 2.595913 1_544
Li0 Zn6 2.595913 1_455
Li0 Zn2 2.595913 1_554
Li0 Zn4 2.595913 1_445
Li0 Zn0 2.595927 1_555
Li0 Zn1 2.595927 1_444
Zn0 Zn10 2.682935 1_555
Zn0 Zn8 2.682936 1_555
Zn0 Zn12 2.682936 1_555
Zn0 Zn20 2.704202 1_555
Zn0 Zn16 2.704202 1_555
Zn0 Zn17 2.704202 1_555
Zn1 Zn10 2.682935 1_656
Zn1 Zn8 2.682936 1_566
Zn1 Zn12 2.682936 1_665
Zn1 Zn21 2.704202 1_555
Zn1 Zn18 2.704202 1_555
Zn1 Zn19 2.704202 1_555
Zn2 Zn9 2.682936 1_555
Zn2 Zn20 2.704217 1_555
Zn3 Zn9 2.682936 1_555
Zn4 Zn9 2.682936 1_655
Zn5 Zn9 2.682936 1_655
Zn6 Zn8 2.682950 1_555
Zn7 Zn8 2.682950 1_566
Zn8 Zr5 3.105866 1_545
Zn8 Zr4 3.105866 1_554
Zn8 Zr3 3.105866 1_554
Zn8 Zr2 3.105866 1_545
Zn9 Zr4 3.105866 1_555
Zn9 Zr5 3.105866 1_455
Zn9 Zr2 3.105866 1_555
Zn9 Zr3 3.105866 1_455
Zn10 Zn16 2.508598 1_555
Zn10 Zn18 2.508598 1_454
Zn10 Zn20 2.508599 1_555
Zn10 Zn21 2.508599 1_454
Zn10 Zn3 2.682950 1_555
Zn10 Zn5 2.682950 1_454
Zn10 Zr5 3.105866 1_455
Zn10 Zr4 3.105866 1_554
Zn10 Zr1 3.105866 1_554
Zn10 Zr0 3.105866 1_455
Zn11 Zn15 2.508598 1_545
Zn11 Zn14 2.508598 1_555
Zn11 Zn19 2.508598 1_545
Zn11 Zn17 2.508598 1_555
Zn11 Zn4 2.682936 1_545
Zn11 Zn2 2.682936 1_555
Zn11 Zn7 2.682936 1_545
Zn11 Zn6 2.682936 1_555
Zn11 Zr4 3.105866 1_555
Zn11 Zr5 3.105866 1_545
Zn11 Zr0 3.105866 1_555
Zn11 Zr1 3.105866 1_545
Zn12 Zn20 2.508598 1_555
Zn12 Zn21 2.508598 1_445
Zn12 Zn17 2.508599 1_555
Zn12 Zn19 2.508599 1_445
Zn12 Zn2 2.682950 1_555
Zn12 Zn4 2.682950 1_445
Zn12 Zr1 3.105866 1_545
Zn12 Zr3 3.105866 1_455
Zn12 Zr2 3.105866 1_545
Zn12 Zr0 3.105866 1_455
Zn13 Zn18 2.508598 1_554
Zn13 Zn16 2.508598 1_555
Zn13 Zn15 2.508599 1_554
Zn13 Zn14 2.508599 1_555
Zn13 Zn7 2.682936 1_554
Zn13 Zn6 2.682936 1_555
Zn13 Zn5 2.682936 1_554
Zn13 Zn3 2.682936 1_555
Zn13 Zr2 3.105866 1_555
Zn13 Zr0 3.105866 1_555
Zn13 Zr3 3.105866 1_554
Zn13 Zr1 3.105866 1_554
Zn14 Zn9 2.508598 1_555
Zn14 Zn3 2.704207 1_555
Zn14 Zn6 2.704208 1_555
Zn14 Zn2 2.704208 1_555
Zn14 Zn17 2.859721 1_555
Zn14 Zn20 2.859721 1_555
Zn14 Zn16 2.859721 1_555
Zn14 Zr2 2.967435 1_555
Zn14 Zr0 2.967436 1_555
Zn14 Zr4 2.967436 1_555
Zn15 Zn9 2.508598 1_655
Zn15 Zn5 2.704207 1_555
Zn15 Zn7 2.704208 1_555
Zn15 Zn4 2.704208 1_555
Zn15 Zn19 2.859721 1_555
Zn15 Zn21 2.859721 1_555
Zn15 Zn18 2.859721 1_555
Zn15 Zr3 2.967435 1_555
Zn15 Zr1 2.967436 1_555
Zn15 Zr5 2.967436 1_555
Zn16 Zn8 2.508598 1_555
Zn16 Zn3 2.704217 1_555
Zn16 Zn6 2.704217 1_555
Zn16 Zn17 2.859721 1_555
Zn16 Zn20 2.859721 1_555
Zn16 Zr1 2.967436 1_554
Zn16 Zr4 2.967436 1_554
Zn16 Zr3 2.967436 1_554
Zn17 Zn8 2.508599 1_555
Zn17 Zn6 2.704217 1_555
Zn17 Zn2 2.704217 1_555
Zn17 Zn20 2.859721 1_555
Zn17 Zr5 2.967435 1_545
Zn17 Zr2 2.967435 1_545
Zn17 Zr1 2.967436 1_545
Zn18 Zn8 2.508598 1_566
Zn18 Zn5 2.704217 1_555
Zn18 Zn7 2.704217 1_555
Zn18 Zn19 2.859721 1_555
Zn18 Zn21 2.859721 1_555
Zn18 Zr0 2.967436 1_556
Zn18 Zr5 2.967436 1_556
Zn18 Zr2 2.967436 1_556
Zn19 Zn8 2.508599 1_566
Zn19 Zn7 2.704217 1_555
Zn19 Zn4 2.704217 1_555
Zn19 Zn21 2.859721 1_555
Zn19 Zr4 2.967435 1_565
Zn19 Zr3 2.967435 1_565
Zn19 Zr0 2.967436 1_565
Zn20 Zn9 2.508598 1_555
Zn20 Zn3 2.704217 1_555
Zn20 Zr5 2.967435 1_455
Zn20 Zr0 2.967436 1_455
Zn20 Zr3 2.967436 1_455
Zn21 Zn9 2.508598 1_655
Zn21 Zn5 2.704217 1_555
Zn21 Zn4 2.704217 1_555
Zn21 Zr4 2.967435 1_655
Zn21 Zr1 2.967436 1_655
Zn21 Zr2 2.967436 1_655
As0 Zr1 2.616673 1_555
As0 Zr3 2.616673 1_555
As0 Zr0 2.616673 1_555
As0 Zr2 2.616673 1_555
As0 Zr5 2.616673 1_555
As0 Zr4 2.616673 1_555
