# generated using pymatgen
data_Ti8BeCrBi4
_symmetry_space_group_name_H-M   'P 1'
_cell_length_a   7.88867901
_cell_length_b   7.88867922
_cell_length_c   7.88867982
_cell_angle_alpha   95.59373514
_cell_angle_beta   95.59373131
_cell_angle_gamma   143.61525617
_symmetry_Int_Tables_number   1
_chemical_formula_structural   Ti8BeCrBi4
_chemical_formula_sum   'Ti8 Be1 Cr1 Bi4'
_cell_volume   276.66055746
_cell_formula_units_Z   1
loop_
 _symmetry_equiv_pos_site_id
 _symmetry_equiv_pos_as_xyz
  1  'x, y, z'
loop_
 _atom_site_type_symbol
 _atom_site_label
 _atom_site_symmetry_multiplicity
 _atom_site_fract_x
 _atom_site_fract_y
 _atom_site_fract_z
 _atom_site_occupancy
  Ti  Ti0  1  0.08012280  0.19400021  0.27582501  1
  Ti  Ti1  1  0.91817420  0.80429679  0.72417499  1
  Ti  Ti2  1  0.80429679  0.08012280  0.88612159  1
  Ti  Ti3  1  0.41987720  0.69570321  0.11387841  1
  Ti  Ti4  1  0.19400021  0.91817420  0.11387841  1
  Ti  Ti5  1  0.58182580  0.30599979  0.88612159  1
  Ti  Ti6  1  0.69570321  0.58182580  0.27582501  1
  Ti  Ti7  1  0.30599979  0.41987720  0.72417499  1
  Be  Be0  1  0.25000000  0.25000000  0.00000000  1
  Cr  Cr0  1  0.75000000  0.75000000  0.00000000  1
  Bi  Bi0  1  0.14082138  0.64082138  0.78164175  1
  Bi  Bi1  1  0.85917862  0.35917862  0.21835825  1
  Bi  Bi2  1  0.35917862  0.14082138  0.50000000  1
  Bi  Bi3  1  0.64082138  0.85917862  0.50000000  1
loop_
_geom_bond_atom_site_label_1
_geom_bond_atom_site_label_2
_geom_bond_distance
_geom_bond_site_symmetry_2
Ti0 Ti6 2.989667 1_445
Ti0 Ti3 2.995131 1_445
Ti0 Ti6 3.003456 1_555
Ti0 Ti3 3.008887 1_555
Ti0 Ti4 3.162719 1_545
Ti0 Ti2 3.162725 1_454
Ti0 Ti7 3.360104 1_555
Ti1 Ti7 2.989667 1_555
Ti1 Ti5 2.995123 1_555
Ti1 Ti7 3.003456 1_665
Ti1 Ti5 3.008896 1_665
Ti1 Ti2 3.162719 1_565
Ti1 Ti4 3.162725 1_656
Ti1 Ti6 3.360104 1_555
Ti2 Ti3 2.989679 1_546
Ti2 Ti7 2.995131 1_545
Ti2 Ti3 3.003461 1_656
Ti2 Ti7 3.008887 1_655
Ti2 Ti5 3.360088 1_555
Ti3 Ti6 3.162719 1_555
Ti3 Ti7 3.162725 1_554
Ti3 Ti4 3.360088 1_555
Ti4 Ti5 2.989672 1_454
Ti4 Ti6 2.995123 1_455
Ti4 Ti5 3.003469 1_564
Ti4 Ti6 3.008896 1_565
Ti5 Ti7 3.162719 1_555
Ti5 Ti6 3.162725 1_556
Be0 Cr0 2.462912 1_555
Be0 Cr0 2.462912 1_445
Be0 Ti0 2.555036 1_555
Be0 Ti7 2.555036 1_554
Be0 Ti6 2.555039 1_555
Be0 Ti1 2.555039 1_444
Be0 Ti2 2.555044 1_454
Be0 Ti3 2.555044 1_555
Be0 Ti5 2.555047 1_554
Be0 Ti4 2.555047 1_545
Cr0 Ti1 2.550989 1_554
Cr0 Ti6 2.550990 1_555
Cr0 Ti7 2.550992 1_554
Cr0 Ti0 2.550992 1_665
Cr0 Ti4 2.550998 1_655
Cr0 Ti5 2.550998 1_554
Cr0 Ti3 2.551000 1_555
Cr0 Ti2 2.551000 1_564
Bi0 Ti7 2.925615 1_555
Bi0 Ti1 2.925615 1_455
Bi0 Ti4 3.003689 1_556
Bi0 Ti3 3.003689 1_556
Bi0 Ti5 3.079111 1_455
Bi0 Ti2 3.079111 1_565
Bi0 Ti2 3.085814 1_455
Bi0 Ti5 3.085814 1_565
Bi1 Ti6 2.925615 1_555
Bi1 Ti0 2.925615 1_655
Bi1 Ti2 3.003689 1_554
Bi1 Ti5 3.003689 1_554
Bi1 Ti4 3.079111 1_655
Bi1 Ti3 3.079112 1_545
Bi1 Ti3 3.085814 1_655
Bi1 Ti4 3.085814 1_545
Bi2 Ti4 2.925610 1_545
Bi2 Ti5 2.925610 1_555
Bi2 Ti7 3.003680 1_555
Bi2 Ti0 3.003680 1_555
Bi2 Ti6 3.079114 1_445
Bi2 Ti1 3.079114 1_555
Bi2 Ti1 3.085820 1_445
Bi2 Ti6 3.085820 1_555
Bi3 Ti2 2.925610 1_565
Bi3 Ti3 2.925610 1_555
Bi3 Ti6 3.003680 1_555
Bi3 Ti1 3.003680 1_555
Bi3 Ti0 3.079117 1_665
Bi3 Ti7 3.079117 1_555
Bi3 Ti7 3.085816 1_665
Bi3 Ti0 3.085817 1_555
