# generated using pymatgen
data_Hf6ZrPt9Au
_symmetry_space_group_name_H-M   'P 1'
_cell_length_a   8.13143234
_cell_length_b   8.13143326
_cell_length_c   9.61548047
_cell_angle_alpha   90.10295195
_cell_angle_beta   90.10295135
_cell_angle_gamma   107.21001881
_symmetry_Int_Tables_number   1
_chemical_formula_structural   Hf6ZrPt9Au
_chemical_formula_sum   'Hf12 Zr2 Pt18 Au2'
_cell_volume   607.30880644
_cell_formula_units_Z   2
loop_
 _symmetry_equiv_pos_site_id
 _symmetry_equiv_pos_as_xyz
  1  'x, y, z'
loop_
 _atom_site_type_symbol
 _atom_site_label
 _atom_site_symmetry_multiplicity
 _atom_site_fract_x
 _atom_site_fract_y
 _atom_site_fract_z
 _atom_site_occupancy
  Hf  Hf0  1  0.80978972  0.19021028  0.50000000  1
  Hf  Hf1  1  0.19021028  0.80978972  0.50000000  1
  Hf  Hf2  1  0.00000000  0.00000000  0.00000000  1
  Hf  Hf3  1  0.50000000  0.50000000  0.50000000  1
  Hf  Hf4  1  0.00003705  0.50148104  0.25111521  1
  Hf  Hf5  1  0.99996295  0.49851896  0.74888479  1
  Hf  Hf6  1  0.49851896  0.99996295  0.74888479  1
  Hf  Hf7  1  0.50148104  0.00003705  0.25111521  1
  Hf  Hf8  1  0.31001603  0.31001603  0.19095964  1
  Hf  Hf9  1  0.68998397  0.68998397  0.80904036  1
  Hf  Hf10  1  0.17549695  0.17549695  0.67544217  1
  Hf  Hf11  1  0.82450305  0.82450305  0.32455783  1
  Zr  Zr0  1  0.69620445  0.30379555  0.00000000  1
  Zr  Zr1  1  0.30379555  0.69620445  1.00000000  1
  Pt  Pt0  1  0.85132295  0.14197696  0.20917610  1
  Pt  Pt1  1  0.14867705  0.85802304  0.79082390  1
  Pt  Pt2  1  0.65050288  0.35865040  0.70683741  1
  Pt  Pt3  1  0.64134960  0.34949712  0.29316259  1
  Pt  Pt4  1  0.34949712  0.64134960  0.29316259  1
  Pt  Pt5  1  0.35865040  0.65050288  0.70683741  1
  Pt  Pt6  1  0.85802304  0.14867705  0.79082390  1
  Pt  Pt7  1  0.14197696  0.85132295  0.20917610  1
  Pt  Pt8  1  0.93539661  0.64589899  0.99606087  1
  Pt  Pt9  1  0.06460339  0.35410101  0.00393913  1
  Pt  Pt10  1  0.56353719  0.85513027  0.49789461  1
  Pt  Pt11  1  0.14486973  0.43646281  0.50210539  1
  Pt  Pt12  1  0.43646281  0.14486973  0.50210539  1
  Pt  Pt13  1  0.85513027  0.56353719  0.49789461  1
  Pt  Pt14  1  0.35410101  0.06460339  0.00393913  1
  Pt  Pt15  1  0.64589899  0.93539661  0.99606087  1
  Pt  Pt16  1  0.10657871  0.10657871  0.39332696  1
  Pt  Pt17  1  0.89342129  0.89342129  0.60667304  1
  Au  Au0  1  0.39111536  0.39111536  0.88887369  1
  Au  Au1  1  0.60888464  0.60888464  0.11112631  1
loop_
_geom_bond_atom_site_label_1
_geom_bond_atom_site_label_2
_geom_bond_distance
_geom_bond_site_symmetry_2
Hf0 Pt0 2.857558 1_555
Hf0 Pt6 2.857558 1_555
Hf0 Pt11 2.864436 1_655
Hf0 Pt10 2.864436 1_545
Hf0 Pt16 2.883783 1_655
Hf0 Pt17 2.883784 1_545
Hf0 Pt2 2.925461 1_555
Hf0 Pt3 2.925461 1_555
Hf0 Pt12 2.947823 1_555
Hf0 Pt13 2.947824 1_555
Hf1 Pt1 2.857558 1_555
Hf1 Pt7 2.857558 1_555
Hf1 Pt13 2.864436 1_455
Hf1 Pt12 2.864436 1_565
Hf1 Pt17 2.883783 1_455
Hf1 Pt16 2.883784 1_565
Hf1 Pt4 2.925461 1_555
Hf1 Pt5 2.925461 1_555
Hf1 Pt10 2.947823 1_555
Hf1 Pt11 2.947824 1_555
Hf2 Pt0 2.768780 1_455
Hf2 Pt1 2.768780 1_544
Hf2 Pt7 2.768780 1_545
Hf2 Pt6 2.768780 1_454
Hf2 Pt14 2.769930 1_555
Hf2 Pt15 2.769930 1_444
Hf2 Pt9 2.769930 1_555
Hf2 Pt8 2.769930 1_444
Hf3 Pt5 2.757912 1_555
Hf3 Pt3 2.757912 1_555
Hf3 Pt2 2.757912 1_555
Hf3 Pt4 2.757912 1_555
Hf3 Pt13 2.779145 1_555
Hf3 Pt11 2.779145 1_555
Hf3 Pt10 2.779145 1_555
Hf3 Pt12 2.779145 1_555
Hf4 Pt4 2.759259 1_555
Hf4 Pt13 2.762475 1_455
Hf4 Pt7 2.765873 1_555
Hf4 Pt9 2.779781 1_555
Hf4 Pt11 2.802456 1_555
Hf4 Pt8 2.835648 1_454
Hf4 Pt3 2.840887 1_455
Hf4 Pt0 2.841247 1_455
Hf5 Pt2 2.759259 1_555
Hf5 Pt11 2.762475 1_655
Hf5 Pt6 2.765873 1_555
Hf5 Pt8 2.779781 1_555
Hf5 Pt13 2.802456 1_555
Hf5 Pt9 2.835648 1_656
Hf5 Pt5 2.840887 1_655
Hf5 Pt1 2.841247 1_655
Hf6 Pt5 2.759259 1_555
Hf6 Pt12 2.762475 1_565
Hf6 Pt1 2.765873 1_555
Hf6 Pt15 2.779781 1_555
Hf6 Pt10 2.802456 1_555
Hf6 Pt14 2.835648 1_566
Hf6 Pt2 2.840888 1_565
Hf6 Pt6 2.841247 1_565
Hf7 Pt3 2.759259 1_555
Hf7 Pt10 2.762475 1_545
Hf7 Pt0 2.765873 1_555
Hf7 Pt14 2.779781 1_555
Hf7 Pt12 2.802456 1_555
Hf7 Pt15 2.835648 1_544
Hf7 Pt4 2.840888 1_545
Hf7 Pt7 2.841247 1_545
Hf8 Pt16 2.768245 1_555
Hf8 Pt9 2.785199 1_555
Hf8 Pt14 2.785199 1_555
Hf8 Pt3 2.793769 1_555
Hf8 Pt4 2.793770 1_555
Hf9 Pt17 2.768245 1_555
Hf9 Pt8 2.785199 1_555
Hf9 Pt15 2.785199 1_555
Hf9 Pt5 2.793769 1_555
Hf9 Pt2 2.793770 1_555
Hf10 Pt6 2.760560 1_455
Hf10 Pt1 2.760560 1_545
Hf10 Pt12 2.768918 1_555
Hf10 Pt11 2.768918 1_555
Hf10 Pt16 2.791045 1_555
Hf10 Pt17 2.799125 1_445
Hf11 Pt7 2.760560 1_655
Hf11 Pt0 2.760560 1_565
Hf11 Pt10 2.768918 1_555
Hf11 Pt13 2.768918 1_555
Hf11 Pt17 2.791045 1_555
Hf11 Pt16 2.799125 1_665
Pt0 Pt16 2.805081 1_655
Pt0 Pt3 2.849513 1_555
Pt0 Pt15 2.850629 1_544
Pt0 Pt9 2.851627 1_655
Pt0 Zr0 2.889688 1_555
Pt1 Pt17 2.805081 1_455
Pt1 Pt5 2.849513 1_555
Pt1 Pt14 2.850629 1_566
Pt1 Pt8 2.851627 1_455
Pt1 Zr1 2.889688 1_555
Pt2 Pt6 2.849513 1_555
Pt2 Zr0 2.895185 1_556
Pt3 Zr0 2.895185 1_555
Pt4 Pt7 2.849513 1_555
Pt4 Zr1 2.895185 1_554
Pt5 Zr1 2.895185 1_555
Pt6 Pt9 2.850629 1_656
Pt6 Zr0 2.889688 1_556
Pt7 Pt8 2.850629 1_454
Pt7 Zr1 2.889688 1_554
Pt8 Pt9 2.866178 1_656
Pt8 Zr0 2.884735 1_556
Pt8 Zr1 2.901184 1_655
Pt9 Zr1 2.884735 1_554
Pt9 Zr0 2.901184 1_455
Pt10 Pt17 2.807297 1_555
Pt10 Pt5 2.822110 1_555
Pt10 Pt12 2.839094 1_565
Pt10 Pt4 2.848058 1_555
Pt11 Pt16 2.807298 1_555
Pt11 Pt4 2.822110 1_555
Pt11 Pt13 2.839094 1_455
Pt11 Pt5 2.848058 1_555
Pt12 Pt16 2.807297 1_555
Pt12 Pt3 2.822110 1_555
Pt12 Pt2 2.848058 1_555
Pt13 Pt17 2.807298 1_555
Pt13 Pt2 2.822110 1_555
Pt13 Pt3 2.848058 1_555
Pt14 Pt7 2.851627 1_545
Pt14 Pt15 2.866177 1_544
Pt14 Zr0 2.884735 1_555
Pt14 Zr1 2.901185 1_544
Pt15 Pt6 2.851627 1_565
Pt15 Zr1 2.884735 1_555
Pt15 Zr0 2.901185 1_566
Pt16 Pt7 2.805081 1_545
Pt16 Pt17 2.909403 1_445
Pt17 Pt6 2.805081 1_565
Au0 Pt9 2.811173 1_556
Au0 Pt14 2.811173 1_556
Au0 Pt2 2.814828 1_555
Au0 Pt5 2.814828 1_555
Au0 Hf10 2.918019 1_555
Au0 Zr0 2.972521 1_556
Au0 Zr1 2.972522 1_555
Au0 Hf9 2.986607 1_555
Au0 Au1 2.992595 1_556
Au0 Hf8 3.010561 1_556
Au1 Pt8 2.811173 1_554
Au1 Pt15 2.811173 1_554
Au1 Pt4 2.814828 1_555
Au1 Pt3 2.814828 1_555
Au1 Hf11 2.918019 1_555
Au1 Zr1 2.972521 1_554
Au1 Zr0 2.972522 1_555
Au1 Hf8 2.986607 1_555
Au1 Hf9 3.010561 1_554
