# generated using pymatgen
data_ReI3Br8
_symmetry_space_group_name_H-M   'P 1'
_cell_length_a   7.22611001
_cell_length_b   7.75355915
_cell_length_c   8.26512218
_cell_angle_alpha   93.72065811
_cell_angle_beta   94.24194828
_cell_angle_gamma   99.99672344
_symmetry_Int_Tables_number   1
_chemical_formula_structural   ReI3Br8
_chemical_formula_sum   'Re1 I3 Br8'
_cell_volume   453.37219592
_cell_formula_units_Z   1
loop_
 _symmetry_equiv_pos_site_id
 _symmetry_equiv_pos_as_xyz
  1  'x, y, z'
loop_
 _atom_site_type_symbol
 _atom_site_label
 _atom_site_symmetry_multiplicity
 _atom_site_fract_x
 _atom_site_fract_y
 _atom_site_fract_z
 _atom_site_occupancy
  Re  Re0  1  0.00000000  0.50000000  0.50000000  1
  I  I0  1  0.33256177  0.23956162  0.15620280  1
  I  I1  1  0.00000000  0.00000000  0.00000000  1
  I  I2  1  0.66743823  0.76043838  0.84379720  1
  Br  Br0  1  0.50302934  0.25067604  0.89464889  1
  Br  Br1  1  0.49697066  0.74932396  0.10535111  1
  Br  Br2  1  0.85394435  0.77390539  0.53988887  1
  Br  Br3  1  0.90486816  0.48620882  0.20895171  1
  Br  Br4  1  0.14605565  0.22609461  0.46011113  1
  Br  Br5  1  0.30274364  0.68752159  0.45794927  1
  Br  Br6  1  0.69725636  0.31247841  0.54205073  1
  Br  Br7  1  0.09513184  0.51379118  0.79104829  1
loop_
_geom_bond_atom_site_label_1
_geom_bond_atom_site_label_2
_geom_bond_distance
_geom_bond_site_symmetry_2
I0 I1 2.927799 1_555
I1 I2 2.927799 1_444
Br0 I0 2.565022 1_556
Br1 I2 2.565022 1_554
Br2 Re0 2.543946 1_655
Br2 I2 2.936419 1_555
Br3 Re0 2.442770 1_655
Br4 Re0 2.543946 1_555
Br4 I0 2.936419 1_555
Br5 Re0 2.468683 1_555
Br6 Re0 2.468683 1_655
Br7 Re0 2.442770 1_555
