# generated using pymatgen
data_Cs5Ag(GeO3)3
_symmetry_space_group_name_H-M   'P 1'
_cell_length_a   6.62724077
_cell_length_b   9.75521407
_cell_length_c   12.17946809
_cell_angle_alpha   87.82988692
_cell_angle_beta   90.00000000
_cell_angle_gamma   90.00000000
_symmetry_Int_Tables_number   1
_chemical_formula_structural   Cs5Ag(GeO3)3
_chemical_formula_sum   'Cs10 Ag2 Ge6 O18'
_cell_volume   786.83974512
_cell_formula_units_Z   2
loop_
 _symmetry_equiv_pos_site_id
 _symmetry_equiv_pos_as_xyz
  1  'x, y, z'
loop_
 _atom_site_type_symbol
 _atom_site_label
 _atom_site_symmetry_multiplicity
 _atom_site_fract_x
 _atom_site_fract_y
 _atom_site_fract_z
 _atom_site_occupancy
  Cs  Cs0  1  0.25000000  0.33736066  0.05365709  1
  Cs  Cs1  1  0.75000000  0.95692427  0.61614890  1
  Cs  Cs2  1  0.25000000  0.23698922  0.68262605  1
  Cs  Cs3  1  0.25000000  0.04307573  0.38385110  1
  Cs  Cs4  1  0.25000000  0.73994176  0.14356355  1
  Cs  Cs5  1  0.25000000  0.46370027  0.39109614  1
  Cs  Cs6  1  0.75000000  0.66263934  0.94634291  1
  Cs  Cs7  1  0.75000000  0.53629973  0.60890386  1
  Cs  Cs8  1  0.75000000  0.26005824  0.85643645  1
  Cs  Cs9  1  0.75000000  0.76301078  0.31737395  1
  Ag  Ag0  1  0.00000000  0.00000000  0.00000000  1
  Ag  Ag1  1  0.50000000  0.00000000  0.00000000  1
  Ge  Ge0  1  0.25000000  0.89525371  0.80027094  1
  Ge  Ge1  1  0.75000000  0.10474629  0.19972906  1
  Ge  Ge2  1  0.25000000  0.56071933  0.79961551  1
  Ge  Ge3  1  0.75000000  0.25344246  0.43516922  1
  Ge  Ge4  1  0.25000000  0.74655754  0.56483078  1
  Ge  Ge5  1  0.75000000  0.43928067  0.20038449  1
  O  O0  1  0.47138349  0.75301021  0.49114684  1
  O  O1  1  0.97137353  0.01693291  0.16613503  1
  O  O2  1  0.47137353  0.98306709  0.83386497  1
  O  O3  1  0.47021083  0.47575813  0.83475333  1
  O  O4  1  0.97138349  0.24698979  0.50885316  1
  O  O5  1  0.02978917  0.47575813  0.83475333  1
  O  O6  1  0.25000000  0.72773801  0.86398517  1
  O  O7  1  0.75000000  0.10829025  0.34494049  1
  O  O8  1  0.75000000  0.40646707  0.34703479  1
  O  O9  1  0.02862647  0.98306709  0.83386497  1
  O  O10  1  0.25000000  0.59353293  0.65296521  1
  O  O11  1  0.52862647  0.01693291  0.16613503  1
  O  O12  1  0.75000000  0.27226199  0.13601483  1
  O  O13  1  0.52861651  0.24698979  0.50885316  1
  O  O14  1  0.52978917  0.52424187  0.16524667  1
  O  O15  1  0.02861651  0.75301021  0.49114684  1
  O  O16  1  0.97021083  0.52424187  0.16524667  1
  O  O17  1  0.25000000  0.89170975  0.65505951  1
loop_
_geom_bond_atom_site_label_1
_geom_bond_atom_site_label_2
_geom_bond_distance
_geom_bond_site_symmetry_2
Cs0 O14 2.965897 1_555
Cs0 O16 2.965897 1_455
Cs0 O3 3.284545 1_554
Cs0 O5 3.284545 1_554
Cs1 O15 3.148597 1_655
Cs1 O0 3.148597 1_555
Cs1 O9 3.249191 1_655
Cs1 O2 3.249191 1_555
Cs1 O17 3.403904 1_555
Cs1 O17 3.403904 1_655
Cs1 O4 3.403995 1_565
Cs1 O13 3.403995 1_565
Cs1 O7 3.566783 1_565
Cs2 O13 2.807614 1_555
Cs2 O4 2.807614 1_455
Cs3 O13 3.148597 1_555
Cs3 O4 3.148597 1_455
Cs3 O11 3.249191 1_555
Cs3 O1 3.249191 1_455
Cs3 O7 3.403904 1_555
Cs3 O7 3.403904 1_455
Cs3 O0 3.403995 1_545
Cs3 O15 3.403995 1_545
Cs3 O17 3.566783 1_545
Cs4 O14 2.809534 1_555
Cs4 O16 2.809534 1_455
Cs5 O13 3.115446 1_555
Cs5 O4 3.115446 1_455
Cs5 O14 3.351184 1_555
Cs5 O16 3.351184 1_455
Cs5 O8 3.406242 1_455
Cs5 O8 3.406242 1_555
Cs5 O0 3.444297 1_555
Cs5 O15 3.444297 1_555
Cs5 O10 3.475990 1_555
Cs6 O5 2.965897 1_655
Cs6 O3 2.965897 1_555
Cs6 O16 3.284545 1_556
Cs6 O14 3.284545 1_556
Cs7 O15 3.115446 1_655
Cs7 O0 3.115446 1_555
Cs7 O5 3.351184 1_655
Cs7 O3 3.351184 1_555
Cs7 O10 3.406242 1_655
Cs7 O10 3.406242 1_555
Cs7 O4 3.444297 1_555
Cs7 O13 3.444297 1_555
Cs7 O8 3.475990 1_555
Cs8 O5 2.809534 1_655
Cs8 O3 2.809534 1_555
Cs9 O15 2.807614 1_655
Cs9 O0 2.807614 1_555
Ag0 O1 2.045210 1_455
Ag0 O9 2.045210 1_544
Ag1 O11 2.045210 1_555
Ag1 O2 2.045210 1_544
Ge0 O2 1.755037 1_555
Ge0 O9 1.755037 1_555
Ge0 O17 1.770244 1_555
Ge0 O6 1.782301 1_555
Ge1 O1 1.755037 1_555
Ge1 O11 1.755037 1_555
Ge1 O7 1.770244 1_555
Ge1 O12 1.782301 1_555
Ge2 O3 1.724251 1_555
Ge2 O5 1.724251 1_555
Ge2 O10 1.802609 1_555
Ge2 O6 1.834667 1_555
Ge3 O4 1.719776 1_555
Ge3 O13 1.719776 1_555
Ge3 O8 1.805357 1_555
Ge3 O7 1.824977 1_555
Ge4 O0 1.719776 1_555
Ge4 O15 1.719776 1_555
Ge4 O10 1.805357 1_555
Ge4 O17 1.824977 1_555
Ge5 O16 1.724251 1_555
Ge5 O14 1.724251 1_555
Ge5 O8 1.802609 1_555
Ge5 O12 1.834667 1_555
