# generated using pymatgen
data_Na2Al2SiSe6
_symmetry_space_group_name_H-M   'P 1'
_cell_length_a   7.28252239
_cell_length_b   7.28252255
_cell_length_c   12.28913284
_cell_angle_alpha   76.46918175
_cell_angle_beta   76.46918364
_cell_angle_gamma   69.81108084
_symmetry_Int_Tables_number   1
_chemical_formula_structural   Na2Al2SiSe6
_chemical_formula_sum   'Na4 Al4 Si2 Se12'
_cell_volume   586.28913904
_cell_formula_units_Z   2
loop_
 _symmetry_equiv_pos_site_id
 _symmetry_equiv_pos_as_xyz
  1  'x, y, z'
loop_
 _atom_site_type_symbol
 _atom_site_label
 _atom_site_symmetry_multiplicity
 _atom_site_fract_x
 _atom_site_fract_y
 _atom_site_fract_z
 _atom_site_occupancy
  Na  Na0  1  0.21415694  0.33227569  0.00105221  1
  Na  Na1  1  0.33227569  0.21415694  0.50105221  1
  Na  Na2  1  0.33019842  0.77830871  0.18037839  1
  Na  Na3  1  0.77830871  0.33019842  0.68037839  1
  Al  Al0  1  0.85456173  0.95450145  0.01395468  1
  Al  Al1  1  0.95450145  0.85456173  0.51395468  1
  Al  Al2  1  0.65566877  0.79800268  0.81299856  1
  Al  Al3  1  0.79800268  0.65566877  0.31299856  1
  Si  Si0  1  0.18525152  0.75154496  0.76098447  1
  Si  Si1  1  0.75154496  0.18525152  0.26098447  1
  Se  Se0  1  0.06157903  0.03486367  0.83512178  1
  Se  Se1  1  0.03486367  0.06157903  0.33512178  1
  Se  Se2  1  0.81678156  0.26262898  0.07054288  1
  Se  Se3  1  0.26262898  0.81678156  0.57054288  1
  Se  Se4  1  0.01879707  0.66156642  0.13458628  1
  Se  Se5  1  0.66156642  0.01879707  0.63458628  1
  Se  Se6  1  0.54641884  0.95794900  0.97541004  1
  Se  Se7  1  0.95794900  0.54641884  0.47541004  1
  Se  Se8  1  0.46904757  0.56640558  0.83427432  1
  Se  Se9  1  0.56640558  0.46904757  0.33427432  1
  Se  Se10  1  0.98242852  0.55692090  0.81246542  1
  Se  Se11  1  0.55692090  0.98242852  0.31246542  1
loop_
_geom_bond_atom_site_label_1
_geom_bond_atom_site_label_2
_geom_bond_distance
_geom_bond_site_symmetry_2
Na0 Se4 2.976883 1_555
Na0 Se6 2.979567 1_544
Na0 Se2 3.002529 1_455
Na0 Se10 3.007619 1_454
Na0 Se8 3.053298 1_554
Na1 Se5 2.976883 1_555
Na1 Se7 2.979567 1_455
Na1 Se3 3.002529 1_545
Na1 Se11 3.007619 1_545
Na1 Se9 3.053298 1_555
Na2 Se4 2.886898 1_555
Na2 Se9 2.909180 1_555
Na2 Se6 2.925681 1_554
Na2 Se1 3.058947 1_565
Na2 Se11 3.412933 1_555
Na3 Se5 2.886898 1_555
Na3 Se8 2.909181 1_555
Na3 Se7 2.925681 1_555
Na3 Se0 3.058947 1_655
Na3 Se10 3.412933 1_555
Al0 Se6 2.390344 1_554
Al0 Se4 2.401641 1_655
Al0 Se2 2.410215 1_565
Al0 Se0 2.429409 1_664
Al1 Se7 2.390344 1_555
Al1 Se5 2.401641 1_565
Al1 Se3 2.410215 1_655
Al1 Se1 2.429409 1_665
Al2 Se6 2.382968 1_555
Al2 Se5 2.397587 1_565
Al2 Se10 2.420641 1_555
Al2 Se8 2.443285 1_555
Al3 Se7 2.382968 1_555
Al3 Se4 2.397587 1_655
Al3 Se11 2.420641 1_555
Al3 Se9 2.443285 1_555
Se0 Si0 2.260831 1_545
Se1 Si1 2.260831 1_455
Se2 Si1 2.251204 1_555
Se3 Si0 2.251204 1_555
Se8 Si0 2.297815 1_555
Se9 Si1 2.297815 1_555
Se10 Si0 2.275743 1_655
Se11 Si1 2.275743 1_565
