# generated using pymatgen
data_Cs2Cu(SO4)2
_symmetry_space_group_name_H-M   'P 1'
_cell_length_a   7.51284996
_cell_length_b   7.51285014
_cell_length_c   7.48130726
_cell_angle_alpha   74.58748137
_cell_angle_beta   74.58748187
_cell_angle_gamma   39.33336501
_symmetry_Int_Tables_number   1
_chemical_formula_structural   Cs2Cu(SO4)2
_chemical_formula_sum   'Cs2 Cu1 S2 O8'
_cell_volume   256.76526007
_cell_formula_units_Z   1
loop_
 _symmetry_equiv_pos_site_id
 _symmetry_equiv_pos_as_xyz
  1  'x, y, z'
loop_
 _atom_site_type_symbol
 _atom_site_label
 _atom_site_symmetry_multiplicity
 _atom_site_fract_x
 _atom_site_fract_y
 _atom_site_fract_z
 _atom_site_occupancy
  Cs  Cs0  1  0.17192871  0.17192871  0.78485728  1
  Cs  Cs1  1  0.82807129  0.82807129  0.21514272  1
  Cu  Cu0  1  0.50000000  0.50000000  0.50000000  1
  S  S0  1  0.11560823  0.11560823  0.30892849  1
  S  S1  1  0.88439177  0.88439177  0.69107151  1
  O  O0  1  0.13468395  0.65631937  0.56647539  1
  O  O1  1  0.34368063  0.86531605  0.43352461  1
  O  O2  1  0.86531605  0.34368063  0.43352461  1
  O  O3  1  0.65631937  0.13468395  0.56647539  1
  O  O4  1  0.21655705  0.21655705  0.18811756  1
  O  O5  1  0.95720795  0.95720795  0.79390314  1
  O  O6  1  0.04279205  0.04279205  0.20609686  1
  O  O7  1  0.78344295  0.78344295  0.81188244  1
loop_
_geom_bond_atom_site_label_1
_geom_bond_atom_site_label_2
_geom_bond_distance
_geom_bond_site_symmetry_2
Cs0 O7 3.017199 1_545
Cs0 O7 3.017199 1_455
Cs0 O5 3.019724 1_445
Cs0 O6 3.165401 1_556
Cs0 O4 3.252050 1_556
Cs0 O2 3.270681 1_455
Cs0 O1 3.270681 1_545
Cs0 O3 3.390939 1_555
Cs0 O0 3.390939 1_555
Cs1 O4 3.017199 1_565
Cs1 O4 3.017199 1_655
Cs1 O6 3.019724 1_665
Cs1 O5 3.165401 1_554
Cs1 O7 3.252050 1_554
Cs1 O0 3.270681 1_655
Cs1 O3 3.270681 1_565
Cs1 O1 3.390939 1_555
Cs1 O2 3.390939 1_555
Cu0 O2 1.938551 1_555
Cu0 O0 1.938551 1_555
Cu0 O3 1.938551 1_555
Cu0 O1 1.938551 1_555
O0 S1 1.507916 1_455
O1 S0 1.507916 1_565
O2 S0 1.507916 1_655
O3 S1 1.507916 1_545
O4 S0 1.458891 1_555
O5 S1 1.449395 1_555
O6 S0 1.449395 1_555
O7 S1 1.458891 1_555
