# generated using pymatgen
data_Sc22IrOs2Rh5
_symmetry_space_group_name_H-M   'P 1'
_cell_length_a   9.48008428
_cell_length_b   9.44581033
_cell_length_c   9.48008378
_cell_angle_alpha   60.11952781
_cell_angle_beta   59.86814473
_cell_angle_gamma   60.11952722
_symmetry_Int_Tables_number   1
_chemical_formula_structural   Sc22IrOs2Rh5
_chemical_formula_sum   'Sc22 Ir1 Os2 Rh5'
_cell_volume   600.75122614
_cell_formula_units_Z   1
loop_
 _symmetry_equiv_pos_site_id
 _symmetry_equiv_pos_as_xyz
  1  'x, y, z'
loop_
 _atom_site_type_symbol
 _atom_site_label
 _atom_site_symmetry_multiplicity
 _atom_site_fract_x
 _atom_site_fract_y
 _atom_site_fract_z
 _atom_site_occupancy
  Sc  Sc0  1  0.80194534  0.80334491  0.19805466  1
  Sc  Sc1  1  0.19726842  0.80273158  0.19726842  1
  Sc  Sc2  1  0.80194534  0.19665509  0.19805466  1
  Sc  Sc3  1  0.19805466  0.19665509  0.80194534  1
  Sc  Sc4  1  0.80273158  0.19726842  0.80273158  1
  Sc  Sc5  1  0.19805466  0.80334491  0.80194534  1
  Sc  Sc6  1  0.61742659  0.61528684  0.15199673  1
  Sc  Sc7  1  0.61396247  0.15097593  0.61396247  1
  Sc  Sc8  1  0.15199673  0.61528684  0.61742659  1
  Sc  Sc9  1  0.61396247  0.62109914  0.61396247  1
  Sc  Sc10  1  0.38257341  0.38471316  0.84800327  1
  Sc  Sc11  1  0.38603753  0.84902407  0.38603753  1
  Sc  Sc12  1  0.84800327  0.38471316  0.38257341  1
  Sc  Sc13  1  0.38603753  0.37890086  0.38603753  1
  Sc  Sc14  1  0.84267484  0.84317207  0.47098002  1
  Sc  Sc15  1  0.84308033  0.47155473  0.84308033  1
  Sc  Sc16  1  0.47098002  0.84317207  0.84267484  1
  Sc  Sc17  1  0.84308033  0.84228361  0.84308033  1
  Sc  Sc18  1  0.15732516  0.15682793  0.52901998  1
  Sc  Sc19  1  0.15691967  0.52844527  0.15691967  1
  Sc  Sc20  1  0.52901998  0.15682793  0.15732516  1
  Sc  Sc21  1  0.15691967  0.15771639  0.15691967  1
  Ir  Ir0  1  0.00000000  0.50000000  0.00000000  1
  Os  Os0  1  0.50000000  0.50000000  0.50000000  1
  Os  Os1  1  0.50000000  0.00000000  0.50000000  1
  Rh  Rh0  1  0.00000000  0.00000000  0.00000000  1
  Rh  Rh1  1  0.00000000  0.00000000  0.50000000  1
  Rh  Rh2  1  0.00000000  0.50000000  0.50000000  1
  Rh  Rh3  1  0.50000000  0.50000000  0.00000000  1
  Rh  Rh4  1  0.50000000  0.00000000  0.00000000  1
loop_
_geom_bond_atom_site_label_1
_geom_bond_atom_site_label_2
_geom_bond_distance
_geom_bond_site_symmetry_2
Ir0 Sc17 2.741616 1_454
Ir0 Sc21 2.741616 1_555
Ir0 Sc19 2.741622 1_555
Ir0 Sc15 2.741622 1_454
Ir0 Sc12 2.966046 1_455
Ir0 Sc8 2.966046 1_554
Ir0 Sc10 2.966046 1_554
Ir0 Sc6 2.966046 1_455
Os0 Sc10 2.692614 1_555
Os0 Sc6 2.692614 1_555
Os0 Sc12 2.692614 1_555
Os0 Sc8 2.692614 1_555
Os0 Sc9 2.697671 1_555
Os0 Sc13 2.697671 1_555
Os0 Sc11 2.697672 1_555
Os0 Sc7 2.697672 1_555
Os1 Sc16 2.745411 1_545
Os1 Sc20 2.745411 1_555
Os1 Sc14 2.745411 1_545
Os1 Sc18 2.745411 1_555
Os1 Sc7 2.934329 1_555
Os1 Sc11 2.934329 1_545
Os1 Sc13 2.934329 1_555
Os1 Sc9 2.934329 1_545
Rh0 Sc2 2.638522 1_455
Rh0 Sc5 2.638522 1_544
Rh0 Sc3 2.638522 1_554
Rh0 Sc0 2.638522 1_445
Rh0 Sc1 2.652147 1_545
Rh0 Sc4 2.652147 1_454
Rh1 Sc18 2.741168 1_555
Rh1 Sc14 2.741168 1_445
Rh1 Sc17 2.744704 1_445
Rh1 Sc21 2.744704 1_555
Rh1 Sc12 2.980502 1_455
Rh1 Sc8 2.980502 1_545
Rh1 Sc11 2.993250 1_545
Rh1 Sc7 2.993250 1_455
Rh2 Sc14 2.741160 1_455
Rh2 Sc18 2.741160 1_555
Rh2 Sc15 2.744702 1_455
Rh2 Sc19 2.744702 1_555
Rh2 Sc8 2.980480 1_555
Rh2 Sc12 2.980480 1_455
Rh2 Sc13 2.993250 1_555
Rh2 Sc9 2.993250 1_455
Rh3 Sc16 2.741160 1_554
Rh3 Sc20 2.741160 1_555
Rh3 Sc15 2.744702 1_554
Rh3 Sc19 2.744702 1_555
Rh3 Sc6 2.980480 1_555
Rh3 Sc10 2.980480 1_554
Rh3 Sc13 2.993250 1_555
Rh3 Sc9 2.993250 1_554
Rh4 Sc20 2.741168 1_555
Rh4 Sc16 2.741168 1_544
Rh4 Sc17 2.744704 1_544
Rh4 Sc21 2.744704 1_555
Rh4 Sc10 2.980502 1_554
Rh4 Sc6 2.980502 1_545
Rh4 Sc11 2.993250 1_545
Rh4 Sc7 2.993250 1_554
