# generated using pymatgen
data_Ca(ZrSe2)3
_symmetry_space_group_name_H-M   'P 1'
_cell_length_a   6.56430348
_cell_length_b   6.56432195
_cell_length_c   7.32394447
_cell_angle_alpha   98.61141201
_cell_angle_beta   98.61164134
_cell_angle_gamma   120.05193663
_symmetry_Int_Tables_number   1
_chemical_formula_structural   Ca(ZrSe2)3
_chemical_formula_sum   'Ca1 Zr3 Se6'
_cell_volume   260.60920431
_cell_formula_units_Z   1
loop_
 _symmetry_equiv_pos_site_id
 _symmetry_equiv_pos_as_xyz
  1  'x, y, z'
loop_
 _atom_site_type_symbol
 _atom_site_label
 _atom_site_symmetry_multiplicity
 _atom_site_fract_x
 _atom_site_fract_y
 _atom_site_fract_z
 _atom_site_occupancy
  Ca  Ca0  1  0.00000000  0.00000000  0.50000100  1
  Zr  Zr0  1  0.83379321  0.16620679  1.00000000  1
  Zr  Zr1  1  0.50000000  0.50000000  0.00000000  1
  Zr  Zr2  1  0.16620679  0.83379321  0.00000000  1
  Se  Se0  1  0.24799796  0.24799796  0.23135027  1
  Se  Se1  1  0.91033891  0.57285603  0.23103641  1
  Se  Se2  1  0.57285503  0.91033791  0.23103641  1
  Se  Se3  1  0.42714497  0.08966109  0.76896459  1
  Se  Se4  1  0.08966109  0.42714497  0.76896459  1
  Se  Se5  1  0.75200304  0.75200304  0.76864973  1
loop_
_geom_bond_atom_site_label_1
_geom_bond_atom_site_label_2
_geom_bond_distance
_geom_bond_site_symmetry_2
Ca0 Se3 2.904231 1_555
Ca0 Se2 2.904232 1_445
Ca0 Se1 2.904243 1_445
Ca0 Se4 2.904244 1_555
Ca0 Se5 2.904437 1_445
Ca0 Se0 2.904454 1_555
Se0 Zr1 2.698498 1_555
Se0 Zr0 2.727234 1_454
Se0 Zr2 2.727246 1_545
Se1 Zr0 2.700111 1_554
Se1 Zr1 2.729437 1_555
Se1 Zr2 2.730529 1_655
Se2 Zr2 2.700097 1_555
Se2 Zr1 2.729447 1_555
Se2 Zr0 2.730534 1_564
Se3 Zr0 2.700091 1_555
Se3 Zr1 2.729449 1_556
Se3 Zr2 2.730526 1_546
Se4 Zr2 2.700103 1_556
Se4 Zr1 2.729437 1_556
Se4 Zr0 2.730526 1_455
Se5 Zr1 2.698503 1_556
Se5 Zr2 2.727231 1_656
Se5 Zr0 2.727243 1_565
