# generated using pymatgen
data_Lu4OsBr4
_symmetry_space_group_name_H-M   'P 1'
_cell_length_a   8.66988916
_cell_length_b   8.66988884
_cell_length_c   6.44164202
_cell_angle_alpha   89.32524811
_cell_angle_beta   89.32525079
_cell_angle_gamma   89.19239150
_symmetry_Int_Tables_number   1
_chemical_formula_structural   Lu4OsBr4
_chemical_formula_sum   'Lu8 Os2 Br8'
_cell_volume   484.08443239
_cell_formula_units_Z   2
loop_
 _symmetry_equiv_pos_site_id
 _symmetry_equiv_pos_as_xyz
  1  'x, y, z'
loop_
 _atom_site_type_symbol
 _atom_site_label
 _atom_site_symmetry_multiplicity
 _atom_site_fract_x
 _atom_site_fract_y
 _atom_site_fract_z
 _atom_site_occupancy
  Lu  Lu0  1  0.75139449  0.09942743  0.98909106  1
  Lu  Lu1  1  0.09942743  0.75139449  0.48909106  1
  Lu  Lu2  1  0.09725281  0.24727787  0.98866853  1
  Lu  Lu3  1  0.24727787  0.09725281  0.48866853  1
  Lu  Lu4  1  0.90274719  0.75272213  0.01133147  1
  Lu  Lu5  1  0.90057257  0.24860551  0.51090894  1
  Lu  Lu6  1  0.24860551  0.90057257  0.01090894  1
  Lu  Lu7  1  0.75272213  0.90274719  0.51133147  1
  Os  Os0  1  0.99364398  0.00635602  0.25000000  1
  Os  Os1  1  0.00635602  0.99364398  0.75000000  1
  Br  Br0  1  0.57629434  0.18480468  0.59568984  1
  Br  Br1  1  0.80656669  0.58168761  0.40261971  1
  Br  Br2  1  0.41831239  0.19343331  0.09738029  1
  Br  Br3  1  0.19343331  0.41831239  0.59738029  1
  Br  Br4  1  0.58168761  0.80656669  0.90261971  1
  Br  Br5  1  0.42370566  0.81519532  0.40431016  1
  Br  Br6  1  0.18480468  0.57629434  0.09568984  1
  Br  Br7  1  0.81519532  0.42370566  0.90431016  1
loop_
_geom_bond_atom_site_label_1
_geom_bond_atom_site_label_2
_geom_bond_distance
_geom_bond_site_symmetry_2
Lu0 Os0 2.808984 1_556
Lu0 Os1 2.827605 1_645
Lu1 Os1 2.808984 1_555
Lu1 Os0 2.827605 1_465
Lu2 Os0 2.817473 1_456
Lu2 Os1 2.824396 1_545
Lu3 Os1 2.817473 1_545
Lu3 Os0 2.824396 1_455
Lu4 Os1 2.817473 1_654
Lu4 Os0 2.824396 1_565
Lu5 Os0 2.808984 1_555
Lu5 Os1 2.827605 1_645
Lu6 Os1 2.808984 1_554
Lu6 Os0 2.827605 1_465
Lu7 Os0 2.817473 1_565
Lu7 Os1 2.824396 1_655
Br0 Lu5 2.917032 1_555
Br0 Lu7 2.919124 1_545
Br0 Lu0 3.047819 1_555
Br0 Lu3 3.050916 1_555
Br1 Lu7 2.908274 1_555
Br1 Lu1 3.013289 1_655
Br1 Lu4 3.024009 1_555
Br1 Lu5 3.064270 1_555
Br2 Lu2 2.908274 1_554
Br2 Lu6 3.013289 1_545
Br2 Lu3 3.024009 1_555
Br2 Lu0 3.064270 1_554
Br3 Lu3 2.908274 1_555
Br3 Lu5 3.013289 1_455
Br3 Lu2 3.024009 1_555
Br3 Lu1 3.064270 1_555
Br4 Lu4 2.908274 1_556
Br4 Lu0 3.013289 1_565
Br4 Lu7 3.024009 1_555
Br4 Lu6 3.064270 1_556
Br5 Lu1 2.917032 1_555
Br5 Lu3 2.919124 1_565
Br5 Lu6 3.047819 1_555
Br5 Lu7 3.050916 1_555
Br6 Lu6 2.917032 1_555
Br6 Lu4 2.919124 1_455
Br6 Lu1 3.047820 1_555
Br6 Lu2 3.050916 1_554
Br7 Lu0 2.917032 1_555
Br7 Lu2 2.919124 1_655
Br7 Lu5 3.047820 1_555
Br7 Lu4 3.050916 1_556
