# generated using pymatgen
data_Mg2ZnCu2Ir
_symmetry_space_group_name_H-M   'P 1'
_cell_length_a   5.19069116
_cell_length_b   4.87986854
_cell_length_c   5.19069128
_cell_angle_alpha   119.68774718
_cell_angle_beta   123.65753547
_cell_angle_gamma   88.79054818
_symmetry_Int_Tables_number   1
_chemical_formula_structural   Mg2ZnCu2Ir
_chemical_formula_sum   'Mg2 Zn1 Cu2 Ir1'
_cell_volume   89.04565843
_cell_formula_units_Z   1
loop_
 _symmetry_equiv_pos_site_id
 _symmetry_equiv_pos_as_xyz
  1  'x, y, z'
loop_
 _atom_site_type_symbol
 _atom_site_label
 _atom_site_symmetry_multiplicity
 _atom_site_fract_x
 _atom_site_fract_y
 _atom_site_fract_z
 _atom_site_occupancy
  Mg  Mg0  1  0.13178119  0.86778549  0.23600431  1
  Mg  Mg1  1  0.86821881  0.13221451  0.76399569  1
  Zn  Zn0  1  0.50000000  0.00000000  0.00000000  1
  Cu  Cu0  1  0.50000000  0.50000000  0.00000000  1
  Cu  Cu1  1  0.00000000  0.50000000  0.50000000  1
  Ir  Ir0  1  0.50000000  0.50000000  0.50000000  1
loop_
_geom_bond_atom_site_label_1
_geom_bond_atom_site_label_2
_geom_bond_distance
_geom_bond_site_symmetry_2
Mg0 Mg1 2.922234 1_454
Mg0 Mg1 2.980127 1_464
Mg0 Mg1 2.980128 1_565
Mg0 Zn0 2.985273 1_465
Mg0 Zn0 2.985273 1_566
Mg0 Zn0 3.000061 1_565
Mg0 Mg1 3.409734 1_465
Mg1 Zn0 2.985273 1_656
Mg1 Zn0 2.985273 1_555
Mg1 Zn0 3.000061 1_556
Cu0 Zn0 2.439934 1_565
Cu0 Zn0 2.439934 1_555
Cu0 Cu1 2.450568 1_554
Cu0 Cu1 2.450568 1_655
Cu0 Ir0 2.595346 1_554
Cu0 Ir0 2.595346 1_555
Cu0 Mg1 2.936998 1_565
Cu0 Mg0 2.936998 1_544
Cu0 Mg1 2.940682 1_554
Cu0 Mg0 2.940682 1_555
Cu0 Mg0 3.015584 1_655
Cu0 Mg1 3.015584 1_454
Cu1 Zn0 2.439935 1_455
Cu1 Zn0 2.439935 1_566
Cu1 Ir0 2.595346 1_555
Cu1 Ir0 2.595346 1_455
Cu1 Mg0 2.936997 1_545
Cu1 Mg1 2.936997 1_465
Cu1 Mg1 2.940683 1_454
Cu1 Mg0 2.940683 1_556
Cu1 Mg0 3.015584 1_555
Cu1 Mg1 3.015584 1_455
Ir0 Zn0 2.533080 1_555
Ir0 Zn0 2.533080 1_566
Ir0 Mg1 2.853094 1_555
Ir0 Mg0 2.853094 1_555
Ir0 Mg0 2.853094 1_656
Ir0 Mg1 2.853094 1_454
Ir0 Mg1 2.864785 1_565
Ir0 Mg0 2.864785 1_545
