# generated using pymatgen
data_PI5F6
_symmetry_space_group_name_H-M   'P 1'
_cell_length_a   10.39246094
_cell_length_b   10.39245983
_cell_length_c   8.47417434
_cell_angle_alpha   71.81019136
_cell_angle_beta   71.81019580
_cell_angle_gamma   118.90406737
_symmetry_Int_Tables_number   1
_chemical_formula_structural   PI5F6
_chemical_formula_sum   'P2 I10 F12'
_cell_volume   632.29746714
_cell_formula_units_Z   2
loop_
 _symmetry_equiv_pos_site_id
 _symmetry_equiv_pos_as_xyz
  1  'x, y, z'
loop_
 _atom_site_type_symbol
 _atom_site_label
 _atom_site_symmetry_multiplicity
 _atom_site_fract_x
 _atom_site_fract_y
 _atom_site_fract_z
 _atom_site_occupancy
  P  P0  1  0.41178875  0.58821125  0.75000000  1
  P  P1  1  0.58821125  0.41178875  0.25000000  1
  I  I0  1  0.65844876  0.87621237  0.06491503  1
  I  I1  1  0.00000000  0.00000000  0.50000000  1
  I  I2  1  0.34155124  0.12378763  0.93508497  1
  I  I3  1  0.87621237  0.65844876  0.56491503  1
  I  I4  1  0.00000000  0.00000000  0.00000000  1
  I  I5  1  0.12378763  0.34155124  0.43508497  1
  I  I6  1  0.31333929  0.85695638  0.92315355  1
  I  I7  1  0.14304362  0.68666071  0.57684645  1
  I  I8  1  0.68666071  0.14304362  0.07684645  1
  I  I9  1  0.85695638  0.31333929  0.42315355  1
  F  F0  1  0.75212497  0.44587796  0.07983032  1
  F  F1  1  0.55412204  0.24787503  0.42016968  1
  F  F2  1  0.24787503  0.55412204  0.92016968  1
  F  F3  1  0.44587796  0.75212497  0.57983032  1
  F  F4  1  0.62492569  0.57624745  0.07961617  1
  F  F5  1  0.42375255  0.37507431  0.42038383  1
  F  F6  1  0.27833837  0.45600294  0.71425364  1
  F  F7  1  0.57624745  0.62492569  0.57961617  1
  F  F8  1  0.45600294  0.27833837  0.21425364  1
  F  F9  1  0.72166163  0.54399706  0.28574636  1
  F  F10  1  0.54399706  0.72166163  0.78574636  1
  F  F11  1  0.37507431  0.42375255  0.92038383  1
loop_
_geom_bond_atom_site_label_1
_geom_bond_atom_site_label_2
_geom_bond_distance
_geom_bond_site_symmetry_2
I0 I8 2.682071 1_565
I0 I4 2.912351 1_665
I1 I5 2.912351 1_555
I1 I3 2.912351 1_445
I2 I6 2.682071 1_545
I2 I4 2.912351 1_556
I3 I7 2.682072 1_655
I5 I9 2.682072 1_455
F0 P1 1.634261 1_555
F1 P1 1.634261 1_555
F2 P0 1.634261 1_555
F3 P0 1.634261 1_555
F4 P1 1.623700 1_555
F5 P1 1.623700 1_555
F6 P0 1.607193 1_555
F7 P0 1.623700 1_555
F8 P1 1.607193 1_555
F9 P1 1.607193 1_555
F10 P0 1.607193 1_555
F11 P0 1.623700 1_555
