# generated using pymatgen
data_Cd2NiRh3O8
_symmetry_space_group_name_H-M   'P 1'
_cell_length_a   6.13419910
_cell_length_b   6.13419982
_cell_length_c   6.13419930
_cell_angle_alpha   61.09837686
_cell_angle_beta   61.09837717
_cell_angle_gamma   61.09838191
_symmetry_Int_Tables_number   1
_chemical_formula_structural   Cd2NiRh3O8
_chemical_formula_sum   'Cd2 Ni1 Rh3 O8'
_cell_volume   167.24984066
_cell_formula_units_Z   1
loop_
 _symmetry_equiv_pos_site_id
 _symmetry_equiv_pos_as_xyz
  1  'x, y, z'
loop_
 _atom_site_type_symbol
 _atom_site_label
 _atom_site_symmetry_multiplicity
 _atom_site_fract_x
 _atom_site_fract_y
 _atom_site_fract_z
 _atom_site_occupancy
  Cd  Cd0  1  0.24519779  0.24519779  0.24519779  1
  Cd  Cd1  1  0.00480221  0.00480221  0.00480221  1
  Ni  Ni0  1  0.62500000  0.62500000  0.62500000  1
  Rh  Rh0  1  0.62500000  0.62500000  0.12500000  1
  Rh  Rh1  1  0.62500000  0.12500000  0.62500000  1
  Rh  Rh2  1  0.12500000  0.62500000  0.62500000  1
  O  O0  1  0.85607422  0.85607422  0.43121504  1
  O  O1  1  0.85607422  0.43121504  0.85607422  1
  O  O2  1  0.43121504  0.85607422  0.85607422  1
  O  O3  1  0.85801968  0.85801968  0.85801968  1
  O  O4  1  0.39392578  0.39392578  0.81878496  1
  O  O5  1  0.39392578  0.81878496  0.39392578  1
  O  O6  1  0.81878496  0.39392578  0.39392578  1
  O  O7  1  0.39198032  0.39198032  0.39198032  1
loop_
_geom_bond_atom_site_label_1
_geom_bond_atom_site_label_2
_geom_bond_distance
_geom_bond_site_symmetry_2
Cd0 O4 2.167422 1_554
Cd0 O6 2.167422 1_455
Cd0 O5 2.167422 1_545
Cd0 O7 2.187019 1_555
Cd1 O0 2.167422 1_445
Cd1 O2 2.167422 1_544
Cd1 O1 2.167422 1_454
Cd1 O3 2.187019 1_444
Ni0 O0 2.028820 1_555
Ni0 O4 2.028820 1_555
Ni0 O1 2.028820 1_555
Ni0 O5 2.028820 1_555
Ni0 O2 2.028820 1_555
Ni0 O6 2.028820 1_555
O0 Rh2 2.037182 1_655
O0 Rh1 2.037182 1_565
O1 Rh2 2.037182 1_655
O1 Rh0 2.037182 1_556
O2 Rh1 2.037182 1_565
O2 Rh0 2.037182 1_556
O3 Rh0 2.053728 1_556
O3 Rh1 2.053728 1_565
O3 Rh2 2.053728 1_655
O4 Rh2 2.037182 1_555
O4 Rh1 2.037182 1_555
O5 Rh2 2.037182 1_555
O5 Rh0 2.037182 1_555
O6 Rh1 2.037182 1_555
O6 Rh0 2.037182 1_555
O7 Rh0 2.053728 1_555
O7 Rh1 2.053728 1_555
O7 Rh2 2.053728 1_555
