# generated using pymatgen
data_SrBi3(Pt2O7)2
_symmetry_space_group_name_H-M   'P 1'
_cell_length_a   7.40758264
_cell_length_b   7.40758368
_cell_length_c   7.32138736
_cell_angle_alpha   59.60978146
_cell_angle_beta   59.60977693
_cell_angle_gamma   60.00000206
_symmetry_Int_Tables_number   1
_chemical_formula_structural   SrBi3(Pt2O7)2
_chemical_formula_sum   'Sr1 Bi3 Pt4 O14'
_cell_volume   282.38691921
_cell_formula_units_Z   1
loop_
 _symmetry_equiv_pos_site_id
 _symmetry_equiv_pos_as_xyz
  1  'x, y, z'
loop_
 _atom_site_type_symbol
 _atom_site_label
 _atom_site_symmetry_multiplicity
 _atom_site_fract_x
 _atom_site_fract_y
 _atom_site_fract_z
 _atom_site_occupancy
  Sr  Sr0  1  0.12500000  0.12500000  0.62500000  1
  Bi  Bi0  1  0.12500000  0.62500000  0.12500000  1
  Bi  Bi1  1  0.62500000  0.12500000  0.12500000  1
  Bi  Bi2  1  0.12500000  0.12500000  0.12500000  1
  Pt  Pt0  1  0.62500000  0.62500000  0.12500000  1
  Pt  Pt1  1  0.62500000  0.12500000  0.62500000  1
  Pt  Pt2  1  0.12500000  0.62500000  0.62500000  1
  Pt  Pt3  1  0.62500000  0.62500000  0.62500000  1
  O  O0  1  0.25634571  0.25634571  0.23096386  1
  O  O1  1  0.99365429  0.99365429  0.01903614  1
  O  O2  1  0.54933499  0.95574798  0.53916805  1
  O  O3  1  0.29570000  0.70616644  0.29196712  1
  O  O4  1  0.54383356  0.54383356  0.95803288  1
  O  O5  1  0.95574798  0.54933499  0.53916805  1
  O  O6  1  0.54383356  0.95430000  0.95803288  1
  O  O7  1  0.95574798  0.95574798  0.53916805  1
  O  O8  1  0.95430000  0.54383356  0.95803288  1
  O  O9  1  0.70616644  0.29570000  0.29196712  1
  O  O10  1  0.29425202  0.70066501  0.71083195  1
  O  O11  1  0.70066501  0.29425202  0.71083195  1
  O  O12  1  0.29425202  0.29425202  0.71083195  1
  O  O13  1  0.70616644  0.70616644  0.29196712  1
loop_
_geom_bond_atom_site_label_1
_geom_bond_atom_site_label_2
_geom_bond_distance
_geom_bond_site_symmetry_2
Bi0 O1 2.229165 1_455
Bi0 O0 2.229165 1_555
Bi0 O5 2.493480 1_455
Bi0 O10 2.493480 1_554
Bi0 O4 2.553930 1_554
Bi0 O13 2.553930 1_455
Bi0 O3 2.553930 1_555
Bi0 O8 2.553930 1_454
Bi1 O1 2.229165 1_545
Bi1 O0 2.229165 1_555
Bi1 O2 2.493480 1_545
Bi1 O11 2.493480 1_554
Bi1 O9 2.553930 1_555
Bi1 O6 2.553930 1_544
Bi1 O4 2.553931 1_554
Bi1 O13 2.553931 1_545
Bi2 O0 2.229171 1_555
Bi2 O1 2.229171 1_445
Bi2 O12 2.493481 1_554
Bi2 O7 2.493481 1_445
Bi2 O6 2.553930 1_544
Bi2 O9 2.553930 1_455
Bi2 O3 2.553931 1_545
Bi2 O8 2.553931 1_454
O0 Sr0 2.341515 1_555
O1 Sr0 2.341515 1_664
O2 Pt3 2.033996 1_555
O2 Pt1 2.034002 1_565
O2 Sr0 2.589364 1_565
O3 Pt2 2.015714 1_555
O3 Pt0 2.016458 1_555
O4 Pt3 2.015714 1_555
O4 Pt0 2.016458 1_556
O5 Pt3 2.033996 1_555
O5 Pt2 2.034002 1_655
O5 Sr0 2.589364 1_655
O6 Pt1 2.015714 1_565
O6 Pt0 2.016459 1_556
O7 Pt1 2.033997 1_565
O7 Pt2 2.033997 1_655
O7 Sr0 2.589370 1_665
O8 Pt2 2.015714 1_655
O8 Pt0 2.016458 1_556
O9 Pt1 2.015714 1_555
O9 Pt0 2.016459 1_555
O10 Pt3 2.033996 1_555
O10 Pt2 2.034002 1_555
O10 Sr0 2.589364 1_565
O11 Pt3 2.033996 1_555
O11 Pt1 2.034002 1_555
O11 Sr0 2.589364 1_655
O12 Pt1 2.033997 1_555
O12 Pt2 2.033997 1_555
O12 Sr0 2.589370 1_555
O13 Pt3 2.015714 1_555
O13 Pt0 2.016458 1_555
