# generated using pymatgen
data_V3GaTcSe8
_symmetry_space_group_name_H-M   'P 1'
_cell_length_a   7.16033751
_cell_length_b   7.16033754
_cell_length_c   7.16033807
_cell_angle_alpha   60.89193811
_cell_angle_beta   60.89193747
_cell_angle_gamma   60.89194610
_symmetry_Int_Tables_number   1
_chemical_formula_structural   V3GaTcSe8
_chemical_formula_sum   'V3 Ga1 Tc1 Se8'
_cell_volume   264.80769755
_cell_formula_units_Z   1
loop_
 _symmetry_equiv_pos_site_id
 _symmetry_equiv_pos_as_xyz
  1  'x, y, z'
loop_
 _atom_site_type_symbol
 _atom_site_label
 _atom_site_symmetry_multiplicity
 _atom_site_fract_x
 _atom_site_fract_y
 _atom_site_fract_z
 _atom_site_occupancy
  V  V0  1  0.60782220  0.18682951  0.60782220  1
  V  V1  1  0.18682951  0.60782220  0.60782220  1
  V  V2  1  0.60782220  0.60782220  0.18682951  1
  Ga  Ga0  1  0.00183329  0.00183329  0.00183329  1
  Tc  Tc0  1  0.60065650  0.60065650  0.60065650  1
  Se  Se0  1  0.37177711  0.37177711  0.37177711  1
  Se  Se1  1  0.36547406  0.89523730  0.36547406  1
  Se  Se2  1  0.89523730  0.36547406  0.36547406  1
  Se  Se3  1  0.36547406  0.36547406  0.89523730  1
  Se  Se4  1  0.86455224  0.86455224  0.86455224  1
  Se  Se5  1  0.86080675  0.41090803  0.86080675  1
  Se  Se6  1  0.41090803  0.86080675  0.86080675  1
  Se  Se7  1  0.86080675  0.86080675  0.41090803  1
loop_
_geom_bond_atom_site_label_1
_geom_bond_atom_site_label_2
_geom_bond_distance
_geom_bond_site_symmetry_2
Ga0 Se4 2.391438 1_444
Ga0 Se7 2.419866 1_445
Ga0 Se6 2.419866 1_544
Ga0 Se5 2.419866 1_454
Se0 V2 2.427145 1_555
Se0 V1 2.427146 1_555
Se0 V0 2.427146 1_555
Se1 V1 2.410374 1_555
Se1 V2 2.410375 1_555
Se1 Tc0 2.442971 1_555
Se2 V0 2.410374 1_555
Se2 V2 2.410375 1_555
Se2 Tc0 2.442971 1_555
Se3 V0 2.410375 1_555
Se3 V1 2.410375 1_555
Se3 Tc0 2.442970 1_555
Se4 V2 2.667777 1_556
Se4 V1 2.667778 1_655
Se4 V0 2.667778 1_565
Se5 Tc0 2.690169 1_555
Se5 V1 2.705954 1_655
Se5 V2 2.705955 1_556
Se6 Tc0 2.690169 1_555
Se6 V0 2.705954 1_565
Se6 V2 2.705955 1_556
Se7 Tc0 2.690168 1_555
Se7 V0 2.705955 1_565
Se7 V1 2.705955 1_655
