# generated using pymatgen
data_Rb2HfAs2
_symmetry_space_group_name_H-M   'P 1'
_cell_length_a   8.67580764
_cell_length_b   8.67580845
_cell_length_c   8.67580822
_cell_angle_alpha   133.91542481
_cell_angle_beta   127.51663003
_cell_angle_gamma   72.38692323
_symmetry_Int_Tables_number   1
_chemical_formula_structural   Rb2HfAs2
_chemical_formula_sum   'Rb4 Hf2 As4'
_cell_volume   364.82838646
_cell_formula_units_Z   2
loop_
 _symmetry_equiv_pos_site_id
 _symmetry_equiv_pos_as_xyz
  1  'x, y, z'
loop_
 _atom_site_type_symbol
 _atom_site_label
 _atom_site_symmetry_multiplicity
 _atom_site_fract_x
 _atom_site_fract_y
 _atom_site_fract_z
 _atom_site_occupancy
  Rb  Rb0  1  0.00994169  0.65318456  0.35675713  1
  Rb  Rb1  1  0.99005831  0.34681544  0.64324287  1
  Rb  Rb2  1  0.70357257  0.84681544  0.85675713  1
  Rb  Rb3  1  0.29642743  0.15318456  0.14324287  1
  Hf  Hf0  1  0.50000000  0.75000000  0.25000000  1
  Hf  Hf1  1  0.50000000  0.25000000  0.75000000  1
  As  As0  1  0.58626441  0.40251321  0.18375120  1
  As  As1  1  0.41373559  0.59748679  0.81624880  1
  As  As2  1  0.21876201  0.90251321  0.31624880  1
  As  As3  1  0.78123799  0.09748679  0.68375120  1
loop_
_geom_bond_atom_site_label_1
_geom_bond_atom_site_label_2
_geom_bond_distance
_geom_bond_site_symmetry_2
As0 Hf1 2.594976 1_554
As0 Hf0 2.594976 1_555
As0 Rb3 3.505213 1_555
As0 Rb1 3.610545 1_555
As0 Rb2 3.728484 1_555
As0 Rb2 3.728484 1_544
As0 Rb0 3.752783 1_655
As1 Hf0 2.594976 1_556
As1 Hf1 2.594976 1_555
As1 Rb2 3.505213 1_555
As1 Rb0 3.610545 1_555
As1 Rb3 3.728484 1_555
As1 Rb3 3.728484 1_566
As1 Rb1 3.752783 1_455
As2 Hf0 2.594976 1_555
As2 Hf1 2.594976 1_565
As2 Rb0 3.505213 1_555
As2 Rb2 3.610544 1_454
As2 Rb1 3.728484 1_454
As2 Rb1 3.728484 1_465
As2 Rb3 3.752783 1_565
As3 Hf1 2.594976 1_555
As3 Hf0 2.594976 1_545
As3 Rb1 3.505213 1_555
As3 Rb3 3.610544 1_656
As3 Rb0 3.728484 1_656
As3 Rb0 3.728484 1_645
As3 Rb2 3.752783 1_545
