# generated using pymatgen
data_Hf9ZrSn6Se
_symmetry_space_group_name_H-M   'P 1'
_cell_length_a   5.79218352
_cell_length_b   8.48127644
_cell_length_c   8.48087386
_cell_angle_alpha   119.99848411
_cell_angle_beta   89.91835465
_cell_angle_gamma   90.04087248
_symmetry_Int_Tables_number   1
_chemical_formula_structural   Hf9ZrSn6Se
_chemical_formula_sum   'Hf9 Zr1 Sn6 Se1'
_cell_volume   360.81198973
_cell_formula_units_Z   1
loop_
 _symmetry_equiv_pos_site_id
 _symmetry_equiv_pos_as_xyz
  1  'x, y, z'
loop_
 _atom_site_type_symbol
 _atom_site_label
 _atom_site_symmetry_multiplicity
 _atom_site_fract_x
 _atom_site_fract_y
 _atom_site_fract_z
 _atom_site_occupancy
  Hf  Hf0  1  0.49999018  0.33368387  0.66657799  1
  Hf  Hf1  1  0.49999118  0.66631813  0.33289711  1
  Hf  Hf2  1  0.99967284  0.66668630  0.33313331  1
  Hf  Hf3  1  0.99967284  0.33331470  0.66644501  1
  Hf  Hf4  1  0.76735807  0.25828054  0.00051368  1
  Hf  Hf5  1  0.76735507  0.74171846  0.74223314  1
  Hf  Hf6  1  0.76978133  0.00000300  0.25784259  1
  Hf  Hf7  1  0.23150791  0.74265043  0.99963818  1
  Hf  Hf8  1  0.23150791  0.25734857  0.25698875  1
  Zr  Zr0  1  0.23187582  0.00000100  0.74340250  1
  Sn  Sn0  1  0.74644193  0.60775038  0.99995423  1
  Sn  Sn1  1  0.74644193  0.39224962  0.39220485  1
  Sn  Sn2  1  0.74598685  1.00000000  0.60788104  1
  Sn  Sn3  1  0.25308780  0.39347221  0.00033990  1
  Sn  Sn4  1  0.25308580  0.60652779  0.60686869  1
  Sn  Sn5  1  0.25426637  0.00000100  0.39142646  1
  Se  Se0  1  0.50197319  0.99999900  0.00165257  1
loop_
_geom_bond_atom_site_label_1
_geom_bond_atom_site_label_2
_geom_bond_distance
_geom_bond_site_symmetry_2
Hf0 Sn4 2.972389 1_555
Hf0 Sn1 2.973940 1_555
Hf0 Sn3 2.978054 1_556
Hf0 Sn0 2.978192 1_555
Hf0 Sn5 2.979982 1_555
Hf0 Sn2 2.980316 1_545
Hf1 Sn3 2.972406 1_555
Hf1 Sn0 2.973961 1_554
Hf1 Sn4 2.978058 1_555
Hf1 Sn1 2.978198 1_555
Hf1 Sn5 2.979994 1_565
Hf1 Sn2 2.980292 1_555
Hf2 Sn3 2.990500 1_655
Hf2 Sn1 2.996499 1_555
Hf2 Sn0 2.997325 1_554
Hf2 Sn2 2.998241 1_555
Hf2 Sn4 2.999908 1_655
Hf2 Sn5 3.001531 1_665
Hf3 Sn4 2.990473 1_655
Hf3 Sn0 2.996501 1_555
Hf3 Sn1 2.997300 1_555
Hf3 Sn2 2.998253 1_545
Hf3 Sn3 2.999922 1_656
Hf3 Sn5 3.001520 1_655
Hf4 Se0 2.679141 1_545
Hf4 Sn1 2.926671 1_555
Hf4 Sn2 2.934064 1_544
Hf4 Sn0 2.968885 1_554
Hf4 Sn3 3.037628 1_655
Hf4 Sn3 3.192836 1_555
Hf5 Se0 2.679125 1_556
Hf5 Sn0 2.926658 1_555
Hf5 Sn2 2.934074 1_555
Hf5 Sn1 2.968873 1_555
Hf5 Sn4 3.037632 1_655
Hf5 Sn4 3.192825 1_555
Hf6 Se0 2.671409 1_545
Hf6 Sn1 2.931475 1_555
Hf6 Sn0 2.931519 1_544
Hf6 Sn2 2.971646 1_545
Hf6 Sn5 3.027782 1_655
Hf6 Sn5 3.192147 1_555
Hf7 Se0 2.678867 1_556
Hf7 Sn5 2.927558 1_566
Hf7 Sn4 2.932196 1_555
Hf7 Sn3 2.967180 1_556
Hf7 Sn0 3.033363 1_455
Hf7 Sn0 3.195754 1_555
Hf8 Se0 2.678878 1_545
Hf8 Sn5 2.927537 1_555
Hf8 Sn3 2.932220 1_555
Hf8 Sn4 2.967181 1_555
Hf8 Sn1 3.033366 1_455
Hf8 Sn1 3.195753 1_555
Sn2 Zr0 3.041513 1_665
Sn2 Zr0 3.190402 1_565
Sn3 Zr0 2.937443 1_554
Sn4 Zr0 2.937459 1_565
Sn5 Zr0 2.987696 1_555
Se0 Zr0 2.693368 1_564
