# generated using pymatgen
data_Hf7Zr3(Sn3Ge)2
_symmetry_space_group_name_H-M   'P 1'
_cell_length_a   8.63806476
_cell_length_b   8.63806396
_cell_length_c   5.81274488
_cell_angle_alpha   90.00000000
_cell_angle_beta   90.00000000
_cell_angle_gamma   119.99999925
_symmetry_Int_Tables_number   1
_chemical_formula_structural   Hf7Zr3(Sn3Ge)2
_chemical_formula_sum   'Hf7 Zr3 Sn6 Ge2'
_cell_volume   375.61659238
_cell_formula_units_Z   1
loop_
 _symmetry_equiv_pos_site_id
 _symmetry_equiv_pos_as_xyz
  1  'x, y, z'
loop_
 _atom_site_type_symbol
 _atom_site_label
 _atom_site_symmetry_multiplicity
 _atom_site_fract_x
 _atom_site_fract_y
 _atom_site_fract_z
 _atom_site_occupancy
  Hf  Hf0  1  0.66666700  0.33333300  0.99912065  1
  Hf  Hf1  1  0.33333300  0.66666700  0.99912065  1
  Hf  Hf2  1  0.33333300  0.66666700  0.50087935  1
  Hf  Hf3  1  0.66666700  0.33333300  0.50087935  1
  Hf  Hf4  1  0.73208399  0.73208399  0.75000000  1
  Hf  Hf5  1  0.26791601  1.00000000  0.75000000  1
  Hf  Hf6  1  0.00000000  0.26791601  0.75000000  1
  Zr  Zr0  1  0.26032509  0.26032509  0.25000000  1
  Zr  Zr1  1  0.73967491  0.00000000  0.25000000  1
  Zr  Zr2  1  1.00000000  0.73967491  0.25000000  1
  Sn  Sn0  1  0.39228695  0.39228695  0.75000000  1
  Sn  Sn1  1  0.60771305  0.00000000  0.75000000  1
  Sn  Sn2  1  1.00000000  0.60771305  0.75000000  1
  Sn  Sn3  1  0.60409644  0.60409644  0.25000000  1
  Sn  Sn4  1  0.39590356  1.00000000  0.25000000  1
  Sn  Sn5  1  0.00000000  0.39590356  0.25000000  1
  Ge  Ge0  1  0.00000000  0.00000000  0.98991409  1
  Ge  Ge1  1  0.00000000  0.00000000  0.51008591  1
loop_
_geom_bond_atom_site_label_1
_geom_bond_atom_site_label_2
_geom_bond_distance
_geom_bond_site_symmetry_2
Hf0 Sn5 3.025421 1_656
Hf0 Sn4 3.025423 1_546
Hf0 Sn3 3.025428 1_556
Hf0 Sn1 3.029953 1_555
Hf0 Sn2 3.029956 1_555
Hf0 Sn0 3.029961 1_555
Hf1 Sn4 3.025421 1_556
Hf1 Sn5 3.025423 1_556
Hf1 Sn3 3.025428 1_556
Hf1 Sn2 3.029953 1_455
Hf1 Sn1 3.029956 1_565
Hf1 Sn0 3.029961 1_555
Hf2 Sn4 3.025421 1_555
Hf2 Sn5 3.025423 1_555
Hf2 Sn3 3.025428 1_555
Hf2 Sn2 3.029953 1_455
Hf2 Sn1 3.029956 1_565
Hf2 Sn0 3.029961 1_555
Hf3 Sn5 3.025421 1_655
Hf3 Sn4 3.025423 1_545
Hf3 Sn3 3.025428 1_555
Hf3 Sn1 3.029953 1_555
Hf3 Sn2 3.029956 1_555
Hf3 Sn0 3.029961 1_555
Hf4 Sn0 2.935189 1_555
Hf4 Sn1 2.999388 1_565
Hf4 Sn2 2.999388 1_555
Hf4 Sn3 3.109546 1_555
Hf4 Sn3 3.109546 1_556
Hf5 Sn1 2.935189 1_565
Hf5 Sn0 2.999388 1_565
Hf5 Sn2 2.999388 1_455
Hf5 Sn4 3.109546 1_555
Hf5 Sn4 3.109546 1_556
Hf6 Sn2 2.935189 1_455
Hf6 Sn1 2.999388 1_455
Hf6 Sn0 2.999388 1_555
Hf6 Sn5 3.109546 1_555
Hf6 Sn5 3.109546 1_556
Sn0 Zr0 3.121916 1_556
Sn0 Zr0 3.121916 1_555
Sn1 Zr1 3.121916 1_556
Sn1 Zr1 3.121916 1_555
Sn2 Zr2 3.121916 1_556
Sn2 Zr2 3.121916 1_555
Sn3 Zr0 2.969519 1_555
Sn3 Zr1 3.010277 1_565
Sn3 Zr2 3.010278 1_555
Sn4 Zr1 2.969519 1_565
Sn4 Zr0 3.010277 1_565
Sn4 Zr2 3.010278 1_455
Sn5 Zr2 2.969519 1_455
Sn5 Zr1 3.010277 1_455
Sn5 Zr0 3.010278 1_555
Ge0 Hf6 2.701975 1_555
Ge0 Hf4 2.701975 1_445
Ge0 Hf5 2.701975 1_545
Ge0 Zr2 2.709659 1_446
Ge0 Zr0 2.709659 1_556
Ge0 Zr1 2.709659 1_456
Ge1 Hf6 2.701975 1_555
Ge1 Hf4 2.701975 1_445
Ge1 Hf5 2.701975 1_545
Ge1 Zr2 2.709659 1_445
Ge1 Zr0 2.709659 1_555
Ge1 Zr1 2.709659 1_455
