# generated using pymatgen
data_Rb3Ta2Br10N
_symmetry_space_group_name_H-M   'P 1'
_cell_length_a   7.40868600
_cell_length_b   7.40868600
_cell_length_c   19.65847661
_cell_angle_alpha   90.00000000
_cell_angle_beta   90.00000000
_cell_angle_gamma   90.00000000
_symmetry_Int_Tables_number   1
_chemical_formula_structural   Rb3Ta2Br10N
_chemical_formula_sum   'Rb6 Ta4 Br20 N2'
_cell_volume   1079.02681358
_cell_formula_units_Z   2
loop_
 _symmetry_equiv_pos_site_id
 _symmetry_equiv_pos_as_xyz
  1  'x, y, z'
loop_
 _atom_site_type_symbol
 _atom_site_label
 _atom_site_symmetry_multiplicity
 _atom_site_fract_x
 _atom_site_fract_y
 _atom_site_fract_z
 _atom_site_occupancy
  Rb  Rb0  1  0.50000000  0.50000000  0.00000000  1
  Rb  Rb1  1  0.00000000  0.00000000  0.50000000  1
  Rb  Rb2  1  0.00000000  0.50000000  0.25000000  1
  Rb  Rb3  1  0.50000000  0.00000000  0.75000000  1
  Rb  Rb4  1  0.50000000  0.00000000  0.25000000  1
  Rb  Rb5  1  0.00000000  0.50000000  0.75000000  1
  Ta  Ta0  1  0.50000000  0.50000000  0.40553346  1
  Ta  Ta1  1  0.00000000  0.00000000  0.90553346  1
  Ta  Ta2  1  0.50000000  0.50000000  0.59446654  1
  Ta  Ta3  1  0.00000000  0.00000000  0.09446654  1
  Br  Br0  1  0.78616059  0.68826945  0.39532825  1
  Br  Br1  1  0.21383941  0.31173055  0.39532825  1
  Br  Br2  1  0.71383941  0.18826945  0.89532825  1
  Br  Br3  1  0.28616059  0.81173055  0.89532825  1
  Br  Br4  1  0.68826945  0.21383941  0.39532825  1
  Br  Br5  1  0.31173055  0.78616059  0.39532825  1
  Br  Br6  1  0.18826945  0.28616059  0.89532825  1
  Br  Br7  1  0.81173055  0.71383941  0.89532825  1
  Br  Br8  1  0.21383941  0.31173055  0.60467175  1
  Br  Br9  1  0.78616059  0.68826945  0.60467175  1
  Br  Br10  1  0.28616059  0.81173055  0.10467175  1
  Br  Br11  1  0.71383941  0.18826945  0.10467175  1
  Br  Br12  1  0.31173055  0.78616059  0.60467175  1
  Br  Br13  1  0.68826945  0.21383941  0.60467175  1
  Br  Br14  1  0.81173055  0.71383941  0.10467175  1
  Br  Br15  1  0.18826945  0.28616059  0.10467175  1
  Br  Br16  1  0.50000000  0.50000000  0.26302669  1
  Br  Br17  1  0.00000000  0.00000000  0.76302669  1
  Br  Br18  1  0.50000000  0.50000000  0.73697331  1
  Br  Br19  1  0.00000000  0.00000000  0.23697331  1
  N  N0  1  0.50000000  0.50000000  0.50000000  1
  N  N1  1  0.00000000  0.00000000  0.00000000  1
loop_
_geom_bond_atom_site_label_1
_geom_bond_atom_site_label_2
_geom_bond_distance
_geom_bond_site_symmetry_2
Br0 Ta0 2.545685 1_555
Br0 Rb1 3.475318 1_665
Br0 Rb2 3.552115 1_655
Br1 Ta0 2.545685 1_555
Br1 Rb1 3.475318 1_555
Br1 Rb2 3.552115 1_555
Br2 Ta1 2.545685 1_655
Br2 Rb0 3.475318 1_556
Br2 Rb3 3.552115 1_555
Br3 Ta1 2.545685 1_565
Br3 Rb0 3.475318 1_556
Br3 Rb3 3.552115 1_565
Br4 Ta0 2.545685 1_555
Br4 Rb1 3.475318 1_655
Br4 Rb4 3.552115 1_555
Br5 Ta0 2.545685 1_555
Br5 Rb1 3.475318 1_565
Br5 Rb4 3.552115 1_565
Br6 Ta1 2.545685 1_555
Br6 Rb0 3.475318 1_556
Br6 Rb5 3.552115 1_555
Br7 Ta1 2.545685 1_665
Br7 Rb0 3.475318 1_556
Br7 Rb5 3.552115 1_655
Br8 Ta2 2.545685 1_555
Br8 Rb1 3.475318 1_555
Br8 Rb5 3.552115 1_555
Br9 Ta2 2.545685 1_555
Br9 Rb1 3.475318 1_665
Br9 Rb5 3.552115 1_655
Br10 Ta3 2.545685 1_565
Br10 Rb0 3.475318 1_555
Br10 Rb4 3.552115 1_565
Br11 Ta3 2.545685 1_655
Br11 Rb0 3.475318 1_555
Br11 Rb4 3.552115 1_555
Br12 Ta2 2.545685 1_555
Br12 Rb1 3.475318 1_565
Br12 Rb3 3.552115 1_565
Br13 Ta2 2.545685 1_555
Br13 Rb1 3.475318 1_655
Br13 Rb3 3.552115 1_555
Br14 Ta3 2.545685 1_665
Br14 Rb0 3.475318 1_555
Br14 Rb2 3.552115 1_655
Br15 Ta3 2.545685 1_555
Br15 Rb0 3.475318 1_555
Br15 Rb2 3.552115 1_555
Br16 Ta0 2.801466 1_555
Br16 Rb2 3.713184 1_655
Br16 Rb2 3.713184 1_555
Br16 Rb4 3.713184 1_555
Br16 Rb4 3.713184 1_565
Br17 Ta1 2.801466 1_555
Br17 Rb3 3.713184 1_455
Br17 Rb5 3.713184 1_545
Br17 Rb3 3.713184 1_555
Br17 Rb5 3.713184 1_555
Br18 Ta2 2.801466 1_555
Br18 Rb5 3.713184 1_555
Br18 Rb5 3.713184 1_655
Br18 Rb3 3.713184 1_565
Br18 Rb3 3.713184 1_555
Br19 Ta3 2.801466 1_555
Br19 Rb2 3.713184 1_545
Br19 Rb2 3.713184 1_555
Br19 Rb4 3.713184 1_455
Br19 Rb4 3.713184 1_555
N0 Ta2 1.857068 1_555
N0 Ta0 1.857068 1_555
N1 Ta3 1.857068 1_555
N1 Ta1 1.857068 1_554
