# generated using pymatgen
data_LiB4Ir4Pd3
_symmetry_space_group_name_H-M   'P 1'
_cell_length_a   6.80289535
_cell_length_b   6.06965288
_cell_length_c   5.48578365
_cell_angle_alpha   70.47582346
_cell_angle_beta   58.06770730
_cell_angle_gamma   50.45141631
_symmetry_Int_Tables_number   1
_chemical_formula_structural   LiB4Ir4Pd3
_chemical_formula_sum   'Li1 B4 Ir4 Pd3'
_cell_volume   148.22994202
_cell_formula_units_Z   1
loop_
 _symmetry_equiv_pos_site_id
 _symmetry_equiv_pos_as_xyz
  1  'x, y, z'
loop_
 _atom_site_type_symbol
 _atom_site_label
 _atom_site_symmetry_multiplicity
 _atom_site_fract_x
 _atom_site_fract_y
 _atom_site_fract_z
 _atom_site_occupancy
  Li  Li0  1  0.95126181  0.76429701  0.39515385  1
  B  B0  1  0.05233887  0.98101790  0.57119934  1
  B  B1  1  0.67552597  0.84459472  0.18789712  1
  B  B2  1  0.41389647  0.56469152  0.96355350  1
  B  B3  1  0.27091765  0.20245579  0.84213843  1
  Ir  Ir0  1  0.09651008  0.63940300  0.87604266  1
  Ir  Ir1  1  0.37111944  0.85641451  0.14732831  1
  Ir  Ir2  1  0.61237193  0.15327772  0.84812358  1
  Ir  Ir3  1  0.38933502  0.87729954  0.62865407  1
  Pd  Pd0  1  0.48073196  0.29288173  0.36478333  1
  Pd  Pd1  1  0.86175644  0.37328219  0.32058463  1
  Pd  Pd2  1  0.87943436  0.39518337  0.79934118  1
loop_
_geom_bond_atom_site_label_1
_geom_bond_atom_site_label_2
_geom_bond_distance
_geom_bond_site_symmetry_2
Li0 Pd2 2.664975 1_555
Li0 Pd0 2.774167 1_565
Li0 Pd0 2.783518 1_655
Li0 Pd1 2.987218 1_555
Li0 Pd1 3.253858 1_565
B0 Ir1 2.105787 1_555
B0 Ir3 2.131962 1_555
B0 Ir0 2.146311 1_555
B0 Ir2 2.150810 1_465
B0 Pd1 2.237500 1_465
B0 Li0 2.416457 1_455
B0 Pd2 2.459564 1_465
B1 Ir0 2.092585 1_654
B1 Ir3 2.127225 1_555
B1 Ir1 2.151914 1_555
B1 Ir2 2.157996 1_564
B1 Pd1 2.299314 1_555
B1 Li0 2.402146 1_555
B1 Pd0 2.431876 1_565
B2 Ir2 2.078110 1_555
B2 Ir1 2.112561 1_556
B2 Ir3 2.143444 1_555
B2 Ir0 2.191373 1_555
B2 Pd2 2.313457 1_555
B2 Pd0 2.334398 1_556
B2 Li0 2.481507 1_456
B3 Ir3 2.106607 1_545
B3 Ir0 2.136619 1_555
B3 Ir2 2.162658 1_555
B3 Ir1 2.170871 1_546
B3 Pd2 2.242043 1_455
B3 Pd0 2.297611 1_555
B3 Pd1 2.475308 1_456
Ir0 Li0 2.678253 1_456
Ir0 Li0 2.996197 1_455
Ir1 Li0 2.781544 1_455
Ir2 Li0 2.827315 1_545
Ir3 Li0 2.965285 1_555
