# generated using pymatgen
data_Ca3(BO3)2
_symmetry_space_group_name_H-M   'P 1'
_cell_length_a   6.34518703
_cell_length_b   6.34518703
_cell_length_c   6.34518666
_cell_angle_alpha   85.94288569
_cell_angle_beta   85.94288569
_cell_angle_gamma   85.94289208
_symmetry_Int_Tables_number   1
_chemical_formula_structural   Ca3(BO3)2
_chemical_formula_sum   'Ca6 B4 O12'
_cell_volume   253.63180690
_cell_formula_units_Z   2
loop_
 _symmetry_equiv_pos_site_id
 _symmetry_equiv_pos_as_xyz
  1  'x, y, z'
loop_
 _atom_site_type_symbol
 _atom_site_label
 _atom_site_symmetry_multiplicity
 _atom_site_fract_x
 _atom_site_fract_y
 _atom_site_fract_z
 _atom_site_occupancy
  Ca  Ca0  1  0.25000000  0.60883118  0.89116882  1
  Ca  Ca1  1  0.89116882  0.25000000  0.60883118  1
  Ca  Ca2  1  0.60883118  0.89116882  0.25000000  1
  Ca  Ca3  1  0.75000000  0.39116882  0.10883118  1
  Ca  Ca4  1  0.10883118  0.75000000  0.39116882  1
  Ca  Ca5  1  0.39116882  0.10883118  0.75000000  1
  B  B0  1  0.88284128  0.88284128  0.88284128  1
  B  B1  1  0.11715872  0.11715872  0.11715872  1
  B  B2  1  0.38284128  0.38284128  0.38284128  1
  B  B3  1  0.61715872  0.61715872  0.61715872  1
  O  O0  1  0.21915984  0.39809535  0.53833624  1
  O  O1  1  0.53833624  0.21915984  0.39809535  1
  O  O2  1  0.39809535  0.53833624  0.21915984  1
  O  O3  1  0.10190465  0.28084016  0.96166376  1
  O  O4  1  0.28084016  0.96166376  0.10190465  1
  O  O5  1  0.96166376  0.10190465  0.28084016  1
  O  O6  1  0.46166376  0.78084016  0.60190465  1
  O  O7  1  0.78084016  0.60190465  0.46166376  1
  O  O8  1  0.60190465  0.46166376  0.78084016  1
  O  O9  1  0.71915984  0.03833624  0.89809535  1
  O  O10  1  0.03833624  0.89809535  0.71915984  1
  O  O11  1  0.89809535  0.71915984  0.03833624  1
loop_
_geom_bond_atom_site_label_1
_geom_bond_atom_site_label_2
_geom_bond_distance
_geom_bond_site_symmetry_2
Ca0 O3 2.345181 1_555
Ca0 O2 2.345181 1_556
Ca0 O11 2.433965 1_456
Ca0 O8 2.433965 1_555
Ca0 O6 2.436997 1_555
Ca0 O10 2.436998 1_555
Ca0 O0 2.713131 1_555
Ca0 O4 2.713131 1_556
Ca1 O0 2.345181 1_655
Ca1 O5 2.345181 1_555
Ca1 O7 2.433965 1_555
Ca1 O10 2.433965 1_645
Ca1 O9 2.436997 1_555
Ca1 O8 2.436998 1_555
Ca1 O3 2.713131 1_655
Ca1 O1 2.713131 1_555
Ca2 O4 2.345181 1_555
Ca2 O1 2.345181 1_565
Ca2 O9 2.433965 1_564
Ca2 O6 2.433965 1_555
Ca2 O7 2.436998 1_555
Ca2 O11 2.436998 1_555
Ca2 O5 2.713131 1_565
Ca2 O2 2.713131 1_555
Ca3 O11 2.345181 1_555
Ca3 O8 2.345181 1_554
Ca3 O3 2.433965 1_654
Ca3 O2 2.433965 1_555
Ca3 O1 2.436997 1_555
Ca3 O5 2.436998 1_555
Ca3 O7 2.713131 1_555
Ca3 O9 2.713131 1_554
Ca4 O7 2.345181 1_455
Ca4 O10 2.345181 1_555
Ca4 O0 2.433965 1_555
Ca4 O5 2.433965 1_465
Ca4 O4 2.436997 1_555
Ca4 O2 2.436998 1_555
Ca4 O11 2.713131 1_455
Ca4 O6 2.713131 1_555
Ca5 O6 2.345181 1_545
Ca5 O9 2.345181 1_555
Ca5 O1 2.433965 1_555
Ca5 O4 2.433965 1_546
Ca5 O3 2.436998 1_555
Ca5 O0 2.436998 1_555
Ca5 O8 2.713131 1_555
Ca5 O10 2.713131 1_545
B0 O10 1.384122 1_655
B0 O11 1.384122 1_556
B0 O9 1.384122 1_565
B1 O5 1.384122 1_455
B1 O3 1.384122 1_554
B1 O4 1.384122 1_545
B2 O2 1.384122 1_555
B2 O0 1.384122 1_555
B2 O1 1.384122 1_555
B3 O8 1.384122 1_555
B3 O7 1.384122 1_555
B3 O6 1.384122 1_555
