# generated using pymatgen
data_KBi(TeO4)2
_symmetry_space_group_name_H-M   'P 1'
_cell_length_a   7.71577616
_cell_length_b   7.71574435
_cell_length_c   7.30592838
_cell_angle_alpha   63.47799925
_cell_angle_beta   63.47813797
_cell_angle_gamma   92.09133280
_symmetry_Int_Tables_number   1
_chemical_formula_structural   KBi(TeO4)2
_chemical_formula_sum   'K2 Bi2 Te4 O16'
_cell_volume   332.75840959
_cell_formula_units_Z   2
loop_
 _symmetry_equiv_pos_site_id
 _symmetry_equiv_pos_as_xyz
  1  'x, y, z'
loop_
 _atom_site_type_symbol
 _atom_site_label
 _atom_site_symmetry_multiplicity
 _atom_site_fract_x
 _atom_site_fract_y
 _atom_site_fract_z
 _atom_site_occupancy
  K  K0  1  0.71281297  0.28718345  0.25000096  1
  K  K1  1  0.28718703  0.71281655  0.74999904  1
  Bi  Bi0  1  0.70230075  0.29768764  0.75000771  1
  Bi  Bi1  1  0.29769925  0.70231236  0.24999229  1
  Te  Te0  1  0.18090686  0.20025499  0.80420920  1
  Te  Te1  1  0.20023329  0.18088874  0.30421946  1
  Te  Te2  1  0.79976671  0.81911126  0.69578054  1
  Te  Te3  1  0.81909314  0.79974501  0.19579080  1
  O  O0  1  0.45870585  0.28473327  0.67409503  1
  O  O1  1  0.71527201  0.54129239  0.82589846  1
  O  O2  1  0.54129415  0.71526673  0.32590497  1
  O  O3  1  0.28472799  0.45870761  0.17410154  1
  O  O4  1  0.13227329  0.44085228  0.64299589  1
  O  O5  1  0.55915779  0.86772471  0.85699435  1
  O  O6  1  0.86772671  0.55914772  0.35700411  1
  O  O7  1  0.44084221  0.13227529  0.14300565  1
  O  O8  1  0.12308324  0.25075868  0.06263794  1
  O  O9  1  0.74924152  0.87692197  0.43735672  1
  O  O10  1  0.87691676  0.74924132  0.93736206  1
  O  O11  1  0.25075848  0.12307803  0.56264328  1
  O  O12  1  0.08644444  0.87426941  0.47343941  1
  O  O13  1  0.12572982  0.91355998  0.02655793  1
  O  O14  1  0.91355556  0.12573059  0.52656059  1
  O  O15  1  0.87427018  0.08644002  0.97344207  1
loop_
_geom_bond_atom_site_label_1
_geom_bond_atom_site_label_2
_geom_bond_distance
_geom_bond_site_symmetry_2
K0 O0 2.822094 1_555
K0 O1 2.822104 1_554
K0 O9 2.917487 1_545
K0 O8 2.917553 1_655
K0 O7 2.925668 1_555
K0 O6 2.925688 1_555
K0 O14 2.953178 1_555
K0 O15 2.953183 1_554
K0 O11 3.057060 1_555
K0 O10 3.057064 1_554
K1 O2 2.822094 1_555
K1 O3 2.822104 1_556
K1 O11 2.917487 1_565
K1 O10 2.917553 1_455
K1 O5 2.925668 1_555
K1 O4 2.925688 1_555
K1 O12 2.953178 1_555
K1 O13 2.953183 1_556
K1 O9 3.057060 1_555
K1 O8 3.057064 1_556
Bi0 O1 2.194732 1_555
Bi0 O0 2.194754 1_555
Bi0 O7 2.304116 1_556
Bi0 O6 2.304136 1_555
Bi0 O14 2.607300 1_555
Bi0 O15 2.607302 1_555
Bi1 O3 2.194732 1_555
Bi1 O2 2.194754 1_555
Bi1 O5 2.304116 1_554
Bi1 O4 2.304136 1_555
Bi1 O12 2.607300 1_555
Bi1 O13 2.607302 1_555
O0 Te0 1.856821 1_555
O1 Te2 1.856957 1_555
O2 Te3 1.856821 1_555
O3 Te1 1.856957 1_555
O4 Te0 1.862009 1_555
O5 Te2 1.862001 1_555
O6 Te3 1.862009 1_555
O7 Te1 1.862001 1_555
O8 Te0 1.957839 1_554
O8 Te1 1.967761 1_555
O9 Te2 1.957929 1_555
O9 Te3 1.967822 1_555
O10 Te3 1.957839 1_556
O10 Te2 1.967761 1_555
O11 Te1 1.957929 1_555
O11 Te0 1.967822 1_555
O12 Te2 1.953836 1_455
O12 Te1 2.040383 1_565
O13 Te0 1.953911 1_564
O13 Te3 2.040524 1_455
O14 Te1 1.953836 1_655
O14 Te2 2.040383 1_545
O15 Te3 1.953911 1_546
O15 Te0 2.040524 1_655
