# generated using pymatgen
data_KBa4(BeP)10
_symmetry_space_group_name_H-M   'P 1'
_cell_length_a   8.80835537
_cell_length_b   8.80835512
_cell_length_c   8.80835646
_cell_angle_alpha   123.74795071
_cell_angle_beta   123.74796087
_cell_angle_gamma   83.62235726
_symmetry_Int_Tables_number   1
_chemical_formula_structural   KBa4(BeP)10
_chemical_formula_sum   'K1 Ba4 Be10 P10'
_cell_volume   452.79804081
_cell_formula_units_Z   1
loop_
 _symmetry_equiv_pos_site_id
 _symmetry_equiv_pos_as_xyz
  1  'x, y, z'
loop_
 _atom_site_type_symbol
 _atom_site_label
 _atom_site_symmetry_multiplicity
 _atom_site_fract_x
 _atom_site_fract_y
 _atom_site_fract_z
 _atom_site_occupancy
  K  K0  1  0.00000000  0.00000000  0.00000000  1
  Ba  Ba0  1  0.38707627  0.80364447  0.19072274  1
  Ba  Ba1  1  0.80364447  0.61292373  0.41656820  1
  Ba  Ba2  1  0.19635553  0.38707627  0.58343180  1
  Ba  Ba3  1  0.61292373  0.19635553  0.80927726  1
  Be  Be0  1  0.95122963  0.65119882  0.10116389  1
  Be  Be1  1  0.34880118  0.44996506  0.30002981  1
  Be  Be2  1  0.75000000  0.25000000  0.50000000  1
  Be  Be3  1  0.14993426  0.04876937  0.69997019  1
  Be  Be4  1  0.55003494  0.85006574  0.89883611  1
  Be  Be5  1  0.65119882  0.55003494  0.69997019  1
  Be  Be6  1  0.04876937  0.34880118  0.89883611  1
  Be  Be7  1  0.44996506  0.14993426  0.10116389  1
  Be  Be8  1  0.85006574  0.95123063  0.30002981  1
  Be  Be9  1  0.25000000  0.75000000  0.50000000  1
  P  P0  1  0.94573269  0.54394398  0.79961808  1
  P  P1  1  0.34480054  0.34480054  0.00000000  1
  P  P2  1  0.74432790  0.14611361  0.20038192  1
  P  P3  1  0.14611361  0.94573269  0.40178871  1
  P  P4  1  0.54394398  0.74432790  0.59821129  1
  P  P5  1  0.65519946  0.65519946  1.00000000  1
  P  P6  1  0.05426731  0.45605602  0.20038192  1
  P  P7  1  0.45605602  0.25567210  0.40178871  1
  P  P8  1  0.85388639  0.05426731  0.59821129  1
  P  P9  1  0.25567210  0.85388639  0.79961808  1
loop_
_geom_bond_atom_site_label_1
_geom_bond_atom_site_label_2
_geom_bond_distance
_geom_bond_site_symmetry_2
K0 P9 3.330481 1_544
K0 P2 3.330481 1_455
K0 P7 3.330493 1_555
K0 P4 3.330493 1_444
K0 P6 3.330497 1_555
K0 P0 3.330497 1_444
K0 P8 3.330499 1_454
K0 P3 3.330499 1_545
Ba0 P0 3.248563 1_454
Ba0 P9 3.248582 1_554
Ba0 P7 3.276673 1_565
Ba0 P3 3.276681 1_555
Ba0 P1 3.375085 1_555
Ba0 P5 3.375101 1_554
Ba0 P4 3.387945 1_555
Ba0 P8 3.387979 1_565
Ba1 P8 3.248563 1_565
Ba1 P4 3.248564 1_555
Ba1 P9 3.276675 1_655
Ba1 P0 3.276686 1_555
Ba1 P1 3.375089 1_555
Ba1 P5 3.375089 1_554
Ba1 P6 3.387974 1_655
Ba1 P2 3.387982 1_555
Ba2 P3 3.248563 1_545
Ba2 P7 3.248564 1_555
Ba2 P2 3.276675 1_455
Ba2 P6 3.276686 1_555
Ba2 P5 3.375089 1_555
Ba2 P1 3.375089 1_556
Ba2 P0 3.387974 1_455
Ba2 P9 3.387982 1_555
Ba3 P6 3.248563 1_656
Ba3 P2 3.248582 1_556
Ba3 P4 3.276673 1_545
Ba3 P8 3.276681 1_555
Ba3 P5 3.375085 1_555
Ba3 P1 3.375101 1_556
Ba3 P7 3.387945 1_555
Ba3 P3 3.387979 1_545
Be0 P6 2.232328 1_655
Be0 P3 2.235010 1_655
Be0 P5 2.242179 1_554
Be0 P0 2.242555 1_554
Be1 P4 2.232339 1_555
Be1 P6 2.235014 1_555
Be1 P1 2.242171 1_555
Be1 P7 2.242576 1_555
Be2 P7 2.232772 1_555
Be2 P0 2.232774 1_555
Be2 P8 2.232775 1_555
Be2 P2 2.232783 1_555
Be3 P3 2.232333 1_545
Be3 P9 2.234988 1_545
Be3 P1 2.242183 1_556
Be3 P8 2.242545 1_455
Be4 P9 2.232345 1_555
Be4 P4 2.235016 1_555
Be4 P5 2.242179 1_555
Be4 P2 2.242553 1_566
Be5 P7 2.232339 1_555
Be5 P0 2.235014 1_555
Be5 P5 2.242171 1_555
Be5 P4 2.242576 1_555
Be6 P0 2.232327 1_455
Be6 P8 2.235008 1_455
Be6 P1 2.242187 1_556
Be6 P6 2.242550 1_556
Be7 P2 2.232345 1_555
Be7 P7 2.235016 1_555
Be7 P1 2.242179 1_555
Be7 P9 2.242553 1_544
Be8 P8 2.232333 1_565
Be8 P2 2.234988 1_565
Be8 P5 2.242183 1_554
Be8 P3 2.242545 1_655
Be9 P4 2.232772 1_555
Be9 P6 2.232774 1_555
Be9 P3 2.232775 1_555
Be9 P9 2.232783 1_555
