# generated using pymatgen
data_Hf(SCl6)2
_symmetry_space_group_name_H-M   'P 1'
_cell_length_a   8.31696535
_cell_length_b   8.31696579
_cell_length_c   8.31696543
_cell_angle_alpha   77.02896225
_cell_angle_beta   77.02896625
_cell_angle_gamma   77.02895679
_symmetry_Int_Tables_number   1
_chemical_formula_structural   Hf(SCl6)2
_chemical_formula_sum   'Hf1 S2 Cl12'
_cell_volume   537.05838141
_cell_formula_units_Z   1
loop_
 _symmetry_equiv_pos_site_id
 _symmetry_equiv_pos_as_xyz
  1  'x, y, z'
loop_
 _atom_site_type_symbol
 _atom_site_label
 _atom_site_symmetry_multiplicity
 _atom_site_fract_x
 _atom_site_fract_y
 _atom_site_fract_z
 _atom_site_occupancy
  Hf  Hf0  1  0.00000000  0.00000000  0.00000000  1
  S  S0  1  0.21264737  0.21264737  0.21264737  1
  S  S1  1  0.78735263  0.78735263  0.78735263  1
  Cl  Cl0  1  0.83566149  0.83566149  0.53580050  1
  Cl  Cl1  1  0.86057736  0.19344072  0.19344072  1
  Cl  Cl2  1  0.19344072  0.19344072  0.86057736  1
  Cl  Cl3  1  0.19344072  0.86057736  0.19344072  1
  Cl  Cl4  1  0.80655928  0.13942264  0.80655928  1
  Cl  Cl5  1  0.13942264  0.80655928  0.80655928  1
  Cl  Cl6  1  0.80655928  0.80655928  0.13942264  1
  Cl  Cl7  1  0.46419950  0.16433851  0.16433851  1
  Cl  Cl8  1  0.16433851  0.16433851  0.46419950  1
  Cl  Cl9  1  0.16433851  0.46419950  0.16433851  1
  Cl  Cl10  1  0.83566149  0.53580050  0.83566149  1
  Cl  Cl11  1  0.53580050  0.83566149  0.83566149  1
loop_
_geom_bond_atom_site_label_1
_geom_bond_atom_site_label_2
_geom_bond_distance
_geom_bond_site_symmetry_2
Cl0 S1 2.004423 1_555
Cl1 Hf0 2.451190 1_655
Cl2 Hf0 2.451190 1_556
Cl3 Hf0 2.451190 1_565
Cl4 Hf0 2.451190 1_656
Cl5 Hf0 2.451190 1_566
Cl6 Hf0 2.451190 1_665
Cl7 S0 2.004423 1_555
Cl8 S0 2.004423 1_555
Cl9 S0 2.004423 1_555
Cl10 S1 2.004423 1_555
Cl11 S1 2.004423 1_555
