# generated using pymatgen
data_Sc4As6Ru7
_symmetry_space_group_name_H-M   'P 1'
_cell_length_a   7.02460362
_cell_length_b   7.02460278
_cell_length_c   7.02460402
_cell_angle_alpha   109.47122423
_cell_angle_beta   109.47122179
_cell_angle_gamma   109.47121790
_symmetry_Int_Tables_number   1
_chemical_formula_structural   Sc4As6Ru7
_chemical_formula_sum   'Sc4 As6 Ru7'
_cell_volume   266.83545884
_cell_formula_units_Z   1
loop_
 _symmetry_equiv_pos_site_id
 _symmetry_equiv_pos_as_xyz
  1  'x, y, z'
loop_
 _atom_site_type_symbol
 _atom_site_label
 _atom_site_symmetry_multiplicity
 _atom_site_fract_x
 _atom_site_fract_y
 _atom_site_fract_z
 _atom_site_occupancy
  Sc  Sc0  1  0.00000000  0.00000000  0.50000000  1
  Sc  Sc1  1  0.50000000  0.00000000  0.00000000  1
  Sc  Sc2  1  0.00000000  0.50000000  0.00000000  1
  Sc  Sc3  1  0.50000000  0.50000000  0.50000000  1
  As  As0  1  0.31240166  1.00000000  0.31240166  1
  As  As1  1  0.00000000  0.31240166  0.31240166  1
  As  As2  1  1.00000000  0.68759834  0.68759834  1
  As  As3  1  0.31240166  0.31240166  0.00000000  1
  As  As4  1  0.68759834  0.68759834  1.00000000  1
  As  As5  1  0.68759834  0.00000000  0.68759834  1
  Ru  Ru0  1  0.75000000  0.50000000  0.25000000  1
  Ru  Ru1  1  0.50000000  0.75000000  0.25000000  1
  Ru  Ru2  1  0.50000000  0.25000000  0.75000000  1
  Ru  Ru3  1  0.75000000  0.25000000  0.50000000  1
  Ru  Ru4  1  0.25000000  0.75000000  0.50000000  1
  Ru  Ru5  1  0.25000000  0.50000000  0.75000000  1
  Ru  Ru6  1  0.00000000  0.00000000  0.00000000  1
loop_
_geom_bond_atom_site_label_1
_geom_bond_atom_site_label_2
_geom_bond_distance
_geom_bond_site_symmetry_2
As0 Ru6 2.533988 1_565
As0 Ru1 2.535264 1_555
As0 Ru4 2.535264 1_555
As0 Ru3 2.535264 1_565
As0 Ru2 2.535264 1_565
As0 Sc3 2.912108 1_565
As0 Sc2 2.912108 1_555
As0 Sc0 2.912108 1_565
As0 Sc1 2.912108 1_565
As1 Ru6 2.533988 1_555
As1 Ru4 2.535264 1_555
As1 Ru0 2.535264 1_455
As1 Ru5 2.535264 1_555
As1 Ru3 2.535264 1_455
As1 Sc0 2.912108 1_555
As1 Sc1 2.912108 1_455
As1 Sc3 2.912108 1_555
As1 Sc2 2.912108 1_555
As2 Ru6 2.533988 1_666
As2 Ru3 2.535264 1_555
As2 Ru5 2.535264 1_655
As2 Ru0 2.535264 1_555
As2 Ru4 2.535264 1_655
As2 Sc0 2.912108 1_665
As2 Sc1 2.912108 1_666
As2 Sc3 2.912108 1_555
As2 Sc2 2.912108 1_656
As3 Ru6 2.533988 1_555
As3 Ru1 2.535264 1_555
As3 Ru5 2.535264 1_554
As3 Ru0 2.535264 1_555
As3 Ru2 2.535264 1_554
As3 Sc1 2.912108 1_555
As3 Sc2 2.912108 1_555
As3 Sc0 2.912108 1_554
As3 Sc3 2.912108 1_555
As4 Ru6 2.533988 1_666
As4 Ru2 2.535264 1_555
As4 Ru0 2.535264 1_556
As4 Ru5 2.535264 1_555
As4 Ru1 2.535264 1_556
As4 Sc1 2.912108 1_566
As4 Sc2 2.912108 1_656
As4 Sc0 2.912108 1_666
As4 Sc3 2.912108 1_555
As5 Ru6 2.533988 1_656
As5 Ru2 2.535264 1_555
As5 Ru3 2.535264 1_555
As5 Ru4 2.535264 1_545
As5 Ru1 2.535264 1_545
As5 Sc3 2.912108 1_545
As5 Sc2 2.912108 1_656
As5 Sc0 2.912108 1_655
As5 Sc1 2.912108 1_556
Ru0 Sc1 2.867782 1_555
Ru0 Sc0 2.867782 1_665
Ru0 Sc2 2.867783 1_655
Ru0 Sc3 2.867783 1_555
Ru1 Sc3 2.867782 1_555
Ru1 Sc1 2.867782 1_565
Ru1 Sc2 2.867782 1_555
Ru1 Sc0 2.867782 1_665
Ru2 Sc3 2.867782 1_555
Ru2 Sc1 2.867782 1_556
Ru2 Sc2 2.867782 1_656
Ru2 Sc0 2.867782 1_555
Ru3 Sc3 2.867782 1_555
Ru3 Sc0 2.867782 1_655
Ru3 Sc1 2.867782 1_555
Ru3 Sc2 2.867782 1_656
Ru4 Sc3 2.867782 1_555
Ru4 Sc0 2.867782 1_565
Ru4 Sc2 2.867782 1_555
Ru4 Sc1 2.867782 1_566
Ru5 Sc0 2.867782 1_555
Ru5 Sc1 2.867782 1_566
Ru5 Sc3 2.867783 1_555
Ru5 Sc2 2.867783 1_556
