# generated using pymatgen
data_KTaSe2O7
_symmetry_space_group_name_H-M   'P 1'
_cell_length_a   6.86054583
_cell_length_b   6.86054668
_cell_length_c   7.36134091
_cell_angle_alpha   90.00000000
_cell_angle_beta   90.00000000
_cell_angle_gamma   107.43865218
_symmetry_Int_Tables_number   1
_chemical_formula_structural   KTaSe2O7
_chemical_formula_sum   'K2 Ta2 Se4 O14'
_cell_volume   330.55228873
_cell_formula_units_Z   2
loop_
 _symmetry_equiv_pos_site_id
 _symmetry_equiv_pos_as_xyz
  1  'x, y, z'
loop_
 _atom_site_type_symbol
 _atom_site_label
 _atom_site_symmetry_multiplicity
 _atom_site_fract_x
 _atom_site_fract_y
 _atom_site_fract_z
 _atom_site_occupancy
  K  K0  1  0.97489999  0.97489999  0.36049710  1
  K  K1  1  0.02510001  0.02510001  0.86049710  1
  Ta  Ta0  1  0.50719015  0.50719015  0.88762632  1
  Ta  Ta1  1  0.49280985  0.49280985  0.38762632  1
  Se  Se0  1  0.52986552  0.95309088  0.62822323  1
  Se  Se1  1  0.95309088  0.52986552  0.62822323  1
  Se  Se2  1  0.47013448  0.04690912  0.12822323  1
  Se  Se3  1  0.04690912  0.47013448  0.12822323  1
  O  O0  1  0.54422846  0.79589332  0.81431859  1
  O  O1  1  0.79589332  0.54422846  0.81431859  1
  O  O2  1  0.45577154  0.20410668  0.31431859  1
  O  O3  1  0.20410668  0.45577154  0.31431859  1
  O  O4  1  0.53578253  0.78869633  0.44583828  1
  O  O5  1  0.78869633  0.53578253  0.44583828  1
  O  O6  1  0.46421747  0.21130367  0.94583828  1
  O  O7  1  0.21130367  0.46421747  0.94583828  1
  O  O8  1  0.76791159  0.10224334  0.62191795  1
  O  O9  1  0.10224334  0.76791159  0.62191795  1
  O  O10  1  0.23208841  0.89775666  0.12191795  1
  O  O11  1  0.89775666  0.23208841  0.12191795  1
  O  O12  1  0.42026664  0.42026664  0.63421848  1
  O  O13  1  0.57973336  0.57973336  0.13421848  1
loop_
_geom_bond_atom_site_label_1
_geom_bond_atom_site_label_2
_geom_bond_distance
_geom_bond_site_symmetry_2
K0 O10 2.652840 1_655
K0 O11 2.652840 1_565
K0 O8 2.688260 1_565
K0 O9 2.688260 1_655
K0 O4 2.965737 1_555
K0 O5 2.965737 1_555
K0 O2 3.219098 1_665
K0 O3 3.219099 1_665
K1 O8 2.652840 1_455
K1 O9 2.652840 1_545
K1 O10 2.688260 1_546
K1 O11 2.688260 1_456
K1 O6 2.965737 1_555
K1 O7 2.965737 1_555
K1 O0 3.219098 1_445
K1 O1 3.219099 1_445
O0 Se0 1.764409 1_555
O0 Ta0 1.994278 1_555
O1 Se1 1.764409 1_555
O1 Ta0 1.994278 1_555
O2 Se2 1.764409 1_555
O2 Ta1 1.994278 1_555
O3 Se3 1.764409 1_555
O3 Ta1 1.994278 1_555
O4 Se0 1.761724 1_555
O4 Ta1 2.008112 1_555
O5 Se1 1.761724 1_555
O5 Ta1 2.008112 1_555
O6 Se2 1.761724 1_556
O6 Ta0 2.008112 1_555
O7 Se3 1.761724 1_556
O7 Ta0 2.008112 1_555
O8 Se0 1.647638 1_545
O9 Se1 1.647638 1_455
O10 Se2 1.647638 1_565
O11 Se3 1.647638 1_655
O12 Ta1 1.908416 1_555
O12 Ta0 1.994466 1_555
O13 Ta0 1.908416 1_554
O13 Ta1 1.994466 1_555
