# generated using pymatgen
data_YTiNb5Sn4
_symmetry_space_group_name_H-M   'P 1'
_cell_length_a   8.36327112
_cell_length_b   8.36326983
_cell_length_c   8.46068520
_cell_angle_alpha   40.61182218
_cell_angle_beta   40.61183199
_cell_angle_gamma   40.48236916
_symmetry_Int_Tables_number   1
_chemical_formula_structural   YTiNb5Sn4
_chemical_formula_sum   'Y1 Ti1 Nb5 Sn4'
_cell_volume   225.77529700
_cell_formula_units_Z   1
loop_
 _symmetry_equiv_pos_site_id
 _symmetry_equiv_pos_as_xyz
  1  'x, y, z'
loop_
 _atom_site_type_symbol
 _atom_site_label
 _atom_site_symmetry_multiplicity
 _atom_site_fract_x
 _atom_site_fract_y
 _atom_site_fract_z
 _atom_site_occupancy
  Y  Y0  1  0.99822075  0.99822075  0.00504412  1
  Ti  Ti0  1  0.39812213  0.39812213  0.89333972  1
  Nb  Nb0  1  0.60172973  0.60172973  0.10982620  1
  Nb  Nb1  1  0.87489827  0.39588687  0.40815105  1
  Nb  Nb2  1  0.39588687  0.87489827  0.40815105  1
  Nb  Nb3  1  0.60747529  0.12183411  0.58928183  1
  Nb  Nb4  1  0.12183411  0.60747529  0.58928183  1
  Sn  Sn0  1  0.13561097  0.13561097  0.11255384  1
  Sn  Sn1  1  0.32883821  0.32883821  0.33582721  1
  Sn  Sn2  1  0.66718343  0.66718343  0.66891989  1
  Sn  Sn3  1  0.87020025  0.87020025  0.87962326  1
loop_
_geom_bond_atom_site_label_1
_geom_bond_atom_site_label_2
_geom_bond_distance
_geom_bond_site_symmetry_2
Nb0 Sn3 2.875052 1_554
Nb0 Sn0 2.945376 1_565
Nb0 Sn0 2.945377 1_655
Nb0 Sn1 2.957341 1_555
Nb0 Sn2 2.961432 1_554
Nb0 Nb2 3.275452 1_555
Nb0 Nb1 3.275452 1_555
Nb1 Nb2 2.772004 1_555
Nb1 Ti0 2.811121 1_555
Nb1 Sn0 2.917766 1_655
Nb1 Sn3 2.939492 1_545
Nb1 Sn2 2.969651 1_555
Nb1 Sn3 2.971730 1_554
Nb1 Sn1 2.976105 1_655
Nb1 Nb2 3.014923 1_645
Nb1 Ti0 3.030372 1_654
Nb1 Nb3 3.140851 1_555
Nb1 Y0 3.814427 1_555
Nb1 Y0 3.849424 1_546
Nb2 Ti0 2.811120 1_555
Nb2 Sn0 2.917766 1_565
Nb2 Sn3 2.939493 1_455
Nb2 Sn2 2.969651 1_555
Nb2 Sn3 2.971731 1_554
Nb2 Sn1 2.976105 1_565
Nb2 Ti0 3.030371 1_564
Nb2 Nb4 3.140851 1_555
Nb2 Y0 3.814428 1_555
Nb2 Y0 3.849424 1_456
Nb3 Sn3 2.933058 1_545
Nb3 Sn0 2.956983 1_556
Nb3 Sn0 2.968353 1_655
Nb3 Sn1 2.973119 1_555
Nb3 Sn2 2.982278 1_545
Nb4 Sn3 2.933058 1_455
Nb4 Sn0 2.956982 1_556
Nb4 Sn0 2.968352 1_565
Nb4 Sn1 2.973119 1_555
Nb4 Sn2 2.982279 1_455
Sn0 Ti0 2.836837 1_554
Sn0 Y0 2.941095 1_445
Sn1 Ti0 2.934413 1_554
Sn1 Y0 3.351443 1_455
Sn1 Y0 3.351444 1_545
Sn1 Y0 3.382371 1_446
Sn2 Ti0 2.908787 1_555
Sn2 Y0 3.359777 1_546
Sn2 Y0 3.359778 1_456
Sn2 Y0 3.364327 1_555
Sn3 Y0 2.934698 1_556
Sn3 Ti0 2.942771 1_565
Sn3 Ti0 2.942771 1_655
