# generated using pymatgen
data_Rb3ScAlSb3
_symmetry_space_group_name_H-M   'P 1'
_cell_length_a   6.50254786
_cell_length_b   8.44700309
_cell_length_c   11.66310413
_cell_angle_alpha   70.19664695
_cell_angle_beta   90.00000000
_cell_angle_gamma   90.00000000
_symmetry_Int_Tables_number   1
_chemical_formula_structural   Rb3ScAlSb3
_chemical_formula_sum   'Rb6 Sc2 Al2 Sb6'
_cell_volume   602.73415825
_cell_formula_units_Z   2
loop_
 _symmetry_equiv_pos_site_id
 _symmetry_equiv_pos_as_xyz
  1  'x, y, z'
loop_
 _atom_site_type_symbol
 _atom_site_label
 _atom_site_symmetry_multiplicity
 _atom_site_fract_x
 _atom_site_fract_y
 _atom_site_fract_z
 _atom_site_occupancy
  Rb  Rb0  1  0.25765452  0.45303435  0.40997954  1
  Rb  Rb1  1  0.74039535  0.13623414  0.94123959  1
  Rb  Rb2  1  0.75763613  0.47284309  0.14465948  1
  Rb  Rb3  1  0.25763613  0.52715691  0.85534052  1
  Rb  Rb4  1  0.75765452  0.54696565  0.59002046  1
  Rb  Rb5  1  0.24039535  0.86376586  0.05876041  1
  Sc  Sc0  1  0.99963696  0.01350832  0.34080469  1
  Sc  Sc1  1  0.49963696  0.98649168  0.65919531  1
  Al  Al0  1  0.49991823  0.01863663  0.34781072  1
  Al  Al1  1  0.99991823  0.98136337  0.65218928  1
  Sb  Sb0  1  0.25317468  0.80912427  0.53657391  1
  Sb  Sb1  1  0.75317468  0.19087573  0.46342609  1
  Sb  Sb2  1  0.26791261  0.23948531  0.17232739  1
  Sb  Sb3  1  0.76791261  0.76051469  0.82767261  1
  Sb  Sb4  1  0.22367152  0.18264585  0.73995245  1
  Sb  Sb5  1  0.72367152  0.81735415  0.26004755  1
loop_
_geom_bond_atom_site_label_1
_geom_bond_atom_site_label_2
_geom_bond_distance
_geom_bond_site_symmetry_2
Rb0 Sb4 3.757722 1_555
Rb0 Sb0 3.773261 1_555
Rb0 Sb2 3.785341 1_555
Rb0 Sb1 3.839174 1_555
Rb0 Sb1 3.888200 1_455
Rb0 Sb5 4.250255 1_555
Rb1 Sb5 3.782395 1_546
Rb1 Sb3 3.834997 1_545
Rb1 Sb4 3.862243 1_655
Rb1 Sb4 4.041187 1_555
Rb2 Sb5 3.603078 1_555
Rb2 Sb3 3.672893 1_554
Rb2 Sb1 3.673661 1_555
Rb2 Sb2 3.701267 1_555
Rb2 Sb2 3.816861 1_655
Rb3 Sb4 3.603078 1_555
Rb3 Sb2 3.672893 1_556
Rb3 Sb0 3.673661 1_555
Rb3 Sb3 3.701267 1_455
Rb3 Sb3 3.816861 1_555
Rb4 Sb5 3.757722 1_555
Rb4 Sb1 3.773261 1_555
Rb4 Sb3 3.785341 1_555
Rb4 Sb0 3.839174 1_655
Rb4 Sb0 3.888200 1_555
Rb4 Sb4 4.250255 1_655
Rb5 Sb4 3.782395 1_564
Rb5 Sb2 3.834997 1_565
Rb5 Sb5 3.862243 1_555
Rb5 Sb5 4.041187 1_455
Al0 Sb5 2.689739 1_545
Al0 Sb2 2.712543 1_555
Al0 Sb0 2.813037 1_545
Al0 Sb1 2.824239 1_555
Al1 Sb4 2.689739 1_665
Al1 Sb3 2.712543 1_555
Al1 Sb1 2.813037 1_565
Al1 Sb0 2.824239 1_655
Sb0 Sc0 2.870705 1_465
Sb0 Sc1 2.882754 1_555
Sb1 Sc1 2.870705 1_545
Sb1 Sc0 2.882754 1_555
Sb2 Sc0 2.829565 1_455
Sb3 Sc1 2.829565 1_555
Sb4 Sc1 2.812491 1_545
Sb5 Sc0 2.812491 1_565
