# generated using pymatgen
data_Fe3Si6Tc6Ni
_symmetry_space_group_name_H-M   'P 1'
_cell_length_a   6.90513824
_cell_length_b   6.90513858
_cell_length_c   4.76323247
_cell_angle_alpha   90.00000000
_cell_angle_beta   90.00000000
_cell_angle_gamma   120.00001264
_symmetry_Int_Tables_number   1
_chemical_formula_structural   Fe3Si6Tc6Ni
_chemical_formula_sum   'Fe3 Si6 Tc6 Ni1'
_cell_volume   196.68766780
_cell_formula_units_Z   1
loop_
 _symmetry_equiv_pos_site_id
 _symmetry_equiv_pos_as_xyz
  1  'x, y, z'
loop_
 _atom_site_type_symbol
 _atom_site_label
 _atom_site_symmetry_multiplicity
 _atom_site_fract_x
 _atom_site_fract_y
 _atom_site_fract_z
 _atom_site_occupancy
  Fe  Fe0  1  0.66666700  0.33333300  0.00000000  1
  Fe  Fe1  1  0.66666700  0.33333300  0.50000000  1
  Fe  Fe2  1  0.33333300  0.66666700  0.00000000  1
  Si  Si0  1  0.40243935  0.99749114  0.75340523  1
  Si  Si1  1  0.40243935  0.40494820  0.24659477  1
  Si  Si2  1  0.00250886  0.59756065  0.24659477  1
  Si  Si3  1  0.00250886  0.40494820  0.75340523  1
  Si  Si4  1  0.59505180  0.59756065  0.75340523  1
  Si  Si5  1  0.59505180  0.99749114  0.24659477  1
  Tc  Tc0  1  0.00052463  0.75996682  0.74669927  1
  Tc  Tc1  1  0.00052463  0.24055781  0.25330073  1
  Tc  Tc2  1  0.75944219  0.75996682  0.25330073  1
  Tc  Tc3  1  0.75944219  0.99947537  0.74669927  1
  Tc  Tc4  1  0.24003318  0.24055781  0.74669927  1
  Tc  Tc5  1  0.24003318  0.99947537  0.25330073  1
  Ni  Ni0  1  0.33333300  0.66666700  0.50000000  1
loop_
_geom_bond_atom_site_label_1
_geom_bond_atom_site_label_2
_geom_bond_distance
_geom_bond_site_symmetry_2
Fe0 Fe1 2.381616 1_554
Fe0 Fe1 2.381616 1_555
Fe0 Si3 2.419779 1_654
Fe0 Si5 2.419779 1_545
Fe0 Si2 2.419780 1_655
Fe0 Si0 2.419780 1_544
Fe0 Si1 2.419785 1_555
Fe0 Si4 2.419785 1_554
Fe0 Tc1 2.942369 1_655
Fe0 Tc3 2.942369 1_544
Fe0 Tc5 2.942372 1_545
Fe0 Tc0 2.942372 1_654
Fe0 Tc4 2.942375 1_554
Fe0 Tc2 2.942375 1_555
Fe1 Si3 2.435690 1_655
Fe1 Si5 2.435690 1_545
Fe1 Si2 2.435692 1_655
Fe1 Si0 2.435692 1_545
Fe1 Si1 2.435696 1_555
Fe1 Si4 2.435696 1_555
Fe1 Tc1 2.929615 1_655
Fe1 Tc3 2.929615 1_545
Fe1 Tc5 2.929619 1_545
Fe1 Tc0 2.929619 1_655
Fe1 Tc4 2.929621 1_555
Fe1 Tc2 2.929621 1_555
Fe2 Ni0 2.381616 1_554
Fe2 Ni0 2.381616 1_555
Fe2 Si2 2.394933 1_555
Fe2 Si0 2.394933 1_554
Fe2 Si3 2.394935 1_554
Fe2 Si5 2.394935 1_555
Fe2 Si4 2.394939 1_554
Fe2 Si1 2.394939 1_555
Fe2 Tc0 2.938115 1_554
Fe2 Tc5 2.938115 1_555
Fe2 Tc3 2.938118 1_554
Fe2 Tc1 2.938118 1_555
Fe2 Tc2 2.938121 1_555
Fe2 Tc4 2.938121 1_554
Si0 Tc0 2.416898 1_555
Si0 Tc4 2.440887 1_565
Si0 Tc3 2.458539 1_555
Si0 Tc5 2.634938 1_556
Si0 Tc5 2.635838 1_555
Si0 Si5 2.699550 1_556
Si0 Si5 2.756194 1_555
Si1 Tc1 2.416898 1_555
Si1 Tc5 2.440887 1_545
Si1 Tc2 2.458539 1_555
Si1 Tc4 2.634938 1_554
Si1 Tc4 2.635838 1_555
Si1 Si4 2.699550 1_554
Si1 Si4 2.756194 1_555
Si2 Tc5 2.416898 1_555
Si2 Tc2 2.440887 1_455
Si2 Tc1 2.458540 1_555
Si2 Tc0 2.634938 1_554
Si2 Tc0 2.635838 1_555
Si2 Si3 2.699550 1_554
Si2 Si3 2.756195 1_555
Si3 Tc4 2.416898 1_555
Si3 Tc3 2.440886 1_445
Si3 Tc0 2.458540 1_555
Si3 Tc1 2.634938 1_556
Si3 Tc1 2.635838 1_555
Si4 Tc3 2.416898 1_555
Si4 Tc0 2.440886 1_655
Si4 Tc4 2.458539 1_555
Si4 Tc2 2.634938 1_556
Si4 Tc2 2.635838 1_555
Si5 Tc2 2.416898 1_555
Si5 Tc1 2.440886 1_665
Si5 Tc5 2.458539 1_555
Si5 Tc3 2.634938 1_554
Si5 Tc3 2.635838 1_555
Tc0 Tc5 2.873759 1_555
Tc0 Tc4 2.873951 1_565
Tc0 Tc3 2.873952 1_455
Tc0 Tc2 2.880028 1_455
Tc0 Tc5 2.925414 1_556
Tc0 Tc2 2.931572 1_456
Tc1 Tc4 2.873759 1_555
Tc1 Tc2 2.873951 1_445
Tc1 Tc5 2.873952 1_545
Tc1 Tc3 2.880027 1_445
Tc1 Tc4 2.925414 1_554
Tc1 Tc3 2.931572 1_444
Tc2 Tc3 2.873760 1_555
Tc2 Tc5 2.873951 1_655
Tc2 Tc3 2.925414 1_554
Tc3 Tc4 2.873951 1_665
Tc4 Tc5 2.880028 1_545
Tc4 Tc5 2.931572 1_546
Ni0 Si2 2.411009 1_555
Ni0 Si0 2.411009 1_555
Ni0 Si3 2.411010 1_555
Ni0 Si5 2.411010 1_555
Ni0 Si4 2.411015 1_555
Ni0 Si1 2.411015 1_555
Ni0 Tc0 2.925343 1_555
Ni0 Tc5 2.925343 1_555
Ni0 Tc3 2.925346 1_555
Ni0 Tc1 2.925346 1_555
Ni0 Tc2 2.925349 1_555
Ni0 Tc4 2.925349 1_555
