# generated using pymatgen
data_Ni8RuSe8
_symmetry_space_group_name_H-M   'P 1'
_cell_length_a   7.38523601
_cell_length_b   7.38523595
_cell_length_c   7.38523746
_cell_angle_alpha   60.00000197
_cell_angle_beta   60.00000224
_cell_angle_gamma   60.00000626
_symmetry_Int_Tables_number   1
_chemical_formula_structural   Ni8RuSe8
_chemical_formula_sum   'Ni8 Ru1 Se8'
_cell_volume   284.82509705
_cell_formula_units_Z   1
loop_
 _symmetry_equiv_pos_site_id
 _symmetry_equiv_pos_as_xyz
  1  'x, y, z'
loop_
 _atom_site_type_symbol
 _atom_site_label
 _atom_site_symmetry_multiplicity
 _atom_site_fract_x
 _atom_site_fract_y
 _atom_site_fract_z
 _atom_site_occupancy
  Ni  Ni0  1  0.63080799  0.12306467  0.12306467  1
  Ni  Ni1  1  0.12306467  0.63080799  0.12306467  1
  Ni  Ni2  1  0.12306467  0.12306467  0.63080799  1
  Ni  Ni3  1  0.12306467  0.12306467  0.12306467  1
  Ni  Ni4  1  0.36919201  0.87693533  0.87693533  1
  Ni  Ni5  1  0.87693533  0.36919201  0.87693533  1
  Ni  Ni6  1  0.87693533  0.87693533  0.36919201  1
  Ni  Ni7  1  0.87693533  0.87693533  0.87693533  1
  Ru  Ru0  1  0.50000000  0.50000000  0.50000000  1
  Se  Se0  1  0.25000000  0.25000000  0.25000000  1
  Se  Se1  1  0.75000000  0.75000000  0.75000000  1
  Se  Se2  1  0.73841951  0.26158049  0.26158049  1
  Se  Se3  1  0.73841951  0.26158049  0.73841951  1
  Se  Se4  1  0.73841951  0.73841951  0.26158049  1
  Se  Se5  1  0.26158049  0.73841951  0.73841951  1
  Se  Se6  1  0.26158049  0.73841951  0.26158049  1
  Se  Se7  1  0.26158049  0.26158049  0.73841951  1
loop_
_geom_bond_atom_site_label_1
_geom_bond_atom_site_label_2
_geom_bond_distance
_geom_bond_site_symmetry_2
Ni0 Se0 2.296280 1_555
Ni0 Se2 2.323146 1_555
Ni0 Se4 2.323158 1_545
Ni0 Se3 2.323159 1_554
Ni1 Se0 2.296280 1_555
Ni1 Se6 2.323146 1_555
Ni1 Se4 2.323158 1_455
Ni1 Se5 2.323159 1_554
Ni2 Se0 2.296280 1_555
Ni2 Se7 2.323146 1_555
Ni2 Se5 2.323158 1_545
Ni2 Se3 2.323158 1_455
Ni3 Se0 2.296268 1_555
Ni3 Se6 2.323158 1_545
Ni3 Se2 2.323158 1_455
Ni3 Se7 2.323158 1_554
Ni4 Se1 2.296280 1_555
Ni4 Se5 2.323146 1_555
Ni4 Se7 2.323158 1_565
Ni4 Se6 2.323159 1_556
Ni5 Se1 2.296280 1_555
Ni5 Se3 2.323146 1_555
Ni5 Se7 2.323158 1_655
Ni5 Se2 2.323159 1_556
Ni6 Se1 2.296280 1_555
Ni6 Se4 2.323146 1_555
Ni6 Se2 2.323158 1_565
Ni6 Se6 2.323158 1_655
Ni7 Se1 2.296268 1_555
Ni7 Se3 2.323158 1_565
Ni7 Se5 2.323158 1_655
Ni7 Se4 2.323158 1_556
Ru0 Se4 2.490125 1_555
Ru0 Se7 2.490125 1_555
Ru0 Se3 2.490125 1_555
Ru0 Se5 2.490125 1_555
Ru0 Se2 2.490125 1_555
Ru0 Se6 2.490125 1_555
