# generated using pymatgen
data_Al2GeBr8
_symmetry_space_group_name_H-M   'P 1'
_cell_length_a   7.17597542
_cell_length_b   7.57523221
_cell_length_c   13.93122966
_cell_angle_alpha   87.48932768
_cell_angle_beta   90.00000000
_cell_angle_gamma   90.00000000
_symmetry_Int_Tables_number   1
_chemical_formula_structural   Al2GeBr8
_chemical_formula_sum   'Al4 Ge2 Br16'
_cell_volume   756.57024340
_cell_formula_units_Z   2
loop_
 _symmetry_equiv_pos_site_id
 _symmetry_equiv_pos_as_xyz
  1  'x, y, z'
loop_
 _atom_site_type_symbol
 _atom_site_label
 _atom_site_symmetry_multiplicity
 _atom_site_fract_x
 _atom_site_fract_y
 _atom_site_fract_z
 _atom_site_occupancy
  Al  Al0  1  0.93598870  0.21539511  0.57862323  1
  Al  Al1  1  0.06401130  0.21539511  0.07862323  1
  Al  Al2  1  0.57240960  0.64378271  0.77842413  1
  Al  Al3  1  0.42759040  0.64378271  0.27842413  1
  Ge  Ge0  1  0.76530966  0.06987191  0.80884459  1
  Ge  Ge1  1  0.23469034  0.06987191  0.30884459  1
  Br  Br0  1  0.42848344  0.61832871  0.63645856  1
  Br  Br1  1  0.57151656  0.61832871  0.13645856  1
  Br  Br2  1  0.88365647  0.74312489  0.75967885  1
  Br  Br3  1  0.11634353  0.74312489  0.25967885  1
  Br  Br4  1  0.93156430  0.47448379  0.49431169  1
  Br  Br5  1  0.06843570  0.47448379  0.99431169  1
  Br  Br6  1  0.93362698  0.98235975  0.00012036  1
  Br  Br7  1  0.06637302  0.98235975  0.50012036  1
  Br  Br8  1  0.63196480  0.12807966  0.62663370  1
  Br  Br9  1  0.36803520  0.12807966  0.12663370  1
  Br  Br10  1  0.57076244  0.38858116  0.87597633  1
  Br  Br11  1  0.42923756  0.38858116  0.37597633  1
  Br  Br12  1  0.44375780  0.87289560  0.86480768  1
  Br  Br13  1  0.55624220  0.87289560  0.36480768  1
  Br  Br14  1  0.91573523  0.23049571  0.22832187  1
  Br  Br15  1  0.08426477  0.23049571  0.72832187  1
loop_
_geom_bond_atom_site_label_1
_geom_bond_atom_site_label_2
_geom_bond_distance
_geom_bond_site_symmetry_2
Al0 Br4 2.242914 1_555
Al0 Br7 2.314493 1_645
Al0 Br15 2.348486 1_655
Al0 Br8 2.367650 1_555
Al1 Br5 2.242914 1_554
Al1 Br6 2.314493 1_445
Al1 Br14 2.348486 1_455
Al1 Br9 2.367650 1_555
Al2 Br0 2.246954 1_555
Al2 Br10 2.313916 1_555
Al2 Br12 2.344308 1_555
Al2 Br2 2.367661 1_555
Al3 Br1 2.246954 1_555
Al3 Br11 2.313916 1_555
Al3 Br13 2.344308 1_555
Al3 Br3 2.367661 1_555
Br2 Ge0 2.732296 1_565
Br3 Ge1 2.732296 1_565
Br6 Ge0 2.973928 1_564
Br7 Ge1 2.973928 1_565
Br8 Ge0 2.730488 1_555
Br9 Ge1 2.730488 1_555
Br10 Ge0 2.974945 1_555
Br11 Ge1 2.974945 1_555
Br12 Ge0 2.838435 1_565
Br13 Ge1 2.838435 1_565
Br14 Ge1 2.803210 1_655
Br15 Ge0 2.803210 1_455
