# generated using pymatgen
data_AlTcOsW
_symmetry_space_group_name_H-M   'P 1'
_cell_length_a   4.34103190
_cell_length_b   4.34103133
_cell_length_c   4.34103165
_cell_angle_alpha   60.00000500
_cell_angle_beta   60.00000936
_cell_angle_gamma   60.00000619
_symmetry_Int_Tables_number   1
_chemical_formula_structural   AlTcOsW
_chemical_formula_sum   'Al1 Tc1 Os1 W1'
_cell_volume   57.84474600
_cell_formula_units_Z   1
loop_
 _symmetry_equiv_pos_site_id
 _symmetry_equiv_pos_as_xyz
  1  'x, y, z'
loop_
 _atom_site_type_symbol
 _atom_site_label
 _atom_site_symmetry_multiplicity
 _atom_site_fract_x
 _atom_site_fract_y
 _atom_site_fract_z
 _atom_site_occupancy
  Al  Al0  1  0.50000000  0.50000000  0.50000000  1
  Tc  Tc0  1  0.25000100  0.25000100  0.25000100  1
  Os  Os0  1  0.75000000  0.75000000  0.75000000  1
  W  W0  1  0.00000000  0.00000000  0.00000000  1
loop_
_geom_bond_atom_site_label_1
_geom_bond_atom_site_label_2
_geom_bond_distance
_geom_bond_site_symmetry_2
Al0 Tc0 2.658317 1_555
Al0 Os0 2.658328 1_555
Al0 Os0 2.658328 1_545
Al0 Os0 2.658328 1_554
Al0 Os0 2.658329 1_455
Al0 Tc0 2.658332 1_565
Al0 Tc0 2.658332 1_556
Al0 Tc0 2.658332 1_655
Tc0 W0 2.658325 1_565
Tc0 W0 2.658325 1_556
Tc0 W0 2.658325 1_655
Tc0 W0 2.658339 1_555
Os0 W0 2.658328 1_666
Os0 W0 2.658328 1_656
Os0 W0 2.658328 1_665
Os0 W0 2.658329 1_566
