# generated using pymatgen
data_Mn2AlCo4Si
_symmetry_space_group_name_H-M   'P 1'
_cell_length_a   6.88358827
_cell_length_b   6.88358814
_cell_length_c   6.88358808
_cell_angle_alpha   33.55563428
_cell_angle_beta   33.55564016
_cell_angle_gamma   33.55563735
_symmetry_Int_Tables_number   1
_chemical_formula_structural   Mn2AlCo4Si
_chemical_formula_sum   'Mn2 Al1 Co4 Si1'
_cell_volume   88.76430025
_cell_formula_units_Z   1
loop_
 _symmetry_equiv_pos_site_id
 _symmetry_equiv_pos_as_xyz
  1  'x, y, z'
loop_
 _atom_site_type_symbol
 _atom_site_label
 _atom_site_symmetry_multiplicity
 _atom_site_fract_x
 _atom_site_fract_y
 _atom_site_fract_z
 _atom_site_occupancy
  Mn  Mn0  1  0.25099730  0.25099730  0.25099730  1
  Mn  Mn1  1  0.74900270  0.74900270  0.74900270  1
  Al  Al0  1  0.00000000  0.00000000  0.00000000  1
  Co  Co0  1  0.87267661  0.87267661  0.87267661  1
  Co  Co1  1  0.37769968  0.37769968  0.37769968  1
  Co  Co2  1  0.12732339  0.12732339  0.12732339  1
  Co  Co3  1  0.62230032  0.62230032  0.62230032  1
  Si  Si0  1  0.50000000  0.50000000  0.50000000  1
loop_
_geom_bond_atom_site_label_1
_geom_bond_atom_site_label_2
_geom_bond_distance
_geom_bond_site_symmetry_2
Mn0 Si0 2.821383 1_545
Mn0 Si0 2.821384 1_554
Mn0 Si0 2.821384 1_455
Mn1 Si0 2.821383 1_565
Mn1 Si0 2.821384 1_556
Mn1 Si0 2.821384 1_655
Al0 Co1 2.451635 1_545
Al0 Co3 2.451635 1_454
Al0 Co1 2.451635 1_554
Al0 Co3 2.451635 1_445
Al0 Co1 2.451636 1_455
Al0 Co3 2.451636 1_544
Al0 Co2 2.478967 1_555
Al0 Co0 2.478967 1_444
Co0 Mn1 2.407912 1_555
Co0 Si0 2.418909 1_565
Co0 Si0 2.418909 1_556
Co0 Si0 2.418910 1_655
Co0 Mn0 2.455921 1_656
Co0 Mn0 2.455922 1_665
Co0 Mn0 2.455922 1_566
Co1 Si0 2.381168 1_555
Co1 Mn1 2.410574 1_545
Co1 Mn1 2.410574 1_554
Co1 Mn1 2.410574 1_455
Co1 Mn0 2.466876 1_555
Co2 Mn0 2.407912 1_555
Co2 Si0 2.418909 1_545
Co2 Si0 2.418909 1_554
Co2 Si0 2.418910 1_455
Co2 Mn1 2.455921 1_454
Co2 Mn1 2.455922 1_445
Co2 Mn1 2.455922 1_544
Co3 Si0 2.381168 1_555
Co3 Mn0 2.410574 1_565
Co3 Mn0 2.410574 1_556
Co3 Mn0 2.410574 1_655
Co3 Mn1 2.466876 1_555
