# generated using pymatgen
data_Na2LiAlBi2
_symmetry_space_group_name_H-M   'P 1'
_cell_length_a   10.04608266
_cell_length_b   10.04608272
_cell_length_c   6.43107287
_cell_angle_alpha   90.00000000
_cell_angle_beta   90.00000000
_cell_angle_gamma   98.40616110
_symmetry_Int_Tables_number   1
_chemical_formula_structural   Na2LiAlBi2
_chemical_formula_sum   'Na8 Li4 Al4 Bi8'
_cell_volume   642.07519509
_cell_formula_units_Z   4
loop_
 _symmetry_equiv_pos_site_id
 _symmetry_equiv_pos_as_xyz
  1  'x, y, z'
loop_
 _atom_site_type_symbol
 _atom_site_label
 _atom_site_symmetry_multiplicity
 _atom_site_fract_x
 _atom_site_fract_y
 _atom_site_fract_z
 _atom_site_occupancy
  Na  Na0  1  0.57821345  0.92178655  0.25000000  1
  Na  Na1  1  0.67069813  0.32930187  0.22382345  1
  Na  Na2  1  0.32930187  0.67069813  0.77617655  1
  Na  Na3  1  0.07821345  0.42178655  0.25000000  1
  Na  Na4  1  0.92178655  0.57821345  0.75000000  1
  Na  Na5  1  0.42178655  0.07821345  0.75000000  1
  Na  Na6  1  0.82930187  0.17069813  0.72382345  1
  Na  Na7  1  0.17069813  0.82930187  0.27617655  1
  Li  Li0  1  0.87931668  0.87931668  0.50000000  1
  Li  Li1  1  0.12068332  0.12068332  0.50000000  1
  Li  Li2  1  0.62068332  0.62068332  0.00000000  1
  Li  Li3  1  0.37931668  0.37931668  0.00000000  1
  Al  Al0  1  0.87095162  0.87095162  0.00000000  1
  Al  Al1  1  0.12904838  0.12904838  0.00000000  1
  Al  Al2  1  0.37095162  0.37095162  0.50000000  1
  Al  Al3  1  0.62904838  0.62904838  0.50000000  1
  Bi  Bi0  1  0.11349141  0.88650859  0.77664625  1
  Bi  Bi1  1  0.61349141  0.38650859  0.72335375  1
  Bi  Bi2  1  0.88650859  0.11349141  0.22335375  1
  Bi  Bi3  1  0.38650859  0.61349141  0.27664625  1
  Bi  Bi4  1  0.36243501  0.13756499  0.25000000  1
  Bi  Bi5  1  0.13756499  0.36243501  0.75000000  1
  Bi  Bi6  1  0.63756499  0.86243501  0.75000000  1
  Bi  Bi7  1  0.86243501  0.63756499  0.25000000  1
loop_
_geom_bond_atom_site_label_1
_geom_bond_atom_site_label_2
_geom_bond_distance
_geom_bond_site_symmetry_2
Li0 Na7 3.364993 1_655
Li0 Na6 3.364993 1_565
Li0 Na0 3.506332 1_555
Li0 Na4 3.506332 1_555
Li1 Na6 3.364993 1_455
Li1 Na7 3.364993 1_545
Li1 Na5 3.506332 1_555
Li1 Na3 3.506332 1_555
Li2 Na2 3.364993 1_554
Li2 Na1 3.364993 1_555
Li2 Na4 3.506332 1_554
Li2 Na0 3.506332 1_555
Li3 Na1 3.364993 1_555
Li3 Na2 3.364993 1_554
Li3 Na3 3.506332 1_555
Li3 Na5 3.506332 1_554
Al0 Bi0 2.813048 1_654
Al0 Bi2 2.813048 1_565
Al0 Bi6 2.833873 1_554
Al0 Bi7 2.833873 1_555
Al0 Na0 3.454500 1_555
Al0 Na4 3.454500 1_554
Al1 Bi2 2.813048 1_455
Al1 Bi0 2.813048 1_544
Al1 Bi4 2.833873 1_555
Al1 Bi5 2.833873 1_554
Al1 Na5 3.454500 1_554
Al1 Na3 3.454500 1_555
Al2 Bi1 2.813048 1_555
Al2 Bi3 2.813048 1_555
Al2 Bi5 2.833873 1_555
Al2 Bi4 2.833873 1_555
Al2 Na3 3.454500 1_555
Al2 Na5 3.454500 1_555
Al3 Bi3 2.813048 1_555
Al3 Bi1 2.813048 1_555
Al3 Bi7 2.833873 1_555
Al3 Bi6 2.833873 1_555
Al3 Na4 3.454500 1_555
Al3 Na0 3.454500 1_555
Bi0 Li0 2.941985 1_455
Bi0 Li1 2.941985 1_565
Bi0 Na2 3.282560 1_555
Bi0 Na7 3.328272 1_556
Bi0 Na7 3.334103 1_555
Bi0 Na5 3.403940 1_565
Bi0 Na4 3.403940 1_455
Bi1 Li3 2.941985 1_556
Bi1 Li2 2.941985 1_556
Bi1 Na6 3.282560 1_555
Bi1 Na1 3.328272 1_555
Bi1 Na1 3.334103 1_556
Bi1 Na4 3.403940 1_555
Bi1 Na5 3.403940 1_555
Bi2 Li1 2.941985 1_655
Bi2 Li0 2.941985 1_545
Bi2 Na1 3.282560 1_555
Bi2 Na6 3.328272 1_554
Bi2 Na6 3.334103 1_555
Bi2 Na0 3.403940 1_545
Bi2 Na3 3.403940 1_655
Bi3 Li2 2.941985 1_555
Bi3 Li3 2.941985 1_555
Bi3 Na7 3.282560 1_555
Bi3 Na2 3.328272 1_555
Bi3 Na2 3.334103 1_554
Bi3 Na3 3.403940 1_555
Bi3 Na0 3.403940 1_555
Bi4 Li1 2.896831 1_555
Bi4 Li3 2.896831 1_555
Bi4 Na0 3.282071 1_545
Bi4 Na5 3.339858 1_555
Bi4 Na5 3.339858 1_554
Bi4 Na1 3.403663 1_555
Bi4 Na7 3.403663 1_545
Bi5 Li3 2.896831 1_556
Bi5 Li1 2.896831 1_555
Bi5 Na4 3.282071 1_455
Bi5 Na3 3.339858 1_556
Bi5 Na3 3.339858 1_555
Bi5 Na6 3.403663 1_455
Bi5 Na2 3.403663 1_555
Bi6 Li0 2.896831 1_555
Bi6 Li2 2.896831 1_556
Bi6 Na5 3.282071 1_565
Bi6 Na0 3.339858 1_555
Bi6 Na0 3.339858 1_556
Bi6 Na2 3.403663 1_555
Bi6 Na6 3.403663 1_565
Bi7 Li2 2.896831 1_555
Bi7 Li0 2.896831 1_555
Bi7 Na3 3.282071 1_655
Bi7 Na4 3.339858 1_554
Bi7 Na4 3.339858 1_555
Bi7 Na7 3.403663 1_655
Bi7 Na1 3.403663 1_555
