# generated using pymatgen
data_Sc16Ni5Ag3
_symmetry_space_group_name_H-M   'P 1'
_cell_length_a   8.72070291
_cell_length_b   8.77534153
_cell_length_c   8.77534263
_cell_angle_alpha   59.99999586
_cell_angle_beta   59.79252100
_cell_angle_gamma   59.79252452
_symmetry_Int_Tables_number   1
_chemical_formula_structural   Sc16Ni5Ag3
_chemical_formula_sum   'Sc16 Ni5 Ag3'
_cell_volume   473.36429028
_cell_formula_units_Z   1
loop_
 _symmetry_equiv_pos_site_id
 _symmetry_equiv_pos_as_xyz
  1  'x, y, z'
loop_
 _atom_site_type_symbol
 _atom_site_label
 _atom_site_symmetry_multiplicity
 _atom_site_fract_x
 _atom_site_fract_y
 _atom_site_fract_z
 _atom_site_occupancy
  Sc  Sc0  1  0.19553628  0.60148791  0.60148791  1
  Sc  Sc1  1  0.60084935  0.17702151  0.61106457  1
  Sc  Sc2  1  0.60084935  0.61106457  0.17702151  1
  Sc  Sc3  1  0.60084935  0.61106457  0.61106457  1
  Sc  Sc4  1  0.81421919  0.81298107  0.18640037  1
  Sc  Sc5  1  0.19427605  0.17498808  0.81536743  1
  Sc  Sc6  1  0.81421919  0.18640037  0.81298107  1
  Sc  Sc7  1  0.19427605  0.81536743  0.17498808  1
  Sc  Sc8  1  0.19427605  0.81536743  0.81536743  1
  Sc  Sc9  1  0.81421919  0.18640037  0.18640037  1
  Sc  Sc10  1  0.43511115  0.44092879  0.06197953  1
  Sc  Sc11  1  0.06408432  0.06342295  0.43624587  1
  Sc  Sc12  1  0.43511115  0.06197953  0.44092879  1
  Sc  Sc13  1  0.06408432  0.43624587  0.06342295  1
  Sc  Sc14  1  0.06408432  0.43624587  0.43624587  1
  Sc  Sc15  1  0.43511115  0.06197953  0.06197953  1
  Ni  Ni0  1  0.80568894  0.39810402  0.39810402  1
  Ni  Ni1  1  0.39984226  0.81427378  0.39294198  1
  Ni  Ni2  1  0.39984226  0.39294198  0.81427378  1
  Ni  Ni3  1  0.39984226  0.39294198  0.39294198  1
  Ni  Ni4  1  0.48634028  0.83788757  0.83788757  1
  Ag  Ag0  1  0.82909418  0.50582621  0.83254030  1
  Ag  Ag1  1  0.82909418  0.83254030  0.50582621  1
  Ag  Ag2  1  0.82909418  0.83254030  0.83254030  1
loop_
_geom_bond_atom_site_label_1
_geom_bond_atom_site_label_2
_geom_bond_distance
_geom_bond_site_symmetry_2
Ni0 Sc14 2.632823 1_655
Ni0 Sc11 2.632834 1_655
Ni0 Sc13 2.632834 1_655
Ni0 Sc3 2.636249 1_555
Ni0 Sc1 2.636255 1_555
Ni0 Sc2 2.636255 1_555
Ni0 Sc4 3.175114 1_555
Ni0 Sc6 3.175115 1_555
Ni0 Sc9 3.175115 1_555
Ni1 Sc0 2.580646 1_555
Ni1 Sc12 2.591397 1_565
Ni1 Sc15 2.591403 1_565
Ni1 Sc2 2.594993 1_555
Ni1 Sc3 2.594993 1_555
Ni1 Sc11 2.601414 1_565
Ni1 Sc4 3.119668 1_555
Ni2 Sc0 2.580646 1_555
Ni2 Sc10 2.591397 1_556
Ni2 Sc15 2.591402 1_556
Ni2 Sc3 2.594993 1_555
Ni2 Sc1 2.594993 1_555
Ni2 Sc13 2.601414 1_556
Ni2 Sc6 3.119668 1_555
Ni3 Sc0 2.580646 1_555
Ni3 Sc12 2.591405 1_555
Ni3 Sc10 2.591406 1_555
Ni3 Sc2 2.594993 1_555
Ni3 Sc1 2.594993 1_555
Ni3 Sc14 2.601417 1_555
Ni3 Sc9 3.119665 1_555
Ni4 Sc5 2.759943 1_565
Ni4 Sc7 2.759943 1_556
Ni4 Sc8 2.759963 1_555
Ni4 Sc1 2.980353 1_565
Ni4 Sc2 2.980353 1_556
Ni4 Sc3 2.980375 1_555
Ni4 Sc15 3.167441 1_566
Ni4 Sc10 3.167471 1_556
Ni4 Sc12 3.167472 1_565
Ag0 Ag2 2.867028 1_555
Ag0 Ag1 2.867028 1_555
Ag0 Ni4 2.942589 1_555
Ag0 Sc9 2.961910 1_556
Ag0 Sc6 2.961910 1_555
Ag0 Sc2 2.973247 1_556
Ag0 Sc3 2.973254 1_555
Ag0 Sc5 3.040440 1_655
Ag0 Sc0 3.083050 1_655
Ag0 Sc10 3.169260 1_556
Ag0 Sc13 3.218561 1_656
Ag0 Sc14 3.218576 1_655
Ag1 Ag2 2.867028 1_555
Ag1 Ni4 2.942589 1_555
Ag1 Sc9 2.961909 1_565
Ag1 Sc4 2.961910 1_555
Ag1 Sc1 2.973247 1_565
Ag1 Sc3 2.973254 1_555
Ag1 Sc7 3.040440 1_655
Ag1 Sc0 3.083050 1_655
Ag1 Sc12 3.169260 1_565
Ag1 Sc11 3.218561 1_665
Ag1 Sc14 3.218576 1_655
Ag2 Ni4 2.942580 1_555
Ag2 Sc6 2.961909 1_565
Ag2 Sc4 2.961910 1_556
Ag2 Sc2 2.973251 1_556
Ag2 Sc1 2.973251 1_565
Ag2 Sc8 3.040432 1_655
Ag2 Sc0 3.083054 1_655
Ag2 Sc15 3.169253 1_566
Ag2 Sc11 3.218568 1_665
Ag2 Sc13 3.218569 1_656
