# generated using pymatgen
data_Co2SnO4
_symmetry_space_group_name_H-M   'P 1'
_cell_length_a   6.12973524
_cell_length_b   6.12973464
_cell_length_c   6.12970757
_cell_angle_alpha   121.64424421
_cell_angle_beta   119.01860558
_cell_angle_gamma   89.44204811
_symmetry_Int_Tables_number   1
_chemical_formula_structural   Co2SnO4
_chemical_formula_sum   'Co4 Sn2 O8'
_cell_volume   161.92591538
_cell_formula_units_Z   2
loop_
 _symmetry_equiv_pos_site_id
 _symmetry_equiv_pos_as_xyz
  1  'x, y, z'
loop_
 _atom_site_type_symbol
 _atom_site_label
 _atom_site_symmetry_multiplicity
 _atom_site_fract_x
 _atom_site_fract_y
 _atom_site_fract_z
 _atom_site_occupancy
  Co  Co0  1  0.11173452  0.86172336  0.24998997  1
  Co  Co1  1  0.88826481  0.13824923  0.74998322  1
  Co  Co2  1  0.49999704  0.00000606  0.00000904  1
  Co  Co3  1  0.50000323  0.50001193  0.50000873  1
  Sn  Sn0  1  -0.00000011  0.49999259  0.49999261  1
  Sn  Sn1  1  0.49999989  0.49999253  -0.00000732  1
  O  O0  1  0.74787655  0.26390155  0.01602219  1
  O  O1  1  0.74788310  0.73184765  0.48396572  1
  O  O2  1  0.74859569  0.26527148  0.48334145  1
  O  O3  1  0.28192925  0.26527226  0.01667851  1
  O  O4  1  0.71807080  0.73475026  0.98334375  1
  O  O5  1  0.25140467  0.73475109  0.51668106  1
  O  O6  1  0.25212509  0.26814972  0.51602347  1
  O  O7  1  0.25211546  0.73608028  0.98396760  1
loop_
_geom_bond_atom_site_label_1
_geom_bond_atom_site_label_2
_geom_bond_distance
_geom_bond_site_symmetry_2
Co0 O5 1.993822 1_555
Co0 O4 1.993831 1_454
Co0 O7 2.005807 1_554
Co0 O6 2.005930 1_565
Co1 O2 1.993825 1_555
Co1 O3 1.993834 1_656
Co1 O1 2.005807 1_545
Co1 O0 2.005924 1_556
Co2 O5 2.087299 1_544
Co2 O4 2.087311 1_544
Co2 O2 2.087321 1_555
Co2 O3 2.087334 1_555
Co2 O0 2.161377 1_555
Co2 O7 2.161402 1_544
Co3 O3 2.087306 1_555
Co3 O2 2.087326 1_555
Co3 O4 2.087330 1_555
Co3 O5 2.087350 1_555
Co3 O6 2.161347 1_555
Co3 O1 2.161370 1_555
O0 Sn1 2.091444 1_555
O0 Sn0 2.091449 1_655
O1 Sn1 2.091459 1_555
O1 Sn0 2.091461 1_655
O2 Sn0 2.047389 1_655
O3 Sn1 2.047400 1_555
O4 Sn1 2.047403 1_556
O5 Sn0 2.047392 1_555
O6 Sn1 2.091444 1_556
O6 Sn0 2.091447 1_555
O7 Sn1 2.091462 1_556
O7 Sn0 2.091467 1_555
