# generated using pymatgen
data_Cr3Ag2AsSe8
_symmetry_space_group_name_H-M   'P 1'
_cell_length_a   7.66809554
_cell_length_b   7.66809484
_cell_length_c   7.66809514
_cell_angle_alpha   58.83238826
_cell_angle_beta   58.83239364
_cell_angle_gamma   58.83239659
_symmetry_Int_Tables_number   1
_chemical_formula_structural   Cr3Ag2AsSe8
_chemical_formula_sum   'Cr3 Ag2 As1 Se8'
_cell_volume   310.32177275
_cell_formula_units_Z   1
loop_
 _symmetry_equiv_pos_site_id
 _symmetry_equiv_pos_as_xyz
  1  'x, y, z'
loop_
 _atom_site_type_symbol
 _atom_site_label
 _atom_site_symmetry_multiplicity
 _atom_site_fract_x
 _atom_site_fract_y
 _atom_site_fract_z
 _atom_site_occupancy
  Cr  Cr0  1  0.50000000  0.00000000  0.50000000  1
  Cr  Cr1  1  0.50000000  0.50000000  0.00000000  1
  Cr  Cr2  1  0.00000000  0.50000000  0.50000000  1
  Ag  Ag0  1  0.12970041  0.12970041  0.12970041  1
  Ag  Ag1  1  0.87029959  0.87029959  0.87029959  1
  As  As0  1  0.50000000  0.50000000  0.50000000  1
  Se  Se0  1  0.25628725  0.71351862  0.25628725  1
  Se  Se1  1  0.74371275  0.74371275  0.28648138  1
  Se  Se2  1  0.28648138  0.74371275  0.74371275  1
  Se  Se3  1  0.73566359  0.73566359  0.73566359  1
  Se  Se4  1  0.71351862  0.25628725  0.25628725  1
  Se  Se5  1  0.26433641  0.26433641  0.26433641  1
  Se  Se6  1  0.74371275  0.28648138  0.74371275  1
  Se  Se7  1  0.25628725  0.25628725  0.71351862  1
loop_
_geom_bond_atom_site_label_1
_geom_bond_atom_site_label_2
_geom_bond_distance
_geom_bond_site_symmetry_2
Cr0 Se4 2.529267 1_555
Cr0 Se2 2.529267 1_545
Cr0 Se7 2.529267 1_555
Cr0 Se1 2.529267 1_545
Cr0 Se3 2.537132 1_545
Cr0 Se5 2.537132 1_555
Cr1 Se4 2.529267 1_555
Cr1 Se2 2.529267 1_554
Cr1 Se0 2.529267 1_555
Cr1 Se6 2.529267 1_554
Cr1 Se3 2.537131 1_554
Cr1 Se5 2.537131 1_555
Cr2 Se0 2.529267 1_555
Cr2 Se6 2.529267 1_455
Cr2 Se7 2.529267 1_555
Cr2 Se1 2.529267 1_455
Cr2 Se3 2.537132 1_455
Cr2 Se5 2.537132 1_555
Ag0 Se5 2.550943 1_555
Ag0 Se0 2.575144 1_545
Ag0 Se7 2.575144 1_554
Ag0 Se4 2.575144 1_455
Ag1 Se3 2.550943 1_555
Ag1 Se6 2.575144 1_565
Ag1 Se1 2.575144 1_556
Ag1 Se2 2.575144 1_655
As0 Se1 2.635593 1_555
As0 Se7 2.635593 1_555
As0 Se6 2.635593 1_555
As0 Se0 2.635593 1_555
As0 Se2 2.635593 1_555
As0 Se4 2.635593 1_555
