# generated using pymatgen
data_KNi2(Sb6Ru)2
_symmetry_space_group_name_H-M   'P 1'
_cell_length_a   8.06234053
_cell_length_b   8.04341645
_cell_length_c   8.04341704
_cell_angle_alpha   109.19198976
_cell_angle_beta   109.60608246
_cell_angle_gamma   109.52013214
_symmetry_Int_Tables_number   1
_chemical_formula_structural   KNi2(Sb6Ru)2
_chemical_formula_sum   'K1 Ni2 Sb12 Ru2'
_cell_volume   402.00016461
_cell_formula_units_Z   1
loop_
 _symmetry_equiv_pos_site_id
 _symmetry_equiv_pos_as_xyz
  1  'x, y, z'
loop_
 _atom_site_type_symbol
 _atom_site_label
 _atom_site_symmetry_multiplicity
 _atom_site_fract_x
 _atom_site_fract_y
 _atom_site_fract_z
 _atom_site_occupancy
  K  K0  1  0.00000000  0.00000000  0.00000000  1
  Ni  Ni0  1  0.50000000  0.50000000  0.50000000  1
  Ni  Ni1  1  0.50000000  0.00000000  0.00000000  1
  Sb  Sb0  1  0.16076351  0.49952339  0.34292953  1
  Sb  Sb1  1  0.50015221  0.65897405  0.84117816  1
  Sb  Sb2  1  0.34207641  0.84296011  0.18221833  1
  Sb  Sb3  1  0.81610535  0.65895062  0.15715474  1
  Sb  Sb4  1  0.65792359  0.84014092  0.50088370  1
  Sb  Sb5  1  0.18389465  0.34104938  0.84284526  1
  Sb  Sb6  1  0.65792359  0.15703989  0.81778167  1
  Sb  Sb7  1  0.34207641  0.15985908  0.49911630  1
  Sb  Sb8  1  0.49984779  0.34102595  0.15882184  1
  Sb  Sb9  1  0.83923649  0.50047661  0.65707047  1
  Sb  Sb10  1  0.83923649  0.18216802  0.33875988  1
  Sb  Sb11  1  0.16076351  0.81783198  0.66124012  1
  Ru  Ru0  1  0.00000000  0.50000000  0.00000000  1
  Ru  Ru1  1  0.00000000  0.00000000  0.50000000  1
loop_
_geom_bond_atom_site_label_1
_geom_bond_atom_site_label_2
_geom_bond_distance
_geom_bond_site_symmetry_2
K0 Sb5 3.484360 1_554
K0 Sb3 3.484360 1_445
K0 Sb7 3.490326 1_555
K0 Sb4 3.490326 1_444
K0 Sb2 3.490328 1_545
K0 Sb6 3.490328 1_454
K0 Sb8 3.500067 1_555
K0 Sb1 3.500067 1_444
K0 Sb9 3.502241 1_444
K0 Sb0 3.502241 1_555
K0 Sb10 3.502245 1_455
K0 Sb11 3.502245 1_544
Ni0 Sb9 2.597590 1_555
Ni0 Sb0 2.597590 1_555
Ni0 Sb4 2.599912 1_555
Ni0 Sb7 2.599912 1_555
Ni0 Sb1 2.618303 1_555
Ni0 Sb8 2.618303 1_555
Ni1 Sb10 2.597588 1_555
Ni1 Sb11 2.597588 1_544
Ni1 Sb6 2.599919 1_554
Ni1 Sb2 2.599919 1_545
Ni1 Sb8 2.618302 1_555
Ni1 Sb1 2.618302 1_544
Sb0 Sb10 2.949603 1_455
Sb0 Sb11 2.966555 1_555
Sb1 Sb3 2.933271 1_556
Sb1 Sb5 2.954480 1_555
Sb2 Sb7 2.953404 1_565
Sb2 Sb4 2.958260 1_555
Sb3 Sb8 2.954480 1_555
Sb4 Sb6 2.953404 1_565
Sb5 Sb8 2.933271 1_556
Sb6 Sb7 2.958260 1_555
Sb10 Sb9 2.966555 1_555
Sb11 Sb9 2.949603 1_455
Ru0 Sb3 2.625362 1_455
Ru0 Sb5 2.625362 1_554
Ru0 Sb0 2.626653 1_555
Ru0 Sb9 2.626653 1_454
Ru0 Sb2 2.628480 1_555
Ru0 Sb6 2.628480 1_454
Ru1 Sb5 2.625362 1_555
Ru1 Sb3 2.625362 1_445
Ru1 Sb11 2.626667 1_545
Ru1 Sb10 2.626667 1_455
Ru1 Sb7 2.628480 1_555
Ru1 Sb4 2.628480 1_445
