# generated using pymatgen
data_K3Al2Sb2P
_symmetry_space_group_name_H-M   'P 1'
_cell_length_a   6.13034155
_cell_length_b   7.90067807
_cell_length_c   10.91486869
_cell_angle_alpha   69.51498748
_cell_angle_beta   90.00000000
_cell_angle_gamma   90.00000000
_symmetry_Int_Tables_number   1
_chemical_formula_structural   K3Al2Sb2P
_chemical_formula_sum   'K6 Al4 Sb4 P2'
_cell_volume   495.21938488
_cell_formula_units_Z   2
loop_
 _symmetry_equiv_pos_site_id
 _symmetry_equiv_pos_as_xyz
  1  'x, y, z'
loop_
 _atom_site_type_symbol
 _atom_site_label
 _atom_site_symmetry_multiplicity
 _atom_site_fract_x
 _atom_site_fract_y
 _atom_site_fract_z
 _atom_site_occupancy
  K  K0  1  0.25000000  0.48479910  0.41048203  1
  K  K1  1  0.75000000  0.12776679  0.92952262  1
  K  K2  1  0.75000000  0.45894065  0.15856010  1
  K  K3  1  0.25000000  0.54105935  0.84143990  1
  K  K4  1  0.75000000  0.51520090  0.58951797  1
  K  K5  1  0.25000000  0.87223321  0.07047738  1
  Al  Al0  1  0.00001494  0.01930409  0.35956646  1
  Al  Al1  1  0.50001494  0.98069591  0.64043354  1
  Al  Al2  1  0.49998506  0.01930409  0.35956646  1
  Al  Al3  1  0.99998506  0.98069591  0.64043354  1
  Sb  Sb0  1  0.25000000  0.25945734  0.17979975  1
  Sb  Sb1  1  0.75000000  0.74054266  0.82020025  1
  Sb  Sb2  1  0.25000000  0.18472566  0.73382861  1
  Sb  Sb3  1  0.75000000  0.81527434  0.26617139  1
  P  P0  1  0.25000000  0.83466923  0.53060685  1
  P  P1  1  0.75000000  0.16533077  0.46939315  1
loop_
_geom_bond_atom_site_label_1
_geom_bond_atom_site_label_2
_geom_bond_distance
_geom_bond_site_symmetry_2
K0 P0 3.449159 1_555
K0 Sb2 3.495723 1_555
K0 Sb0 3.556242 1_555
K0 Sb3 3.976806 1_455
K0 Sb3 3.976806 1_555
K1 Sb3 3.639725 1_546
K1 Sb1 3.652181 1_545
K1 Sb2 3.672518 1_655
K1 Sb2 3.672518 1_555
K2 P1 3.373875 1_555
K2 Sb3 3.408789 1_555
K2 Sb0 3.417196 1_555
K2 Sb0 3.417196 1_655
K2 Sb1 3.583051 1_554
K3 P0 3.373875 1_555
K3 Sb2 3.408789 1_555
K3 Sb1 3.417196 1_455
K3 Sb1 3.417196 1_555
K3 Sb0 3.583051 1_556
K4 P1 3.449159 1_555
K4 Sb3 3.495723 1_555
K4 Sb1 3.556242 1_555
K4 Sb2 3.976806 1_655
K4 Sb2 3.976806 1_555
K5 Sb2 3.639725 1_564
K5 Sb0 3.652181 1_565
K5 Sb3 3.672518 1_455
K5 Sb3 3.672518 1_555
Al0 P0 2.460815 1_545
Al0 P1 2.466806 1_455
Al0 Sb3 2.671491 1_445
Al0 Sb0 2.681934 1_555
Al1 P1 2.460815 1_565
Al1 P0 2.466806 1_555
Al1 Sb2 2.671491 1_565
Al1 Sb1 2.681934 1_555
Al2 P0 2.460815 1_545
Al2 P1 2.466806 1_555
Al2 Sb3 2.671491 1_545
Al2 Sb0 2.681934 1_555
Al3 P1 2.460815 1_565
Al3 P0 2.466806 1_655
Al3 Sb2 2.671491 1_665
Al3 Sb1 2.681934 1_555
