# generated using pymatgen
data_Na4CaTeO6
_symmetry_space_group_name_H-M   'P 1'
_cell_length_a   5.69078480
_cell_length_b   5.69078525
_cell_length_c   5.69727159
_cell_angle_alpha   99.96245080
_cell_angle_beta   99.96244960
_cell_angle_gamma   119.79254332
_symmetry_Int_Tables_number   1
_chemical_formula_structural   Na4CaTeO6
_chemical_formula_sum   'Na4 Ca1 Te1 O6'
_cell_volume   150.29365449
_cell_formula_units_Z   1
loop_
 _symmetry_equiv_pos_site_id
 _symmetry_equiv_pos_as_xyz
  1  'x, y, z'
loop_
 _atom_site_type_symbol
 _atom_site_label
 _atom_site_symmetry_multiplicity
 _atom_site_fract_x
 _atom_site_fract_y
 _atom_site_fract_z
 _atom_site_occupancy
  Na  Na0  1  0.49936873  0.50063127  0.00000000  1
  Na  Na1  1  0.00629201  0.99370799  0.50000000  1
  Na  Na2  1  0.66037140  0.33962960  0.50000000  1
  Na  Na3  1  0.33620205  0.66379795  0.50000000  1
  Ca  Ca0  1  0.83302998  0.16697102  1.00000000  1
  Te  Te0  1  0.16679905  0.83320095  0.00000000  1
  O  O0  1  0.95896272  0.62034560  0.20480135  1
  O  O1  1  0.23089729  0.18284803  0.21384888  1
  O  O2  1  0.52181740  0.91057800  0.21506129  1
  O  O3  1  0.08942200  0.47818260  0.78493871  1
  O  O4  1  0.81715197  0.76910271  0.78615112  1
  O  O5  1  0.37965540  0.04103728  0.79519865  1
loop_
_geom_bond_atom_site_label_1
_geom_bond_atom_site_label_2
_geom_bond_distance
_geom_bond_site_symmetry_2
Na0 O0 2.358931 1_555
Na0 O5 2.358933 1_554
Na0 O3 2.370811 1_554
Na0 O2 2.370811 1_555
Na0 O4 2.397886 1_554
Na0 O1 2.397886 1_555
Na1 O1 2.326182 1_565
Na1 O4 2.326182 1_455
Na1 O0 2.335316 1_455
Na1 O5 2.335320 1_565
Na1 O2 2.711083 1_455
Na1 O3 2.711083 1_565
Na2 O4 2.319127 1_555
Na2 O1 2.319130 1_555
Na2 O3 2.343329 1_655
Na2 O2 2.343332 1_545
Na2 O0 2.736577 1_555
Na2 O5 2.736579 1_555
Na3 O5 2.361715 1_565
Na3 O0 2.361717 1_455
Na3 O3 2.373055 1_555
Na3 O2 2.373055 1_555
Na3 O4 2.645032 1_555
Na3 O1 2.645032 1_555
Ca0 O5 2.315894 1_555
Ca0 O0 2.315896 1_556
Ca0 O1 2.328775 1_656
Ca0 O4 2.328777 1_545
Ca0 O3 2.359721 1_655
Ca0 O2 2.359726 1_546
O0 Te0 1.941771 1_655
O1 Te0 1.965399 1_545
O2 Te0 1.962059 1_555
O3 Te0 1.962059 1_556
O4 Te0 1.965399 1_656
O5 Te0 1.941773 1_546
