# generated using pymatgen
data_K4Na3TaAs4
_symmetry_space_group_name_H-M   'P 1'
_cell_length_a   8.27849032
_cell_length_b   8.54234665
_cell_length_c   9.52818045
_cell_angle_alpha   90.00000000
_cell_angle_beta   90.00000000
_cell_angle_gamma   90.00000000
_symmetry_Int_Tables_number   1
_chemical_formula_structural   K4Na3TaAs4
_chemical_formula_sum   'K8 Na6 Ta2 As8'
_cell_volume   673.81133089
_cell_formula_units_Z   2
loop_
 _symmetry_equiv_pos_site_id
 _symmetry_equiv_pos_as_xyz
  1  'x, y, z'
loop_
 _atom_site_type_symbol
 _atom_site_label
 _atom_site_symmetry_multiplicity
 _atom_site_fract_x
 _atom_site_fract_y
 _atom_site_fract_z
 _atom_site_occupancy
  K  K0  1  0.87629492  0.45413591  0.70209179  1
  K  K1  1  0.37629492  0.54586409  0.79790821  1
  K  K2  1  0.37629492  0.54586409  0.20209179  1
  K  K3  1  0.87629492  0.45413591  0.29790821  1
  K  K4  1  0.86825661  0.06048384  0.00000000  1
  K  K5  1  0.36825661  0.93951616  0.50000000  1
  K  K6  1  0.40273811  0.94395045  0.00000000  1
  K  K7  1  0.90273811  0.05604955  0.50000000  1
  Na  Na0  1  0.71649176  0.82455690  0.72678676  1
  Na  Na1  1  0.21649176  0.17544310  0.77321324  1
  Na  Na2  1  0.21649176  0.17544310  0.22678676  1
  Na  Na3  1  0.71649176  0.82455690  0.27321324  1
  Na  Na4  1  0.16129177  0.64963793  0.50000000  1
  Na  Na5  1  0.66129177  0.35036207  0.00000000  1
  Ta  Ta0  1  0.99421415  0.67723130  0.00000000  1
  Ta  Ta1  1  0.49421415  0.32276870  0.50000000  1
  As  As0  1  0.69331763  0.68101091  0.00000000  1
  As  As1  1  0.19331763  0.31898909  0.50000000  1
  As  As2  1  0.08566627  0.82060967  0.78137634  1
  As  As3  1  0.58566627  0.17939033  0.71862366  1
  As  As4  1  0.58566627  0.17939033  0.28137634  1
  As  As5  1  0.08566627  0.82060967  0.21862366  1
  As  As6  1  0.58162882  0.60270181  0.50000000  1
  As  As7  1  0.08162882  0.39729819  0.00000000  1
loop_
_geom_bond_atom_site_label_1
_geom_bond_atom_site_label_2
_geom_bond_distance
_geom_bond_site_symmetry_2
K4 Na5 3.011205 1_555
K4 Ta0 3.435923 1_545
K4 Na3 3.523776 1_545
K4 Na0 3.523776 1_544
K4 Na2 3.734246 1_655
K4 Na1 3.734246 1_654
K5 Na4 3.011205 1_555
K5 Ta1 3.435923 1_565
K5 Na1 3.523776 1_565
K5 Na2 3.523776 1_565
K5 Na0 3.734246 1_555
K5 Na3 3.734246 1_555
K6 Na2 3.310147 1_565
K6 Na1 3.310147 1_564
K7 Na0 3.310147 1_545
K7 Na3 3.310147 1_545
As0 Ta0 2.491178 1_555
As0 Na5 2.836933 1_555
As0 Na3 2.883956 1_555
As0 Na0 2.883956 1_554
As0 K6 3.291166 1_555
As0 K2 3.453759 1_555
As0 K1 3.453759 1_554
As0 K4 3.550391 1_565
As1 Ta1 2.491178 1_555
As1 Na4 2.836933 1_555
As1 Na1 2.883956 1_555
As1 Na2 2.883956 1_555
As1 K7 3.291166 1_455
As1 K0 3.453759 1_455
As1 K3 3.453759 1_455
As1 K5 3.550391 1_545
As2 Ta0 2.532297 1_456
As2 Na0 3.100337 1_455
As2 Na4 3.116537 1_555
As2 Na1 3.219728 1_565
As2 K1 3.364783 1_555
As2 K4 3.431818 1_466
As2 K6 3.512739 1_556
As2 K0 3.657220 1_455
As2 K7 3.677779 1_465
As2 K5 3.700325 1_555
As3 Ta1 2.532297 1_555
As3 Na1 3.100337 1_555
As3 Na5 3.116537 1_556
As3 Na0 3.219728 1_545
As3 K0 3.364783 1_555
As3 K5 3.431818 1_545
As3 K7 3.512739 1_555
As3 K1 3.657220 1_555
As3 K6 3.677779 1_546
As3 K4 3.700325 1_556
As4 Ta1 2.532297 1_555
As4 Na2 3.100337 1_555
As4 Na5 3.116537 1_555
As4 Na3 3.219728 1_545
As4 K3 3.364783 1_555
As4 K5 3.431818 1_545
As4 K7 3.512739 1_555
As4 K2 3.657220 1_555
As4 K6 3.677779 1_545
As4 K4 3.700325 1_555
As5 Ta0 2.532297 1_455
As5 Na3 3.100337 1_455
As5 Na4 3.116537 1_555
As5 Na2 3.219728 1_565
As5 K2 3.364783 1_555
As5 K4 3.431818 1_465
As5 K6 3.512739 1_555
As5 K3 3.657220 1_455
As5 K7 3.677779 1_465
As5 K5 3.700325 1_555
As6 Ta1 2.498386 1_555
As6 Na0 3.083418 1_555
As6 Na3 3.083418 1_555
As6 K1 3.344018 1_555
As6 K2 3.344018 1_555
As6 K0 3.356941 1_555
As6 K3 3.356941 1_555
As6 K5 3.376146 1_555
As6 Na4 3.502779 1_555
As7 Ta0 2.498386 1_455
As7 Na2 3.083418 1_555
As7 Na1 3.083418 1_554
As7 K3 3.344018 1_455
As7 K0 3.344018 1_454
As7 K2 3.356941 1_555
As7 K1 3.356941 1_554
As7 K4 3.376146 1_455
As7 Na5 3.502779 1_455
