# generated using pymatgen
data_BaH4Se3
_symmetry_space_group_name_H-M   'P 1'
_cell_length_a   8.87284297
_cell_length_b   4.72305614
_cell_length_c   8.54606040
_cell_angle_alpha   89.83701212
_cell_angle_beta   90.00000000
_cell_angle_gamma   90.00000000
_symmetry_Int_Tables_number   1
_chemical_formula_structural   BaH4Se3
_chemical_formula_sum   'Ba2 H8 Se6'
_cell_volume   358.13775301
_cell_formula_units_Z   2
loop_
 _symmetry_equiv_pos_site_id
 _symmetry_equiv_pos_as_xyz
  1  'x, y, z'
loop_
 _atom_site_type_symbol
 _atom_site_label
 _atom_site_symmetry_multiplicity
 _atom_site_fract_x
 _atom_site_fract_y
 _atom_site_fract_z
 _atom_site_occupancy
  Ba  Ba0  1  0.74370973  0.99911205  0.63013414  1
  Ba  Ba1  1  0.24370973  0.00088795  0.36986586  1
  H  H0  1  0.83548955  0.77497744  0.12438209  1
  H  H1  1  0.83498612  0.22355046  0.12100461  1
  H  H2  1  0.33548955  0.22502256  0.87561791  1
  H  H3  1  0.33498612  0.77644954  0.87899539  1
  H  H4  1  0.60797351  0.49501338  0.96702425  1
  H  H5  1  0.10797351  0.50498662  0.03297575  1
  H  H6  1  0.58541090  0.50321780  0.30141401  1
  H  H7  1  0.08541090  0.49678220  0.69858599  1
  Se  Se0  1  0.87320777  0.00083950  0.24160173  1
  Se  Se1  1  0.37320777  0.99916050  0.75839827  1
  Se  Se2  1  0.76270610  0.49652334  0.90596480  1
  Se  Se3  1  0.26270610  0.50347666  0.09403520  1
  Se  Se4  1  0.51612032  0.49991075  0.45759614  1
  Se  Se5  1  0.01612032  0.50008925  0.54240386  1
loop_
_geom_bond_atom_site_label_1
_geom_bond_atom_site_label_2
_geom_bond_distance
_geom_bond_site_symmetry_2
Ba0 Se2 3.337040 1_565
Ba0 Se2 3.344845 1_555
Ba0 Se4 3.439019 1_565
Ba0 Se4 3.439598 1_555
Ba0 Se5 3.459678 1_655
Ba0 Se5 3.463066 1_665
Ba0 Se1 3.465341 1_555
Ba0 Se0 3.513595 1_565
Ba1 Se3 3.337040 1_545
Ba1 Se3 3.344845 1_555
Ba1 Se5 3.439019 1_545
Ba1 Se5 3.439598 1_555
Ba1 Se4 3.459678 1_555
Ba1 Se4 3.463066 1_545
Ba1 Se0 3.465341 1_455
Ba1 Se1 3.513595 1_545
H0 Se0 1.503194 1_565
H1 Se0 1.509135 1_555
H2 Se1 1.503194 1_545
H3 Se1 1.509135 1_555
H4 Se2 1.468750 1_555
H5 Se3 1.468750 1_555
H6 Se4 1.469573 1_555
H7 Se5 1.469573 1_555
