# generated using pymatgen
data_Sc6Al16IrOs6
_symmetry_space_group_name_H-M   'P 1'
_cell_length_a   8.72443250
_cell_length_b   8.72443290
_cell_length_c   8.72443276
_cell_angle_alpha   60.00000054
_cell_angle_beta   59.99999904
_cell_angle_gamma   60.00000302
_symmetry_Int_Tables_number   1
_chemical_formula_structural   Sc6Al16IrOs6
_chemical_formula_sum   'Sc6 Al16 Ir1 Os6'
_cell_volume   469.56595812
_cell_formula_units_Z   1
loop_
 _symmetry_equiv_pos_site_id
 _symmetry_equiv_pos_as_xyz
  1  'x, y, z'
loop_
 _atom_site_type_symbol
 _atom_site_label
 _atom_site_symmetry_multiplicity
 _atom_site_fract_x
 _atom_site_fract_y
 _atom_site_fract_z
 _atom_site_occupancy
  Sc  Sc0  1  0.21422463  0.78577537  0.78577537  1
  Sc  Sc1  1  0.78577537  0.21422463  0.21422463  1
  Sc  Sc2  1  0.78577537  0.21422463  0.78577537  1
  Sc  Sc3  1  0.78577537  0.78577537  0.21422463  1
  Sc  Sc4  1  0.21422463  0.78577537  0.21422463  1
  Sc  Sc5  1  0.21422463  0.21422463  0.78577537  1
  Al  Al0  1  0.83702149  0.83702149  0.83702149  1
  Al  Al1  1  0.83702149  0.83702149  0.48893752  1
  Al  Al2  1  0.48893752  0.83702149  0.83702149  1
  Al  Al3  1  0.83702149  0.48893752  0.83702149  1
  Al  Al4  1  0.16297851  0.16297851  0.16297851  1
  Al  Al5  1  0.16297851  0.16297851  0.51106248  1
  Al  Al6  1  0.16297851  0.51106248  0.16297851  1
  Al  Al7  1  0.51106248  0.16297851  0.16297851  1
  Al  Al8  1  0.62130098  0.62130098  0.62130098  1
  Al  Al9  1  0.62130098  0.62130098  0.13609605  1
  Al  Al10  1  0.13609605  0.62130098  0.62130098  1
  Al  Al11  1  0.62130098  0.13609605  0.62130098  1
  Al  Al12  1  0.37869902  0.37869902  0.37869902  1
  Al  Al13  1  0.37869902  0.37869902  0.86390395  1
  Al  Al14  1  0.37869902  0.86390395  0.37869902  1
  Al  Al15  1  0.86390395  0.37869902  0.37869902  1
  Ir  Ir0  1  0.50000000  0.50000000  0.50000000  1
  Os  Os0  1  0.00000000  0.50000000  0.50000000  1
  Os  Os1  1  0.50000000  0.00000000  0.00000000  1
  Os  Os2  1  0.50000000  0.00000000  0.50000000  1
  Os  Os3  1  0.50000000  0.50000000  0.00000000  1
  Os  Os4  1  0.00000000  0.50000000  0.00000000  1
  Os  Os5  1  0.00000000  0.00000000  0.50000000  1
loop_
_geom_bond_atom_site_label_1
_geom_bond_atom_site_label_2
_geom_bond_distance
_geom_bond_site_symmetry_2
Al0 Os5 2.519760 1_665
Al0 Os1 2.519760 1_566
Al0 Os4 2.519760 1_656
Al0 Al9 2.759164 1_556
Al0 Al10 2.759164 1_655
Al0 Al11 2.759164 1_565
Al0 Sc0 2.913233 1_655
Al0 Sc3 2.913233 1_556
Al0 Sc2 2.913233 1_565
Al0 Al2 3.036835 1_555
Al0 Al1 3.036835 1_555
Al0 Al3 3.036835 1_555
Al1 Os5 2.519749 1_665
Al1 Os2 2.519764 1_565
Al1 Os0 2.519765 1_655
Al1 Al10 2.759150 1_655
Al1 Al11 2.759150 1_565
Al1 Al8 2.759171 1_555
Al1 Sc4 2.913239 1_655
Al1 Sc1 2.913239 1_565
Al1 Sc3 2.913250 1_555
Al1 Al2 3.036835 1_555
Al1 Al3 3.036835 1_555
Al2 Os1 2.519749 1_566
Al2 Os2 2.519764 1_565
Al2 Os3 2.519764 1_556
Al2 Al9 2.759150 1_556
Al2 Al8 2.759171 1_555
Al2 Sc4 2.913239 1_556
Al2 Sc5 2.913239 1_565
Al2 Sc0 2.913250 1_555
Al2 Al3 3.036835 1_555
Al3 Os4 2.519749 1_656
Al3 Os3 2.519764 1_556
Al3 Os0 2.519764 1_655
Al3 Al9 2.759150 1_556
Al3 Al8 2.759171 1_555
Al3 Sc1 2.913239 1_556
Al3 Sc5 2.913239 1_655
Al3 Sc2 2.913250 1_555
Al4 Os5 2.519760 1_555
Al4 Os1 2.519760 1_555
Al4 Os4 2.519760 1_555
Al4 Sc1 2.913233 1_455
Al4 Sc5 2.913233 1_554
Al4 Sc4 2.913233 1_545
Al4 Al7 3.036835 1_555
Al4 Al5 3.036835 1_555
Al4 Al6 3.036835 1_555
Al5 Os5 2.519749 1_555
Al5 Os2 2.519764 1_555
Al5 Os0 2.519765 1_555
Al5 Sc2 2.913239 1_455
Al5 Sc0 2.913239 1_545
Al5 Sc5 2.913250 1_555
Al5 Al7 3.036835 1_555
Al5 Al6 3.036835 1_555
Al6 Os4 2.519749 1_555
Al6 Os3 2.519764 1_555
Al6 Os0 2.519764 1_555
Al6 Sc0 2.913239 1_554
Al6 Sc3 2.913239 1_455
Al6 Sc4 2.913250 1_555
Al6 Al7 3.036835 1_555
Al7 Os1 2.519749 1_555
Al7 Os2 2.519764 1_555
Al7 Os3 2.519764 1_555
Al7 Sc2 2.913239 1_554
Al7 Sc3 2.913239 1_545
Al7 Sc1 2.913250 1_555
Al8 Ir0 2.592252 1_555
Al8 Os0 2.698680 1_655
Al8 Os3 2.698680 1_556
Al8 Os2 2.698680 1_565
Al8 Sc3 2.932232 1_555
Al8 Sc0 2.932232 1_555
Al8 Sc2 2.932232 1_555
Al9 Ir0 2.592259 1_555
Al9 Os3 2.698673 1_555
Al9 Os4 2.698680 1_655
Al9 Os1 2.698680 1_565
Al9 Sc4 2.932231 1_555
Al9 Sc1 2.932231 1_555
Al9 Sc3 2.932238 1_555
Al10 Ir0 2.592259 1_555
Al10 Os0 2.698673 1_555
Al10 Os4 2.698680 1_556
Al10 Os5 2.698680 1_565
Al10 Al3 2.759150 1_455
Al10 Sc4 2.932231 1_555
Al10 Sc5 2.932231 1_555
Al10 Sc0 2.932238 1_555
Al10 Al12 2.993274 1_555
Al10 Al14 2.993287 1_555
Al10 Al13 2.993287 1_555
Al11 Ir0 2.592259 1_555
Al11 Os2 2.698673 1_555
Al11 Os5 2.698680 1_655
Al11 Os1 2.698680 1_556
Al11 Al2 2.759150 1_545
Al11 Sc5 2.932231 1_555
Al11 Sc1 2.932231 1_555
Al11 Sc2 2.932238 1_555
Al11 Al12 2.993274 1_555
Al11 Al15 2.993287 1_555
Al11 Al13 2.993287 1_555
Al12 Ir0 2.592252 1_555
Al12 Os0 2.698680 1_555
Al12 Os3 2.698680 1_555
Al12 Os2 2.698680 1_555
Al12 Al5 2.759171 1_555
Al12 Al6 2.759171 1_555
Al12 Al7 2.759171 1_555
Al12 Sc5 2.932232 1_555
Al12 Sc1 2.932232 1_555
Al12 Sc4 2.932232 1_555
Al12 Al9 2.993274 1_555
Al13 Ir0 2.592259 1_555
Al13 Os3 2.698673 1_556
Al13 Os4 2.698680 1_556
Al13 Os1 2.698680 1_556
Al13 Al6 2.759150 1_556
Al13 Al7 2.759150 1_556
Al13 Al4 2.759164 1_556
Al13 Sc2 2.932231 1_555
Al13 Sc0 2.932231 1_555
Al13 Sc5 2.932238 1_555
Al13 Al8 2.993274 1_555
Al14 Ir0 2.592259 1_555
Al14 Os2 2.698673 1_565
Al14 Os5 2.698680 1_565
Al14 Os1 2.698680 1_565
Al14 Al7 2.759150 1_565
Al14 Al5 2.759150 1_565
Al14 Al4 2.759164 1_565
Al14 Sc3 2.932231 1_555
Al14 Sc0 2.932231 1_555
Al14 Sc4 2.932238 1_555
Al14 Al8 2.993274 1_555
Al14 Al9 2.993287 1_555
Al15 Ir0 2.592259 1_555
Al15 Os0 2.698673 1_655
Al15 Os4 2.698680 1_655
Al15 Os5 2.698680 1_655
Al15 Al6 2.759150 1_655
Al15 Al5 2.759150 1_655
Al15 Al4 2.759164 1_655
Al15 Sc2 2.932231 1_555
Al15 Sc3 2.932231 1_555
Al15 Sc1 2.932238 1_555
Al15 Al8 2.993274 1_555
Al15 Al9 2.993287 1_555
Os0 Sc4 3.115975 1_555
Os0 Sc2 3.115975 1_455
Os0 Sc5 3.115976 1_555
Os0 Sc3 3.115976 1_455
Os1 Sc2 3.115975 1_554
Os1 Sc4 3.115975 1_545
Os1 Sc3 3.115976 1_545
Os1 Sc5 3.115976 1_554
Os2 Sc1 3.115975 1_555
Os2 Sc0 3.115975 1_545
Os2 Sc5 3.115976 1_555
Os2 Sc3 3.115976 1_545
Os3 Sc1 3.115976 1_555
Os3 Sc0 3.115976 1_554
Os3 Sc4 3.115976 1_555
Os3 Sc2 3.115976 1_554
Os4 Sc0 3.115975 1_554
Os4 Sc1 3.115975 1_455
Os4 Sc3 3.115976 1_455
Os4 Sc5 3.115976 1_554
Os5 Sc2 3.115976 1_455
Os5 Sc4 3.115976 1_545
Os5 Sc0 3.115976 1_545
Os5 Sc1 3.115976 1_455
