# generated using pymatgen
data_Sc6Ti7Al9Ir8
_symmetry_space_group_name_H-M   'P 1'
_cell_length_a   8.84896870
_cell_length_b   8.84896762
_cell_length_c   8.84896883
_cell_angle_alpha   59.95368766
_cell_angle_beta   59.95368787
_cell_angle_gamma   59.95369805
_symmetry_Int_Tables_number   1
_chemical_formula_structural   Sc6Ti7Al9Ir8
_chemical_formula_sum   'Sc6 Ti7 Al9 Ir8'
_cell_volume   489.44802325
_cell_formula_units_Z   1
loop_
 _symmetry_equiv_pos_site_id
 _symmetry_equiv_pos_as_xyz
  1  'x, y, z'
loop_
 _atom_site_type_symbol
 _atom_site_label
 _atom_site_symmetry_multiplicity
 _atom_site_fract_x
 _atom_site_fract_y
 _atom_site_fract_z
 _atom_site_occupancy
  Sc  Sc0  1  0.21246803  0.21246803  0.78951350  1
  Sc  Sc1  1  0.78951350  0.21246803  0.21246803  1
  Sc  Sc2  1  0.21246803  0.78951350  0.21246803  1
  Sc  Sc3  1  0.79631690  0.79631690  0.19158276  1
  Sc  Sc4  1  0.19158276  0.79631690  0.79631690  1
  Sc  Sc5  1  0.79631690  0.19158276  0.79631690  1
  Ti  Ti0  1  0.37903260  0.37903260  0.37903260  1
  Ti  Ti1  1  0.38134744  0.86264647  0.38134744  1
  Ti  Ti2  1  0.86264647  0.38134744  0.38134744  1
  Ti  Ti3  1  0.38134744  0.38134744  0.86264647  1
  Ti  Ti4  1  0.83703926  0.48701999  0.83703926  1
  Ti  Ti5  1  0.48701999  0.83703926  0.83703926  1
  Ti  Ti6  1  0.83703926  0.83703926  0.48701999  1
  Al  Al0  1  0.16460441  0.16460441  0.16460441  1
  Al  Al1  1  0.16441882  0.50952338  0.16441882  1
  Al  Al2  1  0.50952338  0.16441882  0.16441882  1
  Al  Al3  1  0.16441882  0.16441882  0.50952338  1
  Al  Al4  1  0.61865955  0.61865955  0.61865955  1
  Al  Al5  1  0.61963019  0.14307862  0.61963019  1
  Al  Al6  1  0.14307862  0.61963019  0.61963019  1
  Al  Al7  1  0.61963019  0.61963019  0.14307862  1
  Al  Al8  1  0.82405587  0.82405587  0.82405587  1
  Ir  Ir0  1  0.00177739  0.00177739  0.49722747  1
  Ir  Ir1  1  0.49722747  0.00177739  0.00177739  1
  Ir  Ir2  1  0.00177739  0.49722747  0.00177739  1
  Ir  Ir3  1  0.50095859  0.50095859  0.00046841  1
  Ir  Ir4  1  0.00046841  0.50095859  0.50095859  1
  Ir  Ir5  1  0.50095859  0.00046841  0.50095859  1
  Ir  Ir6  1  0.50017350  0.50017350  0.50017350  1
  Ir  Ir7  1  0.00449928  0.00449928  0.00449928  1
loop_
_geom_bond_atom_site_label_1
_geom_bond_atom_site_label_2
_geom_bond_distance
_geom_bond_site_symmetry_2
Sc0 Ti0 2.998614 1_555
Sc0 Ti3 3.009755 1_555
Sc1 Ti0 2.998614 1_555
Sc1 Ti2 3.009755 1_555
Sc2 Ti0 2.998614 1_555
Sc2 Ti1 3.009755 1_555
Sc3 Ti2 3.049936 1_555
Sc3 Ti1 3.049937 1_555
Sc4 Ti3 3.049936 1_555
Sc4 Ti1 3.049937 1_555
Sc5 Ti2 3.049936 1_555
Sc5 Ti3 3.049937 1_555
Al0 Ir0 2.529961 1_555
Al0 Ir2 2.529961 1_555
Al0 Ir1 2.529962 1_555
Al0 Ti3 2.813627 1_554
Al0 Ti2 2.813627 1_455
Al0 Ti1 2.813627 1_545
Al1 Ir3 2.556706 1_555
Al1 Ir4 2.556706 1_555
Al1 Ir2 2.557799 1_555
Al1 Ti0 2.786806 1_555
Al1 Ti2 2.796737 1_455
Al1 Ti3 2.796738 1_554
Al2 Ir3 2.556705 1_555
Al2 Ir5 2.556706 1_555
Al2 Ir1 2.557798 1_555
Al2 Ti0 2.786806 1_555
Al2 Ti1 2.796737 1_545
Al2 Ti3 2.796738 1_554
Al3 Ir4 2.556705 1_555
Al3 Ir5 2.556706 1_555
Al3 Ir0 2.557798 1_555
Al3 Ti0 2.786805 1_555
Al3 Ti1 2.796738 1_545
Al3 Ti2 2.796738 1_455
Al4 Ir6 2.569138 1_555
Al4 Ir5 2.761014 1_565
Al4 Ir3 2.761014 1_556
Al4 Ir4 2.761015 1_655
Al4 Ti6 2.838430 1_555
Al4 Ti5 2.838430 1_555
Al4 Ti4 2.838430 1_555
Al4 Ti3 2.969292 1_555
Al4 Ti2 2.969292 1_555
Al4 Ti1 2.969292 1_555
Al4 Sc3 3.130661 1_555
Al4 Sc5 3.130661 1_555
Al4 Sc4 3.130661 1_555
Al5 Ir6 2.578564 1_555
Al5 Ir5 2.748900 1_555
Al5 Al8 2.750139 1_545
Al5 Ir1 2.761531 1_556
Al5 Ir0 2.761531 1_655
Al5 Ti5 2.848943 1_545
Al5 Ti6 2.848944 1_545
Al5 Sc5 2.977451 1_555
Al5 Sc1 2.983844 1_555
Al5 Sc0 2.983844 1_555
Al5 Ti0 3.010186 1_555
Al5 Ti2 3.010593 1_555
Al5 Ti3 3.010593 1_555
Al6 Ir6 2.578564 1_555
Al6 Ir4 2.748900 1_555
Al6 Al8 2.750139 1_455
Al6 Ir0 2.761531 1_565
Al6 Ir2 2.761531 1_556
Al6 Ti4 2.848943 1_455
Al6 Ti6 2.848944 1_455
Al6 Sc4 2.977451 1_555
Al6 Sc0 2.983844 1_555
Al6 Sc2 2.983844 1_555
Al6 Ti0 3.010185 1_555
Al6 Ti1 3.010593 1_555
Al6 Ti3 3.010593 1_555
Al7 Ir6 2.578564 1_555
Al7 Ir3 2.748900 1_555
Al7 Al8 2.750138 1_554
Al7 Ir1 2.761531 1_565
Al7 Ir2 2.761531 1_655
Al7 Ti4 2.848944 1_554
Al7 Ti5 2.848944 1_554
Al7 Sc3 2.977451 1_555
Al7 Sc1 2.983844 1_555
Al7 Sc2 2.983844 1_555
Al7 Ti0 3.010185 1_555
Al7 Ti1 3.010593 1_555
Al7 Ti2 3.010593 1_555
Al8 Ir0 2.584207 1_665
Al8 Ir2 2.584207 1_656
Al8 Ir1 2.584207 1_566
Ir0 Ti6 2.578771 1_445
Ir0 Ti2 2.742810 1_455
Ir0 Ti1 2.742811 1_545
Ir0 Sc5 3.115461 1_455
Ir0 Sc4 3.115461 1_545
Ir0 Sc2 3.143545 1_545
Ir0 Sc1 3.143545 1_455
Ir1 Ti5 2.578772 1_544
Ir1 Ti3 2.742810 1_554
Ir1 Ti1 2.742810 1_545
Ir1 Sc5 3.115461 1_554
Ir1 Sc3 3.115461 1_545
Ir1 Sc2 3.143545 1_545
Ir1 Sc0 3.143545 1_554
Ir2 Ti4 2.578772 1_454
Ir2 Ti2 2.742810 1_455
Ir2 Ti3 2.742811 1_554
Ir2 Sc4 3.115461 1_554
Ir2 Sc3 3.115461 1_455
Ir2 Sc1 3.143544 1_455
Ir2 Sc0 3.143545 1_554
Ir3 Ti5 2.540770 1_554
Ir3 Ti4 2.540771 1_554
Ir3 Ti3 2.726741 1_554
Ir3 Ti0 2.734412 1_555
Ir4 Ti6 2.540771 1_455
Ir4 Ti4 2.540771 1_455
Ir4 Ti2 2.726741 1_455
Ir4 Ti0 2.734413 1_555
Ir5 Ti5 2.540771 1_545
Ir5 Ti6 2.540771 1_545
Ir5 Ti1 2.726741 1_545
Ir5 Ti0 2.734412 1_555
Ir6 Ti1 2.617594 1_555
Ir6 Ti3 2.617594 1_555
Ir6 Ti2 2.617594 1_555
Ir6 Ti0 2.626703 1_555
Ir7 Sc0 2.602358 1_554
Ir7 Sc1 2.602358 1_455
Ir7 Sc2 2.602359 1_545
Ir7 Sc3 2.611219 1_445
Ir7 Sc4 2.611220 1_544
Ir7 Sc5 2.611220 1_454
