# generated using pymatgen
data_Ba10TcPN10
_symmetry_space_group_name_H-M   'P 1'
_cell_length_a   7.98648176
_cell_length_b   7.98648191
_cell_length_c   9.44425510
_cell_angle_alpha   76.16441719
_cell_angle_beta   76.16442293
_cell_angle_gamma   95.81427452
_symmetry_Int_Tables_number   1
_chemical_formula_structural   Ba10TcPN10
_chemical_formula_sum   'Ba10 Tc1 P1 N10'
_cell_volume   559.86063636
_cell_formula_units_Z   1
loop_
 _symmetry_equiv_pos_site_id
 _symmetry_equiv_pos_as_xyz
  1  'x, y, z'
loop_
 _atom_site_type_symbol
 _atom_site_label
 _atom_site_symmetry_multiplicity
 _atom_site_fract_x
 _atom_site_fract_y
 _atom_site_fract_z
 _atom_site_occupancy
  Ba  Ba0  1  0.38359084  0.40025980  0.37867082  1
  Ba  Ba1  1  0.59974020  0.61640916  0.62132918  1
  Ba  Ba2  1  0.66916537  0.66953070  0.00651111  1
  Ba  Ba3  1  0.33046930  0.33083463  0.99348889  1
  Ba  Ba4  1  0.93335276  0.91427536  0.20664048  1
  Ba  Ba5  1  0.08572464  0.06664724  0.79335952  1
  Ba  Ba6  1  0.55394746  0.08536372  0.75351675  1
  Ba  Ba7  1  0.91463628  0.44605254  0.24648325  1
  Ba  Ba8  1  0.42646695  0.89772931  0.24364655  1
  Ba  Ba9  1  0.10227069  0.57353305  0.75635345  1
  Tc  Tc0  1  0.75754453  0.24245547  1.00000000  1
  P  P0  1  0.24256337  0.75743663  0.00000000  1
  N  N0  1  0.65309357  0.65122305  0.31065301  1
  N  N1  1  0.34877695  0.34690643  0.68934699  1
  N  N2  1  0.71712689  0.02042549  0.98843301  1
  N  N3  1  0.97957451  0.28287311  0.01156699  1
  N  N4  1  0.27968055  0.96689426  0.00501971  1
  N  N5  1  0.03310574  0.72031945  0.99498029  1
  N  N6  1  0.37880865  0.72791152  0.84623640  1
  N  N7  1  0.27208848  0.62119135  0.15376260  1
  N  N8  1  0.60684585  0.26857458  0.16624888  1
  N  N9  1  0.73142542  0.39315415  0.83375012  1
loop_
_geom_bond_atom_site_label_1
_geom_bond_atom_site_label_2
_geom_bond_distance
_geom_bond_site_symmetry_2
Ba0 N0 2.628978 1_555
Ba0 N7 2.801539 1_555
Ba0 N1 2.802804 1_555
Ba0 N8 2.826338 1_555
Ba1 N1 2.628978 1_555
Ba1 N6 2.801532 1_555
Ba1 N0 2.802804 1_555
Ba1 N9 2.826331 1_555
Ba2 N2 2.748053 1_564
Ba2 N0 2.812027 1_555
Ba2 N5 2.865893 1_654
Ba2 N9 3.055852 1_554
Ba2 N6 3.073490 1_554
Ba2 N7 3.086380 1_555
Ba2 N8 3.128156 1_555
Ba3 N3 2.748053 1_456
Ba3 N1 2.812027 1_555
Ba3 N4 2.865893 1_546
Ba3 N8 3.055845 1_556
Ba3 N7 3.073485 1_556
Ba3 N6 3.086381 1_555
Ba3 N9 3.128158 1_555
Ba4 N0 2.719772 1_555
Ba4 N5 2.828318 1_654
Ba4 N4 2.883690 1_655
Ba4 N3 3.009494 1_565
Ba4 N2 3.018420 1_564
Ba5 N1 2.719772 1_555
Ba5 N4 2.828318 1_546
Ba5 N5 2.883690 1_545
Ba5 N2 3.009495 1_455
Ba5 N3 3.018421 1_456
Ba6 N4 2.711440 1_546
Ba6 N2 2.803407 1_555
Ba6 N1 2.824596 1_555
Ba6 N6 2.877955 1_545
Ba6 N9 3.053594 1_555
Ba7 N5 2.711440 1_654
Ba7 N3 2.803407 1_555
Ba7 N0 2.824596 1_555
Ba7 N7 2.877955 1_655
Ba7 N8 3.053600 1_555
Ba8 N4 2.749141 1_555
Ba8 N2 2.809259 1_564
Ba8 N7 2.822066 1_555
Ba8 N0 2.868123 1_555
Ba8 N8 2.996339 1_565
Ba9 N5 2.749141 1_555
Ba9 N3 2.809259 1_456
Ba9 N6 2.822060 1_555
Ba9 N1 2.868123 1_555
Ba9 N9 2.996340 1_455
N2 Tc0 1.803897 1_555
N3 Tc0 1.803897 1_554
N4 P0 1.683051 1_555
N5 P0 1.683051 1_556
N6 P0 1.675846 1_556
N7 P0 1.675839 1_555
N8 Tc0 1.805818 1_554
N9 Tc0 1.805825 1_555
