# generated using pymatgen
data_CsBaAsSe3
_symmetry_space_group_name_H-M   'P 1'
_cell_length_a   9.27225700
_cell_length_b   9.46938568
_cell_length_c   10.12367573
_cell_angle_alpha   72.91563353
_cell_angle_beta   90.00000000
_cell_angle_gamma   90.00000000
_symmetry_Int_Tables_number   1
_chemical_formula_structural   CsBaAsSe3
_chemical_formula_sum   'Cs4 Ba4 As4 Se12'
_cell_volume   849.66119057
_cell_formula_units_Z   4
loop_
 _symmetry_equiv_pos_site_id
 _symmetry_equiv_pos_as_xyz
  1  'x, y, z'
loop_
 _atom_site_type_symbol
 _atom_site_label
 _atom_site_symmetry_multiplicity
 _atom_site_fract_x
 _atom_site_fract_y
 _atom_site_fract_z
 _atom_site_occupancy
  Cs  Cs0  1  0.56920704  0.22753428  0.40106709  1
  Cs  Cs1  1  0.06920704  0.27246572  0.59893291  1
  Cs  Cs2  1  0.43079296  0.77246572  0.59893291  1
  Cs  Cs3  1  0.93079296  0.72753428  0.40106709  1
  Ba  Ba0  1  0.21656988  0.46846079  0.07593978  1
  Ba  Ba1  1  0.71656988  0.03153921  0.92406022  1
  Ba  Ba2  1  0.78343012  0.53153921  0.92406022  1
  Ba  Ba3  1  0.28343012  0.96846079  0.07593978  1
  As  As0  1  0.95642035  0.15541458  0.23496944  1
  As  As1  1  0.45642035  0.34458542  0.76503056  1
  As  As2  1  0.04357965  0.84458542  0.76503056  1
  As  As3  1  0.54357965  0.65541458  0.23496944  1
  Se  Se0  1  0.69274089  0.39565121  0.66892311  1
  Se  Se1  1  0.19274089  0.10434879  0.33107689  1
  Se  Se2  1  0.30725911  0.60434879  0.33107689  1
  Se  Se3  1  0.80725911  0.89565121  0.66892311  1
  Se  Se4  1  0.50619679  0.27919873  0.01218129  1
  Se  Se5  1  0.00619679  0.22080127  0.98781871  1
  Se  Se6  1  0.49380321  0.72080127  0.98781871  1
  Se  Se7  1  0.99380321  0.77919873  0.01218129  1
  Se  Se8  1  0.90365933  0.39558303  0.25338402  1
  Se  Se9  1  0.40365933  0.10441697  0.74661598  1
  Se  Se10  1  0.09634067  0.60441697  0.74661598  1
  Se  Se11  1  0.59634067  0.89558303  0.25338402  1
loop_
_geom_bond_atom_site_label_1
_geom_bond_atom_site_label_2
_geom_bond_distance
_geom_bond_site_symmetry_2
Cs0 Se8 3.603705 1_555
Cs0 Se9 3.681943 1_555
Cs0 Se0 3.706220 1_555
Cs0 Se1 3.812258 1_555
Cs0 Se11 3.865324 1_545
Cs0 Se4 3.866343 1_555
Cs0 Se3 4.134591 1_545
Cs0 Se2 4.200942 1_555
Cs1 Se9 3.603705 1_555
Cs1 Se8 3.681943 1_455
Cs1 Se1 3.706220 1_555
Cs1 Se0 3.812258 1_455
Cs1 Se10 3.865324 1_555
Cs1 Se5 3.866343 1_555
Cs1 Se2 4.134591 1_555
Cs1 Se3 4.200942 1_445
Cs2 Se10 3.603705 1_555
Cs2 Se11 3.681943 1_555
Cs2 Se2 3.706220 1_555
Cs2 Se3 3.812258 1_555
Cs2 Se9 3.865324 1_565
Cs2 Se6 3.866343 1_555
Cs2 Se1 4.134591 1_565
Cs2 Se0 4.200942 1_555
Cs3 Se11 3.603705 1_555
Cs3 Se10 3.681943 1_655
Cs3 Se3 3.706220 1_555
Cs3 Se2 3.812258 1_655
Cs3 Se8 3.865324 1_555
Cs3 Se7 3.866343 1_555
Cs3 Se0 4.134591 1_555
Cs3 Se1 4.200942 1_665
Ba0 Se2 3.314700 1_555
Ba0 Se5 3.366004 1_554
Ba0 Se8 3.375338 1_455
Ba0 Se10 3.390226 1_554
Ba0 Se4 3.394138 1_555
Ba0 Se6 3.443978 1_554
Ba0 Se7 3.496494 1_455
Ba0 Se1 3.657297 1_555
Ba1 Se3 3.314700 1_545
Ba1 Se4 3.366004 1_556
Ba1 Se9 3.375338 1_555
Ba1 Se11 3.390226 1_546
Ba1 Se5 3.394138 1_655
Ba1 Se7 3.443978 1_546
Ba1 Se6 3.496494 1_545
Ba1 Se0 3.657297 1_555
Ba2 Se0 3.314700 1_555
Ba2 Se7 3.366004 1_556
Ba2 Se10 3.375338 1_655
Ba2 Se8 3.390226 1_556
Ba2 Se6 3.394138 1_555
Ba2 Se4 3.443978 1_556
Ba2 Se5 3.496494 1_655
Ba2 Se3 3.657297 1_555
Ba3 Se1 3.314700 1_565
Ba3 Se6 3.366004 1_554
Ba3 Se11 3.375338 1_555
Ba3 Se9 3.390226 1_564
Ba3 Se7 3.394138 1_455
Ba3 Se5 3.443978 1_564
Ba3 Se4 3.496494 1_565
Ba3 Se2 3.657297 1_555
As0 Se8 2.386503 1_555
As0 Se1 2.388621 1_655
As0 Se5 2.438547 1_654
As0 Cs3 3.911221 1_545
As0 Cs0 4.105993 1_555
As1 Se9 2.386503 1_555
As1 Se0 2.388621 1_555
As1 Se4 2.438547 1_556
As1 Cs2 3.911221 1_555
As1 Cs1 4.105993 1_555
As2 Se10 2.386503 1_555
As2 Se3 2.388621 1_455
As2 Se7 2.438547 1_456
As2 Cs1 3.911221 1_565
As2 Cs2 4.105993 1_555
As3 Se11 2.386503 1_555
As3 Se2 2.388621 1_555
As3 Se6 2.438547 1_554
As3 Cs0 3.911221 1_555
As3 Cs3 4.105993 1_555
