# generated using pymatgen
data_Cs12Mo3WS16
_symmetry_space_group_name_H-M   'P 1'
_cell_length_a   9.94794406
_cell_length_b   9.97168097
_cell_length_c   11.62086123
_cell_angle_alpha   90.00000000
_cell_angle_beta   90.00000000
_cell_angle_gamma   89.98938297
_symmetry_Int_Tables_number   1
_chemical_formula_structural   Cs12Mo3WS16
_chemical_formula_sum   'Cs12 Mo3 W1 S16'
_cell_volume   1152.76297116
_cell_formula_units_Z   1
loop_
 _symmetry_equiv_pos_site_id
 _symmetry_equiv_pos_as_xyz
  1  'x, y, z'
loop_
 _atom_site_type_symbol
 _atom_site_label
 _atom_site_symmetry_multiplicity
 _atom_site_fract_x
 _atom_site_fract_y
 _atom_site_fract_z
 _atom_site_occupancy
  Cs  Cs0  1  0.54809427  0.70649830  0.04027380  1
  Cs  Cs1  1  0.04397984  0.78811856  0.45523742  1
  Cs  Cs2  1  0.45942132  0.29617297  0.53911293  1
  Cs  Cs3  1  0.94826019  0.21256315  0.96421369  1
  Cs  Cs4  1  0.45942132  0.29617297  0.96088707  1
  Cs  Cs5  1  0.94826019  0.21256315  0.53578631  1
  Cs  Cs6  1  0.54809427  0.70649830  0.45972620  1
  Cs  Cs7  1  0.04397984  0.78811856  0.04476258  1
  Cs  Cs8  1  0.34861770  0.08824943  0.25000000  1
  Cs  Cs9  1  0.85165125  0.41945514  0.25000000  1
  Cs  Cs10  1  0.65407557  0.91525132  0.75000000  1
  Cs  Cs11  1  0.14703246  0.58154356  0.75000000  1
  Mo  Mo0  1  0.27932474  0.51654869  0.25000000  1
  Mo  Mo1  1  0.77308787  0.98327632  0.25000000  1
  Mo  Mo2  1  0.72367082  0.48462661  0.75000000  1
  W  W0  1  0.22229677  0.01625777  0.75000000  1
  S  S0  1  0.29473550  0.74106473  0.25000000  1
  S  S1  1  0.78909546  0.75879749  0.25000000  1
  S  S2  1  0.71010605  0.25863686  0.75000000  1
  S  S3  1  0.20697548  0.23735927  0.75000000  1
  S  S4  1  0.48927188  0.43279497  0.25000000  1
  S  S5  1  0.98177196  0.07201169  0.25000000  1
  S  S6  1  0.51362523  0.57234398  0.75000000  1
  S  S7  1  0.01683068  0.92993638  0.75000000  1
  S  S8  1  0.17093633  0.44939388  0.09062081  1
  S  S9  1  0.66763209  0.04371725  0.41275614  1
  S  S10  1  0.83052186  0.54841903  0.58862363  1
  S  S11  1  0.33007039  0.95103577  0.90658783  1
  S  S12  1  0.83052186  0.54841903  0.91137637  1
  S  S13  1  0.33007039  0.95103577  0.59341217  1
  S  S14  1  0.17093633  0.44939388  0.40937919  1
  S  S15  1  0.66763209  0.04371725  0.08724386  1
loop_
_geom_bond_atom_site_label_1
_geom_bond_atom_site_label_2
_geom_bond_distance
_geom_bond_site_symmetry_2
Cs0 S1 3.458355 1_555
Cs0 S0 3.522902 1_555
Cs0 S12 3.552540 1_554
Cs0 S15 3.608442 1_565
Cs0 S11 3.614092 1_554
Cs0 S6 3.644996 1_554
Cs0 S4 3.705662 1_555
Cs1 S0 3.482910 1_555
Cs1 S1 3.493322 1_455
Cs1 S10 3.553418 1_455
Cs1 S14 3.645000 1_555
Cs1 S13 3.649520 1_555
Cs1 S7 3.715641 1_555
Cs1 S5 3.752953 1_465
Cs2 S2 3.516342 1_555
Cs2 S3 3.557680 1_555
Cs2 S9 3.575149 1_555
Cs2 S14 3.583520 1_555
Cs2 S4 3.637608 1_555
Cs2 S6 3.725733 1_555
Cs2 S13 3.728297 1_545
Cs3 S2 3.467040 1_555
Cs3 S8 3.555828 1_656
Cs3 S15 3.560061 1_556
Cs3 S3 3.589162 1_655
Cs3 S12 3.600489 1_555
Cs3 S5 3.620063 1_556
Cs3 S7 3.821526 1_645
Cs4 S2 3.516342 1_555
Cs4 S3 3.557680 1_555
Cs4 S15 3.575149 1_556
Cs4 S8 3.583520 1_556
Cs4 S4 3.637608 1_556
Cs4 S6 3.725733 1_555
Cs4 S11 3.728297 1_545
Cs5 S2 3.467040 1_555
Cs5 S14 3.555828 1_655
Cs5 S9 3.560061 1_555
Cs5 S3 3.589162 1_655
Cs5 S10 3.600489 1_555
Cs5 S5 3.620063 1_555
Cs5 S7 3.821526 1_645
Cs6 S1 3.458355 1_555
Cs6 S0 3.522902 1_555
Cs6 S10 3.552540 1_555
Cs6 S9 3.608442 1_565
Cs6 S13 3.614092 1_555
Cs6 S6 3.644996 1_555
Cs6 S4 3.705662 1_555
Cs7 S0 3.482910 1_555
Cs7 S1 3.493322 1_455
Cs7 S12 3.553418 1_454
Cs7 S8 3.645000 1_555
Cs7 S11 3.649520 1_554
Cs7 S7 3.715641 1_554
Cs7 S5 3.752953 1_465
Cs8 S0 3.503363 1_545
Cs8 S5 3.652981 1_455
Cs8 S4 3.709935 1_555
Cs8 S9 3.720924 1_555
Cs8 S15 3.720924 1_555
Cs9 S1 3.440447 1_555
Cs9 S4 3.607358 1_555
Cs9 S14 3.688940 1_655
Cs9 S8 3.688940 1_655
Cs9 S5 3.698286 1_555
Cs9 S10 4.145219 1_555
Cs9 S12 4.145219 1_554
Cs10 S2 3.469303 1_565
Cs10 S7 3.611665 1_655
Cs10 S6 3.694043 1_555
Cs10 S13 3.718478 1_555
Cs10 S11 3.718478 1_555
Cs10 S15 4.125328 1_566
Cs10 S9 4.125328 1_565
Cs11 S3 3.483405 1_555
Cs11 S6 3.647981 1_555
Cs11 S12 3.679705 1_455
Cs11 S10 3.679705 1_455
Cs11 S7 3.707437 1_555
Mo0 S0 2.244073 1_555
Mo0 S14 2.245364 1_555
Mo0 S8 2.245364 1_555
Mo0 S4 2.249192 1_555
Mo1 S1 2.244059 1_555
Mo1 S9 2.245177 1_565
Mo1 S15 2.245177 1_565
Mo1 S5 2.256836 1_565
Mo2 S12 2.247582 1_555
Mo2 S10 2.247582 1_555
Mo2 S2 2.257559 1_555
Mo2 S6 2.265062 1_555
S3 W0 2.209987 1_555
S7 W0 2.217965 1_565
S11 W0 2.209850 1_565
S13 W0 2.209850 1_565
