# generated using pymatgen
data_Bi3Sb2As3Ir4
_symmetry_space_group_name_H-M   'P 1'
_cell_length_a   6.50082507
_cell_length_b   6.57377102
_cell_length_c   6.62379737
_cell_angle_alpha   65.90418305
_cell_angle_beta   89.71361123
_cell_angle_gamma   89.83107367
_symmetry_Int_Tables_number   1
_chemical_formula_structural   Bi3Sb2As3Ir4
_chemical_formula_sum   'Bi3 Sb2 As3 Ir4'
_cell_volume   258.39881903
_cell_formula_units_Z   1
loop_
 _symmetry_equiv_pos_site_id
 _symmetry_equiv_pos_as_xyz
  1  'x, y, z'
loop_
 _atom_site_type_symbol
 _atom_site_label
 _atom_site_symmetry_multiplicity
 _atom_site_fract_x
 _atom_site_fract_y
 _atom_site_fract_z
 _atom_site_occupancy
  Bi  Bi0  1  0.13033703  0.84515482  0.86719491  1
  Bi  Bi1  1  0.63011491  0.15189564  0.63241875  1
  Bi  Bi2  1  0.87194771  0.15616375  0.13290564  1
  Sb  Sb0  1  0.36449690  0.85339082  0.37376981  1
  Sb  Sb1  1  0.63674640  0.65441878  0.17526160  1
  As  As0  1  0.13917091  0.35301080  0.32906020  1
  As  As1  1  0.35982732  0.34765310  0.82726799  1
  As  As2  1  0.86220354  0.64790669  0.67168162  1
  Ir  Ir0  1  0.51028813  0.70515265  0.78383997  1
  Ir  Ir1  1  0.01668101  0.29281184  0.70116611  1
  Ir  Ir2  1  0.47717098  0.28075960  0.20097113  1
  Ir  Ir3  1  0.00101516  0.71167951  0.30446227  1
loop_
_geom_bond_atom_site_label_1
_geom_bond_atom_site_label_2
_geom_bond_distance
_geom_bond_site_symmetry_2
Bi0 Ir0 2.764169 1_555
Bi0 Ir1 2.787139 1_565
Bi0 Ir3 2.787567 1_556
Bi1 Ir1 2.783927 1_655
Bi1 Ir0 2.799651 1_545
Bi1 Ir2 2.814250 1_555
Bi2 Ir2 2.781722 1_555
Bi2 Ir1 2.784045 1_654
Bi2 Ir3 2.795877 1_645
Sb0 Sb1 2.817714 1_555
As0 Ir1 2.459979 1_555
As0 Ir3 2.463275 1_555
As0 Ir2 2.465303 1_555
As0 Bi2 2.790892 1_455
As1 Ir0 2.453828 1_555
As1 Ir2 2.455741 1_556
As1 Ir1 2.464361 1_555
As1 Bi1 2.780162 1_555
As2 Ir3 2.460532 1_655
As2 Ir1 2.472150 1_655
As2 Ir0 2.476592 1_555
As2 Bi0 2.793539 1_655
Ir0 Sb1 2.612044 1_556
Ir0 Sb0 2.661718 1_555
Ir2 Sb1 2.609693 1_555
Ir2 Sb0 2.667877 1_545
Ir3 Sb1 2.601977 1_455
Ir3 Sb0 2.652369 1_555
