# generated using pymatgen
data_RbNb4AsO13
_symmetry_space_group_name_H-M   'P 1'
_cell_length_a   7.44687521
_cell_length_b   7.44687568
_cell_length_c   10.14564295
_cell_angle_alpha   90.00000000
_cell_angle_beta   90.00000000
_cell_angle_gamma   91.07927323
_symmetry_Int_Tables_number   1
_chemical_formula_structural   RbNb4AsO13
_chemical_formula_sum   'Rb2 Nb8 As2 O26'
_cell_volume   562.53649099
_cell_formula_units_Z   2
loop_
 _symmetry_equiv_pos_site_id
 _symmetry_equiv_pos_as_xyz
  1  'x, y, z'
loop_
 _atom_site_type_symbol
 _atom_site_label
 _atom_site_symmetry_multiplicity
 _atom_site_fract_x
 _atom_site_fract_y
 _atom_site_fract_z
 _atom_site_occupancy
  Rb  Rb0  1  0.43129918  0.43129918  0.44701594  1
  Rb  Rb1  1  0.56870082  0.56870082  0.94701594  1
  Nb  Nb0  1  0.55498862  0.89703874  0.25348920  1
  Nb  Nb1  1  0.10296126  0.44501138  0.75348920  1
  Nb  Nb2  1  0.44501138  0.10296126  0.75348920  1
  Nb  Nb3  1  0.89703874  0.55498862  0.25348920  1
  Nb  Nb4  1  0.17723704  0.83310357  0.50245601  1
  Nb  Nb5  1  0.16689643  0.82276296  0.00245601  1
  Nb  Nb6  1  0.83310357  0.17723704  0.50245601  1
  Nb  Nb7  1  0.82276296  0.16689643  0.00245601  1
  As  As0  1  0.16278594  0.16278594  0.24698466  1
  As  As1  1  0.83721406  0.83721406  0.74698466  1
  O  O0  1  0.65910377  0.65910377  0.25123262  1
  O  O1  1  0.34089623  0.34089623  0.75123262  1
  O  O2  1  0.38566216  0.12938476  0.25041791  1
  O  O3  1  0.87061524  0.61433784  0.75041791  1
  O  O4  1  0.61433784  0.87061524  0.75041791  1
  O  O5  1  0.12938476  0.38566216  0.25041791  1
  O  O6  1  0.79837142  0.36324913  0.38500131  1
  O  O7  1  0.64349895  0.19972670  0.61561440  1
  O  O8  1  0.80027330  0.35650105  0.11561440  1
  O  O9  1  0.63675087  0.20162858  0.88500131  1
  O  O10  1  0.19972670  0.64349895  0.61561440  1
  O  O11  1  0.36324913  0.79837142  0.38500131  1
  O  O12  1  0.20162858  0.63675087  0.88500131  1
  O  O13  1  0.35650105  0.80027330  0.11561440  1
  O  O14  1  0.06910135  0.06910135  0.38639733  1
  O  O15  1  0.93221564  0.93221564  0.60888059  1
  O  O16  1  0.06778436  0.06778436  0.10888059  1
  O  O17  1  0.93089865  0.93089865  0.88639733  1
  O  O18  1  0.69607244  0.99714158  0.38655489  1
  O  O19  1  0.01685778  0.30938434  0.60640971  1
  O  O20  1  0.69061566  0.98314222  0.10640971  1
  O  O21  1  0.00285842  0.30392756  0.88655489  1
  O  O22  1  0.30938434  0.01685778  0.60640971  1
  O  O23  1  0.99714158  0.69607244  0.38655489  1
  O  O24  1  0.30392756  0.00285842  0.88655489  1
  O  O25  1  0.98314222  0.69061566  0.10640971  1
loop_
_geom_bond_atom_site_label_1
_geom_bond_atom_site_label_2
_geom_bond_distance
_geom_bond_site_symmetry_2
Nb0 O18 1.858125 1_555
Nb0 O20 1.906187 1_555
Nb0 O0 1.947549 1_555
Nb0 O11 2.078324 1_555
Nb0 O13 2.149576 1_555
Nb0 O2 2.160309 1_565
Nb1 O21 1.858125 1_555
Nb1 O19 1.906187 1_555
Nb1 O1 1.947549 1_555
Nb1 O12 2.078324 1_555
Nb1 O10 2.149576 1_555
Nb1 O3 2.160309 1_455
Nb2 O24 1.858125 1_555
Nb2 O22 1.906187 1_555
Nb2 O1 1.947549 1_555
Nb2 O9 2.078324 1_555
Nb2 O7 2.149576 1_555
Nb2 O4 2.160309 1_545
Nb3 O23 1.858125 1_555
Nb3 O25 1.906187 1_555
Nb3 O0 1.947549 1_555
Nb3 O6 2.078324 1_555
Nb3 O8 2.149576 1_555
Nb3 O5 2.160309 1_655
Nb4 O10 1.829931 1_555
Nb4 O11 1.849118 1_555
Nb4 O22 1.975485 1_565
Nb4 O23 2.042344 1_455
Nb4 O15 2.256250 1_455
Nb4 O14 2.275275 1_565
Nb5 O13 1.829931 1_555
Nb5 O12 1.849118 1_554
Nb5 O25 1.975485 1_455
Nb5 O24 2.042344 1_564
Nb5 O16 2.256250 1_565
Nb5 O17 2.275275 1_454
Nb6 O7 1.829931 1_555
Nb6 O6 1.849118 1_555
Nb6 O19 1.975485 1_655
Nb6 O18 2.042344 1_545
Nb6 O15 2.256250 1_545
Nb6 O14 2.275275 1_655
Nb7 O8 1.829931 1_555
Nb7 O9 1.849118 1_554
Nb7 O20 1.975485 1_545
Nb7 O21 2.042344 1_654
Nb7 O16 2.256250 1_655
Nb7 O17 2.275275 1_544
As0 O2 1.683253 1_555
As0 O5 1.683254 1_555
As0 O16 1.716215 1_555
As0 O14 1.719224 1_555
As1 O4 1.683253 1_555
As1 O3 1.683254 1_555
As1 O15 1.716215 1_555
As1 O17 1.719224 1_555
O0 Rb0 3.097245 1_555
O0 Rb1 3.227336 1_554
O1 Rb1 3.097245 1_555
O1 Rb0 3.227336 1_555
O2 Rb0 3.019957 1_555
O3 Rb1 3.019956 1_555
O4 Rb1 3.019957 1_555
O5 Rb0 3.019956 1_555
O6 Rb0 2.859563 1_555
O7 Rb0 2.915405 1_555
O8 Rb1 2.915405 1_554
O9 Rb1 2.859564 1_555
O10 Rb0 2.915405 1_555
O11 Rb0 2.859564 1_555
O12 Rb1 2.859563 1_555
O13 Rb1 2.915405 1_554
