# generated using pymatgen
data_Ti8Al14GeRh7
_symmetry_space_group_name_H-M   'P 1'
_cell_length_a   8.58763812
_cell_length_b   8.58763842
_cell_length_c   8.58763785
_cell_angle_alpha   120.06655745
_cell_angle_beta   119.89500617
_cell_angle_gamma   90.03335399
_symmetry_Int_Tables_number   1
_chemical_formula_structural   Ti8Al14GeRh7
_chemical_formula_sum   'Ti8 Al14 Ge1 Rh7'
_cell_volume   447.95155759
_cell_formula_units_Z   1
loop_
 _symmetry_equiv_pos_site_id
 _symmetry_equiv_pos_as_xyz
  1  'x, y, z'
loop_
 _atom_site_type_symbol
 _atom_site_label
 _atom_site_symmetry_multiplicity
 _atom_site_fract_x
 _atom_site_fract_y
 _atom_site_fract_z
 _atom_site_occupancy
  Ti  Ti0  1  0.79565417  0.29416798  0.08219758  1
  Ti  Ti1  1  0.21197040  0.29416798  0.49851380  1
  Ti  Ti2  1  0.20442773  0.70442773  0.50000000  1
  Ti  Ti3  1  0.21197040  0.71345660  0.91780242  1
  Ti  Ti4  1  0.79565417  0.71345660  0.50148620  1
  Ti  Ti5  1  0.78740512  0.28740512  0.50000000  1
  Ti  Ti6  1  0.37994695  0.12261113  0.74266419  1
  Ti  Ti7  1  0.37994695  0.63728276  0.25733581  1
  Al  Al0  1  0.15811110  0.33908717  0.18097607  1
  Al  Al1  1  0.15811110  0.97713503  0.81902393  1
  Al  Al2  1  0.15355354  0.34224388  0.81130966  1
  Al  Al3  1  0.53093323  0.34224388  0.18869034  1
  Al  Al4  1  0.84102614  0.65723802  0.81621288  1
  Al  Al5  1  0.84102614  0.02481226  0.18378712  1
  Al  Al6  1  0.83930286  0.65896679  0.18033607  1
  Al  Al7  1  0.47862972  0.65896679  0.81966393  1
  Al  Al8  1  0.38000640  0.12029252  0.25971388  1
  Al  Al9  1  0.86057964  0.12029252  0.74028612  1
  Al  Al10  1  0.62095740  0.87926948  0.25831207  1
  Al  Al11  1  0.62095740  0.36264433  0.74168793  1
  Al  Al12  1  0.62172770  0.87893188  0.74279682  1
  Al  Al13  1  0.13613406  0.87893188  0.25720318  1
  Ge  Ge0  1  0.99609405  0.49609405  0.50000000  1
  Rh  Rh0  1  0.00183138  0.00002761  0.50173146  1
  Rh  Rh1  1  0.49829615  0.00002761  0.99819624  1
  Rh  Rh2  1  0.49744535  0.49744535  0.00000000  1
  Rh  Rh3  1  0.49829615  0.50009991  0.49826854  1
  Rh  Rh4  1  0.00183138  0.50009991  0.00180376  1
  Rh  Rh5  1  0.99982807  0.99982807  1.00000000  1
  Rh  Rh6  1  0.49834316  0.99834316  0.50000000  1
loop_
_geom_bond_atom_site_label_1
_geom_bond_atom_site_label_2
_geom_bond_distance
_geom_bond_site_symmetry_2
Al0 Rh5 2.470560 1_444
Al0 Rh3 2.481150 1_555
Al0 Rh4 2.481150 1_555
Al1 Rh5 2.470560 1_455
Al1 Rh0 2.481150 1_565
Al1 Rh1 2.481150 1_565
Al2 Rh4 2.473080 1_556
Al2 Rh0 2.473080 1_555
Al2 Rh2 2.486919 1_556
Al3 Rh3 2.473075 1_555
Al3 Rh1 2.473082 1_554
Al3 Rh2 2.486921 1_555
Al4 Rh5 2.490667 1_555
Al4 Rh4 2.496285 1_656
Al4 Rh3 2.496293 1_555
Al5 Rh5 2.490661 1_544
Al5 Rh0 2.496287 1_655
Al5 Rh1 2.496295 1_554
Al6 Rh4 2.489861 1_655
Al6 Rh0 2.489861 1_665
Al6 Rh2 2.500350 1_555
Al7 Rh1 2.489859 1_565
Al7 Rh3 2.489866 1_555
Al7 Rh2 2.500348 1_556
Al8 Rh6 2.542387 1_545
Al8 Rh1 2.663360 1_554
Al8 Rh3 2.663360 1_555
Al8 Rh5 2.670079 1_444
Al9 Rh6 2.542394 1_545
Al9 Rh0 2.663353 1_655
Al9 Rh4 2.663360 1_656
Al9 Rh5 2.670078 1_545
Al10 Rh6 2.552516 1_555
Al10 Rh1 2.674264 1_564
Al10 Rh0 2.674264 1_665
Al10 Rh2 2.675757 1_555
Al11 Rh6 2.552510 1_545
Al11 Rh4 2.674264 1_656
Al11 Rh3 2.674271 1_555
Al11 Rh2 2.675757 1_556
Al12 Rh6 2.542275 1_555
Al12 Rh5 2.654939 1_555
Al12 Rh1 2.654956 1_565
Al12 Rh3 2.654963 1_555
Al13 Rh6 2.542282 1_555
Al13 Rh5 2.654932 1_454
Al13 Rh0 2.654956 1_565
Al13 Rh4 2.654963 1_555
Ge0 Ti2 2.529425 1_655
Ge0 Ti5 2.533738 1_555
Ge0 Ti0 2.539514 1_555
Ge0 Ti3 2.539514 1_655
Ge0 Ti1 2.539514 1_655
Ge0 Ti4 2.539514 1_555
Rh0 Ti6 2.655064 1_555
Rh1 Ti6 2.655064 1_555
Rh2 Ti7 2.628493 1_555
Rh2 Ti6 2.628494 1_554
Rh3 Ti7 2.655064 1_555
Rh4 Ti7 2.655064 1_555
Rh6 Ti6 2.529879 1_565
Rh6 Ti7 2.529879 1_555
