# generated using pymatgen
data_Fe2SiMo3C
_symmetry_space_group_name_H-M   'P 1'
_cell_length_a   7.87587289
_cell_length_b   7.87587314
_cell_length_c   7.87587333
_cell_angle_alpha   60.00000336
_cell_angle_beta   60.00000232
_cell_angle_gamma   60.00000018
_symmetry_Int_Tables_number   1
_chemical_formula_structural   Fe2SiMo3C
_chemical_formula_sum   'Fe8 Si4 Mo12 C4'
_cell_volume   345.44678479
_cell_formula_units_Z   4
loop_
 _symmetry_equiv_pos_site_id
 _symmetry_equiv_pos_as_xyz
  1  'x, y, z'
loop_
 _atom_site_type_symbol
 _atom_site_label
 _atom_site_symmetry_multiplicity
 _atom_site_fract_x
 _atom_site_fract_y
 _atom_site_fract_z
 _atom_site_occupancy
  Fe  Fe0  1  0.20529128  0.20529128  0.20529128  1
  Fe  Fe1  1  0.20529128  0.20529128  0.88412617  1
  Fe  Fe2  1  0.88412617  0.20529128  0.20529128  1
  Fe  Fe3  1  0.20529128  0.88412617  0.20529128  1
  Fe  Fe4  1  0.79470872  0.79470872  0.79470872  1
  Fe  Fe5  1  0.79470872  0.79470872  0.11587383  1
  Fe  Fe6  1  0.79470872  0.11587383  0.79470872  1
  Fe  Fe7  1  0.11587383  0.79470872  0.79470872  1
  Si  Si0  1  0.00000000  0.00000000  0.00000000  1
  Si  Si1  1  0.00000000  0.00000000  0.50000100  1
  Si  Si2  1  0.50000100  0.00000000  0.00000000  1
  Si  Si3  1  0.00000000  0.50000100  0.00000000  1
  Mo  Mo0  1  0.81962255  0.43037645  0.43037645  1
  Mo  Mo1  1  0.43037445  0.81962455  0.81962455  1
  Mo  Mo2  1  0.43037645  0.81962255  0.43037645  1
  Mo  Mo3  1  0.43037645  0.43037645  0.81962255  1
  Mo  Mo4  1  0.81962455  0.43037445  0.81962455  1
  Mo  Mo5  1  0.81962455  0.81962455  0.43037445  1
  Mo  Mo6  1  0.56962355  0.18037745  0.56962355  1
  Mo  Mo7  1  0.18037645  0.56962455  0.18037645  1
  Mo  Mo8  1  0.18037745  0.56962355  0.56962355  1
  Mo  Mo9  1  0.56962355  0.56962355  0.18037745  1
  Mo  Mo10  1  0.56962455  0.18037645  0.18037645  1
  Mo  Mo11  1  0.18037645  0.18037645  0.56962455  1
  C  C0  1  0.50000000  0.50000000  0.50000000  1
  C  C1  1  0.50000000  0.50000000  0.00000100  1
  C  C2  1  0.00000100  0.50000000  0.50000000  1
  C  C3  1  0.50000000  0.00000100  0.50000000  1
loop_
_geom_bond_atom_site_label_1
_geom_bond_atom_site_label_2
_geom_bond_distance
_geom_bond_site_symmetry_2
Fe0 Si2 2.392564 1_555
Fe0 Si3 2.392564 1_555
Fe0 Si1 2.392564 1_555
Fe0 Fe2 2.529456 1_455
Fe0 Fe3 2.529456 1_545
Fe0 Fe1 2.529456 1_554
Fe0 Mo10 2.687582 1_555
Fe0 Mo7 2.687582 1_555
Fe0 Mo11 2.687582 1_555
Fe0 Mo0 2.807986 1_455
Fe0 Mo2 2.807986 1_545
Fe0 Mo3 2.807986 1_554
Fe1 Si0 2.392561 1_556
Fe1 Si2 2.392568 1_556
Fe1 Si3 2.392568 1_556
Fe1 Fe2 2.529456 1_456
Fe1 Fe3 2.529456 1_546
Fe1 Mo11 2.687566 1_555
Fe1 Mo6 2.687574 1_555
Fe1 Mo8 2.687574 1_555
Fe1 Mo4 2.807973 1_455
Fe1 Mo1 2.807973 1_545
Fe1 Mo3 2.807979 1_555
Fe2 Si0 2.392561 1_655
Fe2 Si1 2.392568 1_655
Fe2 Si3 2.392568 1_655
Fe2 Fe3 2.529456 1_645
Fe2 Mo10 2.687566 1_555
Fe2 Mo9 2.687574 1_555
Fe2 Mo6 2.687574 1_555
Fe2 Mo5 2.807973 1_545
Fe2 Mo4 2.807973 1_554
Fe2 Mo0 2.807979 1_555
Fe3 Si0 2.392561 1_565
Fe3 Si2 2.392568 1_565
Fe3 Si1 2.392568 1_565
Fe3 Mo7 2.687566 1_555
Fe3 Mo9 2.687574 1_555
Fe3 Mo8 2.687574 1_555
Fe3 Mo5 2.807973 1_455
Fe3 Mo1 2.807973 1_554
Fe3 Mo2 2.807979 1_555
Fe4 Si2 2.392559 1_566
Fe4 Si3 2.392559 1_656
Fe4 Si1 2.392559 1_665
Fe4 Fe7 2.529456 1_655
Fe4 Fe6 2.529456 1_565
Fe4 Fe5 2.529456 1_556
Fe4 Mo1 2.687583 1_555
Fe4 Mo4 2.687583 1_555
Fe4 Mo5 2.687583 1_555
Fe4 Mo8 2.807986 1_655
Fe4 Mo6 2.807986 1_565
Fe4 Mo9 2.807986 1_556
Fe5 Si2 2.392555 1_565
Fe5 Si3 2.392555 1_655
Fe5 Si0 2.392561 1_665
Fe5 Fe7 2.529456 1_654
Fe5 Fe6 2.529456 1_564
Fe5 Mo5 2.687567 1_555
Fe5 Mo2 2.687574 1_555
Fe5 Mo0 2.687574 1_555
Fe5 Mo9 2.807979 1_555
Fe5 Mo7 2.807983 1_655
Fe5 Mo10 2.807983 1_565
Fe6 Si2 2.392555 1_556
Fe6 Si1 2.392555 1_655
Fe6 Si0 2.392561 1_656
Fe6 Fe7 2.529456 1_645
Fe6 Mo4 2.687567 1_555
Fe6 Mo3 2.687574 1_555
Fe6 Mo0 2.687574 1_555
Fe6 Mo6 2.807979 1_555
Fe6 Mo11 2.807983 1_655
Fe6 Mo10 2.807983 1_556
Fe7 Si1 2.392555 1_565
Fe7 Si3 2.392555 1_556
Fe7 Si0 2.392561 1_566
Fe7 Mo1 2.687567 1_555
Fe7 Mo3 2.687574 1_555
Fe7 Mo2 2.687574 1_555
Fe7 Mo8 2.807979 1_555
Fe7 Mo11 2.807983 1_565
Fe7 Mo7 2.807983 1_556
Mo0 Si1 2.813035 1_655
Mo0 Si3 2.813035 1_655
Mo1 Si0 2.813022 1_566
Mo1 Si2 2.813039 1_566
Mo2 Si1 2.813034 1_565
Mo2 Si2 2.813035 1_565
Mo3 Si3 2.813034 1_556
Mo3 Si2 2.813035 1_556
Mo4 Si0 2.813022 1_656
Mo4 Si3 2.813039 1_656
Mo5 Si0 2.813022 1_665
Mo5 Si1 2.813039 1_665
Mo6 Si1 2.813037 1_655
Mo6 Si2 2.813037 1_556
Mo7 Si0 2.813030 1_565
Mo7 Si3 2.813036 1_555
Mo8 Si1 2.813037 1_565
Mo8 Si3 2.813037 1_556
Mo9 Si3 2.813037 1_655
Mo9 Si2 2.813037 1_565
Mo10 Si0 2.813030 1_655
Mo10 Si2 2.813036 1_555
Mo11 Si0 2.813030 1_556
Mo11 Si1 2.813036 1_555
C0 Mo0 2.116169 1_555
C0 Mo8 2.116169 1_555
C0 Mo2 2.116169 1_555
C0 Mo6 2.116169 1_555
C0 Mo3 2.116169 1_555
C0 Mo9 2.116169 1_555
C1 Mo7 2.116175 1_555
C1 Mo10 2.116175 1_555
C1 Mo9 2.116177 1_555
C1 Mo4 2.116182 1_554
C1 Mo1 2.116182 1_554
C1 Mo3 2.116191 1_554
C2 Mo11 2.116175 1_555
C2 Mo7 2.116175 1_555
C2 Mo8 2.116177 1_555
C2 Mo5 2.116182 1_455
C2 Mo4 2.116182 1_455
C2 Mo0 2.116191 1_455
C3 Mo11 2.116175 1_555
C3 Mo10 2.116175 1_555
C3 Mo6 2.116177 1_555
C3 Mo5 2.116182 1_545
C3 Mo1 2.116182 1_545
C3 Mo2 2.116191 1_545
