# generated using pymatgen
data_Ca3Y(NiP)4
_symmetry_space_group_name_H-M   'P 1'
_cell_length_a   3.83700978
_cell_length_b   3.83700990
_cell_length_c   16.51647192
_cell_angle_alpha   90.00000000
_cell_angle_beta   90.00000000
_cell_angle_gamma   120.00001574
_symmetry_Int_Tables_number   1
_chemical_formula_structural   Ca3Y(NiP)4
_chemical_formula_sum   'Ca3 Y1 Ni4 P4'
_cell_volume   210.58802557
_cell_formula_units_Z   1
loop_
 _symmetry_equiv_pos_site_id
 _symmetry_equiv_pos_as_xyz
  1  'x, y, z'
loop_
 _atom_site_type_symbol
 _atom_site_label
 _atom_site_symmetry_multiplicity
 _atom_site_fract_x
 _atom_site_fract_y
 _atom_site_fract_z
 _atom_site_occupancy
  Ca  Ca0  1  0.00000000  0.00000000  0.50209160  1
  Ca  Ca1  1  0.00000000  0.00000000  0.99790840  1
  Ca  Ca2  1  0.00000000  0.00000000  0.25000000  1
  Y  Y0  1  0.00000000  0.00000000  0.75000000  1
  Ni  Ni0  1  0.33333300  0.66666700  0.37584927  1
  Ni  Ni1  1  0.66666700  0.33333300  0.63235985  1
  Ni  Ni2  1  0.66666700  0.33333300  0.86764015  1
  Ni  Ni3  1  0.33333300  0.66666700  0.12415073  1
  P  P0  1  0.33333300  0.66666700  0.86971332  1
  P  P1  1  0.66666700  0.33333300  0.12177171  1
  P  P2  1  0.66666700  0.33333300  0.37822829  1
  P  P3  1  0.33333300  0.66666700  0.63028668  1
loop_
_geom_bond_atom_site_label_1
_geom_bond_atom_site_label_2
_geom_bond_distance
_geom_bond_site_symmetry_2
Ca0 P2 3.015423 1_455
Ca0 P2 3.015425 1_555
Ca0 P2 3.015425 1_445
Ca0 Ni0 3.042218 1_545
Ca0 Ni0 3.042220 1_445
Ca0 Ni0 3.042220 1_555
Ca0 P3 3.064413 1_545
Ca0 P3 3.064415 1_445
Ca0 P3 3.064415 1_555
Ca0 Ni1 3.088171 1_455
Ca0 Ni1 3.088173 1_555
Ca0 Ni1 3.088173 1_445
Ca1 P1 3.015423 1_456
Ca1 P1 3.015425 1_556
Ca1 P1 3.015425 1_446
Ca1 Ni3 3.042218 1_546
Ca1 Ni3 3.042220 1_446
Ca1 Ni3 3.042220 1_556
Ca1 P0 3.064413 1_545
Ca1 P0 3.064415 1_445
Ca1 P0 3.064415 1_555
Ca1 Ni2 3.088171 1_455
Ca1 Ni2 3.088173 1_555
Ca1 Ni2 3.088173 1_445
Ca2 Ni0 3.037772 1_545
Ca2 Ni3 3.037772 1_545
Ca2 Ni0 3.037774 1_445
Ca2 Ni3 3.037774 1_445
Ca2 Ni0 3.037774 1_555
Ca2 Ni3 3.037774 1_555
Ca2 P2 3.064792 1_455
Ca2 P1 3.064792 1_455
Ca2 P2 3.064794 1_555
Ca2 P1 3.064794 1_555
Ca2 P2 3.064794 1_445
Ca2 P1 3.064794 1_445
Ni0 P2 2.215645 1_455
Ni0 P2 2.215645 1_565
Ni0 P2 2.215652 1_555
Ni1 P3 2.215561 1_655
Ni1 P3 2.215561 1_545
Ni1 P3 2.215568 1_555
Ni1 Y0 2.946657 1_655
Ni1 Y0 2.946659 1_555
Ni1 Y0 2.946659 1_665
Ni2 P0 2.215561 1_655
Ni2 P0 2.215561 1_545
Ni2 P0 2.215568 1_555
Ni2 Y0 2.946657 1_655
Ni2 Y0 2.946659 1_555
Ni2 Y0 2.946659 1_665
Ni3 P1 2.215645 1_455
Ni3 P1 2.215645 1_565
Ni3 P1 2.215652 1_555
P0 Y0 2.969347 1_565
P0 Y0 2.969349 1_665
P0 Y0 2.969350 1_555
P3 Y0 2.969347 1_565
P3 Y0 2.969349 1_665
P3 Y0 2.969350 1_555
