# generated using pymatgen
data_AlV3CuN
_symmetry_space_group_name_H-M   'P 1'
_cell_length_a   6.51224196
_cell_length_b   6.51224196
_cell_length_c   6.51224196
_cell_angle_alpha   90.00000000
_cell_angle_beta   90.00000000
_cell_angle_gamma   90.00000000
_symmetry_Int_Tables_number   1
_chemical_formula_structural   AlV3CuN
_chemical_formula_sum   'Al4 V12 Cu4 N4'
_cell_volume   276.17959301
_cell_formula_units_Z   4
loop_
 _symmetry_equiv_pos_site_id
 _symmetry_equiv_pos_as_xyz
  1  'x, y, z'
loop_
 _atom_site_type_symbol
 _atom_site_label
 _atom_site_symmetry_multiplicity
 _atom_site_fract_x
 _atom_site_fract_y
 _atom_site_fract_z
 _atom_site_occupancy
  Al  Al0  1  0.57489538  0.42510462  0.92510462  1
  Al  Al1  1  0.42510462  0.92510462  0.57489538  1
  Al  Al2  1  0.92510462  0.57489538  0.42510462  1
  Al  Al3  1  0.07489538  0.07489538  0.07489538  1
  V  V0  1  0.78800513  0.96153012  0.37362495  1
  V  V1  1  0.71199487  0.03846988  0.87362495  1
  V  V2  1  0.21199487  0.46153012  0.12637505  1
  V  V3  1  0.28800513  0.53846988  0.62637505  1
  V  V4  1  0.96153012  0.37362495  0.78800513  1
  V  V5  1  0.03846988  0.87362495  0.71199487  1
  V  V6  1  0.46153012  0.12637505  0.21199487  1
  V  V7  1  0.53846988  0.62637505  0.28800513  1
  V  V8  1  0.37362495  0.78800513  0.96153012  1
  V  V9  1  0.87362495  0.71199487  0.03846988  1
  V  V10  1  0.12637505  0.21199487  0.46153012  1
  V  V11  1  0.62637505  0.28800513  0.53846988  1
  Cu  Cu0  1  0.17684845  0.82315155  0.32315155  1
  Cu  Cu1  1  0.32315155  0.17684845  0.82315155  1
  Cu  Cu2  1  0.82315155  0.32315155  0.17684845  1
  Cu  Cu3  1  0.67684845  0.67684845  0.67684845  1
  N  N0  1  0.87751823  0.12248177  0.62248177  1
  N  N1  1  0.62248177  0.87751823  0.12248177  1
  N  N2  1  0.12248177  0.62248177  0.87751823  1
  N  N3  1  0.37751823  0.37751823  0.37751823  1
loop_
_geom_bond_atom_site_label_1
_geom_bond_atom_site_label_2
_geom_bond_distance
_geom_bond_site_symmetry_2
Al0 Cu1 2.396297 1_555
Al0 Cu3 2.396297 1_555
Al0 Cu2 2.396297 1_556
Al1 Cu0 2.396297 1_555
Al1 Cu3 2.396297 1_555
Al1 Cu1 2.396297 1_565
Al2 Cu2 2.396297 1_555
Al2 Cu3 2.396297 1_555
Al2 Cu0 2.396297 1_655
Al3 Cu2 2.396297 1_455
Al3 Cu0 2.396297 1_545
Al3 Cu1 2.396297 1_554
Cu0 V7 2.690796 1_555
Cu0 V8 2.690796 1_554
Cu0 V2 2.690796 1_555
Cu0 V10 2.707835 1_565
Cu0 V5 2.707835 1_555
Cu0 V0 2.707835 1_455
Cu0 V6 2.803624 1_565
Cu0 V3 2.803624 1_555
Cu0 V9 2.803624 1_455
Cu1 V3 2.690796 1_555
Cu1 V4 2.690796 1_455
Cu1 V10 2.690796 1_555
Cu1 V6 2.707835 1_556
Cu1 V1 2.707835 1_555
Cu1 V8 2.707835 1_545
Cu1 V2 2.803624 1_556
Cu1 V11 2.803624 1_555
Cu1 V5 2.803624 1_545
Cu2 V11 2.690796 1_555
Cu2 V0 2.690796 1_545
Cu2 V6 2.690796 1_555
Cu2 V2 2.707835 1_655
Cu2 V9 2.707835 1_555
Cu2 V4 2.707835 1_554
Cu2 V10 2.803624 1_655
Cu2 V7 2.803624 1_555
Cu2 V1 2.803624 1_554
Cu3 V1 2.690796 1_565
Cu3 V9 2.690796 1_556
Cu3 V5 2.690796 1_655
Cu3 V11 2.707835 1_555
Cu3 V7 2.707835 1_555
Cu3 V3 2.707835 1_555
Cu3 V4 2.803624 1_555
Cu3 V0 2.803624 1_555
Cu3 V8 2.803624 1_555
N0 V5 2.016144 1_645
N0 V0 2.016144 1_545
N0 V10 2.016144 1_655
N0 V1 2.033748 1_555
N0 V11 2.033748 1_555
N0 V4 2.033748 1_555
N1 V1 2.016144 1_564
N1 V6 2.016144 1_565
N1 V8 2.016144 1_554
N1 V9 2.033748 1_555
N1 V0 2.033748 1_555
N1 V7 2.033748 1_555
N2 V9 2.016144 1_456
N2 V2 2.016144 1_556
N2 V4 2.016144 1_455
N2 V8 2.033748 1_555
N2 V5 2.033748 1_555
N2 V3 2.033748 1_555
N3 V3 2.016144 1_555
N3 V11 2.016144 1_555
N3 V7 2.016144 1_555
N3 V2 2.033748 1_555
N3 V10 2.033748 1_555
N3 V6 2.033748 1_555
