# generated using pymatgen
data_Ca2Pb
_symmetry_space_group_name_H-M   'P 1'
_cell_length_a   5.12804421
_cell_length_b   7.98962686
_cell_length_c   9.57427268
_cell_angle_alpha   90.00000000
_cell_angle_beta   90.00000000
_cell_angle_gamma   90.00000000
_symmetry_Int_Tables_number   1
_chemical_formula_structural   Ca2Pb
_chemical_formula_sum   'Ca8 Pb4'
_cell_volume   392.26905555
_cell_formula_units_Z   4
loop_
 _symmetry_equiv_pos_site_id
 _symmetry_equiv_pos_as_xyz
  1  'x, y, z'
loop_
 _atom_site_type_symbol
 _atom_site_label
 _atom_site_symmetry_multiplicity
 _atom_site_fract_x
 _atom_site_fract_y
 _atom_site_fract_z
 _atom_site_occupancy
  Ca  Ca0  1  0.75000000  0.34179327  0.92816761  1
  Ca  Ca1  1  0.25000000  0.65820673  0.07183239  1
  Ca  Ca2  1  0.75000000  0.84179327  0.57183239  1
  Ca  Ca3  1  0.25000000  0.15820673  0.42816761  1
  Ca  Ca4  1  0.75000000  0.47902790  0.31489886  1
  Ca  Ca5  1  0.25000000  0.52097210  0.68510114  1
  Ca  Ca6  1  0.75000000  0.97902790  0.18510114  1
  Ca  Ca7  1  0.25000000  0.02097210  0.81489886  1
  Pb  Pb0  1  0.75000000  0.74908155  0.89366904  1
  Pb  Pb1  1  0.25000000  0.25091845  0.10633096  1
  Pb  Pb2  1  0.75000000  0.24908155  0.60633096  1
  Pb  Pb3  1  0.25000000  0.75091845  0.39366904  1
loop_
_geom_bond_atom_site_label_1
_geom_bond_atom_site_label_2
_geom_bond_distance
_geom_bond_site_symmetry_2
Ca0 Pb1 3.164027 1_556
Ca0 Pb1 3.164027 1_656
Ca0 Pb2 3.169134 1_555
Ca0 Pb0 3.270802 1_555
Ca0 Ca5 3.746918 1_655
Ca0 Ca5 3.746918 1_555
Ca0 Ca7 3.784241 1_555
Ca0 Ca7 3.784241 1_655
Ca0 Ca6 3.801559 1_546
Ca0 Ca1 3.854489 1_656
Ca0 Ca1 3.854489 1_556
Ca0 Ca4 3.861603 1_556
Ca1 Pb0 3.164027 1_454
Ca1 Pb0 3.164027 1_554
Ca1 Pb3 3.169134 1_555
Ca1 Pb1 3.270802 1_555
Ca1 Ca4 3.746918 1_455
Ca1 Ca4 3.746918 1_555
Ca1 Ca6 3.784241 1_455
Ca1 Ca6 3.784241 1_555
Ca1 Ca7 3.801559 1_564
Ca1 Ca5 3.861603 1_554
Ca2 Pb3 3.164027 1_555
Ca2 Pb3 3.164027 1_655
Ca2 Pb0 3.169134 1_555
Ca2 Pb2 3.270802 1_565
Ca2 Ca7 3.746918 1_665
Ca2 Ca7 3.746918 1_565
Ca2 Ca5 3.784241 1_555
Ca2 Ca5 3.784241 1_655
Ca2 Ca4 3.801559 1_555
Ca2 Ca3 3.854489 1_565
Ca2 Ca3 3.854489 1_665
Ca2 Ca6 3.861603 1_555
Ca3 Pb2 3.164027 1_455
Ca3 Pb2 3.164027 1_555
Ca3 Pb1 3.169134 1_555
Ca3 Pb3 3.270802 1_545
Ca3 Ca6 3.746918 1_445
Ca3 Ca6 3.746918 1_545
Ca3 Ca4 3.784241 1_455
Ca3 Ca4 3.784241 1_555
Ca3 Ca5 3.801559 1_555
Ca3 Ca7 3.861603 1_555
Ca4 Pb2 3.340771 1_555
Ca4 Pb3 3.444108 1_555
Ca4 Pb3 3.444108 1_655
Ca4 Pb1 3.726031 1_555
Ca4 Pb1 3.726031 1_655
Ca5 Pb3 3.340771 1_555
Ca5 Pb2 3.444108 1_455
Ca5 Pb2 3.444108 1_555
Ca5 Pb0 3.726031 1_555
Ca5 Pb0 3.726031 1_455
Ca6 Pb0 3.340771 1_554
Ca6 Pb1 3.444108 1_565
Ca6 Pb1 3.444108 1_665
Ca6 Pb3 3.726031 1_555
Ca6 Pb3 3.726031 1_655
Ca7 Pb1 3.340771 1_556
Ca7 Pb0 3.444108 1_445
Ca7 Pb0 3.444108 1_545
Ca7 Pb2 3.726031 1_455
Ca7 Pb2 3.726031 1_555
