# generated using pymatgen
data_KBaNbSe4
_symmetry_space_group_name_H-M   'P 1'
_cell_length_a   7.29927489
_cell_length_b   9.61635452
_cell_length_c   13.20560483
_cell_angle_alpha   90.00000000
_cell_angle_beta   90.00000000
_cell_angle_gamma   90.00000000
_symmetry_Int_Tables_number   1
_chemical_formula_structural   KBaNbSe4
_chemical_formula_sum   'K4 Ba4 Nb4 Se16'
_cell_volume   926.93329575
_cell_formula_units_Z   4
loop_
 _symmetry_equiv_pos_site_id
 _symmetry_equiv_pos_as_xyz
  1  'x, y, z'
loop_
 _atom_site_type_symbol
 _atom_site_label
 _atom_site_symmetry_multiplicity
 _atom_site_fract_x
 _atom_site_fract_y
 _atom_site_fract_z
 _atom_site_occupancy
  K  K0  1  0.25000000  0.62972403  0.57505214  1
  K  K1  1  0.75000000  0.37027597  0.42494786  1
  K  K2  1  0.25000000  0.12972403  0.92494786  1
  K  K3  1  0.75000000  0.87027597  0.07505214  1
  Ba  Ba0  1  0.75000000  0.02282326  0.67153719  1
  Ba  Ba1  1  0.75000000  0.52282326  0.82846281  1
  Ba  Ba2  1  0.25000000  0.47717674  0.17153719  1
  Ba  Ba3  1  0.25000000  0.97717674  0.32846281  1
  Nb  Nb0  1  0.25000000  0.72937876  0.92366391  1
  Nb  Nb1  1  0.75000000  0.77062124  0.42366391  1
  Nb  Nb2  1  0.75000000  0.27062124  0.07633609  1
  Nb  Nb3  1  0.25000000  0.22937876  0.57633609  1
  Se  Se0  1  0.25000000  0.97918834  0.58639272  1
  Se  Se1  1  0.75000000  0.02081166  0.41360728  1
  Se  Se2  1  0.25000000  0.47918834  0.91360728  1
  Se  Se3  1  0.75000000  0.52081166  0.08639272  1
  Se  Se4  1  0.48825805  0.67573377  0.34059070  1
  Se  Se5  1  0.98825805  0.32426623  0.65940930  1
  Se  Se6  1  0.01174195  0.17573377  0.15940930  1
  Se  Se7  1  0.51174195  0.82426623  0.84059070  1
  Se  Se8  1  0.51174195  0.32426623  0.65940930  1
  Se  Se9  1  0.01174195  0.67573377  0.34059070  1
  Se  Se10  1  0.98825805  0.82426623  0.84059070  1
  Se  Se11  1  0.48825805  0.17573377  0.15940930  1
  Se  Se12  1  0.75000000  0.19227661  0.90310221  1
  Se  Se13  1  0.25000000  0.80772339  0.09689779  1
  Se  Se14  1  0.75000000  0.69227661  0.59689779  1
  Se  Se15  1  0.25000000  0.30772339  0.40310221  1
loop_
_geom_bond_atom_site_label_1
_geom_bond_atom_site_label_2
_geom_bond_distance
_geom_bond_site_symmetry_2
K0 Se0 3.363908 1_555
K0 Se4 3.578652 1_555
K0 Se9 3.578652 1_555
K0 Se8 3.676866 1_555
K0 Se5 3.676866 1_455
K0 Se14 3.710110 1_455
K0 Se14 3.710110 1_555
K0 Se15 3.839822 1_555
K1 Se1 3.363908 1_555
K1 Se5 3.578652 1_555
K1 Se8 3.578652 1_555
K1 Se9 3.676866 1_655
K1 Se4 3.676866 1_555
K1 Se15 3.710110 1_555
K1 Se15 3.710110 1_655
K1 Se14 3.839822 1_555
K2 Se2 3.363908 1_555
K2 Se11 3.578652 1_556
K2 Se6 3.578652 1_556
K2 Se7 3.676866 1_545
K2 Se10 3.676866 1_445
K2 Se12 3.710110 1_455
K2 Se12 3.710110 1_555
K2 Se13 3.839822 1_546
K3 Se3 3.363908 1_555
K3 Se10 3.578652 1_554
K3 Se7 3.578652 1_554
K3 Se6 3.676866 1_665
K3 Se11 3.676866 1_565
K3 Se13 3.710110 1_555
K3 Se13 3.710110 1_655
K3 Se12 3.839822 1_564
Ba0 Se14 3.327967 1_545
Ba0 Se5 3.384242 1_555
Ba0 Se8 3.384242 1_555
Ba0 Se1 3.406175 1_555
Ba0 Se10 3.413817 1_545
Ba0 Se7 3.413817 1_545
Ba0 Se12 3.465031 1_555
Ba0 Se0 3.841896 1_545
Ba0 Se0 3.841896 1_645
Ba1 Se12 3.327967 1_555
Ba1 Se10 3.384242 1_555
Ba1 Se7 3.384242 1_555
Ba1 Se3 3.406175 1_556
Ba1 Se5 3.413817 1_555
Ba1 Se8 3.413817 1_555
Ba1 Se14 3.465031 1_555
Ba1 Se2 3.841896 1_555
Ba1 Se2 3.841896 1_655
Ba2 Se13 3.327967 1_555
Ba2 Se11 3.384242 1_555
Ba2 Se6 3.384242 1_555
Ba2 Se2 3.406175 1_554
Ba2 Se4 3.413817 1_555
Ba2 Se9 3.413817 1_555
Ba2 Se15 3.465031 1_555
Ba2 Se3 3.841896 1_455
Ba2 Se3 3.841896 1_555
Ba3 Se15 3.327967 1_565
Ba3 Se4 3.384242 1_555
Ba3 Se9 3.384242 1_555
Ba3 Se0 3.406175 1_555
Ba3 Se11 3.413817 1_565
Ba3 Se6 3.413817 1_565
Ba3 Se13 3.465031 1_555
Ba3 Se1 3.841896 1_465
Ba3 Se1 3.841896 1_565
Nb0 Se7 2.384574 1_555
Nb0 Se10 2.384574 1_455
Nb0 Se13 2.408521 1_556
Nb0 Se2 2.409582 1_555
Nb1 Se9 2.384574 1_655
Nb1 Se4 2.384574 1_555
Nb1 Se14 2.408521 1_555
Nb1 Se1 2.409582 1_565
Nb2 Se6 2.384574 1_655
Nb2 Se11 2.384574 1_555
Nb2 Se12 2.408521 1_554
Nb2 Se3 2.409582 1_555
Nb3 Se8 2.384574 1_555
Nb3 Se5 2.384574 1_455
Nb3 Se15 2.408521 1_555
Nb3 Se0 2.409582 1_545
