# generated using pymatgen
data_Rb2TaSe3
_symmetry_space_group_name_H-M   'P 1'
_cell_length_a   8.00955737
_cell_length_b   8.00955732
_cell_length_c   10.18315094
_cell_angle_alpha   58.62595899
_cell_angle_beta   58.62595631
_cell_angle_gamma   55.55830551
_symmetry_Int_Tables_number   1
_chemical_formula_structural   Rb2TaSe3
_chemical_formula_sum   'Rb4 Ta2 Se6'
_cell_volume   435.61038328
_cell_formula_units_Z   2
loop_
 _symmetry_equiv_pos_site_id
 _symmetry_equiv_pos_as_xyz
  1  'x, y, z'
loop_
 _atom_site_type_symbol
 _atom_site_label
 _atom_site_symmetry_multiplicity
 _atom_site_fract_x
 _atom_site_fract_y
 _atom_site_fract_z
 _atom_site_occupancy
  Rb  Rb0  1  0.30077301  0.30077301  0.31251101  1
  Rb  Rb1  1  0.69922699  0.69922699  0.68748899  1
  Rb  Rb2  1  0.08487693  0.08487693  0.13839036  1
  Rb  Rb3  1  0.91512307  0.91512307  0.86160964  1
  Ta  Ta0  1  0.39115756  0.39115756  0.66690913  1
  Ta  Ta1  1  0.60884244  0.60884244  0.33309087  1
  Se  Se0  1  0.39020842  0.39020842  0.90340149  1
  Se  Se1  1  0.60979158  0.60979158  0.09659851  1
  Se  Se2  1  0.20040884  0.20040884  0.72415111  1
  Se  Se3  1  0.79959116  0.79959116  0.27584889  1
  Se  Se4  1  0.76809168  0.23190832  0.50000000  1
  Se  Se5  1  0.23190832  0.76809168  0.50000000  1
loop_
_geom_bond_atom_site_label_1
_geom_bond_atom_site_label_2
_geom_bond_distance
_geom_bond_site_symmetry_2
Rb0 Se2 3.546435 1_555
Rb0 Se1 3.561335 1_555
Rb0 Se0 3.570396 1_554
Rb0 Se3 3.752613 1_545
Rb0 Se3 3.752613 1_455
Rb0 Se4 3.903381 1_455
Rb0 Se5 3.903381 1_545
Rb1 Se3 3.546435 1_555
Rb1 Se0 3.561335 1_555
Rb1 Se1 3.570396 1_556
Rb1 Se2 3.752613 1_565
Rb1 Se2 3.752613 1_655
Rb1 Se5 3.903381 1_655
Rb1 Se4 3.903381 1_565
Rb2 Se3 3.412782 1_445
Rb2 Se0 3.502277 1_554
Rb2 Se2 3.513698 1_554
Rb2 Se4 3.576482 1_455
Rb2 Se5 3.576482 1_545
Rb2 Se1 3.750204 1_545
Rb2 Se1 3.750204 1_455
Rb3 Se2 3.412782 1_665
Rb3 Se1 3.502277 1_556
Rb3 Se3 3.513698 1_556
Rb3 Se5 3.576482 1_655
Rb3 Se4 3.576482 1_565
Rb3 Se0 3.750204 1_565
Rb3 Se0 3.750204 1_655
Se0 Ta0 2.400346 1_555
Se1 Ta1 2.400346 1_555
Se2 Ta0 2.407054 1_555
Se3 Ta1 2.407054 1_555
Se4 Ta0 2.487781 1_555
Se4 Ta1 2.487781 1_555
Se5 Ta1 2.487781 1_555
Se5 Ta0 2.487781 1_555
