# generated using pymatgen
data_AlZnRhO4
_symmetry_space_group_name_H-M   'P 1'
_cell_length_a   5.87160439
_cell_length_b   5.87160468
_cell_length_c   5.87160484
_cell_angle_alpha   121.12657351
_cell_angle_beta   118.95757139
_cell_angle_gamma   89.93741906
_symmetry_Int_Tables_number   1
_chemical_formula_structural   AlZnRhO4
_chemical_formula_sum   'Al2 Zn2 Rh2 O8'
_cell_volume   142.98288500
_cell_formula_units_Z   2
loop_
 _symmetry_equiv_pos_site_id
 _symmetry_equiv_pos_as_xyz
  1  'x, y, z'
loop_
 _atom_site_type_symbol
 _atom_site_label
 _atom_site_symmetry_multiplicity
 _atom_site_fract_x
 _atom_site_fract_y
 _atom_site_fract_z
 _atom_site_occupancy
  Al  Al0  1  0.50000000  0.00000000  0.00000000  1
  Al  Al1  1  0.50000000  0.50000000  0.50000000  1
  Zn  Zn0  1  0.88007926  0.63007926  0.25000000  1
  Zn  Zn1  1  0.11992074  0.36992074  0.75000000  1
  Rh  Rh0  1  0.50000000  0.00000000  0.50000000  1
  Rh  Rh1  1  0.00000000  0.00000000  0.00000000  1
  O  O0  1  0.72727378  0.73983555  0.51256177  1
  O  O1  1  0.72727378  0.21471101  0.98743823  1
  O  O2  1  0.71868759  0.75359503  0.96509256  1
  O  O3  1  0.28850147  0.75359503  0.53490744  1
  O  O4  1  0.27272622  0.26016445  0.48743823  1
  O  O5  1  0.27272622  0.78528899  0.01256177  1
  O  O6  1  0.28131241  0.24640497  0.03490744  1
  O  O7  1  0.71149853  0.24640497  0.46509256  1
loop_
_geom_bond_atom_site_label_1
_geom_bond_atom_site_label_2
_geom_bond_distance
_geom_bond_site_symmetry_2
Al0 O1 1.889632 1_554
Al0 O5 1.889632 1_545
Al0 O7 1.930855 1_555
Al0 O3 1.930855 1_544
Al0 O6 1.930855 1_555
Al0 O2 1.930855 1_544
Al1 O0 1.889636 1_555
Al1 O4 1.889636 1_555
Al1 O2 1.930856 1_555
Al1 O6 1.930856 1_555
Al1 O3 1.930859 1_555
Al1 O7 1.930859 1_555
O0 Zn0 1.976860 1_555
O0 Rh0 2.033829 1_565
O0 Rh1 2.033829 1_666
O1 Zn0 1.976865 1_556
O1 Rh1 2.033826 1_656
O1 Rh0 2.033830 1_555
O2 Zn0 1.984994 1_556
O2 Rh1 2.057749 1_666
O3 Zn0 1.984989 1_455
O3 Rh0 2.057753 1_565
O4 Zn1 1.976860 1_555
O4 Rh0 2.033829 1_555
O4 Rh1 2.033829 1_555
O5 Zn1 1.976865 1_554
O5 Rh1 2.033826 1_565
O5 Rh0 2.033830 1_565
O6 Zn1 1.984994 1_554
O6 Rh1 2.057749 1_555
O7 Zn1 1.984989 1_655
O7 Rh0 2.057753 1_555
