# generated using pymatgen
data_NdO3
_symmetry_space_group_name_H-M   'P 1'
_cell_length_a   5.43820341
_cell_length_b   5.43820341
_cell_length_c   8.04634228
_cell_angle_alpha   54.32968680
_cell_angle_beta   54.32968680
_cell_angle_gamma   36.53793227
_symmetry_Int_Tables_number   1
_chemical_formula_structural   NdO3
_chemical_formula_sum   'Nd2 O6'
_cell_volume   111.81490530
_cell_formula_units_Z   2
loop_
 _symmetry_equiv_pos_site_id
 _symmetry_equiv_pos_as_xyz
  1  'x, y, z'
loop_
 _atom_site_type_symbol
 _atom_site_label
 _atom_site_symmetry_multiplicity
 _atom_site_fract_x
 _atom_site_fract_y
 _atom_site_fract_z
 _atom_site_occupancy
  Nd  Nd0  1  0.29338800  0.29338800  0.73717100  1
  Nd  Nd1  1  0.70661200  0.70661200  0.26282900  1
  O  O0  1  0.34892800  0.34892800  0.99661500  1
  O  O1  1  0.00000000  0.00000000  0.00000000  1
  O  O2  1  0.71349300  0.71349300  0.55198600  1
  O  O3  1  0.28650700  0.28650700  0.44801400  1
  O  O4  1  0.00000000  0.00000000  0.50000000  1
  O  O5  1  0.65107200  0.65107200  0.00338500  1
loop_
_geom_bond_atom_site_label_1
_geom_bond_atom_site_label_2
_geom_bond_distance
_geom_bond_site_symmetry_2
Nd0 O3 2.370961 1_555
Nd0 O1 2.405015 1_556
Nd0 O5 2.405875 1_546
Nd0 O5 2.405875 1_456
Nd0 O4 2.469880 1_655
Nd0 O4 2.469880 1_565
Nd0 O0 2.481473 1_555
Nd0 O2 2.705081 1_455
Nd0 O2 2.705081 1_545
Nd1 O2 2.370961 1_555
Nd1 O1 2.405015 1_665
Nd1 O0 2.405875 1_654
Nd1 O0 2.405875 1_564
Nd1 O4 2.469880 1_655
Nd1 O4 2.469880 1_565
Nd1 O5 2.481473 1_555
Nd1 O3 2.705081 1_565
Nd1 O3 2.705081 1_655
O2 O3 1.843896 1_655
O2 O3 1.843896 1_565
