# generated using pymatgen
data_Tc(IrRh)4
_symmetry_space_group_name_H-M   'P 1'
_cell_length_a   6.05291731
_cell_length_b   6.05291839
_cell_length_c   6.05768907
_cell_angle_alpha   95.76924175
_cell_angle_beta   95.69450356
_cell_angle_gamma   143.13926031
_symmetry_Int_Tables_number   1
_chemical_formula_structural   Tc(IrRh)4
_chemical_formula_sum   'Tc1 Ir4 Rh4'
_cell_volume   126.31820220
_cell_formula_units_Z   1
loop_
 _symmetry_equiv_pos_site_id
 _symmetry_equiv_pos_as_xyz
  1  'x, y, z'
loop_
 _atom_site_type_symbol
 _atom_site_label
 _atom_site_symmetry_multiplicity
 _atom_site_fract_x
 _atom_site_fract_y
 _atom_site_fract_z
 _atom_site_occupancy
  Tc  Tc0  1  0.00225080  0.00173846  0.00398926  1
  Ir  Ir0  1  0.66397031  0.33655858  0.00052989  1
  Ir  Ir1  1  0.33698916  0.66350905  0.00049921  1
  Ir  Ir2  1  0.66308295  0.66222800  0.32531196  1
  Ir  Ir3  1  0.32889255  0.00020481  0.32909736  1
  Rh  Rh0  1  0.99883976  0.32969963  0.32853939  1
  Rh  Rh1  1  0.66944687  0.00091474  0.67036061  1
  Rh  Rh2  1  0.99985649  0.66906096  0.66891744  1
  Rh  Rh3  1  0.33667010  0.33608477  0.67275388  1
loop_
_geom_bond_atom_site_label_1
_geom_bond_atom_site_label_2
_geom_bond_distance
_geom_bond_site_symmetry_2
Ir0 Ir2 2.644988 1_555
Ir0 Rh3 2.660161 1_554
Ir0 Tc0 2.680719 1_555
Ir0 Tc0 2.680723 1_665
Ir0 Ir3 2.688546 1_555
Ir0 Ir3 2.688550 1_665
Ir0 Rh2 2.700915 1_444
Ir0 Rh2 2.700917 1_554
Ir0 Rh0 2.722183 1_555
Ir0 Rh1 2.726326 1_554
Ir0 Ir1 2.758861 1_655
Ir0 Ir1 2.758862 1_545
Ir1 Ir2 2.650353 1_555
Ir1 Rh3 2.659249 1_554
Ir1 Tc0 2.681276 1_555
Ir1 Tc0 2.681278 1_665
Ir1 Rh0 2.686508 1_455
Ir1 Rh0 2.686511 1_565
Ir1 Rh1 2.695047 1_454
Ir1 Rh1 2.695051 1_564
Ir1 Ir3 2.735267 1_565
Ir1 Rh2 2.740396 1_454
Ir2 Tc0 2.659453 1_555
Ir2 Tc0 2.659455 1_665
Ir2 Ir3 2.684512 1_555
Ir2 Ir3 2.684514 1_665
Ir2 Rh0 2.700146 1_455
Ir2 Rh0 2.700150 1_565
Ir2 Rh2 2.737748 1_555
Ir2 Rh1 2.751231 1_565
Ir2 Rh3 2.765806 1_555
Ir2 Rh3 2.765812 1_665
Ir3 Tc0 2.654813 1_555
Ir3 Rh3 2.728695 1_555
Ir3 Rh2 2.734382 1_445
Ir3 Rh2 2.734383 1_555
Ir3 Rh0 2.735722 1_555
Ir3 Rh0 2.735723 1_445
Ir3 Rh1 2.767877 1_555
Rh0 Tc0 2.663718 1_655
Rh0 Rh1 2.742575 1_555
Rh0 Rh1 2.742579 1_665
Rh0 Rh3 2.746261 1_655
Rh0 Rh2 2.756206 1_555
Rh1 Rh3 2.701507 1_655
Rh1 Rh3 2.701507 1_545
Rh1 Tc0 2.704896 1_656
Rh1 Rh2 2.724615 1_555
Rh1 Rh2 2.724617 1_445
Rh2 Rh3 2.694083 1_555
Rh2 Rh3 2.694086 1_665
Rh2 Tc0 2.701989 1_666
Rh3 Tc0 2.699326 1_666
Rh3 Tc0 2.699328 1_556
