# generated using pymatgen
data_CsNa2Cu3P2
_symmetry_space_group_name_H-M   'P 1'
_cell_length_a   8.12305113
_cell_length_b   8.12305069
_cell_length_c   8.12305244
_cell_angle_alpha   37.76997253
_cell_angle_beta   37.76997339
_cell_angle_gamma   37.76997930
_symmetry_Int_Tables_number   1
_chemical_formula_structural   CsNa2Cu3P2
_chemical_formula_sum   'Cs1 Na2 Cu3 P2'
_cell_volume   180.41854680
_cell_formula_units_Z   1
loop_
 _symmetry_equiv_pos_site_id
 _symmetry_equiv_pos_as_xyz
  1  'x, y, z'
loop_
 _atom_site_type_symbol
 _atom_site_label
 _atom_site_symmetry_multiplicity
 _atom_site_fract_x
 _atom_site_fract_y
 _atom_site_fract_z
 _atom_site_occupancy
  Cs  Cs0  1  0.50000000  0.50000000  0.50000000  1
  Na  Na0  1  0.07155781  0.07155781  0.07155781  1
  Na  Na1  1  0.92844219  0.92844219  0.92844219  1
  Cu  Cu0  1  0.50000000  0.50000000  0.00000000  1
  Cu  Cu1  1  0.50000000  0.00000000  0.50000000  1
  Cu  Cu2  1  0.00000000  0.50000000  0.50000000  1
  P  P0  1  0.73980875  0.73980875  0.73980875  1
  P  P1  1  0.26019125  0.26019125  0.26019125  1
loop_
_geom_bond_atom_site_label_1
_geom_bond_atom_site_label_2
_geom_bond_distance
_geom_bond_site_symmetry_2
Cs0 P1 3.699407 1_565
Cs0 P0 3.699407 1_545
Cs0 P1 3.699407 1_655
Cs0 P0 3.699407 1_455
Cs0 P1 3.699408 1_556
Cs0 P0 3.699408 1_554
Na0 P0 3.036131 1_445
Na0 P0 3.036131 1_454
Na0 P0 3.036132 1_544
Na1 P1 3.036131 1_665
Na1 P1 3.036131 1_656
Na1 P1 3.036132 1_566
Cu0 P0 2.244419 1_554
Cu0 P1 2.244419 1_555
Cu0 Na0 3.086860 1_565
Cu0 Na1 3.086860 1_544
Cu0 Na0 3.086860 1_655
Cu0 Na1 3.086860 1_454
Cu1 P0 2.244420 1_545
Cu1 P1 2.244420 1_555
Cu1 Na0 3.086860 1_655
Cu1 Na1 3.086860 1_445
Cu1 Na0 3.086861 1_556
Cu1 Na1 3.086861 1_544
Cu2 P0 2.244420 1_455
Cu2 P1 2.244420 1_555
Cu2 Na0 3.086859 1_565
Cu2 Na1 3.086859 1_445
Cu2 Na0 3.086860 1_556
Cu2 Na1 3.086860 1_454
