# generated using pymatgen
data_Sr5Al3InGa2
_symmetry_space_group_name_H-M   'P 1'
_cell_length_a   5.78058665
_cell_length_b   5.78058667
_cell_length_c   10.81340618
_cell_angle_alpha   90.00000000
_cell_angle_beta   90.00000000
_cell_angle_gamma   120.00000537
_symmetry_Int_Tables_number   1
_chemical_formula_structural   Sr5Al3InGa2
_chemical_formula_sum   'Sr5 Al3 In1 Ga2'
_cell_volume   312.92261973
_cell_formula_units_Z   1
loop_
 _symmetry_equiv_pos_site_id
 _symmetry_equiv_pos_as_xyz
  1  'x, y, z'
loop_
 _atom_site_type_symbol
 _atom_site_label
 _atom_site_symmetry_multiplicity
 _atom_site_fract_x
 _atom_site_fract_y
 _atom_site_fract_z
 _atom_site_occupancy
  Sr  Sr0  1  0.66666700  0.33333300  0.00000000  1
  Sr  Sr1  1  0.33333400  0.66666700  0.19557221  1
  Sr  Sr2  1  0.00000000  0.00000000  0.32766882  1
  Sr  Sr3  1  0.00000000  0.00000000  0.67233118  1
  Sr  Sr4  1  0.33333400  0.66666700  0.80442779  1
  Al  Al0  1  0.00783528  0.50391864  0.50000000  1
  Al  Al1  1  0.49608236  0.50391864  0.50000000  1
  Al  Al2  1  0.49608236  0.99216372  0.50000000  1
  In  In0  1  0.00000000  0.00000000  0.00000000  1
  Ga  Ga0  1  0.66666700  0.33333300  0.30577556  1
  Ga  Ga1  1  0.66666700  0.33333300  0.69422544  1
loop_
_geom_bond_atom_site_label_1
_geom_bond_atom_site_label_2
_geom_bond_distance
_geom_bond_site_symmetry_2
Sr0 Sr1 3.951045 1_545
Sr0 Sr4 3.951045 1_544
Sr0 Sr1 3.951049 1_655
Sr0 Sr4 3.951049 1_654
Sr0 Sr1 3.951050 1_555
Sr0 Sr4 3.951050 1_554
Sr1 Sr2 3.630253 1_665
Sr1 Sr2 3.630258 1_555
Sr1 Sr2 3.630258 1_565
Sr1 Sr4 4.229604 1_554
Sr3 Sr4 3.630253 1_445
Sr3 Sr4 3.630258 1_555
Sr3 Sr4 3.630258 1_545
Al0 Ga0 2.707027 1_455
Al0 Ga1 2.707036 1_455
Al0 Al2 2.822349 1_555
Al0 Al1 2.822355 1_555
Al0 Al1 2.958232 1_455
Al0 Al2 2.958238 1_445
Al0 Sr3 3.439169 1_565
Al0 Sr2 3.439169 1_565
Al0 Sr3 3.439179 1_555
Al0 Sr2 3.439179 1_555
Al0 Sr4 3.673126 1_555
Al0 Sr1 3.673126 1_555
Al1 Ga0 2.707034 1_555
Al1 Ga1 2.707042 1_555
Al1 Al2 2.822343 1_555
Al1 Al2 2.958244 1_545
Al1 Sr3 3.439171 1_665
Al1 Sr2 3.439171 1_665
Al1 Sr3 3.439176 1_555
Al1 Sr2 3.439176 1_555
Al1 Sr4 3.673121 1_555
Al1 Sr1 3.673121 1_555
Al2 Ga0 2.707030 1_565
Al2 Ga1 2.707039 1_565
Al2 Sr3 3.439172 1_665
Al2 Sr2 3.439172 1_665
Al2 Sr3 3.439177 1_565
Al2 Sr2 3.439177 1_565
Al2 Sr4 3.673121 1_555
Al2 Sr1 3.673121 1_555
In0 Sr0 3.337420 1_455
In0 Sr0 3.337425 1_555
In0 Sr0 3.337425 1_445
In0 Sr2 3.543216 1_555
In0 Sr3 3.543216 1_554
In0 Sr1 3.951045 1_445
In0 Sr4 3.951045 1_444
In0 Sr1 3.951049 1_555
In0 Sr4 3.951049 1_554
In0 Sr1 3.951050 1_545
In0 Sr4 3.951050 1_544
Ga0 Sr0 3.306475 1_555
Ga0 Sr2 3.345806 1_655
Ga0 Sr2 3.345811 1_555
Ga0 Sr2 3.345811 1_665
Ga0 Sr1 3.543791 1_545
Ga0 Sr1 3.543796 1_655
Ga0 Sr1 3.543796 1_555
Ga1 Sr0 3.306464 1_556
Ga1 Sr3 3.345807 1_655
Ga1 Sr3 3.345812 1_555
Ga1 Sr3 3.345812 1_665
Ga1 Sr4 3.543788 1_545
Ga1 Sr4 3.543792 1_655
Ga1 Sr4 3.543793 1_555
