# generated using pymatgen
data_K2Si3TcO9
_symmetry_space_group_name_H-M   'P 1'
_cell_length_a   7.62721850
_cell_length_b   7.62721849
_cell_length_c   7.62721848
_cell_angle_alpha   83.01334365
_cell_angle_beta   83.01334739
_cell_angle_gamma   83.01335737
_symmetry_Int_Tables_number   1
_chemical_formula_structural   K2Si3TcO9
_chemical_formula_sum   'K4 Si6 Tc2 O18'
_cell_volume   434.56611924
_cell_formula_units_Z   2
loop_
 _symmetry_equiv_pos_site_id
 _symmetry_equiv_pos_as_xyz
  1  'x, y, z'
loop_
 _atom_site_type_symbol
 _atom_site_label
 _atom_site_symmetry_multiplicity
 _atom_site_fract_x
 _atom_site_fract_y
 _atom_site_fract_z
 _atom_site_occupancy
  K  K0  1  0.22422269  0.77283482  0.98868676  1
  K  K1  1  0.77283482  0.98868676  0.22422269  1
  K  K2  1  0.98868676  0.22422269  0.77283482  1
  K  K3  1  0.49713241  0.49713241  0.49713241  1
  Si  Si0  1  0.89179151  0.51097422  0.09830345  1
  Si  Si1  1  0.09830345  0.89179151  0.51097422  1
  Si  Si2  1  0.51097422  0.09830345  0.89179151  1
  Si  Si3  1  0.01842921  0.54537651  0.44031553  1
  Si  Si4  1  0.44031553  0.01842921  0.54537651  1
  Si  Si5  1  0.54537651  0.44031553  0.01842921  1
  Tc  Tc0  1  0.22235453  0.22235453  0.22235453  1
  Tc  Tc1  1  0.73943853  0.73943853  0.73943853  1
  O  O0  1  0.31847592  0.10037822  0.00602655  1
  O  O1  1  0.48191495  0.15618330  0.68135724  1
  O  O2  1  0.68135724  0.48191495  0.15618330  1
  O  O3  1  0.24436083  0.95470491  0.62497933  1
  O  O4  1  0.95470491  0.62497933  0.24436083  1
  O  O5  1  0.58427909  0.84536892  0.54839904  1
  O  O6  1  0.62994824  0.90996815  0.91315177  1
  O  O7  1  0.90996815  0.91315177  0.62994824  1
  O  O8  1  0.54839904  0.58427909  0.84536892  1
  O  O9  1  0.62497933  0.24436083  0.95470491  1
  O  O10  1  0.91315177  0.62994824  0.90996815  1
  O  O11  1  0.84536892  0.54839904  0.58427909  1
  O  O12  1  0.15618330  0.68135724  0.48191495  1
  O  O13  1  0.43655771  0.12166064  0.34873702  1
  O  O14  1  0.34873702  0.43655771  0.12166064  1
  O  O15  1  0.10037822  0.00602655  0.31847592  1
  O  O16  1  0.12166064  0.34873702  0.43655771  1
  O  O17  1  0.00602655  0.31847592  0.10037822  1
loop_
_geom_bond_atom_site_label_1
_geom_bond_atom_site_label_2
_geom_bond_distance
_geom_bond_site_symmetry_2
K0 O0 2.704801 1_566
K0 O14 2.741892 1_556
K0 O8 2.869951 1_555
K0 O10 2.883097 1_455
K0 O4 2.890347 1_456
K0 O3 2.941995 1_555
K1 O15 2.704801 1_665
K1 O13 2.741892 1_565
K1 O5 2.869950 1_555
K1 O6 2.883097 1_554
K1 O9 2.890348 1_564
K1 O4 2.941996 1_555
K2 O17 2.704801 1_656
K2 O16 2.741892 1_655
K2 O11 2.869950 1_555
K2 O7 2.883097 1_545
K2 O3 2.890348 1_645
K2 O9 2.941995 1_555
K3 O1 2.809844 1_555
K3 O2 2.809845 1_555
K3 O12 2.809845 1_555
K3 O5 2.897384 1_555
K3 O11 2.897384 1_555
K3 O8 2.897384 1_555
O0 Si2 1.612943 1_554
O0 Tc0 2.009649 1_555
O1 Si4 1.645160 1_555
O1 Si2 1.646357 1_555
O2 Si5 1.645160 1_555
O2 Si0 1.646357 1_555
O3 Si1 1.641522 1_555
O3 Si4 1.650101 1_565
O4 Si0 1.641522 1_555
O4 Si3 1.650101 1_655
O5 Si4 1.610807 1_565
O5 Tc1 2.019143 1_555
O6 Si2 1.604796 1_565
O6 Tc1 2.007597 1_555
O7 Si1 1.604795 1_655
O7 Tc1 2.007596 1_555
O8 Si5 1.610807 1_556
O8 Tc1 2.019142 1_555
O9 Si2 1.641522 1_555
O9 Si5 1.650102 1_556
O10 Si0 1.604795 1_556
O10 Tc1 2.007597 1_555
O11 Si3 1.610807 1_655
O11 Tc1 2.019143 1_555
O12 Si3 1.645160 1_555
O12 Si1 1.646358 1_555
O13 Si4 1.608692 1_555
O13 Tc0 2.021393 1_555
O14 Si5 1.608692 1_555
O14 Tc0 2.021393 1_555
O15 Si1 1.612943 1_545
O15 Tc0 2.009648 1_555
O16 Si3 1.608692 1_555
O16 Tc0 2.021393 1_555
O17 Si0 1.612943 1_455
O17 Tc0 2.009649 1_555
