# generated using pymatgen
data_DyBiPt
_symmetry_space_group_name_H-M   'P 1'
_cell_length_a   4.73159616
_cell_length_b   4.73159606
_cell_length_c   4.73159607
_cell_angle_alpha   59.99999983
_cell_angle_beta   60.00000057
_cell_angle_gamma   59.99999549
_symmetry_Int_Tables_number   1
_chemical_formula_structural   DyBiPt
_chemical_formula_sum   'Dy1 Bi1 Pt1'
_cell_volume   74.90451270
_cell_formula_units_Z   1
loop_
 _symmetry_equiv_pos_site_id
 _symmetry_equiv_pos_as_xyz
  1  'x, y, z'
loop_
 _atom_site_type_symbol
 _atom_site_label
 _atom_site_symmetry_multiplicity
 _atom_site_fract_x
 _atom_site_fract_y
 _atom_site_fract_z
 _atom_site_occupancy
  Dy  Dy0  1  0.50000000  0.50000000  0.50000000  1
  Bi  Bi0  1  -0.00000000  -0.00000000  0.00000000  1
  Pt  Pt0  1  0.25000000  0.25000000  0.25000000  1
loop_
_geom_bond_atom_site_label_1
_geom_bond_atom_site_label_2
_geom_bond_distance
_geom_bond_site_symmetry_2
Dy0 Pt0 2.897499 1_565
Dy0 Pt0 2.897499 1_655
Dy0 Pt0 2.897499 1_556
Dy0 Pt0 2.897499 1_555
Bi0 Pt0 2.897499 1_545
Bi0 Pt0 2.897499 1_455
Bi0 Pt0 2.897499 1_554
Bi0 Pt0 2.897499 1_555
Bi0 Dy0 3.345744 1_455
Bi0 Dy0 3.345744 1_454
Bi0 Dy0 3.345744 1_544
Bi0 Dy0 3.345744 1_545
Bi0 Dy0 3.345744 1_554
Bi0 Dy0 3.345744 1_445
