# generated using pymatgen
data_Y10Ga3CoBi2
_symmetry_space_group_name_H-M   'P 1'
_cell_length_a   8.65394223
_cell_length_b   8.65394312
_cell_length_c   8.81480105
_cell_angle_alpha   125.28265879
_cell_angle_beta   125.28265927
_cell_angle_gamma   79.82272841
_symmetry_Int_Tables_number   1
_chemical_formula_structural   Y10Ga3CoBi2
_chemical_formula_sum   'Y10 Ga3 Co1 Bi2'
_cell_volume   427.52527394
_cell_formula_units_Z   1
loop_
 _symmetry_equiv_pos_site_id
 _symmetry_equiv_pos_as_xyz
  1  'x, y, z'
loop_
 _atom_site_type_symbol
 _atom_site_label
 _atom_site_symmetry_multiplicity
 _atom_site_fract_x
 _atom_site_fract_y
 _atom_site_fract_z
 _atom_site_occupancy
  Y  Y0  1  0.70393514  0.51759195  0.50000000  1
  Y  Y1  1  0.48109788  0.99871481  0.20334683  1
  Y  Y2  1  0.77775105  0.29536797  0.79665317  1
  Y  Y3  1  0.50128519  0.01890212  0.79665317  1
  Y  Y4  1  0.99700349  0.99913566  0.99614015  1
  Y  Y5  1  0.04607488  0.19311412  0.50000000  1
  Y  Y6  1  0.30688588  0.45392512  0.50000000  1
  Y  Y7  1  0.20463203  0.72224895  0.20334683  1
  Y  Y8  1  0.98240805  0.79606486  0.50000000  1
  Y  Y9  1  0.50086434  0.50299651  0.00385985  1
  Ga  Ga0  1  0.14125362  0.64231281  0.78356543  1
  Ga  Ga1  1  0.85768719  0.35874638  0.21643457  1
  Ga  Ga2  1  0.63274453  0.86725547  0.50000000  1
  Co  Co0  1  0.37654661  0.12345339  0.50000000  1
  Bi  Bi0  1  0.24491456  0.25508544  1.00000000  1
  Bi  Bi1  1  0.74491456  0.75508544  1.00000000  1
loop_
_geom_bond_atom_site_label_1
_geom_bond_atom_site_label_2
_geom_bond_distance
_geom_bond_site_symmetry_2
Ga0 Y8 3.022292 1_455
Ga0 Y0 3.022300 1_455
Ga0 Y4 3.043097 1_455
Ga0 Y1 3.050239 1_556
Ga0 Y7 3.050247 1_556
Ga0 Y9 3.050687 1_556
Ga0 Y6 3.092871 1_555
Ga0 Y5 3.092878 1_555
Ga1 Y0 3.022292 1_555
Ga1 Y8 3.022301 1_555
Ga1 Y9 3.043097 1_555
Ga1 Y3 3.050239 1_554
Ga1 Y2 3.050247 1_554
Ga1 Y4 3.050687 1_544
Ga1 Y5 3.092871 1_655
Ga1 Y6 3.092878 1_655
Ga2 Y7 2.966316 1_555
Ga2 Y3 2.966316 1_565
Ga2 Y1 2.966317 1_555
Ga2 Y2 2.966317 1_565
Ga2 Y8 2.979469 1_555
Ga2 Y0 2.979469 1_555
Ga2 Y4 3.153596 1_555
Ga2 Y9 3.153596 1_555
Co0 Y5 2.816574 1_555
Co0 Y6 2.816574 1_555
Co0 Y2 2.819383 1_555
Co0 Y1 2.819383 1_545
Co0 Y3 2.819383 1_555
Co0 Y7 2.819383 1_545
Co0 Ga2 2.845019 1_545
Co0 Y4 3.247812 1_444
Co0 Y9 3.247813 1_556
Bi0 Y9 3.319333 1_556
Bi0 Y4 3.319333 1_445
Bi0 Y3 3.327465 1_555
Bi0 Y1 3.327465 1_546
Bi0 Y5 3.392358 1_555
Bi0 Y6 3.392358 1_556
Bi0 Y2 3.395752 1_455
Bi0 Y7 3.395752 1_556
Bi0 Y0 3.429663 1_556
Bi0 Y8 3.429663 1_445
Bi1 Y4 3.319320 1_555
Bi1 Y9 3.319320 1_556
Bi1 Y7 3.327465 1_656
Bi1 Y2 3.327466 1_555
Bi1 Y6 3.392358 1_555
Bi1 Y5 3.392358 1_666
Bi1 Y1 3.395752 1_556
Bi1 Y3 3.395752 1_565
Bi1 Y8 3.429663 1_556
Bi1 Y0 3.429663 1_555
