# generated using pymatgen
data_Mn2AsO4F
_symmetry_space_group_name_H-M   'P 1'
_cell_length_a   7.54369864
_cell_length_b   7.54369843
_cell_length_c   10.26064393
_cell_angle_alpha   65.53964755
_cell_angle_beta   65.53964953
_cell_angle_gamma   52.74404033
_symmetry_Int_Tables_number   1
_chemical_formula_structural   Mn2AsO4F
_chemical_formula_sum   'Mn8 As4 O16 F4'
_cell_volume   412.14191450
_cell_formula_units_Z   4
loop_
 _symmetry_equiv_pos_site_id
 _symmetry_equiv_pos_as_xyz
  1  'x, y, z'
loop_
 _atom_site_type_symbol
 _atom_site_label
 _atom_site_symmetry_multiplicity
 _atom_site_fract_x
 _atom_site_fract_y
 _atom_site_fract_z
 _atom_site_occupancy
  Mn  Mn0  1  0.20005395  0.68642740  0.01355755  1
  Mn  Mn1  1  0.34549835  0.77123767  0.49175199  1
  Mn  Mn2  1  0.77123767  0.34549835  0.99175199  1
  Mn  Mn3  1  0.68642740  0.20005395  0.51355755  1
  Mn  Mn4  1  0.95674223  0.74369956  0.36300184  1
  Mn  Mn5  1  0.27536708  0.05358095  0.13352978  1
  Mn  Mn6  1  0.05358095  0.27536708  0.63352978  1
  Mn  Mn7  1  0.74369956  0.95674223  0.86300184  1
  As  As0  1  0.42300362  0.22580416  0.30784926  1
  As  As1  1  0.77995756  0.56773253  0.19405596  1
  As  As2  1  0.56773253  0.77995756  0.69405596  1
  As  As3  1  0.22580416  0.42300362  0.80784926  1
  O  O0  1  0.46257833  0.37838637  0.13429248  1
  O  O1  1  0.62064277  0.52327074  0.36525750  1
  O  O2  1  0.52327074  0.62064277  0.86525750  1
  O  O3  1  0.37838637  0.46257833  0.63429248  1
  O  O4  1  0.35390085  0.04667616  0.30949390  1
  O  O5  1  0.95739331  0.62756847  0.20257824  1
  O  O6  1  0.62756847  0.95739331  0.70257824  1
  O  O7  1  0.04667616  0.35390085  0.80949390  1
  O  O8  1  0.21597024  0.39883783  0.42604972  1
  O  O9  1  0.61275693  0.77947358  0.07371266  1
  O  O10  1  0.77947358  0.61275693  0.57371266  1
  O  O11  1  0.39883783  0.21597024  0.92604972  1
  O  O12  1  0.66400859  0.07229941  0.37102486  1
  O  O13  1  0.93274539  0.32572746  0.12974448  1
  O  O14  1  0.32572746  0.93274539  0.62974448  1
  O  O15  1  0.07229941  0.66400859  0.87102486  1
  F  F0  1  0.15489681  0.85419893  0.15845905  1
  F  F1  1  0.85419893  0.15489681  0.65845905  1
  F  F2  1  0.03734536  0.90041340  0.44954272  1
  F  F3  1  0.90041340  0.03734536  0.94954272  1
loop_
_geom_bond_atom_site_label_1
_geom_bond_atom_site_label_2
_geom_bond_distance
_geom_bond_site_symmetry_2
Mn0 O2 2.143503 1_554
Mn0 O5 2.154179 1_455
Mn0 O15 2.160002 1_554
Mn0 O0 2.220907 1_555
Mn1 O3 2.098364 1_555
Mn1 O14 2.131924 1_555
Mn1 O1 2.137893 1_555
Mn1 O4 2.159174 1_565
Mn2 O0 2.098364 1_556
Mn2 O13 2.131924 1_556
Mn2 O2 2.137893 1_555
Mn2 O7 2.159174 1_655
Mn3 O1 2.143503 1_555
Mn3 O6 2.154179 1_545
Mn3 O12 2.160002 1_555
Mn3 O3 2.220907 1_555
Mn4 O12 2.102094 1_565
Mn4 O8 2.122484 1_655
Mn4 O5 2.158533 1_555
Mn4 O10 2.207904 1_555
Mn5 O4 2.093824 1_555
Mn5 O11 2.116615 1_554
Mn5 O13 2.118768 1_455
Mn5 O9 2.125005 1_545
Mn6 O7 2.093824 1_555
Mn6 O8 2.116615 1_555
Mn6 O14 2.118768 1_545
Mn6 O10 2.125005 1_455
Mn7 O15 2.102094 1_655
Mn7 O11 2.122484 1_565
Mn7 O6 2.158533 1_555
Mn7 O9 2.207904 1_556
As0 O0 1.692214 1_555
As0 O12 1.694649 1_555
As0 O8 1.699436 1_555
As0 O4 1.710178 1_555
As1 O5 1.692387 1_555
As1 O9 1.698276 1_555
As1 O1 1.701314 1_555
As1 O13 1.707894 1_555
As2 O6 1.692387 1_555
As2 O10 1.698276 1_555
As2 O2 1.701314 1_555
As2 O14 1.707894 1_555
As3 O3 1.692214 1_555
As3 O15 1.694649 1_555
As3 O11 1.699436 1_555
As3 O7 1.710178 1_555
F0 Mn5 2.073027 1_565
F0 Mn0 2.131951 1_555
F0 Mn4 2.189952 1_455
F1 Mn6 2.073027 1_655
F1 Mn3 2.131951 1_555
F1 Mn7 2.189952 1_545
F2 Mn1 2.069434 1_555
F2 Mn4 2.177748 1_455
F2 Mn3 2.256839 1_465
F3 Mn2 2.069434 1_555
F3 Mn7 2.177748 1_545
F3 Mn0 2.256839 1_646
