# generated using pymatgen
data_NaLu3Sb6Rh7
_symmetry_space_group_name_H-M   'P 1'
_cell_length_a   7.49379565
_cell_length_b   7.49379632
_cell_length_c   7.49379679
_cell_angle_alpha   109.61954780
_cell_angle_beta   109.61954546
_cell_angle_gamma   109.61955531
_symmetry_Int_Tables_number   1
_chemical_formula_structural   NaLu3Sb6Rh7
_chemical_formula_sum   'Na1 Lu3 Sb6 Rh7'
_cell_volume   322.16295335
_cell_formula_units_Z   1
loop_
 _symmetry_equiv_pos_site_id
 _symmetry_equiv_pos_as_xyz
  1  'x, y, z'
loop_
 _atom_site_type_symbol
 _atom_site_label
 _atom_site_symmetry_multiplicity
 _atom_site_fract_x
 _atom_site_fract_y
 _atom_site_fract_z
 _atom_site_occupancy
  Na  Na0  1  0.50000000  0.50000000  0.50000000  1
  Lu  Lu0  1  0.50000000  0.00000000  0.00000000  1
  Lu  Lu1  1  0.00000000  0.50000000  0.00000000  1
  Lu  Lu2  1  0.00000000  0.00000000  0.50000000  1
  Sb  Sb0  1  0.32161022  0.01005675  0.32161022  1
  Sb  Sb1  1  0.98994325  0.67838978  0.67838978  1
  Sb  Sb2  1  0.67838978  0.67838978  0.98994325  1
  Sb  Sb3  1  0.67838978  0.98994325  0.67838978  1
  Sb  Sb4  1  0.01005675  0.32161022  0.32161022  1
  Sb  Sb5  1  0.32161022  0.32161022  0.01005675  1
  Rh  Rh0  1  0.24310404  0.50000000  0.75689596  1
  Rh  Rh1  1  0.50000000  0.24310404  0.75689596  1
  Rh  Rh2  1  0.75689596  0.24310404  0.50000000  1
  Rh  Rh3  1  0.50000000  0.75689596  0.24310404  1
  Rh  Rh4  1  0.00000000  0.00000000  0.00000000  1
  Rh  Rh5  1  0.24310404  0.75689596  0.50000000  1
  Rh  Rh6  1  0.75689596  0.50000000  0.24310404  1
loop_
_geom_bond_atom_site_label_1
_geom_bond_atom_site_label_2
_geom_bond_distance
_geom_bond_site_symmetry_2
Na0 Sb1 3.043369 1_555
Na0 Sb4 3.043369 1_555
Na0 Sb0 3.043370 1_555
Na0 Sb3 3.043370 1_555
Na0 Sb2 3.043370 1_555
Na0 Sb5 3.043370 1_555
Na0 Rh6 3.146592 1_555
Na0 Rh0 3.146592 1_555
Na0 Rh2 3.146592 1_555
Na0 Rh5 3.146592 1_555
Na0 Rh3 3.146592 1_555
Na0 Rh1 3.146592 1_555
Lu0 Rh1 2.977662 1_554
Lu0 Rh3 2.977662 1_545
Lu0 Rh6 3.046474 1_555
Lu0 Rh0 3.046474 1_544
Lu0 Rh2 3.046474 1_555
Lu0 Rh5 3.046474 1_544
Lu0 Sb0 3.116175 1_555
Lu0 Sb3 3.116175 1_544
Lu0 Sb5 3.116175 1_555
Lu0 Sb2 3.116175 1_544
Lu0 Sb4 3.154914 1_655
Lu0 Sb1 3.154914 1_444
Lu1 Rh0 2.977662 1_554
Lu1 Rh6 2.977662 1_455
Lu1 Rh3 3.046474 1_555
Lu1 Rh1 3.046474 1_454
Lu1 Rh5 3.046474 1_555
Lu1 Rh2 3.046474 1_454
Lu1 Sb5 3.116175 1_555
Lu1 Sb2 3.116175 1_454
Lu1 Sb4 3.116175 1_555
Lu1 Sb1 3.116175 1_454
Lu1 Sb3 3.154915 1_444
Lu1 Sb0 3.154915 1_565
Lu2 Rh5 2.977662 1_545
Lu2 Rh2 2.977662 1_455
Lu2 Rh1 3.046474 1_555
Lu2 Rh3 3.046474 1_445
Lu2 Rh0 3.046474 1_555
Lu2 Rh6 3.046474 1_445
Lu2 Sb0 3.116175 1_555
Lu2 Sb3 3.116175 1_445
Lu2 Sb4 3.116175 1_555
Lu2 Sb1 3.116175 1_445
Lu2 Sb5 3.154915 1_556
Lu2 Sb2 3.154915 1_444
Rh0 Sb2 2.674984 1_555
Rh0 Sb4 2.674984 1_555
Rh0 Sb1 2.685901 1_455
Rh0 Sb5 2.685901 1_556
Rh1 Sb2 2.674984 1_555
Rh1 Sb0 2.674984 1_555
Rh1 Sb5 2.685901 1_556
Rh1 Sb3 2.685901 1_545
Rh2 Sb0 2.674984 1_555
Rh2 Sb1 2.674984 1_555
Rh2 Sb4 2.685901 1_655
Rh2 Sb3 2.685901 1_545
Rh3 Sb5 2.674984 1_555
Rh3 Sb3 2.674984 1_555
Rh3 Sb2 2.685901 1_554
Rh3 Sb0 2.685901 1_565
Rh4 Sb5 2.734602 1_555
Rh4 Sb2 2.734602 1_444
Rh4 Sb0 2.734602 1_555
Rh4 Sb3 2.734602 1_444
Rh4 Sb4 2.734602 1_555
Rh4 Sb1 2.734602 1_444
Rh5 Sb3 2.674984 1_555
Rh5 Sb4 2.674984 1_555
Rh5 Sb1 2.685901 1_455
Rh5 Sb0 2.685901 1_565
Rh6 Sb5 2.674984 1_555
Rh6 Sb1 2.674984 1_555
Rh6 Sb4 2.685901 1_655
Rh6 Sb2 2.685901 1_554
