# generated using pymatgen
data_Sr3Ga2SiGe
_symmetry_space_group_name_H-M   'P 1'
_cell_length_a   10.02010060
_cell_length_b   10.02010135
_cell_length_c   4.19008154
_cell_angle_alpha   102.05807902
_cell_angle_beta   102.05807255
_cell_angle_gamma   143.00796814
_symmetry_Int_Tables_number   1
_chemical_formula_structural   Sr3Ga2SiGe
_chemical_formula_sum   'Sr3 Ga2 Si1 Ge1'
_cell_volume   190.50240784
_cell_formula_units_Z   1
loop_
 _symmetry_equiv_pos_site_id
 _symmetry_equiv_pos_as_xyz
  1  'x, y, z'
loop_
 _atom_site_type_symbol
 _atom_site_label
 _atom_site_symmetry_multiplicity
 _atom_site_fract_x
 _atom_site_fract_y
 _atom_site_fract_z
 _atom_site_occupancy
  Sr  Sr0  1  0.81684458  0.18315542  1.00000000  1
  Sr  Sr1  1  0.18307775  0.81692225  0.00000000  1
  Sr  Sr2  1  0.00050823  0.99949177  0.50000000  1
  Ga  Ga0  1  0.56524436  0.43475464  0.50000000  1
  Ga  Ga1  1  0.43624297  0.56375603  0.50000000  1
  Si  Si0  1  0.63703524  0.36296476  1.00000000  1
  Ge  Ge0  1  0.36104588  0.63895412  0.00000000  1
loop_
_geom_bond_atom_site_label_1
_geom_bond_atom_site_label_2
_geom_bond_distance
_geom_bond_site_symmetry_2
Ga0 Ga1 2.451677 1_555
Ga0 Si0 2.500143 1_555
Ga0 Si0 2.500147 1_554
Ga0 Sr1 3.276876 1_545
Ga0 Sr1 3.276880 1_656
Ga0 Sr2 3.408550 1_545
Ga0 Sr2 3.408556 1_655
Ga0 Sr2 3.410778 1_544
Ga0 Sr2 3.410779 1_656
Ga1 Ge0 2.536062 1_556
Ga1 Ge0 2.536065 1_555
Ga1 Sr0 3.297287 1_454
Ga1 Sr0 3.297291 1_565
Ga1 Sr2 3.405323 1_545
Ga1 Sr2 3.405329 1_655
Ga1 Sr2 3.407554 1_544
Ga1 Sr2 3.407554 1_656
Si0 Sr1 3.297004 1_656
Si0 Sr1 3.297004 1_546
Si0 Sr1 3.299305 1_657
Si0 Sr1 3.299305 1_545
Si0 Sr0 3.417284 1_555
Si0 Sr2 3.529222 1_545
Si0 Sr2 3.529222 1_656
Ge0 Sr0 3.287890 1_454
Ge0 Sr0 3.287890 1_564
Ge0 Sr0 3.290197 1_453
Ge0 Sr0 3.290197 1_565
Ge0 Sr1 3.382291 1_555
Ge0 Sr2 3.570436 1_655
Ge0 Sr2 3.570437 1_544
