# generated using pymatgen
data_Cs2Hf(AgS2)2
_symmetry_space_group_name_H-M   'P 1'
_cell_length_a   6.15140198
_cell_length_b   6.15140198
_cell_length_c   13.93026320
_cell_angle_alpha   90.00000000
_cell_angle_beta   90.00000000
_cell_angle_gamma   90.00000000
_symmetry_Int_Tables_number   1
_chemical_formula_structural   Cs2Hf(AgS2)2
_chemical_formula_sum   'Cs4 Hf2 Ag4 S8'
_cell_volume   527.11762589
_cell_formula_units_Z   2
loop_
 _symmetry_equiv_pos_site_id
 _symmetry_equiv_pos_as_xyz
  1  'x, y, z'
loop_
 _atom_site_type_symbol
 _atom_site_label
 _atom_site_symmetry_multiplicity
 _atom_site_fract_x
 _atom_site_fract_y
 _atom_site_fract_z
 _atom_site_occupancy
  Cs  Cs0  1  0.76952593  0.76952593  0.00000000  1
  Cs  Cs1  1  0.23047407  0.76952593  0.50000000  1
  Cs  Cs2  1  0.76952593  0.23047407  0.50000000  1
  Cs  Cs3  1  0.23047407  0.23047407  0.00000000  1
  Hf  Hf0  1  0.50000000  0.50000000  0.75000000  1
  Hf  Hf1  1  0.50000000  0.50000000  0.25000000  1
  Ag  Ag0  1  0.00000000  0.50000000  0.75000000  1
  Ag  Ag1  1  0.50000000  0.00000000  0.75000000  1
  Ag  Ag2  1  0.00000000  0.50000000  0.25000000  1
  Ag  Ag3  1  0.50000000  0.00000000  0.25000000  1
  S  S0  1  0.72340296  0.72340296  0.64920667  1
  S  S1  1  0.27659704  0.27659704  0.64920667  1
  S  S2  1  0.72340296  0.72340296  0.35079333  1
  S  S3  1  0.72340296  0.27659704  0.14920667  1
  S  S4  1  0.27659704  0.72340296  0.85079333  1
  S  S5  1  0.27659704  0.27659704  0.35079333  1
  S  S6  1  0.27659704  0.72340296  0.14920667  1
  S  S7  1  0.72340296  0.27659704  0.85079333  1
loop_
_geom_bond_atom_site_label_1
_geom_bond_atom_site_label_2
_geom_bond_distance
_geom_bond_site_symmetry_2
Cs0 S6 3.687122 1_555
Cs0 S3 3.687122 1_555
Cs0 S7 3.687122 1_554
Cs0 S4 3.687122 1_554
Cs0 S3 3.758990 1_565
Cs0 S6 3.758990 1_655
Cs0 S7 3.758990 1_564
Cs0 S4 3.758990 1_654
Cs1 S1 3.687122 1_555
Cs1 S0 3.687122 1_555
Cs1 S5 3.687122 1_555
Cs1 S2 3.687122 1_555
Cs1 S0 3.758990 1_455
Cs1 S1 3.758990 1_565
Cs1 S2 3.758990 1_455
Cs1 S5 3.758990 1_565
Cs2 S1 3.687122 1_555
Cs2 S0 3.687122 1_555
Cs2 S5 3.687122 1_555
Cs2 S2 3.687122 1_555
Cs2 S0 3.758990 1_545
Cs2 S1 3.758990 1_655
Cs2 S2 3.758990 1_545
Cs2 S5 3.758990 1_655
Cs3 S6 3.687122 1_555
Cs3 S3 3.687122 1_555
Cs3 S7 3.687122 1_554
Cs3 S4 3.687122 1_554
Cs3 S3 3.758990 1_455
Cs3 S6 3.758990 1_545
Cs3 S4 3.758990 1_544
Cs3 S7 3.758990 1_454
Hf0 S4 2.397606 1_555
Hf0 S7 2.397606 1_555
Hf0 S0 2.397606 1_555
Hf0 S1 2.397606 1_555
Hf1 S2 2.397606 1_555
Hf1 S5 2.397606 1_555
Hf1 S6 2.397606 1_555
Hf1 S3 2.397606 1_555
Ag0 S4 2.599026 1_555
Ag0 S7 2.599026 1_455
Ag0 S1 2.599026 1_555
Ag0 S0 2.599026 1_455
Ag1 S7 2.599026 1_555
Ag1 S4 2.599026 1_545
Ag1 S1 2.599026 1_555
Ag1 S0 2.599026 1_545
Ag2 S5 2.599026 1_555
Ag2 S2 2.599026 1_455
Ag2 S6 2.599026 1_555
Ag2 S3 2.599026 1_455
Ag3 S5 2.599026 1_555
Ag3 S2 2.599026 1_545
Ag3 S3 2.599026 1_555
Ag3 S6 2.599026 1_545
