# generated using pymatgen
data_Hf6Zn5PdC2
_symmetry_space_group_name_H-M   'P 1'
_cell_length_a   8.51493457
_cell_length_b   8.51493505
_cell_length_c   8.53915360
_cell_angle_alpha   59.90586848
_cell_angle_beta   59.90586659
_cell_angle_gamma   59.77033344
_symmetry_Int_Tables_number   1
_chemical_formula_structural   Hf6Zn5PdC2
_chemical_formula_sum   'Hf12 Zn10 Pd2 C4'
_cell_volume   436.40102128
_cell_formula_units_Z   2
loop_
 _symmetry_equiv_pos_site_id
 _symmetry_equiv_pos_as_xyz
  1  'x, y, z'
loop_
 _atom_site_type_symbol
 _atom_site_label
 _atom_site_symmetry_multiplicity
 _atom_site_fract_x
 _atom_site_fract_y
 _atom_site_fract_z
 _atom_site_occupancy
  Hf  Hf0  1  0.43932641  0.43932641  0.06067359  1
  Hf  Hf1  1  0.05832845  0.43919650  0.06339663  1
  Hf  Hf2  1  0.43919650  0.05832845  0.06339663  1
  Hf  Hf3  1  0.06055493  0.06055493  0.43944507  1
  Hf  Hf4  1  0.43919650  0.05832845  0.43907842  1
  Hf  Hf5  1  0.05832845  0.43919650  0.43907842  1
  Hf  Hf6  1  0.81067359  0.81067359  0.18932641  1
  Hf  Hf7  1  0.19167155  0.81080350  0.18660337  1
  Hf  Hf8  1  0.81080350  0.19167155  0.18660337  1
  Hf  Hf9  1  0.18944507  0.18944507  0.81055493  1
  Hf  Hf10  1  0.81080350  0.19167155  0.81092158  1
  Hf  Hf11  1  0.19167155  0.81080350  0.81092158  1
  Zn  Zn0  1  0.83273863  0.83273863  0.50321597  1
  Zn  Zn1  1  0.83281344  0.50560253  0.83079251  1
  Zn  Zn2  1  0.50560253  0.83281344  0.83079251  1
  Zn  Zn3  1  0.83273863  0.83273863  0.83130577  1
  Zn  Zn4  1  0.41726137  0.41726137  0.74678403  1
  Zn  Zn5  1  0.41718656  0.74439747  0.41920749  1
  Zn  Zn6  1  0.74439747  0.41718656  0.41920749  1
  Zn  Zn7  1  0.41726137  0.41726137  0.41869423  1
  Zn  Zn8  1  0.62500000  0.12500000  0.62500000  1
  Zn  Zn9  1  0.12500000  0.62500000  0.62500000  1
  Pd  Pd0  1  0.62500000  0.62500000  0.12500000  1
  Pd  Pd1  1  0.62500000  0.62500000  0.62500000  1
  C  C0  1  0.12500000  0.12500000  0.62500000  1
  C  C1  1  0.12500000  0.62500000  0.12500000  1
  C  C2  1  0.62500000  0.12500000  0.12500000  1
  C  C3  1  0.12500000  0.12500000  0.12500000  1
loop_
_geom_bond_atom_site_label_1
_geom_bond_atom_site_label_2
_geom_bond_distance
_geom_bond_site_symmetry_2
Hf0 Zn4 2.881054 1_554
Hf0 Zn7 2.881063 1_555
Hf0 Pd1 3.091849 1_554
Hf0 Pd0 3.091849 1_555
Hf0 Zn1 3.097583 1_554
Hf0 Zn2 3.097584 1_554
Hf1 Zn6 2.863663 1_455
Hf1 Zn4 2.886238 1_554
Hf1 Pd0 3.066625 1_455
Hf1 Zn3 3.085911 1_454
Hf1 Zn1 3.091525 1_454
Hf1 Zn9 3.110149 1_554
Hf2 Zn5 2.863663 1_545
Hf2 Zn4 2.886239 1_554
Hf2 Pd0 3.066625 1_545
Hf2 Zn3 3.085911 1_544
Hf2 Zn2 3.091525 1_544
Hf2 Zn8 3.110149 1_554
Hf3 Zn5 2.864819 1_545
Hf3 Zn6 2.864819 1_455
Hf3 Zn3 3.081050 1_445
Hf3 Zn0 3.081053 1_445
Hf3 Zn8 3.081541 1_455
Hf3 Zn9 3.081542 1_545
Hf4 Zn5 2.863668 1_545
Hf4 Zn7 2.886242 1_555
Hf4 Pd1 3.066625 1_545
Hf4 Zn0 3.085908 1_545
Hf4 Zn2 3.091533 1_545
Hf4 Zn8 3.110149 1_555
Hf5 Zn6 2.863668 1_455
Hf5 Zn7 2.886242 1_555
Hf5 Pd1 3.066625 1_455
Hf5 Zn0 3.085908 1_455
Hf5 Zn1 3.091533 1_455
Hf5 Zn9 3.110149 1_555
Hf6 Zn0 2.881054 1_555
Hf6 Zn3 2.881063 1_554
Hf6 Pd1 3.091849 1_555
Hf6 Pd0 3.091849 1_555
Hf6 Zn5 3.097583 1_555
Hf6 Zn6 3.097584 1_555
Hf7 Zn2 2.863663 1_554
Hf7 Zn0 2.886238 1_455
Hf7 Pd0 3.066625 1_555
Hf7 Zn7 3.085911 1_555
Hf7 Zn5 3.091525 1_555
Hf7 Zn9 3.110149 1_555
Hf8 Zn1 2.863663 1_554
Hf8 Zn0 2.886239 1_545
Hf8 Pd0 3.066625 1_555
Hf8 Zn7 3.085911 1_555
Hf8 Zn6 3.091525 1_555
Hf8 Zn8 3.110149 1_555
Hf9 Zn1 2.864819 1_455
Hf9 Zn2 2.864819 1_545
Hf9 Zn7 3.081050 1_555
Hf9 Zn4 3.081053 1_555
Hf9 Zn8 3.081541 1_555
Hf9 Zn9 3.081542 1_555
Hf10 Zn1 2.863668 1_555
Hf10 Zn3 2.886242 1_545
Hf10 Pd1 3.066625 1_555
Hf10 Zn4 3.085908 1_555
Hf10 Zn6 3.091533 1_555
Hf10 Zn8 3.110149 1_555
Hf11 Zn2 2.863668 1_555
Hf11 Zn3 2.886242 1_455
Hf11 Pd1 3.066625 1_555
Hf11 Zn4 3.085908 1_555
Hf11 Zn5 3.091533 1_555
Hf11 Zn9 3.110149 1_555
Zn0 Zn9 2.592585 1_655
Zn0 Zn8 2.592585 1_565
Zn0 Zn2 2.787430 1_555
Zn0 Zn1 2.787430 1_555
Zn0 Zn3 2.801609 1_555
Zn1 Zn9 2.585028 1_655
Zn1 Zn2 2.776502 1_555
Zn1 Zn3 2.787422 1_555
Zn2 Zn8 2.585028 1_565
Zn2 Zn3 2.787422 1_555
Zn3 Zn9 2.592580 1_655
Zn3 Zn8 2.592580 1_565
Zn4 Zn9 2.592585 1_555
Zn4 Zn8 2.592585 1_555
Zn4 Zn6 2.787430 1_555
Zn4 Zn5 2.787430 1_555
Zn4 Zn7 2.801609 1_555
Zn5 Zn9 2.585028 1_555
Zn5 Zn6 2.776502 1_555
Zn5 Zn7 2.787422 1_555
Zn6 Zn8 2.585028 1_555
Zn6 Zn7 2.787422 1_555
Zn7 Zn9 2.592580 1_555
Zn7 Zn8 2.592580 1_555
Pd0 Zn5 2.601560 1_555
Pd0 Zn1 2.601560 1_554
Pd0 Zn6 2.601560 1_555
Pd0 Zn2 2.601560 1_554
Pd0 Zn3 2.607775 1_554
Pd0 Zn7 2.607775 1_555
Pd1 Zn1 2.601567 1_555
Pd1 Zn5 2.601567 1_555
Pd1 Zn2 2.601567 1_555
Pd1 Zn6 2.601567 1_555
Pd1 Zn0 2.607773 1_555
Pd1 Zn4 2.607773 1_555
C0 Hf4 2.261716 1_555
C0 Hf10 2.261716 1_455
C0 Hf5 2.261716 1_555
C0 Hf11 2.261716 1_545
C0 Hf9 2.271550 1_555
C0 Hf3 2.271550 1_555
C1 Hf0 2.258424 1_555
C1 Hf6 2.258424 1_455
C1 Hf5 2.267280 1_555
C1 Hf11 2.267280 1_554
C1 Hf7 2.267280 1_555
C1 Hf1 2.267280 1_555
C2 Hf0 2.258425 1_555
C2 Hf6 2.258425 1_545
C2 Hf8 2.267280 1_555
C2 Hf4 2.267280 1_555
C2 Hf10 2.267280 1_554
C2 Hf2 2.267280 1_555
C3 Hf2 2.261716 1_555
C3 Hf8 2.261716 1_455
C3 Hf1 2.261716 1_555
C3 Hf7 2.261716 1_545
C3 Hf3 2.271550 1_555
C3 Hf9 2.271550 1_554
