# generated using pymatgen
data_Zr5BeGa2Te
_symmetry_space_group_name_H-M   'P 1'
_cell_length_a   8.35123411
_cell_length_b   8.37829406
_cell_length_c   5.72878007
_cell_angle_alpha   90.00000000
_cell_angle_beta   90.00000000
_cell_angle_gamma   120.10724608
_symmetry_Int_Tables_number   1
_chemical_formula_structural   Zr5BeGa2Te
_chemical_formula_sum   'Zr10 Be2 Ga4 Te2'
_cell_volume   346.75975611
_cell_formula_units_Z   2
loop_
 _symmetry_equiv_pos_site_id
 _symmetry_equiv_pos_as_xyz
  1  'x, y, z'
loop_
 _atom_site_type_symbol
 _atom_site_label
 _atom_site_symmetry_multiplicity
 _atom_site_fract_x
 _atom_site_fract_y
 _atom_site_fract_z
 _atom_site_occupancy
  Zr  Zr0  1  0.67325305  0.33722326  0.00752155  1
  Zr  Zr1  1  0.32674695  0.66397121  0.00752155  1
  Zr  Zr2  1  0.32674695  0.66397121  0.49247845  1
  Zr  Zr3  1  0.67325305  0.33722326  0.49247845  1
  Zr  Zr4  1  0.75975891  0.75247489  0.75000000  1
  Zr  Zr5  1  0.24024109  0.99271598  0.75000000  1
  Zr  Zr6  1  1.00000000  0.24988474  0.75000000  1
  Zr  Zr7  1  0.26603185  0.26529589  0.25000000  1
  Zr  Zr8  1  0.73396815  0.99926404  0.25000000  1
  Zr  Zr9  1  1.00000000  0.73251748  0.25000000  1
  Be  Be0  1  0.00000000  0.00110795  0.03701422  1
  Be  Be1  1  0.00000000  0.00110795  0.46298578  1
  Ga  Ga0  1  1.00000000  0.60821325  0.75000000  1
  Ga  Ga1  1  0.62152679  0.62235677  0.25000000  1
  Ga  Ga2  1  0.37847321  0.00083098  0.25000000  1
  Ga  Ga3  1  0.00000000  0.38003121  0.25000000  1
  Te  Te0  1  0.39478761  0.39329977  0.75000000  1
  Te  Te1  1  0.60521239  0.99851316  0.75000000  1
loop_
_geom_bond_atom_site_label_1
_geom_bond_atom_site_label_2
_geom_bond_distance
_geom_bond_site_symmetry_2
Be0 Be1 2.440297 1_555
Be0 Zr7 2.527942 1_555
Be0 Zr8 2.527942 1_445
Be0 Zr9 2.559834 1_445
Be0 Zr4 2.622074 1_444
Be0 Zr5 2.622074 1_544
Be0 Zr6 2.654796 1_454
Be1 Zr7 2.527942 1_555
Be1 Zr8 2.527942 1_445
Be1 Zr9 2.559834 1_445
Be1 Zr4 2.622074 1_445
Be1 Zr5 2.622074 1_545
Be1 Zr6 2.654796 1_455
Ga0 Zr5 2.814066 1_655
Ga0 Zr4 2.814066 1_555
Ga0 Zr1 2.926063 1_656
Ga0 Zr2 2.926063 1_655
Ga0 Zr0 2.926065 1_556
Ga0 Zr3 2.926065 1_555
Ga0 Zr6 3.002182 1_555
Ga0 Zr9 3.047846 1_555
Ga0 Zr9 3.047846 1_556
Ga1 Zr8 2.806924 1_555
Ga1 Zr9 2.813419 1_555
Ga1 Zr7 2.975424 1_555
Ga1 Zr3 2.976328 1_555
Ga1 Zr0 2.976328 1_555
Ga1 Zr2 2.995432 1_555
Ga1 Zr1 2.995432 1_555
Ga1 Zr4 3.076244 1_555
Ga1 Zr4 3.076244 1_554
Ga2 Zr7 2.806916 1_555
Ga2 Zr9 2.813421 1_445
Ga2 Zr8 2.975429 1_545
Ga2 Zr2 2.976328 1_545
Ga2 Zr1 2.976328 1_545
Ga2 Zr3 2.995423 1_555
Ga2 Zr0 2.995423 1_555
Ga2 Zr5 3.076243 1_544
Ga2 Zr5 3.076243 1_545
Ga3 Zr8 2.828887 1_445
Ga3 Zr7 2.828887 1_555
Ga3 Zr3 2.919318 1_455
Ga3 Zr0 2.919318 1_455
Ga3 Zr2 2.919321 1_555
Ga3 Zr1 2.919321 1_555
Ga3 Zr9 2.953234 1_455
Ga3 Zr6 3.064917 1_455
Ga3 Zr6 3.064917 1_454
Te0 Zr6 2.887796 1_455
Te0 Zr5 2.929878 1_545
Te0 Zr0 2.983525 1_556
Te0 Zr3 2.983525 1_555
Te0 Zr1 2.989126 1_556
Te0 Zr2 2.989126 1_555
Te0 Zr4 3.023893 1_555
Te0 Zr7 3.058460 1_555
Te0 Zr7 3.058460 1_556
Te1 Zr6 2.887795 1_565
Te1 Zr4 2.929886 1_555
Te1 Zr1 2.983525 1_556
Te1 Zr2 2.983525 1_555
Te1 Zr0 2.989111 1_566
Te1 Zr3 2.989111 1_565
Te1 Zr5 3.023889 1_555
Te1 Zr8 3.058462 1_556
Te1 Zr8 3.058462 1_555
