# generated using pymatgen
data_Ba4AgH12Ir
_symmetry_space_group_name_H-M   'P 1'
_cell_length_a   8.05409870
_cell_length_b   8.05409913
_cell_length_c   5.94969918
_cell_angle_alpha   90.00167969
_cell_angle_beta   90.00167578
_cell_angle_gamma   136.68293733
_symmetry_Int_Tables_number   1
_chemical_formula_structural   Ba4AgH12Ir
_chemical_formula_sum   'Ba4 Ag1 H12 Ir1'
_cell_volume   264.77393612
_cell_formula_units_Z   1
loop_
 _symmetry_equiv_pos_site_id
 _symmetry_equiv_pos_as_xyz
  1  'x, y, z'
loop_
 _atom_site_type_symbol
 _atom_site_label
 _atom_site_symmetry_multiplicity
 _atom_site_fract_x
 _atom_site_fract_y
 _atom_site_fract_z
 _atom_site_occupancy
  Ba  Ba0  1  0.35627105  0.64372895  0.00000000  1
  Ba  Ba1  1  0.85596233  0.14403767  0.50000000  1
  Ba  Ba2  1  0.64372895  0.35627105  1.00000000  1
  Ba  Ba3  1  0.14403767  0.85596233  0.50000000  1
  Ag  Ag0  1  0.00000000  0.00000000  0.00000000  1
  H  H0  1  0.99996800  0.49990440  0.24820794  1
  H  H1  1  0.50009560  0.00003200  0.75179206  1
  H  H2  1  0.00003200  0.50009560  0.75179206  1
  H  H3  1  0.49990440  0.99996800  0.24820794  1
  H  H4  1  0.11417416  0.88582584  1.00000000  1
  H  H5  1  0.61248849  0.38751151  0.50000000  1
  H  H6  1  0.88582584  0.11417416  0.00000000  1
  H  H7  1  0.38751151  0.61248849  0.50000000  1
  H  H8  1  0.70186658  0.70186658  0.29959618  1
  H  H9  1  0.29813342  0.29813342  0.70040382  1
  H  H10  1  0.70058027  0.70058027  0.70172812  1
  H  H11  1  0.29941973  0.29941973  0.29827188  1
  Ir  Ir0  1  0.50000000  0.50000000  0.50000000  1
loop_
_geom_bond_atom_site_label_1
_geom_bond_atom_site_label_2
_geom_bond_distance
_geom_bond_site_symmetry_2
Ba0 H0 2.630785 1_455
Ba0 H1 2.630786 1_564
Ba0 H2 2.630800 1_554
Ba0 H3 2.630801 1_555
Ba0 H6 3.005310 1_565
Ba0 H6 3.005310 1_455
Ba0 H7 3.011391 1_554
Ba0 H7 3.011391 1_555
Ba0 H10 3.033431 1_554
Ba0 H11 3.033431 1_555
Ba0 H8 3.040946 1_555
Ba0 H9 3.040946 1_554
Ba1 H1 2.639610 1_555
Ba1 H0 2.639610 1_555
Ba1 H3 2.640475 1_545
Ba1 H2 2.640475 1_655
Ba1 H6 3.008258 1_555
Ba1 H6 3.008258 1_556
Ba1 H7 3.009851 1_655
Ba1 H7 3.009851 1_545
Ba1 H9 3.035271 1_655
Ba1 H8 3.035271 1_545
Ba1 H11 3.042953 1_655
Ba1 H10 3.042953 1_545
Ba2 H2 2.630785 1_655
Ba2 H3 2.630786 1_546
Ba2 H0 2.630800 1_556
Ba2 H1 2.630801 1_555
Ba2 H4 3.005310 1_545
Ba2 H4 3.005310 1_655
Ba2 H5 3.011391 1_556
Ba2 H5 3.011391 1_555
Ba2 H11 3.033431 1_556
Ba2 H10 3.033431 1_555
Ba2 H9 3.040946 1_555
Ba2 H8 3.040946 1_556
Ba3 H3 2.639610 1_555
Ba3 H2 2.639610 1_555
Ba3 H1 2.640475 1_565
Ba3 H0 2.640475 1_455
Ba3 H4 3.008258 1_555
Ba3 H4 3.008258 1_554
Ba3 H5 3.009851 1_455
Ba3 H5 3.009851 1_565
Ba3 H8 3.035271 1_455
Ba3 H9 3.035271 1_565
Ba3 H10 3.042953 1_455
Ba3 H11 3.042953 1_565
Ag0 H4 1.709297 1_544
Ag0 H6 1.709297 1_455
Ag0 H11 2.513466 1_555
Ag0 H10 2.513466 1_444
Ag0 H9 2.513836 1_554
Ag0 H8 2.513836 1_445
H5 Ir0 1.684060 1_555
H7 Ir0 1.684060 1_555
H8 Ir0 1.691803 1_555
H9 Ir0 1.691803 1_555
H10 Ir0 1.691833 1_555
H11 Ir0 1.691833 1_555
