# generated using pymatgen
data_Lu2W2C3
_symmetry_space_group_name_H-M   'P 1'
_cell_length_a   5.97081937
_cell_length_b   5.97082016
_cell_length_c   5.59210160
_cell_angle_alpha   110.23619440
_cell_angle_beta   110.23619634
_cell_angle_gamma   31.74017413
_symmetry_Int_Tables_number   1
_chemical_formula_structural   Lu2W2C3
_chemical_formula_sum   'Lu2 W2 C3'
_cell_volume   97.86257739
_cell_formula_units_Z   1
loop_
 _symmetry_equiv_pos_site_id
 _symmetry_equiv_pos_as_xyz
  1  'x, y, z'
loop_
 _atom_site_type_symbol
 _atom_site_label
 _atom_site_symmetry_multiplicity
 _atom_site_fract_x
 _atom_site_fract_y
 _atom_site_fract_z
 _atom_site_occupancy
  Lu  Lu0  1  0.38855147  0.38855147  0.17350794  1
  Lu  Lu1  1  0.61144853  0.61144853  0.82649406  1
  W  W0  1  0.15400958  0.15400958  0.32856736  1
  W  W1  1  0.84599142  0.84599142  0.67143364  1
  C  C0  1  0.00000000  0.00000000  0.00000000  1
  C  C1  1  0.75247494  0.75247494  0.26018396  1
  C  C2  1  0.24752506  0.24752506  0.73981804  1
loop_
_geom_bond_atom_site_label_1
_geom_bond_atom_site_label_2
_geom_bond_distance
_geom_bond_site_symmetry_2
C0 W1 2.041503 1_444
C0 W0 2.041513 1_555
C0 Lu1 2.477783 1_544
C0 Lu1 2.477783 1_454
C0 Lu0 2.477789 1_455
C0 Lu0 2.477790 1_545
C1 W0 2.098193 1_565
C1 W0 2.098193 1_655
C1 W1 2.160104 1_555
C1 Lu1 2.383357 1_554
C1 Lu0 2.426687 1_655
C1 Lu0 2.426687 1_565
C2 W1 2.098202 1_545
C2 W1 2.098202 1_455
C2 W0 2.160108 1_555
C2 Lu0 2.383357 1_556
C2 Lu1 2.426687 1_455
C2 Lu1 2.426687 1_545
