# generated using pymatgen
data_Lu4Sb3As3Rh7
_symmetry_space_group_name_H-M   'P 1'
_cell_length_a   7.36668992
_cell_length_b   7.31285495
_cell_length_c   7.31285610
_cell_angle_alpha   109.32161762
_cell_angle_beta   109.62041028
_cell_angle_gamma   109.62041493
_symmetry_Int_Tables_number   1
_chemical_formula_structural   Lu4Sb3As3Rh7
_chemical_formula_sum   'Lu4 Sb3 As3 Rh7'
_cell_volume   302.70635268
_cell_formula_units_Z   1
loop_
 _symmetry_equiv_pos_site_id
 _symmetry_equiv_pos_as_xyz
  1  'x, y, z'
loop_
 _atom_site_type_symbol
 _atom_site_label
 _atom_site_symmetry_multiplicity
 _atom_site_fract_x
 _atom_site_fract_y
 _atom_site_fract_z
 _atom_site_occupancy
  Lu  Lu0  1  0.54698988  1.00000000  1.00000000  1
  Lu  Lu1  1  0.98745815  0.47720024  1.00000000  1
  Lu  Lu2  1  0.98745815  0.00000000  0.47720024  1
  Lu  Lu3  1  0.51025691  0.52279976  0.52279976  1
  Sb  Sb0  1  0.01076027  0.70027872  0.70027872  1
  Sb  Sb1  1  0.31048055  1.00000000  0.29972128  1
  Sb  Sb2  1  0.31048055  0.29972128  0.00000000  1
  As  As0  1  0.00765058  0.33270845  0.33270845  1
  As  As1  1  0.67494212  0.00000000  0.66729155  1
  As  As2  1  0.67494212  0.66729155  1.00000000  1
  Rh  Rh0  1  0.96125051  0.00000000  0.00000000  1
  Rh  Rh1  1  0.50180170  0.74829302  0.24844746  1
  Rh  Rh2  1  0.75350867  0.50015544  0.25170698  1
  Rh  Rh3  1  0.25335423  0.75155254  0.49984456  1
  Rh  Rh4  1  0.25335423  0.49984456  0.75155254  1
  Rh  Rh5  1  0.50180170  0.24844746  0.74829302  1
  Rh  Rh6  1  0.75350867  0.25170698  0.50015544  1
loop_
_geom_bond_atom_site_label_1
_geom_bond_atom_site_label_2
_geom_bond_distance
_geom_bond_site_symmetry_2
Lu0 Rh1 3.001280 1_556
Lu0 Rh5 3.001280 1_565
Lu0 Rh4 3.001286 1_555
Lu0 Rh2 3.001286 1_566
Lu0 Rh3 3.001286 1_555
Lu0 Rh6 3.001287 1_566
Lu0 Rh0 3.051730 1_566
Lu0 Sb0 3.225556 1_555
Lu0 Sb2 3.225561 1_566
Lu0 Sb1 3.225561 1_556
Lu1 Rh5 2.916647 1_555
Lu1 Rh2 2.916648 1_556
Lu1 Rh6 2.987077 1_555
Lu1 Rh3 2.987077 1_656
Lu1 Sb2 3.069385 1_656
Lu1 Rh4 3.088118 1_655
Lu1 Rh1 3.088118 1_656
Lu1 Sb1 3.150482 1_656
Lu1 Sb0 3.150483 1_655
Lu2 Rh1 2.916647 1_545
Lu2 Rh6 2.916647 1_555
Lu2 Rh2 2.987076 1_545
Lu2 Rh4 2.987076 1_655
Lu2 Sb1 3.069385 1_645
Lu2 Rh3 3.088117 1_645
Lu2 Rh5 3.088118 1_655
Lu2 Sb2 3.150482 1_656
Lu2 Sb0 3.150483 1_645
Lu3 Rh3 2.916641 1_555
Lu3 Rh4 2.916641 1_555
Lu3 Rh5 2.987083 1_555
Lu3 Rh1 2.987083 1_555
Lu3 Sb0 3.069399 1_655
Lu3 Rh6 3.088123 1_555
Lu3 Rh2 3.088124 1_555
Lu3 Sb1 3.150483 1_545
Lu3 Sb2 3.150483 1_555
As0 Rh3 2.542723 1_555
As0 Rh4 2.542723 1_555
As0 Rh2 2.574920 1_455
As0 Rh6 2.574920 1_455
As0 Rh0 2.630957 1_455
As0 Lu0 2.889351 1_444
As0 Lu2 2.936343 1_455
As0 Lu1 2.936343 1_454
As0 Lu3 3.062970 1_555
As1 Rh6 2.542716 1_555
As1 Rh1 2.542722 1_545
As1 Rh3 2.574913 1_545
As1 Rh5 2.574914 1_555
As1 Rh0 2.630957 1_556
As1 Lu0 2.889351 1_545
As1 Lu3 2.936342 1_545
As1 Lu1 2.936343 1_555
As1 Lu2 3.062977 1_555
As2 Rh2 2.542716 1_556
As2 Rh5 2.542721 1_555
As2 Rh4 2.574913 1_555
As2 Rh1 2.574914 1_556
As2 Rh0 2.630957 1_566
As2 Lu0 2.889351 1_555
As2 Lu3 2.936343 1_555
As2 Lu2 2.936343 1_566
As2 Lu1 3.062977 1_555
Rh0 Sb2 2.763296 1_655
Rh0 Sb1 2.763296 1_645
Rh0 Sb0 2.763301 1_644
Rh1 Sb1 2.674998 1_555
Rh1 Sb2 2.698057 1_555
Rh2 Sb2 2.674997 1_555
Rh2 Sb0 2.698059 1_655
Rh3 Sb0 2.674998 1_555
Rh3 Sb1 2.698051 1_555
Rh4 Sb0 2.674998 1_555
Rh4 Sb2 2.698051 1_556
Rh5 Sb2 2.674998 1_556
Rh5 Sb1 2.698057 1_545
Rh6 Sb1 2.674997 1_545
Rh6 Sb0 2.698058 1_655
