# generated using pymatgen
data_BaNiMoP2
_symmetry_space_group_name_H-M   'P 1'
_cell_length_a   7.02167475
_cell_length_b   7.02167516
_cell_length_c   7.02167471
_cell_angle_alpha   147.33814115
_cell_angle_beta   147.33814585
_cell_angle_gamma   46.86336856
_symmetry_Int_Tables_number   1
_chemical_formula_structural   BaNiMoP2
_chemical_formula_sum   'Ba1 Ni1 Mo1 P2'
_cell_volume   100.45887396
_cell_formula_units_Z   1
loop_
 _symmetry_equiv_pos_site_id
 _symmetry_equiv_pos_as_xyz
  1  'x, y, z'
loop_
 _atom_site_type_symbol
 _atom_site_label
 _atom_site_symmetry_multiplicity
 _atom_site_fract_x
 _atom_site_fract_y
 _atom_site_fract_z
 _atom_site_occupancy
  Ba  Ba0  1  0.00000000  0.00000000  0.00000000  1
  Ni  Ni0  1  0.25000000  0.75000000  0.50000000  1
  Mo  Mo0  1  0.75000000  0.25000000  0.50000000  1
  P  P0  1  0.65328537  0.65328537  1.00000000  1
  P  P1  1  0.34671463  0.34671463  0.00000000  1
loop_
_geom_bond_atom_site_label_1
_geom_bond_atom_site_label_2
_geom_bond_distance
_geom_bond_site_symmetry_2
Ba0 P0 3.420164 1_443
Ba0 P1 3.420164 1_556
Ba0 P0 3.420164 1_555
Ba0 P1 3.420164 1_444
Ba0 P0 3.420164 1_544
Ba0 P1 3.420164 1_455
Ba0 P0 3.420165 1_454
Ba0 P1 3.420165 1_545
Ni0 P0 2.334782 1_454
Ni0 P0 2.334782 1_555
Ni0 P1 2.334782 1_555
Ni0 P1 2.334782 1_566
Mo0 P1 2.334782 1_656
Mo0 P1 2.334782 1_555
Mo0 P0 2.334782 1_555
Mo0 P0 2.334782 1_544
Mo0 Ni0 2.792206 1_656
Mo0 Ni0 2.792206 1_544
Mo0 Ni0 2.792207 1_645
Mo0 Ni0 2.792207 1_555
