# generated using pymatgen
data_RbY7(Sn11Ru3)2
_symmetry_space_group_name_H-M   'P 1'
_cell_length_a   9.81608413
_cell_length_b   9.81608449
_cell_length_c   10.19368240
_cell_angle_alpha   90.00000000
_cell_angle_beta   90.00000000
_cell_angle_gamma   120.00000540
_symmetry_Int_Tables_number   1
_chemical_formula_structural   RbY7(Sn11Ru3)2
_chemical_formula_sum   'Rb1 Y7 Sn22 Ru6'
_cell_volume   850.62524272
_cell_formula_units_Z   1
loop_
 _symmetry_equiv_pos_site_id
 _symmetry_equiv_pos_as_xyz
  1  'x, y, z'
loop_
 _atom_site_type_symbol
 _atom_site_label
 _atom_site_symmetry_multiplicity
 _atom_site_fract_x
 _atom_site_fract_y
 _atom_site_fract_z
 _atom_site_occupancy
  Rb  Rb0  1  0.00000000  0.00000000  0.50000000  1
  Y  Y0  1  0.00000000  0.00000000  0.00000000  1
  Y  Y1  1  0.03809855  0.51904928  0.30890971  1
  Y  Y2  1  0.48095072  0.96190145  0.30890971  1
  Y  Y3  1  0.48095072  0.51904928  0.30890971  1
  Y  Y4  1  0.96190145  0.48095072  0.69109029  1
  Y  Y5  1  0.51904928  0.03809855  0.69109029  1
  Y  Y6  1  0.51904928  0.48095072  0.69109029  1
  Sn  Sn0  1  0.12819827  0.87180173  0.25118032  1
  Sn  Sn1  1  0.74360346  0.87180173  0.25118032  1
  Sn  Sn2  1  0.12819827  0.25639654  0.25118032  1
  Sn  Sn3  1  0.87180173  0.12819827  0.74881968  1
  Sn  Sn4  1  0.25639654  0.12819827  0.74881968  1
  Sn  Sn5  1  0.87180173  0.74360346  0.74881968  1
  Sn  Sn6  1  0.35098155  1.00000000  0.00000000  1
  Sn  Sn7  1  0.64901845  0.64901845  0.00000000  1
  Sn  Sn8  1  1.00000000  0.35098155  0.00000000  1
  Sn  Sn9  1  0.35098155  0.35098155  0.00000000  1
  Sn  Sn10  1  0.00000000  0.64901845  0.00000000  1
  Sn  Sn11  1  0.64901845  0.00000000  0.00000000  1
  Sn  Sn12  1  0.77722510  0.55445019  0.45514989  1
  Sn  Sn13  1  0.77722510  0.22277490  0.45514989  1
  Sn  Sn14  1  0.44554981  0.22277490  0.45514989  1
  Sn  Sn15  1  0.22277490  0.44554981  0.54485011  1
  Sn  Sn16  1  0.22277490  0.77722510  0.54485011  1
  Sn  Sn17  1  0.55445019  0.77722510  0.54485011  1
  Sn  Sn18  1  0.66666700  0.33333300  0.17722487  1
  Sn  Sn19  1  0.33333300  0.66666700  0.82277513  1
  Sn  Sn20  1  0.66666700  0.33333300  0.87955683  1
  Sn  Sn21  1  0.33333300  0.66666700  0.12044317  1
  Ru  Ru0  1  0.16743154  0.83256846  0.79769583  1
  Ru  Ru1  1  0.66513492  0.83256846  0.79769583  1
  Ru  Ru2  1  0.16743154  0.33486508  0.79769583  1
  Ru  Ru3  1  0.83256846  0.16743154  0.20230417  1
  Ru  Ru4  1  0.33486508  0.16743154  0.20230417  1
  Ru  Ru5  1  0.83256846  0.66513492  0.20230417  1
loop_
_geom_bond_atom_site_label_1
_geom_bond_atom_site_label_2
_geom_bond_distance
_geom_bond_site_symmetry_2
Rb0 Sn4 3.344251 1_555
Rb0 Sn1 3.344251 1_445
Rb0 Sn5 3.344251 1_445
Rb0 Sn2 3.344251 1_555
Rb0 Sn3 3.344252 1_455
Rb0 Sn0 3.344252 1_545
Rb0 Sn14 3.815102 1_555
Rb0 Sn17 3.815102 1_445
Rb0 Sn15 3.815102 1_555
Rb0 Sn12 3.815102 1_445
Rb0 Sn13 3.815102 1_455
Rb0 Sn16 3.815102 1_545
Sn0 Y2 3.171117 1_555
Sn0 Y1 3.171117 1_555
Sn0 Y0 3.362539 1_565
Sn1 Y3 3.171117 1_555
Sn1 Y2 3.171117 1_555
Sn1 Y0 3.362539 1_665
Sn2 Y3 3.171117 1_555
Sn2 Y1 3.171117 1_555
Sn2 Y0 3.362539 1_555
Sn3 Y5 3.171117 1_555
Sn3 Y4 3.171117 1_555
Sn3 Y0 3.362539 1_656
Sn4 Y6 3.171117 1_555
Sn4 Y5 3.171117 1_555
Sn4 Y0 3.362539 1_556
Sn5 Y6 3.171117 1_555
Sn5 Y4 3.171117 1_555
Sn5 Y0 3.362539 1_666
Sn6 Y0 3.445264 1_565
Sn6 Y5 3.487170 1_564
Sn6 Y2 3.487170 1_555
Sn7 Y0 3.445264 1_665
Sn7 Y3 3.487170 1_555
Sn7 Y6 3.487170 1_554
Sn8 Y0 3.445265 1_655
Sn8 Y1 3.487170 1_655
Sn8 Y4 3.487170 1_554
Sn9 Y0 3.445264 1_555
Sn9 Y6 3.487170 1_554
Sn9 Y3 3.487170 1_555
Sn10 Y0 3.445265 1_565
Sn10 Y4 3.487170 1_454
Sn10 Y1 3.487170 1_555
Sn11 Y0 3.445264 1_655
Sn11 Y2 3.487170 1_545
Sn11 Y5 3.487170 1_554
Sn12 Y3 3.128953 1_555
Sn12 Y1 3.128953 1_655
Sn12 Y6 3.301390 1_555
Sn12 Y4 3.301390 1_555
Sn13 Y2 3.128953 1_545
Sn13 Y1 3.128953 1_655
Sn13 Y5 3.301389 1_555
Sn13 Y4 3.301390 1_555
Sn14 Y3 3.128953 1_555
Sn14 Y2 3.128953 1_545
Sn14 Y6 3.301390 1_555
Sn14 Y5 3.301390 1_555
Sn15 Y6 3.128953 1_555
Sn15 Y4 3.128953 1_455
Sn15 Y3 3.301390 1_555
Sn15 Y1 3.301390 1_555
Sn16 Y5 3.128953 1_565
Sn16 Y4 3.128953 1_455
Sn16 Y2 3.301389 1_555
Sn16 Y1 3.301390 1_555
Sn17 Y6 3.128953 1_555
Sn17 Y5 3.128953 1_565
Sn17 Y3 3.301390 1_555
Sn17 Y2 3.301390 1_555
Sn18 Y1 3.431023 1_655
Sn18 Y2 3.431023 1_545
Sn18 Y3 3.431031 1_555
Sn19 Y4 3.431023 1_455
Sn19 Y5 3.431023 1_565
Sn19 Y6 3.431031 1_555
Sn20 Y4 3.160679 1_555
Sn20 Y5 3.160679 1_555
Sn20 Y6 3.160686 1_555
Sn21 Y1 3.160679 1_555
Sn21 Y2 3.160679 1_555
Sn21 Y3 3.160686 1_555
Ru0 Sn5 2.626371 1_455
Ru0 Sn4 2.626371 1_565
Ru0 Sn6 2.690540 1_556
Ru0 Sn10 2.690540 1_556
Ru0 Sn16 2.743815 1_555
Ru0 Sn19 2.832211 1_555
Ru0 Y5 3.193857 1_565
Ru0 Y4 3.193858 1_455
Ru0 Y0 3.515148 1_566
Ru1 Sn3 2.626375 1_565
Ru1 Sn5 2.626390 1_555
Ru1 Sn11 2.690533 1_566
Ru1 Sn7 2.690546 1_556
Ru1 Sn17 2.743809 1_555
Ru1 Sn19 2.832203 1_555
Ru1 Y5 3.193843 1_565
Ru1 Y6 3.193859 1_555
Ru1 Y0 3.515161 1_666
Ru2 Sn3 2.626375 1_455
Ru2 Sn4 2.626390 1_555
Ru2 Sn8 2.690533 1_456
Ru2 Sn9 2.690546 1_556
Ru2 Sn15 2.743809 1_555
Ru2 Sn19 2.832203 1_555
Ru2 Y4 3.193843 1_455
Ru2 Y6 3.193859 1_555
Ru2 Y0 3.515162 1_556
Ru3 Sn2 2.626371 1_655
Ru3 Sn1 2.626371 1_545
Ru3 Sn11 2.690540 1_555
Ru3 Sn8 2.690540 1_555
Ru3 Sn13 2.743815 1_555
Ru3 Sn18 2.832211 1_555
Ru3 Y2 3.193857 1_545
Ru3 Y1 3.193858 1_655
Ru3 Y0 3.515148 1_655
Ru4 Sn0 2.626375 1_545
Ru4 Sn2 2.626390 1_555
Ru4 Sn6 2.690533 1_545
Ru4 Sn9 2.690546 1_555
Ru4 Sn14 2.743809 1_555
Ru4 Sn18 2.832203 1_555
Ru4 Y2 3.193843 1_545
Ru4 Y3 3.193859 1_555
Ru4 Y0 3.515161 1_555
Ru5 Sn0 2.626375 1_655
Ru5 Sn1 2.626390 1_555
Ru5 Sn10 2.690533 1_655
Ru5 Sn7 2.690546 1_555
Ru5 Sn12 2.743809 1_555
Ru5 Sn18 2.832203 1_555
Ru5 Y1 3.193843 1_655
Ru5 Y3 3.193859 1_555
Ru5 Y0 3.515162 1_665
