# generated using pymatgen
data_Li12TiOsN8
_symmetry_space_group_name_H-M   'P 1'
_cell_length_a   6.67580838
_cell_length_b   6.67580838
_cell_length_c   4.83973775
_cell_angle_alpha   90.00000000
_cell_angle_beta   90.00000000
_cell_angle_gamma   90.00000000
_symmetry_Int_Tables_number   1
_chemical_formula_structural   Li12TiOsN8
_chemical_formula_sum   'Li12 Ti1 Os1 N8'
_cell_volume   215.68977378
_cell_formula_units_Z   1
loop_
 _symmetry_equiv_pos_site_id
 _symmetry_equiv_pos_as_xyz
  1  'x, y, z'
loop_
 _atom_site_type_symbol
 _atom_site_label
 _atom_site_symmetry_multiplicity
 _atom_site_fract_x
 _atom_site_fract_y
 _atom_site_fract_z
 _atom_site_occupancy
  Li  Li0  1  0.50000000  0.00000000  0.56114215  1
  Li  Li1  1  0.00000000  0.50000000  0.90775567  1
  Li  Li2  1  0.00000000  0.50000000  0.43885785  1
  Li  Li3  1  0.50000000  0.00000000  0.09224433  1
  Li  Li4  1  0.22641952  0.22641952  0.50000000  1
  Li  Li5  1  0.77358048  0.77358048  0.50000000  1
  Li  Li6  1  0.70068500  0.70068500  0.00000000  1
  Li  Li7  1  0.29931500  0.29931500  0.00000000  1
  Li  Li8  1  0.22641952  0.77358048  0.50000000  1
  Li  Li9  1  0.77358048  0.22641952  0.50000000  1
  Li  Li10  1  0.70068500  0.29931500  0.00000000  1
  Li  Li11  1  0.29931500  0.70068500  0.00000000  1
  Ti  Ti0  1  0.50000000  0.50000000  0.50000000  1
  Os  Os0  1  0.00000000  0.00000000  0.00000000  1
  N  N0  1  0.50000000  0.24771509  0.30197494  1
  N  N1  1  0.50000000  0.75228491  0.30197494  1
  N  N2  1  0.00000000  0.77191844  0.20018651  1
  N  N3  1  0.00000000  0.22808156  0.20018651  1
  N  N4  1  0.24771509  0.50000000  0.69802506  1
  N  N5  1  0.75228491  0.50000000  0.69802506  1
  N  N6  1  0.77191844  0.00000000  0.79981349  1
  N  N7  1  0.22808156  0.00000000  0.79981349  1
loop_
_geom_bond_atom_site_label_1
_geom_bond_atom_site_label_2
_geom_bond_distance
_geom_bond_site_symmetry_2
Li0 N0 2.075570 1_555
Li0 N1 2.075570 1_545
Li0 N6 2.151626 1_555
Li0 N7 2.151626 1_555
Li1 N4 1.940368 1_555
Li1 N5 1.940368 1_455
Li1 N2 2.301796 1_556
Li1 N3 2.301796 1_556
Li2 N4 2.075570 1_555
Li2 N5 2.075570 1_455
Li2 N2 2.151626 1_555
Li2 N3 2.151626 1_555
Li3 N0 1.940368 1_555
Li3 N1 1.940368 1_545
Li3 N6 2.301796 1_554
Li3 N7 2.301796 1_554
Li4 N4 2.067451 1_555
Li4 N0 2.067451 1_555
Li4 N7 2.095307 1_555
Li4 N3 2.095307 1_555
Li5 N5 2.067451 1_555
Li5 N1 2.067451 1_555
Li5 N6 2.095307 1_565
Li5 N2 2.095307 1_655
Li6 N1 2.012330 1_555
Li6 N5 2.012330 1_554
Li6 N2 2.271011 1_655
Li6 N6 2.271011 1_564
Li7 N0 2.012330 1_555
Li7 N4 2.012330 1_554
Li7 N3 2.271011 1_555
Li7 N7 2.271011 1_554
Li8 N4 2.067451 1_555
Li8 N1 2.067451 1_555
Li8 N2 2.095307 1_555
Li8 N7 2.095307 1_565
Li9 N0 2.067451 1_555
Li9 N5 2.067451 1_555
Li9 N6 2.095307 1_555
Li9 N3 2.095307 1_655
Li10 N0 2.012330 1_555
Li10 N5 2.012330 1_554
Li10 N6 2.271011 1_554
Li10 N3 2.271011 1_655
Li11 N4 2.012330 1_554
Li11 N1 2.012330 1_555
Li11 N2 2.271011 1_555
Li11 N7 2.271011 1_564
N0 Ti0 1.937798 1_555
N1 Ti0 1.937798 1_555
N2 Os0 1.804735 1_565
N3 Os0 1.804735 1_555
N4 Ti0 1.937798 1_555
N5 Ti0 1.937798 1_555
N6 Os0 1.804735 1_656
N7 Os0 1.804735 1_556
