# generated using pymatgen
data_Ba2Ca3(SnSb3)2
_symmetry_space_group_name_H-M   'P 1'
_cell_length_a   4.56798964
_cell_length_b   13.00714219
_cell_length_c   14.89175776
_cell_angle_alpha   90.00000000
_cell_angle_beta   90.00000000
_cell_angle_gamma   90.00000000
_symmetry_Int_Tables_number   1
_chemical_formula_structural   Ba2Ca3(SnSb3)2
_chemical_formula_sum   'Ba4 Ca6 Sn4 Sb12'
_cell_volume   884.81598684
_cell_formula_units_Z   2
loop_
 _symmetry_equiv_pos_site_id
 _symmetry_equiv_pos_as_xyz
  1  'x, y, z'
loop_
 _atom_site_type_symbol
 _atom_site_label
 _atom_site_symmetry_multiplicity
 _atom_site_fract_x
 _atom_site_fract_y
 _atom_site_fract_z
 _atom_site_occupancy
  Ba  Ba0  1  0.00000000  0.86719143  0.44281389  1
  Ba  Ba1  1  0.00000000  0.13280857  0.55718611  1
  Ba  Ba2  1  0.00000000  0.36719143  0.05718611  1
  Ba  Ba3  1  0.00000000  0.63280857  0.94281389  1
  Ca  Ca0  1  0.00000000  0.62783602  0.26613692  1
  Ca  Ca1  1  0.00000000  0.37216398  0.73386308  1
  Ca  Ca2  1  0.00000000  0.12783602  0.23386308  1
  Ca  Ca3  1  0.00000000  0.87216398  0.76613692  1
  Ca  Ca4  1  0.00000000  0.50000000  0.50000000  1
  Ca  Ca5  1  0.00000000  0.00000000  0.00000000  1
  Sn  Sn0  1  0.50000000  0.78794928  0.10574586  1
  Sn  Sn1  1  0.50000000  0.21205072  0.89425414  1
  Sn  Sn2  1  0.50000000  0.28794928  0.39425414  1
  Sn  Sn3  1  0.50000000  0.71205072  0.60574586  1
  Sb  Sb0  1  0.50000000  0.57124336  0.12882442  1
  Sb  Sb1  1  0.50000000  0.42875664  0.87117558  1
  Sb  Sb2  1  0.50000000  0.07124336  0.37117558  1
  Sb  Sb3  1  0.50000000  0.92875664  0.62882442  1
  Sb  Sb4  1  0.50000000  0.65542797  0.41976735  1
  Sb  Sb5  1  0.50000000  0.34457203  0.58023265  1
  Sb  Sb6  1  0.50000000  0.15542797  0.08023265  1
  Sb  Sb7  1  0.50000000  0.84457203  0.91976735  1
  Sb  Sb8  1  0.00000000  0.87524318  0.19723967  1
  Sb  Sb9  1  0.00000000  0.12475682  0.80276033  1
  Sb  Sb10  1  0.00000000  0.37524318  0.30276033  1
  Sb  Sb11  1  0.00000000  0.62475682  0.69723967  1
loop_
_geom_bond_atom_site_label_1
_geom_bond_atom_site_label_2
_geom_bond_distance
_geom_bond_site_symmetry_2
Ba0 Sb4 3.594627 1_455
Ba0 Sb4 3.594627 1_555
Ba0 Sb8 3.658531 1_555
Ba0 Sb2 3.660486 1_565
Ba0 Sb2 3.660486 1_465
Ba0 Sb3 3.678440 1_555
Ba0 Sb3 3.678440 1_455
Ba0 Sn3 3.895619 1_555
Ba0 Sn3 3.895619 1_455
Ba1 Sb5 3.594627 1_455
Ba1 Sb5 3.594627 1_555
Ba1 Sb9 3.658531 1_555
Ba1 Sb3 3.660486 1_445
Ba1 Sb3 3.660486 1_545
Ba1 Sb2 3.678440 1_455
Ba1 Sb2 3.678440 1_555
Ba1 Sn2 3.895619 1_455
Ba1 Sn2 3.895619 1_555
Ba2 Sb6 3.594627 1_455
Ba2 Sb6 3.594627 1_555
Ba2 Sb10 3.658531 1_555
Ba2 Sb0 3.660486 1_555
Ba2 Sb0 3.660486 1_455
Ba2 Sb1 3.678440 1_454
Ba2 Sb1 3.678440 1_554
Ba2 Sn1 3.895619 1_554
Ba2 Sn1 3.895619 1_454
Ba3 Sb7 3.594627 1_455
Ba3 Sb7 3.594627 1_555
Ba3 Sb11 3.658531 1_555
Ba3 Sb1 3.660486 1_455
Ba3 Sb1 3.660486 1_555
Ba3 Sb0 3.678440 1_556
Ba3 Sb0 3.678440 1_456
Ba3 Sn0 3.895619 1_456
Ba3 Sn0 3.895619 1_556
Ca0 Sb0 3.152744 1_455
Ca0 Sb0 3.152744 1_555
Ca0 Sb4 3.252628 1_455
Ca0 Sb4 3.252628 1_555
Ca0 Sb10 3.330470 1_555
Ca0 Sb8 3.377660 1_555
Ca1 Sb1 3.152744 1_455
Ca1 Sb1 3.152744 1_555
Ca1 Sb5 3.252628 1_455
Ca1 Sb5 3.252628 1_555
Ca1 Sb11 3.330470 1_555
Ca1 Sb9 3.377660 1_555
Ca2 Sb2 3.152744 1_455
Ca2 Sb2 3.152744 1_555
Ca2 Sb6 3.252628 1_555
Ca2 Sb6 3.252628 1_455
Ca2 Sb8 3.330470 1_545
Ca2 Sb10 3.377660 1_555
Ca3 Sb3 3.152744 1_455
Ca3 Sb3 3.152744 1_555
Ca3 Sb7 3.252628 1_455
Ca3 Sb7 3.252628 1_555
Ca3 Sb9 3.330470 1_565
Ca3 Sb11 3.377660 1_555
Ca4 Sb4 3.275875 1_455
Ca4 Sb4 3.275875 1_555
Ca4 Sb5 3.275875 1_455
Ca4 Sb5 3.275875 1_555
Ca4 Sb11 3.355691 1_555
Ca4 Sb10 3.355691 1_555
Ca5 Sb6 3.275875 1_555
Ca5 Sb6 3.275875 1_455
Ca5 Sb7 3.275875 1_544
Ca5 Sb7 3.275875 1_444
Ca5 Sb8 3.355691 1_545
Ca5 Sb9 3.355691 1_554
Sb0 Sn0 2.839599 1_555
Sb1 Sn1 2.839599 1_555
Sb2 Sn2 2.839599 1_555
Sb3 Sn3 2.839599 1_555
Sb4 Sn3 2.865802 1_555
Sb5 Sn2 2.865802 1_555
Sb6 Sn1 2.865802 1_554
Sb7 Sn0 2.865802 1_556
Sb8 Sn0 2.891761 1_555
Sb8 Sn0 2.891761 1_455
Sb9 Sn1 2.891761 1_455
Sb9 Sn1 2.891761 1_555
Sb10 Sn2 2.891761 1_455
Sb10 Sn2 2.891761 1_555
Sb11 Sn3 2.891761 1_555
Sb11 Sn3 2.891761 1_455
