# generated using pymatgen
data_K2LiTiSb2
_symmetry_space_group_name_H-M   'P 1'
_cell_length_a   9.30616585
_cell_length_b   9.30616614
_cell_length_c   9.30616580
_cell_angle_alpha   136.74616225
_cell_angle_beta   62.27142220
_cell_angle_gamma   137.47296999
_symmetry_Int_Tables_number   1
_chemical_formula_structural   K2LiTiSb2
_chemical_formula_sum   'K4 Li2 Ti2 Sb4'
_cell_volume   368.82903542
_cell_formula_units_Z   2
loop_
 _symmetry_equiv_pos_site_id
 _symmetry_equiv_pos_as_xyz
  1  'x, y, z'
loop_
 _atom_site_type_symbol
 _atom_site_label
 _atom_site_symmetry_multiplicity
 _atom_site_fract_x
 _atom_site_fract_y
 _atom_site_fract_z
 _atom_site_occupancy
  K  K0  1  0.82653874  0.27348919  0.10002993  1
  K  K1  1  0.67346026  0.77348919  0.44695145  1
  K  K2  1  0.32653874  0.22650981  0.55304955  1
  K  K3  1  0.17346026  0.72650981  0.89997007  1
  Li  Li0  1  0.75000000  0.25000000  0.50000000  1
  Li  Li1  1  0.25000000  0.75000000  0.50000000  1
  Ti  Ti0  1  0.25000000  0.25000000  0.00000000  1
  Ti  Ti1  1  0.75000000  0.75000000  0.00000000  1
  Sb  Sb0  1  0.40512266  0.73084399  0.13596865  1
  Sb  Sb1  1  0.09487634  0.23084499  0.32572133  1
  Sb  Sb2  1  0.90512266  0.76915501  0.67427867  1
  Sb  Sb3  1  0.59487634  0.26915501  0.86403135  1
loop_
_geom_bond_atom_site_label_1
_geom_bond_atom_site_label_2
_geom_bond_distance
_geom_bond_site_symmetry_2
K0 Li0 3.591428 1_555
K0 Li1 3.591435 1_655
K0 Sb0 3.611541 1_655
K0 Sb0 3.611541 1_545
K0 Sb2 3.623311 1_555
K0 Sb2 3.679176 1_544
K0 Sb3 3.690780 1_554
K0 Ti1 3.742156 1_545
K0 Ti0 3.742162 1_655
K1 Li1 3.591441 1_555
K1 Li0 3.591447 1_565
K1 Sb1 3.611540 1_555
K1 Sb1 3.611552 1_665
K1 Sb3 3.623317 1_565
K1 Sb3 3.679187 1_554
K1 Sb2 3.690756 1_555
K1 Ti0 3.742167 1_555
K1 Ti1 3.742173 1_555
K2 Li1 3.591438 1_545
K2 Li0 3.591441 1_555
K2 Sb2 3.611541 1_555
K2 Sb2 3.611541 1_445
K2 Sb0 3.623317 1_545
K2 Sb0 3.679181 1_556
K2 Sb1 3.690772 1_555
K2 Ti0 3.742161 1_556
K2 Ti1 3.742164 1_556
K3 Li0 3.591432 1_455
K3 Li1 3.591432 1_555
K3 Sb3 3.611541 1_455
K3 Sb3 3.611541 1_565
K3 Sb1 3.623311 1_555
K3 Sb1 3.679182 1_566
K3 Sb0 3.690780 1_556
K3 Ti1 3.742159 1_456
K3 Ti0 3.742159 1_566
Li0 Sb3 2.922527 1_555
Li0 Sb1 2.922527 1_655
Li0 Sb0 2.922531 1_545
Li0 Sb2 2.922532 1_555
Li1 Sb0 2.922523 1_555
Li1 Sb3 2.922527 1_565
Li1 Sb1 2.922527 1_555
Li1 Sb2 2.922536 1_455
Sb0 Ti0 2.764014 1_555
Sb0 Ti1 2.764022 1_555
Sb1 Ti1 2.764018 1_445
Sb1 Ti0 2.764018 1_555
Sb2 Ti1 2.764018 1_556
Sb2 Ti0 2.764022 1_666
Sb3 Ti0 2.764018 1_556
Sb3 Ti1 2.764018 1_556
