# generated using pymatgen
data_Sc2SeS
_symmetry_space_group_name_H-M   'P 1'
_cell_length_a   6.57384969
_cell_length_b   6.57384995
_cell_length_c   6.57384997
_cell_angle_alpha   33.33956211
_cell_angle_beta   33.33955516
_cell_angle_gamma   33.33957278
_symmetry_Int_Tables_number   1
_chemical_formula_structural   Sc2SeS
_chemical_formula_sum   'Sc2 Se1 S1'
_cell_volume   76.40827404
_cell_formula_units_Z   1
loop_
 _symmetry_equiv_pos_site_id
 _symmetry_equiv_pos_as_xyz
  1  'x, y, z'
loop_
 _atom_site_type_symbol
 _atom_site_label
 _atom_site_symmetry_multiplicity
 _atom_site_fract_x
 _atom_site_fract_y
 _atom_site_fract_z
 _atom_site_occupancy
  Sc  Sc0  1  0.48984193  0.48984193  0.48984193  1
  Sc  Sc1  1  0.01017671  0.01017671  0.01017671  1
  Se  Se0  1  0.24997863  0.24997863  0.24997863  1
  S  S0  1  0.75000273  0.75000273  0.75000273  1
loop_
_geom_bond_atom_site_label_1
_geom_bond_atom_site_label_2
_geom_bond_distance
_geom_bond_site_symmetry_2
Sc0 Se0 2.786859 1_556
Sc0 Se0 2.786860 1_655
Sc0 Se0 2.786860 1_565
Sc1 Se0 2.787572 1_554
Sc1 Se0 2.787573 1_455
Sc1 Se0 2.787573 1_545
S0 Sc1 2.568014 1_665
S0 Sc1 2.568014 1_566
S0 Sc1 2.568014 1_656
S0 Sc0 2.568144 1_556
S0 Sc0 2.568144 1_655
S0 Sc0 2.568144 1_565
