# generated using pymatgen
data_RbTiCr9Se16
_symmetry_space_group_name_H-M   'P 1'
_cell_length_a   7.27214554
_cell_length_b   9.66633522
_cell_length_c   9.87963907
_cell_angle_alpha   72.76593925
_cell_angle_beta   68.36157761
_cell_angle_gamma   79.14360764
_symmetry_Int_Tables_number   1
_chemical_formula_structural   RbTiCr9Se16
_chemical_formula_sum   'Rb1 Ti1 Cr9 Se16'
_cell_volume   614.11265687
_cell_formula_units_Z   1
loop_
 _symmetry_equiv_pos_site_id
 _symmetry_equiv_pos_as_xyz
  1  'x, y, z'
loop_
 _atom_site_type_symbol
 _atom_site_label
 _atom_site_symmetry_multiplicity
 _atom_site_fract_x
 _atom_site_fract_y
 _atom_site_fract_z
 _atom_site_occupancy
  Rb  Rb0  1  0.00248696  0.00313188  0.99414682  1
  Ti  Ti0  1  0.83710287  0.70334085  0.47509158  1
  Cr  Cr0  1  0.33932135  0.67808043  0.48240365  1
  Cr  Cr1  1  0.65982318  0.31748993  0.52099380  1
  Cr  Cr2  1  0.16080750  0.31559896  0.52022894  1
  Cr  Cr3  1  0.81612706  0.40933813  0.16440267  1
  Cr  Cr4  1  0.31563192  0.40643008  0.16476049  1
  Cr  Cr5  1  0.68395198  0.58930741  0.83779332  1
  Cr  Cr6  1  0.18282865  0.58835381  0.83916017  1
  Cr  Cr7  1  0.50132459  0.99961746  0.50015994  1
  Cr  Cr8  1  0.99882501  0.99952871  0.50042149  1
  Se  Se0  1  0.78923864  0.15128568  0.34670961  1
  Se  Se1  1  0.28893375  0.14840884  0.34799785  1
  Se  Se2  1  0.70505994  0.85227012  0.66378345  1
  Se  Se3  1  0.21228900  0.84727662  0.65192742  1
  Se  Se4  1  0.95753077  0.47856717  0.34608357  1
  Se  Se5  1  0.45942452  0.47602693  0.34306433  1
  Se  Se6  1  0.53960160  0.52242059  0.65726588  1
  Se  Se7  1  0.04134051  0.52232197  0.65715612  1
  Se  Se8  1  0.62847769  0.82693728  0.32200543  1
  Se  Se9  1  0.13673858  0.82705191  0.32173159  1
  Se  Se10  1  0.87144936  0.17144464  0.66923715  1
  Se  Se11  1  0.37292458  0.17137558  0.66884915  1
  Se  Se12  1  0.33965287  0.65460886  0.99330967  1
  Se  Se13  1  0.83883022  0.65667506  0.99261115  1
  Se  Se14  1  0.15985607  0.34087873  0.00960632  1
  Se  Se15  1  0.66041883  0.34223337  0.00910046  1
loop_
_geom_bond_atom_site_label_1
_geom_bond_atom_site_label_2
_geom_bond_distance
_geom_bond_site_symmetry_2
Rb0 Se11 3.521189 1_555
Rb0 Se10 3.526526 1_455
Rb0 Se9 3.572779 1_546
Rb0 Se8 3.573373 1_446
Rb0 Se14 3.718005 1_556
Rb0 Se15 3.728085 1_456
Rb0 Se13 3.765245 1_445
Rb0 Se12 3.775135 1_545
Rb0 Se3 3.791667 1_545
Rb0 Se0 3.837186 1_456
Cr0 Se3 2.499254 1_555
Cr0 Se8 2.516838 1_555
Cr0 Se9 2.516905 1_555
Cr0 Se5 2.556652 1_555
Cr0 Se6 2.619095 1_555
Cr0 Se7 2.621627 1_555
Cr1 Se11 2.474156 1_555
Cr1 Se10 2.474906 1_555
Cr1 Se0 2.511210 1_555
Cr1 Se6 2.561417 1_555
Cr1 Se4 2.648390 1_555
Cr1 Se5 2.648430 1_555
Cr2 Se11 2.475136 1_555
Cr2 Se10 2.478144 1_455
Cr2 Se1 2.503669 1_555
Cr2 Se7 2.580488 1_555
Cr2 Se4 2.649419 1_455
Cr2 Se5 2.653531 1_555
Cr3 Se13 2.482249 1_554
Cr3 Se14 2.486421 1_655
Cr3 Se15 2.490949 1_555
Cr3 Se0 2.601198 1_555
Cr3 Se5 2.632023 1_555
Cr3 Se4 2.656925 1_555
Cr4 Se14 2.482146 1_555
Cr4 Se15 2.484449 1_555
Cr4 Se12 2.487285 1_554
Cr4 Se1 2.604481 1_555
Cr4 Se5 2.641008 1_555
Cr4 Se4 2.663209 1_455
Cr5 Se15 2.478482 1_556
Cr5 Se13 2.483767 1_555
Cr5 Se12 2.484012 1_555
Cr5 Se2 2.608296 1_555
Cr5 Se7 2.643673 1_655
Cr5 Se6 2.649672 1_555
Cr6 Se14 2.478344 1_556
Cr6 Se12 2.482768 1_555
Cr6 Se13 2.483247 1_455
Cr6 Se3 2.626438 1_555
Cr6 Se6 2.642776 1_555
Cr6 Se7 2.644112 1_555
Cr7 Se1 2.511680 1_565
Cr7 Se11 2.512734 1_565
Cr7 Se0 2.515923 1_565
Cr7 Se3 2.523496 1_555
Cr7 Se2 2.538519 1_555
Cr7 Se8 2.588114 1_555
Cr8 Se1 2.511215 1_665
Cr8 Se10 2.514832 1_565
Cr8 Se0 2.515124 1_565
Cr8 Se3 2.522676 1_655
Cr8 Se2 2.536972 1_555
Cr8 Se9 2.590461 1_655
Se2 Ti0 2.493814 1_555
Se4 Ti0 2.685739 1_555
Se6 Ti0 2.768903 1_555
Se7 Ti0 2.762143 1_455
Se8 Ti0 2.440356 1_555
Se9 Ti0 2.438606 1_455
