# generated using pymatgen
data_Y6IrPd6Au
_symmetry_space_group_name_H-M   'P 1'
_cell_length_a   7.82488757
_cell_length_b   7.85700812
_cell_length_c   7.88472074
_cell_angle_alpha   114.41835743
_cell_angle_beta   114.22061357
_cell_angle_gamma   113.91480382
_symmetry_Int_Tables_number   1
_chemical_formula_structural   Y6IrPd6Au
_chemical_formula_sum   'Y6 Ir1 Pd6 Au1'
_cell_volume   290.43426677
_cell_formula_units_Z   1
loop_
 _symmetry_equiv_pos_site_id
 _symmetry_equiv_pos_as_xyz
  1  'x, y, z'
loop_
 _atom_site_type_symbol
 _atom_site_label
 _atom_site_symmetry_multiplicity
 _atom_site_fract_x
 _atom_site_fract_y
 _atom_site_fract_z
 _atom_site_occupancy
  Y  Y0  1  0.39950093  0.02483853  0.27030857  1
  Y  Y1  1  0.01925351  0.27255191  0.39313464  1
  Y  Y2  1  0.27647302  0.39999875  0.02678879  1
  Y  Y3  1  0.60290260  0.97435792  0.72642391  1
  Y  Y4  1  0.96943846  0.72243113  0.60605414  1
  Y  Y5  1  0.73255967  0.60889398  0.97584391  1
  Ir  Ir0  1  0.00325066  0.00546786  0.00309337  1
  Pd  Pd0  1  0.49710325  0.50021698  0.49948184  1
  Pd  Pd1  1  0.06235254  0.55352020  0.22736977  1
  Pd  Pd2  1  0.55902133  0.23051408  0.06668380  1
  Pd  Pd3  1  0.77024872  0.93799195  0.44393467  1
  Pd  Pd4  1  0.93678094  0.44166550  0.76991564  1
  Pd  Pd5  1  0.44227166  0.76761143  0.93276969  1
  Au  Au0  1  0.22884271  0.05993978  0.55819724  1
loop_
_geom_bond_atom_site_label_1
_geom_bond_atom_site_label_2
_geom_bond_distance
_geom_bond_site_symmetry_2
Ir0 Y4 2.811250 1_444
Ir0 Y3 2.821942 1_444
Ir0 Y5 2.821984 1_444
Ir0 Y1 2.830614 1_555
Ir0 Y2 2.834606 1_555
Ir0 Y0 2.840462 1_555
Pd0 Y4 2.902002 1_555
Pd0 Y3 2.921985 1_555
Pd0 Y5 2.936995 1_555
Pd0 Y1 2.940833 1_555
Pd0 Y2 2.946764 1_555
Pd0 Y0 2.962070 1_555
Pd1 Y5 2.864667 1_454
Pd1 Pd4 2.918674 1_454
Pd1 Y3 2.924869 1_555
Pd1 Pd2 2.949790 1_455
Pd1 Y1 2.973044 1_555
Pd1 Y2 2.999804 1_555
Pd1 Y3 3.075331 1_444
Pd1 Y4 3.239168 1_455
Pd1 Y0 3.331322 1_565
Pd2 Y3 2.866716 1_544
Pd2 Y4 2.911770 1_555
Pd2 Pd5 2.918400 1_544
Pd2 Y0 2.983503 1_555
Pd2 Y2 2.987141 1_555
Pd2 Y4 3.121494 1_444
Pd2 Y1 3.229640 1_655
Pd2 Y5 3.237410 1_554
Pd3 Y1 2.867922 1_665
Pd3 Y2 2.907045 1_555
Pd3 Pd4 2.937063 1_565
Pd3 Pd5 2.981489 1_554
Pd3 Y3 2.987924 1_555
Pd3 Y4 3.037645 1_555
Pd3 Y2 3.098475 1_666
Pd3 Y0 3.142374 1_565
Pd3 Y5 3.315574 1_554
Pd4 Y2 2.847992 1_656
Pd4 Y0 2.915524 1_555
Pd4 Pd5 2.958675 1_655
Pd4 Y4 2.961627 1_555
Pd4 Y5 2.997287 1_555
Pd4 Y0 3.090694 1_666
Pd4 Y1 3.164219 1_655
Pd4 Y3 3.297096 1_545
Pd5 Y0 2.848108 1_566
Pd5 Y1 2.917562 1_555
Pd5 Y5 2.973854 1_555
Pd5 Y3 3.012187 1_555
Pd5 Y1 3.069862 1_666
Pd5 Y2 3.177501 1_556
Pd5 Y4 3.287847 1_455
Au0 Y4 2.895915 1_445
Au0 Pd3 2.907361 1_445
Au0 Pd1 2.959926 1_545
Au0 Pd2 2.965894 1_556
Au0 Y5 2.967621 1_555
Au0 Y0 3.046303 1_555
Au0 Y1 3.072690 1_555
Au0 Y5 3.079127 1_444
Au0 Y3 3.150606 1_545
Au0 Y2 3.290824 1_556
