# generated using pymatgen
data_Li2TcSn8Ir
_symmetry_space_group_name_H-M   'P 1'
_cell_length_a   7.34090689
_cell_length_b   7.34090680
_cell_length_c   7.34090830
_cell_angle_alpha   125.77186389
_cell_angle_beta   125.77187110
_cell_angle_gamma   80.26340927
_symmetry_Int_Tables_number   1
_chemical_formula_structural   Li2TcSn8Ir
_chemical_formula_sum   'Li2 Tc1 Sn8 Ir1'
_cell_volume   251.30580657
_cell_formula_units_Z   1
loop_
 _symmetry_equiv_pos_site_id
 _symmetry_equiv_pos_as_xyz
  1  'x, y, z'
loop_
 _atom_site_type_symbol
 _atom_site_label
 _atom_site_symmetry_multiplicity
 _atom_site_fract_x
 _atom_site_fract_y
 _atom_site_fract_z
 _atom_site_occupancy
  Li  Li0  1  0.49580574  0.49580574  1.00000000  1
  Li  Li1  1  0.00419426  0.00419426  0.00000000  1
  Tc  Tc0  1  0.75000000  0.75000000  0.00000000  1
  Sn  Sn0  1  0.70784043  0.52458893  0.50678828  1
  Sn  Sn1  1  0.52458893  0.01780065  0.81674750  1
  Sn  Sn2  1  0.20105215  0.70784043  0.18325250  1
  Sn  Sn3  1  0.79215957  0.29894785  0.81674750  1
  Sn  Sn4  1  0.48219935  0.97541107  0.18325250  1
  Sn  Sn5  1  0.29894785  0.48219935  0.50678828  1
  Sn  Sn6  1  0.97541107  0.79215957  0.49321172  1
  Sn  Sn7  1  0.01780065  0.20105215  0.49321172  1
  Ir  Ir0  1  0.25000000  0.25000000  0.00000000  1
loop_
_geom_bond_atom_site_label_1
_geom_bond_atom_site_label_2
_geom_bond_distance
_geom_bond_site_symmetry_2
Li0 Tc0 2.853381 1_556
Li0 Sn4 2.952315 1_556
Li0 Sn6 2.952317 1_556
Li0 Sn5 2.952318 1_555
Li0 Sn3 2.952321 1_555
Li0 Sn1 2.954677 1_555
Li0 Sn7 2.954679 1_555
Li0 Sn0 2.954679 1_556
Li0 Sn2 2.954683 1_556
Li1 Tc0 2.853381 1_445
Li1 Sn1 2.952315 1_454
Li1 Sn0 2.952317 1_444
Li1 Sn7 2.952318 1_555
Li1 Sn2 2.952321 1_545
Li1 Sn4 2.954677 1_545
Li1 Sn5 2.954679 1_555
Li1 Sn6 2.954679 1_444
Li1 Sn3 2.954683 1_454
Sn0 Tc0 2.793139 1_556
Sn0 Sn7 2.998116 1_655
Sn0 Sn5 3.069628 1_555
Sn0 Sn6 3.080403 1_555
Sn0 Sn3 3.273709 1_555
Sn0 Sn4 3.332015 1_545
Sn1 Tc0 2.793143 1_546
Sn1 Sn2 2.998108 1_545
Sn1 Sn4 3.069643 1_546
Sn1 Sn3 3.080403 1_555
Sn1 Sn5 3.273717 1_545
Sn1 Sn6 3.332015 1_445
Sn2 Tc0 2.793137 1_455
Sn2 Sn3 3.069624 1_454
Sn2 Sn4 3.080403 1_555
Sn2 Sn6 3.273709 1_455
Sn2 Sn5 3.332007 1_555
Sn3 Tc0 2.793138 1_556
Sn3 Sn4 2.998108 1_545
Sn3 Sn7 3.332007 1_655
Sn4 Tc0 2.793143 1_555
Sn4 Sn7 3.273717 1_665
Sn5 Tc0 2.793139 1_556
Sn5 Sn6 2.998116 1_455
Sn5 Sn7 3.080403 1_555
Sn6 Tc0 2.793139 1_555
Sn6 Sn7 3.069628 1_665
Sn7 Tc0 2.793139 1_445
Ir0 Li0 2.759218 1_554
Ir0 Li1 2.759218 1_555
Ir0 Sn3 2.847027 1_454
Ir0 Sn2 2.847027 1_555
Ir0 Sn0 2.847029 1_555
Ir0 Sn6 2.847029 1_444
Ir0 Sn7 2.847029 1_554
Ir0 Sn5 2.847029 1_555
Ir0 Sn4 2.847032 1_545
Ir0 Sn1 2.847032 1_554
