# generated using pymatgen
data_Na3Si4Pt3Rh
_symmetry_space_group_name_H-M   'P 1'
_cell_length_a   6.34407307
_cell_length_b   6.43780033
_cell_length_c   6.43780072
_cell_angle_alpha   109.76424722
_cell_angle_beta   109.17656115
_cell_angle_gamma   109.17658249
_symmetry_Int_Tables_number   1
_chemical_formula_structural   Na3Si4Pt3Rh
_chemical_formula_sum   'Na3 Si4 Pt3 Rh1'
_cell_volume   203.13637958
_cell_formula_units_Z   1
loop_
 _symmetry_equiv_pos_site_id
 _symmetry_equiv_pos_as_xyz
  1  'x, y, z'
loop_
 _atom_site_type_symbol
 _atom_site_label
 _atom_site_symmetry_multiplicity
 _atom_site_fract_x
 _atom_site_fract_y
 _atom_site_fract_z
 _atom_site_occupancy
  Na  Na0  1  0.49790906  0.50026104  0.00000000  1
  Na  Na1  1  0.49790906  0.00000000  0.50026104  1
  Na  Na2  1  0.99764802  0.49973896  0.49973896  1
  Si  Si0  1  0.37000888  1.00000000  1.00000000  1
  Si  Si1  1  0.99366076  0.35858054  0.00000000  1
  Si  Si2  1  0.99366076  0.00000000  0.35858054  1
  Si  Si3  1  0.63508123  0.64141946  0.64141946  1
  Pt  Pt0  1  0.00127510  0.71562558  1.00000000  1
  Pt  Pt1  1  0.28565052  0.28437542  0.28437542  1
  Pt  Pt2  1  0.00127510  1.00000000  0.71562558  1
  Rh  Rh0  1  0.72592250  0.00000000  0.00000000  1
loop_
_geom_bond_atom_site_label_1
_geom_bond_atom_site_label_2
_geom_bond_distance
_geom_bond_site_symmetry_2
Na0 Si2 3.021776 1_565
Na0 Si3 3.021779 1_554
Na0 Si1 3.024660 1_455
Na0 Pt1 3.034375 1_555
Na0 Pt2 3.034375 1_544
Na0 Pt0 3.035016 1_654
Na0 Si0 3.051843 1_544
Na0 Rh0 3.063590 1_565
Na1 Si1 3.021777 1_556
Na1 Si3 3.021779 1_545
Na1 Si2 3.024660 1_455
Na1 Pt1 3.034375 1_555
Na1 Pt0 3.034376 1_544
Na1 Pt2 3.035017 1_645
Na1 Si0 3.051844 1_544
Na1 Rh0 3.063591 1_556
Na2 Si2 3.021777 1_555
Na2 Si1 3.021777 1_555
Na2 Si3 3.024654 1_555
Na2 Pt2 3.034376 1_655
Na2 Pt0 3.034376 1_655
Na2 Pt1 3.035016 1_655
Na2 Si0 3.051844 1_655
Na2 Rh0 3.063591 1_555
Pt0 Si1 2.283173 1_456
Pt0 Si3 2.440520 1_455
Pt0 Si2 2.440524 1_466
Pt0 Si0 2.451595 1_555
Pt1 Si3 2.283169 1_555
Pt1 Si2 2.440526 1_455
Pt1 Si1 2.440526 1_455
Pt1 Si0 2.451599 1_544
Pt2 Si2 2.283173 1_465
Pt2 Si3 2.440519 1_455
Pt2 Si1 2.440524 1_466
Pt2 Si0 2.451596 1_555
Rh0 Si0 2.257942 1_544
Rh0 Si1 2.374474 1_555
Rh0 Si2 2.374475 1_555
Rh0 Si3 2.374478 1_544
