# generated using pymatgen
data_TiZn3P6N13
_symmetry_space_group_name_H-M   'P 1'
_cell_length_a   6.95566699
_cell_length_b   6.95879770
_cell_length_c   6.95566753
_cell_angle_alpha   109.48032312
_cell_angle_beta   109.46209644
_cell_angle_gamma   109.48033782
_symmetry_Int_Tables_number   1
_chemical_formula_structural   TiZn3P6N13
_chemical_formula_sum   'Ti1 Zn3 P6 N13'
_cell_volume   259.14399352
_cell_formula_units_Z   1
loop_
 _symmetry_equiv_pos_site_id
 _symmetry_equiv_pos_as_xyz
  1  'x, y, z'
loop_
 _atom_site_type_symbol
 _atom_site_label
 _atom_site_symmetry_multiplicity
 _atom_site_fract_x
 _atom_site_fract_y
 _atom_site_fract_z
 _atom_site_occupancy
  Ti  Ti0  1  1.00000000  0.71013052  1.00000000  1
  Zn  Zn0  1  0.71364616  0.00120915  0.00000000  1
  Zn  Zn1  1  0.00000000  0.00120915  0.71364616  1
  Zn  Zn2  1  0.28635384  0.28756298  0.28635384  1
  P  P0  1  0.49767247  0.24790970  0.74805965  1
  P  P1  1  0.50232753  0.75023723  0.25038718  1
  P  P2  1  0.74961282  0.49985006  0.25194035  1
  P  P3  1  0.25038718  0.75023723  0.50232753  1
  P  P4  1  0.74805965  0.24790970  0.49767247  1
  P  P5  1  0.25194035  0.49985006  0.74961282  1
  N  N0  1  0.00000000  0.73717158  0.45582387  1
  N  N1  1  0.27528285  0.54058824  0.54042708  1
  N  N2  1  0.73368067  0.45855180  0.00000000  1
  N  N3  1  0.26631933  0.72487213  0.26631933  1
  N  N4  1  0.45957292  0.00016116  0.73485677  1
  N  N5  1  0.72471715  0.26530438  0.26514323  1
  N  N6  1  0.54417613  0.28134671  0.54417613  1
  N  N7  1  0.73485677  0.00016116  0.45957292  1
  N  N8  1  0.26514323  0.26530438  0.72471715  1
  N  N9  1  0.45582387  0.73717158  0.00000000  1
  N  N10  1  0.54042708  0.54058824  0.27528285  1
  N  N11  1  0.00000000  0.45855180  0.73368067  1
  N  N12  1  1.00000000  0.99412306  1.00000000  1
loop_
_geom_bond_atom_site_label_1
_geom_bond_atom_site_label_2
_geom_bond_distance
_geom_bond_site_symmetry_2
N0 P3 1.626492 1_555
N0 P2 1.626492 1_455
N0 Zn1 2.096265 1_565
N1 P3 1.620000 1_555
N1 P5 1.620391 1_555
N1 Zn2 2.082084 1_555
N2 P2 1.636850 1_555
N2 P0 1.636850 1_554
N2 Ti0 2.081683 1_554
N3 P1 1.636851 1_555
N3 P3 1.636851 1_555
N3 Ti0 2.081680 1_454
N4 P0 1.620003 1_555
N4 P3 1.620394 1_545
N4 Zn0 2.082079 1_556
N5 P2 1.620004 1_555
N5 P4 1.620395 1_555
N5 Zn0 2.082076 1_555
N6 P4 1.626489 1_555
N6 P0 1.626489 1_555
N6 Zn2 2.096269 1_555
N7 P4 1.620003 1_555
N7 P1 1.620394 1_545
N7 Zn1 2.082079 1_655
N8 P5 1.620004 1_555
N8 P0 1.620395 1_555
N8 Zn1 2.082075 1_555
N9 P1 1.626492 1_555
N9 P5 1.626492 1_554
N9 Zn0 2.096264 1_565
N10 P1 1.620000 1_555
N10 P2 1.620391 1_555
N10 Zn2 2.082083 1_555
N11 P5 1.636850 1_555
N11 P4 1.636850 1_455
N11 Ti0 2.081684 1_455
N12 Ti0 1.976247 1_555
N12 Zn0 2.008764 1_566
N12 Zn1 2.008764 1_665
N12 Zn2 2.008765 1_666
