# generated using pymatgen
data_Lu12In2Fe2Rh
_symmetry_space_group_name_H-M   'P 1'
_cell_length_a   8.17156235
_cell_length_b   8.17156297
_cell_length_c   8.17156333
_cell_angle_alpha   108.95911752
_cell_angle_beta   108.95911983
_cell_angle_gamma   110.50034803
_symmetry_Int_Tables_number   1
_chemical_formula_structural   Lu12In2Fe2Rh
_chemical_formula_sum   'Lu12 In2 Fe2 Rh1'
_cell_volume   419.94092292
_cell_formula_units_Z   1
loop_
 _symmetry_equiv_pos_site_id
 _symmetry_equiv_pos_as_xyz
  1  'x, y, z'
loop_
 _atom_site_type_symbol
 _atom_site_label
 _atom_site_symmetry_multiplicity
 _atom_site_fract_x
 _atom_site_fract_y
 _atom_site_fract_z
 _atom_site_occupancy
  Lu  Lu0  1  0.30899589  0.30899589  0.61799179  1
  Lu  Lu1  1  0.69100411  0.69100411  0.38200821  1
  Lu  Lu2  1  0.69100411  0.30899589  1.00000000  1
  Lu  Lu3  1  0.30899589  0.69100411  0.00000000  1
  Lu  Lu4  1  0.19252017  0.43288707  0.24036690  1
  Lu  Lu5  1  0.80747983  0.56711293  0.75963310  1
  Lu  Lu6  1  0.19252017  0.95215328  0.75963310  1
  Lu  Lu7  1  0.95215328  0.19252017  0.75963310  1
  Lu  Lu8  1  0.80747983  0.04784672  0.24036690  1
  Lu  Lu9  1  0.04784672  0.80747983  0.24036690  1
  Lu  Lu10  1  0.43288707  0.19252017  0.24036690  1
  Lu  Lu11  1  0.56711293  0.80747983  0.75963310  1
  In  In0  1  0.00000000  0.50000000  0.50000000  1
  In  In1  1  0.50000000  0.00000000  0.50000000  1
  Fe  Fe0  1  0.37960069  0.37960069  1.00000000  1
  Fe  Fe1  1  0.62039931  0.62039931  0.00000000  1
  Rh  Rh0  1  0.00000000  0.00000000  0.00000000  1
loop_
_geom_bond_atom_site_label_1
_geom_bond_atom_site_label_2
_geom_bond_distance
_geom_bond_site_symmetry_2
Lu0 Lu5 3.422470 1_555
Lu0 Lu7 3.422470 1_455
Lu0 Lu6 3.422471 1_545
Lu0 Lu11 3.422471 1_555
Lu0 Lu8 3.499902 1_455
Lu0 Lu4 3.499902 1_555
Lu0 Lu10 3.499902 1_555
Lu0 Lu9 3.499902 1_545
Lu1 Lu4 3.422470 1_555
Lu1 Lu9 3.422470 1_655
Lu1 Lu8 3.422471 1_565
Lu1 Lu10 3.422471 1_555
Lu1 Lu6 3.499902 1_655
Lu1 Lu5 3.499902 1_555
Lu1 Lu11 3.499902 1_555
Lu1 Lu7 3.499902 1_565
Lu2 Lu6 3.422470 1_545
Lu2 Lu5 3.422471 1_555
Lu2 Lu9 3.422471 1_656
Lu2 Lu4 3.499901 1_656
Lu2 Lu7 3.499902 1_555
Lu2 Lu8 3.499902 1_556
Lu3 Lu8 3.422470 1_565
Lu3 Lu4 3.422471 1_555
Lu3 Lu7 3.422471 1_454
Lu3 Lu5 3.499901 1_454
Lu3 Lu9 3.499902 1_555
Lu3 Lu6 3.499902 1_554
Lu4 Rh0 2.902662 1_555
Lu4 Lu7 3.227721 1_454
Lu4 Lu8 3.586839 1_455
Lu4 Lu9 3.647198 1_555
Lu5 Rh0 2.902662 1_666
Lu5 Lu9 3.227721 1_656
Lu5 Lu6 3.586839 1_655
Lu5 Lu7 3.647198 1_555
Lu6 Rh0 2.902661 1_566
Lu6 Lu7 3.227721 1_465
Lu6 Lu9 3.647198 1_555
Lu7 Rh0 2.902661 1_656
Lu7 Lu8 3.647198 1_555
Lu8 Rh0 2.902661 1_655
Lu8 Lu9 3.227721 1_645
Lu9 Rh0 2.902661 1_565
Lu10 Rh0 2.902661 1_555
Lu10 Lu4 3.227721 1_555
Lu10 Lu6 3.227721 1_544
Lu10 Lu2 3.422470 1_554
Lu10 Lu3 3.499902 1_545
Lu10 Lu9 3.586839 1_545
Lu10 Lu8 3.647198 1_555
Lu10 Lu5 3.647198 1_555
Lu11 Rh0 2.902661 1_666
Lu11 Lu5 3.227721 1_555
Lu11 Lu8 3.227721 1_566
Lu11 Lu3 3.422470 1_556
Lu11 Lu2 3.499902 1_565
Lu11 Lu7 3.586839 1_565
Lu11 Lu6 3.647198 1_555
Lu11 Lu4 3.647198 1_555
In0 Lu5 3.048600 1_455
In0 Lu4 3.048600 1_555
In0 Lu6 3.048600 1_555
In0 Lu8 3.048600 1_455
In0 Lu0 3.449285 1_555
In0 Lu1 3.449285 1_455
In0 Lu3 3.449286 1_556
In0 Lu2 3.449286 1_454
In0 Lu11 3.779148 1_555
In0 Lu10 3.779148 1_455
In0 Lu9 3.779149 1_555
In0 Lu7 3.779149 1_455
In1 Lu7 3.048600 1_555
In1 Lu9 3.048600 1_545
In1 Lu11 3.048600 1_545
In1 Lu10 3.048600 1_555
In1 Lu0 3.449285 1_555
In1 Lu1 3.449285 1_545
In1 Lu2 3.449286 1_555
In1 Lu3 3.449286 1_545
In1 Lu8 3.779148 1_555
In1 Lu6 3.779148 1_545
In1 Lu5 3.779149 1_555
In1 Lu4 3.779149 1_545
Fe0 Fe1 2.243157 1_556
Fe0 Lu2 2.799367 1_555
Fe0 Lu3 2.799367 1_556
Fe0 Lu0 2.799367 1_555
Fe0 Lu1 2.799367 1_556
Fe0 Lu7 2.871629 1_455
Fe0 Lu4 2.871629 1_556
Fe0 Lu10 2.871629 1_556
Fe0 Lu6 2.871630 1_545
Fe1 Lu3 2.799367 1_555
Fe1 Lu2 2.799367 1_554
Fe1 Lu1 2.799367 1_555
Fe1 Lu0 2.799367 1_554
Fe1 Lu9 2.871629 1_655
Fe1 Lu5 2.871629 1_554
Fe1 Lu11 2.871629 1_554
Fe1 Lu8 2.871630 1_565
