# generated using pymatgen
data_Sc5CSe4
_symmetry_space_group_name_H-M   'P 1'
_cell_length_a   6.56639581
_cell_length_b   6.56785345
_cell_length_c   6.56459401
_cell_angle_alpha   99.40701395
_cell_angle_beta   99.41201410
_cell_angle_gamma   132.26413653
_symmetry_Int_Tables_number   1
_chemical_formula_structural   Sc5CSe4
_chemical_formula_sum   'Sc5 C1 Se4'
_cell_volume   191.65378813
_cell_formula_units_Z   1
loop_
 _symmetry_equiv_pos_site_id
 _symmetry_equiv_pos_as_xyz
  1  'x, y, z'
loop_
 _atom_site_type_symbol
 _atom_site_label
 _atom_site_symmetry_multiplicity
 _atom_site_fract_x
 _atom_site_fract_y
 _atom_site_fract_z
 _atom_site_occupancy
  Sc  Sc0  1  0.41295802  0.75158676  0.16467307  1
  Sc  Sc1  1  0.00000000  0.00000000  0.00000000  1
  Sc  Sc2  1  0.58704198  0.24841324  0.83532693  1
  Sc  Sc3  1  0.24836893  0.41310359  0.66133894  1
  Sc  Sc4  1  0.75163107  0.58689641  0.33866106  1
  C  C0  1  0.50000000  0.50000000  0.00000000  1
  Se  Se0  1  0.09365206  0.69578874  0.78933937  1
  Se  Se1  1  0.69579006  0.90649935  0.60210987  1
  Se  Se2  1  0.30420994  0.09350065  0.39789013  1
  Se  Se3  1  0.90634794  0.30421126  0.21066063  1
loop_
_geom_bond_atom_site_label_1
_geom_bond_atom_site_label_2
_geom_bond_distance
_geom_bond_site_symmetry_2
Sc0 Se3 2.694756 1_455
Sc0 Se3 2.695546 1_565
Sc0 Se1 2.736671 1_555
Sc0 Se0 2.753710 1_554
Sc0 Se2 3.047517 1_565
Sc1 Se1 2.703512 1_444
Sc1 Se2 2.703512 1_555
Sc1 Se3 2.703754 1_455
Sc1 Se0 2.703754 1_544
Sc2 Se0 2.694756 1_655
Sc2 Se0 2.695546 1_545
Sc2 Se2 2.736671 1_555
Sc2 Se3 2.753710 1_556
Sc2 Se1 3.047517 1_545
Sc3 Se1 2.695044 1_555
Sc3 Se1 2.695206 1_445
Sc3 Se0 2.737085 1_555
Sc3 Se2 2.754567 1_555
Sc3 Se3 3.046774 1_455
Sc4 Se2 2.695044 1_555
Sc4 Se2 2.695206 1_665
Sc4 Se3 2.737085 1_555
Sc4 Se1 2.754567 1_555
Sc4 Se0 3.046774 1_655
C0 Sc4 2.261350 1_555
C0 Sc3 2.261350 1_554
C0 Sc2 2.261447 1_554
C0 Sc0 2.261447 1_555
C0 Sc1 2.657255 1_665
C0 Sc1 2.657255 1_555
