# generated using pymatgen
data_CaLu(Si7Rh3)2
_symmetry_space_group_name_H-M   'P 1'
_cell_length_a   7.92377068
_cell_length_b   7.92376926
_cell_length_c   7.92377057
_cell_angle_alpha   57.15016643
_cell_angle_beta   57.15016428
_cell_angle_gamma   57.15015120
_symmetry_Int_Tables_number   1
_chemical_formula_structural   CaLu(Si7Rh3)2
_chemical_formula_sum   'Ca1 Lu1 Si14 Rh6'
_cell_volume   328.68872055
_cell_formula_units_Z   1
loop_
 _symmetry_equiv_pos_site_id
 _symmetry_equiv_pos_as_xyz
  1  'x, y, z'
loop_
 _atom_site_type_symbol
 _atom_site_label
 _atom_site_symmetry_multiplicity
 _atom_site_fract_x
 _atom_site_fract_y
 _atom_site_fract_z
 _atom_site_occupancy
  Ca  Ca0  1  0.00000000  0.00000000  0.00000000  1
  Lu  Lu0  1  0.50000000  0.50000000  0.50000000  1
  Si  Si0  1  0.75009123  0.75009123  0.75009123  1
  Si  Si1  1  0.24990877  0.24990877  0.24990877  1
  Si  Si2  1  0.85110111  0.06491691  0.67333598  1
  Si  Si3  1  0.67333598  0.85110111  0.06491691  1
  Si  Si4  1  0.06491691  0.67333598  0.85110111  1
  Si  Si5  1  0.64929580  0.82671639  0.43582991  1
  Si  Si6  1  0.43582991  0.64929580  0.82671639  1
  Si  Si7  1  0.82671639  0.43582991  0.64929580  1
  Si  Si8  1  0.17328361  0.56417009  0.35070420  1
  Si  Si9  1  0.56417009  0.35070420  0.17328361  1
  Si  Si10  1  0.35070420  0.17328361  0.56417009  1
  Si  Si11  1  0.93508309  0.32666402  0.14889889  1
  Si  Si12  1  0.32666402  0.14889889  0.93508309  1
  Si  Si13  1  0.14889889  0.93508309  0.32666402  1
  Rh  Rh0  1  0.07352093  0.43128768  0.74739989  1
  Rh  Rh1  1  0.25260011  0.92647907  0.56871232  1
  Rh  Rh2  1  0.56871232  0.25260011  0.92647907  1
  Rh  Rh3  1  0.92647907  0.56871232  0.25260011  1
  Rh  Rh4  1  0.43128768  0.74739989  0.07352093  1
  Rh  Rh5  1  0.74739989  0.07352093  0.43128768  1
loop_
_geom_bond_atom_site_label_1
_geom_bond_atom_site_label_2
_geom_bond_distance
_geom_bond_site_symmetry_2
Ca0 Rh4 3.081963 1_545
Ca0 Rh2 3.081963 1_454
Ca0 Rh0 3.081963 1_554
Ca0 Rh3 3.081963 1_445
Ca0 Rh5 3.081963 1_455
Ca0 Rh1 3.081963 1_544
Ca0 Si11 3.093016 1_455
Ca0 Si4 3.093016 1_544
Ca0 Si13 3.093016 1_545
Ca0 Si2 3.093016 1_454
Ca0 Si12 3.093016 1_554
Ca0 Si3 3.093016 1_445
Ca0 Si9 3.180824 1_455
Ca0 Si6 3.180824 1_544
Ca0 Si7 3.180825 1_454
Ca0 Si8 3.180825 1_545
Ca0 Si10 3.180826 1_554
Ca0 Si5 3.180826 1_445
Lu0 Rh1 3.034869 1_555
Lu0 Rh5 3.034869 1_555
Lu0 Rh2 3.034870 1_555
Lu0 Rh4 3.034870 1_555
Lu0 Rh3 3.034870 1_555
Lu0 Rh0 3.034870 1_555
Lu0 Si6 3.098688 1_555
Lu0 Si9 3.098688 1_555
Lu0 Si5 3.098688 1_555
Lu0 Si10 3.098688 1_555
Lu0 Si7 3.098688 1_555
Lu0 Si8 3.098688 1_555
Lu0 Si2 3.180364 1_555
Lu0 Si13 3.180364 1_555
Lu0 Si4 3.180364 1_555
Lu0 Si11 3.180364 1_555
Lu0 Si3 3.180365 1_555
Lu0 Si12 3.180365 1_555
Rh0 Si4 2.421865 1_555
Rh0 Si0 2.434207 1_455
Rh0 Si7 2.443883 1_455
Rh0 Si12 2.449236 1_555
Rh0 Si10 2.449623 1_555
Rh0 Si8 2.496139 1_555
Rh0 Si11 2.520129 1_456
Rh1 Si13 2.421866 1_555
Rh1 Si1 2.434208 1_565
Rh1 Si10 2.443883 1_565
Rh1 Si4 2.449237 1_555
Rh1 Si6 2.449623 1_555
Rh1 Si5 2.496139 1_555
Rh1 Si2 2.520129 1_465
Rh2 Si12 2.421866 1_555
Rh2 Si1 2.434208 1_556
Rh2 Si9 2.443883 1_556
Rh2 Si2 2.449236 1_555
Rh2 Si7 2.449623 1_555
Rh2 Si6 2.496139 1_555
Rh2 Si3 2.520128 1_546
Rh3 Si11 2.421865 1_555
Rh3 Si1 2.434207 1_655
Rh3 Si8 2.443883 1_655
Rh3 Si3 2.449236 1_555
Rh3 Si5 2.449623 1_555
Rh3 Si7 2.496139 1_555
Rh3 Si4 2.520129 1_654
Rh4 Si3 2.421866 1_555
Rh4 Si0 2.434208 1_554
Rh4 Si6 2.443883 1_554
Rh4 Si13 2.449236 1_555
Rh4 Si8 2.449623 1_555
Rh4 Si9 2.496139 1_555
Rh4 Si12 2.520128 1_564
Rh5 Si2 2.421866 1_555
Rh5 Si0 2.434208 1_545
Rh5 Si5 2.443883 1_545
Rh5 Si11 2.449237 1_555
Rh5 Si9 2.449623 1_555
Rh5 Si10 2.496139 1_555
Rh5 Si13 2.520129 1_645
