# generated using pymatgen
data_Ca6OsRhO12
_symmetry_space_group_name_H-M   'P 1'
_cell_length_a   5.82498260
_cell_length_b   5.51800189
_cell_length_c   9.71549560
_cell_angle_alpha   55.10012411
_cell_angle_beta   90.68255155
_cell_angle_gamma   90.15701605
_symmetry_Int_Tables_number   1
_chemical_formula_structural   Ca6OsRhO12
_chemical_formula_sum   'Ca6 Os1 Rh1 O12'
_cell_volume   256.09446762
_cell_formula_units_Z   1
loop_
 _symmetry_equiv_pos_site_id
 _symmetry_equiv_pos_as_xyz
  1  'x, y, z'
loop_
 _atom_site_type_symbol
 _atom_site_label
 _atom_site_symmetry_multiplicity
 _atom_site_fract_x
 _atom_site_fract_y
 _atom_site_fract_z
 _atom_site_occupancy
  Ca  Ca0  1  0.05810049  0.71844628  0.76788174  1
  Ca  Ca1  1  0.94189951  0.28155372  0.23211826  1
  Ca  Ca2  1  0.56758049  0.25829617  0.76159505  1
  Ca  Ca3  1  0.43241951  0.74170383  0.23840495  1
  Ca  Ca4  1  0.50000000  0.50000000  0.00000000  1
  Ca  Ca5  1  0.00000000  0.50000000  0.50000000  1
  Os  Os0  1  0.50000000  0.00000000  0.50000000  1
  Rh  Rh0  1  0.00000000  0.00000000  0.00000000  1
  O  O0  1  0.45145737  0.89239368  0.72261276  1
  O  O1  1  0.54854263  0.10760632  0.27738724  1
  O  O2  1  0.94899367  0.11798498  0.77030655  1
  O  O3  1  0.05100633  0.88201502  0.22969345  1
  O  O4  1  0.77645831  0.76518286  0.57175896  1
  O  O5  1  0.22354169  0.23481714  0.42824104  1
  O  O6  1  0.27952015  0.23834065  0.93479817  1
  O  O7  1  0.72047985  0.76165935  0.06520183  1
  O  O8  1  0.32866612  0.66605583  0.55394898  1
  O  O9  1  0.67133388  0.33394417  0.44605102  1
  O  O10  1  0.81869109  0.33580933  0.95129381  1
  O  O11  1  0.18130891  0.66419067  0.04870619  1
loop_
_geom_bond_atom_site_label_1
_geom_bond_atom_site_label_2
_geom_bond_distance
_geom_bond_site_symmetry_2
Ca0 O10 2.305623 1_455
Ca0 O2 2.309209 1_465
Ca0 O4 2.398782 1_455
Ca0 O0 2.427688 1_555
Ca0 O6 2.522804 1_555
Ca0 O11 2.658654 1_556
Ca0 O8 2.766873 1_555
Ca0 O5 3.039386 1_565
Ca1 O11 2.305623 1_655
Ca1 O3 2.309209 1_645
Ca1 O5 2.398782 1_655
Ca1 O1 2.427688 1_555
Ca1 O7 2.522804 1_555
Ca1 O10 2.658654 1_554
Ca1 O9 2.766873 1_555
Ca1 O4 3.039386 1_545
Ca2 O2 2.339366 1_555
Ca2 O6 2.348088 1_555
Ca2 O0 2.353501 1_545
Ca2 O8 2.413576 1_555
Ca2 O10 2.559993 1_555
Ca2 O4 2.614777 1_555
Ca2 O7 2.775773 1_546
Ca2 O9 2.918259 1_555
Ca3 O3 2.339366 1_555
Ca3 O7 2.348088 1_555
Ca3 O1 2.353501 1_565
Ca3 O9 2.413576 1_555
Ca3 O11 2.559993 1_555
Ca3 O5 2.614777 1_555
Ca3 O6 2.775773 1_564
Ca3 O8 2.918259 1_555
Ca4 O10 2.238662 1_554
Ca4 O11 2.238662 1_555
Ca4 O7 2.269890 1_555
Ca4 O6 2.269890 1_554
Ca4 O1 2.310629 1_555
Ca4 O0 2.310629 1_554
Ca5 O2 2.260321 1_455
Ca5 O3 2.260321 1_555
Ca5 O8 2.301213 1_555
Ca5 O9 2.301213 1_455
Ca5 O4 2.349936 1_455
Ca5 O5 2.349936 1_555
O0 Os0 1.911633 1_565
O1 Os0 1.911633 1_555
O2 Rh0 1.953173 1_656
O3 Rh0 1.953173 1_565
O4 Os0 1.925934 1_565
O5 Os0 1.925934 1_555
O6 Rh0 1.959971 1_556
O7 Rh0 1.959971 1_665
O8 Os0 1.887726 1_565
O9 Os0 1.887726 1_555
O10 Rh0 1.941228 1_656
O11 Rh0 1.941228 1_565
