# generated using pymatgen
data_Y7TcSn23Ir5
_symmetry_space_group_name_H-M   'P 1'
_cell_length_a   9.85884093
_cell_length_b   9.85884202
_cell_length_c   10.01286425
_cell_angle_alpha   90.13595749
_cell_angle_beta   89.86403990
_cell_angle_gamma   119.99902773
_symmetry_Int_Tables_number   1
_chemical_formula_structural   Y7TcSn23Ir5
_chemical_formula_sum   'Y7 Tc1 Sn23 Ir5'
_cell_volume   842.83653188
_cell_formula_units_Z   1
loop_
 _symmetry_equiv_pos_site_id
 _symmetry_equiv_pos_as_xyz
  1  'x, y, z'
loop_
 _atom_site_type_symbol
 _atom_site_label
 _atom_site_symmetry_multiplicity
 _atom_site_fract_x
 _atom_site_fract_y
 _atom_site_fract_z
 _atom_site_occupancy
  Y  Y0  1  0.00236139  0.99763861  0.99850758  1
  Y  Y1  1  0.03833118  0.51879776  0.30565170  1
  Y  Y2  1  0.48120224  0.96166882  0.30565170  1
  Y  Y3  1  0.48134547  0.51865453  0.30679034  1
  Y  Y4  1  0.96304992  0.48217420  0.69357697  1
  Y  Y5  1  0.51782580  0.03695008  0.69357697  1
  Y  Y6  1  0.51796506  0.48203494  0.69342960  1
  Tc  Tc0  1  0.16809669  0.83190331  0.80008553  1
  Sn  Sn0  1  0.00011057  0.99988943  0.49887150  1
  Sn  Sn1  1  0.11734808  0.88265192  0.28594858  1
  Sn  Sn2  1  0.76740340  0.88367254  0.28488238  1
  Sn  Sn3  1  0.11632746  0.23259660  0.28488238  1
  Sn  Sn4  1  0.88374033  0.11625967  0.71497122  1
  Sn  Sn5  1  0.23239221  0.11536239  0.71926124  1
  Sn  Sn6  1  0.88463761  0.76760779  0.71926124  1
  Sn  Sn7  1  0.34808775  0.99770398  0.99965112  1
  Sn  Sn8  1  0.64738632  0.64781540  0.00013321  1
  Sn  Sn9  1  0.99930106  0.35308170  0.99949058  1
  Sn  Sn10  1  0.35218460  0.35261368  0.00013321  1
  Sn  Sn11  1  0.00229602  0.65191225  0.99965112  1
  Sn  Sn12  1  0.64691830  0.00069894  0.99949058  1
  Sn  Sn13  1  0.77703108  0.55471494  0.45793781  1
  Sn  Sn14  1  0.77737327  0.22262673  0.45702546  1
  Sn  Sn15  1  0.44528506  0.22296892  0.45793781  1
  Sn  Sn16  1  0.22213420  0.44421549  0.54205290  1
  Sn  Sn17  1  0.22273828  0.77726172  0.54258511  1
  Sn  Sn18  1  0.55578451  0.77786580  0.54205290  1
  Sn  Sn19  1  0.66677926  0.33322074  0.17153170  1
  Sn  Sn20  1  0.33150664  0.66849336  0.82695444  1
  Sn  Sn21  1  0.66681140  0.33318860  0.87806066  1
  Sn  Sn22  1  0.33443560  0.66556440  0.12165471  1
  Ir  Ir0  1  0.66201575  0.83042379  0.80076988  1
  Ir  Ir1  1  0.16957621  0.33798425  0.80076988  1
  Ir  Ir2  1  0.83107542  0.16892458  0.19842223  1
  Ir  Ir3  1  0.33893827  0.16979940  0.19917189  1
  Ir  Ir4  1  0.83020060  0.66106173  0.19917189  1
loop_
_geom_bond_atom_site_label_1
_geom_bond_atom_site_label_2
_geom_bond_distance
_geom_bond_site_symmetry_2
Tc0 Y5 3.183550 1_565
Tc0 Y4 3.183550 1_455
Tc0 Y0 3.453380 1_555
Sn0 Sn1 2.920558 1_555
Sn0 Sn2 2.924085 1_455
Sn0 Sn3 2.924085 1_565
Sn0 Sn4 2.933778 1_465
Sn0 Sn5 2.969010 1_565
Sn0 Sn6 2.969010 1_455
Sn1 Sn17 3.141213 1_555
Sn1 Y2 3.274430 1_555
Sn1 Y1 3.274430 1_555
Sn1 Y0 3.488527 1_554
Sn2 Y2 3.280565 1_555
Sn2 Y3 3.286966 1_555
Sn2 Y0 3.497362 1_654
Sn3 Y1 3.280565 1_555
Sn3 Y3 3.286966 1_555
Sn3 Y0 3.497362 1_544
Sn4 Y5 3.294468 1_555
Sn4 Y4 3.294468 1_555
Sn4 Y0 3.492050 1_645
Sn5 Tc0 2.665208 1_545
Sn5 Y5 3.279263 1_555
Sn5 Y6 3.299257 1_555
Sn5 Y0 3.414870 1_545
Sn6 Tc0 2.665208 1_655
Sn6 Y4 3.279263 1_555
Sn6 Y6 3.299257 1_555
Sn6 Y0 3.414871 1_655
Sn7 Tc0 2.629541 1_555
Sn7 Y0 3.408185 1_555
Sn7 Y5 3.417035 1_565
Sn7 Y2 3.424427 1_556
Sn8 Y3 3.411673 1_555
Sn8 Y6 3.411695 1_554
Sn8 Y0 3.474614 1_654
Sn9 Y1 3.401183 1_656
Sn9 Y4 3.407117 1_555
Sn9 Y0 3.519430 1_645
Sn10 Y3 3.411673 1_555
Sn10 Y6 3.411695 1_554
Sn10 Y0 3.474614 1_544
Sn11 Tc0 2.629541 1_555
Sn11 Sn9 2.931468 1_455
Sn11 Y0 3.408186 1_555
Sn11 Y4 3.417035 1_455
Sn11 Y1 3.424427 1_556
Sn12 Sn7 2.931468 1_545
Sn12 Y2 3.401183 1_546
Sn12 Y5 3.407117 1_555
Sn12 Y0 3.519429 1_645
Sn13 Y3 3.145916 1_555
Sn13 Y1 3.158768 1_655
Sn13 Sn6 3.183998 1_555
Sn13 Y6 3.278125 1_555
Sn13 Y4 3.283552 1_555
Sn14 Y1 3.151618 1_655
Sn14 Y2 3.151618 1_545
Sn14 Sn4 3.161557 1_555
Sn14 Y5 3.288846 1_555
Sn14 Y4 3.288846 1_555
Sn15 Y3 3.145916 1_555
Sn15 Y2 3.158768 1_545
Sn15 Sn5 3.183998 1_555
Sn15 Y6 3.278126 1_555
Sn15 Y5 3.283552 1_555
Sn16 Y6 3.142220 1_555
Sn16 Sn3 3.143652 1_555
Sn16 Y4 3.146582 1_455
Sn16 Y3 3.274540 1_555
Sn16 Y1 3.284546 1_555
Sn17 Tc0 2.739549 1_555
Sn17 Y4 3.139826 1_455
Sn17 Y5 3.139826 1_565
Sn17 Y2 3.284179 1_555
Sn17 Y1 3.284179 1_555
Sn18 Y6 3.142221 1_555
Sn18 Sn2 3.143652 1_555
Sn18 Y5 3.146582 1_565
Sn18 Y3 3.274540 1_555
Sn18 Y2 3.284546 1_555
Sn19 Sn21 2.938484 1_554
Sn19 Y3 3.440514 1_555
Sn19 Y1 3.446579 1_655
Sn19 Y2 3.446579 1_545
Sn20 Tc0 2.804050 1_555
Sn20 Sn22 2.951355 1_556
Sn20 Y4 3.419376 1_455
Sn20 Y5 3.419377 1_565
Sn20 Y6 3.449883 1_555
Sn21 Y4 3.130008 1_555
Sn21 Y5 3.130008 1_555
Sn21 Y6 3.146995 1_555
Sn22 Y3 3.123302 1_555
Sn22 Y1 3.126198 1_555
Sn22 Y2 3.126199 1_555
Ir0 Sn8 2.646272 1_556
Ir0 Sn12 2.651792 1_565
Ir0 Sn6 2.686075 1_555
Ir0 Sn4 2.701911 1_565
Ir0 Sn18 2.745885 1_555
Ir0 Sn20 2.833894 1_555
Ir0 Y6 3.175102 1_555
Ir0 Y5 3.198512 1_565
Ir0 Y0 3.518698 1_655
Ir1 Sn10 2.646272 1_556
Ir1 Sn9 2.651792 1_455
Ir1 Sn5 2.686075 1_555
Ir1 Sn4 2.701911 1_455
Ir1 Sn16 2.745885 1_555
Ir1 Sn20 2.833894 1_555
Ir1 Y6 3.175102 1_555
Ir1 Y4 3.198512 1_455
Ir1 Y0 3.518698 1_545
Ir2 Sn9 2.646689 1_554
Ir2 Sn12 2.646689 1_554
Ir2 Sn3 2.701105 1_655
Ir2 Sn2 2.701105 1_545
Ir2 Sn14 2.744573 1_555
Ir2 Sn19 2.819135 1_555
Ir2 Y2 3.189173 1_545
Ir2 Y1 3.189173 1_655
Ir2 Y0 3.539723 1_644
Ir3 Sn7 2.648395 1_544
Ir3 Sn10 2.649105 1_555
Ir3 Sn3 2.698833 1_555
Ir3 Sn1 2.712945 1_545
Ir3 Sn15 2.746657 1_555
Ir3 Sn19 2.812410 1_555
Ir3 Y3 3.181536 1_555
Ir3 Y2 3.195250 1_545
Ir3 Y0 3.508873 1_544
Ir4 Sn11 2.648395 1_654
Ir4 Sn8 2.649105 1_555
Ir4 Sn2 2.698833 1_555
Ir4 Sn1 2.712945 1_655
Ir4 Sn13 2.746657 1_555
Ir4 Sn19 2.812411 1_555
Ir4 Y3 3.181536 1_555
Ir4 Y1 3.195250 1_655
Ir4 Y0 3.508873 1_654
