# generated using pymatgen
data_Zr5Ni4(P4Ru5)3
_symmetry_space_group_name_H-M   'P 1'
_cell_length_a   12.21160316
_cell_length_b   12.21160317
_cell_length_c   3.85206375
_cell_angle_alpha   90.00000000
_cell_angle_beta   90.00000000
_cell_angle_gamma   120.00000529
_symmetry_Int_Tables_number   1
_chemical_formula_structural   Zr5Ni4(P4Ru5)3
_chemical_formula_sum   'Zr5 Ni4 P12 Ru15'
_cell_volume   497.47291486
_cell_formula_units_Z   1
loop_
 _symmetry_equiv_pos_site_id
 _symmetry_equiv_pos_as_xyz
  1  'x, y, z'
loop_
 _atom_site_type_symbol
 _atom_site_label
 _atom_site_symmetry_multiplicity
 _atom_site_fract_x
 _atom_site_fract_y
 _atom_site_fract_z
 _atom_site_occupancy
  Zr  Zr0  1  0.33333300  0.66666700  0.50000000  1
  Zr  Zr1  1  0.66666700  0.33333300  0.50000000  1
  Zr  Zr2  1  0.82011058  0.99796274  0.00000000  1
  Zr  Zr3  1  0.00203726  0.82214884  0.00000000  1
  Zr  Zr4  1  0.17785116  0.17988942  0.00000000  1
  Ni  Ni0  1  0.49561013  0.36482610  0.00000000  1
  Ni  Ni1  1  0.86921596  0.50438987  0.00000000  1
  Ni  Ni2  1  0.63517390  0.13078404  0.00000000  1
  Ni  Ni3  1  0.00000000  0.00000000  0.50000000  1
  P  P0  1  0.17612694  0.00513838  0.50000000  1
  P  P1  1  0.99486162  0.17098856  0.50000000  1
  P  P2  1  0.82901144  0.82387306  0.50000000  1
  P  P3  1  0.52085290  0.69181384  0.00000000  1
  P  P4  1  0.30818616  0.82903906  0.00000000  1
  P  P5  1  0.17096094  0.47914710  0.00000000  1
  P  P6  1  0.48385230  0.17556960  0.00000000  1
  P  P7  1  0.69171830  0.51614770  0.00000000  1
  P  P8  1  0.82443040  0.30828170  0.00000000  1
  P  P9  1  0.63338883  0.99370595  0.50000000  1
  P  P10  1  0.00629405  0.63968389  0.50000000  1
  P  P11  1  0.36031611  0.36661117  0.50000000  1
  Ru  Ru0  1  0.62716141  0.80339718  0.50000000  1
  Ru  Ru1  1  0.19660282  0.82376223  0.50000000  1
  Ru  Ru2  1  0.17623777  0.37283859  0.50000000  1
  Ru  Ru3  1  0.38101527  0.19203021  0.50000000  1
  Ru  Ru4  1  0.81101493  0.61898473  0.50000000  1
  Ru  Ru5  1  0.80796979  0.18898507  0.50000000  1
  Ru  Ru6  1  0.28510004  0.00639065  0.00000000  1
  Ru  Ru7  1  0.99360935  0.27870839  0.00000000  1
  Ru  Ru8  1  0.72129161  0.71489996  0.00000000  1
  Ru  Ru9  1  0.45612272  0.01202583  0.50000000  1
  Ru  Ru10  1  0.98797417  0.44409789  0.50000000  1
  Ru  Ru11  1  0.55590211  0.54387728  0.50000000  1
  Ru  Ru12  1  0.50999422  0.87555519  0.00000000  1
  Ru  Ru13  1  0.12444481  0.63443803  0.00000000  1
  Ru  Ru14  1  0.36556197  0.49000578  0.00000000  1
loop_
_geom_bond_atom_site_label_1
_geom_bond_atom_site_label_2
_geom_bond_distance
_geom_bond_site_symmetry_2
Ni0 P7 2.173570 1_555
Ni0 P6 2.242784 1_555
Ni0 P11 2.544742 1_554
Ni0 P11 2.544742 1_555
Ni0 Ru3 2.677237 1_555
Ni0 Ru3 2.677237 1_554
Ni0 Ru14 2.699341 1_555
Ni0 Ru11 2.724451 1_555
Ni0 Ru11 2.724451 1_554
Ni0 Zr1 3.004040 1_555
Ni0 Zr1 3.004040 1_554
Ni0 Zr4 3.375510 1_555
Ni1 P8 2.173574 1_555
Ni1 P7 2.242772 1_555
Ni1 P10 2.544738 1_655
Ni1 P10 2.544738 1_654
Ni1 Ru4 2.677237 1_555
Ni1 Ru4 2.677237 1_554
Ni1 Ru13 2.699351 1_655
Ni1 Ru10 2.724443 1_555
Ni1 Ru10 2.724443 1_554
Ni1 Zr1 3.004034 1_555
Ni1 Zr1 3.004034 1_554
Ni1 Zr3 3.375511 1_655
Ni2 P6 2.173562 1_555
Ni2 P8 2.242778 1_555
Ni2 P9 2.544734 1_545
Ni2 P9 2.544734 1_544
Ni2 Ru5 2.677237 1_555
Ni2 Ru5 2.677237 1_554
Ni2 Ru12 2.699351 1_545
Ni2 Ru9 2.724449 1_555
Ni2 Ru9 2.724449 1_554
Ni2 Zr1 3.004031 1_555
Ni2 Zr1 3.004031 1_554
Ni2 Zr2 3.375500 1_545
Ni3 P2 2.120115 1_445
Ni3 P0 2.120115 1_555
Ni3 P1 2.120115 1_455
Ni3 Zr3 2.912245 1_545
Ni3 Zr3 2.912245 1_546
Ni3 Zr4 2.912250 1_555
Ni3 Zr4 2.912250 1_556
Ni3 Zr2 2.912254 1_445
Ni3 Zr2 2.912254 1_446
P0 Ru6 2.336737 1_555
P0 Ru6 2.336737 1_556
P0 Ru1 2.349914 1_545
P0 Ru3 2.399691 1_555
P0 Zr4 2.866884 1_555
P0 Zr4 2.866884 1_556
P0 Zr3 2.910665 1_546
P0 Zr3 2.910665 1_545
P1 Ru7 2.336730 1_555
P1 Ru7 2.336730 1_556
P1 Ru2 2.349899 1_655
P1 Ru5 2.399691 1_555
P1 Zr2 2.866880 1_545
P1 Zr2 2.866880 1_546
P1 Zr4 2.910660 1_656
P1 Zr4 2.910660 1_655
P2 Ru8 2.336734 1_556
P2 Ru8 2.336734 1_555
P2 Ru0 2.349889 1_555
P2 Ru4 2.399691 1_555
P2 Zr3 2.866875 1_656
P2 Zr3 2.866875 1_655
P2 Zr2 2.910670 1_556
P2 Zr2 2.910670 1_555
P3 Ru14 2.235184 1_555
P3 Ru12 2.312930 1_555
P3 Ru8 2.319603 1_555
P3 Ru0 2.341514 1_554
P3 Ru0 2.341514 1_555
P3 Ru11 2.815954 1_555
P3 Ru11 2.815954 1_554
P3 Zr0 2.888673 1_555
P3 Zr0 2.888673 1_554
P4 Ru12 2.235188 1_555
P4 Ru13 2.312936 1_555
P4 Ru6 2.319591 1_565
P4 Ru1 2.341507 1_555
P4 Ru1 2.341507 1_554
P4 Ru9 2.815960 1_565
P4 Ru9 2.815960 1_564
P4 Zr0 2.888664 1_555
P4 Zr0 2.888664 1_554
P5 Ru13 2.235176 1_555
P5 Ru14 2.312942 1_555
P5 Ru7 2.319598 1_455
P5 Ru2 2.341521 1_555
P5 Ru2 2.341521 1_554
P5 Ru10 2.815963 1_454
P5 Ru10 2.815963 1_455
P5 Zr0 2.888669 1_555
P5 Zr0 2.888669 1_554
P6 Ru6 2.268181 1_555
P6 Ru3 2.362092 1_555
P6 Ru3 2.362092 1_554
P6 Ru9 2.671427 1_555
P6 Ru9 2.671427 1_554
P6 Zr1 2.846773 1_554
P6 Zr1 2.846773 1_555
P7 Ru8 2.268181 1_555
P7 Ru4 2.362088 1_555
P7 Ru4 2.362088 1_554
P7 Ru11 2.671444 1_555
P7 Ru11 2.671444 1_554
P7 Zr1 2.846773 1_555
P7 Zr1 2.846773 1_554
P8 Ru7 2.268181 1_555
P8 Ru5 2.362085 1_555
P8 Ru5 2.362085 1_554
P8 Ru10 2.671433 1_555
P8 Ru10 2.671433 1_554
P8 Zr1 2.846773 1_555
P8 Zr1 2.846773 1_554
P9 Ru5 2.268876 1_565
P9 Ru9 2.284790 1_565
P9 Ru0 2.286900 1_555
P9 Ru12 2.426477 1_556
P9 Ru12 2.426477 1_555
P9 Zr2 2.965292 1_556
P9 Zr2 2.965292 1_555
P10 Ru4 2.268871 1_455
P10 Ru10 2.284790 1_455
P10 Ru1 2.286883 1_555
P10 Ru13 2.426485 1_555
P10 Ru13 2.426485 1_556
P10 Zr3 2.965292 1_555
P10 Zr3 2.965292 1_556
P11 Ru3 2.268883 1_555
P11 Ru11 2.284790 1_555
P11 Ru2 2.286864 1_555
P11 Ru14 2.426470 1_556
P11 Ru14 2.426470 1_555
P11 Zr4 2.965292 1_555
P11 Zr4 2.965292 1_556
Ru0 Ru8 2.727827 1_555
Ru0 Ru8 2.727827 1_556
Ru0 Ru12 2.791775 1_555
Ru0 Ru12 2.791775 1_556
Ru0 Ru11 2.836018 1_555
Ru0 Zr2 3.050945 1_556
Ru0 Zr2 3.050945 1_555
Ru0 Zr0 3.109887 1_555
Ru1 Ru6 2.727834 1_565
Ru1 Ru6 2.727834 1_566
Ru1 Ru13 2.791767 1_556
Ru1 Ru13 2.791767 1_555
Ru1 Ru9 2.836028 1_565
Ru1 Zr3 3.050959 1_555
Ru1 Zr3 3.050959 1_556
Ru1 Zr0 3.109855 1_555
Ru2 Ru7 2.727834 1_455
Ru2 Ru7 2.727834 1_456
Ru2 Zr4 3.050930 1_556
Ru2 Zr4 3.050930 1_555
Ru2 Zr0 3.109886 1_555
Ru3 Ru6 2.750517 1_555
Ru3 Ru6 2.750517 1_556
Ru3 Ru9 2.772931 1_555
Ru3 Zr1 3.020984 1_555
Ru3 Zr4 3.085274 1_555
Ru3 Zr4 3.085274 1_556
Ru4 Ru8 2.750510 1_555
Ru4 Ru8 2.750510 1_556
Ru4 Zr1 3.020984 1_555
Ru4 Zr3 3.085270 1_656
Ru4 Zr3 3.085270 1_655
Ru5 Ru7 2.750518 1_556
Ru5 Ru7 2.750518 1_555
Ru5 Zr1 3.020973 1_555
Ru5 Zr2 3.085265 1_546
Ru5 Zr2 3.085265 1_545
Ru6 Ru9 2.816432 1_554
Ru6 Ru9 2.816432 1_555
Ru6 Zr4 2.996492 1_555
Ru6 Zr3 3.038643 1_545
Ru7 Zr2 2.996472 1_545
Ru7 Zr4 3.038624 1_655
Ru8 Zr3 2.996469 1_655
Ru8 Zr2 3.038647 1_555
Ru10 Ru5 2.772940 1_555
Ru10 Ru7 2.816449 1_556
Ru10 Ru7 2.816449 1_555
Ru10 Ru13 2.831244 1_656
Ru10 Ru13 2.831244 1_655
Ru10 Ru2 2.836054 1_655
Ru11 Ru4 2.772943 1_555
Ru11 Ru8 2.816440 1_556
Ru11 Ru8 2.816440 1_555
Ru11 Ru14 2.831240 1_556
Ru11 Ru14 2.831240 1_555
Ru12 Ru9 2.831257 1_565
Ru12 Ru9 2.831257 1_564
Ru12 Zr0 3.060635 1_555
Ru12 Zr0 3.060635 1_554
Ru12 Zr2 3.303801 1_555
Ru13 Zr0 3.060628 1_555
Ru13 Zr0 3.060628 1_554
Ru13 Zr3 3.303824 1_555
Ru14 Ru2 2.791768 1_554
Ru14 Ru2 2.791768 1_555
Ru14 Zr0 3.060647 1_555
Ru14 Zr0 3.060647 1_554
Ru14 Zr4 3.303804 1_555
