# generated using pymatgen
data_Tb(NiGe)2
_symmetry_space_group_name_H-M   'P 1'
_cell_length_a   4.04629389
_cell_length_b   4.04629384
_cell_length_c   5.63188462
_cell_angle_alpha   111.05296734
_cell_angle_beta   111.05297197
_cell_angle_gamma   90.00000827
_symmetry_Int_Tables_number   1
_chemical_formula_structural   Tb(NiGe)2
_chemical_formula_sum   'Tb1 Ni2 Ge2'
_cell_volume   79.42242072
_cell_formula_units_Z   1
loop_
 _symmetry_equiv_pos_site_id
 _symmetry_equiv_pos_as_xyz
  1  'x, y, z'
loop_
 _atom_site_type_symbol
 _atom_site_label
 _atom_site_symmetry_multiplicity
 _atom_site_fract_x
 _atom_site_fract_y
 _atom_site_fract_z
 _atom_site_occupancy
  Tb  Tb0  1  0.00000000  0.00000000  0.00000000  1
  Ni  Ni0  1  0.25000000  0.75000000  0.50000000  1
  Ni  Ni1  1  0.75000000  0.25000000  0.50000000  1
  Ge  Ge0  1  0.62961639  0.62961639  0.25923377  1
  Ge  Ge1  1  0.37038361  0.37038361  0.74076623  1
loop_
_geom_bond_atom_site_label_1
_geom_bond_atom_site_label_2
_geom_bond_distance
_geom_bond_site_symmetry_2
Ni0 Tb0 3.158495 1_666
Ni0 Tb0 3.158495 1_555
Ni0 Tb0 3.158495 1_565
Ni0 Tb0 3.158495 1_566
Ni1 Tb0 3.158495 1_555
Ni1 Tb0 3.158495 1_666
Ni1 Tb0 3.158495 1_656
Ni1 Tb0 3.158495 1_655
Ge0 Ni1 2.336069 1_555
Ge0 Ni0 2.336069 1_555
Ge0 Ni0 2.336073 1_655
Ge0 Ni1 2.336073 1_565
Ge0 Ge1 2.515069 1_554
Ge0 Tb0 3.125319 1_555
Ge0 Tb0 3.125322 1_565
Ge0 Tb0 3.125323 1_655
Ge0 Tb0 3.125325 1_665
Ge1 Ni0 2.336069 1_555
Ge1 Ni1 2.336069 1_555
Ge1 Ni1 2.336073 1_455
Ge1 Ni0 2.336073 1_545
Ge1 Tb0 3.125319 1_666
Ge1 Tb0 3.125322 1_656
Ge1 Tb0 3.125323 1_566
Ge1 Tb0 3.125325 1_556
