# generated using pymatgen
data_Hf13NbSb8
_symmetry_space_group_name_H-M   'P 1'
_cell_length_a   8.81884169
_cell_length_b   8.81884202
_cell_length_c   15.21440965
_cell_angle_alpha   75.67282311
_cell_angle_beta   75.67282221
_cell_angle_gamma   24.94264933
_symmetry_Int_Tables_number   1
_chemical_formula_structural   Hf13NbSb8
_chemical_formula_sum   'Hf13 Nb1 Sb8'
_cell_volume   482.70000125
_cell_formula_units_Z   1
loop_
 _symmetry_equiv_pos_site_id
 _symmetry_equiv_pos_as_xyz
  1  'x, y, z'
loop_
 _atom_site_type_symbol
 _atom_site_label
 _atom_site_symmetry_multiplicity
 _atom_site_fract_x
 _atom_site_fract_y
 _atom_site_fract_z
 _atom_site_occupancy
  Hf  Hf0  1  0.66943604  0.66943604  0.03898364  1
  Hf  Hf1  1  0.33056396  0.33056396  0.96101636  1
  Hf  Hf2  1  0.99651640  0.99651640  0.64856538  1
  Hf  Hf3  1  0.00348360  0.00348360  0.35143462  1
  Hf  Hf4  1  0.81183586  0.81183586  0.54299013  1
  Hf  Hf5  1  0.18816414  0.18816414  0.45700987  1
  Hf  Hf6  1  0.21030166  0.21030166  0.20216557  1
  Hf  Hf7  1  0.78969834  0.78969834  0.79783443  1
  Hf  Hf8  1  0.19834434  0.19834434  0.69397776  1
  Hf  Hf9  1  0.80165566  0.80165566  0.30602224  1
  Hf  Hf10  1  0.42665372  0.42665372  0.17489432  1
  Hf  Hf11  1  0.57334628  0.57334628  0.82510568  1
  Hf  Hf12  1  0.00000000  0.00000000  0.00000000  1
  Nb  Nb0  1  0.50000000  0.50000000  0.50000000  1
  Sb  Sb0  1  0.06043503  0.06043503  0.15732421  1
  Sb  Sb1  1  0.93956497  0.93956497  0.84267579  1
  Sb  Sb2  1  0.36911937  0.36911937  0.65916769  1
  Sb  Sb3  1  0.63088063  0.63088063  0.34083231  1
  Sb  Sb4  1  0.37475179  0.37475179  0.39596746  1
  Sb  Sb5  1  0.62524821  0.62524821  0.60403254  1
  Sb  Sb6  1  0.17282054  0.17282054  0.89545327  1
  Sb  Sb7  1  0.82717946  0.82717946  0.10454673  1
loop_
_geom_bond_atom_site_label_1
_geom_bond_atom_site_label_2
_geom_bond_distance
_geom_bond_site_symmetry_2
Hf0 Sb6 2.886943 1_654
Hf0 Sb6 2.886943 1_564
Hf0 Sb0 2.946050 1_565
Hf0 Sb0 2.946050 1_655
Hf0 Sb7 3.122236 1_555
Hf1 Sb7 2.886943 1_456
Hf1 Sb7 2.886943 1_546
Hf1 Sb1 2.946050 1_545
Hf1 Sb1 2.946050 1_455
Hf1 Sb6 3.122236 1_555
Hf2 Sb1 2.866285 1_555
Hf2 Sb5 2.870447 1_655
Hf2 Sb5 2.870447 1_565
Hf2 Sb2 2.878718 1_565
Hf2 Sb2 2.878718 1_655
Hf2 Nb0 2.944632 1_655
Hf2 Nb0 2.944632 1_565
Hf3 Sb0 2.866285 1_555
Hf3 Sb4 2.870447 1_455
Hf3 Sb4 2.870447 1_545
Hf3 Sb3 2.878718 1_545
Hf3 Sb3 2.878718 1_455
Hf3 Nb0 2.944632 1_455
Hf3 Nb0 2.944632 1_545
Hf4 Sb4 2.928469 1_655
Hf4 Sb4 2.928469 1_565
Hf4 Sb2 2.933982 1_655
Hf4 Sb2 2.933982 1_565
Hf4 Sb5 3.110513 1_555
Hf5 Sb5 2.928469 1_455
Hf5 Sb5 2.928469 1_545
Hf5 Sb3 2.933982 1_455
Hf5 Sb3 2.933982 1_545
Hf5 Sb4 3.110513 1_555
Hf6 Sb0 2.831810 1_555
Hf6 Sb7 2.892899 1_545
Hf6 Sb7 2.892899 1_455
Hf6 Sb3 2.913066 1_455
Hf6 Sb3 2.913066 1_545
Hf7 Sb1 2.831810 1_555
Hf7 Sb6 2.892899 1_565
Hf7 Sb6 2.892899 1_655
Hf7 Sb2 2.913066 1_655
Hf7 Sb2 2.913066 1_565
Hf8 Sb5 2.820885 1_455
Hf8 Sb5 2.820885 1_545
Hf8 Sb2 2.853153 1_555
Hf8 Sb6 2.984376 1_555
Hf9 Sb4 2.820885 1_655
Hf9 Sb4 2.820885 1_565
Hf9 Sb3 2.853153 1_555
Hf9 Sb7 2.984376 1_555
Hf10 Sb7 2.938791 1_455
Hf10 Sb7 2.938791 1_545
Hf10 Sb0 2.948592 1_655
Hf10 Sb0 2.948592 1_565
Hf10 Sb4 3.253947 1_555
Hf11 Sb6 2.938791 1_655
Hf11 Sb6 2.938791 1_565
Hf11 Sb1 2.948592 1_455
Hf11 Sb1 2.948592 1_545
Hf11 Sb5 3.253947 1_555
Hf12 Sb0 2.841701 1_555
Hf12 Sb1 2.841701 1_444
Hf12 Sb6 2.998071 1_554
Hf12 Sb7 2.998071 1_445
Nb0 Sb2 2.859722 1_555
Nb0 Sb3 2.859722 1_555
Nb0 Sb5 2.981312 1_555
Nb0 Sb4 2.981312 1_555
