# generated using pymatgen
data_Ba6HgBiPb8
_symmetry_space_group_name_H-M   'P 1'
_cell_length_a   9.49327072
_cell_length_b   9.49326948
_cell_length_c   9.49327069
_cell_angle_alpha   120.14578801
_cell_angle_beta   120.14577843
_cell_angle_gamma   89.74767674
_symmetry_Int_Tables_number   1
_chemical_formula_structural   Ba6HgBiPb8
_chemical_formula_sum   'Ba6 Hg1 Bi1 Pb8'
_cell_volume   603.62881773
_cell_formula_units_Z   1
loop_
 _symmetry_equiv_pos_site_id
 _symmetry_equiv_pos_as_xyz
  1  'x, y, z'
loop_
 _atom_site_type_symbol
 _atom_site_label
 _atom_site_symmetry_multiplicity
 _atom_site_fract_x
 _atom_site_fract_y
 _atom_site_fract_z
 _atom_site_occupancy
  Ba  Ba0  1  0.24822450  0.24822450  0.00000000  1
  Ba  Ba1  1  0.75177550  0.75177550  1.00000000  1
  Ba  Ba2  1  0.15709416  0.66800400  0.82509917  1
  Ba  Ba3  1  0.84290584  0.33199600  0.17490083  1
  Ba  Ba4  1  0.66800400  0.84290584  0.51091084  1
  Ba  Ba5  1  0.33199600  0.15709416  0.48908916  1
  Hg  Hg0  1  0.50000000  0.50000000  0.00000000  1
  Bi  Bi0  1  0.00000000  0.00000000  0.00000000  1
  Pb  Pb0  1  0.82931950  0.33598758  0.78470489  1
  Pb  Pb1  1  0.17068050  0.66401242  0.21529511  1
  Pb  Pb2  1  0.55128269  0.04461360  0.21529511  1
  Pb  Pb3  1  0.33598758  0.55128269  0.50666808  1
  Pb  Pb4  1  0.95538640  0.17068050  0.50666808  1
  Pb  Pb5  1  0.44871731  0.95538640  0.78470489  1
  Pb  Pb6  1  0.66401242  0.44871731  0.49333192  1
  Pb  Pb7  1  0.04461360  0.82931950  0.49333192  1
loop_
_geom_bond_atom_site_label_1
_geom_bond_atom_site_label_2
_geom_bond_distance
_geom_bond_site_symmetry_2
Ba0 Bi0 3.339871 1_555
Ba0 Hg0 3.387650 1_555
Ba0 Pb5 3.698933 1_544
Ba0 Pb4 3.698938 1_454
Ba0 Pb1 3.698938 1_555
Ba0 Pb6 3.698939 1_555
Ba0 Pb7 3.768776 1_544
Ba0 Pb3 3.768777 1_555
Ba0 Pb0 3.768778 1_454
Ba0 Pb2 3.768785 1_555
Ba1 Bi0 3.339871 1_666
Ba1 Hg0 3.387650 1_556
Ba1 Pb2 3.698933 1_566
Ba1 Pb7 3.698938 1_656
Ba1 Pb0 3.698938 1_555
Ba1 Pb3 3.698939 1_555
Ba1 Pb4 3.768776 1_566
Ba1 Pb6 3.768777 1_555
Ba1 Pb1 3.768778 1_656
Ba1 Pb5 3.768785 1_555
Ba2 Bi0 3.479068 1_566
Ba2 Hg0 3.617017 1_556
Ba2 Pb1 3.660670 1_556
Ba2 Pb2 3.660675 1_566
Ba2 Pb6 3.854511 1_455
Ba2 Pb7 3.854519 1_555
Ba2 Pb4 3.876290 1_455
Ba2 Pb3 3.876300 1_555
Ba3 Bi0 3.479068 1_655
Ba3 Hg0 3.617017 1_555
Ba3 Pb0 3.660670 1_554
Ba3 Pb5 3.660675 1_544
Ba3 Pb3 3.854511 1_655
Ba3 Pb4 3.854519 1_555
Ba3 Pb7 3.876290 1_655
Ba3 Pb6 3.876300 1_555
Ba4 Bi0 3.479065 1_666
Ba4 Hg0 3.617025 1_555
Ba4 Pb6 3.660674 1_555
Ba4 Pb7 3.660674 1_655
Ba4 Pb5 3.854503 1_555
Ba4 Pb0 3.854512 1_565
Ba4 Pb1 3.876291 1_555
Ba4 Pb2 3.876291 1_565
Ba5 Bi0 3.479065 1_555
Ba5 Hg0 3.617025 1_556
Ba5 Pb3 3.660674 1_555
Ba5 Pb4 3.660674 1_455
Ba5 Pb2 3.854503 1_555
Ba5 Pb1 3.854512 1_545
Ba5 Pb0 3.876291 1_555
Ba5 Pb5 3.876291 1_545
Pb0 Pb6 3.139696 1_555
Pb0 Pb4 3.139704 1_555
Pb0 Pb1 3.302533 1_656
Pb1 Pb3 3.139696 1_555
Pb1 Pb7 3.139704 1_555
Pb2 Pb6 3.139704 1_555
Pb2 Pb4 3.139704 1_555
Pb2 Pb5 3.302540 1_544
Pb3 Pb5 3.139704 1_555
Pb3 Pb6 3.302532 1_555
Pb4 Pb7 3.302527 1_645
Pb5 Pb7 3.139704 1_555
