# generated using pymatgen
data_ZrTi3(PN3)4
_symmetry_space_group_name_H-M   'P 1'
_cell_length_a   6.57436045
_cell_length_b   6.57435944
_cell_length_c   5.34149811
_cell_angle_alpha   74.32134042
_cell_angle_beta   74.32134788
_cell_angle_gamma   80.74500295
_symmetry_Int_Tables_number   1
_chemical_formula_structural   ZrTi3(PN3)4
_chemical_formula_sum   'Zr1 Ti3 P4 N12'
_cell_volume   213.04856339
_cell_formula_units_Z   1
loop_
 _symmetry_equiv_pos_site_id
 _symmetry_equiv_pos_as_xyz
  1  'x, y, z'
loop_
 _atom_site_type_symbol
 _atom_site_label
 _atom_site_symmetry_multiplicity
 _atom_site_fract_x
 _atom_site_fract_y
 _atom_site_fract_z
 _atom_site_occupancy
  Zr  Zr0  1  0.71345103  0.28654897  0.75000000  1
  Ti  Ti0  1  0.89436859  0.10563141  0.25000000  1
  Ti  Ti1  1  0.28088264  0.71911736  0.25000000  1
  Ti  Ti2  1  0.10949118  0.89050882  0.75000000  1
  P  P0  1  0.20242023  0.37803758  0.71721787  1
  P  P1  1  0.37584504  0.20145462  0.22155138  1
  P  P2  1  0.79854538  0.62415496  0.27844862  1
  P  P3  1  0.62196242  0.79757977  0.78278213  1
  N  N0  1  0.36862674  0.32336227  0.91153400  1
  N  N1  1  0.02127766  0.21459399  0.84571174  1
  N  N2  1  0.98754287  0.78072969  0.15432378  1
  N  N3  1  0.31981203  0.37746218  0.40402449  1
  N  N4  1  0.62536880  0.12446396  0.17505695  1
  N  N5  1  0.37078502  0.86976555  0.84347517  1
  N  N6  1  0.87553604  0.37463120  0.32494305  1
  N  N7  1  0.62253782  0.68018797  0.09597551  1
  N  N8  1  0.78540601  0.97872234  0.65428826  1
  N  N9  1  0.13023445  0.62921498  0.65652483  1
  N  N10  1  0.21927031  0.01245713  0.34567622  1
  N  N11  1  0.67663773  0.63137326  0.58846600  1
loop_
_geom_bond_atom_site_label_1
_geom_bond_atom_site_label_2
_geom_bond_distance
_geom_bond_site_symmetry_2
N0 P0 1.638757 1_555
N0 P1 1.643078 1_556
N0 Zr0 2.195795 1_555
N1 P0 1.617147 1_555
N1 Ti0 2.062782 1_456
N1 Zr0 2.168253 1_455
N1 Ti2 2.273415 1_545
N2 P2 1.624926 1_555
N2 Ti2 2.058097 1_654
N2 Ti1 2.077013 1_655
N2 Ti0 2.280115 1_565
N3 P0 1.642855 1_555
N3 P1 1.644103 1_555
N3 Ti1 2.172032 1_555
N4 P1 1.609237 1_555
N4 Ti0 1.894357 1_555
N4 Zr0 2.192255 1_554
N5 P3 1.612125 1_555
N5 Ti2 1.889522 1_555
N5 Ti1 2.092295 1_556
N6 P2 1.609237 1_555
N6 Ti0 1.894357 1_555
N6 Zr0 2.192255 1_555
N7 P3 1.642855 1_554
N7 P2 1.644103 1_555
N7 Ti1 2.172033 1_555
N8 P3 1.617147 1_555
N8 Ti0 2.062782 1_565
N8 Zr0 2.168253 1_565
N8 Ti2 2.273416 1_655
N9 P0 1.612125 1_555
N9 Ti2 1.889522 1_555
N9 Ti1 2.092295 1_555
N10 P1 1.624926 1_555
N10 Ti2 2.058097 1_545
N10 Ti1 2.077012 1_545
N10 Ti0 2.280116 1_455
N11 P3 1.638757 1_555
N11 P2 1.643079 1_555
N11 Zr0 2.195795 1_555
