# generated using pymatgen
data_Ca10ReSiN10
_symmetry_space_group_name_H-M   'P 1'
_cell_length_a   6.80872777
_cell_length_b   6.80872679
_cell_length_c   8.79359131
_cell_angle_alpha   81.08835407
_cell_angle_beta   81.08835601
_cell_angle_gamma   59.78909944
_symmetry_Int_Tables_number   1
_chemical_formula_structural   Ca10ReSiN10
_chemical_formula_sum   'Ca10 Re1 Si1 N10'
_cell_volume   346.62153971
_cell_formula_units_Z   1
loop_
 _symmetry_equiv_pos_site_id
 _symmetry_equiv_pos_as_xyz
  1  'x, y, z'
loop_
 _atom_site_type_symbol
 _atom_site_label
 _atom_site_symmetry_multiplicity
 _atom_site_fract_x
 _atom_site_fract_y
 _atom_site_fract_z
 _atom_site_occupancy
  Ca  Ca0  1  0.88580103  0.35238954  0.83443438  1
  Ca  Ca1  1  0.87787933  0.87787933  0.82077075  1
  Ca  Ca2  1  0.73959529  0.73959529  0.54248429  1
  Ca  Ca3  1  0.74289990  0.24978640  0.51763459  1
  Ca  Ca4  1  0.62644498  0.13588723  0.13741143  1
  Ca  Ca5  1  0.35238954  0.88580103  0.83443438  1
  Ca  Ca6  1  0.24978640  0.74289990  0.51763459  1
  Ca  Ca7  1  0.24315144  0.24315144  0.50351378  1
  Ca  Ca8  1  0.14225088  0.14225088  0.15636246  1
  Ca  Ca9  1  0.13588723  0.62644498  0.13741143  1
  Re  Re0  1  0.63298874  0.63298874  0.22871743  1
  Si  Si0  1  0.36810792  0.36810792  0.76781227  1
  N  N0  1  0.90707632  0.47263015  0.31921236  1
  N  N1  1  0.99639276  0.99639276  0.01914452  1
  N  N2  1  0.68460091  0.68460091  0.02279873  1
  N  N3  1  0.52485305  0.52485305  0.70430886  1
  N  N4  1  0.47263015  0.90707632  0.31921236  1
  N  N5  1  0.53197637  0.09512890  0.67864639  1
  N  N6  1  0.47437063  0.47437063  0.28808141  1
  N  N7  1  0.31604545  0.31604545  0.96885302  1
  N  N8  1  0.06202879  0.06202879  0.64828018  1
  N  N9  1  0.09512890  0.53197637  0.67864639  1
loop_
_geom_bond_atom_site_label_1
_geom_bond_atom_site_label_2
_geom_bond_distance
_geom_bond_site_symmetry_2
Ca0 N9 2.456246 1_655
Ca0 N8 2.456564 1_655
Ca0 N3 2.505745 1_555
Ca0 N1 2.530378 1_546
Ca0 N2 2.660087 1_556
Ca1 N8 2.418367 1_665
Ca1 N1 2.423376 1_556
Ca1 N9 2.475885 1_655
Ca1 N5 2.475885 1_565
Ca1 N2 2.629430 1_556
Ca2 N5 2.494341 1_565
Ca2 N9 2.494341 1_655
Ca2 N0 2.604844 1_555
Ca2 N4 2.604845 1_555
Ca2 N3 2.676331 1_555
Ca3 N8 2.279994 1_655
Ca3 N5 2.367694 1_555
Ca3 N3 2.409479 1_555
Ca3 N0 2.622694 1_555
Ca3 N6 2.670086 1_555
Ca4 N1 2.327057 1_545
Ca4 N7 2.442651 1_554
Ca4 N6 2.501686 1_555
Ca4 N4 2.535995 1_545
Ca5 N5 2.456246 1_565
Ca5 N8 2.456565 1_565
Ca5 N3 2.505744 1_555
Ca5 N1 2.530379 1_456
Ca5 N2 2.660087 1_556
Ca6 N8 2.279994 1_565
Ca6 N9 2.367694 1_555
Ca6 N3 2.409479 1_555
Ca6 N4 2.622694 1_555
Ca6 N6 2.670086 1_555
Ca7 N8 2.284717 1_555
Ca7 N9 2.391145 1_555
Ca7 N5 2.391146 1_555
Ca7 N4 2.659001 1_545
Ca7 N0 2.659001 1_455
Ca7 N6 3.031820 1_555
Ca8 N1 2.272352 1_445
Ca8 N7 2.391536 1_554
Ca8 N0 2.517441 1_455
Ca8 N4 2.517441 1_545
Ca9 N1 2.327057 1_455
Ca9 N7 2.442651 1_554
Ca9 N6 2.501686 1_555
Ca9 N0 2.535995 1_455
N0 Re0 1.856984 1_555
N2 Re0 1.804393 1_555
N3 Si0 1.834877 1_555
N4 Re0 1.856984 1_555
N5 Si0 1.846000 1_555
N6 Re0 1.851948 1_555
N7 Si0 1.764884 1_555
N9 Si0 1.846000 1_555
