# generated using pymatgen
data_LiYSi2Pd
_symmetry_space_group_name_H-M   'P 1'
_cell_length_a   5.96724385
_cell_length_b   5.96724957
_cell_length_c   5.96760191
_cell_angle_alpha   140.92282908
_cell_angle_beta   140.92297391
_cell_angle_gamma   56.45390716
_symmetry_Int_Tables_number   1
_chemical_formula_structural   LiYSi2Pd
_chemical_formula_sum   'Li1 Y1 Si2 Pd1'
_cell_volume   83.76502473
_cell_formula_units_Z   1
loop_
 _symmetry_equiv_pos_site_id
 _symmetry_equiv_pos_as_xyz
  1  'x, y, z'
loop_
 _atom_site_type_symbol
 _atom_site_label
 _atom_site_symmetry_multiplicity
 _atom_site_fract_x
 _atom_site_fract_y
 _atom_site_fract_z
 _atom_site_occupancy
  Li  Li0  1  0.75001155  0.24998741  0.49999904  1
  Y  Y0  1  0.00007931  0.99991893  0.99999836  1
  Si  Si0  1  0.61012931  0.61030766  0.99987308  1
  Si  Si1  1  0.38969113  0.38986923  0.00012449  1
  Pd  Pd0  1  0.25008870  0.74991677  0.50000502  1
loop_
_geom_bond_atom_site_label_1
_geom_bond_atom_site_label_2
_geom_bond_distance
_geom_bond_site_symmetry_2
Li0 Si1 2.477993 1_656
Li0 Si0 2.478002 1_544
Li0 Si1 2.478405 1_555
Li0 Si0 2.478409 1_555
Li0 Pd0 2.821884 1_555
Li0 Pd0 2.822520 1_544
Li0 Pd0 2.822554 1_656
Li0 Pd0 2.822718 1_645
Li0 Y0 3.300281 1_544
Li0 Y0 3.300287 1_655
Li0 Y0 3.300831 1_645
Li0 Y0 3.300835 1_644
Si0 Si1 2.319287 1_556
Si0 Y0 3.050369 1_555
Si0 Y0 3.051041 1_544
Si0 Y0 3.051905 1_656
Si0 Y0 3.052140 1_645
Si1 Y0 3.050372 1_554
Si1 Y0 3.051039 1_655
Si1 Y0 3.051907 1_543
Si1 Y0 3.052137 1_644
Pd0 Si0 2.477509 1_555
Pd0 Si1 2.477530 1_555
Pd0 Si1 2.478877 1_566
Pd0 Si0 2.478893 1_454
Pd0 Y0 3.300420 1_655
Pd0 Y0 3.300449 1_544
Pd0 Y0 3.300678 1_555
Pd0 Y0 3.300687 1_554
