# generated using pymatgen
data_Zr5BeSb3
_symmetry_space_group_name_H-M   'P 1'
_cell_length_a   8.55737268
_cell_length_b   8.55737236
_cell_length_c   5.79889073
_cell_angle_alpha   90.00000000
_cell_angle_beta   90.00000000
_cell_angle_gamma   120.00000125
_symmetry_Int_Tables_number   1
_chemical_formula_structural   Zr5BeSb3
_chemical_formula_sum   'Zr10 Be2 Sb6'
_cell_volume   367.75317261
_cell_formula_units_Z   2
loop_
 _symmetry_equiv_pos_site_id
 _symmetry_equiv_pos_as_xyz
  1  'x, y, z'
loop_
 _atom_site_type_symbol
 _atom_site_label
 _atom_site_symmetry_multiplicity
 _atom_site_fract_x
 _atom_site_fract_y
 _atom_site_fract_z
 _atom_site_occupancy
  Zr  Zr0  1  0.74747071  0.74747071  0.75000000  1
  Zr  Zr1  1  0.25252929  0.00000000  0.75000000  1
  Zr  Zr2  1  0.00000000  0.25252929  0.75000000  1
  Zr  Zr3  1  0.25252929  0.25252929  0.25000000  1
  Zr  Zr4  1  0.74747071  0.00000000  0.25000000  1
  Zr  Zr5  1  1.00000000  0.74747071  0.25000000  1
  Zr  Zr6  1  0.66666700  0.33333300  0.00000000  1
  Zr  Zr7  1  0.33333300  0.66666700  0.00000000  1
  Zr  Zr8  1  0.33333300  0.66666700  0.50000000  1
  Zr  Zr9  1  0.66666700  0.33333300  0.50000000  1
  Be  Be0  1  0.00000000  0.00000000  0.00000000  1
  Be  Be1  1  0.00000000  0.00000000  0.50000000  1
  Sb  Sb0  1  0.39035177  0.39035177  0.75000000  1
  Sb  Sb1  1  0.60964823  0.00000000  0.75000000  1
  Sb  Sb2  1  0.00000000  0.60964823  0.75000000  1
  Sb  Sb3  1  0.60964823  0.60964823  0.25000000  1
  Sb  Sb4  1  0.39035177  0.00000000  0.25000000  1
  Sb  Sb5  1  0.00000000  0.39035177  0.25000000  1
loop_
_geom_bond_atom_site_label_1
_geom_bond_atom_site_label_2
_geom_bond_distance
_geom_bond_site_symmetry_2
Be0 Zr2 2.602222 1_554
Be0 Zr3 2.602222 1_555
Be0 Zr5 2.602222 1_445
Be0 Zr0 2.602222 1_444
Be0 Zr1 2.602222 1_554
Be0 Zr4 2.602222 1_455
Be1 Zr2 2.602222 1_555
Be1 Zr3 2.602222 1_555
Be1 Zr5 2.602222 1_445
Be1 Zr0 2.602222 1_445
Be1 Zr1 2.602222 1_555
Be1 Zr4 2.602222 1_455
Sb0 Zr1 2.934197 1_555
Sb0 Zr2 2.934197 1_555
Sb0 Zr8 3.014053 1_555
Sb0 Zr7 3.014053 1_556
Sb0 Zr9 3.014053 1_555
Sb0 Zr6 3.014053 1_556
Sb0 Zr0 3.056000 1_555
Sb0 Zr3 3.130138 1_555
Sb0 Zr3 3.130138 1_556
Sb1 Zr0 2.934197 1_545
Sb1 Zr2 2.934197 1_655
Sb1 Zr9 3.014045 1_555
Sb1 Zr6 3.014045 1_556
Sb1 Zr7 3.014048 1_546
Sb1 Zr8 3.014048 1_545
Sb1 Zr1 3.056000 1_555
Sb1 Zr4 3.130138 1_555
Sb1 Zr4 3.130138 1_556
Sb2 Zr1 2.934197 1_565
Sb2 Zr0 2.934197 1_455
Sb2 Zr7 3.014045 1_556
Sb2 Zr8 3.014045 1_555
Sb2 Zr9 3.014048 1_455
Sb2 Zr6 3.014048 1_456
Sb2 Zr2 3.056000 1_555
Sb2 Zr5 3.130138 1_455
Sb2 Zr5 3.130138 1_456
Sb3 Zr4 2.934197 1_565
Sb3 Zr5 2.934197 1_555
Sb3 Zr6 3.014053 1_555
Sb3 Zr9 3.014053 1_555
Sb3 Zr7 3.014053 1_555
Sb3 Zr8 3.014053 1_555
Sb3 Zr3 3.056000 1_555
Sb3 Zr0 3.130138 1_555
Sb3 Zr0 3.130138 1_554
Sb4 Zr3 2.934197 1_555
Sb4 Zr5 2.934197 1_445
Sb4 Zr8 3.014045 1_545
Sb4 Zr7 3.014045 1_545
Sb4 Zr9 3.014048 1_555
Sb4 Zr6 3.014048 1_555
Sb4 Zr4 3.056000 1_555
Sb4 Zr1 3.130138 1_555
Sb4 Zr1 3.130138 1_554
Sb5 Zr4 2.934197 1_455
Sb5 Zr3 2.934197 1_555
Sb5 Zr9 3.014045 1_455
Sb5 Zr6 3.014045 1_455
Sb5 Zr8 3.014048 1_555
Sb5 Zr7 3.014048 1_555
Sb5 Zr5 3.056000 1_455
Sb5 Zr2 3.130138 1_554
Sb5 Zr2 3.130138 1_555
