# generated using pymatgen
data_Yb3Si5
_symmetry_space_group_name_H-M   'P 1'
_cell_length_a   6.90922889
_cell_length_b   6.90922889
_cell_length_c   4.23870800
_cell_angle_alpha   90.00000000
_cell_angle_beta   90.00000000
_cell_angle_gamma   120.00000855
_symmetry_Int_Tables_number   1
_chemical_formula_structural   Yb3Si5
_chemical_formula_sum   'Yb3 Si5'
_cell_volume   175.23596915
_cell_formula_units_Z   1
loop_
 _symmetry_equiv_pos_site_id
 _symmetry_equiv_pos_as_xyz
  1  'x, y, z'
loop_
 _atom_site_type_symbol
 _atom_site_label
 _atom_site_symmetry_multiplicity
 _atom_site_fract_x
 _atom_site_fract_y
 _atom_site_fract_z
 _atom_site_occupancy
  Yb  Yb0  1  0.00000000  0.66406700  0.00000000  1
  Yb  Yb1  1  0.33593300  0.33593300  0.00000000  1
  Yb  Yb2  1  0.66406700  0.00000000  0.00000000  1
  Si  Si0  1  0.66666700  0.33333300  0.50000000  1
  Si  Si1  1  0.33333300  0.66666700  0.50000000  1
  Si  Si2  1  0.00000000  0.31773400  0.50000000  1
  Si  Si3  1  0.31773400  0.00000000  0.50000000  1
  Si  Si4  1  0.68226600  0.68226600  0.50000000  1
loop_
_geom_bond_atom_site_label_1
_geom_bond_atom_site_label_2
_geom_bond_distance
_geom_bond_site_symmetry_2
Si0 Si2 2.358810 1_655
Si0 Si3 2.358813 1_555
Si0 Si4 2.358817 1_555
Si0 Yb2 3.123261 1_556
Si0 Yb2 3.123261 1_555
Si0 Yb0 3.123264 1_655
Si0 Yb0 3.123264 1_656
Si0 Yb1 3.123266 1_556
Si0 Yb1 3.123266 1_555
Si1 Si3 2.358810 1_565
Si1 Si2 2.358813 1_555
Si1 Si4 2.358817 1_555
Si1 Yb0 3.123261 1_555
Si1 Yb0 3.123261 1_556
Si1 Yb2 3.123264 1_565
Si1 Yb2 3.123264 1_566
Si1 Yb1 3.123266 1_556
Si1 Yb1 3.123266 1_555
Si2 Yb2 3.098845 1_455
Si2 Yb2 3.098845 1_456
Si2 Yb1 3.098845 1_556
Si2 Yb1 3.098845 1_555
Si2 Yb0 3.196499 1_555
Si2 Yb0 3.196499 1_556
Si3 Yb0 3.098845 1_545
Si3 Yb0 3.098845 1_546
Si3 Yb1 3.098845 1_556
Si3 Yb1 3.098845 1_555
Si3 Yb2 3.196499 1_556
Si3 Yb2 3.196499 1_555
Si4 Yb2 3.098845 1_566
Si4 Yb2 3.098845 1_565
Si4 Yb0 3.098845 1_655
Si4 Yb0 3.098845 1_656
Si4 Yb1 3.196498 1_556
Si4 Yb1 3.196498 1_555
