# generated using pymatgen
data_Nb12Zn11GaN4
_symmetry_space_group_name_H-M   'P 1'
_cell_length_a   8.24854163
_cell_length_b   8.24854115
_cell_length_c   8.25187609
_cell_angle_alpha   60.01336436
_cell_angle_beta   60.01336628
_cell_angle_gamma   60.00000392
_symmetry_Int_Tables_number   1
_chemical_formula_structural   Nb12Zn11GaN4
_chemical_formula_sum   'Nb12 Zn11 Ga1 N4'
_cell_volume   397.08157361
_cell_formula_units_Z   1
loop_
 _symmetry_equiv_pos_site_id
 _symmetry_equiv_pos_as_xyz
  1  'x, y, z'
loop_
 _atom_site_type_symbol
 _atom_site_label
 _atom_site_symmetry_multiplicity
 _atom_site_fract_x
 _atom_site_fract_y
 _atom_site_fract_z
 _atom_site_occupancy
  Nb  Nb0  1  0.43325343  0.43325343  0.06613859  1
  Nb  Nb1  1  0.06735456  0.43325343  0.06613859  1
  Nb  Nb2  1  0.43325343  0.06735456  0.06613859  1
  Nb  Nb3  1  0.06605931  0.06605931  0.43330526  1
  Nb  Nb4  1  0.43457711  0.06605931  0.43330526  1
  Nb  Nb5  1  0.06605931  0.43457711  0.43330526  1
  Nb  Nb6  1  0.81623025  0.81623025  0.18373974  1
  Nb  Nb7  1  0.18380077  0.81623025  0.18373974  1
  Nb  Nb8  1  0.81623025  0.18380077  0.18373974  1
  Nb  Nb9  1  0.18293698  0.18293698  0.81669667  1
  Nb  Nb10  1  0.81743037  0.18293698  0.81669667  1
  Nb  Nb11  1  0.18293698  0.81743037  0.81669667  1
  Zn  Zn0  1  0.83199069  0.50284174  0.83317788  1
  Zn  Zn1  1  0.50284174  0.83199069  0.83317788  1
  Zn  Zn2  1  0.83199069  0.83199069  0.83317788  1
  Zn  Zn3  1  0.41777449  0.41777449  0.74667452  1
  Zn  Zn4  1  0.41805410  0.74653118  0.41735962  1
  Zn  Zn5  1  0.74653118  0.41805410  0.41735962  1
  Zn  Zn6  1  0.41805410  0.41805410  0.41735962  1
  Zn  Zn7  1  0.62492924  0.62492924  0.12521328  1
  Zn  Zn8  1  0.62310305  0.12674401  0.62705090  1
  Zn  Zn9  1  0.12674401  0.62310305  0.62705090  1
  Zn  Zn10  1  0.62310305  0.62310305  0.62705090  1
  Ga  Ga0  1  0.83334667  0.83334667  0.49996100  1
  N  N0  1  0.12570437  0.12570437  0.62288689  1
  N  N1  1  0.12531956  0.62507376  0.12428711  1
  N  N2  1  0.62507376  0.12531956  0.12428711  1
  N  N3  1  0.12531956  0.12531956  0.12428711  1
loop_
_geom_bond_atom_site_label_1
_geom_bond_atom_site_label_2
_geom_bond_distance
_geom_bond_site_symmetry_2
Nb0 Zn3 2.769699 1_554
Nb0 Zn6 2.778576 1_555
Nb0 Zn10 3.023530 1_554
Nb0 Zn7 3.045911 1_555
Nb0 Zn1 3.050784 1_554
Nb0 Zn0 3.050784 1_554
Nb1 Zn3 2.769690 1_554
Nb1 Zn5 2.778580 1_455
Nb1 Zn9 3.023528 1_554
Nb1 Zn7 3.045905 1_455
Nb1 Zn0 3.050777 1_454
Nb1 Zn2 3.050781 1_454
Nb2 Zn3 2.769690 1_554
Nb2 Zn4 2.778579 1_545
Nb2 Zn8 3.023528 1_554
Nb2 Zn7 3.045904 1_545
Nb2 Zn1 3.050777 1_544
Nb2 Zn2 3.050781 1_544
Nb3 Zn5 2.776012 1_455
Nb3 Zn4 2.776012 1_545
Nb3 Zn9 3.047682 1_545
Nb3 Zn8 3.047683 1_455
Nb3 Zn2 3.055264 1_445
Nb4 Zn6 2.776005 1_555
Nb4 Zn4 2.776021 1_545
Nb4 Zn10 3.047683 1_545
Nb4 Zn8 3.047683 1_555
Nb4 Zn1 3.055264 1_545
Nb5 Zn6 2.776005 1_555
Nb5 Zn5 2.776021 1_455
Nb5 Zn9 3.047683 1_555
Nb5 Zn10 3.047683 1_455
Nb5 Zn0 3.055264 1_455
Nb6 Zn2 2.768958 1_554
Nb6 Zn7 3.037532 1_555
Nb6 Zn5 3.047187 1_555
Nb6 Zn4 3.047187 1_555
Nb6 Zn10 3.056941 1_555
Nb7 Zn1 2.768958 1_554
Nb7 Zn7 3.037533 1_555
Nb7 Zn4 3.047173 1_555
Nb7 Zn6 3.047181 1_555
Nb7 Zn9 3.056941 1_555
Nb8 Zn0 2.768957 1_554
Nb8 Zn7 3.037532 1_555
Nb8 Zn5 3.047173 1_555
Nb8 Zn6 3.047181 1_555
Nb8 Zn8 3.056941 1_555
Nb9 Zn1 2.772703 1_545
Nb9 Zn0 2.772703 1_455
Nb9 Zn9 3.034581 1_555
Nb9 Zn8 3.034581 1_555
Nb9 Zn3 3.058256 1_555
Nb9 Zn6 3.060390 1_555
Nb10 Zn2 2.772703 1_545
Nb10 Zn0 2.772703 1_555
Nb10 Zn10 3.034581 1_555
Nb10 Zn8 3.034581 1_555
Nb10 Zn3 3.058277 1_555
Nb10 Zn5 3.060396 1_555
Nb11 Zn1 2.772703 1_555
Nb11 Zn2 2.772703 1_455
Nb11 Zn9 3.034581 1_555
Nb11 Zn10 3.034581 1_555
Nb11 Zn3 3.058277 1_555
Nb11 Zn4 3.060397 1_555
Zn0 Zn7 2.515987 1_556
Zn0 Zn9 2.525815 1_655
Zn0 Zn10 2.525815 1_555
Zn0 Zn2 2.714999 1_555
Zn0 Zn1 2.714999 1_555
Zn1 Zn7 2.515987 1_556
Zn1 Zn8 2.525814 1_565
Zn1 Zn10 2.525815 1_555
Zn1 Zn2 2.714999 1_555
Zn2 Zn7 2.515987 1_556
Zn2 Zn8 2.525815 1_565
Zn2 Zn9 2.525815 1_655
Zn3 Zn8 2.497484 1_555
Zn3 Zn9 2.497484 1_555
Zn3 Zn6 2.715162 1_555
Zn3 Zn4 2.715166 1_555
Zn3 Zn5 2.715166 1_555
Zn4 Zn7 2.514577 1_555
Zn4 Zn9 2.516697 1_555
Zn4 Zn6 2.709457 1_555
Zn4 Zn5 2.709457 1_555
Zn5 Zn7 2.514577 1_555
Zn5 Zn8 2.516696 1_555
Zn5 Zn6 2.709457 1_555
Zn6 Zn7 2.514586 1_555
Zn6 Zn8 2.516706 1_555
Zn6 Zn9 2.516706 1_555
Zn10 Zn3 2.497504 1_555
Zn10 Zn5 2.516710 1_555
Zn10 Zn4 2.516710 1_555
Ga0 Zn10 2.546815 1_555
Ga0 Zn8 2.546815 1_565
Ga0 Zn9 2.546815 1_655
Ga0 Zn0 2.738530 1_555
Ga0 Zn2 2.738530 1_555
Ga0 Zn1 2.738530 1_555
Ga0 Nb8 2.757787 1_565
Ga0 Nb6 2.757788 1_555
Ga0 Nb7 2.757788 1_655
Ga0 Nb3 3.040668 1_665
Ga0 Nb5 3.040668 1_655
Ga0 Nb4 3.040669 1_565
N0 Nb3 2.170763 1_555
N0 Nb5 2.170768 1_555
N0 Nb4 2.170769 1_555
N0 Nb11 2.176168 1_545
N0 Nb10 2.176168 1_455
N0 Nb9 2.176174 1_555
N1 Nb1 2.169578 1_555
N1 Nb0 2.169578 1_555
N1 Nb11 2.169895 1_554
N1 Nb5 2.174232 1_555
N1 Nb6 2.174843 1_455
N1 Nb7 2.174848 1_555
N2 Nb2 2.169578 1_555
N2 Nb0 2.169578 1_555
N2 Nb10 2.169895 1_554
N2 Nb4 2.174233 1_555
N2 Nb6 2.174842 1_545
N2 Nb8 2.174848 1_555
N3 Nb1 2.169578 1_555
N3 Nb2 2.169578 1_555
N3 Nb9 2.169893 1_554
N3 Nb3 2.174235 1_555
N3 Nb7 2.174840 1_545
N3 Nb8 2.174840 1_455
