# generated using pymatgen
data_Ca10Pd4Pb2F
_symmetry_space_group_name_H-M   'P 1'
_cell_length_a   9.07964949
_cell_length_b   9.07966700
_cell_length_c   9.07425932
_cell_angle_alpha   128.01314692
_cell_angle_beta   128.01294832
_cell_angle_gamma   76.69018213
_symmetry_Int_Tables_number   1
_chemical_formula_structural   Ca10Pd4Pb2F
_chemical_formula_sum   'Ca10 Pd4 Pb2 F1'
_cell_volume   450.78119696
_cell_formula_units_Z   1
loop_
 _symmetry_equiv_pos_site_id
 _symmetry_equiv_pos_as_xyz
  1  'x, y, z'
loop_
 _atom_site_type_symbol
 _atom_site_label
 _atom_site_symmetry_multiplicity
 _atom_site_fract_x
 _atom_site_fract_y
 _atom_site_fract_z
 _atom_site_occupancy
  Ca  Ca0  1  0.76622930  0.45022774  0.99984110  1
  Ca  Ca1  1  0.45022874  0.76623030  0.99984110  1
  Ca  Ca2  1  0.94969064  0.94969064  0.66870043  1
  Ca  Ca3  1  0.28089369  0.28089269  0.33129163  1
  Ca  Ca4  1  0.71900853  0.05037436  0.00013058  1
  Ca  Ca5  1  0.05037436  0.71900853  0.00013058  1
  Ca  Ca6  1  0.54993792  0.54993892  0.31656919  1
  Ca  Ca7  1  0.23335745  0.23335745  0.68345568  1
  Ca  Ca8  1  0.24977766  0.74983144  0.50000507  1
  Ca  Ca9  1  0.74983144  0.24977666  0.50000507  1
  Pd  Pd0  1  0.12116364  0.37389147  0.00012883  1
  Pd  Pd1  1  0.37389147  0.12116464  0.00013083  1
  Pd  Pd2  1  0.87915012  0.87915012  0.25291766  1
  Pd  Pd3  1  0.62590954  0.62590954  0.74679576  1
  Pb  Pb0  1  0.00034151  0.50027263  0.49999514  1
  Pb  Pb1  1  0.50027163  0.00034051  0.49999514  1
  F  F0  1  0.49994236  0.49994236  0.00006621  1
loop_
_geom_bond_atom_site_label_1
_geom_bond_atom_site_label_2
_geom_bond_distance
_geom_bond_site_symmetry_2
Ca0 F0 2.356252 1_556
Ca0 Pd3 3.067987 1_555
Ca0 Pd2 3.068340 1_556
Ca0 Pd0 3.135200 1_656
Ca0 Pb1 3.364664 1_555
Ca0 Pb0 3.368284 1_656
Ca1 F0 2.356265 1_556
Ca1 Pd3 3.067969 1_555
Ca1 Pd2 3.068330 1_556
Ca1 Pd1 3.135197 1_566
Ca1 Pb0 3.364667 1_555
Ca1 Pb1 3.368291 1_566
Ca2 Pd0 3.005036 1_666
Ca2 Pd1 3.005037 1_666
Ca2 Pd2 3.048203 1_555
Ca2 Pb0 3.393384 1_655
Ca2 Pb1 3.393390 1_565
Ca3 Pd1 3.006682 1_555
Ca3 Pd0 3.006710 1_555
Ca3 Pd3 3.043947 1_555
Ca3 Pb0 3.392788 1_555
Ca3 Pb1 3.392795 1_555
Ca4 Pd2 3.006069 1_545
Ca4 Pd3 3.007777 1_544
Ca4 Pd1 3.050388 1_555
Ca4 Pb0 3.390851 1_655
Ca4 Pb1 3.394387 1_554
Ca5 Pd2 3.006060 1_455
Ca5 Pd3 3.007777 1_454
Ca5 Pd0 3.050385 1_555
Ca5 Pb1 3.390847 1_565
Ca5 Pb0 3.394388 1_554
Ca6 F0 2.354562 1_555
Ca6 Pd0 3.065911 1_555
Ca6 Pd1 3.065911 1_555
Ca6 Pd3 3.127001 1_555
Ca6 Pb1 3.374805 1_565
Ca6 Pb0 3.374821 1_655
Ca7 F0 2.353485 1_556
Ca7 Pd0 3.068235 1_556
Ca7 Pd1 3.068252 1_556
Ca7 Pd2 3.124202 1_445
Ca7 Pb1 3.375089 1_555
Ca7 Pb0 3.375105 1_555
Ca8 Pd0 3.135448 1_555
Ca8 Pd1 3.136482 1_566
Ca8 Pd3 3.139856 1_555
Ca8 Pd2 3.140108 1_455
Ca8 Pb0 3.553308 1_555
Ca8 Pb1 3.567749 1_565
Ca9 Pd1 3.135449 1_555
Ca9 Pd0 3.136474 1_656
Ca9 Pd3 3.139854 1_555
Ca9 Pd2 3.140096 1_545
Ca9 Pb1 3.553315 1_555
Ca9 Pb0 3.567770 1_655
