# generated using pymatgen
data_CuSbPtS2
_symmetry_space_group_name_H-M   'P 1'
_cell_length_a   8.27931202
_cell_length_b   8.27931142
_cell_length_c   6.09229185
_cell_angle_alpha   90.00000000
_cell_angle_beta   90.00000000
_cell_angle_gamma   152.75272237
_symmetry_Int_Tables_number   1
_chemical_formula_structural   CuSbPtS2
_chemical_formula_sum   'Cu2 Sb2 Pt2 S4'
_cell_volume   191.19432747
_cell_formula_units_Z   2
loop_
 _symmetry_equiv_pos_site_id
 _symmetry_equiv_pos_as_xyz
  1  'x, y, z'
loop_
 _atom_site_type_symbol
 _atom_site_label
 _atom_site_symmetry_multiplicity
 _atom_site_fract_x
 _atom_site_fract_y
 _atom_site_fract_z
 _atom_site_occupancy
  Cu  Cu0  1  0.94857897  0.05142103  0.23011265  1
  Cu  Cu1  1  0.05142103  0.94857897  0.73011265  1
  Sb  Sb0  1  0.73284009  0.26715991  0.62998695  1
  Sb  Sb1  1  0.26715991  0.73284009  0.12998695  1
  Pt  Pt0  1  0.66956384  0.33043616  0.24057483  1
  Pt  Pt1  1  0.33043616  0.66956384  0.74057483  1
  S  S0  1  0.92064653  0.07935347  0.86247147  1
  S  S1  1  0.07935347  0.92064653  0.36247147  1
  S  S2  1  0.60972220  0.39027780  0.87085409  1
  S  S3  1  0.39027780  0.60972220  0.37085409  1
loop_
_geom_bond_atom_site_label_1
_geom_bond_atom_site_label_2
_geom_bond_distance
_geom_bond_site_symmetry_2
Cu0 S1 2.253714 1_645
Cu0 S0 2.284439 1_554
Cu0 S3 2.327765 1_655
Cu0 S3 2.327765 1_545
Cu1 S0 2.253714 1_465
Cu1 S1 2.284439 1_555
Cu1 S2 2.327765 1_455
Cu1 S2 2.327765 1_565
Pt0 S2 2.449676 1_554
Pt0 S1 2.542056 1_655
Pt0 S1 2.542056 1_545
Pt0 Sb0 2.581714 1_555
Pt0 Sb1 2.593007 1_545
Pt0 Sb1 2.593007 1_655
Pt1 S3 2.449676 1_555
Pt1 S0 2.542056 1_455
Pt1 S0 2.542056 1_565
Pt1 Sb1 2.581714 1_556
Pt1 Sb0 2.593007 1_565
Pt1 Sb0 2.593007 1_455
S2 Sb0 2.465547 1_555
S3 Sb1 2.465547 1_555
