# generated using pymatgen
data_Ta3Ti9(MnP4)2
_symmetry_space_group_name_H-M   'P 1'
_cell_length_a   7.34110975
_cell_length_b   7.34110846
_cell_length_c   13.52429833
_cell_angle_alpha   76.34367678
_cell_angle_beta   76.34367921
_cell_angle_gamma   26.86426692
_symmetry_Int_Tables_number   1
_chemical_formula_structural   Ta3Ti9(MnP4)2
_chemical_formula_sum   'Ta3 Ti9 Mn2 P8'
_cell_volume   319.50132902
_cell_formula_units_Z   1
loop_
 _symmetry_equiv_pos_site_id
 _symmetry_equiv_pos_as_xyz
  1  'x, y, z'
loop_
 _atom_site_type_symbol
 _atom_site_label
 _atom_site_symmetry_multiplicity
 _atom_site_fract_x
 _atom_site_fract_y
 _atom_site_fract_z
 _atom_site_occupancy
  Ta  Ta0  1  0.50000000  0.50000000  0.50000000  1
  Ta  Ta1  1  0.42521958  0.42521958  0.17609539  1
  Ta  Ta2  1  0.57478042  0.57478042  0.82390461  1
  Ti  Ti0  1  0.00000000  0.00000000  0.00000000  1
  Ti  Ti1  1  0.20979070  0.20979070  0.21026186  1
  Ti  Ti2  1  0.79020930  0.79020930  0.78973814  1
  Ti  Ti3  1  0.33982206  0.33982206  0.96829416  1
  Ti  Ti4  1  0.66017794  0.66017794  0.03170584  1
  Ti  Ti5  1  0.00246230  0.00246230  0.33595757  1
  Ti  Ti6  1  0.99753770  0.99753770  0.66404243  1
  Ti  Ti7  1  0.17740438  0.17740438  0.46176937  1
  Ti  Ti8  1  0.82259562  0.82259562  0.53823063  1
  Mn  Mn0  1  0.19665058  0.19665058  0.68705226  1
  Mn  Mn1  1  0.80334942  0.80334942  0.31294774  1
  P  P0  1  0.18064712  0.18064712  0.89142920  1
  P  P1  1  0.81935288  0.81935288  0.10857080  1
  P  P2  1  0.36899743  0.36899743  0.39088572  1
  P  P3  1  0.63100257  0.63100257  0.60911428  1
  P  P4  1  0.36479957  0.36479957  0.65871595  1
  P  P5  1  0.63520043  0.63520043  0.34128405  1
  P  P6  1  0.06284669  0.06284669  0.15240205  1
  P  P7  1  0.93715331  0.93715331  0.84759795  1
loop_
_geom_bond_atom_site_label_1
_geom_bond_atom_site_label_2
_geom_bond_distance
_geom_bond_site_symmetry_2
Mn0 P3 2.318982 1_545
Mn0 P3 2.318982 1_455
Mn0 P4 2.337991 1_555
Mn0 P0 2.717638 1_555
Mn1 P2 2.318982 1_565
Mn1 P2 2.318982 1_655
Mn1 P5 2.337991 1_555
Mn1 P1 2.717638 1_555
P0 Ti2 2.490548 1_455
P0 Ti2 2.490549 1_545
P0 Ti4 2.514636 1_546
P0 Ti4 2.514636 1_456
P0 Ta2 2.588034 1_545
P0 Ta2 2.588035 1_455
P0 Ti0 2.640488 1_556
P0 Ti3 2.719352 1_555
P1 Ti1 2.490548 1_655
P1 Ti1 2.490549 1_565
P1 Ti3 2.514636 1_564
P1 Ti3 2.514636 1_654
P1 Ta1 2.588034 1_565
P1 Ta1 2.588035 1_655
P1 Ti0 2.640488 1_665
P1 Ti4 2.719352 1_555
P2 Ti5 2.530844 1_565
P2 Ti5 2.530845 1_655
P2 Ti8 2.584000 1_545
P2 Ti8 2.584001 1_455
P2 Ta0 2.649114 1_555
P2 Ti7 2.670522 1_555
P2 Ta1 2.819705 1_555
P3 Ti6 2.530844 1_545
P3 Ti6 2.530845 1_455
P3 Ti7 2.584000 1_565
P3 Ti7 2.584001 1_655
P3 Ta0 2.649114 1_555
P3 Ti8 2.670522 1_555
P3 Ta2 2.819705 1_555
P4 Ti2 2.503247 1_545
P4 Ti2 2.503247 1_455
P4 Ta0 2.514624 1_555
P4 Ti8 2.530463 1_545
P4 Ti8 2.530463 1_455
P4 Ti6 2.563732 1_455
P4 Ti6 2.563733 1_545
P5 Ti1 2.503247 1_565
P5 Ti1 2.503247 1_655
P5 Ta0 2.514624 1_555
P5 Ti7 2.530463 1_565
P5 Ti7 2.530463 1_655
P5 Ti5 2.563732 1_655
P5 Ti5 2.563733 1_565
P6 Ti1 2.411015 1_555
P6 Ti5 2.422181 1_555
P6 Ti0 2.439630 1_555
P6 Ti4 2.530417 1_455
P6 Ti4 2.530417 1_545
P6 Ta1 2.562760 1_545
P6 Ta1 2.562761 1_455
P7 Ti2 2.411015 1_555
P7 Ti6 2.422181 1_555
P7 Ti0 2.439630 1_666
P7 Ti3 2.530417 1_655
P7 Ti3 2.530417 1_565
P7 Ta2 2.562760 1_565
P7 Ta2 2.562761 1_655
