# generated using pymatgen
data_ZnInBPt6
_symmetry_space_group_name_H-M   'P 1'
_cell_length_a   5.75124708
_cell_length_b   5.75124666
_cell_length_c   5.75124611
_cell_angle_alpha   59.99999192
_cell_angle_beta   59.99999435
_cell_angle_gamma   59.99999704
_symmetry_Int_Tables_number   1
_chemical_formula_structural   ZnInBPt6
_chemical_formula_sum   'Zn1 In1 B1 Pt6'
_cell_volume   134.51506321
_cell_formula_units_Z   1
loop_
 _symmetry_equiv_pos_site_id
 _symmetry_equiv_pos_as_xyz
  1  'x, y, z'
loop_
 _atom_site_type_symbol
 _atom_site_label
 _atom_site_symmetry_multiplicity
 _atom_site_fract_x
 _atom_site_fract_y
 _atom_site_fract_z
 _atom_site_occupancy
  Zn  Zn0  1  0.25000000  0.25000000  0.25000000  1
  In  In0  1  0.75000000  0.75000000  0.75000000  1
  B  B0  1  0.49999900  0.49999900  0.49999900  1
  Pt  Pt0  1  0.24338744  0.75661156  0.24338744  1
  Pt  Pt1  1  0.75661156  0.75661156  0.24338744  1
  Pt  Pt2  1  0.75661156  0.24338744  0.24338744  1
  Pt  Pt3  1  0.24338744  0.24338744  0.75661156  1
  Pt  Pt4  1  0.75661156  0.24338744  0.75661156  1
  Pt  Pt5  1  0.24338744  0.75661156  0.75661156  1
loop_
_geom_bond_atom_site_label_1
_geom_bond_atom_site_label_2
_geom_bond_distance
_geom_bond_site_symmetry_2
In0 Pt1 2.876120 1_556
In0 Pt4 2.876120 1_565
In0 Pt5 2.876121 1_655
In0 Pt2 2.876126 1_565
In0 Pt2 2.876126 1_556
In0 Pt0 2.876126 1_655
In0 Pt0 2.876126 1_556
In0 Pt3 2.876126 1_655
In0 Pt3 2.876126 1_565
In0 Pt1 2.876132 1_555
In0 Pt4 2.876132 1_555
In0 Pt5 2.876132 1_555
B0 Pt0 2.087148 1_555
B0 Pt2 2.087148 1_555
B0 Pt3 2.087148 1_555
B0 Pt5 2.087156 1_555
B0 Pt4 2.087156 1_555
B0 Pt1 2.087156 1_555
Pt0 Zn0 2.876120 1_555
Pt0 Zn0 2.876132 1_565
Pt1 Zn0 2.876126 1_655
Pt1 Zn0 2.876126 1_565
Pt2 Zn0 2.876121 1_555
Pt2 Zn0 2.876132 1_655
Pt3 Zn0 2.876120 1_555
Pt3 Zn0 2.876132 1_556
Pt4 Zn0 2.876126 1_655
Pt4 Zn0 2.876126 1_556
Pt5 Zn0 2.876126 1_565
Pt5 Zn0 2.876126 1_556
