# generated using pymatgen
data_Zr3AlOs2N
_symmetry_space_group_name_H-M   'P 1'
_cell_length_a   8.52881070
_cell_length_b   8.52881043
_cell_length_c   8.52881026
_cell_angle_alpha   59.99999683
_cell_angle_beta   59.99999790
_cell_angle_gamma   59.99999974
_symmetry_Int_Tables_number   1
_chemical_formula_structural   Zr3AlOs2N
_chemical_formula_sum   'Zr12 Al4 Os8 N4'
_cell_volume   438.68256380
_cell_formula_units_Z   4
loop_
 _symmetry_equiv_pos_site_id
 _symmetry_equiv_pos_as_xyz
  1  'x, y, z'
loop_
 _atom_site_type_symbol
 _atom_site_label
 _atom_site_symmetry_multiplicity
 _atom_site_fract_x
 _atom_site_fract_y
 _atom_site_fract_z
 _atom_site_occupancy
  Zr  Zr0  1  0.80707297  0.80707297  0.19292703  1
  Zr  Zr1  1  0.19292703  0.19292703  0.80707297  1
  Zr  Zr2  1  0.80707297  0.19292703  0.80707297  1
  Zr  Zr3  1  0.19292703  0.80707297  0.19292703  1
  Zr  Zr4  1  0.19292703  0.80707297  0.80707297  1
  Zr  Zr5  1  0.80707297  0.19292703  0.19292703  1
  Zr  Zr6  1  0.44292703  0.44292703  0.05707297  1
  Zr  Zr7  1  0.05707297  0.05707297  0.44292703  1
  Zr  Zr8  1  0.44292703  0.05707297  0.44292703  1
  Zr  Zr9  1  0.05707297  0.44292703  0.05707297  1
  Zr  Zr10  1  0.05707297  0.44292703  0.44292703  1
  Zr  Zr11  1  0.44292703  0.05707297  0.05707297  1
  Al  Al0  1  0.12500000  0.62500000  0.62500000  1
  Al  Al1  1  0.62500000  0.12500000  0.62500000  1
  Al  Al2  1  0.62500000  0.62500000  0.12500000  1
  Al  Al3  1  0.62500000  0.62500000  0.62500000  1
  Os  Os0  1  0.74791370  0.41736143  0.41736143  1
  Os  Os1  1  0.41736143  0.74791370  0.41736143  1
  Os  Os2  1  0.41736143  0.41736143  0.74791370  1
  Os  Os3  1  0.41736143  0.41736143  0.41736143  1
  Os  Os4  1  0.50208630  0.83263857  0.83263857  1
  Os  Os5  1  0.83263857  0.50208630  0.83263857  1
  Os  Os6  1  0.83263857  0.83263857  0.50208630  1
  Os  Os7  1  0.83263857  0.83263857  0.83263857  1
  N  N0  1  0.62500000  0.12500000  0.12500000  1
  N  N1  1  0.12500000  0.62500000  0.12500000  1
  N  N2  1  0.12500000  0.12500000  0.62500000  1
  N  N3  1  0.12500000  0.12500000  0.12500000  1
loop_
_geom_bond_atom_site_label_1
_geom_bond_atom_site_label_2
_geom_bond_distance
_geom_bond_site_symmetry_2
Al0 Os5 2.606593 1_455
Al0 Os1 2.606593 1_555
Al0 Os2 2.606593 1_555
Al0 Os6 2.606593 1_455
Al0 Os7 2.606602 1_455
Al0 Os3 2.606602 1_555
Al1 Os0 2.606593 1_555
Al1 Os4 2.606593 1_545
Al1 Os2 2.606593 1_555
Al1 Os6 2.606593 1_545
Al1 Os7 2.606602 1_545
Al1 Os3 2.606602 1_555
Al2 Os0 2.606593 1_555
Al2 Os4 2.606593 1_554
Al2 Os1 2.606593 1_555
Al2 Os5 2.606593 1_554
Al2 Os7 2.606602 1_554
Al2 Os3 2.606602 1_555
Al3 Os4 2.606607 1_555
Al3 Os0 2.606607 1_555
Al3 Os6 2.606607 1_555
Al3 Os2 2.606607 1_555
Al3 Os5 2.606607 1_555
Al3 Os1 2.606607 1_555
Os0 Os2 2.819218 1_555
Os0 Os1 2.819218 1_555
Os0 Os3 2.819218 1_555
Os0 Zr9 2.871401 1_655
Os0 Zr7 2.871401 1_655
Os0 Zr10 2.871410 1_655
Os0 Zr5 3.052045 1_555
Os0 Zr2 3.052059 1_555
Os0 Zr0 3.052059 1_555
Os1 Os2 2.819217 1_555
Os1 Os3 2.819218 1_555
Os1 Zr11 2.871400 1_565
Os1 Zr7 2.871401 1_565
Os1 Zr8 2.871410 1_565
Os1 Zr3 3.052045 1_555
Os1 Zr4 3.052059 1_555
Os1 Zr0 3.052060 1_555
Os2 Os3 2.819218 1_555
Os2 Zr11 2.871400 1_556
Os2 Zr9 2.871401 1_556
Os2 Zr6 2.871410 1_556
Os2 Zr1 3.052045 1_555
Os2 Zr4 3.052060 1_555
Os2 Zr2 3.052060 1_555
Os3 Zr6 2.871393 1_555
Os3 Zr8 2.871393 1_555
Os3 Zr10 2.871394 1_555
Os3 Zr1 3.052053 1_555
Os3 Zr3 3.052053 1_555
Os3 Zr5 3.052053 1_555
Os4 Os6 2.819218 1_555
Os4 Os5 2.819218 1_555
Os4 Os7 2.819218 1_555
Os4 Zr3 2.871401 1_556
Os4 Zr1 2.871401 1_565
Os4 Zr4 2.871410 1_555
Os4 Zr11 3.052045 1_566
Os4 Zr8 3.052059 1_565
Os4 Zr6 3.052059 1_556
Os5 Os6 2.819217 1_555
Os5 Os7 2.819218 1_555
Os5 Zr5 2.871400 1_556
Os5 Zr1 2.871401 1_655
Os5 Zr2 2.871410 1_555
Os5 Zr9 3.052045 1_656
Os5 Zr10 3.052059 1_655
Os5 Zr6 3.052060 1_556
Os6 Os7 2.819218 1_555
Os6 Zr5 2.871400 1_565
Os6 Zr3 2.871401 1_655
Os6 Zr0 2.871410 1_555
Os6 Zr7 3.052045 1_665
Os6 Zr10 3.052060 1_655
Os6 Zr8 3.052060 1_565
Os7 Zr0 2.871393 1_556
Os7 Zr2 2.871393 1_565
Os7 Zr4 2.871394 1_655
Os7 Zr7 3.052053 1_665
Os7 Zr9 3.052053 1_656
Os7 Zr11 3.052053 1_566
N0 Zr8 2.284196 1_555
N0 Zr2 2.284196 1_554
N0 Zr6 2.284196 1_555
N0 Zr0 2.284196 1_545
N0 Zr5 2.284196 1_555
N0 Zr11 2.284196 1_555
N1 Zr4 2.284196 1_554
N1 Zr10 2.284196 1_555
N1 Zr3 2.284196 1_555
N1 Zr9 2.284196 1_555
N1 Zr6 2.284196 1_555
N1 Zr0 2.284196 1_455
N2 Zr10 2.284196 1_555
N2 Zr4 2.284196 1_545
N2 Zr8 2.284196 1_555
N2 Zr2 2.284196 1_455
N2 Zr1 2.284196 1_555
N2 Zr7 2.284196 1_555
N3 Zr7 2.284196 1_555
N3 Zr1 2.284196 1_554
N3 Zr9 2.284196 1_555
N3 Zr3 2.284196 1_545
N3 Zr11 2.284196 1_555
N3 Zr5 2.284196 1_455
