# generated using pymatgen
data_Sc4GeAs5Rh7
_symmetry_space_group_name_H-M   'P 1'
_cell_length_a   7.05379528
_cell_length_b   7.05379430
_cell_length_c   7.05379549
_cell_angle_alpha   109.54950232
_cell_angle_beta   109.54949853
_cell_angle_gamma   109.31477729
_symmetry_Int_Tables_number   1
_chemical_formula_structural   Sc4GeAs5Rh7
_chemical_formula_sum   'Sc4 Ge1 As5 Rh7'
_cell_volume   270.17438493
_cell_formula_units_Z   1
loop_
 _symmetry_equiv_pos_site_id
 _symmetry_equiv_pos_as_xyz
  1  'x, y, z'
loop_
 _atom_site_type_symbol
 _atom_site_label
 _atom_site_symmetry_multiplicity
 _atom_site_fract_x
 _atom_site_fract_y
 _atom_site_fract_z
 _atom_site_occupancy
  Sc  Sc0  1  0.49929783  0.49929783  0.49928584  1
  Sc  Sc1  1  0.00001199  0.00001199  0.50071416  1
  Sc  Sc2  1  0.49929783  0.00001199  0.00000000  1
  Sc  Sc3  1  0.00001199  0.49929783  1.00000000  1
  Ge  Ge0  1  0.68497572  0.68497572  1.00000000  1
  As  As0  1  0.31997423  0.31997423  0.00000000  1
  As  As1  1  0.99874060  0.31310819  0.31436759  1
  As  As2  1  0.99874060  0.68437300  0.68563241  1
  As  As3  1  0.68437300  0.99874060  0.68563241  1
  As  As4  1  0.31310819  0.99874060  0.31436759  1
  Rh  Rh0  1  0.74921907  0.24921907  0.50000000  1
  Rh  Rh1  1  0.50115857  0.25038445  0.74922588  1
  Rh  Rh2  1  0.50115857  0.75193370  0.25077412  1
  Rh  Rh3  1  0.25038445  0.50115857  0.74922588  1
  Rh  Rh4  1  0.75193370  0.50115857  0.25077412  1
  Rh  Rh5  1  0.24921907  0.74921907  0.50000000  1
  Rh  Rh6  1  0.99839058  0.99839058  1.00000000  1
loop_
_geom_bond_atom_site_label_1
_geom_bond_atom_site_label_2
_geom_bond_distance
_geom_bond_site_symmetry_2
Ge0 Rh1 2.532636 1_555
Ge0 Rh3 2.532636 1_555
Ge0 Rh4 2.532637 1_556
Ge0 Rh2 2.532637 1_556
Ge0 Rh6 2.557697 1_555
Ge0 Sc2 2.928979 1_566
Ge0 Sc3 2.928979 1_655
Ge0 Sc1 2.928979 1_666
Ge0 Sc0 2.928979 1_555
As0 Rh3 2.519970 1_554
As0 Rh1 2.519970 1_554
As0 Rh2 2.519975 1_555
As0 Rh4 2.519975 1_555
As0 Rh6 2.624360 1_444
As0 Sc2 2.929563 1_555
As0 Sc3 2.929563 1_554
As0 Sc1 2.929563 1_554
As0 Sc0 2.929563 1_555
As1 Rh4 2.528787 1_555
As1 Rh3 2.528793 1_655
As1 Rh0 2.535371 1_555
As1 Rh5 2.541647 1_655
As1 Rh6 2.558058 1_544
As1 Sc1 2.924623 1_655
As1 Sc2 2.924623 1_555
As1 Sc3 2.932022 1_654
As1 Sc0 2.932022 1_655
As2 Rh4 2.528792 1_555
As2 Rh3 2.528793 1_655
As2 Rh0 2.535370 1_555
As2 Rh5 2.541647 1_655
As2 Rh6 2.558058 1_555
As2 Sc3 2.924623 1_655
As2 Sc0 2.924623 1_555
As2 Sc1 2.932022 1_665
As2 Sc2 2.932022 1_666
As3 Rh2 2.528792 1_555
As3 Rh1 2.528793 1_565
As3 Rh5 2.535371 1_555
As3 Rh0 2.541647 1_565
As3 Rh6 2.558058 1_555
As3 Sc0 2.924622 1_555
As3 Sc2 2.924623 1_566
As3 Sc3 2.932022 1_665
As3 Sc1 2.932022 1_665
As4 Rh2 2.528787 1_555
As4 Rh1 2.528793 1_565
As4 Rh5 2.535370 1_555
As4 Rh0 2.541647 1_565
As4 Rh6 2.558058 1_454
As4 Sc3 2.924622 1_554
As4 Sc1 2.924623 1_565
As4 Sc0 2.932022 1_565
As4 Sc2 2.932022 1_565
Rh0 Sc0 2.876922 1_555
Rh0 Sc1 2.876922 1_655
Rh0 Sc3 2.876922 1_655
Rh0 Sc2 2.876922 1_555
Rh1 Sc0 2.874474 1_555
Rh1 Sc3 2.874474 1_655
Rh1 Sc2 2.887763 1_556
Rh1 Sc1 2.887763 1_555
Rh2 Sc2 2.874468 1_565
Rh2 Sc1 2.874474 1_665
Rh2 Sc3 2.887763 1_554
Rh2 Sc0 2.887768 1_555
Rh3 Sc2 2.874474 1_566
Rh3 Sc0 2.874474 1_555
Rh3 Sc1 2.887762 1_555
Rh3 Sc3 2.887763 1_555
Rh4 Sc3 2.874469 1_654
Rh4 Sc1 2.874474 1_665
Rh4 Sc2 2.887762 1_555
Rh4 Sc0 2.887768 1_555
Rh5 Sc1 2.876922 1_565
Rh5 Sc0 2.876922 1_555
Rh5 Sc2 2.876922 1_566
Rh5 Sc3 2.876922 1_554
