# generated using pymatgen
data_Li14TaNbAs8
_symmetry_space_group_name_H-M   'P 1'
_cell_length_a   7.40631422
_cell_length_b   7.40631504
_cell_length_c   12.09925889
_cell_angle_alpha   65.86042259
_cell_angle_beta   65.86043035
_cell_angle_gamma   48.70385446
_symmetry_Int_Tables_number   1
_chemical_formula_structural   Li14TaNbAs8
_chemical_formula_sum   'Li14 Ta1 Nb1 As8'
_cell_volume   445.57000858
_cell_formula_units_Z   1
loop_
 _symmetry_equiv_pos_site_id
 _symmetry_equiv_pos_as_xyz
  1  'x, y, z'
loop_
 _atom_site_type_symbol
 _atom_site_label
 _atom_site_symmetry_multiplicity
 _atom_site_fract_x
 _atom_site_fract_y
 _atom_site_fract_z
 _atom_site_occupancy
  Li  Li0  1  0.51891338  0.98170675  0.87561731  1
  Li  Li1  1  0.75798024  0.24201976  0.75000000  1
  Li  Li2  1  0.00849455  0.47328794  0.87851881  1
  Li  Li3  1  0.01829325  0.48108662  0.62438269  1
  Li  Li4  1  0.25118775  0.75004408  0.49230085  1
  Li  Li5  1  0.52671206  0.99150545  0.62148119  1
  Li  Li6  1  0.47372249  0.00821936  0.37866705  1
  Li  Li7  1  0.74899108  0.25009758  0.50770478  1
  Li  Li8  1  0.98099451  0.51865110  0.37632642  1
  Li  Li9  1  0.24995592  0.74881225  0.00769915  1
  Li  Li10  1  0.99178064  0.52627751  0.12133295  1
  Li  Li11  1  0.48134890  0.01900549  0.12367358  1
  Li  Li12  1  0.24188340  0.75811660  0.25000000  1
  Li  Li13  1  0.74990242  0.25100892  0.99229522  1
  Ta  Ta0  1  0.25761820  0.74238180  0.75000000  1
  Nb  Nb0  1  0.74226614  0.25773386  0.25000000  1
  As  As0  1  0.36825674  0.39223892  0.92757995  1
  As  As1  1  0.90819007  0.85219429  0.69182372  1
  As  As2  1  0.14780571  0.09180993  0.80817628  1
  As  As3  1  0.39110913  0.36863327  0.42834976  1
  As  As4  1  0.60776108  0.63174326  0.57242005  1
  As  As5  1  0.85231004  0.90684342  0.19175668  1
  As  As6  1  0.09315658  0.14768996  0.30824332  1
  As  As7  1  0.63136673  0.60889087  0.07165024  1
loop_
_geom_bond_atom_site_label_1
_geom_bond_atom_site_label_2
_geom_bond_distance
_geom_bond_site_symmetry_2
As0 Ta0 2.467961 1_555
As0 Li2 2.589101 1_555
As0 Li1 2.613362 1_555
As0 Li13 2.633391 1_555
As0 Li9 2.650815 1_556
As0 Li10 2.675691 1_456
As0 Li11 2.679002 1_556
As0 Li0 2.719728 1_545
As1 Ta0 2.469436 1_655
As1 Li4 2.606652 1_655
As1 Li1 2.617460 1_565
As1 Li2 2.639261 1_655
As1 Li0 2.651040 1_555
As1 Li5 2.678126 1_555
As1 Li3 2.686470 1_655
As1 Li7 2.688877 1_565
As2 Ta0 2.469436 1_545
As2 Li9 2.606652 1_546
As2 Li1 2.617459 1_455
As2 Li5 2.639261 1_545
As2 Li3 2.651040 1_555
As2 Li2 2.678126 1_555
As2 Li0 2.686469 1_545
As2 Li13 2.688877 1_455
As3 Nb0 2.476895 1_555
As3 Li6 2.591708 1_555
As3 Li12 2.617337 1_555
As3 Li4 2.630675 1_555
As3 Li7 2.653096 1_555
As3 Li5 2.673784 1_545
As3 Li3 2.677166 1_555
As3 Li8 2.719197 1_455
As4 Ta0 2.467962 1_555
As4 Li5 2.589102 1_555
As4 Li1 2.613362 1_555
As4 Li7 2.633391 1_555
As4 Li4 2.650815 1_555
As4 Li6 2.675690 1_565
As4 Li8 2.679002 1_555
As4 Li3 2.719727 1_655
As5 Nb0 2.479345 1_565
As5 Li13 2.609728 1_564
As5 Li12 2.620714 1_655
As5 Li6 2.638878 1_565
As5 Li8 2.652174 1_555
As5 Li10 2.671902 1_555
As5 Li11 2.682562 1_565
As5 Li9 2.687113 1_655
As6 Nb0 2.479344 1_455
As6 Li7 2.609728 1_455
As6 Li12 2.620715 1_545
As6 Li10 2.638877 1_455
As6 Li11 2.652174 1_555
As6 Li6 2.671902 1_555
As6 Li8 2.682563 1_455
As6 Li4 2.687113 1_545
As7 Nb0 2.476895 1_555
As7 Li10 2.591708 1_555
As7 Li12 2.617337 1_555
As7 Li9 2.630674 1_555
As7 Li13 2.653097 1_554
As7 Li2 2.673784 1_654
As7 Li0 2.677166 1_554
As7 Li11 2.719197 1_565
