# generated using pymatgen
data_Cs4TiSnAs4
_symmetry_space_group_name_H-M   'P 1'
_cell_length_a   9.00540737
_cell_length_b   9.00540877
_cell_length_c   9.00540856
_cell_angle_alpha   137.13961771
_cell_angle_beta   127.57218232
_cell_angle_gamma   69.95404212
_symmetry_Int_Tables_number   1
_chemical_formula_structural   Cs4TiSnAs4
_chemical_formula_sum   'Cs4 Ti1 Sn1 As4'
_cell_volume   386.31094458
_cell_formula_units_Z   1
loop_
 _symmetry_equiv_pos_site_id
 _symmetry_equiv_pos_as_xyz
  1  'x, y, z'
loop_
 _atom_site_type_symbol
 _atom_site_label
 _atom_site_symmetry_multiplicity
 _atom_site_fract_x
 _atom_site_fract_y
 _atom_site_fract_z
 _atom_site_occupancy
  Cs  Cs0  1  0.99492820  0.14325695  0.83904200  1
  Cs  Cs1  1  0.00507180  0.84411380  0.14832875  1
  Cs  Cs2  1  0.69578505  0.35674305  0.35167125  1
  Cs  Cs3  1  0.30421495  0.65588620  0.66095800  1
  Ti  Ti0  1  0.50000000  0.25000000  0.75000000  1
  Sn  Sn0  1  0.50000000  0.75000000  0.25000000  1
  As  As0  1  0.23091206  0.38991527  0.81231657  1
  As  As1  1  0.76908794  0.58140351  0.15900220  1
  As  As2  1  0.42240131  0.11008473  0.34099780  1
  As  As3  1  0.57759869  0.91859649  0.68768343  1
loop_
_geom_bond_atom_site_label_1
_geom_bond_atom_site_label_2
_geom_bond_distance
_geom_bond_site_symmetry_2
As0 Ti0 2.510632 1_555
As0 Sn0 2.631398 1_556
As0 Cs1 3.603475 1_545
As0 Cs1 3.698662 1_556
As0 Cs0 3.761871 1_455
As0 Cs3 3.872718 1_555
As0 Cs2 3.913018 1_455
As0 Cs2 4.204632 1_556
As1 Ti0 2.510628 1_554
As1 Sn0 2.631403 1_555
As1 Cs0 3.603469 1_554
As1 Cs0 3.698667 1_565
As1 Cs1 3.761871 1_655
As1 Cs2 3.872718 1_555
As1 Cs3 3.913019 1_655
As1 Cs3 4.204633 1_554
As2 Ti0 2.510624 1_555
As2 Sn0 2.631395 1_545
As2 Cs3 3.603475 1_555
As2 Cs3 3.698668 1_544
As2 Cs2 3.761878 1_555
As2 Cs1 3.872712 1_545
As2 Cs0 3.913024 1_454
As2 Cs0 4.204630 1_555
As3 Ti0 2.510624 1_565
As3 Sn0 2.631395 1_555
As3 Cs2 3.603475 1_566
As3 Cs2 3.698668 1_555
As3 Cs3 3.761878 1_555
As3 Cs0 3.872712 1_565
As3 Cs1 3.913024 1_656
As3 Cs1 4.204630 1_555
