# generated using pymatgen
data_Cu6GeTe8W
_symmetry_space_group_name_H-M   'P 1'
_cell_length_a   8.40156447
_cell_length_b   8.40156482
_cell_length_c   13.76576301
_cell_angle_alpha   90.00000000
_cell_angle_beta   90.00000000
_cell_angle_gamma   119.99999481
_symmetry_Int_Tables_number   1
_chemical_formula_structural   Cu6GeTe8W
_chemical_formula_sum   'Cu12 Ge2 Te16 W2'
_cell_volume   841.49451532
_cell_formula_units_Z   2
loop_
 _symmetry_equiv_pos_site_id
 _symmetry_equiv_pos_as_xyz
  1  'x, y, z'
loop_
 _atom_site_type_symbol
 _atom_site_label
 _atom_site_symmetry_multiplicity
 _atom_site_fract_x
 _atom_site_fract_y
 _atom_site_fract_z
 _atom_site_occupancy
  Cu  Cu0  1  0.83155680  0.66311461  0.09980071  1
  Cu  Cu1  1  0.49715067  0.50284933  0.35805354  1
  Cu  Cu2  1  0.99430135  0.49715067  0.85805354  1
  Cu  Cu3  1  0.83155680  0.16844320  0.09980071  1
  Cu  Cu4  1  0.50284933  0.49715067  0.85805354  1
  Cu  Cu5  1  0.16844320  0.33688539  0.59980071  1
  Cu  Cu6  1  0.49715067  0.99430135  0.35805354  1
  Cu  Cu7  1  0.00569865  0.50284933  0.35805354  1
  Cu  Cu8  1  0.16844320  0.83155680  0.59980071  1
  Cu  Cu9  1  0.50284933  0.00569865  0.85805354  1
  Cu  Cu10  1  0.66311461  0.83155680  0.59980071  1
  Cu  Cu11  1  0.33688539  0.16844320  0.09980071  1
  Ge  Ge0  1  0.00000000  0.00000000  0.85231373  1
  Ge  Ge1  1  0.00000000  0.00000000  0.35231373  1
  Te  Te0  1  0.00000000  0.00000000  0.04275953  1
  Te  Te1  1  0.34245147  0.17122673  0.28892245  1
  Te  Te2  1  0.82877327  0.17122673  0.28892245  1
  Te  Te3  1  0.99605814  0.49802907  0.54262048  1
  Te  Te4  1  0.82877327  0.65754853  0.28892245  1
  Te  Te5  1  0.66666700  0.33333300  0.79202286  1
  Te  Te6  1  0.17122673  0.34245147  0.78892245  1
  Te  Te7  1  0.50197093  0.49802907  0.54262048  1
  Te  Te8  1  0.00000000  0.00000000  0.54275953  1
  Te  Te9  1  0.33333300  0.66666700  0.29202286  1
  Te  Te10  1  0.00394186  0.50197093  0.04262048  1
  Te  Te11  1  0.50197093  0.00394186  0.54262048  1
  Te  Te12  1  0.17122673  0.82877327  0.78892245  1
  Te  Te13  1  0.65754853  0.82877327  0.78892245  1
  Te  Te14  1  0.49802907  0.99605814  0.04262048  1
  Te  Te15  1  0.49802907  0.50197093  0.04262048  1
  W  W0  1  0.33333300  0.66666700  0.48071632  1
  W  W1  1  0.66666700  0.33333300  0.98071632  1
loop_
_geom_bond_atom_site_label_1
_geom_bond_atom_site_label_2
_geom_bond_distance
_geom_bond_site_symmetry_2
Cu0 Te15 2.551638 1_555
Cu0 Te10 2.551645 1_655
Cu0 Te0 2.573866 1_665
Cu0 Te4 2.603720 1_555
Cu0 W1 2.905989 1_554
Cu1 Te7 2.541673 1_555
Cu1 Te9 2.551279 1_555
Cu1 Te4 2.595440 1_555
Cu1 Te1 2.595440 1_555
Cu1 W0 2.921301 1_555
Cu2 Te10 2.541673 1_656
Cu2 Te5 2.551272 1_555
Cu2 Te12 2.595440 1_655
Cu2 Te6 2.595453 1_655
Cu2 W1 2.921295 1_555
Cu3 Te14 2.551638 1_545
Cu3 Te10 2.551638 1_655
Cu3 Te0 2.573873 1_655
Cu3 Te2 2.603720 1_555
Cu3 W1 2.905977 1_554
Cu4 Te15 2.541673 1_556
Cu4 Te5 2.551279 1_555
Cu4 Te6 2.595440 1_555
Cu4 Te13 2.595440 1_555
Cu4 W1 2.921301 1_555
Cu5 Te7 2.551638 1_555
Cu5 Te3 2.551645 1_455
Cu5 Te8 2.573866 1_555
Cu5 Te6 2.603720 1_555
Cu5 W0 2.905989 1_555
Cu6 Te11 2.541673 1_565
Cu6 Te9 2.551272 1_555
Cu6 Te2 2.595440 1_565
Cu6 Te1 2.595453 1_565
Cu6 W0 2.921295 1_555
Cu7 Te3 2.541673 1_455
Cu7 Te9 2.551272 1_555
Cu7 Te2 2.595440 1_455
Cu7 Te4 2.595453 1_455
Cu7 W0 2.921295 1_555
Cu8 Te11 2.551638 1_565
Cu8 Te3 2.551638 1_455
Cu8 Te8 2.573873 1_565
Cu8 Te12 2.603720 1_555
Cu8 W0 2.905977 1_555
Cu9 Te14 2.541673 1_546
Cu9 Te5 2.551272 1_555
Cu9 Te12 2.595440 1_545
Cu9 Te13 2.595453 1_545
Cu9 W1 2.921295 1_555
Cu10 Te7 2.551638 1_555
Cu10 Te11 2.551645 1_565
Cu10 Te8 2.573866 1_665
Cu10 Te13 2.603720 1_555
Cu10 W0 2.905989 1_555
Cu11 Te15 2.551638 1_555
Cu11 Te14 2.551645 1_545
Cu11 Te0 2.573866 1_555
Cu11 Te1 2.603720 1_555
Cu11 W1 2.905989 1_554
Ge0 Te0 2.621632 1_556
Ge0 Te13 2.640053 1_445
Ge0 Te6 2.640053 1_555
Ge0 Te12 2.640067 1_545
Ge1 Te8 2.621632 1_555
Ge1 Te1 2.640053 1_555
Ge1 Te4 2.640053 1_445
Ge1 Te2 2.640067 1_455
Te3 W0 2.597748 1_655
Te5 W1 2.597510 1_555
Te7 W0 2.597755 1_555
Te9 W0 2.597510 1_555
Te10 W1 2.597748 1_454
Te11 W0 2.597748 1_545
Te14 W1 2.597748 1_564
Te15 W1 2.597755 1_554
