# generated using pymatgen
data_CsZnGeAs2
_symmetry_space_group_name_H-M   'P 1'
_cell_length_a   8.73601890
_cell_length_b   8.43678728
_cell_length_c   8.61625176
_cell_angle_alpha   71.01045223
_cell_angle_beta   75.72198038
_cell_angle_gamma   72.90558636
_symmetry_Int_Tables_number   1
_chemical_formula_structural   CsZnGeAs2
_chemical_formula_sum   'Cs4 Zn4 Ge4 As8'
_cell_volume   565.89733264
_cell_formula_units_Z   4
loop_
 _symmetry_equiv_pos_site_id
 _symmetry_equiv_pos_as_xyz
  1  'x, y, z'
loop_
 _atom_site_type_symbol
 _atom_site_label
 _atom_site_symmetry_multiplicity
 _atom_site_fract_x
 _atom_site_fract_y
 _atom_site_fract_z
 _atom_site_occupancy
  Cs  Cs0  1  0.45465833  0.77016683  0.31647267  1
  Cs  Cs1  1  0.54534167  0.22983317  0.68352733  1
  Cs  Cs2  1  0.44624839  0.79655141  0.81733291  1
  Cs  Cs3  1  0.55375161  0.20344859  0.18266709  1
  Zn  Zn0  1  0.00333164  0.89334978  0.69433138  1
  Zn  Zn1  1  0.99666836  0.10665022  0.30566862  1
  Zn  Zn2  1  0.95787400  0.80809037  0.17349940  1
  Zn  Zn3  1  0.04212600  0.19190963  0.82650060  1
  Ge  Ge0  1  0.96270360  0.59335213  0.59275417  1
  Ge  Ge1  1  0.03729640  0.40664787  0.40724583  1
  Ge  Ge2  1  0.14535552  0.44969057  0.97719951  1
  Ge  Ge3  1  0.85464448  0.55030943  0.02280049  1
  As  As0  1  0.83052655  0.88307164  0.44302074  1
  As  As1  1  0.16947345  0.11692836  0.55697926  1
  As  As2  1  0.79616754  0.39393324  0.31544947  1
  As  As3  1  0.20383246  0.60606676  0.68455053  1
  As  As4  1  0.79719972  0.86717122  0.95395758  1
  As  As5  1  0.20280028  0.13282878  0.04604242  1
  As  As6  1  0.79041553  0.43564547  0.82425217  1
  As  As7  1  0.20958447  0.56435453  0.17574783  1
loop_
_geom_bond_atom_site_label_1
_geom_bond_atom_site_label_2
_geom_bond_distance
_geom_bond_site_symmetry_2
Ge0 Ge1 2.445813 1_655
Ge0 Zn0 3.069362 1_655
Ge1 Zn1 3.069362 1_455
Ge2 Ge3 2.404639 1_456
As0 Ge0 2.448604 1_555
As0 Zn2 2.509729 1_555
As0 Zn1 2.524825 1_565
As0 Zn0 2.964256 1_655
As0 Cs3 3.615483 1_565
As0 Cs1 4.021694 1_565
As0 Cs2 4.095414 1_555
As0 Cs0 4.142343 1_555
As1 Ge1 2.448604 1_555
As1 Zn3 2.509729 1_555
As1 Zn0 2.524825 1_545
As1 Zn1 2.964256 1_455
As1 Cs2 3.615483 1_545
As1 Cs0 4.021694 1_545
As1 Cs3 4.095414 1_555
As1 Cs1 4.142343 1_555
As2 Ge3 2.440404 1_555
As2 Ge1 2.466647 1_655
As2 Zn1 2.552246 1_555
As2 Cs1 3.503502 1_555
As2 Cs3 3.573374 1_555
As2 Cs0 3.662564 1_555
As3 Ge2 2.440404 1_555
As3 Ge0 2.466647 1_455
As3 Zn0 2.552246 1_555
As3 Cs0 3.503502 1_555
As3 Cs2 3.573374 1_555
As3 Cs1 3.662564 1_555
As4 Ge3 2.465028 1_556
As4 Zn2 2.466109 1_556
As4 Zn0 2.494201 1_655
As4 Cs1 3.682861 1_565
As4 Cs2 3.801474 1_555
As4 Cs3 3.805203 1_566
As4 Cs0 3.814005 1_556
As5 Ge2 2.465028 1_554
As5 Zn3 2.466109 1_554
As5 Zn1 2.494201 1_455
As5 Cs0 3.682861 1_545
As5 Cs3 3.801474 1_555
As5 Cs2 3.805203 1_544
As5 Cs1 3.814005 1_554
As6 Ge0 2.446145 1_555
As6 Ge3 2.459057 1_556
As6 Zn3 2.530031 1_655
As6 Cs2 3.592074 1_555
As6 Cs3 3.597747 1_556
As6 Cs1 3.728970 1_555
As7 Ge1 2.446145 1_555
As7 Ge2 2.459057 1_554
As7 Zn2 2.530031 1_455
As7 Cs3 3.592074 1_555
As7 Cs2 3.597747 1_554
As7 Cs0 3.728970 1_555
