# generated using pymatgen
data_SrGaFeCl8
_symmetry_space_group_name_H-M   'P 1'
_cell_length_a   7.08265281
_cell_length_b   7.22406581
_cell_length_c   12.76095222
_cell_angle_alpha   84.99104282
_cell_angle_beta   90.11719827
_cell_angle_gamma   89.99356677
_symmetry_Int_Tables_number   1
_chemical_formula_structural   SrGaFeCl8
_chemical_formula_sum   'Sr2 Ga2 Fe2 Cl16'
_cell_volume   650.42628461
_cell_formula_units_Z   2
loop_
 _symmetry_equiv_pos_site_id
 _symmetry_equiv_pos_as_xyz
  1  'x, y, z'
loop_
 _atom_site_type_symbol
 _atom_site_label
 _atom_site_symmetry_multiplicity
 _atom_site_fract_x
 _atom_site_fract_y
 _atom_site_fract_z
 _atom_site_occupancy
  Sr  Sr0  1  0.84524512  0.50098725  0.74807156  1
  Sr  Sr1  1  0.15475488  0.49901275  0.25192844  1
  Ga  Ga0  1  0.26272855  0.68395968  0.57579244  1
  Ga  Ga1  1  0.73727145  0.31604032  0.42420756  1
  Fe  Fe0  1  0.26328569  0.31784016  0.92230058  1
  Fe  Fe1  1  0.73671431  0.68215984  0.07769942  1
  Cl  Cl0  1  0.30274801  0.25260909  0.09264746  1
  Cl  Cl1  1  0.17877523  0.60898611  0.88540784  1
  Cl  Cl2  1  0.02773141  0.15896212  0.86145855  1
  Cl  Cl3  1  0.82338084  0.60585087  0.38914095  1
  Cl  Cl4  1  0.52683655  0.74750348  0.65384710  1
  Cl  Cl5  1  0.46805806  0.74212008  0.15365214  1
  Cl  Cl6  1  0.68991079  0.24959520  0.59254306  1
  Cl  Cl7  1  0.31008921  0.75040480  0.40745694  1
  Cl  Cl8  1  0.53194194  0.25787992  0.84634786  1
  Cl  Cl9  1  0.47316345  0.25249652  0.34615290  1
  Cl  Cl10  1  0.17661916  0.39414913  0.61085905  1
  Cl  Cl11  1  0.82122477  0.39101389  0.11459216  1
  Cl  Cl12  1  0.69725199  0.74739091  0.90735254  1
  Cl  Cl13  1  0.97226859  0.84103788  0.13854145  1
  Cl  Cl14  1  0.97156695  0.15592203  0.36577248  1
  Cl  Cl15  1  0.02843305  0.84407797  0.63422752  1
loop_
_geom_bond_atom_site_label_1
_geom_bond_atom_site_label_2
_geom_bond_distance
_geom_bond_site_symmetry_2
Cl0 Fe0 2.200941 1_554
Cl0 Sr1 3.006440 1_555
Cl1 Fe0 2.197558 1_555
Cl1 Sr0 3.079399 1_455
Cl2 Fe0 2.203236 1_555
Cl2 Sr0 3.039140 1_455
Cl3 Ga1 2.189340 1_555
Cl3 Sr1 3.069591 1_655
Cl4 Ga0 2.185027 1_555
Cl4 Sr0 3.052391 1_555
Cl5 Fe1 2.197350 1_555
Cl5 Sr1 3.034597 1_555
Cl6 Ga1 2.186385 1_555
Cl6 Sr0 3.011384 1_555
Cl7 Ga0 2.186385 1_555
Cl7 Sr1 3.011384 1_555
Cl8 Fe0 2.197350 1_555
Cl8 Sr0 3.034597 1_555
Cl9 Ga1 2.185027 1_555
Cl9 Sr1 3.052391 1_555
Cl10 Ga0 2.189340 1_555
Cl10 Sr0 3.069591 1_455
Cl11 Fe1 2.197558 1_555
Cl11 Sr1 3.079399 1_655
Cl12 Fe1 2.200941 1_556
Cl12 Sr0 3.006440 1_555
Cl13 Fe1 2.203236 1_555
Cl13 Sr1 3.039140 1_655
Cl14 Ga1 2.191572 1_555
Cl14 Sr1 3.052308 1_655
Cl15 Ga0 2.191572 1_555
Cl15 Sr0 3.052308 1_455
