# generated using pymatgen
data_Ta2Te2O9
_symmetry_space_group_name_H-M   'P 1'
_cell_length_a   7.54363828
_cell_length_b   7.14625741
_cell_length_c   14.73283662
_cell_angle_alpha   77.22765391
_cell_angle_beta   90.00000000
_cell_angle_gamma   90.00000000
_symmetry_Int_Tables_number   1
_chemical_formula_structural   Ta2Te2O9
_chemical_formula_sum   'Ta8 Te8 O36'
_cell_volume   774.57698978
_cell_formula_units_Z   4
loop_
 _symmetry_equiv_pos_site_id
 _symmetry_equiv_pos_as_xyz
  1  'x, y, z'
loop_
 _atom_site_type_symbol
 _atom_site_label
 _atom_site_symmetry_multiplicity
 _atom_site_fract_x
 _atom_site_fract_y
 _atom_site_fract_z
 _atom_site_occupancy
  Ta  Ta0  1  0.50395310  0.36729637  0.90111711  1
  Ta  Ta1  1  0.00395310  0.63270363  0.59888289  1
  Ta  Ta2  1  0.49604690  0.63270363  0.09888289  1
  Ta  Ta3  1  0.99604690  0.36729637  0.40111711  1
  Ta  Ta4  1  0.70082333  0.05532176  0.56721578  1
  Ta  Ta5  1  0.20082333  0.94467824  0.93278422  1
  Ta  Ta6  1  0.29917667  0.94467824  0.43278422  1
  Ta  Ta7  1  0.79917667  0.05532176  0.06721578  1
  Te  Te0  1  0.56105626  0.46261177  0.66609918  1
  Te  Te1  1  0.06105626  0.53738823  0.83390082  1
  Te  Te2  1  0.43894374  0.53738823  0.33390082  1
  Te  Te3  1  0.93894374  0.46261177  0.16609918  1
  Te  Te4  1  0.63688003  0.87173276  0.81592279  1
  Te  Te5  1  0.13688003  0.12826724  0.68407721  1
  Te  Te6  1  0.36311997  0.12826724  0.18407721  1
  Te  Te7  1  0.86311997  0.87173276  0.31592279  1
  O  O0  1  0.84317552  0.60226238  0.33219184  1
  O  O1  1  0.34317552  0.39773762  0.16780816  1
  O  O2  1  0.15682448  0.39773762  0.66780816  1
  O  O3  1  0.65682448  0.60226238  0.83219184  1
  O  O4  1  0.90182760  0.11585423  0.64738015  1
  O  O5  1  0.40182760  0.88414577  0.85261985  1
  O  O6  1  0.09817240  0.88414577  0.35261985  1
  O  O7  1  0.59817240  0.11585423  0.14738015  1
  O  O8  1  0.50000000  0.50000000  0.00000000  1
  O  O9  1  0.00000000  0.50000000  0.50000000  1
  O  O10  1  0.59132994  0.90529120  0.68861998  1
  O  O11  1  0.09132994  0.09470880  0.81138002  1
  O  O12  1  0.40867006  0.09470880  0.31138002  1
  O  O13  1  0.90867006  0.90529120  0.18861998  1
  O  O14  1  0.69782109  0.20970238  0.95558656  1
  O  O15  1  0.19782109  0.79029762  0.54441344  1
  O  O16  1  0.30217891  0.79029762  0.04441344  1
  O  O17  1  0.80217891  0.20970238  0.45558656  1
  O  O18  1  0.30617804  0.51817785  0.82873907  1
  O  O19  1  0.80617804  0.48182215  0.67126093  1
  O  O20  1  0.00000000  -0.00000000  0.00000000  1
  O  O21  1  0.50000000  -0.00000000  0.50000000  1
  O  O22  1  0.93707395  0.28597191  0.08967086  1
  O  O23  1  0.43707395  0.71402809  0.41032914  1
  O  O24  1  0.06292605  0.71402809  0.91032914  1
  O  O25  1  0.56292605  0.28597191  0.58967086  1
  O  O26  1  0.66923534  0.82718137  0.05214023  1
  O  O27  1  0.16923534  0.17281863  0.44785977  1
  O  O28  1  0.33076466  0.17281863  0.94785977  1
  O  O29  1  0.83076466  0.82718137  0.55214023  1
  O  O30  1  0.95250702  0.27700719  0.27931744  1
  O  O31  1  0.45250702  0.72299281  0.22068256  1
  O  O32  1  0.04749298  0.72299281  0.72068256  1
  O  O33  1  0.54749298  0.27700719  0.77931744  1
  O  O34  1  0.19382196  0.51817785  0.32873907  1
  O  O35  1  0.69382196  0.48182215  0.17126093  1
loop_
_geom_bond_atom_site_label_1
_geom_bond_atom_site_label_2
_geom_bond_distance
_geom_bond_site_symmetry_2
O0 Te7 1.893235 1_555
O0 Ta3 2.103950 1_555
O1 Te6 1.893235 1_555
O1 Ta2 2.103950 1_555
O2 Te5 1.893235 1_555
O2 Ta1 2.103950 1_555
O3 Te4 1.893235 1_555
O3 Ta0 2.103950 1_555
O4 Te5 1.861570 1_655
O4 Ta4 2.026592 1_555
O5 Te4 1.861570 1_555
O5 Ta5 2.026592 1_555
O6 Te7 1.861570 1_455
O6 Ta6 2.026592 1_555
O7 Te6 1.861570 1_555
O7 Ta7 2.026592 1_555
O8 Ta0 1.906156 1_554
O8 Ta2 1.906156 1_555
O9 Ta3 1.906156 1_455
O9 Ta1 1.906156 1_555
O10 Te4 1.869312 1_555
O10 Ta4 2.045247 1_565
O11 Te5 1.869312 1_555
O11 Ta5 2.045247 1_545
O12 Te6 1.869312 1_555
O12 Ta6 2.045247 1_545
O13 Te7 1.869312 1_555
O13 Ta7 2.045247 1_565
O14 Ta0 1.910901 1_555
O14 Ta7 1.924643 1_556
O15 Ta1 1.910901 1_555
O15 Ta6 1.924643 1_555
O16 Ta2 1.910901 1_555
O16 Ta5 1.924643 1_554
O17 Ta3 1.910901 1_555
O17 Ta4 1.924643 1_555
O18 Te1 1.857001 1_555
O18 Ta0 2.004292 1_555
O19 Te0 1.857001 1_555
O19 Ta1 2.004292 1_655
O20 Ta5 1.898708 1_544
O20 Ta7 1.898708 1_455
O21 Ta6 1.898708 1_545
O21 Ta4 1.898708 1_555
O22 Te3 1.868152 1_555
O22 Ta7 2.037035 1_555
O23 Te2 1.868152 1_555
O23 Ta6 2.037035 1_555
O24 Te1 1.868152 1_555
O24 Ta5 2.037035 1_555
O25 Te0 1.868152 1_555
O25 Ta4 2.037035 1_555
O26 Ta2 1.920792 1_555
O26 Ta7 1.956612 1_565
O27 Ta3 1.920792 1_455
O27 Ta6 1.956612 1_545
O28 Ta0 1.920792 1_555
O28 Ta5 1.956612 1_545
O29 Ta1 1.920792 1_655
O29 Ta4 1.956612 1_565
O30 Te3 1.890455 1_555
O30 Ta3 2.063059 1_555
O31 Te2 1.890455 1_555
O31 Ta2 2.063059 1_555
O32 Te1 1.890455 1_555
O32 Ta1 2.063059 1_555
O33 Te0 1.890455 1_555
O33 Ta0 2.063059 1_555
O34 Te2 1.857001 1_555
O34 Ta3 2.004292 1_455
O35 Te3 1.857001 1_555
O35 Ta2 2.004292 1_555
