# generated using pymatgen
data_Rb2Mn(BrCl)2
_symmetry_space_group_name_H-M   'P 1'
_cell_length_a   9.21041056
_cell_length_b   9.21041027
_cell_length_c   7.17695998
_cell_angle_alpha   90.00000000
_cell_angle_beta   90.00000000
_cell_angle_gamma   134.14310240
_symmetry_Int_Tables_number   1
_chemical_formula_structural   Rb2Mn(BrCl)2
_chemical_formula_sum   'Rb4 Mn2 Br4 Cl4'
_cell_volume   436.90043604
_cell_formula_units_Z   2
loop_
 _symmetry_equiv_pos_site_id
 _symmetry_equiv_pos_as_xyz
  1  'x, y, z'
loop_
 _atom_site_type_symbol
 _atom_site_label
 _atom_site_symmetry_multiplicity
 _atom_site_fract_x
 _atom_site_fract_y
 _atom_site_fract_z
 _atom_site_occupancy
  Rb  Rb0  1  0.13723580  0.86276420  0.50000000  1
  Rb  Rb1  1  0.63723580  0.36276420  0.00000000  1
  Rb  Rb2  1  0.86276420  0.13723580  0.50000000  1
  Rb  Rb3  1  0.36276420  0.63723580  0.00000000  1
  Mn  Mn0  1  0.50000000  0.50000000  0.50000000  1
  Mn  Mn1  1  0.00000000  0.00000000  0.00000000  1
  Br  Br0  1  0.34140035  0.65859965  0.50000000  1
  Br  Br1  1  0.84140035  0.15859965  0.00000000  1
  Br  Br2  1  0.65859965  0.34140035  0.50000000  1
  Br  Br3  1  0.15859965  0.84140035  0.00000000  1
  Cl  Cl0  1  0.25013080  0.25013080  0.24958428  1
  Cl  Cl1  1  0.74986920  0.74986920  0.75041572  1
  Cl  Cl2  1  0.24986920  0.24986920  0.74958428  1
  Cl  Cl3  1  0.75013080  0.75013080  0.25041572  1
loop_
_geom_bond_atom_site_label_1
_geom_bond_atom_site_label_2
_geom_bond_distance
_geom_bond_site_symmetry_2
Br0 Mn0 2.690711 1_555
Br0 Rb0 3.463739 1_555
Br0 Rb2 3.606463 1_455
Br0 Rb2 3.606463 1_565
Br0 Rb3 3.606738 1_556
Br0 Rb3 3.606738 1_555
Br1 Mn1 2.690711 1_655
Br1 Rb1 3.463739 1_555
Br1 Rb3 3.606463 1_545
Br1 Rb3 3.606463 1_655
Br1 Rb2 3.606738 1_554
Br1 Rb2 3.606738 1_555
Br2 Mn0 2.690711 1_555
Br2 Rb2 3.463739 1_555
Br2 Rb0 3.606463 1_655
Br2 Rb0 3.606463 1_545
Br2 Rb1 3.606738 1_555
Br2 Rb1 3.606738 1_556
Br3 Mn1 2.690711 1_565
Br3 Rb3 3.463739 1_555
Br3 Rb1 3.606463 1_565
Br3 Rb1 3.606463 1_455
Br3 Rb0 3.606738 1_554
Br3 Rb0 3.606738 1_555
Cl0 Mn1 2.535896 1_555
Cl0 Mn0 2.538788 1_555
Cl0 Rb3 3.441635 1_555
Cl0 Rb1 3.441635 1_555
Cl0 Rb0 3.445722 1_545
Cl0 Rb2 3.445722 1_455
Cl1 Mn1 2.535896 1_666
Cl1 Mn0 2.538788 1_555
Cl1 Rb1 3.441635 1_556
Cl1 Rb3 3.441635 1_556
Cl1 Rb2 3.445722 1_565
Cl1 Rb0 3.445722 1_655
Cl2 Mn0 2.535896 1_555
Cl2 Mn1 2.538788 1_556
Cl2 Rb0 3.441635 1_545
Cl2 Rb2 3.441635 1_455
Cl2 Rb3 3.445722 1_556
Cl2 Rb1 3.445722 1_556
Cl3 Mn0 2.535896 1_555
Cl3 Mn1 2.538788 1_665
Cl3 Rb2 3.441635 1_565
Cl3 Rb0 3.441635 1_655
Cl3 Rb1 3.445722 1_555
Cl3 Rb3 3.445722 1_555
