# generated using pymatgen
data_Lu6Zn23Si
_symmetry_space_group_name_H-M   'P 1'
_cell_length_a   8.85496933
_cell_length_b   8.85496918
_cell_length_c   8.85496906
_cell_angle_alpha   60.00000041
_cell_angle_beta   60.00000100
_cell_angle_gamma   60.00000215
_symmetry_Int_Tables_number   1
_chemical_formula_structural   Lu6Zn23Si
_chemical_formula_sum   'Lu6 Zn23 Si1'
_cell_volume   490.96007583
_cell_formula_units_Z   1
loop_
 _symmetry_equiv_pos_site_id
 _symmetry_equiv_pos_as_xyz
  1  'x, y, z'
loop_
 _atom_site_type_symbol
 _atom_site_label
 _atom_site_symmetry_multiplicity
 _atom_site_fract_x
 _atom_site_fract_y
 _atom_site_fract_z
 _atom_site_occupancy
  Lu  Lu0  1  0.71398055  0.28601945  0.28601945  1
  Lu  Lu1  1  0.71398055  0.28601945  0.71398055  1
  Lu  Lu2  1  0.71398055  0.71398055  0.28601945  1
  Lu  Lu3  1  0.28601945  0.71398055  0.71398055  1
  Lu  Lu4  1  0.28601945  0.71398055  0.28601945  1
  Lu  Lu5  1  0.28601945  0.28601945  0.71398055  1
  Zn  Zn0  1  0.62603127  0.12465658  0.12465658  1
  Zn  Zn1  1  0.12465658  0.62603127  0.12465658  1
  Zn  Zn2  1  0.12465658  0.12465658  0.62603127  1
  Zn  Zn3  1  0.12465658  0.12465658  0.12465658  1
  Zn  Zn4  1  0.37396873  0.87534342  0.87534342  1
  Zn  Zn5  1  0.87534342  0.37396873  0.87534342  1
  Zn  Zn6  1  0.87534342  0.87534342  0.37396873  1
  Zn  Zn7  1  0.87534342  0.87534342  0.87534342  1
  Zn  Zn8  1  0.50000000  0.00000000  0.00000000  1
  Zn  Zn9  1  0.50000000  0.00000000  0.50000000  1
  Zn  Zn10  1  0.50000000  0.50000000  0.00000000  1
  Zn  Zn11  1  0.00000000  0.50000000  0.50000000  1
  Zn  Zn12  1  0.00000000  0.50000000  0.00000000  1
  Zn  Zn13  1  0.00000000  0.00000000  0.50000000  1
  Zn  Zn14  1  0.00000000  0.00000000  0.00000000  1
  Zn  Zn15  1  0.01005701  0.32998100  0.32998100  1
  Zn  Zn16  1  0.32998100  0.01005701  0.32998100  1
  Zn  Zn17  1  0.32998100  0.32998100  0.01005701  1
  Zn  Zn18  1  0.32998100  0.32998100  0.32998100  1
  Zn  Zn19  1  0.98994299  0.67001900  0.67001900  1
  Zn  Zn20  1  0.67001900  0.98994299  0.67001900  1
  Zn  Zn21  1  0.67001900  0.67001900  0.98994299  1
  Zn  Zn22  1  0.67001900  0.67001900  0.67001900  1
  Si  Si0  1  0.50000000  0.50000000  0.50000000  1
loop_
_geom_bond_atom_site_label_1
_geom_bond_atom_site_label_2
_geom_bond_distance
_geom_bond_site_symmetry_2
Lu0 Si0 2.679639 1_555
Lu0 Zn0 2.992829 1_555
Lu0 Zn3 2.992836 1_655
Lu0 Zn5 2.992836 1_554
Lu0 Zn6 2.992836 1_545
Lu0 Zn20 3.060940 1_545
Lu0 Zn21 3.060940 1_554
Lu0 Zn15 3.060940 1_655
Lu0 Zn18 3.060940 1_555
Lu0 Zn9 3.163032 1_555
Lu0 Zn12 3.163032 1_655
Lu0 Zn10 3.163032 1_555
Lu0 Zn13 3.163032 1_655
Lu1 Si0 2.679639 1_555
Lu1 Zn5 2.992829 1_555
Lu1 Zn7 2.992836 1_545
Lu1 Zn0 2.992836 1_556
Lu1 Zn2 2.992837 1_655
Lu1 Zn20 3.060940 1_545
Lu1 Zn22 3.060940 1_555
Lu1 Zn15 3.060940 1_655
Lu1 Zn17 3.060940 1_556
Lu1 Zn8 3.163032 1_556
Lu1 Zn11 3.163032 1_655
Lu1 Zn10 3.163032 1_556
Lu1 Zn13 3.163032 1_655
Lu2 Si0 2.679639 1_555
Lu2 Zn6 2.992829 1_555
Lu2 Zn7 2.992835 1_554
Lu2 Zn0 2.992836 1_565
Lu2 Zn1 2.992837 1_655
Lu2 Zn21 3.060940 1_554
Lu2 Zn22 3.060940 1_555
Lu2 Zn15 3.060940 1_655
Lu2 Zn16 3.060940 1_565
Lu2 Zn8 3.163032 1_565
Lu2 Zn9 3.163032 1_565
Lu2 Zn12 3.163032 1_655
Lu2 Zn11 3.163032 1_655
Lu3 Si0 2.679639 1_555
Lu3 Zn4 2.992829 1_555
Lu3 Zn7 2.992836 1_455
Lu3 Zn1 2.992836 1_556
Lu3 Zn2 2.992836 1_565
Lu3 Zn16 3.060940 1_565
Lu3 Zn17 3.060940 1_556
Lu3 Zn19 3.060940 1_455
Lu3 Zn22 3.060940 1_555
Lu3 Zn9 3.163032 1_565
Lu3 Zn12 3.163032 1_556
Lu3 Zn10 3.163032 1_556
Lu3 Zn13 3.163032 1_565
Lu4 Si0 2.679639 1_555
Lu4 Zn1 2.992829 1_555
Lu4 Zn3 2.992836 1_565
Lu4 Zn4 2.992836 1_554
Lu4 Zn6 2.992837 1_455
Lu4 Zn16 3.060940 1_565
Lu4 Zn18 3.060940 1_555
Lu4 Zn19 3.060940 1_455
Lu4 Zn21 3.060940 1_554
Lu4 Zn8 3.163032 1_565
Lu4 Zn11 3.163032 1_555
Lu4 Zn10 3.163032 1_555
Lu4 Zn13 3.163032 1_565
Lu5 Si0 2.679639 1_555
Lu5 Zn2 2.992829 1_555
Lu5 Zn3 2.992835 1_556
Lu5 Zn4 2.992836 1_545
Lu5 Zn5 2.992837 1_455
Lu5 Zn17 3.060940 1_556
Lu5 Zn18 3.060940 1_555
Lu5 Zn19 3.060940 1_455
Lu5 Zn20 3.060940 1_545
Lu5 Zn8 3.163032 1_556
Lu5 Zn9 3.163032 1_555
Lu5 Zn12 3.163032 1_556
Lu5 Zn11 3.163032 1_555
Zn0 Zn18 2.693824 1_555
Zn0 Zn16 2.693829 1_555
Zn0 Zn17 2.693829 1_555
Zn0 Zn14 2.703813 1_655
Zn0 Zn9 2.713762 1_555
Zn0 Zn10 2.713762 1_555
Zn0 Zn8 2.713769 1_555
Zn1 Zn18 2.693824 1_555
Zn1 Zn15 2.693829 1_555
Zn1 Zn17 2.693829 1_555
Zn1 Zn14 2.703813 1_565
Zn1 Zn11 2.713762 1_555
Zn1 Zn10 2.713762 1_555
Zn1 Zn12 2.713769 1_555
Zn2 Zn9 2.713762 1_555
Zn3 Zn8 2.713762 1_555
Zn4 Zn9 2.713762 1_565
Zn4 Zn8 2.713769 1_566
Zn6 Zn9 2.713762 1_565
Zn7 Zn8 2.713762 1_566
Zn10 Zn22 2.557243 1_554
Zn10 Zn18 2.557243 1_555
Zn10 Zn21 2.557243 1_554
Zn10 Zn17 2.557243 1_555
Zn10 Zn4 2.713762 1_554
Zn10 Zn5 2.713762 1_554
Zn11 Zn19 2.557243 1_455
Zn11 Zn15 2.557243 1_555
Zn11 Zn22 2.557243 1_455
Zn11 Zn18 2.557243 1_555
Zn11 Zn5 2.713762 1_455
Zn11 Zn6 2.713762 1_455
Zn11 Zn2 2.713762 1_555
Zn12 Zn15 2.557243 1_555
Zn12 Zn19 2.557243 1_454
Zn12 Zn17 2.557243 1_555
Zn12 Zn21 2.557243 1_454
Zn12 Zn7 2.713762 1_454
Zn12 Zn3 2.713762 1_555
Zn12 Zn5 2.713769 1_454
Zn13 Zn15 2.557243 1_555
Zn13 Zn19 2.557243 1_445
Zn13 Zn16 2.557243 1_555
Zn13 Zn20 2.557243 1_445
Zn13 Zn7 2.713762 1_445
Zn13 Zn3 2.713762 1_555
Zn13 Zn2 2.713769 1_555
Zn13 Zn6 2.713769 1_445
Zn14 Zn6 2.703813 1_445
Zn14 Zn2 2.703813 1_554
Zn14 Zn5 2.703813 1_454
Zn14 Zn4 2.703813 1_544
Zn14 Zn3 2.703821 1_555
Zn14 Zn7 2.703821 1_444
Zn15 Zn3 2.693821 1_555
Zn15 Zn2 2.693829 1_555
Zn15 Zn17 2.832917 1_555
Zn15 Zn18 2.832917 1_555
Zn15 Zn16 2.832917 1_555
Zn16 Zn8 2.557243 1_555
Zn16 Zn9 2.557243 1_555
Zn16 Zn3 2.693821 1_555
Zn16 Zn2 2.693829 1_555
Zn16 Zn18 2.832917 1_555
Zn16 Zn17 2.832917 1_555
Zn17 Zn8 2.557243 1_555
Zn17 Zn3 2.693821 1_555
Zn17 Zn18 2.832917 1_555
Zn18 Zn9 2.557243 1_555
Zn18 Zn2 2.693824 1_555
Zn19 Zn7 2.693821 1_555
Zn19 Zn5 2.693829 1_555
Zn19 Zn6 2.693829 1_555
Zn19 Zn21 2.832917 1_555
Zn19 Zn22 2.832917 1_555
Zn19 Zn20 2.832917 1_555
Zn20 Zn8 2.557243 1_566
Zn20 Zn9 2.557243 1_565
Zn20 Zn7 2.693821 1_555
Zn20 Zn6 2.693829 1_555
Zn20 Zn4 2.693829 1_555
Zn20 Zn21 2.832917 1_555
Zn20 Zn22 2.832917 1_555
Zn21 Zn8 2.557243 1_566
Zn21 Zn7 2.693821 1_555
Zn21 Zn5 2.693829 1_555
Zn21 Zn4 2.693829 1_555
Zn21 Zn22 2.832917 1_555
Zn22 Zn9 2.557243 1_565
Zn22 Zn6 2.693824 1_555
Zn22 Zn5 2.693824 1_555
Zn22 Zn4 2.693824 1_555
