# generated using pymatgen
data_Zr6Zn19PPt4
_symmetry_space_group_name_H-M   'P 1'
_cell_length_a   8.71168560
_cell_length_b   8.71168470
_cell_length_c   8.71168531
_cell_angle_alpha   59.92172881
_cell_angle_beta   59.92172830
_cell_angle_gamma   59.92172744
_symmetry_Int_Tables_number   1
_chemical_formula_structural   Zr6Zn19PPt4
_chemical_formula_sum   'Zr6 Zn19 P1 Pt4'
_cell_volume   466.68060571
_cell_formula_units_Z   1
loop_
 _symmetry_equiv_pos_site_id
 _symmetry_equiv_pos_as_xyz
  1  'x, y, z'
loop_
 _atom_site_type_symbol
 _atom_site_label
 _atom_site_symmetry_multiplicity
 _atom_site_fract_x
 _atom_site_fract_y
 _atom_site_fract_z
 _atom_site_occupancy
  Zr  Zr0  1  0.70257503  0.29352272  0.29352272  1
  Zr  Zr1  1  0.29742497  0.70647728  0.70647728  1
  Zr  Zr2  1  0.29352272  0.70257503  0.29352272  1
  Zr  Zr3  1  0.70647728  0.29742497  0.70647728  1
  Zr  Zr4  1  0.29352272  0.29352272  0.70257503  1
  Zr  Zr5  1  0.70647728  0.70647728  0.29742497  1
  Zn  Zn0  1  0.12114660  0.12114660  0.12114660  1
  Zn  Zn1  1  0.87885340  0.87885340  0.87885340  1
  Zn  Zn2  1  0.12275363  0.12275363  0.63317604  1
  Zn  Zn3  1  0.12275363  0.63317604  0.12275363  1
  Zn  Zn4  1  0.87724637  0.87724637  0.36682396  1
  Zn  Zn5  1  0.87724637  0.36682396  0.87724637  1
  Zn  Zn6  1  0.63317604  0.12275363  0.12275363  1
  Zn  Zn7  1  0.36682396  0.87724637  0.87724637  1
  Zn  Zn8  1  0.50000000  0.00000000  0.00000000  1
  Zn  Zn9  1  0.00000000  0.50000000  0.00000000  1
  Zn  Zn10  1  0.00000000  0.00000000  0.50000000  1
  Zn  Zn11  1  0.33399771  0.33399771  0.33399771  1
  Zn  Zn12  1  0.66600229  0.66600229  0.66600229  1
  Zn  Zn13  1  0.33324242  0.33324242  0.99438583  1
  Zn  Zn14  1  0.33324242  0.99438583  0.33324242  1
  Zn  Zn15  1  0.66675758  0.66675758  0.00561417  1
  Zn  Zn16  1  0.66675758  0.00561417  0.66675758  1
  Zn  Zn17  1  0.99438583  0.33324242  0.33324242  1
  Zn  Zn18  1  0.00561417  0.66675758  0.66675758  1
  P  P0  1  0.50000000  0.50000000  0.50000000  1
  Pt  Pt0  1  0.00000000  0.50000000  0.50000000  1
  Pt  Pt1  1  0.50000000  0.00000000  0.50000000  1
  Pt  Pt2  1  0.50000000  0.50000000  0.00000000  1
  Pt  Pt3  1  0.00000000  0.00000000  0.00000000  1
loop_
_geom_bond_atom_site_label_1
_geom_bond_atom_site_label_2
_geom_bond_distance
_geom_bond_site_symmetry_2
Zn0 Zn9 2.693354 1_555
Zn0 Zn10 2.693354 1_555
Zn0 Zn8 2.693354 1_555
Zn1 Zn9 2.693354 1_656
Zn1 Zn10 2.693354 1_665
Zn1 Zn8 2.693354 1_566
Zn3 Zn9 2.695698 1_555
Zn5 Zn9 2.695698 1_656
Zn6 Zn8 2.695698 1_555
Zn7 Zn8 2.695698 1_566
Zn8 Zr3 3.147683 1_554
Zn8 Zr2 3.147683 1_545
Zn8 Zr5 3.147683 1_545
Zn8 Zr4 3.147683 1_554
Zn9 Zr5 3.147683 1_455
Zn9 Zr4 3.147683 1_554
Zn9 Zr1 3.147683 1_554
Zn9 Zr0 3.147683 1_455
Zn10 Zn17 2.498463 1_455
Zn10 Zn18 2.498463 1_545
Zn10 Zn14 2.498464 1_545
Zn10 Zn16 2.498464 1_455
Zn10 Zn2 2.695698 1_555
Zn10 Zn4 2.695698 1_445
Zn10 Zr3 3.147683 1_455
Zn10 Zr2 3.147683 1_545
Zn10 Zr1 3.147683 1_545
Zn10 Zr0 3.147683 1_455
Zn13 Zn8 2.498463 1_556
Zn13 Zn9 2.498464 1_556
Zn14 Zn8 2.498464 1_565
Zn15 Zn8 2.498463 1_565
Zn15 Zn9 2.498464 1_655
Zn16 Zn8 2.498464 1_556
Zn17 Zn9 2.498464 1_655
Zn18 Zn9 2.498464 1_556
P0 Zr1 2.542617 1_555
P0 Zr0 2.542617 1_555
P0 Zr5 2.542617 1_555
P0 Zr4 2.542617 1_555
P0 Zr3 2.542618 1_555
P0 Zr2 2.542618 1_555
Pt0 Zn11 2.511911 1_555
Pt0 Zn12 2.511911 1_455
Pt0 Zn18 2.545816 1_555
Pt0 Zn17 2.545816 1_455
Pt0 Zn4 2.681285 1_455
Pt0 Zn2 2.681285 1_555
Pt0 Zn5 2.681286 1_455
Pt0 Zn3 2.681286 1_555
Pt0 Zr2 3.101543 1_555
Pt0 Zr3 3.101543 1_455
Pt0 Zr4 3.101543 1_555
Pt0 Zr5 3.101543 1_455
Pt1 Zn11 2.511911 1_555
Pt1 Zn12 2.511911 1_545
Pt1 Zn16 2.545816 1_555
Pt1 Zn14 2.545816 1_545
Pt1 Zn7 2.681286 1_545
Pt1 Zn6 2.681286 1_555
Pt1 Zn4 2.681286 1_545
Pt1 Zn2 2.681286 1_555
Pt1 Zr4 3.101542 1_555
Pt1 Zr5 3.101542 1_545
Pt1 Zr0 3.101542 1_555
Pt1 Zr1 3.101542 1_545
Pt2 Zn12 2.511911 1_554
Pt2 Zn11 2.511911 1_555
Pt2 Zn13 2.545816 1_554
Pt2 Zn15 2.545816 1_555
Pt2 Zn7 2.681285 1_554
Pt2 Zn6 2.681285 1_555
Pt2 Zn5 2.681286 1_554
Pt2 Zn3 2.681286 1_555
Pt2 Zr2 3.101542 1_555
Pt2 Zr3 3.101542 1_554
Pt2 Zr0 3.101543 1_555
Pt2 Zr1 3.101543 1_554
Pt3 Zn1 2.586698 1_444
Pt3 Zn0 2.586698 1_555
Pt3 Zn5 2.606670 1_454
Pt3 Zn3 2.606670 1_545
Pt3 Zn4 2.606671 1_445
Pt3 Zn2 2.606671 1_554
Pt3 Zn7 2.606671 1_544
Pt3 Zn6 2.606671 1_455
