# generated using pymatgen
data_Ta3Ti2Nb5Si6
_symmetry_space_group_name_H-M   'P 1'
_cell_length_a   7.52950950
_cell_length_b   7.53209032
_cell_length_c   7.53101038
_cell_angle_alpha   128.74115644
_cell_angle_beta   128.73177557
_cell_angle_gamma   75.43062334
_symmetry_Int_Tables_number   1
_chemical_formula_structural   Ta3Ti2Nb5Si6
_chemical_formula_sum   'Ta3 Ti2 Nb5 Si6'
_cell_volume   252.90022073
_cell_formula_units_Z   1
loop_
 _symmetry_equiv_pos_site_id
 _symmetry_equiv_pos_as_xyz
  1  'x, y, z'
loop_
 _atom_site_type_symbol
 _atom_site_label
 _atom_site_symmetry_multiplicity
 _atom_site_fract_x
 _atom_site_fract_y
 _atom_site_fract_z
 _atom_site_occupancy
  Ta  Ta0  1  0.01733712  0.18477147  0.50000089  1
  Ta  Ta1  1  0.51679091  0.01728722  0.83163638  1
  Ta  Ta2  1  0.18516883  0.68569092  0.16865661  1
  Ti  Ti0  1  0.49990155  0.49967409  0.99993541  1
  Ti  Ti1  1  0.99996806  0.99973513  0.00005681  1
  Nb  Nb0  1  0.48186856  0.98140367  0.16673242  1
  Nb  Nb1  1  0.68528155  0.51861362  0.49999990  1
  Nb  Nb2  1  0.98214363  0.81519645  0.49996828  1
  Nb  Nb3  1  0.31554697  0.48224886  0.49998738  1
  Nb  Nb4  1  0.81514574  0.31468241  0.83303870  1
  Si  Si0  1  0.13043920  0.62966062  0.76070717  1
  Si  Si1  1  0.62978106  0.86980057  0.50001501  1
  Si  Si2  1  0.36904227  0.13033547  0.49999178  1
  Si  Si3  1  0.86979977  0.36902595  0.23928106  1
  Si  Si4  1  0.75123132  0.75124122  0.00066819  1
  Si  Si5  1  0.25055545  0.25063233  0.99932102  1
loop_
_geom_bond_atom_site_label_1
_geom_bond_atom_site_label_2
_geom_bond_distance
_geom_bond_site_symmetry_2
Nb0 Si0 2.575571 1_554
Nb0 Si1 2.630323 1_555
Nb0 Si2 2.635125 1_565
Nb0 Si4 2.715591 1_555
Nb0 Si5 2.722212 1_564
Nb1 Si1 2.571988 1_555
Nb1 Si0 2.628534 1_655
Nb1 Si3 2.629089 1_555
Nb1 Si4 2.712847 1_556
Nb1 Si5 2.712891 1_554
Nb2 Si1 2.580735 1_555
Nb2 Si3 2.637776 1_555
Nb2 Si0 2.638441 1_655
Nb2 Si4 2.714326 1_555
Nb2 Si5 2.714869 1_665
Nb3 Si2 2.578973 1_555
Nb3 Si3 2.635342 1_455
Nb3 Si0 2.635904 1_555
Nb3 Si5 2.717990 1_554
Nb3 Si4 2.718049 1_556
Nb4 Si3 2.576594 1_556
Nb4 Si1 2.630715 1_545
Nb4 Si2 2.635632 1_555
Nb4 Si5 2.715144 1_655
Nb4 Si4 2.721423 1_556
Si0 Si3 2.402451 1_455
Si0 Ti0 2.551287 1_555
Si0 Ti1 2.556088 1_456
Si0 Ta2 2.582092 1_556
Si0 Ta0 2.630169 1_555
Si1 Si2 2.401445 1_565
Si1 Ti1 2.555993 1_556
Si1 Ti0 2.556140 1_554
Si1 Ta1 2.627920 1_565
Si1 Ta2 2.628308 1_555
Si2 Ti1 2.552011 1_445
Si2 Ti0 2.552060 1_555
Si2 Ta0 2.575816 1_555
Si2 Ta1 2.628502 1_555
Si2 Ta2 2.628660 1_545
Si3 Ti1 2.551323 1_545
Si3 Ti0 2.556081 1_554
Si3 Ta1 2.580819 1_554
Si3 Ta0 2.630755 1_655
Si4 Ta0 2.704200 1_665
Si4 Ta2 2.705074 1_655
Si4 Ta1 2.711683 1_564
Si4 Ti1 2.965803 1_555
Si4 Ti0 2.991553 1_554
Si5 Ta0 2.703817 1_555
Si5 Ta1 2.705474 1_555
Si5 Ta2 2.711162 1_556
Si5 Ti0 2.965395 1_555
Si5 Ti1 2.991888 1_446
