# generated using pymatgen
data_Ba2TiO4
_symmetry_space_group_name_H-M   'P 1'
_cell_length_a   3.98205300
_cell_length_b   3.98205300
_cell_length_c   8.78815100
_cell_angle_alpha   90.00000000
_cell_angle_beta   90.00000000
_cell_angle_gamma   90.00000000
_symmetry_Int_Tables_number   1
_chemical_formula_structural   Ba2TiO4
_chemical_formula_sum   'Ba2 Ti1 O4'
_cell_volume   139.35147905
_cell_formula_units_Z   1
loop_
 _symmetry_equiv_pos_site_id
 _symmetry_equiv_pos_as_xyz
  1  'x, y, z'
loop_
 _atom_site_type_symbol
 _atom_site_label
 _atom_site_symmetry_multiplicity
 _atom_site_fract_x
 _atom_site_fract_y
 _atom_site_fract_z
 _atom_site_occupancy
  Ba  Ba0  1  0.00000000  0.00000000  0.72557100  1
  Ba  Ba1  1  0.00000000  0.00000000  0.27442900  1
  Ti  Ti0  1  0.50000000  0.50000000  0.50000000  1
  O  O0  1  0.00000000  0.50000000  0.50000000  1
  O  O1  1  0.50000000  0.50000000  0.72661700  1
  O  O2  1  0.50000000  0.50000000  0.27338300  1
  O  O3  1  0.50000000  0.00000000  0.50000000  1
loop_
_geom_bond_atom_site_label_1
_geom_bond_atom_site_label_2
_geom_bond_distance
_geom_bond_site_symmetry_2
Ba0 O3 2.809610 1_455
Ba0 O0 2.809610 1_545
Ba0 O0 2.809610 1_555
Ba0 O3 2.809610 1_555
Ba0 O1 2.815752 1_545
Ba0 O1 2.815752 1_455
Ba0 O1 2.815752 1_555
Ba0 O1 2.815752 1_445
Ba1 O3 2.809610 1_555
Ba1 O0 2.809610 1_545
Ba1 O3 2.809610 1_455
Ba1 O0 2.809610 1_555
Ba1 O2 2.815752 1_455
Ba1 O2 2.815752 1_555
Ba1 O2 2.815752 1_445
Ba1 O2 2.815752 1_545
O0 Ti0 1.991027 1_455
O0 Ti0 1.991027 1_555
O1 Ti0 1.991544 1_555
O2 Ti0 1.991544 1_555
O3 Ti0 1.991027 1_545
O3 Ti0 1.991027 1_555
