# generated using pymatgen
data_Zr6In4SiBr18
_symmetry_space_group_name_H-M   'P 1'
_cell_length_a   10.28035858
_cell_length_b   10.58186322
_cell_length_c   10.57188058
_cell_angle_alpha   118.52423257
_cell_angle_beta   99.48686703
_cell_angle_gamma   105.01985994
_symmetry_Int_Tables_number   1
_chemical_formula_structural   Zr6In4SiBr18
_chemical_formula_sum   'Zr6 In4 Si1 Br18'
_cell_volume   917.78073550
_cell_formula_units_Z   1
loop_
 _symmetry_equiv_pos_site_id
 _symmetry_equiv_pos_as_xyz
  1  'x, y, z'
loop_
 _atom_site_type_symbol
 _atom_site_label
 _atom_site_symmetry_multiplicity
 _atom_site_fract_x
 _atom_site_fract_y
 _atom_site_fract_z
 _atom_site_occupancy
  Zr  Zr0  1  0.16029840  0.06075976  0.24242343  1
  Zr  Zr1  1  0.83970160  0.93924024  0.75757657  1
  Zr  Zr2  1  0.85553626  0.13245892  0.14202756  1
  Zr  Zr3  1  0.14446374  0.86754108  0.85797244  1
  Zr  Zr4  1  0.15581735  0.25144838  0.04644556  1
  Zr  Zr5  1  0.84418265  0.74855162  0.95355444  1
  In  In0  1  0.64904211  0.53574662  0.22776840  1
  In  In1  1  0.35095789  0.46425338  0.77223160  1
  In  In2  1  0.68598758  0.22322921  0.56134176  1
  In  In3  1  0.31401242  0.77677079  0.43865824  1
  Si  Si0  1  0.00000000  0.00000000  0.00000000  1
  Br  Br0  1  0.01223527  0.41826212  0.20294720  1
  Br  Br1  1  0.98776473  0.58173788  0.79705280  1
  Br  Br2  1  0.34221362  0.34376769  0.31733947  1
  Br  Br3  1  0.65778638  0.65623231  0.68266053  1
  Br  Br4  1  0.33621466  0.53370599  0.10191968  1
  Br  Br5  1  0.66378534  0.46629401  0.89808032  1
  Br  Br6  1  0.00251916  0.79339494  0.21513096  1
  Br  Br7  1  0.99748084  0.20660506  0.78486904  1
  Br  Br8  1  0.69830267  0.28183290  0.30083968  1
  Br  Br9  1  0.30169733  0.71816710  0.69916032  1
  Br  Br10  1  0.32770953  0.13228391  0.89883948  1
  Br  Br11  1  0.67229047  0.86771609  0.10116052  1
  Br  Br12  1  0.01840384  0.21074882  0.42010249  1
  Br  Br13  1  0.98159616  0.78925118  0.57989751  1
  Br  Br14  1  0.32816831  0.92124917  0.10999809  1
  Br  Br15  1  0.67183169  0.07875083  0.89000191  1
  Br  Br16  1  0.34617259  0.12904506  0.51316043  1
  Br  Br17  1  0.65382741  0.87095494  0.48683957  1
loop_
_geom_bond_atom_site_label_1
_geom_bond_atom_site_label_2
_geom_bond_distance
_geom_bond_site_symmetry_2
Si0 Zr4 2.484083 1_555
Si0 Zr5 2.484083 1_444
Si0 Zr0 2.486406 1_555
Si0 Zr1 2.486406 1_444
Si0 Zr2 2.495757 1_455
Si0 Zr3 2.495757 1_544
Br0 Zr4 2.719998 1_555
Br0 Zr2 2.725620 1_455
Br1 Zr5 2.719998 1_555
Br1 Zr3 2.725620 1_655
Br2 Zr4 2.716002 1_555
Br2 Zr0 2.727068 1_555
Br3 Zr5 2.716002 1_555
Br3 Zr1 2.727068 1_555
Br4 Zr4 2.793181 1_555
Br4 In1 3.239861 1_554
Br4 In0 3.261781 1_555
Br4 In3 3.341874 1_555
Br5 Zr5 2.793181 1_555
Br5 In0 3.239861 1_556
Br5 In1 3.261781 1_555
Br5 In2 3.341874 1_555
Br6 Zr5 2.717447 1_454
Br6 Zr0 2.721440 1_565
Br7 Zr4 2.717447 1_656
Br7 Zr1 2.721440 1_545
Br8 Zr2 2.759428 1_555
Br8 In2 3.112948 1_555
Br8 In0 3.260548 1_555
Br9 Zr3 2.759428 1_555
Br9 In3 3.112948 1_555
Br9 In1 3.260548 1_555
Br10 Zr4 2.707857 1_556
Br10 Zr3 2.724721 1_545
Br11 Zr5 2.707857 1_554
Br11 Zr2 2.724721 1_565
Br12 Zr0 2.726035 1_555
Br12 Zr2 2.732122 1_455
Br13 Zr1 2.726035 1_555
Br13 Zr3 2.732122 1_655
Br14 Zr0 2.694561 1_565
Br14 Zr3 2.706907 1_554
Br15 Zr1 2.694561 1_545
Br15 Zr2 2.706907 1_556
Br16 Zr0 2.805687 1_555
Br16 In2 3.252803 1_555
Br16 In1 3.266888 1_555
Br16 In3 3.331187 1_545
Br17 Zr1 2.805687 1_555
Br17 In3 3.252803 1_555
Br17 In0 3.266888 1_555
Br17 In2 3.331187 1_565
