# generated using pymatgen
data_V4B2PW
_symmetry_space_group_name_H-M   'P 1'
_cell_length_a   6.69995210
_cell_length_b   6.72877597
_cell_length_c   6.72772275
_cell_angle_alpha   129.25383521
_cell_angle_beta   129.13370325
_cell_angle_gamma   74.77292712
_symmetry_Int_Tables_number   1
_chemical_formula_structural   V4B2PW
_chemical_formula_sum   'V8 B4 P2 W2'
_cell_volume   177.39548647
_cell_formula_units_Z   2
loop_
 _symmetry_equiv_pos_site_id
 _symmetry_equiv_pos_as_xyz
  1  'x, y, z'
loop_
 _atom_site_type_symbol
 _atom_site_label
 _atom_site_symmetry_multiplicity
 _atom_site_fract_x
 _atom_site_fract_y
 _atom_site_fract_z
 _atom_site_occupancy
  V  V0  1  0.68967168  0.18952336  0.15782769  1
  V  V1  1  0.97257857  0.47059492  0.16436068  1
  V  V2  1  0.18975747  0.03206300  0.50021998  1
  V  V3  1  0.47262141  0.30826996  0.50199544  1
  V  V4  1  0.80860144  0.97273965  0.50218992  1
  V  V5  1  0.30869407  0.80646211  0.83581161  1
  V  V6  1  0.00280725  0.00525491  0.00280289  1
  V  V7  1  0.50287776  0.49999931  0.99763561  1
  B  B0  1  0.61678283  0.12024297  0.73457462  1
  B  B1  1  0.11671827  0.38217247  0.49657111  1
  B  B2  1  0.88391577  0.61712715  0.49646485  1
  B  B3  1  0.38379762  0.88733100  0.26663784  1
  P  P0  1  0.24922177  0.23748762  0.99506614  1
  P  P1  1  0.74948429  0.75411033  0.01194144  1
  W  W0  1  0.52618308  0.69058738  0.50020676  1
  W  W1  1  0.02628671  0.52603287  0.83569041  1
loop_
_geom_bond_atom_site_label_1
_geom_bond_atom_site_label_2
_geom_bond_distance
_geom_bond_site_symmetry_2
V0 V6 2.604945 1_655
V0 V7 2.620228 1_554
V0 W1 2.764614 1_655
V1 V6 2.581555 1_655
V1 V7 2.588218 1_554
V1 W1 2.697551 1_654
V1 W0 3.021066 1_655
V2 V7 2.605278 1_555
V2 V6 2.619954 1_555
V2 W0 2.763985 1_545
V3 V7 2.581585 1_555
V3 V6 2.589617 1_555
V3 W0 2.697479 1_555
V3 W1 3.021242 1_655
V4 V6 2.601846 1_666
V4 V7 2.611148 1_554
V4 W1 3.028607 1_665
V5 V7 2.602733 1_555
V5 V6 2.610767 1_566
V5 W0 3.026127 1_555
V6 W0 2.641159 1_444
V6 W1 2.656224 1_544
V7 W1 2.640107 1_555
V7 W0 2.655679 1_556
B0 B3 1.908372 1_545
B0 V3 2.222093 1_555
B0 V4 2.232378 1_545
B0 V2 2.244412 1_555
B0 W0 2.271057 1_545
B0 V7 2.280684 1_555
B0 V1 2.286019 1_556
B0 V0 2.290987 1_556
B0 V6 2.317069 1_656
B1 B2 1.907090 1_455
B1 V1 2.222267 1_455
B1 V5 2.234184 1_555
B1 V0 2.244880 1_455
B1 W1 2.269641 1_555
B1 V6 2.281338 1_555
B1 V3 2.285797 1_555
B1 V2 2.289619 1_555
B1 V7 2.317844 1_555
B2 V1 2.212901 1_555
B2 V5 2.226471 1_655
B2 V0 2.256438 1_555
B2 W1 2.282410 1_655
B2 V4 2.292471 1_555
B2 V7 2.301382 1_554
B2 W0 2.329735 1_555
B2 V6 2.338444 1_666
B3 V3 2.214540 1_565
B3 V4 2.226126 1_555
B3 V2 2.255019 1_565
B3 W0 2.282299 1_555
B3 V5 2.292889 1_554
B3 V6 2.301164 1_565
B3 W1 2.329491 1_554
B3 V7 2.337869 1_554
P0 V5 2.391164 1_545
P0 V4 2.411346 1_445
P0 V0 2.424804 1_556
P0 V2 2.438086 1_555
P0 V3 2.444156 1_556
P0 V1 2.463677 1_456
P0 W0 2.487450 1_556
P0 W1 2.497991 1_555
P0 V6 2.595540 1_556
P0 V7 2.740403 1_555
P1 V4 2.390862 1_555
P1 V5 2.411331 1_554
P1 V2 2.425264 1_665
P1 V0 2.438915 1_565
P1 V1 2.442975 1_555
P1 V3 2.464975 1_554
P1 W1 2.485660 1_654
P1 W0 2.499182 1_554
P1 V7 2.595732 1_554
P1 V6 2.740441 1_665
