# generated using pymatgen
data_V4GaSe7S
_symmetry_space_group_name_H-M   'P 1'
_cell_length_a   7.18949629
_cell_length_b   7.18531522
_cell_length_c   7.18947379
_cell_angle_alpha   59.98149042
_cell_angle_beta   60.00005946
_cell_angle_gamma   59.98252009
_symmetry_Int_Tables_number   1
_chemical_formula_structural   V4GaSe7S
_chemical_formula_sum   'V4 Ga1 Se7 S1'
_cell_volume   262.54781865
_cell_formula_units_Z   1
loop_
 _symmetry_equiv_pos_site_id
 _symmetry_equiv_pos_as_xyz
  1  'x, y, z'
loop_
 _atom_site_type_symbol
 _atom_site_label
 _atom_site_symmetry_multiplicity
 _atom_site_fract_x
 _atom_site_fract_y
 _atom_site_fract_z
 _atom_site_occupancy
  V  V0  1  0.60172949  0.60722159  0.18931234  1
  V  V1  1  0.60308102  0.19077587  0.60306756  1
  V  V2  1  0.18932873  0.60722017  0.60172488  1
  V  V3  1  0.60173308  0.60722007  0.60173993  1
  Ga  Ga0  1  0.99865479  0.00405499  0.99864349  1
  Se  Se0  1  0.86297862  0.86581428  0.40825355  1
  Se  Se1  1  0.86199049  0.41389929  0.86205717  1
  Se  Se2  1  0.40827480  0.86581471  0.86295267  1
  Se  Se3  1  0.86297943  0.86581690  0.86295162  1
  Se  Se4  1  0.36941895  0.36671445  0.89442956  1
  Se  Se5  1  0.36941776  0.36669932  0.36945389  1
  Se  Se6  1  0.89441536  0.36673560  0.36941913  1
  S  S0  1  0.37599849  0.87201076  0.37599520  1
loop_
_geom_bond_atom_site_label_1
_geom_bond_atom_site_label_2
_geom_bond_distance
_geom_bond_site_symmetry_2
Ga0 Se1 2.403814 1_555
Ga0 Se3 2.404231 1_545
Ga0 Se0 2.404274 1_546
Ga0 Se2 2.404365 1_645
Se0 V1 2.682348 1_565
Se0 V2 2.684780 1_655
Se0 V3 2.684791 1_555
Se1 V0 2.689509 1_556
Se1 V3 2.689518 1_555
Se1 V2 2.689944 1_655
Se2 V1 2.682269 1_565
Se2 V3 2.684674 1_555
Se2 V0 2.684747 1_556
Se3 V1 2.682403 1_565
Se3 V2 2.684764 1_655
Se3 V0 2.684830 1_556
Se4 V1 2.411219 1_555
Se4 V2 2.436921 1_555
Se4 V3 2.436961 1_555
Se5 V1 2.411125 1_555
Se5 V2 2.436879 1_555
Se5 V0 2.437023 1_555
Se6 V1 2.411130 1_555
Se6 V0 2.436898 1_555
Se6 V3 2.436927 1_555
S0 V2 2.311299 1_555
S0 V0 2.311387 1_555
S0 V3 2.311447 1_555
