# generated using pymatgen
data_CoBiTeO6
_symmetry_space_group_name_H-M   'P 1'
_cell_length_a   5.05672378
_cell_length_b   8.75894521
_cell_length_c   10.03649960
_cell_angle_alpha   89.99936991
_cell_angle_beta   89.99752069
_cell_angle_gamma   90.00109156
_symmetry_Int_Tables_number   1
_chemical_formula_structural   CoBiTeO6
_chemical_formula_sum   'Co4 Bi4 Te4 O24'
_cell_volume   444.53228910
_cell_formula_units_Z   4
loop_
 _symmetry_equiv_pos_site_id
 _symmetry_equiv_pos_as_xyz
  1  'x, y, z'
loop_
 _atom_site_type_symbol
 _atom_site_label
 _atom_site_symmetry_multiplicity
 _atom_site_fract_x
 _atom_site_fract_y
 _atom_site_fract_z
 _atom_site_occupancy
  Co  Co0  1  0.50002949  0.83324166  0.74999672  1
  Co  Co1  1  0.49997051  0.16675834  0.25000328  1
  Co  Co2  1  0.00002949  0.33324166  0.74999672  1
  Co  Co3  1  0.99997051  0.66675834  0.25000328  1
  Bi  Bi0  1  0.00000000  0.00000000  0.50000000  1
  Bi  Bi1  1  0.50000000  0.50000000  0.50000000  1
  Bi  Bi2  1  0.00000000  0.00000000  0.00000000  1
  Bi  Bi3  1  0.50000000  0.50000000  0.00000000  1
  Te  Te0  1  0.50003580  0.16646357  0.74999742  1
  Te  Te1  1  0.00003580  0.66646357  0.74999742  1
  Te  Te2  1  0.99996420  0.33353643  0.25000258  1
  Te  Te3  1  0.49996420  0.83353643  0.25000258  1
  O  O0  1  0.62825566  0.99823211  0.64379831  1
  O  O1  1  0.12825566  0.49823211  0.64379831  1
  O  O2  1  0.68836212  0.31488200  0.64381451  1
  O  O3  1  0.18836212  0.81488200  0.64381451  1
  O  O4  1  0.18340583  0.18665554  0.64377050  1
  O  O5  1  0.68340583  0.68665554  0.64377050  1
  O  O6  1  0.18831523  0.18511921  0.14381725  1
  O  O7  1  0.68831523  0.68511921  0.14381725  1
  O  O8  1  0.12821451  0.50177764  0.14379316  1
  O  O9  1  0.62821451  0.00177764  0.14379316  1
  O  O10  1  0.68336154  0.31334954  0.14377572  1
  O  O11  1  0.18336154  0.81334954  0.14377572  1
  O  O12  1  0.87174434  0.50176789  0.35620169  1
  O  O13  1  0.37174434  0.00176789  0.35620169  1
  O  O14  1  0.81163788  0.18511800  0.35618549  1
  O  O15  1  0.31163788  0.68511800  0.35618549  1
  O  O16  1  0.31659417  0.31334446  0.35622950  1
  O  O17  1  0.81659417  0.81334446  0.35622950  1
  O  O18  1  0.31168477  0.31488079  0.85618275  1
  O  O19  1  0.81168477  0.81488079  0.85618275  1
  O  O20  1  0.37178549  0.99822236  0.85620684  1
  O  O21  1  0.87178549  0.49822236  0.85620684  1
  O  O22  1  0.81663846  0.18665046  0.85622428  1
  O  O23  1  0.31663846  0.68665046  0.85622428  1
loop_
_geom_bond_atom_site_label_1
_geom_bond_atom_site_label_2
_geom_bond_distance
_geom_bond_site_symmetry_2
Co0 O0 1.909134 1_555
Co0 O5 1.909188 1_555
Co0 O20 1.909202 1_555
Co0 O23 1.909222 1_555
Co0 O19 1.909304 1_555
Co0 O3 1.909329 1_555
Co1 O13 1.909134 1_555
Co1 O16 1.909188 1_555
Co1 O9 1.909202 1_555
Co1 O10 1.909222 1_555
Co1 O6 1.909304 1_555
Co1 O14 1.909329 1_555
Co2 O1 1.909134 1_555
Co2 O4 1.909188 1_555
Co2 O21 1.909202 1_455
Co2 O22 1.909222 1_455
Co2 O18 1.909304 1_555
Co2 O2 1.909329 1_455
Co3 O12 1.909134 1_555
Co3 O17 1.909188 1_555
Co3 O8 1.909202 1_655
Co3 O11 1.909222 1_655
Co3 O7 1.909304 1_555
Co3 O15 1.909329 1_655
Bi0 O4 2.369656 1_555
Bi0 O17 2.369656 1_445
Bi0 O0 2.369937 1_445
Bi0 O13 2.369937 1_555
Bi0 O3 2.370617 1_545
Bi0 O14 2.370617 1_455
Bi1 O5 2.369656 1_555
Bi1 O16 2.369656 1_555
Bi1 O1 2.369937 1_555
Bi1 O12 2.369937 1_555
Bi1 O2 2.370617 1_555
Bi1 O15 2.370617 1_555
Bi2 O11 2.369572 1_545
Bi2 O22 2.369572 1_454
Bi2 O9 2.370072 1_455
Bi2 O20 2.370072 1_544
Bi2 O6 2.370542 1_555
Bi2 O19 2.370542 1_444
Bi3 O10 2.369572 1_555
Bi3 O23 2.369572 1_554
Bi3 O8 2.370072 1_555
Bi3 O21 2.370072 1_554
Bi3 O7 2.370542 1_555
Bi3 O18 2.370542 1_554
O0 Te0 1.930741 1_565
O1 Te1 1.930741 1_555
O2 Te0 1.931951 1_555
O3 Te1 1.931951 1_555
O4 Te0 1.931750 1_555
O5 Te1 1.931750 1_655
O6 Te2 1.932059 1_455
O7 Te3 1.932059 1_555
O8 Te2 1.930879 1_455
O9 Te3 1.930879 1_545
O10 Te2 1.931627 1_555
O11 Te3 1.931627 1_555
O12 Te2 1.930741 1_555
O13 Te3 1.930741 1_545
O14 Te2 1.931951 1_555
O15 Te3 1.931951 1_555
O16 Te2 1.931750 1_455
O17 Te3 1.931750 1_555
O18 Te0 1.932059 1_555
O19 Te1 1.932059 1_655
O20 Te0 1.930879 1_565
O21 Te1 1.930879 1_655
O22 Te0 1.931627 1_555
O23 Te1 1.931627 1_555
