# generated using pymatgen
data_Ti6VTc5As6
_symmetry_space_group_name_H-M   'P 1'
_cell_length_a   7.53359371
_cell_length_b   7.52565140
_cell_length_c   7.52565204
_cell_angle_alpha   127.36015380
_cell_angle_beta   124.71857449
_cell_angle_gamma   79.81752219
_symmetry_Int_Tables_number   1
_chemical_formula_structural   Ti6VTc5As6
_chemical_formula_sum   'Ti6 V1 Tc5 As6'
_cell_volume   269.28425154
_cell_formula_units_Z   1
loop_
 _symmetry_equiv_pos_site_id
 _symmetry_equiv_pos_as_xyz
  1  'x, y, z'
loop_
 _atom_site_type_symbol
 _atom_site_label
 _atom_site_symmetry_multiplicity
 _atom_site_fract_x
 _atom_site_fract_y
 _atom_site_fract_z
 _atom_site_occupancy
  Ti  Ti0  1  0.46268061  0.24627316  0.28256529  1
  Ti  Ti1  1  0.53731939  0.81988568  0.78359255  1
  Ti  Ti2  1  0.74538239  0.65496434  0.40431234  1
  Ti  Ti3  1  0.25461761  0.65892995  0.90958096  1
  Ti  Ti4  1  0.05525456  0.85237590  0.29509895  1
  Ti  Ti5  1  0.94474544  0.23984439  0.79712034  1
  V  V0  1  0.50000000  0.99322935  0.49322935  1
  Tc  Tc0  1  0.66547926  0.50456310  0.91323535  1
  Tc  Tc1  1  0.33452074  0.24775709  0.83908584  1
  Tc  Tc2  1  0.90496148  0.24345289  0.40406186  1
  Tc  Tc3  1  0.09503852  0.49910038  0.33849341  1
  Tc  Tc4  1  0.00000000  0.99025214  0.99025214  1
  As  As0  1  0.83484830  0.57546753  0.74612590  1
  As  As1  1  0.16515170  0.91127559  0.74061923  1
  As  As2  1  0.66874910  0.91484543  0.25199660  1
  As  As3  1  0.33125090  0.58324650  0.24609633  1
  As  As4  1  0.27818062  0.27848547  0.50462971  1
  As  As5  1  0.72181938  0.22644909  0.00030585  1
loop_
_geom_bond_atom_site_label_1
_geom_bond_atom_site_label_2
_geom_bond_distance
_geom_bond_site_symmetry_2
Ti2 V0 2.832553 1_555
Ti3 V0 2.832558 1_556
Ti4 V0 2.867008 1_555
Ti5 V0 2.867010 1_545
Tc0 Ti5 2.767340 1_555
Tc0 Ti4 2.776415 1_656
Tc0 Ti2 2.816313 1_556
Tc0 Ti1 2.905515 1_555
Tc0 Ti3 3.098620 1_555
Tc1 Ti4 2.767346 1_545
Tc1 Ti5 2.776405 1_455
Tc1 Ti3 2.816313 1_555
Tc1 Ti0 2.905498 1_556
Tc1 Ti2 3.098617 1_556
Tc2 Ti4 2.750762 1_645
Tc2 Ti5 2.815171 1_555
Tc2 Ti3 2.872066 1_655
Tc2 Ti0 2.909760 1_555
Tc2 Ti2 3.116916 1_555
Tc3 Ti5 2.750780 1_454
Tc3 Ti4 2.815188 1_555
Tc3 Ti2 2.872061 1_455
Tc3 Ti1 2.909762 1_555
Tc3 Ti3 3.116896 1_555
Tc4 Ti2 2.839616 1_455
Tc4 Ti3 2.839616 1_555
Tc4 Ti4 2.856856 1_556
Tc4 Ti5 2.856862 1_465
Tc4 Ti1 3.032716 1_455
Tc4 Ti0 3.032718 1_566
As0 Tc0 2.525348 1_555
As0 Tc2 2.534729 1_555
As0 Tc4 2.544900 1_655
As0 Ti0 2.644615 1_555
As0 Ti1 2.668293 1_555
As0 Ti4 2.669941 1_656
As0 Ti2 2.679466 1_555
As0 Ti3 2.691046 1_655
As0 Ti5 2.699523 1_555
As1 Tc1 2.525360 1_565
As1 Tc3 2.534716 1_555
As1 Tc4 2.544896 1_555
As1 Ti1 2.644612 1_555
As1 Ti0 2.668292 1_566
As1 Ti5 2.669952 1_465
As1 Ti3 2.679445 1_555
As1 Ti2 2.691038 1_455
As1 Ti4 2.699535 1_555
As2 V0 2.514766 1_555
As2 Tc2 2.528545 1_565
As2 Tc0 2.536839 1_554
As2 Ti0 2.650556 1_565
As2 Ti3 2.650794 1_554
As2 Ti5 2.653174 1_565
As2 Ti2 2.653316 1_555
As2 Ti1 2.670980 1_554
As2 Ti4 2.725779 1_655
As3 V0 2.514772 1_555
As3 Tc3 2.528554 1_555
As3 Tc1 2.536826 1_554
As3 Ti1 2.650554 1_555
As3 Ti2 2.650796 1_555
As3 Ti4 2.653182 1_555
As3 Ti3 2.653329 1_554
As3 Ti0 2.670969 1_555
As3 Ti5 2.725777 1_454
As4 Tc3 2.442895 1_555
As4 Tc1 2.454325 1_555
As4 Tc0 2.459527 1_555
As4 V0 2.465726 1_545
As4 Tc2 2.478672 1_455
As4 Tc4 2.501520 1_544
As4 Ti0 2.611263 1_555
As4 Ti3 2.713532 1_555
As4 Ti4 2.888062 1_545
As5 Tc2 2.442897 1_555
As5 Tc0 2.454320 1_554
As5 Tc1 2.459529 1_554
As5 V0 2.465732 1_544
As5 Tc3 2.478671 1_655
As5 Tc4 2.501521 1_644
As5 Ti1 2.611253 1_544
As5 Ti2 2.713533 1_555
As5 Ti5 2.888075 1_554
