# generated using pymatgen
data_MnCu(RhSe2)4
_symmetry_space_group_name_H-M   'P 1'
_cell_length_a   7.35972805
_cell_length_b   7.35972791
_cell_length_c   7.35972814
_cell_angle_alpha   60.00000338
_cell_angle_beta   60.00000402
_cell_angle_gamma   60.00000204
_symmetry_Int_Tables_number   1
_chemical_formula_structural   MnCu(RhSe2)4
_chemical_formula_sum   'Mn1 Cu1 Rh4 Se8'
_cell_volume   281.88393880
_cell_formula_units_Z   1
loop_
 _symmetry_equiv_pos_site_id
 _symmetry_equiv_pos_as_xyz
  1  'x, y, z'
loop_
 _atom_site_type_symbol
 _atom_site_label
 _atom_site_symmetry_multiplicity
 _atom_site_fract_x
 _atom_site_fract_y
 _atom_site_fract_z
 _atom_site_occupancy
  Mn  Mn0  1  0.50000000  0.50000000  0.50000000  1
  Cu  Cu0  1  0.75000000  0.75000000  0.75000000  1
  Rh  Rh0  1  0.12394443  0.12394443  0.12394443  1
  Rh  Rh1  1  0.12394443  0.12394443  0.62816672  1
  Rh  Rh2  1  0.12394443  0.62816672  0.12394443  1
  Rh  Rh3  1  0.62816672  0.12394443  0.12394443  1
  Se  Se0  1  0.34413628  0.88528791  0.88528791  1
  Se  Se1  1  0.36325401  0.36325401  0.36325401  1
  Se  Se2  1  0.91023596  0.36325401  0.36325401  1
  Se  Se3  1  0.88528791  0.88528791  0.34413628  1
  Se  Se4  1  0.88528791  0.88528791  0.88528791  1
  Se  Se5  1  0.36325401  0.91023596  0.36325401  1
  Se  Se6  1  0.36325401  0.36325401  0.91023596  1
  Se  Se7  1  0.88528791  0.34413628  0.88528791  1
loop_
_geom_bond_atom_site_label_1
_geom_bond_atom_site_label_2
_geom_bond_distance
_geom_bond_site_symmetry_2
Mn0 Se5 2.465187 1_555
Mn0 Se2 2.465187 1_555
Mn0 Se6 2.465187 1_555
Mn0 Se1 2.465199 1_555
Cu0 Se4 2.438913 1_555
Cu0 Se7 2.438913 1_555
Cu0 Se0 2.438913 1_555
Cu0 Se3 2.438913 1_555
Rh0 Se0 2.487706 1_544
Rh0 Se7 2.487706 1_454
Rh0 Se3 2.487706 1_445
Rh0 Se2 2.497905 1_455
Rh0 Se5 2.497905 1_545
Rh0 Se6 2.497905 1_554
Rh1 Se0 2.487706 1_545
Rh1 Se7 2.487706 1_455
Rh1 Se4 2.487706 1_445
Rh1 Se1 2.497906 1_555
Rh1 Se2 2.497916 1_455
Rh1 Se5 2.497916 1_545
Rh2 Se3 2.487706 1_455
Rh2 Se4 2.487706 1_454
Rh2 Se0 2.487706 1_554
Rh2 Se1 2.497906 1_555
Rh2 Se6 2.497916 1_554
Rh2 Se2 2.497916 1_455
Rh3 Se3 2.487706 1_545
Rh3 Se4 2.487706 1_544
Rh3 Se7 2.487706 1_554
Rh3 Se1 2.497906 1_555
Rh3 Se6 2.497916 1_554
Rh3 Se5 2.497916 1_545
