# generated using pymatgen
data_KAsSeS
_symmetry_space_group_name_H-M   'P 1'
_cell_length_a   6.54817997
_cell_length_b   6.60024281
_cell_length_c   12.46895543
_cell_angle_alpha   80.16948075
_cell_angle_beta   79.35514144
_cell_angle_gamma   108.34142507
_symmetry_Int_Tables_number   1
_chemical_formula_structural   KAsSeS
_chemical_formula_sum   'K4 As4 Se4 S4'
_cell_volume   487.35915114
_cell_formula_units_Z   4
loop_
 _symmetry_equiv_pos_site_id
 _symmetry_equiv_pos_as_xyz
  1  'x, y, z'
loop_
 _atom_site_type_symbol
 _atom_site_label
 _atom_site_symmetry_multiplicity
 _atom_site_fract_x
 _atom_site_fract_y
 _atom_site_fract_z
 _atom_site_occupancy
  K  K0  1  0.78579511  0.33804764  0.26151224  1
  K  K1  1  0.11622137  0.14171674  0.49236464  1
  K  K2  1  0.34951786  0.80131955  0.75441436  1
  K  K3  1  0.13605708  0.10717035  0.00945251  1
  As  As0  1  0.41082032  0.70554802  0.17522368  1
  As  As1  1  0.53873365  0.69610402  0.43699506  1
  As  As2  1  0.70120904  0.40373725  0.67448417  1
  As  As3  1  0.68927293  0.54436234  0.94566607  1
  Se  Se0  1  0.31880481  0.31133775  0.70960499  1
  Se  Se1  1  0.86219790  0.61152540  0.47654526  1
  Se  Se2  1  0.01216967  0.56709959  0.00053424  1
  Se  Se3  1  0.82773993  0.73701428  0.74440998  1
  S  S0  1  0.31880398  0.35043955  0.21032309  1
  S  S1  1  0.61617055  0.84424656  0.98851337  1
  S  S2  1  0.56589865  0.99254114  0.49321460  1
  S  S3  1  0.72387815  0.82108080  0.24641373  1
loop_
_geom_bond_atom_site_label_1
_geom_bond_atom_site_label_2
_geom_bond_distance
_geom_bond_site_symmetry_2
K0 S2 3.125275 1_545
K0 Se2 3.193717 1_655
K0 S0 3.259717 1_555
K0 S3 3.316745 1_555
K0 S3 3.349505 1_545
K0 S0 3.402256 1_655
K0 Se1 3.503893 1_555
K1 S2 3.387126 1_545
K1 S0 3.390755 1_555
K1 S2 3.421237 1_445
K1 Se1 3.427103 1_445
K1 Se0 3.432035 1_555
K1 Se3 3.513513 1_445
K2 S2 3.158147 1_555
K2 Se2 3.227037 1_556
K2 Se3 3.272940 1_555
K2 Se0 3.325741 1_555
K2 Se3 3.336524 1_455
K2 Se0 3.392576 1_565
K2 S1 3.674712 1_555
K3 Se2 3.369502 1_555
K3 S1 3.381420 1_444
K3 S3 3.394329 1_445
K3 S0 3.399205 1_555
K3 Se2 3.424263 1_545
K3 Se0 3.583049 1_554
As0 S0 2.170601 1_555
As0 S1 2.325325 1_554
As0 S3 2.343364 1_555
As1 S2 2.155580 1_555
As1 S3 2.331134 1_555
As1 Se1 2.465205 1_555
As1 K1 3.685173 1_555
As2 Se0 2.318740 1_555
As2 Se1 2.461038 1_555
As2 Se3 2.461744 1_555
As2 K2 3.760620 1_545
As3 S1 2.301119 1_555
As3 Se2 2.308893 1_656
As3 Se3 2.465870 1_555
As3 K3 3.695286 1_556
