# generated using pymatgen
data_Sr8Co2OsN8
_symmetry_space_group_name_H-M   'P 1'
_cell_length_a   9.76311306
_cell_length_b   9.76311296
_cell_length_c   7.52915961
_cell_angle_alpha   75.39960556
_cell_angle_beta   75.39960784
_cell_angle_gamma   31.64607838
_symmetry_Int_Tables_number   1
_chemical_formula_structural   Sr8Co2OsN8
_chemical_formula_sum   'Sr8 Co2 Os1 N8'
_cell_volume   363.38530468
_cell_formula_units_Z   1
loop_
 _symmetry_equiv_pos_site_id
 _symmetry_equiv_pos_as_xyz
  1  'x, y, z'
loop_
 _atom_site_type_symbol
 _atom_site_label
 _atom_site_symmetry_multiplicity
 _atom_site_fract_x
 _atom_site_fract_y
 _atom_site_fract_z
 _atom_site_occupancy
  Sr  Sr0  1  0.97713391  0.97713391  0.26775502  1
  Sr  Sr1  1  0.03245009  0.03245009  0.73967580  1
  Sr  Sr2  1  0.66017426  0.66017426  0.52763124  1
  Sr  Sr3  1  0.33102951  0.33102951  0.47330741  1
  Sr  Sr4  1  0.59285469  0.59285469  0.03867179  1
  Sr  Sr5  1  0.40317981  0.40317981  0.95968949  1
  Sr  Sr6  1  0.20212233  0.20212233  0.18144327  1
  Sr  Sr7  1  0.80026287  0.80026287  0.79707022  1
  Co  Co0  1  0.49849221  0.49849221  0.50725760  1
  Co  Co1  1  0.18768520  0.18768520  0.79255334  1
  Os  Os0  1  0.81279724  0.81279724  0.20602088  1
  N  N0  1  0.89637382  0.89637382  0.00695932  1
  N  N1  1  0.10540480  0.10540480  0.99224645  1
  N  N2  1  0.82337486  0.82337486  0.44242780  1
  N  N3  1  0.17722524  0.17722524  0.56087478  1
  N  N4  1  0.71918067  0.71918067  0.16552768  1
  N  N5  1  0.28044988  0.28044988  0.82837113  1
  N  N6  1  0.47516542  0.47516542  0.29210143  1
  N  N7  1  0.52464220  0.52464220  0.72041733  1
loop_
_geom_bond_atom_site_label_1
_geom_bond_atom_site_label_2
_geom_bond_distance
_geom_bond_site_symmetry_2
Co0 N6 1.785569 1_555
Co0 N7 1.797285 1_555
Co1 N3 1.805815 1_555
Co1 N5 1.831947 1_555
Co1 N1 1.852589 1_555
N0 Os0 1.865050 1_555
N0 Sr5 2.684370 1_564
N0 Sr5 2.684370 1_654
N0 Sr7 2.693060 1_554
N0 Sr0 2.778227 1_555
N0 Sr1 2.808761 1_664
N1 Sr6 2.585889 1_556
N1 Sr1 2.619235 1_555
N1 Sr4 2.687239 1_546
N1 Sr4 2.687239 1_456
N1 Sr0 2.736868 1_446
N2 Os0 1.842019 1_555
N2 Sr7 2.590514 1_555
N2 Sr3 2.679352 1_655
N2 Sr3 2.679352 1_565
N2 Sr0 2.843026 1_555
N2 Sr2 2.963259 1_555
N3 Sr1 2.700181 1_555
N3 Sr2 2.700730 1_455
N3 Sr2 2.700730 1_545
N3 Sr6 2.771263 1_555
N3 Sr3 2.790196 1_555
N4 Os0 1.861987 1_555
N4 Sr2 2.660463 1_555
N4 Sr6 2.680225 1_655
N4 Sr6 2.680225 1_565
N4 Sr4 2.780667 1_555
N4 Sr7 2.793204 1_554
N5 Sr3 2.592007 1_555
N5 Sr6 2.679975 1_556
N5 Sr7 2.689756 1_455
N5 Sr7 2.689756 1_545
N5 Sr5 2.736442 1_555
N6 Sr4 2.513672 1_555
N6 Sr0 2.667974 1_455
N6 Sr0 2.667974 1_545
N6 Sr3 2.694004 1_555
N6 Sr5 3.141072 1_554
N7 Sr5 2.509614 1_555
N7 Sr2 2.579375 1_555
N7 Sr1 2.672144 1_655
N7 Sr1 2.672145 1_565
N7 Sr4 2.998817 1_556
