# generated using pymatgen
data_K2SbAs3Se8
_symmetry_space_group_name_H-M   'P 1'
_cell_length_a   6.91114810
_cell_length_b   6.56657181
_cell_length_c   9.31928236
_cell_angle_alpha   80.51498922
_cell_angle_beta   85.35042115
_cell_angle_gamma   76.88799346
_symmetry_Int_Tables_number   1
_chemical_formula_structural   K2SbAs3Se8
_chemical_formula_sum   'K2 Sb1 As3 Se8'
_cell_volume   405.85482391
_cell_formula_units_Z   1
loop_
 _symmetry_equiv_pos_site_id
 _symmetry_equiv_pos_as_xyz
  1  'x, y, z'
loop_
 _atom_site_type_symbol
 _atom_site_label
 _atom_site_symmetry_multiplicity
 _atom_site_fract_x
 _atom_site_fract_y
 _atom_site_fract_z
 _atom_site_occupancy
  K  K0  1  0.78660898  0.83288313  0.42503825  1
  K  K1  1  0.20046297  0.16848749  0.57325957  1
  Sb  Sb0  1  0.15868160  0.19577493  0.03757124  1
  As  As0  1  0.61086091  0.40528285  0.82077247  1
  As  As1  1  0.39334951  0.59252475  0.18747203  1
  As  As2  1  0.85451898  0.83130290  0.94876674  1
  Se  Se0  1  0.19178996  0.84441587  0.88484134  1
  Se  Se1  1  0.80269830  0.14553940  0.10409250  1
  Se  Se2  1  0.08657423  0.48107227  0.24559709  1
  Se  Se3  1  0.91165119  0.52370727  0.75854494  1
  Se  Se4  1  0.58856252  0.40959513  0.40282187  1
  Se  Se5  1  0.41225063  0.57612791  0.60231692  1
  Se  Se6  1  0.68488232  0.06183338  0.73867384  1
  Se  Se7  1  0.31710691  0.93145273  0.27023018  1
loop_
_geom_bond_atom_site_label_1
_geom_bond_atom_site_label_2
_geom_bond_distance
_geom_bond_site_symmetry_2
K0 Se2 3.312019 1_655
K0 Se1 3.346534 1_565
K0 Se4 3.406452 1_555
K0 Se6 3.454446 1_565
K0 Se3 3.476827 1_555
K0 Se7 3.539396 1_555
K0 Se5 3.554438 1_555
K0 Se4 3.700483 1_565
K1 Se0 3.310111 1_545
K1 Se3 3.326088 1_455
K1 Se5 3.385528 1_555
K1 Se7 3.399700 1_545
K1 Se2 3.427533 1_555
K1 Se4 3.554020 1_555
K1 Se6 3.673187 1_555
K1 Se5 3.805258 1_545
K1 Se6 3.930589 1_455
Sb0 Se1 2.568956 1_455
Sb0 Se7 2.682331 1_545
Sb0 Se2 2.851881 1_555
Sb0 Se0 2.862082 1_544
As0 Se3 2.377361 1_555
As0 Se6 2.432113 1_555
As0 Se5 2.507787 1_555
As1 Se2 2.389837 1_555
As1 Se7 2.406969 1_555
As1 Se4 2.489968 1_555
As2 Se0 2.375833 1_655
As2 Se6 2.467707 1_565
As2 Se1 2.654529 1_566
As2 Se3 2.843070 1_555
Se4 Se5 2.415634 1_555
