# generated using pymatgen
data_LiNbO3
_symmetry_space_group_name_H-M   'P 1'
_cell_length_a   5.15394329
_cell_length_b   5.53152931
_cell_length_c   17.21247029
_cell_angle_alpha   87.57036457
_cell_angle_beta   98.63069517
_cell_angle_gamma   117.77099083
_symmetry_Int_Tables_number   1
_chemical_formula_structural   LiNbO3
_chemical_formula_sum   'Li8 Nb8 O24'
_cell_volume   429.06236196
_cell_formula_units_Z   8
loop_
 _symmetry_equiv_pos_site_id
 _symmetry_equiv_pos_as_xyz
  1  'x, y, z'
loop_
 _atom_site_type_symbol
 _atom_site_label
 _atom_site_symmetry_multiplicity
 _atom_site_fract_x
 _atom_site_fract_y
 _atom_site_fract_z
 _atom_site_occupancy
  Li  Li0  1  0.44015639  0.80784954  0.07357330  1
  Li  Li1  1  0.93930490  0.55733773  0.32341172  1
  Li  Li2  1  0.19250187  0.18436056  0.19890033  1
  Li  Li3  1  0.43942237  0.30738526  0.57340122  1
  Li  Li4  1  0.69229906  0.93311764  0.44859248  1
  Li  Li5  1  0.93903964  0.05720976  0.82336664  1
  Li  Li6  1  0.19178317  0.68415994  0.69890677  1
  Li  Li7  1  0.69235631  0.43324804  0.94856107  1
  Nb  Nb0  1  0.01759992  0.03199841  0.00293925  1
  Nb  Nb1  1  0.51734022  0.78189030  0.25284971  1
  Nb  Nb2  1  0.76758491  0.40691916  0.12784411  1
  Nb  Nb3  1  0.01695320  0.53157592  0.50288201  1
  Nb  Nb4  1  0.26721066  0.15643452  0.37776417  1
  Nb  Nb5  1  0.51691147  0.28207397  0.75291988  1
  Nb  Nb6  1  0.76686327  0.90676937  0.62782866  1
  Nb  Nb7  1  0.26733411  0.65683178  0.87798356  1
  O  O0  1  0.48037091  0.04161310  0.18227583  1
  O  O1  1  0.43715600  0.19528763  0.02879973  1
  O  O2  1  0.91939846  0.12936389  0.09480035  1
  O  O3  1  0.53735598  0.57003303  0.15380811  1
  O  O4  1  0.05523617  0.50415842  0.21973956  1
  O  O5  1  0.98017421  0.79112542  0.43216068  1
  O  O6  1  0.99406373  0.66673591  0.05735688  1
  O  O7  1  0.93692628  0.94454280  0.27879972  1
  O  O8  1  0.41960344  0.87912163  0.34475066  1
  O  O9  1  0.03739578  0.31977229  0.40382280  1
  O  O10  1  0.55506802  0.25396708  0.46964385  1
  O  O11  1  0.47987153  0.54187751  0.68236188  1
  O  O12  1  0.49334684  0.41601062  0.30712847  1
  O  O13  1  0.43661543  0.69483803  0.52885331  1
  O  O14  1  0.91882489  0.62919817  0.59470008  1
  O  O15  1  0.53712172  0.07030317  0.65385902  1
  O  O16  1  0.05475777  0.00423702  0.71969849  1
  O  O17  1  0.98024562  0.29159400  0.93233621  1
  O  O18  1  0.99342878  0.16630172  0.55724624  1
  O  O19  1  0.93631423  0.44506911  0.77893857  1
  O  O20  1  0.41885284  0.37941363  0.84479801  1
  O  O21  1  0.03673271  0.81977456  0.90391911  1
  O  O22  1  0.55509526  0.75461293  0.96979925  1
  O  O23  1  0.49297692  0.91648644  0.80727829  1
loop_
_geom_bond_atom_site_label_1
_geom_bond_atom_site_label_2
_geom_bond_distance
_geom_bond_site_symmetry_2
Li0 O6 2.031430 1_455
Li0 O3 2.034989 1_555
Li0 O22 2.037871 1_554
Li0 O0 2.248280 1_565
Li0 O1 2.252647 1_565
Li0 O2 2.255653 1_565
Li1 O12 2.030604 1_555
Li1 O9 2.037886 1_655
Li1 O4 2.038656 1_655
Li1 O5 2.248017 1_555
Li1 O7 2.249323 1_555
Li1 O8 2.259969 1_655
Li2 O0 2.035903 1_555
Li2 O7 2.036386 1_445
Li2 O2 2.043187 1_455
Li2 O12 2.236156 1_555
Li2 O3 2.247850 1_555
Li2 O4 2.248244 1_555
Li3 O18 2.030995 1_455
Li3 O15 2.035526 1_555
Li3 O10 2.039710 1_555
Li3 O13 2.251161 1_555
Li3 O11 2.253948 1_555
Li3 O14 2.256744 1_555
Li4 O5 2.031989 1_555
Li4 O13 2.038561 1_555
Li4 O8 2.039450 1_555
Li4 O18 2.244548 1_565
Li4 O9 2.249085 1_665
Li4 O10 2.254466 1_565
Li5 O23 2.031621 1_545
Li5 O16 2.037689 1_655
Li5 O21 2.037943 1_645
Li5 O19 2.252493 1_555
Li5 O17 2.252570 1_555
Li5 O20 2.258922 1_655
Li6 O11 2.034705 1_555
Li6 O19 2.036551 1_455
Li6 O14 2.044281 1_455
Li6 O23 2.239625 1_555
Li6 O16 2.248627 1_565
Li6 O15 2.250000 1_565
Li7 O17 2.029745 1_555
Li7 O1 2.036604 1_556
Li7 O20 2.040560 1_555
Li7 O21 2.246278 1_655
Li7 O6 2.247764 1_556
Li7 O22 2.258033 1_555
Nb0 O2 1.900708 1_455
Nb0 O1 1.901298 1_555
Nb0 O17 1.901403 1_454
Nb0 O22 2.149316 1_444
Nb0 O6 2.149317 1_445
Nb0 O21 2.149578 1_544
Nb1 O8 1.899734 1_555
Nb1 O0 1.900944 1_565
Nb1 O7 1.901725 1_555
Nb1 O4 2.148131 1_555
Nb1 O3 2.150575 1_555
Nb1 O12 2.150664 1_555
Nb2 O3 1.900745 1_555
Nb2 O6 1.901028 1_555
Nb2 O4 1.901153 1_655
Nb2 O1 2.148727 1_555
Nb2 O2 2.149398 1_555
Nb2 O0 2.149547 1_555
Nb3 O14 1.900485 1_455
Nb3 O5 1.901356 1_455
Nb3 O13 1.901947 1_555
Nb3 O10 2.147444 1_455
Nb3 O18 2.149022 1_455
Nb3 O9 2.151573 1_555
Nb4 O9 1.900396 1_555
Nb4 O10 1.901439 1_555
Nb4 O12 1.901594 1_555
Nb4 O7 2.147757 1_445
Nb4 O5 2.148966 1_445
Nb4 O8 2.150217 1_545
Nb5 O20 1.900519 1_555
Nb5 O19 1.900906 1_555
Nb5 O11 1.901258 1_555
Nb5 O16 2.148689 1_555
Nb5 O23 2.149866 1_545
Nb5 O15 2.150983 1_555
Nb6 O15 1.900735 1_565
Nb6 O16 1.901432 1_665
Nb6 O18 1.901637 1_565
Nb6 O13 2.147855 1_555
Nb6 O11 2.148683 1_555
Nb6 O14 2.150550 1_555
Nb7 O22 1.900319 1_555
Nb7 O21 1.901532 1_555
Nb7 O23 1.901718 1_555
Nb7 O17 2.148436 1_455
Nb7 O20 2.148455 1_555
Nb7 O19 2.150165 1_455
