# generated using pymatgen
data_NaYSnI6
_symmetry_space_group_name_H-M   'P 1'
_cell_length_a   8.49031244
_cell_length_b   8.49387757
_cell_length_c   8.48298758
_cell_angle_alpha   54.83675324
_cell_angle_beta   54.85145124
_cell_angle_gamma   54.81747743
_symmetry_Int_Tables_number   1
_chemical_formula_structural   NaYSnI6
_chemical_formula_sum   'Na1 Y1 Sn1 I6'
_cell_volume   380.55999344
_cell_formula_units_Z   1
loop_
 _symmetry_equiv_pos_site_id
 _symmetry_equiv_pos_as_xyz
  1  'x, y, z'
loop_
 _atom_site_type_symbol
 _atom_site_label
 _atom_site_symmetry_multiplicity
 _atom_site_fract_x
 _atom_site_fract_y
 _atom_site_fract_z
 _atom_site_occupancy
  Na  Na0  1  0.66692272  0.66674869  0.66696375  1
  Y  Y0  1  0.99996001  0.00017289  0.00008007  1
  Sn  Sn0  1  0.33284609  0.33296148  0.33290358  1
  I  I0  1  0.23536099  0.60052233  0.91896406  1
  I  I1  1  0.60053533  0.91937499  0.23522337  1
  I  I2  1  0.91920677  0.23578135  0.60001985  1
  I  I3  1  0.76235559  0.39825849  0.08472342  1
  I  I4  1  0.39813788  0.08428819  0.76254281  1
  I  I5  1  0.08467761  0.76189258  0.39857909  1
loop_
_geom_bond_atom_site_label_1
_geom_bond_atom_site_label_2
_geom_bond_distance
_geom_bond_site_symmetry_2
I0 Y0 3.046298 1_466
I0 Sn0 3.188597 1_556
I0 Na0 3.206757 1_555
I1 Y0 3.044158 1_565
I1 Sn0 3.190099 1_565
I1 Na0 3.204188 1_555
I2 Y0 3.044257 1_556
I2 Sn0 3.189526 1_655
I2 Na0 3.204480 1_555
I3 Y0 3.047370 1_555
I3 Sn0 3.191272 1_555
I3 Na0 3.206897 1_554
I4 Y0 3.046527 1_456
I4 Sn0 3.187799 1_555
I4 Na0 3.209073 1_545
I5 Y0 3.046753 1_465
I5 Sn0 3.188052 1_555
I5 Na0 3.209815 1_455
