# generated using pymatgen
data_Ti16IrPd7O4
_symmetry_space_group_name_H-M   'P 1'
_cell_length_a   8.24007088
_cell_length_b   8.26953986
_cell_length_c   8.26953990
_cell_angle_alpha   59.99999590
_cell_angle_beta   59.88162206
_cell_angle_gamma   59.88162300
_symmetry_Int_Tables_number   1
_chemical_formula_structural   Ti16IrPd7O4
_chemical_formula_sum   'Ti16 Ir1 Pd7 O4'
_cell_volume   397.73996787
_cell_formula_units_Z   1
loop_
 _symmetry_equiv_pos_site_id
 _symmetry_equiv_pos_as_xyz
  1  'x, y, z'
loop_
 _atom_site_type_symbol
 _atom_site_label
 _atom_site_symmetry_multiplicity
 _atom_site_fract_x
 _atom_site_fract_y
 _atom_site_fract_z
 _atom_site_occupancy
  Ti  Ti0  1  0.11884207  0.62705264  0.62705264  1
  Ti  Ti1  1  0.62353197  0.12905528  0.62370587  1
  Ti  Ti2  1  0.62353197  0.62370587  0.12905528  1
  Ti  Ti3  1  0.62353197  0.62370587  0.62370587  1
  Ti  Ti4  1  0.81987359  0.81804632  0.18104005  1
  Ti  Ti5  1  0.17960014  0.17678555  0.82180666  1
  Ti  Ti6  1  0.81987359  0.18104005  0.81804632  1
  Ti  Ti7  1  0.17960014  0.82180666  0.17678555  1
  Ti  Ti8  1  0.17960014  0.82180666  0.82180666  1
  Ti  Ti9  1  0.81987359  0.18104005  0.18104005  1
  Ti  Ti10  1  0.42835220  0.42773998  0.07195391  1
  Ti  Ti11  1  0.06846170  0.07089326  0.43032252  1
  Ti  Ti12  1  0.42835220  0.07195391  0.42773998  1
  Ti  Ti13  1  0.06846170  0.43032252  0.07089326  1
  Ti  Ti14  1  0.06846170  0.43032252  0.43032252  1
  Ti  Ti15  1  0.42835220  0.07195391  0.07195391  1
  Ir  Ir0  1  0.78640058  0.40453314  0.40453314  1
  Pd  Pd0  1  0.40966399  0.76243054  0.41395323  1
  Pd  Pd1  1  0.40966399  0.41395323  0.76243054  1
  Pd  Pd2  1  0.40966399  0.41395323  0.41395323  1
  Pd  Pd3  1  0.48972856  0.83675681  0.83675681  1
  Pd  Pd4  1  0.83716840  0.48097215  0.84092872  1
  Pd  Pd5  1  0.83716840  0.84092872  0.48097215  1
  Pd  Pd6  1  0.83716840  0.84092872  0.84092872  1
  O  O0  1  0.62602409  0.12465897  0.12465897  1
  O  O1  1  0.12634958  0.62553864  0.12405639  1
  O  O2  1  0.12634958  0.12405639  0.62553864  1
  O  O3  1  0.12634958  0.12405639  0.12405639  1
loop_
_geom_bond_atom_site_label_1
_geom_bond_atom_site_label_2
_geom_bond_distance
_geom_bond_site_symmetry_2
Ir0 Ti13 2.556025 1_655
Ir0 Ti11 2.556025 1_655
Ir0 Ti14 2.556025 1_655
Ir0 Ti3 2.602670 1_555
Ir0 Ti1 2.602677 1_555
Ir0 Ti2 2.602677 1_555
Pd0 Ti3 2.545455 1_555
Pd0 Ti2 2.545468 1_555
Pd0 Ti0 2.565719 1_555
Pd0 Ti11 2.682492 1_565
Pd0 Ti12 2.700622 1_565
Pd0 Ti15 2.700626 1_565
Pd1 Ti3 2.545454 1_555
Pd1 Ti1 2.545468 1_555
Pd1 Ti0 2.565719 1_555
Pd1 Ti13 2.682492 1_556
Pd1 Ti10 2.700622 1_556
Pd1 Ti15 2.700626 1_556
Pd2 Ti2 2.545458 1_555
Pd2 Ti1 2.545458 1_555
Pd2 Ti0 2.565714 1_555
Pd2 Ti14 2.682496 1_555
Pd2 Ti12 2.700630 1_555
Pd2 Ti10 2.700630 1_555
Pd3 Ti1 2.574660 1_565
Pd3 Ti2 2.574660 1_556
Pd3 Ti3 2.574660 1_555
Pd3 Ti7 2.685231 1_556
Pd3 Ti5 2.685231 1_565
Pd3 Ti8 2.685231 1_555
Pd4 Ti0 2.555793 1_655
Pd4 Ti3 2.585909 1_555
Pd4 Ti2 2.585915 1_556
Pd4 Ti6 2.656905 1_555
Pd4 Ti9 2.656914 1_556
Pd4 Ti5 2.672302 1_655
Pd5 Ti0 2.555793 1_655
Pd5 Ti3 2.585909 1_555
Pd5 Ti1 2.585915 1_565
Pd5 Ti4 2.656905 1_555
Pd5 Ti9 2.656914 1_565
Pd5 Ti7 2.672302 1_655
Pd6 Ti0 2.555783 1_655
Pd6 Ti2 2.585910 1_556
Pd6 Ti1 2.585910 1_565
Pd6 Ti6 2.656921 1_565
Pd6 Ti4 2.656921 1_556
Pd6 Ti8 2.672306 1_655
O0 Ti12 2.155892 1_555
O0 Ti10 2.155892 1_555
O0 Ti15 2.155897 1_555
O0 Ti9 2.167592 1_555
O0 Ti6 2.167598 1_554
O0 Ti4 2.167598 1_545
O1 Ti10 2.144199 1_555
O1 Ti7 2.152071 1_555
O1 Ti8 2.152082 1_554
O1 Ti4 2.157579 1_455
O1 Ti14 2.172528 1_555
O1 Ti13 2.172534 1_555
O2 Ti12 2.144199 1_555
O2 Ti5 2.152071 1_555
O2 Ti8 2.152082 1_545
O2 Ti6 2.157579 1_455
O2 Ti14 2.172528 1_555
O2 Ti11 2.172534 1_555
O3 Ti15 2.144197 1_555
O3 Ti7 2.152087 1_545
O3 Ti5 2.152087 1_554
O3 Ti9 2.157581 1_455
O3 Ti13 2.172526 1_555
O3 Ti11 2.172526 1_555
