# generated using pymatgen
data_K4Ba2HfAs4
_symmetry_space_group_name_H-M   'P 1'
_cell_length_a   10.55699098
_cell_length_b   10.55699069
_cell_length_c   8.13299892
_cell_angle_alpha   89.09671520
_cell_angle_beta   89.09670921
_cell_angle_gamma   120.01476906
_symmetry_Int_Tables_number   1
_chemical_formula_structural   K4Ba2HfAs4
_chemical_formula_sum   'K8 Ba4 Hf2 As8'
_cell_volume   784.47826049
_cell_formula_units_Z   2
loop_
 _symmetry_equiv_pos_site_id
 _symmetry_equiv_pos_as_xyz
  1  'x, y, z'
loop_
 _atom_site_type_symbol
 _atom_site_label
 _atom_site_symmetry_multiplicity
 _atom_site_fract_x
 _atom_site_fract_y
 _atom_site_fract_z
 _atom_site_occupancy
  K  K0  1  0.47256215  0.94177899  0.38223674  1
  K  K1  1  0.94177899  0.47256215  0.88223674  1
  K  K2  1  0.86611608  0.72484451  0.18567485  1
  K  K3  1  0.27275187  0.12904154  0.22788112  1
  K  K4  1  0.85559294  0.13782973  0.20581432  1
  K  K5  1  0.12904154  0.27275187  0.72788112  1
  K  K6  1  0.72484451  0.86611608  0.68567485  1
  K  K7  1  0.13782973  0.85559294  0.70581432  1
  Ba  Ba0  1  0.06241956  0.53395071  0.38945218  1
  Ba  Ba1  1  0.47523761  0.53495478  0.38163718  1
  Ba  Ba2  1  0.53395071  0.06241956  0.88945218  1
  Ba  Ba3  1  0.53495478  0.47523761  0.88163718  1
  Hf  Hf0  1  0.66386472  0.33119323  0.48895131  1
  Hf  Hf1  1  0.33119323  0.66386472  0.98895131  1
  As  As0  1  0.65412892  0.33201143  0.16868854  1
  As  As1  1  0.33201143  0.65412892  0.66868854  1
  As  As2  1  0.20531269  0.39930493  0.11355887  1
  As  As3  1  0.60349524  0.79828432  0.08005889  1
  As  As4  1  0.20313896  0.80199509  0.09371600  1
  As  As5  1  0.79828432  0.60349524  0.58005889  1
  As  As6  1  0.39930493  0.20531269  0.61355887  1
  As  As7  1  0.80199509  0.20313896  0.59371600  1
loop_
_geom_bond_atom_site_label_1
_geom_bond_atom_site_label_2
_geom_bond_distance
_geom_bond_site_symmetry_2
As0 Hf0 2.608391 1_555
As0 Ba3 3.347224 1_554
As0 Ba2 3.398461 1_554
As0 K1 3.465680 1_554
As0 K3 3.508384 1_555
As0 K2 3.601225 1_555
As0 K4 3.630392 1_555
As1 Hf1 2.608391 1_555
As1 Ba1 3.347224 1_555
As1 Ba0 3.398461 1_555
As1 K0 3.465680 1_555
As1 K5 3.508384 1_555
As1 K6 3.601225 1_555
As1 K7 3.630392 1_555
As2 Hf1 2.597825 1_554
As2 Ba1 3.337114 1_555
As2 K5 3.377544 1_554
As2 K4 3.385998 1_455
As2 Ba0 3.386750 1_555
As2 K3 3.388422 1_555
As2 Ba3 3.642180 1_554
As2 K1 3.761583 1_454
As3 Hf1 2.616440 1_554
As3 K2 3.351146 1_555
As3 K6 3.364880 1_554
As3 Ba1 3.389985 1_555
As3 K4 3.411078 1_565
As3 K0 3.514327 1_555
As3 Ba3 3.535559 1_554
As3 Ba2 3.558861 1_564
As4 Hf1 2.579746 1_554
As4 K2 3.298401 1_455
As4 K7 3.339299 1_554
As4 K3 3.355136 1_565
As4 Ba0 3.386228 1_555
As4 K0 3.448823 1_555
As4 Ba2 3.547164 1_564
As4 K1 3.661226 1_454
As5 Hf0 2.616439 1_555
As5 K6 3.351145 1_555
As5 K2 3.364880 1_555
As5 Ba3 3.389985 1_555
As5 K7 3.411078 1_655
As5 K1 3.514327 1_555
As5 Ba1 3.535559 1_555
As5 Ba0 3.558861 1_655
As6 Hf0 2.597825 1_555
As6 Ba3 3.337114 1_555
As6 K3 3.377544 1_555
As6 K7 3.385998 1_545
As6 Ba2 3.386751 1_555
As6 K5 3.388422 1_555
As6 Ba1 3.642180 1_555
As6 K0 3.761583 1_545
As7 Hf0 2.579747 1_555
As7 K6 3.298401 1_545
As7 K4 3.339299 1_555
As7 K5 3.355136 1_655
As7 Ba2 3.386228 1_555
As7 K1 3.448822 1_555
As7 Ba0 3.547164 1_655
As7 K0 3.661226 1_545
