# generated using pymatgen
data_Sn14(RuRh)3
_symmetry_space_group_name_H-M   'P 1'
_cell_length_a   8.14521318
_cell_length_b   8.14521356
_cell_length_c   8.14521290
_cell_angle_alpha   109.29228822
_cell_angle_beta   109.47175764
_cell_angle_gamma   109.64981531
_symmetry_Int_Tables_number   1
_chemical_formula_structural   Sn14(RuRh)3
_chemical_formula_sum   'Sn14 Ru3 Rh3'
_cell_volume   415.98842035
_cell_formula_units_Z   1
loop_
 _symmetry_equiv_pos_site_id
 _symmetry_equiv_pos_as_xyz
  1  'x, y, z'
loop_
 _atom_site_type_symbol
 _atom_site_label
 _atom_site_symmetry_multiplicity
 _atom_site_fract_x
 _atom_site_fract_y
 _atom_site_fract_z
 _atom_site_occupancy
  Sn  Sn0  1  0.25346175  0.75112083  0.50234092  1
  Sn  Sn1  1  0.75122010  0.24887917  0.50234092  1
  Sn  Sn2  1  0.74769277  0.50000000  0.24769277  1
  Sn  Sn3  1  0.25255255  0.50000000  0.75255255  1
  Sn  Sn4  1  0.50277830  0.74878755  0.25156585  1
  Sn  Sn5  1  0.50277830  0.25121245  0.75398975  1
  Sn  Sn6  1  0.99767943  0.99762326  0.32398933  1
  Sn  Sn7  1  0.67310433  0.99765302  0.99771644  1
  Sn  Sn8  1  0.99767943  0.67369010  0.00005617  1
  Sn  Sn9  1  0.32636607  0.32630990  0.32398933  1
  Sn  Sn10  1  0.00006342  0.32461212  0.99771644  1
  Sn  Sn11  1  0.67310433  0.67538788  0.67545130  1
  Sn  Sn12  1  0.32636607  0.00237674  0.00005617  1
  Sn  Sn13  1  0.00006342  0.00234698  0.67545130  1
  Ru  Ru0  1  0.34330604  0.34369585  0.99961020  1
  Ru  Ru1  1  0.65591435  0.65630415  0.99961020  1
  Ru  Ru2  1  0.65408268  0.00000000  0.65408268  1
  Rh  Rh0  1  0.34247022  1.00000000  0.34247022  1
  Rh  Rh1  1  0.99965823  0.34512797  0.34478620  1
  Rh  Rh2  1  0.99965823  0.65487203  0.65453126  1
loop_
_geom_bond_atom_site_label_1
_geom_bond_atom_site_label_2
_geom_bond_distance
_geom_bond_site_symmetry_2
Sn6 Sn8 3.053407 1_555
Sn6 Sn7 3.060845 1_554
Sn6 Sn9 3.084573 1_665
Sn10 Sn8 2.843722 1_456
Sn10 Sn13 3.037684 1_555
Sn10 Sn9 3.060845 1_556
Sn10 Sn7 3.068361 1_445
Sn11 Sn9 2.843721 1_555
Sn11 Sn7 3.037684 1_555
Sn11 Sn8 3.060845 1_556
Sn11 Sn13 3.068361 1_665
Sn12 Sn7 2.843721 1_544
Sn12 Sn9 3.053407 1_555
Sn12 Sn13 3.060845 1_554
Sn12 Sn8 3.084573 1_445
Sn13 Sn6 2.843721 1_445
Ru0 Sn9 2.738087 1_556
Ru0 Sn12 2.738087 1_556
Ru0 Sn13 2.741934 1_555
Ru0 Sn10 2.741934 1_555
Ru0 Sn3 2.747888 1_555
Ru0 Sn2 2.756044 1_556
Ru0 Sn4 2.766211 1_556
Ru0 Sn5 2.766217 1_555
Ru0 Ru1 2.933685 1_555
Ru1 Sn6 2.738087 1_556
Ru1 Sn8 2.738087 1_556
Ru1 Sn11 2.741934 1_555
Ru1 Sn7 2.741934 1_555
Ru1 Sn3 2.747888 1_555
Ru1 Sn2 2.756045 1_556
Ru1 Sn4 2.766211 1_556
Ru1 Sn5 2.766212 1_555
Ru2 Sn0 2.737134 1_545
Ru2 Sn1 2.737134 1_555
Ru2 Sn7 2.758050 1_545
Ru2 Sn10 2.758050 1_655
Ru2 Sn13 2.758050 1_655
Ru2 Sn11 2.758050 1_545
Ru2 Sn5 2.762643 1_555
Ru2 Sn4 2.762645 1_545
Rh0 Sn12 2.754956 1_565
Rh0 Sn8 2.754956 1_455
Rh0 Sn6 2.754956 1_455
Rh0 Sn9 2.754956 1_565
Rh0 Sn1 2.777764 1_565
Rh0 Sn0 2.777765 1_555
Rh0 Sn5 2.807197 1_565
Rh0 Sn4 2.807203 1_555
Rh0 Ru2 2.930784 1_565
Rh1 Sn1 2.772284 1_555
Rh1 Sn0 2.772284 1_655
Rh1 Sn9 2.773330 1_655
Rh1 Sn6 2.773330 1_545
Rh1 Sn10 2.777420 1_654
Rh1 Sn7 2.777420 1_544
Rh1 Sn2 2.783345 1_555
Rh1 Sn3 2.790787 1_655
Rh1 Rh2 2.919665 1_555
Rh2 Sn1 2.772282 1_555
Rh2 Sn0 2.772290 1_655
Rh2 Sn8 2.773322 1_556
Rh2 Sn12 2.773327 1_666
Rh2 Sn11 2.777417 1_555
Rh2 Sn13 2.777422 1_665
Rh2 Sn2 2.783352 1_555
Rh2 Sn3 2.790786 1_655
