# generated using pymatgen
data_Zr6Zn6Cu17C
_symmetry_space_group_name_H-M   'P 1'
_cell_length_a   8.34334163
_cell_length_b   8.33884038
_cell_length_c   8.34333986
_cell_angle_alpha   60.01783525
_cell_angle_beta   60.07438151
_cell_angle_gamma   60.01783377
_symmetry_Int_Tables_number   1
_chemical_formula_structural   Zr6Zn6Cu17C
_chemical_formula_sum   'Zr6 Zn6 Cu17 C1'
_cell_volume   410.80083179
_cell_formula_units_Z   1
loop_
 _symmetry_equiv_pos_site_id
 _symmetry_equiv_pos_as_xyz
  1  'x, y, z'
loop_
 _atom_site_type_symbol
 _atom_site_label
 _atom_site_symmetry_multiplicity
 _atom_site_fract_x
 _atom_site_fract_y
 _atom_site_fract_z
 _atom_site_occupancy
  Zr  Zr0  1  0.69625664  0.30116517  0.30374336  1
  Zr  Zr1  1  0.30374336  0.69883483  0.69625664  1
  Zr  Zr2  1  0.30114539  0.69885461  0.30114539  1
  Zr  Zr3  1  0.69885461  0.30114539  0.69885461  1
  Zr  Zr4  1  0.30374336  0.30116517  0.69625664  1
  Zr  Zr5  1  0.69625664  0.69883483  0.30374336  1
  Zn  Zn0  1  0.50000000  0.00000000  0.00000000  1
  Zn  Zn1  1  0.00000000  0.50000000  0.50000000  1
  Zn  Zn2  1  0.00000000  0.50000000  0.00000000  1
  Zn  Zn3  1  0.00000000  0.00000000  0.50000000  1
  Zn  Zn4  1  0.50000000  0.50000000  0.00000000  1
  Zn  Zn5  1  0.00000000  0.00000000  0.00000000  1
  Cu  Cu0  1  0.11939224  0.12025773  0.11939224  1
  Cu  Cu1  1  0.88060776  0.87974227  0.88060776  1
  Cu  Cu2  1  0.12228681  0.11848501  0.64074417  1
  Cu  Cu3  1  0.11939224  0.64095879  0.11939224  1
  Cu  Cu4  1  0.87771319  0.88151499  0.35925583  1
  Cu  Cu5  1  0.88060776  0.35904121  0.88060776  1
  Cu  Cu6  1  0.64074417  0.11848501  0.12228681  1
  Cu  Cu7  1  0.35925583  0.88151499  0.87771319  1
  Cu  Cu8  1  0.50000000  0.00000000  0.50000000  1
  Cu  Cu9  1  0.32868600  0.32485940  0.32868600  1
  Cu  Cu10  1  0.67131400  0.67514060  0.67131400  1
  Cu  Cu11  1  0.32768374  0.32791900  0.01647826  1
  Cu  Cu12  1  0.32868600  0.01776959  0.32868600  1
  Cu  Cu13  1  0.67231626  0.67208100  0.98352174  1
  Cu  Cu14  1  0.67131400  0.98223041  0.67131400  1
  Cu  Cu15  1  0.01647826  0.32791900  0.32768374  1
  Cu  Cu16  1  0.98352174  0.67208100  0.67231626  1
  C  C0  1  0.50000000  0.50000000  0.50000000  1
loop_
_geom_bond_atom_site_label_1
_geom_bond_atom_site_label_2
_geom_bond_distance
_geom_bond_site_symmetry_2
Zn0 Zr3 3.011724 1_554
Zn0 Zr2 3.011724 1_545
Zn0 Zr5 3.013282 1_545
Zn0 Zr4 3.013282 1_554
Zn1 Zr2 3.011725 1_555
Zn1 Zr3 3.011725 1_455
Zn1 Zr4 3.013283 1_555
Zn1 Zr5 3.013283 1_455
Zn2 Zr5 3.030829 1_455
Zn2 Zr4 3.030829 1_554
Zn2 Zr0 3.030829 1_455
Zn2 Zr1 3.030829 1_554
Zn3 Zr3 3.011724 1_455
Zn3 Zr2 3.011724 1_545
Zn3 Zr1 3.013283 1_545
Zn3 Zr0 3.013283 1_455
Zn4 Zr2 3.011724 1_555
Zn4 Zr3 3.011724 1_554
Zn4 Zr0 3.013283 1_555
Zn4 Zr1 3.013283 1_554
Cu0 Zn5 2.444791 1_555
Cu0 Zn2 2.587799 1_555
Cu0 Zn3 2.596433 1_555
Cu0 Zn0 2.596434 1_555
Cu0 Cu15 2.605537 1_555
Cu0 Cu11 2.605537 1_555
Cu0 Cu12 2.624529 1_555
Cu0 Cu5 2.816656 1_454
Cu0 Cu7 2.835180 1_544
Cu0 Cu4 2.835181 1_445
Cu0 Zr2 2.930875 1_545
Cu0 Zr4 2.946746 1_554
Cu0 Zr0 2.946746 1_455
Cu1 Zn5 2.444791 1_666
Cu1 Zn2 2.587799 1_656
Cu1 Zn3 2.596433 1_665
Cu1 Zn0 2.596434 1_566
Cu1 Cu16 2.605537 1_555
Cu1 Cu13 2.605537 1_555
Cu1 Cu14 2.624529 1_555
Cu1 Cu3 2.816656 1_656
Cu1 Cu6 2.835180 1_566
Cu1 Cu2 2.835181 1_665
Cu1 Zr3 2.930875 1_565
Cu1 Zr5 2.946746 1_556
Cu1 Zr1 2.946746 1_655
Cu2 Zn5 2.449050 1_556
Cu2 Cu8 2.577152 1_555
Cu2 Cu9 2.591543 1_555
Cu2 Zn1 2.599725 1_555
Cu2 Zn3 2.599732 1_555
Cu2 Cu7 2.795241 1_545
Cu2 Cu5 2.835169 1_455
Cu2 Zr4 2.921807 1_555
Cu2 Zr1 2.921814 1_545
Cu2 Zr3 2.947363 1_455
Cu3 Zn5 2.444784 1_565
Cu3 Zn2 2.587806 1_555
Cu3 Zn1 2.596434 1_555
Cu3 Zn4 2.596434 1_555
Cu3 Cu9 2.624529 1_555
Cu3 Cu4 2.835169 1_455
Cu3 Cu7 2.835169 1_554
Cu3 Zr2 2.930870 1_555
Cu3 Zr1 2.946747 1_554
Cu3 Zr5 2.946748 1_455
Cu4 Zn5 2.449050 1_665
Cu4 Cu8 2.577152 1_565
Cu4 Zn1 2.599725 1_655
Cu4 Zn3 2.599732 1_665
Cu4 Cu6 2.795241 1_565
Cu4 Zr5 2.921807 1_555
Cu4 Zr0 2.921814 1_565
Cu4 Zr2 2.947363 1_655
Cu5 Zn5 2.444784 1_656
Cu5 Zn2 2.587806 1_656
Cu5 Zn1 2.596434 1_655
Cu5 Zn4 2.596434 1_556
Cu5 Cu6 2.835169 1_556
Cu5 Zr3 2.930870 1_555
Cu5 Zr0 2.946747 1_556
Cu5 Zr4 2.946748 1_655
Cu6 Zn5 2.449051 1_655
Cu6 Cu8 2.577152 1_555
Cu6 Cu9 2.591543 1_555
Cu6 Zn4 2.599725 1_555
Cu6 Zn0 2.599732 1_555
Cu6 Zr0 2.921807 1_555
Cu6 Zr5 2.921814 1_545
Cu6 Zr3 2.947363 1_554
Cu7 Zn5 2.449051 1_566
Cu7 Cu8 2.577152 1_565
Cu7 Zn4 2.599725 1_556
Cu7 Zn0 2.599732 1_566
Cu7 Zr1 2.921807 1_555
Cu7 Zr4 2.921814 1_565
Cu7 Zr2 2.947363 1_556
Cu8 Cu9 2.392275 1_555
Cu8 Zr4 2.999033 1_555
Cu8 Zr5 2.999033 1_545
Cu8 Zr1 2.999033 1_545
Cu8 Zr0 2.999033 1_555
Cu9 Zn4 2.422584 1_555
Cu9 Zn1 2.422584 1_555
Cu9 Zr4 2.878561 1_555
Cu9 Zr0 2.878562 1_555
Cu9 Zr2 2.907237 1_555
Cu10 Cu8 2.392275 1_565
Cu10 Zn4 2.422584 1_556
Cu10 Zn1 2.422584 1_655
Cu10 Cu14 2.560773 1_555
Cu10 Cu7 2.591543 1_555
Cu10 Cu4 2.591543 1_555
Cu10 Cu13 2.596361 1_555
Cu10 Cu16 2.596361 1_555
Cu10 Cu5 2.624529 1_555
Cu10 Zr5 2.878561 1_555
Cu10 Zr1 2.878562 1_555
Cu10 Zr3 2.907237 1_555
Cu11 Zn2 2.410283 1_555
Cu11 Zn0 2.410909 1_555
Cu11 Zn4 2.410910 1_555
Cu11 Cu12 2.596356 1_555
Cu11 Cu9 2.596361 1_555
Cu11 Cu15 2.599412 1_555
Cu11 Cu3 2.605544 1_555
Cu11 Cu6 2.617692 1_555
Cu11 Zr3 2.893938 1_554
Cu11 Zr1 2.898356 1_554
Cu11 Zr4 2.898356 1_554
Cu12 Cu8 2.392271 1_555
Cu12 Zn0 2.422587 1_555
Cu12 Zn3 2.422587 1_555
Cu12 Cu9 2.560773 1_555
Cu12 Cu2 2.591543 1_555
Cu12 Cu6 2.591543 1_555
Cu12 Cu15 2.596357 1_555
Cu12 Zr1 2.878565 1_545
Cu12 Zr5 2.878565 1_545
Cu12 Zr2 2.907246 1_545
Cu13 Zn2 2.410283 1_656
Cu13 Zn0 2.410909 1_566
Cu13 Zn4 2.410910 1_556
Cu13 Cu14 2.596356 1_555
Cu13 Cu16 2.599412 1_555
Cu13 Cu5 2.605544 1_555
Cu13 Cu7 2.617692 1_555
Cu13 Zr2 2.893938 1_556
Cu13 Zr0 2.898356 1_556
Cu13 Zr5 2.898356 1_556
Cu14 Cu8 2.392271 1_565
Cu14 Zn0 2.422587 1_566
Cu14 Zn3 2.422587 1_665
Cu14 Cu4 2.591543 1_555
Cu14 Cu7 2.591543 1_555
Cu14 Cu16 2.596357 1_555
Cu14 Zr0 2.878565 1_565
Cu14 Zr4 2.878565 1_565
Cu14 Zr3 2.907246 1_565
Cu15 Zn2 2.410283 1_555
Cu15 Zn3 2.410909 1_555
Cu15 Zn1 2.410909 1_555
Cu15 Cu9 2.596361 1_555
Cu15 Cu3 2.605544 1_555
Cu15 Cu2 2.617692 1_555
Cu15 Zr3 2.893938 1_455
Cu15 Zr5 2.898356 1_455
Cu15 Zr0 2.898356 1_455
Cu16 Zn2 2.410283 1_656
Cu16 Zn3 2.410909 1_665
Cu16 Zn1 2.410909 1_655
Cu16 Cu5 2.605544 1_555
Cu16 Cu4 2.617692 1_555
Cu16 Zr2 2.893938 1_655
Cu16 Zr4 2.898356 1_655
Cu16 Zr1 2.898356 1_655
C0 Zr0 2.331601 1_555
C0 Zr1 2.331601 1_555
C0 Zr5 2.331601 1_555
C0 Zr4 2.331601 1_555
C0 Zr3 2.345651 1_555
C0 Zr2 2.345651 1_555
