# generated using pymatgen
data_Ga10PtPb3O20
_symmetry_space_group_name_H-M   'P 1'
_cell_length_a   9.78282929
_cell_length_b   9.78282969
_cell_length_c   5.21812915
_cell_angle_alpha   74.55053703
_cell_angle_beta   74.55052746
_cell_angle_gamma   73.86896546
_symmetry_Int_Tables_number   1
_chemical_formula_structural   Ga10PtPb3O20
_chemical_formula_sum   'Ga10 Pt1 Pb3 O20'
_cell_volume   452.30757688
_cell_formula_units_Z   1
loop_
 _symmetry_equiv_pos_site_id
 _symmetry_equiv_pos_as_xyz
  1  'x, y, z'
loop_
 _atom_site_type_symbol
 _atom_site_label
 _atom_site_symmetry_multiplicity
 _atom_site_fract_x
 _atom_site_fract_y
 _atom_site_fract_z
 _atom_site_occupancy
  Ga  Ga0  1  0.63536823  0.36463177  0.50000000  1
  Ga  Ga1  1  0.36463177  0.63536823  0.50000000  1
  Ga  Ga2  1  0.27943849  0.00687683  0.37424598  1
  Ga  Ga3  1  0.99312317  0.72056151  0.62575402  1
  Ga  Ga4  1  0.72056151  0.99312317  0.62575402  1
  Ga  Ga5  1  0.00687683  0.27943849  0.37424598  1
  Ga  Ga6  1  0.58133526  0.14836911  0.10566295  1
  Ga  Ga7  1  0.85163089  0.41866474  0.89433705  1
  Ga  Ga8  1  0.41866474  0.85163089  0.89433705  1
  Ga  Ga9  1  0.14836911  0.58133526  0.10566295  1
  Pt  Pt0  1  0.50000000  0.50000000  0.00000000  1
  Pb  Pb0  1  0.00000000  0.00000000  0.00000000  1
  Pb  Pb1  1  0.72479411  0.72479411  0.21027319  1
  Pb  Pb2  1  0.27520589  0.27520589  0.78972681  1
  O  O0  1  0.56743597  0.56743597  0.26689230  1
  O  O1  1  0.43256403  0.43256403  0.73310770  1
  O  O2  1  0.09876260  0.09876260  0.29857149  1
  O  O3  1  0.90123740  0.90123740  0.70142851  1
  O  O4  1  0.39783966  0.12348073  0.13406890  1
  O  O5  1  0.87651927  0.60216034  0.86593110  1
  O  O6  1  0.60216034  0.87651927  0.86593110  1
  O  O7  1  0.12348073  0.39783966  0.13406890  1
  O  O8  1  0.33714910  0.82902934  0.26612704  1
  O  O9  1  0.17097066  0.66285090  0.73387296  1
  O  O10  1  0.66285090  0.17097066  0.73387296  1
  O  O11  1  0.82902934  0.33714910  0.26612704  1
  O  O12  1  0.99132725  0.27911504  0.73304020  1
  O  O13  1  0.72088496  0.00867275  0.26695980  1
  O  O14  1  0.00867275  0.72088496  0.26695980  1
  O  O15  1  0.27911504  0.99132725  0.73304020  1
  O  O16  1  0.69121347  0.45037404  0.74392739  1
  O  O17  1  0.54962596  0.30878653  0.25607261  1
  O  O18  1  0.30878653  0.54962596  0.25607261  1
  O  O19  1  0.45037404  0.69121347  0.74392739  1
loop_
_geom_bond_atom_site_label_1
_geom_bond_atom_site_label_2
_geom_bond_distance
_geom_bond_site_symmetry_2
Ga0 O11 1.952151 1_555
Ga0 O10 1.952151 1_555
Ga0 O16 1.953496 1_555
Ga0 O17 1.953496 1_555
Ga0 O1 2.066343 1_555
Ga0 O0 2.066343 1_555
Ga1 O9 1.952151 1_555
Ga1 O8 1.952151 1_555
Ga1 O18 1.953496 1_555
Ga1 O19 1.953496 1_555
Ga1 O0 2.066343 1_555
Ga1 O1 2.066343 1_555
Ga2 O15 1.836787 1_545
Ga2 O2 1.840643 1_555
Ga2 O4 1.847349 1_555
Ga2 O8 1.863215 1_545
Ga3 O14 1.836787 1_655
Ga3 O3 1.840643 1_555
Ga3 O5 1.847349 1_555
Ga3 O9 1.863215 1_655
Ga4 O13 1.836787 1_565
Ga4 O3 1.840643 1_555
Ga4 O6 1.847349 1_555
Ga4 O10 1.863215 1_565
Ga5 O12 1.836787 1_455
Ga5 O2 1.840643 1_555
Ga5 O7 1.847349 1_555
Ga5 O11 1.863215 1_455
Ga6 O4 1.839983 1_555
Ga6 O13 1.844575 1_555
Ga6 O17 1.852308 1_555
Ga6 O10 1.869168 1_554
Ga7 O5 1.839983 1_555
Ga7 O12 1.844575 1_555
Ga7 O16 1.852308 1_555
Ga7 O11 1.869168 1_556
Ga8 O6 1.839983 1_555
Ga8 O15 1.844575 1_555
Ga8 O19 1.852308 1_555
Ga8 O8 1.869168 1_556
Ga9 O7 1.839983 1_555
Ga9 O14 1.844575 1_555
Ga9 O18 1.852308 1_555
Ga9 O9 1.869168 1_554
O0 Pt0 2.007695 1_555
O0 Pb1 2.378871 1_555
O1 Pt0 2.007695 1_556
O1 Pb2 2.378871 1_555
O2 Pb0 2.533180 1_555
O3 Pb0 2.533180 1_666
O4 Pb2 2.368348 1_554
O5 Pb1 2.368347 1_556
O6 Pb1 2.368348 1_556
O7 Pb2 2.368347 1_554
O12 Pb0 2.703934 1_656
O13 Pb0 2.703934 1_655
O14 Pb0 2.703934 1_565
O15 Pb0 2.703934 1_566
O16 Pt0 2.007397 1_556
O17 Pt0 2.007397 1_555
O18 Pt0 2.007397 1_555
O19 Pt0 2.007397 1_556
