# generated using pymatgen
data_Cr(SCl6)2
_symmetry_space_group_name_H-M   'P 1'
_cell_length_a   8.16456486
_cell_length_b   8.16456450
_cell_length_c   8.16456501
_cell_angle_alpha   78.11424612
_cell_angle_beta   78.11424700
_cell_angle_gamma   78.11424346
_symmetry_Int_Tables_number   1
_chemical_formula_structural   Cr(SCl6)2
_chemical_formula_sum   'Cr1 S2 Cl12'
_cell_volume   513.50695684
_cell_formula_units_Z   1
loop_
 _symmetry_equiv_pos_site_id
 _symmetry_equiv_pos_as_xyz
  1  'x, y, z'
loop_
 _atom_site_type_symbol
 _atom_site_label
 _atom_site_symmetry_multiplicity
 _atom_site_fract_x
 _atom_site_fract_y
 _atom_site_fract_z
 _atom_site_occupancy
  Cr  Cr0  1  0.00000000  0.00000000  0.00000000  1
  S  S0  1  0.21013659  0.21013659  0.21013659  1
  S  S1  1  0.78986341  0.78986341  0.78986341  1
  Cl  Cl0  1  0.83575437  0.83575437  0.53384597  1
  Cl  Cl1  1  0.87041572  0.18442636  0.18442636  1
  Cl  Cl2  1  0.18442636  0.18442636  0.87041572  1
  Cl  Cl3  1  0.18442636  0.87041572  0.18442636  1
  Cl  Cl4  1  0.81557364  0.12958428  0.81557364  1
  Cl  Cl5  1  0.12958428  0.81557364  0.81557364  1
  Cl  Cl6  1  0.81557364  0.81557364  0.12958428  1
  Cl  Cl7  1  0.46615403  0.16424563  0.16424563  1
  Cl  Cl8  1  0.16424563  0.16424563  0.46615403  1
  Cl  Cl9  1  0.16424563  0.46615403  0.16424563  1
  Cl  Cl10  1  0.83575437  0.53384597  0.83575437  1
  Cl  Cl11  1  0.53384597  0.83575437  0.83575437  1
loop_
_geom_bond_atom_site_label_1
_geom_bond_atom_site_label_2
_geom_bond_distance
_geom_bond_site_symmetry_2
Cl0 S1 2.015592 1_555
Cl1 Cr0 2.296844 1_655
Cl2 Cr0 2.296844 1_556
Cl3 Cr0 2.296844 1_565
Cl4 Cr0 2.296844 1_656
Cl5 Cr0 2.296844 1_566
Cl6 Cr0 2.296844 1_665
Cl7 S0 2.015592 1_555
Cl8 S0 2.015592 1_555
Cl9 S0 2.015592 1_555
Cl10 S1 2.015592 1_555
Cl11 S1 2.015592 1_555
