# generated using pymatgen
data_Li2ZrScPt2
_symmetry_space_group_name_H-M   'P 1'
_cell_length_a   5.13114579
_cell_length_b   5.13114591
_cell_length_c   5.12697613
_cell_angle_alpha   90.00000000
_cell_angle_beta   90.00000000
_cell_angle_gamma   130.42796911
_symmetry_Int_Tables_number   1
_chemical_formula_structural   Li2ZrScPt2
_chemical_formula_sum   'Li2 Zr1 Sc1 Pt2'
_cell_volume   102.75459494
_cell_formula_units_Z   1
loop_
 _symmetry_equiv_pos_site_id
 _symmetry_equiv_pos_as_xyz
  1  'x, y, z'
loop_
 _atom_site_type_symbol
 _atom_site_label
 _atom_site_symmetry_multiplicity
 _atom_site_fract_x
 _atom_site_fract_y
 _atom_site_fract_z
 _atom_site_occupancy
  Li  Li0  1  0.00118313  0.99881687  0.50048882  1
  Li  Li1  1  0.00118313  0.99881687  0.99951118  1
  Zr  Zr0  1  0.70952370  0.29047630  0.25000000  1
  Sc  Sc0  1  0.28998555  0.71001445  0.75000000  1
  Pt  Pt0  1  0.39705404  0.60294596  0.25000000  1
  Pt  Pt1  1  0.60107044  0.39892956  0.75000000  1
loop_
_geom_bond_atom_site_label_1
_geom_bond_atom_site_label_2
_geom_bond_distance
_geom_bond_site_symmetry_2
Li0 Li1 2.558476 1_555
Li0 Li1 2.568500 1_554
Li0 Pt1 2.670191 1_565
Li0 Pt1 2.670191 1_455
Li0 Pt0 2.686613 1_455
Li0 Pt0 2.686613 1_565
Li0 Sc0 2.979361 1_555
Li0 Zr0 3.005561 1_465
Li0 Zr0 3.169309 1_565
Li0 Zr0 3.169309 1_455
Li0 Sc0 3.183664 1_455
Li0 Sc0 3.183664 1_565
Li1 Pt1 2.670191 1_565
Li1 Pt1 2.670191 1_455
Li1 Pt0 2.686613 1_456
Li1 Pt0 2.686613 1_566
Li1 Sc0 2.979361 1_555
Li1 Zr0 3.005561 1_466
Li1 Zr0 3.169309 1_566
Li1 Zr0 3.169309 1_456
Li1 Sc0 3.183664 1_455
Li1 Sc0 3.183664 1_565
Sc0 Zr0 3.429407 1_455
Sc0 Zr0 3.429407 1_456
Sc0 Zr0 3.429407 1_566
Sc0 Zr0 3.429407 1_565
Pt0 Sc0 2.750741 1_555
Pt0 Sc0 2.750741 1_554
Pt0 Zr0 2.771300 1_455
Pt0 Zr0 2.771300 1_565
Pt0 Zr0 2.911257 1_555
Pt1 Zr0 2.755446 1_555
Pt1 Zr0 2.755446 1_556
Pt1 Sc0 2.779452 1_655
Pt1 Sc0 2.779452 1_545
Pt1 Sc0 2.898355 1_555
