# generated using pymatgen
data_Al2NiO4
_symmetry_space_group_name_H-M   'P 1'
_cell_length_a   5.61423267
_cell_length_b   5.72786391
_cell_length_c   8.04829579
_cell_angle_alpha   90.00000257
_cell_angle_beta   89.99999810
_cell_angle_gamma   90.00000498
_symmetry_Int_Tables_number   1
_chemical_formula_structural   Al2NiO4
_chemical_formula_sum   'Al8 Ni4 O16'
_cell_volume   258.81356049
_cell_formula_units_Z   4
loop_
 _symmetry_equiv_pos_site_id
 _symmetry_equiv_pos_as_xyz
  1  'x, y, z'
loop_
 _atom_site_type_symbol
 _atom_site_label
 _atom_site_symmetry_multiplicity
 _atom_site_fract_x
 _atom_site_fract_y
 _atom_site_fract_z
 _atom_site_occupancy
  Al  Al0  1  0.00000000  0.25000000  0.13232017  1
  Al  Al1  1  0.50000000  0.75000000  0.63232017  1
  Al  Al2  1  -0.00000000  0.75000000  0.86767983  1
  Al  Al3  1  0.50000000  0.25000000  0.36767983  1
  Al  Al4  1  0.00000000  0.50000000  0.50000000  1
  Al  Al5  1  0.50000000  0.00000000  -0.00000000  1
  Al  Al6  1  0.00000000  0.00000000  0.50000000  1
  Al  Al7  1  0.50000000  0.50000000  -0.00000000  1
  Ni  Ni0  1  0.25000000  0.25000000  0.75000000  1
  Ni  Ni1  1  0.75000000  0.25000000  0.75000000  1
  Ni  Ni2  1  0.75000000  0.75000000  0.25000000  1
  Ni  Ni3  1  0.25000000  0.75000000  0.25000000  1
  O  O0  1  0.00000000  0.49721168  0.26594131  1
  O  O1  1  0.50000000  0.99721168  0.76594131  1
  O  O2  1  -0.00000000  0.00278832  0.26594131  1
  O  O3  1  0.50000000  0.50278832  0.76594131  1
  O  O4  1  0.00000000  0.99721168  0.73405869  1
  O  O5  1  0.50000000  0.49721168  0.23405869  1
  O  O6  1  -0.00000000  0.50278832  0.73405869  1
  O  O7  1  0.50000000  0.00278832  0.23405869  1
  O  O8  1  0.23433285  0.75000000  0.50400128  1
  O  O9  1  0.73433285  0.25000000  0.00400128  1
  O  O10  1  0.76566715  0.75000000  0.50400128  1
  O  O11  1  0.26566715  0.25000000  0.00400128  1
  O  O12  1  0.23433285  0.25000000  0.49599872  1
  O  O13  1  0.73433285  0.75000000  0.99599872  1
  O  O14  1  0.76566715  0.25000000  0.49599872  1
  O  O15  1  0.26566715  0.75000000  0.99599872  1
loop_
_geom_bond_atom_site_label_1
_geom_bond_atom_site_label_2
_geom_bond_distance
_geom_bond_site_symmetry_2
Al0 O0 1.778082 1_555
Al0 O2 1.778082 1_555
Al0 O11 1.814164 1_555
Al0 O9 1.814165 1_455
Al1 O1 1.778082 1_555
Al1 O3 1.778082 1_555
Al1 O10 1.814164 1_555
Al1 O8 1.814165 1_555
Al2 O6 1.778082 1_555
Al2 O4 1.778082 1_555
Al2 O13 1.814164 1_455
Al2 O15 1.814165 1_555
Al3 O7 1.778082 1_555
Al3 O5 1.778082 1_555
Al3 O12 1.814164 1_555
Al3 O14 1.814165 1_555
Al4 O6 1.883841 1_555
Al4 O0 1.883841 1_555
Al4 O8 1.944830 1_555
Al4 O14 1.944830 1_455
Al4 O12 1.944830 1_555
Al4 O10 1.944830 1_455
Al5 O1 1.883841 1_544
Al5 O7 1.883841 1_555
Al5 O15 1.944830 1_544
Al5 O9 1.944830 1_555
Al5 O11 1.944830 1_555
Al5 O13 1.944830 1_544
Al6 O4 1.883841 1_545
Al6 O2 1.883841 1_555
Al6 O12 1.944830 1_555
Al6 O10 1.944830 1_445
Al6 O8 1.944830 1_545
Al6 O14 1.944830 1_455
Al7 O3 1.883841 1_554
Al7 O5 1.883841 1_555
Al7 O11 1.944830 1_555
Al7 O13 1.944830 1_554
Al7 O15 1.944830 1_554
Al7 O9 1.944830 1_555
Ni0 O4 2.020633 1_545
Ni0 O3 2.020633 1_555
Ni0 O6 2.020633 1_555
Ni0 O1 2.020633 1_545
Ni0 O12 2.046169 1_555
Ni0 O11 2.046169 1_556
Ni1 O1 2.020633 1_545
Ni1 O6 2.020633 1_655
Ni1 O4 2.020633 1_645
Ni1 O3 2.020633 1_555
Ni1 O9 2.046169 1_556
Ni1 O14 2.046169 1_555
Ni2 O5 2.020633 1_555
Ni2 O2 2.020633 1_665
Ni2 O0 2.020633 1_655
Ni2 O7 2.020633 1_565
Ni2 O10 2.046169 1_555
Ni2 O13 2.046169 1_554
Ni3 O7 2.020633 1_565
Ni3 O0 2.020633 1_555
Ni3 O2 2.020633 1_565
Ni3 O5 2.020633 1_555
Ni3 O15 2.046169 1_554
Ni3 O8 2.046169 1_555
