# generated using pymatgen
data_LiTa5TiH16
_symmetry_space_group_name_H-M   'P 1'
_cell_length_a   6.35195264
_cell_length_b   6.11023518
_cell_length_c   6.35195255
_cell_angle_alpha   61.25102491
_cell_angle_beta   58.02974898
_cell_angle_gamma   61.25101932
_symmetry_Int_Tables_number   1
_chemical_formula_structural   LiTa5TiH16
_chemical_formula_sum   'Li1 Ta5 Ti1 H16'
_cell_volume   174.66473802
_cell_formula_units_Z   1
loop_
 _symmetry_equiv_pos_site_id
 _symmetry_equiv_pos_as_xyz
  1  'x, y, z'
loop_
 _atom_site_type_symbol
 _atom_site_label
 _atom_site_symmetry_multiplicity
 _atom_site_fract_x
 _atom_site_fract_y
 _atom_site_fract_z
 _atom_site_occupancy
  Li  Li0  1  0.50000000  0.00000000  0.50000000  1
  Ta  Ta0  1  0.00000000  0.00000000  0.50000000  1
  Ta  Ta1  1  0.00000000  0.50000000  0.50000000  1
  Ta  Ta2  1  0.50000000  0.50000000  0.00000000  1
  Ta  Ta3  1  0.00000000  0.50000000  0.00000000  1
  Ta  Ta4  1  0.50000000  0.00000000  0.00000000  1
  Ti  Ti0  1  0.00000000  0.00000000  0.00000000  1
  H  H0  1  0.86993061  0.87767050  0.37472839  1
  H  H1  1  0.87861178  0.36825726  0.87861178  1
  H  H2  1  0.37472839  0.87767050  0.86993061  1
  H  H3  1  0.87861178  0.87451917  0.87861178  1
  H  H4  1  0.13006939  0.12232950  0.62527161  1
  H  H5  1  0.12138822  0.63174274  0.12138822  1
  H  H6  1  0.62527161  0.12232950  0.13006939  1
  H  H7  1  0.12138822  0.12548083  0.12138822  1
  H  H8  1  0.61885920  0.61682554  0.14749171  1
  H  H9  1  0.62882588  0.12363461  0.62882588  1
  H  H10  1  0.14749171  0.61682554  0.61885920  1
  H  H11  1  0.62882588  0.61871363  0.62882588  1
  H  H12  1  0.38114080  0.38317446  0.85250829  1
  H  H13  1  0.37117412  0.87636539  0.37117412  1
  H  H14  1  0.85250829  0.38317446  0.38114080  1
  H  H15  1  0.37117412  0.38128637  0.37117412  1
loop_
_geom_bond_atom_site_label_1
_geom_bond_atom_site_label_2
_geom_bond_distance
_geom_bond_site_symmetry_2
H0 Li0 1.901562 1_565
H0 Ti0 1.925363 1_665
H0 Ta1 1.933088 1_655
H0 Ta0 1.933088 1_665
H1 Ti0 1.882508 1_656
H1 Ta3 1.913304 1_656
H1 Ta2 1.948677 1_556
H1 Ta1 1.948677 1_655
H2 Li0 1.901562 1_565
H2 Ti0 1.925363 1_566
H2 Ta2 1.933088 1_556
H2 Ta4 1.933088 1_566
H3 Ti0 1.882508 1_666
H3 Ta3 1.913303 1_656
H3 Ta4 1.948677 1_566
H3 Ta0 1.948677 1_665
H4 Li0 1.901562 1_555
H4 Ti0 1.925363 1_556
H4 Ta1 1.933088 1_555
H4 Ta0 1.933088 1_555
H5 Ti0 1.882508 1_565
H5 Ta3 1.913304 1_555
H5 Ta2 1.948677 1_555
H5 Ta1 1.948677 1_555
H6 Li0 1.901562 1_555
H6 Ti0 1.925363 1_655
H6 Ta2 1.933088 1_555
H6 Ta4 1.933088 1_555
H7 Ti0 1.882508 1_555
H7 Ta3 1.913303 1_555
H7 Ta4 1.948677 1_555
H7 Ta0 1.948677 1_555
H8 Ta3 1.956398 1_655
H8 Ta4 1.966720 1_565
H8 Ta2 1.966730 1_555
H9 Ta0 1.907163 1_655
H9 Ta4 1.907163 1_556
H9 Li0 1.951482 1_555
H10 Ta3 1.956398 1_556
H10 Ta0 1.966720 1_565
H10 Ta1 1.966730 1_555
H11 Ta1 1.907163 1_655
H11 Ta2 1.907163 1_556
H11 Li0 1.951481 1_565
H12 Ta3 1.956398 1_556
H12 Ta4 1.966720 1_556
H12 Ta2 1.966730 1_556
H13 Ta0 1.907163 1_565
H13 Ta4 1.907163 1_565
H13 Li0 1.951482 1_565
H14 Ta3 1.956398 1_655
H14 Ta0 1.966720 1_655
H14 Ta1 1.966730 1_655
H15 Ta1 1.907163 1_555
H15 Ta2 1.907163 1_555
H15 Li0 1.951481 1_555
