# generated using pymatgen
data_Na3In(GaI4)4
_symmetry_space_group_name_H-M   'P 1'
_cell_length_a   8.19148252
_cell_length_b   8.32182250
_cell_length_c   15.13482818
_cell_angle_alpha   90.04398246
_cell_angle_beta   90.00000000
_cell_angle_gamma   90.00000000
_symmetry_Int_Tables_number   1
_chemical_formula_structural   Na3In(GaI4)4
_chemical_formula_sum   'Na3 In1 Ga4 I16'
_cell_volume   1031.71162517
_cell_formula_units_Z   1
loop_
 _symmetry_equiv_pos_site_id
 _symmetry_equiv_pos_as_xyz
  1  'x, y, z'
loop_
 _atom_site_type_symbol
 _atom_site_label
 _atom_site_symmetry_multiplicity
 _atom_site_fract_x
 _atom_site_fract_y
 _atom_site_fract_z
 _atom_site_occupancy
  Na  Na0  1  0.75000000  0.94176985  0.35012399  1
  Na  Na1  1  0.75000000  0.55256747  0.84704629  1
  Na  Na2  1  0.25000000  0.04913997  0.65326361  1
  In  In0  1  0.25000000  0.43997221  0.15095906  1
  Ga  Ga0  1  0.25000000  0.30225201  0.89224207  1
  Ga  Ga1  1  0.75000000  0.80534748  0.60315445  1
  Ga  Ga2  1  0.75000000  0.70605668  0.10087709  1
  Ga  Ga3  1  0.25000000  0.19243808  0.40410210  1
  I  I0  1  0.25000000  0.10834736  0.02277443  1
  I  I1  1  0.75000000  0.62439223  0.46729388  1
  I  I2  1  0.75000000  0.87563827  0.96088908  1
  I  I3  1  0.25000000  0.37399555  0.53925091  1
  I  I4  1  0.25000000  0.89712836  0.45232594  1
  I  I5  1  0.75000000  0.40805732  0.05558581  1
  I  I6  1  0.75000000  0.09945511  0.55346096  1
  I  I7  1  0.25000000  0.59906152  0.93921803  1
  I  I8  1  0.99688908  0.77310921  0.19993518  1
  I  I9  1  0.99704450  0.25034740  0.30729178  1
  I  I10  1  0.50149832  0.24500250  0.79456797  1
  I  I11  1  0.50076935  0.74373165  0.70191922  1
  I  I12  1  0.99850168  0.24500250  0.79456797  1
  I  I13  1  0.99923065  0.74373165  0.70191922  1
  I  I14  1  0.50311092  0.77310921  0.19993518  1
  I  I15  1  0.50295550  0.25034740  0.30729178  1
loop_
_geom_bond_atom_site_label_1
_geom_bond_atom_site_label_2
_geom_bond_distance
_geom_bond_site_symmetry_2
Ga0 I0 2.551796 1_556
Ga0 I7 2.569760 1_555
Ga0 I10 2.579807 1_555
Ga0 I12 2.579807 1_455
Ga1 I1 2.547740 1_555
Ga1 I6 2.561015 1_565
Ga1 I13 2.581954 1_555
Ga1 I11 2.581954 1_555
Ga2 I2 2.546570 1_554
Ga2 I5 2.572384 1_555
Ga2 I14 2.578335 1_555
Ga2 I8 2.578335 1_555
Ga3 I3 2.542031 1_555
Ga3 I4 2.564143 1_545
Ga3 I15 2.583345 1_555
Ga3 I9 2.583345 1_455
I0 In0 3.372188 1_555
I1 Na0 3.182401 1_555
I2 Na1 3.192150 1_555
I3 Na2 3.208278 1_555
I4 Na2 3.292869 1_565
I5 Na1 3.378418 1_554
I6 Na0 3.344632 1_545
I7 In0 3.468304 1_556
I8 Na0 3.349932 1_555
I8 In0 3.539883 1_655
I9 Na0 3.333504 1_545
I9 In0 3.519615 1_655
I10 Na1 3.364880 1_555
I10 Na2 3.386622 1_555
I11 Na2 3.350264 1_565
I11 Na1 3.395381 1_555
I12 Na1 3.364880 1_555
I12 Na2 3.386622 1_655
I13 Na2 3.350264 1_665
I13 Na1 3.395381 1_555
I14 Na0 3.349932 1_555
I14 In0 3.539883 1_555
I15 Na0 3.333504 1_545
I15 In0 3.519615 1_555
