# generated using pymatgen
data_Rb2NbAuSe4
_symmetry_space_group_name_H-M   'P 1'
_cell_length_a   14.22147897
_cell_length_b   12.69878152
_cell_length_c   7.67358701
_cell_angle_alpha   84.73236061
_cell_angle_beta   62.76771760
_cell_angle_gamma   32.49992344
_symmetry_Int_Tables_number   1
_chemical_formula_structural   Rb2NbAuSe4
_chemical_formula_sum   'Rb4 Nb2 Au2 Se8'
_cell_volume   521.71495790
_cell_formula_units_Z   2
loop_
 _symmetry_equiv_pos_site_id
 _symmetry_equiv_pos_as_xyz
  1  'x, y, z'
loop_
 _atom_site_type_symbol
 _atom_site_label
 _atom_site_symmetry_multiplicity
 _atom_site_fract_x
 _atom_site_fract_y
 _atom_site_fract_z
 _atom_site_occupancy
  Rb  Rb0  1  0.93068546  0.93068546  0.56931454  1
  Rb  Rb1  1  0.56931454  0.56931454  0.93068546  1
  Rb  Rb2  1  0.68068546  0.68068546  0.31931454  1
  Rb  Rb3  1  0.31931454  0.31931454  0.68068546  1
  Nb  Nb0  1  0.75000000  0.75000000  0.75000000  1
  Nb  Nb1  1  0.50000000  0.50000000  0.50000000  1
  Au  Au0  1  0.00000000  0.00000000  0.00000000  1
  Au  Au1  1  0.25000000  0.25000000  0.25000000  1
  Se  Se0  1  0.56446549  0.31992251  0.23061552  1
  Se  Se1  1  0.88499648  0.23061552  0.31992251  1
  Se  Se2  1  0.23061552  0.88499648  0.56446549  1
  Se  Se3  1  0.31992251  0.56446549  0.88499648  1
  Se  Se4  1  0.93007749  0.68553451  0.36500352  1
  Se  Se5  1  0.36500352  0.01938448  0.93007749  1
  Se  Se6  1  0.01938448  0.36500352  0.68553451  1
  Se  Se7  1  0.68553451  0.93007749  0.01938448  1
loop_
_geom_bond_atom_site_label_1
_geom_bond_atom_site_label_2
_geom_bond_distance
_geom_bond_site_symmetry_2
Rb0 Se3 3.534653 1_565
Rb0 Se0 3.534653 1_655
Rb0 Se4 3.619885 1_555
Rb0 Se7 3.619885 1_556
Rb0 Se1 3.770456 1_565
Rb0 Se2 3.770456 1_655
Rb0 Se0 3.781835 1_566
Rb0 Se3 3.781835 1_654
Rb1 Se1 3.534653 1_555
Rb1 Se2 3.534653 1_556
Rb1 Se5 3.619885 1_565
Rb1 Se6 3.619885 1_655
Rb1 Se0 3.770456 1_556
Rb1 Se3 3.770456 1_555
Rb1 Se2 3.781835 1_645
Rb1 Se1 3.781835 1_466
Rb2 Se5 3.534653 1_565
Rb2 Se6 3.534653 1_654
Rb2 Se1 3.619885 1_555
Rb2 Se2 3.619885 1_555
Rb2 Se7 3.770456 1_555
Rb2 Se4 3.770456 1_555
Rb2 Se6 3.781835 1_565
Rb2 Se5 3.781835 1_654
Rb3 Se4 3.534653 1_545
Rb3 Se7 3.534653 1_456
Rb3 Se3 3.619885 1_555
Rb3 Se0 3.619885 1_555
Rb3 Se5 3.770456 1_555
Rb3 Se6 3.770456 1_555
Rb3 Se7 3.781835 1_545
Rb3 Se4 3.781835 1_456
Nb0 Se6 2.437231 1_655
Nb0 Se7 2.437231 1_556
Nb0 Se5 2.437231 1_565
Nb0 Se4 2.437231 1_555
Nb1 Se2 2.437231 1_555
Nb1 Se0 2.437231 1_555
Nb1 Se1 2.437231 1_555
Nb1 Se3 2.437231 1_555
Au0 Se3 2.616170 1_544
Au0 Se1 2.616171 1_455
Au0 Se0 2.616171 1_455
Au0 Se2 2.616171 1_544
Au0 Nb1 2.991031 1_455
Au0 Nb1 2.991031 1_544
Au1 Se4 2.616170 1_455
Au1 Se5 2.616171 1_554
Au1 Se7 2.616171 1_545
Au1 Se6 2.616171 1_555
Au1 Nb0 2.991031 1_544
Au1 Nb0 2.991031 1_455
