# generated using pymatgen
data_CaSO4
_symmetry_space_group_name_H-M   'P 1'
_cell_length_a   6.97422702
_cell_length_b   6.97422632
_cell_length_c   6.27513978
_cell_angle_alpha   90.00000000
_cell_angle_beta   90.00000000
_cell_angle_gamma   119.99998909
_symmetry_Int_Tables_number   1
_chemical_formula_structural   CaSO4
_chemical_formula_sum   'Ca3 S3 O12'
_cell_volume   264.32984446
_cell_formula_units_Z   3
loop_
 _symmetry_equiv_pos_site_id
 _symmetry_equiv_pos_as_xyz
  1  'x, y, z'
loop_
 _atom_site_type_symbol
 _atom_site_label
 _atom_site_symmetry_multiplicity
 _atom_site_fract_x
 _atom_site_fract_y
 _atom_site_fract_z
 _atom_site_occupancy
  Ca  Ca0  1  0.00000000  0.50000000  0.66666700  1
  Ca  Ca1  1  0.50000000  0.50000000  0.33333300  1
  Ca  Ca2  1  0.50000000  -0.00000000  -0.00000000  1
  S  S0  1  0.00000000  0.50000000  0.16666700  1
  S  S1  1  0.50000000  0.50000000  0.83333300  1
  S  S2  1  0.50000000  -0.00000000  0.50000000  1
  O  O0  1  0.44723597  0.31107780  0.97451904  1
  O  O1  1  0.68892220  0.13616018  0.64118604  1
  O  O2  1  0.86383982  0.55276403  0.30785304  1
  O  O3  1  0.13616018  0.44723597  0.30785304  1
  O  O4  1  0.55276403  0.86383982  0.35881396  1
  O  O5  1  0.55276403  0.68892220  0.97451904  1
  O  O6  1  0.44723597  0.13616018  0.35881396  1
  O  O7  1  0.31107780  0.44723597  0.69214696  1
  O  O8  1  0.13616018  0.68892220  0.02548096  1
  O  O9  1  0.86383982  0.31107780  0.02548096  1
  O  O10  1  0.68892220  0.55276403  0.69214696  1
  O  O11  1  0.31107780  0.86383982  0.64118604  1
loop_
_geom_bond_atom_site_label_1
_geom_bond_atom_site_label_2
_geom_bond_distance
_geom_bond_site_symmetry_2
Ca0 O11 2.380368 1_555
Ca0 O1 2.380368 1_455
Ca0 O7 2.380376 1_555
Ca0 O10 2.380376 1_455
Ca0 O8 2.540933 1_556
Ca0 O9 2.540933 1_456
Ca0 O2 2.540937 1_455
Ca0 O3 2.540937 1_555
Ca1 O2 2.380362 1_555
Ca1 O3 2.380362 1_555
Ca1 O6 2.380362 1_555
Ca1 O4 2.380362 1_555
Ca1 O5 2.540931 1_554
Ca1 O0 2.540931 1_554
Ca1 O10 2.540931 1_555
Ca1 O7 2.540931 1_555
Ca2 O9 2.380368 1_555
Ca2 O8 2.380368 1_545
Ca2 O0 2.380376 1_554
Ca2 O5 2.380376 1_544
Ca2 O1 2.540933 1_554
Ca2 O11 2.540933 1_544
Ca2 O4 2.540937 1_545
Ca2 O6 2.540937 1_555
O0 S1 1.473608 1_555
O1 S2 1.473611 1_555
O2 S0 1.473619 1_655
O3 S0 1.473619 1_555
O4 S2 1.473619 1_565
O5 S1 1.473608 1_555
O6 S2 1.473619 1_555
O7 S1 1.473608 1_555
O8 S0 1.473611 1_555
O9 S0 1.473611 1_655
O10 S1 1.473608 1_555
O11 S2 1.473611 1_565
