# generated using pymatgen
data_CsK2Ag3P2
_symmetry_space_group_name_H-M   'P 1'
_cell_length_a   7.85025692
_cell_length_b   7.85025658
_cell_length_c   7.85025675
_cell_angle_alpha   45.20037889
_cell_angle_beta   45.20037738
_cell_angle_gamma   45.20037695
_symmetry_Int_Tables_number   1
_chemical_formula_structural   CsK2Ag3P2
_chemical_formula_sum   'Cs1 K2 Ag3 P2'
_cell_volume   221.79941949
_cell_formula_units_Z   1
loop_
 _symmetry_equiv_pos_site_id
 _symmetry_equiv_pos_as_xyz
  1  'x, y, z'
loop_
 _atom_site_type_symbol
 _atom_site_label
 _atom_site_symmetry_multiplicity
 _atom_site_fract_x
 _atom_site_fract_y
 _atom_site_fract_z
 _atom_site_occupancy
  Cs  Cs0  1  0.50000000  0.50000000  0.50000000  1
  K  K0  1  0.90751271  0.90751271  0.90751271  1
  K  K1  1  0.09248729  0.09248729  0.09248729  1
  Ag  Ag0  1  0.00000000  0.50000000  0.50000000  1
  Ag  Ag1  1  0.50000000  0.50000000  0.00000000  1
  Ag  Ag2  1  0.50000000  0.00000000  0.50000000  1
  P  P0  1  0.25156487  0.25156487  0.25156487  1
  P  P1  1  0.74843513  0.74843513  0.74843513  1
loop_
_geom_bond_atom_site_label_1
_geom_bond_atom_site_label_2
_geom_bond_distance
_geom_bond_site_symmetry_2
Cs0 K0 3.819172 1_455
Cs0 K1 3.819172 1_655
Cs0 K0 3.819173 1_554
Cs0 K1 3.819173 1_556
Cs0 K0 3.819173 1_545
Cs0 K1 3.819173 1_565
Cs0 P0 3.917344 1_565
Cs0 P1 3.917344 1_545
Cs0 P0 3.917344 1_556
Cs0 P1 3.917344 1_554
Cs0 P0 3.917344 1_655
Cs0 P1 3.917344 1_455
K0 P1 3.357339 1_555
K0 P0 3.490885 1_566
K0 P0 3.490885 1_656
K0 P0 3.490885 1_665
K1 P0 3.357339 1_555
K1 P1 3.490885 1_544
K1 P1 3.490885 1_454
K1 P1 3.490885 1_445
Ag0 P1 2.451920 1_455
Ag0 P0 2.451920 1_555
Ag0 K1 3.593248 1_565
Ag0 K0 3.593248 1_445
Ag0 K1 3.593248 1_556
Ag0 K0 3.593248 1_454
Ag0 Cs0 3.925128 1_555
Ag0 Cs0 3.925128 1_455
Ag1 P1 2.451920 1_554
Ag1 P0 2.451920 1_555
Ag1 K1 3.593248 1_565
Ag1 K0 3.593248 1_544
Ag1 K1 3.593248 1_655
Ag1 K0 3.593248 1_454
Ag1 Cs0 3.925128 1_555
Ag1 Cs0 3.925128 1_554
Ag2 P1 2.451920 1_545
Ag2 P0 2.451920 1_555
Ag2 K1 3.593248 1_556
Ag2 K0 3.593248 1_544
Ag2 K1 3.593248 1_655
Ag2 K0 3.593248 1_445
Ag2 Cs0 3.925128 1_555
Ag2 Cs0 3.925128 1_545
