# generated using pymatgen
data_Ca2MgPtRh
_symmetry_space_group_name_H-M   'P 1'
_cell_length_a   5.67788001
_cell_length_b   5.67788008
_cell_length_c   5.67788030
_cell_angle_alpha   136.47044269
_cell_angle_beta   117.54493803
_cell_angle_gamma   79.19522312
_symmetry_Int_Tables_number   1
_chemical_formula_structural   Ca2MgPtRh
_chemical_formula_sum   'Ca2 Mg1 Pt1 Rh1'
_cell_volume   108.45428980
_cell_formula_units_Z   1
loop_
 _symmetry_equiv_pos_site_id
 _symmetry_equiv_pos_as_xyz
  1  'x, y, z'
loop_
 _atom_site_type_symbol
 _atom_site_label
 _atom_site_symmetry_multiplicity
 _atom_site_fract_x
 _atom_site_fract_y
 _atom_site_fract_z
 _atom_site_occupancy
  Ca  Ca0  1  0.70439506  0.20143909  0.50295597  1
  Ca  Ca1  1  0.30151688  0.79856091  0.50295597  1
  Mg  Mg0  1  0.99555355  1.00000000  0.99555355  1
  Pt  Pt0  1  0.27256318  0.50000000  0.77256318  1
  Rh  Rh0  1  0.72597033  0.50000000  0.22597033  1
loop_
_geom_bond_atom_site_label_1
_geom_bond_atom_site_label_2
_geom_bond_distance
_geom_bond_site_symmetry_2
Ca0 Rh0 3.043527 1_545
Ca0 Rh0 3.043527 1_556
Ca0 Pt0 3.056817 1_655
Ca0 Pt0 3.062516 1_544
Ca0 Pt0 3.062517 1_555
Ca0 Rh0 3.079596 1_555
Ca0 Mg0 3.355463 1_555
Ca0 Mg0 3.355464 1_544
Ca0 Mg0 3.393680 1_545
Ca0 Mg0 3.468457 1_444
Ca0 Ca1 3.525210 1_545
Ca0 Ca1 3.717473 1_656
Ca0 Ca1 3.717473 1_544
Ca0 Ca1 3.717473 1_645
Ca0 Ca1 3.717473 1_555
Ca1 Rh0 3.043527 1_566
Ca1 Rh0 3.043527 1_555
Ca1 Pt0 3.056817 1_555
Ca1 Pt0 3.062517 1_565
Ca1 Pt0 3.062517 1_554
Ca1 Rh0 3.079596 1_455
Ca1 Mg0 3.355463 1_444
Ca1 Mg0 3.355464 1_455
Ca1 Mg0 3.393679 1_555
Ca1 Mg0 3.468457 1_454
Mg0 Rh0 2.636544 1_555
Mg0 Rh0 2.636544 1_566
Mg0 Pt0 2.663091 1_666
Mg0 Pt0 2.663092 1_655
Pt0 Rh0 2.669324 1_556
