# generated using pymatgen
data_Y20Cd6CoRu
_symmetry_space_group_name_H-M   'P 1'
_cell_length_a   9.66512487
_cell_length_b   9.66512513
_cell_length_c   9.76652317
_cell_angle_alpha   90.00000000
_cell_angle_beta   90.00000000
_cell_angle_gamma   120.00000252
_symmetry_Int_Tables_number   1
_chemical_formula_structural   Y20Cd6CoRu
_chemical_formula_sum   'Y20 Cd6 Co1 Ru1'
_cell_volume   790.10635601
_cell_formula_units_Z   1
loop_
 _symmetry_equiv_pos_site_id
 _symmetry_equiv_pos_as_xyz
  1  'x, y, z'
loop_
 _atom_site_type_symbol
 _atom_site_label
 _atom_site_symmetry_multiplicity
 _atom_site_fract_x
 _atom_site_fract_y
 _atom_site_fract_z
 _atom_site_occupancy
  Y  Y0  1  0.00000000  0.00000000  0.49970753  1
  Y  Y1  1  0.00000000  0.00000000  0.00029247  1
  Y  Y2  1  0.21189666  0.78810334  0.43485915  1
  Y  Y3  1  0.21189666  0.42379432  0.43485915  1
  Y  Y4  1  0.57620568  0.78810334  0.43485915  1
  Y  Y5  1  0.79017710  0.20982290  0.56107157  1
  Y  Y6  1  0.79017710  0.58035420  0.56107157  1
  Y  Y7  1  0.41964580  0.20982290  0.56107157  1
  Y  Y8  1  0.79017710  0.20982290  0.93892843  1
  Y  Y9  1  0.79017710  0.58035420  0.93892843  1
  Y  Y10  1  0.41964580  0.20982290  0.93892843  1
  Y  Y11  1  0.21189666  0.78810334  0.06514085  1
  Y  Y12  1  0.21189666  0.42379432  0.06514085  1
  Y  Y13  1  0.57620568  0.78810334  0.06514085  1
  Y  Y14  1  0.54225454  0.45774546  0.25000000  1
  Y  Y15  1  0.54225454  0.08450908  0.25000000  1
  Y  Y16  1  0.91549092  0.45774546  0.25000000  1
  Y  Y17  1  0.45788938  0.54211062  0.75000000  1
  Y  Y18  1  0.45788938  0.91577975  0.75000000  1
  Y  Y19  1  0.08422025  0.54211062  0.75000000  1
  Cd  Cd0  1  0.88523299  0.11476701  0.25000000  1
  Cd  Cd1  1  0.88523299  0.77046699  0.25000000  1
  Cd  Cd2  1  0.22953301  0.11476701  0.25000000  1
  Cd  Cd3  1  0.11479552  0.88520448  0.75000000  1
  Cd  Cd4  1  0.11479552  0.22959104  0.75000000  1
  Cd  Cd5  1  0.77040896  0.88520448  0.75000000  1
  Co  Co0  1  0.33333300  0.66666700  0.25000000  1
  Ru  Ru0  1  0.66666700  0.33333300  0.75000000  1
loop_
_geom_bond_atom_site_label_1
_geom_bond_atom_site_label_2
_geom_bond_distance
_geom_bond_site_symmetry_2
Cd0 Y0 3.104649 1_655
Cd0 Y1 3.104649 1_655
Cd0 Y15 3.178812 1_555
Cd0 Y16 3.178812 1_555
Cd0 Cd2 3.327703 1_655
Cd0 Cd1 3.327703 1_545
Cd0 Y5 3.429600 1_555
Cd0 Y8 3.429600 1_554
Cd0 Y3 3.566323 1_655
Cd0 Y12 3.566323 1_655
Cd0 Y4 3.566323 1_545
Cd0 Y13 3.566323 1_545
Cd1 Y0 3.104644 1_665
Cd1 Y1 3.104644 1_665
Cd1 Y14 3.178816 1_555
Cd1 Y16 3.178821 1_555
Cd1 Cd2 3.327703 1_665
Cd1 Y6 3.429604 1_555
Cd1 Y9 3.429604 1_554
Cd1 Y2 3.566323 1_655
Cd1 Y11 3.566323 1_655
Cd1 Y4 3.566323 1_555
Cd1 Y13 3.566323 1_555
Cd2 Y0 3.104643 1_555
Cd2 Y1 3.104643 1_555
Cd2 Y14 3.178816 1_555
Cd2 Y15 3.178821 1_555
Cd2 Y7 3.429604 1_555
Cd2 Y10 3.429604 1_554
Cd2 Y2 3.566323 1_545
Cd2 Y11 3.566323 1_545
Cd2 Y3 3.566323 1_555
Cd2 Y12 3.566323 1_555
Cd3 Y1 3.109433 1_566
Cd3 Y0 3.109433 1_565
Cd3 Y18 3.178607 1_555
Cd3 Y19 3.178608 1_555
Cd3 Cd5 3.328539 1_455
Cd3 Cd4 3.328539 1_565
Cd3 Y11 3.480712 1_556
Cd3 Y2 3.480712 1_555
Cd3 Y9 3.561669 1_455
Cd3 Y6 3.561669 1_455
Cd3 Y10 3.561669 1_565
Cd3 Y7 3.561669 1_565
Cd4 Y1 3.109433 1_556
Cd4 Y0 3.109433 1_555
Cd4 Y17 3.178612 1_555
Cd4 Y19 3.178617 1_555
Cd4 Cd5 3.328539 1_445
Cd4 Y12 3.480716 1_556
Cd4 Y3 3.480716 1_555
Cd4 Y8 3.561669 1_455
Cd4 Y5 3.561669 1_455
Cd4 Y10 3.561669 1_555
Cd4 Y7 3.561669 1_555
Cd5 Y1 3.109433 1_666
Cd5 Y0 3.109433 1_665
Cd5 Y17 3.178612 1_555
Cd5 Y18 3.178617 1_555
Cd5 Y13 3.480716 1_556
Cd5 Y4 3.480716 1_555
Cd5 Y8 3.561669 1_565
Cd5 Y5 3.561669 1_565
Cd5 Y9 3.561669 1_555
Cd5 Y6 3.561669 1_555
Co0 Y4 2.718874 1_555
Co0 Y13 2.718874 1_555
Co0 Y3 2.718875 1_555
Co0 Y12 2.718875 1_555
Co0 Y2 2.718875 1_555
Co0 Y11 2.718875 1_555
Ru0 Y8 2.771230 1_555
Ru0 Y5 2.771230 1_555
Ru0 Y10 2.771236 1_555
Ru0 Y7 2.771236 1_555
Ru0 Y9 2.771236 1_555
Ru0 Y6 2.771236 1_555
Ru0 Y19 3.495022 1_655
Ru0 Y18 3.495022 1_545
Ru0 Y17 3.495039 1_555
