# generated using pymatgen
data_Lu2Mg2Ge6Ir7
_symmetry_space_group_name_H-M   'P 1'
_cell_length_a   7.02331491
_cell_length_b   7.14376034
_cell_length_c   7.02331407
_cell_angle_alpha   109.45375441
_cell_angle_beta   108.81327429
_cell_angle_gamma   109.45375523
_symmetry_Int_Tables_number   1
_chemical_formula_structural   Lu2Mg2Ge6Ir7
_chemical_formula_sum   'Lu2 Mg2 Ge6 Ir7'
_cell_volume   273.54859176
_cell_formula_units_Z   1
loop_
 _symmetry_equiv_pos_site_id
 _symmetry_equiv_pos_as_xyz
  1  'x, y, z'
loop_
 _atom_site_type_symbol
 _atom_site_label
 _atom_site_symmetry_multiplicity
 _atom_site_fract_x
 _atom_site_fract_y
 _atom_site_fract_z
 _atom_site_occupancy
  Lu  Lu0  1  0.00000000  0.00000000  0.50000000  1
  Lu  Lu1  1  0.50000000  0.00000000  0.00000000  1
  Mg  Mg0  1  0.00000000  0.50000000  0.00000000  1
  Mg  Mg1  1  0.50000000  0.50000000  0.50000000  1
  Ge  Ge0  1  0.68816652  0.68233311  0.99416659  1
  Ge  Ge1  1  0.31175994  1.00000000  0.31175994  1
  Ge  Ge2  1  0.00583341  0.31766689  0.31183348  1
  Ge  Ge3  1  0.31183348  0.31766689  0.00583341  1
  Ge  Ge4  1  0.68824006  0.00000000  0.68824006  1
  Ge  Ge5  1  0.99416659  0.68233311  0.68816652  1
  Ir  Ir0  1  0.74983673  0.25381149  0.50397576  1
  Ir  Ir1  1  0.75000000  0.50000000  0.25000000  1
  Ir  Ir2  1  0.50397576  0.25381149  0.74983673  1
  Ir  Ir3  1  0.25000000  0.50000000  0.75000000  1
  Ir  Ir4  1  0.25016327  0.74618851  0.49602424  1
  Ir  Ir5  1  0.49602424  0.74618851  0.25016327  1
  Ir  Ir6  1  0.00000000  0.00000000  0.00000000  1
loop_
_geom_bond_atom_site_label_1
_geom_bond_atom_site_label_2
_geom_bond_distance
_geom_bond_site_symmetry_2
Ge0 Ir2 2.533931 1_555
Ge0 Ir6 2.552996 1_666
Ge0 Ir1 2.558542 1_556
Ge0 Ir3 2.558543 1_555
Ge0 Ir5 2.586579 1_556
Ge0 Mg1 2.893561 1_555
Ge0 Mg0 2.893561 1_656
Ge0 Lu0 2.978036 1_666
Ge0 Lu1 2.978036 1_566
Ge1 Ir6 2.548807 1_565
Ge1 Ir4 2.559521 1_555
Ge1 Ir5 2.559521 1_555
Ge1 Ir2 2.559526 1_565
Ge1 Ir0 2.559526 1_565
Ge1 Lu1 2.899864 1_565
Ge1 Lu0 2.899864 1_565
Ge1 Mg1 2.972508 1_565
Ge1 Mg0 2.972508 1_555
Ge2 Ir4 2.533931 1_555
Ge2 Ir6 2.552996 1_555
Ge2 Ir3 2.558542 1_555
Ge2 Ir1 2.558542 1_455
Ge2 Ir0 2.586579 1_455
Ge2 Mg0 2.893561 1_555
Ge2 Mg1 2.893562 1_555
Ge2 Lu0 2.978036 1_555
Ge2 Lu1 2.978036 1_455
Ge3 Ir5 2.533931 1_555
Ge3 Ir6 2.552996 1_555
Ge3 Ir3 2.558542 1_554
Ge3 Ir1 2.558543 1_555
Ge3 Ir2 2.586579 1_554
Ge3 Mg1 2.893561 1_555
Ge3 Mg0 2.893561 1_555
Ge3 Lu0 2.978036 1_554
Ge3 Lu1 2.978036 1_555
Ge4 Ir6 2.548807 1_656
Ge4 Ir0 2.559521 1_555
Ge4 Ir2 2.559521 1_555
Ge4 Ir5 2.559526 1_545
Ge4 Ir4 2.559526 1_545
Ge4 Lu1 2.899864 1_556
Ge4 Lu0 2.899864 1_655
Ge4 Mg1 2.972508 1_545
Ge4 Mg0 2.972508 1_656
Ge5 Ir0 2.533931 1_555
Ge5 Ir6 2.552996 1_666
Ge5 Ir1 2.558542 1_555
Ge5 Ir3 2.558542 1_655
Ge5 Ir4 2.586579 1_655
Ge5 Mg0 2.893561 1_656
Ge5 Mg1 2.893562 1_555
Ge5 Lu0 2.978036 1_665
Ge5 Lu1 2.978036 1_666
Ir0 Mg0 2.868689 1_656
Ir0 Mg1 2.868695 1_555
Ir0 Lu0 2.914653 1_655
Ir0 Lu1 2.914659 1_555
Ir1 Mg0 2.855568 1_655
Ir1 Mg1 2.855568 1_555
Ir1 Lu0 2.929311 1_665
Ir1 Lu1 2.929311 1_555
Ir2 Mg0 2.868689 1_656
Ir2 Mg1 2.868695 1_555
Ir2 Lu1 2.914653 1_556
Ir2 Lu0 2.914659 1_555
Ir3 Mg0 2.855568 1_556
Ir3 Mg1 2.855568 1_555
Ir3 Lu1 2.929311 1_566
Ir3 Lu0 2.929311 1_555
Ir4 Mg0 2.868689 1_555
Ir4 Mg1 2.868695 1_555
Ir4 Lu0 2.914653 1_565
Ir4 Lu1 2.914659 1_566
Ir5 Mg0 2.868689 1_555
Ir5 Mg1 2.868695 1_555
Ir5 Lu1 2.914653 1_565
Ir5 Lu0 2.914659 1_665
