# generated using pymatgen
data_Yb2Br2F
_symmetry_space_group_name_H-M   'P 1'
_cell_length_a   3.77387362
_cell_length_b   3.77387362
_cell_length_c   13.15313055
_cell_angle_alpha   90.00000000
_cell_angle_beta   90.00000000
_cell_angle_gamma   90.00000000
_symmetry_Int_Tables_number   1
_chemical_formula_structural   Yb2Br2F
_chemical_formula_sum   'Yb2 Br2 F1'
_cell_volume   187.32849158
_cell_formula_units_Z   1
loop_
 _symmetry_equiv_pos_site_id
 _symmetry_equiv_pos_as_xyz
  1  'x, y, z'
loop_
 _atom_site_type_symbol
 _atom_site_label
 _atom_site_symmetry_multiplicity
 _atom_site_fract_x
 _atom_site_fract_y
 _atom_site_fract_z
 _atom_site_occupancy
  Yb  Yb0  1  0.50000000  0.50000000  0.16164367  1
  Yb  Yb1  1  0.50000000  0.50000000  0.83835633  1
  Br  Br0  1  0.50000000  0.50000000  0.64884585  1
  Br  Br1  1  0.50000000  0.50000000  0.35115415  1
  F  F0  1  0.50000000  0.50000000  0.00000000  1
loop_
_geom_bond_atom_site_label_1
_geom_bond_atom_site_label_2
_geom_bond_distance
_geom_bond_site_symmetry_2
Br0 Yb1 2.492656 1_555
Br1 Yb0 2.492656 1_555
F0 Yb0 2.126120 1_555
F0 Yb1 2.126120 1_554
