# generated using pymatgen
data_Rb3IrRhBr9
_symmetry_space_group_name_H-M   'P 1'
_cell_length_a   7.38052366
_cell_length_b   7.38052350
_cell_length_c   18.98866980
_cell_angle_alpha   90.00000000
_cell_angle_beta   90.00000000
_cell_angle_gamma   119.99998796
_symmetry_Int_Tables_number   1
_chemical_formula_structural   Rb3IrRhBr9
_chemical_formula_sum   'Rb6 Ir2 Rh2 Br18'
_cell_volume   895.77630691
_cell_formula_units_Z   2
loop_
 _symmetry_equiv_pos_site_id
 _symmetry_equiv_pos_as_xyz
  1  'x, y, z'
loop_
 _atom_site_type_symbol
 _atom_site_label
 _atom_site_symmetry_multiplicity
 _atom_site_fract_x
 _atom_site_fract_y
 _atom_site_fract_z
 _atom_site_occupancy
  Rb  Rb0  1  0.66666700  0.33333300  0.93763749  1
  Rb  Rb1  1  0.33333300  0.66666700  0.43763749  1
  Rb  Rb2  1  0.66666700  0.33333300  0.56359818  1
  Rb  Rb3  1  0.33333300  0.66666700  0.06359818  1
  Rb  Rb4  1  0.00000000  0.00000000  0.74943642  1
  Rb  Rb5  1  0.00000000  0.00000000  0.24943642  1
  Ir  Ir0  1  0.33333300  0.66666700  0.66483236  1
  Ir  Ir1  1  0.66666700  0.33333300  0.16483236  1
  Rh  Rh0  1  0.66666700  0.33333300  0.33595195  1
  Rh  Rh1  1  0.33333300  0.66666700  0.83595195  1
  Br  Br0  1  0.82577793  0.65155386  0.40868901  1
  Br  Br1  1  0.17422207  0.34844614  0.90868901  1
  Br  Br2  1  0.17422207  0.82577793  0.90868901  1
  Br  Br3  1  0.17357882  0.34715764  0.59116038  1
  Br  Br4  1  0.65155386  0.82577793  0.90868901  1
  Br  Br5  1  0.34844614  0.17422207  0.40868901  1
  Br  Br6  1  0.02606774  0.51303287  0.74966580  1
  Br  Br7  1  0.82577793  0.17422207  0.40868901  1
  Br  Br8  1  0.51303287  0.02606774  0.24966580  1
  Br  Br9  1  0.48696713  0.51303287  0.74966580  1
  Br  Br10  1  0.51303287  0.48696713  0.24966580  1
  Br  Br11  1  0.97393226  0.48696713  0.24966580  1
  Br  Br12  1  0.34715764  0.17357882  0.09116038  1
  Br  Br13  1  0.48696713  0.97393226  0.74966580  1
  Br  Br14  1  0.82642118  0.65284236  0.09116038  1
  Br  Br15  1  0.17357882  0.82642118  0.59116038  1
  Br  Br16  1  0.65284236  0.82642118  0.59116038  1
  Br  Br17  1  0.82642118  0.17357882  0.09116038  1
loop_
_geom_bond_atom_site_label_1
_geom_bond_atom_site_label_2
_geom_bond_distance
_geom_bond_site_symmetry_2
Br0 Rh0 2.458603 1_555
Br0 Rb2 3.576256 1_555
Br0 Rb1 3.732217 1_655
Br0 Rb1 3.732239 1_555
Br0 Rb5 3.755640 1_665
Br1 Rh1 2.458603 1_555
Br1 Rb3 3.576256 1_556
Br1 Rb0 3.732217 1_455
Br1 Rb0 3.732239 1_555
Br1 Rb4 3.755640 1_555
Br2 Rh1 2.458608 1_555
Br2 Rb3 3.576259 1_556
Br2 Rb0 3.732228 1_565
Br2 Rb0 3.732228 1_455
Br2 Rb4 3.755633 1_565
Br3 Ir0 2.475410 1_555
Br3 Rb1 3.559355 1_555
Br3 Rb2 3.728234 1_455
Br3 Rb2 3.728241 1_555
Br3 Rb4 3.735828 1_555
Br4 Rh1 2.458603 1_555
Br4 Rb3 3.576256 1_556
Br4 Rb0 3.732217 1_565
Br4 Rb0 3.732239 1_555
Br4 Rb4 3.755640 1_665
Br5 Rh0 2.458603 1_555
Br5 Rb2 3.576256 1_555
Br5 Rb1 3.732217 1_545
Br5 Rb1 3.732239 1_555
Br5 Rb5 3.755640 1_555
Br6 Ir0 2.540085 1_555
Br6 Rh1 2.557668 1_555
Br6 Rb4 3.694017 1_555
Br6 Rb4 3.694031 1_565
Br7 Rh0 2.458608 1_555
Br7 Rb2 3.576259 1_555
Br7 Rb1 3.732228 1_545
Br7 Rb1 3.732228 1_655
Br7 Rb5 3.755633 1_655
Br8 Ir1 2.540085 1_555
Br8 Rh0 2.557668 1_555
Br8 Rb5 3.694017 1_555
Br8 Rb5 3.694031 1_655
Br9 Ir0 2.540099 1_555
Br9 Rh1 2.557682 1_555
Br9 Rb4 3.694024 1_555
Br9 Rb4 3.694024 1_665
Br10 Ir1 2.540099 1_555
Br10 Rh0 2.557682 1_555
Br10 Rb5 3.694024 1_665
Br10 Rb5 3.694024 1_555
Br11 Ir1 2.540085 1_555
Br11 Rh0 2.557668 1_555
Br11 Rb5 3.694017 1_665
Br11 Rb5 3.694031 1_655
Br12 Ir1 2.475410 1_555
Br12 Rb0 3.559355 1_554
Br12 Rb3 3.728234 1_545
Br12 Rb3 3.728241 1_555
Br12 Rb5 3.735828 1_555
Br13 Ir0 2.540085 1_555
Br13 Rh1 2.557668 1_555
Br13 Rb4 3.694017 1_665
Br13 Rb4 3.694031 1_565
Br14 Ir1 2.475410 1_555
Br14 Rb0 3.559355 1_554
Br14 Rb3 3.728234 1_655
Br14 Rb3 3.728241 1_555
Br14 Rb5 3.735828 1_665
Br15 Ir0 2.475404 1_555
Br15 Rb1 3.559351 1_555
Br15 Rb2 3.728238 1_565
Br15 Rb2 3.728238 1_455
Br15 Rb4 3.735828 1_565
Br16 Ir0 2.475410 1_555
Br16 Rb1 3.559355 1_555
Br16 Rb2 3.728234 1_565
Br16 Rb2 3.728241 1_555
Br16 Rb4 3.735828 1_665
Br17 Ir1 2.475404 1_555
Br17 Rb0 3.559351 1_554
Br17 Rb3 3.728238 1_545
Br17 Rb3 3.728238 1_655
Br17 Rb5 3.735828 1_655
