# generated using pymatgen
data_SrLuGe4N7
_symmetry_space_group_name_H-M   'P 1'
_cell_length_a   6.20509132
_cell_length_b   6.20509041
_cell_length_c   10.14268439
_cell_angle_alpha   90.00000000
_cell_angle_beta   90.00000000
_cell_angle_gamma   119.99999448
_symmetry_Int_Tables_number   1
_chemical_formula_structural   SrLuGe4N7
_chemical_formula_sum   'Sr2 Lu2 Ge8 N14'
_cell_volume   338.20487107
_cell_formula_units_Z   2
loop_
 _symmetry_equiv_pos_site_id
 _symmetry_equiv_pos_as_xyz
  1  'x, y, z'
loop_
 _atom_site_type_symbol
 _atom_site_label
 _atom_site_symmetry_multiplicity
 _atom_site_fract_x
 _atom_site_fract_y
 _atom_site_fract_z
 _atom_site_occupancy
  Sr  Sr0  1  0.66666700  0.33333300  0.58310626  1
  Sr  Sr1  1  0.33333300  0.66666700  0.08310626  1
  Lu  Lu0  1  0.66666700  0.33333300  0.95104207  1
  Lu  Lu1  1  0.33333300  0.66666700  0.45104207  1
  Ge  Ge0  1  0.17336004  0.34672009  0.76081598  1
  Ge  Ge1  1  0.82663996  0.17336004  0.26081598  1
  Ge  Ge2  1  0.34672009  0.17336004  0.26081598  1
  Ge  Ge3  1  0.65327991  0.82663996  0.76081598  1
  Ge  Ge4  1  0.17336004  0.82663996  0.76081598  1
  Ge  Ge5  1  0.82663996  0.65327991  0.26081598  1
  Ge  Ge6  1  0.00000000  0.00000000  0.02402878  1
  Ge  Ge7  1  0.00000000  0.00000000  0.52402878  1
  N  N0  1  0.00000000  0.00000000  0.83207916  1
  N  N1  1  0.00000000  0.00000000  0.33207916  1
  N  N2  1  0.83957099  0.67914099  0.08082363  1
  N  N3  1  0.16042901  0.83957099  0.58082363  1
  N  N4  1  0.67914099  0.83957099  0.58082363  1
  N  N5  1  0.32085901  0.16042901  0.08082363  1
  N  N6  1  0.83957099  0.16042901  0.08082363  1
  N  N7  1  0.16042901  0.32085901  0.58082363  1
  N  N8  1  0.49619998  0.50380002  0.81921496  1
  N  N9  1  0.99240095  0.49619998  0.31921496  1
  N  N10  1  0.50380002  0.00759905  0.31921496  1
  N  N11  1  0.49619998  0.99240095  0.81921496  1
  N  N12  1  0.50380002  0.49619998  0.31921496  1
  N  N13  1  0.00759905  0.50380002  0.81921496  1
loop_
_geom_bond_atom_site_label_1
_geom_bond_atom_site_label_2
_geom_bond_distance
_geom_bond_site_symmetry_2
Lu0 N11 2.268113 1_545
Lu0 N13 2.268113 1_655
Lu0 N8 2.268121 1_555
Lu0 N6 2.277275 1_556
Lu0 N2 2.277275 1_556
Lu0 N5 2.277275 1_556
Lu1 N10 2.268113 1_565
Lu1 N9 2.268113 1_455
Lu1 N12 2.268121 1_555
Lu1 N3 2.277275 1_555
Lu1 N7 2.277275 1_555
Lu1 N4 2.277275 1_555
Ge0 N7 1.830887 1_555
Ge0 N8 1.833394 1_555
Ge0 N13 1.833399 1_555
Ge0 N0 1.998481 1_555
Ge1 N6 1.830888 1_555
Ge1 N9 1.833394 1_555
Ge1 N10 1.833394 1_555
Ge1 N1 1.998481 1_655
Ge2 N5 1.830887 1_555
Ge2 N12 1.833394 1_555
Ge2 N10 1.833399 1_555
Ge2 N1 1.998481 1_555
Ge3 N4 1.830887 1_555
Ge3 N8 1.833394 1_555
Ge3 N11 1.833399 1_555
Ge3 N0 1.998481 1_665
Ge4 N3 1.830888 1_555
Ge4 N13 1.833394 1_555
Ge4 N11 1.833394 1_555
Ge4 N0 1.998481 1_565
Ge5 N2 1.830887 1_555
Ge5 N12 1.833394 1_555
Ge5 N9 1.833399 1_555
Ge5 N1 1.998481 1_665
Ge6 N6 1.817899 1_455
Ge6 N2 1.817904 1_445
Ge6 N5 1.817904 1_555
Ge6 N0 1.946884 1_554
Ge7 N3 1.817899 1_545
Ge7 N7 1.817904 1_555
Ge7 N4 1.817904 1_445
Ge7 N1 1.946884 1_555
N2 Sr1 3.103350 1_655
N2 Sr1 3.103362 1_555
N3 Sr0 3.103356 1_455
N3 Sr0 3.103356 1_565
N4 Sr0 3.103349 1_565
N4 Sr0 3.103362 1_555
N5 Sr1 3.103349 1_545
N5 Sr1 3.103362 1_555
N6 Sr1 3.103356 1_655
N6 Sr1 3.103356 1_545
N7 Sr0 3.103350 1_455
N7 Sr0 3.103362 1_555
N8 Sr0 3.015218 1_555
N8 Sr1 3.198120 1_556
N9 Sr1 3.015212 1_655
N9 Sr0 3.198120 1_555
N10 Sr1 3.015212 1_545
N10 Sr0 3.198120 1_555
N11 Sr0 3.015212 1_565
N11 Sr1 3.198120 1_556
N12 Sr1 3.015218 1_555
N12 Sr0 3.198120 1_555
N13 Sr0 3.015212 1_455
N13 Sr1 3.198120 1_556
