# generated using pymatgen
data_Ti6Tc5As6Pd
_symmetry_space_group_name_H-M   'P 1'
_cell_length_a   7.51338205
_cell_length_b   7.53681650
_cell_length_c   7.53681723
_cell_angle_alpha   127.78521212
_cell_angle_beta   122.86264581
_cell_angle_gamma   81.13412205
_symmetry_Int_Tables_number   1
_chemical_formula_structural   Ti6Tc5As6Pd
_chemical_formula_sum   'Ti6 Tc5 As6 Pd1'
_cell_volume   272.90329593
_cell_formula_units_Z   1
loop_
 _symmetry_equiv_pos_site_id
 _symmetry_equiv_pos_as_xyz
  1  'x, y, z'
loop_
 _atom_site_type_symbol
 _atom_site_label
 _atom_site_symmetry_multiplicity
 _atom_site_fract_x
 _atom_site_fract_y
 _atom_site_fract_z
 _atom_site_occupancy
  Ti  Ti0  1  0.46052513  0.25213280  0.27427018  1
  Ti  Ti1  1  0.53947487  0.81374405  0.79160767  1
  Ti  Ti2  1  0.75469701  0.65238946  0.40896292  1
  Ti  Ti3  1  0.24530299  0.65426591  0.89769145  1
  Ti  Ti4  1  0.04781703  0.84748773  0.29374948  1
  Ti  Ti5  1  0.95218297  0.24593244  0.79967070  1
  Tc  Tc0  1  0.66241720  0.50070826  0.91048907  1
  Tc  Tc1  1  0.33758280  0.24807287  0.83829306  1
  Tc  Tc2  1  0.91456637  0.25016794  0.41778805  1
  Tc  Tc3  1  0.08543363  0.50322168  0.33560257  1
  Tc  Tc4  1  1.00000000  0.99512817  0.99512817  1
  As  As0  1  0.83340892  0.57959186  0.74739230  1
  As  As1  1  0.16659108  0.91398138  0.74618195  1
  As  As2  1  0.67342254  0.91344358  0.25143190  1
  As  As3  1  0.32657746  0.57800836  0.24002104  1
  As  As4  1  0.27797916  0.28097650  0.49798592  1
  As  As5  1  0.72202084  0.22000676  0.00299834  1
  Pd  Pd0  1  0.50000000  0.99113726  0.49113726  1
loop_
_geom_bond_atom_site_label_1
_geom_bond_atom_site_label_2
_geom_bond_distance
_geom_bond_site_symmetry_2
Tc0 Ti4 2.750226 1_656
Tc0 Ti5 2.800732 1_555
Tc0 Ti2 2.838388 1_556
Tc0 Ti1 2.871016 1_555
Tc0 Tc1 2.932528 1_555
Tc0 Tc3 3.043070 1_656
Tc0 Ti3 3.140228 1_555
Tc0 Ti0 3.282905 1_555
Tc1 Ti5 2.750219 1_455
Tc1 Ti4 2.800740 1_545
Tc1 Ti3 2.838389 1_555
Tc1 Ti0 2.871014 1_556
Tc1 Tc2 3.043070 1_455
Tc1 Ti2 3.140225 1_556
Tc1 Ti1 3.282914 1_545
Tc2 Ti5 2.755326 1_555
Tc2 Ti3 2.759138 1_655
Tc2 Ti4 2.772989 1_645
Tc2 Tc4 2.930824 1_544
Tc2 Tc3 2.955445 1_655
Tc2 Ti0 2.967703 1_555
Tc2 Ti2 3.110465 1_555
Tc2 Ti1 3.230338 1_544
Tc3 Ti4 2.755330 1_555
Tc3 Ti2 2.759136 1_455
Tc3 Ti5 2.772995 1_454
Tc3 Tc4 2.930824 1_444
Tc3 Ti1 2.967700 1_555
Tc3 Ti3 3.110451 1_555
Tc3 Ti0 3.230338 1_555
Tc4 Ti2 2.869411 1_555
Tc4 Ti3 2.869411 1_655
Tc4 Ti5 2.915622 1_565
Tc4 Ti4 2.915622 1_656
As0 Tc2 2.515259 1_555
As0 Tc0 2.521873 1_555
As0 Tc4 2.523409 1_555
As0 Ti1 2.641843 1_555
As0 Ti3 2.669898 1_655
As0 Ti2 2.671064 1_555
As0 Ti0 2.675933 1_555
As0 Ti4 2.691352 1_656
As0 Ti5 2.723293 1_555
As1 Tc3 2.515246 1_555
As1 Tc1 2.521879 1_565
As1 Tc4 2.523411 1_455
As1 Ti0 2.641852 1_566
As1 Ti2 2.669891 1_455
As1 Ti3 2.671049 1_555
As1 Ti1 2.675930 1_555
As1 Ti5 2.691362 1_465
As1 Ti4 2.723294 1_555
As2 Pd0 2.515490 1_555
As2 Tc0 2.517918 1_554
As2 Tc2 2.519544 1_565
As2 Ti1 2.616255 1_554
As2 Ti4 2.655414 1_655
As2 Ti5 2.697595 1_565
As2 Ti2 2.712755 1_555
As2 Ti3 2.741985 1_554
As2 Ti0 2.757903 1_565
As3 Pd0 2.515496 1_555
As3 Tc1 2.517905 1_554
As3 Tc3 2.519546 1_555
As3 Ti0 2.616251 1_555
As3 Ti5 2.655411 1_454
As3 Ti4 2.697599 1_555
As3 Ti3 2.712768 1_554
As3 Ti2 2.741987 1_555
As3 Ti1 2.757903 1_555
As4 Tc2 2.471238 1_455
As4 Tc4 2.481595 1_444
As4 Tc0 2.484132 1_555
As4 Tc3 2.498006 1_555
As4 Tc1 2.517753 1_555
As4 Pd0 2.527695 1_545
As4 Ti0 2.596144 1_555
As4 Ti3 2.693449 1_555
As4 Ti4 2.953650 1_545
As5 Tc3 2.471238 1_655
As5 Tc4 2.481595 1_544
As5 Tc1 2.484134 1_554
As5 Tc2 2.498003 1_555
As5 Tc0 2.517749 1_554
As5 Pd0 2.527701 1_544
As5 Ti1 2.596148 1_544
As5 Ti2 2.693451 1_555
As5 Ti5 2.953657 1_554
Pd0 Ti2 2.899382 1_555
Pd0 Ti3 2.899387 1_554
Pd0 Ti5 2.933046 1_565
Pd0 Ti4 2.933046 1_555
Pd0 Tc0 2.934744 1_565
Pd0 Tc1 2.934755 1_565
Pd0 Ti0 3.140516 1_565
Pd0 Ti1 3.140523 1_555
