# generated using pymatgen
data_RbNaNiP2
_symmetry_space_group_name_H-M   'P 1'
_cell_length_a   6.90108268
_cell_length_b   6.90108248
_cell_length_c   5.55838242
_cell_angle_alpha   90.00000000
_cell_angle_beta   90.00000000
_cell_angle_gamma   123.40019256
_symmetry_Int_Tables_number   1
_chemical_formula_structural   RbNaNiP2
_chemical_formula_sum   'Rb2 Na2 Ni2 P4'
_cell_volume   220.99846114
_cell_formula_units_Z   2
loop_
 _symmetry_equiv_pos_site_id
 _symmetry_equiv_pos_as_xyz
  1  'x, y, z'
loop_
 _atom_site_type_symbol
 _atom_site_label
 _atom_site_symmetry_multiplicity
 _atom_site_fract_x
 _atom_site_fract_y
 _atom_site_fract_z
 _atom_site_occupancy
  Rb  Rb0  1  0.39577881  0.60422119  0.25000000  1
  Rb  Rb1  1  0.60422119  0.39577881  0.75000000  1
  Na  Na0  1  0.79065154  0.20934846  0.25000000  1
  Na  Na1  1  0.20934846  0.79065154  0.75000000  1
  Ni  Ni0  1  0.00000000  0.00000000  0.00000000  1
  Ni  Ni1  1  0.00000000  0.00000000  0.50000000  1
  P  P0  1  0.94673198  0.72188304  0.25000000  1
  P  P1  1  0.05326802  0.27811696  0.75000000  1
  P  P2  1  0.27811696  0.05326802  0.25000000  1
  P  P3  1  0.72188304  0.94673198  0.75000000  1
loop_
_geom_bond_atom_site_label_1
_geom_bond_atom_site_label_2
_geom_bond_distance
_geom_bond_site_symmetry_2
Rb0 Rb1 3.760384 1_555
Rb0 Rb1 3.760384 1_554
Na0 Ni0 2.898873 1_655
Na0 Ni1 2.898873 1_655
Na0 P0 3.078371 1_555
Na0 P2 3.078371 1_555
Na0 P3 3.207298 1_544
Na0 P3 3.207298 1_545
Na0 P1 3.207298 1_655
Na0 P1 3.207298 1_654
Na0 Rb0 3.512301 1_545
Na0 Rb0 3.512301 1_655
Na0 Rb1 3.585642 1_554
Na0 Rb1 3.585642 1_555
Na1 Ni0 2.898873 1_566
Na1 Ni1 2.898873 1_565
Na1 P1 3.078371 1_555
Na1 P3 3.078371 1_555
Na1 P2 3.207298 1_565
Na1 P2 3.207298 1_566
Na1 P0 3.207298 1_456
Na1 P0 3.207298 1_455
Na1 Rb1 3.512301 1_565
Na1 Rb1 3.512301 1_455
Na1 Rb0 3.585642 1_555
Na1 Rb0 3.585642 1_556
Ni0 P1 2.230037 1_554
Ni0 P0 2.230037 1_445
Ni0 P2 2.230037 1_555
Ni0 P3 2.230037 1_444
Ni0 Rb0 3.773489 1_555
Ni0 Rb1 3.773489 1_444
Ni0 Rb1 3.773489 1_554
Ni0 Rb0 3.773489 1_445
Ni1 P1 2.230037 1_555
Ni1 P0 2.230037 1_445
Ni1 P2 2.230037 1_555
Ni1 P3 2.230037 1_445
Ni1 Rb0 3.773489 1_555
Ni1 Rb1 3.773489 1_445
Ni1 Rb1 3.773489 1_555
Ni1 Rb0 3.773489 1_445
P0 P2 2.168392 1_665
P0 Rb0 3.422980 1_555
P0 Rb1 3.538229 1_555
P0 Rb1 3.538229 1_554
P0 Rb0 3.610115 1_655
P1 P3 2.168392 1_445
P1 Rb1 3.422980 1_555
P1 Rb0 3.538229 1_555
P1 Rb0 3.538229 1_556
P1 Rb1 3.610115 1_455
P2 Rb0 3.422980 1_555
P2 Rb1 3.538229 1_555
P2 Rb1 3.538229 1_554
P2 Rb0 3.610115 1_545
P3 Rb1 3.422980 1_555
P3 Rb0 3.538229 1_555
P3 Rb0 3.538229 1_556
P3 Rb1 3.610115 1_565
