# generated using pymatgen
data_Zr10Ga3Sn2Sb3
_symmetry_space_group_name_H-M   'P 1'
_cell_length_a   8.63390447
_cell_length_b   8.63390444
_cell_length_c   5.84378086
_cell_angle_alpha   90.00000000
_cell_angle_beta   90.00000000
_cell_angle_gamma   120.06309493
_symmetry_Int_Tables_number   1
_chemical_formula_structural   Zr10Ga3Sn2Sb3
_chemical_formula_sum   'Zr10 Ga3 Sn2 Sb3'
_cell_volume   377.01841255
_cell_formula_units_Z   1
loop_
 _symmetry_equiv_pos_site_id
 _symmetry_equiv_pos_as_xyz
  1  'x, y, z'
loop_
 _atom_site_type_symbol
 _atom_site_label
 _atom_site_symmetry_multiplicity
 _atom_site_fract_x
 _atom_site_fract_y
 _atom_site_fract_z
 _atom_site_occupancy
  Zr  Zr0  1  0.27900384  0.27900384  0.75000000  1
  Zr  Zr1  1  0.73822076  0.73822076  0.25000000  1
  Zr  Zr2  1  0.72440367  0.98882869  0.75000000  1
  Zr  Zr3  1  0.00105759  0.26263139  0.25000000  1
  Zr  Zr4  1  0.33650432  0.66560696  0.50363465  1
  Zr  Zr5  1  0.66560696  0.33650432  0.50363465  1
  Zr  Zr6  1  0.98882869  0.72440367  0.75000000  1
  Zr  Zr7  1  0.33650432  0.66560696  0.99636535  1
  Zr  Zr8  1  0.26263139  0.00105759  0.25000000  1
  Zr  Zr9  1  0.66560696  0.33650432  0.99636535  1
  Ga  Ga0  1  0.00209697  0.00209697  0.51347558  1
  Ga  Ga1  1  0.61339189  0.61339189  0.75000000  1
  Ga  Ga2  1  0.00209697  0.00209697  0.98652442  1
  Sn  Sn0  1  0.38199372  0.99817938  0.75000000  1
  Sn  Sn1  1  0.99817938  0.38199372  0.75000000  1
  Sb  Sb0  1  0.60871093  0.00064672  0.25000000  1
  Sb  Sb1  1  0.39451591  0.39451591  0.25000000  1
  Sb  Sb2  1  0.00064672  0.60871093  0.25000000  1
loop_
_geom_bond_atom_site_label_1
_geom_bond_atom_site_label_2
_geom_bond_distance
_geom_bond_site_symmetry_2
Ga0 Zr6 2.719703 1_445
Ga0 Zr2 2.719703 1_445
Ga0 Zr3 2.729633 1_555
Ga0 Zr8 2.729633 1_555
Ga0 Zr1 2.747968 1_445
Ga0 Zr0 2.759608 1_555
Ga1 Zr2 2.883246 1_555
Ga1 Zr6 2.883246 1_555
Ga1 Zr0 2.884321 1_555
Ga1 Zr9 3.011785 1_555
Ga1 Zr5 3.011785 1_555
Ga1 Zr7 3.011785 1_555
Ga1 Zr4 3.011785 1_555
Ga1 Zr1 3.113968 1_555
Ga1 Zr1 3.113968 1_556
Ga2 Zr6 2.719703 1_445
Ga2 Zr2 2.719703 1_445
Ga2 Zr3 2.729633 1_556
Ga2 Zr8 2.729633 1_556
Ga2 Zr1 2.747968 1_446
Ga2 Zr0 2.759608 1_555
Sn0 Zr0 2.971450 1_565
Sn0 Zr2 2.997593 1_555
Sn0 Zr6 3.011830 1_455
Sn0 Zr7 3.056475 1_555
Sn0 Zr4 3.056475 1_555
Sn0 Zr9 3.071650 1_565
Sn0 Zr5 3.071650 1_565
Sn0 Zr8 3.102544 1_566
Sn0 Zr8 3.102544 1_565
Sn1 Zr0 2.971450 1_655
Sn1 Zr6 2.997593 1_555
Sn1 Zr2 3.011830 1_545
Sn1 Zr9 3.056475 1_555
Sn1 Zr5 3.056475 1_555
Sn1 Zr7 3.071650 1_655
Sn1 Zr4 3.071650 1_655
Sn1 Zr3 3.102544 1_656
Sn1 Zr3 3.102544 1_655
Sb0 Zr3 2.985722 1_655
Sb0 Zr1 2.987028 1_545
Sb0 Zr8 2.989796 1_555
Sb0 Zr4 3.045760 1_545
Sb0 Zr7 3.045760 1_544
Sb0 Zr5 3.069141 1_555
Sb0 Zr9 3.069141 1_554
Sb0 Zr2 3.106080 1_544
Sb0 Zr2 3.106080 1_545
Sb1 Zr1 2.964684 1_555
Sb1 Zr8 2.993525 1_555
Sb1 Zr3 2.993525 1_555
Sb1 Zr4 3.016717 1_555
Sb1 Zr7 3.016717 1_554
Sb1 Zr5 3.016717 1_555
Sb1 Zr9 3.016717 1_554
Sb1 Zr0 3.087101 1_555
Sb1 Zr0 3.087101 1_554
Sb2 Zr8 2.985722 1_565
Sb2 Zr1 2.987028 1_455
Sb2 Zr3 2.989796 1_555
Sb2 Zr5 3.045760 1_455
Sb2 Zr9 3.045760 1_454
Sb2 Zr4 3.069141 1_555
Sb2 Zr7 3.069141 1_554
Sb2 Zr6 3.106080 1_455
Sb2 Zr6 3.106080 1_454
