# generated using pymatgen
data_Hf4TaSn3Ge
_symmetry_space_group_name_H-M   'P 1'
_cell_length_a   8.53963219
_cell_length_b   8.53963171
_cell_length_c   5.73072455
_cell_angle_alpha   90.00000000
_cell_angle_beta   90.00000000
_cell_angle_gamma   120.00000186
_symmetry_Int_Tables_number   1
_chemical_formula_structural   Hf4TaSn3Ge
_chemical_formula_sum   'Hf8 Ta2 Sn6 Ge2'
_cell_volume   361.92490167
_cell_formula_units_Z   2
loop_
 _symmetry_equiv_pos_site_id
 _symmetry_equiv_pos_as_xyz
  1  'x, y, z'
loop_
 _atom_site_type_symbol
 _atom_site_label
 _atom_site_symmetry_multiplicity
 _atom_site_fract_x
 _atom_site_fract_y
 _atom_site_fract_z
 _atom_site_occupancy
  Hf  Hf0  1  0.73486767  0.73486767  0.75090054  1
  Hf  Hf1  1  0.26513233  0.00000000  0.75090054  1
  Hf  Hf2  1  1.00000000  0.26513233  0.75090054  1
  Hf  Hf3  1  0.26513233  0.26513233  0.24909946  1
  Hf  Hf4  1  0.73486767  0.00000000  0.24909946  1
  Hf  Hf5  1  0.00000000  0.73486767  0.24909946  1
  Hf  Hf6  1  0.33333300  0.66666700  0.50000000  1
  Hf  Hf7  1  0.66666700  0.33333300  0.50000000  1
  Ta  Ta0  1  0.66666700  0.33333300  0.00000000  1
  Ta  Ta1  1  0.33333300  0.66666700  0.00000000  1
  Sn  Sn0  1  0.39427434  0.39427434  0.75432399  1
  Sn  Sn1  1  0.60572566  0.00000000  0.75432399  1
  Sn  Sn2  1  1.00000000  0.60572566  0.75432399  1
  Sn  Sn3  1  0.60572566  0.60572566  0.24567601  1
  Sn  Sn4  1  0.39427434  0.00000000  0.24567601  1
  Sn  Sn5  1  0.00000000  0.39427434  0.24567601  1
  Ge  Ge0  1  0.00000000  0.00000000  0.00000000  1
  Ge  Ge1  1  0.00000000  0.00000000  0.50000000  1
loop_
_geom_bond_atom_site_label_1
_geom_bond_atom_site_label_2
_geom_bond_distance
_geom_bond_site_symmetry_2
Hf0 Sn0 2.908608 1_555
Hf0 Sn1 2.973188 1_565
Hf0 Sn2 2.973188 1_555
Hf0 Sn3 3.042341 1_556
Hf0 Sn3 3.098225 1_555
Hf1 Sn1 2.908608 1_555
Hf1 Sn0 2.973188 1_555
Hf1 Sn2 2.973188 1_445
Hf1 Sn4 3.042341 1_556
Hf1 Sn4 3.098225 1_555
Hf2 Sn2 2.908608 1_555
Hf2 Sn1 2.973188 1_555
Hf2 Sn0 2.973188 1_655
Hf2 Sn5 3.042341 1_656
Hf2 Sn5 3.098225 1_655
Hf3 Sn3 2.908608 1_555
Hf3 Sn4 2.973188 1_555
Hf3 Sn5 2.973188 1_555
Hf3 Sn0 3.042341 1_554
Hf3 Sn0 3.098225 1_555
Hf4 Sn4 2.908608 1_555
Hf4 Sn3 2.973188 1_545
Hf4 Sn5 2.973188 1_655
Hf4 Sn1 3.042341 1_554
Hf4 Sn1 3.098225 1_555
Hf5 Sn5 2.908608 1_555
Hf5 Sn4 2.973188 1_565
Hf5 Sn3 2.973188 1_455
Hf5 Sn2 3.042341 1_454
Hf5 Sn2 3.098225 1_455
Hf6 Ta1 2.865362 1_555
Hf6 Ta1 2.865362 1_556
Hf6 Sn4 3.002738 1_565
Hf6 Sn2 3.002738 1_455
Hf6 Sn1 3.002740 1_565
Hf6 Sn5 3.002740 1_555
Hf6 Sn0 3.002745 1_555
Hf6 Sn3 3.002745 1_555
Hf7 Ta0 2.865362 1_555
Hf7 Ta0 2.865362 1_556
Hf7 Sn1 3.002738 1_555
Hf7 Sn5 3.002738 1_655
Hf7 Sn4 3.002740 1_555
Hf7 Sn2 3.002740 1_555
Hf7 Sn3 3.002745 1_555
Hf7 Sn0 3.002745 1_555
Sn0 Ta1 2.979005 1_556
Sn0 Ta0 2.979006 1_556
Sn1 Ta0 2.978998 1_556
Sn1 Ta1 2.979001 1_546
Sn2 Ta1 2.978998 1_656
Sn2 Ta0 2.979001 1_556
Sn3 Ta0 2.979005 1_555
Sn3 Ta1 2.979006 1_555
Sn4 Ta1 2.978998 1_545
Sn4 Ta0 2.979001 1_555
Sn5 Ta0 2.978998 1_455
Sn5 Ta1 2.979001 1_555
Ge0 Hf5 2.676586 1_545
Ge0 Hf2 2.676586 1_454
Ge0 Hf3 2.676586 1_555
Ge0 Hf0 2.676586 1_444
Ge0 Hf1 2.676586 1_554
Ge0 Hf4 2.676586 1_455
Ge1 Hf2 2.682105 1_455
Ge1 Hf5 2.682105 1_545
Ge1 Hf3 2.682105 1_555
Ge1 Hf0 2.682105 1_445
Ge1 Hf1 2.682105 1_555
Ge1 Hf4 2.682105 1_455
