# generated using pymatgen
data_Cs4MnZn5Te8
_symmetry_space_group_name_H-M   'P 1'
_cell_length_a   10.52546260
_cell_length_b   10.53757647
_cell_length_c   10.52546193
_cell_angle_alpha   144.35327588
_cell_angle_beta   105.36695628
_cell_angle_gamma   85.49933140
_symmetry_Int_Tables_number   1
_chemical_formula_structural   Cs4MnZn5Te8
_chemical_formula_sum   'Cs4 Mn1 Zn5 Te8'
_cell_volume   636.26836413
_cell_formula_units_Z   1
loop_
 _symmetry_equiv_pos_site_id
 _symmetry_equiv_pos_as_xyz
  1  'x, y, z'
loop_
 _atom_site_type_symbol
 _atom_site_label
 _atom_site_symmetry_multiplicity
 _atom_site_fract_x
 _atom_site_fract_y
 _atom_site_fract_z
 _atom_site_occupancy
  Cs  Cs0  1  0.12369396  0.23413461  0.35629311  1
  Cs  Cs1  1  0.37772036  0.73118808  0.10825613  1
  Cs  Cs2  1  0.62215750  0.26586539  0.88955936  1
  Cs  Cs3  1  0.87706805  0.76881192  0.64653228  1
  Mn  Mn0  1  0.01343840  0.25000000  0.76343840  1
  Zn  Zn0  1  0.52035796  0.75000000  0.77035796  1
  Zn  Zn1  1  0.98301403  0.75000000  0.23301403  1
  Zn  Zn2  1  0.48193885  0.25000000  0.23193885  1
  Zn  Zn3  1  0.75131160  0.25000000  0.50131160  1
  Zn  Zn4  1  0.25139081  0.75000000  0.50139081  1
  Te  Te0  1  0.21930473  0.06962265  0.59000109  1
  Te  Te1  1  0.28435854  0.87900217  0.85822681  1
  Te  Te2  1  0.02037844  0.43037735  0.14968308  1
  Te  Te3  1  0.47922365  0.62099783  0.40535537  1
  Te  Te4  1  0.77795295  0.91705259  0.39346937  1
  Te  Te5  1  0.71780913  0.12253212  0.14499537  1
  Te  Te6  1  0.97641679  0.58294741  0.86089937  1
  Te  Te7  1  0.52246326  0.37746788  0.59527701  1
loop_
_geom_bond_atom_site_label_1
_geom_bond_atom_site_label_2
_geom_bond_distance
_geom_bond_site_symmetry_2
Cs0 Te0 3.926044 1_555
Cs0 Te7 3.930635 1_555
Cs0 Te1 3.958366 1_555
Cs0 Te6 3.982884 1_455
Cs0 Te2 3.986296 1_555
Cs0 Te6 3.988955 1_444
Cs0 Te5 4.010276 1_455
Cs0 Te1 4.020873 1_544
Cs1 Te0 3.920145 1_565
Cs1 Te1 3.920295 1_554
Cs1 Te4 3.953573 1_555
Cs1 Te6 3.956910 1_454
Cs1 Te7 3.965971 1_565
Cs1 Te7 4.015837 1_554
Cs1 Te3 4.025466 1_555
Cs1 Te0 4.041560 1_554
Cs2 Te2 3.926054 1_656
Cs2 Te5 3.930636 1_556
Cs2 Te3 3.958364 1_545
Cs2 Te4 3.982899 1_545
Cs2 Te0 3.986296 1_555
Cs2 Te4 3.988959 1_556
Cs2 Te7 4.010276 1_555
Cs2 Te3 4.020866 1_556
Cs3 Te2 3.920137 1_655
Cs3 Te3 3.920305 1_555
Cs3 Te6 3.953563 1_555
Cs3 Te4 3.956909 1_555
Cs3 Te5 3.965971 1_555
Cs3 Te5 4.015837 1_566
Cs3 Te1 4.025476 1_655
Cs3 Te2 4.041558 1_666
Mn0 Te0 2.729695 1_555
Mn0 Te2 2.729705 1_556
Mn0 Te4 2.767910 1_445
Mn0 Te6 2.767917 1_455
Te0 Zn4 2.685285 1_545
Te0 Zn1 2.727902 1_445
Te1 Zn2 2.651156 1_566
Te1 Zn4 2.675855 1_555
Te1 Zn0 2.741874 1_555
Te2 Zn4 2.685284 1_555
Te2 Zn1 2.727909 1_455
Te3 Zn2 2.651162 1_555
Te3 Zn4 2.675847 1_555
Te3 Zn0 2.741882 1_555
Te4 Zn1 2.667098 1_555
Te4 Zn3 2.686673 1_565
Te5 Zn0 2.656579 1_544
Te5 Zn3 2.679577 1_555
Te5 Zn2 2.736453 1_555
Te6 Zn1 2.667107 1_556
Te6 Zn3 2.686672 1_555
Te7 Zn0 2.656579 1_555
Te7 Zn3 2.679577 1_555
Te7 Zn2 2.736453 1_555
