# generated using pymatgen
data_Rb6InSe4Cl
_symmetry_space_group_name_H-M   'P 1'
_cell_length_a   11.01927384
_cell_length_b   11.01927369
_cell_length_c   8.12655186
_cell_angle_alpha   90.00000000
_cell_angle_beta   90.00000000
_cell_angle_gamma   120.00000337
_symmetry_Int_Tables_number   1
_chemical_formula_structural   Rb6InSe4Cl
_chemical_formula_sum   'Rb12 In2 Se8 Cl2'
_cell_volume   854.56061593
_cell_formula_units_Z   2
loop_
 _symmetry_equiv_pos_site_id
 _symmetry_equiv_pos_as_xyz
  1  'x, y, z'
loop_
 _atom_site_type_symbol
 _atom_site_label
 _atom_site_symmetry_multiplicity
 _atom_site_fract_x
 _atom_site_fract_y
 _atom_site_fract_z
 _atom_site_occupancy
  Rb  Rb0  1  0.13145530  0.86854470  0.51139540  1
  Rb  Rb1  1  0.73708840  0.86854470  0.51139540  1
  Rb  Rb2  1  0.94599658  0.47299829  0.32068393  1
  Rb  Rb3  1  0.52700171  0.47299829  0.32068393  1
  Rb  Rb4  1  0.86854470  0.73708840  0.01139540  1
  Rb  Rb5  1  0.26291160  0.13145530  0.01139540  1
  Rb  Rb6  1  0.52700171  0.05400342  0.32068393  1
  Rb  Rb7  1  0.13145530  0.26291160  0.51139540  1
  Rb  Rb8  1  0.86854470  0.13145530  0.01139540  1
  Rb  Rb9  1  0.05400342  0.52700171  0.82068393  1
  Rb  Rb10  1  0.47299829  0.94599658  0.82068393  1
  Rb  Rb11  1  0.47299829  0.52700171  0.82068393  1
  In  In0  1  0.66666700  0.33333300  0.71121954  1
  In  In1  1  0.33333300  0.66666700  0.21121954  1
  Se  Se0  1  0.40776236  0.20388118  0.61011285  1
  Se  Se1  1  0.59223764  0.79611882  0.11011285  1
  Se  Se2  1  0.66666700  0.33333300  0.03525242  1
  Se  Se3  1  0.79611882  0.59223764  0.61011285  1
  Se  Se4  1  0.20388118  0.40776236  0.11011285  1
  Se  Se5  1  0.33333300  0.66666700  0.53525242  1
  Se  Se6  1  0.20388118  0.79611882  0.11011285  1
  Se  Se7  1  0.79611882  0.20388118  0.61011285  1
  Cl  Cl0  1  0.00000000  0.00000000  0.26755251  1
  Cl  Cl1  1  0.00000000  0.00000000  0.76755251  1
loop_
_geom_bond_atom_site_label_1
_geom_bond_atom_site_label_2
_geom_bond_distance
_geom_bond_site_symmetry_2
Rb0 Se0 3.509609 1_565
Rb0 Se3 3.509609 1_455
Rb0 Se6 3.541921 1_555
Rb0 Se5 3.857901 1_555
Rb1 Se7 3.509605 1_565
Rb1 Se3 3.509616 1_555
Rb1 Se1 3.541917 1_555
Rb1 Se5 3.857901 1_555
Rb2 Se7 3.486576 1_555
Rb2 Se3 3.486576 1_555
Rb2 Se2 3.533557 1_555
Rb2 Se6 3.682803 1_655
Rb2 Se4 3.682803 1_655
Rb3 Se0 3.486576 1_555
Rb3 Se3 3.486576 1_555
Rb3 Se2 3.533565 1_555
Rb3 Se1 3.682803 1_555
Rb3 Se4 3.682803 1_555
Rb4 Se6 3.509605 1_655
Rb4 Se1 3.509616 1_555
Rb4 Se3 3.541917 1_554
Rb4 Se2 3.857900 1_555
Rb5 Se6 3.509605 1_545
Rb5 Se4 3.509616 1_555
Rb5 Se0 3.541917 1_554
Rb5 Se2 3.857901 1_555
Rb6 Se7 3.486576 1_555
Rb6 Se0 3.486576 1_555
Rb6 Se2 3.533557 1_555
Rb6 Se6 3.682803 1_545
Rb6 Se1 3.682803 1_545
Rb7 Se7 3.509605 1_455
Rb7 Se0 3.509616 1_555
Rb7 Se4 3.541917 1_555
Rb7 Se5 3.857900 1_555
Rb8 Se1 3.509609 1_545
Rb8 Se4 3.509609 1_655
Rb8 Se7 3.541921 1_554
Rb8 Se2 3.857901 1_555
Rb9 Se6 3.486576 1_556
Rb9 Se4 3.486576 1_556
Rb9 Se5 3.533557 1_555
Rb9 Se7 3.682803 1_455
Rb9 Se3 3.682803 1_455
Rb10 Se6 3.486576 1_556
Rb10 Se1 3.486576 1_556
Rb10 Se5 3.533557 1_555
Rb10 Se7 3.682803 1_565
Rb10 Se0 3.682803 1_565
Rb11 Se1 3.486576 1_556
Rb11 Se4 3.486576 1_556
Rb11 Se5 3.533565 1_555
Rb11 Se0 3.682803 1_555
Rb11 Se3 3.682803 1_555
In0 Se7 2.603750 1_555
In0 Se3 2.603759 1_555
In0 Se0 2.603759 1_555
In0 Se2 2.633270 1_556
In1 Se6 2.603750 1_555
In1 Se4 2.603759 1_555
In1 Se1 2.603759 1_555
In1 Se5 2.633270 1_555
Cl0 Rb0 3.197119 1_545
Cl0 Rb7 3.197126 1_555
Cl0 Rb1 3.197126 1_445
Cl0 Rb8 3.260090 1_455
Cl0 Rb4 3.260097 1_445
Cl0 Rb5 3.260098 1_555
Cl1 Rb8 3.197119 1_456
Cl1 Rb4 3.197126 1_446
Cl1 Rb5 3.197126 1_556
Cl1 Rb0 3.260090 1_545
Cl1 Rb7 3.260097 1_555
Cl1 Rb1 3.260098 1_445
