# generated using pymatgen
data_Hf16Nb3Ni4Sn
_symmetry_space_group_name_H-M   'P 1'
_cell_length_a   8.78115190
_cell_length_b   8.78115132
_cell_length_c   8.78115191
_cell_angle_alpha   59.77025740
_cell_angle_beta   59.77025987
_cell_angle_gamma   59.77026216
_symmetry_Int_Tables_number   1
_chemical_formula_structural   Hf16Nb3Ni4Sn
_chemical_formula_sum   'Hf16 Nb3 Ni4 Sn1'
_cell_volume   476.28633469
_cell_formula_units_Z   1
loop_
 _symmetry_equiv_pos_site_id
 _symmetry_equiv_pos_as_xyz
  1  'x, y, z'
loop_
 _atom_site_type_symbol
 _atom_site_label
 _atom_site_symmetry_multiplicity
 _atom_site_fract_x
 _atom_site_fract_y
 _atom_site_fract_z
 _atom_site_occupancy
  Hf  Hf0  1  0.70672883  0.09543087  0.09543087  1
  Hf  Hf1  1  0.09543087  0.70672883  0.09543087  1
  Hf  Hf2  1  0.09543087  0.09543087  0.70672883  1
  Hf  Hf3  1  0.10257654  0.10257654  0.10257654  1
  Hf  Hf4  1  0.31572061  0.31572061  0.69309932  1
  Hf  Hf5  1  0.68667638  0.68667638  0.31366259  1
  Hf  Hf6  1  0.31572061  0.69309932  0.31572061  1
  Hf  Hf7  1  0.68667638  0.31366259  0.68667638  1
  Hf  Hf8  1  0.69309932  0.31572061  0.31572061  1
  Hf  Hf9  1  0.31366259  0.68667638  0.68667638  1
  Hf  Hf10  1  0.95147164  0.95147164  0.54648107  1
  Hf  Hf11  1  0.55757178  0.55757178  0.93778882  1
  Hf  Hf12  1  0.95147164  0.54648107  0.95147164  1
  Hf  Hf13  1  0.55757178  0.93778882  0.55757178  1
  Hf  Hf14  1  0.54648107  0.95147164  0.95147164  1
  Hf  Hf15  1  0.93778882  0.55757178  0.55757178  1
  Nb  Nb0  1  0.99334251  0.33320259  0.33320259  1
  Nb  Nb1  1  0.33320259  0.99334251  0.33320259  1
  Nb  Nb2  1  0.33320259  0.33320259  0.99334251  1
  Ni  Ni0  1  0.32516273  0.88980422  0.88980422  1
  Ni  Ni1  1  0.88980422  0.32516273  0.88980422  1
  Ni  Ni2  1  0.88980422  0.88980422  0.32516273  1
  Ni  Ni3  1  0.88971432  0.88971432  0.88971432  1
  Sn  Sn0  1  0.33168508  0.33168508  0.33168508  1
loop_
_geom_bond_atom_site_label_1
_geom_bond_atom_site_label_2
_geom_bond_distance
_geom_bond_site_symmetry_2
Hf0 Ni3 2.559018 1_544
Hf0 Ni1 2.566931 1_554
Hf0 Ni2 2.566931 1_545
Hf0 Hf5 3.155506 1_545
Hf0 Hf7 3.155506 1_554
Hf0 Sn0 3.166729 1_555
Hf0 Nb1 3.178295 1_545
Hf0 Nb2 3.178295 1_554
Hf0 Hf8 3.286293 1_555
Hf1 Ni3 2.559018 1_454
Hf1 Ni0 2.566931 1_554
Hf1 Ni2 2.566931 1_455
Hf1 Hf5 3.155506 1_455
Hf1 Hf9 3.155506 1_554
Hf1 Sn0 3.166729 1_555
Hf1 Nb0 3.178295 1_455
Hf1 Nb2 3.178295 1_554
Hf1 Hf6 3.286294 1_555
Hf2 Ni3 2.559018 1_445
Hf2 Ni1 2.566931 1_455
Hf2 Ni0 2.566931 1_545
Hf2 Hf9 3.155506 1_545
Hf2 Hf7 3.155506 1_455
Hf2 Sn0 3.166729 1_555
Hf2 Nb0 3.178295 1_455
Hf2 Nb1 3.178295 1_545
Hf2 Hf4 3.286293 1_555
Hf3 Ni2 2.638694 1_445
Hf3 Ni1 2.638695 1_454
Hf3 Ni0 2.638695 1_544
Hf3 Nb2 3.056197 1_554
Hf3 Nb0 3.056197 1_455
Hf3 Nb1 3.056197 1_545
Hf3 Hf4 3.147914 1_554
Hf3 Hf6 3.147914 1_545
Hf3 Hf8 3.147915 1_455
Hf4 Nb2 2.799459 1_555
Hf4 Sn0 3.038925 1_555
Hf4 Ni0 3.210186 1_545
Hf4 Ni1 3.210186 1_455
Hf4 Hf9 3.220410 1_555
Hf4 Hf7 3.220410 1_555
Hf4 Hf6 3.302306 1_555
Hf4 Hf8 3.302306 1_555
Hf5 Nb0 2.903074 1_555
Hf5 Nb1 2.903074 1_555
Hf5 Ni2 3.152735 1_555
Hf5 Ni3 3.170250 1_554
Hf5 Hf8 3.220410 1_555
Hf5 Hf6 3.220410 1_555
Hf5 Hf7 3.264110 1_555
Hf5 Hf9 3.264110 1_555
Hf6 Nb1 2.799459 1_555
Hf6 Sn0 3.038925 1_555
Hf6 Ni0 3.210186 1_554
Hf6 Ni2 3.210186 1_455
Hf6 Hf9 3.220410 1_555
Hf6 Hf8 3.302306 1_555
Hf7 Nb0 2.903074 1_555
Hf7 Nb2 2.903074 1_555
Hf7 Ni1 3.152735 1_555
Hf7 Ni3 3.170250 1_545
Hf7 Hf8 3.220410 1_555
Hf7 Hf9 3.264110 1_555
Hf8 Nb0 2.799459 1_555
Hf8 Sn0 3.038925 1_555
Hf8 Ni2 3.210186 1_545
Hf8 Ni1 3.210186 1_554
Hf9 Nb2 2.903074 1_555
Hf9 Nb1 2.903074 1_555
Hf9 Ni0 3.152735 1_555
Hf9 Ni3 3.170250 1_455
Hf10 Ni3 2.583943 1_555
Hf10 Ni2 2.603466 1_555
Hf10 Nb0 3.017470 1_565
Hf10 Nb1 3.017470 1_655
Hf10 Hf3 3.173688 1_665
Hf10 Hf8 3.206234 1_565
Hf10 Hf6 3.206234 1_655
Hf10 Hf7 3.263600 1_565
Hf10 Hf9 3.263600 1_655
Hf11 Ni0 2.546870 1_555
Hf11 Ni1 2.546870 1_555
Hf11 Nb2 3.158262 1_555
Hf11 Sn0 3.158729 1_556
Hf11 Hf7 3.244725 1_555
Hf11 Hf9 3.244725 1_555
Hf11 Hf8 3.357863 1_556
Hf11 Hf6 3.357863 1_556
Hf12 Ni3 2.583942 1_555
Hf12 Ni1 2.603466 1_555
Hf12 Nb0 3.017470 1_556
Hf12 Nb2 3.017470 1_655
Hf12 Hf3 3.173688 1_656
Hf12 Hf8 3.206234 1_556
Hf12 Hf4 3.206234 1_655
Hf12 Hf9 3.263600 1_655
Hf12 Hf5 3.263600 1_556
Hf13 Ni0 2.546870 1_555
Hf13 Ni2 2.546870 1_555
Hf13 Nb1 3.158262 1_555
Hf13 Sn0 3.158730 1_565
Hf13 Hf9 3.244725 1_555
Hf13 Hf5 3.244725 1_555
Hf13 Hf8 3.357863 1_565
Hf13 Hf4 3.357863 1_565
Hf14 Ni3 2.583943 1_555
Hf14 Ni0 2.603466 1_555
Hf14 Nb2 3.017470 1_565
Hf14 Nb1 3.017470 1_556
Hf14 Hf3 3.173688 1_566
Hf14 Hf6 3.206234 1_556
Hf14 Hf4 3.206234 1_565
Hf14 Hf7 3.263600 1_565
Hf14 Hf5 3.263600 1_556
Hf15 Ni2 2.546870 1_555
Hf15 Ni1 2.546870 1_555
Hf15 Nb0 3.158262 1_555
Hf15 Sn0 3.158730 1_655
Hf15 Hf7 3.244725 1_555
Hf15 Hf5 3.244725 1_555
Hf15 Hf6 3.357863 1_655
Hf15 Hf4 3.357863 1_655
Nb0 Sn0 2.957680 1_655
Nb0 Nb2 2.973994 1_654
Nb0 Nb1 2.973994 1_645
Nb1 Sn0 2.957679 1_565
Nb1 Nb2 2.973993 1_564
Nb2 Sn0 2.957680 1_556
