# generated using pymatgen
data_Sc3Zn3N
_symmetry_space_group_name_H-M   'P 1'
_cell_length_a   8.49244145
_cell_length_b   8.49244120
_cell_length_c   8.49244139
_cell_angle_alpha   59.99999547
_cell_angle_beta   59.99999643
_cell_angle_gamma   60.00000106
_symmetry_Int_Tables_number   1
_chemical_formula_structural   Sc3Zn3N
_chemical_formula_sum   'Sc12 Zn12 N4'
_cell_volume   433.09447857
_cell_formula_units_Z   4
loop_
 _symmetry_equiv_pos_site_id
 _symmetry_equiv_pos_as_xyz
  1  'x, y, z'
loop_
 _atom_site_type_symbol
 _atom_site_label
 _atom_site_symmetry_multiplicity
 _atom_site_fract_x
 _atom_site_fract_y
 _atom_site_fract_z
 _atom_site_occupancy
  Sc  Sc0  1  0.81277342  0.18722658  0.18722658  1
  Sc  Sc1  1  0.18722658  0.81277342  0.18722658  1
  Sc  Sc2  1  0.81277342  0.81277342  0.18722658  1
  Sc  Sc3  1  0.18722658  0.81277342  0.81277342  1
  Sc  Sc4  1  0.81277342  0.18722658  0.81277342  1
  Sc  Sc5  1  0.18722658  0.18722658  0.81277342  1
  Sc  Sc6  1  0.43722658  0.06277342  0.06277342  1
  Sc  Sc7  1  0.06277342  0.43722658  0.06277342  1
  Sc  Sc8  1  0.43722658  0.43722658  0.06277342  1
  Sc  Sc9  1  0.06277342  0.43722658  0.43722658  1
  Sc  Sc10  1  0.43722658  0.06277342  0.43722658  1
  Sc  Sc11  1  0.06277342  0.06277342  0.43722658  1
  Zn  Zn0  1  0.42018266  0.42018266  0.73945101  1
  Zn  Zn1  1  0.42018266  0.42018266  0.42018266  1
  Zn  Zn2  1  0.73945101  0.42018266  0.42018266  1
  Zn  Zn3  1  0.42018266  0.73945101  0.42018266  1
  Zn  Zn4  1  0.82981734  0.82981734  0.51054899  1
  Zn  Zn5  1  0.82981734  0.82981734  0.82981734  1
  Zn  Zn6  1  0.51054899  0.82981734  0.82981734  1
  Zn  Zn7  1  0.82981734  0.51054899  0.82981734  1
  Zn  Zn8  1  0.62500000  0.62500000  0.12500000  1
  Zn  Zn9  1  0.62500000  0.62500000  0.62500000  1
  Zn  Zn10  1  0.12500000  0.62500000  0.62500000  1
  Zn  Zn11  1  0.62500000  0.12500000  0.62500000  1
  N  N0  1  0.12500000  0.12500000  0.62500000  1
  N  N1  1  0.12500000  0.12500000  0.12500000  1
  N  N2  1  0.62500000  0.12500000  0.12500000  1
  N  N3  1  0.12500000  0.62500000  0.12500000  1
loop_
_geom_bond_atom_site_label_1
_geom_bond_atom_site_label_2
_geom_bond_distance
_geom_bond_site_symmetry_2
Sc0 Zn7 2.897775 1_554
Sc0 Zn4 2.897775 1_545
Sc0 Zn11 3.097329 1_555
Sc0 Zn8 3.097329 1_555
Sc0 Zn2 3.108976 1_555
Sc0 Zn1 3.108979 1_555
Sc1 Zn6 2.897775 1_554
Sc1 Zn4 2.897775 1_455
Sc1 Zn10 3.097329 1_555
Sc1 Zn8 3.097329 1_555
Sc1 Zn3 3.108976 1_555
Sc1 Zn1 3.108979 1_555
Sc2 Zn5 2.897772 1_554
Sc2 Zn4 2.897780 1_555
Sc2 Zn9 3.097328 1_555
Sc2 Zn8 3.097329 1_555
Sc2 Zn2 3.108983 1_555
Sc2 Zn3 3.108983 1_555
Sc3 Zn5 2.897772 1_455
Sc3 Zn6 2.897780 1_555
Sc3 Zn9 3.097329 1_555
Sc3 Zn10 3.097329 1_555
Sc3 Zn3 3.108983 1_555
Sc3 Zn0 3.108983 1_555
Sc4 Zn5 2.897772 1_545
Sc4 Zn7 2.897780 1_555
Sc4 Zn9 3.097329 1_555
Sc4 Zn11 3.097329 1_555
Sc4 Zn2 3.108983 1_555
Sc4 Zn0 3.108983 1_555
Sc5 Zn6 2.897775 1_545
Sc5 Zn7 2.897776 1_455
Sc5 Zn10 3.097329 1_555
Sc5 Zn11 3.097329 1_555
Sc5 Zn0 3.108976 1_555
Sc5 Zn1 3.108979 1_555
Sc6 Zn3 2.897775 1_545
Sc6 Zn0 2.897775 1_554
Sc6 Zn11 3.097329 1_554
Sc6 Zn8 3.097329 1_545
Sc6 Zn6 3.108976 1_544
Sc6 Zn5 3.108979 1_544
Sc7 Zn2 2.897775 1_455
Sc7 Zn0 2.897775 1_554
Sc7 Zn10 3.097329 1_554
Sc7 Zn8 3.097329 1_455
Sc7 Zn7 3.108976 1_454
Sc7 Zn5 3.108979 1_454
Sc8 Zn1 2.897772 1_555
Sc8 Zn0 2.897780 1_554
Sc8 Zn9 3.097328 1_554
Sc8 Zn8 3.097329 1_555
Sc8 Zn6 3.108983 1_554
Sc8 Zn7 3.108983 1_554
Sc9 Zn1 2.897772 1_555
Sc9 Zn2 2.897780 1_455
Sc9 Zn9 3.097329 1_455
Sc9 Zn10 3.097329 1_555
Sc9 Zn7 3.108983 1_455
Sc9 Zn4 3.108983 1_455
Sc10 Zn1 2.897772 1_555
Sc10 Zn3 2.897780 1_545
Sc10 Zn9 3.097329 1_545
Sc10 Zn11 3.097329 1_555
Sc10 Zn6 3.108983 1_545
Sc10 Zn4 3.108983 1_545
Sc11 Zn2 2.897775 1_455
Sc11 Zn3 2.897776 1_545
Sc11 Zn10 3.097329 1_545
Sc11 Zn11 3.097329 1_455
Sc11 Zn4 3.108976 1_445
Sc11 Zn5 3.108979 1_445
Zn0 Zn11 2.576807 1_555
Zn0 Zn10 2.576807 1_555
Zn0 Zn9 2.576814 1_555
Zn0 Zn3 2.711367 1_555
Zn0 Zn2 2.711368 1_555
Zn0 Zn1 2.711368 1_555
Zn1 Zn8 2.576811 1_555
Zn1 Zn11 2.576811 1_555
Zn1 Zn10 2.576811 1_555
Zn1 Zn3 2.711368 1_555
Zn1 Zn2 2.711368 1_555
Zn2 Zn8 2.576807 1_555
Zn2 Zn9 2.576814 1_555
Zn2 Zn3 2.711368 1_555
Zn3 Zn8 2.576807 1_555
Zn3 Zn9 2.576814 1_555
Zn4 Zn9 2.576814 1_555
Zn4 Zn7 2.711367 1_555
Zn4 Zn6 2.711368 1_555
Zn4 Zn5 2.711368 1_555
Zn5 Zn8 2.576811 1_556
Zn5 Zn7 2.711368 1_555
Zn5 Zn6 2.711368 1_555
Zn6 Zn8 2.576807 1_556
Zn6 Zn9 2.576814 1_555
Zn6 Zn7 2.711368 1_555
Zn7 Zn8 2.576807 1_556
Zn7 Zn9 2.576814 1_555
Zn10 Zn3 2.576807 1_555
Zn10 Zn7 2.576807 1_455
Zn10 Zn4 2.576807 1_455
Zn10 Zn5 2.576811 1_455
Zn11 Zn2 2.576807 1_555
Zn11 Zn6 2.576807 1_545
Zn11 Zn4 2.576807 1_545
Zn11 Zn5 2.576811 1_545
N0 Sc9 2.250806 1_555
N0 Sc3 2.250806 1_545
N0 Sc10 2.250806 1_555
N0 Sc4 2.250806 1_455
N0 Sc5 2.250806 1_555
N0 Sc11 2.250806 1_555
N1 Sc7 2.250806 1_555
N1 Sc1 2.250806 1_545
N1 Sc11 2.250806 1_555
N1 Sc5 2.250806 1_554
N1 Sc6 2.250806 1_555
N1 Sc0 2.250806 1_455
N2 Sc10 2.250806 1_555
N2 Sc4 2.250806 1_554
N2 Sc8 2.250806 1_555
N2 Sc2 2.250806 1_545
N2 Sc0 2.250806 1_555
N2 Sc6 2.250806 1_555
N3 Sc9 2.250806 1_555
N3 Sc3 2.250806 1_554
N3 Sc1 2.250806 1_555
N3 Sc7 2.250806 1_555
N3 Sc8 2.250806 1_555
N3 Sc2 2.250806 1_455
