# generated using pymatgen
data_MgHg2SeO6
_symmetry_space_group_name_H-M   'P 1'
_cell_length_a   6.69488109
_cell_length_b   7.11126379
_cell_length_c   7.33970872
_cell_angle_alpha   74.10561488
_cell_angle_beta   66.55154293
_cell_angle_gamma   64.24774689
_symmetry_Int_Tables_number   1
_chemical_formula_structural   MgHg2SeO6
_chemical_formula_sum   'Mg2 Hg4 Se2 O12'
_cell_volume   286.57604678
_cell_formula_units_Z   2
loop_
 _symmetry_equiv_pos_site_id
 _symmetry_equiv_pos_as_xyz
  1  'x, y, z'
loop_
 _atom_site_type_symbol
 _atom_site_label
 _atom_site_symmetry_multiplicity
 _atom_site_fract_x
 _atom_site_fract_y
 _atom_site_fract_z
 _atom_site_occupancy
  Mg  Mg0  1  0.66004379  0.86875726  0.80213966  1
  Mg  Mg1  1  0.33995621  0.13124274  0.19786034  1
  Hg  Hg0  1  0.15593925  0.36089030  0.79829168  1
  Hg  Hg1  1  0.34269596  0.63373203  0.20470044  1
  Hg  Hg2  1  0.65730404  0.36626797  0.79529956  1
  Hg  Hg3  1  0.84406075  0.63910970  0.20170832  1
  Se  Se0  1  0.20956915  0.87705226  0.67519311  1
  Se  Se1  1  0.79043085  0.12294774  0.32480689  1
  O  O0  1  0.06430450  0.08421175  0.17912397  1
  O  O1  1  0.93569550  0.91578825  0.82087603  1
  O  O2  1  0.54309816  0.81549514  0.12890841  1
  O  O3  1  0.35634542  0.84689387  0.82297385  1
  O  O4  1  0.45690184  0.18450486  0.87109159  1
  O  O5  1  0.78437309  0.91131242  0.48869908  1
  O  O6  1  0.83439597  0.54723680  0.77376744  1
  O  O7  1  0.21562691  0.08868758  0.51130092  1
  O  O8  1  0.16560403  0.45276320  0.22623256  1
  O  O9  1  0.67750548  0.33798567  0.43072882  1
  O  O10  1  0.32249452  0.66201433  0.56927118  1
  O  O11  1  0.64365458  0.15310613  0.17702615  1
loop_
_geom_bond_atom_site_label_1
_geom_bond_atom_site_label_2
_geom_bond_distance
_geom_bond_site_symmetry_2
Mg0 O3 2.048363 1_555
Mg0 O1 2.073638 1_555
Mg0 O6 2.093271 1_555
Mg0 O5 2.095371 1_555
Mg0 O4 2.137404 1_565
Mg0 O2 2.185040 1_556
Mg1 O11 2.048363 1_555
Mg1 O0 2.073638 1_555
Mg1 O8 2.093271 1_555
Mg1 O7 2.095371 1_555
Mg1 O2 2.137404 1_545
Mg1 O4 2.185040 1_554
Hg0 O6 2.030127 1_455
Hg0 O4 2.052378 1_555
Hg1 O8 2.037677 1_555
Hg1 O2 2.073495 1_555
Hg2 O6 2.037677 1_555
Hg2 O4 2.073495 1_555
Hg3 O8 2.030127 1_655
Hg3 O2 2.052378 1_555
O0 Se1 1.656279 1_455
O1 Se0 1.656279 1_655
O3 Se0 1.651003 1_555
O5 Se1 1.654171 1_565
O7 Se0 1.654171 1_545
O9 Se1 1.641096 1_555
O10 Se0 1.641096 1_555
O11 Se1 1.651003 1_555
