# generated using pymatgen
data_YSi2IrRu
_symmetry_space_group_name_H-M   'P 1'
_cell_length_a   5.66225380
_cell_length_b   5.66225423
_cell_length_c   5.66225385
_cell_angle_alpha   137.33911625
_cell_angle_beta   137.33911862
_cell_angle_gamma   61.91669645
_symmetry_Int_Tables_number   1
_chemical_formula_structural   YSi2IrRu
_chemical_formula_sum   'Y1 Si2 Ir1 Ru1'
_cell_volume   82.39105485
_cell_formula_units_Z   1
loop_
 _symmetry_equiv_pos_site_id
 _symmetry_equiv_pos_as_xyz
  1  'x, y, z'
loop_
 _atom_site_type_symbol
 _atom_site_label
 _atom_site_symmetry_multiplicity
 _atom_site_fract_x
 _atom_site_fract_y
 _atom_site_fract_z
 _atom_site_occupancy
  Y  Y0  1  0.00000000  0.00000000  0.00000000  1
  Si  Si0  1  0.62730138  0.62730138  0.00000000  1
  Si  Si1  1  0.37269862  0.37269862  0.00000000  1
  Ir  Ir0  1  0.75000000  0.25000000  0.50000000  1
  Ru  Ru0  1  0.25000000  0.75000000  0.50000000  1
loop_
_geom_bond_atom_site_label_1
_geom_bond_atom_site_label_2
_geom_bond_distance
_geom_bond_site_symmetry_2
Si0 Si1 2.472507 1_555
Si0 Y0 3.164241 1_554
Si0 Y0 3.164241 1_666
Si0 Y0 3.164241 1_565
Si0 Y0 3.164241 1_655
Si1 Y0 3.164241 1_666
Si1 Y0 3.164241 1_554
Si1 Y0 3.164241 1_655
Si1 Y0 3.164241 1_565
Ir0 Si1 2.379464 1_656
Ir0 Si1 2.379465 1_555
Ir0 Si0 2.379465 1_556
Ir0 Si0 2.379465 1_545
Ir0 Y0 3.183756 1_555
Ir0 Y0 3.183756 1_655
Ir0 Y0 3.183756 1_656
Ir0 Y0 3.183756 1_666
Ru0 Si0 2.379464 1_455
Ru0 Si0 2.379465 1_556
Ru0 Si1 2.379465 1_555
Ru0 Si1 2.379465 1_566
Ru0 Y0 3.183756 1_666
Ru0 Y0 3.183756 1_566
Ru0 Y0 3.183756 1_565
Ru0 Y0 3.183756 1_555
