# generated using pymatgen
data_Sr4IrPt3I2
_symmetry_space_group_name_H-M   'P 1'
_cell_length_a   4.44196160
_cell_length_b   4.44198448
_cell_length_c   17.74412695
_cell_angle_alpha   89.99955725
_cell_angle_beta   89.99897284
_cell_angle_gamma   120.00020463
_symmetry_Int_Tables_number   1
_chemical_formula_structural   Sr4IrPt3I2
_chemical_formula_sum   'Sr4 Ir1 Pt3 I2'
_cell_volume   303.20489468
_cell_formula_units_Z   1
loop_
 _symmetry_equiv_pos_site_id
 _symmetry_equiv_pos_as_xyz
  1  'x, y, z'
loop_
 _atom_site_type_symbol
 _atom_site_label
 _atom_site_symmetry_multiplicity
 _atom_site_fract_x
 _atom_site_fract_y
 _atom_site_fract_z
 _atom_site_occupancy
  Sr  Sr0  1  0.00000230  0.00000223  0.10688489  1
  Sr  Sr1  1  0.00000457  0.00000117  0.89293769  1
  Sr  Sr2  1  0.00000499  0.00000234  0.61084520  1
  Sr  Sr3  1  0.00000219  0.00000297  0.38913925  1
  Ir  Ir0  1  0.33332355  0.66665963  0.99905754  1
  Pt  Pt0  1  0.33333558  0.66666752  0.50154175  1
  Pt  Pt1  1  0.66667170  0.33333791  0.49832191  1
  Pt  Pt2  1  0.66665021  0.33332243  0.00130501  1
  I  I0  1  0.33333201  0.66666755  0.25145778  1
  I  I1  1  0.66667290  0.33333626  0.74850898  1
loop_
_geom_bond_atom_site_label_1
_geom_bond_atom_site_label_2
_geom_bond_distance
_geom_bond_site_symmetry_2
Ir0 Pt2 2.564872 1_566
Ir0 Pt2 2.564876 1_556
Ir0 Pt2 2.564897 1_456
Ir0 Sr1 3.181618 1_565
Ir0 Sr1 3.181623 1_665
Ir0 Sr1 3.181631 1_555
Ir0 Sr0 3.199594 1_556
Ir0 Sr0 3.199635 1_566
Ir0 Sr0 3.199717 1_666
Pt0 Pt1 2.565189 1_455
Pt0 Pt1 2.565209 1_555
Pt0 Pt1 2.565225 1_565
Pt0 Sr2 3.215348 1_555
Pt0 Sr2 3.215371 1_565
Pt0 Sr2 3.215420 1_665
Pt0 Sr3 3.248798 1_665
Pt0 Sr3 3.248865 1_565
Pt0 Sr3 3.248872 1_555
Pt1 Sr3 3.214056 1_665
Pt1 Sr3 3.214078 1_655
Pt1 Sr3 3.214127 1_555
Pt1 Sr2 3.250115 1_555
Pt1 Sr2 3.250182 1_655
Pt1 Sr2 3.250188 1_665
Pt2 Sr0 3.175859 1_555
Pt2 Sr0 3.175994 1_655
Pt2 Sr0 3.176036 1_665
Pt2 Sr1 3.205354 1_554
Pt2 Sr1 3.205398 1_664
Pt2 Sr1 3.205410 1_654
I0 Sr3 3.541920 1_555
I0 Sr3 3.541946 1_565
I0 Sr3 3.542005 1_665
I0 Sr0 3.627339 1_665
I0 Sr0 3.627389 1_565
I0 Sr0 3.627415 1_555
I1 Sr2 3.541708 1_665
I1 Sr2 3.541732 1_655
I1 Sr2 3.541782 1_555
I1 Sr1 3.625525 1_555
I1 Sr1 3.625587 1_655
I1 Sr1 3.625605 1_665
