# generated using pymatgen
data_Cs2FeMoSe4
_symmetry_space_group_name_H-M   'P 1'
_cell_length_a   7.54131683
_cell_length_b   7.54131787
_cell_length_c   5.79970308
_cell_angle_alpha   79.02380980
_cell_angle_beta   79.02380638
_cell_angle_gamma   117.21050056
_symmetry_Int_Tables_number   1
_chemical_formula_structural   Cs2FeMoSe4
_chemical_formula_sum   'Cs2 Fe1 Mo1 Se4'
_cell_volume   273.03972353
_cell_formula_units_Z   1
loop_
 _symmetry_equiv_pos_site_id
 _symmetry_equiv_pos_as_xyz
  1  'x, y, z'
loop_
 _atom_site_type_symbol
 _atom_site_label
 _atom_site_symmetry_multiplicity
 _atom_site_fract_x
 _atom_site_fract_y
 _atom_site_fract_z
 _atom_site_occupancy
  Cs  Cs0  1  0.14614293  0.85385707  1.00000000  1
  Cs  Cs1  1  0.85439338  0.14560662  0.50000000  1
  Fe  Fe0  1  0.49911770  0.50088230  0.50000000  1
  Mo  Mo0  1  0.50129991  0.49870009  0.00000000  1
  Se  Se0  1  0.20924942  0.41882422  0.84274795  1
  Se  Se1  1  0.58117578  0.79075058  0.15725205  1
  Se  Se2  1  0.79176655  0.58314666  0.65307271  1
  Se  Se3  1  0.41685334  0.20823345  0.34692729  1
loop_
_geom_bond_atom_site_label_1
_geom_bond_atom_site_label_2
_geom_bond_distance
_geom_bond_site_symmetry_2
Cs0 Se2 3.723884 1_456
Cs0 Se3 3.723884 1_565
Cs0 Se2 3.739069 1_455
Cs0 Se3 3.739069 1_566
Cs0 Se1 3.771385 1_556
Cs0 Se0 3.771386 1_555
Cs0 Se1 3.963791 1_456
Cs0 Se0 3.963792 1_565
Cs1 Se0 3.728418 1_655
Cs1 Se1 3.728418 1_545
Cs1 Se0 3.744220 1_654
Cs1 Se1 3.744220 1_546
Cs1 Se3 3.778856 1_555
Cs1 Se2 3.778856 1_555
Cs1 Se3 3.946824 1_655
Cs1 Se2 3.946825 1_545
Fe0 Se2 2.397371 1_555
Fe0 Se3 2.397372 1_555
Fe0 Se0 2.398479 1_555
Fe0 Se1 2.398479 1_555
Mo0 Se0 2.409607 1_554
Mo0 Se1 2.409608 1_555
Mo0 Se2 2.410443 1_554
Mo0 Se3 2.410443 1_555
