# generated using pymatgen
data_SrY6NiBr12
_symmetry_space_group_name_H-M   'P 1'
_cell_length_a   9.10386429
_cell_length_b   9.10386276
_cell_length_c   9.10386268
_cell_angle_alpha   105.84214298
_cell_angle_beta   105.84214949
_cell_angle_gamma   105.84213814
_symmetry_Int_Tables_number   1
_chemical_formula_structural   SrY6NiBr12
_chemical_formula_sum   'Sr1 Y6 Ni1 Br12'
_cell_volume   647.20361717
_cell_formula_units_Z   1
loop_
 _symmetry_equiv_pos_site_id
 _symmetry_equiv_pos_as_xyz
  1  'x, y, z'
loop_
 _atom_site_type_symbol
 _atom_site_label
 _atom_site_symmetry_multiplicity
 _atom_site_fract_x
 _atom_site_fract_y
 _atom_site_fract_z
 _atom_site_occupancy
  Sr  Sr0  1  0.50000000  0.50000000  0.50000000  1
  Y  Y0  1  0.09929700  0.01799615  0.30499937  1
  Y  Y1  1  0.01799615  0.30499937  0.09929700  1
  Y  Y2  1  0.30499937  0.09929700  0.01799615  1
  Y  Y3  1  0.90070200  0.98200385  0.69500063  1
  Y  Y4  1  0.98200385  0.69500063  0.90070200  1
  Y  Y5  1  0.69500063  0.90070200  0.98200385  1
  Ni  Ni0  1  0.00000000  0.00000000  0.00000000  1
  Br  Br0  1  0.07396583  0.67278247  0.22190248  1
  Br  Br1  1  0.67278247  0.22190248  0.07396583  1
  Br  Br2  1  0.22190248  0.07396583  0.67278247  1
  Br  Br3  1  0.92603417  0.32721753  0.77809752  1
  Br  Br4  1  0.32721753  0.77809752  0.92603417  1
  Br  Br5  1  0.77809752  0.92603417  0.32721753  1
  Br  Br6  1  0.44842878  0.13693031  0.36507110  1
  Br  Br7  1  0.13693031  0.36507110  0.44842878  1
  Br  Br8  1  0.36507110  0.44842878  0.13693031  1
  Br  Br9  1  0.55157122  0.86306969  0.63492890  1
  Br  Br10  1  0.86306969  0.63492890  0.55157122  1
  Br  Br11  1  0.63492890  0.55157122  0.86306969  1
loop_
_geom_bond_atom_site_label_1
_geom_bond_atom_site_label_2
_geom_bond_distance
_geom_bond_site_symmetry_2
Ni0 Y0 2.618066 1_555
Ni0 Y1 2.618066 1_555
Ni0 Y3 2.618066 1_444
Ni0 Y4 2.618066 1_444
Ni0 Y2 2.618066 1_555
Ni0 Y5 2.618067 1_444
Br0 Y4 2.893326 1_454
Br0 Y0 2.951866 1_565
Br0 Y1 3.071451 1_555
Br1 Y5 2.893326 1_544
Br1 Y1 2.951866 1_655
Br1 Y2 3.071452 1_555
Br2 Y3 2.893327 1_445
Br2 Y2 2.951866 1_556
Br2 Y0 3.071451 1_555
Br3 Y1 2.893318 1_656
Br3 Y3 2.951863 1_545
Br3 Y4 3.071451 1_555
Br4 Y2 2.893318 1_566
Br4 Y4 2.951864 1_455
Br4 Y5 3.071451 1_555
Br5 Y0 2.893318 1_665
Br5 Y5 2.951863 1_554
Br5 Y3 3.071451 1_555
Br6 Y0 2.902185 1_555
Br6 Y2 2.952683 1_555
Br6 Sr0 3.045598 1_555
Br7 Y1 2.902184 1_555
Br7 Y0 2.952683 1_555
Br7 Sr0 3.045599 1_555
Br8 Y2 2.902184 1_555
Br8 Y1 2.952683 1_555
Br8 Sr0 3.045598 1_555
Br9 Y3 2.902176 1_555
Br9 Y5 2.952685 1_555
Br9 Sr0 3.045598 1_555
Br10 Y4 2.902175 1_555
Br10 Y3 2.952685 1_555
Br10 Sr0 3.045599 1_555
Br11 Y5 2.902176 1_555
Br11 Y4 2.952686 1_555
Br11 Sr0 3.045598 1_555
