# generated using pymatgen
data_Rb12CaHgSe8
_symmetry_space_group_name_H-M   'P 1'
_cell_length_a   10.89694389
_cell_length_b   10.89694429
_cell_length_c   8.30352450
_cell_angle_alpha   90.00000000
_cell_angle_beta   90.00000000
_cell_angle_gamma   120.00000176
_symmetry_Int_Tables_number   1
_chemical_formula_structural   Rb12CaHgSe8
_chemical_formula_sum   'Rb12 Ca1 Hg1 Se8'
_cell_volume   853.89120577
_cell_formula_units_Z   1
loop_
 _symmetry_equiv_pos_site_id
 _symmetry_equiv_pos_as_xyz
  1  'x, y, z'
loop_
 _atom_site_type_symbol
 _atom_site_label
 _atom_site_symmetry_multiplicity
 _atom_site_fract_x
 _atom_site_fract_y
 _atom_site_fract_z
 _atom_site_occupancy
  Rb  Rb0  1  0.14775965  0.29551830  0.20045802  1
  Rb  Rb1  1  0.14775965  0.85224035  0.20045802  1
  Rb  Rb2  1  0.70448170  0.85224035  0.20045802  1
  Rb  Rb3  1  0.85195941  0.70391882  0.70436581  1
  Rb  Rb4  1  0.85195941  0.14804059  0.70436581  1
  Rb  Rb5  1  0.29608118  0.14804059  0.70436581  1
  Rb  Rb6  1  0.53128622  0.06257245  0.37853456  1
  Rb  Rb7  1  0.53128622  0.46871378  0.37853456  1
  Rb  Rb8  1  0.93742755  0.46871378  0.37853456  1
  Rb  Rb9  1  0.47655902  0.95311804  0.88299157  1
  Rb  Rb10  1  0.47655902  0.52344098  0.88299157  1
  Rb  Rb11  1  0.04688196  0.52344098  0.88299157  1
  Ca  Ca0  1  0.33333300  0.66666700  0.50050371  1
  Hg  Hg0  1  0.66666700  0.33333300  0.00148917  1
  Se  Se0  1  0.33333300  0.66666700  0.15717952  1
  Se  Se1  1  0.66666700  0.33333300  0.66777316  1
  Se  Se2  1  0.80570599  0.61141098  0.10252107  1
  Se  Se3  1  0.80570599  0.19429401  0.10252107  1
  Se  Se4  1  0.38858902  0.19429401  0.10252107  1
  Se  Se5  1  0.19015102  0.38030304  0.60209212  1
  Se  Se6  1  0.19015102  0.80984898  0.60209212  1
  Se  Se7  1  0.61969696  0.80984898  0.60209212  1
loop_
_geom_bond_atom_site_label_1
_geom_bond_atom_site_label_2
_geom_bond_distance
_geom_bond_site_symmetry_2
Rb0 Se3 3.414629 1_455
Rb0 Se4 3.414629 1_555
Rb0 Se5 3.429616 1_555
Rb0 Se0 3.520929 1_555
Rb1 Se2 3.414629 1_455
Rb1 Se4 3.414629 1_565
Rb1 Se6 3.429612 1_555
Rb1 Se0 3.520910 1_555
Rb2 Se3 3.414629 1_565
Rb2 Se2 3.414629 1_555
Rb2 Se7 3.429616 1_555
Rb2 Se0 3.520929 1_555
Rb3 Se6 3.373544 1_655
Rb3 Se7 3.373554 1_555
Rb3 Se2 3.419411 1_556
Rb3 Se1 3.510404 1_555
Rb4 Se5 3.373546 1_655
Rb4 Se7 3.373546 1_545
Rb4 Se3 3.419409 1_556
Rb4 Se1 3.510395 1_555
Rb5 Se6 3.373544 1_545
Rb5 Se5 3.373554 1_555
Rb5 Se4 3.419411 1_556
Rb5 Se1 3.510404 1_555
Rb6 Se4 3.458735 1_555
Rb6 Se3 3.458742 1_555
Rb6 Se1 3.506720 1_555
Rb6 Se7 3.822465 1_545
Rb6 Se6 3.822472 1_545
Rb7 Se2 3.458742 1_555
Rb7 Se4 3.458742 1_555
Rb7 Se1 3.506727 1_555
Rb7 Se5 3.822474 1_555
Rb7 Se7 3.822474 1_555
Rb8 Se2 3.458735 1_555
Rb8 Se3 3.458742 1_555
Rb8 Se1 3.506720 1_555
Rb8 Se5 3.822465 1_655
Rb8 Se6 3.822472 1_655
Rb9 Se0 3.534265 1_556
Rb9 Se7 3.570105 1_555
Rb9 Se6 3.570112 1_555
Rb9 Se4 3.697008 1_566
Rb9 Se3 3.697015 1_566
Rb9 Se1 4.008502 1_565
Rb10 Se0 3.534272 1_556
Rb10 Se5 3.570112 1_555
Rb10 Se7 3.570112 1_555
Rb10 Se2 3.697017 1_556
Rb10 Se4 3.697018 1_556
Rb10 Se1 4.008510 1_555
Rb11 Se0 3.534265 1_556
Rb11 Se5 3.570105 1_555
Rb11 Se6 3.570112 1_555
Rb11 Se2 3.697008 1_456
Rb11 Se3 3.697015 1_456
Rb11 Se1 4.008502 1_455
Ca0 Se7 2.831018 1_555
Ca0 Se5 2.831018 1_555
Ca0 Se6 2.831019 1_555
Ca0 Se0 2.850801 1_555
Hg0 Se4 2.755063 1_555
Hg0 Se2 2.755063 1_555
Hg0 Se3 2.755063 1_555
Hg0 Se1 2.771019 1_554
Hg0 Rb11 3.720566 1_654
Hg0 Rb9 3.720567 1_544
Hg0 Rb10 3.720576 1_554
