# generated using pymatgen
data_Cs3(PtO2)2
_symmetry_space_group_name_H-M   'P 1'
_cell_length_a   6.10074938
_cell_length_b   6.10089327
_cell_length_c   11.97782771
_cell_angle_alpha   90.00000000
_cell_angle_beta   90.00000000
_cell_angle_gamma   116.10584724
_symmetry_Int_Tables_number   1
_chemical_formula_structural   Cs3(PtO2)2
_chemical_formula_sum   'Cs6 Pt4 O8'
_cell_volume   400.33414327
_cell_formula_units_Z   2
loop_
 _symmetry_equiv_pos_site_id
 _symmetry_equiv_pos_as_xyz
  1  'x, y, z'
loop_
 _atom_site_type_symbol
 _atom_site_label
 _atom_site_symmetry_multiplicity
 _atom_site_fract_x
 _atom_site_fract_y
 _atom_site_fract_z
 _atom_site_occupancy
  Cs  Cs0  1  0.34569751  0.65428751  0.92484566  1
  Cs  Cs1  1  0.65430249  0.34571249  0.42484566  1
  Cs  Cs2  1  0.65430249  0.34571249  0.07515434  1
  Cs  Cs3  1  0.34569751  0.65428751  0.57515434  1
  Cs  Cs4  1  0.71082441  0.28916948  0.75000000  1
  Cs  Cs5  1  0.28917559  0.71083052  0.25000000  1
  Pt  Pt0  1  0.00000000  0.00000000  0.00000000  1
  Pt  Pt1  1  0.00000000  0.00000000  0.50000000  1
  Pt  Pt2  1  0.06324525  0.93660017  0.75000000  1
  Pt  Pt3  1  0.93675475  0.06339983  0.25000000  1
  O  O0  1  0.74034957  0.86726764  0.11831947  1
  O  O1  1  0.25965043  0.13273236  0.61831947  1
  O  O2  1  0.86731728  0.74035840  0.88165834  1
  O  O3  1  0.13268272  0.25964160  0.38165834  1
  O  O4  1  0.25965043  0.13273236  0.88168053  1
  O  O5  1  0.74034957  0.86726764  0.38168053  1
  O  O6  1  0.13268272  0.25964160  0.11834166  1
  O  O7  1  0.86731728  0.74035840  0.61834166  1
loop_
_geom_bond_atom_site_label_1
_geom_bond_atom_site_label_2
_geom_bond_distance
_geom_bond_site_symmetry_2
Cs0 O4 3.032768 1_555
Cs0 O2 3.033078 1_555
Cs0 O0 3.178418 1_556
Cs0 O6 3.178637 1_556
Cs0 O2 3.226384 1_455
Cs0 O4 3.226705 1_565
Cs1 O5 3.032768 1_555
Cs1 O3 3.033078 1_555
Cs1 O1 3.178418 1_555
Cs1 O7 3.178637 1_555
Cs1 O3 3.226384 1_655
Cs1 O5 3.226705 1_545
Cs2 O0 3.032768 1_555
Cs2 O6 3.033078 1_555
Cs2 O4 3.178418 1_554
Cs2 O2 3.178637 1_554
Cs2 O6 3.226384 1_655
Cs2 O0 3.226705 1_545
Cs3 O1 3.032768 1_555
Cs3 O7 3.033078 1_555
Cs3 O5 3.178418 1_555
Cs3 O3 3.178637 1_555
Cs3 O7 3.226384 1_455
Cs3 O1 3.226705 1_565
Cs4 O2 2.943239 1_555
Cs4 O7 2.943239 1_555
Cs4 O4 2.943285 1_555
Cs4 O1 2.943285 1_555
Cs5 O3 2.943239 1_555
Cs5 O6 2.943239 1_555
Cs5 O5 2.943285 1_555
Cs5 O0 2.943285 1_555
O0 Pt0 2.011117 1_665
O0 Pt3 2.023225 1_565
O1 Pt1 2.011117 1_555
O1 Pt2 2.023225 1_545
O2 Pt0 2.011276 1_666
O2 Pt2 2.022275 1_655
O3 Pt1 2.011276 1_555
O3 Pt3 2.022275 1_455
O4 Pt0 2.011117 1_556
O4 Pt2 2.023225 1_545
O5 Pt1 2.011117 1_665
O5 Pt3 2.023225 1_565
O6 Pt0 2.011276 1_555
O6 Pt3 2.022275 1_455
O7 Pt1 2.011276 1_665
O7 Pt2 2.022275 1_655
