# generated using pymatgen
data_La2Sn5Rh3
_symmetry_space_group_name_H-M   'P 1'
_cell_length_a   9.05596911
_cell_length_b   9.06188077
_cell_length_c   9.05939389
_cell_angle_alpha   138.29679481
_cell_angle_beta   105.63997412
_cell_angle_gamma   89.05748637
_symmetry_Int_Tables_number   1
_chemical_formula_structural   La2Sn5Rh3
_chemical_formula_sum   'La4 Sn10 Rh6'
_cell_volume   456.03223159
_cell_formula_units_Z   2
loop_
 _symmetry_equiv_pos_site_id
 _symmetry_equiv_pos_as_xyz
  1  'x, y, z'
loop_
 _atom_site_type_symbol
 _atom_site_label
 _atom_site_symmetry_multiplicity
 _atom_site_fract_x
 _atom_site_fract_y
 _atom_site_fract_z
 _atom_site_occupancy
  La  La0  1  0.91331389  0.14161551  0.77038554  1
  La  La1  1  0.08671020  0.85833493  0.22952699  1
  La  La2  1  0.62869273  0.35750414  0.27096322  1
  La  La3  1  0.37122943  0.64233596  0.72893898  1
  Sn  Sn0  1  0.57570780  0.91116204  0.66459467  1
  Sn  Sn1  1  0.24674793  0.41157634  0.83566288  1
  Sn  Sn2  1  0.42430402  0.08882591  0.33538791  1
  Sn  Sn3  1  0.75323538  0.58845568  0.16438701  1
  Sn  Sn4  1  0.99975036  0.25020073  0.24986011  1
  Sn  Sn5  1  0.00026531  0.74983700  0.75016390  1
  Sn  Sn6  1  0.72454895  0.97438890  0.25034237  1
  Sn  Sn7  1  0.27575348  0.52536835  0.24993935  1
  Sn  Sn8  1  0.27547093  0.02562271  0.74967979  1
  Sn  Sn9  1  0.72425841  0.47467242  0.75010537  1
  Rh  Rh0  1  0.24778813  0.13992242  0.10731760  1
  Rh  Rh1  1  0.96740196  0.35994131  0.60779009  1
  Rh  Rh2  1  0.03260151  0.64010182  0.39223794  1
  Rh  Rh3  1  0.75222479  0.86010348  0.89269780  1
  Rh  Rh4  1  0.50012050  0.24991846  0.74992866  1
  Rh  Rh5  1  0.49987328  0.75011191  0.25009082  1
loop_
_geom_bond_atom_site_label_1
_geom_bond_atom_site_label_2
_geom_bond_distance
_geom_bond_site_symmetry_2
La0 Sn0 3.204473 1_545
La0 Rh1 3.331133 1_555
La0 Sn8 3.438056 1_655
La0 Sn7 3.445050 1_656
La0 Rh2 3.484691 1_645
La0 Rh2 3.491360 1_656
La0 Sn3 3.496292 1_545
La0 Sn3 3.500503 1_556
La0 Sn4 3.501274 1_556
La0 Sn5 3.503217 1_645
La0 Sn6 3.535105 1_545
La0 Sn9 3.544352 1_555
La0 Sn1 3.545721 1_655
La1 Sn2 3.204244 1_565
La1 Rh2 3.331375 1_555
La1 Sn6 3.438314 1_455
La1 Sn9 3.444751 1_454
La1 Rh1 3.485366 1_465
La1 Rh1 3.490671 1_454
La1 Sn1 3.496968 1_565
La1 Sn1 3.499635 1_554
La1 Sn5 3.500793 1_554
La1 Sn4 3.503351 1_465
La1 Sn8 3.535667 1_565
La1 Sn7 3.544247 1_555
La1 Sn3 3.546314 1_455
La2 Sn3 3.204125 1_555
La2 Rh0 3.329548 1_555
La2 Sn9 3.441091 1_555
La2 Sn6 3.444025 1_545
La2 Rh3 3.485436 1_544
La2 Rh3 3.490688 1_555
La2 Sn0 3.497412 1_544
La2 Sn4 3.497840 1_555
La2 Sn0 3.499543 1_555
La2 Sn5 3.504269 1_655
La2 Sn7 3.537004 1_555
La2 Sn8 3.541596 1_554
La2 Sn2 3.542195 1_555
La3 Sn1 3.203524 1_555
La3 Rh3 3.330492 1_555
La3 Sn7 3.441059 1_555
La3 Sn8 3.444616 1_565
La3 Rh0 3.486012 1_566
La3 Rh0 3.490020 1_555
La3 Sn5 3.497532 1_555
La3 Sn2 3.497664 1_566
La3 Sn2 3.498971 1_555
La3 Sn4 3.503290 1_455
La3 Sn9 3.537062 1_555
La3 Sn6 3.542380 1_556
La3 Sn0 3.543165 1_555
Sn0 Sn8 2.984297 1_565
Sn0 Sn7 2.985432 1_555
Sn1 Sn7 2.986064 1_556
Sn1 Sn8 2.986300 1_555
Sn2 Sn6 2.984250 1_545
Sn2 Sn9 2.985628 1_555
Sn3 Sn9 2.986220 1_554
Sn3 Sn6 2.986222 1_555
Sn6 Sn9 3.224039 1_554
Sn6 Sn9 3.226213 1_565
Sn7 Sn8 3.224231 1_554
Sn7 Sn8 3.226021 1_565
Rh0 Sn2 2.581111 1_555
Rh0 Sn7 2.654714 1_555
Rh0 Sn8 2.655476 1_554
Rh0 Sn5 2.694586 1_544
Rh0 Sn4 2.697210 1_455
Rh1 Sn1 2.580897 1_655
Rh1 Sn9 2.654313 1_555
Rh1 Sn6 2.654959 1_545
Rh1 Sn5 2.694153 1_655
Rh1 Sn4 2.697580 1_555
Rh2 Sn3 2.580918 1_455
Rh2 Sn7 2.654323 1_555
Rh2 Sn8 2.654916 1_565
Rh2 Sn4 2.694180 1_455
Rh2 Sn5 2.697524 1_555
Rh3 Sn0 2.581080 1_555
Rh3 Sn9 2.654724 1_555
Rh3 Sn6 2.655576 1_556
Rh3 Sn4 2.694645 1_566
Rh3 Sn5 2.697201 1_655
Rh4 Sn3 2.674801 1_556
Rh4 Sn0 2.676245 1_545
Rh4 Sn2 2.676319 1_555
Rh4 Sn1 2.676847 1_555
Rh4 Sn8 2.897725 1_555
Rh4 Sn9 2.897851 1_555
Rh5 Sn1 2.674759 1_554
Rh5 Sn2 2.676003 1_565
Rh5 Sn0 2.676182 1_555
Rh5 Sn3 2.676723 1_555
Rh5 Sn6 2.897756 1_555
Rh5 Sn7 2.897830 1_555
