# generated using pymatgen
data_Rb3Ba3AlP4
_symmetry_space_group_name_H-M   'P 1'
_cell_length_a   10.42190600
_cell_length_b   10.42190551
_cell_length_c   7.82004912
_cell_angle_alpha   90.00000000
_cell_angle_beta   90.00000000
_cell_angle_gamma   119.99999219
_symmetry_Int_Tables_number   1
_chemical_formula_structural   Rb3Ba3AlP4
_chemical_formula_sum   'Rb6 Ba6 Al2 P8'
_cell_volume   735.58765095
_cell_formula_units_Z   2
loop_
 _symmetry_equiv_pos_site_id
 _symmetry_equiv_pos_as_xyz
  1  'x, y, z'
loop_
 _atom_site_type_symbol
 _atom_site_label
 _atom_site_symmetry_multiplicity
 _atom_site_fract_x
 _atom_site_fract_y
 _atom_site_fract_z
 _atom_site_occupancy
  Rb  Rb0  1  0.73086187  0.86543043  0.17508683  1
  Rb  Rb1  1  0.86543043  0.13456957  0.67508683  1
  Rb  Rb2  1  0.86543043  0.73086187  0.67508683  1
  Rb  Rb3  1  0.13456957  0.26913813  0.17508683  1
  Rb  Rb4  1  0.13456957  0.86543043  0.17508683  1
  Rb  Rb5  1  0.26913813  0.13456957  0.67508683  1
  Ba  Ba0  1  0.05254983  0.52627541  0.49806129  1
  Ba  Ba1  1  0.47372459  0.94745017  0.49806129  1
  Ba  Ba2  1  0.47372459  0.52627541  0.49806129  1
  Ba  Ba3  1  0.52627541  0.47372459  0.99806129  1
  Ba  Ba4  1  0.52627541  0.05254983  0.99806129  1
  Ba  Ba5  1  0.94745017  0.47372459  0.99806129  1
  Al  Al0  1  0.33333300  0.66666700  0.87827645  1
  Al  Al1  1  0.66666700  0.33333300  0.37827645  1
  P  P0  1  0.66666700  0.33333300  0.69989579  1
  P  P1  1  0.58877752  0.79438976  0.77719480  1
  P  P2  1  0.79438976  0.20561024  0.27719480  1
  P  P3  1  0.79438976  0.58877752  0.27719480  1
  P  P4  1  0.33333300  0.66666700  0.19989579  1
  P  P5  1  0.20561024  0.41122248  0.77719480  1
  P  P6  1  0.20561024  0.79438976  0.77719480  1
  P  P7  1  0.41122248  0.20561024  0.27719480  1
loop_
_geom_bond_atom_site_label_1
_geom_bond_atom_site_label_2
_geom_bond_distance
_geom_bond_site_symmetry_2
Ba0 P5 3.264949 1_555
Ba0 P6 3.264955 1_555
Ba0 P4 3.443702 1_555
Ba0 P3 3.521216 1_455
Ba0 P2 3.521234 1_455
Ba0 P0 3.823790 1_455
Ba1 P1 3.264949 1_555
Ba1 P6 3.264955 1_555
Ba1 P4 3.443702 1_555
Ba1 P7 3.521216 1_565
Ba1 P2 3.521234 1_565
Ba1 P0 3.823789 1_565
Ba2 P1 3.264956 1_555
Ba2 P5 3.264956 1_555
Ba2 P4 3.443702 1_555
Ba2 P7 3.521243 1_555
Ba2 P3 3.521243 1_555
Ba2 P0 3.823806 1_555
Ba3 P7 3.264956 1_556
Ba3 P3 3.264956 1_556
Ba3 P0 3.443702 1_555
Ba3 P1 3.521243 1_555
Ba3 P5 3.521243 1_555
Ba3 P4 3.823806 1_556
Ba4 P7 3.264949 1_556
Ba4 P2 3.264955 1_556
Ba4 P0 3.443702 1_555
Ba4 P1 3.521216 1_545
Ba4 P6 3.521234 1_545
Ba4 P4 3.823789 1_546
Ba5 P3 3.264949 1_556
Ba5 P2 3.264955 1_556
Ba5 P0 3.443702 1_555
Ba5 P5 3.521216 1_655
Ba5 P6 3.521234 1_655
Ba5 P4 3.823790 1_656
Al0 P5 2.437291 1_555
Al0 P1 2.437292 1_555
Al0 P6 2.437300 1_555
Al0 P4 2.515079 1_556
Al1 P3 2.437291 1_555
Al1 P7 2.437292 1_555
Al1 P2 2.437300 1_555
Al1 P0 2.515079 1_555
P0 Rb1 3.593174 1_555
P0 Rb2 3.593192 1_555
P0 Rb5 3.593192 1_555
P1 Rb1 3.361246 1_565
P1 Rb2 3.361253 1_555
P1 Rb0 3.365443 1_556
P2 Rb0 3.361243 1_545
P2 Rb3 3.361243 1_655
P2 Rb1 3.365432 1_555
P3 Rb4 3.361246 1_655
P3 Rb0 3.361252 1_555
P3 Rb2 3.365443 1_555
P4 Rb4 3.593174 1_555
P4 Rb3 3.593192 1_555
P4 Rb0 3.593192 1_555
P5 Rb1 3.361246 1_455
P5 Rb5 3.361252 1_555
P5 Rb3 3.365443 1_556
P6 Rb5 3.361243 1_565
P6 Rb2 3.361243 1_455
P6 Rb4 3.365432 1_556
P7 Rb4 3.361246 1_545
P7 Rb3 3.361253 1_555
P7 Rb5 3.365443 1_555
