# generated using pymatgen
data_Si4Ni16(AsPd2)3
_symmetry_space_group_name_H-M   'P 1'
_cell_length_a   7.86029954
_cell_length_b   7.86029936
_cell_length_c   7.90630038
_cell_angle_alpha   59.80622534
_cell_angle_beta   59.80622610
_cell_angle_gamma   60.38755587
_symmetry_Int_Tables_number   1
_chemical_formula_structural   Si4Ni16(AsPd2)3
_chemical_formula_sum   'Si4 Ni16 As3 Pd6'
_cell_volume   345.38748402
_cell_formula_units_Z   1
loop_
 _symmetry_equiv_pos_site_id
 _symmetry_equiv_pos_as_xyz
  1  'x, y, z'
loop_
 _atom_site_type_symbol
 _atom_site_label
 _atom_site_symmetry_multiplicity
 _atom_site_fract_x
 _atom_site_fract_y
 _atom_site_fract_z
 _atom_site_occupancy
  Si  Si0  1  0.00000000  0.50000000  0.00000000  1
  Si  Si1  1  0.50000000  0.00000000  0.00000000  1
  Si  Si2  1  0.00000000  0.50000000  0.50000000  1
  Si  Si3  1  0.50000000  0.00000000  0.50000000  1
  Ni  Ni0  1  0.33018841  0.33018841  0.33280555  1
  Ni  Ni1  1  0.99318337  0.66719445  0.66981159  1
  Ni  Ni2  1  0.66719445  0.99318337  0.66981159  1
  Ni  Ni3  1  0.66981159  0.66981159  0.99318337  1
  Ni  Ni4  1  0.33280555  0.00681663  0.33018841  1
  Ni  Ni5  1  0.33018841  0.33018841  0.00681663  1
  Ni  Ni6  1  0.00681663  0.33280555  0.33018841  1
  Ni  Ni7  1  0.66981159  0.66981159  0.66719445  1
  Ni  Ni8  1  0.12033287  0.12033287  0.11323622  1
  Ni  Ni9  1  0.35390197  0.88676378  0.87966713  1
  Ni  Ni10  1  0.88676378  0.35390197  0.87966713  1
  Ni  Ni11  1  0.87966713  0.87966713  0.35390197  1
  Ni  Ni12  1  0.11323622  0.64609803  0.12033287  1
  Ni  Ni13  1  0.12033287  0.12033287  0.64609803  1
  Ni  Ni14  1  0.64609803  0.11323622  0.12033287  1
  Ni  Ni15  1  0.87966713  0.87966713  0.88676378  1
  As  As0  1  0.00000000  0.00000000  0.00000000  1
  As  As1  1  0.00000000  0.00000000  0.50000000  1
  As  As2  1  0.50000000  0.50000000  0.00000000  1
  Pd  Pd0  1  0.30735343  0.69264657  0.30735343  1
  Pd  Pd1  1  0.30735343  0.69264657  0.69264657  1
  Pd  Pd2  1  0.69264657  0.30735343  0.30735343  1
  Pd  Pd3  1  0.69268441  0.69268441  0.30731559  1
  Pd  Pd4  1  0.30731559  0.30731559  0.69268441  1
  Pd  Pd5  1  0.69264657  0.30735343  0.69264657  1
loop_
_geom_bond_atom_site_label_1
_geom_bond_atom_site_label_2
_geom_bond_distance
_geom_bond_site_symmetry_2
Ni0 Si3 2.272728 1_555
Ni0 Si2 2.272728 1_555
Ni0 Ni13 2.459025 1_555
Ni0 Ni12 2.529214 1_555
Ni0 Ni14 2.529214 1_555
Ni0 Ni4 2.542124 1_555
Ni0 Ni6 2.542124 1_555
Ni0 Ni5 2.577366 1_555
Ni0 Pd0 2.672821 1_555
Ni0 Pd2 2.672821 1_555
Ni0 Pd4 2.676433 1_555
Ni1 Si0 2.272725 1_656
Ni1 Si2 2.272732 1_655
Ni1 Ni10 2.459029 1_555
Ni1 Ni15 2.529212 1_555
Ni1 Ni11 2.529219 1_555
Ni1 Ni7 2.542124 1_555
Ni1 Ni3 2.542124 1_555
Ni1 Ni2 2.577366 1_555
Ni1 Pd1 2.672813 1_655
Ni1 Pd0 2.672818 1_655
Ni1 Pd4 2.676429 1_655
Ni2 Si1 2.272725 1_566
Ni2 Si3 2.272732 1_565
Ni2 Ni9 2.459029 1_555
Ni2 Ni7 2.542124 1_555
Ni2 Ni3 2.542124 1_555
Ni2 Pd5 2.672813 1_565
Ni2 Pd2 2.672818 1_565
Ni2 Pd4 2.676429 1_565
Ni3 Si1 2.272725 1_566
Ni3 Si0 2.272725 1_656
Ni3 Ni9 2.529218 1_555
Ni3 Ni7 2.577366 1_555
Ni3 Pd2 2.672818 1_556
Ni3 Pd0 2.672818 1_556
Ni3 Pd3 2.676425 1_556
Ni4 Si1 2.272725 1_555
Ni4 Si3 2.272732 1_555
Ni4 Ni8 2.529212 1_555
Ni4 Ni5 2.542124 1_555
Ni4 Ni6 2.577366 1_555
Ni4 Pd0 2.672813 1_545
Ni4 Pd1 2.672818 1_545
Ni4 Pd3 2.676429 1_545
Ni5 Si1 2.272725 1_555
Ni5 Si0 2.272725 1_555
Ni5 Ni8 2.459022 1_555
Ni5 Ni6 2.542124 1_555
Ni5 Pd1 2.672818 1_554
Ni5 Pd5 2.672818 1_554
Ni5 Pd4 2.676425 1_554
Ni6 Si0 2.272725 1_555
Ni6 Si2 2.272732 1_555
Ni6 Ni8 2.529212 1_555
Ni6 Pd2 2.672813 1_455
Ni6 Pd5 2.672818 1_455
Ni6 Pd3 2.676429 1_455
Ni7 Si3 2.272728 1_565
Ni7 Si2 2.272728 1_655
Ni7 Ni9 2.529214 1_555
Ni7 Pd5 2.672821 1_555
Ni7 Pd1 2.672821 1_555
Ni7 Pd3 2.676433 1_555
Ni8 Si0 2.444783 1_555
Ni8 Si1 2.444783 1_555
Ni8 Ni9 2.611582 1_544
Ni8 Pd4 2.771235 1_554
Ni8 Pd0 2.830833 1_545
Ni8 Pd2 2.830833 1_455
Ni9 Si1 2.444783 1_566
Ni9 Si3 2.444784 1_565
Ni9 Pd4 2.771234 1_565
Ni9 Pd1 2.830833 1_555
Ni9 Pd0 2.830834 1_556
Ni10 Si0 2.444783 1_656
Ni10 Si2 2.444784 1_655
Ni10 Ni7 2.529214 1_555
Ni10 Ni3 2.529218 1_555
Ni10 Ni13 2.611582 1_655
Ni10 Ni8 2.611582 1_656
Ni10 Ni14 2.659526 1_556
Ni10 Pd4 2.771234 1_655
Ni10 Pd5 2.830833 1_555
Ni10 Pd2 2.830834 1_556
Ni11 Si2 2.444783 1_655
Ni11 Si3 2.444783 1_565
Ni11 Ni7 2.459025 1_555
Ni11 Ni2 2.529219 1_555
Ni11 Ni12 2.611582 1_655
Ni11 Ni14 2.611582 1_565
Ni11 Ni8 2.659526 1_665
Ni11 Pd3 2.771234 1_555
Ni11 Pd2 2.830833 1_565
Ni11 Pd0 2.830833 1_655
Ni12 Si0 2.444783 1_555
Ni12 Si2 2.444784 1_555
Ni12 Ni6 2.459029 1_555
Ni12 Ni5 2.529218 1_555
Ni12 Ni15 2.611582 1_454
Ni12 Ni9 2.659526 1_554
Ni12 Pd3 2.771234 1_455
Ni12 Pd0 2.830833 1_555
Ni12 Pd1 2.830834 1_554
Ni13 Si2 2.444783 1_555
Ni13 Si3 2.444783 1_555
Ni13 Ni6 2.529219 1_555
Ni13 Ni4 2.529219 1_555
Ni13 Ni9 2.611582 1_545
Ni13 Ni15 2.659526 1_445
Ni13 Pd4 2.771234 1_555
Ni13 Pd1 2.830833 1_545
Ni13 Pd5 2.830833 1_455
Ni14 Si1 2.444783 1_555
Ni14 Si3 2.444784 1_555
Ni14 Ni4 2.459029 1_555
Ni14 Ni5 2.529218 1_555
Ni14 Ni15 2.611582 1_544
Ni14 Pd3 2.771234 1_545
Ni14 Pd2 2.830833 1_555
Ni14 Pd5 2.830834 1_554
Ni15 Si0 2.444783 1_656
Ni15 Si1 2.444783 1_566
Ni15 Ni3 2.459022 1_555
Ni15 Ni2 2.529212 1_555
Ni15 Pd3 2.771235 1_556
Ni15 Pd5 2.830833 1_565
Ni15 Pd1 2.830833 1_655
As0 Ni10 2.275621 1_454
As0 Ni12 2.275621 1_545
As0 Ni8 2.275621 1_555
As0 Ni15 2.275621 1_444
As0 Ni9 2.275621 1_544
As0 Ni14 2.275621 1_455
As0 Ni13 2.275621 1_554
As0 Ni11 2.275621 1_445
As1 Ni6 2.276418 1_555
As1 Ni1 2.276418 1_445
As1 Ni4 2.276418 1_555
As1 Ni2 2.276418 1_445
As1 Ni13 2.491092 1_555
As1 Ni11 2.491092 1_445
As1 Ni15 2.491092 1_445
As1 Ni8 2.491092 1_555
As1 Pd1 2.867915 1_545
As1 Pd2 2.867915 1_455
As1 Pd5 2.867915 1_455
As1 Pd0 2.867915 1_545
As2 Ni7 2.276420 1_554
As2 Ni0 2.276420 1_555
As2 Ni3 2.276425 1_554
As2 Ni5 2.276425 1_555
As2 Ni9 2.491092 1_554
As2 Ni14 2.491092 1_555
As2 Ni12 2.491092 1_555
As2 Ni10 2.491092 1_554
As2 Pd0 2.867915 1_555
As2 Pd5 2.867915 1_554
As2 Pd2 2.867915 1_555
As2 Pd1 2.867915 1_554
Pd0 Si2 2.836128 1_555
Pd0 Si1 2.836128 1_565
Pd0 Pd3 3.028813 1_555
Pd0 Pd4 3.028814 1_555
Pd0 Pd2 3.046243 1_555
Pd0 Pd1 3.046243 1_555
Pd1 Si3 2.836128 1_565
Pd1 Si0 2.836128 1_556
Pd1 Pd4 3.028813 1_555
Pd1 Pd3 3.028814 1_555
Pd1 Pd5 3.046243 1_555
Pd2 Si3 2.836128 1_555
Pd2 Si0 2.836128 1_655
Pd2 Pd3 3.028813 1_555
Pd2 Pd4 3.028814 1_555
Pd2 Pd5 3.046243 1_555
Pd3 Si3 2.866158 1_565
Pd3 Si2 2.866158 1_655
Pd3 Si1 2.866159 1_565
Pd3 Si0 2.866159 1_655
Pd3 Pd5 3.028814 1_555
Pd4 Si3 2.866158 1_555
Pd4 Si2 2.866158 1_555
Pd4 Si1 2.866159 1_556
Pd4 Si0 2.866159 1_556
Pd4 Pd5 3.028813 1_555
Pd5 Si2 2.836128 1_655
Pd5 Si1 2.836128 1_556
