# generated using pymatgen
data_ScNbBRh6
_symmetry_space_group_name_H-M   'P 1'
_cell_length_a   5.61901673
_cell_length_b   5.61901686
_cell_length_c   5.61901695
_cell_angle_alpha   59.99999949
_cell_angle_beta   59.99999871
_cell_angle_gamma   59.99999327
_symmetry_Int_Tables_number   1
_chemical_formula_structural   ScNbBRh6
_chemical_formula_sum   'Sc1 Nb1 B1 Rh6'
_cell_volume   125.44864542
_cell_formula_units_Z   1
loop_
 _symmetry_equiv_pos_site_id
 _symmetry_equiv_pos_as_xyz
  1  'x, y, z'
loop_
 _atom_site_type_symbol
 _atom_site_label
 _atom_site_symmetry_multiplicity
 _atom_site_fract_x
 _atom_site_fract_y
 _atom_site_fract_z
 _atom_site_occupancy
  Sc  Sc0  1  0.75000000  0.75000000  0.75000000  1
  Nb  Nb0  1  0.25000000  0.25000000  0.25000000  1
  B  B0  1  0.50000000  0.50000000  0.50000000  1
  Rh  Rh0  1  0.75790741  0.75790741  0.24209259  1
  Rh  Rh1  1  0.75790741  0.24209259  0.24209259  1
  Rh  Rh2  1  0.24209259  0.75790741  0.24209259  1
  Rh  Rh3  1  0.24209259  0.24209259  0.75790741  1
  Rh  Rh4  1  0.75790741  0.24209259  0.75790741  1
  Rh  Rh5  1  0.24209259  0.75790741  0.75790741  1
loop_
_geom_bond_atom_site_label_1
_geom_bond_atom_site_label_2
_geom_bond_distance
_geom_bond_site_symmetry_2
Nb0 Rh0 2.810211 1_545
Nb0 Rh0 2.810211 1_455
Nb0 Rh1 2.810211 1_555
Nb0 Rh4 2.810211 1_554
Nb0 Rh4 2.810211 1_455
Nb0 Rh1 2.810211 1_455
Nb0 Rh2 2.810211 1_555
Nb0 Rh5 2.810211 1_554
Nb0 Rh5 2.810211 1_545
Nb0 Rh2 2.810211 1_545
Nb0 Rh3 2.810211 1_554
Nb0 Rh3 2.810211 1_555
B0 Rh4 2.049459 1_555
B0 Rh5 2.049459 1_555
B0 Rh2 2.049459 1_555
B0 Rh1 2.049459 1_555
B0 Rh0 2.049459 1_555
B0 Rh3 2.049459 1_555
Rh0 Sc0 2.810211 1_554
Rh0 Sc0 2.810211 1_555
Rh1 Sc0 2.810211 1_554
Rh1 Sc0 2.810211 1_545
Rh2 Sc0 2.810211 1_554
Rh2 Sc0 2.810211 1_455
Rh3 Sc0 2.810211 1_545
Rh3 Sc0 2.810211 1_455
Rh4 Sc0 2.810211 1_555
Rh4 Sc0 2.810211 1_545
Rh5 Sc0 2.810211 1_555
Rh5 Sc0 2.810211 1_455
