# generated using pymatgen
data_Zr8Al14GaRh7
_symmetry_space_group_name_H-M   'P 1'
_cell_length_a   8.86102592
_cell_length_b   8.86102653
_cell_length_c   8.86102614
_cell_angle_alpha   120.22770579
_cell_angle_beta   119.86021693
_cell_angle_gamma   89.92417100
_symmetry_Int_Tables_number   1
_chemical_formula_structural   Zr8Al14GaRh7
_chemical_formula_sum   'Zr8 Al14 Ga1 Rh7'
_cell_volume   491.63452830
_cell_formula_units_Z   1
loop_
 _symmetry_equiv_pos_site_id
 _symmetry_equiv_pos_as_xyz
  1  'x, y, z'
loop_
 _atom_site_type_symbol
 _atom_site_label
 _atom_site_symmetry_multiplicity
 _atom_site_fract_x
 _atom_site_fract_y
 _atom_site_fract_z
 _atom_site_occupancy
  Zr  Zr0  1  0.80182274  0.29574889  0.08338053  1
  Zr  Zr1  1  0.21236836  0.29574889  0.49392615  1
  Zr  Zr2  1  0.19714274  0.69714274  0.50000000  1
  Zr  Zr3  1  0.21236836  0.71844221  0.91661947  1
  Zr  Zr4  1  0.80182274  0.71844221  0.50607385  1
  Zr  Zr5  1  0.78070953  0.28070953  0.50000000  1
  Zr  Zr6  1  0.37959060  0.11956412  0.73997352  1
  Zr  Zr7  1  0.37959060  0.63961708  0.26002648  1
  Al  Al0  1  0.16095623  0.33079457  0.16983834  1
  Al  Al1  1  0.16095623  0.99111789  0.83016166  1
  Al  Al2  1  0.15157862  0.34047039  0.81110723  1
  Al  Al3  1  0.52936217  0.34047039  0.18889277  1
  Al  Al4  1  0.83727002  0.65982530  0.82255728  1
  Al  Al5  1  0.83727002  0.01471274  0.17744272  1
  Al  Al6  1  0.83565530  0.66293729  0.17271801  1
  Al  Al7  1  0.49021928  0.66293729  0.82728199  1
  Al  Al8  1  0.37975317  0.12178863  0.25796454  1
  Al  Al9  1  0.86382709  0.12178863  0.74203546  1
  Al  Al10  1  0.62265334  0.87631355  0.25366021  1
  Al  Al11  1  0.62265334  0.36899313  0.74633979  1
  Al  Al12  1  0.62477638  0.87832083  0.74645655  1
  Al  Al13  1  0.13186329  0.87832083  0.25354345  1
  Ga  Ga0  1  0.98701207  0.48701207  0.50000000  1
  Rh  Rh0  1  0.99855215  0.99954525  0.50123348  1
  Rh  Rh1  1  0.49831078  0.99954525  0.00099311  1
  Rh  Rh2  1  0.49859353  0.49859353  0.00000000  1
  Rh  Rh3  1  0.49831078  0.49731767  0.49876652  1
  Rh  Rh4  1  0.99855215  0.49731767  0.99900689  1
  Rh  Rh5  1  0.99902003  0.99902003  0.00000000  1
  Rh  Rh6  1  0.50743639  0.00743639  0.50000000  1
loop_
_geom_bond_atom_site_label_1
_geom_bond_atom_site_label_2
_geom_bond_distance
_geom_bond_site_symmetry_2
Al0 Rh5 2.524426 1_445
Al0 Rh4 2.571735 1_454
Al0 Rh3 2.571737 1_555
Al1 Rh5 2.524425 1_456
Al1 Rh1 2.571735 1_556
Al1 Rh0 2.571742 1_455
Al2 Rh0 2.540789 1_445
Al2 Rh4 2.540794 1_455
Al2 Rh2 2.597095 1_556
Al3 Rh3 2.540789 1_555
Al3 Rh1 2.540789 1_545
Al3 Rh2 2.597105 1_555
Al4 Rh5 2.563056 1_556
Al4 Rh4 2.568467 1_555
Al4 Rh3 2.568480 1_555
Al5 Rh5 2.563040 1_545
Al5 Rh0 2.568475 1_545
Al5 Rh1 2.568482 1_545
Al6 Rh0 2.557121 1_555
Al6 Rh4 2.557123 1_554
Al6 Rh2 2.568886 1_555
Al7 Rh3 2.557115 1_555
Al7 Rh1 2.557123 1_556
Al7 Rh2 2.568886 1_556
Al8 Rh6 2.583660 1_555
Al8 Rh3 2.712449 1_555
Al8 Rh1 2.712449 1_545
Al8 Rh5 2.759911 1_445
Al9 Rh6 2.583681 1_555
Al9 Rh0 2.712434 1_545
Al9 Rh4 2.712448 1_555
Al9 Rh5 2.759910 1_546
Al10 Rh6 2.611389 1_565
Al10 Rh0 2.724149 1_555
Al10 Rh1 2.724149 1_555
Al10 Rh2 2.727174 1_555
Al11 Rh6 2.611389 1_555
Al11 Rh3 2.724142 1_555
Al11 Rh4 2.724149 1_555
Al11 Rh2 2.727174 1_556
Al12 Rh5 2.712860 1_556
Al12 Rh6 2.722275 1_565
Al12 Rh1 2.751530 1_556
Al12 Rh3 2.751538 1_555
Al13 Rh5 2.712853 1_455
Al13 Rh6 2.722282 1_565
Al13 Rh0 2.751523 1_455
Al13 Rh4 2.751537 1_454
Ga0 Zr5 2.586966 1_555
Ga0 Zr3 2.620875 1_655
Ga0 Zr0 2.620875 1_555
Ga0 Zr1 2.620875 1_655
Ga0 Zr4 2.620875 1_555
Ga0 Zr2 2.634970 1_655
Rh0 Zr6 2.763701 1_665
Rh0 Zr4 3.072227 1_555
Rh0 Zr5 3.150712 1_565
Rh0 Zr2 3.202209 1_655
Rh0 Zr1 3.284683 1_665
Rh1 Zr6 2.763702 1_564
Rh1 Zr3 3.072220 1_554
Rh1 Zr5 3.150713 1_565
Rh1 Zr2 3.202207 1_554
Rh1 Zr0 3.284689 1_565
Rh2 Zr7 2.738469 1_555
Rh2 Zr6 2.738470 1_554
Rh3 Zr7 2.763709 1_555
Rh3 Zr1 3.072214 1_555
Rh3 Zr5 3.150714 1_555
Rh3 Zr2 3.202206 1_555
Rh3 Zr4 3.284695 1_555
Rh4 Zr7 2.763702 1_656
Rh4 Zr0 3.072220 1_556
Rh4 Zr5 3.150713 1_555
Rh4 Zr2 3.202207 1_656
Rh4 Zr3 3.284689 1_655
Rh5 Zr1 3.135271 1_665
Rh5 Zr4 3.135271 1_554
Rh5 Zr3 3.135271 1_654
Rh5 Zr0 3.135271 1_565
Rh6 Zr6 2.657181 1_555
Rh6 Zr7 2.657181 1_545
