# generated using pymatgen
data_SrGaSiRh2
_symmetry_space_group_name_H-M   'P 1'
_cell_length_a   8.27252004
_cell_length_b   7.14890463
_cell_length_c   5.94203803
_cell_angle_alpha   77.78185862
_cell_angle_beta   57.62914490
_cell_angle_gamma   44.58899827
_symmetry_Int_Tables_number   1
_chemical_formula_structural   SrGaSiRh2
_chemical_formula_sum   'Sr2 Ga2 Si2 Rh4'
_cell_volume   199.64704229
_cell_formula_units_Z   2
loop_
 _symmetry_equiv_pos_site_id
 _symmetry_equiv_pos_as_xyz
  1  'x, y, z'
loop_
 _atom_site_type_symbol
 _atom_site_label
 _atom_site_symmetry_multiplicity
 _atom_site_fract_x
 _atom_site_fract_y
 _atom_site_fract_z
 _atom_site_occupancy
  Sr  Sr0  1  0.50000000  0.50000000  0.50000000  1
  Sr  Sr1  1  0.75000000  0.75000000  0.75000000  1
  Ga  Ga0  1  0.42942744  0.07057256  0.42942744  1
  Ga  Ga1  1  0.07057256  0.42942744  0.07057256  1
  Si  Si0  1  0.82193182  0.17806818  0.82193182  1
  Si  Si1  1  0.17806818  0.82193182  0.17806818  1
  Rh  Rh0  1  0.11240897  0.11240897  0.88759103  1
  Rh  Rh1  1  0.88759103  0.88759103  0.11240897  1
  Rh  Rh2  1  0.12126631  0.12126631  0.37873369  1
  Rh  Rh3  1  0.37873369  0.37873369  0.12126631  1
loop_
_geom_bond_atom_site_label_1
_geom_bond_atom_site_label_2
_geom_bond_distance
_geom_bond_site_symmetry_2
Ga0 Rh1 2.441538 1_545
Ga0 Rh0 2.441538 1_555
Ga0 Rh2 2.486166 1_555
Ga0 Rh3 2.486166 1_555
Ga0 Sr1 3.289130 1_545
Ga0 Sr1 3.518401 1_455
Ga0 Sr1 3.518401 1_544
Ga0 Sr0 3.647055 1_555
Ga0 Sr0 3.647055 1_545
Ga1 Rh0 2.441539 1_554
Ga1 Rh1 2.441539 1_455
Ga1 Rh3 2.486166 1_555
Ga1 Rh2 2.486166 1_555
Ga1 Sr1 3.289130 1_454
Ga1 Sr1 3.518401 1_544
Ga1 Sr1 3.518401 1_455
Ga1 Sr0 3.647055 1_455
Ga1 Sr0 3.647055 1_554
Si0 Sr0 3.303076 1_555
Si0 Sr0 3.511124 1_645
Si0 Sr0 3.511124 1_556
Si0 Sr1 3.649850 1_545
Si0 Sr1 3.649850 1_555
Si1 Sr0 3.303076 1_555
Si1 Sr0 3.511124 1_465
Si1 Sr0 3.511124 1_554
Si1 Sr1 3.649849 1_554
Si1 Sr1 3.649849 1_455
Rh0 Si0 2.338093 1_455
Rh0 Si1 2.338094 1_546
Rh0 Sr0 3.334477 1_456
Rh0 Sr0 3.334478 1_545
Rh0 Sr1 3.466447 1_545
Rh0 Sr1 3.466447 1_455
Rh1 Si1 2.338093 1_655
Rh1 Si0 2.338094 1_564
Rh1 Sr0 3.334477 1_654
Rh1 Sr0 3.334478 1_565
Rh1 Sr1 3.466447 1_554
Rh1 Sr1 3.466447 1_555
Rh2 Si0 2.295560 1_455
Rh2 Si1 2.295560 1_545
Rh2 Sr0 3.362194 1_455
Rh2 Sr0 3.362195 1_545
Rh2 Sr1 3.432481 1_544
Rh2 Sr1 3.432481 1_455
Rh3 Si0 2.295560 1_554
Rh3 Si1 2.295560 1_555
Rh3 Sr0 3.362194 1_555
Rh3 Sr0 3.362195 1_554
Rh3 Sr1 3.432481 1_455
Rh3 Sr1 3.432481 1_544
