# generated using pymatgen
data_Li4B4OsRu3
_symmetry_space_group_name_H-M   'P 1'
_cell_length_a   6.70624123
_cell_length_b   5.97668164
_cell_length_c   5.49750561
_cell_angle_alpha   71.39113951
_cell_angle_beta   57.63107769
_cell_angle_gamma   51.37106484
_symmetry_Int_Tables_number   1
_chemical_formula_structural   Li4B4OsRu3
_chemical_formula_sum   'Li4 B4 Os1 Ru3'
_cell_volume   145.35058895
_cell_formula_units_Z   1
loop_
 _symmetry_equiv_pos_site_id
 _symmetry_equiv_pos_as_xyz
  1  'x, y, z'
loop_
 _atom_site_type_symbol
 _atom_site_label
 _atom_site_symmetry_multiplicity
 _atom_site_fract_x
 _atom_site_fract_y
 _atom_site_fract_z
 _atom_site_occupancy
  Li  Li0  1  0.12706374  0.62406427  0.62656137  1
  Li  Li1  1  0.62420274  0.62591775  0.62496682  1
  Li  Li2  1  0.62591775  0.62420274  0.12491269  1
  Li  Li3  1  0.62406427  0.12706374  0.62231162  1
  B  B0  1  0.43143972  0.06810786  0.43035016  1
  B  B1  1  0.18722996  0.81412413  0.17850364  1
  B  B2  1  0.06810786  0.43143972  0.07010226  1
  B  B3  1  0.81412413  0.18722996  0.82014226  1
  Os  Os0  1  0.38523279  0.38523279  0.11476721  1
  Ru  Ru0  1  0.86383516  0.86383516  0.13616484  1
  Ru  Ru1  1  0.13688437  0.13688437  0.86311563  1
  Ru  Ru2  1  0.11189852  0.11189852  0.38810148  1
loop_
_geom_bond_atom_site_label_1
_geom_bond_atom_site_label_2
_geom_bond_distance
_geom_bond_site_symmetry_2
Li0 Ru0 2.669626 1_456
Li0 Os0 2.685714 1_555
Li0 Ru2 2.750081 1_565
Li0 Ru1 2.758493 1_555
Li1 Ru1 2.688881 1_565
Li1 Ru2 2.697850 1_655
Li1 Ru0 2.759725 1_555
Li1 Os0 2.770168 1_556
Li2 Ru1 2.688881 1_654
Li2 Ru2 2.697850 1_565
Li2 Ru0 2.759725 1_555
Li2 Os0 2.770168 1_555
Li3 Ru0 2.669631 1_545
Li3 Os0 2.685710 1_556
Li3 Ru2 2.750081 1_655
Li3 Ru1 2.758494 1_555
B0 Ru1 2.075943 1_555
B0 Ru0 2.081641 1_545
B0 Os0 2.107617 1_555
B0 Ru2 2.123307 1_555
B0 Li3 2.274168 1_555
B0 Li1 2.282786 1_545
B1 Os0 2.069303 1_555
B1 Ru2 2.076825 1_565
B1 Ru1 2.126130 1_564
B1 Ru0 2.130222 1_455
B1 Li2 2.268538 1_555
B1 Li0 2.289724 1_555
B2 Ru1 2.075943 1_554
B2 Ru0 2.081641 1_455
B2 Os0 2.107617 1_555
B2 Ru2 2.123307 1_555
B2 Li0 2.274164 1_554
B2 Li2 2.282786 1_455
B3 Os0 2.069303 1_556
B3 Ru2 2.076825 1_655
B3 Ru1 2.126130 1_655
B3 Ru0 2.130222 1_546
B3 Li1 2.268538 1_555
B3 Li3 2.289719 1_555
