# generated using pymatgen
data_Zn5Ga(FeRh2)6
_symmetry_space_group_name_H-M   'P 1'
_cell_length_a   4.22083865
_cell_length_b   5.97745557
_cell_length_c   12.66206883
_cell_angle_alpha   90.00000000
_cell_angle_beta   89.99898110
_cell_angle_gamma   90.00000000
_symmetry_Int_Tables_number   1
_chemical_formula_structural   Zn5Ga(FeRh2)6
_chemical_formula_sum   'Zn5 Ga1 Fe6 Rh12'
_cell_volume   319.46242008
_cell_formula_units_Z   1
loop_
 _symmetry_equiv_pos_site_id
 _symmetry_equiv_pos_as_xyz
  1  'x, y, z'
loop_
 _atom_site_type_symbol
 _atom_site_label
 _atom_site_symmetry_multiplicity
 _atom_site_fract_x
 _atom_site_fract_y
 _atom_site_fract_z
 _atom_site_occupancy
  Zn  Zn0  1  0.49990316  0.00000000  0.16636498  1
  Zn  Zn1  1  0.99991194  0.49999900  0.33328461  1
  Zn  Zn2  1  0.50000100  0.00000000  0.50000000  1
  Zn  Zn3  1  0.00008806  0.49999900  0.66671539  1
  Zn  Zn4  1  0.50009584  0.00000000  0.83363502  1
  Ga  Ga0  1  0.00000000  0.49999900  0.00000000  1
  Fe  Fe0  1  0.00000000  0.00000000  0.00000000  1
  Fe  Fe1  1  0.49992049  0.49999900  0.16931528  1
  Fe  Fe2  1  0.99991050  0.00000000  0.33396284  1
  Fe  Fe3  1  0.50000100  0.49999900  0.50000000  1
  Fe  Fe4  1  0.00008850  0.00000000  0.66603716  1
  Fe  Fe5  1  0.50007851  0.49999900  0.83068472  1
  Rh  Rh0  1  0.50000100  0.25263301  0.00000000  1
  Rh  Rh1  1  0.50000100  0.74736799  0.00000000  1
  Rh  Rh2  1  0.99990590  0.25083121  0.16550220  1
  Rh  Rh3  1  0.99990590  0.74916779  0.16550220  1
  Rh  Rh4  1  0.49991575  0.24956367  0.33311608  1
  Rh  Rh5  1  0.49991575  0.75043633  0.33311608  1
  Rh  Rh6  1  0.00000000  0.24984377  0.50000000  1
  Rh  Rh7  1  0.00000000  0.75015623  0.50000000  1
  Rh  Rh8  1  0.50008325  0.24956367  0.66688392  1
  Rh  Rh9  1  0.50008325  0.75043633  0.66688392  1
  Rh  Rh10  1  0.00009510  0.25083121  0.83449780  1
  Rh  Rh11  1  0.00009510  0.74916779  0.83449780  1
loop_
_geom_bond_atom_site_label_1
_geom_bond_atom_site_label_2
_geom_bond_distance
_geom_bond_site_symmetry_2
Ga0 Rh2 2.570957 1_455
Ga0 Rh10 2.570957 1_554
Ga0 Rh3 2.570961 1_455
Ga0 Rh11 2.570961 1_554
Ga0 Rh0 2.576852 1_455
Ga0 Rh0 2.576859 1_555
Ga0 Rh1 2.576862 1_455
Ga0 Rh1 2.576869 1_555
Fe0 Rh2 2.576730 1_455
Fe0 Rh10 2.576730 1_554
Fe0 Rh3 2.576734 1_445
Fe0 Rh11 2.576734 1_544
Fe0 Rh1 2.595042 1_445
Fe0 Rh0 2.595046 1_455
Fe0 Rh1 2.595049 1_545
Fe0 Rh0 2.595052 1_555
Fe1 Rh4 2.557855 1_555
Fe1 Rh5 2.557862 1_555
Fe1 Rh2 2.583451 1_555
Fe1 Rh3 2.583454 1_555
Fe1 Rh2 2.583553 1_455
Fe1 Rh3 2.583556 1_455
Fe1 Rh0 2.604332 1_555
Fe1 Rh1 2.604342 1_555
Fe2 Rh6 2.578819 1_655
Fe2 Rh7 2.578819 1_645
Fe2 Rh4 2.584420 1_555
Fe2 Rh5 2.584420 1_545
Fe2 Rh4 2.584456 1_655
Fe2 Rh5 2.584456 1_645
Fe2 Rh2 2.607287 1_555
Fe2 Rh3 2.607290 1_545
Fe3 Rh6 2.586455 1_655
Fe3 Rh6 2.586462 1_555
Fe3 Rh7 2.586462 1_655
Fe3 Rh7 2.586469 1_555
Fe3 Rh8 2.589610 1_555
Fe3 Rh4 2.589610 1_555
Fe3 Rh9 2.589617 1_555
Fe3 Rh5 2.589617 1_555
Fe4 Rh6 2.578819 1_555
Fe4 Rh7 2.578819 1_545
Fe4 Rh8 2.584420 1_555
Fe4 Rh9 2.584420 1_545
Fe4 Rh8 2.584456 1_455
Fe4 Rh9 2.584456 1_445
Fe4 Rh10 2.607287 1_555
Fe4 Rh11 2.607290 1_545
Fe5 Rh8 2.557855 1_555
Fe5 Rh9 2.557862 1_555
Fe5 Rh10 2.583444 1_555
Fe5 Rh11 2.583447 1_555
Fe5 Rh10 2.583560 1_655
Fe5 Rh11 2.583563 1_655
Fe5 Rh0 2.604332 1_556
Fe5 Rh1 2.604342 1_556
Rh0 Zn4 2.591883 1_554
Rh0 Zn0 2.591883 1_555
Rh1 Zn4 2.591879 1_564
Rh1 Zn0 2.591879 1_565
Rh2 Zn0 2.588810 1_655
Rh2 Zn0 2.588829 1_555
Rh2 Zn1 2.594545 1_555
Rh3 Zn0 2.588814 1_665
Rh3 Zn0 2.588832 1_565
Rh3 Zn1 2.594548 1_555
Rh4 Zn0 2.585228 1_555
Rh4 Zn2 2.586602 1_555
Rh4 Zn1 2.587415 1_555
Rh4 Zn1 2.587441 1_455
Rh5 Zn0 2.585228 1_565
Rh5 Zn2 2.586602 1_565
Rh5 Zn1 2.587421 1_555
Rh5 Zn1 2.587448 1_455
Rh6 Zn2 2.585379 1_455
Rh6 Zn2 2.585386 1_555
Rh6 Zn3 2.586901 1_555
Rh6 Zn1 2.586901 1_455
Rh7 Zn2 2.585379 1_465
Rh7 Zn2 2.585386 1_565
Rh7 Zn3 2.586908 1_555
Rh7 Zn1 2.586908 1_455
Rh8 Zn4 2.585228 1_555
Rh8 Zn2 2.586602 1_555
Rh8 Zn3 2.587411 1_555
Rh8 Zn3 2.587444 1_655
Rh9 Zn4 2.585228 1_565
Rh9 Zn2 2.586602 1_565
Rh9 Zn3 2.587418 1_555
Rh9 Zn3 2.587451 1_655
Rh10 Zn4 2.588817 1_455
Rh10 Zn4 2.588822 1_555
Rh10 Zn3 2.594545 1_555
Rh11 Zn4 2.588821 1_465
Rh11 Zn4 2.588825 1_565
Rh11 Zn3 2.594548 1_555
