# generated using pymatgen
data_Ba(BC3)2
_symmetry_space_group_name_H-M   'P 1'
_cell_length_a   6.89328328
_cell_length_b   5.19229759
_cell_length_c   5.81681039
_cell_angle_alpha   77.30193096
_cell_angle_beta   47.29177605
_cell_angle_gamma   55.40629890
_symmetry_Int_Tables_number   1
_chemical_formula_structural   Ba(BC3)2
_chemical_formula_sum   'Ba1 B2 C6'
_cell_volume   121.14549203
_cell_formula_units_Z   1
loop_
 _symmetry_equiv_pos_site_id
 _symmetry_equiv_pos_as_xyz
  1  'x, y, z'
loop_
 _atom_site_type_symbol
 _atom_site_label
 _atom_site_symmetry_multiplicity
 _atom_site_fract_x
 _atom_site_fract_y
 _atom_site_fract_z
 _atom_site_occupancy
  Ba  Ba0  1  0.02209887  0.02209887  0.97790113  1
  B  B0  1  0.08450457  0.57880838  0.42119162  1
  B  B1  1  0.57880838  0.08450457  0.91549543  1
  C  C0  1  0.07871216  0.07871216  0.42128784  1
  C  C1  1  0.57871216  0.57871216  0.92128784  1
  C  C2  1  0.91878724  0.91878724  0.58121276  1
  C  C3  1  0.41878724  0.41878724  0.08121276  1
  C  C4  1  0.90691124  0.41272914  0.58727086  1
  C  C5  1  0.41272914  0.90691124  0.09308876  1
loop_
_geom_bond_atom_site_label_1
_geom_bond_atom_site_label_2
_geom_bond_distance
_geom_bond_site_symmetry_2
Ba0 C5 2.915469 1_546
Ba0 C4 2.915469 1_455
Ba0 C0 2.952853 1_556
Ba0 C1 2.952853 1_545
Ba0 C0 2.952853 1_555
Ba0 C1 2.952853 1_455
Ba0 C3 3.053914 1_456
Ba0 C2 3.053914 1_445
Ba0 C2 3.053914 1_446
Ba0 C3 3.053914 1_546
B0 C3 1.509207 1_555
B0 C2 1.509207 1_455
B0 C4 1.550399 1_455
B0 Ba0 3.146891 1_564
B1 C2 1.509207 1_545
B1 C3 1.509207 1_556
B1 C5 1.550399 1_546
B1 Ba0 3.146890 1_655
C0 C2 1.441846 1_445
C0 C5 1.481682 1_545
C0 C4 1.481683 1_455
C1 C3 1.441846 1_556
C1 C4 1.481682 1_555
C1 C5 1.481683 1_556
