# generated using pymatgen
data_KSnSb11Rh4
_symmetry_space_group_name_H-M   'P 1'
_cell_length_a   8.10761145
_cell_length_b   8.10761215
_cell_length_c   8.10710944
_cell_angle_alpha   109.59655465
_cell_angle_beta   109.60999457
_cell_angle_gamma   109.20996852
_symmetry_Int_Tables_number   1
_chemical_formula_structural   KSnSb11Rh4
_chemical_formula_sum   'K1 Sn1 Sb11 Rh4'
_cell_volume   410.21318433
_cell_formula_units_Z   1
loop_
 _symmetry_equiv_pos_site_id
 _symmetry_equiv_pos_as_xyz
  1  'x, y, z'
loop_
 _atom_site_type_symbol
 _atom_site_label
 _atom_site_symmetry_multiplicity
 _atom_site_fract_x
 _atom_site_fract_y
 _atom_site_fract_z
 _atom_site_occupancy
  K  K0  1  0.00005588  0.00121553  0.00127041  1
  Sn  Sn0  1  0.84130186  0.65904724  0.50034911  1
  Sb  Sb0  1  0.15422521  0.34404214  0.49826834  1
  Sb  Sb1  1  0.15321293  0.65811983  0.81133376  1
  Sb  Sb2  1  0.84329895  0.34500032  0.18829827  1
  Sb  Sb3  1  0.65888610  0.50065578  0.84292425  1
  Sb  Sb4  1  0.34457736  0.49819610  0.15723701  1
  Sb  Sb5  1  0.65904091  0.81266065  0.15723701  1
  Sb  Sb6  1  0.34226848  0.18403716  0.84292425  1
  Sb  Sb7  1  0.50252165  0.84279323  0.65806728  1
  Sb  Sb8  1  0.49926998  0.15756328  0.34231393  1
  Sb  Sb9  1  0.18474965  0.84304395  0.34231393  1
  Sb  Sb10  1  0.81527505  0.15554563  0.65806728  1
  Rh  Rh0  1  0.49628737  0.49796967  0.49965063  1
  Rh  Rh1  1  0.50114515  0.99784494  0.00004545  1
  Rh  Rh2  1  0.00220052  0.49890030  0.00004545  1
  Rh  Rh3  1  0.00168096  0.00336326  0.49965063  1
loop_
_geom_bond_atom_site_label_1
_geom_bond_atom_site_label_2
_geom_bond_distance
_geom_bond_site_symmetry_2
K0 Sb10 3.510360 1_454
K0 Sb7 3.510365 1_444
K0 Sb1 3.511986 1_544
K0 Sb0 3.513330 1_555
K0 Sb8 3.520565 1_555
K0 Sb9 3.520567 1_545
K0 Sn0 3.525512 1_444
K0 Sb4 3.527293 1_555
K0 Sb5 3.527299 1_445
K0 Sb2 3.531698 1_455
K0 Sb6 3.536078 1_554
K0 Sb3 3.536089 1_444
Sb0 Sb2 2.905796 1_455
Sb0 Sb1 2.935728 1_555
Sb1 Sn0 2.914994 1_455
Sb2 Sn0 2.935490 1_555
Sb3 Sb5 2.926438 1_556
Sb3 Sb6 2.973685 1_555
Sb4 Sb6 2.926438 1_554
Sb4 Sb5 2.953454 1_555
Sb7 Sb9 2.961519 1_555
Sb8 Sb9 2.953978 1_545
Sb10 Sb7 2.937383 1_545
Sb10 Sb8 2.961519 1_555
Rh0 Sb7 2.631132 1_555
Rh0 Sb4 2.632871 1_555
Rh0 Sb0 2.634578 1_555
Rh0 Sb8 2.635860 1_555
Rh0 Sb3 2.638387 1_555
Rh0 Sn0 2.666567 1_555
Rh1 Sb7 2.638002 1_554
Rh1 Sb5 2.640123 1_555
Rh1 Sb8 2.647195 1_565
Rh1 Sb6 2.651172 1_564
Rh1 Sb1 2.654826 1_554
Rh1 Sb2 2.661819 1_565
Rh2 Sb10 2.638003 1_454
Rh2 Sb4 2.640130 1_555
Rh2 Sb9 2.647196 1_555
Rh2 Sb3 2.651179 1_454
Rh2 Sb1 2.654818 1_554
Rh2 Sb2 2.661811 1_455
Rh3 Sb10 2.631125 1_455
Rh3 Sb5 2.632871 1_445
Rh3 Sb0 2.634570 1_555
Rh3 Sb9 2.635853 1_545
Rh3 Sb6 2.638388 1_555
Rh3 Sn0 2.666567 1_445
