# generated using pymatgen
data_LuTa4(NbSn3)2
_symmetry_space_group_name_H-M   'P 1'
_cell_length_a   5.75036429
_cell_length_b   5.75257798
_cell_length_c   9.59616355
_cell_angle_alpha   90.00000000
_cell_angle_beta   90.00000000
_cell_angle_gamma   120.01273934
_symmetry_Int_Tables_number   1
_chemical_formula_structural   LuTa4(NbSn3)2
_chemical_formula_sum   'Lu1 Ta4 Nb2 Sn6'
_cell_volume   274.87192344
_cell_formula_units_Z   1
loop_
 _symmetry_equiv_pos_site_id
 _symmetry_equiv_pos_as_xyz
  1  'x, y, z'
loop_
 _atom_site_type_symbol
 _atom_site_label
 _atom_site_symmetry_multiplicity
 _atom_site_fract_x
 _atom_site_fract_y
 _atom_site_fract_z
 _atom_site_occupancy
  Lu  Lu0  1  0.00000000  0.00000000  0.99930648  1
  Ta  Ta0  1  0.00000000  0.50000000  0.75159340  1
  Ta  Ta1  1  0.50000000  0.50000000  0.75153257  1
  Ta  Ta2  1  0.50000000  0.00000000  0.75153257  1
  Ta  Ta3  1  0.00000000  0.50000000  0.24896761  1
  Nb  Nb0  1  0.50000000  0.50000000  0.24894550  1
  Nb  Nb1  1  0.50000000  0.00000000  0.24894550  1
  Sn  Sn0  1  0.66782358  0.33391129  0.50060044  1
  Sn  Sn1  1  0.33217642  0.66608871  0.50060044  1
  Sn  Sn2  1  0.66704561  0.33352230  0.99986502  1
  Sn  Sn3  1  0.33295439  0.66647770  0.99986502  1
  Sn  Sn4  1  0.00000000  0.00000000  0.67481503  1
  Sn  Sn5  1  0.00000000  0.00000000  0.32342942  1
loop_
_geom_bond_atom_site_label_1
_geom_bond_atom_site_label_2
_geom_bond_distance
_geom_bond_site_symmetry_2
Lu0 Sn5 3.110337 1_556
Lu0 Sn4 3.113873 1_555
Lu0 Sn3 3.319886 1_545
Lu0 Sn2 3.319886 1_455
Lu0 Sn3 3.319890 1_555
Lu0 Sn2 3.319890 1_445
Lu0 Sn2 3.321439 1_555
Lu0 Sn3 3.321439 1_445
Ta0 Ta2 2.875182 1_455
Ta0 Ta2 2.875182 1_565
Ta0 Ta1 2.875182 1_555
Ta0 Ta1 2.875182 1_455
Ta1 Ta2 2.876289 1_555
Ta1 Ta2 2.876289 1_565
Nb0 Ta3 2.875182 1_655
Nb0 Ta3 2.875182 1_555
Nb0 Nb1 2.876289 1_565
Nb0 Nb1 2.876289 1_555
Nb0 Sn3 2.910885 1_554
Nb0 Sn2 2.910885 1_554
Nb0 Sn0 2.932307 1_555
Nb0 Sn1 2.932307 1_555
Nb0 Sn5 2.962694 1_665
Nb0 Sn5 2.962694 1_555
Nb1 Ta3 2.875182 1_655
Nb1 Ta3 2.875182 1_545
Nb1 Sn2 2.910882 1_554
Nb1 Sn3 2.910882 1_544
Nb1 Sn0 2.932304 1_555
Nb1 Sn1 2.932304 1_545
Nb1 Sn5 2.962694 1_555
Nb1 Sn5 2.962694 1_655
Sn0 Ta0 2.921809 1_655
Sn0 Ta2 2.926594 1_555
Sn0 Ta1 2.926597 1_555
Sn0 Ta3 2.926873 1_655
Sn0 Sn1 3.308027 1_655
Sn0 Sn1 3.326595 1_545
Sn0 Sn1 3.326605 1_555
Sn1 Ta0 2.921809 1_555
Sn1 Ta2 2.926594 1_565
Sn1 Ta1 2.926597 1_555
Sn1 Ta3 2.926873 1_555
Sn2 Ta0 2.902530 1_655
Sn2 Ta2 2.904991 1_555
Sn2 Ta1 2.904994 1_555
Sn2 Ta3 2.909079 1_656
Sn2 Sn3 3.315774 1_655
Sn2 Sn3 3.322709 1_545
Sn2 Sn3 3.322719 1_555
Sn3 Ta0 2.902530 1_555
Sn3 Ta2 2.904991 1_565
Sn3 Ta1 2.904994 1_555
Sn3 Ta3 2.909079 1_556
Sn4 Ta1 2.967937 1_555
Sn4 Ta1 2.967937 1_445
Sn4 Ta2 2.967938 1_555
Sn4 Ta2 2.967938 1_455
Sn4 Ta0 2.969155 1_555
Sn4 Ta0 2.969155 1_545
Sn4 Sn5 3.371954 1_555
Sn5 Ta3 2.963717 1_555
Sn5 Ta3 2.963717 1_545
