# generated using pymatgen
data_CaScIO6
_symmetry_space_group_name_H-M   'P 1'
_cell_length_a   5.30549341
_cell_length_b   5.30549180
_cell_length_c   4.93142491
_cell_angle_alpha   90.00000000
_cell_angle_beta   90.00000000
_cell_angle_gamma   119.99999178
_symmetry_Int_Tables_number   1
_chemical_formula_structural   CaScIO6
_chemical_formula_sum   'Ca1 Sc1 I1 O6'
_cell_volume   120.21385345
_cell_formula_units_Z   1
loop_
 _symmetry_equiv_pos_site_id
 _symmetry_equiv_pos_as_xyz
  1  'x, y, z'
loop_
 _atom_site_type_symbol
 _atom_site_label
 _atom_site_symmetry_multiplicity
 _atom_site_fract_x
 _atom_site_fract_y
 _atom_site_fract_z
 _atom_site_occupancy
  Ca  Ca0  1  0.66666700  0.33333300  0.00000000  1
  Sc  Sc0  1  0.33333300  0.66666600  0.50000000  1
  I  I0  1  0.00000000  0.00000000  0.50000000  1
  O  O0  1  0.01732153  0.30108507  0.28577284  1
  O  O1  1  0.69891393  0.71623646  0.28577284  1
  O  O2  1  0.28376354  0.98267747  0.28577284  1
  O  O3  1  0.28376254  0.30108507  0.71422716  1
  O  O4  1  0.01732153  0.71623646  0.71422716  1
  O  O5  1  0.69891493  0.98267747  0.71422716  1
loop_
_geom_bond_atom_site_label_1
_geom_bond_atom_site_label_2
_geom_bond_distance
_geom_bond_site_symmetry_2
Ca0 O0 2.407213 1_655
Ca0 O4 2.407215 1_654
Ca0 O5 2.407217 1_544
Ca0 O2 2.407217 1_545
Ca0 O1 2.407219 1_555
Ca0 O3 2.407222 1_554
I0 O3 1.878674 1_555
I0 O5 1.878674 1_445
I0 O0 1.878676 1_555
I0 O4 1.878676 1_545
I0 O2 1.878678 1_545
I0 O1 1.878678 1_445
O0 Sc0 2.106453 1_555
O1 Sc0 2.106452 1_555
O2 Sc0 2.106453 1_555
O3 Sc0 2.106451 1_555
O4 Sc0 2.106456 1_555
O5 Sc0 2.106456 1_555
