# generated using pymatgen
data_K4Ge2PbSe6
_symmetry_space_group_name_H-M   'P 1'
_cell_length_a   7.45911380
_cell_length_b   7.45911417
_cell_length_c   8.65747098
_cell_angle_alpha   81.68600754
_cell_angle_beta   81.68600714
_cell_angle_gamma   119.76992693
_symmetry_Int_Tables_number   1
_chemical_formula_structural   K4Ge2PbSe6
_chemical_formula_sum   'K4 Ge2 Pb1 Se6'
_cell_volume   400.37762959
_cell_formula_units_Z   1
loop_
 _symmetry_equiv_pos_site_id
 _symmetry_equiv_pos_as_xyz
  1  'x, y, z'
loop_
 _atom_site_type_symbol
 _atom_site_label
 _atom_site_symmetry_multiplicity
 _atom_site_fract_x
 _atom_site_fract_y
 _atom_site_fract_z
 _atom_site_occupancy
  K  K0  1  0.50714658  0.49285342  0.00000000  1
  K  K1  1  0.81889664  0.18110336  1.00000000  1
  K  K2  1  0.17566113  0.82433887  0.00000000  1
  K  K3  1  0.66576441  0.33423559  0.50000000  1
  Ge  Ge0  1  0.04742646  0.04899738  0.35275246  1
  Ge  Ge1  1  0.95100262  0.95257354  0.64724754  1
  Pb  Pb0  1  0.33493219  0.66506781  0.50000000  1
  Se  Se0  1  0.76628591  0.78748225  0.26388624  1
  Se  Se1  1  0.21251775  0.23371409  0.73611376  1
  Se  Se2  1  0.09862897  0.39252493  0.26755451  1
  Se  Se3  1  0.37059887  0.05633759  0.27125473  1
  Se  Se4  1  0.94366241  0.62940113  0.72874527  1
  Se  Se5  1  0.60747507  0.90137103  0.73244549  1
loop_
_geom_bond_atom_site_label_1
_geom_bond_atom_site_label_2
_geom_bond_distance
_geom_bond_site_symmetry_2
K0 Se2 3.225483 1_555
K0 Se5 3.225484 1_554
K0 Se4 3.310240 1_554
K0 Se3 3.310240 1_555
K0 Se1 3.506573 1_554
K0 Se0 3.506573 1_555
K1 Se1 3.263515 1_655
K1 Se0 3.263515 1_546
K1 Se2 3.375304 1_656
K1 Se5 3.375304 1_545
K1 Se3 3.401374 1_556
K1 Se4 3.401375 1_555
K2 Se4 3.207470 1_454
K2 Se3 3.207470 1_565
K2 Se0 3.403895 1_455
K2 Se1 3.403895 1_564
K2 Se5 3.419026 1_554
K2 Se2 3.419026 1_555
K3 Se3 3.313916 1_555
K3 Se4 3.313916 1_555
K3 Se2 3.337311 1_655
K3 Se5 3.337312 1_545
K3 Se1 3.348363 1_555
K3 Se0 3.348363 1_555
Ge0 Se0 2.373414 1_445
Ge0 Se2 2.378230 1_555
Ge0 Se3 2.382773 1_555
Ge1 Se1 2.373414 1_665
Ge1 Se5 2.378230 1_555
Ge1 Se4 2.382773 1_555
Pb0 Se4 3.148889 1_455
Pb0 Se3 3.148889 1_565
Pb0 Se5 3.152762 1_555
Pb0 Se2 3.152762 1_555
Pb0 Se0 3.163130 1_555
Pb0 Se1 3.163130 1_555
