# generated using pymatgen
data_Cd4FeIr3O14
_symmetry_space_group_name_H-M   'P 1'
_cell_length_a   7.16751545
_cell_length_b   7.16751524
_cell_length_c   7.10938576
_cell_angle_alpha   59.72915787
_cell_angle_beta   59.72915800
_cell_angle_gamma   59.99999824
_symmetry_Int_Tables_number   1
_chemical_formula_structural   Cd4FeIr3O14
_chemical_formula_sum   'Cd4 Fe1 Ir3 O14'
_cell_volume   257.19602404
_cell_formula_units_Z   1
loop_
 _symmetry_equiv_pos_site_id
 _symmetry_equiv_pos_as_xyz
  1  'x, y, z'
loop_
 _atom_site_type_symbol
 _atom_site_label
 _atom_site_symmetry_multiplicity
 _atom_site_fract_x
 _atom_site_fract_y
 _atom_site_fract_z
 _atom_site_occupancy
  Cd  Cd0  1  0.12500000  0.12500000  0.12500000  1
  Cd  Cd1  1  0.62500000  0.12500000  0.12500000  1
  Cd  Cd2  1  0.12500000  0.62500000  0.12500000  1
  Cd  Cd3  1  0.12500000  0.12500000  0.62500000  1
  Fe  Fe0  1  0.62500000  0.62500000  0.12500000  1
  Ir  Ir0  1  0.62500000  0.62500000  0.62500000  1
  Ir  Ir1  1  0.12500000  0.62500000  0.62500000  1
  Ir  Ir2  1  0.62500000  0.12500000  0.62500000  1
  O  O0  1  0.25130668  0.25130668  0.24608097  1
  O  O1  1  0.99869332  0.99869332  0.00391903  1
  O  O2  1  0.55024837  0.95483179  0.54008805  1
  O  O3  1  0.31106476  0.69214787  0.30463951  1
  O  O4  1  0.55785213  0.55785213  0.94536049  1
  O  O5  1  0.95483179  0.55024837  0.54008805  1
  O  O6  1  0.55785213  0.93893524  0.94536049  1
  O  O7  1  0.95483179  0.95483179  0.54008805  1
  O  O8  1  0.93893524  0.55785213  0.94536049  1
  O  O9  1  0.69214787  0.31106476  0.30463951  1
  O  O10  1  0.29516821  0.69975163  0.70991195  1
  O  O11  1  0.69975163  0.29516821  0.70991195  1
  O  O12  1  0.29516821  0.29516821  0.70991195  1
  O  O13  1  0.69214787  0.69214787  0.30463951  1
loop_
_geom_bond_atom_site_label_1
_geom_bond_atom_site_label_2
_geom_bond_distance
_geom_bond_site_symmetry_2
Cd0 O0 2.184277 1_555
Cd0 O1 2.184277 1_445
Cd0 O12 2.431857 1_554
Cd0 O7 2.431857 1_445
Cd0 O8 2.572916 1_454
Cd0 O3 2.572916 1_545
Cd0 O6 2.572917 1_544
Cd0 O9 2.572917 1_455
Cd1 O1 2.184271 1_545
Cd1 O0 2.184271 1_555
Cd1 O2 2.431857 1_545
Cd1 O11 2.431857 1_554
Cd1 O9 2.572916 1_555
Cd1 O6 2.572916 1_544
Cd1 O4 2.572917 1_554
Cd1 O13 2.572917 1_545
Cd2 O1 2.184271 1_455
Cd2 O0 2.184271 1_555
Cd2 O5 2.431857 1_455
Cd2 O10 2.431857 1_554
Cd2 O3 2.572916 1_555
Cd2 O8 2.572916 1_454
Cd2 O4 2.572917 1_554
Cd2 O13 2.572917 1_455
Cd3 O1 2.190498 1_446
Cd3 O0 2.190498 1_555
Cd3 O5 2.512353 1_455
Cd3 O10 2.512353 1_545
Cd3 O12 2.512353 1_555
Cd3 O7 2.512353 1_445
Cd3 O2 2.512353 1_545
Cd3 O11 2.512353 1_455
Fe0 O13 1.888207 1_555
Fe0 O4 1.888207 1_554
Fe0 O6 1.888207 1_554
Fe0 O9 1.888207 1_555
Fe0 O8 1.888207 1_554
Fe0 O3 1.888207 1_555
Ir0 O4 1.916240 1_555
Ir0 O13 1.916240 1_555
Ir0 O2 1.964940 1_555
Ir0 O11 1.964940 1_555
Ir0 O5 1.964940 1_555
Ir0 O10 1.964940 1_555
Ir1 O8 1.916240 1_455
Ir1 O3 1.916240 1_555
Ir1 O7 1.964940 1_455
Ir1 O12 1.964940 1_555
Ir1 O10 1.964940 1_555
Ir1 O5 1.964940 1_455
Ir2 O6 1.916240 1_545
Ir2 O9 1.916240 1_555
Ir2 O11 1.964940 1_555
Ir2 O2 1.964940 1_545
Ir2 O7 1.964940 1_545
Ir2 O12 1.964940 1_555
