# generated using pymatgen
data_K3Rb6GaSb4
_symmetry_space_group_name_H-M   'P 1'
_cell_length_a   10.77808015
_cell_length_b   10.77808096
_cell_length_c   11.26870800
_cell_angle_alpha   90.00000000
_cell_angle_beta   90.00000000
_cell_angle_gamma   119.99999752
_symmetry_Int_Tables_number   1
_chemical_formula_structural   K3Rb6GaSb4
_chemical_formula_sum   'K6 Rb12 Ga2 Sb8'
_cell_volume   1133.67251756
_cell_formula_units_Z   2
loop_
 _symmetry_equiv_pos_site_id
 _symmetry_equiv_pos_as_xyz
  1  'x, y, z'
loop_
 _atom_site_type_symbol
 _atom_site_label
 _atom_site_symmetry_multiplicity
 _atom_site_fract_x
 _atom_site_fract_y
 _atom_site_fract_z
 _atom_site_occupancy
  K  K0  1  0.23743340  0.11871670  0.75000000  1
  K  K1  1  0.88128330  0.11871670  0.75000000  1
  K  K2  1  0.76256660  0.88128330  0.25000000  1
  K  K3  1  0.11871670  0.23743340  0.25000000  1
  K  K4  1  0.11871670  0.88128330  0.25000000  1
  K  K5  1  0.88128330  0.76256660  0.75000000  1
  Rb  Rb0  1  0.20863491  0.79136509  0.95924265  1
  Rb  Rb1  1  0.20863491  0.41726882  0.95924265  1
  Rb  Rb2  1  0.58273118  0.79136509  0.95924265  1
  Rb  Rb3  1  0.41726882  0.20863491  0.45924265  1
  Rb  Rb4  1  0.79136509  0.58273118  0.04075735  1
  Rb  Rb5  1  0.79136509  0.20863491  0.45924265  1
  Rb  Rb6  1  0.79136509  0.58273118  0.45924265  1
  Rb  Rb7  1  0.20863491  0.79136509  0.54075735  1
  Rb  Rb8  1  0.58273118  0.79136509  0.54075735  1
  Rb  Rb9  1  0.41726882  0.20863491  0.04075735  1
  Rb  Rb10  1  0.79136509  0.20863491  0.04075735  1
  Rb  Rb11  1  0.20863491  0.41726882  0.54075735  1
  Ga  Ga0  1  0.33333300  0.66666700  0.25000000  1
  Ga  Ga1  1  0.66666700  0.33333300  0.75000000  1
  Sb  Sb0  1  0.00000000  0.00000000  0.00000000  1
  Sb  Sb1  1  0.04772799  0.52386350  0.25000000  1
  Sb  Sb2  1  0.47613650  0.95227201  0.25000000  1
  Sb  Sb3  1  0.52386350  0.04772799  0.75000000  1
  Sb  Sb4  1  0.52386350  0.47613650  0.75000000  1
  Sb  Sb5  1  0.00000000  0.00000000  0.50000000  1
  Sb  Sb6  1  0.47613650  0.52386350  0.25000000  1
  Sb  Sb7  1  0.95227201  0.47613650  0.75000000  1
loop_
_geom_bond_atom_site_label_1
_geom_bond_atom_site_label_2
_geom_bond_distance
_geom_bond_site_symmetry_2
K0 Sb3 3.532431 1_555
K0 Sb4 3.532438 1_555
K0 Sb0 3.584430 1_556
K0 Sb5 3.584430 1_555
K1 Sb3 3.532441 1_555
K1 Sb7 3.532442 1_555
K1 Sb5 3.584430 1_655
K1 Sb0 3.584430 1_656
K2 Sb2 3.532431 1_555
K2 Sb6 3.532438 1_555
K2 Sb5 3.584430 1_665
K2 Sb0 3.584430 1_665
K3 Sb1 3.532431 1_555
K3 Sb6 3.532438 1_555
K3 Sb0 3.584430 1_555
K3 Sb5 3.584430 1_555
K4 Sb2 3.532441 1_555
K4 Sb1 3.532442 1_555
K4 Sb5 3.584430 1_565
K4 Sb0 3.584430 1_565
K5 Sb7 3.532431 1_555
K5 Sb4 3.532438 1_555
K5 Sb0 3.584430 1_666
K5 Sb5 3.584430 1_665
Rb0 Sb3 3.917908 1_565
Rb0 Sb7 3.917908 1_455
Rb0 Sb0 3.921821 1_566
Rb0 Sb2 4.129805 1_556
Rb0 Sb1 4.129805 1_556
Rb1 Sb4 3.917902 1_555
Rb1 Sb7 3.917919 1_455
Rb1 Sb0 3.921812 1_556
Rb1 Sb1 4.129805 1_556
Rb1 Sb6 4.129805 1_556
Rb2 Sb4 3.917902 1_555
Rb2 Sb3 3.917919 1_565
Rb2 Sb0 3.921811 1_666
Rb2 Sb2 4.129805 1_556
Rb2 Sb6 4.129805 1_556
Rb3 Sb6 3.917902 1_555
Rb3 Sb2 3.917919 1_545
Rb3 Sb5 3.921811 1_555
Rb3 Sb3 4.129805 1_555
Rb3 Sb4 4.129805 1_555
Rb4 Sb6 3.917902 1_555
Rb4 Sb1 3.917919 1_655
Rb4 Sb0 3.921812 1_665
Rb4 Sb7 4.129805 1_554
Rb4 Sb4 4.129805 1_554
Rb5 Sb2 3.917908 1_545
Rb5 Sb1 3.917908 1_655
Rb5 Sb5 3.921821 1_655
Rb5 Sb3 4.129805 1_555
Rb5 Sb7 4.129805 1_555
Rb6 Sb6 3.917902 1_555
Rb6 Sb1 3.917919 1_655
Rb6 Sb5 3.921812 1_665
Rb6 Sb7 4.129805 1_555
Rb6 Sb4 4.129805 1_555
Rb7 Sb3 3.917908 1_565
Rb7 Sb7 3.917908 1_455
Rb7 Sb5 3.921821 1_565
Rb7 Sb2 4.129805 1_555
Rb7 Sb1 4.129805 1_555
Rb8 Sb4 3.917902 1_555
Rb8 Sb3 3.917919 1_565
Rb8 Sb5 3.921811 1_665
Rb8 Sb2 4.129805 1_555
Rb8 Sb6 4.129805 1_555
Rb9 Sb6 3.917902 1_555
Rb9 Sb2 3.917919 1_545
Rb9 Sb0 3.921811 1_555
Rb9 Sb3 4.129805 1_554
Rb9 Sb4 4.129805 1_554
Rb10 Sb2 3.917908 1_545
Rb10 Sb1 3.917908 1_655
Rb10 Sb0 3.921821 1_655
Rb10 Sb3 4.129805 1_554
Rb10 Sb7 4.129805 1_554
Rb11 Sb4 3.917902 1_555
Rb11 Sb7 3.917919 1_455
Rb11 Sb5 3.921812 1_555
Rb11 Sb1 4.129805 1_555
Rb11 Sb6 4.129805 1_555
Ga0 Sb1 2.665863 1_555
Ga0 Sb2 2.665863 1_555
Ga0 Sb6 2.665882 1_555
Ga1 Sb7 2.665863 1_555
Ga1 Sb3 2.665863 1_555
Ga1 Sb4 2.665882 1_555
