# generated using pymatgen
data_CoSb12Ru2Pt
_symmetry_space_group_name_H-M   'P 1'
_cell_length_a   8.01981809
_cell_length_b   8.01854780
_cell_length_c   9.28209624
_cell_angle_alpha   54.78393719
_cell_angle_beta   54.89504497
_cell_angle_gamma   70.65316590
_symmetry_Int_Tables_number   1
_chemical_formula_structural   CoSb12Ru2Pt
_chemical_formula_sum   'Co1 Sb12 Ru2 Pt1'
_cell_volume   398.95673170
_cell_formula_units_Z   1
loop_
 _symmetry_equiv_pos_site_id
 _symmetry_equiv_pos_as_xyz
  1  'x, y, z'
loop_
 _atom_site_type_symbol
 _atom_site_label
 _atom_site_symmetry_multiplicity
 _atom_site_fract_x
 _atom_site_fract_y
 _atom_site_fract_z
 _atom_site_occupancy
  Co  Co0  1  0.50000000  0.00000000  0.50000000  1
  Sb  Sb0  1  0.15497217  0.15553789  0.18161474  1
  Sb  Sb1  1  0.84502783  0.84446211  0.81838526  1
  Sb  Sb2  1  0.83415588  0.85292405  0.49623521  1
  Sb  Sb3  1  0.16584412  0.14707595  0.50376479  1
  Sb  Sb4  1  0.80912426  0.50220879  0.34011202  1
  Sb  Sb5  1  0.19087574  0.49779121  0.65988798  1
  Sb  Sb6  1  0.50774350  0.82335255  0.33880149  1
  Sb  Sb7  1  0.49225650  0.17664745  0.66119851  1
  Sb  Sb8  1  0.65155932  0.33930532  0.85156175  1
  Sb  Sb9  1  0.34844068  0.66069468  0.14843825  1
  Sb  Sb10  1  0.66205328  0.32870152  0.16220489  1
  Sb  Sb11  1  0.33794672  0.67129848  0.83779511  1
  Ru  Ru0  1  0.00000000  0.50000000  0.00000000  1
  Ru  Ru1  1  0.50000000  0.00000000  0.00000000  1
  Pt  Pt0  1  0.00000000  0.50000000  0.50000000  1
loop_
_geom_bond_atom_site_label_1
_geom_bond_atom_site_label_2
_geom_bond_distance
_geom_bond_site_symmetry_2
Co0 Sb2 2.533681 1_545
Co0 Sb3 2.533681 1_555
Co0 Sb10 2.553165 1_555
Co0 Sb11 2.553165 1_545
Co0 Sb7 2.555031 1_555
Co0 Sb6 2.555031 1_545
Sb0 Sb2 2.891027 1_445
Sb0 Sb3 3.002601 1_555
Sb1 Sb3 2.891027 1_665
Sb1 Sb2 3.002601 1_555
Ru0 Sb0 2.603976 1_555
Ru0 Sb1 2.603976 1_454
Ru0 Sb4 2.607344 1_455
Ru0 Sb5 2.607344 1_554
Ru0 Sb11 2.624357 1_554
Ru0 Sb10 2.624357 1_455
Ru1 Sb8 2.592236 1_554
Ru1 Sb9 2.592236 1_545
Ru1 Sb1 2.612881 1_544
Ru1 Sb0 2.612881 1_555
Ru1 Sb6 2.632263 1_545
Ru1 Sb7 2.632263 1_554
Pt0 Sb5 2.666617 1_555
Pt0 Sb4 2.666617 1_455
Pt0 Sb8 2.676941 1_455
Pt0 Sb9 2.676941 1_555
Pt0 Sb2 2.687807 1_455
Pt0 Sb3 2.687807 1_555
