# generated using pymatgen
data_V3CrGaTe8
_symmetry_space_group_name_H-M   'P 1'
_cell_length_a   7.95322160
_cell_length_b   7.95322159
_cell_length_c   7.95322194
_cell_angle_alpha   59.29814963
_cell_angle_beta   59.29815007
_cell_angle_gamma   59.29815882
_symmetry_Int_Tables_number   1
_chemical_formula_structural   V3CrGaTe8
_chemical_formula_sum   'V3 Cr1 Ga1 Te8'
_cell_volume   350.03995853
_cell_formula_units_Z   1
loop_
 _symmetry_equiv_pos_site_id
 _symmetry_equiv_pos_as_xyz
  1  'x, y, z'
loop_
 _atom_site_type_symbol
 _atom_site_label
 _atom_site_symmetry_multiplicity
 _atom_site_fract_x
 _atom_site_fract_y
 _atom_site_fract_z
 _atom_site_occupancy
  V  V0  1  0.60401923  0.17571109  0.60401923  1
  V  V1  1  0.17571109  0.60401923  0.60401923  1
  V  V2  1  0.60401923  0.60401923  0.17571109  1
  Cr  Cr0  1  0.61979617  0.61979617  0.61979617  1
  Ga  Ga0  1  0.99606233  0.99606233  0.99606233  1
  Te  Te0  1  0.36810274  0.36810274  0.36810274  1
  Te  Te1  1  0.37739793  0.87709960  0.37739793  1
  Te  Te2  1  0.87709960  0.37739793  0.37739793  1
  Te  Te3  1  0.37739793  0.37739793  0.87709960  1
  Te  Te4  1  0.86040633  0.86040633  0.86040633  1
  Te  Te5  1  0.86744309  0.40510323  0.86744309  1
  Te  Te6  1  0.40510323  0.86744309  0.86744309  1
  Te  Te7  1  0.86744309  0.86744309  0.40510323  1
loop_
_geom_bond_atom_site_label_1
_geom_bond_atom_site_label_2
_geom_bond_distance
_geom_bond_site_symmetry_2
Cr0 Te3 2.712748 1_555
Cr0 Te1 2.712748 1_555
Cr0 Te2 2.712748 1_555
Cr0 Te7 2.786948 1_555
Cr0 Te5 2.786949 1_555
Cr0 Te6 2.786949 1_555
Ga0 Te7 2.635954 1_556
Ga0 Te5 2.635954 1_565
Ga0 Te6 2.635954 1_655
Ga0 Te4 2.656691 1_555
Te0 V2 2.667178 1_555
Te0 V0 2.667178 1_555
Te0 V1 2.667178 1_555
Te1 V1 2.673297 1_555
Te1 V2 2.673298 1_555
Te2 V0 2.673297 1_555
Te2 V2 2.673298 1_555
Te3 V1 2.673298 1_555
Te3 V0 2.673298 1_555
Te4 V2 2.899509 1_556
Te4 V0 2.899509 1_565
Te4 V1 2.899509 1_655
Te5 V1 2.869512 1_655
Te5 V2 2.869513 1_556
Te6 V0 2.869512 1_565
Te6 V2 2.869513 1_556
Te7 V1 2.869513 1_655
Te7 V0 2.869513 1_565
