# generated using pymatgen
data_Hf3TiMn2
_symmetry_space_group_name_H-M   'P 1'
_cell_length_a   8.47536902
_cell_length_b   8.47536843
_cell_length_c   8.47536850
_cell_angle_alpha   59.99999972
_cell_angle_beta   60.00000201
_cell_angle_gamma   60.00000141
_symmetry_Int_Tables_number   1
_chemical_formula_structural   Hf3TiMn2
_chemical_formula_sum   'Hf12 Ti4 Mn8'
_cell_volume   430.48775761
_cell_formula_units_Z   4
loop_
 _symmetry_equiv_pos_site_id
 _symmetry_equiv_pos_as_xyz
  1  'x, y, z'
loop_
 _atom_site_type_symbol
 _atom_site_label
 _atom_site_symmetry_multiplicity
 _atom_site_fract_x
 _atom_site_fract_y
 _atom_site_fract_z
 _atom_site_occupancy
  Hf  Hf0  1  0.43327639  0.81672361  0.81672361  1
  Hf  Hf1  1  0.81672361  0.43327639  0.43327639  1
  Hf  Hf2  1  0.81672361  0.43327639  0.81672361  1
  Hf  Hf3  1  0.43327639  0.81672361  0.43327639  1
  Hf  Hf4  1  0.81672361  0.81672361  0.43327639  1
  Hf  Hf5  1  0.43327639  0.43327639  0.81672361  1
  Hf  Hf6  1  0.56672361  0.18327639  0.18327639  1
  Hf  Hf7  1  0.18327639  0.56672361  0.56672361  1
  Hf  Hf8  1  0.18327639  0.56672361  0.18327639  1
  Hf  Hf9  1  0.56672361  0.18327639  0.56672361  1
  Hf  Hf10  1  0.18327639  0.18327639  0.56672361  1
  Hf  Hf11  1  0.56672361  0.56672361  0.18327639  1
  Ti  Ti0  1  0.00000000  0.00000000  0.50000000  1
  Ti  Ti1  1  0.00000000  0.50000000  0.00000000  1
  Ti  Ti2  1  0.50000000  0.00000000  0.00000000  1
  Ti  Ti3  1  0.00000000  0.00000000  0.00000000  1
  Mn  Mn0  1  0.20887595  0.20887595  0.87337115  1
  Mn  Mn1  1  0.20887595  0.87337115  0.20887595  1
  Mn  Mn2  1  0.87337115  0.20887595  0.20887595  1
  Mn  Mn3  1  0.20887595  0.20887595  0.20887595  1
  Mn  Mn4  1  0.79112405  0.79112405  0.12662885  1
  Mn  Mn5  1  0.79112405  0.12662885  0.79112405  1
  Mn  Mn6  1  0.12662885  0.79112405  0.79112405  1
  Mn  Mn7  1  0.79112405  0.79112405  0.79112405  1
loop_
_geom_bond_atom_site_label_1
_geom_bond_atom_site_label_2
_geom_bond_distance
_geom_bond_site_symmetry_2
Hf0 Mn6 2.832585 1_555
Hf0 Mn7 2.832593 1_555
Hf0 Mn0 3.042309 1_565
Hf0 Mn1 3.042310 1_556
Hf0 Ti2 3.052080 1_566
Hf0 Ti3 3.052080 1_566
Hf0 Hf9 3.155121 1_565
Hf0 Hf11 3.155121 1_556
Hf0 Hf10 3.155121 1_565
Hf0 Hf8 3.155121 1_556
Hf0 Hf5 3.249856 1_555
Hf0 Hf3 3.249857 1_555
Hf0 Hf2 3.249857 1_555
Hf0 Hf4 3.249857 1_555
Hf1 Mn4 2.832589 1_555
Hf1 Mn5 2.832589 1_555
Hf1 Mn3 3.042313 1_655
Hf1 Mn2 3.042317 1_555
Hf1 Ti0 3.052080 1_655
Hf1 Ti1 3.052080 1_655
Hf1 Hf11 3.155121 1_555
Hf1 Hf9 3.155121 1_555
Hf1 Hf10 3.155121 1_655
Hf1 Hf8 3.155121 1_655
Hf1 Hf4 3.249856 1_555
Hf1 Hf2 3.249857 1_555
Hf1 Hf3 3.249857 1_555
Hf1 Hf5 3.249857 1_555
Hf2 Mn5 2.832584 1_555
Hf2 Mn7 2.832593 1_555
Hf2 Mn2 3.042309 1_556
Hf2 Mn0 3.042310 1_655
Hf2 Ti3 3.052080 1_656
Hf2 Ti1 3.052080 1_656
Hf2 Hf6 3.155121 1_556
Hf2 Hf7 3.155121 1_655
Hf2 Hf4 3.249856 1_555
Hf2 Hf5 3.249857 1_555
Hf3 Mn6 2.832589 1_555
Hf3 Mn4 2.832589 1_555
Hf3 Mn3 3.042313 1_565
Hf3 Mn1 3.042317 1_555
Hf3 Ti2 3.052080 1_565
Hf3 Ti0 3.052080 1_565
Hf3 Hf6 3.155121 1_565
Hf3 Hf7 3.155121 1_555
Hf3 Hf5 3.249856 1_555
Hf3 Hf4 3.249857 1_555
Hf4 Mn4 2.832584 1_555
Hf4 Mn7 2.832593 1_555
Hf4 Mn2 3.042309 1_565
Hf4 Mn1 3.042310 1_655
Hf4 Ti3 3.052080 1_665
Hf4 Ti0 3.052080 1_665
Hf4 Hf9 3.155121 1_565
Hf4 Hf6 3.155121 1_565
Hf4 Hf7 3.155121 1_655
Hf4 Hf8 3.155121 1_655
Hf5 Mn6 2.832589 1_555
Hf5 Mn5 2.832589 1_555
Hf5 Mn3 3.042313 1_556
Hf5 Mn0 3.042317 1_555
Hf5 Ti2 3.052080 1_556
Hf5 Ti1 3.052080 1_556
Hf5 Hf9 3.155121 1_555
Hf5 Hf6 3.155121 1_556
Hf5 Hf7 3.155121 1_555
Hf5 Hf8 3.155121 1_556
Hf6 Mn2 2.832585 1_555
Hf6 Mn3 2.832593 1_555
Hf6 Mn4 3.042309 1_545
Hf6 Mn5 3.042310 1_554
Hf6 Ti2 3.052080 1_555
Hf6 Ti3 3.052080 1_655
Hf6 Hf9 3.249857 1_555
Hf6 Hf8 3.249857 1_555
Hf7 Mn0 2.832589 1_555
Hf7 Mn1 2.832589 1_555
Hf7 Mn7 3.042313 1_455
Hf7 Mn6 3.042317 1_555
Hf7 Ti0 3.052080 1_565
Hf7 Ti1 3.052080 1_556
Hf7 Hf8 3.249857 1_555
Hf7 Hf9 3.249857 1_555
Hf8 Mn1 2.832584 1_555
Hf8 Mn3 2.832593 1_555
Hf8 Mn6 3.042309 1_554
Hf8 Mn4 3.042310 1_455
Hf8 Ti3 3.052080 1_565
Hf8 Ti1 3.052080 1_555
Hf9 Mn2 2.832589 1_555
Hf9 Mn0 2.832589 1_555
Hf9 Mn7 3.042313 1_545
Hf9 Mn5 3.042317 1_555
Hf9 Ti2 3.052080 1_556
Hf9 Ti0 3.052080 1_655
Hf10 Mn0 2.832584 1_555
Hf10 Mn3 2.832593 1_555
Hf10 Mn6 3.042309 1_545
Hf10 Mn5 3.042310 1_455
Hf10 Ti0 3.052080 1_555
Hf10 Ti3 3.052080 1_556
Hf10 Hf3 3.155121 1_545
Hf10 Hf2 3.155121 1_455
Hf10 Hf8 3.249856 1_555
Hf10 Hf7 3.249856 1_555
Hf10 Hf6 3.249857 1_555
Hf10 Hf9 3.249857 1_555
Hf11 Mn2 2.832589 1_555
Hf11 Mn1 2.832589 1_555
Hf11 Mn7 3.042313 1_554
Hf11 Mn4 3.042317 1_555
Hf11 Ti2 3.052080 1_565
Hf11 Ti1 3.052080 1_655
Hf11 Hf3 3.155121 1_555
Hf11 Hf2 3.155121 1_554
Hf11 Hf9 3.249856 1_555
Hf11 Hf6 3.249856 1_555
Hf11 Hf7 3.249857 1_555
Hf11 Hf8 3.249857 1_555
Mn0 Ti3 2.598815 1_556
Mn0 Ti1 2.598822 1_556
Mn0 Ti2 2.598822 1_556
Mn0 Mn1 2.843527 1_546
Mn0 Mn3 2.843527 1_556
Mn0 Mn2 2.843527 1_456
Mn1 Ti3 2.598815 1_565
Mn1 Ti0 2.598822 1_565
Mn1 Ti2 2.598822 1_565
Mn1 Mn3 2.843527 1_565
Mn1 Mn2 2.843527 1_465
Mn2 Ti3 2.598815 1_655
Mn2 Ti1 2.598822 1_655
Mn2 Ti0 2.598822 1_655
Mn2 Mn3 2.843527 1_655
Mn3 Ti1 2.598818 1_555
Mn3 Ti0 2.598818 1_555
Mn3 Ti2 2.598818 1_555
Mn4 Ti3 2.598815 1_665
Mn4 Ti1 2.598822 1_655
Mn4 Ti2 2.598822 1_565
Mn4 Mn5 2.843527 1_564
Mn4 Mn7 2.843527 1_554
Mn4 Mn6 2.843527 1_654
Mn5 Ti3 2.598815 1_656
Mn5 Ti0 2.598822 1_655
Mn5 Ti2 2.598822 1_556
Mn5 Mn7 2.843527 1_545
Mn5 Mn6 2.843527 1_645
Mn6 Ti3 2.598815 1_566
Mn6 Ti1 2.598822 1_556
Mn6 Ti0 2.598822 1_565
Mn6 Mn7 2.843527 1_455
Mn7 Ti1 2.598818 1_656
Mn7 Ti0 2.598818 1_665
Mn7 Ti2 2.598818 1_566
