# generated using pymatgen
data_Ba10HgBi6Se
_symmetry_space_group_name_H-M   'P 1'
_cell_length_a   10.36151824
_cell_length_b   10.36151788
_cell_length_c   8.15894677
_cell_angle_alpha   90.00000000
_cell_angle_beta   90.00000000
_cell_angle_gamma   119.99999803
_symmetry_Int_Tables_number   1
_chemical_formula_structural   Ba10HgBi6Se
_chemical_formula_sum   'Ba10 Hg1 Bi6 Se1'
_cell_volume   758.59769149
_cell_formula_units_Z   1
loop_
 _symmetry_equiv_pos_site_id
 _symmetry_equiv_pos_as_xyz
  1  'x, y, z'
loop_
 _atom_site_type_symbol
 _atom_site_label
 _atom_site_symmetry_multiplicity
 _atom_site_fract_x
 _atom_site_fract_y
 _atom_site_fract_z
 _atom_site_occupancy
  Ba  Ba0  1  0.66666700  0.33333300  0.00000000  1
  Ba  Ba1  1  0.33333300  0.66666700  0.00000000  1
  Ba  Ba2  1  0.33333300  0.66666700  0.50000000  1
  Ba  Ba3  1  0.66666700  0.33333300  0.50000000  1
  Ba  Ba4  1  0.73979233  0.73979233  0.77873190  1
  Ba  Ba5  1  0.26020767  0.00000000  0.77873190  1
  Ba  Ba6  1  0.00000000  0.26020767  0.77873190  1
  Ba  Ba7  1  0.26020767  0.26020767  0.22126810  1
  Ba  Ba8  1  0.73979233  1.00000000  0.22126810  1
  Ba  Ba9  1  1.00000000  0.73979233  0.22126810  1
  Hg  Hg0  1  0.00000000  0.00000000  0.50000000  1
  Bi  Bi0  1  0.39026385  0.39026385  0.75210281  1
  Bi  Bi1  1  0.60973615  0.00000000  0.75210281  1
  Bi  Bi2  1  0.00000000  0.60973615  0.75210281  1
  Bi  Bi3  1  0.60973615  0.60973615  0.24789719  1
  Bi  Bi4  1  0.39026385  1.00000000  0.24789719  1
  Bi  Bi5  1  0.00000000  0.39026385  0.24789719  1
  Se  Se0  1  0.00000000  0.00000000  0.00000000  1
loop_
_geom_bond_atom_site_label_1
_geom_bond_atom_site_label_2
_geom_bond_distance
_geom_bond_site_symmetry_2
Ba0 Bi1 3.785551 1_554
Ba0 Bi5 3.785551 1_655
Ba0 Bi4 3.785555 1_545
Ba0 Bi2 3.785555 1_654
Ba0 Bi3 3.785560 1_555
Ba0 Bi0 3.785560 1_554
Ba1 Bi4 3.785551 1_555
Ba1 Bi2 3.785551 1_554
Ba1 Bi1 3.785555 1_564
Ba1 Bi5 3.785555 1_555
Ba1 Bi0 3.785560 1_554
Ba1 Bi3 3.785560 1_555
Ba2 Bi4 3.803995 1_555
Ba2 Bi2 3.803995 1_555
Ba2 Bi1 3.803998 1_565
Ba2 Bi5 3.803998 1_555
Ba2 Bi0 3.804004 1_555
Ba2 Bi3 3.804004 1_555
Ba3 Bi1 3.803995 1_555
Ba3 Bi5 3.803995 1_655
Ba3 Bi4 3.803998 1_545
Ba3 Bi2 3.803998 1_655
Ba3 Bi3 3.804004 1_555
Ba3 Bi0 3.804004 1_555
Ba4 Se0 3.244745 1_666
Ba4 Hg0 3.527181 1_665
Ba4 Bi1 3.572905 1_565
Ba4 Bi2 3.572905 1_655
Ba4 Bi0 3.628157 1_555
Ba4 Bi3 4.058170 1_556
Ba5 Se0 3.244745 1_556
Ba5 Hg0 3.527181 1_555
Ba5 Bi0 3.572905 1_555
Ba5 Bi2 3.572905 1_545
Ba5 Bi1 3.628157 1_555
Ba5 Bi4 4.058170 1_546
Ba6 Se0 3.244744 1_556
Ba6 Hg0 3.527181 1_555
Ba6 Bi0 3.572905 1_555
Ba6 Bi1 3.572905 1_455
Ba6 Bi2 3.628157 1_555
Ba6 Bi5 4.058170 1_556
Ba7 Se0 3.244745 1_555
Ba7 Hg0 3.527181 1_555
Ba7 Bi4 3.572905 1_545
Ba7 Bi5 3.572905 1_555
Ba7 Bi3 3.628157 1_555
Ba7 Bi0 4.058170 1_554
Ba8 Se0 3.244745 1_665
Ba8 Hg0 3.527181 1_665
Ba8 Bi3 3.572905 1_555
Ba8 Bi5 3.572905 1_665
Ba8 Bi4 3.628157 1_555
Ba8 Bi1 4.058170 1_564
Ba9 Se0 3.244744 1_665
Ba9 Hg0 3.527181 1_665
Ba9 Bi3 3.572905 1_555
Ba9 Bi4 3.572905 1_655
Ba9 Bi5 3.628157 1_655
Ba9 Bi2 4.058170 1_654
