# generated using pymatgen
data_V2Ni20SnB6
_symmetry_space_group_name_H-M   'P 1'
_cell_length_a   7.38048686
_cell_length_b   7.38048665
_cell_length_c   7.38048694
_cell_angle_alpha   60.00000309
_cell_angle_beta   60.00000401
_cell_angle_gamma   60.00000175
_symmetry_Int_Tables_number   1
_chemical_formula_structural   V2Ni20SnB6
_chemical_formula_sum   'V2 Ni20 Sn1 B6'
_cell_volume   284.27590967
_cell_formula_units_Z   1
loop_
 _symmetry_equiv_pos_site_id
 _symmetry_equiv_pos_as_xyz
  1  'x, y, z'
loop_
 _atom_site_type_symbol
 _atom_site_label
 _atom_site_symmetry_multiplicity
 _atom_site_fract_x
 _atom_site_fract_y
 _atom_site_fract_z
 _atom_site_occupancy
  V  V0  1  0.00000000  0.00000000  0.00000000  1
  V  V1  1  0.25000000  0.25000000  0.25000000  1
  Ni  Ni0  1  0.61260652  0.61260652  0.16217845  1
  Ni  Ni1  1  0.61260652  0.16217845  0.61260652  1
  Ni  Ni2  1  0.16217845  0.61260652  0.61260652  1
  Ni  Ni3  1  0.61260652  0.61260652  0.61260652  1
  Ni  Ni4  1  0.37929935  0.37929935  0.86210296  1
  Ni  Ni5  1  0.37929935  0.86210296  0.37929935  1
  Ni  Ni6  1  0.86210296  0.37929935  0.37929935  1
  Ni  Ni7  1  0.37929935  0.37929935  0.37929935  1
  Ni  Ni8  1  0.00257618  0.00257618  0.33632173  1
  Ni  Ni9  1  0.65852592  0.00257618  0.33632173  1
  Ni  Ni10  1  0.00257618  0.65852592  0.33632173  1
  Ni  Ni11  1  0.65852592  0.33632173  0.00257618  1
  Ni  Ni12  1  0.00257618  0.33632173  0.00257618  1
  Ni  Ni13  1  0.00257618  0.33632173  0.65852592  1
  Ni  Ni14  1  0.33632173  0.65852592  0.00257618  1
  Ni  Ni15  1  0.33632173  0.00257618  0.65852592  1
  Ni  Ni16  1  0.33632173  0.00257618  0.00257618  1
  Ni  Ni17  1  0.00257618  0.00257618  0.65852592  1
  Ni  Ni18  1  0.00257618  0.65852592  0.00257618  1
  Ni  Ni19  1  0.65852592  0.00257618  0.00257618  1
  Sn  Sn0  1  0.75000000  0.75000000  0.75000000  1
  B  B0  1  0.72980381  0.72980381  0.27019619  1
  B  B1  1  0.27019619  0.72980381  0.27019619  1
  B  B2  1  0.72980381  0.27019619  0.27019619  1
  B  B3  1  0.27019619  0.27019619  0.72980381  1
  B  B4  1  0.72980381  0.27019619  0.72980381  1
  B  B5  1  0.27019619  0.72980381  0.72980381  1
loop_
_geom_bond_atom_site_label_1
_geom_bond_atom_site_label_2
_geom_bond_distance
_geom_bond_site_symmetry_2
Ni0 Sn0 2.483846 1_554
Ni1 Sn0 2.483846 1_545
Ni2 Sn0 2.483846 1_455
Ni3 Sn0 2.483858 1_555
Ni4 V1 2.337523 1_556
Ni5 V1 2.337523 1_565
Ni6 V1 2.337523 1_655
Ni7 V1 2.337529 1_555
Ni8 V0 2.501376 1_555
Ni8 Sn0 2.892015 1_445
Ni9 V0 2.501376 1_655
Ni9 Sn0 2.892015 1_545
Ni10 V0 2.501376 1_565
Ni10 Sn0 2.892015 1_455
Ni11 V0 2.501376 1_655
Ni11 Sn0 2.892015 1_554
Ni12 V0 2.501376 1_555
Ni12 Sn0 2.892015 1_454
Ni13 V0 2.501376 1_556
Ni13 Sn0 2.892015 1_455
Ni14 V0 2.501376 1_565
Ni14 Sn0 2.892015 1_554
Ni15 V0 2.501376 1_556
Ni15 Sn0 2.892015 1_545
Ni16 V0 2.501376 1_555
Ni16 Sn0 2.892015 1_544
Ni17 V0 2.501376 1_556
Ni17 Sn0 2.892015 1_445
Ni18 V0 2.501376 1_565
Ni18 Sn0 2.892015 1_454
Ni19 V0 2.501376 1_655
Ni19 Sn0 2.892015 1_544
B0 Ni9 2.057809 1_565
B0 Ni10 2.057809 1_655
B0 Ni19 2.057809 1_565
B0 Ni18 2.057809 1_655
B0 Ni3 2.063784 1_555
B0 Ni0 2.063796 1_555
B0 Ni6 2.114501 1_555
B0 Ni5 2.114501 1_555
B1 Ni10 2.057809 1_555
B1 Ni14 2.057809 1_555
B1 Ni8 2.057809 1_565
B1 Ni16 2.057809 1_565
B1 Ni0 2.063784 1_555
B1 Ni2 2.063784 1_555
B1 Ni7 2.114501 1_555
B1 Ni5 2.114507 1_555
B2 Ni9 2.057809 1_555
B2 Ni11 2.057809 1_555
B2 Ni8 2.057809 1_655
B2 Ni12 2.057809 1_655
B2 Ni0 2.063784 1_555
B2 Ni1 2.063784 1_555
B2 Ni7 2.114501 1_555
B2 Ni6 2.114507 1_555
B3 Ni15 2.057809 1_555
B3 Ni13 2.057809 1_555
B3 Ni16 2.057809 1_556
B3 Ni12 2.057809 1_556
B3 Ni2 2.063784 1_555
B3 Ni1 2.063784 1_555
B3 Ni7 2.114501 1_555
B3 Ni4 2.114507 1_555
B4 Ni13 2.057809 1_655
B4 Ni11 2.057809 1_556
B4 Ni17 2.057809 1_655
B4 Ni19 2.057809 1_556
B4 Ni3 2.063784 1_555
B4 Ni1 2.063796 1_555
B4 Ni4 2.114501 1_555
B4 Ni6 2.114501 1_555
B5 Ni15 2.057809 1_565
B5 Ni14 2.057809 1_556
B5 Ni17 2.057809 1_565
B5 Ni18 2.057809 1_556
B5 Ni3 2.063784 1_555
B5 Ni2 2.063796 1_555
B5 Ni4 2.114501 1_555
B5 Ni5 2.114501 1_555
