# generated using pymatgen
data_Cr2Sb12RuPt
_symmetry_space_group_name_H-M   'P 1'
_cell_length_a   8.19924333
_cell_length_b   8.21919569
_cell_length_c   9.45323859
_cell_angle_alpha   54.44667782
_cell_angle_beta   54.34961498
_cell_angle_gamma   70.06328239
_symmetry_Int_Tables_number   1
_chemical_formula_structural   Cr2Sb12RuPt
_chemical_formula_sum   'Cr2 Sb12 Ru1 Pt1'
_cell_volume   421.16250594
_cell_formula_units_Z   1
loop_
 _symmetry_equiv_pos_site_id
 _symmetry_equiv_pos_as_xyz
  1  'x, y, z'
loop_
 _atom_site_type_symbol
 _atom_site_label
 _atom_site_symmetry_multiplicity
 _atom_site_fract_x
 _atom_site_fract_y
 _atom_site_fract_z
 _atom_site_occupancy
  Cr  Cr0  1  0.00000000  0.50000000  0.50000000  1
  Cr  Cr1  1  0.50000000  0.00000000  0.50000000  1
  Sb  Sb0  1  0.15648098  0.14670760  0.18575169  1
  Sb  Sb1  1  0.84351902  0.85329240  0.81424831  1
  Sb  Sb2  1  0.84738525  0.84721718  0.50105583  1
  Sb  Sb3  1  0.15261475  0.15278282  0.49894417  1
  Sb  Sb4  1  0.80516679  0.50301762  0.34459624  1
  Sb  Sb5  1  0.19483321  0.49698238  0.65540376  1
  Sb  Sb6  1  0.50698010  0.81377895  0.33405088  1
  Sb  Sb7  1  0.49301990  0.18622105  0.66594912  1
  Sb  Sb8  1  0.65376210  0.33182238  0.85373518  1
  Sb  Sb9  1  0.34623790  0.66817762  0.14626482  1
  Sb  Sb10  1  0.65681848  0.34794758  0.14837869  1
  Sb  Sb11  1  0.34318152  0.65205242  0.85162131  1
  Ru  Ru0  1  0.50000000  0.00000000  0.00000000  1
  Pt  Pt0  1  0.00000000  0.50000000  0.00000000  1
loop_
_geom_bond_atom_site_label_1
_geom_bond_atom_site_label_2
_geom_bond_distance
_geom_bond_site_symmetry_2
Cr0 Sb2 2.700660 1_455
Cr0 Sb3 2.700660 1_555
Cr0 Sb5 2.716058 1_555
Cr0 Sb4 2.716058 1_455
Cr0 Sb9 2.717883 1_555
Cr0 Sb8 2.717883 1_455
Cr1 Sb2 2.696136 1_545
Cr1 Sb3 2.696136 1_555
Cr1 Sb10 2.711393 1_555
Cr1 Sb11 2.711393 1_545
Cr1 Sb7 2.726699 1_555
Cr1 Sb6 2.726699 1_545
Sb0 Sb2 2.878018 1_445
Sb0 Sb3 2.971630 1_555
Sb1 Sb3 2.878018 1_665
Sb1 Sb2 2.971630 1_555
Sb4 Sb6 2.870671 1_555
Sb4 Sb7 2.973488 1_555
Sb5 Sb7 2.870671 1_555
Sb5 Sb6 2.973488 1_555
Sb10 Sb8 2.879100 1_554
Sb10 Sb9 2.973223 1_555
Sb11 Sb9 2.879100 1_556
Sb11 Sb8 2.973223 1_555
Ru0 Sb6 2.616899 1_545
Ru0 Sb7 2.616899 1_554
Ru0 Sb0 2.617545 1_555
Ru0 Sb1 2.617545 1_544
Ru0 Sb8 2.620496 1_554
Ru0 Sb9 2.620496 1_545
Pt0 Sb4 2.676771 1_455
Pt0 Sb5 2.676771 1_554
Pt0 Sb11 2.684368 1_554
Pt0 Sb10 2.684368 1_455
Pt0 Sb0 2.705050 1_555
Pt0 Sb1 2.705050 1_454
