# generated using pymatgen
data_Lu4HfMgH18
_symmetry_space_group_name_H-M   'P 1'
_cell_length_a   6.02853519
_cell_length_b   6.03016009
_cell_length_c   6.24119957
_cell_angle_alpha   89.45895799
_cell_angle_beta   89.89296290
_cell_angle_gamma   120.34903955
_symmetry_Int_Tables_number   1
_chemical_formula_structural   Lu4HfMgH18
_chemical_formula_sum   'Lu4 Hf1 Mg1 H18'
_cell_volume   195.78024820
_cell_formula_units_Z   1
loop_
 _symmetry_equiv_pos_site_id
 _symmetry_equiv_pos_as_xyz
  1  'x, y, z'
loop_
 _atom_site_type_symbol
 _atom_site_label
 _atom_site_symmetry_multiplicity
 _atom_site_fract_x
 _atom_site_fract_y
 _atom_site_fract_z
 _atom_site_occupancy
  Lu  Lu0  1  0.99479479  0.66129013  0.74857416  1
  Lu  Lu1  1  0.66259045  0.66581991  0.25111718  1
  Lu  Lu2  1  0.00591122  0.33263351  0.24615546  1
  Lu  Lu3  1  0.33083381  0.99732686  0.24903697  1
  Hf  Hf0  1  0.65459598  0.00236733  0.75093623  1
  Mg  Mg0  1  0.34662500  0.35185794  0.74884129  1
  H  H0  1  0.35054769  0.93897134  0.91440682  1
  H  H1  1  0.65089514  0.69755665  0.90191474  1
  H  H2  1  0.01731393  0.36719787  0.90715087  1
  H  H3  1  0.32013892  0.34940855  0.41939750  1
  H  H4  1  0.04146417  0.67312102  0.41110543  1
  H  H5  1  0.64524417  0.96195263  0.42342471  1
  H  H6  1  0.70227115  0.01957194  0.08147137  1
  H  H7  1  0.31824443  0.30253096  0.07835745  1
  H  H8  1  0.98670394  0.69310684  0.08770545  1
  H  H9  1  0.69008472  0.63985401  0.58332035  1
  H  H10  1  0.90390788  0.30961460  0.58549661  1
  H  H11  1  0.37848405  0.03050217  0.59840315  1
  H  H12  1  0.99991697  0.01838666  0.74805391  1
  H  H13  1  0.99961957  0.99757477  0.29649560  1
  H  H14  1  0.64993062  0.31320067  0.82616149  1
  H  H15  1  0.66886497  0.33379098  0.27116410  1
  H  H16  1  0.33497663  0.66733578  0.18950491  1
  H  H17  1  0.34603879  0.67502688  0.68180626  1
loop_
_geom_bond_atom_site_label_1
_geom_bond_atom_site_label_2
_geom_bond_distance
_geom_bond_site_symmetry_2
H0 Hf0 1.955599 1_565
H0 Lu3 2.134238 1_556
H0 Lu0 2.210582 1_455
H1 Hf0 2.047591 1_565
H1 Lu1 2.190410 1_556
H1 Mg0 2.191593 1_555
H1 Lu0 2.390951 1_555
H2 Lu0 2.086535 1_455
H2 Lu2 2.121652 1_556
H2 Mg0 2.259652 1_555
H2 Hf0 2.399825 1_455
H3 Mg0 2.062227 1_555
H3 Lu2 2.141000 1_555
H3 Lu1 2.231405 1_555
H3 Lu3 2.413082 1_545
H4 Lu3 2.097158 1_555
H4 Lu0 2.120149 1_455
H4 Lu2 2.217528 1_555
H4 Lu1 2.474593 1_455
H5 Hf0 2.058331 1_565
H5 Lu1 2.140282 1_555
H5 Lu3 2.287939 1_555
H5 Lu2 2.445612 1_665
H6 Hf0 2.079711 1_554
H6 Lu2 2.126649 1_655
H6 Lu1 2.273645 1_545
H6 Lu3 2.410580 1_545
H7 Mg0 2.069531 1_554
H7 Lu3 2.152235 1_545
H7 Lu2 2.239794 1_555
H7 Lu1 2.393425 1_555
H8 Lu0 2.129757 1_554
H8 Lu1 2.132973 1_555
H8 Lu3 2.209060 1_655
H8 Lu2 2.435276 1_655
H9 Lu0 2.055361 1_555
H9 Lu1 2.090965 1_555
H9 Mg0 2.166747 1_555
H10 Hf0 1.975317 1_555
H10 Lu0 2.168408 1_555
H10 Lu2 2.187742 1_655
H11 Hf0 1.998511 1_555
H11 Lu3 2.197605 1_545
H11 Mg0 2.254643 1_555
H11 Lu0 2.435993 1_445
H12 Hf0 2.034717 1_555
H12 Mg0 2.040906 1_655
H12 Lu0 2.137885 1_545
H13 Lu3 2.018789 1_655
H13 Lu2 2.023098 1_665
H13 Lu1 2.028767 1_555
H14 Hf0 1.950472 1_555
H14 Mg0 2.015561 1_555
H14 Lu0 2.128359 1_555
H15 Lu1 2.024268 1_555
H15 Lu3 2.028933 1_545
H15 Lu2 2.041121 1_655
H16 Lu1 2.017353 1_555
H16 Lu2 2.017874 1_555
H16 Lu3 2.040226 1_555
H17 Hf0 1.962467 1_565
H17 Mg0 1.991052 1_555
H17 Lu0 2.117324 1_455
