# generated using pymatgen
data_Ta2Se8I
_symmetry_space_group_name_H-M   'P 1'
_cell_length_a   9.49554854
_cell_length_b   9.49554854
_cell_length_c   9.49554854
_cell_angle_alpha   117.92335404
_cell_angle_beta   117.92335404
_cell_angle_gamma   93.63613831
_symmetry_Int_Tables_number   1
_chemical_formula_structural   Ta2Se8I
_chemical_formula_sum   'Ta4 Se16 I2'
_cell_volume   623.04933948
_cell_formula_units_Z   2
loop_
 _symmetry_equiv_pos_site_id
 _symmetry_equiv_pos_as_xyz
  1  'x, y, z'
loop_
 _atom_site_type_symbol
 _atom_site_label
 _atom_site_symmetry_multiplicity
 _atom_site_fract_x
 _atom_site_fract_y
 _atom_site_fract_z
 _atom_site_occupancy
  Ta  Ta0  1  0.25000000  0.75000000  0.50000000  1
  Ta  Ta1  1  0.75000000  0.25000000  0.50000000  1
  Ta  Ta2  1  0.00000000  0.50000000  0.50000000  1
  Ta  Ta3  1  0.50000000  0.00000000  0.50000000  1
  Se  Se0  1  0.34013300  0.67567000  0.75545600  1
  Se  Se1  1  0.92021400  0.58467700  0.24454400  1
  Se  Se2  1  0.32433000  0.65986700  0.24454400  1
  Se  Se3  1  0.58467700  0.34013300  0.66446200  1
  Se  Se4  1  0.67567000  0.92021400  0.33553800  1
  Se  Se5  1  0.65986700  0.41532300  0.33553800  1
  Se  Se6  1  0.19552100  0.99845100  0.43384000  1
  Se  Se7  1  0.99845100  0.56461100  0.80293000  1
  Se  Se8  1  0.76168100  0.19552100  0.19707000  1
  Se  Se9  1  0.43538900  0.00154900  0.19707000  1
  Se  Se10  1  0.80447900  0.23831900  0.80293000  1
  Se  Se11  1  0.56461100  0.76168100  0.56616000  1
  Se  Se12  1  0.00154900  0.80447900  0.56616000  1
  Se  Se13  1  0.23831900  0.43538900  0.43384000  1
  Se  Se14  1  0.41532300  0.07978600  0.75545600  1
  Se  Se15  1  0.07978600  0.32433000  0.66446200  1
  I  I0  1  0.84554100  0.84554100  0.00000000  1
  I  I1  1  0.15445900  0.15445900  0.00000000  1
loop_
_geom_bond_atom_site_label_1
_geom_bond_atom_site_label_2
_geom_bond_distance
_geom_bond_site_symmetry_2
Se0 Se13 2.428139 1_555
Se0 Ta0 2.617320 1_555
Se0 Ta2 2.699491 1_555
Se1 Se12 2.428139 1_655
Se1 Ta0 2.617320 1_655
Se1 Ta2 2.699491 1_655
Se2 Ta0 2.617320 1_555
Se2 Ta3 2.699491 1_565
Se3 Ta1 2.617313 1_555
Se3 Ta3 2.699492 1_555
Se4 Se9 2.428141 1_565
Se4 Ta1 2.617321 1_565
Se4 Ta3 2.699484 1_565
Se5 Se8 2.428142 1_555
Se5 Ta1 2.617313 1_555
Se5 Ta2 2.699492 1_655
Se6 Ta3 2.653057 1_565
Se6 Ta0 2.732494 1_555
Se7 Ta2 2.653057 1_655
Se7 Ta1 2.732494 1_555
Se8 Ta2 2.653057 1_655
Se8 Ta1 2.732494 1_555
Se9 Ta3 2.653057 1_555
Se9 Ta1 2.732494 1_555
Se10 Se3 2.428142 1_555
Se10 Ta3 2.653057 1_555
Se10 Ta1 2.732494 1_555
Se11 Se2 2.428139 1_555
Se11 Ta3 2.653057 1_565
Se11 Ta0 2.732494 1_555
Se12 Ta2 2.653057 1_555
Se12 Ta0 2.732494 1_555
Se13 Ta2 2.653057 1_555
Se13 Ta0 2.732494 1_555
Se14 Se6 2.428139 1_545
Se14 Ta0 2.617320 1_545
Se14 Ta3 2.699491 1_555
Se15 Se7 2.428141 1_455
Se15 Ta1 2.617321 1_455
Se15 Ta2 2.699484 1_555
I0 Se11 3.329669 1_554
I0 Se7 3.329669 1_554
I0 Se6 3.329669 1_655
I0 Se8 3.329669 1_565
I1 Se9 3.329669 1_555
I1 Se13 3.329669 1_555
I1 Se12 3.329669 1_544
I1 Se10 3.329669 1_454
