# generated using pymatgen
data_K2Li2SnS4
_symmetry_space_group_name_H-M   'P 1'
_cell_length_a   5.74204618
_cell_length_b   7.29969612
_cell_length_c   11.18443054
_cell_angle_alpha   67.68590539
_cell_angle_beta   90.00000000
_cell_angle_gamma   90.00000000
_symmetry_Int_Tables_number   1
_chemical_formula_structural   K2Li2SnS4
_chemical_formula_sum   'K4 Li4 Sn2 S8'
_cell_volume   433.69228170
_cell_formula_units_Z   2
loop_
 _symmetry_equiv_pos_site_id
 _symmetry_equiv_pos_as_xyz
  1  'x, y, z'
loop_
 _atom_site_type_symbol
 _atom_site_label
 _atom_site_symmetry_multiplicity
 _atom_site_fract_x
 _atom_site_fract_y
 _atom_site_fract_z
 _atom_site_occupancy
  K  K0  1  0.51854165  0.00000000  0.25000000  1
  K  K1  1  0.00000000  0.00000000  0.00000000  1
  K  K2  1  0.48145835  0.00000000  0.75000000  1
  K  K3  1  0.00000000  0.00000000  0.50000000  1
  Li  Li0  1  0.75049311  0.50106023  0.02683484  1
  Li  Li1  1  0.24950689  0.50106023  0.52683484  1
  Li  Li2  1  0.24950689  0.49893977  0.97316516  1
  Li  Li3  1  0.75049311  0.49893977  0.47316516  1
  Sn  Sn0  1  0.24947086  0.50000000  0.25000000  1
  Sn  Sn1  1  0.75052914  0.50000000  0.75000000  1
  S  S0  1  0.03173905  0.71416607  0.32626249  1
  S  S1  1  0.53213283  0.28574356  0.93207244  1
  S  S2  1  0.46786717  0.71425644  0.06792756  1
  S  S3  1  0.53213283  0.71425644  0.56792756  1
  S  S4  1  0.03173905  0.28583393  0.17373751  1
  S  S5  1  0.46786717  0.28574356  0.43207244  1
  S  S6  1  0.96826095  0.71416607  0.82626249  1
  S  S7  1  0.96826095  0.28583393  0.67373751  1
loop_
_geom_bond_atom_site_label_1
_geom_bond_atom_site_label_2
_geom_bond_distance
_geom_bond_site_symmetry_2
K0 S3 3.371743 1_545
K0 S1 3.371743 1_554
K0 S4 3.397493 1_555
K0 S0 3.397493 1_545
K0 S5 3.436231 1_555
K0 S2 3.436231 1_545
K0 S4 3.523241 1_655
K0 S0 3.523241 1_645
K1 S2 3.307859 1_545
K1 S1 3.307859 1_454
K1 S4 3.352809 1_555
K1 S6 3.352809 1_444
K1 S0 3.452636 1_545
K1 S7 3.452636 1_454
K1 S1 3.613979 1_554
K1 S2 3.613979 1_445
K2 S2 3.371743 1_546
K2 S5 3.371743 1_555
K2 S7 3.397493 1_555
K2 S6 3.397493 1_545
K2 S1 3.436231 1_555
K2 S3 3.436231 1_545
K2 S7 3.523241 1_455
K2 S6 3.523241 1_445
K3 S5 3.307859 1_555
K3 S3 3.307859 1_445
K3 S7 3.352809 1_455
K3 S0 3.352809 1_545
K3 S6 3.452636 1_445
K3 S4 3.452636 1_555
K3 S3 3.613979 1_545
K3 S5 3.613979 1_455
Li0 S2 2.410392 1_555
Li0 S4 2.411565 1_655
Li0 S6 2.523072 1_554
Li0 S1 2.535898 1_554
Li1 S3 2.410392 1_555
Li1 S7 2.411565 1_455
Li1 S0 2.523072 1_555
Li1 S5 2.535898 1_555
Li2 S1 2.410392 1_555
Li2 S6 2.411565 1_455
Li2 S4 2.523072 1_556
Li2 S2 2.535898 1_556
Li3 S5 2.410392 1_555
Li3 S0 2.411565 1_655
Li3 S7 2.523072 1_555
Li3 S3 2.535898 1_555
S0 Sn0 2.397339 1_555
S1 Sn1 2.397301 1_555
S2 Sn0 2.397301 1_555
S3 Sn1 2.397301 1_555
S4 Sn0 2.397339 1_555
S5 Sn0 2.397301 1_555
S6 Sn1 2.397339 1_555
S7 Sn1 2.397339 1_555
