# generated using pymatgen
data_Ti12GeSe3
_symmetry_space_group_name_H-M   'P 1'
_cell_length_a   7.61776784
_cell_length_b   7.60837917
_cell_length_c   7.64479423
_cell_angle_alpha   96.63835118
_cell_angle_beta   96.25495184
_cell_angle_gamma   141.07959890
_symmetry_Int_Tables_number   1
_chemical_formula_structural   Ti12GeSe3
_chemical_formula_sum   'Ti12 Ge1 Se3'
_cell_volume   262.07657161
_cell_formula_units_Z   1
loop_
 _symmetry_equiv_pos_site_id
 _symmetry_equiv_pos_as_xyz
  1  'x, y, z'
loop_
 _atom_site_type_symbol
 _atom_site_label
 _atom_site_symmetry_multiplicity
 _atom_site_fract_x
 _atom_site_fract_y
 _atom_site_fract_z
 _atom_site_occupancy
  Ti  Ti0  1  0.31785780  0.29505077  0.18782695  1
  Ti  Ti1  1  0.10736389  0.13223216  0.81455121  1
  Ti  Ti2  1  0.86825600  0.67997499  0.97747368  1
  Ti  Ti3  1  0.70321487  0.89111562  0.02194412  1
  Ti  Ti4  1  0.00038935  0.33558267  0.37998233  1
  Ti  Ti5  1  0.94848662  0.61574807  0.61711298  1
  Ti  Ti6  1  0.38570618  0.00593184  0.33632695  1
  Ti  Ti7  1  0.66348033  0.04406218  0.66810537  1
  Ti  Ti8  1  0.97282006  0.94011957  0.39884637  1
  Ti  Ti9  1  0.54122325  0.57210035  0.59899457  1
  Ti  Ti10  1  0.42614476  0.02768778  0.96686109  1
  Ti  Ti11  1  0.06646588  0.46245416  0.03325451  1
  Ge  Ge0  1  0.23112409  0.55755451  0.74236596  1
  Se  Se0  1  0.51238665  0.76579035  0.32805124  1
  Se  Se1  1  0.43696453  0.18351530  0.67501698  1
  Se  Se2  1  0.81811574  0.49107967  0.25328669  1
loop_
_geom_bond_atom_site_label_1
_geom_bond_atom_site_label_2
_geom_bond_distance
_geom_bond_site_symmetry_2
Ge0 Ti11 2.570932 1_556
Ge0 Ti7 2.606622 1_565
Ge0 Ti3 2.609853 1_556
Ge0 Ti4 2.618138 1_555
Ge0 Ti5 2.623115 1_455
Ge0 Ti7 2.636088 1_455
Ge0 Ti9 2.641834 1_555
Ge0 Ti1 2.728399 1_555
Ge0 Ti10 2.775495 1_565
Se0 Ti8 2.556547 1_555
Se0 Ti0 2.584629 1_555
Se0 Ti7 2.617064 1_565
Se0 Ti4 2.618483 1_555
Se0 Ti11 2.621980 1_555
Se0 Ti4 2.640938 1_665
Se0 Ti6 2.646446 1_565
Se0 Ti3 2.756612 1_555
Se0 Ti9 2.760537 1_555
Se1 Ti9 2.559991 1_555
Se1 Ti1 2.598032 1_555
Se1 Ti6 2.613803 1_555
Se1 Ti5 2.624830 1_445
Se1 Ti10 2.624837 1_555
Se1 Ti7 2.638519 1_555
Se1 Ti5 2.639560 1_555
Se1 Ti2 2.724541 1_555
Se1 Ti8 2.769346 1_445
Se2 Ti10 2.559313 1_554
Se2 Ti2 2.584427 1_554
Se2 Ti4 2.606492 1_655
Se2 Ti8 2.620979 1_555
Se2 Ti6 2.629570 1_665
Se2 Ti5 2.635220 1_555
Se2 Ti6 2.637464 1_555
Se2 Ti0 2.750494 1_555
Se2 Ti11 2.775964 1_655
