# generated using pymatgen
data_Sr2HgS5
_symmetry_space_group_name_H-M   'P 1'
_cell_length_a   7.99420062
_cell_length_b   8.35544552
_cell_length_c   11.89583243
_cell_angle_alpha   90.00000000
_cell_angle_beta   90.00000000
_cell_angle_gamma   90.00000000
_symmetry_Int_Tables_number   1
_chemical_formula_structural   Sr2HgS5
_chemical_formula_sum   'Sr8 Hg4 S20'
_cell_volume   794.58340956
_cell_formula_units_Z   4
loop_
 _symmetry_equiv_pos_site_id
 _symmetry_equiv_pos_as_xyz
  1  'x, y, z'
loop_
 _atom_site_type_symbol
 _atom_site_label
 _atom_site_symmetry_multiplicity
 _atom_site_fract_x
 _atom_site_fract_y
 _atom_site_fract_z
 _atom_site_occupancy
  Sr  Sr0  1  0.64191801  0.50593295  0.80980187  1
  Sr  Sr1  1  0.85808199  0.99406705  0.30980187  1
  Sr  Sr2  1  0.35808199  0.00593295  0.19019813  1
  Sr  Sr3  1  0.14191801  0.49406705  0.69019813  1
  Sr  Sr4  1  0.35808199  0.49406705  0.19019813  1
  Sr  Sr5  1  0.14191801  0.00593295  0.69019813  1
  Sr  Sr6  1  0.64191801  0.99406705  0.80980187  1
  Sr  Sr7  1  0.85808199  0.50593295  0.30980187  1
  Hg  Hg0  1  0.01716996  0.75000000  0.00854342  1
  Hg  Hg1  1  0.48283004  0.75000000  0.50854342  1
  Hg  Hg2  1  0.98283004  0.25000000  0.99145658  1
  Hg  Hg3  1  0.51716996  0.25000000  0.49145658  1
  S  S0  1  0.56393247  0.75000000  0.02385917  1
  S  S1  1  0.93606753  0.75000000  0.52385917  1
  S  S2  1  0.43606753  0.25000000  0.97614083  1
  S  S3  1  0.06393247  0.25000000  0.47614083  1
  S  S4  1  0.09391342  0.75000000  0.20063893  1
  S  S5  1  0.40608658  0.75000000  0.70063893  1
  S  S6  1  0.90608658  0.25000000  0.79936107  1
  S  S7  1  0.59391342  0.25000000  0.29936107  1
  S  S8  1  0.93868110  0.75000000  0.81775239  1
  S  S9  1  0.56131890  0.75000000  0.31775239  1
  S  S10  1  0.06131890  0.25000000  0.18224761  1
  S  S11  1  0.43868110  0.25000000  0.68224761  1
  S  S12  1  0.69650607  0.54420752  0.06571734  1
  S  S13  1  0.80349393  0.95579248  0.56571734  1
  S  S14  1  0.30349393  0.04420752  0.93428266  1
  S  S15  1  0.19650607  0.45579248  0.43428266  1
  S  S16  1  0.30349393  0.45579248  0.93428266  1
  S  S17  1  0.19650607  0.04420752  0.43428266  1
  S  S18  1  0.69650607  0.95579248  0.06571734  1
  S  S19  1  0.80349393  0.54420752  0.56571734  1
loop_
_geom_bond_atom_site_label_1
_geom_bond_atom_site_label_2
_geom_bond_distance
_geom_bond_site_symmetry_2
Hg0 S8 2.354754 1_454
Hg0 S4 2.366058 1_555
Hg1 S9 2.354754 1_555
Hg1 S5 2.366058 1_555
Hg2 S10 2.354754 1_656
Hg2 S6 2.366058 1_555
Hg3 S11 2.354754 1_555
Hg3 S7 2.366058 1_555
S0 S12 2.080336 1_555
S0 S18 2.080336 1_555
S0 Sr0 3.321365 1_554
S0 Sr6 3.321365 1_554
S0 Sr2 3.346094 1_565
S0 Sr4 3.346094 1_555
S1 S19 2.080336 1_555
S1 S13 2.080336 1_555
S1 Sr7 3.321365 1_555
S1 Sr1 3.321365 1_555
S1 Sr5 3.346094 1_665
S1 Sr3 3.346094 1_655
S2 Sr4 3.321365 1_556
S2 Sr2 3.321365 1_556
S2 Sr6 3.346094 1_545
S2 Sr0 3.346094 1_555
S3 Sr3 3.321365 1_555
S3 Sr5 3.321365 1_555
S3 Sr1 3.346094 1_445
S3 Sr7 3.346094 1_455
S4 Sr2 3.008005 1_565
S4 Sr4 3.008005 1_555
S4 Sr7 3.065830 1_455
S4 Sr1 3.065830 1_455
S5 Sr5 3.008005 1_565
S5 Sr3 3.008005 1_555
S5 Sr0 3.065830 1_555
S5 Sr6 3.065830 1_555
S6 Sr6 3.008005 1_545
S6 Sr0 3.008005 1_555
S6 Sr3 3.065830 1_655
S6 Sr5 3.065830 1_655
S7 Sr1 3.008005 1_545
S7 Sr7 3.008005 1_555
S7 Sr4 3.065830 1_555
S7 Sr2 3.065830 1_555
S8 Sr5 3.084639 1_665
S8 Sr3 3.084639 1_655
S8 Sr0 3.129832 1_555
S8 Sr6 3.129832 1_555
S9 Sr2 3.084639 1_565
S9 Sr4 3.084639 1_555
S9 Sr7 3.129832 1_555
S9 Sr1 3.129832 1_555
S10 Sr1 3.084639 1_445
S10 Sr7 3.084639 1_455
S10 Sr4 3.129832 1_555
S10 Sr2 3.129832 1_555
S11 Sr6 3.084639 1_545
S11 Sr0 3.084639 1_555
S11 Sr3 3.129832 1_555
S11 Sr5 3.129832 1_555
S12 Sr0 3.092028 1_554
S12 Sr4 3.112498 1_555
S12 Sr7 3.193981 1_555
S13 Sr1 3.092028 1_555
S13 Sr5 3.112498 1_665
S13 Sr6 3.193981 1_555
S14 S2 2.080336 1_555
S14 Sr2 3.092028 1_556
S14 Sr6 3.112498 1_545
S14 Sr5 3.193981 1_555
S15 S3 2.080336 1_555
S15 Sr3 3.092028 1_555
S15 Sr7 3.112498 1_455
S15 Sr4 3.193981 1_555
S16 S2 2.080336 1_555
S16 Sr4 3.092028 1_556
S16 Sr0 3.112498 1_555
S16 Sr3 3.193981 1_555
S17 S3 2.080336 1_555
S17 Sr5 3.092028 1_555
S17 Sr1 3.112498 1_445
S17 Sr2 3.193981 1_555
S18 Sr6 3.092028 1_554
S18 Sr2 3.112498 1_565
S18 Sr1 3.193981 1_555
S19 Sr7 3.092028 1_555
S19 Sr3 3.112498 1_655
S19 Sr0 3.193981 1_555
