# generated using pymatgen
data_Rb4AlGa3Sb16
_symmetry_space_group_name_H-M   'P 1'
_cell_length_a   4.26113149
_cell_length_b   10.68723851
_cell_length_c   18.35495518
_cell_angle_alpha   89.96408351
_cell_angle_beta   90.00000000
_cell_angle_gamma   90.00000000
_symmetry_Int_Tables_number   1
_chemical_formula_structural   Rb4AlGa3Sb16
_chemical_formula_sum   'Rb4 Al1 Ga3 Sb16'
_cell_volume   835.87951220
_cell_formula_units_Z   1
loop_
 _symmetry_equiv_pos_site_id
 _symmetry_equiv_pos_as_xyz
  1  'x, y, z'
loop_
 _atom_site_type_symbol
 _atom_site_label
 _atom_site_symmetry_multiplicity
 _atom_site_fract_x
 _atom_site_fract_y
 _atom_site_fract_z
 _atom_site_occupancy
  Rb  Rb0  1  0.75000000  0.17966720  0.43098585  1
  Rb  Rb1  1  0.25000000  0.82090546  0.56757897  1
  Rb  Rb2  1  0.75000000  0.68077458  0.06817905  1
  Rb  Rb3  1  0.25000000  0.32001905  0.93307104  1
  Al  Al0  1  0.75000000  0.32162032  0.63201949  1
  Ga  Ga0  1  0.25000000  0.67878044  0.36844314  1
  Ga  Ga1  1  0.75000000  0.82133348  0.86866996  1
  Ga  Ga2  1  0.25000000  0.17904845  0.13133591  1
  Sb  Sb0  1  0.75000000  0.82413991  0.39343435  1
  Sb  Sb1  1  0.25000000  0.17550906  0.60460582  1
  Sb  Sb2  1  0.75000000  0.32438007  0.10588343  1
  Sb  Sb3  1  0.25000000  0.67632820  0.89475648  1
  Sb  Sb4  1  0.75000000  0.39695429  0.77203401  1
  Sb  Sb5  1  0.25000000  0.60143437  0.22998921  1
  Sb  Sb6  1  0.75000000  0.89754092  0.72988115  1
  Sb  Sb7  1  0.25000000  0.10092386  0.26961672  1
  Sb  Sb8  1  0.75000000  0.53210760  0.54968420  1
  Sb  Sb9  1  0.25000000  0.47050405  0.45050896  1
  Sb  Sb10  1  0.75000000  0.03022140  0.95015396  1
  Sb  Sb11  1  0.25000000  0.97050134  0.04970413  1
  Sb  Sb12  1  0.75000000  0.92295128  0.24895031  1
  Sb  Sb13  1  0.25000000  0.07603506  0.74935975  1
  Sb  Sb14  1  0.75000000  0.42313402  0.25023543  1
  Sb  Sb15  1  0.25000000  0.57518560  0.75091668  1
loop_
_geom_bond_atom_site_label_1
_geom_bond_atom_site_label_2
_geom_bond_distance
_geom_bond_site_symmetry_2
Rb0 Sb7 3.744814 1_655
Rb0 Sb7 3.744814 1_555
Rb0 Sb9 3.785537 1_555
Rb0 Sb9 3.785537 1_655
Rb0 Sb1 3.833630 1_555
Rb0 Sb1 3.833630 1_655
Rb0 Sb0 3.862040 1_545
Rb0 Sb14 4.215024 1_555
Rb1 Sb6 3.753385 1_455
Rb1 Sb6 3.753385 1_555
Rb1 Sb8 3.764924 1_455
Rb1 Sb8 3.764924 1_555
Rb1 Sb0 3.841542 1_455
Rb1 Sb0 3.841542 1_555
Rb1 Sb1 3.850610 1_565
Rb1 Sb15 4.267250 1_555
Rb2 Sb5 3.751819 1_655
Rb2 Sb5 3.751819 1_555
Rb2 Sb11 3.773665 1_555
Rb2 Sb11 3.773665 1_655
Rb2 Sb3 3.830703 1_654
Rb2 Sb3 3.830703 1_554
Rb2 Sb2 3.870809 1_555
Rb2 Sb12 4.209393 1_555
Rb3 Sb4 3.734867 1_555
Rb3 Sb4 3.734867 1_455
Rb3 Sb10 3.772090 1_455
Rb3 Sb10 3.772090 1_555
Rb3 Sb2 3.821390 1_456
Rb3 Sb2 3.821390 1_556
Rb3 Sb3 3.871923 1_555
Rb3 Sb13 4.263875 1_555
Al0 Sb1 2.689209 1_655
Al0 Sb1 2.689209 1_555
Al0 Sb4 2.693603 1_555
Al0 Sb8 2.709247 1_555
Ga0 Sb5 2.672866 1_555
Ga0 Sb0 2.676557 1_555
Ga0 Sb0 2.676557 1_455
Ga0 Sb9 2.686896 1_555
Ga1 Sb6 2.674002 1_555
Ga1 Sb3 2.677543 1_655
Ga1 Sb3 2.677543 1_555
Ga1 Sb10 2.687913 1_565
Ga2 Sb7 2.671443 1_555
Ga2 Sb2 2.677511 1_555
Ga2 Sb2 2.677511 1_455
Ga2 Sb11 2.686401 1_545
Sb0 Sb12 2.853903 1_555
Sb1 Sb13 2.861125 1_555
Sb8 Sb9 2.878883 1_555
Sb8 Sb9 2.878883 1_655
Sb10 Sb11 2.878194 1_646
Sb10 Sb11 2.878194 1_546
Sb12 Sb7 2.881292 1_565
Sb12 Sb7 2.881292 1_665
Sb13 Sb6 2.882181 1_445
Sb13 Sb6 2.882181 1_545
Sb14 Sb2 2.852654 1_555
Sb14 Sb5 2.882291 1_555
Sb14 Sb5 2.882291 1_655
Sb15 Sb3 2.853509 1_555
Sb15 Sb4 2.883902 1_455
Sb15 Sb4 2.883902 1_555
