# generated using pymatgen
data_KHf2Br9
_symmetry_space_group_name_H-M   'P 1'
_cell_length_a   7.01517712
_cell_length_b   10.27721536
_cell_length_c   12.85301626
_cell_angle_alpha   64.92615729
_cell_angle_beta   90.00000000
_cell_angle_gamma   90.00000000
_symmetry_Int_Tables_number   1
_chemical_formula_structural   KHf2Br9
_chemical_formula_sum   'K2 Hf4 Br18'
_cell_volume   839.33131441
_cell_formula_units_Z   2
loop_
 _symmetry_equiv_pos_site_id
 _symmetry_equiv_pos_as_xyz
  1  'x, y, z'
loop_
 _atom_site_type_symbol
 _atom_site_label
 _atom_site_symmetry_multiplicity
 _atom_site_fract_x
 _atom_site_fract_y
 _atom_site_fract_z
 _atom_site_occupancy
  K  K0  1  0.54185514  0.50000000  0.75000000  1
  K  K1  1  0.45814486  0.50000000  0.25000000  1
  Hf  Hf0  1  0.27675012  0.81856932  0.86746791  1
  Hf  Hf1  1  0.72324988  0.18143068  0.13253209  1
  Hf  Hf2  1  0.27675012  0.18143068  0.63253209  1
  Hf  Hf3  1  0.72324988  0.81856932  0.36746791  1
  Br  Br0  1  0.13474992  0.76415353  0.05974067  1
  Br  Br1  1  0.86525008  0.23584647  0.94025933  1
  Br  Br2  1  0.13474992  0.23584647  0.44025933  1
  Br  Br3  1  0.86525008  0.76415353  0.55974067  1
  Br  Br4  1  0.12847383  0.61397944  0.83886134  1
  Br  Br5  1  0.87152617  0.38602056  0.16113866  1
  Br  Br6  1  0.12847383  0.38602056  0.66113866  1
  Br  Br7  1  0.87152617  0.61397944  0.33886134  1
  Br  Br8  1  0.98924915  0.00000000  0.75000000  1
  Br  Br9  1  0.01075085  0.00000000  0.25000000  1
  Br  Br10  1  0.41926029  0.07329732  0.85147994  1
  Br  Br11  1  0.58073971  0.92670268  0.14852006  1
  Br  Br12  1  0.41926029  0.92670268  0.64852006  1
  Br  Br13  1  0.58073971  0.07329732  0.35147994  1
  Br  Br14  1  0.59485023  0.69931878  0.93770621  1
  Br  Br15  1  0.40514977  0.30068122  0.06229379  1
  Br  Br16  1  0.59485023  0.30068122  0.56229379  1
  Br  Br17  1  0.40514977  0.69931878  0.43770621  1
loop_
_geom_bond_atom_site_label_1
_geom_bond_atom_site_label_2
_geom_bond_distance
_geom_bond_site_symmetry_2
Br0 Hf0 2.498188 1_554
Br0 K1 3.587485 1_555
Br1 Hf1 2.498188 1_556
Br1 K0 3.587485 1_555
Br2 Hf2 2.498188 1_555
Br2 K1 3.587485 1_555
Br3 Hf3 2.498188 1_555
Br3 K0 3.587485 1_555
Br4 Hf0 2.508667 1_555
Br4 K0 3.495749 1_555
Br5 Hf1 2.508667 1_555
Br5 K1 3.495749 1_555
Br6 Hf2 2.508667 1_555
Br6 K0 3.495749 1_555
Br7 Hf3 2.508667 1_555
Br7 K1 3.495749 1_555
Br8 Hf2 2.727263 1_655
Br8 Hf0 2.727263 1_645
Br9 Hf1 2.727263 1_455
Br9 Hf3 2.727263 1_445
Br10 Hf0 2.727473 1_545
Br10 Hf2 2.739194 1_555
Br11 Hf1 2.727473 1_565
Br11 Hf3 2.739194 1_555
Br12 Hf2 2.727473 1_565
Br12 Hf0 2.739194 1_555
Br13 Hf3 2.727473 1_545
Br13 Hf1 2.739194 1_555
Br14 Hf0 2.521699 1_555
Br14 K1 3.776027 1_556
Br14 K0 3.787304 1_555
Br15 Hf1 2.521699 1_555
Br15 K0 3.776027 1_554
Br15 K1 3.787304 1_555
Br16 Hf2 2.521699 1_555
Br16 K1 3.776027 1_555
Br16 K0 3.787304 1_555
Br17 Hf3 2.521699 1_555
Br17 K0 3.776027 1_555
Br17 K1 3.787304 1_555
