# generated using pymatgen
data_SrCdSbH
_symmetry_space_group_name_H-M   'P 1'
_cell_length_a   4.52286004
_cell_length_b   4.52605159
_cell_length_c   18.28460591
_cell_angle_alpha   90.00000000
_cell_angle_beta   90.00000000
_cell_angle_gamma   90.00000000
_symmetry_Int_Tables_number   1
_chemical_formula_structural   SrCdSbH
_chemical_formula_sum   'Sr4 Cd4 Sb4 H4'
_cell_volume   374.29864308
_cell_formula_units_Z   4
loop_
 _symmetry_equiv_pos_site_id
 _symmetry_equiv_pos_as_xyz
  1  'x, y, z'
loop_
 _atom_site_type_symbol
 _atom_site_label
 _atom_site_symmetry_multiplicity
 _atom_site_fract_x
 _atom_site_fract_y
 _atom_site_fract_z
 _atom_site_occupancy
  Sr  Sr0  1  0.25000000  0.75147777  0.56384526  1
  Sr  Sr1  1  0.75000000  0.24852223  0.43615474  1
  Sr  Sr2  1  0.75000000  0.25147777  0.93615474  1
  Sr  Sr3  1  0.25000000  0.74852223  0.06384526  1
  Cd  Cd0  1  0.25000000  0.25867898  0.74998882  1
  Cd  Cd1  1  0.75000000  0.74132102  0.25001118  1
  Cd  Cd2  1  0.75000000  0.75867898  0.75001118  1
  Cd  Cd3  1  0.25000000  0.24132102  0.24998882  1
  Sb  Sb0  1  0.25000000  0.74366126  0.35271331  1
  Sb  Sb1  1  0.75000000  0.25633874  0.64728669  1
  Sb  Sb2  1  0.75000000  0.24366126  0.14728669  1
  Sb  Sb3  1  0.25000000  0.75633874  0.85271331  1
  H  H0  1  0.25000000  0.25014998  0.00000115  1
  H  H1  1  0.75000000  0.74985002  0.99999885  1
  H  H2  1  0.75000000  0.75014998  0.49999885  1
  H  H3  1  0.25000000  0.24985002  0.50000115  1
loop_
_geom_bond_atom_site_label_1
_geom_bond_atom_site_label_2
_geom_bond_distance
_geom_bond_site_symmetry_2
Cd0 Sb3 2.932811 1_555
Cd0 Sb1 2.939484 1_455
Cd0 Sb1 2.939484 1_555
Cd0 Sb3 2.949112 1_545
Cd1 Sb2 2.932811 1_555
Cd1 Sb0 2.939484 1_655
Cd1 Sb0 2.939484 1_555
Cd1 Sb2 2.949112 1_565
Cd2 Sb1 2.932811 1_565
Cd2 Sb3 2.939484 1_555
Cd2 Sb3 2.939484 1_655
Cd2 Sb1 2.949112 1_555
Cd3 Sb0 2.932811 1_545
Cd3 Sb2 2.939484 1_555
Cd3 Sb2 2.939484 1_455
Cd3 Sb0 2.949112 1_555
Sb0 Sr1 3.530439 1_555
Sb0 Sr1 3.530439 1_455
Sb0 Sr1 3.558533 1_565
Sb0 Sr1 3.558533 1_465
Sb1 Sr0 3.530439 1_655
Sb1 Sr0 3.530439 1_555
Sb1 Sr0 3.558533 1_645
Sb1 Sr0 3.558533 1_545
Sb2 Sr3 3.530439 1_545
Sb2 Sr3 3.530439 1_645
Sb2 Sr3 3.558533 1_555
Sb2 Sr3 3.558533 1_655
Sb3 Sr2 3.530439 1_565
Sb3 Sr2 3.530439 1_465
Sb3 Sr2 3.558533 1_455
Sb3 Sr2 3.558533 1_555
H0 Sr3 2.539830 1_555
H0 Sr2 2.544983 1_454
H0 Sr2 2.544983 1_554
H0 Sr3 2.552925 1_545
H1 Sr2 2.539830 1_555
H1 Sr3 2.544983 1_556
H1 Sr3 2.544983 1_656
H1 Sr2 2.552925 1_565
H2 Sr1 2.539830 1_565
H2 Sr0 2.544983 1_655
H2 Sr0 2.544983 1_555
H2 Sr1 2.552925 1_555
H3 Sr0 2.539830 1_545
H3 Sr1 2.544983 1_555
H3 Sr1 2.544983 1_455
H3 Sr0 2.552925 1_555
