# generated using pymatgen
data_NaY(CN2)2
_symmetry_space_group_name_H-M   'P 1'
_cell_length_a   6.27692031
_cell_length_b   7.31418803
_cell_length_c   9.92403135
_cell_angle_alpha   90.00000000
_cell_angle_beta   90.00000000
_cell_angle_gamma   90.00000000
_symmetry_Int_Tables_number   1
_chemical_formula_structural   NaY(CN2)2
_chemical_formula_sum   'Na4 Y4 C8 N16'
_cell_volume   455.61799017
_cell_formula_units_Z   4
loop_
 _symmetry_equiv_pos_site_id
 _symmetry_equiv_pos_as_xyz
  1  'x, y, z'
loop_
 _atom_site_type_symbol
 _atom_site_label
 _atom_site_symmetry_multiplicity
 _atom_site_fract_x
 _atom_site_fract_y
 _atom_site_fract_z
 _atom_site_occupancy
  Na  Na0  1  0.25000000  0.62199913  0.00000000  1
  Na  Na1  1  0.75000000  0.87800087  0.50000000  1
  Na  Na2  1  0.75000000  0.37800087  0.00000000  1
  Na  Na3  1  0.25000000  0.12199913  0.50000000  1
  Y  Y0  1  0.25000000  0.13122619  0.00000000  1
  Y  Y1  1  0.75000000  0.36877381  0.50000000  1
  Y  Y2  1  0.75000000  0.86877381  0.00000000  1
  Y  Y3  1  0.25000000  0.63122619  0.50000000  1
  C  C0  1  0.41498679  0.37800502  0.74658842  1
  C  C1  1  0.91498679  0.12199498  0.75341158  1
  C  C2  1  0.58501321  0.12199498  0.24658842  1
  C  C3  1  0.08501321  0.37800502  0.25341158  1
  C  C4  1  0.58501321  0.62199498  0.25341158  1
  C  C5  1  0.08501321  0.87800502  0.24658842  1
  C  C6  1  0.41498679  0.87800502  0.75341158  1
  C  C7  1  0.91498679  0.62199498  0.74658842  1
  N  N0  1  0.39993483  0.35994935  0.86800475  1
  N  N1  1  0.89993483  0.14005065  0.63199525  1
  N  N2  1  0.60006517  0.14005065  0.36800475  1
  N  N3  1  0.10006517  0.35994935  0.13199525  1
  N  N4  1  0.60006517  0.64005065  0.13199525  1
  N  N5  1  0.10006517  0.85994935  0.36800475  1
  N  N6  1  0.39993483  0.85994935  0.63199525  1
  N  N7  1  0.89993483  0.64005065  0.86800475  1
  N  N8  1  0.43042693  0.39688267  0.62282253  1
  N  N9  1  0.93042693  0.10311733  0.87717747  1
  N  N10  1  0.56957307  0.10311733  0.12282253  1
  N  N11  1  0.06957307  0.39688267  0.37717747  1
  N  N12  1  0.56957307  0.60311733  0.37717747  1
  N  N13  1  0.06957307  0.89688267  0.12282253  1
  N  N14  1  0.43042693  0.89688267  0.87717747  1
  N  N15  1  0.93042693  0.60311733  0.62282253  1
loop_
_geom_bond_atom_site_label_1
_geom_bond_atom_site_label_2
_geom_bond_distance
_geom_bond_site_symmetry_2
C0 N0 1.215831 1_555
C0 N8 1.239787 1_555
C1 N1 1.215831 1_555
C1 N9 1.239787 1_555
C2 N2 1.215831 1_555
C2 N10 1.239787 1_555
C3 N3 1.215831 1_555
C3 N11 1.239787 1_555
C4 N4 1.215831 1_555
C4 N12 1.239787 1_555
C5 N5 1.215831 1_555
C5 N13 1.239787 1_555
C6 N6 1.215831 1_555
C6 N14 1.239787 1_555
C7 N7 1.215831 1_555
C7 N15 1.239787 1_555
N0 Y0 2.323855 1_556
N0 Na0 2.505054 1_556
N0 Na2 2.561562 1_556
N1 Y1 2.323855 1_555
N1 Na1 2.505054 1_545
N1 Na3 2.561562 1_655
N2 Y1 2.323855 1_555
N2 Na1 2.505054 1_545
N2 Na3 2.561562 1_555
N3 Y0 2.323855 1_555
N3 Na0 2.505054 1_555
N3 Na2 2.561562 1_455
N4 Y2 2.323855 1_555
N4 Na2 2.505054 1_555
N4 Na0 2.561562 1_555
N5 Y3 2.323855 1_555
N5 Na3 2.505054 1_565
N5 Na1 2.561562 1_455
N6 Y3 2.323855 1_555
N6 Na3 2.505054 1_565
N6 Na1 2.561562 1_555
N7 Y2 2.323855 1_556
N7 Na2 2.505054 1_556
N7 Na0 2.561562 1_656
N8 Y1 2.356215 1_555
N8 Y3 2.388771 1_555
N8 Na3 2.609718 1_555
N9 Y0 2.356215 1_656
N9 Y2 2.388771 1_546
N9 Na2 2.609718 1_556
N10 Y0 2.356215 1_555
N10 Y2 2.388771 1_545
N10 Na2 2.609718 1_555
N11 Y1 2.356215 1_455
N11 Y3 2.388771 1_555
N11 Na3 2.609718 1_555
N12 Y3 2.356215 1_555
N12 Y1 2.388771 1_555
N12 Na1 2.609718 1_555
N13 Y2 2.356215 1_455
N13 Y0 2.388771 1_565
N13 Na0 2.609718 1_555
N14 Y2 2.356215 1_556
N14 Y0 2.388771 1_566
N14 Na0 2.609718 1_556
N15 Y3 2.356215 1_655
N15 Y1 2.388771 1_555
N15 Na1 2.609718 1_555
