# generated using pymatgen
data_MnNb3Ga3Ir2
_symmetry_space_group_name_H-M   'P 1'
_cell_length_a   14.88204777
_cell_length_b   14.88204579
_cell_length_c   5.74749608
_cell_angle_alpha   90.00000000
_cell_angle_beta   90.00000000
_cell_angle_gamma   119.99999996
_symmetry_Int_Tables_number   1
_chemical_formula_structural   MnNb3Ga3Ir2
_chemical_formula_sum   'Mn8 Nb24 Ga24 Ir16'
_cell_volume   1102.38842922
_cell_formula_units_Z   8
loop_
 _symmetry_equiv_pos_site_id
 _symmetry_equiv_pos_as_xyz
  1  'x, y, z'
loop_
 _atom_site_type_symbol
 _atom_site_label
 _atom_site_symmetry_multiplicity
 _atom_site_fract_x
 _atom_site_fract_y
 _atom_site_fract_z
 _atom_site_occupancy
  Mn  Mn0_0  1  0.00000000  0.00000000  0.25000050  1
  Mn  Mn0_1  1  0.00000000  0.00000000  0.75000050  1
  Mn  Mn0_2  1  0.00000000  0.50000000  0.25000050  1
  Mn  Mn0_3  1  0.00000000  0.50000000  0.75000050  1
  Mn  Mn0_4  1  0.50000000  0.00000000  0.25000050  1
  Mn  Mn0_5  1  0.50000000  0.00000000  0.75000050  1
  Mn  Mn0_6  1  0.50000000  0.50000000  0.25000050  1
  Mn  Mn0_7  1  0.50000000  0.50000000  0.75000050  1
  Nb  Nb0_0  1  0.18019058  0.50000000  0.25000050  1
  Nb  Nb0_1  1  0.18019058  0.50000000  0.75000050  1
  Nb  Nb0_2  1  0.18019058  1.00000000  0.25000050  1
  Nb  Nb0_3  1  0.18019058  1.00000000  0.75000050  1
  Nb  Nb0_4  1  0.68019058  0.50000000  0.25000050  1
  Nb  Nb0_5  1  0.68019058  0.50000000  0.75000050  1
  Nb  Nb0_6  1  0.68019058  1.00000000  0.25000050  1
  Nb  Nb0_7  1  0.68019058  1.00000000  0.75000050  1
  Nb  Nb1_0  1  0.00000000  0.18019058  0.25000050  1
  Nb  Nb1_1  1  0.00000000  0.18019058  0.75000050  1
  Nb  Nb1_2  1  0.00000000  0.68019058  0.25000050  1
  Nb  Nb1_3  1  0.00000000  0.68019058  0.75000050  1
  Nb  Nb1_4  1  0.50000000  0.18019058  0.25000050  1
  Nb  Nb1_5  1  0.50000000  0.18019058  0.75000050  1
  Nb  Nb1_6  1  0.50000000  0.68019058  0.25000050  1
  Nb  Nb1_7  1  0.50000000  0.68019058  0.75000050  1
  Nb  Nb2_0  1  0.31980942  0.31980942  0.25000050  1
  Nb  Nb2_1  1  0.31980942  0.31980942  0.75000050  1
  Nb  Nb2_2  1  0.31980942  0.81980942  0.25000050  1
  Nb  Nb2_3  1  0.31980942  0.81980942  0.75000050  1
  Nb  Nb2_4  1  0.81980942  0.31980942  0.25000050  1
  Nb  Nb2_5  1  0.81980942  0.31980942  0.75000050  1
  Nb  Nb2_6  1  0.81980942  0.81980942  0.25000050  1
  Nb  Nb2_7  1  0.81980942  0.81980942  0.75000050  1
  Ga  Ga0_0  1  0.35197239  0.00000000  0.00000000  1
  Ga  Ga0_1  1  0.35197239  0.00000000  0.50000000  1
  Ga  Ga0_2  1  0.35197239  0.50000000  0.00000000  1
  Ga  Ga0_3  1  0.35197239  0.50000000  0.50000000  1
  Ga  Ga0_4  1  0.85197239  0.00000000  0.00000000  1
  Ga  Ga0_5  1  0.85197239  0.00000000  0.50000000  1
  Ga  Ga0_6  1  0.85197239  0.50000000  0.00000000  1
  Ga  Ga0_7  1  0.85197239  0.50000000  0.50000000  1
  Ga  Ga1_0  1  0.14802711  0.14802761  0.00000000  1
  Ga  Ga1_1  1  0.14802711  0.14802761  0.50000000  1
  Ga  Ga1_2  1  0.14802711  0.64802761  0.00000000  1
  Ga  Ga1_3  1  0.14802711  0.64802761  0.50000000  1
  Ga  Ga1_4  1  0.64802711  0.14802761  0.00000000  1
  Ga  Ga1_5  1  0.64802711  0.14802761  0.50000000  1
  Ga  Ga1_6  1  0.64802711  0.64802761  0.00000000  1
  Ga  Ga1_7  1  0.64802711  0.64802761  0.50000000  1
  Ga  Ga2_0  1  0.50000000  0.35197289  0.00000000  1
  Ga  Ga2_1  1  0.50000000  0.35197289  0.50000000  1
  Ga  Ga2_2  1  0.50000000  0.85197289  0.00000000  1
  Ga  Ga2_3  1  0.50000000  0.85197289  0.50000000  1
  Ga  Ga2_4  1  1.00000000  0.35197289  0.00000000  1
  Ga  Ga2_5  1  1.00000000  0.35197289  0.50000000  1
  Ga  Ga2_6  1  1.00000000  0.85197289  0.00000000  1
  Ga  Ga2_7  1  1.00000000  0.85197289  0.50000000  1
  Ir  Ir0_0  1  0.33333350  0.16666700  0.00000000  1
  Ir  Ir0_1  1  0.33333350  0.16666700  0.50000000  1
  Ir  Ir0_2  1  0.33333350  0.66666700  0.00000000  1
  Ir  Ir0_3  1  0.33333350  0.66666700  0.50000000  1
  Ir  Ir0_4  1  0.83333350  0.16666700  0.00000000  1
  Ir  Ir0_5  1  0.83333350  0.16666700  0.50000000  1
  Ir  Ir0_6  1  0.83333350  0.66666700  0.00000000  1
  Ir  Ir0_7  1  0.83333350  0.66666700  0.50000000  1
  Ir  Ir1_0  1  0.16666700  0.33333350  0.00000000  1
  Ir  Ir1_1  1  0.16666700  0.33333350  0.50000000  1
  Ir  Ir1_2  1  0.16666700  0.83333350  0.00000000  1
  Ir  Ir1_3  1  0.16666700  0.83333350  0.50000000  1
  Ir  Ir1_4  1  0.66666700  0.33333350  0.00000000  1
  Ir  Ir1_5  1  0.66666700  0.33333350  0.50000000  1
  Ir  Ir1_6  1  0.66666700  0.83333350  0.00000000  1
  Ir  Ir1_7  1  0.66666700  0.83333350  0.50000000  1
loop_
_geom_bond_atom_site_label_1
_geom_bond_atom_site_label_2
_geom_bond_distance
_geom_bond_site_symmetry_2
Mn0_0 Nb1_0 2.681604 1_555
Mn0_0 Nb2_6 2.681605 1_445
Mn0_0 Nb0_2 2.681605 1_545
Mn0_0 Mn0_1 2.873748 1_555
Mn0_0 Mn0_1 2.873748 1_554
Mn0_1 Nb1_1 2.681604 1_555
Mn0_1 Nb2_7 2.681605 1_445
Mn0_1 Nb0_3 2.681605 1_545
Mn0_2 Nb1_2 2.681604 1_555
Mn0_2 Nb2_4 2.681605 1_455
Mn0_2 Nb0_0 2.681605 1_555
Mn0_2 Mn0_3 2.873748 1_555
Mn0_2 Mn0_3 2.873748 1_554
Mn0_3 Nb1_3 2.681604 1_555
Mn0_3 Nb2_5 2.681605 1_455
Mn0_3 Nb0_1 2.681605 1_555
Mn0_4 Nb1_4 2.681604 1_555
Mn0_4 Nb2_2 2.681605 1_545
Mn0_4 Nb0_6 2.681605 1_545
Mn0_4 Mn0_5 2.873748 1_554
Mn0_4 Mn0_5 2.873748 1_555
Mn0_5 Nb1_5 2.681604 1_555
Mn0_5 Nb2_3 2.681605 1_545
Mn0_5 Nb0_7 2.681605 1_545
Mn0_6 Nb1_6 2.681604 1_555
Mn0_6 Nb2_0 2.681605 1_555
Mn0_6 Nb0_4 2.681605 1_555
Mn0_6 Mn0_7 2.873748 1_554
Mn0_6 Mn0_7 2.873748 1_555
Mn0_7 Nb1_7 2.681604 1_555
Mn0_7 Nb2_1 2.681605 1_555
Mn0_7 Nb0_5 2.681605 1_555
Nb0_0 Nb0_1 2.873748 1_555
Nb0_0 Nb0_1 2.873748 1_554
Nb0_2 Nb0_3 2.873748 1_554
Nb0_2 Nb0_3 2.873748 1_555
Nb0_4 Nb0_5 2.873748 1_555
Nb0_4 Nb0_5 2.873748 1_554
Nb0_6 Nb0_7 2.873748 1_554
Nb0_6 Nb0_7 2.873748 1_555
Nb1_0 Nb1_1 2.873748 1_554
Nb1_0 Nb1_1 2.873748 1_555
Nb1_2 Nb1_3 2.873748 1_555
Nb1_2 Nb1_3 2.873748 1_554
Nb1_4 Nb1_5 2.873748 1_554
Nb1_4 Nb1_5 2.873748 1_555
Nb1_6 Nb1_7 2.873748 1_555
Nb1_6 Nb1_7 2.873748 1_554
Nb2_0 Nb2_1 2.873748 1_554
Nb2_0 Nb2_1 2.873748 1_555
Nb2_2 Nb2_3 2.873748 1_554
Nb2_2 Nb2_3 2.873748 1_555
Nb2_4 Nb2_5 2.873748 1_555
Nb2_4 Nb2_5 2.873748 1_554
Nb2_6 Nb2_7 2.873748 1_554
Nb2_6 Nb2_7 2.873748 1_555
Ga0_0 Ir1_2 2.630025 1_545
Ga0_0 Ir0_0 2.630032 1_555
Ga0_0 Mn0_5 2.630134 1_554
Ga0_0 Mn0_4 2.630137 1_555
Ga0_0 Nb2_3 2.863766 1_544
Ga0_0 Nb1_5 2.863766 1_554
Ga0_0 Nb2_2 2.863769 1_545
Ga0_0 Nb1_4 2.863769 1_555
Ga0_0 Ga0_1 2.873748 1_554
Ga0_0 Ga0_1 2.873748 1_555
Ga0_0 Nb0_3 2.932595 1_544
Ga0_0 Nb0_2 2.932598 1_545
Ga0_1 Ir1_3 2.630025 1_545
Ga0_1 Ir0_1 2.630032 1_555
Ga0_1 Mn0_4 2.630134 1_555
Ga0_1 Mn0_5 2.630137 1_555
Ga0_1 Nb2_2 2.863766 1_545
Ga0_1 Nb1_4 2.863766 1_555
Ga0_1 Nb2_3 2.863769 1_545
Ga0_1 Nb1_5 2.863769 1_555
Ga0_1 Nb0_2 2.932595 1_545
Ga0_1 Nb0_3 2.932598 1_545
Ga0_2 Ir1_0 2.630025 1_555
Ga0_2 Ir0_2 2.630032 1_555
Ga0_2 Mn0_7 2.630134 1_554
Ga0_2 Mn0_6 2.630137 1_555
Ga0_2 Nb2_1 2.863766 1_554
Ga0_2 Nb1_7 2.863766 1_554
Ga0_2 Nb2_0 2.863769 1_555
Ga0_2 Nb1_6 2.863769 1_555
Ga0_2 Ga0_3 2.873748 1_554
Ga0_2 Ga0_3 2.873748 1_555
Ga0_2 Nb0_1 2.932595 1_554
Ga0_2 Nb0_0 2.932598 1_555
Ga0_3 Ir1_1 2.630025 1_555
Ga0_3 Ir0_3 2.630032 1_555
Ga0_3 Mn0_6 2.630134 1_555
Ga0_3 Mn0_7 2.630137 1_555
Ga0_3 Nb2_0 2.863766 1_555
Ga0_3 Nb1_6 2.863766 1_555
Ga0_3 Nb2_1 2.863769 1_555
Ga0_3 Nb1_7 2.863769 1_555
Ga0_3 Nb0_0 2.932595 1_555
Ga0_3 Nb0_1 2.932598 1_555
Ga0_4 Ir1_6 2.630025 1_545
Ga0_4 Ir0_4 2.630032 1_555
Ga0_4 Mn0_1 2.630134 1_654
Ga0_4 Mn0_0 2.630137 1_655
Ga0_4 Nb2_7 2.863766 1_544
Ga0_4 Nb1_1 2.863766 1_654
Ga0_4 Nb2_6 2.863769 1_545
Ga0_4 Nb1_0 2.863769 1_655
Ga0_4 Ga0_5 2.873748 1_554
Ga0_4 Ga0_5 2.873748 1_555
Ga0_4 Nb0_7 2.932595 1_544
Ga0_4 Nb0_6 2.932598 1_545
Ga0_5 Ir1_7 2.630025 1_545
Ga0_5 Ir0_5 2.630032 1_555
Ga0_5 Mn0_0 2.630134 1_655
Ga0_5 Mn0_1 2.630137 1_655
Ga0_5 Nb2_6 2.863766 1_545
Ga0_5 Nb1_0 2.863766 1_655
Ga0_5 Nb2_7 2.863769 1_545
Ga0_5 Nb1_1 2.863769 1_655
Ga0_5 Nb0_6 2.932595 1_545
Ga0_5 Nb0_7 2.932598 1_545
Ga0_6 Ir1_4 2.630025 1_555
Ga0_6 Ir0_6 2.630032 1_555
Ga0_6 Mn0_3 2.630134 1_654
Ga0_6 Mn0_2 2.630137 1_655
Ga0_6 Nb2_5 2.863766 1_554
Ga0_6 Nb1_3 2.863766 1_654
Ga0_6 Nb2_4 2.863769 1_555
Ga0_6 Nb1_2 2.863769 1_655
Ga0_6 Ga0_7 2.873748 1_555
Ga0_6 Ga0_7 2.873748 1_554
Ga0_6 Nb0_5 2.932595 1_554
Ga0_6 Nb0_4 2.932598 1_555
Ga0_7 Ir1_5 2.630025 1_555
Ga0_7 Ir0_7 2.630032 1_555
Ga0_7 Mn0_2 2.630134 1_655
Ga0_7 Mn0_3 2.630137 1_655
Ga0_7 Nb2_4 2.863766 1_555
Ga0_7 Nb1_2 2.863766 1_655
Ga0_7 Nb2_5 2.863769 1_555
Ga0_7 Nb1_3 2.863769 1_655
Ga0_7 Nb0_4 2.932595 1_555
Ga0_7 Nb0_5 2.932598 1_555
Ga1_0 Ir1_0 2.630026 1_555
Ga1_0 Ir0_0 2.630037 1_555
Ga1_0 Mn0_1 2.630131 1_554
Ga1_0 Mn0_0 2.630134 1_555
Ga1_0 Nb1_1 2.863760 1_554
Ga1_0 Nb1_0 2.863763 1_555
Ga1_0 Nb0_3 2.863770 1_544
Ga1_0 Nb0_2 2.863773 1_545
Ga1_0 Ga1_1 2.873748 1_555
Ga1_0 Ga1_1 2.873748 1_554
Ga1_0 Nb2_1 2.932598 1_554
Ga1_0 Nb2_0 2.932601 1_555
Ga1_1 Ir1_1 2.630026 1_555
Ga1_1 Ir0_1 2.630037 1_555
Ga1_1 Mn0_0 2.630131 1_555
Ga1_1 Mn0_1 2.630134 1_555
Ga1_1 Nb1_0 2.863760 1_555
Ga1_1 Nb1_1 2.863763 1_555
Ga1_1 Nb0_2 2.863770 1_545
Ga1_1 Nb0_3 2.863773 1_545
Ga1_1 Nb2_0 2.932598 1_555
Ga1_1 Nb2_1 2.932601 1_555
Ga1_2 Ir1_2 2.630026 1_555
Ga1_2 Ir0_2 2.630037 1_555
Ga1_2 Mn0_3 2.630131 1_554
Ga1_2 Mn0_2 2.630134 1_555
Ga1_2 Nb1_3 2.863760 1_554
Ga1_2 Nb1_2 2.863763 1_555
Ga1_2 Nb0_1 2.863770 1_554
Ga1_2 Nb0_0 2.863773 1_555
Ga1_2 Ga1_3 2.873748 1_555
Ga1_2 Ga1_3 2.873748 1_554
Ga1_2 Nb2_3 2.932598 1_554
Ga1_2 Nb2_2 2.932601 1_555
Ga1_3 Ir1_3 2.630026 1_555
Ga1_3 Ir0_3 2.630037 1_555
Ga1_3 Mn0_2 2.630131 1_555
Ga1_3 Mn0_3 2.630134 1_555
Ga1_3 Nb1_2 2.863760 1_555
Ga1_3 Nb1_3 2.863763 1_555
Ga1_3 Nb0_0 2.863770 1_555
Ga1_3 Nb0_1 2.863773 1_555
Ga1_3 Nb2_2 2.932598 1_555
Ga1_3 Nb2_3 2.932601 1_555
Ga1_4 Ir1_4 2.630026 1_555
Ga1_4 Ir0_4 2.630037 1_555
Ga1_4 Mn0_5 2.630131 1_554
Ga1_4 Mn0_4 2.630134 1_555
Ga1_4 Nb1_5 2.863760 1_554
Ga1_4 Nb1_4 2.863763 1_555
Ga1_4 Nb0_7 2.863770 1_544
Ga1_4 Nb0_6 2.863773 1_545
Ga1_4 Ga1_5 2.873748 1_554
Ga1_4 Ga1_5 2.873748 1_555
Ga1_4 Nb2_5 2.932598 1_554
Ga1_4 Nb2_4 2.932601 1_555
Ga1_5 Ir1_5 2.630026 1_555
Ga1_5 Ir0_5 2.630037 1_555
Ga1_5 Mn0_4 2.630131 1_555
Ga1_5 Mn0_5 2.630134 1_555
Ga1_5 Nb1_4 2.863760 1_555
Ga1_5 Nb1_5 2.863763 1_555
Ga1_5 Nb0_6 2.863770 1_545
Ga1_5 Nb0_7 2.863773 1_545
Ga1_5 Nb2_4 2.932598 1_555
Ga1_5 Nb2_5 2.932601 1_555
Ga1_6 Ir1_6 2.630026 1_555
Ga1_6 Ir0_6 2.630037 1_555
Ga1_6 Mn0_7 2.630131 1_554
Ga1_6 Mn0_6 2.630134 1_555
Ga1_6 Nb1_7 2.863760 1_554
Ga1_6 Nb1_6 2.863763 1_555
Ga1_6 Nb0_5 2.863770 1_554
Ga1_6 Nb0_4 2.863773 1_555
Ga1_6 Ga1_7 2.873748 1_555
Ga1_6 Ga1_7 2.873748 1_554
Ga1_6 Nb2_7 2.932598 1_554
Ga1_6 Nb2_6 2.932601 1_555
Ga1_7 Ir1_7 2.630026 1_555
Ga1_7 Ir0_7 2.630037 1_555
Ga1_7 Mn0_6 2.630131 1_555
Ga1_7 Mn0_7 2.630134 1_555
Ga1_7 Nb1_6 2.863760 1_555
Ga1_7 Nb1_7 2.863763 1_555
Ga1_7 Nb0_4 2.863770 1_555
Ga1_7 Nb0_5 2.863773 1_555
Ga1_7 Nb2_6 2.932598 1_555
Ga1_7 Nb2_7 2.932601 1_555
Ga2_0 Ir0_0 2.630029 1_555
Ga2_0 Ir1_4 2.630037 1_555
Ga2_0 Mn0_7 2.630128 1_554
Ga2_0 Mn0_6 2.630131 1_555
Ga2_0 Nb0_5 2.863764 1_554
Ga2_0 Nb2_1 2.863764 1_554
Ga2_0 Nb0_4 2.863767 1_555
Ga2_0 Nb2_0 2.863767 1_555
Ga2_0 Ga2_1 2.873748 1_555
Ga2_0 Ga2_1 2.873748 1_554
Ga2_0 Nb1_5 2.932601 1_554
Ga2_0 Nb1_4 2.932604 1_555
Ga2_1 Ir0_1 2.630029 1_555
Ga2_1 Ir1_5 2.630037 1_555
Ga2_1 Mn0_6 2.630128 1_555
Ga2_1 Mn0_7 2.630131 1_555
Ga2_1 Nb0_4 2.863764 1_555
Ga2_1 Nb2_0 2.863764 1_555
Ga2_1 Nb0_5 2.863767 1_555
Ga2_1 Nb2_1 2.863767 1_555
Ga2_1 Nb1_4 2.932601 1_555
Ga2_1 Nb1_5 2.932604 1_555
Ga2_2 Ir0_2 2.630029 1_555
Ga2_2 Ir1_6 2.630037 1_555
Ga2_2 Mn0_5 2.630128 1_564
Ga2_2 Mn0_4 2.630131 1_565
Ga2_2 Nb0_7 2.863764 1_554
Ga2_2 Nb2_3 2.863764 1_554
Ga2_2 Nb0_6 2.863767 1_555
Ga2_2 Nb2_2 2.863767 1_555
Ga2_2 Ga2_3 2.873748 1_554
Ga2_2 Ga2_3 2.873748 1_555
Ga2_2 Nb1_7 2.932601 1_554
Ga2_2 Nb1_6 2.932604 1_555
Ga2_3 Ir0_3 2.630029 1_555
Ga2_3 Ir1_7 2.630037 1_555
Ga2_3 Mn0_4 2.630128 1_565
Ga2_3 Mn0_5 2.630131 1_565
Ga2_3 Nb0_6 2.863764 1_555
Ga2_3 Nb2_2 2.863764 1_555
Ga2_3 Nb0_7 2.863767 1_555
Ga2_3 Nb2_3 2.863767 1_555
Ga2_3 Nb1_6 2.932601 1_555
Ga2_3 Nb1_7 2.932604 1_555
Ga2_4 Ir0_4 2.630029 1_555
Ga2_4 Ir1_0 2.630037 1_655
Ga2_4 Mn0_3 2.630128 1_654
Ga2_4 Mn0_2 2.630131 1_655
Ga2_4 Nb0_1 2.863764 1_654
Ga2_4 Nb2_5 2.863764 1_554
Ga2_4 Nb0_0 2.863767 1_655
Ga2_4 Nb2_4 2.863767 1_555
Ga2_4 Ga2_5 2.873748 1_554
Ga2_4 Ga2_5 2.873748 1_555
Ga2_4 Nb1_1 2.932601 1_654
Ga2_4 Nb1_0 2.932604 1_655
Ga2_5 Ir0_5 2.630029 1_555
Ga2_5 Ir1_1 2.630037 1_655
Ga2_5 Mn0_2 2.630128 1_655
Ga2_5 Mn0_3 2.630131 1_655
Ga2_5 Nb0_0 2.863764 1_655
Ga2_5 Nb2_4 2.863764 1_555
Ga2_5 Nb0_1 2.863767 1_655
Ga2_5 Nb2_5 2.863767 1_555
Ga2_5 Nb1_0 2.932601 1_655
Ga2_5 Nb1_1 2.932604 1_655
Ga2_6 Ir0_6 2.630029 1_555
Ga2_6 Ir1_2 2.630037 1_655
Ga2_6 Mn0_1 2.630128 1_664
Ga2_6 Mn0_0 2.630131 1_665
Ga2_6 Nb0_3 2.863764 1_654
Ga2_6 Nb2_7 2.863764 1_554
Ga2_6 Nb0_2 2.863767 1_655
Ga2_6 Nb2_6 2.863767 1_555
Ga2_6 Ga2_7 2.873748 1_554
Ga2_6 Ga2_7 2.873748 1_555
Ga2_6 Nb1_3 2.932601 1_654
Ga2_6 Nb1_2 2.932604 1_655
Ga2_7 Ir0_7 2.630029 1_555
Ga2_7 Ir1_3 2.630037 1_655
Ga2_7 Mn0_0 2.630128 1_665
Ga2_7 Mn0_1 2.630131 1_665
Ga2_7 Nb0_2 2.863764 1_655
Ga2_7 Nb2_6 2.863764 1_555
Ga2_7 Nb0_3 2.863767 1_655
Ga2_7 Nb2_7 2.863767 1_555
Ga2_7 Nb1_2 2.932601 1_655
Ga2_7 Nb1_3 2.932604 1_655
Ir0_0 Nb2_1 2.785315 1_554
Ir0_0 Nb2_0 2.785318 1_555
Ir0_0 Nb1_5 2.785318 1_554
Ir0_0 Nb1_4 2.785321 1_555
Ir0_0 Nb0_3 2.785321 1_544
Ir0_0 Nb0_2 2.785324 1_545
Ir0_0 Ir0_1 2.873748 1_555
Ir0_0 Ir0_1 2.873748 1_554
Ir0_1 Nb2_0 2.785315 1_555
Ir0_1 Nb2_1 2.785318 1_555
Ir0_1 Nb1_4 2.785318 1_555
Ir0_1 Nb1_5 2.785321 1_555
Ir0_1 Nb0_2 2.785321 1_545
Ir0_1 Nb0_3 2.785324 1_545
Ir0_2 Nb2_3 2.785315 1_554
Ir0_2 Nb2_2 2.785318 1_555
Ir0_2 Nb1_7 2.785318 1_554
Ir0_2 Nb1_6 2.785321 1_555
Ir0_2 Nb0_1 2.785321 1_554
Ir0_2 Nb0_0 2.785324 1_555
Ir0_2 Ir0_3 2.873748 1_555
Ir0_2 Ir0_3 2.873748 1_554
Ir0_3 Nb2_2 2.785315 1_555
Ir0_3 Nb2_3 2.785318 1_555
Ir0_3 Nb1_6 2.785318 1_555
Ir0_3 Nb1_7 2.785321 1_555
Ir0_3 Nb0_0 2.785321 1_555
Ir0_3 Nb0_1 2.785324 1_555
Ir0_4 Nb2_5 2.785315 1_554
Ir0_4 Nb2_4 2.785318 1_555
Ir0_4 Nb1_1 2.785318 1_654
Ir0_4 Nb1_0 2.785321 1_655
Ir0_4 Nb0_7 2.785321 1_544
Ir0_4 Nb0_6 2.785324 1_545
Ir0_4 Ir0_5 2.873748 1_555
Ir0_4 Ir0_5 2.873748 1_554
Ir0_5 Nb2_4 2.785315 1_555
Ir0_5 Nb2_5 2.785318 1_555
Ir0_5 Nb1_0 2.785318 1_655
Ir0_5 Nb1_1 2.785321 1_655
Ir0_5 Nb0_6 2.785321 1_545
Ir0_5 Nb0_7 2.785324 1_545
Ir0_6 Nb2_7 2.785315 1_554
Ir0_6 Nb2_6 2.785318 1_555
Ir0_6 Nb1_3 2.785318 1_654
Ir0_6 Nb1_2 2.785321 1_655
Ir0_6 Nb0_5 2.785321 1_554
Ir0_6 Nb0_4 2.785324 1_555
Ir0_6 Ir0_7 2.873748 1_554
Ir0_6 Ir0_7 2.873748 1_555
Ir0_7 Nb2_6 2.785315 1_555
Ir0_7 Nb2_7 2.785318 1_555
Ir0_7 Nb1_2 2.785318 1_655
Ir0_7 Nb1_3 2.785321 1_655
Ir0_7 Nb0_4 2.785321 1_555
Ir0_7 Nb0_5 2.785324 1_555
Ir1_0 Nb2_1 2.785315 1_554
Ir1_0 Nb0_1 2.785317 1_554
Ir1_0 Nb2_0 2.785318 1_555
Ir1_0 Nb0_0 2.785320 1_555
Ir1_0 Nb1_1 2.785321 1_554
Ir1_0 Nb1_0 2.785324 1_555
Ir1_0 Ir1_1 2.873748 1_554
Ir1_0 Ir1_1 2.873748 1_555
Ir1_1 Nb2_0 2.785315 1_555
Ir1_1 Nb0_0 2.785317 1_555
Ir1_1 Nb2_1 2.785318 1_555
Ir1_1 Nb0_1 2.785320 1_555
Ir1_1 Nb1_0 2.785321 1_555
Ir1_1 Nb1_1 2.785324 1_555
Ir1_2 Nb2_3 2.785315 1_554
Ir1_2 Nb0_3 2.785317 1_554
Ir1_2 Nb2_2 2.785318 1_555
Ir1_2 Nb0_2 2.785320 1_555
Ir1_2 Nb1_3 2.785321 1_554
Ir1_2 Nb1_2 2.785324 1_555
Ir1_2 Ir1_3 2.873748 1_554
Ir1_2 Ir1_3 2.873748 1_555
Ir1_3 Nb2_2 2.785315 1_555
Ir1_3 Nb0_2 2.785317 1_555
Ir1_3 Nb2_3 2.785318 1_555
Ir1_3 Nb0_3 2.785320 1_555
Ir1_3 Nb1_2 2.785321 1_555
Ir1_3 Nb1_3 2.785324 1_555
Ir1_4 Nb2_5 2.785315 1_554
Ir1_4 Nb0_5 2.785317 1_554
Ir1_4 Nb2_4 2.785318 1_555
Ir1_4 Nb0_4 2.785320 1_555
Ir1_4 Nb1_5 2.785321 1_554
Ir1_4 Nb1_4 2.785324 1_555
Ir1_4 Ir1_5 2.873748 1_555
Ir1_4 Ir1_5 2.873748 1_554
Ir1_5 Nb2_4 2.785315 1_555
Ir1_5 Nb0_4 2.785317 1_555
Ir1_5 Nb2_5 2.785318 1_555
Ir1_5 Nb0_5 2.785320 1_555
Ir1_5 Nb1_4 2.785321 1_555
Ir1_5 Nb1_5 2.785324 1_555
Ir1_6 Nb2_7 2.785315 1_554
Ir1_6 Nb0_7 2.785317 1_554
Ir1_6 Nb2_6 2.785318 1_555
Ir1_6 Nb0_6 2.785320 1_555
Ir1_6 Nb1_7 2.785321 1_554
Ir1_6 Nb1_6 2.785324 1_555
Ir1_6 Ir1_7 2.873748 1_554
Ir1_6 Ir1_7 2.873748 1_555
Ir1_7 Nb2_6 2.785315 1_555
Ir1_7 Nb0_6 2.785317 1_555
Ir1_7 Nb2_7 2.785318 1_555
Ir1_7 Nb0_7 2.785320 1_555
Ir1_7 Nb1_6 2.785321 1_555
Ir1_7 Nb1_7 2.785324 1_555
