# generated using pymatgen
data_Ba3Ti2PdO9
_symmetry_space_group_name_H-M   'P 1'
_cell_length_a   5.74506558
_cell_length_b   5.74506479
_cell_length_c   14.17051796
_cell_angle_alpha   90.00000000
_cell_angle_beta   90.00000000
_cell_angle_gamma   119.99999896
_symmetry_Int_Tables_number   1
_chemical_formula_structural   Ba3Ti2PdO9
_chemical_formula_sum   'Ba6 Ti4 Pd2 O18'
_cell_volume   405.04780433
_cell_formula_units_Z   2
loop_
 _symmetry_equiv_pos_site_id
 _symmetry_equiv_pos_as_xyz
  1  'x, y, z'
loop_
 _atom_site_type_symbol
 _atom_site_label
 _atom_site_symmetry_multiplicity
 _atom_site_fract_x
 _atom_site_fract_y
 _atom_site_fract_z
 _atom_site_occupancy
  Ba  Ba0  1  0.33333300  0.66666700  0.41229768  1
  Ba  Ba1  1  0.66666700  0.33333300  0.91229768  1
  Ba  Ba2  1  0.66666700  0.33333300  0.59806228  1
  Ba  Ba3  1  0.33333300  0.66666700  0.09806228  1
  Ba  Ba4  1  0.00000000  0.00000000  0.75136379  1
  Ba  Ba5  1  0.00000000  0.00000000  0.25136379  1
  Ti  Ti0  1  0.66666700  0.33333300  0.35218049  1
  Ti  Ti1  1  0.33333300  0.66666700  0.85218049  1
  Ti  Ti2  1  0.00000000  0.00000000  0.50525410  1
  Ti  Ti3  1  0.00000000  0.00000000  0.00525410  1
  Pd  Pd0  1  0.33333300  0.66666700  0.65815440  1
  Pd  Pd1  1  0.66666700  0.33333300  0.15815440  1
  O  O0  1  0.83336785  0.16663215  0.41652533  1
  O  O1  1  0.83336785  0.66673371  0.41652533  1
  O  O2  1  0.33326629  0.16663215  0.41652533  1
  O  O3  1  0.66673371  0.83336785  0.91652533  1
  O  O4  1  0.16271586  0.32543272  0.57551930  1
  O  O5  1  0.16663215  0.83336785  0.91652533  1
  O  O6  1  0.16663215  0.33326629  0.91652533  1
  O  O7  1  0.83728414  0.16271586  0.07551930  1
  O  O8  1  0.32543272  0.16271586  0.07551930  1
  O  O9  1  0.67456728  0.83728414  0.57551930  1
  O  O10  1  0.16271586  0.83728414  0.57551930  1
  O  O11  1  0.83728414  0.67456728  0.07551930  1
  O  O12  1  0.51652911  0.03306022  0.24885145  1
  O  O13  1  0.48347089  0.51652911  0.74885145  1
  O  O14  1  0.03306022  0.51652911  0.74885145  1
  O  O15  1  0.96693978  0.48347089  0.24885145  1
  O  O16  1  0.51652911  0.48347089  0.24885145  1
  O  O17  1  0.48347089  0.96693978  0.74885145  1
loop_
_geom_bond_atom_site_label_1
_geom_bond_atom_site_label_2
_geom_bond_distance
_geom_bond_site_symmetry_2
Ba0 O4 2.869161 1_555
Ba0 O10 2.869161 1_555
Ba0 O9 2.869161 1_555
Ba0 O2 2.873148 1_565
Ba0 O1 2.873149 1_455
Ba0 O0 2.873157 1_455
Ba0 O0 2.873157 1_565
Ba0 O2 2.873166 1_555
Ba0 O1 2.873166 1_555
Ba0 O16 2.947457 1_555
Ba0 O12 2.947460 1_565
Ba0 O15 2.947460 1_455
Ba1 O11 2.869161 1_556
Ba1 O7 2.869161 1_556
Ba1 O8 2.869161 1_556
Ba1 O3 2.873148 1_545
Ba1 O6 2.873149 1_655
Ba1 O5 2.873157 1_655
Ba1 O5 2.873157 1_545
Ba1 O3 2.873166 1_555
Ba1 O6 2.873166 1_555
Ba1 O13 2.947457 1_555
Ba1 O17 2.947460 1_545
Ba1 O14 2.947460 1_655
Ba2 O13 2.808709 1_555
Ba2 O17 2.808712 1_545
Ba2 O14 2.808713 1_655
Ba2 O9 2.890502 1_545
Ba2 O4 2.890502 1_655
Ba2 O10 2.890508 1_655
Ba2 O10 2.890508 1_545
Ba2 O9 2.890513 1_555
Ba2 O4 2.890513 1_555
Ba2 O1 3.060916 1_555
Ba2 O2 3.060916 1_555
Ba2 O0 3.060919 1_555
Ba3 O16 2.808709 1_555
Ba3 O12 2.808712 1_565
Ba3 O15 2.808713 1_455
Ba3 O8 2.890502 1_565
Ba3 O11 2.890502 1_455
Ba3 O7 2.890508 1_455
Ba3 O7 2.890508 1_565
Ba3 O8 2.890513 1_555
Ba3 O11 2.890513 1_555
Ba3 O6 3.060916 1_554
Ba3 O3 3.060916 1_554
Ba3 O5 3.060919 1_554
Ba4 O5 2.868262 1_545
Ba4 O6 2.868268 1_555
Ba4 O3 2.868268 1_445
Ba4 O14 2.877452 1_555
Ba4 O17 2.877453 1_445
Ba4 O13 2.877458 1_555
Ba4 O13 2.877458 1_445
Ba4 O14 2.877464 1_545
Ba4 O17 2.877464 1_545
Ba4 O10 2.971655 1_545
Ba4 O4 2.971657 1_555
Ba4 O9 2.971657 1_445
Ba5 O0 2.868262 1_455
Ba5 O1 2.868268 1_445
Ba5 O2 2.868268 1_555
Ba5 O15 2.877452 1_445
Ba5 O12 2.877453 1_555
Ba5 O16 2.877458 1_445
Ba5 O16 2.877458 1_555
Ba5 O15 2.877464 1_455
Ba5 O12 2.877464 1_455
Ba5 O7 2.971655 1_455
Ba5 O11 2.971657 1_445
Ba5 O8 2.971657 1_555
O0 Ti0 1.892878 1_555
O0 Ti2 2.080920 1_655
O1 Ti0 1.892874 1_555
O1 Ti2 2.080928 1_665
O2 Ti0 1.892874 1_555
O2 Ti2 2.080928 1_555
O3 Ti1 1.892874 1_555
O3 Ti3 2.080928 1_666
O4 Ti2 1.900803 1_555
O4 Pd0 2.062429 1_555
O5 Ti1 1.892878 1_555
O5 Ti3 2.080920 1_566
O6 Ti1 1.892874 1_555
O6 Ti3 2.080928 1_556
O7 Ti3 1.900798 1_655
O7 Pd1 2.062429 1_555
O8 Ti3 1.900803 1_555
O8 Pd1 2.062429 1_555
O9 Ti2 1.900803 1_665
O9 Pd0 2.062429 1_555
O10 Ti2 1.900798 1_565
O10 Pd0 2.062429 1_555
O11 Ti3 1.900803 1_665
O11 Pd1 2.062429 1_555
O12 Pd1 1.970722 1_555
O12 Ti0 2.091865 1_555
O13 Pd0 1.970733 1_555
O13 Ti1 2.091876 1_555
O14 Pd0 1.970722 1_555
O14 Ti1 2.091865 1_555
O15 Pd1 1.970722 1_555
O15 Ti0 2.091865 1_555
O16 Pd1 1.970733 1_555
O16 Ti0 2.091876 1_555
O17 Pd0 1.970722 1_555
O17 Ti1 2.091865 1_555
