# generated using pymatgen
data_Cs5Rb11(SnSe4)4
_symmetry_space_group_name_H-M   'P 1'
_cell_length_a   8.71697813
_cell_length_b   10.70680602
_cell_length_c   15.73784886
_cell_angle_alpha   90.00000000
_cell_angle_beta   90.11063114
_cell_angle_gamma   90.00000000
_symmetry_Int_Tables_number   1
_chemical_formula_structural   Cs5Rb11(SnSe4)4
_chemical_formula_sum   'Cs5 Rb11 Sn4 Se16'
_cell_volume   1468.82633741
_cell_formula_units_Z   1
loop_
 _symmetry_equiv_pos_site_id
 _symmetry_equiv_pos_as_xyz
  1  'x, y, z'
loop_
 _atom_site_type_symbol
 _atom_site_label
 _atom_site_symmetry_multiplicity
 _atom_site_fract_x
 _atom_site_fract_y
 _atom_site_fract_z
 _atom_site_occupancy
  Cs  Cs0  1  0.99867586  0.00004526  0.99917588  1
  Cs  Cs1  1  0.50120981  0.00106335  0.49997542  1
  Cs  Cs2  1  0.99867586  0.49995474  0.99917588  1
  Cs  Cs3  1  0.50120981  0.49893665  0.49997542  1
  Cs  Cs4  1  0.98956911  0.75000000  0.42183312  1
  Rb  Rb0  1  0.47908854  0.25000000  0.07836594  1
  Rb  Rb1  1  0.02280926  0.25000000  0.57801589  1
  Rb  Rb2  1  0.51997190  0.75000000  0.92133595  1
  Rb  Rb3  1  0.82582386  0.04959904  0.27008759  1
  Rb  Rb4  1  0.32381955  0.95003084  0.22551786  1
  Rb  Rb5  1  0.17510767  0.55007200  0.73017876  1
  Rb  Rb6  1  0.67421819  0.44887470  0.77413963  1
  Rb  Rb7  1  0.17510767  0.94992800  0.73017876  1
  Rb  Rb8  1  0.67421819  0.05112530  0.77413963  1
  Rb  Rb9  1  0.82582386  0.45040096  0.27008759  1
  Rb  Rb10  1  0.32381955  0.54996916  0.22551786  1
  Sn  Sn0  1  0.77830934  0.75000000  0.67189023  1
  Sn  Sn1  1  0.22335311  0.25000000  0.32875496  1
  Sn  Sn2  1  0.71886886  0.75000000  0.16723643  1
  Sn  Sn3  1  0.27878859  0.25000000  0.83219022  1
  Se  Se0  1  0.98661835  0.25000000  0.81865691  1
  Se  Se1  1  0.51560879  0.25000000  0.31579345  1
  Se  Se2  1  0.48573415  0.75000000  0.68294940  1
  Se  Se3  1  0.01188611  0.75000000  0.17835594  1
  Se  Se4  1  0.62788211  0.55771661  0.08949070  1
  Se  Se5  1  0.13146555  0.44012034  0.40759586  1
  Se  Se6  1  0.37042600  0.05820682  0.91052926  1
  Se  Se7  1  0.86847674  0.94408698  0.59562670  1
  Se  Se8  1  0.37042600  0.44179318  0.91052926  1
  Se  Se9  1  0.86847674  0.55591302  0.59562670  1
  Se  Se10  1  0.62788211  0.94228339  0.08949070  1
  Se  Se11  1  0.13146555  0.05987966  0.40759586  1
  Se  Se12  1  0.60714692  0.75000000  0.31860456  1
  Se  Se13  1  0.11167431  0.25000000  0.17734638  1
  Se  Se14  1  0.38811524  0.25000000  0.68048238  1
  Se  Se15  1  0.88824373  0.75000000  0.82355587  1
loop_
_geom_bond_atom_site_label_1
_geom_bond_atom_site_label_2
_geom_bond_distance
_geom_bond_site_symmetry_2
Cs0 Se6 3.585060 1_655
Cs0 Se10 3.587145 1_546
Cs0 Se3 3.889886 1_646
Cs0 Se0 3.904254 1_555
Cs0 Se15 3.965193 1_545
Cs0 Se13 3.998029 1_656
Cs1 Se7 3.587329 1_545
Cs1 Se11 3.588904 1_555
Cs1 Se1 3.939939 1_555
Cs1 Se2 3.941789 1_545
Cs1 Se14 4.019541 1_555
Cs1 Se12 4.029427 1_545
Cs2 Se8 3.585060 1_655
Cs2 Se4 3.587145 1_556
Cs2 Se3 3.889886 1_656
Cs2 Se0 3.904254 1_555
Cs2 Se15 3.965193 1_555
Cs2 Se13 3.998029 1_656
Cs3 Se9 3.587329 1_555
Cs3 Se5 3.588904 1_555
Cs3 Se1 3.939939 1_555
Cs3 Se2 3.941789 1_555
Cs3 Se14 4.019541 1_555
Cs3 Se12 4.029427 1_555
Cs4 Se11 3.548120 1_665
Cs4 Se5 3.548120 1_655
Cs4 Se7 3.595084 1_555
Cs4 Se9 3.595084 1_555
Cs4 Se12 3.705544 1_555
Cs4 Se3 3.837117 1_655
Rb0 Se8 3.475817 1_554
Rb0 Se6 3.475817 1_554
Rb0 Se4 3.544977 1_555
Rb0 Se10 3.544977 1_545
Rb0 Se13 3.564179 1_555
Rb0 Se1 3.749522 1_555
Rb1 Se5 3.499124 1_555
Rb1 Se11 3.499124 1_555
Rb1 Se9 3.551908 1_455
Rb1 Se7 3.551908 1_445
Rb1 Se14 3.566627 1_555
Rb1 Se0 3.800896 1_455
Rb2 Se10 3.480952 1_556
Rb2 Se4 3.480952 1_556
Rb2 Se6 3.552017 1_565
Rb2 Se8 3.552017 1_555
Rb2 Se15 3.562671 1_555
Rb2 Se2 3.762969 1_555
Rb3 Se11 3.430956 1_655
Rb3 Se10 3.515197 1_545
Rb3 Se1 3.527196 1_555
Rb3 Se13 3.599581 1_655
Rb3 Sn2 3.711213 1_545
Rb3 Se12 3.809448 1_545
Rb3 Se3 3.874714 1_645
Rb4 Se10 3.411289 1_555
Rb4 Se11 3.524840 1_565
Rb4 Se3 3.538862 1_555
Rb4 Se12 3.580329 1_555
Rb4 Sn1 3.705037 1_565
Rb4 Se13 3.782089 1_565
Rb4 Se1 3.888370 1_565
Rb5 Se9 3.407416 1_455
Rb5 Se8 3.504322 1_555
Rb5 Se2 3.531876 1_555
Rb5 Se15 3.606777 1_455
Rb5 Sn3 3.702814 1_555
Rb5 Se14 3.793035 1_555
Rb5 Se0 3.869053 1_455
Rb6 Se8 3.412883 1_555
Rb6 Se9 3.477353 1_555
Rb6 Se0 3.526073 1_555
Rb6 Se14 3.593348 1_555
Rb6 Sn0 3.716608 1_555
Rb6 Se15 3.804557 1_555
Rb6 Se2 3.891627 1_555
Rb7 Se7 3.407416 1_455
Rb7 Se6 3.504322 1_565
Rb7 Se2 3.531876 1_555
Rb7 Se15 3.606777 1_455
Rb7 Sn3 3.702814 1_565
Rb7 Se14 3.793035 1_565
Rb7 Se0 3.869053 1_465
Rb8 Se6 3.412883 1_555
Rb8 Se7 3.477353 1_545
Rb8 Se0 3.526073 1_555
Rb8 Se14 3.593348 1_555
Rb8 Sn0 3.716608 1_545
Rb8 Se15 3.804557 1_545
Rb8 Se2 3.891627 1_545
Rb9 Se5 3.430956 1_655
Rb9 Se4 3.515197 1_555
Rb9 Se1 3.527196 1_555
Rb9 Se13 3.599581 1_655
Rb9 Sn2 3.711213 1_555
Rb9 Se12 3.809448 1_555
Rb9 Se3 3.874714 1_655
Rb10 Se4 3.411289 1_555
Rb10 Se5 3.524840 1_555
Rb10 Se3 3.538862 1_555
Rb10 Se12 3.580329 1_555
Rb10 Sn1 3.705037 1_555
Rb10 Se13 3.782089 1_555
Rb10 Se1 3.888370 1_555
Se0 Sn3 2.555322 1_655
Se1 Sn1 2.556133 1_555
Se2 Sn0 2.556639 1_555
Se3 Sn2 2.559876 1_455
Se4 Sn2 2.522062 1_555
Se5 Sn1 2.515661 1_555
Se6 Sn3 2.524109 1_555
Se7 Sn0 2.525917 1_555
Se8 Sn3 2.524109 1_555
Se9 Sn0 2.525917 1_555
Se10 Sn2 2.522062 1_555
Se11 Sn1 2.515661 1_555
Se12 Sn2 2.575328 1_555
Se13 Sn1 2.572295 1_555
Se14 Sn3 2.572433 1_555
Se15 Sn0 2.570359 1_555
