# generated using pymatgen
data_Ca6Sn2HN
_symmetry_space_group_name_H-M   'P 1'
_cell_length_a   6.95454048
_cell_length_b   6.95454077
_cell_length_c   6.95453935
_cell_angle_alpha   59.99999732
_cell_angle_beta   59.99999593
_cell_angle_gamma   59.99999867
_symmetry_Int_Tables_number   1
_chemical_formula_structural   Ca6Sn2HN
_chemical_formula_sum   'Ca6 Sn2 H1 N1'
_cell_volume   237.84292740
_cell_formula_units_Z   1
loop_
 _symmetry_equiv_pos_site_id
 _symmetry_equiv_pos_as_xyz
  1  'x, y, z'
loop_
 _atom_site_type_symbol
 _atom_site_label
 _atom_site_symmetry_multiplicity
 _atom_site_fract_x
 _atom_site_fract_y
 _atom_site_fract_z
 _atom_site_occupancy
  Ca  Ca0  1  0.25957452  0.74042548  0.74042548  1
  Ca  Ca1  1  0.25957452  0.74042548  0.25957452  1
  Ca  Ca2  1  0.74042548  0.25957452  0.74042548  1
  Ca  Ca3  1  0.74042548  0.74042548  0.25957452  1
  Ca  Ca4  1  0.25957452  0.25957452  0.74042548  1
  Ca  Ca5  1  0.74042548  0.25957452  0.25957452  1
  Sn  Sn0  1  0.25000000  0.25000000  0.25000000  1
  Sn  Sn1  1  0.75000000  0.75000000  0.75000000  1
  H  H0  1  0.00000000  0.00000000  0.00000000  1
  N  N0  1  0.50000000  0.50000000  0.50000000  1
loop_
_geom_bond_atom_site_label_1
_geom_bond_atom_site_label_2
_geom_bond_distance
_geom_bond_site_symmetry_2
Ca0 N0 2.364634 1_555
Ca0 H0 2.552969 1_566
Ca0 Sn0 3.478545 1_556
Ca0 Sn0 3.478545 1_565
Ca0 Sn1 3.478545 1_455
Ca0 Sn1 3.478545 1_555
Ca1 N0 2.364634 1_555
Ca1 H0 2.552969 1_565
Ca1 Sn1 3.478545 1_554
Ca1 Sn1 3.478545 1_455
Ca1 Sn0 3.478545 1_555
Ca1 Sn0 3.478545 1_565
Ca2 N0 2.364634 1_555
Ca2 H0 2.552969 1_656
Ca2 Sn0 3.478545 1_556
Ca2 Sn0 3.478545 1_655
Ca2 Sn1 3.478545 1_555
Ca2 Sn1 3.478545 1_545
Ca3 N0 2.364634 1_555
Ca3 H0 2.552969 1_665
Ca3 Sn1 3.478544 1_554
Ca3 Sn1 3.478545 1_555
Ca3 Sn0 3.478545 1_655
Ca3 Sn0 3.478545 1_565
Ca4 N0 2.364634 1_555
Ca4 H0 2.552969 1_556
Ca4 Sn0 3.478544 1_556
Ca4 Sn0 3.478545 1_555
Ca4 Sn1 3.478545 1_455
Ca4 Sn1 3.478545 1_545
Ca5 N0 2.364634 1_555
Ca5 H0 2.552969 1_655
Ca5 Sn1 3.478545 1_554
Ca5 Sn1 3.478545 1_545
Ca5 Sn0 3.478545 1_655
Ca5 Sn0 3.478545 1_555
