# generated using pymatgen
data_Li2SbPt
_symmetry_space_group_name_H-M   'P 1'
_cell_length_a   4.45521083
_cell_length_b   4.45521142
_cell_length_c   4.45521118
_cell_angle_alpha   59.99999433
_cell_angle_beta   59.99998999
_cell_angle_gamma   59.99999763
_symmetry_Int_Tables_number   1
_chemical_formula_structural   Li2SbPt
_chemical_formula_sum   'Li2 Sb1 Pt1'
_cell_volume   62.53019977
_cell_formula_units_Z   1
loop_
 _symmetry_equiv_pos_site_id
 _symmetry_equiv_pos_as_xyz
  1  'x, y, z'
loop_
 _atom_site_type_symbol
 _atom_site_label
 _atom_site_symmetry_multiplicity
 _atom_site_fract_x
 _atom_site_fract_y
 _atom_site_fract_z
 _atom_site_occupancy
  Li  Li0  1  0.50000000  0.50000000  0.50000000  1
  Li  Li1  1  0.75000000  0.75000000  0.75000000  1
  Sb  Sb0  1  -0.00000000  -0.00000000  -0.00000000  1
  Pt  Pt0  1  0.25000000  0.25000000  0.25000000  1
loop_
_geom_bond_atom_site_label_1
_geom_bond_atom_site_label_2
_geom_bond_distance
_geom_bond_site_symmetry_2
Li0 Pt0 2.728248 1_655
Li0 Pt0 2.728248 1_556
Li0 Pt0 2.728249 1_565
Li0 Pt0 2.728249 1_555
Li0 Sb0 3.150310 1_556
Li0 Sb0 3.150310 1_665
Li0 Sb0 3.150310 1_656
Li0 Sb0 3.150310 1_566
Li0 Sb0 3.150310 1_565
Li0 Sb0 3.150310 1_655
Li1 Sb0 2.728248 1_566
Li1 Sb0 2.728248 1_665
Li1 Sb0 2.728249 1_656
Li1 Sb0 2.728249 1_666
Li1 Pt0 3.150310 1_556
Li1 Pt0 3.150310 1_665
Li1 Pt0 3.150310 1_655
Li1 Pt0 3.150310 1_566
Li1 Pt0 3.150310 1_656
Li1 Pt0 3.150310 1_565
Pt0 Sb0 2.728248 1_655
Pt0 Sb0 2.728248 1_556
Pt0 Sb0 2.728249 1_565
Pt0 Sb0 2.728249 1_555
