# generated using pymatgen
data_K4Ba2TiP4
_symmetry_space_group_name_H-M   'P 1'
_cell_length_a   10.18524942
_cell_length_b   10.18524933
_cell_length_c   7.92421388
_cell_angle_alpha   89.10513332
_cell_angle_beta   89.10513279
_cell_angle_gamma   119.89899454
_symmetry_Int_Tables_number   1
_chemical_formula_structural   K4Ba2TiP4
_chemical_formula_sum   'K8 Ba4 Ti2 P8'
_cell_volume   712.29510634
_cell_formula_units_Z   2
loop_
 _symmetry_equiv_pos_site_id
 _symmetry_equiv_pos_as_xyz
  1  'x, y, z'
loop_
 _atom_site_type_symbol
 _atom_site_label
 _atom_site_symmetry_multiplicity
 _atom_site_fract_x
 _atom_site_fract_y
 _atom_site_fract_z
 _atom_site_occupancy
  K  K0  1  0.05500491  0.52656443  0.61601851  1
  K  K1  1  0.52656443  0.05500491  0.11601851  1
  K  K2  1  0.27606689  0.13383858  0.81523151  1
  K  K3  1  0.87176357  0.72808558  0.77028297  1
  K  K4  1  0.86212504  0.14536636  0.79321407  1
  K  K5  1  0.72808558  0.87176357  0.27028297  1
  K  K6  1  0.13383858  0.27606689  0.31523151  1
  K  K7  1  0.14536636  0.86212504  0.29321407  1
  Ba  Ba0  1  0.46652713  0.93906451  0.60912380  1
  Ba  Ba1  1  0.46506620  0.52479053  0.61663684  1
  Ba  Ba2  1  0.93906451  0.46652713  0.10912380  1
  Ba  Ba3  1  0.52479053  0.46506620  0.11663684  1
  Ti  Ti0  1  0.66854299  0.33629827  0.50919441  1
  Ti  Ti1  1  0.33629827  0.66854299  0.00919441  1
  P  P0  1  0.66744400  0.34511933  0.81596101  1
  P  P1  1  0.34511933  0.66744400  0.31596101  1
  P  P2  1  0.59199058  0.79085540  0.89144037  1
  P  P3  1  0.20548003  0.40468418  0.92231101  1
  P  P4  1  0.20325177  0.79206873  0.90933250  1
  P  P5  1  0.40468418  0.20548003  0.42231101  1
  P  P6  1  0.79085540  0.59199058  0.39144037  1
  P  P7  1  0.79206873  0.20325177  0.40933250  1
loop_
_geom_bond_atom_site_label_1
_geom_bond_atom_site_label_2
_geom_bond_distance
_geom_bond_site_symmetry_2
K0 P4 3.351157 1_555
K0 P3 3.420491 1_555
K0 P1 3.448305 1_555
K0 P7 3.494565 1_455
K0 P6 3.570623 1_455
K1 P7 3.351157 1_555
K1 P5 3.420491 1_555
K1 P0 3.448305 1_554
K1 P4 3.494565 1_544
K1 P2 3.570623 1_544
K2 P4 3.248289 1_545
K2 P5 3.285060 1_555
K2 P3 3.298213 1_555
K2 P0 3.459820 1_555
K3 P6 3.268205 1_555
K3 P4 3.314091 1_655
K3 P2 3.346702 1_555
K3 P0 3.393572 1_555
K4 P7 3.246759 1_555
K4 P2 3.339872 1_545
K4 P3 3.352649 1_655
K4 P0 3.482213 1_555
K5 P2 3.268205 1_554
K5 P7 3.314090 1_565
K5 P6 3.346702 1_555
K5 P1 3.393572 1_555
K6 P7 3.248289 1_455
K6 P3 3.285060 1_554
K6 P5 3.298213 1_555
K6 P1 3.459820 1_555
K7 P4 3.246759 1_554
K7 P6 3.339872 1_455
K7 P5 3.352649 1_565
K7 P1 3.482213 1_555
Ba0 P4 3.283049 1_555
Ba0 P2 3.289896 1_555
Ba0 P1 3.385174 1_555
Ba0 P7 3.398413 1_565
Ba0 P5 3.399844 1_565
Ba1 P2 3.246013 1_555
Ba1 P3 3.291969 1_555
Ba1 P1 3.321585 1_555
Ba1 P5 3.393906 1_555
Ba1 P6 3.489460 1_555
Ba2 P7 3.283049 1_555
Ba2 P6 3.289896 1_555
Ba2 P0 3.385174 1_554
Ba2 P4 3.398413 1_654
Ba2 P3 3.399844 1_654
Ba3 P6 3.246013 1_555
Ba3 P5 3.291969 1_555
Ba3 P0 3.321585 1_554
Ba3 P3 3.393906 1_554
Ba3 P2 3.489460 1_554
P0 Ti0 2.434003 1_555
P1 Ti1 2.434003 1_555
P2 Ti1 2.420394 1_556
P3 Ti1 2.447118 1_556
P4 Ti1 2.397406 1_556
P5 Ti0 2.447118 1_555
P6 Ti0 2.420394 1_555
P7 Ti0 2.397406 1_555
