# generated using pymatgen
data_TiGaGeRh5
_symmetry_space_group_name_H-M   'P 1'
_cell_length_a   4.01303954
_cell_length_b   5.35403346
_cell_length_c   10.36427347
_cell_angle_alpha   90.00000000
_cell_angle_beta   90.00000000
_cell_angle_gamma   90.00000000
_symmetry_Int_Tables_number   1
_chemical_formula_structural   TiGaGeRh5
_chemical_formula_sum   'Ti2 Ga2 Ge2 Rh10'
_cell_volume   222.68624078
_cell_formula_units_Z   2
loop_
 _symmetry_equiv_pos_site_id
 _symmetry_equiv_pos_as_xyz
  1  'x, y, z'
loop_
 _atom_site_type_symbol
 _atom_site_label
 _atom_site_symmetry_multiplicity
 _atom_site_fract_x
 _atom_site_fract_y
 _atom_site_fract_z
 _atom_site_occupancy
  Ti  Ti0  1  0.50000000  0.83891549  0.36193635  1
  Ti  Ti1  1  0.50000000  0.33891549  0.13806365  1
  Ga  Ga0  1  0.50000000  0.14487527  0.64592913  1
  Ga  Ga1  1  0.50000000  0.64487527  0.85407087  1
  Ge  Ge0  1  0.00000000  0.52618183  0.49421306  1
  Ge  Ge1  1  0.00000000  0.02618183  0.00578694  1
  Rh  Rh0  1  0.00000000  0.38667982  0.72694271  1
  Rh  Rh1  1  0.00000000  0.07913511  0.24781145  1
  Rh  Rh2  1  0.00000000  0.88667982  0.77305729  1
  Rh  Rh3  1  0.50000000  0.82173039  0.11023076  1
  Rh  Rh4  1  0.50000000  0.17983826  0.89337083  1
  Rh  Rh5  1  0.50000000  0.67983826  0.60662917  1
  Rh  Rh6  1  0.00000000  0.02264283  0.50778870  1
  Rh  Rh7  1  0.50000000  0.32173039  0.38976924  1
  Rh  Rh8  1  0.00000000  0.52264283  0.99221130  1
  Rh  Rh9  1  0.00000000  0.57913511  0.25218855  1
loop_
_geom_bond_atom_site_label_1
_geom_bond_atom_site_label_2
_geom_bond_distance
_geom_bond_site_symmetry_2
Ga0 Rh5 2.522921 1_545
Ga0 Rh0 2.531244 1_655
Ga0 Rh0 2.531244 1_555
Ga0 Rh6 2.550342 1_555
Ga0 Rh6 2.550342 1_655
Ga0 Rh4 2.571376 1_555
Ga0 Rh2 2.770047 1_645
Ga0 Rh2 2.770047 1_545
Ga0 Rh7 2.818714 1_555
Ga0 Rh5 2.893027 1_555
Ga1 Rh4 2.522921 1_555
Ga1 Rh2 2.531244 1_555
Ga1 Rh2 2.531244 1_655
Ga1 Rh8 2.550342 1_655
Ga1 Rh8 2.550342 1_555
Ga1 Rh5 2.571376 1_555
Ga1 Rh0 2.770047 1_655
Ga1 Rh0 2.770047 1_555
Ga1 Rh3 2.818714 1_556
Ga1 Rh4 2.893027 1_565
Ge0 Rh5 2.461790 1_555
Ge0 Rh5 2.461790 1_455
Ge0 Rh9 2.524379 1_555
Ge0 Rh0 2.525066 1_555
Ge0 Rh7 2.529057 1_455
Ge0 Rh7 2.529057 1_555
Ge0 Rh6 2.661790 1_565
Ge0 Rh6 2.699634 1_555
Ge0 Ti0 2.951136 1_455
Ge0 Ti0 2.951136 1_555
Ge1 Rh4 2.461790 1_454
Ge1 Rh4 2.461790 1_554
Ge1 Rh1 2.524379 1_555
Ge1 Rh2 2.525066 1_544
Ge1 Rh3 2.529057 1_545
Ge1 Rh3 2.529057 1_445
Ge1 Rh8 2.661790 1_554
Ge1 Rh8 2.699634 1_544
Ge1 Ti1 2.951136 1_555
Ge1 Ti1 2.951136 1_455
Rh1 Ti0 2.660706 1_545
Rh1 Ti0 2.660706 1_445
Rh1 Ti1 2.693410 1_455
Rh1 Ti1 2.693410 1_555
Rh3 Ti1 2.601053 1_555
Rh3 Ti0 2.610368 1_555
Rh3 Ti1 2.784012 1_565
Rh4 Ti1 2.675260 1_556
Rh5 Ti0 2.675260 1_555
Rh6 Ti0 2.697934 1_545
Rh6 Ti0 2.697934 1_445
Rh7 Ti0 2.601053 1_545
Rh7 Ti1 2.610368 1_555
Rh7 Ti0 2.784012 1_555
Rh8 Ti1 2.697934 1_456
Rh8 Ti1 2.697934 1_556
Rh9 Ti1 2.660706 1_555
Rh9 Ti1 2.660706 1_455
Rh9 Ti0 2.693410 1_555
Rh9 Ti0 2.693410 1_455
