# generated using pymatgen
data_K2RbCu3P2
_symmetry_space_group_name_H-M   'P 1'
_cell_length_a   7.46094416
_cell_length_b   7.46094423
_cell_length_c   7.46094359
_cell_angle_alpha   45.06031248
_cell_angle_beta   45.06031265
_cell_angle_gamma   45.06031342
_symmetry_Int_Tables_number   1
_chemical_formula_structural   K2RbCu3P2
_chemical_formula_sum   'K2 Rb1 Cu3 P2'
_cell_volume   189.42938800
_cell_formula_units_Z   1
loop_
 _symmetry_equiv_pos_site_id
 _symmetry_equiv_pos_as_xyz
  1  'x, y, z'
loop_
 _atom_site_type_symbol
 _atom_site_label
 _atom_site_symmetry_multiplicity
 _atom_site_fract_x
 _atom_site_fract_y
 _atom_site_fract_z
 _atom_site_occupancy
  K  K0  1  0.90892323  0.90892323  0.90892323  1
  K  K1  1  0.09107677  0.09107677  0.09107677  1
  Rb  Rb0  1  0.50000000  0.50000000  0.50000000  1
  Cu  Cu0  1  0.00000000  0.50000000  0.50000000  1
  Cu  Cu1  1  0.50000000  0.50000000  0.00000000  1
  Cu  Cu2  1  0.50000000  0.00000000  0.50000000  1
  P  P0  1  0.25840654  0.25840654  0.25840654  1
  P  P1  1  0.74159346  0.74159346  0.74159346  1
loop_
_geom_bond_atom_site_label_1
_geom_bond_atom_site_label_2
_geom_bond_distance
_geom_bond_site_symmetry_2
K0 P0 3.316946 1_665
K0 P0 3.316946 1_656
K0 P0 3.316946 1_566
K0 P1 3.358779 1_555
K0 Rb0 3.633076 1_565
K0 Rb0 3.633076 1_655
K0 Rb0 3.633076 1_556
K1 P1 3.316946 1_445
K1 P1 3.316946 1_454
K1 P1 3.316946 1_544
K1 P0 3.358779 1_555
K1 Rb0 3.633076 1_545
K1 Rb0 3.633076 1_455
K1 Rb0 3.633076 1_554
Cu0 P1 2.232991 1_455
Cu0 P0 2.232991 1_555
Cu0 K1 3.393372 1_556
Cu0 K0 3.393372 1_454
Cu0 K1 3.393372 1_565
Cu0 K0 3.393372 1_445
Cu0 Rb0 3.730472 1_555
Cu0 Rb0 3.730472 1_455
Cu1 P1 2.232991 1_554
Cu1 P0 2.232991 1_555
Cu1 K1 3.393372 1_655
Cu1 K0 3.393372 1_454
Cu1 K1 3.393372 1_565
Cu1 K0 3.393372 1_544
Cu1 Rb0 3.730472 1_555
Cu1 Rb0 3.730472 1_554
Cu2 P1 2.232991 1_545
Cu2 P0 2.232991 1_555
Cu2 K1 3.393372 1_556
Cu2 K0 3.393372 1_544
Cu2 K1 3.393372 1_655
Cu2 K0 3.393372 1_445
Cu2 Rb0 3.730472 1_545
Cu2 Rb0 3.730472 1_555
P0 Rb0 3.779957 1_554
P0 Rb0 3.779957 1_455
P0 Rb0 3.779958 1_545
P1 Rb0 3.779957 1_556
P1 Rb0 3.779957 1_655
P1 Rb0 3.779958 1_565
