# generated using pymatgen
data_YLu4Ga2Sb
_symmetry_space_group_name_H-M   'P 1'
_cell_length_a   8.47428075
_cell_length_b   8.51023710
_cell_length_c   6.37839475
_cell_angle_alpha   90.00000000
_cell_angle_beta   90.00000000
_cell_angle_gamma   120.14044556
_symmetry_Int_Tables_number   1
_chemical_formula_structural   YLu4Ga2Sb
_chemical_formula_sum   'Y2 Lu8 Ga4 Sb2'
_cell_volume   397.80493674
_cell_formula_units_Z   2
loop_
 _symmetry_equiv_pos_site_id
 _symmetry_equiv_pos_as_xyz
  1  'x, y, z'
loop_
 _atom_site_type_symbol
 _atom_site_label
 _atom_site_symmetry_multiplicity
 _atom_site_fract_x
 _atom_site_fract_y
 _atom_site_fract_z
 _atom_site_occupancy
  Y  Y0  1  0.76468620  0.75011233  0.25000000  1
  Y  Y1  1  0.76468620  0.01457387  0.75000000  1
  Lu  Lu0  1  0.31235412  0.65617706  0.00000000  1
  Lu  Lu1  1  0.66889626  0.33444763  0.50000000  1
  Lu  Lu2  1  0.66889626  0.33444763  0.00000000  1
  Lu  Lu3  1  0.31235412  0.65617706  0.50000000  1
  Lu  Lu4  1  0.23362785  0.00092408  0.25000000  1
  Lu  Lu5  1  0.23362785  0.23270177  0.75000000  1
  Lu  Lu6  1  0.01579598  0.76532277  0.75000000  1
  Lu  Lu7  1  0.01579598  0.25047320  0.25000000  1
  Ga  Ga0  1  0.00021804  0.40193827  0.75000000  1
  Ga  Ga1  1  0.00021804  0.59828077  0.25000000  1
  Ga  Ga2  1  0.39990441  0.39485029  0.25000000  1
  Ga  Ga3  1  0.39990441  0.00505411  0.75000000  1
  Sb  Sb0  1  0.60451816  0.99714075  0.25000000  1
  Sb  Sb1  1  0.60451816  0.60737741  0.75000000  1
loop_
_geom_bond_atom_site_label_1
_geom_bond_atom_site_label_2
_geom_bond_distance
_geom_bond_site_symmetry_2
Lu0 Sb1 3.142894 1_554
Lu0 Sb0 3.142895 1_555
Lu1 Sb0 3.083472 1_545
Lu1 Sb1 3.083479 1_555
Lu2 Sb0 3.083472 1_545
Lu2 Sb1 3.083479 1_554
Lu3 Sb1 3.142894 1_555
Lu3 Sb0 3.142895 1_555
Lu4 Sb0 3.159318 1_545
Lu5 Sb1 3.159327 1_555
Lu6 Sb1 3.041269 1_455
Lu7 Sb0 3.041270 1_445
Ga0 Y1 2.871143 1_455
Ga0 Lu0 2.910909 1_556
Ga0 Lu3 2.910909 1_555
Ga0 Lu5 2.974485 1_555
Ga0 Lu1 3.022649 1_455
Ga0 Lu2 3.022649 1_456
Ga0 Lu6 3.028355 1_555
Ga0 Lu7 3.467106 1_556
Ga0 Lu7 3.467106 1_555
Ga1 Y0 2.871136 1_455
Ga1 Lu3 2.910911 1_555
Ga1 Lu0 2.910911 1_555
Ga1 Lu4 2.974465 1_565
Ga1 Lu1 3.022654 1_455
Ga1 Lu2 3.022654 1_455
Ga1 Lu7 3.028363 1_555
Ga1 Lu6 3.467103 1_555
Ga1 Lu6 3.467103 1_554
Ga2 Lu7 2.844043 1_555
Ga2 Lu4 2.912093 1_555
Ga2 Lu1 3.029834 1_555
Ga2 Lu2 3.029834 1_555
Ga2 Y0 3.051389 1_555
Ga2 Lu3 3.113868 1_555
Ga2 Lu0 3.113868 1_555
Ga2 Lu5 3.479654 1_554
Ga2 Lu5 3.479654 1_555
Ga3 Lu6 2.844043 1_545
Ga3 Lu5 2.912077 1_555
Ga3 Lu2 3.029830 1_556
Ga3 Lu1 3.029830 1_555
Ga3 Y1 3.051388 1_555
Ga3 Lu0 3.113868 1_546
Ga3 Lu3 3.113868 1_545
Ga3 Lu4 3.479651 1_556
Ga3 Lu4 3.479651 1_555
Sb0 Y0 3.021153 1_555
Sb0 Y1 3.439921 1_565
Sb0 Y1 3.439921 1_564
Sb1 Y1 3.021153 1_565
Sb1 Y0 3.439921 1_556
Sb1 Y0 3.439921 1_555
