# generated using pymatgen
data_Ti3BeSi5W7
_symmetry_space_group_name_H-M   'P 1'
_cell_length_a   7.25477796
_cell_length_b   7.25477952
_cell_length_c   7.21784719
_cell_angle_alpha   96.39462810
_cell_angle_beta   96.62125979
_cell_angle_gamma   140.75723206
_symmetry_Int_Tables_number   1
_chemical_formula_structural   Ti3BeSi5W7
_chemical_formula_sum   'Ti3 Be1 Si5 W7'
_cell_volume   226.21721177
_cell_formula_units_Z   1
loop_
 _symmetry_equiv_pos_site_id
 _symmetry_equiv_pos_as_xyz
  1  'x, y, z'
loop_
 _atom_site_type_symbol
 _atom_site_label
 _atom_site_symmetry_multiplicity
 _atom_site_fract_x
 _atom_site_fract_y
 _atom_site_fract_z
 _atom_site_occupancy
  Ti  Ti0  1  0.72644380  0.58079066  0.29708190  1
  Ti  Ti1  1  0.28371077  0.42936190  0.70291910  1
  Ti  Ti2  1  0.75065476  0.25065376  0.50000000  1
  Be  Be0  1  0.75385564  0.75385564  0.00000000  1
  Si  Si0  1  0.24514146  0.24514046  0.00000100  1
  Si  Si1  1  0.33348721  0.16616559  0.49590843  1
  Si  Si2  1  0.82685752  0.33179514  0.16357465  1
  Si  Si3  1  0.16822049  0.66328287  0.83642335  1
  Si  Si4  1  0.67025616  0.83757878  0.50409157  1
  W  W0  1  0.24831032  0.74831032  0.50000000  1
  W  W1  1  0.57742370  0.28581083  0.85245875  1
  W  W2  1  0.43335308  0.72496495  0.14754025  1
  W  W3  1  0.77741700  0.07404630  0.85417270  1
  W  W4  1  0.92099953  0.77162318  0.70762921  1
  W  W5  1  0.06399397  0.21337232  0.29237179  1
  W  W6  1  0.21987660  0.92324529  0.14582830  1
loop_
_geom_bond_atom_site_label_1
_geom_bond_atom_site_label_2
_geom_bond_distance
_geom_bond_site_symmetry_2
Ti0 W4 2.790110 1_555
Ti0 W6 2.812209 1_655
Ti0 W6 2.865971 1_545
Ti0 W0 3.025528 1_655
Ti0 Ti2 3.047300 1_555
Ti0 W5 3.115364 1_665
Ti0 W2 3.153939 1_555
Ti0 W1 3.183398 1_554
Ti0 W5 3.209788 1_555
Ti1 W5 2.790110 1_555
Ti1 W3 2.812201 1_565
Ti1 W3 2.865979 1_455
Ti1 W0 3.025542 1_555
Ti1 Ti2 3.047303 1_455
Ti1 W4 3.115342 1_555
Ti1 W1 3.153928 1_555
Ti1 W2 3.183387 1_556
Ti1 W4 3.209775 1_445
Ti2 W0 2.424757 1_655
Ti2 W0 2.447598 1_545
Be0 Si0 2.393714 1_665
Be0 Si0 2.478641 1_555
Be0 W4 2.519705 1_554
Be0 W5 2.519717 1_665
Be0 W2 2.539744 1_555
Be0 W1 2.539755 1_554
Be0 W3 2.550317 1_564
Be0 W6 2.550333 1_655
Be0 Ti1 2.554441 1_554
Be0 Ti0 2.554453 1_555
Si0 W4 2.551909 1_444
Si0 W5 2.551913 1_555
Si0 W6 2.554215 1_545
Si0 W3 2.554221 1_454
Si0 W1 2.567606 1_554
Si0 W2 2.567606 1_555
Si0 Ti0 2.580682 1_555
Si0 Ti1 2.580689 1_554
Si1 W6 2.539264 1_545
Si1 Ti1 2.562389 1_555
Si1 W1 2.565364 1_555
Si1 W5 2.566094 1_555
Si1 Ti2 2.576434 1_555
Si1 W0 2.587467 1_545
Si1 Ti0 2.775800 1_445
Si1 W4 2.792768 1_555
Si1 Ti0 2.803069 1_555
Si1 W4 2.871358 1_445
Si2 W1 2.527745 1_554
Si2 W3 2.541394 1_554
Si2 Ti0 2.556331 1_555
Si2 W5 2.580791 1_655
Si2 Ti2 2.583126 1_555
Si2 W0 2.591998 1_655
Si2 W6 2.785890 1_545
Si2 W6 2.795315 1_655
Si2 W2 2.808508 1_545
Si2 W2 2.874095 1_655
Si3 W2 2.527755 1_556
Si3 W6 2.541403 1_556
Si3 Ti1 2.556336 1_555
Si3 W4 2.580797 1_455
Si3 Ti2 2.583116 1_455
Si3 W0 2.591984 1_555
Si3 W3 2.785909 1_455
Si3 W3 2.795311 1_565
Si3 W1 2.808512 1_455
Si3 W1 2.874084 1_565
Si4 W3 2.539263 1_565
Si4 Ti0 2.562403 1_555
Si4 W2 2.565366 1_555
Si4 W4 2.566092 1_555
Si4 Ti2 2.576417 1_565
Si4 W0 2.587459 1_555
Si4 Ti1 2.775801 1_555
Si4 W5 2.792769 1_665
Si4 Ti1 2.803078 1_665
Si4 W5 2.871350 1_555
