# generated using pymatgen
data_CrAgPtS4
_symmetry_space_group_name_H-M   'P 1'
_cell_length_a   7.21125911
_cell_length_b   7.21125940
_cell_length_c   7.10612059
_cell_angle_alpha   60.48113566
_cell_angle_beta   60.48113437
_cell_angle_gamma   60.98072359
_symmetry_Int_Tables_number   1
_chemical_formula_structural   CrAgPtS4
_chemical_formula_sum   'Cr2 Ag2 Pt2 S8'
_cell_volume   265.10799153
_cell_formula_units_Z   2
loop_
 _symmetry_equiv_pos_site_id
 _symmetry_equiv_pos_as_xyz
  1  'x, y, z'
loop_
 _atom_site_type_symbol
 _atom_site_label
 _atom_site_symmetry_multiplicity
 _atom_site_fract_x
 _atom_site_fract_y
 _atom_site_fract_z
 _atom_site_occupancy
  Cr  Cr0  1  0.12500000  0.12500000  0.12500000  1
  Cr  Cr1  1  0.12500000  0.12500000  0.62500000  1
  Ag  Ag0  1  0.50889181  0.50889181  0.49110819  1
  Ag  Ag1  1  0.74110819  0.74110819  0.75889181  1
  Pt  Pt0  1  0.62500000  0.12500000  0.12500000  1
  Pt  Pt1  1  0.12500000  0.62500000  0.12500000  1
  S  S0  1  0.36204265  0.36204265  0.35742658  1
  S  S1  1  0.32988806  0.89008977  0.89001109  1
  S  S2  1  0.88795735  0.88795735  0.33151189  1
  S  S3  1  0.89008977  0.32988806  0.89001109  1
  S  S4  1  0.36204265  0.36204265  0.91848811  1
  S  S5  1  0.35991023  0.92011194  0.35998891  1
  S  S6  1  0.88795735  0.88795735  0.89257342  1
  S  S7  1  0.92011194  0.35991023  0.35998891  1
loop_
_geom_bond_atom_site_label_1
_geom_bond_atom_site_label_2
_geom_bond_distance
_geom_bond_site_symmetry_2
Cr0 S5 2.401875 1_545
Cr0 S3 2.401875 1_454
Cr0 S7 2.401875 1_455
Cr0 S1 2.401875 1_544
Cr0 S4 2.426630 1_554
Cr0 S2 2.426630 1_445
Cr1 S3 2.401875 1_455
Cr1 S5 2.401875 1_545
Cr1 S1 2.401875 1_545
Cr1 S7 2.401875 1_455
Cr1 S0 2.426630 1_555
Cr1 S6 2.426630 1_445
Ag0 S7 2.447199 1_555
Ag0 S5 2.447199 1_555
Ag0 S4 2.493163 1_555
Ag0 S0 2.493163 1_555
Ag1 S1 2.447199 1_555
Ag1 S3 2.447199 1_555
Ag1 S2 2.493163 1_555
Ag1 S6 2.493163 1_555
Pt0 S3 2.406076 1_554
Pt0 S5 2.406076 1_545
Pt0 S2 2.407633 1_545
Pt0 S0 2.407633 1_555
Pt0 S4 2.407633 1_554
Pt0 S6 2.407633 1_544
Pt1 S1 2.406076 1_554
Pt1 S7 2.406076 1_455
Pt1 S2 2.407633 1_455
Pt1 S0 2.407633 1_555
Pt1 S4 2.407633 1_554
Pt1 S6 2.407633 1_454
