# generated using pymatgen
data_Y2NiB8Rh
_symmetry_space_group_name_H-M   'P 1'
_cell_length_a   6.89322831
_cell_length_b   6.89322808
_cell_length_c   6.89322790
_cell_angle_alpha   111.24689003
_cell_angle_beta   113.50821507
_cell_angle_gamma   103.81171723
_symmetry_Int_Tables_number   1
_chemical_formula_structural   Y2NiB8Rh
_chemical_formula_sum   'Y4 Ni2 B16 Rh2'
_cell_volume   250.21338367
_cell_formula_units_Z   2
loop_
 _symmetry_equiv_pos_site_id
 _symmetry_equiv_pos_as_xyz
  1  'x, y, z'
loop_
 _atom_site_type_symbol
 _atom_site_label
 _atom_site_symmetry_multiplicity
 _atom_site_fract_x
 _atom_site_fract_y
 _atom_site_fract_z
 _atom_site_occupancy
  Y  Y0  1  0.79151669  0.79151669  1.00000000  1
  Y  Y1  1  0.20848331  0.20848331  0.00000000  1
  Y  Y2  1  0.75291078  0.25291078  0.50000000  1
  Y  Y3  1  0.24708922  0.74708922  0.50000000  1
  Ni  Ni0  1  0.50000000  0.74435513  0.24435513  1
  Ni  Ni1  1  0.50000000  0.25564487  0.75564487  1
  B  B0  1  0.27293425  0.10895704  0.38189130  1
  B  B1  1  0.72706575  0.89104296  0.61810870  1
  B  B2  1  0.27293425  0.89104296  0.16397721  1
  B  B3  1  0.72706575  0.10895704  0.83602279  1
  B  B4  1  0.11138484  0.72870183  0.84008767  1
  B  B5  1  0.88861516  0.27129817  0.15991233  1
  B  B6  1  0.11138484  0.27129817  0.38268401  1
  B  B7  1  0.88861516  0.72870183  0.61731599  1
  B  B8  1  0.11584074  0.11010736  0.52965493  1
  B  B9  1  0.58045143  0.58618381  0.47034507  1
  B  B10  1  0.11584074  0.58618381  0.00573338  1
  B  B11  1  0.58045143  0.11010736  0.99426662  1
  B  B12  1  0.88415926  0.88989264  0.47034507  1
  B  B13  1  0.41954857  0.41381619  0.52965493  1
  B  B14  1  0.88415926  0.41381619  0.99426662  1
  B  B15  1  0.41954857  0.88989264  0.00573338  1
  Rh  Rh0  1  0.27889614  0.50000000  0.77889614  1
  Rh  Rh1  1  0.72110386  0.50000000  0.22110386  1
loop_
_geom_bond_atom_site_label_1
_geom_bond_atom_site_label_2
_geom_bond_distance
_geom_bond_site_symmetry_2
Ni0 Rh0 2.531952 1_554
Ni0 Rh1 2.531952 1_555
Ni0 Y2 2.930463 1_565
Ni0 Y3 2.930463 1_555
Ni0 Y1 3.125082 1_555
Ni0 Y0 3.125082 1_554
Ni1 Rh1 2.531952 1_556
Ni1 Rh0 2.531952 1_555
Ni1 Y3 2.930463 1_545
Ni1 Y2 2.930463 1_555
Ni1 Y0 3.125082 1_555
Ni1 Y1 3.125082 1_556
B0 B2 1.696295 1_545
B0 B6 1.757224 1_555
B0 B8 1.757369 1_555
B0 B13 1.757381 1_555
B0 Ni1 2.061357 1_555
B0 Y0 2.849456 1_444
B0 Y1 2.849456 1_555
B0 Y3 2.879624 1_545
B0 Y2 2.879624 1_555
B1 B3 1.696295 1_565
B1 B7 1.757224 1_555
B1 B12 1.757369 1_555
B1 B9 1.757381 1_555
B1 Ni0 2.061357 1_555
B1 Y1 2.849456 1_666
B1 Y0 2.849456 1_555
B1 Y2 2.879624 1_565
B1 Y3 2.879624 1_555
B2 B4 1.757219 1_554
B2 Ni0 2.061357 1_555
B2 Y1 2.849456 1_565
B2 Y0 2.849456 1_454
B2 Y2 2.879624 1_565
B2 Y3 2.879624 1_555
B3 B5 1.757219 1_556
B3 Ni1 2.061357 1_555
B3 Y0 2.849456 1_545
B3 Y1 2.849456 1_656
B3 Y3 2.879624 1_545
B3 Y2 2.879624 1_555
B4 B7 1.683744 1_455
B4 Rh0 2.184566 1_555
B4 Y2 2.880110 1_455
B4 Y3 2.880116 1_555
B4 Y0 2.883254 1_455
B4 Y1 2.883259 1_566
B5 B6 1.683744 1_655
B5 Rh1 2.184566 1_555
B5 Y3 2.880110 1_655
B5 Y2 2.880116 1_555
B5 Y1 2.883254 1_655
B5 Y0 2.883259 1_544
B6 B8 1.751931 1_555
B6 Rh0 2.184560 1_555
B6 Y2 2.880105 1_455
B6 Y3 2.880111 1_555
B6 Y0 2.883259 1_444
B6 Y1 2.883265 1_555
B7 B9 1.751944 1_555
B7 Rh1 2.184560 1_555
B7 Y3 2.880105 1_655
B7 Y2 2.880111 1_555
B7 Y1 2.883259 1_666
B7 Y0 2.883265 1_555
B8 Ni1 2.180263 1_555
B8 Rh0 2.260279 1_555
B8 Y1 2.815578 1_556
B8 Y3 2.824873 1_545
B8 Y2 2.860644 1_455
B8 Y0 2.912710 1_444
B9 Ni0 2.180274 1_555
B9 Rh1 2.260283 1_555
B9 Y1 2.815572 1_555
B9 Y3 2.824875 1_555
B9 Y2 2.860635 1_555
B9 Y0 2.912708 1_555
B10 B14 1.701096 1_454
B10 B4 1.751941 1_554
B10 B2 1.757380 1_555
B10 Ni0 2.180262 1_555
B10 Rh0 2.260277 1_554
B10 Y1 2.815565 1_555
B10 Y3 2.824871 1_555
B10 Y2 2.860642 1_454
B10 Y0 2.912720 1_454
B11 B15 1.701102 1_546
B11 B5 1.751942 1_556
B11 B3 1.757374 1_555
B11 Ni1 2.180263 1_555
B11 Rh1 2.260278 1_556
B11 Y1 2.815571 1_556
B11 Y3 2.824872 1_545
B11 Y2 2.860643 1_556
B11 Y0 2.912715 1_545
B12 B8 1.701108 1_665
B12 B7 1.751931 1_555
B12 Ni0 2.180263 1_555
B12 Rh1 2.260279 1_555
B12 Y0 2.815578 1_554
B12 Y2 2.824873 1_565
B12 Y3 2.860644 1_655
B12 Y1 2.912710 1_666
B13 B9 1.701083 1_555
B13 B6 1.751944 1_555
B13 Ni1 2.180274 1_555
B13 Rh0 2.260283 1_555
B13 Y0 2.815572 1_555
B13 Y2 2.824875 1_555
B13 Y3 2.860635 1_555
B13 Y1 2.912708 1_555
B14 B5 1.751941 1_556
B14 B3 1.757380 1_555
B14 Ni1 2.180262 1_555
B14 Rh1 2.260277 1_556
B14 Y0 2.815565 1_555
B14 Y2 2.824871 1_555
B14 Y3 2.860642 1_656
B14 Y1 2.912720 1_656
B15 B4 1.751942 1_554
B15 B2 1.757374 1_555
B15 Ni0 2.180263 1_555
B15 Rh0 2.260278 1_554
B15 Y0 2.815571 1_554
B15 Y2 2.824872 1_565
B15 Y3 2.860643 1_554
B15 Y1 2.912715 1_565
Rh0 Y3 2.976640 1_555
Rh0 Y2 2.976640 1_455
Rh0 Y1 2.990119 1_556
Rh0 Y0 2.990119 1_555
Rh1 Y2 2.976640 1_555
Rh1 Y3 2.976640 1_655
Rh1 Y0 2.990119 1_554
Rh1 Y1 2.990119 1_555
