# generated using pymatgen
data_LiCa2ReH6
_symmetry_space_group_name_H-M   'P 1'
_cell_length_a   5.18643012
_cell_length_b   5.18644403
_cell_length_c   5.18644487
_cell_angle_alpha   59.99960270
_cell_angle_beta   60.00010278
_cell_angle_gamma   89.99997330
_symmetry_Int_Tables_number   1
_chemical_formula_structural   LiCa2ReH6
_chemical_formula_sum   'Li1 Ca2 Re1 H6'
_cell_volume   98.64865359
_cell_formula_units_Z   1
loop_
 _symmetry_equiv_pos_site_id
 _symmetry_equiv_pos_as_xyz
  1  'x, y, z'
loop_
 _atom_site_type_symbol
 _atom_site_label
 _atom_site_symmetry_multiplicity
 _atom_site_fract_x
 _atom_site_fract_y
 _atom_site_fract_z
 _atom_site_occupancy
  Li  Li0  1  0.50000493  0.50000106  0.99999693  1
  Ca  Ca0  1  0.25000155  0.74999897  0.50000160  1
  Ca  Ca1  1  0.75000409  0.24999896  0.49999947  1
  Re  Re0  1  0.99999060  0.00001431  0.99999077  1
  H  H0  1  0.24218025  0.24217746  0.00000272  1
  H  H1  1  0.75782105  0.24217781  0.00000276  1
  H  H2  1  0.24218118  0.75782066  0.00000181  1
  H  H3  1  0.75782228  0.75782048  0.00000179  1
  H  H4  1  0.75782396  0.75782103  0.48435664  1
  H  H5  1  0.24218110  0.24217827  0.51564050  1
loop_
_geom_bond_atom_site_label_1
_geom_bond_atom_site_label_2
_geom_bond_distance
_geom_bond_site_symmetry_2
Ca0 H0 2.593838 1_565
Ca0 H1 2.593838 1_565
Ca0 H0 2.593844 1_556
Ca0 H1 2.593847 1_456
Ca0 H4 2.593849 1_555
Ca0 H4 2.593850 1_455
Ca0 H5 2.593850 1_565
Ca0 H2 2.593852 1_555
Ca0 H3 2.593854 1_555
Ca0 H3 2.593860 1_456
Ca0 H2 2.593862 1_556
Ca0 H5 2.593862 1_555
Ca1 H5 2.593837 1_655
Ca1 H3 2.593839 1_546
Ca1 H2 2.593840 1_655
Ca1 H0 2.593843 1_655
Ca1 H3 2.593844 1_555
Ca1 H2 2.593846 1_546
Ca1 H1 2.593851 1_555
Ca1 H4 2.593854 1_545
Ca1 H4 2.593859 1_555
Ca1 H5 2.593862 1_555
Ca1 H1 2.593862 1_556
Ca1 H0 2.593871 1_556
H0 Re0 1.776343 1_454
H0 Li0 1.891050 1_554
H1 Re0 1.776226 1_554
H1 Li0 1.891037 1_554
H2 Re0 1.776413 1_464
H2 Li0 1.891052 1_554
H3 Re0 1.776293 1_564
H3 Li0 1.891046 1_554
H4 Re0 1.776342 1_564
H4 Li0 1.891036 1_555
H5 Re0 1.776284 1_455
H5 Li0 1.891048 1_554
