# generated using pymatgen
data_K2V5CoSe6
_symmetry_space_group_name_H-M   'P 1'
_cell_length_a   8.93099798
_cell_length_b   9.06937307
_cell_length_c   4.36215839
_cell_angle_alpha   90.00000000
_cell_angle_beta   90.00000000
_cell_angle_gamma   118.81791532
_symmetry_Int_Tables_number   1
_chemical_formula_structural   K2V5CoSe6
_chemical_formula_sum   'K2 V5 Co1 Se6'
_cell_volume   309.57090009
_cell_formula_units_Z   1
loop_
 _symmetry_equiv_pos_site_id
 _symmetry_equiv_pos_as_xyz
  1  'x, y, z'
loop_
 _atom_site_type_symbol
 _atom_site_label
 _atom_site_symmetry_multiplicity
 _atom_site_fract_x
 _atom_site_fract_y
 _atom_site_fract_z
 _atom_site_occupancy
  K  K0  1  0.32378640  0.66809762  0.25000000  1
  K  K1  1  0.67998802  0.34502362  0.75000000  1
  V  V0  1  0.16625796  0.20432058  0.25000000  1
  V  V1  1  0.02157513  0.86317391  0.25000000  1
  V  V2  1  0.81127503  0.96068315  0.25000000  1
  V  V3  1  0.19118422  0.02875905  0.75000000  1
  V  V4  1  0.97309536  0.12992793  0.75000000  1
  Co  Co0  1  0.84395657  0.81450971  0.75000000  1
  Se  Se0  1  0.35126025  0.05856472  0.25000000  1
  Se  Se1  1  0.93186703  0.28105397  0.25000000  1
  Se  Se2  1  0.70644971  0.64991341  0.25000000  1
  Se  Se3  1  0.29366393  0.34865078  0.75000000  1
  Se  Se4  1  0.05325083  0.71709348  0.75000000  1
  Se  Se5  1  0.65238756  0.93022606  0.75000000  1
loop_
_geom_bond_atom_site_label_1
_geom_bond_atom_site_label_2
_geom_bond_distance
_geom_bond_site_symmetry_2
K0 Se0 3.429761 1_565
K0 Se4 3.439100 1_554
K0 Se4 3.439100 1_555
K0 Se2 3.500045 1_555
K0 Se5 3.506486 1_554
K0 Se5 3.506486 1_555
K0 Se3 3.531537 1_555
K0 Se3 3.531537 1_554
K0 Se1 3.567689 1_455
K1 Se1 3.378206 1_555
K1 Se1 3.378206 1_556
K1 Se4 3.413953 1_655
K1 Se2 3.439341 1_556
K1 Se2 3.439341 1_555
K1 Se3 3.466236 1_555
K1 Se0 3.573907 1_556
K1 Se0 3.573907 1_555
K1 Se5 3.649530 1_545
Co0 Se5 2.399915 1_555
Co0 Se4 2.422107 1_655
Co0 V4 2.516502 1_565
Co0 Se2 2.593516 1_556
Co0 Se2 2.593516 1_555
Co0 V1 2.606400 1_656
Co0 V1 2.606400 1_655
Co0 V2 2.640610 1_556
Co0 V2 2.640610 1_555
Co0 V3 2.753773 1_665
Se0 V3 2.549800 1_554
Se0 V3 2.549800 1_555
Se0 V0 2.565743 1_555
Se0 V1 2.603778 1_545
Se1 V0 2.504166 1_655
Se1 V2 2.566205 1_545
Se1 V4 2.694033 1_555
Se1 V4 2.694033 1_554
Se2 V2 2.505299 1_555
Se2 V1 2.532569 1_655
Se3 V0 2.515824 1_555
Se3 V0 2.515824 1_556
Se3 V4 2.580040 1_455
Se3 V3 2.587442 1_555
Se4 V3 2.479995 1_565
Se4 V1 2.636989 1_555
Se4 V1 2.636989 1_556
Se5 V2 2.543453 1_556
Se5 V2 2.543453 1_555
Se5 V4 2.546184 1_565
