# generated using pymatgen
data_Rb3Li2TiP3
_symmetry_space_group_name_H-M   'P 1'
_cell_length_a   10.04395115
_cell_length_b   10.04395276
_cell_length_c   15.20960803
_cell_angle_alpha   90.00000000
_cell_angle_beta   90.00000000
_cell_angle_gamma   143.01909280
_symmetry_Int_Tables_number   1
_chemical_formula_structural   Rb3Li2TiP3
_chemical_formula_sum   'Rb12 Li8 Ti4 P12'
_cell_volume   922.99252159
_cell_formula_units_Z   4
loop_
 _symmetry_equiv_pos_site_id
 _symmetry_equiv_pos_as_xyz
  1  'x, y, z'
loop_
 _atom_site_type_symbol
 _atom_site_label
 _atom_site_symmetry_multiplicity
 _atom_site_fract_x
 _atom_site_fract_y
 _atom_site_fract_z
 _atom_site_occupancy
  Rb  Rb0  1  0.94837163  0.60651864  0.82727081  1
  Rb  Rb1  1  0.55162837  0.89348136  0.32727081  1
  Rb  Rb2  1  0.39348136  0.05162837  0.17272919  1
  Rb  Rb3  1  0.05162837  0.39348136  0.17272919  1
  Rb  Rb4  1  0.89348136  0.55162837  0.32727081  1
  Rb  Rb5  1  0.44837163  0.10651864  0.67272919  1
  Rb  Rb6  1  0.60651864  0.94837163  0.82727081  1
  Rb  Rb7  1  0.28922502  0.28922502  0.31772993  1
  Rb  Rb8  1  0.78922502  0.78922502  0.18227007  1
  Rb  Rb9  1  0.21077498  0.21077498  0.81772993  1
  Rb  Rb10  1  0.71077498  0.71077498  0.68227007  1
  Rb  Rb11  1  0.10651864  0.44837163  0.67272919  1
  Li  Li0  1  0.91925615  0.08074385  0.00000000  1
  Li  Li1  1  0.58074385  0.41925615  0.50000000  1
  Li  Li2  1  0.08074385  0.91925615  0.00000000  1
  Li  Li3  1  0.41925615  0.58074385  0.50000000  1
  Li  Li4  1  0.74982518  0.25017482  0.00000000  1
  Li  Li5  1  0.75017482  0.24982518  0.50000000  1
  Li  Li6  1  0.25017482  0.74982518  0.00000000  1
  Li  Li7  1  0.24982518  0.75017482  0.50000000  1
  Ti  Ti0  1  0.58618458  0.41381542  0.00000000  1
  Ti  Ti1  1  0.91381542  0.08618458  0.50000000  1
  Ti  Ti2  1  0.41381542  0.58618458  0.00000000  1
  Ti  Ti3  1  0.08618458  0.91381542  0.50000000  1
  P  P0  1  0.88439455  0.56678915  0.08366447  1
  P  P1  1  0.43321085  0.11560545  0.91633553  1
  P  P2  1  0.61560545  0.93321085  0.58366447  1
  P  P3  1  0.93321085  0.61560545  0.58366447  1
  P  P4  1  0.11560545  0.43321085  0.91633553  1
  P  P5  1  0.56678915  0.88439455  0.08366447  1
  P  P6  1  0.38439455  0.06678915  0.41633553  1
  P  P7  1  0.21411101  0.21411101  0.58009485  1
  P  P8  1  0.71411101  0.71411101  0.91990515  1
  P  P9  1  0.28588899  0.28588899  0.08009485  1
  P  P10  1  0.06678915  0.38439455  0.41633553  1
  P  P11  1  0.78588899  0.78588899  0.41990515  1
loop_
_geom_bond_atom_site_label_1
_geom_bond_atom_site_label_2
_geom_bond_distance
_geom_bond_site_symmetry_2
Li0 P5 2.624294 1_545
Li0 P4 2.624294 1_654
Li0 P9 2.677223 1_655
Li0 P8 2.677224 1_544
Li1 P3 2.624294 1_555
Li1 P6 2.624294 1_555
Li1 P7 2.677223 1_555
Li1 P11 2.677224 1_555
Li2 P1 2.624294 1_564
Li2 P0 2.624294 1_455
Li2 P8 2.677223 1_454
Li2 P9 2.677224 1_565
Li3 P10 2.624294 1_555
Li3 P2 2.624294 1_555
Li3 P11 2.677223 1_555
Li3 P7 2.677224 1_555
Li4 P1 2.586848 1_554
Li4 P0 2.586848 1_555
Li4 P4 2.775894 1_654
Li4 P5 2.775894 1_545
Li5 P10 2.586848 1_655
Li5 P2 2.586848 1_545
Li5 P6 2.775894 1_555
Li5 P3 2.775894 1_555
Li6 P5 2.586848 1_555
Li6 P4 2.586848 1_554
Li6 P0 2.775894 1_455
Li6 P1 2.775894 1_564
Li7 P3 2.586848 1_455
Li7 P6 2.586848 1_565
Li7 P2 2.775894 1_555
Li7 P10 2.775894 1_555
P0 Ti0 2.366162 1_555
P0 Rb8 3.400919 1_555
P0 Rb2 3.451422 1_665
P0 Rb2 3.486953 1_555
P0 Rb3 3.515357 1_655
P0 Rb4 3.712399 1_555
P1 Ti0 2.366163 1_556
P1 Rb9 3.400918 1_555
P1 Rb0 3.451422 1_445
P1 Rb0 3.486953 1_555
P1 Rb6 3.515357 1_545
P1 Rb5 3.712399 1_555
P2 Ti1 2.366162 1_565
P2 Rb10 3.400919 1_555
P2 Rb11 3.451422 1_555
P2 Rb11 3.486953 1_665
P2 Rb5 3.515357 1_565
P2 Rb6 3.712399 1_555
P3 Ti3 2.366163 1_655
P3 Rb10 3.400918 1_555
P3 Rb5 3.451422 1_555
P3 Rb5 3.486953 1_665
P3 Rb11 3.515357 1_655
P3 Rb0 3.712399 1_555
P4 Ti2 2.366162 1_556
P4 Rb9 3.400919 1_555
P4 Rb6 3.451422 1_445
P4 Rb6 3.486953 1_555
P4 Rb0 3.515357 1_455
P4 Rb11 3.712399 1_555
P5 Ti2 2.366163 1_555
P5 Rb8 3.400918 1_555
P5 Rb3 3.451422 1_665
P5 Rb3 3.486953 1_555
P5 Rb2 3.515357 1_565
P5 Rb1 3.712399 1_555
P6 Ti3 2.366162 1_545
P6 Rb7 3.400919 1_555
P6 Rb4 3.451422 1_555
P6 Rb4 3.486953 1_445
P6 Rb1 3.515357 1_545
P6 Rb2 3.712399 1_555
P7 Ti1 2.457746 1_455
P7 Ti3 2.457746 1_545
P7 Rb10 3.525183 1_555
P7 Rb10 3.563386 1_445
P7 Rb5 3.570911 1_555
P7 Rb11 3.570911 1_555
P7 Rb9 3.614399 1_555
P8 Ti2 2.457746 1_556
P8 Ti0 2.457746 1_556
P8 Rb9 3.525183 1_665
P8 Rb9 3.563386 1_555
P8 Rb0 3.570911 1_555
P8 Rb6 3.570911 1_555
P8 Rb10 3.614399 1_555
P9 Ti0 2.457746 1_555
P9 Ti2 2.457746 1_555
P9 Rb8 3.525183 1_445
P9 Rb8 3.563386 1_555
P9 Rb3 3.570911 1_555
P9 Rb2 3.570911 1_555
P9 Rb7 3.614399 1_555
P10 Ti1 2.366163 1_455
P10 Rb7 3.400918 1_555
P10 Rb1 3.451422 1_555
P10 Rb1 3.486953 1_445
P10 Rb4 3.515357 1_455
P10 Rb3 3.712399 1_555
P11 Ti3 2.457746 1_655
P11 Ti1 2.457746 1_565
P11 Rb7 3.525183 1_555
P11 Rb7 3.563386 1_665
P11 Rb1 3.570911 1_555
P11 Rb4 3.570911 1_555
P11 Rb8 3.614399 1_555
