# generated using pymatgen
data_KRb3(SbPt)4
_symmetry_space_group_name_H-M   'P 1'
_cell_length_a   7.16750106
_cell_length_b   7.16750028
_cell_length_c   7.16750098
_cell_angle_alpha   89.93372633
_cell_angle_beta   90.06626938
_cell_angle_gamma   89.93372271
_symmetry_Int_Tables_number   1
_chemical_formula_structural   KRb3(SbPt)4
_chemical_formula_sum   'K1 Rb3 Sb4 Pt4'
_cell_volume   368.21576037
_cell_formula_units_Z   1
loop_
 _symmetry_equiv_pos_site_id
 _symmetry_equiv_pos_as_xyz
  1  'x, y, z'
loop_
 _atom_site_type_symbol
 _atom_site_label
 _atom_site_symmetry_multiplicity
 _atom_site_fract_x
 _atom_site_fract_y
 _atom_site_fract_z
 _atom_site_occupancy
  K  K0  1  0.86142494  0.63857506  0.36142494  1
  Rb  Rb0  1  0.63685058  0.36235249  0.86223104  1
  Rb  Rb1  1  0.36223104  0.86314942  0.63764751  1
  Rb  Rb2  1  0.13764751  0.13776896  0.13685058  1
  Sb  Sb0  1  0.15344985  0.34655015  0.65344985  1
  Sb  Sb1  1  0.65644938  0.15586647  0.34418692  1
  Sb  Sb2  1  0.34413353  0.65581308  0.15644938  1
  Sb  Sb3  1  0.84418692  0.84355062  0.84413353  1
  Pt  Pt0  1  0.60108643  0.89891357  0.10108643  1
  Pt  Pt1  1  0.09887444  0.59842817  0.90209355  1
  Pt  Pt2  1  0.40209355  0.40112556  0.40157183  1
  Pt  Pt3  1  0.90157183  0.09790645  0.59887444  1
loop_
_geom_bond_atom_site_label_1
_geom_bond_atom_site_label_2
_geom_bond_distance
_geom_bond_site_symmetry_2
K0 Pt0 3.228226 1_555
K0 Sb0 3.621140 1_655
K0 Pt3 3.719182 1_565
K0 Pt1 3.719182 1_654
K0 Pt2 3.719182 1_555
K0 Sb1 3.762492 1_555
K0 Sb3 3.762492 1_555
K0 Sb2 3.762492 1_655
Rb0 Sb2 3.644637 1_556
Rb0 Sb1 3.758947 1_556
Rb0 Sb3 3.759263 1_555
Rb0 Sb0 3.774405 1_555
Rb1 Sb1 3.644638 1_565
Rb1 Sb3 3.758947 1_555
Rb1 Sb2 3.759263 1_555
Rb1 Sb0 3.774404 1_565
Rb2 Sb3 3.644638 1_444
Rb2 Sb2 3.758946 1_545
Rb2 Sb1 3.759263 1_455
Rb2 Sb0 3.774405 1_554
Pt0 Sb3 2.567666 1_554
Pt0 Sb1 2.567666 1_565
Pt0 Sb2 2.567666 1_555
Pt0 Rb0 3.744349 1_564
Pt0 Rb2 3.744349 1_565
Pt0 Rb1 3.744350 1_554
Pt1 Sb2 2.564964 1_556
Pt1 Sb3 2.565311 1_455
Pt1 Sb0 2.568218 1_555
Pt1 Rb1 3.280854 1_555
Pt1 Rb2 3.714042 1_556
Pt1 Rb0 3.731359 1_455
Pt2 Sb1 2.564963 1_555
Pt2 Sb2 2.565311 1_555
Pt2 Sb0 2.568218 1_555
Pt2 Rb2 3.280854 1_555
Pt2 Rb0 3.714042 1_555
Pt2 Rb1 3.731359 1_555
Pt3 Sb3 2.564963 1_545
Pt3 Sb1 2.565311 1_555
Pt3 Sb0 2.568218 1_655
Pt3 Rb0 3.280854 1_555
Pt3 Rb1 3.714042 1_645
Pt3 Rb2 3.731359 1_655
