# generated using pymatgen
data_Rb12In2As5P
_symmetry_space_group_name_H-M   'P 1'
_cell_length_a   9.44621267
_cell_length_b   9.43354145
_cell_length_c   10.55929153
_cell_angle_alpha   81.79474472
_cell_angle_beta   107.15212344
_cell_angle_gamma   119.48414955
_symmetry_Int_Tables_number   1
_chemical_formula_structural   Rb12In2As5P
_chemical_formula_sum   'Rb12 In2 As5 P1'
_cell_volume   782.65839330
_cell_formula_units_Z   1
loop_
 _symmetry_equiv_pos_site_id
 _symmetry_equiv_pos_as_xyz
  1  'x, y, z'
loop_
 _atom_site_type_symbol
 _atom_site_label
 _atom_site_symmetry_multiplicity
 _atom_site_fract_x
 _atom_site_fract_y
 _atom_site_fract_z
 _atom_site_occupancy
  Rb  Rb0  1  0.73793074  0.12711557  0.61992448  1
  Rb  Rb1  1  0.25499434  0.85417763  0.39218378  1
  Rb  Rb2  1  0.96672169  0.82207369  0.62745135  1
  Rb  Rb3  1  0.02946882  0.20151776  0.39572752  1
  Rb  Rb4  1  0.62490816  0.44650664  0.39936524  1
  Rb  Rb5  1  0.40398529  0.56668176  0.59389792  1
  Rb  Rb6  1  0.86895491  0.48701304  0.13334050  1
  Rb  Rb7  1  0.11179975  0.50024071  0.84409406  1
  Rb  Rb8  1  0.75183103  0.09438910  0.98712159  1
  Rb  Rb9  1  0.23405292  0.87101486  0.00431773  1
  Rb  Rb10  1  0.55640831  0.61446637  0.94945336  1
  Rb  Rb11  1  0.24165459  0.20270392  0.10709907  1
  In  In0  1  0.58837238  0.82922687  0.25589228  1
  In  In1  1  0.41557113  0.17706681  0.75142028  1
  As  As0  1  0.29711402  0.55823816  0.22714562  1
  As  As1  1  0.70972160  0.43763653  0.76429253  1
  As  As2  1  0.59974279  0.11332484  0.26194248  1
  As  As3  1  0.38621927  0.88102186  0.74069790  1
  As  As4  1  0.86232260  0.82553032  0.24502475  1
  P  P0  1  0.16760765  0.20679257  0.76098855  1
loop_
_geom_bond_atom_site_label_1
_geom_bond_atom_site_label_2
_geom_bond_distance
_geom_bond_site_symmetry_2
In0 Rb8 3.667691 1_564
In1 P0 2.523790 1_555
In1 Rb8 3.756834 1_555
As0 In0 2.646196 1_555
As0 Rb11 3.496069 1_555
As0 Rb6 3.597565 1_455
As0 Rb4 3.653778 1_555
As0 Rb3 3.668062 1_555
As0 Rb9 3.676793 1_555
As0 Rb5 3.704840 1_555
As0 Rb1 3.725618 1_555
As0 Rb7 3.903385 1_554
As1 In1 2.632618 1_555
As1 Rb7 3.395711 1_655
As1 Rb5 3.582010 1_555
As1 Rb2 3.611149 1_555
As1 Rb0 3.641201 1_555
As1 Rb4 3.694648 1_555
As1 Rb10 3.698895 1_555
As1 Rb6 3.746514 1_556
As1 Rb8 3.836726 1_555
As2 In0 2.638135 1_545
As2 Rb1 3.509719 1_545
As2 Rb4 3.521939 1_555
As2 Rb6 3.547388 1_555
As2 Rb3 3.576925 1_655
As2 Rb9 3.608004 1_545
As2 Rb0 3.615579 1_555
As2 Rb8 3.657400 1_554
As2 Rb11 3.738713 1_555
As3 In1 2.683035 1_565
As3 Rb9 3.460500 1_556
As3 Rb8 3.478713 1_565
As3 Rb0 3.480721 1_565
As3 Rb7 3.492675 1_555
As3 Rb1 3.522777 1_555
As3 Rb2 3.559164 1_455
As3 Rb5 3.630369 1_555
As3 Rb10 3.751467 1_555
As4 In0 2.641245 1_555
As4 Rb1 3.461179 1_655
As4 Rb3 3.496022 1_665
As4 Rb10 3.584167 1_554
As4 Rb6 3.592783 1_555
As4 Rb4 3.615122 1_555
As4 Rb8 3.727755 1_564
As4 Rb2 3.863354 1_555
As4 Rb11 4.082827 1_665
P0 Rb7 3.333768 1_555
P0 Rb2 3.444416 1_445
P0 Rb11 3.510839 1_556
P0 Rb5 3.574438 1_555
P0 Rb0 3.606702 1_455
P0 Rb3 3.688262 1_555
