# generated using pymatgen
data_Y9ScCd3Ir
_symmetry_space_group_name_H-M   'P 1'
_cell_length_a   9.62189768
_cell_length_b   9.62189659
_cell_length_c   9.73780674
_cell_angle_alpha   90.00000000
_cell_angle_beta   90.00000000
_cell_angle_gamma   120.00000030
_symmetry_Int_Tables_number   1
_chemical_formula_structural   Y9ScCd3Ir
_chemical_formula_sum   'Y18 Sc2 Cd6 Ir2'
_cell_volume   780.75217203
_cell_formula_units_Z   2
loop_
 _symmetry_equiv_pos_site_id
 _symmetry_equiv_pos_as_xyz
  1  'x, y, z'
loop_
 _atom_site_type_symbol
 _atom_site_label
 _atom_site_symmetry_multiplicity
 _atom_site_fract_x
 _atom_site_fract_y
 _atom_site_fract_z
 _atom_site_occupancy
  Y  Y0  1  0.20795289  0.79204711  0.43946637  1
  Y  Y1  1  0.20795289  0.41590678  0.43946637  1
  Y  Y2  1  0.58409322  0.79204711  0.43946637  1
  Y  Y3  1  0.79204711  0.20795289  0.56053363  1
  Y  Y4  1  0.79204711  0.58409322  0.56053363  1
  Y  Y5  1  0.41590678  0.20795289  0.56053363  1
  Y  Y6  1  0.79204711  0.20795289  0.93946637  1
  Y  Y7  1  0.79204711  0.58409322  0.93946637  1
  Y  Y8  1  0.41590678  0.20795289  0.93946637  1
  Y  Y9  1  0.20795289  0.79204711  0.06053363  1
  Y  Y10  1  0.20795289  0.41590678  0.06053363  1
  Y  Y11  1  0.58409322  0.79204711  0.06053363  1
  Y  Y12  1  0.54150297  0.45849703  0.25000000  1
  Y  Y13  1  0.54150297  0.08300494  0.25000000  1
  Y  Y14  1  0.91699506  0.45849703  0.25000000  1
  Y  Y15  1  0.45849703  0.54150297  0.75000000  1
  Y  Y16  1  0.45849703  0.91699506  0.75000000  1
  Y  Y17  1  0.08300494  0.54150297  0.75000000  1
  Sc  Sc0  1  0.00000000  0.00000000  0.50000000  1
  Sc  Sc1  1  0.00000000  0.00000000  0.00000000  1
  Cd  Cd0  1  0.89030046  0.10969954  0.25000000  1
  Cd  Cd1  1  0.89030046  0.78060291  0.25000000  1
  Cd  Cd2  1  0.21939709  0.10969954  0.25000000  1
  Cd  Cd3  1  0.10969954  0.89030046  0.75000000  1
  Cd  Cd4  1  0.10969954  0.21939709  0.75000000  1
  Cd  Cd5  1  0.78060291  0.89030046  0.75000000  1
  Ir  Ir0  1  0.33333300  0.66666700  0.25000000  1
  Ir  Ir1  1  0.66666700  0.33333300  0.75000000  1
loop_
_geom_bond_atom_site_label_1
_geom_bond_atom_site_label_2
_geom_bond_distance
_geom_bond_site_symmetry_2
Sc0 Y3 3.515436 1_455
Sc0 Y0 3.515436 1_545
Sc0 Y1 3.515444 1_555
Sc0 Y4 3.515444 1_445
Sc0 Y5 3.515444 1_555
Sc0 Y2 3.515444 1_445
Sc1 Y9 3.515436 1_545
Sc1 Y6 3.515436 1_454
Sc1 Y10 3.515444 1_555
Sc1 Y7 3.515444 1_444
Sc1 Y8 3.515444 1_554
Sc1 Y11 3.515444 1_445
Cd0 Sc1 3.044488 1_655
Cd0 Sc0 3.044488 1_655
Cd0 Cd1 3.166534 1_545
Cd0 Cd2 3.166534 1_655
Cd0 Y14 3.235323 1_555
Cd0 Y13 3.235323 1_555
Cd0 Y3 3.438797 1_555
Cd0 Y6 3.438797 1_554
Cd0 Y2 3.524374 1_545
Cd0 Y11 3.524374 1_545
Cd0 Y1 3.524374 1_655
Cd0 Y10 3.524374 1_655
Cd1 Sc0 3.044478 1_665
Cd1 Sc1 3.044478 1_665
Cd1 Cd2 3.166534 1_665
Cd1 Y12 3.235336 1_555
Cd1 Y14 3.235352 1_555
Cd1 Y4 3.438808 1_555
Cd1 Y7 3.438808 1_554
Cd1 Y2 3.524370 1_555
Cd1 Y11 3.524370 1_555
Cd1 Y0 3.524378 1_655
Cd1 Y9 3.524378 1_655
Cd2 Sc0 3.044478 1_555
Cd2 Sc1 3.044478 1_555
Cd2 Y12 3.235336 1_555
Cd2 Y13 3.235352 1_555
Cd2 Y5 3.438808 1_555
Cd2 Y8 3.438808 1_554
Cd2 Y1 3.524370 1_555
Cd2 Y10 3.524370 1_555
Cd2 Y0 3.524378 1_545
Cd2 Y9 3.524378 1_545
Cd3 Sc0 3.044488 1_565
Cd3 Sc1 3.044488 1_566
Cd3 Cd4 3.166534 1_565
Cd3 Cd5 3.166534 1_455
Cd3 Y17 3.235323 1_555
Cd3 Y16 3.235323 1_555
Cd3 Y9 3.438797 1_556
Cd3 Y0 3.438797 1_555
Cd3 Y8 3.524374 1_565
Cd3 Y5 3.524374 1_565
Cd3 Y7 3.524374 1_455
Cd3 Y4 3.524374 1_455
Cd4 Sc0 3.044478 1_555
Cd4 Sc1 3.044478 1_556
Cd4 Cd5 3.166534 1_445
Cd4 Y15 3.235336 1_555
Cd4 Y17 3.235352 1_555
Cd4 Y10 3.438808 1_556
Cd4 Y1 3.438808 1_555
Cd4 Y8 3.524370 1_555
Cd4 Y5 3.524370 1_555
Cd4 Y6 3.524378 1_455
Cd4 Y3 3.524378 1_455
Cd5 Sc0 3.044478 1_665
Cd5 Sc1 3.044478 1_666
Cd5 Y15 3.235336 1_555
Cd5 Y16 3.235352 1_555
Cd5 Y11 3.438808 1_556
Cd5 Y2 3.438808 1_555
Cd5 Y7 3.524370 1_555
Cd5 Y4 3.524370 1_555
Cd5 Y6 3.524378 1_565
Cd5 Y3 3.524378 1_565
Ir0 Y1 2.787497 1_555
Ir0 Y10 2.787497 1_555
Ir0 Y0 2.787497 1_555
Ir0 Y9 2.787497 1_555
Ir0 Y2 2.787497 1_555
Ir0 Y11 2.787497 1_555
Ir0 Y13 3.469264 1_565
Ir0 Y14 3.469264 1_455
Ir0 Y12 3.469281 1_555
Ir1 Y7 2.787497 1_555
Ir1 Y4 2.787497 1_555
Ir1 Y6 2.787497 1_555
Ir1 Y3 2.787497 1_555
Ir1 Y8 2.787497 1_555
Ir1 Y5 2.787497 1_555
Ir1 Y16 3.469264 1_545
Ir1 Y17 3.469264 1_655
Ir1 Y15 3.469281 1_555
