# generated using pymatgen
data_Li2Lu3AgSn3
_symmetry_space_group_name_H-M   'P 1'
_cell_length_a   7.19153501
_cell_length_b   7.15002142
_cell_length_c   4.47072672
_cell_angle_alpha   90.00000000
_cell_angle_beta   90.00000000
_cell_angle_gamma   119.80923542
_symmetry_Int_Tables_number   1
_chemical_formula_structural   Li2Lu3AgSn3
_chemical_formula_sum   'Li2 Lu3 Ag1 Sn3'
_cell_volume   199.46620436
_cell_formula_units_Z   1
loop_
 _symmetry_equiv_pos_site_id
 _symmetry_equiv_pos_as_xyz
  1  'x, y, z'
loop_
 _atom_site_type_symbol
 _atom_site_label
 _atom_site_symmetry_multiplicity
 _atom_site_fract_x
 _atom_site_fract_y
 _atom_site_fract_z
 _atom_site_occupancy
  Li  Li0  1  0.23467129  0.22830723  0.50000000  1
  Li  Li1  1  0.76532871  0.99363594  0.50000000  1
  Lu  Lu0  1  0.00000000  0.44816353  0.00000000  1
  Lu  Lu1  1  0.56554541  0.56456396  0.00000000  1
  Lu  Lu2  1  0.43445459  0.99901855  0.00000000  1
  Ag  Ag0  1  1.00000000  0.76369440  0.50000000  1
  Sn  Sn0  1  0.33797154  0.66618127  0.50000000  1
  Sn  Sn1  1  1.00000000  0.00822840  0.00000000  1
  Sn  Sn2  1  0.66202846  0.32820872  0.50000000  1
loop_
_geom_bond_atom_site_label_1
_geom_bond_atom_site_label_2
_geom_bond_distance
_geom_bond_site_symmetry_2
Li0 Sn1 2.771429 1_456
Li0 Sn1 2.771429 1_455
Li0 Sn2 2.788029 1_555
Li0 Sn0 2.835742 1_555
Li1 Sn1 2.771429 1_566
Li1 Sn1 2.771429 1_565
Li1 Sn0 2.788027 1_555
Li1 Sn2 2.835735 1_565
Lu0 Sn2 3.093117 1_455
Lu0 Sn2 3.093117 1_454
Lu0 Sn0 3.093118 1_555
Lu0 Sn0 3.093118 1_554
Lu0 Sn1 3.145546 1_455
Lu1 Sn0 3.063570 1_554
Lu1 Sn0 3.063570 1_555
Lu1 Sn2 3.082211 1_554
Lu1 Sn2 3.082211 1_555
Lu1 Sn1 3.157647 1_565
Lu2 Sn2 3.063566 1_565
Lu2 Sn2 3.063566 1_564
Lu2 Sn0 3.082206 1_555
Lu2 Sn0 3.082206 1_554
Lu2 Sn1 3.157648 1_465
Ag0 Sn1 2.837928 1_565
Ag0 Sn1 2.837928 1_566
Ag0 Sn0 2.842262 1_655
Ag0 Sn2 2.842266 1_555
Ag0 Li0 2.882671 1_665
Ag0 Li1 2.882672 1_555
Ag0 Lu0 3.175944 1_656
Ag0 Lu0 3.175944 1_655
Ag0 Lu2 3.516116 1_656
Ag0 Lu2 3.516116 1_655
Ag0 Lu1 3.516116 1_555
Ag0 Lu1 3.516116 1_556
