# generated using pymatgen
data_Zn7Cu5(Mo3N)4
_symmetry_space_group_name_H-M   'P 1'
_cell_length_a   7.91523554
_cell_length_b   7.91523557
_cell_length_c   7.90983504
_cell_angle_alpha   59.97858761
_cell_angle_beta   59.97858698
_cell_angle_gamma   60.00104355
_symmetry_Int_Tables_number   1
_chemical_formula_structural   Zn7Cu5(Mo3N)4
_chemical_formula_sum   'Zn7 Cu5 Mo12 N4'
_cell_volume   350.30223037
_cell_formula_units_Z   1
loop_
 _symmetry_equiv_pos_site_id
 _symmetry_equiv_pos_as_xyz
  1  'x, y, z'
loop_
 _atom_site_type_symbol
 _atom_site_label
 _atom_site_symmetry_multiplicity
 _atom_site_fract_x
 _atom_site_fract_y
 _atom_site_fract_z
 _atom_site_occupancy
  Zn  Zn0  1  0.83330753  0.83330753  0.83193659  1
  Zn  Zn1  1  0.50145163  0.83330808  0.83193267  1
  Zn  Zn2  1  0.83330808  0.50145163  0.83193267  1
  Zn  Zn3  1  0.62198774  0.62198774  0.13403436  1
  Zn  Zn4  1  0.62442404  0.62442404  0.61954481  1
  Zn  Zn5  1  0.13160438  0.62442500  0.61954670  1
  Zn  Zn6  1  0.62442500  0.13160438  0.61954670  1
  Cu  Cu0  1  0.41642885  0.41642885  0.75070934  1
  Cu  Cu1  1  0.41597144  0.41597144  0.41650948  1
  Cu  Cu2  1  0.75155599  0.41596528  0.41650411  1
  Cu  Cu3  1  0.41596528  0.75155599  0.41650411  1
  Cu  Cu4  1  0.83279650  0.83279650  0.50161412  1
  Mo  Mo0  1  0.81015119  0.18802474  0.19167569  1
  Mo  Mo1  1  0.18802474  0.81015119  0.19167569  1
  Mo  Mo2  1  0.81015038  0.81015038  0.19167574  1
  Mo  Mo3  1  0.19055872  0.80893343  0.80994964  1
  Mo  Mo4  1  0.80893343  0.19055872  0.80994964  1
  Mo  Mo5  1  0.19055891  0.19055891  0.80995084  1
  Mo  Mo6  1  0.43917987  0.06094417  0.06069487  1
  Mo  Mo7  1  0.06094417  0.43917987  0.06069487  1
  Mo  Mo8  1  0.43918097  0.43918097  0.06069537  1
  Mo  Mo9  1  0.06027313  0.43923609  0.44021879  1
  Mo  Mo10  1  0.43923609  0.06027313  0.44021879  1
  Mo  Mo11  1  0.06027269  0.06027269  0.44021795  1
  N  N0  1  0.12458183  0.12458183  0.62625520  1
  N  N1  1  0.12459796  0.12459796  0.12527241  1
  N  N2  1  0.62553213  0.12459833  0.12527242  1
  N  N3  1  0.12459833  0.62553213  0.12527242  1
loop_
_geom_bond_atom_site_label_1
_geom_bond_atom_site_label_2
_geom_bond_distance
_geom_bond_site_symmetry_2
Zn0 Zn5 2.457088 1_655
Zn0 Zn6 2.457088 1_565
Zn0 Zn3 2.470662 1_556
Zn0 Zn1 2.626731 1_555
Zn0 Zn2 2.626731 1_555
Zn1 Zn4 2.457060 1_555
Zn1 Zn6 2.457068 1_565
Zn1 Zn3 2.470646 1_556
Zn1 Zn2 2.626763 1_555
Zn2 Zn4 2.457060 1_555
Zn2 Zn5 2.457068 1_655
Zn2 Zn3 2.470646 1_556
Cu0 Zn6 2.406071 1_555
Cu0 Zn5 2.406071 1_555
Cu0 Zn4 2.406076 1_555
Cu0 Mo8 2.644428 1_556
Cu0 Mo7 2.644454 1_556
Cu0 Mo6 2.644454 1_556
Cu0 Cu1 2.647094 1_555
Cu0 Cu2 2.647211 1_555
Cu0 Cu3 2.647211 1_555
Cu0 Mo5 2.851617 1_555
Cu0 Mo4 2.851690 1_555
Cu0 Mo3 2.851690 1_555
Cu1 Zn3 2.382806 1_555
Cu1 Zn5 2.385064 1_555
Cu1 Zn6 2.385064 1_555
Cu1 Mo9 2.642639 1_555
Cu1 Mo10 2.642639 1_555
Cu1 Mo8 2.643393 1_555
Cu1 Cu2 2.656185 1_555
Cu1 Cu3 2.656185 1_555
Cu1 Mo5 2.850022 1_555
Cu1 Mo0 2.860414 1_555
Cu1 Mo1 2.860414 1_555
Cu2 Zn3 2.382803 1_555
Cu2 Zn6 2.385048 1_555
Cu2 Zn4 2.385075 1_555
Cu2 Mo9 2.642622 1_655
Cu2 Mo11 2.642623 1_655
Cu2 Mo7 2.643388 1_655
Cu2 Cu3 2.656321 1_555
Cu2 Mo4 2.850009 1_555
Cu2 Mo0 2.860300 1_555
Cu2 Mo2 2.860416 1_555
Cu3 Zn3 2.382803 1_555
Cu3 Zn5 2.385048 1_555
Cu3 Zn4 2.385075 1_555
Cu3 Mo10 2.642622 1_565
Cu3 Mo11 2.642623 1_565
Cu3 Mo6 2.643388 1_565
Cu3 Mo3 2.850009 1_555
Cu3 Mo1 2.860300 1_555
Cu3 Mo2 2.860416 1_555
Cu4 Zn6 2.439612 1_565
Cu4 Zn5 2.439612 1_655
Cu4 Zn4 2.439630 1_555
Cu4 Zn0 2.616850 1_555
Cu4 Zn1 2.616883 1_555
Cu4 Zn2 2.616883 1_555
Cu4 Mo2 2.643103 1_555
Cu4 Mo1 2.643145 1_655
Cu4 Mo0 2.643145 1_565
Cu4 Mo11 2.865573 1_665
Cu4 Mo10 2.865633 1_565
Cu4 Mo9 2.865633 1_655
Mo0 N2 2.104475 1_555
Mo0 N1 2.104492 1_655
Mo0 Zn2 2.674712 1_554
Mo0 Zn6 2.824929 1_555
Mo0 Zn3 2.867307 1_555
Mo1 N3 2.104475 1_555
Mo1 N1 2.104492 1_565
Mo1 Zn1 2.674712 1_554
Mo1 Zn5 2.824929 1_555
Mo1 Zn3 2.867307 1_555
Mo2 N3 2.104515 1_655
Mo2 N2 2.104515 1_565
Mo2 Zn0 2.674647 1_554
Mo2 Zn4 2.824935 1_555
Mo2 Zn3 2.867278 1_555
Mo3 N3 2.105361 1_556
Mo3 N0 2.109050 1_565
Mo3 Zn1 2.656959 1_555
Mo3 Zn0 2.656964 1_455
Mo3 Zn5 2.864336 1_555
Mo3 Zn4 2.864405 1_555
Mo4 N2 2.105361 1_556
Mo4 N0 2.109050 1_655
Mo4 Zn2 2.656959 1_555
Mo4 Zn0 2.656964 1_545
Mo4 Zn6 2.864336 1_555
Mo4 Zn4 2.864405 1_555
Mo5 N1 2.105335 1_556
Mo5 N0 2.109011 1_555
Mo5 Zn2 2.657007 1_455
Mo5 Zn1 2.657007 1_545
Mo5 Zn6 2.864396 1_555
Mo5 Zn5 2.864396 1_555
Mo6 N2 2.108330 1_555
Mo6 N1 2.108348 1_555
Mo6 Zn1 2.871492 1_544
Mo6 Zn0 2.871541 1_544
Mo6 Zn3 2.880597 1_545
Mo6 Zn6 2.895892 1_554
Mo7 N3 2.108330 1_555
Mo7 N1 2.108348 1_555
Mo7 Zn2 2.871492 1_454
Mo7 Zn0 2.871541 1_454
Mo7 Zn3 2.880597 1_455
Mo7 Zn5 2.895892 1_554
Mo8 N3 2.108367 1_555
Mo8 N2 2.108367 1_555
Mo8 Zn2 2.871535 1_554
Mo8 Zn1 2.871535 1_554
Mo8 Zn3 2.880514 1_555
Mo8 Zn4 2.895915 1_554
Mo9 N0 2.107581 1_555
Mo9 N3 2.108390 1_555
Mo9 Zn2 2.853458 1_455
Mo9 Zn5 2.861625 1_555
Mo9 Zn4 2.861695 1_455
Mo10 N0 2.107581 1_555
Mo10 N2 2.108390 1_555
Mo10 Zn1 2.853458 1_545
Mo10 Zn6 2.861625 1_555
Mo10 Zn4 2.861695 1_545
Mo11 N0 2.107541 1_555
Mo11 N1 2.108367 1_555
Mo11 Zn0 2.853499 1_445
Mo11 Zn6 2.861680 1_455
Mo11 Zn5 2.861680 1_545
