# generated using pymatgen
data_Zr10Be2(InSb)3
_symmetry_space_group_name_H-M   'P 1'
_cell_length_a   8.60128970
_cell_length_b   8.60128892
_cell_length_c   5.83079429
_cell_angle_alpha   90.00000000
_cell_angle_beta   90.00000000
_cell_angle_gamma   119.99999165
_symmetry_Int_Tables_number   1
_chemical_formula_structural   Zr10Be2(InSb)3
_chemical_formula_sum   'Zr10 Be2 In3 Sb3'
_cell_volume   373.58161882
_cell_formula_units_Z   1
loop_
 _symmetry_equiv_pos_site_id
 _symmetry_equiv_pos_as_xyz
  1  'x, y, z'
loop_
 _atom_site_type_symbol
 _atom_site_label
 _atom_site_symmetry_multiplicity
 _atom_site_fract_x
 _atom_site_fract_y
 _atom_site_fract_z
 _atom_site_occupancy
  Zr  Zr0  1  0.66666700  0.33333300  0.99736833  1
  Zr  Zr1  1  0.33333300  0.66666700  0.99736833  1
  Zr  Zr2  1  0.33333300  0.66666700  0.50263167  1
  Zr  Zr3  1  0.66666700  0.33333300  0.50263167  1
  Zr  Zr4  1  0.73891512  0.73891512  0.75000000  1
  Zr  Zr5  1  0.26108488  0.00000000  0.75000000  1
  Zr  Zr6  1  0.00000000  0.26108488  0.75000000  1
  Zr  Zr7  1  0.23995950  0.23995950  0.25000000  1
  Zr  Zr8  1  0.76004050  0.00000000  0.25000000  1
  Zr  Zr9  1  0.00000000  0.76004050  0.25000000  1
  Be  Be0  1  0.00000000  0.00000000  0.96463071  1
  Be  Be1  1  0.00000000  0.00000000  0.53536929  1
  In  In0  1  0.38312931  0.38312931  0.75000000  1
  In  In1  1  0.61687069  1.00000000  0.75000000  1
  In  In2  1  1.00000000  0.61687069  0.75000000  1
  Sb  Sb0  1  0.60533039  0.60533039  0.25000000  1
  Sb  Sb1  1  0.39466961  0.00000000  0.25000000  1
  Sb  Sb2  1  0.00000000  0.39466961  0.25000000  1
loop_
_geom_bond_atom_site_label_1
_geom_bond_atom_site_label_2
_geom_bond_distance
_geom_bond_site_symmetry_2
Zr0 Zr3 2.884708 1_555
Zr0 Zr3 2.946087 1_556
Zr1 Zr2 2.884708 1_555
Zr1 Zr2 2.946087 1_556
Be0 Be1 2.502935 1_555
Be0 Zr6 2.570834 1_555
Be0 Zr5 2.570834 1_555
Be0 Zr4 2.570835 1_445
Be0 Zr9 2.651150 1_546
Be0 Zr8 2.651150 1_456
Be0 Zr7 2.651150 1_556
Be1 Zr6 2.570834 1_555
Be1 Zr5 2.570834 1_555
Be1 Zr4 2.570835 1_445
Be1 Zr9 2.651150 1_545
Be1 Zr8 2.651150 1_455
Be1 Zr7 2.651150 1_555
In0 Zr5 2.915877 1_555
In0 Zr6 2.915877 1_555
In0 Zr1 3.042383 1_555
In0 Zr2 3.042383 1_555
In0 Zr0 3.042383 1_555
In0 Zr3 3.042383 1_555
In0 Zr4 3.060217 1_555
In0 Zr7 3.164806 1_555
In0 Zr7 3.164806 1_556
In1 Zr4 2.915876 1_555
In1 Zr6 2.915877 1_665
In1 Zr0 3.042376 1_565
In1 Zr3 3.042376 1_565
In1 Zr1 3.042379 1_555
In1 Zr2 3.042379 1_555
In1 Zr5 3.060217 1_565
In1 Zr8 3.164806 1_565
In1 Zr8 3.164806 1_566
In2 Zr4 2.915877 1_555
In2 Zr5 2.915877 1_665
In2 Zr1 3.042376 1_655
In2 Zr2 3.042376 1_655
In2 Zr0 3.042379 1_555
In2 Zr3 3.042379 1_555
In2 Zr6 3.060217 1_655
In2 Zr9 3.164806 1_655
In2 Zr9 3.164806 1_656
Sb0 Zr8 2.962641 1_565
Sb0 Zr9 2.962641 1_655
Sb0 Zr3 3.025865 1_555
Sb0 Zr0 3.025865 1_554
Sb0 Zr2 3.025865 1_555
Sb0 Zr1 3.025865 1_554
Sb0 Zr4 3.133647 1_555
Sb0 Zr4 3.133647 1_554
Sb0 Zr7 3.142661 1_555
Sb1 Zr7 2.962641 1_555
Sb1 Zr9 2.962641 1_545
Sb1 Zr2 3.025857 1_545
Sb1 Zr1 3.025857 1_544
Sb1 Zr3 3.025860 1_555
Sb1 Zr0 3.025860 1_554
Sb1 Zr5 3.133647 1_555
Sb1 Zr5 3.133647 1_554
Sb1 Zr8 3.142661 1_555
Sb2 Zr7 2.962641 1_555
Sb2 Zr8 2.962641 1_455
Sb2 Zr3 3.025857 1_455
Sb2 Zr0 3.025857 1_454
Sb2 Zr2 3.025860 1_555
Sb2 Zr1 3.025860 1_554
Sb2 Zr6 3.133647 1_554
Sb2 Zr6 3.133647 1_555
Sb2 Zr9 3.142661 1_555
