# generated using pymatgen
data_Ca2VBrO4
_symmetry_space_group_name_H-M   'P 1'
_cell_length_a   6.26846890
_cell_length_b   7.18767349
_cell_length_c   11.23489062
_cell_angle_alpha   90.00000000
_cell_angle_beta   90.00000000
_cell_angle_gamma   90.00000000
_symmetry_Int_Tables_number   1
_chemical_formula_structural   Ca2VBrO4
_chemical_formula_sum   'Ca8 V4 Br4 O16'
_cell_volume   506.19594881
_cell_formula_units_Z   4
loop_
 _symmetry_equiv_pos_site_id
 _symmetry_equiv_pos_as_xyz
  1  'x, y, z'
loop_
 _atom_site_type_symbol
 _atom_site_label
 _atom_site_symmetry_multiplicity
 _atom_site_fract_x
 _atom_site_fract_y
 _atom_site_fract_z
 _atom_site_occupancy
  Ca  Ca0  1  0.88172832  0.97303317  0.25000000  1
  Ca  Ca1  1  0.11827168  0.02696683  0.75000000  1
  Ca  Ca2  1  0.11827168  0.47303317  0.25000000  1
  Ca  Ca3  1  0.88172832  0.52696683  0.75000000  1
  Ca  Ca4  1  0.61684214  0.25000000  0.50000000  1
  Ca  Ca5  1  0.61684214  0.25000000  0.00000000  1
  Ca  Ca6  1  0.38315786  0.75000000  0.50000000  1
  Ca  Ca7  1  0.38315786  0.75000000  0.00000000  1
  V  V0  1  0.11862751  0.25000000  0.00000000  1
  V  V1  1  0.88137249  0.75000000  0.50000000  1
  V  V2  1  0.11862751  0.25000000  0.50000000  1
  V  V3  1  0.88137249  0.75000000  0.00000000  1
  Br  Br0  1  0.55345078  0.64717474  0.25000000  1
  Br  Br1  1  0.44654922  0.14717474  0.25000000  1
  Br  Br2  1  0.55345078  0.85282526  0.75000000  1
  Br  Br3  1  0.44654922  0.35282526  0.75000000  1
  O  O0  1  0.95285220  0.26549941  0.62276846  1
  O  O1  1  0.28322150  0.06552078  0.52765495  1
  O  O2  1  0.28322150  0.43447922  0.02765495  1
  O  O3  1  0.28322150  0.43447922  0.47234505  1
  O  O4  1  0.71677850  0.56552078  0.52765495  1
  O  O5  1  0.04714780  0.73450059  0.37723154  1
  O  O6  1  0.95285220  0.23450059  0.12276846  1
  O  O7  1  0.04714780  0.76549941  0.62276846  1
  O  O8  1  0.04714780  0.73450059  0.12276846  1
  O  O9  1  0.04714780  0.76549941  0.87723154  1
  O  O10  1  0.95285220  0.23450059  0.37723154  1
  O  O11  1  0.28322150  0.06552078  0.97234505  1
  O  O12  1  0.71677850  0.93447922  0.47234505  1
  O  O13  1  0.71677850  0.56552078  0.97234505  1
  O  O14  1  0.71677850  0.93447922  0.02765495  1
  O  O15  1  0.95285220  0.26549941  0.87723154  1
loop_
_geom_bond_atom_site_label_1
_geom_bond_atom_site_label_2
_geom_bond_distance
_geom_bond_site_symmetry_2
Ca0 O10 2.402910 1_565
Ca0 O6 2.402910 1_565
Ca0 O5 2.461297 1_655
Ca0 O8 2.461297 1_655
Ca0 O12 2.717725 1_555
Ca0 O14 2.717725 1_555
Ca1 O9 2.402910 1_545
Ca1 O7 2.402910 1_545
Ca1 O15 2.461297 1_455
Ca1 O0 2.461297 1_455
Ca1 O11 2.717725 1_555
Ca1 O1 2.717725 1_555
Ca2 O5 2.402910 1_555
Ca2 O8 2.402910 1_555
Ca2 O10 2.461297 1_455
Ca2 O6 2.461297 1_455
Ca2 O3 2.717725 1_555
Ca2 O2 2.717725 1_555
Ca3 O15 2.402910 1_555
Ca3 O0 2.402910 1_555
Ca3 O9 2.461297 1_655
Ca3 O7 2.461297 1_655
Ca3 O13 2.717725 1_555
Ca3 O4 2.717725 1_555
Ca4 O4 2.373218 1_555
Ca4 O12 2.373218 1_545
Ca4 O3 2.495645 1_555
Ca4 O1 2.495645 1_555
Ca4 O0 2.520163 1_555
Ca4 O10 2.520163 1_555
Ca5 O13 2.373218 1_554
Ca5 O14 2.373218 1_545
Ca5 O2 2.495645 1_555
Ca5 O11 2.495645 1_554
Ca5 O6 2.520163 1_555
Ca5 O15 2.520163 1_554
Ca6 O1 2.373218 1_565
Ca6 O3 2.373218 1_555
Ca6 O12 2.495645 1_555
Ca6 O4 2.495645 1_555
Ca6 O7 2.520163 1_555
Ca6 O5 2.520163 1_555
Ca7 O11 2.373218 1_564
Ca7 O2 2.373218 1_555
Ca7 O14 2.495645 1_555
Ca7 O13 2.495645 1_554
Ca7 O8 2.520163 1_555
Ca7 O9 2.520163 1_554
Br0 Ca2 3.001360 1_555
Br0 Ca6 3.094295 1_555
Br0 Ca7 3.094295 1_555
Br0 Ca0 3.117734 1_555
Br1 Ca0 3.001360 1_545
Br1 Ca4 3.094295 1_555
Br1 Ca5 3.094295 1_555
Br1 Ca2 3.117734 1_555
Br2 Ca1 3.001360 1_565
Br2 Ca6 3.094295 1_555
Br2 Ca7 3.094295 1_556
Br2 Ca3 3.117734 1_555
Br3 Ca3 3.001360 1_555
Br3 Ca5 3.094295 1_556
Br3 Ca4 3.094295 1_555
Br3 Ca1 3.117734 1_555
O0 V2 1.730520 1_655
O1 V2 1.708584 1_555
O2 V0 1.708584 1_555
O3 V2 1.708584 1_555
O4 V1 1.708584 1_555
O5 V1 1.730520 1_455
O6 V0 1.730520 1_655
O7 V1 1.730520 1_455
O8 V3 1.730520 1_455
O9 V3 1.730520 1_456
O10 V2 1.730520 1_655
O11 V0 1.708584 1_556
O12 V1 1.708584 1_555
O13 V3 1.708584 1_556
O14 V3 1.708584 1_555
O15 V0 1.730520 1_656
