# generated using pymatgen
data_CaNi(Sb4Ru)3
_symmetry_space_group_name_H-M   'P 1'
_cell_length_a   8.04036932
_cell_length_b   8.04036994
_cell_length_c   8.10282500
_cell_angle_alpha   109.62864818
_cell_angle_beta   109.62864978
_cell_angle_gamma   109.31333564
_symmetry_Int_Tables_number   1
_chemical_formula_structural   CaNi(Sb4Ru)3
_chemical_formula_sum   'Ca1 Ni1 Sb12 Ru3'
_cell_volume   402.45666103
_cell_formula_units_Z   1
loop_
 _symmetry_equiv_pos_site_id
 _symmetry_equiv_pos_as_xyz
  1  'x, y, z'
loop_
 _atom_site_type_symbol
 _atom_site_label
 _atom_site_symmetry_multiplicity
 _atom_site_fract_x
 _atom_site_fract_y
 _atom_site_fract_z
 _atom_site_occupancy
  Ca  Ca0  1  0.00000000  0.00000000  0.00000000  1
  Ni  Ni0  1  0.00000000  0.00000000  0.50000000  1
  Sb  Sb0  1  0.15534817  0.81703201  0.65850078  1
  Sb  Sb1  1  0.84465183  0.18296799  0.34149922  1
  Sb  Sb2  1  0.84293640  0.50284045  0.66151105  1
  Sb  Sb3  1  0.15706360  0.49715955  0.33848895  1
  Sb  Sb4  1  0.81703201  0.66168484  0.15853224  1
  Sb  Sb5  1  0.18296799  0.33831516  0.84146776  1
  Sb  Sb6  1  0.50284045  0.65990406  0.84132941  1
  Sb  Sb7  1  0.49715955  0.34009594  0.15867059  1
  Sb  Sb8  1  0.65990406  0.15706360  0.81857565  1
  Sb  Sb9  1  0.34009594  0.84293640  0.18142435  1
  Sb  Sb10  1  0.66168484  0.84465183  0.50315261  1
  Sb  Sb11  1  0.33831516  0.15534817  0.49684739  1
  Ru  Ru0  1  0.50000000  0.00000000  0.00000000  1
  Ru  Ru1  1  0.00000000  0.50000000  0.00000000  1
  Ru  Ru2  1  0.50000000  0.50000000  0.50000000  1
loop_
_geom_bond_atom_site_label_1
_geom_bond_atom_site_label_2
_geom_bond_distance
_geom_bond_site_symmetry_2
Ca0 Sb9 3.473336 1_545
Ca0 Sb8 3.473336 1_454
Ca0 Sb7 3.473338 1_555
Ca0 Sb6 3.473338 1_444
Ca0 Sb3 3.473338 1_555
Ca0 Sb2 3.473338 1_444
Ca0 Sb11 3.490538 1_555
Ca0 Sb10 3.490538 1_444
Ca0 Sb1 3.490540 1_455
Ca0 Sb0 3.490540 1_544
Ca0 Sb5 3.490540 1_554
Ca0 Sb4 3.490540 1_445
Ni0 Sb5 2.604005 1_555
Ni0 Sb4 2.604005 1_445
Ni0 Sb10 2.604006 1_445
Ni0 Sb11 2.604006 1_555
Ni0 Sb0 2.604013 1_545
Ni0 Sb1 2.604013 1_455
Sb0 Sb2 2.928681 1_455
Sb0 Sb3 2.984206 1_555
Sb1 Sb3 2.928681 1_655
Sb1 Sb2 2.984206 1_555
Sb4 Sb6 2.928681 1_554
Sb4 Sb7 2.984206 1_555
Sb5 Sb7 2.928681 1_556
Sb5 Sb6 2.984206 1_555
Sb10 Sb8 2.928691 1_565
Sb10 Sb9 2.984215 1_555
Sb11 Sb9 2.928691 1_545
Sb11 Sb8 2.984215 1_555
Ru0 Sb7 2.613428 1_555
Ru0 Sb6 2.613428 1_544
Ru0 Sb8 2.617613 1_554
Ru0 Sb9 2.617613 1_545
Ru0 Sb1 2.630022 1_555
Ru0 Sb0 2.630022 1_544
Ru1 Sb9 2.613429 1_555
Ru1 Sb8 2.613429 1_454
Ru1 Sb3 2.617621 1_555
Ru1 Sb2 2.617621 1_454
Ru1 Sb4 2.630030 1_455
Ru1 Sb5 2.630030 1_554
Ru2 Sb2 2.613428 1_555
Ru2 Sb3 2.613428 1_555
Ru2 Sb6 2.617621 1_555
Ru2 Sb7 2.617621 1_555
Ru2 Sb11 2.630023 1_555
Ru2 Sb10 2.630023 1_555
