# generated using pymatgen
data_Rb9InBi4
_symmetry_space_group_name_H-M   'P 1'
_cell_length_a   11.21276190
_cell_length_b   11.21293830
_cell_length_c   11.82014831
_cell_angle_alpha   90.00000000
_cell_angle_beta   90.00000000
_cell_angle_gamma   120.00262911
_symmetry_Int_Tables_number   1
_chemical_formula_structural   Rb9InBi4
_chemical_formula_sum   'Rb18 In2 Bi8'
_cell_volume   1286.98677398
_cell_formula_units_Z   2
loop_
 _symmetry_equiv_pos_site_id
 _symmetry_equiv_pos_as_xyz
  1  'x, y, z'
loop_
 _atom_site_type_symbol
 _atom_site_label
 _atom_site_symmetry_multiplicity
 _atom_site_fract_x
 _atom_site_fract_y
 _atom_site_fract_z
 _atom_site_occupancy
  Rb  Rb0  1  0.20747042  0.41496726  0.54152001  1
  Rb  Rb1  1  0.79253490  0.20750160  0.04152850  1
  Rb  Rb2  1  0.41499321  0.20749949  0.04154362  1
  Rb  Rb3  1  0.58500679  0.79250051  0.54154362  1
  Rb  Rb4  1  0.20746510  0.79249840  0.54152850  1
  Rb  Rb5  1  0.79252958  0.58503274  0.45847999  1
  Rb  Rb6  1  0.79253490  0.20750160  0.45847150  1
  Rb  Rb7  1  0.79252958  0.58503274  0.04152001  1
  Rb  Rb8  1  0.41499321  0.20749949  0.45845638  1
  Rb  Rb9  1  0.58500679  0.79250051  0.95845638  1
  Rb  Rb10  1  0.20747042  0.41496726  0.95847999  1
  Rb  Rb11  1  0.20746510  0.79249840  0.95847150  1
  Rb  Rb12  1  0.11899163  0.23796319  0.25000000  1
  Rb  Rb13  1  0.88101863  0.11898030  0.75000000  1
  Rb  Rb14  1  0.23795324  0.11897150  0.75000000  1
  Rb  Rb15  1  0.76204676  0.88102850  0.25000000  1
  Rb  Rb16  1  0.11898137  0.88101970  0.25000000  1
  Rb  Rb17  1  0.88100837  0.76203681  0.75000000  1
  In  In0  1  0.33327297  0.66661918  0.25000000  1
  In  In1  1  0.66672703  0.33338082  0.75000000  1
  Bi  Bi0  1  0.48419958  0.51576418  0.25000000  1
  Bi  Bi1  1  0.96839318  0.48419594  0.75000000  1
  Bi  Bi2  1  0.51578763  0.03155880  0.75000000  1
  Bi  Bi3  1  0.48421237  0.96844120  0.25000000  1
  Bi  Bi4  1  0.03160682  0.51580406  0.25000000  1
  Bi  Bi5  1  0.51580042  0.48423582  0.75000000  1
  Bi  Bi6  1  0.00000000  0.00000000  0.00000000  1
  Bi  Bi7  1  0.00000000  0.00000000  0.50000000  1
loop_
_geom_bond_atom_site_label_1
_geom_bond_atom_site_label_2
_geom_bond_distance
_geom_bond_site_symmetry_2
Bi0 In0 2.930523 1_555
Bi0 Rb12 3.703402 1_555
Bi0 Rb15 3.704014 1_555
Bi0 Rb8 3.992326 1_555
Bi0 Rb2 3.992326 1_555
Bi0 Rb5 3.992850 1_555
Bi0 Rb7 3.992850 1_555
Bi1 In1 2.929263 1_555
Bi1 Rb13 3.703733 1_555
Bi1 Rb17 3.703870 1_555
Bi1 Rb4 3.992619 1_655
Bi1 Rb11 3.992619 1_655
Bi1 Rb10 3.992806 1_655
Bi1 Rb0 3.992806 1_655
Bi2 In1 2.930822 1_555
Bi2 Rb13 3.703682 1_555
Bi2 Rb14 3.703977 1_555
Bi2 Rb9 3.992440 1_545
Bi2 Rb3 3.992440 1_545
Bi2 Rb4 3.992689 1_545
Bi2 Rb11 3.992689 1_545
Bi3 In0 2.930822 1_555
Bi3 Rb16 3.703682 1_555
Bi3 Rb15 3.703977 1_555
Bi3 Rb8 3.992440 1_565
Bi3 Rb2 3.992440 1_565
Bi3 Rb1 3.992689 1_565
Bi3 Rb6 3.992689 1_565
Bi4 In0 2.929263 1_555
Bi4 Rb16 3.703733 1_555
Bi4 Rb12 3.703870 1_555
Bi4 Rb1 3.992619 1_455
Bi4 Rb6 3.992619 1_455
Bi4 Rb5 3.992806 1_455
Bi4 Rb7 3.992806 1_455
Bi5 In1 2.930523 1_555
Bi5 Rb17 3.703402 1_555
Bi5 Rb14 3.704014 1_555
Bi5 Rb9 3.992326 1_555
Bi5 Rb3 3.992326 1_555
Bi5 Rb10 3.992850 1_555
Bi5 Rb0 3.992850 1_555
Bi6 Rb14 3.751144 1_554
Bi6 Rb15 3.751144 1_445
Bi6 Rb12 3.751226 1_555
Bi6 Rb17 3.751226 1_444
Bi6 Rb13 3.751262 1_454
Bi6 Rb16 3.751262 1_545
Bi6 Rb10 4.059288 1_554
Bi6 Rb7 4.059288 1_445
Bi6 Rb1 4.059422 1_455
Bi6 Rb11 4.059422 1_544
Bi6 Rb2 4.059509 1_555
Bi6 Rb9 4.059509 1_444
Bi7 Rb14 3.751144 1_555
Bi7 Rb15 3.751144 1_445
Bi7 Rb12 3.751226 1_555
Bi7 Rb17 3.751226 1_445
Bi7 Rb13 3.751262 1_455
Bi7 Rb16 3.751262 1_545
Bi7 Rb0 4.059288 1_555
Bi7 Rb5 4.059288 1_445
Bi7 Rb6 4.059422 1_455
Bi7 Rb4 4.059422 1_545
Bi7 Rb8 4.059509 1_555
Bi7 Rb3 4.059509 1_445
