# generated using pymatgen
data_KTiCuAs2
_symmetry_space_group_name_H-M   'P 1'
_cell_length_a   7.57127816
_cell_length_b   7.57127838
_cell_length_c   7.57127665
_cell_angle_alpha   149.01969970
_cell_angle_beta   149.01970150
_cell_angle_gamma   44.38231173
_symmetry_Int_Tables_number   1
_chemical_formula_structural   KTiCuAs2
_chemical_formula_sum   'K1 Ti1 Cu1 As2'
_cell_volume   114.65794929
_cell_formula_units_Z   1
loop_
 _symmetry_equiv_pos_site_id
 _symmetry_equiv_pos_as_xyz
  1  'x, y, z'
loop_
 _atom_site_type_symbol
 _atom_site_label
 _atom_site_symmetry_multiplicity
 _atom_site_fract_x
 _atom_site_fract_y
 _atom_site_fract_z
 _atom_site_occupancy
  K  K0  1  0.00000000  0.00000000  0.00000000  1
  Ti  Ti0  1  0.25000000  0.75000000  0.50000000  1
  Cu  Cu0  1  0.75000000  0.25000000  0.50000000  1
  As  As0  1  0.35196342  0.35196342  0.00000000  1
  As  As1  1  0.64803658  0.64803658  1.00000000  1
loop_
_geom_bond_atom_site_label_1
_geom_bond_atom_site_label_2
_geom_bond_distance
_geom_bond_site_symmetry_2
Cu0 Ti0 2.859655 1_656
Cu0 Ti0 2.859655 1_544
Cu0 Ti0 2.859656 1_645
Cu0 Ti0 2.859656 1_555
As0 Cu0 2.476415 1_555
As0 Ti0 2.476415 1_555
As0 Cu0 2.476416 1_454
As0 Ti0 2.476416 1_544
As0 K0 3.533522 1_554
As0 K0 3.533524 1_655
As0 K0 3.533524 1_666
As0 K0 3.533524 1_565
As1 Ti0 2.476415 1_555
As1 Cu0 2.476415 1_555
As1 Ti0 2.476416 1_656
As1 Cu0 2.476416 1_566
As1 K0 3.533522 1_667
As1 K0 3.533524 1_566
As1 K0 3.533524 1_555
As1 K0 3.533524 1_656
