# generated using pymatgen
data_Sr8Cd(Si4Ag)3
_symmetry_space_group_name_H-M   'P 1'
_cell_length_a   11.88252363
_cell_length_b   10.26826296
_cell_length_c   8.45981478
_cell_angle_alpha   78.10734193
_cell_angle_beta   57.68256954
_cell_angle_gamma   44.16262988
_symmetry_Int_Tables_number   1
_chemical_formula_structural   Sr8Cd(Si4Ag)3
_chemical_formula_sum   'Sr8 Cd1 Si12 Ag3'
_cell_volume   579.48812903
_cell_formula_units_Z   1
loop_
 _symmetry_equiv_pos_site_id
 _symmetry_equiv_pos_as_xyz
  1  'x, y, z'
loop_
 _atom_site_type_symbol
 _atom_site_label
 _atom_site_symmetry_multiplicity
 _atom_site_fract_x
 _atom_site_fract_y
 _atom_site_fract_z
 _atom_site_occupancy
  Sr  Sr0  1  0.12571493  0.12104230  0.37786204  1
  Sr  Sr1  1  0.87490811  0.88169859  0.12390305  1
  Sr  Sr2  1  0.12407364  0.11952855  0.87477597  1
  Sr  Sr3  1  0.37773550  0.37520720  0.12582683  1
  Sr  Sr4  1  0.61909291  0.62502736  0.37945697  1
  Sr  Sr5  1  0.37940632  0.37656387  0.61910499  1
  Sr  Sr6  1  0.62473568  0.62445965  0.87505947  1
  Sr  Sr7  1  0.87492837  0.87583122  0.62470866  1
  Cd  Cd0  1  0.08273164  0.41711876  0.08297138  1
  Si  Si0  1  0.33594547  0.65802795  0.82587309  1
  Si  Si1  1  0.17850192  0.82404665  0.65999745  1
  Si  Si2  1  0.82596356  0.18027706  0.33583334  1
  Si  Si3  1  0.65995530  0.33751280  0.17855609  1
  Si  Si4  1  0.91117748  0.59525383  0.43069487  1
  Si  Si5  1  0.07329341  0.41994443  0.59008716  1
  Si  Si6  1  0.43043526  0.06268886  0.91139760  1
  Si  Si7  1  0.90859986  0.59185570  0.90800368  1
  Si  Si8  1  0.66169257  0.33820390  0.66187006  1
  Si  Si9  1  0.33785827  0.66209554  0.33791658  1
  Si  Si10  1  0.58645654  0.91391428  0.58605557  1
  Si  Si11  1  0.58997669  0.91640076  0.07337372  1
  Ag  Ag0  1  0.16702802  0.83304131  0.16698160  1
  Ag  Ag1  1  0.41706059  0.08286149  0.41701556  1
  Ag  Ag2  1  0.83272596  0.16739592  0.83267326  1
loop_
_geom_bond_atom_site_label_1
_geom_bond_atom_site_label_2
_geom_bond_distance
_geom_bond_site_symmetry_2
Cd0 Si7 2.558357 1_454
Cd0 Si4 2.571194 1_455
Cd0 Si6 2.571751 1_554
Cd0 Sr3 3.425573 1_555
Cd0 Sr0 3.425761 1_555
Cd0 Sr4 3.428977 1_455
Cd0 Sr5 3.431648 1_554
Cd0 Sr2 3.438084 1_554
Cd0 Sr1 3.440925 1_455
Si0 Si8 2.364415 1_555
Si0 Si1 2.370781 1_555
Si0 Sr5 3.264324 1_555
Si0 Sr4 3.317112 1_555
Si0 Sr1 3.348108 1_456
Si0 Sr3 3.370524 1_556
Si0 Sr2 3.397540 1_565
Si0 Sr6 3.440659 1_555
Si1 Si9 2.368193 1_555
Si1 Sr4 3.252917 1_555
Si1 Sr5 3.311480 1_555
Si1 Sr2 3.335531 1_565
Si1 Sr0 3.353625 1_565
Si1 Sr1 3.394451 1_456
Si1 Sr7 3.423150 1_455
Si2 Si8 2.364963 1_555
Si2 Si3 2.370593 1_555
Si2 Sr4 3.263894 1_555
Si2 Sr5 3.318376 1_555
Si2 Sr2 3.348163 1_654
Si2 Sr0 3.367420 1_655
Si2 Sr1 3.397758 1_545
Si2 Sr7 3.441726 1_545
Si3 Si9 2.368029 1_555
Si3 Sr5 3.252369 1_555
Si3 Sr4 3.311998 1_555
Si3 Sr1 3.334890 1_545
Si3 Sr3 3.355696 1_555
Si3 Sr2 3.396348 1_654
Si3 Sr6 3.422076 1_554
Si4 Si5 2.360350 1_655
Si4 Sr7 3.254613 1_555
Si4 Sr6 3.335573 1_555
Si4 Sr3 3.410815 1_655
Si4 Sr1 3.435692 1_555
Si4 Sr0 3.504005 1_655
Si4 Sr4 3.515496 1_555
Si5 Si7 2.356293 1_455
Si5 Sr6 3.304466 1_455
Si5 Sr0 3.371039 1_555
Si5 Sr2 3.391383 1_555
Si5 Sr7 3.398709 1_455
Si5 Sr3 3.448353 1_555
Si5 Sr5 3.474818 1_555
Si6 Sr6 3.252576 1_545
Si6 Sr7 3.337940 1_545
Si6 Sr0 3.409728 1_556
Si6 Sr2 3.431006 1_555
Si6 Sr3 3.504603 1_556
Si6 Sr5 3.519112 1_555
Si7 Sr7 3.298128 1_555
Si7 Sr6 3.303569 1_555
Si7 Sr5 3.467160 1_655
Si7 Sr4 3.473641 1_556
Si7 Sr1 3.478948 1_556
Si7 Sr2 3.483255 1_655
Si8 Sr5 3.298543 1_555
Si8 Sr4 3.300365 1_555
Si8 Sr3 3.398504 1_556
Si8 Sr0 3.398553 1_655
Si8 Sr7 3.400606 1_545
Si8 Sr6 3.401701 1_555
Si9 Sr5 3.286784 1_555
Si9 Sr4 3.288079 1_555
Si9 Sr0 3.373247 1_565
Si9 Sr3 3.374697 1_555
Si9 Sr6 3.400567 1_554
Si9 Sr7 3.400840 1_455
Si10 Si4 2.357590 1_555
Si10 Si6 2.357938 1_565
Si10 Sr7 3.351431 1_555
Si10 Sr6 3.357505 1_555
Si10 Sr1 3.423651 1_555
Si10 Sr5 3.426733 1_565
Si10 Sr2 3.426989 1_565
Si10 Sr4 3.430185 1_555
Si11 Si7 2.356518 1_554
Si11 Si6 2.360405 1_564
Si11 Sr7 3.306289 1_554
Si11 Sr3 3.372040 1_565
Si11 Sr1 3.395066 1_555
Si11 Sr6 3.395176 1_554
Si11 Sr0 3.448073 1_565
Si11 Sr4 3.472155 1_555
Ag0 Si9 2.504602 1_555
Ag0 Si0 2.520873 1_554
Ag0 Si2 2.520978 1_465
Ag0 Sr1 3.349694 1_455
Ag0 Sr2 3.350035 1_564
Ag0 Sr0 3.365165 1_565
Ag0 Sr3 3.368374 1_555
Ag0 Sr6 3.372270 1_554
Ag0 Sr7 3.373032 1_455
Ag1 Si10 2.480207 1_545
Ag1 Si11 2.493463 1_545
Ag1 Si5 2.493723 1_555
Ag1 Sr3 3.386504 1_555
Ag1 Sr0 3.387268 1_555
Ag1 Sr2 3.400577 1_555
Ag1 Sr4 3.401900 1_545
Ag1 Sr1 3.402526 1_545
Ag1 Sr5 3.404321 1_555
Ag2 Si8 2.505126 1_555
Ag2 Si3 2.523221 1_556
Ag2 Si1 2.523385 1_645
Ag2 Sr2 3.340429 1_655
Ag2 Sr1 3.340536 1_546
Ag2 Sr0 3.347546 1_655
Ag2 Sr3 3.350598 1_556
Ag2 Sr6 3.371600 1_555
Ag2 Sr7 3.373953 1_545
