# generated using pymatgen
data_Ta10Ga4SiAs
_symmetry_space_group_name_H-M   'P 1'
_cell_length_a   6.63819349
_cell_length_b   7.60582190
_cell_length_c   6.64079457
_cell_angle_alpha   115.80952982
_cell_angle_beta   90.15481255
_cell_angle_gamma   115.79862233
_symmetry_Int_Tables_number   1
_chemical_formula_structural   Ta10Ga4SiAs
_chemical_formula_sum   'Ta10 Ga4 Si1 As1'
_cell_volume   264.00594184
_cell_formula_units_Z   1
loop_
 _symmetry_equiv_pos_site_id
 _symmetry_equiv_pos_as_xyz
  1  'x, y, z'
loop_
 _atom_site_type_symbol
 _atom_site_label
 _atom_site_symmetry_multiplicity
 _atom_site_fract_x
 _atom_site_fract_y
 _atom_site_fract_z
 _atom_site_occupancy
  Ta  Ta0  1  0.99401099  0.00000000  0.00067578  1
  Ta  Ta1  1  0.50293119  1.00000000  0.49826743  1
  Ta  Ta2  1  0.51168875  0.69681294  0.69017976  1
  Ta  Ta3  1  0.18853495  0.69490446  0.01199204  1
  Ta  Ta4  1  0.68314654  0.69961087  0.18266866  1
  Ta  Ta5  1  0.00893549  0.69258433  0.50836606  1
  Ta  Ta6  1  0.49363249  0.30509554  0.31708957  1
  Ta  Ta7  1  0.81487581  0.30318706  0.99336681  1
  Ta  Ta8  1  0.31635117  0.30741567  0.81578274  1
  Ta  Ta9  1  0.98353667  0.30038913  0.48305779  1
  Ga  Ga0  1  0.75194873  0.50023843  0.75301215  1
  Ga  Ga1  1  0.25171030  0.49976157  0.25277372  1
  Ga  Ga2  1  0.13812222  1.00000000  0.36256661  1
  Ga  Ga3  1  0.36426343  0.00000000  0.86687502  1
  Si  Si0  1  0.62781668  1.00000000  0.13070643  1
  As  As0  1  0.86849759  0.00000000  0.63261944  1
loop_
_geom_bond_atom_site_label_1
_geom_bond_atom_site_label_2
_geom_bond_distance
_geom_bond_site_symmetry_2
Ga0 Ta4 2.737063 1_556
Ga0 Ta8 2.744719 1_555
Ga0 Ta6 2.745930 1_555
Ga0 Ta9 2.750220 1_555
Ga0 Ta2 2.751057 1_555
Ga0 Ta3 2.751373 1_656
Ga0 Ta7 2.755496 1_555
Ga0 Ta5 2.757202 1_655
Ga0 Ta0 2.993496 1_566
Ga0 Ta1 2.996033 1_545
Ga1 Ta9 2.737060 1_455
Ga1 Ta5 2.744717 1_555
Ga1 Ta3 2.745946 1_555
Ga1 Ta4 2.750214 1_555
Ga1 Ta7 2.751057 1_454
Ga1 Ta6 2.751389 1_555
Ga1 Ta2 2.755495 1_555
Ga1 Ta8 2.757197 1_554
Ga1 Ta0 2.993496 1_455
Ga1 Ta1 2.996033 1_555
Ga2 Ta1 2.581627 1_555
Ga2 Ta0 2.584242 1_465
Ga2 Ta3 2.625400 1_555
Ga2 Ta6 2.625400 1_565
Ga2 Ta9 2.714116 1_465
Ga2 Ta4 2.714121 1_455
Ga2 Ta5 2.714828 1_555
Ga2 Ta8 2.714832 1_565
Ga3 Si0 2.472636 1_546
Ga3 Ta0 2.615746 1_456
Ga3 Ta1 2.617529 1_545
Ga3 Ta8 2.649663 1_555
Ga3 Ta5 2.649666 1_545
Ga3 Ta7 2.695650 1_555
Ga3 Ta2 2.695650 1_545
Ga3 Ta3 2.696548 1_546
Ga3 Ta6 2.696557 1_556
Si0 Ta1 2.579957 1_555
Si0 Ta0 2.581881 1_565
Si0 Ta4 2.624896 1_555
Si0 Ta9 2.624900 1_565
Si0 Ta6 2.648442 1_565
Si0 Ta3 2.648451 1_555
Si0 Ta7 2.652621 1_564
Si0 Ta2 2.652621 1_554
As0 Ga2 2.537117 1_645
As0 Ta0 2.580162 1_556
As0 Ta1 2.583254 1_545
As0 Ta2 2.663099 1_545
As0 Ta7 2.663099 1_555
As0 Ta5 2.690424 1_645
As0 Ta8 2.690425 1_655
As0 Ta9 2.692748 1_555
As0 Ta4 2.692749 1_545
