# generated using pymatgen
data_K3MnAgCl6
_symmetry_space_group_name_H-M   'P 1'
_cell_length_a   8.33199738
_cell_length_b   8.33199706
_cell_length_c   8.33199720
_cell_angle_alpha   92.70418233
_cell_angle_beta   92.70418676
_cell_angle_gamma   92.70417435
_symmetry_Int_Tables_number   1
_chemical_formula_structural   K3MnAgCl6
_chemical_formula_sum   'K6 Mn2 Ag2 Cl12'
_cell_volume   576.42993657
_cell_formula_units_Z   2
loop_
 _symmetry_equiv_pos_site_id
 _symmetry_equiv_pos_as_xyz
  1  'x, y, z'
loop_
 _atom_site_type_symbol
 _atom_site_label
 _atom_site_symmetry_multiplicity
 _atom_site_fract_x
 _atom_site_fract_y
 _atom_site_fract_z
 _atom_site_occupancy
  K  K0  1  0.12712209  0.37287791  0.75000000  1
  K  K1  1  0.75000000  0.12712209  0.37287791  1
  K  K2  1  0.37287791  0.75000000  0.12712209  1
  K  K3  1  0.25000000  0.87287791  0.62712209  1
  K  K4  1  0.62712209  0.25000000  0.87287791  1
  K  K5  1  0.87287791  0.62712209  0.25000000  1
  Mn  Mn0  1  0.50000000  0.50000000  0.50000000  1
  Mn  Mn1  1  0.00000000  0.00000000  0.00000000  1
  Ag  Ag0  1  0.25000000  0.25000000  0.25000000  1
  Ag  Ag1  1  0.75000000  0.75000000  0.75000000  1
  Cl  Cl0  1  0.20848856  0.54344500  0.41656091  1
  Cl  Cl1  1  0.41656091  0.20848856  0.54344500  1
  Cl  Cl2  1  0.54344500  0.41656091  0.20848856  1
  Cl  Cl3  1  0.91656091  0.04344500  0.70848856  1
  Cl  Cl4  1  0.70848856  0.91656091  0.04344500  1
  Cl  Cl5  1  0.04344500  0.70848856  0.91656091  1
  Cl  Cl6  1  0.79151144  0.45655500  0.58343909  1
  Cl  Cl7  1  0.58343909  0.79151144  0.45655500  1
  Cl  Cl8  1  0.45655500  0.58343909  0.79151144  1
  Cl  Cl9  1  0.08343909  0.95655500  0.29151144  1
  Cl  Cl10  1  0.29151144  0.08343909  0.95655500  1
  Cl  Cl11  1  0.95655500  0.29151144  0.08343909  1
loop_
_geom_bond_atom_site_label_1
_geom_bond_atom_site_label_2
_geom_bond_distance
_geom_bond_site_symmetry_2
Ag0 Cl1 2.797934 1_555
Ag0 Cl11 2.797934 1_455
Ag0 Cl0 2.797934 1_555
Ag0 Cl10 2.797934 1_554
Ag0 Cl9 2.797934 1_545
Ag0 Cl2 2.797934 1_555
Ag1 Cl7 2.797934 1_555
Ag1 Cl5 2.797934 1_655
Ag1 Cl6 2.797934 1_555
Ag1 Cl4 2.797934 1_556
Ag1 Cl3 2.797934 1_565
Ag1 Cl8 2.797934 1_555
Cl0 Mn0 2.541879 1_555
Cl0 K3 3.182832 1_555
Cl0 K5 3.184407 1_455
Cl0 K0 3.264530 1_555
Cl0 K2 3.336864 1_555
Cl1 Mn0 2.541879 1_555
Cl1 K4 3.182832 1_555
Cl1 K3 3.184407 1_545
Cl1 K1 3.264530 1_555
Cl1 K0 3.336864 1_555
Cl2 Mn0 2.541879 1_555
Cl2 K5 3.182832 1_555
Cl2 K4 3.184407 1_554
Cl2 K2 3.264530 1_555
Cl2 K1 3.336864 1_555
Cl3 Mn1 2.541879 1_656
Cl3 K0 3.182832 1_655
Cl3 K1 3.184407 1_555
Cl3 K3 3.264530 1_645
Cl3 K4 3.336864 1_555
Cl4 Mn1 2.541880 1_665
Cl4 K1 3.182832 1_565
Cl4 K2 3.184407 1_555
Cl4 K4 3.264530 1_564
Cl4 K5 3.336864 1_555
Cl5 Mn1 2.541879 1_566
Cl5 K2 3.182832 1_556
Cl5 K0 3.184407 1_555
Cl5 K5 3.264530 1_456
Cl5 K3 3.336864 1_555
Cl6 Mn0 2.541879 1_555
Cl6 K1 3.182832 1_555
Cl6 K0 3.184407 1_655
Cl6 K5 3.264530 1_555
Cl6 K4 3.336864 1_555
Cl7 Mn0 2.541879 1_555
Cl7 K2 3.182832 1_555
Cl7 K1 3.184407 1_565
Cl7 K3 3.264530 1_555
Cl7 K5 3.336864 1_555
Cl8 Mn0 2.541879 1_555
Cl8 K0 3.182832 1_555
Cl8 K2 3.184407 1_556
Cl8 K4 3.264530 1_555
Cl8 K3 3.336864 1_555
Cl9 Mn1 2.541879 1_565
Cl9 K5 3.182832 1_455
Cl9 K3 3.184407 1_555
Cl9 K1 3.264530 1_465
Cl9 K2 3.336864 1_555
Cl10 Mn1 2.541880 1_556
Cl10 K3 3.182832 1_545
Cl10 K4 3.184407 1_555
Cl10 K2 3.264530 1_546
Cl10 K0 3.336864 1_555
Cl11 Mn1 2.541879 1_655
Cl11 K4 3.182832 1_554
Cl11 K5 3.184407 1_555
Cl11 K0 3.264530 1_654
Cl11 K1 3.336864 1_555
