# generated using pymatgen
data_ErCoSi2
_symmetry_space_group_name_H-M   'P 1'
_cell_length_a   3.91773144
_cell_length_b   3.96980302
_cell_length_c   8.33157547
_cell_angle_alpha   103.78259451
_cell_angle_beta   90.00000000
_cell_angle_gamma   90.00000000
_symmetry_Int_Tables_number   1
_chemical_formula_structural   ErCoSi2
_chemical_formula_sum   'Er2 Co2 Si4'
_cell_volume   125.84687072
_cell_formula_units_Z   2
loop_
 _symmetry_equiv_pos_site_id
 _symmetry_equiv_pos_as_xyz
  1  'x, y, z'
loop_
 _atom_site_type_symbol
 _atom_site_label
 _atom_site_symmetry_multiplicity
 _atom_site_fract_x
 _atom_site_fract_y
 _atom_site_fract_z
 _atom_site_occupancy
  Er  Er0  1  0.25000000  0.89106749  0.78213497  1
  Er  Er1  1  0.75000000  0.10893251  0.21786503  1
  Co  Co0  1  0.75000000  0.32172182  0.64344465  1
  Co  Co1  1  0.25000000  0.67827818  0.35655535  1
  Si  Si0  1  0.25000000  0.25022207  0.50044614  1
  Si  Si1  1  0.75000000  0.74977793  0.49955386  1
  Si  Si2  1  0.75000000  0.45722826  0.91445653  1
  Si  Si3  1  0.25000000  0.54277174  0.08554347  1
loop_
_geom_bond_atom_site_label_1
_geom_bond_atom_site_label_2
_geom_bond_distance
_geom_bond_site_symmetry_2
Er0 Si2 2.987205 1_465
Er0 Si2 2.987205 1_565
Er0 Si2 2.987205 1_555
Er0 Si2 2.987205 1_455
Er0 Si1 3.010896 1_455
Er0 Si1 3.010896 1_555
Er0 Si0 3.022448 1_565
Er0 Si0 3.022453 1_555
Er0 Si3 3.157099 1_556
Er0 Si3 3.157099 1_566
Er1 Si3 2.987205 1_645
Er1 Si3 2.987205 1_545
Er1 Si3 2.987205 1_555
Er1 Si3 2.987205 1_655
Er1 Si0 3.010896 1_655
Er1 Si0 3.010896 1_555
Er1 Si1 3.022448 1_545
Er1 Si1 3.022453 1_555
Er1 Si2 3.157099 1_554
Er1 Si2 3.157099 1_544
Co0 Si2 2.192942 1_555
Co0 Si0 2.275089 1_555
Co0 Si0 2.275089 1_655
Co0 Si1 2.301184 1_545
Co0 Si1 2.301194 1_555
Co0 Er0 3.006060 1_645
Co0 Er0 3.006060 1_545
Co0 Er0 3.006063 1_655
Co0 Er0 3.006063 1_555
Co1 Si3 2.192942 1_555
Co1 Si1 2.275089 1_455
Co1 Si1 2.275089 1_555
Co1 Si0 2.301184 1_565
Co1 Si0 2.301194 1_555
Co1 Er1 3.006060 1_465
Co1 Er1 3.006060 1_565
Co1 Er1 3.006063 1_555
Co1 Er1 3.006063 1_455
Si2 Si3 2.398680 1_556
Si2 Si3 2.398680 1_656
