# generated using pymatgen
data_SrYAgTe3
_symmetry_space_group_name_H-M   'P 1'
_cell_length_a   7.71071310
_cell_length_b   7.71071242
_cell_length_c   11.46793465
_cell_angle_alpha   90.00000000
_cell_angle_beta   90.00000000
_cell_angle_gamma   146.57704703
_symmetry_Int_Tables_number   1
_chemical_formula_structural   SrYAgTe3
_chemical_formula_sum   'Sr2 Y2 Ag2 Te6'
_cell_volume   375.56069022
_cell_formula_units_Z   2
loop_
 _symmetry_equiv_pos_site_id
 _symmetry_equiv_pos_as_xyz
  1  'x, y, z'
loop_
 _atom_site_type_symbol
 _atom_site_label
 _atom_site_symmetry_multiplicity
 _atom_site_fract_x
 _atom_site_fract_y
 _atom_site_fract_z
 _atom_site_occupancy
  Sr  Sr0  1  0.76030159  0.23969841  0.25000000  1
  Sr  Sr1  1  0.23969841  0.76030159  0.75000000  1
  Y  Y0  1  0.00000000  0.00000000  0.00000000  1
  Y  Y1  1  0.00000000  0.00000000  0.50000000  1
  Ag  Ag0  1  0.47189044  0.52810956  0.25000000  1
  Ag  Ag1  1  0.52810956  0.47189044  0.75000000  1
  Te  Te0  1  0.64148352  0.35851648  0.94372246  1
  Te  Te1  1  0.08881374  0.91118626  0.25000000  1
  Te  Te2  1  0.35851648  0.64148352  0.44372246  1
  Te  Te3  1  0.35851648  0.64148352  0.05627754  1
  Te  Te4  1  0.64148352  0.35851648  0.55627754  1
  Te  Te5  1  0.91118626  0.08881374  0.75000000  1
loop_
_geom_bond_atom_site_label_1
_geom_bond_atom_site_label_2
_geom_bond_distance
_geom_bond_site_symmetry_2
Sr0 Te1 3.366255 1_655
Sr0 Te1 3.366255 1_545
Sr0 Te2 3.457742 1_545
Sr0 Te3 3.457742 1_545
Sr0 Te2 3.457743 1_655
Sr0 Te3 3.457743 1_655
Sr0 Te4 3.926400 1_555
Sr0 Te0 3.926400 1_554
Sr1 Te5 3.366255 1_455
Sr1 Te5 3.366255 1_565
Sr1 Te0 3.457742 1_565
Sr1 Te4 3.457742 1_565
Sr1 Te0 3.457743 1_455
Sr1 Te4 3.457743 1_455
Sr1 Te3 3.926400 1_556
Sr1 Te2 3.926400 1_555
Ag0 Te2 2.782012 1_555
Ag0 Te3 2.782012 1_555
Ag0 Te1 2.810435 1_545
Ag0 Te1 2.810436 1_655
Ag0 Sr0 3.831831 1_565
Ag0 Sr0 3.831831 1_455
Ag1 Te0 2.782012 1_555
Ag1 Te4 2.782012 1_555
Ag1 Te5 2.810435 1_565
Ag1 Te5 2.810436 1_455
Ag1 Sr1 3.831831 1_545
Ag1 Sr1 3.831831 1_655
Te0 Y0 3.114418 1_666
Te0 Y0 3.114419 1_556
Te1 Y0 3.152837 1_565
Te1 Y1 3.152837 1_565
Te2 Y1 3.114418 1_555
Te2 Y1 3.114419 1_665
Te3 Y0 3.114418 1_555
Te3 Y0 3.114419 1_665
Te4 Y1 3.114418 1_665
Te4 Y1 3.114419 1_555
Te5 Y0 3.152837 1_656
Te5 Y1 3.152837 1_655
