# generated using pymatgen
data_Sc6Ti5Ga11Rh7
_symmetry_space_group_name_H-M   'P 1'
_cell_length_a   8.77981098
_cell_length_b   8.77981144
_cell_length_c   8.73129919
_cell_angle_alpha   59.81603430
_cell_angle_beta   59.81603324
_cell_angle_gamma   60.00000059
_symmetry_Int_Tables_number   1
_chemical_formula_structural   Sc6Ti5Ga11Rh7
_chemical_formula_sum   'Sc6 Ti5 Ga11 Rh7'
_cell_volume   474.59263603
_cell_formula_units_Z   1
loop_
 _symmetry_equiv_pos_site_id
 _symmetry_equiv_pos_as_xyz
  1  'x, y, z'
loop_
 _atom_site_type_symbol
 _atom_site_label
 _atom_site_symmetry_multiplicity
 _atom_site_fract_x
 _atom_site_fract_y
 _atom_site_fract_z
 _atom_site_occupancy
  Sc  Sc0  1  0.70624285  0.70624285  0.29732872  1
  Sc  Sc1  1  0.29018557  0.70624285  0.29732872  1
  Sc  Sc2  1  0.70624285  0.29018557  0.29732872  1
  Sc  Sc3  1  0.29988191  0.29988191  0.70824932  1
  Sc  Sc4  1  0.69198785  0.29988191  0.70824932  1
  Sc  Sc5  1  0.29988191  0.69198785  0.70824932  1
  Ti  Ti0  1  0.87953025  0.87953025  0.36140926  1
  Ti  Ti1  1  0.87679208  0.36581076  0.88060609  1
  Ti  Ti2  1  0.36581076  0.87679208  0.88060609  1
  Ti  Ti3  1  0.87679208  0.87679208  0.88060609  1
  Ti  Ti4  1  0.12477832  0.12477832  0.62566405  1
  Ga  Ga0  1  0.11737121  0.64704951  0.11820706  1
  Ga  Ga1  1  0.64704951  0.11737121  0.11820706  1
  Ga  Ga2  1  0.11737121  0.11737121  0.11820706  1
  Ga  Ga3  1  0.66075527  0.66075527  0.01773320  1
  Ga  Ga4  1  0.66194817  0.01488796  0.66121470  1
  Ga  Ga5  1  0.01488796  0.66194817  0.66121470  1
  Ga  Ga6  1  0.66194817  0.66194817  0.66121470  1
  Ga  Ga7  1  0.33655607  0.33655607  0.99033178  1
  Ga  Ga8  1  0.33709971  0.99059687  0.33520470  1
  Ga  Ga9  1  0.99059687  0.33709971  0.33520470  1
  Ga  Ga10  1  0.33709971  0.33709971  0.33520470  1
  Rh  Rh0  1  0.00743249  0.00743249  0.97770253  1
  Rh  Rh1  1  0.99881924  0.99881924  0.50541042  1
  Rh  Rh2  1  0.49695111  0.99881924  0.50541042  1
  Rh  Rh3  1  0.99881924  0.49695111  0.50541042  1
  Rh  Rh4  1  0.50111674  0.50111674  0.00283237  1
  Rh  Rh5  1  0.99493416  0.50111674  0.00283237  1
  Rh  Rh6  1  0.50111674  0.99493416  0.00283237  1
loop_
_geom_bond_atom_site_label_1
_geom_bond_atom_site_label_2
_geom_bond_distance
_geom_bond_site_symmetry_2
Sc0 Ti0 2.994872 1_555
Sc0 Ti3 3.001382 1_554
Sc0 Sc5 3.569403 1_555
Sc0 Sc4 3.569404 1_555
Sc0 Sc1 3.652904 1_555
Sc0 Sc2 3.652904 1_555
Sc1 Ti0 2.994872 1_455
Sc1 Ti2 3.001380 1_554
Sc1 Sc3 3.569404 1_555
Sc1 Sc5 3.569408 1_555
Sc1 Sc2 3.652904 1_555
Sc2 Ti0 2.994872 1_545
Sc2 Ti1 3.001380 1_554
Sc2 Sc3 3.569404 1_555
Sc2 Sc4 3.569408 1_555
Sc3 Ti1 3.082679 1_455
Sc3 Ti2 3.082679 1_545
Sc3 Ti4 3.136875 1_555
Sc3 Sc4 3.442616 1_555
Sc3 Sc5 3.442616 1_555
Sc4 Ti1 3.082679 1_555
Sc4 Ti3 3.082679 1_545
Sc4 Ti4 3.136860 1_655
Sc4 Sc5 3.442616 1_555
Sc5 Ti3 3.082679 1_455
Sc5 Ti2 3.082679 1_555
Sc5 Ti4 3.136860 1_565
Ti1 Ti4 3.070769 1_655
Ti2 Ti4 3.070769 1_565
Ti3 Ti4 3.070757 1_665
Ga0 Rh0 2.584872 1_564
Ga0 Rh5 2.752474 1_455
Ga0 Rh4 2.752481 1_555
Ga0 Rh3 2.757342 1_455
Ga0 Ga9 2.820974 1_455
Ga0 Ga10 2.820984 1_555
Ga0 Ga7 2.834679 1_554
Ga0 Ti0 2.945022 1_455
Ga0 Ti3 2.961746 1_454
Ga0 Ti2 2.961759 1_554
Ga0 Sc5 2.996734 1_554
Ga0 Sc0 3.001696 1_455
Ga0 Sc1 3.001703 1_555
Ga1 Rh0 2.584872 1_654
Ga1 Rh6 2.752474 1_545
Ga1 Rh4 2.752481 1_555
Ga1 Rh2 2.757342 1_545
Ga1 Ga8 2.820974 1_545
Ga1 Ga10 2.820984 1_555
Ga1 Ga7 2.834679 1_554
Ga1 Ti0 2.945022 1_545
Ga1 Ti3 2.961746 1_544
Ga1 Ti1 2.961759 1_554
Ga1 Sc4 2.996734 1_554
Ga1 Sc0 3.001696 1_545
Ga1 Sc2 3.001703 1_555
Ga2 Rh0 2.584865 1_554
Ga2 Rh6 2.752482 1_545
Ga2 Rh5 2.752482 1_455
Ga2 Rh1 2.757343 1_445
Ga2 Ga8 2.820989 1_545
Ga2 Ga9 2.820989 1_455
Ga2 Ga7 2.834686 1_554
Ga2 Ti0 2.945016 1_445
Ga2 Ti1 2.961747 1_454
Ga2 Ti2 2.961747 1_544
Ga2 Sc3 2.996738 1_554
Ga2 Sc2 3.001697 1_455
Ga2 Sc1 3.001697 1_545
Ga3 Rh4 2.505409 1_555
Ga3 Rh5 2.505417 1_555
Ga3 Rh6 2.505417 1_555
Ga3 Ti2 2.767553 1_554
Ga3 Ti1 2.767553 1_554
Ga3 Ti3 2.767568 1_554
Ga3 Sc1 2.898074 1_555
Ga3 Sc2 2.898074 1_555
Ga3 Sc0 2.898080 1_555
Ga4 Rh2 2.519543 1_545
Ga4 Rh1 2.519550 1_545
Ga4 Rh6 2.531438 1_546
Ga4 Ti2 2.776396 1_545
Ga4 Ti3 2.776411 1_545
Ga4 Ti0 2.782711 1_545
Ga4 Sc2 2.839609 1_555
Ga4 Sc3 2.881192 1_555
Ga4 Sc4 2.881202 1_555
Ga5 Rh3 2.519543 1_455
Ga5 Rh1 2.519551 1_455
Ga5 Rh5 2.531438 1_456
Ga5 Ti1 2.776396 1_455
Ga5 Ti3 2.776411 1_455
Ga5 Ti0 2.782711 1_455
Ga5 Sc1 2.839609 1_555
Ga5 Sc3 2.881192 1_555
Ga5 Sc5 2.881202 1_555
Ga6 Rh3 2.519548 1_555
Ga6 Rh2 2.519548 1_555
Ga6 Rh4 2.531435 1_556
Ga6 Ti2 2.776406 1_555
Ga6 Ti1 2.776406 1_555
Ga6 Ti0 2.782716 1_555
Ga6 Sc0 2.839606 1_555
Ga6 Sc5 2.881185 1_555
Ga6 Sc4 2.881185 1_555
Ga7 Rh5 2.567391 1_456
Ga7 Rh4 2.567391 1_556
Ga7 Rh6 2.567391 1_546
Ga7 Sc3 2.823482 1_555
Ga7 Sc4 2.823488 1_555
Ga7 Sc5 2.823488 1_555
Ga7 Ga9 3.015991 1_456
Ga7 Ga8 3.015991 1_546
Ga8 Rh6 2.497689 1_555
Ga8 Rh2 2.547542 1_555
Ga8 Rh1 2.547549 1_455
Ga8 Ti4 2.710899 1_565
Ga8 Sc0 2.916746 1_555
Ga8 Sc1 2.916751 1_555
Ga8 Sc5 2.964618 1_555
Ga8 Ga9 3.042230 1_465
Ga9 Rh5 2.497689 1_555
Ga9 Rh3 2.547542 1_555
Ga9 Rh1 2.547549 1_545
Ga9 Ti4 2.710899 1_655
Ga9 Sc0 2.916746 1_555
Ga9 Sc2 2.916751 1_555
Ga9 Sc4 2.964618 1_555
Ga10 Rh4 2.497687 1_555
Ga10 Rh3 2.547547 1_455
Ga10 Rh2 2.547547 1_545
Ga10 Ti4 2.710909 1_555
Ga10 Sc2 2.916743 1_555
Ga10 Sc1 2.916743 1_555
Ga10 Sc3 2.964618 1_555
Ga10 Ga7 3.015996 1_554
Ga10 Ga9 3.042229 1_455
Ga10 Ga8 3.042230 1_545
Rh0 Ti4 2.502708 1_555
Rh0 Ti3 2.573159 1_445
Rh0 Ti2 2.573166 1_545
Rh0 Ti1 2.573166 1_455
Rh0 Ti0 2.727843 1_446
Rh1 Ti4 2.665836 1_665
Rh1 Ti3 2.667737 1_555
Rh1 Ti0 2.742239 1_555
Rh1 Sc2 3.145097 1_565
Rh1 Sc1 3.145097 1_655
Rh1 Sc5 3.189004 1_655
Rh1 Sc4 3.189004 1_565
Rh2 Ti4 2.665843 1_565
Rh2 Ti2 2.667737 1_555
Rh2 Ti0 2.742239 1_555
Rh2 Sc2 3.145097 1_565
Rh2 Sc0 3.145097 1_555
Rh2 Sc5 3.188998 1_555
Rh2 Sc3 3.189005 1_565
Rh3 Ti4 2.665844 1_655
Rh3 Ti1 2.667737 1_555
Rh3 Ti0 2.742239 1_555
Rh3 Sc1 3.145097 1_655
Rh3 Sc0 3.145097 1_555
Rh3 Sc4 3.188998 1_555
Rh3 Sc3 3.189005 1_655
Rh4 Ti1 2.691892 1_554
Rh4 Ti2 2.691893 1_554
Rh4 Sc2 3.133347 1_555
Rh4 Sc1 3.133347 1_555
Rh4 Sc5 3.133706 1_554
Rh4 Sc4 3.133706 1_554
Rh5 Ti1 2.691885 1_554
Rh5 Ti3 2.691893 1_554
Rh5 Sc2 3.133347 1_555
Rh5 Sc0 3.133347 1_555
Rh5 Sc3 3.133707 1_654
Rh5 Sc5 3.133712 1_654
Rh6 Ti2 2.691885 1_554
Rh6 Ti3 2.691893 1_554
Rh6 Sc1 3.133347 1_555
Rh6 Sc0 3.133347 1_555
Rh6 Sc3 3.133707 1_564
Rh6 Sc4 3.133712 1_564
