# generated using pymatgen
data_HfZn2Ni2Au
_symmetry_space_group_name_H-M   'P 1'
_cell_length_a   4.89365460
_cell_length_b   4.87180574
_cell_length_c   4.87180485
_cell_angle_alpha   61.38557999
_cell_angle_beta   59.85153789
_cell_angle_gamma   59.85152402
_symmetry_Int_Tables_number   1
_chemical_formula_structural   HfZn2Ni2Au
_chemical_formula_sum   'Hf1 Zn2 Ni2 Au1'
_cell_volume   82.76390702
_cell_formula_units_Z   1
loop_
 _symmetry_equiv_pos_site_id
 _symmetry_equiv_pos_as_xyz
  1  'x, y, z'
loop_
 _atom_site_type_symbol
 _atom_site_label
 _atom_site_symmetry_multiplicity
 _atom_site_fract_x
 _atom_site_fract_y
 _atom_site_fract_z
 _atom_site_occupancy
  Hf  Hf0  1  0.26130093  0.23869907  0.23869907  1
  Zn  Zn0  1  0.62307039  0.62846640  0.62846640  1
  Zn  Zn1  1  0.11999681  0.62846640  0.62846640  1
  Ni  Ni0  1  0.62128897  0.12960502  0.62781805  1
  Ni  Ni1  1  0.62128897  0.62781805  0.12960502  1
  Au  Au0  1  0.00305493  0.99694507  0.99694507  1
loop_
_geom_bond_atom_site_label_1
_geom_bond_atom_site_label_2
_geom_bond_distance
_geom_bond_site_symmetry_2
Hf0 Ni0 2.747948 1_554
Hf0 Ni1 2.747949 1_545
Hf0 Zn1 2.874216 1_554
Hf0 Zn0 2.874216 1_545
Hf0 Zn0 2.874216 1_554
Hf0 Zn1 2.874217 1_545
Hf0 Ni1 2.903212 1_455
Hf0 Ni0 2.903212 1_455
Hf0 Ni0 2.903216 1_555
Hf0 Ni1 2.903217 1_555
Hf0 Zn0 2.916390 1_455
Hf0 Zn1 2.916390 1_555
Zn0 Zn1 2.431786 1_655
Zn0 Zn1 2.461868 1_555
Ni0 Zn1 2.435572 1_645
Ni0 Zn0 2.435575 1_545
Ni0 Zn0 2.436263 1_555
Ni0 Zn1 2.436265 1_555
Ni0 Ni1 2.477851 1_555
Ni0 Ni1 2.495626 1_546
Ni1 Zn1 2.435573 1_654
Ni1 Zn0 2.435575 1_554
Ni1 Zn0 2.436263 1_555
Ni1 Zn1 2.436265 1_555
Au0 Zn0 2.792041 1_555
Au0 Zn1 2.792041 1_555
Au0 Ni0 2.861920 1_465
Au0 Ni1 2.861921 1_456
Au0 Ni1 2.861925 1_556
Au0 Ni0 2.861925 1_565
Au0 Ni0 2.876864 1_466
Au0 Ni1 2.876864 1_466
Au0 Zn1 2.909015 1_556
Au0 Zn0 2.909015 1_465
Au0 Zn0 2.909016 1_456
Au0 Zn1 2.909016 1_565
Au0 Hf0 2.947934 1_466
Au0 Hf0 2.947934 1_566
Au0 Hf0 3.044443 1_565
Au0 Hf0 3.044443 1_556
