# generated using pymatgen
data_NaSr21(Al4Sn3)2
_symmetry_space_group_name_H-M   'P 1'
_cell_length_a   12.26790146
_cell_length_b   12.26790223
_cell_length_c   12.26790043
_cell_angle_alpha   60.00000483
_cell_angle_beta   60.00000277
_cell_angle_gamma   60.00000391
_symmetry_Int_Tables_number   1
_chemical_formula_structural   NaSr21(Al4Sn3)2
_chemical_formula_sum   'Na1 Sr21 Al8 Sn6'
_cell_volume   1305.55708962
_cell_formula_units_Z   1
loop_
 _symmetry_equiv_pos_site_id
 _symmetry_equiv_pos_as_xyz
  1  'x, y, z'
loop_
 _atom_site_type_symbol
 _atom_site_label
 _atom_site_symmetry_multiplicity
 _atom_site_fract_x
 _atom_site_fract_y
 _atom_site_fract_z
 _atom_site_occupancy
  Na  Na0  1  0.50000000  0.50000000  0.50000000  1
  Sr  Sr0  1  0.87114626  0.87114626  0.38655923  1
  Sr  Sr1  1  0.61344077  0.12885374  0.12885374  1
  Sr  Sr2  1  0.87114626  0.38655923  0.87114626  1
  Sr  Sr3  1  0.12885374  0.12885374  0.12885374  1
  Sr  Sr4  1  0.38655923  0.87114626  0.87114626  1
  Sr  Sr5  1  0.87114626  0.87114626  0.87114626  1
  Sr  Sr6  1  0.17045928  0.82954072  0.50000000  1
  Sr  Sr7  1  0.82954072  0.50000000  0.50000000  1
  Sr  Sr8  1  0.12885374  0.12885374  0.61344077  1
  Sr  Sr9  1  0.82954072  0.17045928  0.50000000  1
  Sr  Sr10  1  0.17045928  0.50000000  0.50000000  1
  Sr  Sr11  1  0.12885374  0.61344077  0.12885374  1
  Sr  Sr12  1  0.50000000  0.50000000  0.17045928  1
  Sr  Sr13  1  0.50000000  0.17045928  0.82954072  1
  Sr  Sr14  1  0.50000000  0.82954072  0.17045928  1
  Sr  Sr15  1  0.50000000  0.50000000  0.82954072  1
  Sr  Sr16  1  0.50000000  0.17045928  0.50000000  1
  Sr  Sr17  1  0.17045928  0.50000000  0.82954072  1
  Sr  Sr18  1  0.00000000  0.00000000  0.00000000  1
  Sr  Sr19  1  0.50000000  0.82954072  0.50000000  1
  Sr  Sr20  1  0.82954072  0.50000000  0.17045928  1
  Al  Al0  1  0.69484928  0.91545316  0.69484928  1
  Al  Al1  1  0.69484928  0.69484928  0.91545316  1
  Al  Al2  1  0.69484928  0.69484928  0.69484928  1
  Al  Al3  1  0.30515072  0.08454684  0.30515072  1
  Al  Al4  1  0.91545316  0.69484928  0.69484928  1
  Al  Al5  1  0.30515072  0.30515072  0.08454684  1
  Al  Al6  1  0.08454684  0.30515072  0.30515072  1
  Al  Al7  1  0.30515072  0.30515072  0.30515072  1
  Sn  Sn0  1  0.78375921  0.21624079  0.78375921  1
  Sn  Sn1  1  0.78375921  0.21624079  0.21624079  1
  Sn  Sn2  1  0.21624079  0.78375921  0.21624079  1
  Sn  Sn3  1  0.21624079  0.78375921  0.78375921  1
  Sn  Sn4  1  0.78375921  0.78375921  0.21624079  1
  Sn  Sn5  1  0.21624079  0.21624079  0.78375921  1
loop_
_geom_bond_atom_site_label_1
_geom_bond_atom_site_label_2
_geom_bond_distance
_geom_bond_site_symmetry_2
Na0 Sr15 4.042773 1_555
Na0 Sr12 4.042773 1_555
Na0 Sr7 4.042773 1_555
Na0 Sr20 4.042773 1_555
Na0 Sr17 4.042773 1_555
Na0 Sr10 4.042773 1_555
Na0 Sr19 4.042773 1_555
Na0 Sr16 4.042773 1_555
Na0 Sr14 4.042773 1_555
Na0 Sr13 4.042773 1_555
Na0 Sr6 4.042773 1_555
Na0 Sr9 4.042773 1_555
Sr0 Sr18 3.872048 1_665
Sr0 Sr19 4.266836 1_555
Sr0 Sr7 4.266836 1_555
Sr0 Sr16 4.266848 1_565
Sr0 Sr10 4.266848 1_655
Sr0 Sr6 4.266859 1_655
Sr0 Sr9 4.266860 1_565
Sr1 Sr18 3.872048 1_655
Sr1 Sr16 4.266836 1_555
Sr1 Sr12 4.266836 1_555
Sr1 Sr19 4.266848 1_545
Sr1 Sr15 4.266848 1_554
Sr1 Sr13 4.266859 1_554
Sr1 Sr14 4.266860 1_545
Sr2 Sr7 4.266836 1_555
Sr2 Sr20 4.266859 1_556
Sr3 Sr9 4.266842 1_455
Sr3 Sr6 4.266843 1_545
Sr5 Sr6 4.266842 1_655
Sr5 Sr9 4.266843 1_565
Sr6 Sr9 4.182356 1_465
Sr6 Sr8 4.266860 1_565
Sr7 Sr9 4.042773 1_555
Sr7 Sr8 4.266848 1_655
Sr8 Sr9 4.266859 1_455
Sr10 Sr17 4.042773 1_555
Sr10 Sr12 4.042773 1_555
Sr10 Sr6 4.042773 1_555
Sr10 Sr16 4.042773 1_555
Sr10 Sr7 4.182355 1_455
Sr10 Sr11 4.266836 1_555
Sr10 Sr8 4.266836 1_555
Sr10 Sr2 4.266848 1_455
Sr11 Sr18 3.872048 1_565
Sr11 Sr12 4.266836 1_555
Sr11 Sr15 4.266848 1_554
Sr11 Sr7 4.266848 1_455
Sr11 Sr17 4.266859 1_554
Sr11 Sr20 4.266860 1_455
Sr12 Sr20 4.042773 1_555
Sr12 Sr14 4.042773 1_555
Sr12 Sr16 4.042773 1_555
Sr12 Sr15 4.182355 1_554
Sr12 Sr2 4.266848 1_554
Sr12 Sr4 4.266848 1_554
Sr13 Sr16 4.042773 1_555
Sr13 Sr9 4.042773 1_555
Sr13 Sr15 4.042773 1_555
Sr13 Sr17 4.042773 1_555
Sr13 Sr14 4.182355 1_546
Sr13 Sr3 4.266843 1_556
Sr13 Sr5 4.266843 1_545
Sr13 Sr4 4.266860 1_545
Sr14 Sr19 4.042773 1_555
Sr14 Sr6 4.042773 1_555
Sr14 Sr20 4.042773 1_555
Sr14 Sr5 4.266843 1_554
Sr14 Sr3 4.266843 1_565
Sr14 Sr4 4.266859 1_554
Sr15 Sr7 4.042773 1_555
Sr15 Sr17 4.042773 1_555
Sr15 Sr19 4.042773 1_555
Sr15 Sr2 4.266836 1_555
Sr15 Sr4 4.266836 1_555
Sr16 Sr9 4.042773 1_555
Sr16 Sr19 4.182355 1_545
Sr16 Sr8 4.266836 1_555
Sr16 Sr4 4.266848 1_545
Sr17 Sr6 4.042773 1_555
Sr17 Sr20 4.182355 1_456
Sr17 Sr3 4.266843 1_556
Sr17 Sr5 4.266843 1_455
Sr17 Sr2 4.266860 1_455
Sr18 Sr8 3.872048 1_554
Sr18 Sr4 3.872048 1_544
Sr18 Sr2 3.872048 1_454
Sr18 Sr3 3.872068 1_555
Sr18 Sr5 3.872068 1_444
Sr19 Sr6 4.042773 1_555
Sr19 Sr7 4.042773 1_555
Sr19 Sr4 4.266836 1_555
Sr19 Sr8 4.266848 1_565
Sr20 Sr7 4.042773 1_555
Sr20 Sr9 4.042773 1_555
Sr20 Sr5 4.266843 1_554
Sr20 Sr3 4.266843 1_655
Al0 Al2 2.706347 1_555
Al0 Al1 2.706347 1_555
Al0 Al4 2.706347 1_555
Al0 Sr13 3.460136 1_565
Al0 Sr9 3.460136 1_565
Al0 Sr16 3.460143 1_565
Al0 Sr5 3.460823 1_555
Al0 Sr0 3.460855 1_555
Al0 Sr4 3.460855 1_555
Al1 Al2 2.706346 1_555
Al1 Al4 2.706347 1_555
Al1 Sr14 3.460135 1_556
Al1 Sr20 3.460135 1_556
Al1 Sr12 3.460143 1_556
Al1 Sr5 3.460823 1_555
Al1 Sr4 3.460855 1_555
Al1 Sr2 3.460855 1_555
Al2 Al4 2.706347 1_555
Al2 Sr19 3.460145 1_555
Al2 Sr7 3.460145 1_555
Al2 Sr15 3.460145 1_555
Al2 Sr0 3.460841 1_555
Al2 Sr4 3.460841 1_555
Al2 Sr2 3.460841 1_555
Al3 Al7 2.706347 1_555
Al3 Al5 2.706347 1_555
Al3 Al6 2.706347 1_555
Al3 Sr14 3.460136 1_545
Al3 Sr6 3.460136 1_545
Al3 Sr19 3.460143 1_545
Al3 Sr3 3.460823 1_555
Al3 Sr8 3.460855 1_555
Al3 Sr1 3.460855 1_555
Al4 Sr17 3.460135 1_655
Al4 Sr6 3.460136 1_655
Al4 Sr10 3.460143 1_655
Al4 Sr5 3.460823 1_555
Al4 Sr0 3.460855 1_555
Al4 Sr2 3.460855 1_555
Al5 Al7 2.706346 1_555
Al5 Al6 2.706347 1_555
Al5 Sr13 3.460135 1_554
Al5 Sr17 3.460135 1_554
Al5 Sr15 3.460143 1_554
Al5 Sr3 3.460823 1_555
Al5 Sr1 3.460855 1_555
Al5 Sr11 3.460855 1_555
Al6 Al7 2.706347 1_555
Al6 Sr20 3.460135 1_455
Al6 Sr9 3.460136 1_455
Al6 Sr7 3.460143 1_455
Al6 Sr3 3.460823 1_555
Al6 Sr8 3.460855 1_555
Al6 Sr11 3.460855 1_555
Al7 Sr16 3.460145 1_555
Al7 Sr10 3.460145 1_555
Al7 Sr12 3.460145 1_555
Al7 Sr8 3.460841 1_555
Al7 Sr1 3.460841 1_555
Al7 Sr11 3.460841 1_555
Sn0 Sr2 3.506241 1_555
Sn0 Sr1 3.506259 1_556
Sn0 Sr8 3.506259 1_655
Sn0 Sr5 3.506263 1_545
Sn0 Sr9 3.526146 1_555
Sn0 Sr13 3.526147 1_555
Sn0 Sr7 3.526147 1_555
Sn0 Sr15 3.526147 1_555
Sn0 Sr18 3.751655 1_656
Sn1 Sr1 3.506241 1_555
Sn1 Sr2 3.506259 1_554
Sn1 Sr0 3.506260 1_545
Sn1 Sr3 3.506263 1_655
Sn1 Sr9 3.526146 1_555
Sn1 Sr16 3.526147 1_555
Sn1 Sr20 3.526147 1_555
Sn1 Sr12 3.526147 1_555
Sn1 Sr18 3.751655 1_655
Sn2 Sr11 3.506241 1_555
Sn2 Sr4 3.506259 1_554
Sn2 Sr0 3.506259 1_455
Sn2 Sr3 3.506263 1_565
Sn2 Sr6 3.526146 1_555
Sn2 Sr14 3.526147 1_555
Sn2 Sr10 3.526147 1_555
Sn2 Sr12 3.526147 1_555
Sn2 Sr18 3.751655 1_565
Sn3 Sr4 3.506241 1_555
Sn3 Sr11 3.506259 1_556
Sn3 Sr8 3.506260 1_565
Sn3 Sr5 3.506263 1_455
Sn3 Sr6 3.526146 1_555
Sn3 Sr19 3.526147 1_555
Sn3 Sr17 3.526147 1_555
Sn3 Sr15 3.526147 1_555
Sn3 Sr18 3.751655 1_566
Sn4 Sr0 3.506241 1_555
Sn4 Sr11 3.506259 1_655
Sn4 Sr1 3.506260 1_565
Sn4 Sr5 3.506263 1_554
Sn4 Sr19 3.526146 1_555
Sn4 Sr14 3.526146 1_555
Sn4 Sr7 3.526147 1_555
Sn4 Sr20 3.526147 1_555
Sn4 Sr18 3.751655 1_665
Sn5 Sr8 3.506241 1_555
Sn5 Sr2 3.506259 1_455
Sn5 Sr4 3.506260 1_545
Sn5 Sr3 3.506263 1_556
Sn5 Sr16 3.526146 1_555
Sn5 Sr13 3.526146 1_555
Sn5 Sr10 3.526147 1_555
Sn5 Sr17 3.526147 1_555
Sn5 Sr18 3.751655 1_556
