# generated using pymatgen
data_Ta3Al2TcC
_symmetry_space_group_name_H-M   'P 1'
_cell_length_a   8.29036971
_cell_length_b   8.29036945
_cell_length_c   8.29036814
_cell_angle_alpha   59.99999737
_cell_angle_beta   59.99999842
_cell_angle_gamma   59.99999789
_symmetry_Int_Tables_number   1
_chemical_formula_structural   Ta3Al2TcC
_chemical_formula_sum   'Ta12 Al8 Tc4 C4'
_cell_volume   402.90864014
_cell_formula_units_Z   4
loop_
 _symmetry_equiv_pos_site_id
 _symmetry_equiv_pos_as_xyz
  1  'x, y, z'
loop_
 _atom_site_type_symbol
 _atom_site_label
 _atom_site_symmetry_multiplicity
 _atom_site_fract_x
 _atom_site_fract_y
 _atom_site_fract_z
 _atom_site_occupancy
  Ta  Ta0  1  0.55861723  0.94138277  0.55861723  1
  Ta  Ta1  1  0.30861723  0.69138277  0.69138277  1
  Ta  Ta2  1  0.69138277  0.30861723  0.30861723  1
  Ta  Ta3  1  0.30861723  0.69138277  0.30861723  1
  Ta  Ta4  1  0.69138277  0.69138277  0.30861723  1
  Ta  Ta5  1  0.30861723  0.30861723  0.69138277  1
  Ta  Ta6  1  0.55861723  0.55861723  0.94138277  1
  Ta  Ta7  1  0.94138277  0.55861723  0.55861723  1
  Ta  Ta8  1  0.55861723  0.94138277  0.94138277  1
  Ta  Ta9  1  0.94138277  0.94138277  0.55861723  1
  Ta  Ta10  1  0.69138277  0.30861723  0.69138277  1
  Ta  Ta11  1  0.94138277  0.55861723  0.94138277  1
  Al  Al0  1  0.91628399  0.91628399  0.91628399  1
  Al  Al1  1  0.99884998  0.33371601  0.33371601  1
  Al  Al2  1  0.33371601  0.99884998  0.33371601  1
  Al  Al3  1  0.33371601  0.33371601  0.99884998  1
  Al  Al4  1  0.91628399  0.25115002  0.91628399  1
  Al  Al5  1  0.91628399  0.91628399  0.25115002  1
  Al  Al6  1  0.25115002  0.91628399  0.91628399  1
  Al  Al7  1  0.33371601  0.33371601  0.33371601  1
  Tc  Tc0  1  0.12500000  0.12500000  0.12500000  1
  Tc  Tc1  1  0.62500000  0.12500000  0.12500000  1
  Tc  Tc2  1  0.12500000  0.62500000  0.12500000  1
  Tc  Tc3  1  0.12500000  0.12500000  0.62500000  1
  C  C0  1  0.62500000  0.62500000  0.62500000  1
  C  C1  1  0.12500000  0.62500000  0.62500000  1
  C  C2  1  0.62500000  0.12500000  0.62500000  1
  C  C3  1  0.62500000  0.62500000  0.12500000  1
loop_
_geom_bond_atom_site_label_1
_geom_bond_atom_site_label_2
_geom_bond_distance
_geom_bond_site_symmetry_2
Ta0 Tc1 2.988336 1_565
Ta0 Tc3 2.988337 1_565
Ta1 Tc2 2.988336 1_556
Ta1 Tc3 2.988337 1_565
Ta2 Tc1 2.988337 1_555
Ta2 Tc0 2.988337 1_655
Ta3 Tc0 2.988337 1_565
Ta3 Tc2 2.988337 1_555
Ta4 Tc1 2.988337 1_565
Ta4 Tc2 2.988337 1_655
Ta5 Tc0 2.988336 1_556
Ta5 Tc3 2.988337 1_555
Ta6 Tc1 2.988337 1_556
Ta6 Tc2 2.988337 1_556
Ta7 Tc2 2.988336 1_655
Ta7 Tc3 2.988337 1_655
Ta8 Tc1 2.988337 1_566
Ta8 Tc0 2.988337 1_566
Ta9 Tc0 2.988336 1_665
Ta9 Tc3 2.988337 1_665
Ta10 Tc1 2.988336 1_556
Ta10 Tc3 2.988337 1_655
Ta11 Tc0 2.988337 1_656
Ta11 Tc2 2.988337 1_656
Al0 Tc2 2.540998 1_656
Al0 Tc1 2.540998 1_566
Al0 Tc3 2.540998 1_665
Al0 Ta9 2.772770 1_555
Al0 Ta11 2.772771 1_555
Al0 Ta8 2.772771 1_555
Al0 Al5 2.776163 1_556
Al0 Al4 2.776163 1_565
Al0 Al6 2.776163 1_655
Al0 Ta4 2.979861 1_556
Al0 Ta10 2.979861 1_565
Al0 Ta1 2.979861 1_655
Al1 Tc0 2.540993 1_655
Al1 Tc3 2.541006 1_655
Al1 Tc2 2.541007 1_655
Al1 Ta2 2.772754 1_555
Al1 Ta10 2.772763 1_555
Al1 Ta4 2.772764 1_555
Al1 Al3 2.776163 1_654
Al1 Al2 2.776163 1_645
Al1 Al7 2.776163 1_655
Al1 Ta11 2.979854 1_554
Al1 Ta9 2.979855 1_545
Al1 Ta7 2.979869 1_555
Al2 Tc0 2.540993 1_565
Al2 Tc3 2.541006 1_565
Al2 Tc1 2.541007 1_565
Al2 Ta3 2.772754 1_555
Al2 Ta1 2.772763 1_555
Al2 Ta4 2.772764 1_555
Al2 Al3 2.776163 1_564
Al2 Al7 2.776163 1_565
Al2 Ta8 2.979854 1_554
Al2 Ta9 2.979855 1_455
Al2 Ta0 2.979869 1_555
Al3 Tc0 2.540993 1_556
Al3 Tc2 2.541007 1_556
Al3 Tc1 2.541007 1_556
Al3 Ta5 2.772754 1_555
Al3 Ta1 2.772763 1_555
Al3 Ta10 2.772763 1_555
Al3 Al7 2.776163 1_556
Al3 Ta8 2.979855 1_545
Al3 Ta11 2.979855 1_455
Al3 Ta6 2.979869 1_555
Al4 Tc0 2.540993 1_656
Al4 Tc3 2.541006 1_655
Al4 Tc1 2.541007 1_556
Al4 Ta11 2.772754 1_555
Al4 Ta7 2.772763 1_555
Al4 Ta6 2.772764 1_555
Al4 Al5 2.776163 1_546
Al4 Al6 2.776163 1_645
Al4 Ta2 2.979854 1_556
Al4 Ta5 2.979855 1_655
Al4 Ta10 2.979869 1_555
Al5 Tc0 2.540993 1_665
Al5 Tc2 2.541007 1_655
Al5 Tc1 2.541007 1_565
Al5 Ta9 2.772754 1_555
Al5 Ta7 2.772763 1_555
Al5 Ta0 2.772763 1_555
Al5 Al6 2.776163 1_654
Al5 Ta2 2.979855 1_565
Al5 Ta3 2.979855 1_655
Al5 Ta4 2.979869 1_555
Al6 Tc0 2.540993 1_566
Al6 Tc3 2.541006 1_565
Al6 Tc2 2.541007 1_556
Al6 Ta8 2.772754 1_555
Al6 Ta0 2.772763 1_555
Al6 Ta6 2.772764 1_555
Al6 Ta3 2.979854 1_556
Al6 Ta5 2.979855 1_565
Al6 Ta1 2.979869 1_555
Al7 Tc2 2.540998 1_555
Al7 Tc1 2.540998 1_555
Al7 Tc3 2.540998 1_555
Al7 Ta5 2.772770 1_555
Al7 Ta3 2.772771 1_555
Al7 Ta2 2.772771 1_555
Al7 Ta6 2.979861 1_554
Al7 Ta0 2.979861 1_545
Al7 Ta7 2.979861 1_455
C0 Ta6 2.213906 1_555
C0 Ta4 2.213906 1_555
C0 Ta0 2.213907 1_555
C0 Ta10 2.213907 1_555
C0 Ta7 2.213907 1_555
C0 Ta1 2.213907 1_555
C1 Ta11 2.213906 1_455
C1 Ta3 2.213906 1_555
C1 Ta9 2.213906 1_455
C1 Ta5 2.213906 1_555
C1 Ta1 2.213907 1_555
C1 Ta7 2.213907 1_455
C2 Ta8 2.213906 1_545
C2 Ta2 2.213906 1_555
C2 Ta10 2.213907 1_555
C2 Ta0 2.213907 1_545
C2 Ta9 2.213907 1_545
C2 Ta5 2.213907 1_555
C3 Ta4 2.213906 1_555
C3 Ta6 2.213906 1_554
C3 Ta8 2.213906 1_554
C3 Ta2 2.213906 1_555
C3 Ta11 2.213907 1_554
C3 Ta3 2.213907 1_555
