# generated using pymatgen
data_Ba6Lu2(TeO6)3
_symmetry_space_group_name_H-M   'P 1'
_cell_length_a   10.22642460
_cell_length_b   10.22642440
_cell_length_c   10.22642476
_cell_angle_alpha   146.53487025
_cell_angle_beta   132.00196048
_cell_angle_gamma   59.77628562
_symmetry_Int_Tables_number   1
_chemical_formula_structural   Ba6Lu2(TeO6)3
_chemical_formula_sum   'Ba6 Lu2 Te3 O18'
_cell_volume   434.30628041
_cell_formula_units_Z   1
loop_
 _symmetry_equiv_pos_site_id
 _symmetry_equiv_pos_as_xyz
  1  'x, y, z'
loop_
 _atom_site_type_symbol
 _atom_site_label
 _atom_site_symmetry_multiplicity
 _atom_site_fract_x
 _atom_site_fract_y
 _atom_site_fract_z
 _atom_site_occupancy
  Ba  Ba0  1  0.77525292  0.50000000  0.27525292  1
  Ba  Ba1  1  0.39467022  0.15723438  0.23743585  1
  Ba  Ba2  1  0.08020047  0.84276562  0.23743585  1
  Ba  Ba3  1  0.22474708  0.50000000  0.72474708  1
  Ba  Ba4  1  0.91979953  0.15723438  0.76256415  1
  Ba  Ba5  1  0.60532978  0.84276562  0.76256415  1
  Lu  Lu0  1  0.66534441  0.66534441  1.00000000  1
  Lu  Lu1  1  0.33465559  0.33465559  0.00000000  1
  Te  Te0  1  0.50000000  0.00000000  0.50000000  1
  Te  Te1  1  0.17268377  0.67268377  0.50000000  1
  Te  Te2  1  0.82731623  0.32731623  0.50000000  1
  O  O0  1  0.72474483  0.00000000  0.72474483  1
  O  O1  1  0.40966961  0.67259396  0.73707665  1
  O  O2  1  0.06448369  0.32740604  0.73707665  1
  O  O3  1  0.57860063  0.84048654  0.26188491  1
  O  O4  1  0.25013615  0.51839834  0.26826219  1
  O  O5  1  0.90274695  0.17577305  0.27302510  1
  O  O6  1  0.42139937  0.68328528  0.26188491  1
  O  O7  1  0.09725305  0.37027815  0.27302510  1
  O  O8  1  0.74986385  0.01812603  0.26826219  1
  O  O9  1  0.27525517  1.00000000  0.27525517  1
  O  O10  1  0.93551631  0.67259396  0.26292335  1
  O  O11  1  0.59033039  0.32740604  0.26292335  1
  O  O12  1  0.42139937  0.15951346  0.73811509  1
  O  O13  1  0.09725305  0.82422695  0.72697490  1
  O  O14  1  0.74986385  0.48160166  0.73173781  1
  O  O15  1  0.57860063  0.31671472  0.73811509  1
  O  O16  1  0.25013615  0.98187397  0.73173781  1
  O  O17  1  0.90274695  0.62972285  0.72697490  1
loop_
_geom_bond_atom_site_label_1
_geom_bond_atom_site_label_2
_geom_bond_distance
_geom_bond_site_symmetry_2
Ba0 O5 2.873271 1_555
Ba0 O17 2.873274 1_555
Ba0 O13 2.873277 1_655
Ba0 O7 2.873281 1_655
Ba0 O0 2.974065 1_565
Ba0 O0 2.974066 1_554
Ba0 O11 3.062252 1_555
Ba0 O10 3.062252 1_555
Ba0 O15 3.092495 1_554
Ba0 O6 3.092502 1_555
Ba0 O12 3.092503 1_554
Ba0 O3 3.092509 1_555
Ba1 O7 2.759920 1_555
Ba1 O13 2.759923 1_544
Ba1 O9 2.805870 1_545
Ba1 O3 2.946323 1_545
Ba1 O15 2.946337 1_555
Ba1 O1 2.956806 1_544
Ba1 O1 2.956812 1_555
Ba1 O4 3.018338 1_555
Ba1 O16 3.018339 1_544
Ba1 O11 3.025038 1_555
Ba1 O8 3.054617 1_555
Ba1 O14 3.054617 1_555
Ba2 O5 2.759927 1_465
Ba2 O17 2.759927 1_454
Ba2 O9 2.805879 1_555
Ba2 O12 2.946335 1_565
Ba2 O6 2.946340 1_555
Ba2 O2 2.956803 1_565
Ba2 O2 2.956814 1_554
Ba2 O8 3.018329 1_465
Ba2 O14 3.018332 1_454
Ba2 O10 3.025028 1_455
Ba2 O16 3.054614 1_555
Ba2 O4 3.054616 1_555
Ba3 O13 2.873271 1_555
Ba3 O5 2.873277 1_455
Ba3 O17 2.873279 1_455
Ba3 O7 2.873281 1_555
Ba3 O9 2.974065 1_545
Ba3 O9 2.974066 1_556
Ba3 O1 3.062252 1_555
Ba3 O2 3.062252 1_555
Ba3 O6 3.092495 1_556
Ba3 O15 3.092502 1_555
Ba3 O3 3.092503 1_556
Ba3 O12 3.092509 1_555
Ba4 O7 2.759923 1_656
Ba4 O13 2.759927 1_645
Ba4 O0 2.805879 1_555
Ba4 O3 2.946335 1_545
Ba4 O15 2.946340 1_555
Ba4 O10 2.956803 1_545
Ba4 O10 2.956814 1_556
Ba4 O16 3.018329 1_645
Ba4 O4 3.018332 1_656
Ba4 O2 3.025028 1_655
Ba4 O8 3.054614 1_555
Ba4 O14 3.054616 1_555
Ba5 O17 2.759919 1_555
Ba5 O5 2.759923 1_566
Ba5 O0 2.805870 1_565
Ba5 O12 2.946323 1_565
Ba5 O6 2.946337 1_555
Ba5 O11 2.956806 1_566
Ba5 O11 2.956812 1_555
Ba5 O14 3.018338 1_555
Ba5 O8 3.018339 1_566
Ba5 O1 3.025038 1_555
Ba5 O16 3.054617 1_555
Ba5 O4 3.054617 1_555
Lu0 O8 2.177513 1_566
Lu0 O14 2.177513 1_555
Lu0 O3 2.178096 1_556
Lu0 O15 2.178109 1_555
Lu0 O10 2.190925 1_556
Lu0 O1 2.190933 1_555
Lu1 O16 2.177513 1_544
Lu1 O4 2.177513 1_555
Lu1 O12 2.178096 1_554
Lu1 O6 2.178109 1_555
Lu1 O2 2.190925 1_554
Lu1 O11 2.190933 1_555
O0 Te0 1.869563 1_555
O1 Te1 1.972143 1_555
O2 Te2 1.972151 1_455
O3 Te0 1.977034 1_565
O4 Te1 1.936080 1_555
O5 Te2 1.890893 1_555
O6 Te0 1.977021 1_565
O7 Te1 1.890889 1_555
O8 Te2 1.936080 1_555
O9 Te0 1.869563 1_565
O10 Te1 1.972151 1_655
O11 Te2 1.972143 1_555
O12 Te0 1.977034 1_555
O13 Te1 1.890893 1_555
O14 Te2 1.936080 1_555
O15 Te0 1.977021 1_555
O16 Te1 1.936080 1_555
O17 Te2 1.890897 1_555
