# generated using pymatgen
data_Ti12SiAs3
_symmetry_space_group_name_H-M   'P 1'
_cell_length_a   5.07385313
_cell_length_b   7.60770768
_cell_length_c   7.61663805
_cell_angle_alpha   83.47128516
_cell_angle_beta   70.60947807
_cell_angle_gamma   70.53317392
_symmetry_Int_Tables_number   1
_chemical_formula_structural   Ti12SiAs3
_chemical_formula_sum   'Ti12 Si1 As3'
_cell_volume   261.47338759
_cell_formula_units_Z   1
loop_
 _symmetry_equiv_pos_site_id
 _symmetry_equiv_pos_as_xyz
  1  'x, y, z'
loop_
 _atom_site_type_symbol
 _atom_site_label
 _atom_site_symmetry_multiplicity
 _atom_site_fract_x
 _atom_site_fract_y
 _atom_site_fract_z
 _atom_site_occupancy
  Ti  Ti0  1  0.62175243  0.38600609  0.32857944  1
  Ti  Ti1  1  0.33528680  0.61376266  0.66934229  1
  Ti  Ti2  1  0.05073577  0.33026537  0.61015108  1
  Ti  Ti3  1  0.99621730  0.66743326  0.38642157  1
  Ti  Ti4  1  0.57258424  0.39562618  0.96729890  1
  Ti  Ti5  1  0.94114979  0.60118851  0.03535093  1
  Ti  Ti6  1  0.45730737  0.96664476  0.60128338  1
  Ti  Ti7  1  0.02758024  0.03491580  0.39726704  1
  Ti  Ti8  1  0.13751365  0.18950492  0.97563419  1
  Ti  Ti9  1  0.29811935  0.81059056  0.02744016  1
  Ti  Ti10  1  0.89059078  0.97333758  0.81223401  1
  Ti  Ti11  1  0.67164201  0.03011749  0.18821249  1
  Si  Si0  1  0.18155565  0.33037376  0.25320651  1
  As  As0  1  0.76364391  0.67018171  0.74834310  1
  As  As1  1  0.56514759  0.25209670  0.66997502  1
  As  As2  1  0.48917412  0.74795265  0.32926090  1
loop_
_geom_bond_atom_site_label_1
_geom_bond_atom_site_label_2
_geom_bond_distance
_geom_bond_site_symmetry_2
Si0 Ti4 2.542976 1_554
Si0 Ti2 2.575578 1_555
Si0 Ti8 2.580061 1_554
Si0 Ti0 2.597614 1_455
Si0 Ti3 2.615352 1_455
Si0 Ti7 2.628140 1_555
Si0 Ti0 2.652154 1_555
Si0 Ti11 2.701865 1_555
Si0 Ti5 2.716158 1_455
As0 Ti5 2.568407 1_556
As0 Ti9 2.596086 1_556
As0 Ti1 2.611313 1_555
As0 Ti3 2.613159 1_555
As0 Ti6 2.646193 1_555
As0 Ti2 2.647116 1_655
As0 Ti1 2.651208 1_655
As0 Ti10 2.724756 1_555
As0 Ti4 2.750963 1_555
As1 Ti6 2.555304 1_545
As1 Ti10 2.594141 1_545
As1 Ti1 2.606257 1_555
As1 Ti2 2.607893 1_655
As1 Ti4 2.639831 1_555
As1 Ti0 2.641693 1_555
As1 Ti2 2.658415 1_555
As1 Ti8 2.727081 1_555
As1 Ti7 2.740431 1_655
As2 Ti7 2.561890 1_565
As2 Ti11 2.599821 1_565
As2 Ti0 2.607890 1_555
As2 Ti3 2.610762 1_555
As2 Ti1 2.635977 1_555
As2 Ti5 2.640070 1_555
As2 Ti3 2.656734 1_455
As2 Ti9 2.715560 1_555
As2 Ti6 2.732963 1_555
