# generated using pymatgen
data_CuPd(AuO2)2
_symmetry_space_group_name_H-M   'P 1'
_cell_length_a   6.37798616
_cell_length_b   6.37798539
_cell_length_c   5.56827153
_cell_angle_alpha   78.30123401
_cell_angle_beta   78.30123513
_cell_angle_gamma   27.28436890
_symmetry_Int_Tables_number   1
_chemical_formula_structural   CuPd(AuO2)2
_chemical_formula_sum   'Cu1 Pd1 Au2 O4'
_cell_volume   101.54841766
_cell_formula_units_Z   1
loop_
 _symmetry_equiv_pos_site_id
 _symmetry_equiv_pos_as_xyz
  1  'x, y, z'
loop_
 _atom_site_type_symbol
 _atom_site_label
 _atom_site_symmetry_multiplicity
 _atom_site_fract_x
 _atom_site_fract_y
 _atom_site_fract_z
 _atom_site_occupancy
  Cu  Cu0  1  0.00000000  0.00000000  0.50000000  1
  Pd  Pd0  1  0.50000000  0.50000000  0.00000000  1
  Au  Au0  1  0.25821945  0.25821945  0.76136792  1
  Au  Au1  1  0.74178055  0.74178055  0.23863208  1
  O  O0  1  0.57341781  0.57341781  0.29546195  1
  O  O1  1  0.90867022  0.90867022  0.18188373  1
  O  O2  1  0.09132978  0.09132978  0.81811627  1
  O  O3  1  0.42658219  0.42658219  0.70453805  1
loop_
_geom_bond_atom_site_label_1
_geom_bond_atom_site_label_2
_geom_bond_distance
_geom_bond_site_symmetry_2
Cu0 O0 1.988914 1_455
Cu0 O3 1.988914 1_545
Cu0 O0 1.988914 1_545
Cu0 O3 1.988914 1_455
Cu0 O2 2.292663 1_555
Cu0 O1 2.292663 1_445
Au0 O2 2.026550 1_555
Au0 O3 2.044572 1_555
Au1 O1 2.026550 1_555
Au1 O0 2.044572 1_555
O0 Pd0 2.039565 1_555
O1 Pd0 2.022837 1_565
O1 Pd0 2.022837 1_655
O2 Pd0 2.022837 1_546
O2 Pd0 2.022837 1_456
O3 Pd0 2.039565 1_556
