# generated using pymatgen
data_Ca2BRu4C3
_symmetry_space_group_name_H-M   'P 1'
_cell_length_a   6.63917888
_cell_length_b   5.85677057
_cell_length_c   5.44937887
_cell_angle_alpha   71.81703130
_cell_angle_beta   56.18048667
_cell_angle_gamma   51.24270544
_symmetry_Int_Tables_number   1
_chemical_formula_structural   Ca2BRu4C3
_chemical_formula_sum   'Ca2 B1 Ru4 C3'
_cell_volume   137.06090199
_cell_formula_units_Z   1
loop_
 _symmetry_equiv_pos_site_id
 _symmetry_equiv_pos_as_xyz
  1  'x, y, z'
loop_
 _atom_site_type_symbol
 _atom_site_label
 _atom_site_symmetry_multiplicity
 _atom_site_fract_x
 _atom_site_fract_y
 _atom_site_fract_z
 _atom_site_occupancy
  Ca  Ca0  1  0.00118938  0.99881062  0.00118938  1
  Ca  Ca1  1  0.24955758  0.25044242  0.24955758  1
  B  B0  1  0.56698348  0.93301652  0.56698348  1
  Ru  Ru0  1  0.61862096  0.60539419  0.88597354  1
  Ru  Ru1  1  0.63878371  0.62805897  0.35887634  1
  Ru  Ru2  1  0.35887634  0.37427997  0.63878371  1
  Ru  Ru3  1  0.88597454  0.89001131  0.61861996  1
  C  C0  1  0.68115560  0.31884440  0.68115560  1
  C  C1  1  0.31704572  0.68295428  0.31704572  1
  C  C2  1  0.93181267  0.56818733  0.93181267  1
loop_
_geom_bond_atom_site_label_1
_geom_bond_atom_site_label_2
_geom_bond_distance
_geom_bond_site_symmetry_2
Ca0 Ru3 2.924368 1_454
Ca0 Ru0 2.924369 1_464
Ca0 Ru3 2.952806 1_455
Ca0 Ru0 2.952809 1_554
Ca1 Ru2 2.931573 1_554
Ca1 Ru1 2.931573 1_455
Ca1 Ru2 2.980676 1_555
Ca1 Ru1 2.980680 1_545
B0 Ru2 2.073567 1_565
B0 Ru1 2.073572 1_555
B0 Ru0 2.139885 1_555
B0 Ru3 2.139888 1_555
B0 Ca1 2.834634 1_565
B0 Ca0 2.953045 1_556
B0 Ca0 2.953045 1_655
C0 Ru3 2.003867 1_545
C0 Ru0 2.003867 1_555
C0 Ru1 2.090522 1_555
C0 Ru2 2.090525 1_555
C0 Ca0 2.857922 1_646
C0 Ca1 2.957767 1_655
C0 Ca1 2.957767 1_556
C1 Ru3 2.006237 1_455
C1 Ru0 2.006242 1_554
C1 Ru1 2.086760 1_555
C1 Ru2 2.086763 1_555
C1 Ca0 2.820617 1_555
C1 Ca1 2.989758 1_555
C1 Ca1 2.989759 1_565
C2 Ru2 1.984719 1_655
C2 Ru1 1.984719 1_556
C2 Ru0 2.100098 1_555
C2 Ru3 2.100102 1_555
C2 Ca1 2.837482 1_656
C2 Ca0 2.993204 1_656
C2 Ca0 2.993204 1_646
