# generated using pymatgen
data_SbKrF7
_symmetry_space_group_name_H-M   'P 1'
_cell_length_a   10.47434257
_cell_length_b   5.21002319
_cell_length_c   10.68010115
_cell_angle_alpha   84.40360936
_cell_angle_beta   90.00000000
_cell_angle_gamma   90.00000000
_symmetry_Int_Tables_number   1
_chemical_formula_structural   SbKrF7
_chemical_formula_sum   'Sb4 Kr4 F28'
_cell_volume   580.05183043
_cell_formula_units_Z   4
loop_
 _symmetry_equiv_pos_site_id
 _symmetry_equiv_pos_as_xyz
  1  'x, y, z'
loop_
 _atom_site_type_symbol
 _atom_site_label
 _atom_site_symmetry_multiplicity
 _atom_site_fract_x
 _atom_site_fract_y
 _atom_site_fract_z
 _atom_site_occupancy
  Sb  Sb0  1  0.99169749  0.60098237  0.73111166  1
  Sb  Sb1  1  0.49169749  0.39901763  0.76888834  1
  Sb  Sb2  1  0.00830251  0.39901763  0.26888834  1
  Sb  Sb3  1  0.50830251  0.60098237  0.23111166  1
  Kr  Kr0  1  0.23396510  0.97733190  0.52409609  1
  Kr  Kr1  1  0.73396510  0.02266810  0.97590391  1
  Kr  Kr2  1  0.76603490  0.02266810  0.47590391  1
  Kr  Kr3  1  0.26603490  0.97733190  0.02409609  1
  F  F0  1  0.86492241  0.49308878  0.62276906  1
  F  F1  1  0.36492241  0.50691122  0.87723094  1
  F  F2  1  0.13507759  0.50691122  0.37723094  1
  F  F3  1  0.63507759  0.49308878  0.12276906  1
  F  F4  1  0.09885919  0.33057009  0.69171724  1
  F  F5  1  0.59885919  0.66942991  0.80828276  1
  F  F6  1  0.90114081  0.66942991  0.30828276  1
  F  F7  1  0.40114081  0.33057009  0.19171724  1
  F  F8  1  0.11815561  0.14191163  0.97736055  1
  F  F9  1  0.61815561  0.85808837  0.52263945  1
  F  F10  1  0.88184439  0.85808837  0.02263945  1
  F  F11  1  0.38184439  0.14191163  0.47736055  1
  F  F12  1  0.44239025  0.79888631  0.07223187  1
  F  F13  1  0.94239025  0.20111369  0.42776813  1
  F  F14  1  0.55760975  0.20111369  0.92776813  1
  F  F15  1  0.05760975  0.79888631  0.57223187  1
  F  F16  1  0.57596669  0.41799498  0.37606254  1
  F  F17  1  0.07596669  0.58200502  0.12393746  1
  F  F18  1  0.42403331  0.58200502  0.62393746  1
  F  F19  1  0.92403331  0.41799498  0.87606254  1
  F  F20  1  0.60791699  0.89658162  0.24981011  1
  F  F21  1  0.10791699  0.10341838  0.25018989  1
  F  F22  1  0.39208301  0.10341838  0.75018989  1
  F  F23  1  0.89208301  0.89658162  0.74981011  1
  F  F24  1  0.37183562  0.74689076  0.31327781  1
  F  F25  1  0.87183562  0.25310924  0.18672219  1
  F  F26  1  0.62816438  0.25310924  0.68672219  1
  F  F27  1  0.12816438  0.74689076  0.81327781  1
loop_
_geom_bond_atom_site_label_1
_geom_bond_atom_site_label_2
_geom_bond_distance
_geom_bond_site_symmetry_2
F0 Sb0 1.882826 1_555
F1 Sb1 1.882826 1_555
F2 Sb2 1.882826 1_555
F3 Sb3 1.882826 1_555
F4 Sb0 1.880795 1_455
F5 Sb1 1.880795 1_555
F6 Sb2 1.880795 1_655
F7 Sb3 1.880795 1_555
F8 Kr3 1.816623 1_546
F9 Kr2 1.816623 1_565
F10 Kr1 1.816623 1_564
F11 Kr0 1.816623 1_545
F12 Sb3 2.019365 1_555
F12 Kr3 2.108933 1_555
F13 Sb2 2.019365 1_655
F13 Kr2 2.108933 1_555
F14 Sb1 2.019365 1_555
F14 Kr1 2.108933 1_555
F15 Sb0 2.019365 1_455
F15 Kr0 2.108933 1_555
F16 Sb3 1.876151 1_555
F17 Sb2 1.876151 1_555
F18 Sb1 1.876151 1_555
F19 Sb0 1.876151 1_555
F20 Sb3 1.886898 1_555
F21 Sb2 1.886898 1_555
F22 Sb1 1.886898 1_555
F23 Sb0 1.886898 1_555
F24 Sb3 1.876503 1_555
F25 Sb2 1.876503 1_655
F26 Sb1 1.876503 1_555
F27 Sb0 1.876503 1_455
