# generated using pymatgen
data_Hf4BeGeH2
_symmetry_space_group_name_H-M   'P 1'
_cell_length_a   5.33544989
_cell_length_b   5.33544850
_cell_length_c   5.33544874
_cell_angle_alpha   104.48184431
_cell_angle_beta   104.48183571
_cell_angle_gamma   119.99031417
_symmetry_Int_Tables_number   1
_chemical_formula_structural   Hf4BeGeH2
_chemical_formula_sum   'Hf4 Be1 Ge1 H2'
_cell_volume   113.91880358
_cell_formula_units_Z   1
loop_
 _symmetry_equiv_pos_site_id
 _symmetry_equiv_pos_as_xyz
  1  'x, y, z'
loop_
 _atom_site_type_symbol
 _atom_site_label
 _atom_site_symmetry_multiplicity
 _atom_site_fract_x
 _atom_site_fract_y
 _atom_site_fract_z
 _atom_site_occupancy
  Hf  Hf0  1  0.16264649  0.66264649  0.82529598  1
  Hf  Hf1  1  0.83735351  0.33735351  0.17470402  1
  Hf  Hf2  1  0.33735351  0.16264649  0.50000000  1
  Hf  Hf3  1  0.66264649  0.83735351  0.50000000  1
  Be  Be0  1  0.25000000  0.25000000  0.00000000  1
  Ge  Ge0  1  0.75000000  0.75000000  0.00000000  1
  H  H0  1  0.75000000  0.25000000  0.50000000  1
  H  H1  1  0.25000000  0.75000000  0.50000000  1
loop_
_geom_bond_atom_site_label_1
_geom_bond_atom_site_label_2
_geom_bond_distance
_geom_bond_site_symmetry_2
Be0 Ge0 2.668115 1_445
Be0 Ge0 2.668115 1_555
Be0 Hf0 2.787169 1_554
Be0 Hf1 2.787169 1_455
Be0 Hf0 2.787176 1_544
Be0 Hf2 2.787177 1_554
Be0 Hf2 2.787177 1_555
Be0 Hf3 2.787177 1_555
Be0 Hf1 2.787177 1_555
Be0 Hf3 2.787177 1_444
Ge0 Hf1 2.787169 1_555
Ge0 Hf0 2.787169 1_654
Ge0 Hf1 2.787176 1_565
Ge0 Hf3 2.787177 1_555
Ge0 Hf3 2.787177 1_554
Ge0 Hf2 2.787177 1_554
Ge0 Hf0 2.787177 1_554
Ge0 Hf2 2.787177 1_665
H0 Hf3 2.009646 1_545
H0 Hf2 2.009647 1_555
H0 Hf0 2.009652 1_655
H0 Hf1 2.009662 1_555
H1 Hf2 2.009646 1_565
H1 Hf3 2.009647 1_555
H1 Hf1 2.009652 1_455
H1 Hf0 2.009662 1_555
