# generated using pymatgen
data_TbAsO4
_symmetry_space_group_name_H-M   'P 1'
_cell_length_a   5.92748240
_cell_length_b   5.92748333
_cell_length_c   5.92748237
_cell_angle_alpha   106.54287755
_cell_angle_beta   106.54286851
_cell_angle_gamma   115.50148291
_symmetry_Int_Tables_number   1
_chemical_formula_structural   TbAsO4
_chemical_formula_sum   'Tb2 As2 O8'
_cell_volume   158.97468148
_cell_formula_units_Z   2
loop_
 _symmetry_equiv_pos_site_id
 _symmetry_equiv_pos_as_xyz
  1  'x, y, z'
loop_
 _atom_site_type_symbol
 _atom_site_label
 _atom_site_symmetry_multiplicity
 _atom_site_fract_x
 _atom_site_fract_y
 _atom_site_fract_z
 _atom_site_occupancy
  Tb  Tb0  1  0.37500000  0.62500000  0.75000000  1
  Tb  Tb1  1  0.62500000  0.37500000  0.25000000  1
  As  As0  1  0.87500000  0.12500000  0.75000000  1
  As  As1  1  0.12500000  0.87500000  0.25000000  1
  O  O0  1  0.29929222  0.23090187  0.43160965  1
  O  O1  1  0.86768357  0.29929222  0.56839035  1
  O  O2  1  0.23090187  0.29929222  0.93160965  1
  O  O3  1  0.29929222  0.86768357  0.06839035  1
  O  O4  1  0.13231643  0.70070778  0.43160965  1
  O  O5  1  0.70070778  0.76909813  0.56839035  1
  O  O6  1  0.70070778  0.13231643  0.93160965  1
  O  O7  1  0.76909813  0.70070778  0.06839035  1
loop_
_geom_bond_atom_site_label_1
_geom_bond_atom_site_label_2
_geom_bond_distance
_geom_bond_site_symmetry_2
As0 O6 1.695095 1_555
As0 O1 1.695095 1_555
As0 O2 1.695096 1_655
As0 O5 1.695096 1_545
As1 O3 1.695095 1_555
As1 O4 1.695095 1_555
As1 O7 1.695096 1_455
As1 O0 1.695096 1_565
O0 Tb0 2.307495 1_555
O0 Tb1 2.429589 1_555
O1 Tb1 2.307497 1_555
O1 Tb0 2.429585 1_655
O2 Tb1 2.307495 1_556
O2 Tb0 2.429589 1_555
O3 Tb0 2.307497 1_554
O3 Tb1 2.429585 1_565
O4 Tb0 2.307497 1_555
O4 Tb1 2.429585 1_455
O5 Tb1 2.307495 1_555
O5 Tb0 2.429589 1_555
O6 Tb1 2.307497 1_556
O6 Tb0 2.429585 1_545
O7 Tb0 2.307495 1_554
O7 Tb1 2.429589 1_555
