# generated using pymatgen
data_KLuP2S7
_symmetry_space_group_name_H-M   'P 1'
_cell_length_a   6.75224273
_cell_length_b   6.75224127
_cell_length_c   6.53432850
_cell_angle_alpha   83.09413502
_cell_angle_beta   83.09413386
_cell_angle_gamma   98.07299225
_symmetry_Int_Tables_number   1
_chemical_formula_structural   KLuP2S7
_chemical_formula_sum   'K1 Lu1 P2 S7'
_cell_volume   289.96221419
_cell_formula_units_Z   1
loop_
 _symmetry_equiv_pos_site_id
 _symmetry_equiv_pos_as_xyz
  1  'x, y, z'
loop_
 _atom_site_type_symbol
 _atom_site_label
 _atom_site_symmetry_multiplicity
 _atom_site_fract_x
 _atom_site_fract_y
 _atom_site_fract_z
 _atom_site_occupancy
  K  K0  1  0.06025996  0.93974004  0.50000000  1
  Lu  Lu0  1  0.49383820  0.50616180  1.00000000  1
  P  P0  1  0.64140758  0.95841105  0.08947883  1
  P  P1  1  0.04158895  0.35859242  0.91052117  1
  S  S0  1  0.96221115  0.03778885  1.00000000  1
  S  S1  1  0.83262213  0.47036465  0.75494991  1
  S  S2  1  0.63213163  0.70529256  0.29158801  1
  S  S3  1  0.29470744  0.36786837  0.70841199  1
  S  S4  1  0.52365266  0.89355506  0.83277281  1
  S  S5  1  0.10644494  0.47634734  0.16722719  1
  S  S6  1  0.52963535  0.16737787  0.24505009  1
loop_
_geom_bond_atom_site_label_1
_geom_bond_atom_site_label_2
_geom_bond_distance
_geom_bond_site_symmetry_2
K0 S0 3.416736 1_465
K0 S0 3.416737 1_464
K0 S1 3.453818 1_455
K0 S6 3.453819 1_565
K0 S3 3.591281 1_565
K0 S2 3.591281 1_455
Lu0 S2 2.646020 1_556
Lu0 S3 2.646020 1_555
Lu0 S4 2.681169 1_555
Lu0 S5 2.681169 1_556
Lu0 S6 2.687527 1_556
Lu0 S1 2.687528 1_555
P0 S4 2.009286 1_554
P0 S6 2.013308 1_565
P0 S2 2.019001 1_555
P0 S0 2.148322 1_564
P1 S5 2.009286 1_556
P1 S1 2.013308 1_455
P1 S3 2.019002 1_555
P1 S0 2.148322 1_455
