# generated using pymatgen
data_ZrCo2B2Ir
_symmetry_space_group_name_H-M   'P 1'
_cell_length_a   5.82349980
_cell_length_b   5.82349953
_cell_length_c   5.82350000
_cell_angle_alpha   95.26335684
_cell_angle_beta   95.26335709
_cell_angle_gamma   95.26336645
_symmetry_Int_Tables_number   1
_chemical_formula_structural   ZrCo2B2Ir
_chemical_formula_sum   'Zr3 Co6 B6 Ir3'
_cell_volume   194.82992122
_cell_formula_units_Z   3
loop_
 _symmetry_equiv_pos_site_id
 _symmetry_equiv_pos_as_xyz
  1  'x, y, z'
loop_
 _atom_site_type_symbol
 _atom_site_label
 _atom_site_symmetry_multiplicity
 _atom_site_fract_x
 _atom_site_fract_y
 _atom_site_fract_z
 _atom_site_occupancy
  Zr  Zr0  1  0.00000000  0.00000000  0.00000000  1
  Zr  Zr1  1  0.66683071  0.66683071  0.66683071  1
  Zr  Zr2  1  0.33316929  0.33316929  0.33316929  1
  Co  Co0  1  0.69011500  0.20897367  0.69011500  1
  Co  Co1  1  0.69011500  0.69011500  0.20897367  1
  Co  Co2  1  0.20897367  0.69011500  0.69011500  1
  Co  Co3  1  0.30988500  0.79102633  0.30988500  1
  Co  Co4  1  0.30988500  0.30988500  0.79102633  1
  Co  Co5  1  0.79102633  0.30988500  0.30988500  1
  B  B0  1  0.61619242  0.38380758  1.00000000  1
  B  B1  1  0.00000000  0.61619242  0.38380758  1
  B  B2  1  0.38380758  1.00000000  0.61619242  1
  B  B3  1  1.00000000  0.38380758  0.61619242  1
  B  B4  1  0.61619242  0.00000000  0.38380758  1
  B  B5  1  0.38380758  0.61619242  0.00000000  1
  Ir  Ir0  1  0.00000000  0.00000000  0.50000000  1
  Ir  Ir1  1  0.50000000  0.00000000  0.00000000  1
  Ir  Ir2  1  0.00000000  0.50000000  0.00000000  1
loop_
_geom_bond_atom_site_label_1
_geom_bond_atom_site_label_2
_geom_bond_distance
_geom_bond_site_symmetry_2
Co0 Ir1 2.546695 1_556
Co0 Ir0 2.546696 1_655
Co0 Zr1 2.697291 1_555
Co0 Ir2 2.768728 1_656
Co0 Zr0 2.864021 1_656
Co1 Ir1 2.546696 1_565
Co1 Ir2 2.546696 1_655
Co1 Zr1 2.697291 1_555
Co1 Ir0 2.768728 1_665
Co1 Zr0 2.864020 1_665
Co2 Ir2 2.546695 1_556
Co2 Ir0 2.546696 1_565
Co2 Zr1 2.697291 1_555
Co2 Ir1 2.768728 1_566
Co2 Zr0 2.864021 1_566
Co3 Ir1 2.546695 1_565
Co3 Ir0 2.546696 1_565
Co3 Zr2 2.697291 1_555
Co3 Ir2 2.768728 1_555
Co3 Zr0 2.864021 1_565
Co4 Ir1 2.546696 1_556
Co4 Ir2 2.546696 1_556
Co4 Zr2 2.697291 1_555
Co4 Ir0 2.768728 1_555
Co4 Zr0 2.864020 1_556
Co5 Ir2 2.546695 1_655
Co5 Ir0 2.546696 1_655
Co5 Zr2 2.697291 1_555
Co5 Ir1 2.768728 1_555
Co5 Zr0 2.864021 1_655
B0 B5 1.999702 1_556
B0 Co1 2.052538 1_556
B0 Co4 2.052538 1_555
B0 Co0 2.089120 1_555
B0 Co5 2.089120 1_556
B0 Ir1 2.275097 1_556
B0 Ir2 2.275097 1_656
B0 Zr1 2.677759 1_555
B0 Zr2 2.677759 1_556
B1 B3 1.999702 1_455
B1 Co5 2.052538 1_455
B1 Co2 2.052538 1_555
B1 Co3 2.089120 1_555
B1 Co1 2.089120 1_455
B1 Ir0 2.275097 1_565
B1 Ir2 2.275097 1_555
B1 Zr1 2.677759 1_455
B1 Zr2 2.677759 1_555
B2 B4 1.999702 1_565
B2 Co0 2.052538 1_565
B2 Co3 2.052538 1_555
B2 Co2 2.089120 1_555
B2 Co4 2.089120 1_565
B2 Ir0 2.275097 1_565
B2 Ir1 2.275097 1_566
B2 Zr2 2.677759 1_565
B2 Zr1 2.677759 1_555
B3 Co2 2.052538 1_655
B3 Co5 2.052538 1_555
B3 Co0 2.089120 1_555
B3 Co4 2.089120 1_655
B3 Ir0 2.275097 1_655
B3 Ir2 2.275097 1_656
B3 Zr2 2.677759 1_655
B3 Zr1 2.677759 1_555
B4 Co3 2.052538 1_545
B4 Co0 2.052538 1_555
B4 Co5 2.089120 1_555
B4 Co1 2.089120 1_545
B4 Ir0 2.275097 1_655
B4 Ir1 2.275097 1_555
B4 Zr1 2.677759 1_545
B4 Zr2 2.677759 1_555
B5 Co4 2.052538 1_554
B5 Co1 2.052538 1_555
B5 Co3 2.089120 1_555
B5 Co2 2.089120 1_554
B5 Ir1 2.275097 1_565
B5 Ir2 2.275097 1_555
B5 Zr2 2.677759 1_555
B5 Zr1 2.677759 1_554
Ir0 Zr2 2.910970 1_555
Ir0 Zr1 2.910970 1_445
Ir0 Zr0 2.911750 1_555
Ir0 Zr0 2.911750 1_556
Ir1 Zr1 2.910970 1_544
Ir1 Zr2 2.910970 1_555
Ir1 Zr0 2.911750 1_655
Ir1 Zr0 2.911750 1_555
Ir2 Zr1 2.910970 1_454
Ir2 Zr2 2.910970 1_555
Ir2 Zr0 2.911750 1_555
Ir2 Zr0 2.911750 1_565
