# generated using pymatgen
data_TaPd6Pb
_symmetry_space_group_name_H-M   'P 1'
_cell_length_a   8.69192523
_cell_length_b   8.69192434
_cell_length_c   8.69192432
_cell_angle_alpha   153.56738728
_cell_angle_beta   153.56737546
_cell_angle_gamma   37.72871495
_symmetry_Int_Tables_number   1
_chemical_formula_structural   TaPd6Pb
_chemical_formula_sum   'Ta1 Pd6 Pb1'
_cell_volume   129.92399741
_cell_formula_units_Z   1
loop_
 _symmetry_equiv_pos_site_id
 _symmetry_equiv_pos_as_xyz
  1  'x, y, z'
loop_
 _atom_site_type_symbol
 _atom_site_label
 _atom_site_symmetry_multiplicity
 _atom_site_fract_x
 _atom_site_fract_y
 _atom_site_fract_z
 _atom_site_occupancy
  Ta  Ta0  1  0.87432939  0.87432939  1.00000000  1
  Pd  Pd0  1  0.98995098  0.48995098  0.50000000  1
  Pd  Pd1  1  0.48995098  0.98995098  0.50000000  1
  Pd  Pd2  1  0.76033173  0.26033173  0.50000000  1
  Pd  Pd3  1  0.26033173  0.76033173  0.50000000  1
  Pd  Pd4  1  0.61330918  0.61330918  0.00000000  1
  Pd  Pd5  1  0.37705638  0.37705638  1.00000000  1
  Pb  Pb0  1  0.13473962  0.13473962  1.00000000  1
loop_
_geom_bond_atom_site_label_1
_geom_bond_atom_site_label_2
_geom_bond_distance
_geom_bond_site_symmetry_2
Pd0 Pd5 2.719919 1_655
Pd0 Pd5 2.719919 1_554
Pd0 Ta0 2.750743 1_544
Pd0 Ta0 2.750743 1_555
Pd0 Pd1 2.810349 1_656
Pd0 Pd1 2.810349 1_544
Pd0 Pd1 2.810350 1_645
Pd0 Pd1 2.810350 1_555
Pd0 Pd4 2.840231 1_555
Pd0 Pd4 2.840231 1_656
Pd1 Pd5 2.719918 1_554
Pd1 Pd5 2.719918 1_565
Pd1 Ta0 2.750743 1_555
Pd1 Ta0 2.750744 1_454
Pd1 Pd4 2.840230 1_566
Pd1 Pd4 2.840230 1_555
Pd2 Ta0 2.732340 1_555
Pd2 Ta0 2.732340 1_544
Pd2 Pd5 2.763321 1_554
Pd2 Pd5 2.763322 1_655
Pd2 Pd3 2.810349 1_656
Pd2 Pd3 2.810349 1_544
Pd2 Pd3 2.810350 1_645
Pd2 Pd3 2.810350 1_555
Pd2 Pd4 3.130231 1_545
Pd2 Pd4 3.130232 1_556
Pd3 Ta0 2.732340 1_454
Pd3 Ta0 2.732341 1_555
Pd3 Pd5 2.763321 1_565
Pd3 Pd5 2.763321 1_554
Pd3 Pd4 3.130232 1_556
Pd3 Pd4 3.130232 1_455
Pd5 Ta0 2.810707 1_556
Pd5 Ta0 2.810707 1_444
Pd5 Ta0 2.810708 1_545
Pd5 Ta0 2.810708 1_455
Pb0 Pd4 2.832374 1_557
Pb0 Pd4 2.832374 1_445
Pb0 Pd4 2.832374 1_546
Pb0 Pd4 2.832375 1_456
Pb0 Pd3 2.866601 1_556
Pb0 Pd3 2.866601 1_545
Pb0 Pd2 2.866601 1_455
Pb0 Pd2 2.866602 1_556
Pb0 Pd0 3.101926 1_445
Pb0 Pd0 3.101926 1_456
Pb0 Pd1 3.101926 1_546
Pb0 Pd1 3.101927 1_445
