# generated using pymatgen
data_MgScCo4
_symmetry_space_group_name_H-M   'P 1'
_cell_length_a   4.84472325
_cell_length_b   4.84472200
_cell_length_c   4.84472327
_cell_angle_alpha   59.99999806
_cell_angle_beta   60.00000661
_cell_angle_gamma   60.00000368
_symmetry_Int_Tables_number   1
_chemical_formula_structural   MgScCo4
_chemical_formula_sum   'Mg1 Sc1 Co4'
_cell_volume   80.40662617
_cell_formula_units_Z   1
loop_
 _symmetry_equiv_pos_site_id
 _symmetry_equiv_pos_as_xyz
  1  'x, y, z'
loop_
 _atom_site_type_symbol
 _atom_site_label
 _atom_site_symmetry_multiplicity
 _atom_site_fract_x
 _atom_site_fract_y
 _atom_site_fract_z
 _atom_site_occupancy
  Mg  Mg0  1  0.75000000  0.75000000  0.75000000  1
  Sc  Sc0  1  0.00000000  0.00000000  0.00000000  1
  Co  Co0  1  0.87563926  0.37478691  0.37478691  1
  Co  Co1  1  0.37478691  0.87563926  0.37478691  1
  Co  Co2  1  0.37478691  0.37478691  0.87563926  1
  Co  Co3  1  0.37478691  0.37478691  0.37478691  1
loop_
_geom_bond_atom_site_label_1
_geom_bond_atom_site_label_2
_geom_bond_distance
_geom_bond_site_symmetry_2
Mg0 Sc0 2.966774 1_656
Mg0 Sc0 2.966775 1_666
Mg0 Sc0 2.966775 1_665
Mg0 Sc0 2.966775 1_566
Co0 Co1 2.418232 1_645
Co0 Co3 2.418232 1_655
Co0 Co2 2.418232 1_654
Co0 Co1 2.426491 1_555
Co0 Co3 2.426491 1_555
Co0 Co2 2.426491 1_555
Co0 Sc0 2.840031 1_665
Co0 Sc0 2.840031 1_655
Co0 Sc0 2.840032 1_656
Co0 Mg0 2.840911 1_545
Co0 Mg0 2.840912 1_555
Co0 Mg0 2.840912 1_554
Co1 Co3 2.418232 1_565
Co1 Co2 2.418232 1_564
Co1 Co3 2.426490 1_555
Co1 Co2 2.426491 1_555
Co1 Sc0 2.840032 1_565
Co1 Sc0 2.840032 1_665
Co1 Sc0 2.840032 1_566
Co1 Mg0 2.840912 1_555
Co1 Mg0 2.840912 1_455
Co1 Mg0 2.840912 1_554
Co2 Co3 2.418232 1_556
Co2 Co3 2.426491 1_555
Co2 Sc0 2.840031 1_566
Co2 Sc0 2.840031 1_556
Co2 Sc0 2.840032 1_656
Co2 Mg0 2.840912 1_545
Co2 Mg0 2.840912 1_555
Co2 Mg0 2.840912 1_455
Co3 Sc0 2.840031 1_565
Co3 Sc0 2.840032 1_556
Co3 Sc0 2.840032 1_655
Co3 Mg0 2.840912 1_545
Co3 Mg0 2.840912 1_554
Co3 Mg0 2.840912 1_455
