# generated using pymatgen
data_TcHgF6
_symmetry_space_group_name_H-M   'P 1'
_cell_length_a   5.81762309
_cell_length_b   5.81762238
_cell_length_c   5.81762339
_cell_angle_alpha   52.98951447
_cell_angle_beta   52.98951824
_cell_angle_gamma   52.98952669
_symmetry_Int_Tables_number   1
_chemical_formula_structural   TcHgF6
_chemical_formula_sum   'Tc1 Hg1 F6'
_cell_volume   116.34838626
_cell_formula_units_Z   1
loop_
 _symmetry_equiv_pos_site_id
 _symmetry_equiv_pos_as_xyz
  1  'x, y, z'
loop_
 _atom_site_type_symbol
 _atom_site_label
 _atom_site_symmetry_multiplicity
 _atom_site_fract_x
 _atom_site_fract_y
 _atom_site_fract_z
 _atom_site_occupancy
  Tc  Tc0  1  0.00000000  0.00000000  0.00000000  1
  Hg  Hg0  1  0.50000000  0.50000000  0.50000000  1
  F  F0  1  0.06121771  0.38659215  0.77875852  1
  F  F1  1  0.77875852  0.06121771  0.38659215  1
  F  F2  1  0.61340785  0.22124148  0.93878229  1
  F  F3  1  0.22124148  0.93878229  0.61340785  1
  F  F4  1  0.93878229  0.61340785  0.22124148  1
  F  F5  1  0.38659215  0.77875852  0.06121771  1
loop_
_geom_bond_atom_site_label_1
_geom_bond_atom_site_label_2
_geom_bond_distance
_geom_bond_site_symmetry_2
F0 Tc0 1.941411 1_556
F0 Hg0 2.310185 1_555
F1 Tc0 1.941411 1_655
F1 Hg0 2.310185 1_555
F2 Tc0 1.941411 1_656
F2 Hg0 2.310185 1_555
F3 Tc0 1.941411 1_566
F3 Hg0 2.310185 1_555
F4 Tc0 1.941411 1_665
F4 Hg0 2.310185 1_555
F5 Tc0 1.941411 1_565
F5 Hg0 2.310185 1_555
