# generated using pymatgen
data_CsTa(AgTe2)2
_symmetry_space_group_name_H-M   'P 1'
_cell_length_a   11.14665950
_cell_length_b   11.14665947
_cell_length_c   8.70703152
_cell_angle_alpha   90.00000000
_cell_angle_beta   90.00000000
_cell_angle_gamma   146.56223810
_symmetry_Int_Tables_number   1
_chemical_formula_structural   CsTa(AgTe2)2
_chemical_formula_sum   'Cs2 Ta2 Ag4 Te8'
_cell_volume   596.12247190
_cell_formula_units_Z   2
loop_
 _symmetry_equiv_pos_site_id
 _symmetry_equiv_pos_as_xyz
  1  'x, y, z'
loop_
 _atom_site_type_symbol
 _atom_site_label
 _atom_site_symmetry_multiplicity
 _atom_site_fract_x
 _atom_site_fract_y
 _atom_site_fract_z
 _atom_site_occupancy
  Cs  Cs0  1  0.45641118  0.82541956  0.75000000  1
  Cs  Cs1  1  0.82541956  0.45641118  0.25000000  1
  Ta  Ta0  1  0.51422264  0.29958390  0.75000000  1
  Ta  Ta1  1  0.29958390  0.51422264  0.25000000  1
  Ag  Ag0  1  0.38396779  0.38396779  0.00000000  1
  Ag  Ag1  1  0.38396779  0.38396779  0.50000000  1
  Ag  Ag2  1  0.01830518  0.79728418  0.75000000  1
  Ag  Ag3  1  0.79728418  0.01830518  0.25000000  1
  Te  Te0  1  0.65874450  0.64764912  0.75000000  1
  Te  Te1  1  0.64764912  0.65874450  0.25000000  1
  Te  Te2  1  0.28778083  0.06083616  0.00132708  1
  Te  Te3  1  0.06083616  0.28778083  0.50132708  1
  Te  Te4  1  0.42030854  0.84031965  0.25000000  1
  Te  Te5  1  0.06083616  0.28778083  0.99867292  1
  Te  Te6  1  0.28778083  0.06083616  0.49867292  1
  Te  Te7  1  0.84031965  0.42030854  0.75000000  1
loop_
_geom_bond_atom_site_label_1
_geom_bond_atom_site_label_2
_geom_bond_distance
_geom_bond_site_symmetry_2
Cs0 Te7 3.863157 1_565
Cs0 Te7 3.974423 1_455
Cs0 Te5 3.992874 1_555
Cs0 Te3 3.992874 1_555
Cs0 Te0 4.058549 1_555
Cs0 Te5 4.323187 1_665
Cs0 Te3 4.323187 1_665
Cs0 Te4 4.387958 1_556
Cs0 Te4 4.387958 1_555
Cs1 Te4 3.863157 1_655
Cs1 Te4 3.974423 1_545
Cs1 Te6 3.992874 1_555
Cs1 Te2 3.992874 1_555
Cs1 Te1 4.058549 1_555
Cs1 Te6 4.323187 1_665
Cs1 Te2 4.323187 1_665
Cs1 Te7 4.387958 1_554
Cs1 Te7 4.387958 1_555
Ta0 Te7 2.619104 1_555
Ta0 Te2 2.651624 1_556
Ta0 Te6 2.651624 1_555
Ta0 Te0 2.686362 1_555
Ta1 Te4 2.619104 1_555
Ta1 Te3 2.651624 1_555
Ta1 Te5 2.651624 1_554
Ta1 Te1 2.686362 1_555
Ag0 Te2 2.770875 1_555
Ag0 Te5 2.770875 1_554
Ag0 Te1 2.780930 1_555
Ag0 Te0 2.780930 1_554
Ag0 Ta1 3.163903 1_555
Ag0 Ta0 3.163903 1_554
Ag1 Te6 2.770875 1_555
Ag1 Te3 2.770875 1_555
Ag1 Te1 2.780930 1_555
Ag1 Te0 2.780930 1_555
Ag1 Ta1 3.163903 1_555
Ag1 Ta0 3.163903 1_555
Ag2 Te7 2.771194 1_455
Ag2 Te0 2.772789 1_455
Ag2 Te2 2.777436 1_566
Ag2 Te6 2.777436 1_565
Ag2 Ta0 3.201636 1_565
Ag2 Ta0 3.213067 1_455
Ag3 Te4 2.771194 1_545
Ag3 Te1 2.772789 1_545
Ag3 Te3 2.777436 1_655
Ag3 Te5 2.777436 1_654
Ag3 Ta1 3.201636 1_655
Ag3 Ta1 3.213067 1_545
