# generated using pymatgen
data_SrLaMnWO6
_symmetry_space_group_name_H-M   'P 1'
_cell_length_a   5.76094015
_cell_length_b   5.76094015
_cell_length_c   5.76094015
_cell_angle_alpha   119.60901713
_cell_angle_beta   119.60901713
_cell_angle_gamma   90.67854681
_symmetry_Int_Tables_number   1
_chemical_formula_structural   SrLaMnWO6
_chemical_formula_sum   'Sr1 La1 Mn1 W1 O6'
_cell_volume   135.98503435
_cell_formula_units_Z   1
loop_
 _symmetry_equiv_pos_site_id
 _symmetry_equiv_pos_as_xyz
  1  'x, y, z'
loop_
 _atom_site_type_symbol
 _atom_site_label
 _atom_site_symmetry_multiplicity
 _atom_site_fract_x
 _atom_site_fract_y
 _atom_site_fract_z
 _atom_site_occupancy
  Sr  Sr0  1  0.75000000  0.25000000  0.50000000  1
  La  La0  1  0.25000000  0.75000000  0.50000000  1
  Mn  Mn0  1  0.00000000  0.00000000  0.00000000  1
  W  W0  1  0.50000000  0.50000000  0.00000000  1
  O  O0  1  0.26126900  0.26126900  0.00000000  1
  O  O1  1  0.30760600  0.18248600  0.51740200  1
  O  O2  1  0.81751400  0.33491600  0.12512000  1
  O  O3  1  0.73873100  0.73873100  0.00000000  1
  O  O4  1  0.20979600  0.69239400  0.87488000  1
  O  O5  1  0.66508400  0.79020400  0.48259800  1
loop_
_geom_bond_atom_site_label_1
_geom_bond_atom_site_label_2
_geom_bond_distance
_geom_bond_site_symmetry_2
La0 O1 2.455322 1_565
La0 O2 2.455322 1_455
La0 O5 2.455322 1_555
La0 O4 2.455322 1_555
La0 O0 2.898913 1_566
La0 O0 2.898913 1_555
La0 O3 2.898913 1_455
La0 O3 2.898913 1_556
Mn0 O0 2.115969 1_555
Mn0 O3 2.115969 1_445
Mn0 O4 2.184044 1_544
Mn0 O2 2.184044 1_455
Mn0 O1 2.184044 1_555
Mn0 O5 2.184044 1_444
O0 W0 1.933438 1_555
O0 Sr0 2.898913 1_555
O0 Sr0 2.898913 1_454
O1 W0 2.045890 1_556
O1 Sr0 2.631396 1_555
O2 W0 2.045890 1_555
O2 Sr0 2.631396 1_555
O3 W0 1.933438 1_555
O3 Sr0 2.898913 1_554
O3 Sr0 2.898913 1_565
O4 W0 2.045890 1_556
O4 Sr0 2.631396 1_455
O5 W0 2.045890 1_555
O5 Sr0 2.631396 1_565
