# generated using pymatgen
data_NaAs12Ir3Os
_symmetry_space_group_name_H-M   'P 1'
_cell_length_a   7.40845344
_cell_length_b   7.40845337
_cell_length_c   7.39097027
_cell_angle_alpha   109.42342589
_cell_angle_beta   109.42342568
_cell_angle_gamma   109.51897347
_symmetry_Int_Tables_number   1
_chemical_formula_structural   NaAs12Ir3Os
_chemical_formula_sum   'Na1 As12 Ir3 Os1'
_cell_volume   312.45717368
_cell_formula_units_Z   1
loop_
 _symmetry_equiv_pos_site_id
 _symmetry_equiv_pos_as_xyz
  1  'x, y, z'
loop_
 _atom_site_type_symbol
 _atom_site_label
 _atom_site_symmetry_multiplicity
 _atom_site_fract_x
 _atom_site_fract_y
 _atom_site_fract_z
 _atom_site_occupancy
  Na  Na0  1  0.00000000  0.00000000  0.00000000  1
  As  As0  1  0.85457323  0.65379475  0.50539662  1
  As  As1  1  0.14542677  0.34620525  0.49460338  1
  As  As2  1  0.14616117  0.65044202  0.79612912  1
  As  As3  1  0.85383883  0.34955798  0.20387088  1
  As  As4  1  0.65044202  0.50428085  0.85431390  1
  As  As5  1  0.34955798  0.49571915  0.14568610  1
  As  As6  1  0.65379475  0.79922152  0.14839813  1
  As  As7  1  0.34620525  0.20077848  0.85160187  1
  As  As8  1  0.50428085  0.85383883  0.64996696  1
  As  As9  1  0.49571915  0.14616117  0.35003304  1
  As  As10  1  0.79922152  0.14542677  0.65082439  1
  As  As11  1  0.20077848  0.85457323  0.34917561  1
  Ir  Ir0  1  0.50000000  0.50000000  0.50000000  1
  Ir  Ir1  1  0.50000000  0.00000000  0.00000000  1
  Ir  Ir2  1  0.00000000  0.50000000  0.00000000  1
  Os  Os0  1  0.00000000  0.00000000  0.50000000  1
loop_
_geom_bond_atom_site_label_1
_geom_bond_atom_site_label_2
_geom_bond_distance
_geom_bond_site_symmetry_2
As0 Os0 2.447620 1_665
As0 Ir0 2.469846 1_555
As0 As2 2.503708 1_655
As0 As3 2.586441 1_555
As0 Na0 3.224999 1_666
As1 Os0 2.447620 1_555
As1 Ir0 2.469846 1_555
As1 As3 2.503708 1_455
As1 As2 2.586441 1_555
As1 Na0 3.224999 1_555
As2 Ir2 2.465936 1_556
As2 Ir1 2.467770 1_566
As2 Na0 3.242403 1_566
As3 Ir2 2.465936 1_655
As3 Ir1 2.467770 1_555
As3 Na0 3.242403 1_655
As4 Ir0 2.465942 1_555
As4 Ir2 2.467769 1_656
As4 As6 2.503703 1_556
As4 As7 2.586437 1_555
As4 Na0 3.242406 1_666
As5 Ir0 2.465942 1_555
As5 Ir2 2.467769 1_555
As5 As7 2.503703 1_554
As5 As6 2.586437 1_555
As5 Na0 3.242406 1_555
As6 Os0 2.447620 1_665
As6 Ir1 2.469846 1_565
As6 Na0 3.224999 1_665
As7 Os0 2.447620 1_555
As7 Ir1 2.469846 1_556
As7 Na0 3.224999 1_556
As8 Ir1 2.465942 1_566
As8 Ir0 2.467769 1_555
As8 Na0 3.242406 1_666
As9 Ir1 2.465942 1_555
As9 Ir0 2.467769 1_555
As9 Na0 3.242406 1_555
As10 Os0 2.447624 1_655
As10 Ir2 2.469842 1_656
As10 As8 2.503699 1_545
As10 As9 2.586441 1_555
As10 Na0 3.224994 1_656
As11 Os0 2.447624 1_565
As11 Ir2 2.469842 1_555
As11 As9 2.503699 1_565
As11 As8 2.586441 1_555
As11 Na0 3.224994 1_565
