# generated using pymatgen
data_NaAg(PdO2)2
_symmetry_space_group_name_H-M   'P 1'
_cell_length_a   5.73761375
_cell_length_b   5.72488975
_cell_length_c   5.73761375
_cell_angle_alpha   90.00000000
_cell_angle_beta   90.14479494
_cell_angle_gamma   90.00000000
_symmetry_Int_Tables_number   1
_chemical_formula_structural   NaAg(PdO2)2
_chemical_formula_sum   'Na2 Ag2 Pd4 O8'
_cell_volume   188.46397984
_cell_formula_units_Z   2
loop_
 _symmetry_equiv_pos_site_id
 _symmetry_equiv_pos_as_xyz
  1  'x, y, z'
loop_
 _atom_site_type_symbol
 _atom_site_label
 _atom_site_symmetry_multiplicity
 _atom_site_fract_x
 _atom_site_fract_y
 _atom_site_fract_z
 _atom_site_occupancy
  Na  Na0  1  0.50033634  0.50000000  0.49974235  1
  Na  Na1  1  0.99974235  0.00000000  0.00033634  1
  Ag  Ag0  1  0.74665702  0.00000000  0.50172022  1
  Ag  Ag1  1  0.00172022  0.50000000  0.24665702  1
  Pd  Pd0  1  0.00170708  0.50000000  0.75130160  1
  Pd  Pd1  1  0.25130160  0.00000000  0.50170708  1
  Pd  Pd2  1  0.49865239  0.75000000  0.99865239  1
  Pd  Pd3  1  0.49865239  0.25000000  0.99865239  1
  O  O0  1  0.74395936  0.25000000  0.24395936  1
  O  O1  1  0.24963347  0.25000000  0.74963347  1
  O  O2  1  0.25614663  0.75599021  0.25087735  1
  O  O3  1  0.75087735  0.74400979  0.75614663  1
  O  O4  1  0.25614663  0.24400979  0.25087735  1
  O  O5  1  0.74395936  0.75000000  0.24395936  1
  O  O6  1  0.75087735  0.25599021  0.75614663  1
  O  O7  1  0.24963347  0.75000000  0.74963347  1
loop_
_geom_bond_atom_site_label_1
_geom_bond_atom_site_label_2
_geom_bond_distance
_geom_bond_site_symmetry_2
Na0 O2 2.477798 1_555
Na0 O4 2.477798 1_555
Na0 O5 2.483235 1_555
Na0 O0 2.483235 1_555
Na0 O3 2.484236 1_555
Na0 O6 2.484236 1_555
Na0 O7 2.486693 1_555
Na0 O1 2.486693 1_555
Na1 O6 2.477798 1_554
Na1 O3 2.477798 1_544
Na1 O0 2.483235 1_555
Na1 O5 2.483235 1_545
Na1 O4 2.484236 1_655
Na1 O2 2.484236 1_645
Na1 O7 2.486693 1_644
Na1 O1 2.486693 1_654
Ag0 O0 2.058097 1_555
Ag0 O5 2.058097 1_545
Ag0 O6 2.068613 1_555
Ag0 O3 2.068613 1_545
Ag1 O0 2.058097 1_455
Ag1 O5 2.058097 1_455
Ag1 O2 2.068613 1_555
Ag1 O4 2.068613 1_555
O0 Pd3 1.987956 1_554
O1 Pd0 2.017940 1_555
O1 Pd1 2.017940 1_555
O1 Pd3 2.018037 1_555
O2 Pd1 2.005886 1_565
O2 Pd2 2.010388 1_554
O3 Pd0 2.005886 1_655
O3 Pd2 2.010388 1_555
O4 Pd1 2.005886 1_555
O4 Pd3 2.010388 1_554
O5 Pd2 1.987956 1_554
O6 Pd0 2.005886 1_655
O6 Pd3 2.010388 1_555
O7 Pd0 2.017940 1_555
O7 Pd1 2.017940 1_565
O7 Pd2 2.018037 1_555
