# generated using pymatgen
data_Sr5Si2Bi
_symmetry_space_group_name_H-M   'P 1'
_cell_length_a   9.84406852
_cell_length_b   9.84392294
_cell_length_c   9.84424236
_cell_angle_alpha   130.02461934
_cell_angle_beta   130.02367198
_cell_angle_gamma   73.37192364
_symmetry_Int_Tables_number   1
_chemical_formula_structural   Sr5Si2Bi
_chemical_formula_sum   'Sr10 Si4 Bi2'
_cell_volume   546.03589547
_cell_formula_units_Z   2
loop_
 _symmetry_equiv_pos_site_id
 _symmetry_equiv_pos_as_xyz
  1  'x, y, z'
loop_
 _atom_site_type_symbol
 _atom_site_label
 _atom_site_symmetry_multiplicity
 _atom_site_fract_x
 _atom_site_fract_y
 _atom_site_fract_z
 _atom_site_occupancy
  Sr  Sr0  1  0.53266109  0.03275349  0.84215356  1
  Sr  Sr1  1  0.19058860  0.69049726  0.15781324  1
  Sr  Sr2  1  0.03274434  0.19059922  0.50008703  1
  Sr  Sr3  1  0.69050639  0.53265093  0.49990176  1
  Sr  Sr4  1  0.46733891  0.96724651  0.15784644  1
  Sr  Sr5  1  0.80941140  0.30950274  0.84218676  1
  Sr  Sr6  1  0.96725566  0.80940078  0.49991297  1
  Sr  Sr7  1  0.30949361  0.46734907  0.50009824  1
  Sr  Sr8  1  0.00000000  0.00000000  0.00000000  1
  Sr  Sr9  1  0.50000000  0.50000000  0.00000000  1
  Si  Si0  1  0.89103859  0.39107827  0.28210504  1
  Si  Si1  1  0.10896141  0.60892173  0.71789496  1
  Si  Si2  1  0.39101229  0.10901835  0.50003209  1
  Si  Si3  1  0.60898771  0.89098165  0.49996791  1
  Bi  Bi0  1  0.24985927  0.24986004  0.99999970  1
  Bi  Bi1  1  0.75014073  0.75013996  0.00000030  1
loop_
_geom_bond_atom_site_label_1
_geom_bond_atom_site_label_2
_geom_bond_distance
_geom_bond_site_symmetry_2
Si0 Si1 2.562756 1_655
Si0 Sr6 3.234194 1_555
Si0 Sr3 3.234511 1_555
Si0 Sr7 3.235001 1_655
Si0 Sr2 3.235228 1_655
Si0 Sr9 3.376074 1_555
Si0 Sr8 3.376408 1_655
Si0 Sr0 3.386084 1_554
Si0 Sr5 3.386086 1_554
Si1 Sr2 3.234194 1_555
Si1 Sr7 3.234511 1_555
Si1 Sr3 3.235001 1_455
Si1 Sr6 3.235228 1_455
Si1 Sr9 3.376074 1_556
Si1 Sr8 3.376408 1_566
Si1 Sr4 3.386084 1_556
Si1 Sr1 3.386086 1_556
Si2 Si3 2.564225 1_545
Si2 Sr5 3.234587 1_555
Si2 Sr0 3.234752 1_555
Si2 Sr1 3.235165 1_545
Si2 Sr4 3.235420 1_545
Si2 Sr9 3.375609 1_556
Si2 Sr8 3.376011 1_555
Si2 Sr7 3.385864 1_555
Si2 Sr2 3.385893 1_555
Si3 Sr1 3.234587 1_555
Si3 Sr4 3.234752 1_555
Si3 Sr5 3.235165 1_565
Si3 Sr0 3.235420 1_565
Si3 Sr9 3.375609 1_555
Si3 Sr8 3.376011 1_666
Si3 Sr3 3.385864 1_555
Si3 Sr6 3.385893 1_555
Bi0 Sr6 3.550725 1_445
Bi0 Sr5 3.551046 1_455
Bi0 Sr7 3.551081 1_556
Bi0 Sr4 3.551112 1_546
Bi0 Sr3 3.552072 1_556
Bi0 Sr1 3.552271 1_556
Bi0 Sr2 3.552400 1_555
Bi0 Sr0 3.552414 1_555
Bi0 Sr8 3.944845 1_556
Bi0 Sr9 3.949272 1_556
Bi1 Sr2 3.550725 1_665
Bi1 Sr1 3.551046 1_655
Bi1 Sr3 3.551081 1_554
Bi1 Sr0 3.551112 1_564
Bi1 Sr7 3.552072 1_554
Bi1 Sr5 3.552271 1_554
Bi1 Sr6 3.552400 1_555
Bi1 Sr4 3.552414 1_555
Bi1 Sr8 3.944845 1_665
Bi1 Sr9 3.949272 1_555
