# generated using pymatgen
data_Sc4Tc(AsRh)6
_symmetry_space_group_name_H-M   'P 1'
_cell_length_a   7.03539396
_cell_length_b   7.03539567
_cell_length_c   7.03539562
_cell_angle_alpha   109.47121767
_cell_angle_beta   109.47122259
_cell_angle_gamma   109.47122571
_symmetry_Int_Tables_number   1
_chemical_formula_structural   Sc4Tc(AsRh)6
_chemical_formula_sum   'Sc4 Tc1 As6 Rh6'
_cell_volume   268.06712755
_cell_formula_units_Z   1
loop_
 _symmetry_equiv_pos_site_id
 _symmetry_equiv_pos_as_xyz
  1  'x, y, z'
loop_
 _atom_site_type_symbol
 _atom_site_label
 _atom_site_symmetry_multiplicity
 _atom_site_fract_x
 _atom_site_fract_y
 _atom_site_fract_z
 _atom_site_occupancy
  Sc  Sc0  1  0.50000000  0.50000000  0.50000000  1
  Sc  Sc1  1  0.00000000  0.50000000  0.00000000  1
  Sc  Sc2  1  0.50000000  0.00000000  0.00000000  1
  Sc  Sc3  1  0.00000000  0.00000000  0.50000000  1
  Tc  Tc0  1  0.00000000  0.00000000  0.00000000  1
  As  As0  1  0.68679062  1.00000000  0.68679062  1
  As  As1  1  0.68679062  0.68679062  1.00000000  1
  As  As2  1  0.31320938  0.31320938  0.00000000  1
  As  As3  1  0.00000000  0.68679062  0.68679062  1
  As  As4  1  1.00000000  0.31320938  0.31320938  1
  As  As5  1  0.31320938  0.00000000  0.31320938  1
  Rh  Rh0  1  0.50000000  0.75000000  0.25000000  1
  Rh  Rh1  1  0.75000000  0.25000000  0.50000000  1
  Rh  Rh2  1  0.25000000  0.75000000  0.50000000  1
  Rh  Rh3  1  0.25000000  0.50000000  0.75000000  1
  Rh  Rh4  1  0.50000000  0.25000000  0.75000000  1
  Rh  Rh5  1  0.75000000  0.50000000  0.25000000  1
loop_
_geom_bond_atom_site_label_1
_geom_bond_atom_site_label_2
_geom_bond_distance
_geom_bond_site_symmetry_2
As0 Rh2 2.535225 1_555
As0 Rh4 2.535226 1_565
As0 Rh1 2.535226 1_565
As0 Rh0 2.535226 1_555
As0 Tc0 2.544442 1_666
As0 Sc3 2.917729 1_665
As0 Sc2 2.917729 1_566
As0 Sc1 2.917729 1_666
As0 Sc0 2.917730 1_555
As1 Rh3 2.535225 1_555
As1 Rh0 2.535226 1_556
As1 Rh5 2.535226 1_556
As1 Rh4 2.535226 1_555
As1 Tc0 2.544442 1_666
As1 Sc1 2.917729 1_656
As1 Sc3 2.917729 1_666
As1 Sc2 2.917730 1_566
As1 Sc0 2.917730 1_555
As2 Rh5 2.535225 1_555
As2 Rh4 2.535226 1_554
As2 Rh3 2.535226 1_554
As2 Rh0 2.535226 1_555
As2 Tc0 2.544442 1_555
As2 Sc1 2.917729 1_555
As2 Sc3 2.917729 1_554
As2 Sc2 2.917730 1_555
As2 Sc0 2.917730 1_555
As3 Rh2 2.535226 1_555
As3 Rh3 2.535226 1_555
As3 Rh1 2.535226 1_455
As3 Rh5 2.535226 1_455
As3 Tc0 2.544443 1_566
As3 Sc0 2.917729 1_455
As3 Sc2 2.917729 1_566
As3 Sc1 2.917730 1_556
As3 Sc3 2.917730 1_565
As4 Rh1 2.535226 1_555
As4 Rh5 2.535226 1_555
As4 Rh2 2.535226 1_655
As4 Rh3 2.535226 1_655
As4 Tc0 2.544443 1_655
As4 Sc0 2.917729 1_655
As4 Sc2 2.917729 1_555
As4 Sc1 2.917730 1_655
As4 Sc3 2.917730 1_655
As5 Rh1 2.535225 1_555
As5 Rh0 2.535226 1_545
As5 Rh2 2.535226 1_545
As5 Rh4 2.535226 1_555
As5 Tc0 2.544442 1_555
As5 Sc3 2.917729 1_555
As5 Sc2 2.917729 1_555
As5 Sc1 2.917729 1_545
As5 Sc0 2.917730 1_555
Rh0 Sc1 2.872187 1_555
Rh0 Sc3 2.872187 1_665
Rh0 Sc2 2.872188 1_565
Rh0 Sc0 2.872188 1_555
Rh1 Sc3 2.872188 1_655
Rh1 Sc0 2.872188 1_555
Rh1 Sc1 2.872188 1_656
Rh1 Sc2 2.872188 1_555
Rh2 Sc0 2.872188 1_555
Rh2 Sc3 2.872188 1_565
Rh2 Sc2 2.872188 1_566
Rh2 Sc1 2.872188 1_555
Rh3 Sc0 2.872188 1_555
Rh3 Sc1 2.872188 1_556
Rh3 Sc2 2.872188 1_566
Rh3 Sc3 2.872188 1_555
Rh4 Sc3 2.872187 1_555
Rh4 Sc1 2.872187 1_656
Rh4 Sc2 2.872188 1_556
Rh4 Sc0 2.872188 1_555
Rh5 Sc0 2.872188 1_555
Rh5 Sc1 2.872188 1_655
Rh5 Sc2 2.872188 1_555
Rh5 Sc3 2.872188 1_665
