# generated using pymatgen
data_Sc3CdN
_symmetry_space_group_name_H-M   'P 1'
_cell_length_a   4.46454175
_cell_length_b   4.46454175
_cell_length_c   4.46454175
_cell_angle_alpha   90.00000000
_cell_angle_beta   90.00000000
_cell_angle_gamma   90.00000000
_symmetry_Int_Tables_number   1
_chemical_formula_structural   Sc3CdN
_chemical_formula_sum   'Sc3 Cd1 N1'
_cell_volume   88.98783985
_cell_formula_units_Z   1
loop_
 _symmetry_equiv_pos_site_id
 _symmetry_equiv_pos_as_xyz
  1  'x, y, z'
loop_
 _atom_site_type_symbol
 _atom_site_label
 _atom_site_symmetry_multiplicity
 _atom_site_fract_x
 _atom_site_fract_y
 _atom_site_fract_z
 _atom_site_occupancy
  Sc  Sc0  1  0.49999900  0.49999900  0.00000000  1
  Sc  Sc1  1  0.49999900  0.00000000  0.49999900  1
  Sc  Sc2  1  0.00000000  0.49999900  0.49999900  1
  Cd  Cd0  1  0.00000000  0.00000000  0.00000000  1
  N  N0  1  0.49999900  0.49999900  0.49999900  1
loop_
_geom_bond_atom_site_label_1
_geom_bond_atom_site_label_2
_geom_bond_distance
_geom_bond_site_symmetry_2
Cd0 Sc0 3.156901 1_555
Cd0 Sc2 3.156901 1_555
Cd0 Sc1 3.156901 1_555
Cd0 Sc2 3.156908 1_545
Cd0 Sc1 3.156908 1_554
Cd0 Sc1 3.156908 1_455
Cd0 Sc0 3.156908 1_545
Cd0 Sc2 3.156908 1_554
Cd0 Sc0 3.156908 1_455
Cd0 Sc2 3.156914 1_544
Cd0 Sc0 3.156914 1_445
Cd0 Sc1 3.156914 1_454
N0 Sc2 2.232266 1_555
N0 Sc0 2.232266 1_555
N0 Sc1 2.232266 1_555
N0 Sc2 2.232275 1_655
N0 Sc1 2.232275 1_565
N0 Sc0 2.232275 1_556
