# generated using pymatgen
data_Na2BiIrO6
_symmetry_space_group_name_H-M   'P 1'
_cell_length_a   6.01982554
_cell_length_b   6.01986086
_cell_length_c   6.01989309
_cell_angle_alpha   54.40028462
_cell_angle_beta   54.40066516
_cell_angle_gamma   54.40057010
_symmetry_Int_Tables_number   1
_chemical_formula_structural   Na2BiIrO6
_chemical_formula_sum   'Na2 Bi1 Ir1 O6'
_cell_volume   134.11179377
_cell_formula_units_Z   1
loop_
 _symmetry_equiv_pos_site_id
 _symmetry_equiv_pos_as_xyz
  1  'x, y, z'
loop_
 _atom_site_type_symbol
 _atom_site_label
 _atom_site_symmetry_multiplicity
 _atom_site_fract_x
 _atom_site_fract_y
 _atom_site_fract_z
 _atom_site_occupancy
  Na  Na0  1  0.13827225  0.13826742  0.13827973  1
  Na  Na1  1  0.85806166  0.85807404  0.85806651  1
  Bi  Bi0  1  0.65354972  0.65355007  0.65354825  1
  Ir  Ir0  1  0.34046878  0.34046126  0.34046088  1
  O  O0  1  0.68111838  0.09073992  0.45035628  1
  O  O1  1  0.45035206  0.68111735  0.09073905  1
  O  O2  1  0.09074177  0.45035049  0.68111791  1
  O  O3  1  0.26278619  0.97865725  0.54599366  1
  O  O4  1  0.97865520  0.54599679  0.26278258  1
  O  O5  1  0.54599399  0.26278541  0.97865515  1
loop_
_geom_bond_atom_site_label_1
_geom_bond_atom_site_label_2
_geom_bond_distance
_geom_bond_site_symmetry_2
Na0 O0 2.335903 1_455
Na0 O1 2.335925 1_545
Na0 O2 2.335960 1_554
Na0 O3 2.463099 1_545
Na0 O5 2.463108 1_554
Na0 O4 2.463131 1_455
Na1 O5 2.265958 1_565
Na1 O4 2.265988 1_556
Na1 O3 2.265989 1_655
Na1 O0 2.534715 1_565
Na1 O1 2.534739 1_556
Na1 O2 2.534796 1_655
Bi0 O3 2.172786 1_555
Bi0 O5 2.172797 1_555
Bi0 O4 2.172817 1_555
Bi0 O2 2.230347 1_655
Bi0 O0 2.230348 1_565
Bi0 O1 2.230367 1_556
Ir0 O1 1.932685 1_555
Ir0 O0 1.932688 1_555
Ir0 O2 1.932729 1_555
Ir0 O3 1.966733 1_545
Ir0 O5 1.966751 1_554
Ir0 O4 1.966764 1_455
