# generated using pymatgen
data_Y4ReMoOs6
_symmetry_space_group_name_H-M   'P 1'
_cell_length_a   5.20441265
_cell_length_b   5.20441260
_cell_length_c   9.05406163
_cell_angle_alpha   90.00000000
_cell_angle_beta   90.00000000
_cell_angle_gamma   116.73437620
_symmetry_Int_Tables_number   1
_chemical_formula_structural   Y4ReMoOs6
_chemical_formula_sum   'Y4 Re1 Mo1 Os6'
_cell_volume   219.02201987
_cell_formula_units_Z   1
loop_
 _symmetry_equiv_pos_site_id
 _symmetry_equiv_pos_as_xyz
  1  'x, y, z'
loop_
 _atom_site_type_symbol
 _atom_site_label
 _atom_site_symmetry_multiplicity
 _atom_site_fract_x
 _atom_site_fract_y
 _atom_site_fract_z
 _atom_site_occupancy
  Y  Y0  1  0.33154442  0.66845558  0.43617537  1
  Y  Y1  1  0.66813944  0.33186056  0.56616801  1
  Y  Y2  1  0.66813944  0.33186056  0.93383199  1
  Y  Y3  1  0.33154442  0.66845558  0.06382463  1
  Re  Re0  1  0.16065108  0.83934892  0.75000000  1
  Mo  Mo0  1  0.84050257  0.15949743  0.25000000  1
  Os  Os0  1  0.00140579  0.99859421  0.50183772  1
  Os  Os1  1  0.00140579  0.99859421  0.99816228  1
  Os  Os2  1  0.82862654  0.65060419  0.25000000  1
  Os  Os3  1  0.34939581  0.17137346  0.25000000  1
  Os  Os4  1  0.17001861  0.35137290  0.75000000  1
  Os  Os5  1  0.64862710  0.82998139  0.75000000  1
loop_
_geom_bond_atom_site_label_1
_geom_bond_atom_site_label_2
_geom_bond_distance
_geom_bond_site_symmetry_2
Re0 Y2 3.197704 1_455
Re0 Y1 3.197704 1_455
Re0 Y2 3.197704 1_565
Re0 Y1 3.197704 1_565
Re0 Y3 3.219821 1_556
Re0 Y0 3.219821 1_555
Mo0 Os2 2.584316 1_555
Mo0 Os3 2.584316 1_555
Mo0 Os2 2.621267 1_545
Mo0 Os3 2.621267 1_655
Mo0 Os0 2.689335 1_645
Mo0 Os1 2.689335 1_644
Mo0 Y0 3.209094 1_655
Mo0 Y3 3.209094 1_655
Mo0 Y0 3.209094 1_545
Mo0 Y3 3.209094 1_545
Mo0 Y1 3.244671 1_555
Mo0 Y2 3.244671 1_554
Os0 Re0 2.653335 1_555
Os0 Os4 2.782061 1_565
Os0 Os5 2.782061 1_455
Os0 Os2 2.796871 1_455
Os0 Os3 2.796871 1_565
Os0 Y0 2.985595 1_555
Os0 Y1 3.010407 1_465
Os0 Y1 3.158052 1_455
Os0 Y1 3.158052 1_565
Os0 Y0 3.173354 1_565
Os0 Y0 3.173354 1_455
Os1 Re0 2.653335 1_555
Os1 Os4 2.782061 1_565
Os1 Os5 2.782061 1_455
Os1 Os2 2.796871 1_456
Os1 Os3 2.796871 1_566
Os1 Y3 2.985595 1_556
Os1 Y2 3.010407 1_465
Os1 Y2 3.158052 1_455
Os1 Y2 3.158052 1_565
Os1 Y3 3.173354 1_566
Os1 Y3 3.173354 1_456
Os2 Os3 2.616194 1_555
Os2 Os3 2.842960 1_665
Os2 Y0 3.079283 1_655
Os2 Y3 3.079283 1_655
Os2 Y0 3.123931 1_555
Os2 Y3 3.123931 1_555
Os2 Y1 3.224499 1_555
Os2 Y2 3.224499 1_554
Os3 Y0 3.079283 1_545
Os3 Y3 3.079283 1_545
Os3 Y0 3.123931 1_555
Os3 Y3 3.123931 1_555
Os3 Y1 3.224499 1_555
Os3 Y2 3.224499 1_554
Os4 Re0 2.561930 1_555
Os4 Os5 2.612797 1_555
Os4 Re0 2.643211 1_545
Os4 Os5 2.846356 1_445
Os4 Y2 3.060139 1_455
Os4 Y1 3.060139 1_455
Os4 Y2 3.120603 1_555
Os4 Y1 3.120603 1_555
Os4 Y3 3.202389 1_556
Os4 Y0 3.202389 1_555
Os5 Re0 2.561930 1_555
Os5 Re0 2.643211 1_655
Os5 Y2 3.060139 1_565
Os5 Y1 3.060139 1_565
Os5 Y2 3.120603 1_555
Os5 Y1 3.120603 1_555
Os5 Y3 3.202389 1_556
Os5 Y0 3.202389 1_555
