# generated using pymatgen
data_Cs2Sn2PbS6
_symmetry_space_group_name_H-M   'P 1'
_cell_length_a   9.28800776
_cell_length_b   9.28798298
_cell_length_c   9.35576039
_cell_angle_alpha   90.78819941
_cell_angle_beta   90.78730743
_cell_angle_gamma   113.85839901
_symmetry_Int_Tables_number   1
_chemical_formula_structural   Cs2Sn2PbS6
_chemical_formula_sum   'Cs4 Sn4 Pb2 S12'
_cell_volume   737.89000398
_cell_formula_units_Z   2
loop_
 _symmetry_equiv_pos_site_id
 _symmetry_equiv_pos_as_xyz
  1  'x, y, z'
loop_
 _atom_site_type_symbol
 _atom_site_label
 _atom_site_symmetry_multiplicity
 _atom_site_fract_x
 _atom_site_fract_y
 _atom_site_fract_z
 _atom_site_occupancy
  Cs  Cs0  1  0.25906038  0.54370885  0.52154087  1
  Cs  Cs1  1  0.74093962  0.45629115  0.47845913  1
  Cs  Cs2  1  0.45629304  0.74094044  0.97846014  1
  Cs  Cs3  1  0.54370696  0.25905956  0.02153986  1
  Sn  Sn0  1  0.97575907  0.66193622  0.06031487  1
  Sn  Sn1  1  0.02424093  0.33806378  0.93968513  1
  Sn  Sn2  1  0.33806561  0.02424503  0.43968654  1
  Sn  Sn3  1  0.66193439  0.97575497  0.56031346  1
  Pb  Pb0  1  0.99356632  0.00640884  0.25001100  1
  Pb  Pb1  1  0.00643368  0.99359116  0.74998900  1
  S  S0  1  0.67270191  0.75389314  0.66782233  1
  S  S1  1  0.92443268  0.51873625  0.82848566  1
  S  S2  1  0.24610856  0.32729975  0.83217364  1
  S  S3  1  0.51873162  0.92442992  0.32848597  1
  S  S4  1  0.32729809  0.24610686  0.33217767  1
  S  S5  1  0.92063081  0.17038139  0.54175727  1
  S  S6  1  0.82962039  0.07936710  0.95823832  1
  S  S7  1  0.17037961  0.92063290  0.04176168  1
  S  S8  1  0.07556732  0.48126375  0.17151434  1
  S  S9  1  0.48126838  0.07557008  0.67151403  1
  S  S10  1  0.07936919  0.82961861  0.45824273  1
  S  S11  1  0.75389144  0.67270025  0.16782636  1
loop_
_geom_bond_atom_site_label_1
_geom_bond_atom_site_label_2
_geom_bond_distance
_geom_bond_site_symmetry_2
Cs0 S2 3.532044 1_555
Cs0 S4 3.534697 1_555
Cs0 S8 3.599972 1_555
Cs0 S5 3.627240 1_455
Cs0 S10 3.713406 1_555
Cs0 S0 3.762846 1_555
Cs0 S3 3.870353 1_555
Cs1 S11 3.532044 1_555
Cs1 S0 3.534697 1_555
Cs1 S1 3.599972 1_555
Cs1 S10 3.627240 1_655
Cs1 S5 3.713406 1_555
Cs1 S4 3.762846 1_555
Cs1 S9 3.870353 1_555
Cs2 S0 3.532060 1_555
Cs2 S11 3.534726 1_556
Cs2 S3 3.599938 1_556
Cs2 S6 3.627232 1_565
Cs2 S7 3.713443 1_556
Cs2 S2 3.762837 1_555
Cs2 S8 3.870388 1_556
Cs3 S4 3.532060 1_555
Cs3 S2 3.534726 1_554
Cs3 S9 3.599938 1_554
Cs3 S7 3.627232 1_545
Cs3 S6 3.713443 1_554
Cs3 S11 3.762837 1_555
Cs3 S1 3.870388 1_554
Pb0 S10 2.868910 1_645
Pb0 S7 2.869022 1_645
Pb0 S11 3.075599 1_545
Pb0 S4 3.075789 1_655
Pb1 S5 2.868910 1_465
Pb1 S6 2.869022 1_465
Pb1 S2 3.075599 1_565
Pb1 S0 3.075789 1_455
S0 Sn3 2.342848 1_555
S1 Sn1 2.457157 1_655
S1 Sn0 2.465736 1_556
S2 Sn1 2.342885 1_555
S3 Sn2 2.457137 1_565
S3 Sn3 2.465748 1_555
S4 Sn2 2.342848 1_555
S5 Sn3 2.361700 1_545
S6 Sn1 2.361677 1_655
S7 Sn0 2.361677 1_455
S8 Sn0 2.457157 1_455
S8 Sn1 2.465736 1_554
S9 Sn3 2.457137 1_545
S9 Sn2 2.465748 1_555
S10 Sn2 2.361700 1_565
S11 Sn0 2.342885 1_555
