# generated using pymatgen
data_HfTi(ZnPt)2
_symmetry_space_group_name_H-M   'P 1'
_cell_length_a   4.84966768
_cell_length_b   4.84966691
_cell_length_c   5.19476543
_cell_angle_alpha   90.00000000
_cell_angle_beta   90.00000000
_cell_angle_gamma   127.12436590
_symmetry_Int_Tables_number   1
_chemical_formula_structural   HfTi(ZnPt)2
_chemical_formula_sum   'Hf1 Ti1 Zn2 Pt2'
_cell_volume   97.41514589
_cell_formula_units_Z   1
loop_
 _symmetry_equiv_pos_site_id
 _symmetry_equiv_pos_as_xyz
  1  'x, y, z'
loop_
 _atom_site_type_symbol
 _atom_site_label
 _atom_site_symmetry_multiplicity
 _atom_site_fract_x
 _atom_site_fract_y
 _atom_site_fract_z
 _atom_site_occupancy
  Hf  Hf0  1  0.70265258  0.29734742  0.25000000  1
  Ti  Ti0  1  0.29633530  0.70366470  0.75000000  1
  Zn  Zn0  1  0.00103150  0.99896850  0.50372318  1
  Zn  Zn1  1  0.00103150  0.99896850  0.99627682  1
  Pt  Pt0  1  0.38630958  0.61369042  0.25000000  1
  Pt  Pt1  1  0.61263955  0.38736045  0.75000000  1
loop_
_geom_bond_atom_site_label_1
_geom_bond_atom_site_label_2
_geom_bond_distance
_geom_bond_site_symmetry_2
Hf0 Pt0 2.684462 1_545
Hf0 Pt0 2.684463 1_655
Hf0 Pt1 2.712479 1_554
Hf0 Pt1 2.712479 1_555
Hf0 Pt0 2.747426 1_555
Hf0 Zn0 2.907337 1_645
Hf0 Zn1 2.907337 1_644
Hf0 Zn0 3.076621 1_655
Hf0 Zn1 3.076621 1_654
Hf0 Zn0 3.076622 1_545
Hf0 Zn1 3.076622 1_544
Ti0 Zn1 2.866083 1_555
Ti0 Zn0 2.866083 1_555
Ti0 Zn1 3.075609 1_545
Ti0 Zn0 3.075609 1_545
Ti0 Zn1 3.075610 1_655
Ti0 Zn0 3.075610 1_655
Zn0 Zn1 2.558701 1_555
Zn0 Zn1 2.636065 1_554
Pt0 Ti0 2.712383 1_555
Pt0 Ti0 2.712383 1_554
Pt0 Zn0 2.718837 1_545
Pt0 Zn1 2.718837 1_544
Pt0 Zn0 2.718837 1_655
Pt0 Zn1 2.718837 1_654
Pt1 Ti0 2.684662 1_545
Pt1 Ti0 2.684663 1_655
Pt1 Zn1 2.690435 1_655
Pt1 Zn0 2.690435 1_655
Pt1 Zn1 2.690436 1_545
Pt1 Zn0 2.690436 1_545
Pt1 Ti0 2.747090 1_555
