# generated using pymatgen
data_LiTi(SbPt)2
_symmetry_space_group_name_H-M   'P 1'
_cell_length_a   6.18578304
_cell_length_b   6.18578216
_cell_length_c   7.58081362
_cell_angle_alpha   65.92141040
_cell_angle_beta   65.92141614
_cell_angle_gamma   90.00000112
_symmetry_Int_Tables_number   1
_chemical_formula_structural   LiTi(SbPt)2
_chemical_formula_sum   'Li2 Ti2 Sb4 Pt4'
_cell_volume   236.91751843
_cell_formula_units_Z   2
loop_
 _symmetry_equiv_pos_site_id
 _symmetry_equiv_pos_as_xyz
  1  'x, y, z'
loop_
 _atom_site_type_symbol
 _atom_site_label
 _atom_site_symmetry_multiplicity
 _atom_site_fract_x
 _atom_site_fract_y
 _atom_site_fract_z
 _atom_site_occupancy
  Li  Li0  1  0.00000000  0.00000000  0.00000000  1
  Li  Li1  1  0.24999800  0.75000000  0.50000100  1
  Ti  Ti0  1  0.50000000  0.50000000  0.00000000  1
  Ti  Ti1  1  0.75000000  0.25000200  0.50000100  1
  Sb  Sb0  1  0.49015311  0.99015511  0.01968977  1
  Sb  Sb1  1  0.75984589  0.75984589  0.48031023  1
  Sb  Sb2  1  0.24015511  0.24015511  0.51969077  1
  Sb  Sb3  1  0.00984389  0.50984589  0.98030923  1
  Pt  Pt0  1  0.12500000  0.14818006  0.24999900  1
  Pt  Pt1  1  0.62500000  0.60182094  0.25000000  1
  Pt  Pt2  1  0.85182194  0.37500200  0.74999900  1
  Pt  Pt3  1  0.39818006  0.87500000  0.75000100  1
loop_
_geom_bond_atom_site_label_1
_geom_bond_atom_site_label_2
_geom_bond_distance
_geom_bond_site_symmetry_2
Li0 Pt0 2.764604 1_555
Li0 Pt1 2.764608 1_445
Li0 Pt3 2.764608 1_544
Li0 Pt2 2.764614 1_454
Li0 Sb2 2.973917 1_554
Li0 Sb1 2.973923 1_445
Li0 Sb0 3.095281 1_545
Li0 Sb3 3.095290 1_544
Li0 Sb3 3.095296 1_554
Li0 Sb0 3.095306 1_445
Li1 Pt2 2.764590 1_455
Li1 Pt0 2.764611 1_565
Li1 Pt1 2.764619 1_555
Li1 Pt3 2.764619 1_555
Li1 Sb3 2.973911 1_555
Li1 Sb0 2.973929 1_555
Li1 Sb1 3.095278 1_455
Li1 Sb2 3.095293 1_565
Li1 Sb2 3.095293 1_555
Li1 Sb1 3.095309 1_555
Sb0 Ti0 3.095293 1_555
Sb0 Ti0 3.095293 1_565
Sb0 Ti1 3.217742 1_564
Sb1 Ti1 3.095284 1_555
Sb1 Ti1 3.095302 1_565
Sb1 Ti0 3.217748 1_556
Sb2 Ti1 3.095293 1_455
Sb2 Ti1 3.095293 1_555
Sb2 Ti0 3.217754 1_555
Sb3 Ti0 3.095284 1_456
Sb3 Ti0 3.095303 1_556
Sb3 Ti1 3.217760 1_456
Pt0 Ti0 2.599253 1_555
Pt0 Ti1 2.599267 1_455
Pt0 Sb3 2.673656 1_554
Pt0 Sb2 2.673664 1_555
Pt0 Sb0 2.698233 1_545
Pt0 Sb1 2.698236 1_445
Pt1 Ti1 2.599254 1_555
Pt1 Ti0 2.599256 1_555
Pt1 Sb3 2.673650 1_654
Pt1 Sb2 2.673653 1_555
Pt1 Sb0 2.698247 1_555
Pt1 Sb1 2.698247 1_555
Pt2 Ti1 2.599245 1_555
Pt2 Ti0 2.599257 1_556
Pt2 Sb1 2.673645 1_555
Pt2 Sb0 2.673670 1_546
Pt2 Sb3 2.698228 1_655
Pt2 Sb2 2.698237 1_655
Pt3 Ti0 2.599250 1_556
Pt3 Ti1 2.599261 1_565
Pt3 Sb0 2.673636 1_556
Pt3 Sb1 2.673653 1_555
Pt3 Sb2 2.698243 1_565
Pt3 Sb3 2.698245 1_555
