# generated using pymatgen
data_Ca6HPb2N
_symmetry_space_group_name_H-M   'P 1'
_cell_length_a   6.99090160
_cell_length_b   6.99090171
_cell_length_c   6.99090132
_cell_angle_alpha   59.99999718
_cell_angle_beta   59.99999668
_cell_angle_gamma   60.00000098
_symmetry_Int_Tables_number   1
_chemical_formula_structural   Ca6HPb2N
_chemical_formula_sum   'Ca6 H1 Pb2 N1'
_cell_volume   241.59310897
_cell_formula_units_Z   1
loop_
 _symmetry_equiv_pos_site_id
 _symmetry_equiv_pos_as_xyz
  1  'x, y, z'
loop_
 _atom_site_type_symbol
 _atom_site_label
 _atom_site_symmetry_multiplicity
 _atom_site_fract_x
 _atom_site_fract_y
 _atom_site_fract_z
 _atom_site_occupancy
  Ca  Ca0  1  0.25997929  0.74002071  0.74002071  1
  Ca  Ca1  1  0.25997929  0.74002071  0.25997929  1
  Ca  Ca2  1  0.74002071  0.25997929  0.74002071  1
  Ca  Ca3  1  0.74002071  0.74002071  0.25997929  1
  Ca  Ca4  1  0.25997929  0.25997929  0.74002071  1
  Ca  Ca5  1  0.74002071  0.25997929  0.25997929  1
  H  H0  1  0.00000000  0.00000000  0.00000000  1
  Pb  Pb0  1  0.25000000  0.25000000  0.25000000  1
  Pb  Pb1  1  0.75000000  0.75000000  0.75000000  1
  N  N0  1  0.50000000  0.50000000  0.50000000  1
loop_
_geom_bond_atom_site_label_1
_geom_bond_atom_site_label_2
_geom_bond_distance
_geom_bond_site_symmetry_2
Ca0 N0 2.372995 1_555
Ca0 H0 2.570318 1_566
Ca0 Pb0 3.496843 1_556
Ca0 Pb0 3.496843 1_565
Ca0 Pb1 3.496843 1_455
Ca0 Pb1 3.496843 1_555
Ca1 N0 2.372995 1_555
Ca1 H0 2.570318 1_565
Ca1 Pb1 3.496843 1_554
Ca1 Pb1 3.496843 1_455
Ca1 Pb0 3.496843 1_555
Ca1 Pb0 3.496843 1_565
Ca2 N0 2.372995 1_555
Ca2 H0 2.570318 1_656
Ca2 Pb0 3.496843 1_556
Ca2 Pb0 3.496843 1_655
Ca2 Pb1 3.496843 1_555
Ca2 Pb1 3.496843 1_545
Ca3 N0 2.372995 1_555
Ca3 H0 2.570318 1_665
Ca3 Pb1 3.496843 1_554
Ca3 Pb1 3.496843 1_555
Ca3 Pb0 3.496843 1_655
Ca3 Pb0 3.496843 1_565
Ca4 N0 2.372995 1_555
Ca4 H0 2.570318 1_556
Ca4 Pb0 3.496843 1_556
Ca4 Pb0 3.496843 1_555
Ca4 Pb1 3.496843 1_455
Ca4 Pb1 3.496843 1_545
Ca5 N0 2.372995 1_555
Ca5 H0 2.570318 1_655
Ca5 Pb1 3.496843 1_554
Ca5 Pb1 3.496843 1_545
Ca5 Pb0 3.496843 1_655
Ca5 Pb0 3.496843 1_555
