# generated using pymatgen
data_Lu10HgBiIr4
_symmetry_space_group_name_H-M   'P 1'
_cell_length_a   8.55769839
_cell_length_b   8.55769793
_cell_length_c   8.55769952
_cell_angle_alpha   127.68804485
_cell_angle_beta   127.68804758
_cell_angle_gamma   77.13092374
_symmetry_Int_Tables_number   1
_chemical_formula_structural   Lu10HgBiIr4
_chemical_formula_sum   'Lu10 Hg1 Bi1 Ir4'
_cell_volume   380.88642281
_cell_formula_units_Z   1
loop_
 _symmetry_equiv_pos_site_id
 _symmetry_equiv_pos_as_xyz
  1  'x, y, z'
loop_
 _atom_site_type_symbol
 _atom_site_label
 _atom_site_symmetry_multiplicity
 _atom_site_fract_x
 _atom_site_fract_y
 _atom_site_fract_z
 _atom_site_occupancy
  Lu  Lu0  1  0.99738650  0.99738650  0.00000000  1
  Lu  Lu1  1  0.50261350  0.50261350  1.00000000  1
  Lu  Lu2  1  0.79289983  0.28513496  0.81465390  1
  Lu  Lu3  1  0.21486504  0.70710017  0.18534610  1
  Lu  Lu4  1  0.47048306  0.97824694  0.18534610  1
  Lu  Lu5  1  0.28513496  0.47048306  0.49223612  1
  Lu  Lu6  1  0.02951694  0.21486504  0.50776388  1
  Lu  Lu7  1  0.52175306  0.02951694  0.81465390  1
  Lu  Lu8  1  0.70710017  0.52175306  0.49223612  1
  Lu  Lu9  1  0.97824694  0.79289983  0.50776388  1
  Hg  Hg0  1  0.25000000  0.25000000  0.00000000  1
  Bi  Bi0  1  0.75000000  0.75000000  0.00000000  1
  Ir  Ir0  1  0.14159347  0.64159347  0.78318993  1
  Ir  Ir1  1  0.85840653  0.35840653  0.21681007  1
  Ir  Ir2  1  0.64159347  0.85840653  0.50000000  1
  Ir  Ir3  1  0.35840653  0.14159347  0.50000000  1
loop_
_geom_bond_atom_site_label_1
_geom_bond_atom_site_label_2
_geom_bond_distance
_geom_bond_site_symmetry_2
Hg0 Lu4 3.221891 1_545
Hg0 Lu7 3.221891 1_554
Hg0 Lu9 3.221896 1_444
Hg0 Lu8 3.221896 1_555
Hg0 Lu3 3.221896 1_555
Hg0 Lu2 3.221896 1_454
Hg0 Lu6 3.221901 1_554
Hg0 Lu5 3.221901 1_555
Hg0 Lu1 3.380592 1_554
Hg0 Lu0 3.380592 1_445
Bi0 Lu7 3.289761 1_564
Bi0 Lu4 3.289761 1_555
Bi0 Lu9 3.289766 1_555
Bi0 Lu8 3.289766 1_554
Bi0 Lu6 3.289771 1_665
Bi0 Lu5 3.289771 1_554
Bi0 Lu2 3.289775 1_554
Bi0 Lu3 3.289775 1_655
Bi0 Lu0 3.310642 1_555
Bi0 Lu1 3.310642 1_554
Ir0 Lu3 2.776794 1_556
Ir0 Lu4 2.776832 1_556
Ir0 Lu6 2.843018 1_555
Ir0 Lu9 2.843050 1_455
Ir0 Lu8 2.886711 1_455
Ir0 Lu5 2.886729 1_555
Ir0 Lu0 2.907663 1_456
Ir0 Lu1 2.907663 1_555
Ir1 Lu2 2.776794 1_554
Ir1 Lu7 2.776832 1_554
Ir1 Lu5 2.843018 1_655
Ir1 Lu8 2.843051 1_555
Ir1 Lu9 2.886711 1_555
Ir1 Lu6 2.886729 1_655
Ir1 Lu1 2.907663 1_554
Ir1 Lu0 2.907663 1_545
Ir2 Lu8 2.776831 1_555
Ir2 Lu9 2.776831 1_555
Ir2 Lu2 2.843022 1_565
Ir2 Lu3 2.843022 1_555
Ir2 Lu4 2.886722 1_555
Ir2 Lu7 2.886723 1_565
Ir2 Lu0 2.907670 1_556
Ir2 Lu1 2.907670 1_554
Ir3 Lu5 2.776831 1_555
Ir3 Lu6 2.776831 1_555
Ir3 Lu7 2.843037 1_555
Ir3 Lu4 2.843037 1_545
Ir3 Lu3 2.886713 1_545
Ir3 Lu2 2.886713 1_555
Ir3 Lu0 2.907670 1_445
Ir3 Lu1 2.907670 1_555
