# generated using pymatgen
data_CsAlZnAs2
_symmetry_space_group_name_H-M   'P 1'
_cell_length_a   8.28149346
_cell_length_b   8.28149377
_cell_length_c   8.28149340
_cell_angle_alpha   151.24654503
_cell_angle_beta   151.24655004
_cell_angle_gamma   41.11463297
_symmetry_Int_Tables_number   1
_chemical_formula_structural   CsAlZnAs2
_chemical_formula_sum   'Cs1 Al1 Zn1 As2'
_cell_volume   131.14503945
_cell_formula_units_Z   1
loop_
 _symmetry_equiv_pos_site_id
 _symmetry_equiv_pos_as_xyz
  1  'x, y, z'
loop_
 _atom_site_type_symbol
 _atom_site_label
 _atom_site_symmetry_multiplicity
 _atom_site_fract_x
 _atom_site_fract_y
 _atom_site_fract_z
 _atom_site_occupancy
  Cs  Cs0  1  0.00000000  0.00000000  0.00000000  1
  Al  Al0  1  0.25000000  0.75000000  0.50000000  1
  Zn  Zn0  1  0.75000000  0.25000000  0.50000000  1
  As  As0  1  0.65396719  0.65396719  0.00000000  1
  As  As1  1  0.34603281  0.34603281  1.00000000  1
loop_
_geom_bond_atom_site_label_1
_geom_bond_atom_site_label_2
_geom_bond_distance
_geom_bond_site_symmetry_2
Al0 As0 2.538947 1_455
Al0 As0 2.538947 1_556
Al0 As1 2.538947 1_554
Al0 As1 2.538947 1_565
As0 Zn0 2.538947 1_554
As0 Zn0 2.538947 1_565
As0 Cs0 3.762696 1_554
As0 Cs0 3.762696 1_666
As0 Cs0 3.762696 1_565
As0 Cs0 3.762696 1_655
As1 Zn0 2.538947 1_455
As1 Zn0 2.538947 1_556
As1 Cs0 3.762696 1_667
As1 Cs0 3.762696 1_555
As1 Cs0 3.762696 1_656
As1 Cs0 3.762696 1_566
