# generated using pymatgen
data_Cs3K9(VSe4)4
_symmetry_space_group_name_H-M   'P 1'
_cell_length_a   9.88555396
_cell_length_b   9.87327190
_cell_length_c   10.80196338
_cell_angle_alpha   90.00000000
_cell_angle_beta   90.00000000
_cell_angle_gamma   89.25393378
_symmetry_Int_Tables_number   1
_chemical_formula_structural   Cs3K9(VSe4)4
_chemical_formula_sum   'Cs3 K9 V4 Se16'
_cell_volume   1054.21208303
_cell_formula_units_Z   1
loop_
 _symmetry_equiv_pos_site_id
 _symmetry_equiv_pos_as_xyz
  1  'x, y, z'
loop_
 _atom_site_type_symbol
 _atom_site_label
 _atom_site_symmetry_multiplicity
 _atom_site_fract_x
 _atom_site_fract_y
 _atom_site_fract_z
 _atom_site_occupancy
  Cs  Cs0  1  0.64552123  0.40211029  0.75000000  1
  Cs  Cs1  1  0.14812581  0.09489454  0.75000000  1
  Cs  Cs2  1  0.34444333  0.59781044  0.25000000  1
  K  K0  1  0.87428660  0.92977180  0.25000000  1
  K  K1  1  0.55091318  0.20519316  0.04989609  1
  K  K2  1  0.04721487  0.29611681  0.45454799  1
  K  K3  1  0.45336501  0.79272791  0.54731113  1
  K  K4  1  0.94873821  0.70772938  0.95457645  1
  K  K5  1  0.45336501  0.79272791  0.95268887  1
  K  K6  1  0.94873821  0.70772938  0.54542355  1
  K  K7  1  0.55091318  0.20519316  0.45010391  1
  K  K8  1  0.04721487  0.29611681  0.04545201  1
  V  V0  1  0.71962383  0.98038848  0.75000000  1
  V  V1  1  0.21561435  0.51476991  0.75000000  1
  V  V2  1  0.28655901  0.01487581  0.25000000  1
  V  V3  1  0.77759203  0.48482160  0.25000000  1
  Se  Se0  1  0.82845593  0.04846460  0.57507544  1
  Se  Se1  1  0.32448111  0.44229134  0.92356065  1
  Se  Se2  1  0.17484528  0.94397867  0.07795729  1
  Se  Se3  1  0.66464879  0.54708806  0.42409835  1
  Se  Se4  1  0.17484528  0.94397867  0.42204271  1
  Se  Se5  1  0.66464879  0.54708806  0.07590165  1
  Se  Se6  1  0.82845593  0.04846460  0.92492456  1
  Se  Se7  1  0.32448111  0.44229134  0.57643935  1
  Se  Se8  1  0.70619144  0.75100975  0.75000000  1
  Se  Se9  1  0.20513319  0.74491882  0.75000000  1
  Se  Se10  1  0.29339115  0.24514867  0.25000000  1
  Se  Se11  1  0.80390692  0.25427024  0.25000000  1
  Se  Se12  1  0.50394322  0.06566924  0.75000000  1
  Se  Se13  1  0.99912652  0.43556909  0.75000000  1
  Se  Se14  1  0.50504349  0.93292439  0.25000000  1
  Se  Se15  1  0.98617509  0.58386508  0.25000000  1
loop_
_geom_bond_atom_site_label_1
_geom_bond_atom_site_label_2
_geom_bond_distance
_geom_bond_site_symmetry_2
Cs0 Se8 3.504286 1_555
Cs0 Se13 3.515439 1_555
Cs0 Se12 3.621335 1_555
Cs0 Se1 3.702914 1_555
Cs0 Se7 3.702914 1_555
Cs0 Se5 3.805888 1_556
Cs0 Se3 3.805888 1_555
Cs1 Se9 3.493809 1_545
Cs1 Se12 3.525521 1_555
Cs1 Se13 3.654333 1_455
Cs1 Se6 3.715442 1_455
Cs1 Se0 3.715442 1_455
Cs1 Se2 3.850923 1_546
Cs1 Se4 3.850923 1_545
Cs2 Se10 3.524808 1_555
Cs2 Se15 3.546146 1_455
Cs2 Se14 3.688447 1_555
Cs2 Se5 3.710255 1_555
Cs2 Se3 3.710255 1_555
Cs2 Se7 3.852081 1_555
Cs2 Se1 3.852081 1_554
K0 Se11 3.269669 1_565
K0 Se4 3.508866 1_655
K0 Se2 3.508866 1_655
K0 Se15 3.576149 1_555
K0 Se14 3.649900 1_555
K0 Se0 3.727608 1_565
K0 Se6 3.727608 1_564
K1 Se11 3.345656 1_555
K1 Se10 3.358936 1_555
K1 Se6 3.410862 1_554
K1 Se14 3.483653 1_545
K1 Se1 3.495183 1_554
K1 Se12 3.553036 1_554
K1 Se5 3.582835 1_555
K2 Se11 3.296014 1_455
K2 Se10 3.320493 1_555
K2 Se7 3.381155 1_555
K2 Se13 3.505722 1_455
K2 Se0 3.533846 1_455
K2 Se15 3.643188 1_455
K2 Se4 3.699832 1_545
K3 Se9 3.326903 1_555
K3 Se8 3.344119 1_555
K3 Se4 3.396288 1_555
K3 Se3 3.447304 1_555
K3 Se12 3.512947 1_565
K3 Se14 3.536866 1_555
K3 Se7 3.715965 1_555
K4 Se8 3.284550 1_555
K4 Se9 3.386240 1_655
K4 Se15 3.435730 1_556
K4 Se5 3.498016 1_556
K4 Se13 3.509583 1_555
K4 Se2 3.514101 1_656
K4 Se6 3.567902 1_565
K5 Se9 3.326903 1_555
K5 Se8 3.344119 1_555
K5 Se2 3.396288 1_556
K5 Se5 3.447304 1_556
K5 Se12 3.512947 1_565
K5 Se14 3.536866 1_556
K5 Se1 3.715965 1_555
K6 Se8 3.284550 1_555
K6 Se9 3.386240 1_655
K6 Se15 3.435730 1_555
K6 Se3 3.498016 1_555
K6 Se13 3.509583 1_555
K6 Se4 3.514101 1_655
K6 Se0 3.567902 1_565
K7 Se11 3.345656 1_555
K7 Se10 3.358936 1_555
K7 Se0 3.410862 1_555
K7 Se14 3.483653 1_545
K7 Se7 3.495183 1_555
K7 Se12 3.553036 1_555
K7 Se3 3.582835 1_555
K8 Se11 3.296014 1_455
K8 Se10 3.320493 1_555
K8 Se1 3.381155 1_554
K8 Se13 3.505722 1_454
K8 Se6 3.533846 1_454
K8 Se15 3.643188 1_455
K8 Se2 3.699832 1_545
Se0 V0 2.280000 1_545
Se1 V1 2.272688 1_555
Se2 V2 2.276698 1_565
Se3 V3 2.267891 1_555
Se4 V2 2.276698 1_565
Se5 V3 2.267891 1_555
Se6 V0 2.280000 1_545
Se7 V1 2.272688 1_555
Se8 V0 2.270333 1_555
Se9 V1 2.273336 1_555
Se10 V2 2.275428 1_555
Se11 V3 2.287745 1_555
Se12 V0 2.282139 1_545
Se13 V1 2.288033 1_655
Se14 V2 2.296538 1_565
Se15 V3 2.293565 1_555
