# generated using pymatgen
data_LuNbC2
_symmetry_space_group_name_H-M   'P 1'
_cell_length_a   5.78120556
_cell_length_b   5.78120530
_cell_length_c   5.78120505
_cell_angle_alpha   32.90554664
_cell_angle_beta   32.90555243
_cell_angle_gamma   32.90554089
_symmetry_Int_Tables_number   1
_chemical_formula_structural   LuNbC2
_chemical_formula_sum   'Lu1 Nb1 C2'
_cell_volume   50.73940782
_cell_formula_units_Z   1
loop_
 _symmetry_equiv_pos_site_id
 _symmetry_equiv_pos_as_xyz
  1  'x, y, z'
loop_
 _atom_site_type_symbol
 _atom_site_label
 _atom_site_symmetry_multiplicity
 _atom_site_fract_x
 _atom_site_fract_y
 _atom_site_fract_z
 _atom_site_occupancy
  Lu  Lu0  1  0.00000000  0.00000000  0.00000000  1
  Nb  Nb0  1  0.50000000  0.50000000  0.50000000  1
  C  C0  1  0.24269010  0.24269010  0.24269010  1
  C  C1  1  0.75730990  0.75730990  0.75730990  1
loop_
_geom_bond_atom_site_label_1
_geom_bond_atom_site_label_2
_geom_bond_distance
_geom_bond_site_symmetry_2
C0 Nb0 2.264342 1_545
C0 Nb0 2.264343 1_554
C0 Nb0 2.264343 1_455
C0 Lu0 2.404537 1_565
C0 Lu0 2.404537 1_556
C0 Lu0 2.404537 1_655
C1 Nb0 2.264342 1_565
C1 Nb0 2.264343 1_556
C1 Nb0 2.264343 1_655
C1 Lu0 2.404537 1_656
C1 Lu0 2.404537 1_665
C1 Lu0 2.404537 1_566
