# generated using pymatgen
data_Hf16CoPt5W2
_symmetry_space_group_name_H-M   'P 1'
_cell_length_a   8.80615603
_cell_length_b   8.80615570
_cell_length_c   8.74630416
_cell_angle_alpha   59.74359049
_cell_angle_beta   59.74358788
_cell_angle_gamma   59.68773795
_symmetry_Int_Tables_number   1
_chemical_formula_structural   Hf16CoPt5W2
_chemical_formula_sum   'Hf16 Co1 Pt5 W2'
_cell_volume   476.60743098
_cell_formula_units_Z   1
loop_
 _symmetry_equiv_pos_site_id
 _symmetry_equiv_pos_as_xyz
  1  'x, y, z'
loop_
 _atom_site_type_symbol
 _atom_site_label
 _atom_site_symmetry_multiplicity
 _atom_site_fract_x
 _atom_site_fract_y
 _atom_site_fract_z
 _atom_site_occupancy
  Hf  Hf0  1  0.06941420  0.64928641  0.64835900  1
  Hf  Hf1  1  0.64928641  0.06941420  0.64835900  1
  Hf  Hf2  1  0.65217513  0.65217513  0.06083849  1
  Hf  Hf3  1  0.63698209  0.63698209  0.63652113  1
  Hf  Hf4  1  0.79225094  0.79225094  0.19847208  1
  Hf  Hf5  1  0.21461072  0.21461072  0.78465996  1
  Hf  Hf6  1  0.80382441  0.18875240  0.79906756  1
  Hf  Hf7  1  0.21065342  0.79476533  0.21007084  1
  Hf  Hf8  1  0.18875240  0.80382441  0.79906756  1
  Hf  Hf9  1  0.79476533  0.21065342  0.21007084  1
  Hf  Hf10  1  0.43349077  0.43349077  0.07006558  1
  Hf  Hf11  1  0.06535126  0.06535126  0.43773320  1
  Hf  Hf12  1  0.43286169  0.05666560  0.43379776  1
  Hf  Hf13  1  0.06009334  0.43366000  0.07513087  1
  Hf  Hf14  1  0.05666560  0.43286169  0.43379776  1
  Hf  Hf15  1  0.43366000  0.06009334  0.07513087  1
  Co  Co0  1  0.86007536  0.86007536  0.85404297  1
  Pt  Pt0  1  0.41640160  0.41640160  0.75364451  1
  Pt  Pt1  1  0.41913572  0.41913572  0.40954874  1
  Pt  Pt2  1  0.42541503  0.85987027  0.85272716  1
  Pt  Pt3  1  0.85987027  0.42541503  0.85272716  1
  Pt  Pt4  1  0.85527381  0.85527381  0.42862463  1
  W  W0  1  0.75184263  0.41714686  0.41377167  1
  W  W1  1  0.41714686  0.75184263  0.41377167  1
loop_
_geom_bond_atom_site_label_1
_geom_bond_atom_site_label_2
_geom_bond_distance
_geom_bond_site_symmetry_2
Hf0 Pt4 2.688160 1_455
Hf0 Pt3 2.698843 1_455
Hf0 W1 2.999184 1_555
Hf0 Pt0 2.999590 1_555
Hf0 Pt1 3.072134 1_555
Hf1 Pt4 2.688160 1_545
Hf1 Pt2 2.698843 1_545
Hf1 W0 2.999184 1_555
Hf1 Pt0 2.999590 1_555
Hf1 Pt1 3.072134 1_555
Hf2 Pt3 2.695768 1_554
Hf2 Pt2 2.695768 1_554
Hf2 W1 3.006821 1_555
Hf2 W0 3.006821 1_555
Hf2 Pt1 3.059604 1_555
Hf3 Pt4 2.716999 1_555
Hf3 Pt2 2.719965 1_555
Hf3 Pt3 2.719965 1_555
Hf3 Pt0 2.897232 1_555
Hf3 W0 2.899101 1_555
Hf3 W1 2.899101 1_555
Hf4 Pt4 2.688999 1_555
Hf4 W0 2.970986 1_555
Hf4 W1 2.970986 1_555
Hf5 Pt2 2.635351 1_545
Hf5 Pt3 2.635351 1_455
Hf5 Pt0 2.933427 1_555
Hf5 Pt1 2.935394 1_555
Hf6 Pt3 2.657946 1_555
Hf6 W0 3.066920 1_555
Hf6 Pt0 3.078278 1_555
Hf7 Pt2 2.646860 1_554
Hf7 Pt4 2.654523 1_455
Hf7 W1 2.918231 1_555
Hf7 Pt1 2.939103 1_555
Hf8 Pt2 2.657947 1_555
Hf8 W1 3.066920 1_555
Hf8 Pt0 3.078278 1_555
Hf9 Pt3 2.646860 1_554
Hf9 Pt4 2.654523 1_545
Hf9 W0 2.918231 1_555
Hf9 Pt1 2.939103 1_555
Hf10 Pt1 2.847432 1_555
Hf10 Pt0 2.926894 1_554
Hf10 Pt2 3.223467 1_554
Hf10 Pt3 3.223467 1_554
Hf11 W0 2.925520 1_455
Hf11 W1 2.925520 1_545
Hf12 W1 2.851072 1_545
Hf12 Pt1 3.033547 1_555
Hf12 Pt2 3.147485 1_545
Hf12 Pt4 3.199442 1_545
Hf13 W0 2.832750 1_455
Hf13 Pt0 2.972027 1_554
Hf14 W0 2.851072 1_455
Hf14 Pt1 3.033547 1_555
Hf14 Pt3 3.147485 1_455
Hf14 Pt4 3.199442 1_455
Hf15 W1 2.832750 1_545
Hf15 Pt0 2.972027 1_554
Co0 Hf6 2.498860 1_565
Co0 Hf8 2.498860 1_655
Co0 Hf4 2.553862 1_556
Co0 Hf0 2.578623 1_655
Co0 Hf1 2.578623 1_565
Co0 Hf2 2.585436 1_556
Pt0 W0 2.951833 1_555
Pt0 W1 2.951833 1_555
Pt0 Pt1 2.985496 1_555
Pt1 W1 2.939797 1_555
Pt1 W0 2.939797 1_555
W0 W1 2.933461 1_555
