# generated using pymatgen
data_SrHgIr2O7
_symmetry_space_group_name_H-M   'P 1'
_cell_length_a   7.31769631
_cell_length_b   7.41718451
_cell_length_c   7.31769676
_cell_angle_alpha   59.54922572
_cell_angle_beta   59.10266029
_cell_angle_gamma   59.54922931
_symmetry_Int_Tables_number   1
_chemical_formula_structural   SrHgIr2O7
_chemical_formula_sum   'Sr2 Hg2 Ir4 O14'
_cell_volume   277.00531731
_cell_formula_units_Z   2
loop_
 _symmetry_equiv_pos_site_id
 _symmetry_equiv_pos_as_xyz
  1  'x, y, z'
loop_
 _atom_site_type_symbol
 _atom_site_label
 _atom_site_symmetry_multiplicity
 _atom_site_fract_x
 _atom_site_fract_y
 _atom_site_fract_z
 _atom_site_occupancy
  Sr  Sr0  1  0.62500000  0.12500000  0.62500000  1
  Sr  Sr1  1  0.62500000  0.62500000  0.62500000  1
  Hg  Hg0  1  0.62500000  0.62500000  0.12500000  1
  Hg  Hg1  1  0.12500000  0.62500000  0.62500000  1
  Ir  Ir0  1  0.62500000  0.12500000  0.12500000  1
  Ir  Ir1  1  0.12500000  0.62500000  0.12500000  1
  Ir  Ir2  1  0.12500000  0.12500000  0.62500000  1
  Ir  Ir3  1  0.12500000  0.12500000  0.12500000  1
  O  O0  1  0.19354849  0.19428927  0.80503958  1
  O  O1  1  0.18915799  0.81084201  0.18915799  1
  O  O2  1  0.44496042  0.05571073  0.05645151  1
  O  O3  1  0.19354849  0.80712266  0.80503958  1
  O  O4  1  0.05645151  0.44287734  0.44496042  1
  O  O5  1  0.80503958  0.80712266  0.19354849  1
  O  O6  1  0.44496042  0.44287734  0.05645151  1
  O  O7  1  0.47353717  0.52646283  0.47353717  1
  O  O8  1  0.05645151  0.05571073  0.44496042  1
  O  O9  1  0.45159852  0.04840148  0.45159852  1
  O  O10  1  0.06084201  0.43915799  0.06084201  1
  O  O11  1  0.77646283  0.72353717  0.77646283  1
  O  O12  1  0.79840148  0.20159852  0.79840148  1
  O  O13  1  0.80503958  0.19428927  0.19354849  1
loop_
_geom_bond_atom_site_label_1
_geom_bond_atom_site_label_2
_geom_bond_distance
_geom_bond_site_symmetry_2
Hg0 O7 2.072702 1_555
Hg0 O11 2.072702 1_554
Hg0 O2 2.642260 1_565
Hg0 O13 2.642260 1_555
Hg0 O5 2.642261 1_555
Hg0 O6 2.642261 1_555
Hg1 O7 2.072702 1_555
Hg1 O11 2.072702 1_455
Hg1 O8 2.642260 1_565
Hg1 O0 2.642260 1_555
Hg1 O3 2.642261 1_555
Hg1 O4 2.642261 1_555
Ir0 O6 1.969212 1_555
Ir0 O5 1.969212 1_545
Ir0 O13 1.969212 1_555
Ir0 O2 1.969212 1_555
Ir0 O9 1.970959 1_555
Ir0 O12 1.970959 1_554
Ir1 O4 1.957862 1_555
Ir1 O3 1.957862 1_554
Ir1 O6 1.957862 1_555
Ir1 O5 1.957862 1_455
Ir1 O1 1.969561 1_555
Ir1 O10 1.969561 1_555
Ir2 O3 1.969212 1_545
Ir2 O4 1.969212 1_555
Ir2 O0 1.969212 1_555
Ir2 O8 1.969212 1_555
Ir2 O9 1.970959 1_555
Ir2 O12 1.970959 1_455
Ir3 O2 1.957862 1_555
Ir3 O13 1.957862 1_455
Ir3 O8 1.957862 1_555
Ir3 O0 1.957862 1_554
Ir3 O10 1.969561 1_555
Ir3 O1 1.969561 1_545
O0 Sr0 2.595711 1_555
O2 Sr0 2.595712 1_554
O3 Sr1 2.595711 1_555
O4 Sr1 2.595711 1_455
O5 Sr1 2.595711 1_555
O6 Sr1 2.595711 1_554
O7 Sr0 2.427936 1_555
O7 Sr1 2.427937 1_555
O8 Sr0 2.595711 1_455
O9 Sr1 2.580315 1_545
O9 Sr0 2.580315 1_555
O11 Sr0 2.427936 1_565
O11 Sr1 2.427937 1_555
O12 Sr1 2.580315 1_555
O12 Sr0 2.580315 1_555
O13 Sr0 2.595712 1_555
