# generated using pymatgen
data_Lu6Al16Os6Ru
_symmetry_space_group_name_H-M   'P 1'
_cell_length_a   8.81655626
_cell_length_b   8.81655599
_cell_length_c   8.81655578
_cell_angle_alpha   60.00000078
_cell_angle_beta   60.00000181
_cell_angle_gamma   60.00000230
_symmetry_Int_Tables_number   1
_chemical_formula_structural   Lu6Al16Os6Ru
_chemical_formula_sum   'Lu6 Al16 Os6 Ru1'
_cell_volume   484.59834975
_cell_formula_units_Z   1
loop_
 _symmetry_equiv_pos_site_id
 _symmetry_equiv_pos_as_xyz
  1  'x, y, z'
loop_
 _atom_site_type_symbol
 _atom_site_label
 _atom_site_symmetry_multiplicity
 _atom_site_fract_x
 _atom_site_fract_y
 _atom_site_fract_z
 _atom_site_occupancy
  Lu  Lu0  1  0.70996507  0.70996507  0.29003493  1
  Lu  Lu1  1  0.29003493  0.70996507  0.29003493  1
  Lu  Lu2  1  0.70996507  0.29003493  0.29003493  1
  Lu  Lu3  1  0.29003493  0.29003493  0.70996507  1
  Lu  Lu4  1  0.70996507  0.29003493  0.70996507  1
  Lu  Lu5  1  0.29003493  0.70996507  0.70996507  1
  Al  Al0  1  0.87901193  0.87901193  0.36296322  1
  Al  Al1  1  0.87901193  0.36296322  0.87901193  1
  Al  Al2  1  0.36296322  0.87901193  0.87901193  1
  Al  Al3  1  0.87901193  0.87901193  0.87901193  1
  Al  Al4  1  0.12098807  0.12098807  0.63703678  1
  Al  Al5  1  0.12098807  0.63703678  0.12098807  1
  Al  Al6  1  0.63703678  0.12098807  0.12098807  1
  Al  Al7  1  0.12098807  0.12098807  0.12098807  1
  Al  Al8  1  0.66825614  0.66825614  0.99523257  1
  Al  Al9  1  0.66825614  0.99523257  0.66825614  1
  Al  Al10  1  0.99523257  0.66825614  0.66825614  1
  Al  Al11  1  0.66825614  0.66825614  0.66825614  1
  Al  Al12  1  0.33174386  0.33174386  0.00476743  1
  Al  Al13  1  0.33174386  0.00476743  0.33174386  1
  Al  Al14  1  0.00476743  0.33174386  0.33174386  1
  Al  Al15  1  0.33174386  0.33174386  0.33174386  1
  Os  Os0  1  0.00000000  0.00000000  0.50000000  1
  Os  Os1  1  0.50000000  0.00000000  0.50000000  1
  Os  Os2  1  0.00000000  0.50000000  0.50000000  1
  Os  Os3  1  0.50000000  0.50000000  0.00000000  1
  Os  Os4  1  0.00000000  0.50000000  0.00000000  1
  Os  Os5  1  0.50000000  0.00000000  0.00000000  1
  Ru  Ru0  1  0.00000000  0.00000000  0.00000000  1
loop_
_geom_bond_atom_site_label_1
_geom_bond_atom_site_label_2
_geom_bond_distance
_geom_bond_site_symmetry_2
Lu0 Os5 3.156839 1_565
Lu0 Os1 3.156839 1_565
Lu0 Os4 3.156839 1_655
Lu0 Os2 3.156839 1_655
Lu1 Os3 3.156839 1_555
Lu1 Os5 3.156839 1_565
Lu1 Os2 3.156839 1_555
Lu1 Os0 3.156839 1_565
Lu2 Os3 3.156839 1_555
Lu2 Os1 3.156839 1_555
Lu2 Os4 3.156839 1_655
Lu2 Os0 3.156839 1_655
Lu3 Os5 3.156839 1_556
Lu3 Os1 3.156839 1_555
Lu3 Os4 3.156839 1_556
Lu3 Os2 3.156839 1_555
Lu4 Os3 3.156839 1_556
Lu4 Os5 3.156839 1_556
Lu4 Os2 3.156839 1_655
Lu4 Os0 3.156839 1_655
Lu5 Os3 3.156839 1_556
Lu5 Os1 3.156839 1_565
Lu5 Os4 3.156839 1_556
Lu5 Os0 3.156839 1_565
Al0 Ru0 2.612859 1_665
Al0 Os2 2.729611 1_655
Al0 Os1 2.729611 1_565
Al0 Os0 2.729618 1_665
Al0 Lu0 2.998998 1_555
Al0 Lu2 2.999006 1_565
Al0 Lu1 2.999006 1_655
Al1 Ru0 2.612859 1_656
Al1 Os2 2.729611 1_655
Al1 Os3 2.729611 1_556
Al1 Os4 2.729618 1_656
Al1 Lu4 2.998998 1_555
Al1 Lu2 2.999006 1_556
Al1 Lu3 2.999006 1_655
Al2 Ru0 2.612859 1_566
Al2 Os1 2.729611 1_565
Al2 Os3 2.729611 1_556
Al2 Os5 2.729618 1_566
Al2 Lu5 2.998998 1_555
Al2 Lu1 2.999006 1_556
Al2 Lu3 2.999006 1_565
Al3 Ru0 2.612866 1_666
Al3 Os0 2.729611 1_665
Al3 Os4 2.729611 1_656
Al3 Os5 2.729611 1_566
Al3 Lu0 2.999005 1_556
Al3 Lu4 2.999005 1_565
Al3 Lu5 2.999005 1_655
Al4 Ru0 2.612859 1_556
Al4 Os2 2.729611 1_555
Al4 Os1 2.729611 1_555
Al4 Os0 2.729618 1_555
Al4 Lu3 2.998998 1_555
Al4 Lu5 2.999006 1_545
Al4 Lu4 2.999006 1_455
Al5 Ru0 2.612859 1_565
Al5 Os2 2.729611 1_555
Al5 Os3 2.729611 1_555
Al5 Os4 2.729618 1_555
Al5 Lu1 2.998998 1_555
Al5 Lu5 2.999006 1_554
Al5 Lu0 2.999006 1_455
Al6 Ru0 2.612859 1_655
Al6 Os1 2.729611 1_555
Al6 Os3 2.729611 1_555
Al6 Os5 2.729618 1_555
Al6 Lu2 2.998998 1_555
Al6 Lu4 2.999006 1_554
Al6 Lu0 2.999006 1_545
Al7 Ru0 2.612866 1_555
Al7 Os0 2.729611 1_555
Al7 Os4 2.729611 1_555
Al7 Os5 2.729611 1_555
Al7 Lu3 2.999005 1_554
Al7 Lu1 2.999005 1_545
Al7 Lu2 2.999005 1_455
Al8 Os5 2.545349 1_566
Al8 Os4 2.545349 1_656
Al8 Os3 2.545357 1_556
Al8 Lu0 3.012104 1_556
Al8 Lu2 3.012109 1_556
Al8 Lu1 3.012110 1_556
Al9 Os5 2.545349 1_566
Al9 Os0 2.545349 1_665
Al9 Os1 2.545357 1_565
Al9 Lu4 3.012104 1_565
Al9 Lu2 3.012109 1_565
Al9 Lu3 3.012110 1_565
Al10 Os4 2.545349 1_656
Al10 Os0 2.545349 1_665
Al10 Os2 2.545357 1_655
Al10 Lu5 3.012104 1_655
Al10 Lu1 3.012109 1_655
Al10 Lu3 3.012110 1_655
Al11 Os3 2.545352 1_556
Al11 Os1 2.545352 1_565
Al11 Os2 2.545352 1_655
Al11 Lu0 3.012113 1_555
Al11 Lu4 3.012113 1_555
Al11 Lu5 3.012113 1_555
Al12 Os5 2.545349 1_555
Al12 Os4 2.545349 1_555
Al12 Os3 2.545357 1_555
Al12 Lu3 3.012104 1_554
Al12 Lu5 3.012109 1_554
Al12 Lu4 3.012110 1_554
Al13 Os5 2.545349 1_555
Al13 Os0 2.545349 1_555
Al13 Os1 2.545357 1_555
Al13 Lu1 3.012104 1_545
Al13 Lu5 3.012109 1_545
Al13 Lu0 3.012110 1_545
Al14 Os4 2.545349 1_555
Al14 Os0 2.545349 1_555
Al14 Os2 2.545357 1_555
Al14 Lu2 3.012104 1_455
Al14 Lu4 3.012109 1_455
Al14 Lu0 3.012110 1_455
Al15 Os3 2.545352 1_555
Al15 Os1 2.545352 1_555
Al15 Os2 2.545352 1_555
Al15 Lu3 3.012113 1_555
Al15 Lu1 3.012113 1_555
Al15 Lu2 3.012113 1_555
