# generated using pymatgen
data_LiMg9B20
_symmetry_space_group_name_H-M   'P 1'
_cell_length_a   6.13970700
_cell_length_b   7.07529439
_cell_length_c   7.66146836
_cell_angle_alpha   96.39405566
_cell_angle_beta   101.40842660
_cell_angle_gamma   115.67982864
_symmetry_Int_Tables_number   1
_chemical_formula_structural   LiMg9B20
_chemical_formula_sum   'Li1 Mg9 B20'
_cell_volume   286.60760574
_cell_formula_units_Z   1
loop_
 _symmetry_equiv_pos_site_id
 _symmetry_equiv_pos_as_xyz
  1  'x, y, z'
loop_
 _atom_site_type_symbol
 _atom_site_label
 _atom_site_symmetry_multiplicity
 _atom_site_fract_x
 _atom_site_fract_y
 _atom_site_fract_z
 _atom_site_occupancy
  Li  Li0  1  0.00000000  0.00000000  0.00000000  1
  Mg  Mg0  1  0.50000000  0.00000000  0.00000000  1
  Mg  Mg1  1  0.50010400  0.80011000  0.39974200  1
  Mg  Mg2  1  0.99976100  0.39702300  0.19826400  1
  Mg  Mg3  1  0.49989600  0.19989000  0.60025800  1
  Mg  Mg4  1  0.99970100  0.80043900  0.39846700  1
  Mg  Mg5  1  0.50369700  0.60293600  0.80179000  1
  Mg  Mg6  1  0.49630300  0.39706400  0.19821000  1
  Mg  Mg7  1  0.00029900  0.19956100  0.60153300  1
  Mg  Mg8  1  0.00023900  0.60297700  0.80173600  1
  B  B0  1  0.33315400  0.23358200  0.86667200  1
  B  B1  1  0.33423100  0.63400400  0.06679100  1
  B  B2  1  0.16520900  0.36544200  0.93197800  1
  B  B3  1  0.33325000  0.03365200  0.26636200  1
  B  B4  1  0.16507500  0.76641800  0.13335400  1
  B  B5  1  0.83492500  0.23358200  0.86664600  1
  B  B6  1  0.16464200  0.16466200  0.33229500  1
  B  B7  1  0.83479100  0.63455800  0.06802200  1
  B  B8  1  0.33432900  0.43372100  0.46737200  1
  B  B9  1  0.66576900  0.36599600  0.93320900  1
  B  B10  1  0.83495800  0.03353000  0.26662000  1
  B  B11  1  0.66684600  0.76641800  0.13332800  1
  B  B12  1  0.33489200  0.83466800  0.66747800  1
  B  B13  1  0.16526700  0.56548200  0.53311900  1
  B  B14  1  0.66510800  0.16533200  0.33252200  1
  B  B15  1  0.83473300  0.43451800  0.46688100  1
  B  B16  1  0.16504200  0.96647000  0.73338000  1
  B  B17  1  0.83535800  0.83533800  0.66770500  1
  B  B18  1  0.66567100  0.56627900  0.53262800  1
  B  B19  1  0.66675000  0.96634800  0.73363800  1
loop_
_geom_bond_atom_site_label_1
_geom_bond_atom_site_label_2
_geom_bond_distance
_geom_bond_site_symmetry_2
B0 B2 1.765741 1_555
B0 B9 1.769639 1_555
B0 B16 1.772699 1_545
B0 Mg6 2.475503 1_556
B0 Mg7 2.486613 1_555
B0 Mg3 2.490150 1_555
B0 Li0 2.496290 1_556
B0 Mg0 2.500682 1_556
B0 Mg5 2.509278 1_555
B1 B11 1.769639 1_555
B1 B4 1.778429 1_555
B1 B2 1.784422 1_554
B1 Mg5 2.487473 1_554
B1 Mg1 2.488504 1_555
B1 Mg0 2.494066 1_565
B1 Mg6 2.497939 1_555
B1 Mg8 2.498035 1_554
B1 Mg2 2.500665 1_455
B2 B5 1.757237 1_455
B2 Mg7 2.471097 1_555
B2 Mg2 2.481730 1_456
B2 Mg6 2.491336 1_556
B2 Li0 2.494408 1_556
B2 Mg8 2.509008 1_555
B2 Mg5 2.510813 1_555
B3 B6 1.766421 1_555
B3 B4 1.772606 1_545
B3 Mg6 2.482148 1_555
B3 Mg0 2.489774 1_555
B3 Mg4 2.490828 1_445
B3 Li0 2.495063 1_555
B3 Mg3 2.495139 1_555
B3 Mg1 2.500621 1_545
B4 B7 1.757237 1_455
B4 Mg8 2.476013 1_554
B4 Mg4 2.476540 1_455
B4 Li0 2.494087 1_565
B4 Mg1 2.501845 1_555
B4 Mg0 2.503103 1_565
B4 Mg2 2.509659 1_455
B5 B9 1.778429 1_555
B5 Mg2 2.476013 1_556
B5 Mg7 2.476540 1_655
B5 Li0 2.494087 1_656
B5 Mg3 2.501845 1_555
B5 Mg0 2.503103 1_556
B5 Mg8 2.509659 1_655
B6 B8 1.787776 1_555
B6 Mg4 2.481076 1_445
B6 Li0 2.482173 1_555
B6 Mg2 2.487821 1_455
B6 Mg6 2.491478 1_555
B6 Mg7 2.501987 1_555
B6 Mg3 2.506669 1_555
B7 B9 1.784422 1_554
B7 Mg4 2.471097 1_555
B7 Mg8 2.481730 1_654
B7 Mg5 2.491336 1_554
B7 Li0 2.494408 1_665
B7 Mg2 2.509008 1_555
B7 Mg6 2.510813 1_555
B8 Mg6 2.494899 1_555
B8 Mg3 2.496056 1_555
B8 Mg1 2.499111 1_555
B8 Mg5 2.502603 1_555
B8 Mg7 2.505149 1_555
B8 Mg2 2.506168 1_455
B9 Mg6 2.487473 1_556
B9 Mg3 2.488504 1_555
B9 Mg0 2.494066 1_556
B9 Mg5 2.497939 1_555
B9 Mg2 2.498035 1_556
B9 Mg8 2.500665 1_655
B10 B6 1.754047 1_655
B10 B11 1.772699 1_545
B10 B14 1.777162 1_555
B10 Mg2 2.483270 1_555
B10 Li0 2.484948 1_655
B10 Mg4 2.485128 1_545
B10 Mg1 2.501289 1_545
B10 Mg7 2.501819 1_655
B10 Mg0 2.503121 1_555
B11 B7 1.765741 1_555
B11 Mg5 2.475503 1_554
B11 Mg4 2.486613 1_555
B11 Mg1 2.490150 1_555
B11 Li0 2.496290 1_665
B11 Mg0 2.500682 1_565
B11 Mg6 2.509278 1_555
B12 B19 1.765622 1_555
B12 B16 1.777162 1_555
B12 B13 1.786556 1_555
B12 Mg0 2.484578 1_566
B12 Mg3 2.490553 1_565
B12 Mg1 2.494534 1_555
B12 Mg5 2.499571 1_555
B12 Mg8 2.501894 1_555
B12 Mg4 2.514085 1_455
B13 B15 1.758586 1_455
B13 B8 1.772330 1_555
B13 Mg7 2.498622 1_555
B13 Mg8 2.503726 1_555
B13 Mg2 2.504560 1_455
B13 Mg1 2.505483 1_555
B13 Mg4 2.508551 1_455
B13 Mg5 2.516754 1_555
B14 B3 1.765622 1_555
B14 B15 1.786556 1_555
B14 Mg0 2.484578 1_555
B14 Mg1 2.490553 1_545
B14 Mg3 2.494534 1_555
B14 Mg6 2.499571 1_555
B14 Mg2 2.501894 1_555
B14 Mg7 2.514085 1_655
B15 B18 1.772330 1_555
B15 Mg4 2.498622 1_555
B15 Mg2 2.503726 1_555
B15 Mg8 2.504560 1_655
B15 Mg3 2.505483 1_555
B15 Mg7 2.508551 1_655
B15 Mg6 2.516754 1_555
B16 B17 1.754047 1_455
B16 Mg8 2.483270 1_555
B16 Li0 2.484948 1_566
B16 Mg7 2.485128 1_565
B16 Mg3 2.501289 1_565
B16 Mg4 2.501819 1_455
B16 Mg0 2.503121 1_566
B17 B19 1.766421 1_555
B17 B18 1.787776 1_555
B17 Mg7 2.481076 1_665
B17 Li0 2.482173 1_666
B17 Mg8 2.487821 1_655
B17 Mg5 2.491478 1_555
B17 Mg4 2.501987 1_555
B17 Mg1 2.506669 1_555
B18 B8 1.762873 1_555
B18 Mg5 2.494899 1_555
B18 Mg1 2.496056 1_555
B18 Mg3 2.499111 1_555
B18 Mg6 2.502603 1_555
B18 Mg4 2.505149 1_555
B18 Mg8 2.506168 1_655
B19 B5 1.772606 1_565
B19 Mg5 2.482148 1_555
B19 Mg0 2.489774 1_566
B19 Mg7 2.490828 1_665
B19 Li0 2.495063 1_666
B19 Mg1 2.495139 1_555
B19 Mg3 2.500621 1_565
