# generated using pymatgen
data_HfBe4Os
_symmetry_space_group_name_H-M   'P 1'
_cell_length_a   4.51840191
_cell_length_b   4.51840163
_cell_length_c   4.51840324
_cell_angle_alpha   59.99999544
_cell_angle_beta   59.99999750
_cell_angle_gamma   60.00000045
_symmetry_Int_Tables_number   1
_chemical_formula_structural   HfBe4Os
_chemical_formula_sum   'Hf1 Be4 Os1'
_cell_volume   65.22884025
_cell_formula_units_Z   1
loop_
 _symmetry_equiv_pos_site_id
 _symmetry_equiv_pos_as_xyz
  1  'x, y, z'
loop_
 _atom_site_type_symbol
 _atom_site_label
 _atom_site_symmetry_multiplicity
 _atom_site_fract_x
 _atom_site_fract_y
 _atom_site_fract_z
 _atom_site_occupancy
  Hf  Hf0  1  0.50000000  0.50000000  0.50000000  1
  Be  Be0  1  0.12402549  0.12402549  0.12402549  1
  Be  Be1  1  0.62792552  0.12402549  0.12402549  1
  Be  Be2  1  0.12402549  0.62792552  0.12402549  1
  Be  Be3  1  0.12402549  0.12402549  0.62792552  1
  Os  Os0  1  0.74999900  0.74999900  0.74999900  1
loop_
_geom_bond_atom_site_label_1
_geom_bond_atom_site_label_2
_geom_bond_distance
_geom_bond_site_symmetry_2
Hf0 Os0 2.766934 1_555
Hf0 Os0 2.766948 1_545
Hf0 Os0 2.766948 1_455
Hf0 Os0 2.766949 1_554
Be0 Be2 2.241579 1_545
Be0 Be1 2.241579 1_455
Be0 Be3 2.241580 1_554
Be0 Be2 2.276823 1_555
Be0 Be1 2.276823 1_555
Be0 Be3 2.276824 1_555
Be0 Os0 2.647294 1_454
Be0 Os0 2.647294 1_445
Be0 Os0 2.647294 1_544
Be0 Hf0 2.651047 1_545
Be0 Hf0 2.651047 1_554
Be0 Hf0 2.651047 1_455
Be1 Be2 2.241579 1_645
Be1 Be3 2.241579 1_654
Be1 Be2 2.276823 1_555
Be1 Be3 2.276823 1_555
Be1 Os0 2.647282 1_554
Be1 Os0 2.647283 1_545
Be1 Os0 2.647306 1_544
Be1 Hf0 2.651043 1_555
Be1 Hf0 2.651050 1_545
Be1 Hf0 2.651051 1_554
Be2 Be3 2.241579 1_564
Be2 Be3 2.276823 1_555
Be2 Os0 2.647282 1_554
Be2 Os0 2.647283 1_455
Be2 Os0 2.647306 1_454
Be2 Hf0 2.651043 1_555
Be2 Hf0 2.651051 1_455
Be2 Hf0 2.651051 1_554
Be3 Os0 2.647282 1_455
Be3 Os0 2.647282 1_545
Be3 Os0 2.647305 1_445
Be3 Hf0 2.651043 1_555
Be3 Hf0 2.651051 1_545
Be3 Hf0 2.651051 1_455
