# generated using pymatgen
data_SrCrTcP2
_symmetry_space_group_name_H-M   'P 1'
_cell_length_a   6.55386770
_cell_length_b   6.55386721
_cell_length_c   6.55386726
_cell_angle_alpha   144.49411111
_cell_angle_beta   144.49409915
_cell_angle_gamma   51.08906692
_symmetry_Int_Tables_number   1
_chemical_formula_structural   SrCrTcP2
_chemical_formula_sum   'Sr1 Cr1 Tc1 P2'
_cell_volume   94.45669271
_cell_formula_units_Z   1
loop_
 _symmetry_equiv_pos_site_id
 _symmetry_equiv_pos_as_xyz
  1  'x, y, z'
loop_
 _atom_site_type_symbol
 _atom_site_label
 _atom_site_symmetry_multiplicity
 _atom_site_fract_x
 _atom_site_fract_y
 _atom_site_fract_z
 _atom_site_occupancy
  Sr  Sr0  1  0.00000000  0.00000000  0.00000000  1
  Cr  Cr0  1  0.25000000  0.75000000  0.50000000  1
  Tc  Tc0  1  0.75000000  0.25000000  0.50000000  1
  P  P0  1  0.64500855  0.64500855  1.00000000  1
  P  P1  1  0.35499145  0.35499145  0.00000000  1
loop_
_geom_bond_atom_site_label_1
_geom_bond_atom_site_label_2
_geom_bond_distance
_geom_bond_site_symmetry_2
Cr0 P1 2.352702 1_566
Cr0 P1 2.352702 1_555
Cr0 P0 2.352703 1_555
Cr0 P0 2.352703 1_454
P0 Tc0 2.352702 1_566
P0 Tc0 2.352702 1_555
P0 Sr0 3.305738 1_656
P0 Sr0 3.305738 1_667
P0 Sr0 3.305739 1_555
P0 Sr0 3.305739 1_566
P1 Tc0 2.352703 1_555
P1 Tc0 2.352703 1_454
P1 Sr0 3.305738 1_565
P1 Sr0 3.305738 1_554
P1 Sr0 3.305739 1_666
P1 Sr0 3.305739 1_655
