# generated using pymatgen
data_AlFe(TcO4)6
_symmetry_space_group_name_H-M   'P 1'
_cell_length_a   10.22449047
_cell_length_b   10.22449035
_cell_length_c   10.22448965
_cell_angle_alpha   48.50544484
_cell_angle_beta   48.50544752
_cell_angle_gamma   48.50544025
_symmetry_Int_Tables_number   1
_chemical_formula_structural   AlFe(TcO4)6
_chemical_formula_sum   'Al1 Fe1 Tc6 O24'
_cell_volume   549.99211893
_cell_formula_units_Z   1
loop_
 _symmetry_equiv_pos_site_id
 _symmetry_equiv_pos_as_xyz
  1  'x, y, z'
loop_
 _atom_site_type_symbol
 _atom_site_label
 _atom_site_symmetry_multiplicity
 _atom_site_fract_x
 _atom_site_fract_y
 _atom_site_fract_z
 _atom_site_occupancy
  Al  Al0  1  0.00000000  0.00000000  0.00000000  1
  Fe  Fe0  1  0.50000000  0.50000000  0.50000000  1
  Tc  Tc0  1  0.60059060  0.90512052  0.24662458  1
  Tc  Tc1  1  0.24662458  0.60059060  0.90512052  1
  Tc  Tc2  1  0.90512052  0.24662458  0.60059060  1
  Tc  Tc3  1  0.75337542  0.39940940  0.09487948  1
  Tc  Tc4  1  0.09487948  0.75337542  0.39940940  1
  Tc  Tc5  1  0.39940940  0.09487948  0.75337542  1
  O  O0  1  0.82076467  0.89203589  0.16630825  1
  O  O1  1  0.16630825  0.82076467  0.89203589  1
  O  O2  1  0.89203589  0.16630825  0.82076467  1
  O  O3  1  0.67518613  0.37832635  0.31831772  1
  O  O4  1  0.31831772  0.67518613  0.37832635  1
  O  O5  1  0.37832635  0.31831772  0.67518613  1
  O  O6  1  0.17923533  0.10796411  0.83369175  1
  O  O7  1  0.83369175  0.17923533  0.10796411  1
  O  O8  1  0.10796411  0.83369175  0.17923533  1
  O  O9  1  0.32481387  0.62167365  0.68168228  1
  O  O10  1  0.68168228  0.32481387  0.62167365  1
  O  O11  1  0.62167365  0.68168228  0.32481387  1
  O  O12  1  0.44101249  0.97654686  0.42619905  1
  O  O13  1  0.42619905  0.44101249  0.97654686  1
  O  O14  1  0.97654686  0.42619905  0.44101249  1
  O  O15  1  0.93027910  0.47413329  0.93791512  1
  O  O16  1  0.93791512  0.93027910  0.47413329  1
  O  O17  1  0.47413329  0.93791512  0.93027910  1
  O  O18  1  0.55898751  0.02345314  0.57380095  1
  O  O19  1  0.57380095  0.55898751  0.02345314  1
  O  O20  1  0.02345314  0.57380095  0.55898751  1
  O  O21  1  0.06972090  0.52586671  0.06208488  1
  O  O22  1  0.06208488  0.06972090  0.52586671  1
  O  O23  1  0.52586671  0.06208488  0.06972090  1
loop_
_geom_bond_atom_site_label_1
_geom_bond_atom_site_label_2
_geom_bond_distance
_geom_bond_site_symmetry_2
Al0 O8 1.879484 1_545
Al0 O2 1.879484 1_454
Al0 O1 1.879484 1_544
Al0 O7 1.879484 1_455
Al0 O6 1.879484 1_554
Al0 O0 1.879484 1_445
Fe0 O10 1.976661 1_555
Fe0 O4 1.976661 1_555
Fe0 O9 1.976661 1_555
Fe0 O3 1.976661 1_555
Fe0 O11 1.976661 1_555
Fe0 O5 1.976661 1_555
O0 Tc0 1.748393 1_555
O1 Tc1 1.748393 1_555
O2 Tc2 1.748393 1_555
O3 Tc3 1.749397 1_555
O4 Tc4 1.749398 1_555
O5 Tc5 1.749398 1_555
O6 Tc5 1.748393 1_555
O7 Tc3 1.748393 1_555
O8 Tc4 1.748393 1_555
O9 Tc1 1.749397 1_555
O10 Tc2 1.749398 1_555
O11 Tc0 1.749398 1_555
O12 Tc0 1.671767 1_555
O13 Tc1 1.671767 1_555
O14 Tc2 1.671767 1_555
O15 Tc3 1.670569 1_556
O16 Tc4 1.670569 1_655
O17 Tc5 1.670569 1_565
O18 Tc5 1.671767 1_555
O19 Tc3 1.671767 1_555
O20 Tc4 1.671767 1_555
O21 Tc1 1.670569 1_554
O22 Tc2 1.670569 1_455
O23 Tc0 1.670569 1_545
