# generated using pymatgen
data_Rb4AlAu8
_symmetry_space_group_name_H-M   'P 1'
_cell_length_a   5.79436577
_cell_length_b   11.02364751
_cell_length_c   11.19213738
_cell_angle_alpha   97.44307408
_cell_angle_beta   90.00000003
_cell_angle_gamma   105.23717344
_symmetry_Int_Tables_number   1
_chemical_formula_structural   Rb4AlAu8
_chemical_formula_sum   'Rb8 Al2 Au16'
_cell_volume   683.52175000
_cell_formula_units_Z   2
loop_
 _symmetry_equiv_pos_site_id
 _symmetry_equiv_pos_as_xyz
  1  'x, y, z'
loop_
 _atom_site_type_symbol
 _atom_site_label
 _atom_site_symmetry_multiplicity
 _atom_site_fract_x
 _atom_site_fract_y
 _atom_site_fract_z
 _atom_site_occupancy
  Rb  Rb0  1  0.28270725  0.56541350  0.10093539  1
  Rb  Rb1  1  0.48401292  0.96802583  0.16653657  1
  Rb  Rb2  1  0.04471793  0.08943487  0.34217212  1
  Rb  Rb3  1  0.22412943  0.44825987  0.41023164  1
  Rb  Rb4  1  0.77587057  0.55174113  0.58976836  1
  Rb  Rb5  1  0.95528207  0.91056413  0.65782788  1
  Rb  Rb6  1  0.51598708  0.03197417  0.83346243  1
  Rb  Rb7  1  0.71729275  0.43458650  0.89906561  1
  Al  Al0  1  0.67090466  0.34180931  0.23669711  1
  Al  Al1  1  0.32909534  0.65818969  0.76330289  1
  Au  Au0  1  0.00000000  0.00000000  0.00000000  1
  Au  Au1  1  0.35267917  0.23649417  0.08129098  1
  Au  Au2  1  0.88381401  0.23649417  0.08129098  1
  Au  Au3  1  0.89643281  0.79286462  0.14652865  1
  Au  Au4  1  0.78728984  0.57457868  0.26801581  1
  Au  Au5  1  0.14486979  0.78872687  0.36796629  1
  Au  Au6  1  0.64385708  0.78872687  0.36796629  1
  Au  Au7  1  0.62285068  0.24570135  0.42468903  1
  Au  Au8  1  0.50000000  0.00000000  0.50000000  1
  Au  Au9  1  0.37714932  0.75429865  0.57531197  1
  Au  Au10  1  0.35614092  0.21127313  0.63203371  1
  Au  Au11  1  0.85513121  0.21127313  0.63203371  1
  Au  Au12  1  0.21271016  0.42542132  0.73198319  1
  Au  Au13  1  0.10356719  0.20713538  0.85347135  1
  Au  Au14  1  0.11618499  0.76350583  0.91870902  1
  Au  Au15  1  0.64732083  0.76350583  0.91870902  1
loop_
_geom_bond_atom_site_label_1
_geom_bond_atom_site_label_2
_geom_bond_distance
_geom_bond_site_symmetry_2
Al0 Au4 2.453415 1_555
Al0 Au7 2.459554 1_555
Al0 Au2 2.474814 1_555
Al0 Au1 2.474817 1_555
Al0 Rb3 3.585710 1_655
Al0 Rb3 3.585715 1_555
Al1 Au12 2.453405 1_555
Al1 Au9 2.459549 1_555
Al1 Au15 2.474819 1_555
Al1 Au14 2.474823 1_555
Al1 Rb4 3.585705 1_555
Al1 Rb4 3.585710 1_455
Au0 Au14 2.895790 1_544
Au0 Au1 2.895791 1_555
Au0 Au15 2.895791 1_444
Au0 Au2 2.895793 1_455
Au0 Au13 2.917774 1_554
Au0 Au3 2.917774 1_445
Au0 Rb1 3.486210 1_545
Au0 Rb1 3.486210 1_445
Au0 Rb6 3.486216 1_454
Au0 Rb6 3.486216 1_554
Au0 Rb2 3.820050 1_555
Au0 Rb5 3.820051 1_444
Au1 Au13 2.868859 1_554
Au1 Rb7 3.481443 1_554
Au1 Rb1 3.487604 1_545
Au1 Rb6 3.629495 1_554
Au1 Rb0 3.731755 1_555
Au1 Rb2 3.747454 1_555
Au2 Rb7 3.481443 1_554
Au2 Rb1 3.487601 1_545
Au2 Rb6 3.629493 1_554
Au2 Rb0 3.731759 1_655
Au2 Rb2 3.747459 1_655
Au3 Au4 2.843736 1_555
Au3 Au5 2.877571 1_655
Au3 Au6 2.877574 1_555
Au3 Rb1 3.435502 1_655
Au3 Rb1 3.435507 1_555
Au3 Rb2 3.590257 1_665
Au3 Rb0 3.764983 1_655
Au3 Rb0 3.764983 1_555
Au4 Au5 2.803940 1_655
Au4 Au6 2.803943 1_555
Au4 Rb0 3.442539 1_655
Au4 Rb0 3.442539 1_555
Au4 Rb4 3.641675 1_555
Au4 Rb3 3.647806 1_655
Au4 Rb3 3.647815 1_555
Au5 Au9 2.799567 1_555
Au5 Au6 2.891315 1_555
Au5 Au6 2.903051 1_455
Au5 Au8 2.903713 1_565
Au5 Rb1 3.458852 1_555
Au5 Rb2 3.559179 1_565
Au5 Rb5 3.630701 1_455
Au5 Rb0 3.841528 1_555
Au5 Rb3 3.985863 1_555
Au5 Rb4 4.037712 1_455
Au6 Au9 2.799567 1_555
Au6 Au8 2.903713 1_565
Au6 Rb1 3.458852 1_555
Au6 Rb2 3.559181 1_665
Au6 Rb5 3.630701 1_555
Au6 Rb0 3.841526 1_555
Au6 Rb3 3.985865 1_555
Au6 Rb4 4.037712 1_555
Au7 Au8 2.851550 1_555
Au7 Rb2 3.405419 1_555
Au7 Rb2 3.405424 1_655
Au7 Rb4 3.520542 1_555
Au7 Rb3 3.626988 1_655
Au7 Rb3 3.626993 1_555
Au7 Rb1 3.844360 1_545
Au8 Au9 2.851555 1_545
Au8 Rb2 3.587476 1_555
Au8 Rb2 3.587481 1_655
Au8 Rb5 3.587482 1_545
Au8 Rb5 3.587482 1_445
Au8 Rb6 3.701869 1_555
Au8 Rb1 3.701880 1_545
Au9 Rb5 3.405414 1_455
Au9 Rb5 3.405414 1_555
Au9 Rb3 3.520537 1_555
Au9 Rb4 3.626983 1_555
Au9 Rb4 3.626983 1_455
Au9 Rb6 3.844346 1_565
Au10 Au7 2.799564 1_555
Au10 Au12 2.803933 1_555
Au10 Au13 2.877568 1_555
Au10 Au11 2.891332 1_555
Au10 Au11 2.903034 1_455
Au10 Au8 2.903719 1_555
Au10 Rb6 3.458848 1_555
Au10 Rb5 3.559185 1_445
Au10 Rb2 3.630698 1_555
Au10 Rb7 3.841538 1_555
Au10 Rb4 3.985878 1_555
Au10 Rb3 4.037716 1_555
Au11 Au7 2.799561 1_555
Au11 Au12 2.803933 1_655
Au11 Au13 2.877568 1_655
Au11 Au8 2.903716 1_555
Au11 Rb6 3.458846 1_555
Au11 Rb5 3.559187 1_545
Au11 Rb2 3.630702 1_655
Au11 Rb7 3.841538 1_555
Au11 Rb4 3.985876 1_555
Au11 Rb3 4.037716 1_655
Au12 Au13 2.843743 1_555
Au12 Rb7 3.442551 1_455
Au12 Rb7 3.442551 1_555
Au12 Rb3 3.641666 1_555
Au12 Rb4 3.647807 1_455
Au12 Rb4 3.647812 1_555
Au13 Au2 2.868859 1_456
Au13 Rb6 3.435502 1_455
Au13 Rb6 3.435507 1_555
Au13 Rb5 3.590265 1_445
Au13 Rb7 3.764983 1_455
Au13 Rb7 3.764983 1_555
Au14 Au3 2.868856 1_456
Au14 Rb0 3.481453 1_556
Au14 Rb6 3.487608 1_565
Au14 Rb1 3.629488 1_556
Au14 Rb7 3.731758 1_455
Au14 Rb5 3.747450 1_455
Au15 Au3 2.868859 1_556
Au15 Rb0 3.481451 1_556
Au15 Rb6 3.487608 1_565
Au15 Rb1 3.629487 1_556
Au15 Rb7 3.731755 1_555
Au15 Rb5 3.747450 1_555
