# generated using pymatgen
data_Zn3(PS4)2
_symmetry_space_group_name_H-M   'P 1'
_cell_length_a   7.90561600
_cell_length_b   7.90561600
_cell_length_c   9.20190500
_cell_angle_alpha   90.00000000
_cell_angle_beta   90.00000000
_cell_angle_gamma   90.00000000
_symmetry_Int_Tables_number   1
_chemical_formula_structural   Zn3(PS4)2
_chemical_formula_sum   'Zn6 P4 S16'
_cell_volume   575.10769207
_cell_formula_units_Z   2
loop_
 _symmetry_equiv_pos_site_id
 _symmetry_equiv_pos_as_xyz
  1  'x, y, z'
loop_
 _atom_site_type_symbol
 _atom_site_label
 _atom_site_symmetry_multiplicity
 _atom_site_fract_x
 _atom_site_fract_y
 _atom_site_fract_z
 _atom_site_occupancy
  Zn  Zn0  1  0.50000000  0.00000000  0.48187600  1
  Zn  Zn1  1  0.00000000  0.50000000  0.51812400  1
  Zn  Zn2  1  0.50000000  0.00000000  0.01812400  1
  Zn  Zn3  1  0.00000000  0.50000000  0.98187600  1
  Zn  Zn4  1  0.50000000  0.50000000  0.00000000  1
  Zn  Zn5  1  0.00000000  0.00000000  0.50000000  1
  P  P0  1  0.74343200  0.24343200  0.25000000  1
  P  P1  1  0.24343200  0.25656800  0.75000000  1
  P  P2  1  0.75656800  0.74343200  0.75000000  1
  P  P3  1  0.25656800  0.75656800  0.25000000  1
  S  S0  1  0.24775400  0.52311700  0.13838200  1
  S  S1  1  0.52311700  0.75224600  0.86161800  1
  S  S2  1  0.97688300  0.25224600  0.36161800  1
  S  S3  1  0.02311700  0.74775400  0.36161800  1
  S  S4  1  0.74775400  0.97688300  0.63838200  1
  S  S5  1  0.25224600  0.02311700  0.63838200  1
  S  S6  1  0.76430500  0.03346800  0.12541900  1
  S  S7  1  0.03346800  0.23569500  0.87458100  1
  S  S8  1  0.96653200  0.76430500  0.87458100  1
  S  S9  1  0.23569500  0.96653200  0.12541900  1
  S  S10  1  0.53346800  0.26430500  0.37458100  1
  S  S11  1  0.46653200  0.73569500  0.37458100  1
  S  S12  1  0.73569500  0.53346800  0.62541900  1
  S  S13  1  0.26430500  0.46653200  0.62541900  1
  S  S14  1  0.75224600  0.47688300  0.13838200  1
  S  S15  1  0.47688300  0.24775400  0.86161800  1
loop_
_geom_bond_atom_site_label_1
_geom_bond_atom_site_label_2
_geom_bond_distance
_geom_bond_site_symmetry_2
P0 S10 2.024024 1_555
P0 S6 2.024024 1_555
P0 S2 2.113275 1_555
P0 S14 2.113275 1_555
P1 S13 2.024024 1_555
P1 S7 2.024024 1_555
P1 S15 2.113275 1_555
P1 S5 2.113275 1_555
P2 S8 2.024024 1_555
P2 S12 2.024024 1_555
P2 S1 2.113275 1_555
P2 S4 2.113275 1_555
P3 S9 2.024024 1_555
P3 S11 2.024024 1_555
P3 S3 2.113275 1_555
P3 S0 2.113275 1_555
S0 Zn4 2.373092 1_555
S0 Zn3 2.437979 1_554
S1 Zn4 2.373092 1_556
S1 Zn2 2.437979 1_566
S2 Zn5 2.373092 1_655
S2 Zn1 2.437979 1_655
S3 Zn5 2.373092 1_565
S3 Zn1 2.437979 1_555
S4 Zn5 2.373092 1_665
S4 Zn0 2.437979 1_565
S5 Zn5 2.373092 1_555
S5 Zn0 2.437979 1_555
S6 Zn2 2.326110 1_555
S7 Zn3 2.326110 1_555
S8 Zn3 2.326110 1_655
S9 Zn2 2.326110 1_565
S10 Zn0 2.326110 1_555
S11 Zn0 2.326110 1_565
S12 Zn1 2.326110 1_655
S13 Zn1 2.326110 1_555
S14 Zn4 2.373092 1_555
S14 Zn3 2.437979 1_654
S15 Zn4 2.373092 1_556
S15 Zn2 2.437979 1_556
