# generated using pymatgen
data_Li2Sb2PtRh2
_symmetry_space_group_name_H-M   'P 1'
_cell_length_a   7.44480948
_cell_length_b   7.44480959
_cell_length_c   7.44480933
_cell_angle_alpha   33.86153776
_cell_angle_beta   33.86153443
_cell_angle_gamma   33.86153874
_symmetry_Int_Tables_number   1
_chemical_formula_structural   Li2Sb2PtRh2
_chemical_formula_sum   'Li2 Sb2 Pt1 Rh2'
_cell_volume   114.16291598
_cell_formula_units_Z   1
loop_
 _symmetry_equiv_pos_site_id
 _symmetry_equiv_pos_as_xyz
  1  'x, y, z'
loop_
 _atom_site_type_symbol
 _atom_site_label
 _atom_site_symmetry_multiplicity
 _atom_site_fract_x
 _atom_site_fract_y
 _atom_site_fract_z
 _atom_site_occupancy
  Li  Li0  1  0.24123228  0.24123228  0.24123228  1
  Li  Li1  1  0.75547632  0.75547632  0.75547632  1
  Sb  Sb0  1  0.00689987  0.00689987  0.00689987  1
  Sb  Sb1  1  0.49607555  0.49607555  0.49607555  1
  Pt  Pt0  1  0.87934493  0.87934493  0.87934493  1
  Rh  Rh0  1  0.37012540  0.37012540  0.37012540  1
  Rh  Rh1  1  0.62584466  0.62584466  0.62584466  1
loop_
_geom_bond_atom_site_label_1
_geom_bond_atom_site_label_2
_geom_bond_distance
_geom_bond_site_symmetry_2
Li0 Pt0 2.574482 1_445
Li0 Pt0 2.574482 1_544
Li0 Pt0 2.574483 1_454
Li0 Rh0 2.711115 1_555
Li0 Rh1 2.725914 1_554
Li0 Rh1 2.725914 1_455
Li0 Rh1 2.725914 1_545
Li0 Sb1 2.998810 1_554
Li0 Sb1 2.998810 1_455
Li0 Sb1 2.998810 1_545
Li1 Pt0 2.605430 1_555
Li1 Rh1 2.726649 1_555
Li1 Rh0 2.732097 1_556
Li1 Rh0 2.732097 1_655
Li1 Rh0 2.732098 1_565
Li1 Sb1 2.947122 1_556
Li1 Sb1 2.947122 1_655
Li1 Sb1 2.947122 1_565
Li1 Sb0 3.039003 1_665
Li1 Sb0 3.039003 1_566
Li1 Sb0 3.039003 1_656
Pt0 Sb0 2.682967 1_666
Pt0 Sb1 2.714860 1_556
Pt0 Sb1 2.714860 1_655
Pt0 Sb1 2.714860 1_565
Rh0 Sb0 2.581194 1_556
Rh0 Sb0 2.581194 1_655
Rh0 Sb0 2.581194 1_565
Rh0 Sb1 2.649213 1_555
Rh1 Sb0 2.697184 1_665
Rh1 Sb0 2.697184 1_566
Rh1 Sb0 2.697184 1_656
Rh1 Sb1 2.729540 1_555
