# generated using pymatgen
data_HfScS3
_symmetry_space_group_name_H-M   'P 1'
_cell_length_a   11.97521236
_cell_length_b   11.41588639
_cell_length_c   6.33688145
_cell_angle_alpha   79.21529882
_cell_angle_beta   69.46452841
_cell_angle_gamma   31.32017621
_symmetry_Int_Tables_number   1
_chemical_formula_structural   HfScS3
_chemical_formula_sum   'Hf4 Sc4 S12'
_cell_volume   410.27815863
_cell_formula_units_Z   4
loop_
 _symmetry_equiv_pos_site_id
 _symmetry_equiv_pos_as_xyz
  1  'x, y, z'
loop_
 _atom_site_type_symbol
 _atom_site_label
 _atom_site_symmetry_multiplicity
 _atom_site_fract_x
 _atom_site_fract_y
 _atom_site_fract_z
 _atom_site_occupancy
  Hf  Hf0  1  0.16533686  0.16533686  0.33466314  1
  Hf  Hf1  1  0.33466314  0.33466314  0.16533686  1
  Hf  Hf2  1  0.08466314  0.08466314  0.91533686  1
  Hf  Hf3  1  0.91533686  0.91533686  0.08466314  1
  Sc  Sc0  1  0.50151904  0.50151904  0.99848096  1
  Sc  Sc1  1  0.99848096  0.99848096  0.50151904  1
  Sc  Sc2  1  0.74848096  0.74848096  0.25151904  1
  Sc  Sc3  1  0.25151904  0.25151904  0.74848096  1
  S  S0  1  0.49349196  0.00650804  0.00650804  1
  S  S1  1  0.00650804  0.49349196  0.49349196  1
  S  S2  1  0.75650804  0.24349196  0.24349196  1
  S  S3  1  0.24349196  0.75650804  0.75650804  1
  S  S4  1  0.58542085  0.08219148  0.41256126  1
  S  S5  1  0.91982542  0.41256126  0.08219148  1
  S  S6  1  0.41256126  0.91982542  0.58542085  1
  S  S7  1  0.08219148  0.58542085  0.91982542  1
  S  S8  1  0.66457915  0.16780852  0.83743874  1
  S  S9  1  0.33017458  0.83743874  0.16780852  1
  S  S10  1  0.83743874  0.33017458  0.66457915  1
  S  S11  1  0.16780852  0.66457915  0.33017458  1
loop_
_geom_bond_atom_site_label_1
_geom_bond_atom_site_label_2
_geom_bond_distance
_geom_bond_site_symmetry_2
Hf0 S9 2.533524 1_545
Hf0 S10 2.533526 1_455
Hf0 S0 2.560980 1_555
Hf0 S1 2.560981 1_555
Hf0 S6 2.569440 1_545
Hf0 S5 2.569446 1_455
Hf1 S8 2.533531 1_554
Hf1 S11 2.533534 1_555
Hf1 S1 2.560980 1_555
Hf1 S0 2.560981 1_555
Hf1 S4 2.569441 1_555
Hf1 S7 2.569446 1_554
Hf2 S5 2.533524 1_456
Hf2 S6 2.533526 1_545
Hf2 S2 2.560980 1_456
Hf2 S3 2.560981 1_545
Hf2 S10 2.569440 1_455
Hf2 S9 2.569446 1_546
Hf3 S4 2.533531 1_565
Hf3 S7 2.533534 1_654
Hf3 S3 2.560980 1_654
Hf3 S2 2.560981 1_565
Hf3 S8 2.569441 1_564
Hf3 S11 2.569446 1_655
S0 Sc2 2.580366 1_545
S0 Sc3 2.580366 1_554
S1 Sc2 2.580366 1_455
S1 Sc3 2.580366 1_555
S2 Sc0 2.580366 1_554
S2 Sc1 2.580366 1_545
S3 Sc0 2.580366 1_555
S3 Sc1 2.580366 1_455
S4 Sc3 2.572688 1_555
S4 Sc2 2.591244 1_545
S5 Sc2 2.572696 1_555
S5 Sc3 2.591251 1_654
S6 Sc2 2.572693 1_555
S6 Sc3 2.591254 1_565
S7 Sc3 2.572686 1_555
S7 Sc2 2.591246 1_456
S8 Sc1 2.572688 1_545
S8 Sc0 2.591244 1_555
S9 Sc0 2.572696 1_554
S9 Sc1 2.591251 1_455
S10 Sc0 2.572693 1_555
S10 Sc1 2.591254 1_545
S11 Sc1 2.572686 1_455
S11 Sc0 2.591246 1_554
