# generated using pymatgen
data_Zr10NiBSb6
_symmetry_space_group_name_H-M   'P 1'
_cell_length_a   8.52166326
_cell_length_b   8.52166318
_cell_length_c   5.83554958
_cell_angle_alpha   90.00000000
_cell_angle_beta   90.00000000
_cell_angle_gamma   119.99999645
_symmetry_Int_Tables_number   1
_chemical_formula_structural   Zr10NiBSb6
_chemical_formula_sum   'Zr10 Ni1 B1 Sb6'
_cell_volume   366.99584234
_cell_formula_units_Z   1
loop_
 _symmetry_equiv_pos_site_id
 _symmetry_equiv_pos_as_xyz
  1  'x, y, z'
loop_
 _atom_site_type_symbol
 _atom_site_label
 _atom_site_symmetry_multiplicity
 _atom_site_fract_x
 _atom_site_fract_y
 _atom_site_fract_z
 _atom_site_occupancy
  Zr  Zr0  1  0.75634774  0.75634774  0.76555480  1
  Zr  Zr1  1  0.24365226  0.00000000  0.76555480  1
  Zr  Zr2  1  0.00000000  0.24365226  0.76555480  1
  Zr  Zr3  1  0.24365226  0.24365226  0.23444520  1
  Zr  Zr4  1  0.75634774  1.00000000  0.23444520  1
  Zr  Zr5  1  1.00000000  0.75634774  0.23444520  1
  Zr  Zr6  1  0.66666700  0.33333300  0.00000000  1
  Zr  Zr7  1  0.33333300  0.66666700  0.00000000  1
  Zr  Zr8  1  0.33333300  0.66666700  0.50000000  1
  Zr  Zr9  1  0.66666700  0.33333300  0.50000000  1
  Ni  Ni0  1  0.00000000  0.00000000  0.50000000  1
  B  B0  1  0.00000000  0.00000000  0.00000000  1
  Sb  Sb0  1  0.39369830  0.39369830  0.74443702  1
  Sb  Sb1  1  0.60630170  1.00000000  0.74443702  1
  Sb  Sb2  1  1.00000000  0.60630170  0.74443702  1
  Sb  Sb3  1  0.60630170  0.60630170  0.25556298  1
  Sb  Sb4  1  0.39369830  0.00000000  0.25556298  1
  Sb  Sb5  1  0.00000000  0.39369830  0.25556298  1
loop_
_geom_bond_atom_site_label_1
_geom_bond_atom_site_label_2
_geom_bond_distance
_geom_bond_site_symmetry_2
Ni0 Zr2 2.590860 1_555
Ni0 Zr5 2.590860 1_445
Ni0 Zr1 2.590860 1_555
Ni0 Zr4 2.590860 1_445
Ni0 Zr3 2.590860 1_555
Ni0 Zr0 2.590860 1_445
B0 Zr2 2.486535 1_554
B0 Zr5 2.486535 1_445
B0 Zr1 2.486535 1_554
B0 Zr4 2.486535 1_445
B0 Zr3 2.486535 1_555
B0 Zr0 2.486535 1_444
Sb0 Zr1 2.935319 1_555
Sb0 Zr2 2.935319 1_555
Sb0 Zr8 2.984438 1_555
Sb0 Zr9 2.984438 1_555
Sb0 Zr7 3.016009 1_556
Sb0 Zr6 3.016009 1_556
Sb0 Zr0 3.092833 1_555
Sb0 Zr3 3.132328 1_556
Sb0 Zr3 3.239135 1_555
Sb1 Zr0 2.935319 1_555
Sb1 Zr2 2.935319 1_665
Sb1 Zr9 2.984430 1_565
Sb1 Zr8 2.984433 1_555
Sb1 Zr6 3.016001 1_566
Sb1 Zr7 3.016004 1_556
Sb1 Zr1 3.092833 1_565
Sb1 Zr4 3.132328 1_556
Sb1 Zr4 3.239135 1_555
Sb2 Zr0 2.935319 1_555
Sb2 Zr1 2.935319 1_665
Sb2 Zr8 2.984430 1_655
Sb2 Zr9 2.984433 1_555
Sb2 Zr7 3.016001 1_656
Sb2 Zr6 3.016004 1_556
Sb2 Zr2 3.092833 1_655
Sb2 Zr5 3.132328 1_556
Sb2 Zr5 3.239134 1_555
Sb3 Zr4 2.935319 1_555
Sb3 Zr5 2.935319 1_555
Sb3 Zr9 2.984438 1_555
Sb3 Zr8 2.984438 1_555
Sb3 Zr6 3.016009 1_555
Sb3 Zr7 3.016009 1_555
Sb3 Zr3 3.092833 1_555
Sb3 Zr0 3.132328 1_554
Sb3 Zr0 3.239135 1_555
Sb4 Zr3 2.935319 1_555
Sb4 Zr5 2.935319 1_445
Sb4 Zr8 2.984430 1_545
Sb4 Zr9 2.984433 1_555
Sb4 Zr7 3.016001 1_545
Sb4 Zr6 3.016004 1_555
Sb4 Zr4 3.092833 1_545
Sb4 Zr1 3.132328 1_554
Sb4 Zr1 3.239135 1_555
Sb5 Zr3 2.935319 1_555
Sb5 Zr4 2.935319 1_445
Sb5 Zr9 2.984430 1_455
Sb5 Zr8 2.984433 1_555
Sb5 Zr6 3.016001 1_455
Sb5 Zr7 3.016004 1_555
Sb5 Zr5 3.092833 1_455
Sb5 Zr2 3.132328 1_554
Sb5 Zr2 3.239134 1_555
