# generated using pymatgen
data_Rb2Mg3Se4
_symmetry_space_group_name_H-M   'P 1'
_cell_length_a   9.83964707
_cell_length_b   9.83964748
_cell_length_c   9.83964717
_cell_angle_alpha   142.93928813
_cell_angle_beta   105.94439391
_cell_angle_gamma   85.83082126
_symmetry_Int_Tables_number   1
_chemical_formula_structural   Rb2Mg3Se4
_chemical_formula_sum   'Rb4 Mg6 Se8'
_cell_volume   534.10806162
_cell_formula_units_Z   2
loop_
 _symmetry_equiv_pos_site_id
 _symmetry_equiv_pos_as_xyz
  1  'x, y, z'
loop_
 _atom_site_type_symbol
 _atom_site_label
 _atom_site_symmetry_multiplicity
 _atom_site_fract_x
 _atom_site_fract_y
 _atom_site_fract_z
 _atom_site_occupancy
  Rb  Rb0  1  0.12154150  0.26294368  0.38448518  1
  Rb  Rb1  1  0.87845850  0.73705632  0.61551482  1
  Rb  Rb2  1  0.62154150  0.23705632  0.85859582  1
  Rb  Rb3  1  0.37845850  0.76294368  0.14140418  1
  Mg  Mg0  1  0.25000000  0.25000000  0.00000000  1
  Mg  Mg1  1  0.75000000  0.75000000  0.00000000  1
  Mg  Mg2  1  0.52300572  0.25000000  0.27300572  1
  Mg  Mg3  1  0.47699428  0.75000000  0.72699428  1
  Mg  Mg4  1  0.97699428  0.25000000  0.72699428  1
  Mg  Mg5  1  0.02300572  0.75000000  0.27300572  1
  Se  Se0  1  0.48745683  0.57400718  0.35333414  1
  Se  Se1  1  0.51254317  0.42599282  0.64666586  1
  Se  Se2  1  0.22067204  0.13412169  0.64666586  1
  Se  Se3  1  0.27932796  0.92599282  0.91344965  1
  Se  Se4  1  0.77932796  0.86587831  0.35333414  1
  Se  Se5  1  0.72067204  0.07400718  0.08655035  1
  Se  Se6  1  0.01254317  0.36587831  0.08655035  1
  Se  Se7  1  0.98745683  0.63412169  0.91344965  1
loop_
_geom_bond_atom_site_label_1
_geom_bond_atom_site_label_2
_geom_bond_distance
_geom_bond_site_symmetry_2
Rb0 Se1 3.587468 1_555
Rb0 Se2 3.587477 1_555
Rb0 Se3 3.682979 1_544
Rb0 Se7 3.682980 1_444
Rb0 Se5 3.691034 1_455
Rb0 Se6 3.691034 1_555
Rb0 Se7 3.860459 1_455
Rb0 Se3 3.860459 1_555
Rb1 Se0 3.587468 1_555
Rb1 Se4 3.587477 1_555
Rb1 Se5 3.682979 1_566
Rb1 Se6 3.682980 1_666
Rb1 Se3 3.691034 1_655
Rb1 Se7 3.691034 1_555
Rb1 Se6 3.860459 1_655
Rb1 Se5 3.860459 1_555
Rb2 Se6 3.587468 1_656
Rb2 Se5 3.587485 1_556
Rb2 Se4 3.682978 1_556
Rb2 Se0 3.682986 1_556
Rb2 Se1 3.691008 1_555
Rb2 Se2 3.691032 1_555
Rb2 Se4 3.860452 1_545
Rb2 Se0 3.860460 1_545
Rb3 Se7 3.587468 1_454
Rb3 Se3 3.587485 1_554
Rb3 Se2 3.682978 1_554
Rb3 Se1 3.682986 1_554
Rb3 Se0 3.691008 1_555
Rb3 Se4 3.691032 1_555
Rb3 Se2 3.860452 1_565
Rb3 Se1 3.860460 1_565
Mg0 Se2 2.576931 1_554
Mg0 Se0 2.576940 1_555
Mg0 Se6 2.576941 1_555
Mg0 Se3 2.576941 1_544
Mg1 Se4 2.576931 1_555
Mg1 Se1 2.576940 1_554
Mg1 Se7 2.576941 1_554
Mg1 Se5 2.576941 1_565
Mg2 Se5 2.558866 1_555
Mg2 Se1 2.558875 1_555
Mg2 Se3 2.622813 1_544
Mg2 Se0 2.622819 1_555
Mg3 Se3 2.558866 1_555
Mg3 Se0 2.558875 1_555
Mg3 Se5 2.622813 1_566
Mg3 Se1 2.622819 1_555
Mg4 Se7 2.558866 1_555
Mg4 Se4 2.558867 1_545
Mg4 Se2 2.622811 1_655
Mg4 Se6 2.622813 1_656
Mg5 Se6 2.558866 1_555
Mg5 Se2 2.558867 1_565
Mg5 Se4 2.622811 1_455
Mg5 Se7 2.622813 1_454
