# generated using pymatgen
data_BaZnSn
_symmetry_space_group_name_H-M   'P 1'
_cell_length_a   4.70023761
_cell_length_b   4.70023758
_cell_length_c   9.99420798
_cell_angle_alpha   90.00000000
_cell_angle_beta   90.00000000
_cell_angle_gamma   120.00000026
_symmetry_Int_Tables_number   1
_chemical_formula_structural   BaZnSn
_chemical_formula_sum   'Ba2 Zn2 Sn2'
_cell_volume   191.21353811
_cell_formula_units_Z   2
loop_
 _symmetry_equiv_pos_site_id
 _symmetry_equiv_pos_as_xyz
  1  'x, y, z'
loop_
 _atom_site_type_symbol
 _atom_site_label
 _atom_site_symmetry_multiplicity
 _atom_site_fract_x
 _atom_site_fract_y
 _atom_site_fract_z
 _atom_site_occupancy
  Ba  Ba0  1  0.00000000  0.00000000  0.50000000  1
  Ba  Ba1  1  0.00000000  0.00000000  -0.00000000  1
  Zn  Zn0  1  0.66666700  0.33333300  0.25000000  1
  Zn  Zn1  1  0.33333300  0.66666700  0.75000000  1
  Sn  Sn0  1  0.33333300  0.66666700  0.25000000  1
  Sn  Sn1  1  0.66666700  0.33333300  0.75000000  1
loop_
_geom_bond_atom_site_label_1
_geom_bond_atom_site_label_2
_geom_bond_distance
_geom_bond_site_symmetry_2
Ba0 Sn0 3.688743 1_545
Ba0 Zn1 3.688743 1_545
Ba0 Zn0 3.688743 1_455
Ba0 Sn1 3.688743 1_455
Ba0 Zn0 3.688746 1_445
Ba0 Sn0 3.688746 1_555
Ba0 Zn1 3.688746 1_555
Ba0 Sn1 3.688746 1_445
Ba0 Zn0 3.688746 1_555
Ba0 Zn1 3.688746 1_445
Ba0 Sn0 3.688746 1_445
Ba0 Sn1 3.688746 1_555
Ba1 Zn1 3.688743 1_544
Ba1 Sn0 3.688743 1_545
Ba1 Zn0 3.688743 1_455
Ba1 Sn1 3.688743 1_454
Ba1 Zn0 3.688746 1_445
Ba1 Zn1 3.688746 1_554
Ba1 Sn0 3.688746 1_555
Ba1 Sn1 3.688746 1_444
Ba1 Zn0 3.688746 1_555
Ba1 Sn0 3.688746 1_445
Ba1 Sn1 3.688746 1_554
Ba1 Zn1 3.688746 1_444
Sn0 Zn0 2.713681 1_565
Sn0 Zn0 2.713681 1_455
Sn0 Zn0 2.713689 1_555
Sn1 Zn1 2.713681 1_545
Sn1 Zn1 2.713681 1_655
Sn1 Zn1 2.713689 1_555
