# generated using pymatgen
data_Rb4NiAs4Pt
_symmetry_space_group_name_H-M   'P 1'
_cell_length_a   8.01668264
_cell_length_b   8.01668273
_cell_length_c   6.07826519
_cell_angle_alpha   91.28275278
_cell_angle_beta   88.71724774
_cell_angle_gamma   129.81438941
_symmetry_Int_Tables_number   1
_chemical_formula_structural   Rb4NiAs4Pt
_chemical_formula_sum   'Rb4 Ni1 As4 Pt1'
_cell_volume   299.96247426
_cell_formula_units_Z   1
loop_
 _symmetry_equiv_pos_site_id
 _symmetry_equiv_pos_as_xyz
  1  'x, y, z'
loop_
 _atom_site_type_symbol
 _atom_site_label
 _atom_site_symmetry_multiplicity
 _atom_site_fract_x
 _atom_site_fract_y
 _atom_site_fract_z
 _atom_site_occupancy
  Rb  Rb0  1  0.79222047  0.20777953  0.24713685  1
  Rb  Rb1  1  0.20777953  0.79222047  0.75286315  1
  Rb  Rb2  1  0.41293632  0.58706368  0.24525127  1
  Rb  Rb3  1  0.58706368  0.41293632  0.75474873  1
  Ni  Ni0  1  0.00000000  0.00000000  0.50000000  1
  As  As0  1  0.92263128  0.72159037  0.26579619  1
  As  As1  1  0.07736872  0.27840963  0.73420381  1
  As  As2  1  0.27840963  0.07736872  0.26579619  1
  As  As3  1  0.72159037  0.92263128  0.73420381  1
  Pt  Pt0  1  0.00000000  0.00000000  0.00000000  1
loop_
_geom_bond_atom_site_label_1
_geom_bond_atom_site_label_2
_geom_bond_distance
_geom_bond_site_symmetry_2
Ni0 Pt0 3.039133 1_555
Ni0 Pt0 3.039133 1_556
Ni0 Rb1 3.419616 1_545
Ni0 Rb0 3.419616 1_455
As0 Ni0 2.348867 1_665
As0 As2 2.419122 1_665
As0 Pt0 2.513975 1_665
As0 Rb2 3.499745 1_555
As0 Rb0 3.541496 1_555
As0 Rb1 3.589044 1_655
As0 Rb1 3.656345 1_654
As0 Rb3 3.693119 1_555
As0 Rb3 3.809744 1_554
As1 Ni0 2.348867 1_555
As1 As3 2.419122 1_445
As1 Pt0 2.513975 1_556
As1 Rb3 3.499745 1_555
As1 Rb1 3.541496 1_555
As1 Rb0 3.589044 1_455
As1 Rb0 3.656345 1_456
As1 Rb2 3.693119 1_555
As1 Rb2 3.809744 1_556
As2 Ni0 2.348867 1_555
As2 Pt0 2.513975 1_555
As2 Rb2 3.499745 1_555
As2 Rb0 3.541496 1_555
As2 Rb1 3.589044 1_545
As2 Rb1 3.656345 1_544
As2 Rb3 3.693119 1_555
As2 Rb3 3.809744 1_554
As3 Ni0 2.348867 1_665
As3 Pt0 2.513975 1_666
As3 Rb3 3.499745 1_555
As3 Rb1 3.541496 1_555
As3 Rb0 3.589044 1_565
As3 Rb0 3.656345 1_566
As3 Rb2 3.693119 1_555
As3 Rb2 3.809744 1_556
Pt0 Rb0 3.336868 1_455
Pt0 Rb1 3.336868 1_544
Pt0 Rb3 3.909673 1_554
Pt0 Rb2 3.909673 1_445
Pt0 Rb2 3.909673 1_555
Pt0 Rb3 3.909673 1_444
