# generated using pymatgen
data_Cs2Mg3Te4
_symmetry_space_group_name_H-M   'P 1'
_cell_length_a   6.72555077
_cell_length_b   10.76843069
_cell_length_c   10.76843094
_cell_angle_alpha   94.02979517
_cell_angle_beta   108.19674663
_cell_angle_gamma   108.19674333
_symmetry_Int_Tables_number   1
_chemical_formula_structural   Cs2Mg3Te4
_chemical_formula_sum   'Cs4 Mg6 Te8'
_cell_volume   691.56230931
_cell_formula_units_Z   2
loop_
 _symmetry_equiv_pos_site_id
 _symmetry_equiv_pos_as_xyz
  1  'x, y, z'
loop_
 _atom_site_type_symbol
 _atom_site_label
 _atom_site_symmetry_multiplicity
 _atom_site_fract_x
 _atom_site_fract_y
 _atom_site_fract_z
 _atom_site_occupancy
  Cs  Cs0  1  0.88789784  0.12171729  0.12171729  1
  Cs  Cs1  1  0.64446427  0.37828271  0.37828271  1
  Cs  Cs2  1  0.35553573  0.62171729  0.62171729  1
  Cs  Cs3  1  0.11210316  0.87828271  0.87828271  1
  Mg  Mg0  1  0.76739180  0.51739180  0.01739180  1
  Mg  Mg1  1  0.50000000  0.75000000  0.25000000  1
  Mg  Mg2  1  0.23260820  0.98260720  0.48260720  1
  Mg  Mg3  1  0.76739180  0.01739180  0.51739180  1
  Mg  Mg4  1  0.50000000  0.25000000  0.75000000  1
  Mg  Mg5  1  0.23260820  0.48260720  0.98260720  1
  Te  Te0  1  0.59402873  0.72214173  0.01502798  1
  Te  Te1  1  0.14314097  0.51502798  0.22214173  1
  Te  Te2  1  0.40597027  0.98497102  0.27785827  1
  Te  Te3  1  0.85685903  0.77785727  0.48497202  1
  Te  Te4  1  0.14314097  0.22214173  0.51502798  1
  Te  Te5  1  0.59402873  0.01502798  0.72214173  1
  Te  Te6  1  0.85685903  0.48497202  0.77785727  1
  Te  Te7  1  0.40597027  0.27785827  0.98497102  1
loop_
_geom_bond_atom_site_label_1
_geom_bond_atom_site_label_2
_geom_bond_distance
_geom_bond_site_symmetry_2
Cs0 Te1 3.963624 1_655
Cs0 Te4 3.963624 1_655
Cs0 Te7 4.033833 1_554
Cs0 Te2 4.033833 1_545
Cs0 Te0 4.039299 1_545
Cs0 Te5 4.039299 1_554
Cs0 Te2 4.126677 1_645
Cs0 Te7 4.126677 1_654
Cs1 Te2 3.963634 1_545
Cs1 Te7 3.963634 1_554
Cs1 Te1 4.033831 1_555
Cs1 Te4 4.033831 1_555
Cs1 Te3 4.039289 1_555
Cs1 Te6 4.039289 1_555
Cs1 Te4 4.126670 1_655
Cs1 Te1 4.126670 1_655
Cs2 Te5 3.963624 1_565
Cs2 Te0 3.963624 1_556
Cs2 Te6 4.033829 1_555
Cs2 Te3 4.033829 1_555
Cs2 Te4 4.039299 1_555
Cs2 Te1 4.039299 1_555
Cs2 Te3 4.126663 1_455
Cs2 Te6 4.126663 1_455
Cs3 Te6 3.963625 1_455
Cs3 Te3 3.963625 1_455
Cs3 Te0 4.033820 1_556
Cs3 Te5 4.033820 1_565
Cs3 Te7 4.039297 1_565
Cs3 Te2 4.039297 1_556
Cs3 Te5 4.126681 1_465
Cs3 Te0 4.126681 1_456
Mg0 Te1 2.795776 1_655
Mg0 Te0 2.795776 1_555
Mg0 Te7 2.848026 1_554
Mg0 Te6 2.848035 1_554
Mg1 Te2 2.811295 1_555
Mg1 Te1 2.811302 1_555
Mg1 Te0 2.811302 1_555
Mg1 Te3 2.811304 1_555
Mg2 Te2 2.795761 1_555
Mg2 Te3 2.795779 1_455
Mg2 Te5 2.848029 1_565
Mg2 Te4 2.848036 1_565
Mg3 Te4 2.795776 1_655
Mg3 Te5 2.795776 1_555
Mg3 Te2 2.848025 1_545
Mg3 Te3 2.848035 1_545
Mg4 Te7 2.811295 1_555
Mg4 Te4 2.811302 1_555
Mg4 Te5 2.811302 1_555
Mg4 Te6 2.811304 1_555
Mg5 Te7 2.795761 1_555
Mg5 Te6 2.795779 1_455
Mg5 Te0 2.848029 1_556
Mg5 Te1 2.848036 1_556
