# generated using pymatgen
data_Al13GaSe20
_symmetry_space_group_name_H-M   'P 1'
_cell_length_a   9.59449443
_cell_length_b   9.59482924
_cell_length_c   9.59491934
_cell_angle_alpha   89.38334792
_cell_angle_beta   89.38261691
_cell_angle_gamma   89.38139110
_symmetry_Int_Tables_number   1
_chemical_formula_structural   Al13GaSe20
_chemical_formula_sum   'Al13 Ga1 Se20'
_cell_volume   883.13181080
_cell_formula_units_Z   1
loop_
 _symmetry_equiv_pos_site_id
 _symmetry_equiv_pos_as_xyz
  1  'x, y, z'
loop_
 _atom_site_type_symbol
 _atom_site_label
 _atom_site_symmetry_multiplicity
 _atom_site_fract_x
 _atom_site_fract_y
 _atom_site_fract_z
 _atom_site_occupancy
  Al  Al0  1  0.84826163  0.89045818  0.57851617  1
  Al  Al1  1  0.57852153  0.84828242  0.89046402  1
  Al  Al2  1  0.89046699  0.57852064  0.84826637  1
  Al  Al3  1  0.15235345  0.42111284  0.11081924  1
  Al  Al4  1  0.11082654  0.15236469  0.42110017  1
  Al  Al5  1  0.42111017  0.11080918  0.15235867  1
  Al  Al6  1  0.74105792  0.16520318  0.34348491  1
  Al  Al7  1  0.34347659  0.74106385  0.16522239  1
  Al  Al8  1  0.16524762  0.34348675  0.74107607  1
  Al  Al9  1  0.25687129  0.65418508  0.83432854  1
  Al  Al10  1  0.83432415  0.25685762  0.65419469  1
  Al  Al11  1  0.65419063  0.83430607  0.25686467  1
  Al  Al12  1  0.57980940  0.57978785  0.57980926  1
  Ga  Ga0  1  0.43009039  0.43007245  0.43006638  1
  Se  Se0  1  0.42266058  0.92043200  0.32351709  1
  Se  Se1  1  0.92041717  0.32352095  0.42266801  1
  Se  Se2  1  0.32356150  0.42267135  0.92044672  1
  Se  Se3  1  0.07848890  0.57593661  0.67498533  1
  Se  Se4  1  0.57595945  0.67499266  0.07848364  1
  Se  Se5  1  0.67496890  0.07850194  0.57595041  1
  Se  Se6  1  0.75810337  0.69676006  0.44192742  1
  Se  Se7  1  0.44193773  0.75810172  0.69674259  1
  Se  Se8  1  0.69677338  0.44192711  0.75811795  1
  Se  Se9  1  0.24209349  0.55689665  0.30309543  1
  Se  Se10  1  0.30309517  0.24210215  0.55689399  1
  Se  Se11  1  0.55688016  0.30306560  0.24208972  1
  Se  Se12  1  0.49996903  0.07732889  0.92288046  1
  Se  Se13  1  0.92288334  0.49996250  0.07736090  1
  Se  Se14  1  0.07732703  0.92291404  0.49994835  1
  Se  Se15  1  0.99868417  0.18452885  0.81592575  1
  Se  Se16  1  0.81588955  0.99871219  0.18446227  1
  Se  Se17  1  0.18446295  0.81588344  0.99871090  1
  Se  Se18  1  0.82521166  0.82522113  0.82520809  1
  Se  Se19  1  0.17402317  0.17402834  0.17401243  1
loop_
_geom_bond_atom_site_label_1
_geom_bond_atom_site_label_2
_geom_bond_distance
_geom_bond_site_symmetry_2
Al0 Se14 2.338689 1_655
Al0 Se5 2.440388 1_565
Al0 Se18 2.450135 1_555
Al0 Se6 2.455896 1_555
Al1 Se12 2.338456 1_565
Al1 Se4 2.440292 1_556
Al1 Se18 2.450059 1_555
Al1 Se7 2.456113 1_555
Al2 Se13 2.338956 1_556
Al2 Se3 2.440189 1_655
Al2 Se18 2.450219 1_555
Al2 Se8 2.455824 1_555
Al3 Se13 2.344510 1_455
Al3 Se9 2.439762 1_555
Al3 Se2 2.443424 1_554
Al3 Se19 2.447933 1_555
Al4 Se14 2.344488 1_545
Al4 Se10 2.439715 1_555
Al4 Se1 2.443307 1_455
Al4 Se19 2.447983 1_555
Al5 Se12 2.344731 1_554
Al5 Se11 2.439504 1_555
Al5 Se0 2.443191 1_545
Al5 Se19 2.447907 1_555
Al6 Se16 2.323687 1_545
Al6 Se11 2.403684 1_555
Al6 Se1 2.440392 1_555
Al6 Se5 2.451560 1_555
Al7 Se17 2.323726 1_554
Al7 Se9 2.403693 1_555
Al7 Se0 2.440338 1_555
Al7 Se4 2.451677 1_555
Al8 Se15 2.323823 1_455
Al8 Se10 2.403618 1_555
Al8 Se2 2.440456 1_555
Al8 Se3 2.451568 1_555
Al9 Se17 2.320161 1_555
Al9 Se7 2.418485 1_555
Al9 Se3 2.437047 1_555
Al9 Se2 2.442889 1_555
Al10 Se15 2.319996 1_555
Al10 Se8 2.418318 1_555
Al10 Se5 2.436938 1_555
Al10 Se1 2.442883 1_555
Al11 Se16 2.320319 1_555
Al11 Se6 2.418254 1_555
Al11 Se4 2.436830 1_555
Al11 Se0 2.442881 1_555
Al12 Se7 2.428219 1_555
Al12 Se8 2.428306 1_555
Al12 Se6 2.428348 1_555
Al12 Ga0 2.514906 1_555
Ga0 Se11 2.487148 1_555
Ga0 Se9 2.487257 1_555
Ga0 Se10 2.487268 1_555
