# generated using pymatgen
data_AgPdF6
_symmetry_space_group_name_H-M   'P 1'
_cell_length_a   4.95458925
_cell_length_b   5.00086773
_cell_length_c   10.04314395
_cell_angle_alpha   76.93628678
_cell_angle_beta   77.44017523
_cell_angle_gamma   61.01091543
_symmetry_Int_Tables_number   1
_chemical_formula_structural   AgPdF6
_chemical_formula_sum   'Ag2 Pd2 F12'
_cell_volume   210.32398334
_cell_formula_units_Z   2
loop_
 _symmetry_equiv_pos_site_id
 _symmetry_equiv_pos_as_xyz
  1  'x, y, z'
loop_
 _atom_site_type_symbol
 _atom_site_label
 _atom_site_symmetry_multiplicity
 _atom_site_fract_x
 _atom_site_fract_y
 _atom_site_fract_z
 _atom_site_occupancy
  Ag  Ag0  1  0.00000000  -0.00000000  -0.00000000  1
  Ag  Ag1  1  0.50000000  0.50000000  0.50000000  1
  Pd  Pd0  1  0.70301238  0.78202592  0.74986030  1
  Pd  Pd1  1  0.29698762  0.21797408  0.25013970  1
  F  F0  1  0.65605196  0.44460436  0.86331891  1
  F  F1  1  0.34394804  0.55539564  0.13668109  1
  F  F2  1  0.99146879  0.72721559  0.86762988  1
  F  F3  1  0.00853121  0.27278441  0.13237012  1
  F  F4  1  0.42167653  0.82814142  0.63116839  1
  F  F5  1  0.57832247  0.17185858  0.36883161  1
  F  F6  1  0.76417014  0.12476212  0.63556538  1
  F  F7  1  0.23582986  0.87523888  0.36443462  1
  F  F8  1  0.36205520  0.06306847  0.86733646  1
  F  F9  1  0.63794480  0.93693253  0.13266354  1
  F  F10  1  0.03795469  0.51424149  0.63428552  1
  F  F11  1  0.96204531  0.48575851  0.36571448  1
loop_
_geom_bond_atom_site_label_1
_geom_bond_atom_site_label_2
_geom_bond_distance
_geom_bond_site_symmetry_2
Ag0 F9 2.100344 1_445
Ag0 F8 2.100347 1_554
Ag0 F3 2.128432 1_555
Ag0 F2 2.128432 1_444
Ag0 F0 2.386828 1_454
Ag0 F1 2.386828 1_545
Ag1 F6 2.080263 1_555
Ag1 F7 2.080265 1_555
Ag1 F4 2.171755 1_555
Ag1 F5 2.171756 1_555
Ag1 F10 2.367952 1_555
Ag1 F11 2.367952 1_555
F0 Pd0 1.896284 1_555
F1 Pd1 1.896284 1_555
F2 Pd0 1.930175 1_555
F3 Pd1 1.930175 1_555
F4 Pd0 1.924553 1_555
F5 Pd1 1.924549 1_555
F6 Pd0 1.951891 1_545
F7 Pd1 1.951887 1_565
F8 Pd0 1.950006 1_545
F9 Pd1 1.950003 1_565
F10 Pd0 1.898803 1_455
F11 Pd1 1.898803 1_655
