# generated using pymatgen
data_Sr3Al2Br2O5
_symmetry_space_group_name_H-M   'P 1'
_cell_length_a   8.25529305
_cell_length_b   8.25519349
_cell_length_c   8.25527054
_cell_angle_alpha   109.47142663
_cell_angle_beta   109.47328390
_cell_angle_gamma   109.46843575
_symmetry_Int_Tables_number   1
_chemical_formula_structural   Sr3Al2Br2O5
_chemical_formula_sum   'Sr6 Al4 Br4 O10'
_cell_volume   433.08379567
_cell_formula_units_Z   2
loop_
 _symmetry_equiv_pos_site_id
 _symmetry_equiv_pos_as_xyz
  1  'x, y, z'
loop_
 _atom_site_type_symbol
 _atom_site_label
 _atom_site_symmetry_multiplicity
 _atom_site_fract_x
 _atom_site_fract_y
 _atom_site_fract_z
 _atom_site_occupancy
  Sr  Sr0  1  0.65876819  0.40876476  0.24999723  1
  Sr  Sr1  1  0.24999880  0.65876539  0.40876260  1
  Sr  Sr2  1  0.84123225  0.09123347  0.74999788  1
  Sr  Sr3  1  0.40876929  0.25000042  0.65876492  1
  Sr  Sr4  1  0.09123080  0.74999865  0.84122791  1
  Sr  Sr5  1  0.74999846  0.84123360  0.09123129  1
  Al  Al0  1  0.49999346  0.00000678  0.30679292  1
  Al  Al1  1  0.30678593  0.49999934  0.99998849  1
  Al  Al2  1  0.00000745  0.30680574  0.50000820  1
  Al  Al3  1  0.19321205  0.19320265  0.19321017  1
  Br  Br0  1  0.00009940  0.88537407  0.49999731  1
  Br  Br1  1  0.61460565  0.61461878  0.61474397  1
  Br  Br2  1  0.88539705  0.50009401  0.99999284  1
  Br  Br3  1  0.49991362  0.99992586  0.88533214  1
  O  O0  1  0.98285084  0.98285379  0.98285502  1
  O  O1  1  0.00000287  0.51713596  0.49999516  1
  O  O2  1  0.51714539  0.50000420  0.99999933  1
  O  O3  1  0.49999703  0.99999599  0.51713395  1
  O  O4  1  0.10951939  0.35951927  0.74999891  1
  O  O5  1  0.74999660  0.10951869  0.35951575  1
  O  O6  1  0.14048019  0.24999866  0.39047255  1
  O  O7  1  0.24999654  0.39047704  0.14047371  1
  O  O8  1  0.39047861  0.14047829  0.24999419  1
  O  O9  1  0.35951814  0.74999159  0.10951456  1
loop_
_geom_bond_atom_site_label_1
_geom_bond_atom_site_label_2
_geom_bond_distance
_geom_bond_site_symmetry_2
Al0 O3 1.736442 1_545
Al0 O8 1.777811 1_555
Al0 O5 1.777996 1_555
Al0 O9 1.778032 1_545
Al1 O2 1.736536 1_555
Al1 O4 1.777840 1_555
Al1 O9 1.777854 1_556
Al1 O7 1.777990 1_556
Al2 O1 1.736365 1_555
Al2 O4 1.777866 1_555
Al2 O6 1.778001 1_555
Al2 O5 1.778055 1_455
Al3 O0 1.736549 1_444
Al3 O8 1.777833 1_555
Al3 O6 1.777884 1_555
Al3 O7 1.777998 1_555
Br0 Sr3 3.132524 1_565
Br0 Sr5 3.133080 1_455
Br0 Sr2 3.133600 1_465
Br0 Sr1 3.315393 1_555
Br0 Sr4 3.316068 1_555
Br0 Sr0 3.316437 1_455
Br1 Sr3 3.132279 1_555
Br1 Sr1 3.133027 1_555
Br1 Sr0 3.133839 1_555
Br1 Sr5 3.315227 1_556
Br1 Sr4 3.316221 1_655
Br1 Sr2 3.316516 1_565
Br2 Sr4 3.132402 1_655
Br2 Sr1 3.133008 1_656
Br2 Sr2 3.133437 1_555
Br2 Sr5 3.315565 1_556
Br2 Sr3 3.316229 1_555
Br2 Sr0 3.316578 1_556
Br3 Sr4 3.132435 1_555
Br3 Sr5 3.132929 1_556
Br3 Sr0 3.133248 1_566
Br3 Sr1 3.315818 1_555
Br3 Sr3 3.316250 1_565
Br3 Sr2 3.316664 1_565
O0 Sr2 2.491574 1_565
O0 Sr4 2.491608 1_655
O0 Sr5 2.491647 1_556
O1 Sr0 2.491606 1_455
O1 Sr4 2.491628 1_555
O1 Sr1 2.491670 1_555
O2 Sr0 2.491589 1_556
O2 Sr3 2.491621 1_555
O2 Sr5 2.491646 1_556
O3 Sr3 2.491598 1_565
O3 Sr2 2.491608 1_565
O3 Sr1 2.491670 1_555
O4 Sr2 2.557479 1_455
O4 Sr4 3.124512 1_555
O4 Sr3 3.124557 1_555
O5 Sr5 2.557379 1_545
O5 Sr0 3.124463 1_555
O5 Sr2 3.124526 1_555
O6 Sr3 2.557375 1_555
O6 Sr1 3.124546 1_555
O6 Sr5 3.124593 1_445
O7 Sr1 2.557396 1_555
O7 Sr2 3.124516 1_454
O7 Sr0 3.124562 1_555
O8 Sr0 2.557484 1_555
O8 Sr4 3.124545 1_544
O8 Sr3 3.124555 1_555
O9 Sr4 2.557382 1_554
O9 Sr1 3.124563 1_555
O9 Sr5 3.124577 1_555
