# generated using pymatgen
data_Ba6Sn8AsI
_symmetry_space_group_name_H-M   'P 1'
_cell_length_a   9.23933851
_cell_length_b   9.23933839
_cell_length_c   9.36592053
_cell_angle_alpha   119.55392921
_cell_angle_beta   119.55392216
_cell_angle_gamma   90.00000215
_symmetry_Int_Tables_number   1
_chemical_formula_structural   Ba6Sn8AsI
_chemical_formula_sum   'Ba6 Sn8 As1 I1'
_cell_volume   572.88856593
_cell_formula_units_Z   1
loop_
 _symmetry_equiv_pos_site_id
 _symmetry_equiv_pos_as_xyz
  1  'x, y, z'
loop_
 _atom_site_type_symbol
 _atom_site_label
 _atom_site_symmetry_multiplicity
 _atom_site_fract_x
 _atom_site_fract_y
 _atom_site_fract_z
 _atom_site_occupancy
  Ba  Ba0  1  0.23690652  0.23690652  0.47381304  1
  Ba  Ba1  1  0.76309348  0.76309348  0.52618696  1
  Ba  Ba2  1  0.68121499  0.15212869  1.00000000  1
  Ba  Ba3  1  0.31878501  0.84787131  0.00000000  1
  Ba  Ba4  1  0.84787131  0.68121499  0.00000000  1
  Ba  Ba5  1  0.15212869  0.31878501  1.00000000  1
  Sn  Sn0  1  0.33609106  0.83242549  0.39006828  1
  Sn  Sn1  1  0.66390894  0.16757451  0.60993172  1
  Sn  Sn2  1  0.05397822  0.55764379  0.39006828  1
  Sn  Sn3  1  0.55764379  0.33609106  0.39006828  1
  Sn  Sn4  1  0.16757451  0.94602178  0.60993172  1
  Sn  Sn5  1  0.94602178  0.44235621  0.60993172  1
  Sn  Sn6  1  0.44235621  0.66390894  0.60993172  1
  Sn  Sn7  1  0.83242549  0.05397822  0.39006828  1
  As  As0  1  0.00000000  0.00000000  0.00000000  1
  I  I0  1  0.50000000  0.50000000  0.00000000  1
loop_
_geom_bond_atom_site_label_1
_geom_bond_atom_site_label_2
_geom_bond_distance
_geom_bond_site_symmetry_2
Ba0 I0 3.531250 1_556
Ba0 Sn7 3.638492 1_455
Ba0 Sn0 3.638495 1_545
Ba0 Sn2 3.638500 1_555
Ba0 Sn3 3.638504 1_555
Ba0 Sn6 3.666650 1_555
Ba0 Sn1 3.666654 1_555
Ba0 Sn5 3.666659 1_455
Ba0 Sn4 3.666662 1_545
Ba1 I0 3.531250 1_555
Ba1 Sn4 3.638492 1_655
Ba1 Sn1 3.638495 1_565
Ba1 Sn5 3.638500 1_555
Ba1 Sn6 3.638504 1_555
Ba1 Sn3 3.666650 1_555
Ba1 Sn0 3.666654 1_555
Ba1 Sn2 3.666659 1_655
Ba1 Sn7 3.666662 1_565
Ba2 I0 3.624051 1_556
Ba2 Sn1 3.651157 1_555
Ba2 Sn2 3.651165 1_656
Ba2 Sn7 3.788715 1_556
Ba2 Sn6 3.788722 1_545
Ba2 Sn3 3.940621 1_556
Ba2 Sn4 3.940628 1_545
Ba2 Sn0 4.112299 1_545
Ba2 Sn5 4.112301 1_556
Ba3 I0 3.624051 1_555
Ba3 Sn0 3.651157 1_555
Ba3 Sn5 3.651165 1_454
Ba3 Sn4 3.788715 1_554
Ba3 Sn3 3.788722 1_565
Ba3 Sn6 3.940621 1_554
Ba3 Sn7 3.940628 1_565
Ba3 Sn1 4.112299 1_565
Ba3 Sn2 4.112301 1_554
Ba4 I0 3.624051 1_555
Ba4 Sn7 3.651160 1_565
Ba4 Sn6 3.651162 1_554
Ba4 Sn5 3.788716 1_554
Ba4 Sn0 3.788721 1_655
Ba4 Sn2 3.940621 1_655
Ba4 Sn1 3.940627 1_554
Ba4 Sn3 4.112300 1_554
Ba4 Sn4 4.112300 1_655
Ba5 I0 3.624051 1_556
Ba5 Sn4 3.651160 1_545
Ba5 Sn3 3.651162 1_556
Ba5 Sn2 3.788716 1_556
Ba5 Sn1 3.788721 1_455
Ba5 Sn5 3.940621 1_455
Ba5 Sn0 3.940627 1_556
Ba5 Sn6 4.112300 1_556
Ba5 Sn7 4.112300 1_455
Sn0 Sn4 2.965964 1_555
Sn0 Sn6 2.965964 1_555
Sn0 Sn1 3.249579 1_565
Sn1 Sn7 2.965964 1_555
Sn1 Sn3 2.965964 1_555
Sn2 Sn4 2.965947 1_555
Sn2 Sn6 2.965948 1_555
Sn2 Sn5 3.249603 1_455
Sn3 Sn5 2.965948 1_555
Sn3 Sn6 3.249591 1_555
Sn4 Sn7 3.249591 1_465
Sn5 Sn7 2.965947 1_555
As0 Ba0 3.179768 1_555
As0 Ba1 3.179768 1_444
As0 Ba5 3.263554 1_554
As0 Ba4 3.263554 1_445
As0 Ba2 3.263554 1_454
As0 Ba3 3.263554 1_545
