# generated using pymatgen
data_Ba3YRhO6
_symmetry_space_group_name_H-M   'P 1'
_cell_length_a   7.11846524
_cell_length_b   7.11846569
_cell_length_c   7.11846478
_cell_angle_alpha   93.27697952
_cell_angle_beta   93.27697587
_cell_angle_gamma   93.27697658
_symmetry_Int_Tables_number   1
_chemical_formula_structural   Ba3YRhO6
_chemical_formula_sum   'Ba6 Y2 Rh2 O12'
_cell_volume   358.87071393
_cell_formula_units_Z   2
loop_
 _symmetry_equiv_pos_site_id
 _symmetry_equiv_pos_as_xyz
  1  'x, y, z'
loop_
 _atom_site_type_symbol
 _atom_site_label
 _atom_site_symmetry_multiplicity
 _atom_site_fract_x
 _atom_site_fract_y
 _atom_site_fract_z
 _atom_site_occupancy
  Ba  Ba0  1  0.61772704  0.25000000  0.88227296  1
  Ba  Ba1  1  0.88227296  0.61772704  0.25000000  1
  Ba  Ba2  1  0.75000000  0.11772704  0.38227296  1
  Ba  Ba3  1  0.38227296  0.75000000  0.11772704  1
  Ba  Ba4  1  0.11772704  0.38227296  0.75000000  1
  Ba  Ba5  1  0.25000000  0.88227296  0.61772704  1
  Y  Y0  1  0.25000000  0.25000000  0.25000000  1
  Y  Y1  1  0.75000000  0.75000000  0.75000000  1
  Rh  Rh0  1  0.00000000  0.00000000  0.00000000  1
  Rh  Rh1  1  0.50000000  0.50000000  0.50000000  1
  O  O0  1  0.59539918  0.78133821  0.46478707  1
  O  O1  1  0.46478707  0.59539918  0.78133821  1
  O  O2  1  0.78133821  0.46478707  0.59539918  1
  O  O3  1  0.90460082  0.03521293  0.71866179  1
  O  O4  1  0.71866179  0.90460082  0.03521293  1
  O  O5  1  0.03521293  0.71866179  0.90460082  1
  O  O6  1  0.40460082  0.21866179  0.53521293  1
  O  O7  1  0.53521293  0.40460082  0.21866179  1
  O  O8  1  0.21866179  0.53521293  0.40460082  1
  O  O9  1  0.09539918  0.96478707  0.28133821  1
  O  O10  1  0.96478707  0.28133821  0.09539918  1
  O  O11  1  0.28133821  0.09539918  0.96478707  1
loop_
_geom_bond_atom_site_label_1
_geom_bond_atom_site_label_2
_geom_bond_distance
_geom_bond_site_symmetry_2
Ba0 O7 2.687666 1_556
Ba0 O11 2.687667 1_555
Ba0 O6 2.815100 1_555
Ba0 O10 2.815100 1_556
Ba0 O1 2.857505 1_555
Ba0 O4 2.857505 1_546
Ba0 O3 2.879166 1_555
Ba0 O2 2.879166 1_555
Ba1 O8 2.687667 1_655
Ba1 O10 2.687667 1_555
Ba1 O7 2.815100 1_555
Ba1 O9 2.815100 1_655
Ba1 O5 2.857505 1_654
Ba1 O2 2.857505 1_555
Ba1 O0 2.879165 1_555
Ba1 O4 2.879166 1_555
Ba2 O3 2.687667 1_555
Ba2 O0 2.687667 1_545
Ba2 O4 2.815100 1_545
Ba2 O2 2.815100 1_555
Ba2 O6 2.857505 1_555
Ba2 O9 2.857505 1_645
Ba2 O10 2.879166 1_555
Ba2 O7 2.879166 1_555
Ba3 O1 2.687666 1_554
Ba3 O4 2.687667 1_555
Ba3 O0 2.815100 1_555
Ba3 O5 2.815100 1_554
Ba3 O7 2.857505 1_555
Ba3 O11 2.857505 1_564
Ba3 O9 2.879166 1_555
Ba3 O8 2.879166 1_555
Ba4 O2 2.687667 1_455
Ba4 O5 2.687667 1_555
Ba4 O1 2.815100 1_555
Ba4 O3 2.815100 1_455
Ba4 O10 2.857505 1_456
Ba4 O8 2.857505 1_555
Ba4 O6 2.879165 1_555
Ba4 O11 2.879166 1_555
Ba5 O9 2.687667 1_555
Ba5 O6 2.687667 1_565
Ba5 O11 2.815100 1_565
Ba5 O8 2.815100 1_555
Ba5 O0 2.857505 1_555
Ba5 O3 2.857505 1_465
Ba5 O5 2.879166 1_555
Ba5 O1 2.879166 1_555
O0 Rh1 2.110962 1_555
O0 Y1 2.281960 1_555
O1 Rh1 2.110962 1_555
O1 Y1 2.281960 1_555
O2 Rh1 2.110962 1_555
O2 Y1 2.281960 1_555
O3 Rh0 2.110962 1_656
O3 Y1 2.281960 1_545
O4 Rh0 2.110962 1_665
O4 Y1 2.281960 1_554
O5 Rh0 2.110962 1_566
O5 Y1 2.281960 1_455
O6 Rh1 2.110962 1_555
O6 Y0 2.281960 1_555
O7 Rh1 2.110962 1_555
O7 Y0 2.281960 1_555
O8 Rh1 2.110962 1_555
O8 Y0 2.281960 1_555
O9 Rh0 2.110962 1_565
O9 Y0 2.281960 1_565
O10 Rh0 2.110962 1_655
O10 Y0 2.281960 1_655
O11 Rh0 2.110962 1_556
O11 Y0 2.281960 1_556
