# generated using pymatgen
data_NbReMoW
_symmetry_space_group_name_H-M   'P 1'
_cell_length_a   4.49793763
_cell_length_b   4.49793756
_cell_length_c   4.49793831
_cell_angle_alpha   59.99999455
_cell_angle_beta   59.99999500
_cell_angle_gamma   60.00000462
_symmetry_Int_Tables_number   1
_chemical_formula_structural   NbReMoW
_chemical_formula_sum   'Nb1 Re1 Mo1 W1'
_cell_volume   64.34655916
_cell_formula_units_Z   1
loop_
 _symmetry_equiv_pos_site_id
 _symmetry_equiv_pos_as_xyz
  1  'x, y, z'
loop_
 _atom_site_type_symbol
 _atom_site_label
 _atom_site_symmetry_multiplicity
 _atom_site_fract_x
 _atom_site_fract_y
 _atom_site_fract_z
 _atom_site_occupancy
  Nb  Nb0  1  0.50000000  0.50000000  0.50000000  1
  Re  Re0  1  0.75000000  0.75000000  0.75000000  1
  Mo  Mo0  1  0.25000100  0.25000100  0.25000100  1
  W  W0  1  0.00000000  0.00000000  0.00000000  1
loop_
_geom_bond_atom_site_label_1
_geom_bond_atom_site_label_2
_geom_bond_distance
_geom_bond_site_symmetry_2
Nb0 Re0 2.754413 1_545
Nb0 Re0 2.754413 1_455
Nb0 Re0 2.754413 1_554
Nb0 Re0 2.754413 1_555
Re0 W0 2.754413 1_656
Re0 W0 2.754413 1_566
Re0 W0 2.754413 1_666
Re0 W0 2.754413 1_665
Mo0 Nb0 2.754402 1_555
Mo0 W0 2.754409 1_565
Mo0 W0 2.754409 1_655
Mo0 W0 2.754410 1_556
Mo0 Nb0 2.754417 1_545
Mo0 Nb0 2.754417 1_455
Mo0 Nb0 2.754417 1_554
Mo0 W0 2.754424 1_555
