# generated using pymatgen
data_Cs6Nb2Se7S
_symmetry_space_group_name_H-M   'P 1'
_cell_length_a   10.38343163
_cell_length_b   10.36666734
_cell_length_c   11.92829946
_cell_angle_alpha   90.00000000
_cell_angle_beta   90.00000000
_cell_angle_gamma   90.00000000
_symmetry_Int_Tables_number   1
_chemical_formula_structural   Cs6Nb2Se7S
_chemical_formula_sum   'Cs12 Nb4 Se14 S2'
_cell_volume   1283.98101887
_cell_formula_units_Z   2
loop_
 _symmetry_equiv_pos_site_id
 _symmetry_equiv_pos_as_xyz
  1  'x, y, z'
loop_
 _atom_site_type_symbol
 _atom_site_label
 _atom_site_symmetry_multiplicity
 _atom_site_fract_x
 _atom_site_fract_y
 _atom_site_fract_z
 _atom_site_occupancy
  Cs  Cs0  1  0.55024161  0.20755287  0.04627000  1
  Cs  Cs1  1  0.05024161  0.29244713  0.45373000  1
  Cs  Cs2  1  0.45053508  0.79186163  0.54059426  1
  Cs  Cs3  1  0.95053508  0.70813837  0.95940574  1
  Cs  Cs4  1  0.45053508  0.79186163  0.95940574  1
  Cs  Cs5  1  0.95053508  0.70813837  0.54059426  1
  Cs  Cs6  1  0.55024161  0.20755287  0.45373000  1
  Cs  Cs7  1  0.05024161  0.29244713  0.04627000  1
  Cs  Cs8  1  0.64356599  0.41203421  0.75000000  1
  Cs  Cs9  1  0.14356599  0.08796579  0.75000000  1
  Cs  Cs10  1  0.35689613  0.57724873  0.25000000  1
  Cs  Cs11  1  0.85689613  0.92275127  0.25000000  1
  Nb  Nb0  1  0.71969468  0.98437734  0.75000000  1
  Nb  Nb1  1  0.21969468  0.51562266  0.75000000  1
  Nb  Nb2  1  0.28067417  0.01990934  0.25000000  1
  Nb  Nb3  1  0.78067417  0.48009066  0.25000000  1
  Se  Se0  1  0.83216924  0.05038121  0.58288107  1
  Se  Se1  1  0.33216924  0.44961879  0.91711893  1
  Se  Se2  1  0.16669285  0.95488811  0.08324121  1
  Se  Se3  1  0.66669285  0.54511189  0.41675879  1
  Se  Se4  1  0.16669285  0.95488811  0.41675879  1
  Se  Se5  1  0.66669285  0.54511189  0.08324121  1
  Se  Se6  1  0.83216924  0.05038121  0.91711893  1
  Se  Se7  1  0.33216924  0.44961879  0.58288107  1
  Se  Se8  1  0.50486150  0.07441892  0.75000000  1
  Se  Se9  1  0.00486150  0.42558108  0.75000000  1
  Se  Se10  1  0.49438684  0.92515326  0.25000000  1
  Se  Se11  1  0.99438684  0.57484674  0.25000000  1
  Se  Se12  1  0.70339303  0.75270796  0.75000000  1
  Se  Se13  1  0.20339303  0.74729204  0.75000000  1
  S  S0  1  0.29724808  0.23909209  0.25000000  1
  S  S1  1  0.79724808  0.26090791  0.25000000  1
loop_
_geom_bond_atom_site_label_1
_geom_bond_atom_site_label_2
_geom_bond_distance
_geom_bond_site_symmetry_2
Cs0 S1 3.576261 1_555
Cs0 S0 3.593517 1_555
Cs0 Se6 3.687493 1_554
Cs0 Se1 3.714527 1_554
Cs0 Se5 3.728551 1_555
Cs0 Se8 3.823087 1_554
Cs0 Se10 3.848702 1_545
Cs1 S0 3.576261 1_555
Cs1 S1 3.593517 1_455
Cs1 Se7 3.687493 1_555
Cs1 Se0 3.714527 1_455
Cs1 Se4 3.728551 1_545
Cs1 Se9 3.823087 1_555
Cs1 Se11 3.848702 1_455
Cs2 Se13 3.610824 1_555
Cs2 Se12 3.646567 1_555
Cs2 Se4 3.704662 1_555
Cs2 Se3 3.709823 1_555
Cs2 Se10 3.759238 1_555
Cs2 Se7 3.788495 1_555
Cs2 Se8 3.890702 1_565
Cs3 Se12 3.610824 1_555
Cs3 Se13 3.646567 1_655
Cs3 Se5 3.704662 1_556
Cs3 Se2 3.709823 1_656
Cs3 Se11 3.759238 1_556
Cs3 Se6 3.788495 1_565
Cs3 Se9 3.890702 1_655
Cs4 Se13 3.610824 1_555
Cs4 Se12 3.646567 1_555
Cs4 Se2 3.704662 1_556
Cs4 Se5 3.709823 1_556
Cs4 Se10 3.759238 1_556
Cs4 Se1 3.788495 1_555
Cs4 Se8 3.890702 1_565
Cs5 Se12 3.610824 1_555
Cs5 Se13 3.646567 1_655
Cs5 Se3 3.704662 1_555
Cs5 Se4 3.709823 1_655
Cs5 Se11 3.759238 1_555
Cs5 Se0 3.788495 1_565
Cs5 Se9 3.890702 1_655
Cs6 S1 3.576261 1_555
Cs6 S0 3.593517 1_555
Cs6 Se0 3.687493 1_555
Cs6 Se7 3.714527 1_555
Cs6 Se3 3.728551 1_555
Cs6 Se8 3.823087 1_555
Cs6 Se10 3.848702 1_545
Cs7 S0 3.576261 1_555
Cs7 S1 3.593517 1_455
Cs7 Se1 3.687493 1_554
Cs7 Se6 3.714527 1_454
Cs7 Se2 3.728551 1_545
Cs7 Se9 3.823087 1_554
Cs7 Se11 3.848702 1_455
Cs8 Se12 3.585870 1_555
Cs8 Se9 3.754115 1_655
Cs8 Se8 3.784690 1_555
Cs8 Se1 3.818415 1_555
Cs8 Se7 3.818415 1_555
Cs8 Se5 4.214441 1_556
Cs8 Se3 4.214441 1_555
Cs9 Se13 3.585870 1_545
Cs9 Se8 3.754115 1_555
Cs9 Se9 3.784690 1_555
Cs9 Se6 3.818415 1_455
Cs9 Se0 3.818415 1_455
Cs9 Se2 4.214441 1_546
Cs9 Se4 4.214441 1_545
Cs10 S0 3.559850 1_555
Cs10 Se11 3.764173 1_455
Cs10 Se3 3.796736 1_555
Cs10 Se5 3.796736 1_555
Cs10 Se10 3.878886 1_555
Cs10 Se7 4.193209 1_555
Cs10 Se1 4.193209 1_554
Cs11 S1 3.559850 1_565
Cs11 Se10 3.764173 1_555
Cs11 Se4 3.796736 1_655
Cs11 Se2 3.796736 1_655
Cs11 Se11 3.878886 1_555
Cs11 Se0 4.193209 1_565
Cs11 Se6 4.193209 1_564
Nb0 Se12 2.407597 1_555
Nb0 Se6 2.409550 1_565
Nb0 Se0 2.409550 1_565
Nb0 Se8 2.418128 1_565
Nb1 Se13 2.407597 1_555
Nb1 Se1 2.409550 1_555
Nb1 Se7 2.409550 1_555
Nb1 Se9 2.418128 1_555
Nb2 S0 2.278702 1_555
Nb2 Se4 2.410762 1_545
Nb2 Se2 2.410762 1_545
Nb2 Se10 2.426767 1_545
Nb3 S1 2.278702 1_555
Nb3 Se3 2.410762 1_555
Nb3 Se5 2.410762 1_555
Nb3 Se11 2.426767 1_555
