# generated using pymatgen
data_Na2AlCuP2
_symmetry_space_group_name_H-M   'P 1'
_cell_length_a   8.86889188
_cell_length_b   8.86889085
_cell_length_c   5.54377410
_cell_angle_alpha   90.00000000
_cell_angle_beta   90.00000000
_cell_angle_gamma   101.36758025
_symmetry_Int_Tables_number   1
_chemical_formula_structural   Na2AlCuP2
_chemical_formula_sum   'Na8 Al4 Cu4 P8'
_cell_volume   427.50372686
_cell_formula_units_Z   4
loop_
 _symmetry_equiv_pos_site_id
 _symmetry_equiv_pos_as_xyz
  1  'x, y, z'
loop_
 _atom_site_type_symbol
 _atom_site_label
 _atom_site_symmetry_multiplicity
 _atom_site_fract_x
 _atom_site_fract_y
 _atom_site_fract_z
 _atom_site_occupancy
  Na  Na0  1  0.57048144  0.92951856  0.25000000  1
  Na  Na1  1  0.67750416  0.32249584  0.21815950  1
  Na  Na2  1  0.32249584  0.67750416  0.78184050  1
  Na  Na3  1  0.07048144  0.42951856  0.25000000  1
  Na  Na4  1  0.92951856  0.57048144  0.75000000  1
  Na  Na5  1  0.42951856  0.07048144  0.75000000  1
  Na  Na6  1  0.82249584  0.17750416  0.71815950  1
  Na  Na7  1  0.17750416  0.82249584  0.28184050  1
  Al  Al0  1  0.86863324  0.86863324  0.00000000  1
  Al  Al1  1  0.13136676  0.13136676  0.00000000  1
  Al  Al2  1  0.36863324  0.36863324  0.50000000  1
  Al  Al3  1  0.63136676  0.63136676  0.50000000  1
  Cu  Cu0  1  0.88308395  0.88308395  0.50000000  1
  Cu  Cu1  1  0.11691605  0.11691605  0.50000000  1
  Cu  Cu2  1  0.61691605  0.61691605  0.00000000  1
  Cu  Cu3  1  0.38308395  0.38308395  0.00000000  1
  P  P0  1  0.10346167  0.89653833  0.77491489  1
  P  P1  1  0.60346167  0.39653833  0.72508511  1
  P  P2  1  0.89653833  0.10346167  0.22508511  1
  P  P3  1  0.39653833  0.60346167  0.27491489  1
  P  P4  1  0.35412973  0.14587027  0.25000000  1
  P  P5  1  0.14587027  0.35412973  0.75000000  1
  P  P6  1  0.64587027  0.85412973  0.75000000  1
  P  P7  1  0.85412973  0.64587027  0.25000000  1
loop_
_geom_bond_atom_site_label_1
_geom_bond_atom_site_label_2
_geom_bond_distance
_geom_bond_site_symmetry_2
Na0 P6 2.958662 1_554
Na0 P6 2.958662 1_555
Na0 P4 2.969001 1_565
Na0 P3 3.000444 1_555
Na0 P2 3.000444 1_565
Na1 P1 2.916233 1_554
Na1 P1 2.988329 1_555
Na1 P7 2.989859 1_555
Na1 P4 2.989859 1_555
Na1 P2 3.006058 1_555
Na2 P3 2.916233 1_556
Na2 P3 2.988329 1_555
Na2 P5 2.989859 1_555
Na2 P6 2.989859 1_555
Na2 P0 3.006058 1_555
Na3 P5 2.958662 1_555
Na3 P5 2.958662 1_554
Na3 P7 2.969001 1_455
Na3 P2 3.000444 1_455
Na3 P3 3.000444 1_555
Na4 P7 2.958662 1_556
Na4 P7 2.958662 1_555
Na4 P5 2.969001 1_655
Na4 P0 3.000444 1_655
Na4 P1 3.000444 1_555
Na5 P4 2.958662 1_555
Na5 P4 2.958662 1_556
Na5 P6 2.969001 1_545
Na5 P1 3.000444 1_555
Na5 P0 3.000444 1_545
Na6 P2 2.916233 1_555
Na6 P2 2.988329 1_556
Na6 P6 2.989859 1_545
Na6 P5 2.989859 1_655
Na6 P1 3.006058 1_555
Na7 P0 2.916233 1_555
Na7 P0 2.988329 1_554
Na7 P4 2.989859 1_565
Na7 P7 2.989859 1_455
Na7 P3 3.006058 1_555
Al0 P7 2.395922 1_555
Al0 P6 2.395922 1_554
Al0 P2 2.398463 1_565
Al0 P0 2.398463 1_654
Al0 Cu0 2.776641 1_554
Al0 Cu0 2.776641 1_555
Al0 Cu2 2.828963 1_555
Al1 P5 2.395922 1_554
Al1 P4 2.395922 1_555
Al1 P0 2.398463 1_544
Al1 P2 2.398463 1_455
Al1 Cu1 2.776641 1_555
Al1 Cu1 2.776641 1_554
Al1 Cu3 2.828963 1_555
Al2 P4 2.395922 1_555
Al2 P5 2.395922 1_555
Al2 P3 2.398463 1_555
Al2 P1 2.398463 1_555
Al2 Cu3 2.776641 1_556
Al2 Cu3 2.776641 1_555
Al2 Cu1 2.828963 1_555
Al3 P6 2.395922 1_555
Al3 P7 2.395922 1_555
Al3 P1 2.398463 1_555
Al3 P3 2.398463 1_555
Al3 Cu2 2.776641 1_555
Al3 Cu2 2.776641 1_556
Al3 Cu0 2.828963 1_555
Cu0 P2 2.462757 1_565
Cu0 P0 2.462757 1_655
Cu0 P7 2.489956 1_555
Cu0 P6 2.489957 1_555
Cu0 Cu1 2.627958 1_665
Cu0 Na6 3.020404 1_565
Cu0 Na7 3.020404 1_655
Cu0 Na4 3.197958 1_555
Cu0 Na0 3.197958 1_555
Cu1 P0 2.462757 1_545
Cu1 P2 2.462757 1_455
Cu1 P5 2.489956 1_555
Cu1 P4 2.489957 1_555
Cu1 Na7 3.020404 1_545
Cu1 Na6 3.020404 1_455
Cu1 Na3 3.197958 1_555
Cu1 Na5 3.197958 1_555
Cu2 P1 2.462757 1_554
Cu2 P3 2.462757 1_555
Cu2 P6 2.489956 1_554
Cu2 P7 2.489957 1_555
Cu2 Cu3 2.627958 1_555
Cu2 Na1 3.020404 1_555
Cu2 Na2 3.020404 1_554
Cu2 Na0 3.197958 1_555
Cu2 Na4 3.197958 1_554
Cu3 P3 2.462757 1_555
Cu3 P1 2.462757 1_554
Cu3 P4 2.489956 1_555
Cu3 P5 2.489957 1_554
Cu3 Na2 3.020404 1_554
Cu3 Na1 3.020404 1_555
Cu3 Na5 3.197958 1_554
Cu3 Na3 3.197958 1_555
