# generated using pymatgen
data_FeAs(SeO3)4
_symmetry_space_group_name_H-M   'P 1'
_cell_length_a   7.85065276
_cell_length_b   7.99765651
_cell_length_c   7.86805506
_cell_angle_alpha   89.41731538
_cell_angle_beta   90.00000000
_cell_angle_gamma   90.00000000
_symmetry_Int_Tables_number   1
_chemical_formula_structural   FeAs(SeO3)4
_chemical_formula_sum   'Fe2 As2 Se8 O24'
_cell_volume   493.98464376
_cell_formula_units_Z   2
loop_
 _symmetry_equiv_pos_site_id
 _symmetry_equiv_pos_as_xyz
  1  'x, y, z'
loop_
 _atom_site_type_symbol
 _atom_site_label
 _atom_site_symmetry_multiplicity
 _atom_site_fract_x
 _atom_site_fract_y
 _atom_site_fract_z
 _atom_site_occupancy
  Fe  Fe0  1  0.00000000  0.50000000  0.00000000  1
  Fe  Fe1  1  0.50000000  0.50000000  0.50000000  1
  As  As0  1  0.00000000  0.00000000  0.50000000  1
  As  As1  1  0.50000000  0.00000000  0.00000000  1
  Se  Se0  1  0.33725283  0.67481761  0.16337586  1
  Se  Se1  1  0.83725283  0.32518239  0.33662414  1
  Se  Se2  1  0.67922057  0.83713186  0.67913360  1
  Se  Se3  1  0.17922057  0.16286814  0.82086640  1
  Se  Se4  1  0.66274717  0.32518239  0.83662414  1
  Se  Se5  1  0.16274717  0.67481761  0.66337586  1
  Se  Se6  1  0.32077943  0.16286814  0.32086640  1
  Se  Se7  1  0.82077943  0.83713186  0.17913360  1
  O  O0  1  0.24671907  0.54720107  0.02079812  1
  O  O1  1  0.74671907  0.45279893  0.47920188  1
  O  O2  1  0.76795969  0.98775917  0.53896711  1
  O  O3  1  0.26795969  0.01224083  0.96103289  1
  O  O4  1  0.53754058  0.98320842  0.76847488  1
  O  O5  1  0.48206620  0.54655391  0.25345242  1
  O  O6  1  0.98206620  0.45344609  0.24654758  1
  O  O7  1  0.03754058  0.01679158  0.73152512  1
  O  O8  1  0.98616010  0.22582447  0.48109966  1
  O  O9  1  0.54684325  0.74733328  0.54330168  1
  O  O10  1  0.48616010  0.77417553  0.01890034  1
  O  O11  1  0.04684325  0.25266672  0.95669832  1
  O  O12  1  0.75328093  0.45279893  0.97920188  1
  O  O13  1  0.25328093  0.54720107  0.52079812  1
  O  O14  1  0.23204031  0.01224083  0.46103289  1
  O  O15  1  0.73204031  0.98775917  0.03896711  1
  O  O16  1  0.46245942  0.01679158  0.23152512  1
  O  O17  1  0.51793380  0.45344609  0.74654758  1
  O  O18  1  0.01793380  0.54655391  0.75345242  1
  O  O19  1  0.96245942  0.98320842  0.26847488  1
  O  O20  1  0.01383990  0.77417553  0.51890034  1
  O  O21  1  0.45315675  0.25266672  0.45669832  1
  O  O22  1  0.51383990  0.22582447  0.98109966  1
  O  O23  1  0.95315675  0.74733328  0.04330168  1
loop_
_geom_bond_atom_site_label_1
_geom_bond_atom_site_label_2
_geom_bond_distance
_geom_bond_site_symmetry_2
Fe0 O6 1.976556 1_455
Fe0 O18 1.976556 1_554
Fe0 O0 1.980440 1_555
Fe0 O12 1.980440 1_454
Fe0 O23 2.043979 1_455
Fe0 O11 2.043979 1_554
Fe1 O17 1.976556 1_555
Fe1 O5 1.976556 1_555
Fe1 O13 1.980440 1_555
Fe1 O1 1.980440 1_555
Fe1 O9 2.043979 1_555
Fe1 O21 2.043979 1_555
As0 O8 1.813928 1_455
As0 O20 1.813928 1_545
As0 O14 1.849716 1_555
As0 O2 1.849716 1_445
As0 O7 1.851563 1_555
As0 O19 1.851563 1_445
As1 O22 1.813928 1_554
As1 O10 1.813928 1_545
As1 O15 1.849716 1_545
As1 O3 1.849716 1_554
As1 O16 1.851563 1_555
As1 O4 1.851563 1_544
O0 Se0 1.681844 1_555
O1 Se1 1.681844 1_555
O2 Se2 1.767989 1_555
O3 Se3 1.767989 1_555
O4 Se2 1.764328 1_555
O5 Se0 1.682940 1_555
O6 Se1 1.682940 1_555
O7 Se3 1.764328 1_555
O8 Se1 1.808826 1_555
O9 Se2 1.659403 1_555
O10 Se0 1.808826 1_555
O11 Se3 1.659403 1_555
O12 Se4 1.681844 1_555
O13 Se5 1.681844 1_555
O14 Se6 1.767989 1_555
O15 Se7 1.767989 1_555
O16 Se6 1.764328 1_555
O17 Se4 1.682940 1_555
O18 Se5 1.682940 1_555
O19 Se7 1.764328 1_555
O20 Se5 1.808826 1_555
O21 Se6 1.659403 1_555
O22 Se4 1.808826 1_555
O23 Se7 1.659403 1_555
