# generated using pymatgen
data_Rb2ScP2S7
_symmetry_space_group_name_H-M   'P 1'
_cell_length_a   9.21952932
_cell_length_b   9.21952969
_cell_length_c   8.89082750
_cell_angle_alpha   73.07977062
_cell_angle_beta   73.07977020
_cell_angle_gamma   71.10007301
_symmetry_Int_Tables_number   1
_chemical_formula_structural   Rb2ScP2S7
_chemical_formula_sum   'Rb4 Sc2 P4 S14'
_cell_volume   667.66462951
_cell_formula_units_Z   2
loop_
 _symmetry_equiv_pos_site_id
 _symmetry_equiv_pos_as_xyz
  1  'x, y, z'
loop_
 _atom_site_type_symbol
 _atom_site_label
 _atom_site_symmetry_multiplicity
 _atom_site_fract_x
 _atom_site_fract_y
 _atom_site_fract_z
 _atom_site_occupancy
  Rb  Rb0  1  0.60877223  0.05269036  0.16633862  1
  Rb  Rb1  1  0.94730964  0.39122777  0.83366138  1
  Rb  Rb2  1  0.39122777  0.94730964  0.83366138  1
  Rb  Rb3  1  0.05269036  0.60877223  0.16633862  1
  Sc  Sc0  1  0.68163560  0.31836440  0.50000000  1
  Sc  Sc1  1  0.31836440  0.68163560  0.50000000  1
  P  P0  1  0.94491411  0.94491411  0.43951759  1
  P  P1  1  0.05508589  0.05508589  0.56048241  1
  P  P2  1  0.39187890  0.39187890  0.81314138  1
  P  P3  1  0.60812110  0.60812110  0.18685862  1
  S  S0  1  0.68765682  0.37211083  0.19997219  1
  S  S1  1  0.62788917  0.31234318  0.80002781  1
  S  S2  1  0.31234318  0.62788917  0.80002781  1
  S  S3  1  0.37211083  0.68765682  0.19997219  1
  S  S4  1  0.99998700  0.99998700  0.20217055  1
  S  S5  1  0.00001300  0.00001300  0.79782945  1
  S  S6  1  0.70949493  0.02405201  0.53224123  1
  S  S7  1  0.97594799  0.29050507  0.46775877  1
  S  S8  1  0.29050507  0.97594799  0.46775877  1
  S  S9  1  0.02405201  0.70949493  0.53224123  1
  S  S10  1  0.27100443  0.27100443  0.00216908  1
  S  S11  1  0.72899557  0.72899557  0.99783092  1
  S  S12  1  0.36888907  0.36888907  0.59263093  1
  S  S13  1  0.63111093  0.63111093  0.40736907  1
loop_
_geom_bond_atom_site_label_1
_geom_bond_atom_site_label_2
_geom_bond_distance
_geom_bond_site_symmetry_2
Rb0 S0 3.364151 1_555
Rb0 S1 3.430683 1_554
Rb0 S11 3.445605 1_544
Rb0 S8 3.457801 1_545
Rb0 S6 3.551735 1_555
Rb0 S10 3.571296 1_555
Rb0 S4 3.576322 1_545
Rb0 S13 3.825140 1_545
Rb1 S1 3.364151 1_555
Rb1 S0 3.430683 1_556
Rb1 S10 3.445605 1_656
Rb1 S9 3.457801 1_655
Rb1 S7 3.551735 1_555
Rb1 S11 3.571296 1_555
Rb1 S5 3.576323 1_655
Rb1 S12 3.825140 1_655
Rb2 S2 3.364151 1_555
Rb2 S3 3.430683 1_556
Rb2 S10 3.445605 1_566
Rb2 S6 3.457801 1_565
Rb2 S8 3.551735 1_555
Rb2 S11 3.571296 1_555
Rb2 S5 3.576322 1_565
Rb2 S12 3.825140 1_565
Rb3 S3 3.364151 1_555
Rb3 S2 3.430683 1_554
Rb3 S11 3.445605 1_454
Rb3 S7 3.457801 1_455
Rb3 S9 3.551735 1_555
Rb3 S10 3.571296 1_555
Rb3 S4 3.576323 1_455
Rb3 S13 3.825140 1_455
P0 S4 1.971872 1_555
P0 S6 2.050736 1_565
P0 S9 2.050737 1_655
P0 P1 2.271602 1_665
P1 S5 1.971872 1_555
P1 S8 2.050736 1_545
P1 S7 2.050737 1_455
P2 S10 1.983044 1_556
P2 S1 2.038210 1_555
P2 S2 2.038210 1_555
P2 S12 2.108638 1_555
P3 S11 1.983044 1_554
P3 S3 2.038210 1_555
P3 S0 2.038210 1_555
P3 S13 2.108638 1_555
S0 Sc0 2.554680 1_555
S1 Sc0 2.554680 1_555
S2 Sc1 2.554680 1_555
S3 Sc1 2.554680 1_555
S6 Sc0 2.578645 1_555
S7 Sc0 2.578645 1_555
S8 Sc1 2.578645 1_555
S9 Sc1 2.578645 1_555
S12 Sc0 2.679562 1_555
S12 Sc1 2.679562 1_555
S13 Sc1 2.679562 1_555
S13 Sc0 2.679562 1_555
