# generated using pymatgen
data_Ba2Ca(AlAs2)2
_symmetry_space_group_name_H-M   'P 1'
_cell_length_a   7.29636230
_cell_length_b   11.47234342
_cell_length_c   11.68388493
_cell_angle_alpha   90.00000000
_cell_angle_beta   90.00000000
_cell_angle_gamma   90.00000000
_symmetry_Int_Tables_number   1
_chemical_formula_structural   Ba2Ca(AlAs2)2
_chemical_formula_sum   'Ba8 Ca4 Al8 As16'
_cell_volume   978.01564106
_cell_formula_units_Z   4
loop_
 _symmetry_equiv_pos_site_id
 _symmetry_equiv_pos_as_xyz
  1  'x, y, z'
loop_
 _atom_site_type_symbol
 _atom_site_label
 _atom_site_symmetry_multiplicity
 _atom_site_fract_x
 _atom_site_fract_y
 _atom_site_fract_z
 _atom_site_occupancy
  Ba  Ba0  1  0.59278725  0.06894839  0.36513489  1
  Ba  Ba1  1  0.09278725  0.43105161  0.13486511  1
  Ba  Ba2  1  0.40721275  0.56894839  0.63486511  1
  Ba  Ba3  1  0.90721275  0.93105161  0.86513489  1
  Ba  Ba4  1  0.40721275  0.93105161  0.63486511  1
  Ba  Ba5  1  0.90721275  0.56894839  0.86513489  1
  Ba  Ba6  1  0.59278725  0.43105161  0.36513489  1
  Ba  Ba7  1  0.09278725  0.06894839  0.13486511  1
  Ca  Ca0  1  0.59396216  0.25000000  0.74481029  1
  Ca  Ca1  1  0.09396216  0.25000000  0.75518971  1
  Ca  Ca2  1  0.40603784  0.75000000  0.25518971  1
  Ca  Ca3  1  0.90603784  0.75000000  0.24481029  1
  Al  Al0  1  0.56966121  0.12424314  0.03660857  1
  Al  Al1  1  0.06966121  0.37575686  0.46339143  1
  Al  Al2  1  0.43033879  0.62424314  0.96339143  1
  Al  Al3  1  0.93033879  0.87575686  0.53660857  1
  Al  Al4  1  0.43033879  0.87575686  0.96339143  1
  Al  Al5  1  0.93033879  0.62424314  0.53660857  1
  Al  Al6  1  0.56966121  0.37575686  0.03660857  1
  Al  Al7  1  0.06966121  0.12424314  0.46339143  1
  As  As0  1  0.65517580  0.56960199  0.11782954  1
  As  As1  1  0.15517580  0.93039801  0.38217046  1
  As  As2  1  0.34482420  0.06960199  0.88217046  1
  As  As3  1  0.84482420  0.43039801  0.61782954  1
  As  As4  1  0.34482420  0.43039801  0.88217046  1
  As  As5  1  0.84482420  0.06960199  0.61782954  1
  As  As6  1  0.65517580  0.93039801  0.11782954  1
  As  As7  1  0.15517580  0.56960199  0.38217046  1
  As  As8  1  0.82569497  0.25000000  0.95643792  1
  As  As9  1  0.32569497  0.25000000  0.54356208  1
  As  As10  1  0.17430503  0.75000000  0.04356208  1
  As  As11  1  0.67430503  0.75000000  0.45643792  1
  As  As12  1  0.92352226  0.25000000  0.32193103  1
  As  As13  1  0.42352226  0.25000000  0.17806897  1
  As  As14  1  0.07647774  0.75000000  0.67806897  1
  As  As15  1  0.57647774  0.75000000  0.82193103  1
loop_
_geom_bond_atom_site_label_1
_geom_bond_atom_site_label_2
_geom_bond_distance
_geom_bond_site_symmetry_2
Al0 As13 2.439301 1_555
Al0 As6 2.497080 1_545
Al0 As2 2.517968 1_554
Al0 As8 2.539435 1_554
Al1 As12 2.439301 1_455
Al1 As7 2.497080 1_555
Al1 As3 2.517968 1_455
Al1 As9 2.539435 1_555
Al2 As15 2.439301 1_555
Al2 As4 2.497080 1_555
Al2 As0 2.517968 1_556
Al2 As10 2.539435 1_556
Al3 As14 2.439301 1_655
Al3 As5 2.497080 1_565
Al3 As1 2.517968 1_655
Al3 As11 2.539435 1_555
Al4 As15 2.439301 1_555
Al4 As2 2.497080 1_565
Al4 As6 2.517968 1_556
Al4 As10 2.539435 1_556
Al5 As14 2.439301 1_655
Al5 As3 2.497080 1_555
Al5 As7 2.517968 1_655
Al5 As11 2.539435 1_555
Al6 As13 2.439301 1_555
Al6 As0 2.497080 1_555
Al6 As4 2.517968 1_554
Al6 As8 2.539435 1_554
Al7 As12 2.439301 1_455
Al7 As1 2.497080 1_545
Al7 As5 2.517968 1_455
Al7 As9 2.539435 1_555
As0 Ca3 3.136023 1_555
As0 Ca2 3.187993 1_555
As0 Ba6 3.329092 1_555
As0 Ba5 3.478332 1_554
As0 Ba1 3.572281 1_655
As1 Ca2 3.136023 1_555
As1 Ca3 3.187993 1_455
As1 Ba7 3.329092 1_565
As1 Ba4 3.478332 1_555
As1 Ba0 3.572281 1_565
As2 Ca1 3.136023 1_555
As2 Ca0 3.187993 1_555
As2 Ba4 3.329092 1_545
As2 Ba7 3.478332 1_556
As2 Ba3 3.572281 1_445
As3 Ca0 3.136023 1_555
As3 Ca1 3.187993 1_655
As3 Ba5 3.329092 1_555
As3 Ba6 3.478332 1_555
As3 Ba2 3.572281 1_555
As4 Ca1 3.136023 1_555
As4 Ca0 3.187993 1_555
As4 Ba2 3.329092 1_555
As4 Ba1 3.478332 1_556
As4 Ba5 3.572281 1_455
As5 Ca0 3.136023 1_555
As5 Ca1 3.187993 1_655
As5 Ba3 3.329092 1_545
As5 Ba0 3.478332 1_555
As5 Ba4 3.572281 1_545
As6 Ca3 3.136023 1_555
As6 Ca2 3.187993 1_555
As6 Ba0 3.329092 1_565
As6 Ba3 3.478332 1_554
As6 Ba7 3.572281 1_665
As7 Ca2 3.136023 1_555
As7 Ca3 3.187993 1_455
As7 Ba1 3.329092 1_555
As7 Ba2 3.478332 1_555
As7 Ba6 3.572281 1_555
As8 Ca0 2.995453 1_555
As8 Ca1 3.059447 1_655
As8 Ba1 3.529616 1_656
As8 Ba7 3.529616 1_656
As8 Ba5 3.857548 1_555
As8 Ba3 3.857548 1_545
As9 Ca1 2.995453 1_555
As9 Ca0 3.059447 1_555
As9 Ba6 3.529616 1_555
As9 Ba0 3.529616 1_555
As9 Ba2 3.857548 1_555
As9 Ba4 3.857548 1_545
As10 Ca2 2.995453 1_555
As10 Ca3 3.059447 1_455
As10 Ba3 3.529616 1_454
As10 Ba5 3.529616 1_454
As10 Ba7 3.857548 1_565
As10 Ba1 3.857548 1_555
As11 Ca3 2.995453 1_555
As11 Ca2 3.059447 1_555
As11 Ba4 3.529616 1_555
As11 Ba2 3.529616 1_555
As11 Ba0 3.857548 1_565
As11 Ba6 3.857548 1_555
As12 Ba6 3.223733 1_555
As12 Ba0 3.223733 1_555
As12 Ba1 3.258321 1_655
As12 Ba7 3.258321 1_655
As13 Ba1 3.223733 1_555
As13 Ba7 3.223733 1_555
As13 Ba6 3.258321 1_555
As13 Ba0 3.258321 1_555
As14 Ba4 3.223733 1_555
As14 Ba2 3.223733 1_555
As14 Ba3 3.258321 1_455
As14 Ba5 3.258321 1_455
As15 Ba3 3.223733 1_555
As15 Ba5 3.223733 1_555
As15 Ba4 3.258321 1_555
As15 Ba2 3.258321 1_555
