# generated using pymatgen
data_Y2MoRuC3
_symmetry_space_group_name_H-M   'P 1'
_cell_length_a   6.03498210
_cell_length_b   6.03498217
_cell_length_c   5.69682120
_cell_angle_alpha   112.64758514
_cell_angle_beta   112.64758560
_cell_angle_gamma   32.32215676
_symmetry_Int_Tables_number   1
_chemical_formula_structural   Y2MoRuC3
_chemical_formula_sum   'Y2 Mo1 Ru1 C3'
_cell_volume   101.63192164
_cell_formula_units_Z   1
loop_
 _symmetry_equiv_pos_site_id
 _symmetry_equiv_pos_as_xyz
  1  'x, y, z'
loop_
 _atom_site_type_symbol
 _atom_site_label
 _atom_site_symmetry_multiplicity
 _atom_site_fract_x
 _atom_site_fract_y
 _atom_site_fract_z
 _atom_site_occupancy
  Y  Y0  1  0.60915828  0.60915828  0.31919355  1
  Y  Y1  1  0.39188066  0.39188066  0.67055709  1
  Mo  Mo0  1  0.15857571  0.15857571  0.82297013  1
  Ru  Ru0  1  0.84059669  0.84059669  0.18205557  1
  C  C0  1  0.24749134  0.24749134  0.22793830  1
  C  C1  1  0.99867294  0.99867294  0.50355510  1
  C  C2  1  0.75362339  0.75362339  0.77372927  1
loop_
_geom_bond_atom_site_label_1
_geom_bond_atom_site_label_2
_geom_bond_distance
_geom_bond_site_symmetry_2
C0 Ru0 2.069107 1_545
C0 Ru0 2.069107 1_455
C0 Mo0 2.116169 1_554
C0 Y1 2.403281 1_555
C0 Y0 2.516385 1_455
C0 Y0 2.516385 1_545
C1 Ru0 2.005399 1_555
C1 Mo0 2.010691 1_665
C1 Y1 2.490765 1_565
C1 Y1 2.490765 1_655
C1 Y0 2.577582 1_655
C1 Y0 2.577582 1_565
C2 Mo0 2.088613 1_565
C2 Mo0 2.088614 1_655
C2 Ru0 2.132388 1_556
C2 Y0 2.456162 1_555
C2 Y1 2.547832 1_655
C2 Y1 2.547832 1_565
