# generated using pymatgen
data_LiCa2ReN4
_symmetry_space_group_name_H-M   'P 1'
_cell_length_a   5.75736426
_cell_length_b   5.87543515
_cell_length_c   6.57741904
_cell_angle_alpha   73.71800401
_cell_angle_beta   90.00000000
_cell_angle_gamma   90.00000000
_symmetry_Int_Tables_number   1
_chemical_formula_structural   LiCa2ReN4
_chemical_formula_sum   'Li2 Ca4 Re2 N8'
_cell_volume   213.57099877
_cell_formula_units_Z   2
loop_
 _symmetry_equiv_pos_site_id
 _symmetry_equiv_pos_as_xyz
  1  'x, y, z'
loop_
 _atom_site_type_symbol
 _atom_site_label
 _atom_site_symmetry_multiplicity
 _atom_site_fract_x
 _atom_site_fract_y
 _atom_site_fract_z
 _atom_site_occupancy
  Li  Li0  1  0.75000000  0.29141900  0.30936693  1
  Li  Li1  1  0.25000000  0.70858100  0.69063307  1
  Ca  Ca0  1  0.25000000  0.27407142  0.05246262  1
  Ca  Ca1  1  0.75000000  0.72592858  0.94753738  1
  Ca  Ca2  1  0.75000000  0.77003257  0.43210960  1
  Ca  Ca3  1  0.25000000  0.22996743  0.56789040  1
  Re  Re0  1  0.25000000  0.73266730  0.19625010  1
  Re  Re1  1  0.75000000  0.26733270  0.80374990  1
  N  N0  1  0.50239029  0.46831258  0.75171564  1
  N  N1  1  0.00239029  0.53168742  0.24828436  1
  N  N2  1  0.49760971  0.53168742  0.24828436  1
  N  N3  1  0.99760971  0.46831258  0.75171564  1
  N  N4  1  0.75000000  0.07328761  0.62811239  1
  N  N5  1  0.25000000  0.92671239  0.37188761  1
  N  N6  1  0.75000000  0.09194344  0.07940223  1
  N  N7  1  0.25000000  0.90805656  0.92059777  1
loop_
_geom_bond_atom_site_label_1
_geom_bond_atom_site_label_2
_geom_bond_distance
_geom_bond_site_symmetry_2
Li0 N1 1.986892 1_655
Li0 N2 1.986892 1_555
Li0 N4 2.128685 1_555
Li0 N6 2.157663 1_555
Li1 N0 1.986892 1_555
Li1 N3 1.986892 1_455
Li1 N5 2.128685 1_555
Li1 N7 2.157663 1_555
Ca0 N0 2.461934 1_554
Ca0 N3 2.461934 1_454
Ca0 N5 2.484962 1_545
Ca0 N7 2.534318 1_544
Ca0 N2 2.659960 1_555
Ca0 N1 2.659960 1_555
Ca1 N1 2.461934 1_656
Ca1 N2 2.461934 1_556
Ca1 N4 2.484962 1_565
Ca1 N6 2.534318 1_566
Ca1 N3 2.659960 1_555
Ca1 N0 2.659960 1_555
Ca2 N4 2.474809 1_565
Ca2 N1 2.546353 1_655
Ca2 N2 2.546353 1_555
Ca2 N6 2.549286 1_565
Ca2 N3 2.739419 1_555
Ca2 N0 2.739419 1_555
Ca2 N5 3.014412 1_655
Ca2 N5 3.014412 1_555
Ca3 N5 2.474809 1_545
Ca3 N0 2.546353 1_555
Ca3 N3 2.546353 1_455
Ca3 N7 2.549286 1_545
Ca3 N2 2.739419 1_555
Ca3 N1 2.739419 1_555
Ca3 N4 3.014412 1_555
Ca3 N4 3.014412 1_455
N0 Re1 1.821315 1_555
N1 Re0 1.821315 1_555
N2 Re0 1.821315 1_555
N3 Re1 1.821315 1_555
N4 Re1 1.836557 1_555
N5 Re0 1.836557 1_555
N6 Re1 1.817009 1_554
N7 Re0 1.817009 1_556
