# generated using pymatgen
data_CsP6(AuO9)2
_symmetry_space_group_name_H-M   'P 1'
_cell_length_a   5.34408745
_cell_length_b   9.61102625
_cell_length_c   8.93925101
_cell_angle_alpha   86.17949727
_cell_angle_beta   71.74673081
_cell_angle_gamma   68.97340407
_symmetry_Int_Tables_number   1
_chemical_formula_structural   CsP6(AuO9)2
_chemical_formula_sum   'Cs1 P6 Au2 O18'
_cell_volume   406.45960300
_cell_formula_units_Z   1
loop_
 _symmetry_equiv_pos_site_id
 _symmetry_equiv_pos_as_xyz
  1  'x, y, z'
loop_
 _atom_site_type_symbol
 _atom_site_label
 _atom_site_symmetry_multiplicity
 _atom_site_fract_x
 _atom_site_fract_y
 _atom_site_fract_z
 _atom_site_occupancy
  Cs  Cs0  1  0.00000558  0.00001680  0.00000214  1
  P  P0  1  0.03535620  0.78646157  0.56206269  1
  P  P1  1  0.96464030  0.21353260  0.43794335  1
  P  P2  1  0.92230964  0.46192095  0.23062382  1
  P  P3  1  0.07770234  0.53807499  0.76935991  1
  P  P4  1  0.50204259  0.22770196  0.74322808  1
  P  P5  1  0.49795468  0.77229978  0.25678319  1
  Au  Au0  1  0.50000509  0.99999834  0.50000694  1
  Au  Au1  1  0.49998025  0.50000445  0.00001062  1
  O  O0  1  0.07056505  0.89547291  0.65292312  1
  O  O1  1  0.92942344  0.10453490  0.34707215  1
  O  O2  1  0.84402079  0.40708285  0.10626465  1
  O  O3  1  0.15594071  0.59291243  0.89373329  1
  O  O4  1  0.15819812  0.61942460  0.60896863  1
  O  O5  1  0.84179034  0.38058437  0.39104205  1
  O  O6  1  0.21382536  0.77032653  0.38041557  1
  O  O7  1  0.78617027  0.22966918  0.61959194  1
  O  O8  1  0.72287083  0.62715133  0.29566379  1
  O  O9  1  0.27714040  0.37284546  0.70433883  1
  O  O10  1  0.26221986  0.19366917  0.43766470  1
  O  O11  1  0.73779269  0.80634054  0.56233814  1
  O  O12  1  0.77893723  0.55066514  0.79920764  1
  O  O13  1  0.22109690  0.44932272  0.20076578  1
  O  O14  1  0.43062368  0.09596575  0.70698479  1
  O  O15  1  0.56937259  0.90403381  0.29301681  1
  O  O16  1  0.51442932  0.22938747  0.90418079  1
  O  O17  1  0.48558375  0.77059841  0.09580858  1
loop_
_geom_bond_atom_site_label_1
_geom_bond_atom_site_label_2
_geom_bond_distance
_geom_bond_site_symmetry_2
Cs0 O16 3.059902 1_454
Cs0 O17 3.060025 1_545
Cs0 O1 3.191780 1_455
Cs0 O0 3.191977 1_544
Cs0 O14 3.229883 1_554
Cs0 O15 3.230073 1_445
Au0 O14 1.990928 1_565
Au0 O15 1.991034 1_555
Au0 O11 1.999405 1_555
Au0 O10 1.999527 1_565
Au1 O13 2.099539 1_555
Au1 O12 2.099923 1_554
Au1 O2 2.209701 1_555
Au1 O3 2.209825 1_554
O0 P0 1.464041 1_555
O1 P1 1.464022 1_555
O2 P2 1.488734 1_555
O3 P3 1.488667 1_555
O4 P0 1.584462 1_555
O4 P3 1.599269 1_555
O5 P1 1.584575 1_555
O5 P2 1.599412 1_555
O6 P5 1.579239 1_555
O6 P0 1.589858 1_555
O7 P4 1.579228 1_555
O7 P1 1.589870 1_555
O8 P5 1.582864 1_555
O8 P2 1.586230 1_555
O9 P4 1.582828 1_555
O9 P3 1.586185 1_555
O10 P1 1.531403 1_455
O11 P0 1.531290 1_655
O12 P3 1.494606 1_655
O13 P2 1.494686 1_455
O14 P4 1.527285 1_555
O15 P5 1.527233 1_555
O16 P4 1.462299 1_555
O17 P5 1.462479 1_555
