# generated using pymatgen
data_Ga5Rh3
_symmetry_space_group_name_H-M   'P 1'
_cell_length_a   4.97288260
_cell_length_b   6.65241005
_cell_length_c   7.90277372
_cell_angle_alpha   100.91824740
_cell_angle_beta   104.64163680
_cell_angle_gamma   101.28807058
_symmetry_Int_Tables_number   1
_chemical_formula_structural   Ga5Rh3
_chemical_formula_sum   'Ga10 Rh6'
_cell_volume   240.06286715
_cell_formula_units_Z   2
loop_
 _symmetry_equiv_pos_site_id
 _symmetry_equiv_pos_as_xyz
  1  'x, y, z'
loop_
 _atom_site_type_symbol
 _atom_site_label
 _atom_site_symmetry_multiplicity
 _atom_site_fract_x
 _atom_site_fract_y
 _atom_site_fract_z
 _atom_site_occupancy
  Ga  Ga0  1  0.77251684  0.53794443  0.53550871  1
  Ga  Ga1  1  0.22748316  0.46205557  0.46449129  1
  Ga  Ga2  1  0.91721340  0.17833069  0.05108185  1
  Ga  Ga3  1  0.08278660  0.82166931  0.94891815  1
  Ga  Ga4  1  0.54855416  0.13974532  0.27233273  1
  Ga  Ga5  1  0.45144584  0.86025468  0.72766727  1
  Ga  Ga6  1  0.68230766  0.47267424  0.87267303  1
  Ga  Ga7  1  0.31769234  0.52732576  0.12732697  1
  Ga  Ga8  1  0.04084527  0.90481837  0.34764571  1
  Ga  Ga9  1  0.95915473  0.09518163  0.65235429  1
  Rh  Rh0  1  0.84672310  0.51320665  0.22424142  1
  Rh  Rh1  1  0.15327690  0.48679335  0.77575858  1
  Rh  Rh2  1  0.63626724  0.82707552  0.04990410  1
  Rh  Rh3  1  0.36373276  0.17292448  0.95009590  1
  Rh  Rh4  1  0.54659978  0.80463954  0.42240281  1
  Rh  Rh5  1  0.45340022  0.19536046  0.57759719  1
loop_
_geom_bond_atom_site_label_1
_geom_bond_atom_site_label_2
_geom_bond_distance
_geom_bond_site_symmetry_2
Ga0 Rh1 2.446508 1_655
Ga0 Rh4 2.466205 1_555
Ga0 Ga1 2.550300 1_555
Ga0 Rh0 2.558040 1_555
Ga0 Ga1 2.582729 1_655
Ga0 Rh5 2.638373 1_555
Ga0 Ga4 2.858340 1_555
Ga0 Ga6 2.907888 1_555
Ga1 Rh0 2.446508 1_455
Ga1 Rh5 2.466205 1_555
Ga1 Rh1 2.558040 1_555
Ga1 Rh4 2.638373 1_555
Ga1 Ga5 2.858340 1_555
Ga1 Ga7 2.907888 1_555
Ga2 Rh2 2.473719 1_545
Ga2 Rh0 2.520256 1_555
Ga2 Rh3 2.546575 1_654
Ga2 Ga7 2.602441 1_655
Ga2 Rh3 2.655895 1_554
Ga2 Ga3 2.708230 1_644
Ga2 Ga4 2.844369 1_555
Ga2 Ga6 2.880150 1_554
Ga3 Rh3 2.473719 1_565
Ga3 Rh1 2.520256 1_555
Ga3 Rh2 2.546575 1_456
Ga3 Ga6 2.602441 1_455
Ga3 Rh2 2.655895 1_556
Ga3 Ga5 2.844369 1_555
Ga3 Ga7 2.880150 1_556
Ga4 Rh3 2.547066 1_554
Ga4 Rh5 2.547187 1_555
Ga4 Rh2 2.638999 1_545
Ga4 Rh4 2.715713 1_545
Ga4 Rh0 2.777729 1_555
Ga4 Ga8 2.956096 1_545
Ga5 Rh2 2.547066 1_556
Ga5 Rh4 2.547187 1_555
Ga5 Rh3 2.638999 1_565
Ga5 Rh5 2.715713 1_565
Ga5 Rh1 2.777729 1_555
Ga5 Ga9 2.956096 1_565
Ga6 Rh5 2.518574 1_555
Ga6 Rh3 2.564359 1_555
Ga6 Rh1 2.573309 1_555
Ga6 Rh2 2.587483 1_556
Ga6 Rh1 2.632242 1_655
Ga6 Rh0 2.634768 1_556
Ga7 Rh4 2.518574 1_555
Ga7 Rh2 2.564359 1_555
Ga7 Rh0 2.573309 1_555
Ga7 Rh3 2.587483 1_554
Ga7 Rh0 2.632242 1_455
Ga7 Rh1 2.634768 1_554
Ga8 Rh0 2.499386 1_455
Ga8 Rh5 2.545476 1_565
Ga8 Rh2 2.567146 1_455
Ga8 Rh4 2.660085 1_455
Ga8 Ga9 2.666112 1_465
Ga8 Rh4 2.678212 1_555
Ga9 Rh1 2.499386 1_655
Ga9 Rh4 2.545476 1_545
Ga9 Rh3 2.567146 1_655
Ga9 Rh5 2.660085 1_655
Ga9 Rh5 2.678212 1_555
