# generated using pymatgen
data_BaInPb2Au
_symmetry_space_group_name_H-M   'P 1'
_cell_length_a   7.00553681
_cell_length_b   7.00553474
_cell_length_c   7.00553683
_cell_angle_alpha   137.93798635
_cell_angle_beta   137.93797725
_cell_angle_gamma   60.99800826
_symmetry_Int_Tables_number   1
_chemical_formula_structural   BaInPb2Au
_chemical_formula_sum   'Ba1 In1 Pb2 Au1'
_cell_volume   152.61278493
_cell_formula_units_Z   1
loop_
 _symmetry_equiv_pos_site_id
 _symmetry_equiv_pos_as_xyz
  1  'x, y, z'
loop_
 _atom_site_type_symbol
 _atom_site_label
 _atom_site_symmetry_multiplicity
 _atom_site_fract_x
 _atom_site_fract_y
 _atom_site_fract_z
 _atom_site_occupancy
  Ba  Ba0  1  0.98876403  0.98876403  1.00000000  1
  In  In0  1  0.59822071  0.59822071  0.00000000  1
  Pb  Pb0  1  0.74737801  0.24737801  0.50000000  1
  Pb  Pb1  1  0.24737801  0.74737801  0.50000000  1
  Au  Au0  1  0.37614924  0.37614924  1.00000000  1
loop_
_geom_bond_atom_site_label_1
_geom_bond_atom_site_label_2
_geom_bond_distance
_geom_bond_site_symmetry_2
Ba0 In0 3.793087 1_667
Ba0 In0 3.793088 1_566
Ba0 In0 3.793088 1_555
Ba0 In0 3.793089 1_656
Ba0 Pb0 3.848742 1_555
Ba0 Pb1 3.848743 1_555
Ba0 Pb1 3.848744 1_656
Ba0 Pb0 3.848744 1_566
Ba0 Pb1 4.008522 1_666
Ba0 Pb0 4.008524 1_666
Ba0 Pb0 4.008524 1_565
Ba0 Pb1 4.008525 1_655
In0 Pb0 3.092442 1_565
In0 Pb1 3.092443 1_655
In0 Pb0 3.092444 1_554
In0 Pb1 3.092444 1_554
Au0 In0 2.680951 1_556
Au0 Pb1 2.955914 1_545
Au0 Pb0 2.955915 1_455
Au0 Pb1 2.955916 1_556
Au0 Pb0 2.955916 1_556
Au0 Ba0 3.806537 1_556
Au0 Ba0 3.806538 1_455
Au0 Ba0 3.806538 1_444
Au0 Ba0 3.806539 1_545
