# generated using pymatgen
data_KRb3(HfI6)2
_symmetry_space_group_name_H-M   'P 1'
_cell_length_a   8.05174670
_cell_length_b   8.05174693
_cell_length_c   12.09120082
_cell_angle_alpha   90.00000000
_cell_angle_beta   90.00000000
_cell_angle_gamma   89.71693893
_symmetry_Int_Tables_number   1
_chemical_formula_structural   KRb3(HfI6)2
_chemical_formula_sum   'K1 Rb3 Hf2 I12'
_cell_volume   783.87056090
_cell_formula_units_Z   1
loop_
 _symmetry_equiv_pos_site_id
 _symmetry_equiv_pos_as_xyz
  1  'x, y, z'
loop_
 _atom_site_type_symbol
 _atom_site_label
 _atom_site_symmetry_multiplicity
 _atom_site_fract_x
 _atom_site_fract_y
 _atom_site_fract_z
 _atom_site_occupancy
  K  K0  1  0.00000000  0.50000000  0.25000000  1
  Rb  Rb0  1  0.50000000  0.00000000  0.75000000  1
  Rb  Rb1  1  0.00000000  0.50000000  0.75000000  1
  Rb  Rb2  1  0.50000000  0.00000000  0.25000000  1
  Hf  Hf0  1  0.50000000  0.50000000  0.49862330  1
  Hf  Hf1  1  0.00000000  0.00000000  0.00137670  1
  I  I0  1  0.70557150  0.19438799  0.99957305  1
  I  I1  1  0.69438799  0.20557150  0.50042695  1
  I  I2  1  0.30561201  0.79442850  0.50042695  1
  I  I3  1  0.29442850  0.80561201  0.99957305  1
  I  I4  1  0.79549217  0.69260158  0.49584994  1
  I  I5  1  0.20450783  0.30739842  0.49584994  1
  I  I6  1  0.00000000  0.00000000  0.23794340  1
  I  I7  1  0.50000000  0.50000000  0.26205660  1
  I  I8  1  0.00000000  0.00000000  0.76406246  1
  I  I9  1  0.50000000  0.50000000  0.73593754  1
  I  I10  1  0.80739842  0.70450783  0.00415006  1
  I  I11  1  0.19260158  0.29549217  0.00415006  1
loop_
_geom_bond_atom_site_label_1
_geom_bond_atom_site_label_2
_geom_bond_distance
_geom_bond_site_symmetry_2
Hf0 I2 2.834360 1_555
Hf0 I1 2.834360 1_555
Hf0 I4 2.846616 1_555
Hf0 I5 2.846616 1_555
Hf0 I7 2.860376 1_555
Hf0 I9 2.869414 1_555
Hf1 I3 2.834360 1_544
Hf1 I0 2.834360 1_454
Hf1 I11 2.846616 1_555
Hf1 I10 2.846616 1_445
Hf1 I6 2.860376 1_555
Hf1 I8 2.869414 1_554
I0 Rb0 3.784335 1_555
I0 Rb2 3.792573 1_556
I1 Rb0 3.784335 1_555
I1 Rb2 3.792573 1_555
I2 Rb0 3.784335 1_565
I2 Rb2 3.792573 1_565
I3 Rb0 3.784335 1_565
I3 Rb2 3.792573 1_566
I4 K0 3.731970 1_655
I4 Rb1 3.812391 1_655
I5 K0 3.731970 1_555
I5 Rb1 3.812391 1_555
I6 Rb2 4.028512 1_555
I6 Rb2 4.028512 1_455
I6 K0 4.028512 1_555
I6 K0 4.028512 1_545
I7 K0 4.028512 1_555
I7 K0 4.028512 1_655
I7 Rb2 4.028512 1_565
I7 Rb2 4.028512 1_555
I8 Rb0 4.029462 1_455
I8 Rb0 4.029462 1_555
I8 Rb1 4.029463 1_545
I8 Rb1 4.029463 1_555
I9 Rb1 4.029462 1_655
I9 Rb1 4.029462 1_555
I9 Rb0 4.029463 1_565
I9 Rb0 4.029463 1_555
I10 K0 3.731970 1_655
I10 Rb1 3.812391 1_654
I11 K0 3.731970 1_555
I11 Rb1 3.812391 1_554
