# generated using pymatgen
data_Zr2B(IrRh)3
_symmetry_space_group_name_H-M   'P 1'
_cell_length_a   5.69955585
_cell_length_b   5.69955585
_cell_length_c   5.69298853
_cell_angle_alpha   59.96182902
_cell_angle_beta   59.96183155
_cell_angle_gamma   60.00000209
_symmetry_Int_Tables_number   1
_chemical_formula_structural   Zr2B(IrRh)3
_chemical_formula_sum   'Zr2 B1 Ir3 Rh3'
_cell_volume   130.69426914
_cell_formula_units_Z   1
loop_
 _symmetry_equiv_pos_site_id
 _symmetry_equiv_pos_as_xyz
  1  'x, y, z'
loop_
 _atom_site_type_symbol
 _atom_site_label
 _atom_site_symmetry_multiplicity
 _atom_site_fract_x
 _atom_site_fract_y
 _atom_site_fract_z
 _atom_site_occupancy
  Zr  Zr0  1  0.74994701  0.74994701  0.75015898  1
  Zr  Zr1  1  0.24985030  0.24985030  0.25044811  1
  B  B0  1  0.99902048  0.99902048  0.00293956  1
  Ir  Ir0  1  0.25808570  0.25808570  0.74178775  1
  Ir  Ir1  1  0.74204086  0.25808570  0.74178775  1
  Ir  Ir2  1  0.25808570  0.74204086  0.74178775  1
  Rh  Rh0  1  0.74270510  0.74270510  0.25703003  1
  Rh  Rh1  1  0.25755977  0.74270510  0.25703003  1
  Rh  Rh2  1  0.74270510  0.25755977  0.25703003  1
loop_
_geom_bond_atom_site_label_1
_geom_bond_atom_site_label_2
_geom_bond_distance
_geom_bond_site_symmetry_2
B0 Rh1 2.064867 1_655
B0 Rh2 2.064867 1_565
B0 Rh0 2.064871 1_555
B0 Ir0 2.086978 1_664
B0 Ir1 2.086982 1_564
B0 Ir2 2.086982 1_654
Ir0 Zr1 2.844957 1_555
Ir0 Zr1 2.849578 1_556
Ir0 Zr0 2.850532 1_545
Ir0 Zr0 2.850532 1_455
Ir1 Zr1 2.844954 1_655
Ir1 Zr1 2.849580 1_556
Ir1 Zr0 2.850532 1_545
Ir1 Zr0 2.850532 1_555
Ir2 Zr1 2.844954 1_565
Ir2 Zr1 2.849580 1_556
Ir2 Zr0 2.850532 1_555
Ir2 Zr0 2.850532 1_455
Rh0 Zr0 2.844886 1_554
Rh0 Zr0 2.849298 1_555
Rh0 Zr1 2.850361 1_565
Rh0 Zr1 2.850361 1_655
Rh1 Zr0 2.844886 1_554
Rh1 Zr0 2.849298 1_455
Rh1 Zr1 2.850358 1_565
Rh1 Zr1 2.850364 1_555
Rh2 Zr0 2.844886 1_554
Rh2 Zr0 2.849298 1_545
Rh2 Zr1 2.850358 1_655
Rh2 Zr1 2.850364 1_555
