# generated using pymatgen
data_Rb4ReSnBr12
_symmetry_space_group_name_H-M   'P 1'
_cell_length_a   7.54754919
_cell_length_b   7.54754919
_cell_length_c   10.66378578
_cell_angle_alpha   90.00000000
_cell_angle_beta   90.00000000
_cell_angle_gamma   90.00000000
_symmetry_Int_Tables_number   1
_chemical_formula_structural   Rb4ReSnBr12
_chemical_formula_sum   'Rb4 Re1 Sn1 Br12'
_cell_volume   607.46787640
_cell_formula_units_Z   1
loop_
 _symmetry_equiv_pos_site_id
 _symmetry_equiv_pos_as_xyz
  1  'x, y, z'
loop_
 _atom_site_type_symbol
 _atom_site_label
 _atom_site_symmetry_multiplicity
 _atom_site_fract_x
 _atom_site_fract_y
 _atom_site_fract_z
 _atom_site_occupancy
  Rb  Rb0  1  0.50000000  0.00000000  0.74748646  1
  Rb  Rb1  1  0.00000000  0.50000000  0.25251354  1
  Rb  Rb2  1  0.50000000  0.00000000  0.25251354  1
  Rb  Rb3  1  0.00000000  0.50000000  0.74748646  1
  Re  Re0  1  0.50000000  0.50000000  0.50000000  1
  Sn  Sn0  1  0.00000000  0.00000000  0.00000000  1
  Br  Br0  1  0.00000000  0.00000000  0.75385226  1
  Br  Br1  1  0.50000000  0.50000000  0.26330370  1
  Br  Br2  1  0.73679918  0.73679918  0.50000000  1
  Br  Br3  1  0.24525092  0.24525092  0.00000000  1
  Br  Br4  1  0.73679918  0.26320082  0.50000000  1
  Br  Br5  1  0.24525092  0.75474908  0.00000000  1
  Br  Br6  1  0.00000000  0.00000000  0.24614774  1
  Br  Br7  1  0.50000000  0.50000000  0.73669630  1
  Br  Br8  1  0.26320082  0.26320082  0.50000000  1
  Br  Br9  1  0.75474908  0.75474908  0.00000000  1
  Br  Br10  1  0.26320082  0.73679918  0.50000000  1
  Br  Br11  1  0.75474908  0.24525092  0.00000000  1
loop_
_geom_bond_atom_site_label_1
_geom_bond_atom_site_label_2
_geom_bond_distance
_geom_bond_site_symmetry_2
Br0 Sn0 2.624867 1_556
Br0 Rb0 3.774385 1_455
Br0 Rb0 3.774385 1_555
Br0 Rb3 3.774385 1_545
Br0 Rb3 3.774385 1_555
Br1 Re0 2.524079 1_555
Br1 Rb1 3.775528 1_655
Br1 Rb1 3.775528 1_555
Br1 Rb2 3.775528 1_555
Br1 Rb2 3.775528 1_565
Br2 Re0 2.527558 1_555
Br2 Rb0 3.755744 1_565
Br2 Rb3 3.755744 1_655
Br2 Rb1 3.755744 1_655
Br2 Rb2 3.755744 1_565
Br3 Sn0 2.617771 1_555
Br3 Rb1 3.791327 1_555
Br3 Rb2 3.791327 1_555
Br3 Rb0 3.791327 1_554
Br3 Rb3 3.791327 1_554
Br4 Re0 2.527558 1_555
Br4 Rb0 3.755744 1_555
Br4 Rb2 3.755744 1_555
Br4 Rb3 3.755744 1_655
Br4 Rb1 3.755744 1_655
Br5 Sn0 2.617771 1_565
Br5 Rb1 3.791327 1_555
Br5 Rb2 3.791327 1_565
Br5 Rb3 3.791327 1_554
Br5 Rb0 3.791327 1_564
Br6 Sn0 2.624867 1_555
Br6 Rb2 3.774385 1_555
Br6 Rb1 3.774385 1_555
Br6 Rb2 3.774385 1_455
Br6 Rb1 3.774385 1_545
Br7 Re0 2.524079 1_555
Br7 Rb0 3.775528 1_565
Br7 Rb3 3.775528 1_555
Br7 Rb3 3.775528 1_655
Br7 Rb0 3.775528 1_555
Br8 Re0 2.527558 1_555
Br8 Rb3 3.755744 1_555
Br8 Rb0 3.755744 1_555
Br8 Rb1 3.755744 1_555
Br8 Rb2 3.755744 1_555
Br9 Sn0 2.617771 1_665
Br9 Rb2 3.791327 1_565
Br9 Rb1 3.791327 1_655
Br9 Rb3 3.791327 1_654
Br9 Rb0 3.791327 1_564
Br10 Re0 2.527558 1_555
Br10 Rb3 3.755744 1_555
Br10 Rb1 3.755744 1_555
Br10 Rb0 3.755744 1_565
Br10 Rb2 3.755744 1_565
Br11 Sn0 2.617771 1_655
Br11 Rb2 3.791327 1_555
Br11 Rb1 3.791327 1_655
Br11 Rb0 3.791327 1_554
Br11 Rb3 3.791327 1_654
