# generated using pymatgen
data_Ta4Al3V3Zn2
_symmetry_space_group_name_H-M   'P 1'
_cell_length_a   4.99489681
_cell_length_b   4.99489761
_cell_length_c   8.39917176
_cell_angle_alpha   90.00000000
_cell_angle_beta   90.00000000
_cell_angle_gamma   120.39569126
_symmetry_Int_Tables_number   1
_chemical_formula_structural   Ta4Al3V3Zn2
_chemical_formula_sum   'Ta4 Al3 V3 Zn2'
_cell_volume   180.74850709
_cell_formula_units_Z   1
loop_
 _symmetry_equiv_pos_site_id
 _symmetry_equiv_pos_as_xyz
  1  'x, y, z'
loop_
 _atom_site_type_symbol
 _atom_site_label
 _atom_site_symmetry_multiplicity
 _atom_site_fract_x
 _atom_site_fract_y
 _atom_site_fract_z
 _atom_site_occupancy
  Ta  Ta0  1  0.33309092  0.66690908  0.44463779  1
  Ta  Ta1  1  0.66875377  0.33124623  0.56373838  1
  Ta  Ta2  1  0.66875377  0.33124623  0.93626162  1
  Ta  Ta3  1  0.33309092  0.66690908  0.05536221  1
  Al  Al0  1  0.00276912  0.99723088  0.49947855  1
  Al  Al1  1  0.00276912  0.99723088  0.00052145  1
  Al  Al2  1  0.82312828  0.17687172  0.25000000  1
  V  V0  1  0.17447233  0.82552767  0.75000000  1
  V  V1  1  0.17515600  0.34471167  0.75000000  1
  V  V2  1  0.65528833  0.82484400  0.75000000  1
  Zn  Zn0  1  0.82477593  0.66204748  0.25000000  1
  Zn  Zn1  1  0.33795252  0.17522407  0.25000000  1
loop_
_geom_bond_atom_site_label_1
_geom_bond_atom_site_label_2
_geom_bond_distance
_geom_bond_site_symmetry_2
Ta0 V0 2.910117 1_555
Ta0 V2 2.916458 1_555
Ta0 V1 2.916458 1_555
Ta0 Zn0 2.960578 1_555
Ta0 Zn1 2.960578 1_555
Ta0 Zn0 3.009515 1_455
Ta0 Zn1 3.009516 1_565
Ta0 Ta1 3.031979 1_455
Ta0 Ta1 3.031979 1_565
Ta0 Ta1 3.076886 1_555
Ta0 Ta3 3.269593 1_555
Ta1 V0 2.934745 1_655
Ta1 V0 2.934745 1_545
Ta1 V1 2.945819 1_655
Ta1 V2 2.945820 1_545
Ta1 V1 2.949297 1_555
Ta1 V2 2.949297 1_555
Ta1 Zn1 2.996400 1_555
Ta1 Zn0 2.996400 1_555
Ta1 Ta2 3.128887 1_555
Ta2 V0 2.934745 1_655
Ta2 V0 2.934745 1_545
Ta2 V1 2.945819 1_655
Ta2 V2 2.945820 1_545
Ta2 V1 2.949297 1_555
Ta2 V2 2.949297 1_555
Ta2 Zn1 2.996400 1_556
Ta2 Zn0 2.996400 1_556
Ta2 Ta3 3.031979 1_656
Ta2 Ta3 3.031979 1_546
Ta2 Ta3 3.076886 1_556
Ta3 V0 2.910117 1_554
Ta3 V2 2.916458 1_554
Ta3 V1 2.916458 1_554
Ta3 Zn0 2.960578 1_555
Ta3 Zn1 2.960578 1_555
Ta3 Zn0 3.009515 1_455
Ta3 Zn1 3.009516 1_565
Al0 Zn1 2.545174 1_565
Al0 Zn0 2.545174 1_455
Al0 V0 2.577394 1_555
Al0 V2 2.582452 1_455
Al0 V1 2.582452 1_565
Al0 Al2 2.610698 1_465
Al0 Ta0 2.900243 1_555
Al0 Ta1 2.919658 1_565
Al0 Ta1 2.919659 1_455
Al0 Ta0 2.922059 1_455
Al0 Ta0 2.922059 1_565
Al0 Ta1 2.945324 1_465
Al1 Zn1 2.545174 1_565
Al1 Zn0 2.545174 1_455
Al1 V0 2.577394 1_554
Al1 V2 2.582452 1_454
Al1 V1 2.582452 1_564
Al1 Al2 2.610698 1_465
Al1 Ta3 2.900243 1_555
Al1 Ta2 2.919658 1_564
Al1 Ta2 2.919659 1_454
Al1 Ta3 2.922059 1_455
Al1 Ta3 2.922059 1_565
Al1 Ta2 2.945324 1_464
Al2 Zn1 2.419249 1_555
Al2 Zn0 2.419250 1_555
Al2 Zn1 2.575668 1_655
Al2 Zn0 2.575668 1_545
Al2 Ta1 2.955468 1_555
Al2 Ta2 2.955468 1_554
Al2 Ta0 2.973686 1_655
Al2 Ta3 2.973686 1_655
Al2 Ta0 2.973686 1_545
Al2 Ta3 2.973686 1_545
V0 V2 2.403356 1_555
V0 V1 2.403356 1_555
V0 V2 2.591544 1_455
V0 V1 2.591545 1_565
V1 V2 2.383854 1_555
V1 V2 2.581140 1_445
Zn0 Zn1 2.417075 1_555
Zn0 Zn1 2.547919 1_665
