# generated using pymatgen
data_Ba5Bi2Rh
_symmetry_space_group_name_H-M   'P 1'
_cell_length_a   9.13308630
_cell_length_b   10.33296672
_cell_length_c   13.97563784
_cell_angle_alpha   90.00000000
_cell_angle_beta   90.00000000
_cell_angle_gamma   90.00000000
_symmetry_Int_Tables_number   1
_chemical_formula_structural   Ba5Bi2Rh
_chemical_formula_sum   'Ba20 Bi8 Rh4'
_cell_volume   1318.90717307
_cell_formula_units_Z   4
loop_
 _symmetry_equiv_pos_site_id
 _symmetry_equiv_pos_as_xyz
  1  'x, y, z'
loop_
 _atom_site_type_symbol
 _atom_site_label
 _atom_site_symmetry_multiplicity
 _atom_site_fract_x
 _atom_site_fract_y
 _atom_site_fract_z
 _atom_site_occupancy
  Ba  Ba0  1  0.03791257  0.75000000  0.49748174  1
  Ba  Ba1  1  0.96208743  0.25000000  0.50251826  1
  Ba  Ba2  1  0.53791257  0.25000000  0.00251826  1
  Ba  Ba3  1  0.46208743  0.75000000  0.99748174  1
  Ba  Ba4  1  0.87295711  0.75000000  0.80746811  1
  Ba  Ba5  1  0.12704289  0.25000000  0.19253189  1
  Ba  Ba6  1  0.37295711  0.25000000  0.69253189  1
  Ba  Ba7  1  0.62704289  0.75000000  0.30746811  1
  Ba  Ba8  1  0.68518429  0.51199540  0.57420453  1
  Ba  Ba9  1  0.31481571  0.48800460  0.42579547  1
  Ba  Ba10  1  0.18518429  0.48800460  0.92579547  1
  Ba  Ba11  1  0.31481571  0.01199540  0.42579547  1
  Ba  Ba12  1  0.81481571  0.51199540  0.07420453  1
  Ba  Ba13  1  0.68518429  0.98800460  0.57420453  1
  Ba  Ba14  1  0.81481571  0.98800460  0.07420453  1
  Ba  Ba15  1  0.18518429  0.01199540  0.92579547  1
  Ba  Ba16  1  0.35600741  0.75000000  0.69920855  1
  Ba  Ba17  1  0.64399259  0.25000000  0.30079145  1
  Ba  Ba18  1  0.85600741  0.25000000  0.80079145  1
  Ba  Ba19  1  0.14399259  0.75000000  0.19920855  1
  Bi  Bi0  1  0.57361744  0.50451547  0.82981362  1
  Bi  Bi1  1  0.42638256  0.49548453  0.17018638  1
  Bi  Bi2  1  0.07361744  0.49548453  0.67018638  1
  Bi  Bi3  1  0.42638256  0.00451547  0.17018638  1
  Bi  Bi4  1  0.92638256  0.50451547  0.32981362  1
  Bi  Bi5  1  0.57361744  0.99548453  0.82981362  1
  Bi  Bi6  1  0.92638256  0.99548453  0.32981362  1
  Bi  Bi7  1  0.07361744  0.00451547  0.67018638  1
  Rh  Rh0  1  0.05656195  0.75000000  0.98676281  1
  Rh  Rh1  1  0.94343805  0.25000000  0.01323719  1
  Rh  Rh2  1  0.55656195  0.25000000  0.51323719  1
  Rh  Rh3  1  0.44343805  0.75000000  0.48676281  1
loop_
_geom_bond_atom_site_label_1
_geom_bond_atom_site_label_2
_geom_bond_distance
_geom_bond_site_symmetry_2
Ba0 Bi7 3.584474 1_565
Ba0 Bi2 3.584474 1_555
Ba0 Bi6 3.600380 1_455
Ba0 Bi4 3.600380 1_455
Ba0 Rh3 3.706728 1_555
Ba0 Ba11 3.837752 1_565
Ba0 Ba9 3.837752 1_555
Ba0 Ba16 4.048252 1_555
Ba0 Ba13 4.192361 1_455
Ba0 Ba8 4.192361 1_455
Ba0 Ba19 4.279664 1_555
Ba0 Ba4 4.586737 1_455
Ba0 Ba7 4.597100 1_455
Ba1 Bi4 3.584474 1_555
Ba1 Bi6 3.584474 1_545
Ba1 Bi2 3.600380 1_655
Ba1 Bi7 3.600380 1_655
Ba1 Rh2 3.706728 1_555
Ba1 Ba8 3.837752 1_555
Ba1 Ba13 3.837752 1_545
Ba1 Ba17 4.048252 1_555
Ba1 Ba9 4.192361 1_655
Ba1 Ba11 4.192361 1_655
Ba1 Ba18 4.279664 1_555
Ba1 Ba5 4.586737 1_655
Ba1 Ba6 4.597100 1_655
Ba2 Bi0 3.584474 1_554
Ba2 Bi5 3.584474 1_544
Ba2 Bi1 3.600380 1_555
Ba2 Bi3 3.600380 1_555
Ba2 Rh1 3.706728 1_555
Ba2 Ba6 4.586737 1_554
Ba2 Ba5 4.597100 1_555
Ba3 Bi3 3.584474 1_566
Ba3 Bi1 3.584474 1_556
Ba3 Bi5 3.600380 1_555
Ba3 Bi0 3.600380 1_555
Ba3 Rh0 3.706728 1_555
Ba3 Ba7 4.586737 1_556
Ba3 Ba4 4.597100 1_555
Ba4 Rh0 3.015086 1_655
Ba4 Bi7 3.735773 1_665
Ba4 Bi2 3.735773 1_655
Ba4 Bi5 3.742454 1_555
Ba4 Bi0 3.742454 1_555
Ba5 Rh1 3.015086 1_455
Ba5 Bi4 3.735773 1_455
Ba5 Bi6 3.735773 1_445
Ba5 Bi1 3.742454 1_555
Ba5 Bi3 3.742454 1_555
Ba6 Rh2 3.015086 1_555
Ba6 Bi0 3.735773 1_555
Ba6 Bi5 3.735773 1_545
Ba6 Bi2 3.742454 1_555
Ba6 Bi7 3.742454 1_555
Ba7 Rh3 3.015086 1_555
Ba7 Bi3 3.735773 1_565
Ba7 Bi1 3.735773 1_555
Ba7 Bi6 3.742454 1_555
Ba7 Bi4 3.742454 1_555
Ba8 Rh2 3.071619 1_555
Ba8 Rh3 3.523679 1_555
Ba8 Bi0 3.715583 1_555
Ba8 Bi2 3.796564 1_655
Ba8 Bi4 4.065027 1_555
Ba9 Rh3 3.071619 1_555
Ba9 Rh2 3.523679 1_555
Ba9 Bi1 3.715583 1_555
Ba9 Bi4 3.796564 1_455
Ba9 Bi2 4.065027 1_555
Ba10 Rh0 3.071619 1_555
Ba10 Rh1 3.523679 1_456
Ba10 Bi2 3.715583 1_555
Ba10 Bi0 3.796564 1_555
Ba10 Ba3 3.837752 1_555
Ba10 Bi1 4.065027 1_556
Ba10 Ba2 4.192361 1_556
Ba11 Rh3 3.071619 1_545
Ba11 Rh2 3.523679 1_555
Ba11 Bi3 3.715583 1_555
Ba11 Bi6 3.796564 1_445
Ba11 Bi7 4.065027 1_555
Ba12 Rh1 3.071619 1_555
Ba12 Rh0 3.523679 1_654
Ba12 Bi4 3.715583 1_555
Ba12 Bi1 3.796564 1_555
Ba12 Ba2 3.837752 1_555
Ba12 Bi0 4.065027 1_554
Ba12 Ba3 4.192361 1_554
Ba13 Rh2 3.071619 1_565
Ba13 Rh3 3.523679 1_555
Ba13 Bi5 3.715583 1_555
Ba13 Bi7 3.796564 1_665
Ba13 Bi6 4.065027 1_555
Ba14 Rh1 3.071619 1_565
Ba14 Rh0 3.523679 1_654
Ba14 Bi6 3.715583 1_555
Ba14 Bi3 3.796564 1_565
Ba14 Ba2 3.837752 1_565
Ba14 Bi5 4.065027 1_554
Ba14 Ba3 4.192361 1_554
Ba15 Rh0 3.071619 1_545
Ba15 Rh1 3.523679 1_456
Ba15 Bi7 3.715583 1_555
Ba15 Bi5 3.796564 1_545
Ba15 Ba3 3.837752 1_545
Ba15 Bi3 4.065027 1_556
Ba15 Ba2 4.192361 1_556
Ba16 Rh3 3.074568 1_555
Ba16 Bi5 3.703498 1_555
Ba16 Bi0 3.703498 1_555
Ba16 Bi7 3.705753 1_565
Ba16 Bi2 3.705753 1_555
Ba16 Ba3 4.279664 1_555
Ba17 Rh2 3.074568 1_555
Ba17 Bi1 3.703498 1_555
Ba17 Bi3 3.703498 1_555
Ba17 Bi4 3.705753 1_555
Ba17 Bi6 3.705753 1_545
Ba17 Ba2 4.279664 1_555
Ba18 Rh1 3.074568 1_556
Ba18 Bi2 3.703498 1_655
Ba18 Bi7 3.703498 1_655
Ba18 Bi0 3.705753 1_555
Ba18 Bi5 3.705753 1_545
Ba18 Ba2 4.048252 1_556
Ba19 Rh0 3.074568 1_554
Ba19 Bi6 3.703498 1_455
Ba19 Bi4 3.703498 1_455
Ba19 Bi3 3.705753 1_565
Ba19 Bi1 3.705753 1_555
Ba19 Ba3 4.048252 1_554
