# generated using pymatgen
data_K8TiSb4
_symmetry_space_group_name_H-M   'P 1'
_cell_length_a   11.46815222
_cell_length_b   11.46815247
_cell_length_c   11.46815236
_cell_angle_alpha   60.00000030
_cell_angle_beta   59.99999959
_cell_angle_gamma   59.99999717
_symmetry_Int_Tables_number   1
_chemical_formula_structural   K8TiSb4
_chemical_formula_sum   'K16 Ti2 Sb8'
_cell_volume   1066.51103630
_cell_formula_units_Z   2
loop_
 _symmetry_equiv_pos_site_id
 _symmetry_equiv_pos_as_xyz
  1  'x, y, z'
loop_
 _atom_site_type_symbol
 _atom_site_label
 _atom_site_symmetry_multiplicity
 _atom_site_fract_x
 _atom_site_fract_y
 _atom_site_fract_z
 _atom_site_occupancy
  K  K0  1  0.62500000  0.12500000  0.62500000  1
  K  K1  1  0.62500000  0.62500000  0.12500000  1
  K  K2  1  0.12500000  0.62500000  0.62500000  1
  K  K3  1  0.62500000  0.62500000  0.62500000  1
  K  K4  1  0.02686152  0.02686152  0.47313848  1
  K  K5  1  0.77686152  0.22313848  0.22313848  1
  K  K6  1  0.22313848  0.77686152  0.77686152  1
  K  K7  1  0.77686152  0.77686152  0.22313848  1
  K  K8  1  0.77686152  0.22313848  0.77686152  1
  K  K9  1  0.22313848  0.77686152  0.22313848  1
  K  K10  1  0.47313848  0.02686152  0.47313848  1
  K  K11  1  0.47313848  0.02686152  0.02686152  1
  K  K12  1  0.02686152  0.47313848  0.47313848  1
  K  K13  1  0.02686152  0.47313848  0.02686152  1
  K  K14  1  0.22313848  0.22313848  0.77686152  1
  K  K15  1  0.47313848  0.47313848  0.02686152  1
  Ti  Ti0  1  0.75000000  0.75000000  0.75000000  1
  Ti  Ti1  1  0.50000000  0.50000000  0.50000000  1
  Sb  Sb0  1  0.40145872  0.79562483  0.40145872  1
  Sb  Sb1  1  0.84854128  0.84854128  0.45437517  1
  Sb  Sb2  1  0.45437517  0.84854128  0.84854128  1
  Sb  Sb3  1  0.84854128  0.84854128  0.84854128  1
  Sb  Sb4  1  0.79562483  0.40145872  0.40145872  1
  Sb  Sb5  1  0.40145872  0.40145872  0.40145872  1
  Sb  Sb6  1  0.40145872  0.40145872  0.79562483  1
  Sb  Sb7  1  0.84854128  0.45437517  0.84854128  1
loop_
_geom_bond_atom_site_label_1
_geom_bond_atom_site_label_2
_geom_bond_distance
_geom_bond_site_symmetry_2
K0 Ti0 3.511390 1_545
K0 Ti1 3.511390 1_555
K0 Sb3 3.675926 1_545
K0 Sb5 3.675926 1_555
K0 Sb6 3.675933 1_555
K0 Sb1 3.675933 1_545
K0 Sb4 3.675933 1_555
K0 Sb2 3.675933 1_545
K1 Ti0 3.511390 1_554
K1 Ti1 3.511390 1_555
K1 Sb3 3.675926 1_554
K1 Sb5 3.675926 1_555
K1 Sb0 3.675933 1_555
K1 Sb7 3.675933 1_554
K1 Sb4 3.675933 1_555
K1 Sb2 3.675933 1_554
K2 Ti1 3.511390 1_555
K2 Ti0 3.511390 1_455
K2 Sb3 3.675926 1_455
K2 Sb5 3.675926 1_555
K2 Sb6 3.675933 1_555
K2 Sb1 3.675933 1_455
K2 Sb0 3.675933 1_555
K2 Sb7 3.675933 1_455
K3 Ti0 3.511390 1_555
K3 Ti1 3.511390 1_555
K3 Sb7 3.675924 1_555
K3 Sb0 3.675924 1_555
K3 Sb2 3.675924 1_555
K3 Sb4 3.675924 1_555
K3 Sb1 3.675924 1_555
K3 Sb6 3.675924 1_555
K4 Sb0 3.663259 1_545
K4 Sb4 3.663259 1_455
K4 Sb3 3.670485 1_445
K4 Sb1 3.670492 1_445
K5 Sb1 3.663259 1_545
K5 Sb7 3.663259 1_554
K5 Sb5 3.670485 1_555
K5 Sb4 3.670492 1_555
K6 Sb2 3.663251 1_555
K6 Sb3 3.663262 1_455
K6 Sb6 3.670482 1_555
K6 Sb0 3.670482 1_555
K7 Sb1 3.663251 1_555
K7 Sb3 3.663262 1_554
K7 Sb0 3.670482 1_555
K7 Sb4 3.670482 1_555
K8 Sb7 3.663251 1_555
K8 Sb3 3.663262 1_545
K8 Sb6 3.670482 1_555
K8 Sb4 3.670482 1_555
K9 Sb1 3.663259 1_455
K9 Sb2 3.663259 1_554
K9 Sb5 3.670485 1_555
K9 Sb0 3.670492 1_555
K10 Sb0 3.663251 1_545
K10 Sb5 3.663262 1_555
K10 Sb1 3.670482 1_545
K10 Sb2 3.670482 1_545
K11 Sb6 3.663259 1_554
K11 Sb0 3.663259 1_545
K11 Sb3 3.670485 1_544
K11 Sb2 3.670492 1_544
K12 Sb4 3.663251 1_455
K12 Sb5 3.663262 1_555
K12 Sb1 3.670482 1_455
K12 Sb7 3.670482 1_455
K13 Sb6 3.663259 1_554
K13 Sb4 3.663259 1_455
K13 Sb3 3.670485 1_454
K13 Sb7 3.670492 1_454
K14 Sb7 3.663259 1_455
K14 Sb2 3.663259 1_545
K14 Sb5 3.670485 1_555
K14 Sb6 3.670492 1_555
K15 Sb6 3.663251 1_554
K15 Sb5 3.663262 1_555
K15 Sb7 3.670482 1_554
K15 Sb2 3.670482 1_554
Sb0 Ti1 2.768144 1_555
Sb1 Ti0 2.768144 1_555
Sb2 Ti0 2.768144 1_555
Sb3 Ti0 2.768135 1_555
Sb4 Ti1 2.768144 1_555
Sb5 Ti1 2.768135 1_555
Sb6 Ti1 2.768144 1_555
Sb7 Ti0 2.768144 1_555
