# generated using pymatgen
data_Hf16Nb3PdPt4
_symmetry_space_group_name_H-M   'P 1'
_cell_length_a   8.86791074
_cell_length_b   8.86791153
_cell_length_c   8.86791192
_cell_angle_alpha   60.04801074
_cell_angle_beta   60.04801507
_cell_angle_gamma   60.04801358
_symmetry_Int_Tables_number   1
_chemical_formula_structural   Hf16Nb3PdPt4
_chemical_formula_sum   'Hf16 Nb3 Pd1 Pt4'
_cell_volume   493.65256849
_cell_formula_units_Z   1
loop_
 _symmetry_equiv_pos_site_id
 _symmetry_equiv_pos_as_xyz
  1  'x, y, z'
loop_
 _atom_site_type_symbol
 _atom_site_label
 _atom_site_symmetry_multiplicity
 _atom_site_fract_x
 _atom_site_fract_y
 _atom_site_fract_z
 _atom_site_occupancy
  Hf  Hf0  1  0.08618547  0.63604736  0.63604736  1
  Hf  Hf1  1  0.63604736  0.08618547  0.63604736  1
  Hf  Hf2  1  0.63604736  0.63604736  0.08618547  1
  Hf  Hf3  1  0.63932791  0.63932791  0.63932791  1
  Hf  Hf4  1  0.79600999  0.79600999  0.20427644  1
  Hf  Hf5  1  0.19794440  0.19794440  0.80382028  1
  Hf  Hf6  1  0.79600999  0.20427644  0.79600999  1
  Hf  Hf7  1  0.19794440  0.80382028  0.19794440  1
  Hf  Hf8  1  0.20427644  0.79600999  0.79600999  1
  Hf  Hf9  1  0.80382028  0.19794440  0.19794440  1
  Hf  Hf10  1  0.43281534  0.43281534  0.06575386  1
  Hf  Hf11  1  0.06817879  0.06817879  0.43158887  1
  Hf  Hf12  1  0.43281534  0.06575386  0.43281534  1
  Hf  Hf13  1  0.06817879  0.43158887  0.06817879  1
  Hf  Hf14  1  0.06575386  0.43281534  0.43281534  1
  Hf  Hf15  1  0.43158887  0.06817879  0.06817879  1
  Nb  Nb0  1  0.75844390  0.41549779  0.41549779  1
  Nb  Nb1  1  0.41549779  0.75844390  0.41549779  1
  Nb  Nb2  1  0.41549779  0.41549779  0.75844390  1
  Pd  Pd0  1  0.85292949  0.85292949  0.85292949  1
  Pt  Pt0  1  0.41630431  0.41630431  0.41630431  1
  Pt  Pt1  1  0.43588123  0.85624945  0.85624945  1
  Pt  Pt2  1  0.85624945  0.43588123  0.85624945  1
  Pt  Pt3  1  0.85624945  0.85624945  0.43588123  1
loop_
_geom_bond_atom_site_label_1
_geom_bond_atom_site_label_2
_geom_bond_distance
_geom_bond_site_symmetry_2
Hf0 Pt3 2.701625 1_455
Hf0 Pt2 2.701625 1_455
Hf0 Pd0 2.724952 1_455
Hf0 Pt0 2.926375 1_555
Hf0 Nb2 2.978856 1_555
Hf0 Nb1 2.978856 1_555
Hf0 Hf8 3.177608 1_555
Hf0 Hf5 3.185160 1_555
Hf0 Hf7 3.185161 1_555
Hf0 Hf14 3.228698 1_555
Hf0 Hf11 3.276891 1_565
Hf0 Hf13 3.276891 1_556
Hf1 Pt1 2.701625 1_545
Hf1 Pt3 2.701625 1_545
Hf1 Pd0 2.724952 1_545
Hf1 Pt0 2.926375 1_555
Hf1 Nb0 2.978856 1_555
Hf1 Nb2 2.978856 1_555
Hf1 Hf6 3.177608 1_555
Hf1 Hf5 3.185160 1_555
Hf1 Hf9 3.185161 1_555
Hf1 Hf12 3.228698 1_555
Hf1 Hf11 3.276891 1_655
Hf1 Hf15 3.276891 1_556
Hf2 Pt1 2.701625 1_554
Hf2 Pt2 2.701625 1_554
Hf2 Pd0 2.724952 1_554
Hf2 Pt0 2.926375 1_555
Hf2 Nb0 2.978856 1_555
Hf2 Nb1 2.978856 1_555
Hf2 Hf4 3.177608 1_555
Hf2 Hf7 3.185160 1_555
Hf2 Hf9 3.185160 1_555
Hf3 Pt3 2.723926 1_555
Hf3 Pt2 2.723926 1_555
Hf3 Pt1 2.723926 1_555
Hf3 Nb2 2.956748 1_555
Hf3 Nb1 2.956748 1_555
Hf3 Nb0 2.956748 1_555
Hf3 Hf8 3.157155 1_555
Hf3 Hf6 3.157155 1_555
Hf3 Hf4 3.157155 1_555
Hf4 Pt3 2.695391 1_555
Hf4 Pd0 2.707554 1_554
Hf4 Nb1 3.032125 1_555
Hf4 Nb0 3.032125 1_555
Hf4 Hf7 3.571427 1_655
Hf4 Hf9 3.571427 1_565
Hf4 Hf6 3.623098 1_564
Hf4 Hf8 3.623098 1_654
Hf5 Pt2 2.653008 1_455
Hf5 Pt1 2.653008 1_545
Hf5 Pt0 3.124632 1_555
Hf5 Nb2 3.126034 1_555
Hf5 Hf6 3.571427 1_455
Hf5 Hf8 3.571427 1_545
Hf6 Pt2 2.695391 1_555
Hf6 Pd0 2.707554 1_545
Hf6 Nb2 3.032125 1_555
Hf6 Nb0 3.032125 1_555
Hf6 Hf9 3.571427 1_556
Hf6 Hf8 3.623098 1_645
Hf7 Pt3 2.653008 1_455
Hf7 Pt1 2.653008 1_554
Hf7 Pt0 3.124631 1_555
Hf7 Nb1 3.126034 1_555
Hf7 Hf8 3.571427 1_554
Hf8 Pt1 2.695391 1_555
Hf8 Pd0 2.707554 1_455
Hf8 Nb2 3.032125 1_555
Hf8 Nb1 3.032125 1_555
Hf9 Pt3 2.653008 1_545
Hf9 Pt2 2.653008 1_554
Hf9 Pt0 3.124632 1_555
Hf9 Nb0 3.126034 1_555
Hf10 Nb2 2.886732 1_554
Hf10 Pt0 2.969678 1_555
Hf10 Hf13 3.228308 1_555
Hf10 Hf15 3.228308 1_555
Hf10 Hf2 3.228698 1_555
Hf10 Hf3 3.244378 1_554
Hf10 Hf12 3.257431 1_555
Hf10 Hf14 3.257431 1_555
Hf10 Pt2 3.261539 1_554
Hf10 Pt1 3.261540 1_554
Hf10 Hf8 3.291282 1_554
Hf10 Hf6 3.291282 1_554
Hf10 Hf9 3.332743 1_555
Hf10 Hf7 3.332744 1_555
Hf11 Nb1 2.925075 1_545
Hf11 Nb0 2.925075 1_455
Hf11 Hf13 3.225027 1_555
Hf11 Hf15 3.225027 1_555
Hf11 Hf12 3.228308 1_555
Hf11 Hf14 3.228308 1_555
Hf11 Pt3 3.232577 1_445
Hf11 Pd0 3.262310 1_445
Hf11 Hf9 3.299777 1_455
Hf11 Hf7 3.299777 1_545
Hf11 Hf8 3.304986 1_545
Hf11 Hf6 3.304987 1_455
Hf12 Nb1 2.886732 1_545
Hf12 Pt0 2.969678 1_555
Hf12 Hf15 3.228308 1_555
Hf12 Hf3 3.244378 1_545
Hf12 Hf14 3.257431 1_555
Hf12 Pt3 3.261539 1_545
Hf12 Pt1 3.261540 1_545
Hf12 Hf8 3.291282 1_545
Hf12 Hf4 3.291282 1_545
Hf12 Hf9 3.332743 1_555
Hf12 Hf5 3.332744 1_555
Hf13 Nb2 2.925075 1_554
Hf13 Nb0 2.925075 1_455
Hf13 Hf15 3.225027 1_555
Hf13 Hf14 3.228308 1_555
Hf13 Pt2 3.232577 1_454
Hf13 Pd0 3.262309 1_454
Hf13 Hf2 3.276891 1_455
Hf13 Hf9 3.299777 1_455
Hf13 Hf5 3.299777 1_554
Hf13 Hf8 3.304986 1_554
Hf13 Hf4 3.304986 1_455
Hf14 Nb0 2.886732 1_455
Hf14 Pt0 2.969677 1_555
Hf14 Hf3 3.244378 1_455
Hf14 Pt3 3.261540 1_455
Hf14 Pt2 3.261540 1_455
Hf14 Hf4 3.291282 1_455
Hf14 Hf6 3.291282 1_455
Hf14 Hf7 3.332743 1_555
Hf14 Hf5 3.332743 1_555
Hf15 Nb2 2.925075 1_554
Hf15 Nb1 2.925075 1_545
Hf15 Pt1 3.232578 1_544
Hf15 Pd0 3.262310 1_544
Hf15 Hf2 3.276891 1_545
Hf15 Hf7 3.299777 1_545
Hf15 Hf5 3.299777 1_554
Hf15 Hf4 3.304986 1_545
Hf15 Hf6 3.304986 1_554
Nb0 Pt0 3.026938 1_555
Nb0 Nb1 3.043422 1_555
Nb0 Nb2 3.043423 1_555
Nb1 Pt0 3.026939 1_555
Nb1 Nb2 3.043423 1_555
Nb2 Pt0 3.026939 1_555
