# generated using pymatgen
data_Rb4NiP4Pd
_symmetry_space_group_name_H-M   'P 1'
_cell_length_a   7.91500303
_cell_length_b   7.91500251
_cell_length_c   5.88929752
_cell_angle_alpha   91.60067703
_cell_angle_beta   88.39932063
_cell_angle_gamma   130.51127157
_symmetry_Int_Tables_number   1
_chemical_formula_structural   Rb4NiP4Pd
_chemical_formula_sum   'Rb4 Ni1 P4 Pd1'
_cell_volume   280.37071205
_cell_formula_units_Z   1
loop_
 _symmetry_equiv_pos_site_id
 _symmetry_equiv_pos_as_xyz
  1  'x, y, z'
loop_
 _atom_site_type_symbol
 _atom_site_label
 _atom_site_symmetry_multiplicity
 _atom_site_fract_x
 _atom_site_fract_y
 _atom_site_fract_z
 _atom_site_occupancy
  Rb  Rb0  1  0.78695464  0.21304536  0.24603189  1
  Rb  Rb1  1  0.21304536  0.78695464  0.75396811  1
  Rb  Rb2  1  0.41861787  0.58138213  0.25195775  1
  Rb  Rb3  1  0.58138213  0.41861787  0.74804225  1
  Ni  Ni0  1  0.00000000  0.00000000  0.50000000  1
  P  P0  1  0.93694322  0.73710353  0.26668571  1
  P  P1  1  0.06305678  0.26289647  0.73331429  1
  P  P2  1  0.26289647  0.06305678  0.26668571  1
  P  P3  1  0.73710353  0.93694322  0.73331429  1
  Pd  Pd0  1  0.00000000  0.00000000  0.00000000  1
loop_
_geom_bond_atom_site_label_1
_geom_bond_atom_site_label_2
_geom_bond_distance
_geom_bond_site_symmetry_2
Ni0 P1 2.235239 1_555
Ni0 P0 2.235239 1_445
Ni0 P3 2.235239 1_445
Ni0 P2 2.235239 1_555
Ni0 Pd0 2.944649 1_555
Ni0 Pd0 2.944649 1_556
Ni0 Rb1 3.449640 1_545
Ni0 Rb0 3.449640 1_455
P0 P2 2.159757 1_665
P0 Pd0 2.415621 1_665
P0 Rb2 3.435410 1_555
P0 Rb0 3.494527 1_555
P0 Rb1 3.511944 1_655
P0 Rb1 3.553413 1_654
P0 Rb3 3.612161 1_555
P0 Rb3 3.799672 1_554
P1 P3 2.159757 1_445
P1 Pd0 2.415621 1_556
P1 Rb3 3.435410 1_555
P1 Rb1 3.494527 1_555
P1 Rb0 3.511944 1_455
P1 Rb0 3.553413 1_456
P1 Rb2 3.612161 1_555
P1 Rb2 3.799672 1_556
P2 Pd0 2.415621 1_555
P2 Rb2 3.435409 1_555
P2 Rb0 3.494528 1_555
P2 Rb1 3.511944 1_545
P2 Rb1 3.553413 1_544
P2 Rb3 3.612161 1_555
P2 Rb3 3.799672 1_554
P3 Pd0 2.415621 1_666
P3 Rb3 3.435409 1_555
P3 Rb1 3.494528 1_555
P3 Rb0 3.511944 1_565
P3 Rb0 3.553413 1_566
P3 Rb2 3.612161 1_555
P3 Rb2 3.799672 1_556
Pd0 Rb0 3.347773 1_455
Pd0 Rb1 3.347773 1_544
Pd0 Rb2 3.799973 1_555
Pd0 Rb3 3.799973 1_444
Pd0 Rb2 3.799973 1_445
Pd0 Rb3 3.799973 1_554
