# generated using pymatgen
data_Zn2PtO4
_symmetry_space_group_name_H-M   'P 1'
_cell_length_a   6.08046959
_cell_length_b   6.14266826
_cell_length_c   6.08046765
_cell_angle_alpha   59.66104123
_cell_angle_beta   57.89870857
_cell_angle_gamma   59.66103952
_symmetry_Int_Tables_number   1
_chemical_formula_structural   Zn2PtO4
_chemical_formula_sum   'Zn4 Pt2 O8'
_cell_volume   157.09629633
_cell_formula_units_Z   2
loop_
 _symmetry_equiv_pos_site_id
 _symmetry_equiv_pos_as_xyz
  1  'x, y, z'
loop_
 _atom_site_type_symbol
 _atom_site_label
 _atom_site_symmetry_multiplicity
 _atom_site_fract_x
 _atom_site_fract_y
 _atom_site_fract_z
 _atom_site_occupancy
  Zn  Zn0  1  0.97613168  0.02386832  0.97613168  1
  Zn  Zn1  1  0.27386832  0.22613168  0.27386832  1
  Zn  Zn2  1  0.12500000  0.62500000  0.62500000  1
  Zn  Zn3  1  0.62500000  0.62500000  0.12500000  1
  Pt  Pt0  1  0.62500000  0.12500000  0.62500000  1
  Pt  Pt1  1  0.62500000  0.62500000  0.62500000  1
  O  O0  1  0.39188274  0.37645679  0.39188274  1
  O  O1  1  0.39188274  0.83977873  0.39188274  1
  O  O2  1  0.39824091  0.37386571  0.85402666  1
  O  O3  1  0.85402666  0.37386571  0.39824091  1
  O  O4  1  0.39597334  0.87613429  0.85175909  1
  O  O5  1  0.85811726  0.41022127  0.85811726  1
  O  O6  1  0.85175909  0.87613429  0.39597334  1
  O  O7  1  0.85811726  0.87354321  0.85811726  1
loop_
_geom_bond_atom_site_label_1
_geom_bond_atom_site_label_2
_geom_bond_distance
_geom_bond_site_symmetry_2
O0 Zn1 1.941283 1_555
O0 Pt0 2.028798 1_555
O0 Zn2 2.052327 1_555
O0 Zn3 2.052328 1_555
O1 Zn1 1.941278 1_565
O1 Pt1 2.028798 1_555
O1 Zn3 2.052331 1_555
O1 Zn2 2.052332 1_555
O2 Pt0 2.039083 1_555
O2 Pt1 2.039088 1_555
O2 Zn1 2.052673 1_556
O2 Zn2 2.186099 1_555
O3 Pt0 2.039083 1_555
O3 Pt1 2.039087 1_555
O3 Zn1 2.052673 1_655
O3 Zn3 2.186099 1_555
O4 Pt0 2.039083 1_565
O4 Pt1 2.039087 1_555
O4 Zn0 2.052673 1_465
O4 Zn3 2.186099 1_556
O5 Zn0 1.941278 1_555
O5 Pt1 2.028798 1_555
O5 Zn3 2.052331 1_556
O5 Zn2 2.052332 1_655
O6 Pt0 2.039083 1_565
O6 Pt1 2.039088 1_555
O6 Zn0 2.052673 1_564
O6 Zn2 2.186099 1_655
O7 Zn0 1.941283 1_565
O7 Pt0 2.028798 1_565
O7 Zn2 2.052327 1_655
O7 Zn3 2.052328 1_556
