# generated using pymatgen
data_Zr10Ga2(SnSb)3
_symmetry_space_group_name_H-M   'P 1'
_cell_length_a   8.69501937
_cell_length_b   8.67291980
_cell_length_c   5.86092512
_cell_angle_alpha   90.00000000
_cell_angle_beta   90.00000000
_cell_angle_gamma   120.02387695
_symmetry_Int_Tables_number   1
_chemical_formula_structural   Zr10Ga2(SnSb)3
_chemical_formula_sum   'Zr10 Ga2 Sn3 Sb3'
_cell_volume   382.67328725
_cell_formula_units_Z   1
loop_
 _symmetry_equiv_pos_site_id
 _symmetry_equiv_pos_as_xyz
  1  'x, y, z'
loop_
 _atom_site_type_symbol
 _atom_site_label
 _atom_site_symmetry_multiplicity
 _atom_site_fract_x
 _atom_site_fract_y
 _atom_site_fract_z
 _atom_site_occupancy
  Zr  Zr0  1  0.00024468  0.26359912  0.25000000  1
  Zr  Zr1  1  0.73170624  0.99987264  0.75000000  1
  Zr  Zr2  1  0.73505406  0.73584024  0.25000000  1
  Zr  Zr3  1  0.66542542  0.33219698  0.50059497  1
  Zr  Zr4  1  0.00063377  0.73376498  0.75000000  1
  Zr  Zr5  1  0.26692581  0.26647312  0.75000000  1
  Zr  Zr6  1  0.33417330  0.66730695  0.99939704  1
  Zr  Zr7  1  0.66542542  0.33219698  0.99940503  1
  Zr  Zr8  1  0.33417330  0.66730695  0.50060296  1
  Zr  Zr9  1  0.26557109  0.00070094  0.25000000  1
  Ga  Ga0  1  0.99908365  0.99914203  0.99689556  1
  Ga  Ga1  1  0.99908365  0.99914203  0.50310444  1
  Sn  Sn0  1  0.99933697  0.60934208  0.25000000  1
  Sn  Sn1  1  0.99992499  0.38894820  0.75000000  1
  Sn  Sn2  1  0.61315234  0.61250669  0.75000000  1
  Sb  Sb0  1  0.61066186  0.00007002  0.25000000  1
  Sb  Sb1  1  0.38802613  0.99958075  0.75000000  1
  Sb  Sb2  1  0.39139933  0.39200833  0.25000000  1
loop_
_geom_bond_atom_site_label_1
_geom_bond_atom_site_label_2
_geom_bond_distance
_geom_bond_site_symmetry_2
Ga0 Zr4 2.724422 1_655
Ga0 Zr0 2.727298 1_666
Ga0 Zr2 2.727538 1_556
Ga0 Zr5 2.736742 1_665
Ga0 Zr1 2.741101 1_555
Ga0 Zr9 2.745615 1_666
Ga1 Zr4 2.724422 1_655
Ga1 Zr0 2.727298 1_665
Ga1 Zr2 2.727538 1_555
Ga1 Zr5 2.736742 1_665
Ga1 Zr1 2.741101 1_555
Ga1 Zr9 2.745615 1_665
Sn0 Zr2 3.001185 1_555
Sn0 Zr0 3.002558 1_655
Sn0 Zr9 3.002761 1_665
Sn0 Zr3 3.062761 1_555
Sn0 Zr7 3.062761 1_554
Sn0 Zr8 3.069464 1_655
Sn0 Zr6 3.069464 1_654
Sn0 Zr4 3.120904 1_654
Sn0 Zr4 3.120904 1_655
Sn1 Zr4 2.987489 1_655
Sn1 Zr1 2.991710 1_545
Sn1 Zr5 2.997636 1_655
Sn1 Zr6 3.064311 1_655
Sn1 Zr8 3.064311 1_655
Sn1 Zr7 3.066860 1_555
Sn1 Zr3 3.066860 1_555
Sn1 Zr0 3.126103 1_655
Sn1 Zr0 3.126103 1_656
Sn2 Zr1 2.980573 1_555
Sn2 Zr4 2.985205 1_655
Sn2 Zr5 3.004710 1_555
Sn2 Zr7 3.059300 1_555
Sn2 Zr3 3.059300 1_555
Sn2 Zr6 3.065996 1_555
Sn2 Zr8 3.065996 1_555
Sn2 Zr2 3.117798 1_556
Sn2 Zr2 3.117798 1_555
Sb0 Zr2 2.983603 1_545
Sb0 Zr0 2.991774 1_655
Sb0 Zr9 3.003313 1_555
Sb0 Zr3 3.051001 1_555
Sb0 Zr7 3.051001 1_554
Sb0 Zr8 3.053320 1_545
Sb0 Zr6 3.053320 1_544
Sb0 Zr1 3.114023 1_544
Sb0 Zr1 3.114023 1_545
Sb1 Zr4 2.981577 1_555
Sb1 Zr5 2.984268 1_565
Sb1 Zr1 2.987039 1_555
Sb1 Zr6 3.051250 1_555
Sb1 Zr8 3.051250 1_555
Sb1 Zr7 3.051751 1_565
Sb1 Zr3 3.051751 1_565
Sb1 Zr9 3.119575 1_566
Sb1 Zr9 3.119575 1_565
Sb2 Zr2 2.983983 1_555
Sb2 Zr9 2.999832 1_555
Sb2 Zr0 3.002878 1_555
Sb2 Zr8 3.048705 1_555
Sb2 Zr6 3.048705 1_554
Sb2 Zr3 3.056170 1_555
Sb2 Zr7 3.056170 1_554
Sb2 Zr5 3.124926 1_555
Sb2 Zr5 3.124926 1_554
