# generated using pymatgen
data_V9Ga3SiTc3
_symmetry_space_group_name_H-M   'P 1'
_cell_length_a   4.74995904
_cell_length_b   4.77343066
_cell_length_c   9.41359112
_cell_angle_alpha   90.00000000
_cell_angle_beta   90.00000000
_cell_angle_gamma   89.99091529
_symmetry_Int_Tables_number   1
_chemical_formula_structural   V9Ga3SiTc3
_chemical_formula_sum   'V9 Ga3 Si1 Tc3'
_cell_volume   213.43999801
_cell_formula_units_Z   1
loop_
 _symmetry_equiv_pos_site_id
 _symmetry_equiv_pos_as_xyz
  1  'x, y, z'
loop_
 _atom_site_type_symbol
 _atom_site_label
 _atom_site_symmetry_multiplicity
 _atom_site_fract_x
 _atom_site_fract_y
 _atom_site_fract_z
 _atom_site_occupancy
  V  V0  1  0.49724238  0.99695037  0.37763108  1
  V  V1  1  0.50545887  0.99694914  0.87726457  1
  V  V2  1  0.75487760  0.50128849  0.50000000  1
  V  V3  1  0.50545887  0.99694914  0.12273543  1
  V  V4  1  0.49724238  0.99695037  0.62236892  1
  V  V5  1  0.25023803  0.50333832  0.00000000  1
  V  V6  1  0.24078784  0.50110503  0.50000000  1
  V  V7  1  0.99798567  0.24640023  0.25350827  1
  V  V8  1  0.99798567  0.24640023  0.74649173  1
  Ga  Ga0  1  0.49732126  0.49332833  0.25170631  1
  Ga  Ga1  1  0.49732126  0.49332833  0.74829369  1
  Ga  Ga2  1  0.00918656  0.00594927  0.00000000  1
  Si  Si0  1  0.99882346  0.00739672  0.50000000  1
  Tc  Tc0  1  0.75149000  0.50177267  0.00000000  1
  Tc  Tc1  1  0.99928907  0.75594667  0.25372275  1
  Tc  Tc2  1  0.99928907  0.75594667  0.74627725  1
loop_
_geom_bond_atom_site_label_1
_geom_bond_atom_site_label_2
_geom_bond_distance
_geom_bond_site_symmetry_2
V0 V4 2.303862 1_555
V0 V3 2.399801 1_555
V0 V7 2.899305 1_465
V0 V6 2.900669 1_555
V0 V2 2.901999 1_555
V0 V7 2.905392 1_565
V0 V6 2.932809 1_565
V0 V2 2.936179 1_565
V1 V3 2.310762 1_556
V1 V4 2.399801 1_555
V1 V5 2.890885 1_556
V1 V8 2.899548 1_565
V1 V5 2.940500 1_566
V1 V8 2.956824 1_465
V2 V6 2.308054 1_655
V2 V6 2.441906 1_555
V2 V7 2.863123 1_555
V2 V8 2.863123 1_555
V2 V4 2.901999 1_555
V2 V4 2.936179 1_545
V3 V5 2.890885 1_555
V3 V7 2.899548 1_565
V3 V5 2.940500 1_565
V3 V7 2.956824 1_465
V4 V8 2.899305 1_465
V4 V6 2.900669 1_555
V4 V8 2.905392 1_565
V4 V6 2.932809 1_565
V6 V7 2.862321 1_455
V6 V8 2.862321 1_455
Ga0 V6 2.636152 1_555
Ga0 V2 2.638420 1_555
Ga0 V5 2.644622 1_555
Ga0 V7 2.648781 1_455
Ga0 V0 2.649408 1_545
Ga0 V7 2.654100 1_555
Ga0 Tc0 2.659612 1_555
Ga0 V3 2.662641 1_545
Ga0 Tc1 2.677149 1_455
Ga0 V0 2.680377 1_555
Ga0 V3 2.693459 1_555
Ga0 Tc1 2.694032 1_555
Ga1 V6 2.636152 1_555
Ga1 V2 2.638420 1_555
Ga1 V5 2.644622 1_556
Ga1 V8 2.648781 1_455
Ga1 V4 2.649408 1_545
Ga1 V8 2.654100 1_555
Ga1 Tc0 2.659612 1_556
Ga1 V1 2.662641 1_545
Ga1 Tc2 2.677149 1_455
Ga1 V4 2.680377 1_555
Ga1 V1 2.693459 1_555
Ga1 Tc2 2.694032 1_555
Ga2 V3 2.625539 1_545
Ga2 V1 2.625539 1_544
Ga2 V5 2.636081 1_555
Ga2 V8 2.648625 1_454
Ga2 V7 2.648625 1_455
Ga2 V3 2.657392 1_445
Ga2 V1 2.657392 1_444
Ga2 V5 2.658228 1_545
Ga2 Tc0 2.664398 1_455
Ga2 Tc1 2.670396 1_445
Ga2 Tc2 2.670396 1_444
Ga2 Tc0 2.700223 1_445
Si0 V7 2.585676 1_555
Si0 V8 2.585676 1_555
Si0 Tc2 2.610639 1_545
Si0 Tc1 2.610639 1_545
Si0 V6 2.622165 1_655
Si0 V2 2.626761 1_555
Si0 V4 2.633307 1_645
Si0 V0 2.633307 1_645
Si0 V4 2.646833 1_545
Si0 V0 2.646833 1_545
Si0 V6 2.675954 1_645
Si0 V2 2.679550 1_545
Tc0 V5 2.369046 1_655
Tc0 V5 2.380937 1_555
Tc0 V3 2.878676 1_555
Tc0 V1 2.878676 1_554
Tc0 V3 2.916909 1_545
Tc0 V1 2.916909 1_544
Tc1 V7 2.341154 1_565
Tc1 V7 2.432294 1_555
Tc1 V6 2.858317 1_655
Tc1 V2 2.863681 1_555
Tc1 V0 2.877378 1_655
Tc1 V3 2.888807 1_555
Tc1 V0 2.893082 1_555
Tc1 V3 2.936894 1_655
Tc2 V8 2.341154 1_565
Tc2 V8 2.432294 1_555
Tc2 V6 2.858317 1_655
Tc2 V2 2.863681 1_555
Tc2 V4 2.877378 1_655
Tc2 V1 2.888807 1_555
Tc2 V4 2.893082 1_555
Tc2 V1 2.936894 1_655
