# generated using pymatgen
data_Y6ReB14Ru
_symmetry_space_group_name_H-M   'P 1'
_cell_length_a   8.07817140
_cell_length_b   8.07817101
_cell_length_c   9.34005260
_cell_angle_alpha   90.00000000
_cell_angle_beta   90.00000000
_cell_angle_gamma   154.72350691
_symmetry_Int_Tables_number   1
_chemical_formula_structural   Y6ReB14Ru
_chemical_formula_sum   'Y6 Re1 B14 Ru1'
_cell_volume   260.24954932
_cell_formula_units_Z   1
loop_
 _symmetry_equiv_pos_site_id
 _symmetry_equiv_pos_as_xyz
  1  'x, y, z'
loop_
 _atom_site_type_symbol
 _atom_site_label
 _atom_site_symmetry_multiplicity
 _atom_site_fract_x
 _atom_site_fract_y
 _atom_site_fract_z
 _atom_site_occupancy
  Y  Y0  1  0.89472951  0.10527049  0.94061811  1
  Y  Y1  1  0.10511886  0.89488114  0.06090689  1
  Y  Y2  1  0.75754239  0.24245761  0.25000000  1
  Y  Y3  1  0.24269617  0.75730383  0.75000000  1
  Y  Y4  1  0.89472951  0.10527049  0.55938189  1
  Y  Y5  1  0.10511886  0.89488114  0.43909311  1
  Re  Re0  1  0.94680122  0.05319878  0.25000000  1
  B  B0  1  0.54325662  0.45674338  0.25000000  1
  B  B1  1  0.45801314  0.54198686  0.75000000  1
  B  B2  1  0.52083252  0.47916748  0.90296273  1
  B  B3  1  0.47943308  0.52056692  0.09608931  1
  B  B4  1  0.47943308  0.52056692  0.40391069  1
  B  B5  1  0.52083252  0.47916748  0.59703727  1
  B  B6  1  0.63088052  0.36911948  0.84829746  1
  B  B7  1  0.36835990  0.63164010  0.15084985  1
  B  B8  1  0.72686913  0.27313087  0.96433461  1
  B  B9  1  0.27248035  0.72751965  0.03400214  1
  B  B10  1  0.27248035  0.72751965  0.46599786  1
  B  B11  1  0.72686913  0.27313087  0.53566539  1
  B  B12  1  0.63088052  0.36911948  0.65170254  1
  B  B13  1  0.36835990  0.63164010  0.34915015  1
  Ru  Ru0  1  0.05428076  0.94571924  0.75000000  1
loop_
_geom_bond_atom_site_label_1
_geom_bond_atom_site_label_2
_geom_bond_distance
_geom_bond_site_symmetry_2
B0 B4 1.754675 1_555
B0 B3 1.754675 1_555
B0 Re0 2.331559 1_565
B0 Re0 2.331559 1_455
B0 Y5 2.682216 1_545
B0 Y1 2.682216 1_545
B0 Y5 2.682216 1_655
B0 Y1 2.682216 1_655
B0 Y2 3.378191 1_555
B1 B2 1.738361 1_555
B1 B5 1.738361 1_555
B1 Ru0 2.329629 1_545
B1 Ru0 2.329630 1_655
B1 Y0 2.699816 1_565
B1 Y4 2.699816 1_565
B1 Y0 2.699816 1_455
B1 Y4 2.699816 1_455
B2 B6 1.808465 1_555
B2 B3 1.918255 1_556
B2 Ru0 2.333044 1_545
B2 Ru0 2.333045 1_655
B2 Y1 2.658151 1_546
B2 Y1 2.658151 1_656
B2 Y0 2.683236 1_565
B2 Y0 2.683236 1_455
B3 B7 1.824225 1_555
B3 Re0 2.335608 1_565
B3 Re0 2.335608 1_455
B3 Y0 2.648712 1_564
B3 Y0 2.648712 1_454
B3 Y1 2.675431 1_545
B3 Y1 2.675432 1_655
B4 B5 1.918255 1_555
B4 Re0 2.335608 1_565
B4 Re0 2.335608 1_455
B4 Y4 2.648712 1_565
B4 Y4 2.648712 1_455
B4 Y5 2.675431 1_545
B4 Y5 2.675432 1_655
B5 Ru0 2.333044 1_545
B5 Ru0 2.333045 1_655
B5 Y5 2.658151 1_545
B5 Y5 2.658151 1_655
B5 Y4 2.683236 1_565
B5 Y4 2.683236 1_455
B6 B8 1.861325 1_555
B6 Ru0 2.329184 1_655
B6 Ru0 2.329184 1_545
B6 Y3 2.659729 1_545
B6 Y3 2.659729 1_655
B6 Y1 2.689274 1_656
B6 Y1 2.689274 1_546
B7 B9 1.864350 1_555
B7 Re0 2.347497 1_455
B7 Re0 2.347498 1_565
B7 Y2 2.652097 1_565
B7 Y2 2.652097 1_455
B7 Y0 2.674390 1_454
B7 Y0 2.674390 1_564
B8 B9 2.016027 1_546
B8 B9 2.016028 1_656
B8 Y0 2.655555 1_555
B8 Y3 2.682119 1_545
B8 Y3 2.682119 1_655
B8 Y2 2.711595 1_556
B8 Y1 2.760710 1_656
B8 Y1 2.760710 1_546
B9 Y1 2.650375 1_555
B9 Y2 2.692472 1_565
B9 Y2 2.692472 1_455
B9 Y3 2.693832 1_554
B9 Y0 2.756618 1_454
B9 Y0 2.756618 1_564
B10 B13 1.864350 1_555
B10 B11 2.016027 1_565
B10 B11 2.016028 1_455
B10 Y5 2.650375 1_555
B10 Y2 2.692472 1_565
B10 Y2 2.692472 1_455
B10 Y3 2.693832 1_555
B10 Y4 2.756618 1_455
B10 Y4 2.756618 1_565
B11 B12 1.861325 1_555
B11 Y4 2.655555 1_555
B11 Y3 2.682119 1_545
B11 Y3 2.682119 1_655
B11 Y2 2.711595 1_555
B11 Y5 2.760710 1_655
B11 Y5 2.760710 1_545
B12 B5 1.808465 1_555
B12 B6 1.836207 1_555
B12 Ru0 2.329184 1_655
B12 Ru0 2.329184 1_545
B12 Y3 2.659729 1_545
B12 Y3 2.659729 1_655
B12 Y5 2.689274 1_655
B12 Y5 2.689274 1_545
B13 B4 1.824225 1_555
B13 B7 1.852135 1_555
B13 Re0 2.347497 1_455
B13 Re0 2.347498 1_565
B13 Y2 2.652097 1_565
B13 Y2 2.652097 1_455
B13 Y4 2.674390 1_455
B13 Y4 2.674390 1_565
Ru0 Y3 2.970348 1_555
Ru0 Y1 3.012456 1_556
Ru0 Y5 3.012456 1_555
Ru0 Y0 3.081645 1_465
Ru0 Y4 3.081645 1_465
