# generated using pymatgen
data_Y8In2RuPt
_symmetry_space_group_name_H-M   'P 1'
_cell_length_a   9.68020803
_cell_length_b   9.69365422
_cell_length_c   9.69363763
_cell_angle_alpha   60.18822228
_cell_angle_beta   60.05236350
_cell_angle_gamma   60.05246355
_symmetry_Int_Tables_number   1
_chemical_formula_structural   Y8In2RuPt
_chemical_formula_sum   'Y16 In4 Ru2 Pt2'
_cell_volume   644.61819319
_cell_formula_units_Z   2
loop_
 _symmetry_equiv_pos_site_id
 _symmetry_equiv_pos_as_xyz
  1  'x, y, z'
loop_
 _atom_site_type_symbol
 _atom_site_label
 _atom_site_symmetry_multiplicity
 _atom_site_fract_x
 _atom_site_fract_y
 _atom_site_fract_z
 _atom_site_occupancy
  Y  Y0  1  0.44235554  0.43678717  0.05969144  1
  Y  Y1  1  0.65144370  0.64450420  0.05254679  1
  Y  Y2  1  0.18708181  0.80721672  0.19640000  1
  Y  Y3  1  0.06098538  0.43688123  0.05958412  1
  Y  Y4  1  0.19297068  0.80708258  0.80709937  1
  Y  Y5  1  0.05981676  0.44011751  0.44012754  1
  Y  Y6  1  0.80952873  0.19046283  0.19041095  1
  Y  Y7  1  0.65379106  0.65045070  0.65048537  1
  Y  Y8  1  0.80925849  0.19636917  0.80725300  1
  Y  Y9  1  0.18705960  0.19642891  0.80722095  1
  Y  Y10  1  0.04564927  0.65027638  0.65030925  1
  Y  Y11  1  0.44029820  0.05961968  0.05960064  1
  Y  Y12  1  0.06098576  0.05960453  0.43687610  1
  Y  Y13  1  0.65143423  0.05254942  0.64452330  1
  Y  Y14  1  0.80926889  0.80724822  0.19634223  1
  Y  Y15  1  0.44233978  0.05971109  0.43678461  1
  In  In0  1  0.41614534  0.41702674  0.41703299  1
  In  In1  1  0.41663318  0.41754866  0.74934480  1
  In  In2  1  0.41663346  0.74933360  0.41755478  1
  In  In3  1  0.74973620  0.41706901  0.41707542  1
  Ru  Ru0  1  0.85816793  0.42189168  0.86197548  1
  Ru  Ru1  1  0.85816714  0.86196940  0.42189707  1
  Pt  Pt0  1  0.42456224  0.86002508  0.86002994  1
  Pt  Pt1  1  0.85568363  0.85982850  0.85983688  1
loop_
_geom_bond_atom_site_label_1
_geom_bond_atom_site_label_2
_geom_bond_distance
_geom_bond_site_symmetry_2
Y0 Y1 3.456317 1_555
Y0 Y7 3.488719 1_554
Y0 Y8 3.572503 1_554
Y0 Y6 3.599321 1_555
Y0 Y4 3.635762 1_554
Y0 Y2 3.655025 1_555
Y0 Y15 3.665719 1_555
Y0 Y11 3.666553 1_555
Y0 Y3 3.691807 1_555
Y0 Y5 3.698389 1_555
Y1 Y3 3.455340 1_655
Y1 Y11 3.506727 1_565
Y2 Y5 3.588066 1_555
Y3 Y9 3.571474 1_554
Y3 Y6 3.598659 1_455
Y3 Y4 3.636376 1_554
Y3 Y5 3.698888 1_555
Y5 Y7 3.448808 1_455
Y5 Y9 3.587910 1_555
Y5 Y8 3.587981 1_455
Y10 Y5 3.448074 1_555
Y10 Y3 3.487464 1_556
Y10 Y12 3.487919 1_565
Y11 Y13 3.506445 1_554
Y11 Y9 3.642711 1_554
Y11 Y2 3.642749 1_545
Y11 Y8 3.643802 1_554
Y11 Y14 3.643850 1_545
Y11 Y15 3.666632 1_555
Y11 Y3 3.667363 1_555
Y11 Y12 3.667420 1_555
Y12 Y13 3.455472 1_455
Y12 Y2 3.571795 1_545
Y12 Y6 3.598941 1_455
Y12 Y4 3.636551 1_545
Y12 Y8 3.654878 1_455
Y12 Y3 3.667661 1_555
Y12 Y15 3.691659 1_555
Y12 Y5 3.698671 1_555
Y13 Y15 3.456457 1_555
Y14 Y15 3.572825 1_565
Y14 Y5 3.588132 1_655
Y14 Y3 3.654772 1_655
Y15 Y7 3.489180 1_545
Y15 Y6 3.599603 1_555
Y15 Y4 3.635921 1_545
Y15 Y9 3.655119 1_555
Y15 Y5 3.698177 1_555
In0 In2 3.226149 1_555
In0 In1 3.226190 1_555
In0 In3 3.229639 1_555
In0 Y5 3.241315 1_555
In0 Y15 3.257349 1_555
In0 Y0 3.257491 1_555
In0 Y13 3.430299 1_555
In0 Y1 3.430311 1_555
In0 Y10 3.461040 1_555
In0 Y9 3.480612 1_555
In0 Y2 3.480676 1_555
In0 Y6 3.499338 1_555
In1 In3 3.225246 1_555
In1 In2 3.225376 1_555
In1 Y0 3.240259 1_556
In1 Y3 3.242041 1_556
In1 Y11 3.264161 1_556
In1 Y13 3.457875 1_555
In1 Y4 3.462457 1_555
In1 Y10 3.479610 1_555
In1 Y7 3.480357 1_555
In1 Y8 3.486374 1_555
In1 Y9 3.487586 1_555
In2 In3 3.225229 1_555
In2 Y15 3.240426 1_565
In2 Y12 3.242179 1_565
In2 Y11 3.264424 1_565
In2 Y1 3.457975 1_555
In2 Y4 3.462516 1_555
In2 Y10 3.479705 1_555
In2 Y7 3.480501 1_555
In2 Y14 3.486476 1_555
In2 Y2 3.487660 1_555
In3 Y5 3.240158 1_655
In3 Y12 3.257955 1_655
In3 Y3 3.258093 1_655
In3 Y13 3.430525 1_555
In3 Y1 3.430554 1_555
In3 Y7 3.463185 1_555
In3 Y8 3.480491 1_555
In3 Y14 3.480546 1_555
In3 Y6 3.499684 1_555
Ru0 Y9 2.777343 1_655
Ru0 Y8 2.778838 1_555
Ru0 Y6 2.801236 1_556
Ru0 Y1 2.834637 1_556
Ru0 Y10 2.860415 1_655
Ru0 Y7 2.860541 1_555
Ru0 Y3 3.444050 1_656
Ru0 Y0 3.447976 1_556
Ru0 Y5 3.495686 1_655
Ru1 Y2 2.777588 1_655
Ru1 Y14 2.779058 1_555
Ru1 Y6 2.801785 1_565
Ru1 Y13 2.834791 1_565
Ru1 Y10 2.860621 1_655
Ru1 Y7 2.860742 1_555
Ru1 Y12 3.444221 1_665
Ru1 Y15 3.448124 1_565
Ru1 Y5 3.495718 1_655
Pt0 Y4 2.848076 1_555
Pt0 Y2 2.865314 1_556
Pt0 Y9 2.865604 1_565
Pt0 Y7 2.877344 1_555
Pt0 Y13 2.881874 1_565
Pt0 Y1 2.881898 1_556
Pt0 Y11 3.437930 1_566
Pt0 Y0 3.512815 1_556
Pt0 Y15 3.512909 1_565
Pt1 Y4 2.847755 1_655
Pt1 Y14 2.866054 1_556
Pt1 Y8 2.866350 1_565
Pt1 Y10 2.876962 1_655
Pt1 Y13 2.882867 1_565
Pt1 Y1 2.882882 1_556
Pt1 Y11 3.442217 1_566
Pt1 Y3 3.510211 1_656
Pt1 Y12 3.510354 1_665
