# generated using pymatgen
data_Ba3In2(SbP)2
_symmetry_space_group_name_H-M   'P 1'
_cell_length_a   9.36084315
_cell_length_b   9.36084304
_cell_length_c   7.35770822
_cell_angle_alpha   89.09462576
_cell_angle_beta   89.09463541
_cell_angle_gamma   75.18191377
_symmetry_Int_Tables_number   1
_chemical_formula_structural   Ba3In2(SbP)2
_chemical_formula_sum   'Ba6 In4 Sb4 P4'
_cell_volume   623.15635943
_cell_formula_units_Z   2
loop_
 _symmetry_equiv_pos_site_id
 _symmetry_equiv_pos_as_xyz
  1  'x, y, z'
loop_
 _atom_site_type_symbol
 _atom_site_label
 _atom_site_symmetry_multiplicity
 _atom_site_fract_x
 _atom_site_fract_y
 _atom_site_fract_z
 _atom_site_occupancy
  Ba  Ba0  1  0.00457797  0.73295155  0.52909785  1
  Ba  Ba1  1  0.26704845  0.99542203  0.97090215  1
  Ba  Ba2  1  0.99542203  0.26704845  0.47090215  1
  Ba  Ba3  1  0.73295155  0.00457797  0.02909785  1
  Ba  Ba4  1  0.41659130  0.58340870  0.25000000  1
  Ba  Ba5  1  0.58340870  0.41659130  0.75000000  1
  In  In0  1  0.81147956  0.58939950  0.09434003  1
  In  In1  1  0.41060050  0.18852044  0.40565997  1
  In  In2  1  0.18852044  0.41060050  0.90565997  1
  In  In3  1  0.58939950  0.81147956  0.59434003  1
  Sb  Sb0  1  0.06254252  0.71147311  0.02421242  1
  Sb  Sb1  1  0.28852689  0.93745748  0.47578758  1
  Sb  Sb2  1  0.93745748  0.28852689  0.97578758  1
  Sb  Sb3  1  0.71147311  0.06254252  0.52421242  1
  P  P0  1  0.73913973  0.57189586  0.43587389  1
  P  P1  1  0.42810414  0.26086027  0.06412611  1
  P  P2  1  0.26086027  0.42810414  0.56412611  1
  P  P3  1  0.57189586  0.73913973  0.93587389  1
loop_
_geom_bond_atom_site_label_1
_geom_bond_atom_site_label_2
_geom_bond_distance
_geom_bond_site_symmetry_2
Ba0 P2 3.234117 1_555
Ba0 P0 3.304525 1_455
Ba0 Sb3 3.566192 1_465
Ba0 Sb1 3.664638 1_555
Ba0 Sb0 3.686344 1_556
Ba0 Sb0 3.746822 1_555
Ba1 P3 3.234117 1_555
Ba1 P1 3.304525 1_566
Ba1 Sb2 3.566192 1_465
Ba1 Sb0 3.664638 1_556
Ba1 Sb1 3.686345 1_555
Ba1 Sb1 3.746822 1_556
Ba2 P0 3.234117 1_555
Ba2 P2 3.304525 1_655
Ba2 Sb1 3.566192 1_645
Ba2 Sb3 3.664638 1_555
Ba2 Sb2 3.686344 1_554
Ba2 Sb2 3.746822 1_555
Ba3 P1 3.234117 1_555
Ba3 P3 3.304525 1_544
Ba3 Sb0 3.566192 1_645
Ba3 Sb2 3.664638 1_554
Ba3 Sb3 3.686345 1_555
Ba3 Sb3 3.746822 1_554
Ba4 P3 3.232926 1_554
Ba4 P2 3.232926 1_555
Ba4 P0 3.310239 1_555
Ba4 P1 3.310239 1_555
Ba4 Sb0 3.641385 1_555
Ba4 Sb1 3.641385 1_555
Ba5 P1 3.232926 1_556
Ba5 P0 3.232926 1_555
Ba5 P2 3.310239 1_555
Ba5 P3 3.310239 1_555
Ba5 Sb2 3.641385 1_555
Ba5 Sb3 3.641385 1_555
In0 P3 2.603257 1_554
In0 P0 2.605774 1_555
In0 Sb0 2.900344 1_655
In0 Sb2 2.903451 1_554
In1 P2 2.603257 1_555
In1 P1 2.605774 1_555
In1 Sb1 2.900344 1_545
In1 Sb3 2.903451 1_555
In2 P1 2.603257 1_556
In2 P2 2.605774 1_555
In2 Sb2 2.900344 1_455
In2 Sb0 2.903451 1_556
In3 P0 2.603257 1_555
In3 P3 2.605774 1_555
In3 Sb3 2.900344 1_565
In3 Sb1 2.903451 1_555
