# generated using pymatgen
data_Li3Zr(SiIr)4
_symmetry_space_group_name_H-M   'P 1'
_cell_length_a   3.97960155
_cell_length_b   6.69416680
_cell_length_c   6.79272355
_cell_angle_alpha   88.15848091
_cell_angle_beta   90.00000000
_cell_angle_gamma   90.00000000
_symmetry_Int_Tables_number   1
_chemical_formula_structural   Li3Zr(SiIr)4
_chemical_formula_sum   'Li3 Zr1 Si4 Ir4'
_cell_volume   180.86548868
_cell_formula_units_Z   1
loop_
 _symmetry_equiv_pos_site_id
 _symmetry_equiv_pos_as_xyz
  1  'x, y, z'
loop_
 _atom_site_type_symbol
 _atom_site_label
 _atom_site_symmetry_multiplicity
 _atom_site_fract_x
 _atom_site_fract_y
 _atom_site_fract_z
 _atom_site_occupancy
  Li  Li0  1  0.25000000  0.00313102  0.33400750  1
  Li  Li1  1  0.25000000  0.51867003  0.18637539  1
  Li  Li2  1  0.75000000  0.98990168  0.65694070  1
  Zr  Zr0  1  0.75000000  0.49477494  0.83815585  1
  Si  Si0  1  0.25000000  0.28574806  0.61406879  1
  Si  Si1  1  0.25000000  0.80848730  0.86652186  1
  Si  Si2  1  0.75000000  0.70538825  0.37168457  1
  Si  Si3  1  0.75000000  0.19257317  0.13704852  1
  Ir  Ir0  1  0.25000000  0.15701519  0.94485081  1
  Ir  Ir1  1  0.25000000  0.64567487  0.56363346  1
  Ir  Ir2  1  0.75000000  0.84754846  0.05103414  1
  Ir  Ir3  1  0.75000000  0.35108602  0.43567940  1
loop_
_geom_bond_atom_site_label_1
_geom_bond_atom_site_label_2
_geom_bond_distance
_geom_bond_site_symmetry_2
Li0 Si3 2.692291 1_555
Li0 Si3 2.692291 1_455
Li0 Si0 2.725727 1_555
Li0 Si2 2.822167 1_445
Li0 Si2 2.822167 1_545
Li0 Li2 2.960832 1_545
Li0 Li2 2.960832 1_445
Li1 Si2 2.684622 1_555
Li1 Si2 2.684622 1_455
Li1 Si1 2.865928 1_554
Li1 Si3 2.980577 1_455
Li1 Si3 2.980577 1_555
Li1 Zr0 3.099054 1_454
Li1 Zr0 3.099054 1_554
Li2 Si1 2.711036 1_555
Li2 Si1 2.711036 1_655
Li2 Si2 2.760283 1_555
Li2 Si0 2.815885 1_565
Li2 Si0 2.815885 1_665
Si0 Zr0 2.893286 1_555
Si0 Zr0 2.893286 1_455
Si1 Zr0 2.903897 1_455
Si1 Zr0 2.903897 1_555
Si3 Zr0 2.819683 1_554
Ir0 Si0 2.380502 1_555
Ir0 Si3 2.395911 1_456
Ir0 Si3 2.395911 1_556
Ir0 Si1 2.409616 1_545
Ir0 Li0 2.806045 1_556
Ir0 Li1 2.967829 1_556
Ir0 Li2 3.029210 1_445
Ir0 Li2 3.029210 1_545
Ir0 Zr0 3.080822 1_455
Ir0 Zr0 3.080822 1_555
Ir1 Si1 2.359032 1_555
Ir1 Si2 2.405335 1_555
Ir1 Si2 2.405335 1_455
Ir1 Si0 2.422721 1_555
Ir1 Li1 2.725770 1_555
Ir1 Li0 2.814051 1_565
Ir1 Zr0 2.887205 1_455
Ir1 Zr0 2.887205 1_555
Ir2 Si2 2.348720 1_555
Ir2 Si1 2.370571 1_654
Ir2 Si1 2.370571 1_554
Ir2 Si3 2.400542 1_565
Ir2 Zr0 2.808426 1_554
Ir2 Li2 2.812524 1_554
Ir2 Li0 2.977815 1_565
Ir2 Li0 2.977815 1_665
Ir2 Li1 3.085661 1_655
Ir2 Li1 3.085661 1_555
Ir3 Si3 2.319306 1_555
Ir3 Si0 2.363236 1_655
Ir3 Si0 2.363236 1_555
Ir3 Si2 2.397486 1_555
Ir3 Li2 2.805575 1_545
Ir3 Li1 2.821969 1_655
Ir3 Li1 2.821969 1_555
Ir3 Zr0 2.927198 1_555
Ir3 Li0 3.156764 1_555
Ir3 Li0 3.156764 1_655
