# generated using pymatgen
data_Y20CdIn5Os2
_symmetry_space_group_name_H-M   'P 1'
_cell_length_a   9.77722631
_cell_length_b   9.82501214
_cell_length_c   9.72995632
_cell_angle_alpha   90.00000000
_cell_angle_beta   90.00000000
_cell_angle_gamma   120.16180722
_symmetry_Int_Tables_number   1
_chemical_formula_structural   Y20CdIn5Os2
_chemical_formula_sum   'Y20 Cd1 In5 Os2'
_cell_volume   808.12746560
_cell_formula_units_Z   1
loop_
 _symmetry_equiv_pos_site_id
 _symmetry_equiv_pos_as_xyz
  1  'x, y, z'
loop_
 _atom_site_type_symbol
 _atom_site_label
 _atom_site_symmetry_multiplicity
 _atom_site_fract_x
 _atom_site_fract_y
 _atom_site_fract_z
 _atom_site_occupancy
  Y  Y0  1  0.99513834  0.99756917  0.50329250  1
  Y  Y1  1  0.99513834  0.99756917  0.99670750  1
  Y  Y2  1  0.21075649  0.79060995  0.43922733  1
  Y  Y3  1  0.21075649  0.42014753  0.43922733  1
  Y  Y4  1  0.57859880  0.78930040  0.43725083  1
  Y  Y5  1  0.79021481  0.21132439  0.56125022  1
  Y  Y6  1  0.79021481  0.57888842  0.56125022  1
  Y  Y7  1  0.41974347  0.20987124  0.56240055  1
  Y  Y8  1  0.79021481  0.21132439  0.93874978  1
  Y  Y9  1  0.79021481  0.57888842  0.93874978  1
  Y  Y10  1  0.41974347  0.20987124  0.93759945  1
  Y  Y11  1  0.21075649  0.79060995  0.06077267  1
  Y  Y12  1  0.21075649  0.42014753  0.06077267  1
  Y  Y13  1  0.57859880  0.78930040  0.06274917  1
  Y  Y14  1  0.53946993  0.46007899  0.25000000  1
  Y  Y15  1  0.53946993  0.07939294  0.25000000  1
  Y  Y16  1  0.92587169  0.46293534  0.25000000  1
  Y  Y17  1  0.46459473  0.54252572  0.75000000  1
  Y  Y18  1  0.46459473  0.92206801  0.75000000  1
  Y  Y19  1  0.08017273  0.54008637  0.75000000  1
  Cd  Cd0  1  0.76558722  0.88279411  0.75000000  1
  In  In0  1  0.88434842  0.11827274  0.25000000  1
  In  In1  1  0.88434842  0.76607567  0.25000000  1
  In  In2  1  0.23136787  0.11568393  0.25000000  1
  In  In3  1  0.11646816  0.88148188  0.75000000  1
  In  In4  1  0.11646816  0.23498528  0.75000000  1
  Os  Os0  1  0.32909868  0.66454934  0.25000000  1
  Os  Os1  1  0.66729097  0.33364549  0.75000000  1
loop_
_geom_bond_atom_site_label_1
_geom_bond_atom_site_label_2
_geom_bond_distance
_geom_bond_site_symmetry_2
Cd0 Y0 3.086704 1_555
Cd0 Y1 3.086704 1_555
Cd0 Y18 3.154440 1_555
Cd0 Y17 3.154452 1_555
Cd0 Y13 3.429095 1_556
Cd0 Y4 3.429095 1_555
Cd0 In4 3.437128 1_665
Cd0 In3 3.437138 1_655
Cd0 Y8 3.615048 1_565
Cd0 Y5 3.615048 1_565
Cd0 Y9 3.615073 1_555
Cd0 Y6 3.615073 1_555
In0 Y1 3.153493 1_544
In0 Y0 3.153493 1_545
In0 Y15 3.197129 1_555
In0 Y16 3.201631 1_555
In0 In2 3.405738 1_655
In0 Y5 3.420519 1_555
In0 Y8 3.420519 1_554
In0 Y3 3.586060 1_655
In0 Y12 3.586060 1_655
In0 Y4 3.604629 1_545
In0 Y13 3.604629 1_545
In1 Y1 3.153493 1_554
In1 Y0 3.153493 1_555
In1 Y14 3.197121 1_555
In1 Y16 3.201641 1_555
In1 In2 3.405738 1_665
In1 Y6 3.420527 1_555
In1 Y9 3.420527 1_554
In1 Y2 3.586057 1_655
In1 Y11 3.586057 1_655
In1 Y4 3.604638 1_555
In1 Y13 3.604638 1_555
In2 Y1 3.172025 1_444
In2 Y0 3.172025 1_445
In2 Y15 3.206389 1_555
In2 Y14 3.206401 1_555
In2 Y7 3.431511 1_555
In2 Y10 3.431511 1_554
In2 Y2 3.603397 1_545
In2 Y11 3.603397 1_545
In2 Y3 3.603405 1_555
In2 Y12 3.603405 1_555
In3 Y0 3.135268 1_455
In3 Y1 3.135268 1_455
In3 Y19 3.190700 1_555
In3 Y18 3.221858 1_555
In3 Y11 3.408441 1_556
In3 Y2 3.408441 1_555
In3 In4 3.473175 1_565
In3 Y9 3.585652 1_455
In3 Y6 3.585652 1_455
In3 Y10 3.594484 1_565
In3 Y7 3.594484 1_565
In4 Y0 3.135263 1_445
In4 Y1 3.135263 1_445
In4 Y19 3.190710 1_555
In4 Y17 3.221858 1_555
In4 Y12 3.408449 1_556
In4 Y3 3.408449 1_555
In4 Y8 3.585648 1_455
In4 Y5 3.585648 1_455
In4 Y10 3.594484 1_555
In4 Y7 3.594484 1_555
Os0 Y3 2.775382 1_555
Os0 Y12 2.775382 1_555
Os0 Y2 2.775388 1_555
Os0 Y11 2.775388 1_555
Os0 Y4 2.787108 1_555
Os0 Y13 2.787108 1_555
Os0 Y16 3.408674 1_455
Os0 Y14 3.524009 1_555
Os0 Y15 3.524026 1_565
Os1 Y10 2.776866 1_555
Os1 Y7 2.776866 1_555
Os1 Y9 2.777230 1_555
Os1 Y6 2.777230 1_555
Os1 Y8 2.777243 1_555
Os1 Y5 2.777243 1_555
Os1 Y19 3.490291 1_655
Os1 Y17 3.496618 1_555
Os1 Y18 3.496626 1_545
