# generated using pymatgen
data_Rb3GeTe3
_symmetry_space_group_name_H-M   'P 1'
_cell_length_a   8.73118448
_cell_length_b   8.73118493
_cell_length_c   9.21433880
_cell_angle_alpha   75.13054652
_cell_angle_beta   75.13054066
_cell_angle_gamma   109.67587093
_symmetry_Int_Tables_number   1
_chemical_formula_structural   Rb3GeTe3
_chemical_formula_sum   'Rb6 Ge2 Te6'
_cell_volume   592.13152222
_cell_formula_units_Z   2
loop_
 _symmetry_equiv_pos_site_id
 _symmetry_equiv_pos_as_xyz
  1  'x, y, z'
loop_
 _atom_site_type_symbol
 _atom_site_label
 _atom_site_symmetry_multiplicity
 _atom_site_fract_x
 _atom_site_fract_y
 _atom_site_fract_z
 _atom_site_occupancy
  Rb  Rb0  1  0.20692773  0.20692773  0.32373417  1
  Rb  Rb1  1  0.00000000  0.50000000  0.00000000  1
  Rb  Rb2  1  0.65904405  0.34095595  0.50000000  1
  Rb  Rb3  1  0.34095595  0.65904405  0.50000000  1
  Rb  Rb4  1  0.50000000  0.00000000  0.00000000  1
  Rb  Rb5  1  0.79307227  0.79307227  0.67626583  1
  Ge  Ge0  1  0.10904292  0.10904292  0.85963104  1
  Ge  Ge1  1  0.89095708  0.89095708  0.14036896  1
  Te  Te0  1  0.63879387  0.63879387  0.12276785  1
  Te  Te1  1  0.36120613  0.36120613  0.87723215  1
  Te  Te2  1  0.75368625  0.05094466  0.29709906  1
  Te  Te3  1  0.94905534  0.24631375  0.70290094  1
  Te  Te4  1  0.24631375  0.94905534  0.70290094  1
  Te  Te5  1  0.05094466  0.75368625  0.29709906  1
loop_
_geom_bond_atom_site_label_1
_geom_bond_atom_site_label_2
_geom_bond_distance
_geom_bond_site_symmetry_2
Rb0 Te1 3.693947 1_554
Rb0 Te3 3.807208 1_455
Rb0 Te4 3.807208 1_545
Rb0 Te2 3.823121 1_455
Rb0 Te5 3.823121 1_545
Rb0 Te0 3.888914 1_555
Rb1 Te4 3.644642 1_554
Rb1 Te2 3.644642 1_455
Rb1 Te0 3.760394 1_455
Rb1 Te1 3.760394 1_554
Rb1 Te5 3.958773 1_555
Rb1 Te3 3.958773 1_454
Rb2 Te4 3.625643 1_545
Rb2 Te5 3.625643 1_655
Rb2 Te2 3.692667 1_555
Rb2 Te3 3.692667 1_555
Rb2 Te1 3.855099 1_555
Rb2 Te0 3.855099 1_555
Rb3 Te2 3.625643 1_565
Rb3 Te3 3.625643 1_455
Rb3 Te4 3.692667 1_555
Rb3 Te5 3.692667 1_555
Rb3 Te0 3.855099 1_555
Rb3 Te1 3.855099 1_555
Rb4 Te3 3.644642 1_554
Rb4 Te5 3.644642 1_545
Rb4 Te1 3.760394 1_554
Rb4 Te0 3.760394 1_545
Rb4 Te2 3.958773 1_555
Rb4 Te4 3.958773 1_544
Rb5 Te0 3.693947 1_556
Rb5 Te5 3.807208 1_655
Rb5 Te2 3.807208 1_565
Rb5 Te4 3.823121 1_655
Rb5 Te3 3.823121 1_565
Rb5 Te1 3.888914 1_555
Ge0 Ge1 2.538802 1_446
Ge0 Te4 2.597653 1_545
Ge0 Te3 2.597653 1_455
Ge0 Te1 2.612167 1_555
Ge1 Te2 2.597653 1_565
Ge1 Te5 2.597653 1_655
Ge1 Te0 2.612167 1_555
