# generated using pymatgen
data_Mo3RuBr12
_symmetry_space_group_name_H-M   'P 1'
_cell_length_a   6.04760649
_cell_length_b   6.83392469
_cell_length_c   11.81434570
_cell_angle_alpha   90.00000000
_cell_angle_beta   90.00000000
_cell_angle_gamma   90.18284324
_symmetry_Int_Tables_number   1
_chemical_formula_structural   Mo3RuBr12
_chemical_formula_sum   'Mo3 Ru1 Br12'
_cell_volume   488.27127596
_cell_formula_units_Z   1
loop_
 _symmetry_equiv_pos_site_id
 _symmetry_equiv_pos_as_xyz
  1  'x, y, z'
loop_
 _atom_site_type_symbol
 _atom_site_label
 _atom_site_symmetry_multiplicity
 _atom_site_fract_x
 _atom_site_fract_y
 _atom_site_fract_z
 _atom_site_occupancy
  Mo  Mo0  1  0.22740512  0.74617698  0.00000000  1
  Mo  Mo1  1  0.27381075  0.25369809  0.50000000  1
  Mo  Mo2  1  0.77146284  0.74634148  0.00000000  1
  Ru  Ru0  1  0.73093780  0.25369374  0.50000000  1
  Br  Br0  1  0.50546749  0.09955688  0.65472242  1
  Br  Br1  1  0.00012495  0.90328338  0.84184810  1
  Br  Br2  1  0.50546749  0.09955688  0.34527758  1
  Br  Br3  1  0.00012495  0.90328338  0.15815190  1
  Br  Br4  1  0.99832387  0.43102470  0.00000000  1
  Br  Br5  1  0.50714183  0.56214753  0.50000000  1
  Br  Br6  1  0.50021902  0.04519987  0.00000000  1
  Br  Br7  1  0.99268834  0.96282840  0.50000000  1
  Br  Br8  1  0.99447177  0.39915074  0.35450946  1
  Br  Br9  1  0.49894100  0.59745261  0.14962302  1
  Br  Br10  1  0.99447177  0.39915074  0.64549054  1
  Br  Br11  1  0.49894100  0.59745261  0.85037698  1
loop_
_geom_bond_atom_site_label_1
_geom_bond_atom_site_label_2
_geom_bond_distance
_geom_bond_site_symmetry_2
Br0 Ru0 2.510192 1_555
Br0 Mo1 2.534392 1_555
Br1 Mo0 2.557841 1_556
Br1 Mo2 2.558182 1_456
Br2 Ru0 2.510192 1_555
Br2 Mo1 2.534392 1_555
Br3 Mo0 2.557841 1_555
Br3 Mo2 2.558182 1_455
Br4 Mo0 2.557110 1_655
Br4 Mo2 2.558231 1_555
Br5 Ru0 2.508672 1_555
Br5 Mo1 2.532890 1_555
Br6 Mo0 2.622298 1_545
Br6 Mo2 2.623645 1_545
Br7 Ru0 2.544998 1_565
Br7 Mo1 2.611533 1_665
Br8 Ru0 2.544127 1_555
Br8 Mo1 2.609052 1_655
Br9 Mo0 2.620124 1_555
Br9 Mo2 2.620229 1_555
Br10 Ru0 2.544127 1_555
Br10 Mo1 2.609052 1_655
Br11 Mo0 2.620124 1_556
Br11 Mo2 2.620229 1_556
