# generated using pymatgen
data_Zr10CdB2Sb5
_symmetry_space_group_name_H-M   'P 1'
_cell_length_a   8.50951816
_cell_length_b   8.50951882
_cell_length_c   5.78616311
_cell_angle_alpha   90.00000000
_cell_angle_beta   90.00000000
_cell_angle_gamma   119.94364830
_symmetry_Int_Tables_number   1
_chemical_formula_structural   Zr10CdB2Sb5
_chemical_formula_sum   'Zr10 Cd1 B2 Sb5'
_cell_volume   363.05933213
_cell_formula_units_Z   1
loop_
 _symmetry_equiv_pos_site_id
 _symmetry_equiv_pos_as_xyz
  1  'x, y, z'
loop_
 _atom_site_type_symbol
 _atom_site_label
 _atom_site_symmetry_multiplicity
 _atom_site_fract_x
 _atom_site_fract_y
 _atom_site_fract_z
 _atom_site_occupancy
  Zr  Zr0  1  0.66958090  0.33306406  0.49992943  1
  Zr  Zr1  1  0.33306406  0.66958090  0.49992943  1
  Zr  Zr2  1  0.33306406  0.66958090  0.00007057  1
  Zr  Zr3  1  0.66958090  0.33306406  0.00007057  1
  Zr  Zr4  1  0.76763077  0.76763077  0.25000000  1
  Zr  Zr5  1  0.23308601  0.00059222  0.25000000  1
  Zr  Zr6  1  0.00059222  0.23308601  0.25000000  1
  Zr  Zr7  1  0.22761485  0.22761485  0.75000000  1
  Zr  Zr8  1  0.76637345  0.99952601  0.75000000  1
  Zr  Zr9  1  0.99952601  0.76637345  0.75000000  1
  Cd  Cd0  1  0.39908224  0.39908224  0.25000000  1
  B  B0  1  0.00056103  0.00056103  0.49823759  1
  B  B1  1  0.00056103  0.00056103  0.00176241  1
  Sb  Sb0  1  0.60277559  0.00106831  0.25000000  1
  Sb  Sb1  1  0.00106831  0.60277559  0.25000000  1
  Sb  Sb2  1  0.59507448  0.59507448  0.75000000  1
  Sb  Sb3  1  0.39851893  0.00224816  0.75000000  1
  Sb  Sb4  1  0.00224816  0.39851893  0.75000000  1
loop_
_geom_bond_atom_site_label_1
_geom_bond_atom_site_label_2
_geom_bond_distance
_geom_bond_site_symmetry_2
Zr0 Zr3 2.892265 1_555
Zr0 Zr3 2.893898 1_556
Zr1 Zr2 2.892265 1_555
Zr1 Zr2 2.893898 1_556
Cd0 Zr6 2.951637 1_555
Cd0 Zr5 2.951637 1_555
Cd0 Zr0 2.999360 1_555
Cd0 Zr3 2.999360 1_555
Cd0 Zr1 2.999360 1_555
Cd0 Zr2 2.999360 1_555
Cd0 Zr4 3.138841 1_555
Cd0 Zr7 3.240762 1_555
Cd0 Zr7 3.240762 1_554
Cd0 Sb2 3.340092 1_554
Cd0 Sb2 3.340092 1_555
B0 Zr7 2.421060 1_555
B0 Zr5 2.444937 1_555
B0 Zr6 2.444937 1_555
B0 Zr4 2.449203 1_445
B0 Zr8 2.464952 1_445
B0 Zr9 2.464952 1_445
B1 Zr7 2.421060 1_554
B1 Zr5 2.444937 1_555
B1 Zr6 2.444937 1_555
B1 Zr4 2.449203 1_445
B1 Zr8 2.464952 1_444
B1 Zr9 2.464952 1_444
Sb0 Zr6 2.947133 1_655
Sb0 Zr4 2.948866 1_545
Sb0 Zr0 2.965216 1_555
Sb0 Zr3 2.965216 1_555
Sb0 Zr1 2.975354 1_545
Sb0 Zr2 2.975354 1_545
Sb0 Zr5 3.143860 1_555
Sb0 Zr8 3.213469 1_545
Sb0 Zr8 3.213469 1_544
Sb1 Zr5 2.947134 1_565
Sb1 Zr4 2.948866 1_455
Sb1 Zr1 2.965215 1_555
Sb1 Zr2 2.965215 1_555
Sb1 Zr0 2.975354 1_455
Sb1 Zr3 2.975354 1_455
Sb1 Zr6 3.143860 1_555
Sb1 Zr9 3.213469 1_454
Sb1 Zr9 3.213469 1_455
Sb2 Zr2 2.979572 1_556
Sb2 Zr1 2.979572 1_555
Sb2 Zr3 2.979572 1_556
Sb2 Zr0 2.979572 1_555
Sb2 Zr9 2.993613 1_555
Sb2 Zr8 2.993613 1_555
Sb2 Zr7 3.129567 1_555
Sb2 Zr4 3.244951 1_555
Sb2 Zr4 3.244951 1_556
Sb3 Zr7 2.928669 1_555
Sb3 Zr9 2.958576 1_445
Sb3 Zr2 2.973800 1_546
Sb3 Zr1 2.973800 1_545
Sb3 Zr3 2.975999 1_556
Sb3 Zr0 2.975999 1_555
Sb3 Zr8 3.141891 1_545
Sb3 Zr5 3.214357 1_556
Sb3 Zr5 3.214357 1_555
Sb4 Zr7 2.928669 1_555
Sb4 Zr8 2.958576 1_445
Sb4 Zr3 2.973799 1_456
Sb4 Zr0 2.973799 1_455
Sb4 Zr2 2.975998 1_556
Sb4 Zr1 2.975998 1_555
Sb4 Zr9 3.141891 1_455
Sb4 Zr6 3.214357 1_556
Sb4 Zr6 3.214357 1_555
