# generated using pymatgen
data_Ta2Al(Co10B3)2
_symmetry_space_group_name_H-M   'P 1'
_cell_length_a   7.40813310
_cell_length_b   7.40813364
_cell_length_c   7.40813504
_cell_angle_alpha   60.00000705
_cell_angle_beta   60.00000464
_cell_angle_gamma   60.00000294
_symmetry_Int_Tables_number   1
_chemical_formula_structural   Ta2Al(Co10B3)2
_chemical_formula_sum   'Ta2 Al1 Co20 B6'
_cell_volume   287.48257465
_cell_formula_units_Z   1
loop_
 _symmetry_equiv_pos_site_id
 _symmetry_equiv_pos_as_xyz
  1  'x, y, z'
loop_
 _atom_site_type_symbol
 _atom_site_label
 _atom_site_symmetry_multiplicity
 _atom_site_fract_x
 _atom_site_fract_y
 _atom_site_fract_z
 _atom_site_occupancy
  Ta  Ta0  1  0.25000000  0.25000000  0.25000000  1
  Ta  Ta1  1  0.75000000  0.75000000  0.75000000  1
  Al  Al0  1  0.00000000  0.00000000  0.00000000  1
  Co  Co0  1  0.84827426  0.38390925  0.38390925  1
  Co  Co1  1  0.38390925  0.84827426  0.38390925  1
  Co  Co2  1  0.38390925  0.38390925  0.84827426  1
  Co  Co3  1  0.38390925  0.38390925  0.38390925  1
  Co  Co4  1  0.15172574  0.61609075  0.61609075  1
  Co  Co5  1  0.61609075  0.15172574  0.61609075  1
  Co  Co6  1  0.61609075  0.61609075  0.15172574  1
  Co  Co7  1  0.61609075  0.61609075  0.61609075  1
  Co  Co8  1  0.65497996  1.00000000  0.00000000  1
  Co  Co9  1  0.65497996  0.00000000  0.34502004  1
  Co  Co10  1  0.65497996  0.34502004  0.00000000  1
  Co  Co11  1  0.00000000  0.65497996  0.34502004  1
  Co  Co12  1  1.00000000  0.65497996  0.00000000  1
  Co  Co13  1  0.34502004  0.65497996  1.00000000  1
  Co  Co14  1  1.00000000  0.34502004  0.65497996  1
  Co  Co15  1  0.34502004  1.00000000  0.65497996  1
  Co  Co16  1  1.00000000  1.00000000  0.65497996  1
  Co  Co17  1  0.34502004  0.00000000  1.00000000  1
  Co  Co18  1  0.00000000  0.34502004  1.00000000  1
  Co  Co19  1  0.00000000  0.00000000  0.34502004  1
  B  B0  1  0.72642356  0.27357644  0.27357644  1
  B  B1  1  0.72642356  0.27357644  0.72642356  1
  B  B2  1  0.72642356  0.72642356  0.27357644  1
  B  B3  1  0.27357644  0.72642356  0.72642356  1
  B  B4  1  0.27357644  0.72642356  0.27357644  1
  B  B5  1  0.27357644  0.27357644  0.72642356  1
loop_
_geom_bond_atom_site_label_1
_geom_bond_atom_site_label_2
_geom_bond_distance
_geom_bond_site_symmetry_2
Al0 Co17 2.555954 1_554
Al0 Co8 2.555954 1_445
Al0 Co18 2.555955 1_554
Al0 Co12 2.555955 1_445
Al0 Co10 2.555955 1_455
Al0 Co13 2.555955 1_544
Al0 Co15 2.555955 1_544
Al0 Co9 2.555955 1_455
Al0 Co19 2.555955 1_555
Al0 Co16 2.555955 1_444
Al0 Co11 2.555955 1_545
Al0 Co14 2.555955 1_454
Co0 Ta0 2.429925 1_655
Co1 Ta0 2.429925 1_565
Co2 Ta0 2.429925 1_556
Co3 Ta0 2.429937 1_555
Co4 Ta1 2.429925 1_455
Co5 Ta1 2.429925 1_545
Co6 Ta1 2.429925 1_554
Co7 Ta1 2.429937 1_555
B0 Co3 2.072357 1_555
B0 Co6 2.072358 1_555
B0 Co5 2.072358 1_555
B0 Co0 2.072369 1_555
B0 Co9 2.094659 1_555
B0 Co19 2.094659 1_655
B0 Co18 2.094659 1_654
B0 Co10 2.094659 1_555
B1 Co7 2.072357 1_555
B1 Co2 2.072357 1_555
B1 Co0 2.072358 1_555
B1 Co5 2.072369 1_555
B1 Co14 2.094659 1_555
B1 Co16 2.094659 1_545
B1 Co8 2.094659 1_546
B1 Co10 2.094659 1_556
B2 Co1 2.072357 1_555
B2 Co0 2.072358 1_555
B2 Co7 2.072358 1_555
B2 Co6 2.072369 1_555
B2 Co11 2.094659 1_655
B2 Co9 2.094659 1_565
B2 Co12 2.094659 1_555
B2 Co8 2.094659 1_555
B3 Co7 2.072357 1_555
B3 Co2 2.072358 1_555
B3 Co1 2.072358 1_555
B3 Co4 2.072369 1_555
B3 Co15 2.094659 1_555
B3 Co16 2.094659 1_455
B3 Co12 2.094659 1_456
B3 Co13 2.094659 1_555
B4 Co3 2.072357 1_555
B4 Co6 2.072357 1_555
B4 Co4 2.072358 1_555
B4 Co1 2.072369 1_555
B4 Co11 2.094659 1_555
B4 Co19 2.094659 1_565
B4 Co17 2.094659 1_564
B4 Co13 2.094659 1_554
B5 Co5 2.072357 1_555
B5 Co4 2.072358 1_555
B5 Co3 2.072358 1_555
B5 Co2 2.072369 1_555
B5 Co14 2.094659 1_455
B5 Co15 2.094659 1_545
B5 Co18 2.094659 1_555
B5 Co17 2.094659 1_555
