# generated using pymatgen
data_CaAs12Os3Rh
_symmetry_space_group_name_H-M   'P 1'
_cell_length_a   7.40269784
_cell_length_b   7.40269720
_cell_length_c   7.40269779
_cell_angle_alpha   109.41530513
_cell_angle_beta   109.41530851
_cell_angle_gamma   109.41531236
_symmetry_Int_Tables_number   1
_chemical_formula_structural   CaAs12Os3Rh
_chemical_formula_sum   'Ca1 As12 Os3 Rh1'
_cell_volume   312.92763531
_cell_formula_units_Z   1
loop_
 _symmetry_equiv_pos_site_id
 _symmetry_equiv_pos_as_xyz
  1  'x, y, z'
loop_
 _atom_site_type_symbol
 _atom_site_label
 _atom_site_symmetry_multiplicity
 _atom_site_fract_x
 _atom_site_fract_y
 _atom_site_fract_z
 _atom_site_occupancy
  Ca  Ca0  1  0.00000000  0.00000000  0.00000000  1
  As  As0  1  0.34883465  0.20062759  0.85133553  1
  As  As1  1  0.65116535  0.79937241  0.14866447  1
  As  As2  1  0.65060539  0.50199246  0.85414603  1
  As  As3  1  0.34939461  0.49800754  0.14585397  1
  As  As4  1  0.20062759  0.85133553  0.34883465  1
  As  As5  1  0.79937241  0.14866447  0.65116535  1
  As  As6  1  0.50199246  0.85414603  0.65060539  1
  As  As7  1  0.49800754  0.14585397  0.34939461  1
  As  As8  1  0.85133553  0.34883465  0.20062759  1
  As  As9  1  0.14866447  0.65116535  0.79937241  1
  As  As10  1  0.85414603  0.65060539  0.50199246  1
  As  As11  1  0.14585397  0.34939461  0.49800754  1
  Os  Os0  1  0.00000000  0.00000000  0.50000000  1
  Os  Os1  1  0.50000000  0.00000000  0.00000000  1
  Os  Os2  1  0.00000000  0.50000000  0.00000000  1
  Rh  Rh0  1  0.50000000  0.50000000  0.50000000  1
loop_
_geom_bond_atom_site_label_1
_geom_bond_atom_site_label_2
_geom_bond_distance
_geom_bond_site_symmetry_2
As0 Os1 2.458041 1_556
As0 Os0 2.460809 1_555
As0 As3 2.529166 1_556
As0 As2 2.567636 1_555
As0 Ca0 3.242148 1_556
As1 Os1 2.458041 1_565
As1 Os0 2.460809 1_665
As1 As2 2.529166 1_554
As1 As3 2.567636 1_555
As1 Ca0 3.242148 1_665
As2 Os2 2.456648 1_656
As2 Rh0 2.477166 1_555
As2 Ca0 3.256433 1_666
As3 Os2 2.456648 1_555
As3 Rh0 2.477166 1_555
As3 Ca0 3.256433 1_555
As4 Os0 2.458041 1_565
As4 Os2 2.460809 1_555
As4 As7 2.529165 1_565
As4 As6 2.567637 1_555
As4 Ca0 3.242148 1_565
As5 Os0 2.458041 1_655
As5 Os2 2.460809 1_656
As5 As6 2.529165 1_545
As5 As7 2.567637 1_555
As5 Ca0 3.242148 1_656
As6 Os1 2.456648 1_566
As6 Rh0 2.477166 1_555
As6 Ca0 3.256434 1_666
As7 Os1 2.456648 1_555
As7 Rh0 2.477166 1_555
As7 Ca0 3.256434 1_555
As8 Os2 2.458041 1_655
As8 Os1 2.460809 1_555
As8 Ca0 3.242148 1_655
As9 Os2 2.458041 1_556
As9 Os1 2.460809 1_566
As9 Ca0 3.242148 1_566
As10 Os0 2.456648 1_665
As10 Rh0 2.477166 1_555
As10 As9 2.529166 1_655
As10 As8 2.567637 1_555
As10 Ca0 3.256434 1_666
As11 Os0 2.456648 1_555
As11 Rh0 2.477166 1_555
As11 As8 2.529166 1_455
As11 As9 2.567637 1_555
As11 Ca0 3.256434 1_555
