# generated using pymatgen
data_Rb2Mg(HgSe2)2
_symmetry_space_group_name_H-M   'P 1'
_cell_length_a   9.92463034
_cell_length_b   9.92462931
_cell_length_c   9.92462945
_cell_angle_alpha   141.97015177
_cell_angle_beta   108.51904632
_cell_angle_gamma   83.95498610
_symmetry_Int_Tables_number   1
_chemical_formula_structural   Rb2Mg(HgSe2)2
_chemical_formula_sum   'Rb4 Mg2 Hg4 Se8'
_cell_volume   553.22070851
_cell_formula_units_Z   2
loop_
 _symmetry_equiv_pos_site_id
 _symmetry_equiv_pos_as_xyz
  1  'x, y, z'
loop_
 _atom_site_type_symbol
 _atom_site_label
 _atom_site_symmetry_multiplicity
 _atom_site_fract_x
 _atom_site_fract_y
 _atom_site_fract_z
 _atom_site_occupancy
  Rb  Rb0  1  0.12543035  0.77833071  0.90376106  1
  Rb  Rb1  1  0.87456965  0.22166929  0.09623894  1
  Rb  Rb2  1  0.62543035  0.72166929  0.34709964  1
  Rb  Rb3  1  0.37456965  0.27833071  0.65290036  1
  Mg  Mg0  1  0.25000000  0.75000000  0.50000000  1
  Mg  Mg1  1  0.75000000  0.25000000  0.50000000  1
  Hg  Hg0  1  0.91095149  0.75000000  0.16095149  1
  Hg  Hg1  1  0.58904851  0.75000000  0.83904851  1
  Hg  Hg2  1  0.08904851  0.25000000  0.83904851  1
  Hg  Hg3  1  0.41095149  0.25000000  0.16095149  1
  Se  Se0  1  0.23551035  0.64619001  0.15918189  1
  Se  Se1  1  0.48700812  0.07632846  0.84081811  1
  Se  Se2  1  0.01299188  0.85380999  0.58932034  1
  Se  Se3  1  0.26448965  0.42367154  0.41067966  1
  Se  Se4  1  0.76448965  0.35380999  0.84081811  1
  Se  Se5  1  0.51299188  0.92367154  0.15918189  1
  Se  Se6  1  0.98700812  0.14619001  0.41067966  1
  Se  Se7  1  0.73551035  0.57632846  0.58932034  1
loop_
_geom_bond_atom_site_label_1
_geom_bond_atom_site_label_2
_geom_bond_distance
_geom_bond_site_symmetry_2
Rb0 Se0 3.537757 1_556
Rb0 Se5 3.537757 1_556
Rb0 Se2 3.583268 1_555
Rb0 Se7 3.583268 1_455
Rb0 Se6 3.791200 1_455
Rb0 Se3 3.791200 1_555
Rb0 Se3 3.863326 1_566
Rb0 Se6 3.863326 1_466
Rb1 Se4 3.537757 1_554
Rb1 Se1 3.537757 1_554
Rb1 Se6 3.583268 1_555
Rb1 Se3 3.583268 1_655
Rb1 Se2 3.791200 1_655
Rb1 Se7 3.791200 1_555
Rb1 Se7 3.863326 1_544
Rb1 Se2 3.863326 1_644
Rb2 Se7 3.537757 1_555
Rb2 Se2 3.537757 1_655
Rb2 Se5 3.583268 1_555
Rb2 Se0 3.583268 1_555
Rb2 Se4 3.791200 1_565
Rb2 Se1 3.791200 1_565
Rb2 Se1 3.863326 1_554
Rb2 Se4 3.863326 1_554
Rb3 Se3 3.537757 1_555
Rb3 Se6 3.537757 1_455
Rb3 Se1 3.583268 1_555
Rb3 Se4 3.583268 1_555
Rb3 Se0 3.791200 1_545
Rb3 Se5 3.791200 1_545
Rb3 Se5 3.863326 1_556
Rb3 Se0 3.863326 1_556
Mg0 Se3 2.599150 1_555
Mg0 Se0 2.599150 1_555
Mg0 Se1 2.599150 1_565
Mg0 Se2 2.599150 1_555
Mg1 Se7 2.599150 1_555
Mg1 Se4 2.599150 1_555
Mg1 Se5 2.599150 1_545
Mg1 Se6 2.599150 1_555
Hg0 Se6 2.501492 1_565
Hg0 Se4 2.501492 1_554
Hg0 Rb0 3.979150 1_654
Hg0 Rb2 3.979150 1_555
Hg1 Se5 2.501493 1_556
Hg1 Se7 2.501493 1_555
Hg1 Rb3 3.979150 1_555
Hg1 Rb1 3.979150 1_566
Hg2 Se2 2.501492 1_545
Hg2 Se0 2.501492 1_556
Hg2 Rb1 3.979150 1_456
Hg2 Rb3 3.979150 1_555
Hg3 Se1 2.501493 1_554
Hg3 Se3 2.501493 1_555
Hg3 Rb2 3.979150 1_555
Hg3 Rb0 3.979150 1_544
