# generated using pymatgen
data_LiLuHf2N4
_symmetry_space_group_name_H-M   'P 1'
_cell_length_a   5.58684200
_cell_length_b   5.58684163
_cell_length_c   5.58684316
_cell_angle_alpha   132.55212328
_cell_angle_beta   132.55211290
_cell_angle_gamma   69.35841019
_symmetry_Int_Tables_number   1
_chemical_formula_structural   LiLuHf2N4
_chemical_formula_sum   'Li1 Lu1 Hf2 N4'
_cell_volume   92.84998205
_cell_formula_units_Z   1
loop_
 _symmetry_equiv_pos_site_id
 _symmetry_equiv_pos_as_xyz
  1  'x, y, z'
loop_
 _atom_site_type_symbol
 _atom_site_label
 _atom_site_symmetry_multiplicity
 _atom_site_fract_x
 _atom_site_fract_y
 _atom_site_fract_z
 _atom_site_occupancy
  Li  Li0  1  0.25000000  0.75000000  0.50000000  1
  Lu  Lu0  1  0.50000000  0.50000000  0.00000000  1
  Hf  Hf0  1  0.00000000  0.00000000  0.00000000  1
  Hf  Hf1  1  0.75000000  0.25000000  0.50000000  1
  N  N0  1  0.76140381  0.76140381  0.00000000  1
  N  N1  1  0.23859619  0.23859619  1.00000000  1
  N  N2  1  0.98422065  0.48422065  0.50000000  1
  N  N3  1  0.51577935  0.01577935  0.50000000  1
loop_
_geom_bond_atom_site_label_1
_geom_bond_atom_site_label_2
_geom_bond_distance
_geom_bond_site_symmetry_2
Li0 N1 2.250197 1_554
Li0 N1 2.250197 1_565
Li0 N0 2.250198 1_556
Li0 N0 2.250198 1_455
Li0 N3 2.442163 1_565
Li0 N2 2.442163 1_455
Lu0 N3 2.252427 1_565
Lu0 N3 2.252428 1_554
Lu0 N2 2.252428 1_454
Lu0 N2 2.252428 1_555
Lu0 N0 2.401957 1_555
Lu0 N1 2.401957 1_554
Hf0 N1 2.192385 1_554
Hf0 N0 2.192385 1_445
Hf0 N2 2.252427 1_444
Hf0 N2 2.252428 1_455
Hf0 N3 2.252428 1_555
Hf0 N3 2.252428 1_454
Hf1 N2 2.152180 1_555
Hf1 N3 2.152180 1_555
Hf1 N0 2.250197 1_556
Hf1 N0 2.250197 1_545
Hf1 N1 2.250198 1_554
Hf1 N1 2.250198 1_655
