# generated using pymatgen
data_KSc(CO3)2
_symmetry_space_group_name_H-M   'P 1'
_cell_length_a   6.48845438
_cell_length_b   6.48842335
_cell_length_c   6.48854230
_cell_angle_alpha   45.74358733
_cell_angle_beta   45.74385555
_cell_angle_gamma   45.74341846
_symmetry_Int_Tables_number   1
_chemical_formula_structural   KSc(CO3)2
_chemical_formula_sum   'K1 Sc1 C2 O6'
_cell_volume   127.74414417
_cell_formula_units_Z   1
loop_
 _symmetry_equiv_pos_site_id
 _symmetry_equiv_pos_as_xyz
  1  'x, y, z'
loop_
 _atom_site_type_symbol
 _atom_site_label
 _atom_site_symmetry_multiplicity
 _atom_site_fract_x
 _atom_site_fract_y
 _atom_site_fract_z
 _atom_site_occupancy
  K  K0  1  0.50000000  0.50000000  0.50000000  1
  Sc  Sc0  1  0.00000000  0.00000000  0.00000000  1
  C  C0  1  0.26475655  0.26475920  0.26475508  1
  C  C1  1  0.73524345  0.73524080  0.73524492  1
  O  O0  1  0.54717802  0.19127613  0.05236385  1
  O  O1  1  0.05236725  0.54717259  0.19127753  1
  O  O2  1  0.80872098  0.94763796  0.45282323  1
  O  O3  1  0.19127902  0.05236204  0.54717677  1
  O  O4  1  0.94763275  0.45282741  0.80872247  1
  O  O5  1  0.45282198  0.80872387  0.94763615  1
loop_
_geom_bond_atom_site_label_1
_geom_bond_atom_site_label_2
_geom_bond_distance
_geom_bond_site_symmetry_2
K0 O3 2.757928 1_565
K0 O2 2.757928 1_545
K0 O1 2.757961 1_655
K0 O4 2.757961 1_455
K0 O0 2.757998 1_556
K0 O5 2.757998 1_554
C0 O1 1.287346 1_555
C0 O0 1.287397 1_555
C0 O3 1.287406 1_555
C1 O4 1.287346 1_555
C1 O5 1.287397 1_555
C1 O2 1.287406 1_555
O0 Sc0 2.096181 1_655
O1 Sc0 2.096184 1_565
O2 Sc0 2.096232 1_665
O3 Sc0 2.096232 1_556
O4 Sc0 2.096184 1_656
O5 Sc0 2.096181 1_566
