# generated using pymatgen
data_NaIn(SeO4)2
_symmetry_space_group_name_H-M   'P 1'
_cell_length_a   5.04212945
_cell_length_b   5.04213004
_cell_length_c   7.23267294
_cell_angle_alpha   90.73303637
_cell_angle_beta   90.73303577
_cell_angle_gamma   67.28065472
_symmetry_Int_Tables_number   1
_chemical_formula_structural   NaIn(SeO4)2
_chemical_formula_sum   'Na1 In1 Se2 O8'
_cell_volume   169.58932619
_cell_formula_units_Z   1
loop_
 _symmetry_equiv_pos_site_id
 _symmetry_equiv_pos_as_xyz
  1  'x, y, z'
loop_
 _atom_site_type_symbol
 _atom_site_label
 _atom_site_symmetry_multiplicity
 _atom_site_fract_x
 _atom_site_fract_y
 _atom_site_fract_z
 _atom_site_occupancy
  Na  Na0  1  0.00000000  0.00000000  0.50000000  1
  In  In0  1  0.00000000  0.00000000  0.00000000  1
  Se  Se0  1  0.36236543  0.36236543  0.23428420  1
  Se  Se1  1  0.63763357  0.63763357  0.76571580  1
  O  O0  1  0.25142742  0.25142742  0.04234160  1
  O  O1  1  0.72121609  0.23739588  0.22315408  1
  O  O2  1  0.23739588  0.72121609  0.22315408  1
  O  O3  1  0.26976762  0.26976762  0.42762532  1
  O  O4  1  0.73023038  0.73023038  0.57237368  1
  O  O5  1  0.76260512  0.27878391  0.77684692  1
  O  O6  1  0.27878391  0.76260512  0.77684692  1
  O  O7  1  0.74857158  0.74857158  0.95765840  1
loop_
_geom_bond_atom_site_label_1
_geom_bond_atom_site_label_2
_geom_bond_distance
_geom_bond_site_symmetry_2
Na0 O3 2.332355 1_555
Na0 O4 2.332369 1_445
Na0 O1 2.471366 1_455
Na0 O2 2.471366 1_545
Na0 O6 2.471371 1_545
Na0 O5 2.471371 1_455
In0 O0 2.128287 1_555
In0 O7 2.128295 1_444
In0 O6 2.173149 1_544
In0 O5 2.173150 1_454
In0 O1 2.173156 1_455
In0 O2 2.173156 1_545
O0 Se0 1.659814 1_555
O1 Se0 1.673056 1_555
O2 Se0 1.673056 1_555
O3 Se0 1.610345 1_555
O4 Se1 1.610347 1_555
O5 Se1 1.673052 1_555
O6 Se1 1.673052 1_555
O7 Se1 1.659814 1_555
