# generated using pymatgen
data_LiCu2(Se3I)3
_symmetry_space_group_name_H-M   'P 1'
_cell_length_a   9.57114348
_cell_length_b   9.63442261
_cell_length_c   9.57114353
_cell_angle_alpha   96.50642509
_cell_angle_beta   95.10494990
_cell_angle_gamma   96.50643052
_symmetry_Int_Tables_number   1
_chemical_formula_structural   LiCu2(Se3I)3
_chemical_formula_sum   'Li2 Cu4 Se18 I6'
_cell_volume   866.59907551
_cell_formula_units_Z   2
loop_
 _symmetry_equiv_pos_site_id
 _symmetry_equiv_pos_as_xyz
  1  'x, y, z'
loop_
 _atom_site_type_symbol
 _atom_site_label
 _atom_site_symmetry_multiplicity
 _atom_site_fract_x
 _atom_site_fract_y
 _atom_site_fract_z
 _atom_site_occupancy
  Li  Li0  1  0.88634088  0.39376250  0.88634088  1
  Li  Li1  1  0.11365912  0.60623750  0.11365912  1
  Cu  Cu0  1  0.39159861  0.88846851  0.88755538  1
  Cu  Cu1  1  0.88755538  0.88846851  0.39159861  1
  Cu  Cu2  1  0.60840139  0.11153149  0.11244462  1
  Cu  Cu3  1  0.11244462  0.11153149  0.60840139  1
  Se  Se0  1  0.86630909  0.61072521  0.60570882  1
  Se  Se1  1  0.60570882  0.61072521  0.86630909  1
  Se  Se2  1  0.61202660  0.87448792  0.61202660  1
  Se  Se3  1  0.38797340  0.12551208  0.38797340  1
  Se  Se4  1  0.13369091  0.38927479  0.39429118  1
  Se  Se5  1  0.39429118  0.38927479  0.13369091  1
  Se  Se6  1  0.13998847  0.87637270  0.87797118  1
  Se  Se7  1  0.87797118  0.87637270  0.13998847  1
  Se  Se8  1  0.87247387  0.11769735  0.87247387  1
  Se  Se9  1  0.12752613  0.88230265  0.12752613  1
  Se  Se10  1  0.86001153  0.12362730  0.12202882  1
  Se  Se11  1  0.12202882  0.12362730  0.86001153  1
  Se  Se12  1  0.45161794  0.71531351  0.71113412  1
  Se  Se13  1  0.71113412  0.71531351  0.45161794  1
  Se  Se14  1  0.69613675  0.45707472  0.69613675  1
  Se  Se15  1  0.30386325  0.54292528  0.30386325  1
  Se  Se16  1  0.54838206  0.28468649  0.28886588  1
  Se  Se17  1  0.28886588  0.28468649  0.54838206  1
  I  I0  1  0.14516834  0.85185642  0.49961395  1
  I  I1  1  0.84717437  0.50000000  0.15282563  1
  I  I2  1  0.50038605  0.14814358  0.85483166  1
  I  I3  1  0.85483166  0.14814358  0.50038605  1
  I  I4  1  0.15282563  0.50000000  0.84717437  1
  I  I5  1  0.49961395  0.85185642  0.14516834  1
loop_
_geom_bond_atom_site_label_1
_geom_bond_atom_site_label_2
_geom_bond_distance
_geom_bond_site_symmetry_2
Li0 Se14 2.629418 1_555
Li0 Se8 2.635573 1_555
Li1 Se15 2.629418 1_555
Li1 Se9 2.635573 1_555
Cu0 Se12 2.390747 1_555
Cu0 Se6 2.390830 1_555
Cu0 I2 2.662066 1_565
Cu0 I5 2.664353 1_556
Cu1 Se13 2.390747 1_555
Cu1 Se7 2.390830 1_555
Cu1 I3 2.662066 1_565
Cu1 I0 2.664353 1_655
Cu2 Se16 2.390747 1_555
Cu2 Se10 2.390830 1_555
Cu2 I5 2.662066 1_545
Cu2 I2 2.664353 1_554
Cu3 Se17 2.390747 1_555
Cu3 Se11 2.390830 1_555
Cu3 I0 2.662066 1_545
Cu3 I3 2.664353 1_455
Se0 Se14 2.363914 1_555
Se0 Se13 2.383787 1_555
Se1 Se14 2.363914 1_555
Se1 Se12 2.383787 1_555
Se6 Se9 2.396637 1_556
Se7 Se9 2.396637 1_655
Se10 Se8 2.396637 1_554
Se10 Se7 2.431893 1_545
Se11 Se8 2.396637 1_455
Se11 Se6 2.431893 1_545
Se12 Se2 2.379908 1_555
Se13 Se2 2.379908 1_555
Se15 Se4 2.363914 1_555
Se15 Se5 2.363914 1_555
Se16 Se3 2.379908 1_555
Se16 Se5 2.383787 1_555
Se17 Se3 2.379908 1_555
Se17 Se4 2.383787 1_555
I1 Li1 2.712748 1_655
I1 Li0 2.712748 1_554
I4 Li0 2.712748 1_455
I4 Li1 2.712748 1_556
