# generated using pymatgen
data_Ti8Al15Ru5Au2
_symmetry_space_group_name_H-M   'P 1'
_cell_length_a   8.67551483
_cell_length_b   8.62806254
_cell_length_c   8.67551425
_cell_angle_alpha   120.01208821
_cell_angle_beta   119.97342649
_cell_angle_gamma   90.17023543
_symmetry_Int_Tables_number   1
_chemical_formula_structural   Ti8Al15Ru5Au2
_chemical_formula_sum   'Ti8 Al15 Ru5 Au2'
_cell_volume   458.60032952
_cell_formula_units_Z   1
loop_
 _symmetry_equiv_pos_site_id
 _symmetry_equiv_pos_as_xyz
  1  'x, y, z'
loop_
 _atom_site_type_symbol
 _atom_site_label
 _atom_site_symmetry_multiplicity
 _atom_site_fract_x
 _atom_site_fract_y
 _atom_site_fract_z
 _atom_site_occupancy
  Ti  Ti0  1  0.79011880  0.28913412  0.07042063  1
  Ti  Ti1  1  0.21871449  0.28913412  0.49901631  1
  Ti  Ti2  1  0.21005945  0.70770967  0.49765022  1
  Ti  Ti3  1  0.21175406  0.71544864  0.92421286  1
  Ti  Ti4  1  0.79123478  0.71544864  0.50369458  1
  Ti  Ti5  1  0.78047038  0.28379833  0.50332795  1
  Ti  Ti6  1  0.38905016  0.13317802  0.74412786  1
  Ti  Ti7  1  0.37793726  0.63635576  0.25841750  1
  Al  Al0  1  0.99586434  0.49413073  0.49826638  1
  Al  Al1  1  0.15517223  0.34362255  0.18844932  1
  Al  Al2  1  0.15317289  0.96923763  0.81606374  1
  Al  Al3  1  0.15367864  0.35326934  0.81189843  1
  Al  Al4  1  0.54137091  0.35326934  0.19959271  1
  Al  Al5  1  0.84398170  0.65278224  0.80880254  1
  Al  Al6  1  0.85176134  0.04245584  0.19069450  1
  Al  Al7  1  0.83985729  0.64657572  0.18103570  1
  Al  Al8  1  0.46554102  0.64657572  0.80671743  1
  Al  Al9  1  0.37447688  0.12590318  0.26571243  1
  Al  Al10  1  0.86019175  0.12590318  0.75142630  1
  Al  Al11  1  0.61338670  0.86875879  0.25537209  1
  Al  Al12  1  0.62265528  0.36585338  0.74319810  1
  Al  Al13  1  0.62527760  0.87260477  0.73482568  1
  Al  Al14  1  0.13777808  0.87260477  0.24732717  1
  Ru  Ru0  1  0.49773256  0.49851325  0.00078169  1
  Ru  Ru1  1  0.49758305  0.49938298  0.49827628  1
  Ru  Ru2  1  0.00110670  0.49938298  0.00179993  1
  Ru  Ru3  1  0.99987926  0.99943940  0.99956113  1
  Ru  Ru4  1  0.49924170  0.00083298  0.50159129  1
  Au  Au0  1  0.00001465  0.99934346  0.49841041  1
  Au  Au1  1  0.50093206  0.99934346  0.99932781  1
loop_
_geom_bond_atom_site_label_1
_geom_bond_atom_site_label_2
_geom_bond_distance
_geom_bond_site_symmetry_2
Ti0 Ti6 2.872397 1_554
Ti1 Ti6 2.872390 1_555
Ti2 Ti7 2.924928 1_555
Ti2 Ti6 3.042282 1_565
Ti3 Ti7 2.959589 1_556
Ti4 Ti7 2.959589 1_555
Al0 Ti3 2.610333 1_655
Al0 Ti4 2.610339 1_555
Al0 Ti2 2.616940 1_655
Al0 Ti0 2.624015 1_555
Al0 Ti1 2.624022 1_655
Al0 Ti5 2.632244 1_555
Al1 Ru3 2.494250 1_444
Al1 Ru2 2.497940 1_555
Al1 Ru1 2.497948 1_555
Al1 Ti0 2.751155 1_455
Al1 Ti1 2.751166 1_555
Al1 Ti2 2.752398 1_555
Al1 Al10 2.757605 1_454
Al1 Al9 2.757615 1_555
Al1 Ti7 2.783488 1_555
Al2 Ru3 2.464404 1_455
Al2 Au0 2.546926 1_555
Al2 Au1 2.546926 1_555
Al2 Ti4 2.742046 1_455
Al2 Ti3 2.742046 1_555
Al2 Al9 2.820770 1_566
Al2 Ti2 2.845938 1_555
Al2 Ti6 2.952926 1_565
Al3 Ru2 2.483284 1_556
Al3 Ru0 2.490227 1_556
Al3 Au0 2.558098 1_545
Al3 Ti3 2.724417 1_555
Al3 Ti5 2.780563 1_455
Al3 Ti7 2.780856 1_556
Al3 Ti1 2.832338 1_555
Al3 Ti6 2.868296 1_555
Al4 Ru1 2.483269 1_555
Al4 Ru0 2.490236 1_555
Al4 Au1 2.558096 1_544
Al4 Ti4 2.724414 1_555
Al4 Ti5 2.780551 1_555
Al4 Ti7 2.780861 1_555
Al4 Ti0 2.832352 1_555
Al4 Al9 2.865749 1_555
Al4 Ti6 2.868310 1_554
Al5 Ru3 2.510338 1_555
Al5 Ru2 2.521986 1_656
Al5 Ru1 2.522001 1_555
Al5 Ti5 2.748216 1_555
Al5 Ti3 2.780473 1_655
Al5 Ti4 2.780481 1_555
Al6 Ru3 2.460643 1_544
Al6 Au0 2.546521 1_645
Al6 Au1 2.546528 1_544
Al6 Ti0 2.752357 1_555
Al6 Ti1 2.752363 1_655
Al6 Ti5 2.847606 1_555
Al7 Ru2 2.489244 1_655
Al7 Ru0 2.495661 1_555
Al7 Au0 2.558229 1_655
Al7 Ti0 2.689987 1_555
Al7 Ti2 2.804258 1_655
Al7 Ti4 2.807857 1_555
Al8 Ru1 2.489230 1_555
Al8 Ru0 2.495676 1_556
Al8 Au1 2.558232 1_555
Al8 Ti1 2.689986 1_555
Al8 Ti2 2.804255 1_555
Al8 Ti3 2.807865 1_555
Al9 Ru4 2.554703 1_555
Al9 Ru1 2.630175 1_555
Al9 Ru3 2.654089 1_444
Al9 Au1 2.784369 1_544
Al9 Ti1 2.792645 1_555
Al9 Ti5 2.901468 1_555
Al9 Ti3 2.933832 1_544
Al10 Ru4 2.554710 1_555
Al10 Ru2 2.630174 1_656
Al10 Ru3 2.654096 1_545
Al10 Au0 2.784361 1_645
Al10 Ti0 2.792652 1_556
Al10 Al2 2.820756 1_645
Al10 Al3 2.865756 1_655
Al10 Al13 2.883727 1_545
Al10 Ti5 2.901466 1_555
Al10 Al12 2.926459 1_555
Al10 Ti4 2.933829 1_545
Al10 Al11 3.039809 1_545
Al11 Ru4 2.554852 1_565
Al11 Ru0 2.607349 1_555
Al11 Au0 2.738658 1_655
Al11 Au1 2.738665 1_554
Al11 Al7 2.828916 1_555
Al11 Al8 2.828925 1_554
Al11 Ti7 2.876883 1_555
Al11 Ti4 2.883228 1_555
Al11 Ti3 2.883230 1_554
Al11 Ti5 2.949493 1_565
Al11 Al6 2.969822 1_565
Al11 Al9 3.039809 1_565
Al12 Ru4 2.567574 1_555
Al12 Ru2 2.678095 1_656
Al12 Ru1 2.678095 1_555
Al12 Ru0 2.710529 1_556
Al12 Al8 2.731852 1_555
Al12 Al7 2.731857 1_556
Al12 Al5 2.758596 1_555
Al12 Ti5 2.843426 1_555
Al12 Ti6 2.854105 1_555
Al12 Ti1 2.893487 1_555
Al12 Ti0 2.893495 1_556
Al12 Al9 2.926452 1_555
Al13 Ru4 2.559264 1_565
Al13 Ru1 2.627670 1_555
Al13 Ru3 2.653420 1_555
Al13 Au1 2.755969 1_555
Al13 Al5 2.762517 1_555
Al13 Al6 2.840754 1_566
Al13 Ti4 2.847565 1_555
Al13 Al8 2.859550 1_555
Al13 Ti7 2.919988 1_555
Al13 Ti0 2.963015 1_566
Al13 Ti2 2.978086 1_555
Al13 Ti6 3.045038 1_565
Al14 Ru4 2.559271 1_565
Al14 Ru2 2.627669 1_555
Al14 Ru3 2.653412 1_454
Al14 Au0 2.755962 1_555
Al14 Al5 2.762501 1_454
Al14 Al6 2.840747 1_465
Al14 Ti3 2.847578 1_554
Al14 Al7 2.859555 1_455
Al14 Al9 2.883727 1_565
Al14 Ti7 2.919988 1_555
Al14 Ti1 2.963013 1_565
Al14 Ti2 2.978085 1_555
Al14 Ti6 3.045038 1_565
Ru0 Ti6 2.578028 1_554
Ru0 Ti7 2.675731 1_555
Ru0 Ti1 3.106559 1_554
Ru0 Ti0 3.106559 1_555
Ru0 Ti4 3.118437 1_555
Ru0 Ti3 3.118445 1_554
Ru1 Ti7 2.667102 1_555
Ru1 Ti1 3.024074 1_555
Ru1 Ti2 3.078288 1_555
Ru1 Ti4 3.119644 1_555
Ru2 Ti7 2.667095 1_555
Ru2 Ti0 3.024075 1_455
Ru2 Ti2 3.078287 1_555
Ru2 Ti3 3.119651 1_554
Ru3 Ti3 3.071640 1_655
Ru3 Ti4 3.071643 1_555
Ru3 Ti1 3.089456 1_666
Ru3 Ti0 3.089457 1_566
Ru4 Ti6 2.501587 1_555
Ru4 Ti7 2.563732 1_545
Au0 Ti6 2.755766 1_565
Au0 Ti4 3.074347 1_455
Au0 Ti5 3.107625 1_465
Au0 Ti2 3.110421 1_555
Au0 Ti1 3.130536 1_565
Au1 Ti6 2.755759 1_565
Au1 Ti3 3.074341 1_555
Au1 Ti5 3.107631 1_566
Au1 Ti2 3.110414 1_555
Au1 Ti0 3.130538 1_566
