# generated using pymatgen
data_Hf12Ti4MnOs7
_symmetry_space_group_name_H-M   'P 1'
_cell_length_a   8.54403769
_cell_length_b   8.52873254
_cell_length_c   8.52873233
_cell_angle_alpha   59.99999696
_cell_angle_beta   60.05923587
_cell_angle_gamma   60.05923704
_symmetry_Int_Tables_number   1
_chemical_formula_structural   Hf12Ti4MnOs7
_chemical_formula_sum   'Hf12 Ti4 Mn1 Os7'
_cell_volume   439.85081042
_cell_formula_units_Z   1
loop_
 _symmetry_equiv_pos_site_id
 _symmetry_equiv_pos_as_xyz
  1  'x, y, z'
loop_
 _atom_site_type_symbol
 _atom_site_label
 _atom_site_symmetry_multiplicity
 _atom_site_fract_x
 _atom_site_fract_y
 _atom_site_fract_z
 _atom_site_occupancy
  Hf  Hf0  1  0.80915575  0.80800681  0.19141872  1
  Hf  Hf1  1  0.19431746  0.19243430  0.80662412  1
  Hf  Hf2  1  0.80915575  0.19141872  0.80800681  1
  Hf  Hf3  1  0.19431746  0.80662412  0.19243430  1
  Hf  Hf4  1  0.19431746  0.80662412  0.80662412  1
  Hf  Hf5  1  0.80915575  0.19141872  0.19141872  1
  Hf  Hf6  1  0.44463294  0.44355778  0.05590414  1
  Hf  Hf7  1  0.05546331  0.05556922  0.44448373  1
  Hf  Hf8  1  0.44463294  0.05590414  0.44355778  1
  Hf  Hf9  1  0.05546331  0.44448373  0.05556922  1
  Hf  Hf10  1  0.05546331  0.44448373  0.44448373  1
  Hf  Hf11  1  0.44463294  0.05590414  0.05590414  1
  Ti  Ti0  1  0.12539481  0.62486873  0.62486873  1
  Ti  Ti1  1  0.62442512  0.12660829  0.62448330  1
  Ti  Ti2  1  0.62442512  0.62448330  0.12660829  1
  Ti  Ti3  1  0.62442512  0.62448330  0.62448330  1
  Mn  Mn0  1  0.74656075  0.41781208  0.41781208  1
  Os  Os0  1  0.41357546  0.75735041  0.41453607  1
  Os  Os1  1  0.41357546  0.41453607  0.75735041  1
  Os  Os2  1  0.41357546  0.41453607  0.41453607  1
  Os  Os3  1  0.49645184  0.83451672  0.83451672  1
  Os  Os4  1  0.83562850  0.49387056  0.83525097  1
  Os  Os5  1  0.83562850  0.83525097  0.49387056  1
  Os  Os6  1  0.83562850  0.83525097  0.83525097  1
loop_
_geom_bond_atom_site_label_1
_geom_bond_atom_site_label_2
_geom_bond_distance
_geom_bond_site_symmetry_2
Hf0 Os6 2.827246 1_554
Hf0 Os5 2.827255 1_555
Hf0 Mn0 3.067425 1_555
Hf0 Os0 3.073527 1_555
Hf0 Ti3 3.073876 1_555
Hf0 Ti2 3.073876 1_555
Hf0 Hf10 3.166844 1_655
Hf0 Hf9 3.166844 1_655
Hf0 Hf8 3.175293 1_565
Hf0 Hf11 3.175298 1_565
Hf0 Hf4 3.289290 1_654
Hf0 Hf3 3.289290 1_655
Hf1 Os3 2.838940 1_545
Hf1 Os4 2.842032 1_455
Hf1 Os1 3.038839 1_555
Hf1 Os2 3.038847 1_555
Hf1 Ti1 3.057317 1_555
Hf1 Ti0 3.062364 1_555
Hf1 Hf11 3.166593 1_556
Hf1 Hf8 3.166599 1_555
Hf1 Hf10 3.168669 1_555
Hf1 Hf9 3.168669 1_556
Hf1 Hf5 3.289290 1_456
Hf1 Hf2 3.289290 1_455
Hf1 Hf3 3.290472 1_546
Hf1 Hf4 3.290472 1_545
Hf2 Os6 2.827246 1_545
Hf2 Os4 2.827255 1_555
Hf2 Mn0 3.067425 1_555
Hf2 Os1 3.073527 1_555
Hf2 Ti3 3.073876 1_555
Hf2 Ti1 3.073876 1_555
Hf2 Hf7 3.166844 1_655
Hf2 Hf6 3.175293 1_556
Hf2 Hf4 3.289290 1_645
Hf3 Os3 2.838940 1_554
Hf3 Os5 2.842032 1_455
Hf3 Os0 3.038839 1_555
Hf3 Os2 3.038847 1_555
Hf3 Ti2 3.057317 1_555
Hf3 Ti0 3.062364 1_555
Hf3 Hf6 3.166600 1_555
Hf3 Hf7 3.168669 1_565
Hf3 Hf5 3.289290 1_465
Hf3 Hf4 3.290472 1_554
Hf4 Os3 2.838950 1_555
Hf4 Os6 2.842029 1_455
Hf4 Os0 3.038854 1_555
Hf4 Os1 3.038854 1_555
Hf4 Ti3 3.057317 1_555
Hf4 Ti0 3.062356 1_555
Hf4 Hf8 3.166595 1_565
Hf4 Hf6 3.166595 1_556
Hf4 Hf7 3.168669 1_565
Hf4 Hf9 3.168669 1_556
Hf5 Os4 2.827250 1_554
Hf5 Os5 2.827250 1_545
Hf5 Mn0 3.067403 1_555
Hf5 Os2 3.073520 1_555
Hf5 Ti1 3.073876 1_555
Hf5 Ti2 3.073876 1_555
Hf5 Hf7 3.166844 1_655
Hf5 Hf9 3.166844 1_655
Hf5 Hf8 3.175298 1_555
Hf5 Hf6 3.175298 1_555
Hf6 Os2 2.825858 1_555
Hf6 Os1 2.825867 1_554
Hf6 Os3 3.036872 1_554
Hf6 Os4 3.038694 1_554
Hf6 Ti3 3.053801 1_554
Hf6 Ti2 3.053807 1_555
Hf6 Hf8 3.306194 1_555
Hf6 Hf9 3.322570 1_555
Hf7 Os0 2.827977 1_545
Hf7 Mn0 2.884356 1_455
Hf7 Os5 3.029513 1_445
Hf7 Os6 3.029517 1_445
Hf7 Ti0 3.048384 1_545
Hf7 Ti1 3.057137 1_455
Hf7 Hf9 3.316948 1_555
Hf7 Hf8 3.322570 1_555
Hf8 Os2 2.825858 1_555
Hf8 Os0 2.825867 1_545
Hf8 Os3 3.036872 1_545
Hf8 Os5 3.038694 1_545
Hf8 Ti3 3.053801 1_545
Hf8 Ti1 3.053807 1_555
Hf9 Os1 2.827977 1_554
Hf9 Mn0 2.884356 1_455
Hf9 Os4 3.029513 1_454
Hf9 Os6 3.029517 1_454
Hf9 Ti0 3.048384 1_554
Hf9 Ti2 3.057137 1_455
Hf10 Os2 2.827971 1_555
Hf10 Mn0 2.884371 1_455
Hf10 Os4 3.029521 1_455
Hf10 Os5 3.029521 1_455
Hf10 Ti0 3.048392 1_555
Hf10 Ti3 3.057137 1_455
Hf10 Hf2 3.166844 1_455
Hf10 Hf3 3.168669 1_555
Hf10 Hf9 3.316948 1_555
Hf10 Hf7 3.316948 1_555
Hf10 Hf6 3.322574 1_555
Hf10 Hf8 3.322575 1_555
Hf11 Os0 2.825862 1_545
Hf11 Os1 2.825862 1_554
Hf11 Os3 3.036850 1_544
Hf11 Os6 3.038687 1_544
Hf11 Ti1 3.053799 1_554
Hf11 Ti2 3.053799 1_545
Hf11 Hf3 3.166593 1_545
Hf11 Hf2 3.175298 1_554
Hf11 Hf8 3.306194 1_555
Hf11 Hf6 3.306194 1_555
Hf11 Hf7 3.322574 1_555
Hf11 Hf9 3.322575 1_555
Mn0 Ti2 2.595655 1_555
Mn0 Ti1 2.595655 1_555
Mn0 Ti3 2.595676 1_555
Mn0 Os2 2.873201 1_555
Mn0 Os1 2.873205 1_555
Mn0 Os0 2.873206 1_555
Os0 Ti2 2.624648 1_555
Os0 Ti3 2.624661 1_555
Os0 Ti0 2.626479 1_555
Os1 Ti1 2.624648 1_555
Os1 Ti3 2.624661 1_555
Os1 Ti0 2.626480 1_555
Os2 Ti2 2.624657 1_555
Os2 Ti1 2.624657 1_555
Os2 Ti0 2.626494 1_555
Os3 Ti2 2.629005 1_556
Os3 Ti1 2.629005 1_565
Os3 Ti3 2.629019 1_555
Os4 Ti0 2.630458 1_655
Os4 Ti2 2.637701 1_556
Os4 Ti3 2.637708 1_555
Os5 Ti0 2.630458 1_655
Os5 Ti1 2.637701 1_565
Os5 Ti3 2.637708 1_555
Os6 Ti0 2.630458 1_655
Os6 Ti2 2.637705 1_556
Os6 Ti1 2.637705 1_565
