# generated using pymatgen
data_Ca(BS2)2
_symmetry_space_group_name_H-M   'P 1'
_cell_length_a   11.24945000
_cell_length_b   11.24945000
_cell_length_c   11.24945000
_cell_angle_alpha   90.00000000
_cell_angle_beta   90.00000000
_cell_angle_gamma   90.00000000
_symmetry_Int_Tables_number   1
_chemical_formula_structural   Ca(BS2)2
_chemical_formula_sum   'Ca12 B24 S48'
_cell_volume   1423.61930708
_cell_formula_units_Z   12
loop_
 _symmetry_equiv_pos_site_id
 _symmetry_equiv_pos_as_xyz
  1  'x, y, z'
loop_
 _atom_site_type_symbol
 _atom_site_label
 _atom_site_symmetry_multiplicity
 _atom_site_fract_x
 _atom_site_fract_y
 _atom_site_fract_z
 _atom_site_occupancy
  Ca  Ca0  1  0.37359500  0.12640500  0.87359500  1
  Ca  Ca1  1  0.12640500  0.87359500  0.37359500  1
  Ca  Ca2  1  0.87359500  0.37359500  0.12640500  1
  Ca  Ca3  1  0.62640500  0.62640500  0.62640500  1
  Ca  Ca4  1  0.62640500  0.87359500  0.12640500  1
  Ca  Ca5  1  0.87359500  0.12640500  0.62640500  1
  Ca  Ca6  1  0.12640500  0.62640500  0.87359500  1
  Ca  Ca7  1  0.37359500  0.37359500  0.37359500  1
  Ca  Ca8  1  0.00000000  0.50000000  0.50000000  1
  Ca  Ca9  1  0.50000000  0.50000000  0.00000000  1
  Ca  Ca10  1  0.50000000  0.00000000  0.50000000  1
  Ca  Ca11  1  0.00000000  0.00000000  0.00000000  1
  B  B0  1  0.62938200  0.19343600  0.14598900  1
  B  B1  1  0.12938200  0.30656400  0.85401100  1
  B  B2  1  0.37061800  0.69343600  0.35401100  1
  B  B3  1  0.30656400  0.85401100  0.12938200  1
  B  B4  1  0.35401100  0.37061800  0.69343600  1
  B  B5  1  0.85401100  0.12938200  0.30656400  1
  B  B6  1  0.19343600  0.14598900  0.62938200  1
  B  B7  1  0.14598900  0.62938200  0.19343600  1
  B  B8  1  0.69343600  0.35401100  0.37061800  1
  B  B9  1  0.80656400  0.64598900  0.87061800  1
  B  B10  1  0.64598900  0.87061800  0.80656400  1
  B  B11  1  0.87061800  0.80656400  0.64598900  1
  B  B12  1  0.37061800  0.80656400  0.85401100  1
  B  B13  1  0.87061800  0.69343600  0.14598900  1
  B  B14  1  0.62938200  0.30656400  0.64598900  1
  B  B15  1  0.69343600  0.14598900  0.87061800  1
  B  B16  1  0.64598900  0.62938200  0.30656400  1
  B  B17  1  0.14598900  0.87061800  0.69343600  1
  B  B18  1  0.80656400  0.85401100  0.37061800  1
  B  B19  1  0.85401100  0.37061800  0.80656400  1
  B  B20  1  0.30656400  0.64598900  0.62938200  1
  B  B21  1  0.19343600  0.35401100  0.12938200  1
  B  B22  1  0.35401100  0.12938200  0.19343600  1
  B  B23  1  0.12938200  0.19343600  0.35401100  1
  S  S0  1  0.58493900  0.27730300  0.47957300  1
  S  S1  1  0.08493900  0.22269700  0.52042700  1
  S  S2  1  0.41506100  0.77730300  0.02042700  1
  S  S3  1  0.22269700  0.52042700  0.08493900  1
  S  S4  1  0.02042700  0.41506100  0.77730300  1
  S  S5  1  0.52042700  0.08493900  0.22269700  1
  S  S6  1  0.27730300  0.47957300  0.58493900  1
  S  S7  1  0.47957300  0.58493900  0.27730300  1
  S  S8  1  0.77730300  0.02042700  0.41506100  1
  S  S9  1  0.72269700  0.97957300  0.91506100  1
  S  S10  1  0.97957300  0.91506100  0.72269700  1
  S  S11  1  0.91506100  0.72269700  0.97957300  1
  S  S12  1  0.41506100  0.72269700  0.52042700  1
  S  S13  1  0.91506100  0.77730300  0.47957300  1
  S  S14  1  0.58493900  0.22269700  0.97957300  1
  S  S15  1  0.77730300  0.47957300  0.91506100  1
  S  S16  1  0.97957300  0.58493900  0.22269700  1
  S  S17  1  0.47957300  0.91506100  0.77730300  1
  S  S18  1  0.72269700  0.52042700  0.41506100  1
  S  S19  1  0.52042700  0.41506100  0.72269700  1
  S  S20  1  0.22269700  0.97957300  0.58493900  1
  S  S21  1  0.27730300  0.02042700  0.08493900  1
  S  S22  1  0.02042700  0.08493900  0.27730300  1
  S  S23  1  0.08493900  0.27730300  0.02042700  1
  S  S24  1  0.85094000  0.28814200  0.37173700  1
  S  S25  1  0.35094000  0.21185800  0.62826300  1
  S  S26  1  0.14906000  0.78814200  0.12826300  1
  S  S27  1  0.21185800  0.62826300  0.35094000  1
  S  S28  1  0.12826300  0.14906000  0.78814200  1
  S  S29  1  0.62826300  0.35094000  0.21185800  1
  S  S30  1  0.28814200  0.37173700  0.85094000  1
  S  S31  1  0.37173700  0.85094000  0.28814200  1
  S  S32  1  0.78814200  0.12826300  0.14906000  1
  S  S33  1  0.71185800  0.87173700  0.64906000  1
  S  S34  1  0.87173700  0.64906000  0.71185800  1
  S  S35  1  0.64906000  0.71185800  0.87173700  1
  S  S36  1  0.14906000  0.71185800  0.62826300  1
  S  S37  1  0.64906000  0.78814200  0.37173700  1
  S  S38  1  0.85094000  0.21185800  0.87173700  1
  S  S39  1  0.78814200  0.37173700  0.64906000  1
  S  S40  1  0.87173700  0.85094000  0.21185800  1
  S  S41  1  0.37173700  0.64906000  0.78814200  1
  S  S42  1  0.71185800  0.62826300  0.14906000  1
  S  S43  1  0.62826300  0.14906000  0.71185800  1
  S  S44  1  0.21185800  0.87173700  0.85094000  1
  S  S45  1  0.28814200  0.12826300  0.35094000  1
  S  S46  1  0.12826300  0.35094000  0.28814200  1
  S  S47  1  0.35094000  0.28814200  0.12826300  1
loop_
_geom_bond_atom_site_label_1
_geom_bond_atom_site_label_2
_geom_bond_distance
_geom_bond_site_symmetry_2
Ca0 S14 2.871801 1_555
Ca0 S17 2.871801 1_545
Ca0 S21 2.871801 1_556
Ca0 S28 2.933568 1_555
Ca0 S25 2.933568 1_555
Ca0 S30 2.933568 1_555
Ca1 S20 2.871801 1_555
Ca1 S13 2.871801 1_455
Ca1 S22 2.871801 1_565
Ca1 S26 2.933568 1_555
Ca1 S27 2.933568 1_555
Ca1 S31 2.933568 1_555
Ca2 S16 2.871801 1_555
Ca2 S15 2.871801 1_554
Ca2 S23 2.871801 1_655
Ca2 S32 2.933568 1_555
Ca2 S29 2.933568 1_555
Ca2 S24 2.933568 1_555
Ca3 S18 2.871801 1_555
Ca3 S12 2.871801 1_555
Ca3 S19 2.871801 1_555
Ca3 S34 2.933568 1_555
Ca3 S35 2.933568 1_555
Ca3 S33 2.933568 1_555
Ca4 S9 2.871801 1_554
Ca4 S5 2.871801 1_565
Ca4 S2 2.871801 1_555
Ca4 S40 2.933568 1_555
Ca4 S42 2.933568 1_555
Ca4 S37 2.933568 1_555
Ca5 S10 2.871801 1_545
Ca5 S1 2.871801 1_655
Ca5 S8 2.871801 1_555
Ca5 S38 2.933568 1_555
Ca5 S39 2.933568 1_555
Ca5 S43 2.933568 1_555
Ca6 S11 2.871801 1_455
Ca6 S3 2.871801 1_556
Ca6 S4 2.871801 1_555
Ca6 S44 2.933568 1_555
Ca6 S41 2.933568 1_555
Ca6 S36 2.933568 1_555
Ca7 S6 2.871801 1_555
Ca7 S7 2.871801 1_555
Ca7 S0 2.871801 1_555
Ca7 S47 2.933568 1_555
Ca7 S45 2.933568 1_555
Ca7 S46 2.933568 1_555
Ca8 S27 3.251735 1_555
Ca8 S24 3.251735 1_455
Ca8 S46 3.251735 1_555
Ca8 S36 3.251735 1_555
Ca8 S39 3.251735 1_455
Ca8 S34 3.251735 1_455
Ca8 S6 3.270648 1_555
Ca8 S13 3.270648 1_455
Ca8 S4 3.270648 1_555
Ca8 S1 3.270648 1_555
Ca8 S16 3.270648 1_455
Ca8 S18 3.270648 1_455
Ca9 S47 3.251735 1_555
Ca9 S29 3.251735 1_555
Ca9 S30 3.251735 1_554
Ca9 S42 3.251735 1_555
Ca9 S41 3.251735 1_554
Ca9 S35 3.251735 1_554
Ca9 S7 3.270648 1_555
Ca9 S15 3.270648 1_554
Ca9 S2 3.270648 1_555
Ca9 S3 3.270648 1_555
Ca9 S14 3.270648 1_554
Ca9 S19 3.270648 1_554
Ca10 S25 3.251735 1_555
Ca10 S31 3.251735 1_545
Ca10 S45 3.251735 1_555
Ca10 S43 3.251735 1_555
Ca10 S37 3.251735 1_545
Ca10 S33 3.251735 1_545
Ca10 S0 3.270648 1_555
Ca10 S17 3.270648 1_545
Ca10 S8 3.270648 1_555
Ca10 S5 3.270648 1_555
Ca10 S20 3.270648 1_545
Ca10 S12 3.270648 1_545
Ca11 S40 3.251735 1_445
Ca11 S38 3.251735 1_454
Ca11 S44 3.251735 1_544
Ca11 S28 3.251735 1_554
Ca11 S26 3.251735 1_545
Ca11 S32 3.251735 1_455
Ca11 S21 3.270648 1_555
Ca11 S23 3.270648 1_555
Ca11 S22 3.270648 1_555
Ca11 S9 3.270648 1_444
Ca11 S11 3.270648 1_444
Ca11 S10 3.270648 1_444
B0 S29 1.920578 1_555
B0 S32 1.930901 1_555
B0 S5 1.933037 1_555
B0 S14 1.965459 1_554
B1 S28 1.920578 1_555
B1 S30 1.930901 1_555
B1 S4 1.933037 1_555
B1 S23 1.965459 1_556
B2 S31 1.920578 1_555
B2 S27 1.930901 1_555
B2 S7 1.933037 1_555
B2 S12 1.965459 1_555
B3 S26 1.920578 1_555
B3 S31 1.930901 1_555
B3 S2 1.933037 1_555
B3 S21 1.965459 1_565
B4 S30 1.920578 1_555
B4 S25 1.930901 1_555
B4 S6 1.933037 1_555
B4 S19 1.965459 1_555
B5 S32 1.920578 1_555
B5 S24 1.930901 1_555
B5 S8 1.933037 1_555
B5 S22 1.965459 1_655
B6 S25 1.920578 1_555
B6 S28 1.930901 1_555
B6 S1 1.933037 1_555
B6 S20 1.965459 1_545
B7 S27 1.920578 1_555
B7 S26 1.930901 1_555
B7 S3 1.933037 1_555
B7 S16 1.965459 1_455
B8 S24 1.920578 1_555
B8 S29 1.930901 1_555
B8 S0 1.933037 1_555
B8 S18 1.965459 1_555
B9 S35 1.920578 1_555
B9 S34 1.930901 1_555
B9 S11 1.933037 1_555
B9 S15 1.965459 1_555
B10 S33 1.920578 1_555
B10 S35 1.930901 1_555
B10 S9 1.933037 1_555
B10 S17 1.965459 1_555
B11 S34 1.920578 1_555
B11 S33 1.930901 1_555
B11 S10 1.933037 1_555
B11 S13 1.965459 1_555
B12 S41 1.920578 1_555
B12 S44 1.930901 1_555
B12 S17 1.933037 1_555
B12 S2 1.965459 1_556
B13 S40 1.920578 1_555
B13 S42 1.930901 1_555
B13 S16 1.933037 1_555
B13 S11 1.965459 1_554
B14 S43 1.920578 1_555
B14 S39 1.930901 1_555
B14 S19 1.933037 1_555
B14 S0 1.965459 1_555
B15 S38 1.920578 1_555
B15 S43 1.930901 1_555
B15 S14 1.933037 1_555
B15 S9 1.965459 1_545
B16 S42 1.920578 1_555
B16 S37 1.930901 1_555
B16 S18 1.933037 1_555
B16 S7 1.965459 1_555
B17 S44 1.920578 1_555
B17 S36 1.930901 1_555
B17 S20 1.933037 1_555
B17 S10 1.965459 1_455
B18 S37 1.920578 1_555
B18 S40 1.930901 1_555
B18 S13 1.933037 1_555
B18 S8 1.965459 1_565
B19 S39 1.920578 1_555
B19 S38 1.930901 1_555
B19 S15 1.933037 1_555
B19 S4 1.965459 1_655
B20 S36 1.920578 1_555
B20 S41 1.930901 1_555
B20 S12 1.933037 1_555
B20 S6 1.965459 1_555
B21 S47 1.920578 1_555
B21 S46 1.930901 1_555
B21 S23 1.933037 1_555
B21 S3 1.965459 1_555
B22 S45 1.920578 1_555
B22 S47 1.930901 1_555
B22 S21 1.933037 1_555
B22 S5 1.965459 1_555
B23 S46 1.920578 1_555
B23 S45 1.930901 1_555
B23 S22 1.933037 1_555
B23 S1 1.965459 1_555
