# generated using pymatgen
data_Na4Ti(As2Pb)2
_symmetry_space_group_name_H-M   'P 1'
_cell_length_a   9.64820024
_cell_length_b   9.64820006
_cell_length_c   7.30922121
_cell_angle_alpha   90.52112916
_cell_angle_beta   90.52113553
_cell_angle_gamma   120.63774058
_symmetry_Int_Tables_number   1
_chemical_formula_structural   Na4Ti(As2Pb)2
_chemical_formula_sum   'Na8 Ti2 As8 Pb4'
_cell_volume   585.32104705
_cell_formula_units_Z   2
loop_
 _symmetry_equiv_pos_site_id
 _symmetry_equiv_pos_as_xyz
  1  'x, y, z'
loop_
 _atom_site_type_symbol
 _atom_site_label
 _atom_site_symmetry_multiplicity
 _atom_site_fract_x
 _atom_site_fract_y
 _atom_site_fract_z
 _atom_site_occupancy
  Na  Na0  1  0.47141537  0.93968879  0.38372832  1
  Na  Na1  1  0.93968879  0.47141537  0.88372832  1
  Na  Na2  1  0.85405665  0.70666353  0.21303380  1
  Na  Na3  1  0.29563738  0.14601959  0.21048558  1
  Na  Na4  1  0.84791995  0.14288868  0.21930344  1
  Na  Na5  1  0.14601959  0.29563738  0.71048558  1
  Na  Na6  1  0.70666353  0.85405665  0.71303380  1
  Na  Na7  1  0.14288868  0.84791995  0.71930344  1
  Ti  Ti0  1  0.66730902  0.33256901  0.49559518  1
  Ti  Ti1  1  0.33256901  0.66730902  0.99559518  1
  As  As0  1  0.18599883  0.38855483  0.11850290  1
  As  As1  1  0.61373868  0.80185818  0.12243252  1
  As  As2  1  0.18823636  0.79947986  0.11612057  1
  As  As3  1  0.80185818  0.61373868  0.62243252  1
  As  As4  1  0.38855483  0.18599883  0.61850290  1
  As  As5  1  0.79947986  0.18823636  0.61612057  1
  As  As6  1  0.66559414  0.32975534  0.15723689  1
  As  As7  1  0.32975534  0.66559414  0.65723689  1
  Pb  Pb0  1  0.06899196  0.53956545  0.36988273  1
  Pb  Pb1  1  0.47000976  0.54406266  0.37597506  1
  Pb  Pb2  1  0.53956545  0.06899196  0.86988273  1
  Pb  Pb3  1  0.54406266  0.47000976  0.87597506  1
loop_
_geom_bond_atom_site_label_1
_geom_bond_atom_site_label_2
_geom_bond_distance
_geom_bond_site_symmetry_2
Na0 Pb2 3.695434 1_565
Na0 Pb1 3.810090 1_555
Na1 Pb0 3.695434 1_656
Na1 Pb3 3.810090 1_555
Na2 Pb0 3.407608 1_655
Na2 Pb1 3.434944 1_555
Na2 Pb3 3.609937 1_554
Na3 Pb1 3.512194 1_555
Na3 Pb3 3.755484 1_554
Na3 Pb2 3.760920 1_554
Na4 Pb0 3.459619 1_655
Na4 Pb2 3.680895 1_554
Na5 Pb3 3.512194 1_555
Na5 Pb1 3.755484 1_555
Na5 Pb0 3.760919 1_555
Na6 Pb2 3.407608 1_565
Na6 Pb3 3.434944 1_555
Na6 Pb1 3.609937 1_555
Na7 Pb2 3.459619 1_565
Na7 Pb0 3.680895 1_555
As0 Ti1 2.496157 1_554
As0 Pb0 2.904937 1_555
As0 Pb1 2.994315 1_555
As0 Na4 2.999348 1_455
As0 Na5 3.069937 1_554
As0 Na3 3.096012 1_555
As0 Na1 3.334442 1_454
As1 Ti1 2.499389 1_554
As1 Pb1 2.856395 1_555
As1 Na4 2.963785 1_565
As1 Na2 2.968468 1_555
As1 Na0 3.027251 1_555
As1 Na6 3.102876 1_554
As1 Pb3 3.409908 1_554
As2 Ti1 2.480570 1_554
As2 Pb0 2.869740 1_555
As2 Na2 2.968107 1_455
As2 Na7 3.005378 1_554
As2 Na3 3.023616 1_565
As2 Na0 3.034521 1_555
As2 Na1 3.278176 1_454
As3 Ti0 2.499389 1_555
As3 Pb3 2.856395 1_555
As3 Na7 2.963785 1_655
As3 Na6 2.968468 1_555
As3 Na1 3.027250 1_555
As3 Na2 3.102876 1_555
As3 Pb1 3.409908 1_555
As4 Ti0 2.496158 1_555
As4 Pb2 2.904937 1_555
As4 Pb3 2.994315 1_555
As4 Na7 2.999348 1_545
As4 Na3 3.069937 1_555
As4 Na5 3.096012 1_555
As4 Na0 3.334442 1_545
As5 Ti0 2.480570 1_555
As5 Pb2 2.869740 1_555
As5 Na6 2.968106 1_545
As5 Na4 3.005378 1_555
As5 Na5 3.023616 1_655
As5 Na1 3.034521 1_555
As5 Na0 3.278176 1_545
As6 Ti0 2.472850 1_555
As6 Pb2 2.993177 1_554
As6 Pb3 3.009376 1_554
As6 Na1 3.052876 1_554
As6 Na3 3.102162 1_555
As6 Na4 3.127891 1_555
As6 Na2 3.149097 1_555
As7 Ti1 2.472850 1_555
As7 Pb0 2.993177 1_555
As7 Pb1 3.009377 1_555
As7 Na0 3.052876 1_555
As7 Na5 3.102161 1_555
As7 Na7 3.127892 1_555
As7 Na6 3.149097 1_555
Pb0 Ti0 3.473036 1_455
Pb1 Ti1 3.535895 1_554
Pb1 Ti0 3.537372 1_555
Pb2 Ti1 3.473036 1_545
Pb3 Ti0 3.535895 1_555
Pb3 Ti1 3.537372 1_555
