# generated using pymatgen
data_LiTaIrRu
_symmetry_space_group_name_H-M   'P 1'
_cell_length_a   4.31562441
_cell_length_b   4.31562486
_cell_length_c   4.31562392
_cell_angle_alpha   59.99999969
_cell_angle_beta   59.99999623
_cell_angle_gamma   59.99999226
_symmetry_Int_Tables_number   1
_chemical_formula_structural   LiTaIrRu
_chemical_formula_sum   'Li1 Ta1 Ir1 Ru1'
_cell_volume   56.83500229
_cell_formula_units_Z   1
loop_
 _symmetry_equiv_pos_site_id
 _symmetry_equiv_pos_as_xyz
  1  'x, y, z'
loop_
 _atom_site_type_symbol
 _atom_site_label
 _atom_site_symmetry_multiplicity
 _atom_site_fract_x
 _atom_site_fract_y
 _atom_site_fract_z
 _atom_site_occupancy
  Li  Li0  1  0.50000000  0.50000000  0.50000000  1
  Ta  Ta0  1  0.00000000  0.00000000  0.00000000  1
  Ir  Ir0  1  0.75000000  0.75000000  0.75000000  1
  Ru  Ru0  1  0.25000000  0.25000000  0.25000000  1
loop_
_geom_bond_atom_site_label_1
_geom_bond_atom_site_label_2
_geom_bond_distance
_geom_bond_site_symmetry_2
Li0 Ru0 2.642769 1_556
Li0 Ru0 2.642769 1_655
Li0 Ru0 2.642770 1_555
Li0 Ru0 2.642770 1_565
Ir0 Li0 2.642769 1_556
Ir0 Ta0 2.642769 1_665
Ir0 Li0 2.642769 1_655
Ir0 Ta0 2.642769 1_566
Ir0 Ta0 2.642770 1_666
Ir0 Li0 2.642770 1_555
Ir0 Ta0 2.642770 1_656
Ir0 Li0 2.642770 1_565
Ru0 Ta0 2.642769 1_556
Ru0 Ta0 2.642769 1_655
Ru0 Ta0 2.642770 1_555
Ru0 Ta0 2.642770 1_565
