# generated using pymatgen
data_Ce4Ga5Br2
_symmetry_space_group_name_H-M   'P 1'
_cell_length_a   11.55730409
_cell_length_b   11.54071846
_cell_length_c   4.26187461
_cell_angle_alpha   90.00000000
_cell_angle_beta   90.00000000
_cell_angle_gamma   93.38889630
_symmetry_Int_Tables_number   1
_chemical_formula_structural   Ce4Ga5Br2
_chemical_formula_sum   'Ce8 Ga10 Br4'
_cell_volume   567.45305776
_cell_formula_units_Z   2
loop_
 _symmetry_equiv_pos_site_id
 _symmetry_equiv_pos_as_xyz
  1  'x, y, z'
loop_
 _atom_site_type_symbol
 _atom_site_label
 _atom_site_symmetry_multiplicity
 _atom_site_fract_x
 _atom_site_fract_y
 _atom_site_fract_z
 _atom_site_occupancy
  Ce  Ce0  1  0.67429815  0.03940103  0.50000000  1
  Ce  Ce1  1  0.32579353  0.95988573  0.50000000  1
  Ce  Ce2  1  0.03974635  0.67370821  0.50000000  1
  Ce  Ce3  1  0.96015445  0.32614760  0.50000000  1
  Ce  Ce4  1  0.72925867  0.72953973  0.00000000  1
  Ce  Ce5  1  0.27063748  0.27094142  0.00000000  1
  Ce  Ce6  1  0.36975087  0.63010008  0.00000000  1
  Ce  Ce7  1  0.62997925  0.36965591  0.00000000  1
  Ga  Ga0  1  0.57905316  0.57917964  0.50000000  1
  Ga  Ga1  1  0.42103397  0.42104543  0.50000000  1
  Ga  Ga2  1  0.53803520  0.90030070  -0.00000000  1
  Ga  Ga3  1  0.46127453  0.09995941  0.00000000  1
  Ga  Ga4  1  0.89956898  0.53797170  0.00000000  1
  Ga  Ga5  1  0.09978459  0.46186582  -0.00000000  1
  Ga  Ga6  1  0.51200194  0.78272566  0.50000000  1
  Ga  Ga7  1  0.48921797  0.21802351  0.50000000  1
  Ga  Ga8  1  0.21771212  0.48858365  0.50000000  1
  Ga  Ga9  1  0.78178950  0.51106810  0.50000000  1
  Br  Br0  1  0.12423247  0.12392128  0.50000000  1
  Br  Br1  1  0.87627666  0.87583809  0.50000000  1
  Br  Br2  1  0.82483863  0.17617825  0.00000000  1
  Br  Br3  1  0.17556152  0.82395806  0.00000000  1
loop_
_geom_bond_atom_site_label_1
_geom_bond_atom_site_label_2
_geom_bond_distance
_geom_bond_site_symmetry_2
Ce0 Ga2 3.049450 1_545
Ce0 Ga2 3.049450 1_546
Ce0 Ga7 3.057164 1_555
Ce0 Ga3 3.360670 1_556
Ce0 Ga3 3.360670 1_555
Ce0 Ga6 3.411176 1_545
Ce1 Ga3 3.050671 1_565
Ce1 Ga3 3.050671 1_566
Ce1 Ga6 3.054798 1_555
Ce1 Ga2 3.351135 1_555
Ce1 Ga2 3.351135 1_556
Ce1 Ga7 3.431784 1_565
Ce2 Ga8 3.051962 1_555
Ce2 Ga4 3.052770 1_456
Ce2 Ga4 3.052770 1_455
Ce2 Ga5 3.346645 1_556
Ce2 Ga5 3.346645 1_555
Ce2 Ga9 3.427763 1_455
Ce3 Ga5 3.049508 1_655
Ce3 Ga5 3.049508 1_656
Ce3 Ga9 3.053523 1_555
Ce3 Ga4 3.348079 1_556
Ce3 Ga4 3.348079 1_555
Ce3 Ga8 3.422732 1_655
Ce4 Ga4 3.045747 1_555
Ce4 Ga2 3.046770 1_555
Ce4 Ga0 3.195229 1_555
Ce4 Ga0 3.195229 1_554
Ce4 Ga6 3.377053 1_554
Ce4 Ga6 3.377053 1_555
Ce4 Ga9 3.383416 1_555
Ce4 Ga9 3.383416 1_554
Ce5 Ga3 3.043361 1_555
Ce5 Ga5 3.044407 1_555
Ce5 Ga1 3.194849 1_554
Ce5 Ga1 3.194849 1_555
Ce5 Ga8 3.377211 1_554
Ce5 Ga8 3.377211 1_555
Ce5 Ga7 3.387912 1_554
Ce5 Ga7 3.387912 1_555
Ce6 Ga8 3.155402 1_555
Ce6 Ga8 3.155402 1_554
Ce6 Ga6 3.162903 1_554
Ce6 Ga6 3.162903 1_555
Ce6 Ga1 3.298799 1_555
Ce6 Ga1 3.298799 1_554
Ce6 Ga0 3.302380 1_554
Ce6 Ga0 3.302380 1_555
Ce6 Ga5 3.576076 1_555
Ce6 Ga2 3.576244 1_555
Ce7 Ga7 3.148521 1_554
Ce7 Ga7 3.148521 1_555
Ce7 Ga9 3.153430 1_555
Ce7 Ga9 3.153430 1_554
Ce7 Ga1 3.300518 1_555
Ce7 Ga1 3.300518 1_554
Ce7 Ga0 3.301901 1_554
Ce7 Ga0 3.301901 1_555
Ce7 Ga4 3.572883 1_555
Ce7 Ga3 3.573757 1_555
Ga0 Ga1 2.504358 1_555
Ga0 Ga9 2.515091 1_555
Ga0 Ga6 2.516714 1_555
Ga1 Ga7 2.515751 1_555
Ga1 Ga8 2.519101 1_555
Ga2 Ga3 2.517551 1_565
Ga2 Ga6 2.534626 1_554
Ga2 Ga6 2.534626 1_555
Ga3 Ga7 2.539625 1_555
Ga3 Ga7 2.539625 1_554
Ga4 Ga5 2.523113 1_655
Ga4 Ga9 2.537761 1_555
Ga4 Ga9 2.537761 1_554
Ga5 Ga8 2.538473 1_555
Ga5 Ga8 2.538473 1_554
Br0 Ce1 3.087351 1_545
Br0 Ce3 3.092891 1_455
Br0 Ce5 3.153308 1_556
Br0 Ce5 3.153308 1_555
Br1 Ce2 3.087390 1_655
Br1 Ce0 3.087586 1_565
Br1 Ce4 3.152686 1_555
Br1 Ce4 3.152686 1_556
Br2 Ce3 3.108398 1_554
Br2 Ce3 3.108398 1_555
Br2 Ce0 3.120087 1_554
Br2 Ce0 3.120087 1_555
Br2 Ce7 3.263731 1_555
Br3 Ce2 3.112822 1_555
Br3 Ce2 3.112822 1_554
Br3 Ce1 3.113578 1_555
Br3 Ce1 3.113578 1_554
Br3 Ce6 3.261267 1_555
