# generated using pymatgen
data_Rb3Hf2Te10Au
_symmetry_space_group_name_H-M   'P 1'
_cell_length_a   9.89288215
_cell_length_b   11.06907056
_cell_length_c   11.23598274
_cell_angle_alpha   87.92695156
_cell_angle_beta   90.03739962
_cell_angle_gamma   78.58232935
_symmetry_Int_Tables_number   1
_chemical_formula_structural   Rb3Hf2Te10Au
_chemical_formula_sum   'Rb6 Hf4 Te20 Au2'
_cell_volume   1205.21939351
_cell_formula_units_Z   2
loop_
 _symmetry_equiv_pos_site_id
 _symmetry_equiv_pos_as_xyz
  1  'x, y, z'
loop_
 _atom_site_type_symbol
 _atom_site_label
 _atom_site_symmetry_multiplicity
 _atom_site_fract_x
 _atom_site_fract_y
 _atom_site_fract_z
 _atom_site_occupancy
  Rb  Rb0  1  0.87325787  0.88793489  0.25020940  1
  Rb  Rb1  1  0.12674213  0.11206511  0.74979060  1
  Rb  Rb2  1  0.43286378  0.77305958  0.38509476  1
  Rb  Rb3  1  0.56713622  0.22694042  0.61490524  1
  Rb  Rb4  1  0.30086823  0.63772104  0.89101373  1
  Rb  Rb5  1  0.69913177  0.36227896  0.10898627  1
  Hf  Hf0  1  0.10311172  0.37961677  0.36597443  1
  Hf  Hf1  1  0.89688828  0.62038323  0.63402557  1
  Hf  Hf2  1  0.31054673  0.15718685  0.14725896  1
  Hf  Hf3  1  0.68945327  0.84281315  0.85274104  1
  Te  Te0  1  0.83409304  0.56504418  0.39222616  1
  Te  Te1  1  0.16590696  0.43495582  0.60777384  1
  Te  Te2  1  0.91805706  0.19838478  0.39329981  1
  Te  Te3  1  0.08194294  0.80161522  0.60670019  1
  Te  Te4  1  0.20572089  0.58819780  0.22219156  1
  Te  Te5  1  0.79427911  0.41180220  0.77780844  1
  Te  Te6  1  0.20858643  0.11465201  0.39505759  1
  Te  Te7  1  0.79141357  0.88534799  0.60494241  1
  Te  Te8  1  0.07609227  0.36338641  0.10810256  1
  Te  Te9  1  0.92390773  0.63661359  0.89189744  1
  Te  Te10  1  0.39615093  0.35593422  0.29420239  1
  Te  Te11  1  0.60384907  0.64406578  0.70579761  1
  Te  Te12  1  0.03818799  0.12249049  0.06783342  1
  Te  Te13  1  0.96181201  0.87750951  0.93216658  1
  Te  Te14  1  0.53185975  0.08465793  0.31450014  1
  Te  Te15  1  0.46814025  0.91534207  0.68549986  1
  Te  Te16  1  0.33259002  0.91086039  0.06972651  1
  Te  Te17  1  0.66740998  0.08913961  0.93027349  1
  Te  Te18  1  0.40730580  0.25263142  0.93041706  1
  Te  Te19  1  0.59269420  0.74736858  0.06958294  1
  Au  Au0  1  0.90980435  0.35495358  0.56841948  1
  Au  Au1  1  0.09019565  0.64504642  0.43158052  1
loop_
_geom_bond_atom_site_label_1
_geom_bond_atom_site_label_2
_geom_bond_distance
_geom_bond_site_symmetry_2
Rb0 Te13 3.680320 1_554
Rb0 Te14 3.725000 1_565
Rb0 Te12 3.859902 1_665
Rb0 Te2 3.948654 1_565
Rb0 Te0 3.950573 1_555
Rb0 Te19 4.021775 1_555
Rb0 Te7 4.067914 1_555
Rb0 Te4 4.204892 1_655
Rb1 Te12 3.680320 1_556
Rb1 Te15 3.725000 1_545
Rb1 Te13 3.859902 1_445
Rb1 Te3 3.948654 1_545
Rb1 Te1 3.950573 1_555
Rb1 Te18 4.021775 1_555
Rb1 Te6 4.067914 1_555
Rb1 Te5 4.204892 1_455
Rb2 Te15 3.820450 1_555
Rb2 Te14 3.824275 1_565
Rb2 Te4 3.830528 1_555
Rb2 Te16 3.856446 1_555
Rb2 Te19 3.879545 1_555
Rb2 Te6 3.992696 1_565
Rb2 Te11 4.067944 1_555
Rb2 Te0 4.175079 1_555
Rb2 Te3 4.240954 1_555
Rb3 Te14 3.820450 1_555
Rb3 Te15 3.824275 1_545
Rb3 Te5 3.830528 1_555
Rb3 Te17 3.856446 1_555
Rb3 Te18 3.879545 1_555
Rb3 Te7 3.992696 1_545
Rb3 Te10 4.067944 1_555
Rb3 Te1 4.175079 1_555
Rb3 Te2 4.240954 1_555
Rb4 Te11 3.660723 1_555
Rb4 Te9 3.731690 1_455
Rb4 Te16 3.753077 1_556
Rb4 Te13 3.882742 1_455
Rb4 Te4 3.885157 1_556
Rb4 Te19 3.922928 1_556
Rb4 Te3 4.025300 1_555
Rb4 Te18 4.190490 1_555
Rb5 Te10 3.660723 1_555
Rb5 Te8 3.731690 1_655
Rb5 Te17 3.753077 1_554
Rb5 Te12 3.882742 1_655
Rb5 Te5 3.885157 1_554
Rb5 Te18 3.922928 1_554
Rb5 Te2 4.025300 1_555
Rb5 Te19 4.190490 1_555
Hf0 Te1 2.900223 1_555
Hf0 Te6 2.918239 1_555
Hf0 Te8 2.924819 1_555
Hf0 Te10 2.973336 1_555
Hf0 Te2 2.979990 1_455
Hf0 Te0 3.043815 1_455
Hf0 Te4 3.103408 1_555
Hf1 Te0 2.900223 1_555
Hf1 Te7 2.918239 1_555
Hf1 Te9 2.924819 1_555
Hf1 Te11 2.973336 1_555
Hf1 Te3 2.979990 1_655
Hf1 Te1 3.043815 1_655
Hf1 Te5 3.103408 1_555
Hf2 Te14 2.856355 1_555
Hf2 Te16 2.859636 1_545
Hf2 Te18 2.861092 1_554
Hf2 Te8 2.934771 1_555
Hf2 Te12 2.938561 1_555
Hf2 Te6 3.014643 1_555
Hf2 Te10 3.046560 1_555
Hf3 Te15 2.856355 1_555
Hf3 Te17 2.859636 1_565
Hf3 Te19 2.861092 1_556
Hf3 Te9 2.934771 1_555
Hf3 Te13 2.938561 1_555
Hf3 Te7 3.014643 1_555
Hf3 Te11 3.046560 1_555
Te2 Te6 2.839755 1_655
Te3 Te7 2.839755 1_455
Te4 Te8 3.312449 1_555
Te5 Te9 3.312449 1_555
Te10 Te4 2.956926 1_555
Te10 Te14 3.037281 1_555
Te11 Te5 2.956926 1_555
Te11 Te15 3.037281 1_555
Te12 Te8 2.817528 1_555
Te12 Te16 3.356435 1_545
Te12 Te13 3.369967 1_444
Te13 Te9 2.817528 1_555
Te13 Te17 3.356435 1_565
Te16 Te19 2.837750 1_555
Te17 Te18 2.837750 1_555
Au0 Te5 2.657664 1_555
Au0 Te2 2.659457 1_555
Au0 Te1 2.883398 1_655
Au0 Te0 2.977179 1_555
Au0 Hf0 3.012183 1_655
Au0 Hf1 3.033164 1_555
Au0 Rb1 3.647003 1_655
Au0 Rb3 3.952617 1_555
Au1 Te4 2.657664 1_555
Au1 Te3 2.659457 1_555
Au1 Te0 2.883398 1_455
Au1 Te1 2.977179 1_555
Au1 Hf1 3.012183 1_455
Au1 Hf0 3.033164 1_555
Au1 Rb0 3.647003 1_455
Au1 Rb2 3.952617 1_555
