# generated using pymatgen
data_Hf3BSb
_symmetry_space_group_name_H-M   'P 1'
_cell_length_a   5.92921126
_cell_length_b   5.92921113
_cell_length_c   9.13591707
_cell_angle_alpha   90.00000000
_cell_angle_beta   90.00000000
_cell_angle_gamma   144.34638449
_symmetry_Int_Tables_number   1
_chemical_formula_structural   Hf3BSb
_chemical_formula_sum   'Hf6 B2 Sb2'
_cell_volume   187.20947078
_cell_formula_units_Z   2
loop_
 _symmetry_equiv_pos_site_id
 _symmetry_equiv_pos_as_xyz
  1  'x, y, z'
loop_
 _atom_site_type_symbol
 _atom_site_label
 _atom_site_symmetry_multiplicity
 _atom_site_fract_x
 _atom_site_fract_y
 _atom_site_fract_z
 _atom_site_occupancy
  Hf  Hf0  1  0.12990103  0.87009797  0.04564766  1
  Hf  Hf1  1  0.45512744  0.54487056  0.25000000  1
  Hf  Hf2  1  0.12990103  0.87009797  0.45435134  1
  Hf  Hf3  1  0.87009797  0.12990103  0.54564766  1
  Hf  Hf4  1  0.54487056  0.45512744  0.75000000  1
  Hf  Hf5  1  0.87009797  0.12990103  0.95435134  1
  B  B0  1  0.49999900  0.49999900  0.00000000  1
  B  B1  1  0.49999900  0.49999900  0.50000000  1
  Sb  Sb0  1  0.74911692  0.25088108  0.25000000  1
  Sb  Sb1  1  0.25088108  0.74911692  0.75000000  1
loop_
_geom_bond_atom_site_label_1
_geom_bond_atom_site_label_2
_geom_bond_distance
_geom_bond_site_symmetry_2
Hf0 Sb0 2.931147 1_565
Hf0 Sb0 2.931149 1_455
Hf0 Sb1 3.026674 1_554
Hf1 Sb0 2.950181 1_565
Hf1 Sb0 2.950181 1_455
Hf1 Sb0 3.318863 1_555
Hf2 Sb0 2.931141 1_565
Hf2 Sb0 2.931143 1_455
Hf2 Sb1 3.026683 1_555
Hf3 Sb1 2.931147 1_655
Hf3 Sb1 2.931149 1_545
Hf3 Sb0 3.026674 1_555
Hf4 Sb1 2.950181 1_545
Hf4 Sb1 2.950181 1_655
Hf4 Sb1 3.318863 1_555
Hf5 Sb1 2.931141 1_655
Hf5 Sb1 2.931143 1_545
Hf5 Sb0 3.026683 1_556
B0 Hf1 2.339479 1_555
B0 Hf4 2.339479 1_554
B0 Hf0 2.370503 1_545
B0 Hf5 2.370505 1_454
B0 Hf0 2.370506 1_655
B0 Hf5 2.370507 1_564
B1 Hf1 2.339479 1_555
B1 Hf4 2.339479 1_555
B1 Hf3 2.370503 1_455
B1 Hf2 2.370505 1_545
B1 Hf3 2.370506 1_565
B1 Hf2 2.370508 1_655
