# generated using pymatgen
data_Na2BeSe2
_symmetry_space_group_name_H-M   'P 1'
_cell_length_a   7.21104225
_cell_length_b   7.21104300
_cell_length_c   7.21104252
_cell_angle_alpha   132.68426751
_cell_angle_beta   128.95155050
_cell_angle_gamma   72.14429225
_symmetry_Int_Tables_number   1
_chemical_formula_structural   Na2BeSe2
_chemical_formula_sum   'Na4 Be2 Se4'
_cell_volume   209.61600851
_cell_formula_units_Z   2
loop_
 _symmetry_equiv_pos_site_id
 _symmetry_equiv_pos_as_xyz
  1  'x, y, z'
loop_
 _atom_site_type_symbol
 _atom_site_label
 _atom_site_symmetry_multiplicity
 _atom_site_fract_x
 _atom_site_fract_y
 _atom_site_fract_z
 _atom_site_occupancy
  Na  Na0  1  0.81252793  0.64182597  0.17070296  1
  Na  Na1  1  0.18747207  0.35817403  0.82929704  1
  Na  Na2  1  0.47112301  0.14182597  0.32929704  1
  Na  Na3  1  0.52887699  0.85817403  0.67070296  1
  Be  Be0  1  0.00000000  0.75000000  0.75000000  1
  Be  Be1  1  0.00000000  0.25000000  0.25000000  1
  Se  Se0  1  0.69591694  0.39212421  0.30379273  1
  Se  Se1  1  0.30408306  0.60787579  0.69620727  1
  Se  Se2  1  0.08833348  0.89212421  0.19620727  1
  Se  Se3  1  0.91166652  0.10787579  0.80379273  1
loop_
_geom_bond_atom_site_label_1
_geom_bond_atom_site_label_2
_geom_bond_distance
_geom_bond_site_symmetry_2
Na0 Se2 2.922053 1_655
Na0 Se1 2.975128 1_554
Na0 Se0 3.025997 1_555
Na0 Se3 3.035393 1_554
Na0 Se3 3.035398 1_565
Na0 Se1 3.289574 1_655
Na1 Se3 2.922053 1_455
Na1 Se0 2.975128 1_556
Na1 Se1 3.025997 1_555
Na1 Se2 3.035393 1_556
Na1 Se2 3.035398 1_545
Na1 Se0 3.289574 1_455
Na2 Se0 2.922035 1_555
Na2 Se3 2.975127 1_555
Na2 Se2 3.025989 1_545
Na2 Se1 3.035395 1_555
Na2 Se1 3.035395 1_544
Na2 Se3 3.289579 1_454
Na3 Se1 2.922035 1_555
Na3 Se2 2.975127 1_555
Na3 Se3 3.025989 1_565
Na3 Se0 3.035395 1_555
Na3 Se0 3.035395 1_566
Na3 Se2 3.289579 1_656
Be0 Se2 2.271838 1_556
Be0 Se1 2.271844 1_555
Be0 Se0 2.271845 1_455
Be0 Se3 2.271845 1_465
Be0 Na0 3.002361 1_455
Be0 Na3 3.002363 1_455
Be0 Na2 3.002363 1_566
Be0 Na1 3.002364 1_555
Be1 Se3 2.271838 1_454
Be1 Se0 2.271844 1_455
Be1 Se1 2.271845 1_555
Be1 Se2 2.271845 1_545
Be1 Na1 3.002361 1_555
Be1 Na2 3.002363 1_555
Be1 Na3 3.002363 1_444
Be1 Na0 3.002364 1_455
