# generated using pymatgen
data_Mg2GeO4
_symmetry_space_group_name_H-M   'P 1'
_cell_length_a   4.91450632
_cell_length_b   6.02739284
_cell_length_c   10.28321016
_cell_angle_alpha   90.00000000
_cell_angle_beta   90.00000000
_cell_angle_gamma   90.00000000
_symmetry_Int_Tables_number   1
_chemical_formula_structural   Mg2GeO4
_chemical_formula_sum   'Mg8 Ge4 O16'
_cell_volume   304.60575718
_cell_formula_units_Z   4
loop_
 _symmetry_equiv_pos_site_id
 _symmetry_equiv_pos_as_xyz
  1  'x, y, z'
loop_
 _atom_site_type_symbol
 _atom_site_label
 _atom_site_symmetry_multiplicity
 _atom_site_fract_x
 _atom_site_fract_y
 _atom_site_fract_z
 _atom_site_occupancy
  Mg  Mg0  1  0.00000000  0.00000000  -0.00000000  1
  Mg  Mg1  1  0.50000000  0.00000000  0.50000000  1
  Mg  Mg2  1  0.00000000  0.50000000  -0.00000000  1
  Mg  Mg3  1  0.50000000  0.50000000  0.50000000  1
  Mg  Mg4  1  0.49187275  0.75000000  0.77637177  1
  Mg  Mg5  1  0.99187275  0.25000000  0.72362823  1
  Mg  Mg6  1  0.50812725  0.25000000  0.22362823  1
  Mg  Mg7  1  0.00812725  0.75000000  0.27637177  1
  Ge  Ge0  1  0.56430614  0.75000000  0.09501496  1
  Ge  Ge1  1  0.06430614  0.25000000  0.40498504  1
  Ge  Ge2  1  0.43569386  0.25000000  0.90498504  1
  Ge  Ge3  1  0.93569386  0.75000000  0.59501496  1
  O  O0  1  0.23450205  0.47938362  0.33515599  1
  O  O1  1  0.73450205  0.52061638  0.16484401  1
  O  O2  1  0.76549795  0.97938362  0.66484401  1
  O  O3  1  0.26549795  0.02061638  0.83515599  1
  O  O4  1  0.76549795  0.52061638  0.66484401  1
  O  O5  1  0.26549795  0.47938362  0.83515599  1
  O  O6  1  0.23450205  0.02061638  0.33515599  1
  O  O7  1  0.73450205  0.97938362  0.16484401  1
  O  O8  1  0.72929258  0.75000000  0.93987983  1
  O  O9  1  0.22929258  0.25000000  0.56012017  1
  O  O10  1  0.27070742  0.25000000  0.06012017  1
  O  O11  1  0.77070742  0.75000000  0.43987983  1
  O  O12  1  0.21112554  0.75000000  0.09185887  1
  O  O13  1  0.71112554  0.25000000  0.40814113  1
  O  O14  1  0.78887446  0.25000000  0.90814113  1
  O  O15  1  0.28887446  0.75000000  0.59185887  1
loop_
_geom_bond_atom_site_label_1
_geom_bond_atom_site_label_2
_geom_bond_distance
_geom_bond_site_symmetry_2
Mg0 O12 2.058989 1_545
Mg0 O14 2.058989 1_454
Mg0 O10 2.103032 1_555
Mg0 O8 2.103032 1_444
Mg0 O7 2.142749 1_445
Mg0 O3 2.142749 1_554
Mg1 O13 2.058989 1_555
Mg1 O15 2.058989 1_545
Mg1 O9 2.103032 1_555
Mg1 O11 2.103032 1_545
Mg1 O6 2.142749 1_555
Mg1 O2 2.142749 1_545
Mg2 O14 2.058989 1_454
Mg2 O12 2.058989 1_555
Mg2 O10 2.103032 1_555
Mg2 O8 2.103032 1_454
Mg2 O5 2.142749 1_554
Mg2 O1 2.142749 1_455
Mg3 O13 2.058989 1_555
Mg3 O15 2.058989 1_555
Mg3 O11 2.103032 1_555
Mg3 O9 2.103032 1_555
Mg3 O0 2.142749 1_555
Mg3 O4 2.142749 1_555
Mg4 O8 2.046580 1_555
Mg4 O5 2.064857 1_555
Mg4 O3 2.064857 1_565
Mg4 O15 2.143676 1_555
Mg4 O2 2.243913 1_555
Mg4 O4 2.243913 1_555
Mg5 O9 2.046580 1_655
Mg5 O4 2.064857 1_555
Mg5 O2 2.064857 1_545
Mg5 O14 2.143676 1_555
Mg5 O3 2.243913 1_655
Mg5 O5 2.243913 1_655
Mg6 O10 2.046580 1_555
Mg6 O1 2.064857 1_555
Mg6 O7 2.064857 1_545
Mg6 O13 2.143676 1_555
Mg6 O0 2.243913 1_555
Mg6 O6 2.243913 1_555
Mg7 O11 2.046580 1_455
Mg7 O0 2.064857 1_555
Mg7 O6 2.064857 1_565
Mg7 O12 2.143676 1_555
Mg7 O1 2.243913 1_455
Mg7 O7 2.243913 1_455
Ge0 O12 1.736012 1_555
Ge0 O7 1.768269 1_555
Ge0 O1 1.768269 1_555
Ge0 O8 1.789520 1_554
Ge1 O13 1.736012 1_455
Ge1 O0 1.768269 1_555
Ge1 O6 1.768269 1_555
Ge1 O9 1.789520 1_555
Ge2 O14 1.736012 1_555
Ge2 O3 1.768269 1_555
Ge2 O5 1.768269 1_555
Ge2 O10 1.789520 1_556
Ge3 O15 1.736012 1_655
Ge3 O4 1.768269 1_555
Ge3 O2 1.768269 1_555
Ge3 O11 1.789520 1_555
