# generated using pymatgen
data_Zr3NiIr2N
_symmetry_space_group_name_H-M   'P 1'
_cell_length_a   8.43311266
_cell_length_b   8.43311343
_cell_length_c   8.43311182
_cell_angle_alpha   60.00000631
_cell_angle_beta   60.00000328
_cell_angle_gamma   60.00000300
_symmetry_Int_Tables_number   1
_chemical_formula_structural   Zr3NiIr2N
_chemical_formula_sum   'Zr12 Ni4 Ir8 N4'
_cell_volume   424.08093293
_cell_formula_units_Z   4
loop_
 _symmetry_equiv_pos_site_id
 _symmetry_equiv_pos_as_xyz
  1  'x, y, z'
loop_
 _atom_site_type_symbol
 _atom_site_label
 _atom_site_symmetry_multiplicity
 _atom_site_fract_x
 _atom_site_fract_y
 _atom_site_fract_z
 _atom_site_occupancy
  Zr  Zr0  1  0.80467742  0.80467742  0.19532258  1
  Zr  Zr1  1  0.19532258  0.19532258  0.80467742  1
  Zr  Zr2  1  0.80467742  0.19532258  0.80467742  1
  Zr  Zr3  1  0.19532258  0.80467742  0.19532258  1
  Zr  Zr4  1  0.19532258  0.80467742  0.80467742  1
  Zr  Zr5  1  0.80467742  0.19532258  0.19532258  1
  Zr  Zr6  1  0.44532258  0.44532258  0.05467742  1
  Zr  Zr7  1  0.05467742  0.05467742  0.44532258  1
  Zr  Zr8  1  0.44532258  0.05467742  0.44532258  1
  Zr  Zr9  1  0.05467742  0.44532258  0.05467742  1
  Zr  Zr10  1  0.05467742  0.44532258  0.44532258  1
  Zr  Zr11  1  0.44532258  0.05467742  0.05467742  1
  Ni  Ni0  1  0.12500000  0.62500000  0.62500000  1
  Ni  Ni1  1  0.62500000  0.12500000  0.62500000  1
  Ni  Ni2  1  0.62500000  0.62500000  0.12500000  1
  Ni  Ni3  1  0.62500000  0.62500000  0.62500000  1
  Ir  Ir0  1  0.74966164  0.41678012  0.41678012  1
  Ir  Ir1  1  0.41678012  0.74966164  0.41678012  1
  Ir  Ir2  1  0.41678012  0.41678012  0.74966164  1
  Ir  Ir3  1  0.41678012  0.41678012  0.41678012  1
  Ir  Ir4  1  0.50033836  0.83321988  0.83321988  1
  Ir  Ir5  1  0.83321988  0.50033836  0.83321988  1
  Ir  Ir6  1  0.83321988  0.83321988  0.50033836  1
  Ir  Ir7  1  0.83321988  0.83321988  0.83321988  1
  N  N0  1  0.62500000  0.12500000  0.12500000  1
  N  N1  1  0.12500000  0.62500000  0.12500000  1
  N  N2  1  0.12500000  0.12500000  0.62500000  1
  N  N3  1  0.12500000  0.12500000  0.12500000  1
loop_
_geom_bond_atom_site_label_1
_geom_bond_atom_site_label_2
_geom_bond_distance
_geom_bond_site_symmetry_2
Ni0 Zr4 3.006117 1_555
Ni0 Zr9 3.006117 1_556
Ni0 Zr10 3.006117 1_555
Ni0 Zr3 3.006117 1_555
Ni0 Zr7 3.006118 1_565
Ni0 Zr1 3.006118 1_555
Ni1 Zr11 3.006117 1_556
Ni1 Zr2 3.006117 1_555
Ni1 Zr5 3.006117 1_555
Ni1 Zr8 3.006117 1_555
Ni1 Zr7 3.006117 1_655
Ni1 Zr1 3.006117 1_555
Ni2 Zr0 3.006117 1_555
Ni2 Zr6 3.006117 1_555
Ni2 Zr9 3.006117 1_655
Ni2 Zr3 3.006117 1_555
Ni2 Zr11 3.006118 1_565
Ni2 Zr5 3.006118 1_555
Ni3 Zr6 3.006117 1_556
Ni3 Zr0 3.006117 1_555
Ni3 Zr10 3.006117 1_655
Ni3 Zr4 3.006117 1_555
Ni3 Zr2 3.006118 1_555
Ni3 Zr8 3.006118 1_565
Ir0 Ni3 2.581318 1_555
Ir0 Ni2 2.581332 1_555
Ir0 Ni1 2.581332 1_555
Ir0 Zr10 2.833456 1_655
Ir0 Zr9 2.833466 1_655
Ir0 Zr7 2.833466 1_655
Ir0 Zr2 2.990945 1_555
Ir0 Zr0 2.990945 1_555
Ir0 Zr5 2.990959 1_555
Ir1 Ni3 2.581318 1_555
Ir1 Ni2 2.581332 1_555
Ir1 Ni0 2.581332 1_555
Ir1 Zr8 2.833456 1_565
Ir1 Zr11 2.833466 1_565
Ir1 Zr7 2.833466 1_565
Ir1 Zr4 2.990945 1_555
Ir1 Zr0 2.990945 1_555
Ir1 Zr3 2.990959 1_555
Ir2 Ni3 2.581318 1_555
Ir2 Ni0 2.581332 1_555
Ir2 Ni1 2.581332 1_555
Ir2 Zr6 2.833456 1_556
Ir2 Zr9 2.833466 1_556
Ir2 Zr11 2.833466 1_556
Ir2 Zr2 2.990945 1_555
Ir2 Zr4 2.990945 1_555
Ir2 Zr1 2.990960 1_555
Ir3 Ni0 2.581323 1_555
Ir3 Ni1 2.581323 1_555
Ir3 Ni2 2.581323 1_555
Ir3 Zr6 2.833473 1_555
Ir3 Zr10 2.833473 1_555
Ir3 Zr8 2.833473 1_555
Ir3 Zr5 2.990952 1_555
Ir3 Zr1 2.990952 1_555
Ir3 Zr3 2.990952 1_555
Ir4 Ni3 2.581318 1_555
Ir4 Ni2 2.581332 1_556
Ir4 Ni1 2.581332 1_565
Ir4 Zr4 2.833456 1_555
Ir4 Zr3 2.833466 1_556
Ir4 Zr1 2.833466 1_565
Ir4 Zr8 2.990945 1_565
Ir4 Zr6 2.990945 1_556
Ir4 Zr11 2.990959 1_566
Ir5 Ni3 2.581318 1_555
Ir5 Ni2 2.581332 1_556
Ir5 Ni0 2.581332 1_655
Ir5 Zr2 2.833456 1_555
Ir5 Zr5 2.833466 1_556
Ir5 Zr1 2.833466 1_655
Ir5 Zr10 2.990945 1_655
Ir5 Zr6 2.990945 1_556
Ir5 Zr9 2.990959 1_656
Ir6 Ni3 2.581318 1_555
Ir6 Ni0 2.581332 1_655
Ir6 Ni1 2.581332 1_565
Ir6 Zr0 2.833456 1_555
Ir6 Zr3 2.833466 1_655
Ir6 Zr5 2.833466 1_565
Ir6 Zr8 2.990945 1_565
Ir6 Zr10 2.990945 1_655
Ir6 Zr7 2.990960 1_665
Ir7 Ni0 2.581323 1_655
Ir7 Ni1 2.581323 1_565
Ir7 Ni2 2.581323 1_556
Ir7 Zr0 2.833473 1_556
Ir7 Zr4 2.833473 1_655
Ir7 Zr2 2.833473 1_565
Ir7 Zr11 2.990952 1_566
Ir7 Zr7 2.990952 1_665
Ir7 Zr9 2.990952 1_656
N0 Zr5 2.268970 1_555
N0 Zr8 2.268970 1_555
N0 Zr2 2.268970 1_554
N0 Zr11 2.268970 1_555
N0 Zr6 2.268970 1_555
N0 Zr0 2.268970 1_545
N1 Zr3 2.268970 1_555
N1 Zr10 2.268970 1_555
N1 Zr4 2.268970 1_554
N1 Zr9 2.268970 1_555
N1 Zr6 2.268970 1_555
N1 Zr0 2.268970 1_455
N2 Zr1 2.268970 1_555
N2 Zr7 2.268970 1_555
N2 Zr8 2.268970 1_555
N2 Zr2 2.268970 1_455
N2 Zr4 2.268970 1_545
N2 Zr10 2.268970 1_555
N3 Zr7 2.268970 1_555
N3 Zr1 2.268970 1_554
N3 Zr11 2.268970 1_555
N3 Zr5 2.268970 1_455
N3 Zr9 2.268970 1_555
N3 Zr3 2.268970 1_545
