# generated using pymatgen
data_Sr6Sn8AsAu
_symmetry_space_group_name_H-M   'P 1'
_cell_length_a   8.89195053
_cell_length_b   8.89195134
_cell_length_c   8.89195071
_cell_angle_alpha   120.45919138
_cell_angle_beta   120.45919111
_cell_angle_gamma   89.20648285
_symmetry_Int_Tables_number   1
_chemical_formula_structural   Sr6Sn8AsAu
_chemical_formula_sum   'Sr6 Sn8 As1 Au1'
_cell_volume   493.63528465
_cell_formula_units_Z   1
loop_
 _symmetry_equiv_pos_site_id
 _symmetry_equiv_pos_as_xyz
  1  'x, y, z'
loop_
 _atom_site_type_symbol
 _atom_site_label
 _atom_site_symmetry_multiplicity
 _atom_site_fract_x
 _atom_site_fract_y
 _atom_site_fract_z
 _atom_site_occupancy
  Sr  Sr0  1  0.24084894  0.24084894  0.00000000  1
  Sr  Sr1  1  0.75915106  0.75915106  0.00000000  1
  Sr  Sr2  1  0.15545862  0.67692318  0.83238380  1
  Sr  Sr3  1  0.84454138  0.32307682  0.16761620  1
  Sr  Sr4  1  0.67692318  0.84454138  0.52146557  1
  Sr  Sr5  1  0.32307682  0.15545862  0.47853443  1
  Sn  Sn0  1  0.82748174  0.33684831  0.78466990  1
  Sn  Sn1  1  0.17251826  0.66315169  0.21533010  1
  Sn  Sn2  1  0.55217841  0.04281284  0.21533010  1
  Sn  Sn3  1  0.33684831  0.55217841  0.50936657  1
  Sn  Sn4  1  0.95718716  0.17251826  0.50936657  1
  Sn  Sn5  1  0.44782159  0.95718716  0.78466990  1
  Sn  Sn6  1  0.66315169  0.44782159  0.49063343  1
  Sn  Sn7  1  0.04281284  0.82748174  0.49063343  1
  As  As0  1  0.00000000  0.00000000  0.00000000  1
  Au  Au0  1  0.50000000  0.50000000  0.00000000  1
loop_
_geom_bond_atom_site_label_1
_geom_bond_atom_site_label_2
_geom_bond_distance
_geom_bond_site_symmetry_2
Sn0 Sn4 2.940604 1_555
Sn0 Sn6 2.940611 1_555
Sn0 Sn1 3.092908 1_656
Sn0 Sr3 3.395810 1_556
Sn0 Sr1 3.458730 1_556
Sn0 Sr0 3.512838 1_656
Sn0 Sr4 3.609905 1_545
Sn0 Sr5 3.674066 1_555
Sn1 Sn7 2.940604 1_555
Sn1 Sn3 2.940611 1_555
Sn1 Sr2 3.395810 1_554
Sn1 Sr0 3.458730 1_555
Sn1 Sr1 3.512838 1_455
Sn1 Sr5 3.609905 1_565
Sn1 Sr4 3.674066 1_555
Sn2 Sn6 2.940604 1_555
Sn2 Sn4 2.940604 1_555
Sn2 Sn5 3.092901 1_544
Sn2 Sr2 3.395832 1_544
Sn2 Sr1 3.458733 1_545
Sn2 Sr0 3.512831 1_555
Sn2 Sr5 3.609896 1_555
Sn2 Sr4 3.674082 1_545
Sn3 Sn5 2.940604 1_555
Sn3 Sn6 3.092908 1_555
Sn3 Sr5 3.395824 1_555
Sn3 Sr1 3.458729 1_556
Sn3 Sr0 3.512838 1_555
Sn3 Sr3 3.609902 1_455
Sn3 Sr2 3.674082 1_555
Sn4 Sn7 3.092913 1_645
Sn4 Sr5 3.395842 1_655
Sn4 Sr0 3.458730 1_656
Sn4 Sr1 3.512839 1_545
Sn4 Sr3 3.609920 1_555
Sn4 Sr2 3.674067 1_655
Sn5 Sn7 2.940604 1_555
Sn5 Sr3 3.395832 1_566
Sn5 Sr0 3.458733 1_566
Sn5 Sr1 3.512831 1_556
Sn5 Sr4 3.609896 1_555
Sn5 Sr5 3.674082 1_565
Sn6 Sr4 3.395824 1_555
Sn6 Sr0 3.458729 1_555
Sn6 Sr1 3.512838 1_556
Sn6 Sr2 3.609902 1_655
Sn6 Sr3 3.674082 1_555
Sn7 Sr4 3.395842 1_455
Sn7 Sr1 3.458730 1_455
Sn7 Sr0 3.512839 1_566
Sn7 Sr2 3.609920 1_555
Sn7 Sr3 3.674067 1_455
As0 Sr0 3.049604 1_555
As0 Sr1 3.049604 1_445
As0 Sr5 3.165900 1_555
As0 Sr4 3.165900 1_444
As0 Sr2 3.165902 1_544
As0 Sr3 3.165902 1_455
Au0 Sr1 3.281343 1_555
Au0 Sr0 3.281343 1_555
Au0 Sr2 3.420024 1_554
Au0 Sr3 3.420024 1_555
Au0 Sr4 3.420034 1_555
Au0 Sr5 3.420034 1_554
