# generated using pymatgen
data_Mg2CuSb2Pt
_symmetry_space_group_name_H-M   'P 1'
_cell_length_a   7.62722367
_cell_length_b   7.62722426
_cell_length_c   7.62722303
_cell_angle_alpha   33.71492896
_cell_angle_beta   33.71492644
_cell_angle_gamma   33.71492395
_symmetry_Int_Tables_number   1
_chemical_formula_structural   Mg2CuSb2Pt
_chemical_formula_sum   'Mg2 Cu1 Sb2 Pt1'
_cell_volume   121.79707020
_cell_formula_units_Z   1
loop_
 _symmetry_equiv_pos_site_id
 _symmetry_equiv_pos_as_xyz
  1  'x, y, z'
loop_
 _atom_site_type_symbol
 _atom_site_label
 _atom_site_symmetry_multiplicity
 _atom_site_fract_x
 _atom_site_fract_y
 _atom_site_fract_z
 _atom_site_occupancy
  Mg  Mg0  1  0.74967779  0.74967779  0.74967779  1
  Mg  Mg1  1  0.25129305  0.25129305  0.25129305  1
  Cu  Cu0  1  0.12431114  0.12431114  0.12431114  1
  Sb  Sb0  1  0.00119764  0.00119764  0.00119764  1
  Sb  Sb1  1  0.49822539  0.49822539  0.49822539  1
  Pt  Pt0  1  0.62529500  0.62529500  0.62529500  1
loop_
_geom_bond_atom_site_label_1
_geom_bond_atom_site_label_2
_geom_bond_distance
_geom_bond_site_symmetry_2
Mg0 Pt0 2.681782 1_555
Mg0 Sb0 3.103946 1_665
Mg0 Sb0 3.103946 1_566
Mg0 Sb0 3.103946 1_656
Mg0 Sb1 3.104772 1_556
Mg0 Sb1 3.104772 1_655
Mg0 Sb1 3.104773 1_565
Mg1 Pt0 2.700331 1_455
Mg1 Pt0 2.700332 1_545
Mg1 Pt0 2.700332 1_554
Mg1 Sb0 3.121501 1_556
Mg1 Sb0 3.121501 1_655
Mg1 Sb0 3.121502 1_565
Mg1 Sb1 3.161203 1_554
Mg1 Sb1 3.161204 1_455
Mg1 Sb1 3.161204 1_545
Cu0 Sb0 2.654415 1_555
Cu0 Sb1 2.699718 1_455
Cu0 Sb1 2.699718 1_545
Cu0 Sb1 2.699719 1_554
Cu0 Mg0 2.704783 1_544
Cu0 Mg0 2.704783 1_454
Cu0 Mg0 2.704783 1_445
Cu0 Mg1 2.737821 1_555
Pt0 Sb0 2.713915 1_566
Pt0 Sb0 2.713915 1_656
Pt0 Sb0 2.713916 1_665
Pt0 Sb1 2.739712 1_555
