# generated using pymatgen
data_Sr5Bi3H
_symmetry_space_group_name_H-M   'P 1'
_cell_length_a   9.67050668
_cell_length_b   9.67050778
_cell_length_c   7.40955815
_cell_angle_alpha   90.00000000
_cell_angle_beta   90.00000000
_cell_angle_gamma   119.99999963
_symmetry_Int_Tables_number   1
_chemical_formula_structural   Sr5Bi3H
_chemical_formula_sum   'Sr10 Bi6 H2'
_cell_volume   600.09699469
_cell_formula_units_Z   2
loop_
 _symmetry_equiv_pos_site_id
 _symmetry_equiv_pos_as_xyz
  1  'x, y, z'
loop_
 _atom_site_type_symbol
 _atom_site_label
 _atom_site_symmetry_multiplicity
 _atom_site_fract_x
 _atom_site_fract_y
 _atom_site_fract_z
 _atom_site_occupancy
  Sr  Sr0  1  0.75694181  0.75694181  0.25000000  1
  Sr  Sr1  1  0.75694181  0.00000000  0.75000000  1
  Sr  Sr2  1  0.00000000  0.24305819  0.25000000  1
  Sr  Sr3  1  0.00000000  0.75694181  0.75000000  1
  Sr  Sr4  1  0.24305819  0.24305819  0.75000000  1
  Sr  Sr5  1  0.24305819  0.00000000  0.25000000  1
  Sr  Sr6  1  0.33333300  0.66666700  0.50000000  1
  Sr  Sr7  1  0.66666700  0.33333300  0.00000000  1
  Sr  Sr8  1  0.66666700  0.33333300  0.50000000  1
  Sr  Sr9  1  0.33333300  0.66666700  0.00000000  1
  Bi  Bi0  1  0.39223757  1.00000000  0.75000000  1
  Bi  Bi1  1  0.39223757  0.39223757  0.25000000  1
  Bi  Bi2  1  1.00000000  0.60776243  0.25000000  1
  Bi  Bi3  1  0.00000000  0.39223757  0.75000000  1
  Bi  Bi4  1  0.60776243  0.60776243  0.75000000  1
  Bi  Bi5  1  0.60776243  0.00000000  0.25000000  1
  H  H0  1  0.00000000  0.00000000  0.50000000  1
  H  H1  1  0.00000000  0.00000000  0.00000000  1
loop_
_geom_bond_atom_site_label_1
_geom_bond_atom_site_label_2
_geom_bond_distance
_geom_bond_site_symmetry_2
Bi0 Sr3 3.316167 1_555
Bi0 Sr4 3.316167 1_565
Bi0 Sr9 3.508640 1_556
Bi0 Sr6 3.508640 1_555
Bi0 Sr8 3.508643 1_565
Bi0 Sr7 3.508643 1_566
Bi0 Sr1 3.526875 1_565
Bi0 Sr5 3.975751 1_565
Bi0 Sr5 3.975751 1_566
Bi1 Sr2 3.316167 1_555
Bi1 Sr5 3.316167 1_555
Bi1 Sr8 3.508648 1_555
Bi1 Sr7 3.508648 1_555
Bi1 Sr6 3.508648 1_555
Bi1 Sr9 3.508648 1_555
Bi1 Sr0 3.526875 1_555
Bi1 Sr4 3.975751 1_555
Bi1 Sr4 3.975751 1_554
Bi2 Sr0 3.316167 1_555
Bi2 Sr5 3.316167 1_665
Bi2 Sr9 3.508640 1_655
Bi2 Sr6 3.508640 1_655
Bi2 Sr8 3.508643 1_555
Bi2 Sr7 3.508643 1_555
Bi2 Sr2 3.526875 1_655
Bi2 Sr3 3.975751 1_655
Bi2 Sr3 3.975751 1_654
Bi3 Sr4 3.316167 1_555
Bi3 Sr1 3.316167 1_455
Bi3 Sr7 3.508640 1_456
Bi3 Sr8 3.508640 1_455
Bi3 Sr9 3.508643 1_556
Bi3 Sr6 3.508643 1_555
Bi3 Sr3 3.526875 1_555
Bi3 Sr2 3.975751 1_556
Bi3 Sr2 3.975751 1_555
Bi4 Sr3 3.316167 1_655
Bi4 Sr1 3.316167 1_565
Bi4 Sr9 3.508648 1_556
Bi4 Sr6 3.508648 1_555
Bi4 Sr7 3.508648 1_556
Bi4 Sr8 3.508648 1_555
Bi4 Sr4 3.526875 1_555
Bi4 Sr0 3.975751 1_555
Bi4 Sr0 3.975751 1_556
Bi5 Sr2 3.316167 1_655
Bi5 Sr0 3.316167 1_545
Bi5 Sr8 3.508640 1_555
Bi5 Sr7 3.508640 1_555
Bi5 Sr9 3.508643 1_545
Bi5 Sr6 3.508643 1_545
Bi5 Sr5 3.526875 1_555
Bi5 Sr1 3.975751 1_554
Bi5 Sr1 3.975751 1_555
H0 Sr5 2.992687 1_555
H0 Sr1 2.992687 1_455
H0 Sr4 2.992688 1_555
H0 Sr0 2.992688 1_445
H0 Sr2 2.992688 1_555
H0 Sr3 2.992688 1_545
H1 Sr5 2.992687 1_555
H1 Sr1 2.992687 1_454
H1 Sr4 2.992688 1_554
H1 Sr0 2.992688 1_445
H1 Sr2 2.992688 1_555
H1 Sr3 2.992688 1_544
