# generated using pymatgen
data_In9Sn4SbIr6
_symmetry_space_group_name_H-M   'P 1'
_cell_length_a   8.15822101
_cell_length_b   8.15918105
_cell_length_c   8.20796185
_cell_angle_alpha   110.65136565
_cell_angle_beta   109.06354728
_cell_angle_gamma   108.77056652
_symmetry_Int_Tables_number   1
_chemical_formula_structural   In9Sn4SbIr6
_chemical_formula_sum   'In9 Sn4 Sb1 Ir6'
_cell_volume   420.11473728
_cell_formula_units_Z   1
loop_
 _symmetry_equiv_pos_site_id
 _symmetry_equiv_pos_as_xyz
  1  'x, y, z'
loop_
 _atom_site_type_symbol
 _atom_site_label
 _atom_site_symmetry_multiplicity
 _atom_site_fract_x
 _atom_site_fract_y
 _atom_site_fract_z
 _atom_site_occupancy
  In  In0  1  0.32921888  0.99806171  0.00546920  1
  In  In1  1  0.67105576  0.66579644  0.67387995  1
  In  In2  1  0.00315225  0.33547386  0.00968445  1
  In  In3  1  0.31619691  0.31712260  0.31257485  1
  In  In4  1  0.00100815  0.68157340  0.99378653  1
  In  In5  1  0.25176785  0.74355756  0.49787157  1
  In  In6  1  0.74793361  0.25577043  0.50288026  1
  In  In7  1  0.74589271  0.49492573  0.24629543  1
  In  In8  1  0.24952530  0.50525246  0.74976915  1
  Sn  Sn0  1  0.49443759  0.74648309  0.24869835  1
  Sn  Sn1  1  0.50619126  0.25412312  0.75266017  1
  Sn  Sn2  1  0.00327644  0.00066995  0.32542665  1
  Sn  Sn3  1  0.68087710  0.00169471  0.99796999  1
  Sb  Sb0  1  0.00084531  0.99961287  0.68263467  1
  Ir  Ir0  1  0.66281076  0.99998108  0.65596413  1
  Ir  Ir1  1  0.65661948  0.66224203  0.00895669  1
  Ir  Ir2  1  0.33939680  0.33928510  0.98710831  1
  Ir  Ir3  1  0.00030657  0.66209821  0.64845815  1
  Ir  Ir4  1  0.99405660  0.33658525  0.34624740  1
  Ir  Ir5  1  0.34542965  0.99969341  0.35366309  1
loop_
_geom_bond_atom_site_label_1
_geom_bond_atom_site_label_2
_geom_bond_distance
_geom_bond_site_symmetry_2
In0 Ir3 2.786619 1_554
In0 Ir5 2.812604 1_555
In0 Ir2 2.817125 1_564
In0 Sn3 2.880486 1_564
In0 Sb0 3.099481 1_554
In1 Ir3 2.770097 1_655
In1 Ir1 2.800803 1_556
In1 Ir0 2.802729 1_555
In1 Sn3 3.028345 1_565
In1 Sb0 3.111583 1_655
In2 Ir4 2.784536 1_455
In2 Ir2 2.800256 1_554
In2 Ir0 2.805120 1_444
In2 Sn3 3.062797 1_454
In2 Sb0 3.075866 1_544
In3 Ir4 2.778593 1_455
In3 Ir5 2.799928 1_545
In3 Ir2 2.802497 1_554
In3 Sn2 3.053031 1_555
In4 Ir3 2.780372 1_555
In4 Ir5 2.798975 1_556
In4 Ir1 2.809166 1_456
In4 Sn2 3.020888 1_566
In5 Ir3 2.745242 1_555
In5 Ir5 2.767740 1_555
In5 Ir4 2.806823 1_455
In5 Ir0 2.834369 1_555
In6 Ir4 2.748017 1_555
In6 Ir5 2.792983 1_545
In6 Ir3 2.804269 1_655
In6 Ir0 2.811361 1_545
In7 Ir3 2.755235 1_655
In7 Ir1 2.788906 1_555
In7 Ir4 2.790512 1_555
In7 Ir2 2.812786 1_554
In8 Ir4 2.763589 1_455
In8 Ir2 2.780823 1_555
In8 Ir3 2.789933 1_555
In8 Ir1 2.814503 1_556
Sb0 Sn2 2.941515 1_565
Ir0 Sb0 2.695294 1_655
Ir0 Sn3 2.757326 1_565
Ir0 Sn0 2.763053 1_555
Ir0 Sn1 2.787296 1_565
Ir1 Sn0 2.725303 1_555
Ir1 Sn2 2.736147 1_665
Ir1 Sn3 2.748341 1_564
Ir1 Sn1 2.786106 1_554
Ir2 Sb0 2.689681 1_545
Ir2 Sn1 2.722754 1_555
Ir2 Sn0 2.781737 1_556
Ir3 Sb0 2.666247 1_555
Ir4 Sn2 2.712471 1_655
Ir4 Sn3 2.718898 1_554
Ir5 Sn1 2.720574 1_565
Ir5 Sn2 2.727360 1_565
Ir5 Sn0 2.744685 1_555
