# generated using pymatgen
data_SrTa2CdO7
_symmetry_space_group_name_H-M   'P 1'
_cell_length_a   7.45251760
_cell_length_b   7.37769000
_cell_length_c   7.45251822
_cell_angle_alpha   60.33158561
_cell_angle_beta   60.65267877
_cell_angle_gamma   60.33158932
_symmetry_Int_Tables_number   1
_chemical_formula_structural   SrTa2CdO7
_chemical_formula_sum   'Sr2 Ta4 Cd2 O14'
_cell_volume   292.60922618
_cell_formula_units_Z   2
loop_
 _symmetry_equiv_pos_site_id
 _symmetry_equiv_pos_as_xyz
  1  'x, y, z'
loop_
 _atom_site_type_symbol
 _atom_site_label
 _atom_site_symmetry_multiplicity
 _atom_site_fract_x
 _atom_site_fract_y
 _atom_site_fract_z
 _atom_site_occupancy
  Sr  Sr0  1  0.62500000  0.12500000  0.12500000  1
  Sr  Sr1  1  0.12500000  0.12500000  0.62500000  1
  Ta  Ta0  1  0.62500000  0.62500000  0.62500000  1
  Ta  Ta1  1  0.12500000  0.62500000  0.62500000  1
  Ta  Ta2  1  0.62500000  0.62500000  0.12500000  1
  Ta  Ta3  1  0.62500000  0.12500000  0.62500000  1
  Cd  Cd0  1  0.12500000  0.12500000  0.12500000  1
  Cd  Cd1  1  0.12500000  0.62500000  0.12500000  1
  O  O0  1  0.56350100  0.55778231  0.93798968  1
  O  O1  1  0.31201032  0.30927198  0.68649900  1
  O  O2  1  0.93582241  0.56417759  0.93582241  1
  O  O3  1  0.93798968  0.55778231  0.56350100  1
  O  O4  1  0.56350100  0.94072802  0.93798968  1
  O  O5  1  0.55665395  0.94334605  0.55665395  1
  O  O6  1  0.31417759  0.68582241  0.31417759  1
  O  O7  1  0.69334605  0.30665395  0.69334605  1
  O  O8  1  0.22671127  0.27328873  0.22671127  1
  O  O9  1  0.02328873  0.97671127  0.02328873  1
  O  O10  1  0.93798968  0.94072802  0.56350100  1
  O  O11  1  0.68649900  0.30927198  0.31201032  1
  O  O12  1  0.31201032  0.69221769  0.68649900  1
  O  O13  1  0.68649900  0.69221769  0.31201032  1
loop_
_geom_bond_atom_site_label_1
_geom_bond_atom_site_label_2
_geom_bond_distance
_geom_bond_site_symmetry_2
Cd0 O8 2.133341 1_555
Cd0 O9 2.133341 1_545
Cd0 O2 2.716176 1_454
Cd0 O6 2.716176 1_545
Cd0 O11 2.735551 1_455
Cd0 O4 2.735551 1_544
Cd0 O10 2.735551 1_445
Cd0 O1 2.735551 1_554
Cd1 O9 2.133341 1_555
Cd1 O8 2.133341 1_555
Cd1 O6 2.716176 1_555
Cd1 O2 2.716176 1_454
Cd1 O0 2.735552 1_554
Cd1 O13 2.735552 1_455
Cd1 O3 2.735553 1_455
Cd1 O12 2.735553 1_554
O0 Ta0 1.982121 1_555
O0 Ta2 1.983360 1_556
O0 Sr0 2.668219 1_556
O1 Ta3 1.982119 1_555
O1 Ta1 1.983365 1_555
O1 Sr1 2.668213 1_555
O2 Ta2 1.987694 1_556
O2 Ta1 1.987694 1_655
O3 Ta0 1.982121 1_555
O3 Ta1 1.983360 1_655
O3 Sr1 2.668219 1_655
O4 Ta3 1.982119 1_565
O4 Ta2 1.983365 1_556
O4 Sr0 2.668213 1_566
O5 Ta0 1.980105 1_555
O5 Ta3 1.980105 1_565
O5 Sr1 2.684351 1_565
O5 Sr0 2.684351 1_565
O6 Ta2 1.987694 1_555
O6 Ta1 1.987694 1_555
O7 Ta0 1.980105 1_555
O7 Ta3 1.980105 1_555
O7 Sr1 2.684351 1_655
O7 Sr0 2.684351 1_556
O8 Sr0 2.445974 1_555
O8 Sr1 2.445974 1_555
O9 Sr0 2.445974 1_465
O9 Sr1 2.445974 1_564
O10 Ta3 1.982119 1_565
O10 Ta1 1.983365 1_655
O10 Sr1 2.668213 1_665
O11 Ta3 1.982119 1_555
O11 Ta2 1.983365 1_555
O11 Sr0 2.668213 1_555
O12 Ta0 1.982121 1_555
O12 Ta1 1.983360 1_555
O12 Sr1 2.668219 1_565
O13 Ta0 1.982121 1_555
O13 Ta2 1.983360 1_555
O13 Sr0 2.668219 1_565
