# generated using pymatgen
data_K10Zr2AsP5
_symmetry_space_group_name_H-M   'P 1'
_cell_length_a   8.23576387
_cell_length_b   8.92217244
_cell_length_c   17.52550911
_cell_angle_alpha   60.08525600
_cell_angle_beta   90.00000000
_cell_angle_gamma   90.00000000
_symmetry_Int_Tables_number   1
_chemical_formula_structural   K10Zr2AsP5
_chemical_formula_sum   'K20 Zr4 As2 P10'
_cell_volume   1116.21597543
_cell_formula_units_Z   2
loop_
 _symmetry_equiv_pos_site_id
 _symmetry_equiv_pos_as_xyz
  1  'x, y, z'
loop_
 _atom_site_type_symbol
 _atom_site_label
 _atom_site_symmetry_multiplicity
 _atom_site_fract_x
 _atom_site_fract_y
 _atom_site_fract_z
 _atom_site_occupancy
  K  K0  1  0.17219894  0.84470898  0.74532849  1
  K  K1  1  0.67219894  0.15529102  0.75467151  1
  K  K2  1  0.82911458  0.15789843  0.25652036  1
  K  K3  1  0.32911458  0.84210157  0.24347964  1
  K  K4  1  0.16346033  0.17084695  0.41536107  1
  K  K5  1  0.66346033  0.82915305  0.08463893  1
  K  K6  1  0.82681591  0.83606014  0.58240551  1
  K  K7  1  0.32681591  0.16393986  0.91759449  1
  K  K8  1  0.01032020  0.07644852  0.09415539  1
  K  K9  1  0.51032020  0.92355148  0.40584461  1
  K  K10  1  0.98948240  0.91666004  0.91007207  1
  K  K11  1  0.48948240  0.08333996  0.58992793  1
  K  K12  1  0.51584580  0.25572116  0.07848520  1
  K  K13  1  0.01584580  0.74427884  0.42151480  1
  K  K14  1  0.48659462  0.74601494  0.92292342  1
  K  K15  1  0.98659462  0.25398506  0.57707658  1
  K  K16  1  0.98269066  0.54474522  0.25723630  1
  K  K17  1  0.48269066  0.45525478  0.24276370  1
  K  K18  1  0.01488689  0.45829573  0.74011055  1
  K  K19  1  0.51488689  0.54170427  0.75988945  1
  Zr  Zr0  1  0.37067107  0.49472905  0.58072080  1
  Zr  Zr1  1  0.87067107  0.50527095  0.91927920  1
  Zr  Zr2  1  0.63364687  0.50457707  0.41783605  1
  Zr  Zr3  1  0.13364687  0.49542293  0.08216395  1
  As  As0  1  0.74773178  0.22963383  0.92224502  1
  As  As1  1  0.24773178  0.77036617  0.57775498  1
  P  P0  1  0.32048185  0.48736057  0.43720587  1
  P  P1  1  0.82048185  0.51263943  0.06279413  1
  P  P2  1  0.68248297  0.51159212  0.56190301  1
  P  P3  1  0.18248297  0.48840788  0.93809699  1
  P  P4  1  0.21499936  0.21689789  0.21832188  1
  P  P5  1  0.71499936  0.78310211  0.28167812  1
  P  P6  1  0.78707820  0.78025091  0.78303912  1
  P  P7  1  0.28707820  0.21974909  0.71696088  1
  P  P8  1  0.25149856  0.76068912  0.07932480  1
  P  P9  1  0.75149856  0.23931088  0.42067520  1
loop_
_geom_bond_atom_site_label_1
_geom_bond_atom_site_label_2
_geom_bond_distance
_geom_bond_site_symmetry_2
K0 P6 3.232416 1_455
K0 P7 3.268010 1_565
K0 P3 3.288522 1_555
K1 P7 3.232416 1_555
K1 P6 3.268010 1_545
K1 P2 3.288522 1_555
K2 P4 3.236327 1_655
K2 P5 3.284724 1_545
K2 P1 3.291134 1_555
K2 P9 3.361115 1_555
K3 P5 3.236327 1_555
K3 P4 3.284724 1_565
K3 P0 3.291134 1_555
K3 P8 3.361115 1_555
K4 P4 3.295221 1_555
K4 P0 3.297299 1_555
K4 P9 3.456845 1_455
K5 P5 3.295221 1_555
K5 P1 3.297299 1_555
K5 P8 3.456845 1_555
K6 P2 3.310652 1_555
K6 P6 3.312463 1_555
K6 P9 3.345411 1_565
K7 P3 3.310652 1_555
K7 P7 3.312463 1_555
K7 P8 3.345411 1_546
K8 P4 3.444853 1_555
K8 P8 3.560928 1_545
K8 P3 3.601904 1_554
K9 P5 3.444853 1_555
K9 P9 3.560928 1_565
K9 P2 3.601904 1_555
K10 P8 3.357752 1_656
K10 P6 3.452399 1_555
K10 P1 3.531558 1_556
K11 P9 3.357752 1_555
K11 P7 3.452399 1_555
K11 P0 3.531558 1_555
K12 P1 3.316024 1_555
K12 P4 3.379090 1_555
K12 P3 3.578621 1_554
K13 P0 3.316024 1_555
K13 P5 3.379090 1_455
K13 P2 3.578621 1_455
K14 P3 3.319153 1_555
K14 P6 3.388311 1_555
K14 P8 3.411319 1_556
K14 P1 3.579808 1_556
K15 P2 3.319153 1_555
K15 P7 3.388311 1_655
K15 P9 3.411319 1_555
K15 P0 3.579808 1_655
K16 P5 3.236548 1_555
K16 P9 3.386833 1_555
K16 P8 3.513284 1_655
K17 P4 3.236548 1_555
K17 P8 3.386833 1_555
K17 P9 3.513284 1_555
K18 P7 3.252844 1_555
K19 P6 3.252844 1_555
As0 Zr1 2.635987 1_555
As0 K5 3.347530 1_546
As0 K1 3.375613 1_555
As0 K8 3.393351 1_656
As0 K19 3.409403 1_555
As0 K12 3.440162 1_556
As0 K10 3.521550 1_545
As0 K7 3.523479 1_555
As0 K18 3.563245 1_655
As1 Zr0 2.635987 1_555
As1 K4 3.347530 1_565
As1 K0 3.375613 1_555
As1 K9 3.393351 1_555
As1 K18 3.409403 1_555
As1 K13 3.440162 1_555
As1 K11 3.521550 1_565
As1 K6 3.523479 1_455
As1 K19 3.563245 1_555
P0 Zr0 2.581898 1_555
P0 Zr2 2.595930 1_555
P1 Zr1 2.581898 1_554
P1 Zr3 2.595930 1_655
P2 Zr0 2.583908 1_555
P2 Zr2 2.588080 1_555
P3 Zr1 2.583908 1_455
P3 Zr3 2.588080 1_556
P4 Zr3 2.530586 1_555
P5 Zr2 2.530586 1_555
P6 Zr1 2.520191 1_555
P7 Zr0 2.520191 1_555
P8 Zr3 2.535466 1_555
P9 Zr2 2.535466 1_555
