# generated using pymatgen
data_Na6TaH10Cl
_symmetry_space_group_name_H-M   'P 1'
_cell_length_a   6.89843593
_cell_length_b   6.89842667
_cell_length_c   6.89902999
_cell_angle_alpha   119.89108135
_cell_angle_beta   119.89112759
_cell_angle_gamma   90.19647227
_symmetry_Int_Tables_number   1
_chemical_formula_structural   Na6TaH10Cl
_chemical_formula_sum   'Na6 Ta1 H10 Cl1'
_cell_volume   232.51764229
_cell_formula_units_Z   1
loop_
 _symmetry_equiv_pos_site_id
 _symmetry_equiv_pos_as_xyz
  1  'x, y, z'
loop_
 _atom_site_type_symbol
 _atom_site_label
 _atom_site_symmetry_multiplicity
 _atom_site_fract_x
 _atom_site_fract_y
 _atom_site_fract_z
 _atom_site_occupancy
  Na  Na0  1  0.21097372  0.71097472  0.86626366  1
  Na  Na1  1  0.84466150  0.34466450  0.13374798  1
  Na  Na2  1  0.65530256  0.78905951  0.49996506  1
  Na  Na3  1  0.28906051  0.15530056  0.49996506  1
  Na  Na4  1  0.24982944  0.25005082  0.99988484  1
  Na  Na5  1  0.75004782  0.74983644  0.99988684  1
  Ta  Ta0  1  0.74997637  0.24997637  0.49997495  1
  H  H0  1  0.61341558  0.11341358  0.13124194  1
  H  H1  1  0.98221115  0.48221015  0.86871973  1
  H  H2  1  0.00772955  0.30396617  0.50000141  1
  H  H3  1  0.80396717  0.50773055  0.50000141  1
  H  H4  1  0.49221563  0.99221363  0.29619329  1
  H  H5  1  0.69604327  0.19604227  0.70376016  1
  H  H6  1  0.88667109  0.01793206  0.50025595  1
  H  H7  1  0.51793206  0.38667109  0.50025595  1
  H  H8  1  0.50002727  0.50001414  0.00003146  1
  H  H9  1  0.00001514  0.00002627  0.00003046  1
  Cl  Cl0  1  0.24991817  0.74991617  0.49982285  1
loop_
_geom_bond_atom_site_label_1
_geom_bond_atom_site_label_2
_geom_bond_distance
_geom_bond_site_symmetry_2
H0 Ta0 1.860932 1_555
H0 Na1 2.239982 1_555
H0 Na5 2.569513 1_544
H0 Na4 2.569583 1_554
H1 Ta0 1.860927 1_555
H1 Na0 2.239949 1_655
H1 Na4 2.567428 1_655
H1 Na5 2.567486 1_555
H2 Ta0 1.815324 1_455
H2 Na3 2.198212 1_555
H2 Na0 2.367403 1_555
H2 Na1 2.367512 1_455
H3 Ta0 1.815329 1_555
H3 Na2 2.198195 1_555
H3 Na0 2.367395 1_655
H3 Na1 2.367496 1_555
H4 Ta0 1.815263 1_565
H4 Na0 2.197449 1_554
H4 Na2 2.367324 1_555
H4 Na3 2.367332 1_565
H5 Ta0 1.815278 1_555
H5 Na1 2.198276 1_556
H5 Na2 2.367372 1_545
H5 Na3 2.367373 1_555
H6 Ta0 1.860970 1_555
H6 Na2 2.239787 1_545
H6 Na4 2.566305 1_655
H6 Na5 2.570472 1_544
H7 Ta0 1.860971 1_555
H7 Na3 2.239792 1_555
H7 Na5 2.566328 1_555
H7 Na4 2.570492 1_554
H8 Na5 2.434718 1_554
H8 Na4 2.434849 1_554
H8 Na2 2.543159 1_555
H8 Na1 2.543337 1_555
H8 Na0 2.543628 1_554
H8 Na3 2.543638 1_554
H9 Na4 2.434703 1_554
H9 Na5 2.434845 1_444
H9 Na3 2.543166 1_555
H9 Na1 2.543374 1_455
H9 Na0 2.543609 1_544
H9 Na2 2.543632 1_444
Cl0 Na1 2.807369 1_455
Cl0 Na3 2.808065 1_565
Cl0 Na2 2.808069 1_555
Cl0 Na0 2.808720 1_555
