# generated using pymatgen
data_ScTi4(Re3Tc)6
_symmetry_space_group_name_H-M   'P 1'
_cell_length_a   8.33696358
_cell_length_b   8.33696242
_cell_length_c   8.32015212
_cell_angle_alpha   109.47380513
_cell_angle_beta   109.47380538
_cell_angle_gamma   109.54777399
_symmetry_Int_Tables_number   1
_chemical_formula_structural   ScTi4(Re3Tc)6
_chemical_formula_sum   'Sc1 Ti4 Re18 Tc6'
_cell_volume   444.71948054
_cell_formula_units_Z   1
loop_
 _symmetry_equiv_pos_site_id
 _symmetry_equiv_pos_as_xyz
  1  'x, y, z'
loop_
 _atom_site_type_symbol
 _atom_site_label
 _atom_site_symmetry_multiplicity
 _atom_site_fract_x
 _atom_site_fract_y
 _atom_site_fract_z
 _atom_site_occupancy
  Sc  Sc0  1  0.99953144  0.99953144  0.00000000  1
  Ti  Ti0  1  0.62907653  0.99956572  0.00000000  1
  Ti  Ti1  1  0.99956572  0.62907653  1.00000000  1
  Ti  Ti2  1  0.99968070  0.99968070  0.63015103  1
  Ti  Ti3  1  0.36953068  0.36953068  0.36984897  1
  Re  Re0  1  0.31963738  0.31963738  0.72103335  1
  Re  Re1  1  0.00098810  0.68071455  0.40025287  1
  Re  Re2  1  0.68071455  0.00098810  0.40025287  1
  Re  Re3  1  0.59860202  0.59860202  0.27896665  1
  Re  Re4  1  0.28046168  0.60073423  0.59974713  1
  Re  Re5  1  0.60073423  0.28046168  0.59974713  1
  Re  Re6  1  0.37705634  0.19428602  1.00000000  1
  Re  Re7  1  0.18146995  0.80631521  0.80564932  1
  Re  Re8  1  0.37582063  0.00066589  0.19435068  1
  Re  Re9  1  0.19428602  0.37705634  0.00000000  1
  Re  Re10  1  0.00066589  0.37582063  0.19435068  1
  Re  Re11  1  0.80631521  0.18146995  0.80564932  1
  Re  Re12  1  0.80695366  0.80695366  0.18348187  1
  Re  Re13  1  0.00083601  0.19402522  0.37868649  1
  Re  Re14  1  0.19402522  0.00083601  0.37868649  1
  Re  Re15  1  0.62347079  0.62347079  0.81651813  1
  Re  Re16  1  0.81533873  0.62214951  0.62131351  1
  Re  Re17  1  0.62214951  0.81533873  0.62131351  1
  Tc  Tc0  1  0.40024627  0.68183074  1.00000000  1
  Tc  Tc1  1  0.71946047  0.31804763  0.31700160  1
  Tc  Tc2  1  0.40245887  0.00104603  0.68299840  1
  Tc  Tc3  1  0.68183074  0.40024627  0.00000000  1
  Tc  Tc4  1  0.00104603  0.40245887  0.68299840  1
  Tc  Tc5  1  0.31804763  0.71946047  0.31700160  1
loop_
_geom_bond_atom_site_label_1
_geom_bond_atom_site_label_2
_geom_bond_distance
_geom_bond_site_symmetry_2
Sc0 Ti2 3.078030 1_554
Sc0 Ti3 3.078035 1_665
Sc0 Ti1 3.088564 1_554
Sc0 Ti0 3.088565 1_555
Re0 Re15 2.546878 1_555
Re0 Ti2 2.711332 1_445
Re0 Re14 2.715685 1_555
Re0 Re13 2.715685 1_555
Re0 Tc0 2.808175 1_555
Re0 Tc3 2.808175 1_556
Re0 Re6 2.814207 1_555
Re0 Re9 2.814207 1_556
Re0 Tc2 2.905894 1_555
Re0 Tc4 2.905894 1_555
Re0 Re4 2.913105 1_555
Re0 Re5 2.913105 1_555
Re0 Ti3 3.223125 1_555
Re1 Re10 2.546560 1_555
Re1 Ti2 2.715167 1_455
Re1 Re14 2.717080 1_565
Re1 Re12 2.727075 1_455
Re1 Re4 2.797745 1_555
Re1 Tc1 2.810902 1_455
Re1 Re7 2.818547 1_555
Re1 Re16 2.829825 1_455
Re1 Tc5 2.893062 1_555
Re1 Tc3 2.893787 1_455
Re1 Tc2 2.906645 1_565
Re1 Re3 2.913125 1_455
Re1 Ti1 3.207778 1_454
Re2 Re8 2.546561 1_555
Re2 Ti2 2.715167 1_545
Re2 Re5 2.797745 1_555
Re2 Tc5 2.810902 1_545
Re2 Tc1 2.893061 1_555
Re2 Tc0 2.893787 1_544
Re2 Tc4 2.906645 1_655
Re2 Re3 2.913124 1_545
Re2 Ti0 3.207778 1_545
Re3 Ti3 2.711304 1_555
Re3 Tc3 2.808180 1_555
Re3 Tc0 2.808180 1_554
Re3 Re6 2.814196 1_554
Re3 Re9 2.814196 1_555
Re3 Tc1 2.905888 1_555
Re3 Tc5 2.905888 1_555
Re3 Ti2 3.223131 1_555
Re4 Re7 2.546565 1_555
Re4 Ti3 2.715164 1_555
Re4 Tc4 2.810899 1_555
Re4 Tc2 2.893069 1_565
Re4 Tc0 2.893785 1_555
Re4 Tc5 2.906650 1_555
Re4 Ti0 3.207781 1_556
Re5 Ti3 2.715164 1_555
Re5 Tc2 2.810899 1_555
Re5 Re8 2.818547 1_555
Re5 Tc4 2.893070 1_655
Re5 Tc3 2.893785 1_556
Re5 Tc1 2.906650 1_555
Re5 Ti1 3.207781 1_555
Re6 Re9 2.489447 1_556
Re6 Tc3 2.546548 1_556
Re6 Re7 2.638348 1_545
Re6 Re8 2.638348 1_556
Re6 Tc2 2.713732 1_555
Re6 Tc1 2.713732 1_556
Re6 Ti3 2.966499 1_556
Re6 Ti2 2.966502 1_445
Re6 Sc0 3.020383 1_446
Re6 Ti0 3.054896 1_546
Re7 Re8 2.639176 1_566
Re7 Tc2 2.725430 1_565
Re7 Tc0 2.727222 1_555
Re7 Tc4 2.817230 1_555
Re7 Ti2 2.959187 1_455
Re7 Ti1 2.970967 1_455
Re7 Sc0 3.007320 1_456
Re7 Ti0 3.058150 1_556
Re8 Tc1 2.725430 1_555
Re8 Tc0 2.727222 1_544
Re8 Tc5 2.817230 1_545
Re8 Ti3 2.959190 1_555
Re8 Ti1 2.970967 1_444
Re8 Sc0 3.007321 1_445
Re8 Ti0 3.058150 1_545
Re9 Tc0 2.546548 1_554
Re9 Tc5 2.713732 1_555
Re9 Tc4 2.713732 1_554
Re9 Ti3 2.966499 1_555
Re9 Ti2 2.966502 1_444
Re9 Sc0 3.020383 1_445
Re9 Ti1 3.054896 1_454
Re10 Re13 2.489822 1_555
Re10 Re9 2.638348 1_555
Re10 Re11 2.639176 1_454
Re10 Tc5 2.725430 1_555
Re10 Tc3 2.727222 1_455
Re10 Tc1 2.817230 1_455
Re10 Re4 2.818547 1_555
Re10 Ti3 2.959191 1_555
Re10 Ti0 2.970967 1_445
Re10 Sc0 3.007320 1_445
Re10 Ti1 3.058150 1_454
Re11 Re17 2.489822 1_545
Re11 Re5 2.546565 1_555
Re11 Re9 2.638348 1_656
Re11 Tc4 2.725430 1_655
Re11 Tc3 2.727222 1_556
Re11 Tc2 2.817230 1_555
Re11 Re2 2.818547 1_555
Re11 Ti2 2.959188 1_545
Re11 Ti0 2.970967 1_546
Re11 Sc0 3.007320 1_546
Re11 Ti1 3.058150 1_555
Re12 Re15 2.491583 1_554
Re12 Re3 2.546906 1_555
Re12 Re13 2.632233 1_665
Re12 Re14 2.632233 1_665
Re12 Re2 2.727075 1_565
Re12 Tc3 2.834709 1_555
Re12 Tc0 2.834709 1_554
Re12 Ti0 2.970999 1_555
Re12 Ti1 2.970999 1_554
Re12 Sc0 3.004877 1_555
Re12 Ti2 3.047014 1_555
Re13 Tc4 2.547886 1_555
Re13 Re14 2.631359 1_555
Re13 Re2 2.717080 1_455
Re13 Re4 2.829819 1_555
Re13 Tc1 2.830117 1_455
Re13 Ti3 2.967705 1_555
Re13 Ti0 2.980300 1_445
Re13 Sc0 3.019178 1_445
Re13 Ti2 3.043994 1_445
Re14 Re8 2.489822 1_555
Re14 Tc2 2.547886 1_555
Re14 Re5 2.829819 1_555
Re14 Tc5 2.830117 1_545
Re14 Ti3 2.967705 1_555
Re14 Ti1 2.980300 1_444
Re14 Sc0 3.019178 1_445
Re14 Ti2 3.043994 1_445
Re15 Re17 2.632240 1_555
Re15 Re16 2.632240 1_555
Re15 Re5 2.727068 1_555
Re15 Re4 2.727069 1_555
Re15 Tc3 2.834703 1_556
Re15 Tc0 2.834704 1_555
Re15 Ti0 2.971002 1_556
Re15 Ti1 2.971002 1_555
Re15 Sc0 3.004886 1_556
Re15 Ti3 3.047012 1_555
Re16 Re7 2.489822 1_655
Re16 Tc1 2.547886 1_555
Re16 Re17 2.631359 1_555
Re16 Re3 2.715681 1_555
Re16 Re5 2.717083 1_555
Re16 Tc4 2.830117 1_655
Re16 Ti2 2.967696 1_555
Re16 Ti1 2.980300 1_555
Re16 Sc0 3.019178 1_556
Re16 Ti3 3.043987 1_555
Re17 Tc5 2.547886 1_555
Re17 Re3 2.715681 1_555
Re17 Re4 2.717083 1_555
Re17 Re2 2.829825 1_565
Re17 Tc2 2.830117 1_565
Re17 Ti2 2.967696 1_555
Re17 Ti0 2.980300 1_556
Re17 Sc0 3.019179 1_556
Re17 Ti3 3.043987 1_555
Tc0 Ti0 2.697160 1_556
Tc0 Tc5 2.884743 1_556
Tc0 Tc4 2.884743 1_555
Tc0 Ti1 3.220086 1_455
Tc1 Ti0 2.690890 1_545
Tc1 Tc4 2.824620 1_655
Tc1 Tc3 2.884743 1_555
Tc1 Ti3 3.233555 1_555
Tc2 Ti0 2.690890 1_546
Tc2 Tc5 2.824620 1_545
Tc2 Tc3 2.884743 1_556
Tc2 Ti2 3.233560 1_445
Tc3 Ti1 2.697160 1_554
Tc3 Ti0 3.220086 1_545
Tc4 Ti1 2.690890 1_455
Tc4 Ti2 3.233559 1_445
Tc5 Ti1 2.690890 1_454
Tc5 Ti3 3.233554 1_555
