# generated using pymatgen
data_Ba3CdRh2O9
_symmetry_space_group_name_H-M   'P 1'
_cell_length_a   5.88695336
_cell_length_b   5.88695410
_cell_length_c   14.68284908
_cell_angle_alpha   89.07581212
_cell_angle_beta   89.07581327
_cell_angle_gamma   119.77767742
_symmetry_Int_Tables_number   1
_chemical_formula_structural   Ba3CdRh2O9
_chemical_formula_sum   'Ba6 Cd2 Rh4 O18'
_cell_volume   441.43444669
_cell_formula_units_Z   2
loop_
 _symmetry_equiv_pos_site_id
 _symmetry_equiv_pos_as_xyz
  1  'x, y, z'
loop_
 _atom_site_type_symbol
 _atom_site_label
 _atom_site_symmetry_multiplicity
 _atom_site_fract_x
 _atom_site_fract_y
 _atom_site_fract_z
 _atom_site_occupancy
  Ba  Ba0  1  0.32388844  0.65991458  0.58856201  1
  Ba  Ba1  1  0.67611156  0.34008542  0.41143799  1
  Ba  Ba2  1  0.34008542  0.67611156  0.91143799  1
  Ba  Ba3  1  0.65991458  0.32388844  0.08856201  1
  Ba  Ba4  1  0.99439736  0.00560264  0.75000000  1
  Ba  Ba5  1  0.00560264  0.99439736  0.25000000  1
  Cd  Cd0  1  0.00000000  0.00000000  0.50000000  1
  Cd  Cd1  1  0.00000000  0.00000000  0.00000000  1
  Rh  Rh0  1  0.64894243  0.31945009  0.65817597  1
  Rh  Rh1  1  0.35105757  0.68054991  0.34182403  1
  Rh  Rh2  1  0.68054991  0.35105757  0.84182403  1
  Rh  Rh3  1  0.31945009  0.64894243  0.15817597  1
  O  O0  1  0.38738237  0.21158457  0.92496308  1
  O  O1  1  0.61261763  0.78841543  0.07503692  1
  O  O2  1  0.78841543  0.61261763  0.57503692  1
  O  O3  1  0.21158457  0.38738237  0.42496308  1
  O  O4  1  0.51633118  0.48366882  0.75000000  1
  O  O5  1  0.48366882  0.51633118  0.25000000  1
  O  O6  1  0.78937846  0.14194844  0.58956938  1
  O  O7  1  0.21062154  0.85805156  0.41043062  1
  O  O8  1  0.85805156  0.21062154  0.91043062  1
  O  O9  1  0.14194844  0.78937846  0.08956938  1
  O  O10  1  0.31998869  0.14245681  0.59880749  1
  O  O11  1  0.68001131  0.85754319  0.40119251  1
  O  O12  1  0.85754319  0.68001131  0.90119251  1
  O  O13  1  0.14245681  0.31998869  0.09880749  1
  O  O14  1  0.51720087  0.04288786  0.76010375  1
  O  O15  1  0.48279913  0.95711214  0.23989625  1
  O  O16  1  0.95711214  0.48279913  0.73989625  1
  O  O17  1  0.04288786  0.51720087  0.26010375  1
loop_
_geom_bond_atom_site_label_1
_geom_bond_atom_site_label_2
_geom_bond_distance
_geom_bond_site_symmetry_2
Ba0 O6 2.800164 1_565
Ba0 O3 2.811264 1_555
Ba0 O10 2.858532 1_565
Ba0 O16 2.867221 1_455
Ba0 O2 2.887184 1_555
Ba0 O4 3.025468 1_555
Ba0 O2 3.033836 1_455
Ba0 O10 3.036188 1_555
Ba0 O7 3.062068 1_555
Ba0 O6 3.109045 1_455
Ba0 O14 3.232525 1_565
Ba0 O11 3.256599 1_555
Ba1 O7 2.800164 1_545
Ba1 O2 2.811264 1_555
Ba1 O11 2.858532 1_545
Ba1 O17 2.867221 1_655
Ba1 O3 2.887184 1_555
Ba1 O5 3.025468 1_555
Ba1 O3 3.033836 1_655
Ba1 O11 3.036188 1_555
Ba1 O6 3.062068 1_555
Ba1 O7 3.109045 1_655
Ba1 O15 3.232525 1_545
Ba1 O10 3.256599 1_555
Ba2 O8 2.800164 1_455
Ba2 O1 2.811263 1_556
Ba2 O12 2.858532 1_455
Ba2 O14 2.867221 1_565
Ba2 O0 2.887184 1_555
Ba2 O4 3.025468 1_555
Ba2 O0 3.033836 1_565
Ba2 O12 3.036188 1_555
Ba2 O9 3.062068 1_556
Ba2 O8 3.109045 1_565
Ba2 O16 3.232525 1_455
Ba2 O13 3.256599 1_556
Ba3 O9 2.800164 1_655
Ba3 O0 2.811263 1_554
Ba3 O13 2.858532 1_655
Ba3 O15 2.867221 1_545
Ba3 O1 2.887184 1_555
Ba3 O5 3.025468 1_555
Ba3 O1 3.033836 1_545
Ba3 O13 3.036188 1_555
Ba3 O8 3.062068 1_554
Ba3 O9 3.109045 1_545
Ba3 O17 3.232525 1_655
Ba3 O12 3.256599 1_554
Ba4 O10 2.742680 1_655
Ba4 O12 2.742681 1_545
Ba4 O14 2.926099 1_555
Ba4 O16 2.926099 1_555
Ba4 O6 2.939843 1_555
Ba4 O8 2.939843 1_555
Ba4 O4 2.961800 1_655
Ba4 O4 2.961800 1_545
Ba4 O14 2.981161 1_655
Ba4 O16 2.981162 1_545
Ba4 O0 3.305738 1_655
Ba4 O2 3.305738 1_545
Ba5 O11 2.742680 1_455
Ba5 O13 2.742681 1_565
Ba5 O15 2.926099 1_555
Ba5 O17 2.926099 1_555
Ba5 O7 2.939843 1_555
Ba5 O9 2.939843 1_555
Ba5 O5 2.961800 1_455
Ba5 O5 2.961800 1_565
Ba5 O15 2.981161 1_455
Ba5 O17 2.981162 1_565
Ba5 O1 3.305738 1_455
Ba5 O3 3.305738 1_565
Cd0 O10 2.216947 1_555
Cd0 O11 2.216947 1_445
Cd0 O6 2.230983 1_455
Cd0 O7 2.230983 1_545
Cd0 O2 2.240373 1_445
Cd0 O3 2.240373 1_555
Cd1 O13 2.216948 1_555
Cd1 O12 2.216948 1_444
Cd1 O9 2.230983 1_545
Cd1 O8 2.230983 1_454
Cd1 O1 2.240373 1_445
Cd1 O0 2.240373 1_554
O0 Rh2 1.906593 1_555
O1 Rh3 1.906593 1_555
O2 Rh0 1.906593 1_555
O3 Rh1 1.906593 1_555
O4 Rh2 2.029664 1_555
O4 Rh0 2.029664 1_555
O5 Rh3 2.029664 1_555
O5 Rh1 2.029664 1_555
O6 Rh0 1.911888 1_555
O7 Rh1 1.911888 1_555
O8 Rh2 1.911888 1_555
O9 Rh3 1.911888 1_555
O10 Rh0 1.917093 1_555
O11 Rh1 1.917093 1_555
O12 Rh2 1.917093 1_555
O13 Rh3 1.917093 1_555
O14 Rh2 2.007566 1_555
O14 Rh0 2.030214 1_555
O15 Rh3 2.007566 1_555
O15 Rh1 2.030214 1_555
O16 Rh0 2.007566 1_555
O16 Rh2 2.030214 1_555
O17 Rh1 2.007566 1_555
O17 Rh3 2.030214 1_555
