# generated using pymatgen
data_Ba10MnPN10
_symmetry_space_group_name_H-M   'P 1'
_cell_length_a   7.87915419
_cell_length_b   7.87915372
_cell_length_c   9.41881485
_cell_angle_alpha   76.24213953
_cell_angle_beta   76.24214145
_cell_angle_gamma   95.49354435
_symmetry_Int_Tables_number   1
_chemical_formula_structural   Ba10MnPN10
_chemical_formula_sum   'Ba10 Mn1 P1 N10'
_cell_volume   544.42427427
_cell_formula_units_Z   1
loop_
 _symmetry_equiv_pos_site_id
 _symmetry_equiv_pos_as_xyz
  1  'x, y, z'
loop_
 _atom_site_type_symbol
 _atom_site_label
 _atom_site_symmetry_multiplicity
 _atom_site_fract_x
 _atom_site_fract_y
 _atom_site_fract_z
 _atom_site_occupancy
  Ba  Ba0  1  0.39779231  0.38383656  0.37784311  1
  Ba  Ba1  1  0.61616344  0.60220769  0.62215689  1
  Ba  Ba2  1  0.66691802  0.66998520  0.00562291  1
  Ba  Ba3  1  0.33001480  0.33308198  0.99437709  1
  Ba  Ba4  1  0.92094648  0.93111098  0.20517540  1
  Ba  Ba5  1  0.06888902  0.07905352  0.79482460  1
  Ba  Ba6  1  0.56765031  0.09557804  0.75795881  1
  Ba  Ba7  1  0.90442196  0.43234969  0.24204119  1
  Ba  Ba8  1  0.44052040  0.91163407  0.24382053  1
  Ba  Ba9  1  0.08836593  0.55947960  0.75617947  1
  Mn  Mn0  1  0.24196999  0.75803001  0.00000000  1
  P  P0  1  0.75767431  0.24232569  0.00000000  1
  N  N0  1  0.65082493  0.65215937  0.31257945  1
  N  N1  1  0.34784063  0.34917507  0.68742055  1
  N  N2  1  0.72083781  0.03108084  0.99418716  1
  N  N3  1  0.96891916  0.27916219  0.00581284  1
  N  N4  1  0.28170519  0.97128744  0.00769124  1
  N  N5  1  0.02871256  0.71829481  0.99230876  1
  N  N6  1  0.38254367  0.73006290  0.84227828  1
  N  N7  1  0.26993710  0.61745633  0.15772072  1
  N  N8  1  0.61974050  0.27238951  0.15374774  1
  N  N9  1  0.72761049  0.38025950  0.84625126  1
loop_
_geom_bond_atom_site_label_1
_geom_bond_atom_site_label_2
_geom_bond_distance
_geom_bond_site_symmetry_2
Ba0 N0 2.610407 1_555
Ba0 N8 2.775661 1_555
Ba0 N1 2.790428 1_555
Ba0 N7 2.869653 1_555
Ba1 N1 2.610407 1_555
Ba1 N9 2.775655 1_555
Ba1 N0 2.790428 1_555
Ba1 N6 2.869647 1_555
Ba2 N5 2.808245 1_654
Ba2 N2 2.808538 1_564
Ba2 N0 2.832619 1_555
Ba2 N6 3.017918 1_554
Ba2 N9 3.031592 1_554
Ba2 N7 3.057122 1_555
Ba2 N8 3.057792 1_555
Ba3 N4 2.808245 1_546
Ba3 N3 2.808539 1_456
Ba3 N1 2.832619 1_555
Ba3 N7 3.017912 1_556
Ba3 N8 3.031586 1_556
Ba3 N6 3.057124 1_555
Ba3 N9 3.057794 1_555
Ba4 N0 2.721516 1_555
Ba4 N2 2.835339 1_564
Ba4 N3 2.864260 1_565
Ba4 N5 2.935037 1_654
Ba4 N4 2.944924 1_655
Ba5 N1 2.721516 1_555
Ba5 N3 2.835339 1_456
Ba5 N2 2.864260 1_455
Ba5 N4 2.935037 1_546
Ba5 N5 2.944924 1_545
Ba6 N2 2.742742 1_555
Ba6 N4 2.743924 1_546
Ba6 N1 2.830534 1_555
Ba6 N9 2.855836 1_555
Ba6 N6 2.934103 1_545
Ba7 N3 2.742742 1_555
Ba7 N5 2.743924 1_654
Ba7 N0 2.830534 1_555
Ba7 N8 2.855842 1_555
Ba7 N7 2.934103 1_655
Ba8 N2 2.715098 1_564
Ba8 N4 2.769891 1_555
Ba8 N0 2.806096 1_555
Ba8 N8 2.882355 1_565
Ba8 N7 2.941540 1_555
Ba9 N3 2.715098 1_456
Ba9 N5 2.769891 1_555
Ba9 N1 2.806096 1_555
Ba9 N9 2.882356 1_455
Ba9 N6 2.941535 1_555
Mn0 N4 1.701351 1_555
Mn0 N5 1.701351 1_554
Mn0 N7 1.703524 1_555
Mn0 N6 1.703532 1_554
N2 P0 1.678086 1_556
N3 P0 1.678086 1_555
N8 P0 1.672777 1_555
N9 P0 1.672784 1_556
