# generated using pymatgen
data_Sc22Tc4Ir3Pt
_symmetry_space_group_name_H-M   'P 1'
_cell_length_a   9.46299998
_cell_length_b   9.49508775
_cell_length_c   9.51434811
_cell_angle_alpha   59.80213582
_cell_angle_beta   60.04400633
_cell_angle_gamma   60.24626903
_symmetry_Int_Tables_number   1
_chemical_formula_structural   Sc22Tc4Ir3Pt
_chemical_formula_sum   'Sc22 Tc4 Ir3 Pt1'
_cell_volume   604.89771153
_cell_formula_units_Z   1
loop_
 _symmetry_equiv_pos_site_id
 _symmetry_equiv_pos_as_xyz
  1  'x, y, z'
loop_
 _atom_site_type_symbol
 _atom_site_label
 _atom_site_symmetry_multiplicity
 _atom_site_fract_x
 _atom_site_fract_y
 _atom_site_fract_z
 _atom_site_occupancy
  Sc  Sc0  1  0.80401773  0.80335761  0.19664239  1
  Sc  Sc1  1  0.19601011  0.80449465  0.19550535  1
  Sc  Sc2  1  0.80238578  0.19761422  0.19761422  1
  Sc  Sc3  1  0.19598227  0.19664239  0.80335761  1
  Sc  Sc4  1  0.80398989  0.19550535  0.80449465  1
  Sc  Sc5  1  0.19761422  0.80238578  0.80238578  1
  Sc  Sc6  1  0.61743320  0.61226559  0.15065422  1
  Sc  Sc7  1  0.61964599  0.15065422  0.61226559  1
  Sc  Sc8  1  0.14839588  0.61584108  0.61518083  1
  Sc  Sc9  1  0.62058221  0.61518083  0.61584108  1
  Sc  Sc10  1  0.38256680  0.38773441  0.84934578  1
  Sc  Sc11  1  0.38035401  0.84934578  0.38773441  1
  Sc  Sc12  1  0.85160412  0.38415892  0.38481917  1
  Sc  Sc13  1  0.37941779  0.38481917  0.38415892  1
  Sc  Sc14  1  0.84414286  0.84607001  0.46614512  1
  Sc  Sc15  1  0.84364201  0.46614512  0.84607001  1
  Sc  Sc16  1  0.46881223  0.84212403  0.84135598  1
  Sc  Sc17  1  0.84770676  0.84135598  0.84212403  1
  Sc  Sc18  1  0.15585714  0.15392999  0.53385488  1
  Sc  Sc19  1  0.15635799  0.53385488  0.15392999  1
  Sc  Sc20  1  0.53118777  0.15787597  0.15864402  1
  Sc  Sc21  1  0.15229324  0.15864402  0.15787597  1
  Tc  Tc0  1  0.00000000  0.00000000  0.00000000  1
  Tc  Tc1  1  0.00000000  0.00000000  0.50000000  1
  Tc  Tc2  1  0.00000000  0.50000000  0.50000000  1
  Tc  Tc3  1  0.50000000  0.50000000  0.00000000  1
  Ir  Ir0  1  0.50000000  0.50000000  0.50000000  1
  Ir  Ir1  1  0.50000000  0.00000000  0.50000000  1
  Ir  Ir2  1  0.00000000  0.50000000  0.00000000  1
  Pt  Pt0  1  0.50000000  0.00000000  0.00000000  1
loop_
_geom_bond_atom_site_label_1
_geom_bond_atom_site_label_2
_geom_bond_distance
_geom_bond_site_symmetry_2
Sc0 Tc0 2.623673 1_665
Sc1 Tc0 2.626952 1_565
Sc2 Tc0 2.666039 1_655
Sc3 Tc0 2.623673 1_556
Sc4 Tc0 2.626952 1_656
Sc5 Tc0 2.666039 1_566
Sc6 Tc3 2.954549 1_555
Sc7 Tc1 2.954556 1_655
Sc8 Tc2 2.943677 1_555
Sc8 Tc1 2.984901 1_565
Sc9 Tc2 2.943677 1_655
Sc9 Tc3 2.984901 1_556
Sc10 Tc3 2.954549 1_556
Sc11 Tc1 2.954556 1_565
Sc12 Tc2 2.943677 1_655
Sc12 Tc1 2.984901 1_655
Sc13 Tc2 2.943677 1_555
Sc13 Tc3 2.984901 1_555
Sc14 Tc1 2.739131 1_665
Sc14 Tc2 2.770558 1_655
Sc15 Tc3 2.739131 1_556
Sc15 Tc2 2.770558 1_655
Sc16 Tc3 2.734747 1_556
Sc17 Tc1 2.734749 1_665
Sc18 Tc1 2.739131 1_555
Sc18 Tc2 2.770558 1_555
Sc19 Tc3 2.739131 1_555
Sc19 Tc2 2.770558 1_555
Sc20 Tc3 2.734747 1_555
Sc21 Tc1 2.734749 1_555
Ir0 Sc11 2.709544 1_555
Ir0 Sc7 2.709544 1_555
Ir0 Sc10 2.709544 1_555
Ir0 Sc6 2.709544 1_555
Ir0 Sc12 2.723971 1_555
Ir0 Sc8 2.723971 1_555
Ir0 Sc9 2.723971 1_555
Ir0 Sc13 2.723971 1_555
Ir1 Sc16 2.732494 1_545
Ir1 Sc20 2.732494 1_555
Ir1 Sc14 2.747225 1_545
Ir1 Sc18 2.747225 1_555
Ir1 Sc7 2.970085 1_555
Ir1 Sc11 2.970085 1_545
Ir1 Sc13 2.989011 1_555
Ir1 Sc9 2.989011 1_545
Ir2 Sc17 2.732496 1_454
Ir2 Sc21 2.732496 1_555
Ir2 Sc19 2.747225 1_555
Ir2 Sc15 2.747225 1_454
Ir2 Sc10 2.970093 1_554
Ir2 Sc6 2.970093 1_455
Ir2 Sc12 2.989012 1_455
Ir2 Sc8 2.989012 1_554
Pt0 Sc17 2.787946 1_544
Pt0 Sc21 2.787946 1_555
Pt0 Sc20 2.787952 1_555
Pt0 Sc16 2.787952 1_544
Pt0 Sc10 3.010793 1_554
Pt0 Sc6 3.010793 1_545
Pt0 Sc11 3.010794 1_545
Pt0 Sc7 3.010794 1_554
