# generated using pymatgen
data_RuPtCl8
_symmetry_space_group_name_H-M   'P 1'
_cell_length_a   6.16485591
_cell_length_b   7.13867782
_cell_length_c   6.05184603
_cell_angle_alpha   90.00000000
_cell_angle_beta   107.35981367
_cell_angle_gamma   90.00000000
_symmetry_Int_Tables_number   1
_chemical_formula_structural   RuPtCl8
_chemical_formula_sum   'Ru1 Pt1 Cl8'
_cell_volume   254.20359645
_cell_formula_units_Z   1
loop_
 _symmetry_equiv_pos_site_id
 _symmetry_equiv_pos_as_xyz
  1  'x, y, z'
loop_
 _atom_site_type_symbol
 _atom_site_label
 _atom_site_symmetry_multiplicity
 _atom_site_fract_x
 _atom_site_fract_y
 _atom_site_fract_z
 _atom_site_occupancy
  Ru  Ru0  1  0.00000000  0.36690297  0.25000000  1
  Pt  Pt0  1  0.00000000  0.62196116  0.75000000  1
  Cl  Cl0  1  0.78392951  0.61862473  0.00849653  1
  Cl  Cl1  1  0.75910250  0.16008832  0.03357478  1
  Cl  Cl2  1  0.24089750  0.16008832  0.46642522  1
  Cl  Cl3  1  0.21607049  0.61862473  0.49150347  1
  Cl  Cl4  1  0.77861297  0.38080594  0.51023864  1
  Cl  Cl5  1  0.76717635  0.84605045  0.53238761  1
  Cl  Cl6  1  0.23282465  0.84605045  0.96761239  1
  Cl  Cl7  1  0.22138803  0.38080594  0.98976136  1
loop_
_geom_bond_atom_site_label_1
_geom_bond_atom_site_label_2
_geom_bond_distance
_geom_bond_site_symmetry_2
Cl0 Pt0 2.337884 1_654
Cl0 Ru0 2.444944 1_655
Cl1 Ru0 2.222606 1_655
Cl2 Ru0 2.222606 1_555
Cl3 Pt0 2.337884 1_555
Cl3 Ru0 2.444944 1_555
Cl4 Ru0 2.373954 1_655
Cl4 Pt0 2.397922 1_655
Cl5 Pt0 2.285952 1_655
Cl6 Pt0 2.285955 1_555
Cl7 Ru0 2.373959 1_556
Cl7 Pt0 2.397925 1_555
