# generated using pymatgen
data_P2Pb4O9
_symmetry_space_group_name_H-M   'P 1'
_cell_length_a   7.16604718
_cell_length_b   9.48599845
_cell_length_c   14.53344074
_cell_angle_alpha   75.61086161
_cell_angle_beta   90.00000000
_cell_angle_gamma   90.00000000
_symmetry_Int_Tables_number   1
_chemical_formula_structural   P2Pb4O9
_chemical_formula_sum   'P8 Pb16 O36'
_cell_volume   956.94990022
_cell_formula_units_Z   4
loop_
 _symmetry_equiv_pos_site_id
 _symmetry_equiv_pos_as_xyz
  1  'x, y, z'
loop_
 _atom_site_type_symbol
 _atom_site_label
 _atom_site_symmetry_multiplicity
 _atom_site_fract_x
 _atom_site_fract_y
 _atom_site_fract_z
 _atom_site_occupancy
  P  P0  1  0.73311311  0.36908243  0.18557461  1
  P  P1  1  0.23311311  0.63091757  0.31442539  1
  P  P2  1  0.26688689  0.63091757  0.81442539  1
  P  P3  1  0.76688689  0.36908243  0.68557461  1
  P  P4  1  0.29306381  0.03167947  0.09671023  1
  P  P5  1  0.79306381  0.96832053  0.40328977  1
  P  P6  1  0.70693619  0.96832053  0.90328977  1
  P  P7  1  0.20693619  0.03167947  0.59671023  1
  Pb  Pb0  1  0.01250501  0.28406066  0.38761918  1
  Pb  Pb1  1  0.51250501  0.71593934  0.11238082  1
  Pb  Pb2  1  0.98749499  0.71593934  0.61238082  1
  Pb  Pb3  1  0.48749499  0.28406066  0.88761918  1
  Pb  Pb4  1  0.49677755  0.31422266  0.41608816  1
  Pb  Pb5  1  0.99677755  0.68577734  0.08391184  1
  Pb  Pb6  1  0.50322245  0.68577734  0.58391184  1
  Pb  Pb7  1  0.00322245  0.31422266  0.91608816  1
  Pb  Pb8  1  0.26979668  0.32729435  0.16735658  1
  Pb  Pb9  1  0.76979668  0.67270565  0.33264342  1
  Pb  Pb10  1  0.73020332  0.67270565  0.83264342  1
  Pb  Pb11  1  0.23020332  0.32729435  0.66735658  1
  Pb  Pb12  1  0.30071978  0.96515208  0.35172187  1
  Pb  Pb13  1  0.80071978  0.03484792  0.14827813  1
  Pb  Pb14  1  0.69928022  0.03484792  0.64827813  1
  Pb  Pb15  1  0.19928022  0.96515208  0.85172187  1
  O  O0  1  0.64508519  0.42760614  0.26636245  1
  O  O1  1  0.14508519  0.57239386  0.23363755  1
  O  O2  1  0.35491481  0.57239386  0.73363755  1
  O  O3  1  0.85491481  0.42760614  0.76636245  1
  O  O4  1  0.92203643  0.29405410  0.21728371  1
  O  O5  1  0.42203643  0.70594590  0.28271629  1
  O  O6  1  0.07796357  0.70594590  0.78271629  1
  O  O7  1  0.57796357  0.29405410  0.71728371  1
  O  O8  1  0.22249186  0.06609127  0.19041195  1
  O  O9  1  0.72249186  0.93390873  0.30958805  1
  O  O10  1  0.77750814  0.93390873  0.80958805  1
  O  O11  1  0.27750814  0.06609127  0.69041195  1
  O  O12  1  0.16921890  0.91941369  0.06841018  1
  O  O13  1  0.66921890  0.08058631  0.43158982  1
  O  O14  1  0.28863239  0.23286269  0.32601389  1
  O  O15  1  0.83078110  0.08058631  0.93158982  1
  O  O16  1  0.75698064  0.49923732  0.09878379  1
  O  O17  1  0.25698064  0.50076268  0.40121621  1
  O  O18  1  0.24301936  0.50076268  0.90121621  1
  O  O19  1  0.74301936  0.49923732  0.59878379  1
  O  O20  1  0.60100149  0.25442717  0.16140063  1
  O  O21  1  0.10100149  0.74557283  0.33859937  1
  O  O22  1  0.39899851  0.74557283  0.83859937  1
  O  O23  1  0.89899851  0.25442717  0.66140063  1
  O  O24  1  0.00601162  0.97144445  0.61062760  1
  O  O25  1  0.50601162  0.02855555  0.88937240  1
  O  O26  1  0.99398838  0.02855555  0.38937240  1
  O  O27  1  0.49398838  0.97144445  0.11062760  1
  O  O28  1  0.21455614  0.17960432  0.52306742  1
  O  O29  1  0.71455614  0.82039568  0.97693258  1
  O  O30  1  0.78544386  0.82039568  0.47693258  1
  O  O31  1  0.28544386  0.17960432  0.02306742  1
  O  O32  1  0.21136761  0.23286269  0.82601389  1
  O  O33  1  0.71136761  0.76713731  0.67398611  1
  O  O34  1  0.78863239  0.76713731  0.17398611  1
  O  O35  1  0.33078110  0.91941369  0.56841018  1
loop_
_geom_bond_atom_site_label_1
_geom_bond_atom_site_label_2
_geom_bond_distance
_geom_bond_site_symmetry_2
O0 P0 1.551985 1_555
O0 Pb4 2.420371 1_555
O1 P1 1.551985 1_555
O1 Pb5 2.420371 1_455
O2 P2 1.551985 1_555
O2 Pb6 2.420371 1_555
O3 P3 1.551985 1_555
O3 Pb7 2.420371 1_655
O4 P0 1.545564 1_555
O4 Pb0 2.537921 1_655
O4 Pb8 2.592801 1_655
O5 P1 1.545564 1_555
O5 Pb1 2.537921 1_555
O5 Pb9 2.592801 1_555
O6 P2 1.545564 1_555
O6 Pb2 2.537921 1_455
O6 Pb10 2.592801 1_455
O7 P3 1.545564 1_555
O7 Pb3 2.537921 1_555
O7 Pb11 2.592801 1_555
O8 P4 1.561337 1_555
O8 Pb12 2.368872 1_545
O8 Pb8 2.440062 1_555
O9 P5 1.561337 1_555
O9 Pb13 2.368872 1_565
O9 Pb9 2.440062 1_555
O10 P6 1.561337 1_555
O10 Pb14 2.368872 1_565
O10 Pb10 2.440062 1_555
O11 P7 1.561337 1_555
O11 Pb15 2.368872 1_545
O11 Pb11 2.440062 1_555
O12 P4 1.519410 1_565
O12 Pb5 2.498294 1_455
O13 P5 1.519410 1_545
O13 Pb4 2.498294 1_555
O14 Pb4 2.244173 1_555
O14 Pb8 2.260737 1_555
O14 Pb0 2.273551 1_555
O14 Pb12 2.474792 1_545
O15 P6 1.519410 1_545
O15 Pb7 2.498294 1_655
O16 P0 1.539689 1_555
O16 Pb5 2.437357 1_555
O16 Pb1 2.745144 1_555
O17 P1 1.539689 1_555
O17 Pb4 2.437357 1_555
O17 Pb0 2.745144 1_555
O18 P2 1.539689 1_555
O18 Pb7 2.437357 1_555
O18 Pb3 2.745144 1_555
O19 P3 1.539689 1_555
O19 Pb6 2.437357 1_555
O19 Pb2 2.745144 1_555
O20 P0 1.546784 1_555
O20 Pb8 2.479552 1_555
O20 Pb13 2.573073 1_555
O21 P1 1.546784 1_555
O21 Pb9 2.479552 1_455
O21 Pb12 2.573073 1_555
O22 P2 1.546784 1_555
O22 Pb10 2.479552 1_555
O22 Pb15 2.573073 1_555
O23 P3 1.546784 1_555
O23 Pb11 2.479552 1_655
O23 Pb14 2.573073 1_555
O24 P7 1.543723 1_565
O24 Pb14 2.378267 1_465
O24 Pb2 2.421154 1_455
O25 P6 1.543723 1_545
O25 Pb15 2.378267 1_545
O25 Pb3 2.421154 1_555
O26 P5 1.543723 1_545
O26 Pb12 2.378267 1_645
O26 Pb0 2.421154 1_655
O27 P4 1.543723 1_565
O27 Pb13 2.378267 1_565
O27 Pb1 2.421154 1_555
O28 P7 1.539827 1_555
O28 Pb0 2.446205 1_555
O28 Pb4 2.674210 1_555
O29 P6 1.539827 1_555
O29 Pb1 2.446205 1_556
O29 Pb5 2.674210 1_556
O30 P5 1.539827 1_555
O30 Pb2 2.446205 1_555
O30 Pb6 2.674210 1_555
O31 P4 1.539827 1_555
O31 Pb3 2.446205 1_554
O31 Pb7 2.674210 1_554
O32 Pb7 2.244173 1_555
O32 Pb11 2.260737 1_555
O32 Pb3 2.273551 1_555
O32 Pb15 2.474792 1_545
O33 Pb6 2.244173 1_555
O33 Pb10 2.260737 1_555
O33 Pb2 2.273551 1_555
O33 Pb14 2.474792 1_565
O34 Pb5 2.244173 1_555
O34 Pb9 2.260737 1_555
O34 Pb1 2.273551 1_555
O34 Pb13 2.474792 1_565
O35 P7 1.519410 1_565
O35 Pb6 2.498294 1_555
