# generated using pymatgen
data_Sr2LiBrO6
_symmetry_space_group_name_H-M   'P 1'
_cell_length_a   5.47148146
_cell_length_b   5.47148146
_cell_length_c   5.47148155
_cell_angle_alpha   59.99999943
_cell_angle_beta   59.99999943
_cell_angle_gamma   59.99999962
_symmetry_Int_Tables_number   1
_chemical_formula_structural   Sr2LiBrO6
_chemical_formula_sum   'Sr2 Li1 Br1 O6'
_cell_volume   115.82433100
_cell_formula_units_Z   1
loop_
 _symmetry_equiv_pos_site_id
 _symmetry_equiv_pos_as_xyz
  1  'x, y, z'
loop_
 _atom_site_type_symbol
 _atom_site_label
 _atom_site_symmetry_multiplicity
 _atom_site_fract_x
 _atom_site_fract_y
 _atom_site_fract_z
 _atom_site_occupancy
  Sr  Sr0  1  0.25000000  0.25000000  0.25000000  1
  Sr  Sr1  1  0.75000000  0.75000000  0.75000000  1
  Li  Li0  1  0.50000000  0.50000000  0.50000000  1
  Br  Br0  1  0.00000000  0.00000000  0.00000000  1
  O  O0  1  0.76864021  0.23135979  0.23135979  1
  O  O1  1  0.23135979  0.76864021  0.76864021  1
  O  O2  1  0.23135979  0.76864021  0.23135979  1
  O  O3  1  0.76864021  0.23135979  0.76864021  1
  O  O4  1  0.23135979  0.23135979  0.76864021  1
  O  O5  1  0.76864021  0.76864021  0.23135979  1
loop_
_geom_bond_atom_site_label_1
_geom_bond_atom_site_label_2
_geom_bond_distance
_geom_bond_site_symmetry_2
Li0 O4 2.078696 1_555
Li0 O5 2.078696 1_555
Li0 O3 2.078696 1_555
Li0 O1 2.078696 1_555
Li0 O0 2.078696 1_555
Li0 O2 2.078696 1_555
Br0 O5 1.790226 1_445
Br0 O4 1.790226 1_554
Br0 O0 1.790226 1_455
Br0 O2 1.790226 1_545
Br0 O3 1.790226 1_454
Br0 O1 1.790226 1_544
O0 Sr1 2.739540 1_554
O0 Sr0 2.739540 1_555
O0 Sr1 2.739540 1_545
O0 Sr0 2.739540 1_655
O1 Sr0 2.739540 1_556
O1 Sr1 2.739540 1_555
O1 Sr0 2.739540 1_565
O1 Sr1 2.739540 1_455
O2 Sr0 2.739540 1_555
O2 Sr1 2.739540 1_554
O2 Sr0 2.739540 1_565
O2 Sr1 2.739540 1_455
O3 Sr1 2.739540 1_555
O3 Sr0 2.739540 1_556
O3 Sr1 2.739540 1_545
O3 Sr0 2.739540 1_655
O4 Sr1 2.739540 1_455
O4 Sr1 2.739540 1_545
O4 Sr0 2.739540 1_556
O4 Sr0 2.739540 1_555
O5 Sr0 2.739540 1_655
O5 Sr0 2.739540 1_565
O5 Sr1 2.739540 1_555
O5 Sr1 2.739540 1_554
