# generated using pymatgen
data_Mg3FeP7N12
_symmetry_space_group_name_H-M   'P 1'
_cell_length_a   7.16609836
_cell_length_b   7.16609957
_cell_length_c   7.16609852
_cell_angle_alpha   109.52341050
_cell_angle_beta   109.52341996
_cell_angle_gamma   109.52339675
_symmetry_Int_Tables_number   1
_chemical_formula_structural   Mg3FeP7N12
_chemical_formula_sum   'Mg3 Fe1 P7 N12'
_cell_volume   282.73819798
_cell_formula_units_Z   1
loop_
 _symmetry_equiv_pos_site_id
 _symmetry_equiv_pos_as_xyz
  1  'x, y, z'
loop_
 _atom_site_type_symbol
 _atom_site_label
 _atom_site_symmetry_multiplicity
 _atom_site_fract_x
 _atom_site_fract_y
 _atom_site_fract_z
 _atom_site_occupancy
  Mg  Mg0  1  0.99983911  0.66099872  0.99983911  1
  Mg  Mg1  1  0.66099872  0.99983911  0.99983911  1
  Mg  Mg2  1  0.99983911  0.99983911  0.66099872  1
  Fe  Fe0  1  0.34291274  0.34291274  0.34291274  1
  P  P0  1  0.49730314  0.24844665  0.74872771  1
  P  P1  1  0.49730314  0.74872771  0.24844665  1
  P  P2  1  0.74872771  0.24844665  0.49730314  1
  P  P3  1  0.24844665  0.49730314  0.74872771  1
  P  P4  1  0.74872771  0.49730314  0.24844665  1
  P  P5  1  0.24844665  0.74872771  0.49730314  1
  P  P6  1  0.02811521  0.02811521  0.02811521  1
  N  N0  1  0.99861718  0.72164753  0.43908698  1
  N  N1  1  0.27239298  0.70954738  0.27239298  1
  N  N2  1  0.28762613  0.55933763  0.55933763  1
  N  N3  1  0.55933763  0.55933763  0.28762613  1
  N  N4  1  0.55933763  0.28762613  0.55933763  1
  N  N5  1  0.72164753  0.99861718  0.43908698  1
  N  N6  1  0.43908698  0.99861718  0.72164753  1
  N  N7  1  0.72164753  0.43908698  0.99861718  1
  N  N8  1  0.27239298  0.27239298  0.70954738  1
  N  N9  1  0.70954738  0.27239298  0.27239298  1
  N  N10  1  0.99861718  0.43908698  0.72164753  1
  N  N11  1  0.43908698  0.72164753  0.99861718  1
loop_
_geom_bond_atom_site_label_1
_geom_bond_atom_site_label_2
_geom_bond_distance
_geom_bond_site_symmetry_2
Mg0 N1 2.071840 1_656
Mg0 N10 2.088846 1_555
Mg0 N7 2.088847 1_555
Mg0 P6 2.502629 1_666
Mg1 N9 2.071841 1_566
Mg1 N6 2.088846 1_555
Mg1 N11 2.088847 1_555
Mg1 P6 2.502628 1_666
Mg2 N8 2.071841 1_665
Mg2 N5 2.088846 1_555
Mg2 N0 2.088846 1_555
Mg2 P6 2.502628 1_666
Fe0 N4 2.044839 1_555
Fe0 N2 2.044840 1_555
Fe0 N3 2.044840 1_555
Fe0 P6 2.250052 1_555
N0 P4 1.621837 1_555
N0 P5 1.622145 1_655
N1 P5 1.618811 1_555
N1 P1 1.618811 1_555
N2 P3 1.641015 1_555
N2 P5 1.641015 1_555
N3 P4 1.641015 1_555
N3 P1 1.641015 1_555
N4 P2 1.641015 1_555
N4 P0 1.641015 1_555
N5 P1 1.621837 1_555
N5 P2 1.622145 1_565
N6 P5 1.621837 1_555
N6 P0 1.622145 1_565
N7 P0 1.621837 1_555
N7 P4 1.622145 1_556
N8 P0 1.618811 1_555
N8 P3 1.618811 1_555
N9 P2 1.618811 1_555
N9 P4 1.618811 1_555
N10 P2 1.621837 1_555
N10 P3 1.622145 1_655
N11 P3 1.621837 1_555
N11 P1 1.622145 1_556
