# generated using pymatgen
data_Ba8Ta(SbO6)3
_symmetry_space_group_name_H-M   'P 1'
_cell_length_a   6.12417740
_cell_length_b   6.12415513
_cell_length_c   16.55741958
_cell_angle_alpha   89.99980508
_cell_angle_beta   90.00038077
_cell_angle_gamma   119.99986749
_symmetry_Int_Tables_number   1
_chemical_formula_structural   Ba8Ta(SbO6)3
_chemical_formula_sum   'Ba8 Ta1 Sb3 O18'
_cell_volume   537.79630203
_cell_formula_units_Z   1
loop_
 _symmetry_equiv_pos_site_id
 _symmetry_equiv_pos_as_xyz
  1  'x, y, z'
loop_
 _atom_site_type_symbol
 _atom_site_label
 _atom_site_symmetry_multiplicity
 _atom_site_fract_x
 _atom_site_fract_y
 _atom_site_fract_z
 _atom_site_occupancy
  Ba  Ba0  1  0.99999391  0.99999738  0.75183638  1
  Ba  Ba1  1  0.00000577  0.00000268  0.24322582  1
  Ba  Ba2  1  0.66666051  0.33333756  0.62956643  1
  Ba  Ba3  1  0.33333999  0.66666137  0.12391307  1
  Ba  Ba4  1  0.33333407  0.66667264  0.36443004  1
  Ba  Ba5  1  0.66666772  0.33333336  0.87750328  1
  Ba  Ba6  1  0.99999331  0.00000340  0.50122213  1
  Ba  Ba7  1  0.00000358  0.99999662  0.00067129  1
  Ta  Ta0  1  0.66667204  0.33332107  0.34260520  1
  Sb  Sb0  1  0.33333948  0.66665315  0.83833456  1
  Sb  Sb1  1  0.33331981  0.66667023  0.66212101  1
  Sb  Sb2  1  0.66666385  0.33333654  0.16362130  1
  O  O0  1  0.51839897  0.94941806  0.75047791  1
  O  O1  1  0.05057351  0.56897269  0.75047701  1
  O  O2  1  0.43101573  0.48159594  0.75047512  1
  O  O3  1  0.47954081  0.04796394  0.24901289  1
  O  O4  1  0.95204498  0.43158193  0.24901324  1
  O  O5  1  0.56842664  0.52046426  0.24901074  1
  O  O6  1  0.11271287  0.35255960  0.60835074  1
  O  O7  1  0.64743382  0.76017970  0.60835055  1
  O  O8  1  0.23981505  0.88727851  0.60835658  1
  O  O9  1  0.88297394  0.64657001  0.10753476  1
  O  O10  1  0.35343826  0.23639792  0.10753486  1
  O  O11  1  0.76361006  0.11703686  0.10753547  1
  O  O12  1  0.89119098  0.64206125  0.39240486  1
  O  O13  1  0.35795225  0.24914293  0.39240638  1
  O  O14  1  0.75087162  0.10881742  0.39240543  1
  O  O15  1  0.11404659  0.35301394  0.89253183  1
  O  O16  1  0.64698062  0.76101187  0.89253372  1
  O  O17  1  0.23898124  0.88594519  0.89253740  1
loop_
_geom_bond_atom_site_label_1
_geom_bond_atom_site_label_2
_geom_bond_distance
_geom_bond_site_symmetry_2
Ba0 O0 2.807432 1_555
Ba0 O2 2.807459 1_665
Ba0 O1 2.807477 1_655
Ba0 O15 3.013069 1_665
Ba0 O16 3.013111 1_555
Ba0 O17 3.013215 1_655
Ba0 O8 3.048160 1_655
Ba0 O7 3.048279 1_555
Ba0 O6 3.048302 1_665
Ba0 O1 3.340479 1_665
Ba0 O2 3.340518 1_555
Ba0 O0 3.340546 1_655
Ba1 O3 2.803107 1_555
Ba1 O4 2.803129 1_455
Ba1 O5 2.803131 1_445
Ba1 O11 2.948693 1_455
Ba1 O9 2.948724 1_445
Ba1 O10 2.948728 1_555
Ba1 O12 3.144761 1_445
Ba1 O13 3.144807 1_555
Ba1 O14 3.144810 1_455
Ba1 O4 3.345299 1_445
Ba1 O5 3.345316 1_555
Ba1 O3 3.345342 1_455
Ba2 O6 2.697758 1_655
Ba2 O8 2.697806 1_545
Ba2 O7 2.697832 1_555
Ba2 O2 2.867945 1_555
Ba2 O1 2.867983 1_655
Ba2 O0 2.868030 1_545
Ba3 O10 2.712241 1_555
Ba3 O9 2.712294 1_455
Ba3 O11 2.712313 1_565
Ba3 O5 2.907511 1_555
Ba3 O4 2.907596 1_455
Ba3 O3 2.907618 1_565
Ba4 O13 2.676030 1_555
Ba4 O12 2.676030 1_455
Ba4 O14 2.676048 1_565
Ba4 O4 2.795614 1_455
Ba4 O3 2.795621 1_565
Ba4 O5 2.795696 1_555
Ba5 O16 2.693011 1_555
Ba5 O15 2.693115 1_655
Ba5 O17 2.693122 1_545
Ba5 O1 2.939554 1_655
Ba5 O0 2.939568 1_545
Ba5 O2 2.939592 1_555
Ba6 O6 2.606551 1_655
Ba6 O7 2.606559 1_545
Ba6 O8 2.606563 1_645
Ba6 O14 2.652280 1_555
Ba6 O12 2.652334 1_545
Ba6 O13 2.652382 1_655
Ba7 O9 2.603442 1_455
Ba7 O10 2.603475 1_565
Ba7 O11 2.603483 1_465
Ba7 O17 2.618719 1_554
Ba7 O15 2.618727 1_564
Ba7 O16 2.618735 1_454
O0 Sb0 2.106356 1_555
O0 Sb1 2.112040 1_555
O1 Sb0 2.106385 1_555
O1 Sb1 2.112011 1_555
O2 Sb0 2.106282 1_555
O2 Sb1 2.112073 1_555
O3 Sb2 2.088980 1_555
O3 Ta0 2.183123 1_555
O4 Sb2 2.089019 1_555
O4 Ta0 2.183168 1_555
O5 Sb2 2.088936 1_555
O5 Ta0 2.183255 1_555
O6 Sb1 1.928593 1_555
O7 Sb1 1.928615 1_555
O8 Sb1 1.928554 1_555
O9 Sb2 1.938021 1_555
O10 Sb2 1.937960 1_555
O11 Sb2 1.938053 1_555
O12 Ta0 1.883009 1_555
O13 Ta0 1.882981 1_555
O14 Ta0 1.882842 1_555
O15 Sb0 1.928393 1_555
O16 Sb0 1.928399 1_555
O17 Sb0 1.928478 1_555
