# generated using pymatgen
data_Sb2IrRhS2
_symmetry_space_group_name_H-M   'P 1'
_cell_length_a   6.07219749
_cell_length_b   6.07141767
_cell_length_c   6.07165726
_cell_angle_alpha   90.09761775
_cell_angle_beta   90.00000000
_cell_angle_gamma   90.00000000
_symmetry_Int_Tables_number   1
_chemical_formula_structural   Sb2IrRhS2
_chemical_formula_sum   'Sb4 Ir2 Rh2 S4'
_cell_volume   223.84253529
_cell_formula_units_Z   2
loop_
 _symmetry_equiv_pos_site_id
 _symmetry_equiv_pos_as_xyz
  1  'x, y, z'
loop_
 _atom_site_type_symbol
 _atom_site_label
 _atom_site_symmetry_multiplicity
 _atom_site_fract_x
 _atom_site_fract_y
 _atom_site_fract_z
 _atom_site_occupancy
  Sb  Sb0  1  0.87858786  0.37813132  0.11923106  1
  Sb  Sb1  1  0.37858786  0.12186868  0.88076894  1
  Sb  Sb2  1  0.12137633  0.87911797  0.37631976  1
  Sb  Sb3  1  0.62137633  0.62088203  0.62368024  1
  Ir  Ir0  1  0.51110736  0.01165316  0.49029498  1
  Ir  Ir1  1  0.01110736  0.48834684  0.50970502  1
  Rh  Rh0  1  0.48847098  0.51098687  0.01282028  1
  Rh  Rh1  1  0.98847098  0.98901313  0.98717972  1
  S  S0  1  0.11737514  0.61493944  0.88002330  1
  S  S1  1  0.61737514  0.88506056  0.11997670  1
  S  S2  1  0.88308332  0.11882773  0.61452813  1
  S  S3  1  0.38308332  0.38117227  0.38547187  1
loop_
_geom_bond_atom_site_label_1
_geom_bond_atom_site_label_2
_geom_bond_distance
_geom_bond_site_symmetry_2
Ir0 S3 2.459183 1_555
Ir0 S1 2.461045 1_545
Ir0 S2 2.468297 1_555
Ir0 Sb1 2.590502 1_555
Ir0 Sb2 2.593247 1_545
Ir0 Sb3 2.596091 1_545
Ir1 S2 2.459183 1_455
Ir1 S0 2.461045 1_555
Ir1 S3 2.468297 1_555
Ir1 Sb0 2.590502 1_455
Ir1 Sb3 2.593247 1_455
Ir1 Sb2 2.596091 1_555
Rh0 S0 2.475450 1_554
Rh0 S3 2.481170 1_555
Rh0 S1 2.487789 1_555
Rh0 Sb1 2.581275 1_554
Rh0 Sb0 2.584836 1_555
Rh0 Sb3 2.585404 1_554
Rh1 S1 2.475450 1_556
Rh1 S2 2.481170 1_565
Rh1 S0 2.487789 1_655
Rh1 Sb0 2.581275 1_566
Rh1 Sb1 2.584836 1_665
Rh1 Sb2 2.585404 1_656
S0 Sb0 2.507209 1_456
S1 Sb1 2.507209 1_564
S2 Sb2 2.509281 1_645
S3 Sb3 2.509281 1_555
