# generated using pymatgen
data_Ti4InRe17Tc7
_symmetry_space_group_name_H-M   'P 1'
_cell_length_a   8.33547889
_cell_length_b   8.33547767
_cell_length_c   8.31983709
_cell_angle_alpha   109.49676600
_cell_angle_beta   109.49676804
_cell_angle_gamma   109.59141507
_symmetry_Int_Tables_number   1
_chemical_formula_structural   Ti4InRe17Tc7
_chemical_formula_sum   'Ti4 In1 Re17 Tc7'
_cell_volume   444.05034838
_cell_formula_units_Z   1
loop_
 _symmetry_equiv_pos_site_id
 _symmetry_equiv_pos_as_xyz
  1  'x, y, z'
loop_
 _atom_site_type_symbol
 _atom_site_label
 _atom_site_symmetry_multiplicity
 _atom_site_fract_x
 _atom_site_fract_y
 _atom_site_fract_z
 _atom_site_occupancy
  Ti  Ti0  1  0.63169759  0.99940435  0.99964632  1
  Ti  Ti1  1  0.99940435  0.63169759  0.99964632  1
  Ti  Ti2  1  0.00066295  0.00066295  0.63302734  1
  Ti  Ti3  1  0.36700139  0.36700139  0.36753044  1
  In  In0  1  0.99911790  0.99911790  0.99957135  1
  Re  Re0  1  0.00096389  0.68057105  0.39877627  1
  Re  Re1  1  0.68057105  0.00096389  0.39877627  1
  Re  Re2  1  0.60050257  0.60050257  0.28007129  1
  Re  Re3  1  0.28114260  0.60215402  0.60151868  1
  Re  Re4  1  0.60215402  0.28114260  0.60151868  1
  Re  Re5  1  0.37796800  0.19515672  0.00086105  1
  Re  Re6  1  0.18165098  0.80602158  0.80503082  1
  Re  Re7  1  0.37662516  0.00078875  0.19466147  1
  Re  Re8  1  0.19515672  0.37796800  0.00086105  1
  Re  Re9  1  0.00078875  0.37662516  0.19466147  1
  Re  Re10  1  0.80602158  0.18165098  0.80503082  1
  Re  Re11  1  0.80563485  0.80563485  0.18248153  1
  Re  Re12  1  0.00115639  0.19458694  0.37868174  1
  Re  Re13  1  0.19458694  0.00115639  0.37868174  1
  Re  Re14  1  0.62099807  0.62099807  0.81518559  1
  Re  Re15  1  0.81504888  0.62151808  0.62109719  1
  Re  Re16  1  0.62151808  0.81504888  0.62109719  1
  Tc  Tc0  1  0.39833240  0.68136499  0.00038654  1
  Tc  Tc1  1  0.71921460  0.31910088  0.31845637  1
  Tc  Tc2  1  0.40026937  0.00201614  0.68224405  1
  Tc  Tc3  1  0.68136499  0.39833240  0.00038654  1
  Tc  Tc4  1  0.00201614  0.40026937  0.68224405  1
  Tc  Tc5  1  0.31910088  0.71921460  0.31845637  1
  Tc  Tc6  1  0.31932792  0.31932792  0.71941347  1
loop_
_geom_bond_atom_site_label_1
_geom_bond_atom_site_label_2
_geom_bond_distance
_geom_bond_site_symmetry_2
In0 Re11 3.008339 1_556
In0 Re10 3.012056 1_565
In0 Re6 3.012056 1_655
In0 Re9 3.013751 1_666
In0 Re7 3.013751 1_666
In0 Re15 3.016096 1_555
In0 Re16 3.016096 1_555
In0 Re14 3.017347 1_555
In0 Re13 3.019741 1_666
In0 Re12 3.019741 1_666
In0 Re8 3.024524 1_666
In0 Re5 3.024524 1_666
In0 Ti3 3.056127 1_666
In0 Ti2 3.058207 1_665
In0 Ti1 3.063633 1_555
In0 Ti0 3.063634 1_555
Re0 Re9 2.535081 1_555
Re0 Re13 2.712864 1_565
Re0 Re11 2.722258 1_455
Re0 Ti2 2.730187 1_565
Re0 Re3 2.803004 1_555
Re0 Tc1 2.811304 1_455
Re0 Re6 2.823581 1_555
Re0 Re15 2.841598 1_455
Re0 Tc3 2.883691 1_455
Re0 Tc5 2.887249 1_555
Re0 Tc2 2.895003 1_565
Re0 Re2 2.903227 1_455
Re0 Ti1 3.202778 1_454
Re1 Re7 2.535081 1_555
Re1 Re12 2.712864 1_655
Re1 Re11 2.722258 1_545
Re1 Ti2 2.730188 1_655
Re1 Re4 2.803004 1_555
Re1 Tc5 2.811304 1_545
Re1 Re10 2.823581 1_555
Re1 Re16 2.841598 1_545
Re1 Tc0 2.883691 1_545
Re1 Tc1 2.887248 1_555
Re1 Tc4 2.895003 1_655
Re1 Re2 2.903227 1_545
Re1 Ti0 3.202778 1_544
Re2 Ti3 2.730606 1_555
Re2 Tc0 2.810681 1_555
Re2 Tc3 2.810681 1_555
Re2 Re5 2.816838 1_555
Re2 Re8 2.816838 1_555
Re2 Tc1 2.903220 1_555
Re2 Tc5 2.903220 1_555
Re2 Ti2 3.215159 1_665
Re3 Re6 2.530642 1_555
Re3 Ti3 2.732705 1_555
Re3 Tc4 2.805001 1_555
Re3 Re9 2.824754 1_555
Re3 Tc0 2.888561 1_556
Re3 Tc2 2.896088 1_565
Re3 Tc5 2.902174 1_555
Re3 Tc6 2.908525 1_555
Re3 Ti0 3.194347 1_555
Re4 Ti3 2.732705 1_555
Re4 Tc2 2.805000 1_555
Re4 Re7 2.824754 1_555
Re4 Tc3 2.888561 1_556
Re4 Tc4 2.896089 1_655
Re4 Tc1 2.902175 1_555
Re4 Tc6 2.908526 1_555
Re4 Ti1 3.194347 1_555
Re5 Re8 2.490231 1_555
Re5 Tc3 2.530356 1_555
Re5 Re7 2.639778 1_555
Re5 Re6 2.643218 1_544
Re5 Tc1 2.707448 1_555
Re5 Tc2 2.708192 1_554
Re5 Tc6 2.826011 1_554
Re5 Ti3 2.953575 1_555
Re5 Ti2 2.954542 1_554
Re5 Ti0 3.074589 1_544
Re6 Re7 2.643165 1_566
Re6 Tc2 2.719098 1_565
Re6 Tc0 2.722107 1_556
Re6 Tc4 2.828602 1_555
Re6 Ti2 2.950633 1_565
Re6 Ti1 2.961905 1_455
Re6 Ti0 3.072591 1_555
Re7 Tc0 2.716631 1_545
Re7 Tc1 2.717876 1_555
Re7 Tc5 2.826292 1_545
Re7 Ti3 2.950210 1_555
Re7 Ti1 2.959673 1_444
Re7 Ti0 3.075674 1_544
Re8 Tc0 2.530356 1_555
Re8 Re9 2.639778 1_555
Re8 Tc5 2.707448 1_555
Re8 Tc4 2.708192 1_554
Re8 Tc6 2.826011 1_554
Re8 Ti3 2.953575 1_555
Re8 Ti2 2.954542 1_554
Re8 Ti1 3.074589 1_454
Re9 Tc3 2.716631 1_455
Re9 Tc5 2.717876 1_555
Re9 Tc1 2.826292 1_455
Re9 Ti3 2.950211 1_555
Re9 Ti0 2.959673 1_444
Re9 Ti1 3.075674 1_454
Re10 Re16 2.490158 1_545
Re10 Re4 2.530642 1_555
Re10 Re9 2.643165 1_656
Re10 Re8 2.643219 1_656
Re10 Tc4 2.719098 1_655
Re10 Tc3 2.722107 1_556
Re10 Tc2 2.828602 1_555
Re10 Ti2 2.950634 1_655
Re10 Ti0 2.961905 1_545
Re10 Ti1 3.072590 1_555
Re11 Re14 2.491654 1_554
Re11 Re2 2.529685 1_555
Re11 Re12 2.641977 1_665
Re11 Re13 2.641977 1_665
Re11 Tc3 2.838197 1_555
Re11 Tc0 2.838198 1_555
Re11 Ti0 2.960239 1_554
Re11 Ti1 2.960239 1_554
Re11 Ti2 3.070673 1_665
Re12 Re9 2.489407 1_555
Re12 Tc4 2.531281 1_555
Re12 Re13 2.634885 1_555
Re12 Tc6 2.704764 1_555
Re12 Re3 2.831220 1_555
Re12 Tc1 2.836931 1_455
Re12 Ti3 2.951648 1_555
Re12 Ti0 2.967878 1_444
Re12 Ti2 3.061941 1_555
Re13 Re7 2.489408 1_555
Re13 Tc2 2.531281 1_555
Re13 Tc6 2.704764 1_555
Re13 Re4 2.831221 1_555
Re13 Tc5 2.836931 1_545
Re13 Ti3 2.951648 1_555
Re13 Ti1 2.967878 1_444
Re13 Ti2 3.061941 1_555
Re14 Tc6 2.523043 1_555
Re14 Re16 2.639568 1_555
Re14 Re15 2.639568 1_555
Re14 Re4 2.713594 1_555
Re14 Re3 2.713594 1_555
Re14 Tc3 2.844285 1_556
Re14 Tc0 2.844285 1_556
Re14 Ti0 2.966640 1_555
Re14 Ti1 2.966640 1_555
Re14 Ti3 3.050119 1_555
Re15 Re6 2.490159 1_655
Re15 Tc1 2.530346 1_555
Re15 Re16 2.636251 1_555
Re15 Re4 2.710614 1_555
Re15 Re2 2.711128 1_555
Re15 Tc4 2.848373 1_655
Re15 Ti1 2.965023 1_555
Re15 Ti2 2.966558 1_665
Re15 Ti3 3.056001 1_555
Re16 Tc5 2.530346 1_555
Re16 Re3 2.710615 1_555
Re16 Re2 2.711128 1_555
Re16 Tc2 2.848373 1_565
Re16 Ti0 2.965023 1_555
Re16 Ti2 2.966558 1_665
Re16 Ti3 3.056001 1_555
Tc0 Ti0 2.715215 1_554
Tc0 Tc6 2.817072 1_554
Tc0 Tc4 2.870850 1_554
Tc0 Tc5 2.878818 1_555
Tc0 Ti1 3.207830 1_454
Tc1 Ti0 2.712105 1_544
Tc1 Tc4 2.824229 1_655
Tc1 Tc3 2.878818 1_555
Tc1 Ti3 3.228444 1_555
Tc2 Ti0 2.713191 1_545
Tc2 Tc5 2.824229 1_545
Tc2 Tc3 2.870850 1_556
Tc2 Tc6 2.887315 1_555
Tc2 Ti2 3.213107 1_555
Tc3 Ti1 2.715215 1_554
Tc3 Tc6 2.817073 1_554
Tc3 Ti0 3.207830 1_544
Tc4 Ti1 2.713191 1_455
Tc4 Tc6 2.887316 1_555
Tc4 Ti2 3.213106 1_555
Tc5 Ti1 2.712106 1_454
Tc5 Ti3 3.228443 1_555
Tc6 Ti2 2.710606 1_555
Tc6 Ti3 3.214646 1_555
