# generated using pymatgen
data_Sn3OsPb4O13
_symmetry_space_group_name_H-M   'P 1'
_cell_length_a   7.51774381
_cell_length_b   7.51774901
_cell_length_c   7.51773252
_cell_angle_alpha   59.61798036
_cell_angle_beta   59.61802332
_cell_angle_gamma   59.61823908
_symmetry_Int_Tables_number   1
_chemical_formula_structural   Sn3OsPb4O13
_chemical_formula_sum   'Sn3 Os1 Pb4 O13'
_cell_volume   297.82506922
_cell_formula_units_Z   1
loop_
 _symmetry_equiv_pos_site_id
 _symmetry_equiv_pos_as_xyz
  1  'x, y, z'
loop_
 _atom_site_type_symbol
 _atom_site_label
 _atom_site_symmetry_multiplicity
 _atom_site_fract_x
 _atom_site_fract_y
 _atom_site_fract_z
 _atom_site_occupancy
  Sn  Sn0  1  0.99988132  0.49964255  0.49964006  1
  Sn  Sn1  1  0.49964337  0.99987951  0.49964192  1
  Sn  Sn2  1  0.49964169  0.49964520  0.99987815  1
  Os  Os0  1  0.49925289  0.49925233  0.49925722  1
  Pb  Pb0  1  0.50228954  0.99906924  0.99907801  1
  Pb  Pb1  1  0.99905576  0.50228893  0.99908113  1
  Pb  Pb2  1  0.99907876  0.99907199  0.50229305  1
  Pb  Pb3  1  0.99882223  0.99882236  0.99882783  1
  O  O0  1  0.82954683  0.82954582  0.42649563  1
  O  O1  1  0.42897767  0.42897558  0.80881995  1
  O  O2  1  0.82954734  0.42650011  0.82954627  1
  O  O3  1  0.42897256  0.80882550  0.42897099  1
  O  O4  1  0.42649912  0.82954945  0.82954670  1
  O  O5  1  0.80882711  0.42897185  0.42896940  1
  O  O6  1  0.17332033  0.17331788  0.57045736  1
  O  O7  1  0.56826227  0.56826650  0.19359159  1
  O  O8  1  0.17331947  0.57046820  0.17331536  1
  O  O9  1  0.56825929  0.19359517  0.56826606  1
  O  O10  1  0.57047061  0.17332223  0.17331787  1
  O  O11  1  0.19359687  0.56825505  0.56826615  1
  O  O12  1  0.12773496  0.12773653  0.12773931  1
loop_
_geom_bond_atom_site_label_1
_geom_bond_atom_site_label_2
_geom_bond_distance
_geom_bond_site_symmetry_2
O0 Sn1 2.052673 1_555
O0 Sn0 2.052674 1_555
O0 Pb2 2.585629 1_555
O0 Pb3 2.633744 1_554
O1 Os0 1.941424 1_555
O1 Sn2 2.111084 1_555
O1 Pb0 2.667318 1_545
O1 Pb1 2.667414 1_455
O2 Sn0 2.052680 1_555
O2 Sn2 2.052680 1_555
O2 Pb1 2.585487 1_555
O2 Pb3 2.633814 1_545
O3 Os0 1.941482 1_555
O3 Sn1 2.111099 1_555
O3 Pb0 2.667217 1_554
O3 Pb2 2.667229 1_455
O4 Sn1 2.052667 1_555
O4 Sn2 2.052672 1_555
O4 Pb0 2.585546 1_555
O4 Pb3 2.633807 1_455
O5 Os0 1.941486 1_555
O5 Sn0 2.111098 1_555
O5 Pb1 2.667184 1_554
O5 Pb2 2.667268 1_545
O6 Sn1 2.036493 1_545
O6 Sn0 2.036504 1_455
O6 Pb2 2.605383 1_445
O6 Pb3 2.647030 1_445
O7 Os0 1.918110 1_555
O7 Sn2 2.107618 1_554
O7 Pb1 2.681654 1_554
O7 Pb0 2.681719 1_554
O8 Sn2 2.036483 1_554
O8 Sn0 2.036491 1_455
O8 Pb1 2.605529 1_454
O8 Pb3 2.646946 1_454
O9 Os0 1.918071 1_555
O9 Sn1 2.107625 1_545
O9 Pb0 2.681774 1_545
O9 Pb2 2.681830 1_545
O10 Sn2 2.036489 1_554
O10 Sn1 2.036492 1_545
O10 Pb0 2.605507 1_544
O10 Pb3 2.646937 1_544
O11 Os0 1.918068 1_555
O11 Sn0 2.107616 1_455
O11 Pb1 2.681801 1_455
O11 Pb2 2.681814 1_455
O12 Pb2 2.288287 1_445
O12 Pb1 2.288291 1_454
O12 Pb0 2.288302 1_544
O12 Pb3 2.380710 1_444
