# generated using pymatgen
data_H4NCl
_symmetry_space_group_name_H-M   'P 1'
_cell_length_a   3.80859593
_cell_length_b   3.80859593
_cell_length_c   3.80859593
_cell_angle_alpha   90.00000000
_cell_angle_beta   90.00000000
_cell_angle_gamma   90.00000000
_symmetry_Int_Tables_number   1
_chemical_formula_structural   H4NCl
_chemical_formula_sum   'H4 N1 Cl1'
_cell_volume   55.24521867
_cell_formula_units_Z   1
loop_
 _symmetry_equiv_pos_site_id
 _symmetry_equiv_pos_as_xyz
  1  'x, y, z'
loop_
 _atom_site_type_symbol
 _atom_site_label
 _atom_site_symmetry_multiplicity
 _atom_site_fract_x
 _atom_site_fract_y
 _atom_site_fract_z
 _atom_site_occupancy
  H  H0  1  0.15673091  0.15673091  0.84326909  1
  H  H1  1  0.15673091  0.84326909  0.15673091  1
  H  H2  1  0.84326909  0.15673091  0.15673091  1
  H  H3  1  0.84326909  0.84326909  0.84326909  1
  N  N0  1  0.00000000  0.00000000  0.00000000  1
  Cl  Cl0  1  0.50000000  0.50000000  0.50000000  1
loop_
_geom_bond_atom_site_label_1
_geom_bond_atom_site_label_2
_geom_bond_distance
_geom_bond_site_symmetry_2
H0 N0 1.033904 1_556
H1 N0 1.033904 1_565
H2 N0 1.033904 1_655
H3 N0 1.033904 1_666
