# generated using pymatgen
data_SrTcNiAs2
_symmetry_space_group_name_H-M   'P 1'
_cell_length_a   6.82711114
_cell_length_b   6.82711109
_cell_length_c   6.82711238
_cell_angle_alpha   146.21716541
_cell_angle_beta   146.21717119
_cell_angle_gamma   48.52430693
_symmetry_Int_Tables_number   1
_chemical_formula_structural   SrTcNiAs2
_chemical_formula_sum   'Sr1 Tc1 Ni1 As2'
_cell_volume   97.96685526
_cell_formula_units_Z   1
loop_
 _symmetry_equiv_pos_site_id
 _symmetry_equiv_pos_as_xyz
  1  'x, y, z'
loop_
 _atom_site_type_symbol
 _atom_site_label
 _atom_site_symmetry_multiplicity
 _atom_site_fract_x
 _atom_site_fract_y
 _atom_site_fract_z
 _atom_site_occupancy
  Sr  Sr0  1  0.00000000  0.00000000  0.00000000  1
  Tc  Tc0  1  0.75000000  0.25000000  0.50000000  1
  Ni  Ni0  1  0.25000000  0.75000000  0.50000000  1
  As  As0  1  0.35862734  0.35862734  1.00000000  1
  As  As1  1  0.64137266  0.64137266  0.00000000  1
loop_
_geom_bond_atom_site_label_1
_geom_bond_atom_site_label_2
_geom_bond_distance
_geom_bond_site_symmetry_2
As0 Tc0 2.400721 1_455
As0 Ni0 2.400722 1_545
As0 Tc0 2.400722 1_556
As0 Ni0 2.400722 1_556
As0 Sr0 3.311643 1_667
As0 Sr0 3.311643 1_566
As0 Sr0 3.311643 1_656
As0 Sr0 3.311644 1_555
As1 Ni0 2.400721 1_655
As1 Tc0 2.400722 1_565
As1 Ni0 2.400722 1_554
As1 Tc0 2.400722 1_554
As1 Sr0 3.311643 1_554
As1 Sr0 3.311643 1_655
As1 Sr0 3.311643 1_565
As1 Sr0 3.311644 1_666
