# generated using pymatgen
data_CsVPbSe4
_symmetry_space_group_name_H-M   'P 1'
_cell_length_a   6.97491238
_cell_length_b   7.28127552
_cell_length_c   18.38679786
_cell_angle_alpha   90.00000000
_cell_angle_beta   90.00000000
_cell_angle_gamma   90.00000000
_symmetry_Int_Tables_number   1
_chemical_formula_structural   CsVPbSe4
_chemical_formula_sum   'Cs4 V4 Pb4 Se16'
_cell_volume   933.79667320
_cell_formula_units_Z   4
loop_
 _symmetry_equiv_pos_site_id
 _symmetry_equiv_pos_as_xyz
  1  'x, y, z'
loop_
 _atom_site_type_symbol
 _atom_site_label
 _atom_site_symmetry_multiplicity
 _atom_site_fract_x
 _atom_site_fract_y
 _atom_site_fract_z
 _atom_site_occupancy
  Cs  Cs0  1  0.96466578  0.75000000  0.71495376  1
  Cs  Cs1  1  0.53533422  0.75000000  0.21495376  1
  Cs  Cs2  1  0.03533422  0.25000000  0.28504624  1
  Cs  Cs3  1  0.46466578  0.25000000  0.78504624  1
  V  V0  1  0.22586374  0.75000000  0.41171949  1
  V  V1  1  0.27413626  0.75000000  0.91171949  1
  V  V2  1  0.77413626  0.25000000  0.58828051  1
  V  V3  1  0.72586374  0.25000000  0.08828051  1
  Pb  Pb0  1  0.71985404  0.75000000  0.47094136  1
  Pb  Pb1  1  0.78014596  0.75000000  0.97094136  1
  Pb  Pb2  1  0.28014596  0.25000000  0.52905864  1
  Pb  Pb3  1  0.21985404  0.25000000  0.02905864  1
  Se  Se0  1  0.96772590  0.75000000  0.33552961  1
  Se  Se1  1  0.53227410  0.75000000  0.83552961  1
  Se  Se2  1  0.03227410  0.25000000  0.66447039  1
  Se  Se3  1  0.46772590  0.25000000  0.16447039  1
  Se  Se4  1  0.58165049  0.00009811  0.60584556  1
  Se  Se5  1  0.91834951  0.49990189  0.10584556  1
  Se  Se6  1  0.41834951  0.50009811  0.39415444  1
  Se  Se7  1  0.08165049  0.99990189  0.89415444  1
  Se  Se8  1  0.41834951  0.99990189  0.39415444  1
  Se  Se9  1  0.08165049  0.50009811  0.89415444  1
  Se  Se10  1  0.58165049  0.49990189  0.60584556  1
  Se  Se11  1  0.91834951  0.00009811  0.10584556  1
  Se  Se12  1  0.12551539  0.75000000  0.52832211  1
  Se  Se13  1  0.37448461  0.75000000  0.02832211  1
  Se  Se14  1  0.87448461  0.25000000  0.47167789  1
  Se  Se15  1  0.62551539  0.25000000  0.97167789  1
loop_
_geom_bond_atom_site_label_1
_geom_bond_atom_site_label_2
_geom_bond_distance
_geom_bond_site_symmetry_2
Cs0 Se12 3.610302 1_655
Cs0 Se1 3.743090 1_555
Cs0 Se2 3.786584 1_665
Cs0 Se2 3.786584 1_655
Cs0 Se4 3.804958 1_565
Cs0 Se10 3.804958 1_555
Cs0 Se7 3.851401 1_655
Cs0 Se9 3.851401 1_655
Cs1 Se13 3.610302 1_555
Cs1 Se0 3.743090 1_555
Cs1 Se3 3.786584 1_565
Cs1 Se3 3.786584 1_555
Cs1 Se11 3.804958 1_565
Cs1 Se5 3.804958 1_555
Cs1 Se8 3.851401 1_555
Cs1 Se6 3.851401 1_555
Cs2 Se14 3.610302 1_455
Cs2 Se3 3.743090 1_555
Cs2 Se0 3.786584 1_455
Cs2 Se0 3.786584 1_445
Cs2 Se6 3.804958 1_555
Cs2 Se8 3.804958 1_545
Cs2 Se5 3.851401 1_455
Cs2 Se11 3.851401 1_455
Cs3 Se15 3.610302 1_555
Cs3 Se2 3.743090 1_555
Cs3 Se1 3.786584 1_555
Cs3 Se1 3.786584 1_545
Cs3 Se9 3.804958 1_555
Cs3 Se7 3.804958 1_545
Cs3 Se10 3.851401 1_555
Cs3 Se4 3.851401 1_555
Pb0 Se12 3.019756 1_655
Pb0 Se0 3.031186 1_555
Pb0 Se8 3.118782 1_555
Pb0 Se6 3.118782 1_555
Pb0 Se4 3.224599 1_565
Pb0 Se10 3.224599 1_555
Pb1 Se13 3.019756 1_556
Pb1 Se1 3.031186 1_555
Pb1 Se7 3.118782 1_655
Pb1 Se9 3.118782 1_655
Pb1 Se11 3.224599 1_566
Pb1 Se5 3.224599 1_556
Pb2 Se14 3.019756 1_455
Pb2 Se2 3.031186 1_555
Pb2 Se10 3.118782 1_555
Pb2 Se4 3.118782 1_555
Pb2 Se6 3.224599 1_555
Pb2 Se8 3.224599 1_545
Pb3 Se15 3.019756 1_554
Pb3 Se3 3.031186 1_555
Pb3 Se5 3.118782 1_455
Pb3 Se11 3.118782 1_455
Pb3 Se9 3.224599 1_554
Pb3 Se7 3.224599 1_544
Se0 V0 2.281282 1_655
Se1 V1 2.281282 1_555
Se2 V2 2.281282 1_455
Se3 V3 2.281282 1_555
Se4 V2 2.284243 1_555
Se5 V3 2.284243 1_555
Se6 V0 2.284243 1_555
Se7 V1 2.284243 1_555
Se8 V0 2.284243 1_555
Se9 V1 2.284243 1_555
Se10 V2 2.284243 1_555
Se11 V3 2.284243 1_555
Se12 V0 2.255306 1_555
Se13 V1 2.255306 1_554
Se14 V2 2.255306 1_555
Se15 V3 2.255306 1_556
