# generated using pymatgen
data_MgTi2(SnIr)2
_symmetry_space_group_name_H-M   'P 1'
_cell_length_a   7.64909039
_cell_length_b   7.64908989
_cell_length_c   7.64909014
_cell_angle_alpha   33.94243394
_cell_angle_beta   33.94244389
_cell_angle_gamma   33.94243155
_symmetry_Int_Tables_number   1
_chemical_formula_structural   MgTi2(SnIr)2
_chemical_formula_sum   'Mg1 Ti2 Sn2 Ir2'
_cell_volume   124.35891048
_cell_formula_units_Z   1
loop_
 _symmetry_equiv_pos_site_id
 _symmetry_equiv_pos_as_xyz
  1  'x, y, z'
loop_
 _atom_site_type_symbol
 _atom_site_label
 _atom_site_symmetry_multiplicity
 _atom_site_fract_x
 _atom_site_fract_y
 _atom_site_fract_z
 _atom_site_occupancy
  Mg  Mg0  1  0.37531109  0.37531109  0.37531109  1
  Ti  Ti0  1  0.75769031  0.75769031  0.75769031  1
  Ti  Ti1  1  0.24489930  0.24489930  0.24489930  1
  Sn  Sn0  1  0.99072912  0.99072912  0.99072912  1
  Sn  Sn1  1  0.50536848  0.50536848  0.50536848  1
  Ir  Ir0  1  0.12238599  0.12238599  0.12238599  1
  Ir  Ir1  1  0.62861571  0.62861571  0.62861571  1
loop_
_geom_bond_atom_site_label_1
_geom_bond_atom_site_label_2
_geom_bond_distance
_geom_bond_site_symmetry_2
Mg0 Ti0 2.787364 1_545
Mg0 Ti0 2.787365 1_455
Mg0 Ti0 2.787365 1_554
Mg0 Sn0 2.805800 1_454
Mg0 Sn0 2.805801 1_544
Mg0 Sn0 2.805801 1_445
Mg0 Sn1 2.809835 1_555
Mg0 Ti1 2.817491 1_555
Sn0 Ti1 3.093815 1_656
Sn0 Ti1 3.093816 1_665
Sn0 Ti1 3.093816 1_566
Sn1 Ti1 3.020714 1_565
Sn1 Ti1 3.020715 1_556
Sn1 Ti1 3.020715 1_655
Sn1 Ti0 3.116068 1_545
Sn1 Ti0 3.116069 1_554
Sn1 Ti0 3.116069 1_455
Ir0 Ti1 2.646848 1_555
Ir0 Ti0 2.665654 1_454
Ir0 Ti0 2.665655 1_544
Ir0 Ti0 2.665655 1_445
Ir0 Sn1 2.792345 1_545
Ir0 Sn1 2.792345 1_455
Ir0 Sn1 2.792345 1_554
Ir0 Sn0 2.844391 1_444
Ir0 Mg0 3.108766 1_545
Ir0 Mg0 3.108767 1_554
Ir0 Mg0 3.108767 1_455
Ir1 Sn0 2.652023 1_545
Ir1 Sn0 2.652023 1_455
Ir1 Sn0 2.652024 1_554
Ir1 Sn1 2.662704 1_555
Ir1 Ti0 2.788602 1_555
Ir1 Ti1 2.798474 1_565
Ir1 Ti1 2.798474 1_655
Ir1 Ti1 2.798475 1_556
Ir1 Mg0 3.104192 1_565
Ir1 Mg0 3.104192 1_556
Ir1 Mg0 3.104192 1_655
