# generated using pymatgen
data_Hf2As3PO14
_symmetry_space_group_name_H-M   'P 1'
_cell_length_a   5.46951027
_cell_length_b   6.94766071
_cell_length_c   8.65700473
_cell_angle_alpha   70.51160927
_cell_angle_beta   88.71282785
_cell_angle_gamma   88.59969912
_symmetry_Int_Tables_number   1
_chemical_formula_structural   Hf2As3PO14
_chemical_formula_sum   'Hf2 As3 P1 O14'
_cell_volume   309.99351458
_cell_formula_units_Z   1
loop_
 _symmetry_equiv_pos_site_id
 _symmetry_equiv_pos_as_xyz
  1  'x, y, z'
loop_
 _atom_site_type_symbol
 _atom_site_label
 _atom_site_symmetry_multiplicity
 _atom_site_fract_x
 _atom_site_fract_y
 _atom_site_fract_z
 _atom_site_occupancy
  Hf  Hf0  1  0.23596662  0.18839939  0.72768439  1
  Hf  Hf1  1  0.76191484  0.80515131  0.26804397  1
  As  As0  1  0.24215359  0.11843563  0.16123234  1
  As  As1  1  0.28787411  0.46239318  0.30949730  1
  As  As2  1  0.72041576  0.54320876  0.68917099  1
  P  P0  1  0.74772864  0.87905336  0.84156230  1
  O  O0  1  0.20911184  0.26847117  0.47680787  1
  O  O1  1  0.99705404  0.95077208  0.76719832  1
  O  O2  1  0.08671435  0.65643220  0.25732825  1
  O  O3  1  0.29038051  0.37211636  0.14376579  1
  O  O4  1  0.27800561  0.11912693  0.97058159  1
  O  O5  1  0.45540479  0.97168808  0.28268494  1
  O  O6  1  0.44363159  0.44804206  0.68771098  1
  O  O7  1  0.57233809  0.53992711  0.31519046  1
  O  O8  1  0.54192018  0.00677242  0.73958578  1
  O  O9  1  0.72856463  0.86422822  0.01988552  1
  O  O10  1  0.71541886  0.64988401  0.84628576  1
  O  O11  1  0.93463154  0.36015239  0.74590017  1
  O  O12  1  0.95719368  0.06496252  0.23293984  1
  O  O13  1  0.79357973  0.73078181  0.51694145  1
loop_
_geom_bond_atom_site_label_1
_geom_bond_atom_site_label_2
_geom_bond_distance
_geom_bond_site_symmetry_2
Hf0 O4 2.011758 1_555
Hf0 O11 2.045229 1_455
Hf0 O8 2.054526 1_555
Hf0 O0 2.062067 1_555
Hf0 O1 2.063676 1_445
Hf0 O6 2.080843 1_555
Hf1 O5 2.039320 1_555
Hf1 O2 2.049141 1_655
Hf1 O12 2.050632 1_565
Hf1 O13 2.051652 1_555
Hf1 O7 2.051775 1_555
Hf1 O9 2.059751 1_555
As0 O4 1.656117 1_554
As0 O12 1.668394 1_455
As0 O5 1.669468 1_545
As0 O3 1.744109 1_555
As1 O7 1.665979 1_555
As1 O2 1.665988 1_555
As1 O0 1.672413 1_555
As1 O3 1.746765 1_555
As2 O11 1.663653 1_555
As2 O13 1.668450 1_555
As2 O6 1.668681 1_555
As2 O10 1.752136 1_555
O1 P0 1.517268 1_555
O8 P0 1.518889 1_545
O9 P0 1.513905 1_554
O10 P0 1.593098 1_555
