# generated using pymatgen
data_Sr6NbTcO12
_symmetry_space_group_name_H-M   'P 1'
_cell_length_a   6.11335250
_cell_length_b   5.85012661
_cell_length_c   10.23136274
_cell_angle_alpha   54.91513842
_cell_angle_beta   89.75030233
_cell_angle_gamma   89.79791259
_symmetry_Int_Tables_number   1
_chemical_formula_structural   Sr6NbTcO12
_chemical_formula_sum   'Sr6 Nb1 Tc1 O12'
_cell_volume   299.42436065
_cell_formula_units_Z   1
loop_
 _symmetry_equiv_pos_site_id
 _symmetry_equiv_pos_as_xyz
  1  'x, y, z'
loop_
 _atom_site_type_symbol
 _atom_site_label
 _atom_site_symmetry_multiplicity
 _atom_site_fract_x
 _atom_site_fract_y
 _atom_site_fract_z
 _atom_site_occupancy
  Sr  Sr0  1  0.50000000  0.50000000  0.50000000  1
  Sr  Sr1  1  0.94873557  0.72384155  0.26399825  1
  Sr  Sr2  1  0.44402311  0.26352017  0.25514533  1
  Sr  Sr3  1  0.00000000  0.50000000  0.00000000  1
  Sr  Sr4  1  0.55597689  0.73647983  0.74485467  1
  Sr  Sr5  1  0.05126443  0.27615845  0.73600175  1
  Nb  Nb0  1  0.00000000  0.00000000  0.50000000  1
  Tc  Tc0  1  0.50000000  0.00000000  0.00000000  1
  O  O0  1  0.45789948  0.10955467  0.79011318  1
  O  O1  1  0.24416629  0.77666051  0.06271019  1
  O  O2  1  0.18125456  0.32652930  0.45103109  1
  O  O3  1  0.66810022  0.69384995  0.04482476  1
  O  O4  1  0.72894279  0.24478400  0.42935205  1
  O  O5  1  0.94599217  0.88431366  0.72599386  1
  O  O6  1  0.05400783  0.11568634  0.27400614  1
  O  O7  1  0.27105721  0.75521600  0.57064795  1
  O  O8  1  0.33189978  0.30615005  0.95517524  1
  O  O9  1  0.81874544  0.67347070  0.54896891  1
  O  O10  1  0.75583371  0.22333949  0.93728981  1
  O  O11  1  0.54210052  0.89044533  0.20988682  1
loop_
_geom_bond_atom_site_label_1
_geom_bond_atom_site_label_2
_geom_bond_distance
_geom_bond_site_symmetry_2
Nb0 O2 2.009409 1_555
Nb0 O9 2.009409 1_445
Nb0 O5 2.027169 1_445
Nb0 O6 2.027169 1_555
Nb0 O4 2.030468 1_455
Nb0 O7 2.030468 1_545
O0 Tc0 1.873483 1_556
O0 Sr0 2.509490 1_555
O0 Sr4 2.547064 1_545
O0 Sr5 2.609744 1_555
O1 Tc0 1.899170 1_565
O1 Sr3 2.545279 1_555
O1 Sr1 2.615087 1_455
O1 Sr2 2.753444 1_555
O1 Sr5 3.143927 1_564
O2 Sr0 2.384303 1_555
O2 Sr1 2.443811 1_455
O2 Sr2 2.747752 1_555
O2 Sr5 2.865845 1_555
O3 Tc0 1.876437 1_565
O3 Sr3 2.487341 1_655
O3 Sr2 2.572122 1_555
O3 Sr1 2.913872 1_555
O3 Sr4 3.014742 1_554
O4 Sr0 2.434675 1_555
O4 Sr2 2.454365 1_555
O4 Sr1 2.660471 1_555
O4 Sr4 3.055884 1_545
O5 Sr3 2.404213 1_656
O5 Sr5 2.441374 1_665
O5 Sr4 2.507742 1_555
O6 Sr3 2.404213 1_555
O6 Sr1 2.441374 1_445
O6 Sr2 2.507742 1_555
O7 Sr0 2.434675 1_555
O7 Sr4 2.454365 1_555
O7 Sr5 2.660471 1_555
O7 Sr2 3.055884 1_565
O8 Tc0 1.876437 1_556
O8 Sr3 2.487341 1_556
O8 Sr4 2.572122 1_555
O8 Sr5 2.913872 1_555
O8 Sr2 3.014742 1_556
O9 Sr0 2.384303 1_555
O9 Sr5 2.443811 1_655
O9 Sr4 2.747752 1_555
O9 Sr1 2.865845 1_555
O10 Tc0 1.899170 1_556
O10 Sr3 2.545279 1_656
O10 Sr5 2.615087 1_655
O10 Sr4 2.753444 1_555
O10 Sr1 3.143927 1_546
O11 Tc0 1.873483 1_565
O11 Sr0 2.509490 1_555
O11 Sr2 2.547064 1_565
O11 Sr1 2.609744 1_555
