# generated using pymatgen
data_Na4Hf6CBr18
_symmetry_space_group_name_H-M   'P 1'
_cell_length_a   10.05905593
_cell_length_b   10.02619685
_cell_length_c   10.05811804
_cell_angle_alpha   119.27338454
_cell_angle_beta   100.41559867
_cell_angle_gamma   102.07670342
_symmetry_Int_Tables_number   1
_chemical_formula_structural   Na4Hf6CBr18
_chemical_formula_sum   'Na4 Hf6 C1 Br18'
_cell_volume   816.23348497
_cell_formula_units_Z   1
loop_
 _symmetry_equiv_pos_site_id
 _symmetry_equiv_pos_as_xyz
  1  'x, y, z'
loop_
 _atom_site_type_symbol
 _atom_site_label
 _atom_site_symmetry_multiplicity
 _atom_site_fract_x
 _atom_site_fract_y
 _atom_site_fract_z
 _atom_site_occupancy
  Na  Na0  1  0.14825881  0.71690148  0.54602321  1
  Na  Na1  1  0.87701126  0.97611522  0.78684049  1
  Na  Na2  1  0.12298874  0.02388478  0.21315951  1
  Na  Na3  1  0.85174119  0.28309852  0.45397679  1
  Hf  Hf0  1  0.35020211  0.44785209  0.77041026  1
  Hf  Hf1  1  0.36981089  0.63824159  0.14238051  1
  Hf  Hf2  1  0.64318815  0.73311942  0.04263096  1
  Hf  Hf3  1  0.64979789  0.55214791  0.22958974  1
  Hf  Hf4  1  0.35681185  0.26688058  0.95736904  1
  Hf  Hf5  1  0.63018911  0.36175841  0.85761949  1
  C  C0  1  0.50000000  0.50000000  0.00000000  1
  Br  Br0  1  0.82366574  0.40430350  0.10326251  1
  Br  Br1  1  0.52384612  0.71885371  0.43051474  1
  Br  Br2  1  0.17007628  0.97303559  0.90178114  1
  Br  Br3  1  0.17633426  0.59569650  0.89673749  1
  Br  Br4  1  0.83800110  0.83309497  0.31775807  1
  Br  Br5  1  0.50753117  0.29070387  0.21676836  1
  Br  Br6  1  0.79233302  0.19012399  0.68230287  1
  Br  Br7  1  0.16199890  0.16690503  0.68224193  1
  Br  Br8  1  0.51630016  0.92958769  0.21271705  1
  Br  Br9  1  0.81595572  0.61219373  0.88685593  1
  Br  Br10  1  0.20766698  0.80987601  0.31769713  1
  Br  Br11  1  0.15716134  0.38303258  0.48136083  1
  Br  Br12  1  0.49246883  0.70929613  0.78323164  1
  Br  Br13  1  0.82992372  0.02696441  0.09821886  1
  Br  Br14  1  0.47615388  0.28114629  0.56948526  1
  Br  Br15  1  0.18404428  0.38780627  0.11314407  1
  Br  Br16  1  0.84283866  0.61696742  0.51863917  1
  Br  Br17  1  0.48369984  0.07041231  0.78728295  1
loop_
_geom_bond_atom_site_label_1
_geom_bond_atom_site_label_2
_geom_bond_distance
_geom_bond_site_symmetry_2
C0 Hf3 2.260071 1_555
C0 Hf0 2.260071 1_554
C0 Hf2 2.260377 1_555
C0 Hf4 2.260377 1_554
C0 Hf1 2.276713 1_555
C0 Hf5 2.276713 1_554
Br0 Hf3 2.630003 1_555
Br0 Hf5 2.637675 1_554
Br1 Hf3 2.644146 1_555
Br1 Hf1 2.648510 1_555
Br2 Hf4 2.866081 1_565
Br2 Na1 2.978030 1_455
Br2 Na2 3.060859 1_566
Br2 Na0 3.152876 1_555
Br3 Hf0 2.630003 1_555
Br3 Hf1 2.637675 1_556
Br4 Hf2 2.647127 1_555
Br4 Hf3 2.650208 1_555
Br5 Hf3 2.639840 1_555
Br5 Hf4 2.640381 1_554
Br6 Hf5 2.824486 1_555
Br6 Na3 2.976044 1_555
Br6 Na1 3.013700 1_545
Br7 Hf4 2.647127 1_555
Br7 Hf0 2.650208 1_555
Br8 Hf2 2.642347 1_555
Br8 Hf1 2.646805 1_555
Br9 Hf2 2.636954 1_556
Br9 Hf5 2.645537 1_555
Br10 Hf1 2.824486 1_555
Br10 Na0 2.976044 1_555
Br10 Na2 3.013700 1_565
Br11 Hf0 2.868495 1_555
Br11 Na3 2.941855 1_455
Br11 Na0 3.107043 1_555
Br11 Na2 3.163663 1_555
Br12 Hf0 2.639840 1_555
Br12 Hf2 2.640381 1_556
Br13 Hf2 2.866081 1_545
Br13 Na2 2.978030 1_655
Br13 Na1 3.060859 1_544
Br13 Na3 3.152876 1_555
Br14 Hf0 2.644146 1_555
Br14 Hf5 2.648510 1_555
Br15 Hf4 2.636954 1_554
Br15 Hf1 2.645537 1_555
Br16 Hf3 2.868495 1_555
Br16 Na0 2.941855 1_655
Br16 Na3 3.107043 1_555
Br16 Na1 3.163663 1_555
Br17 Hf4 2.642347 1_555
Br17 Hf5 2.646805 1_555
