# generated using pymatgen
data_YNi4(AuO4)3
_symmetry_space_group_name_H-M   'P 1'
_cell_length_a   6.39723792
_cell_length_b   6.39723778
_cell_length_c   6.39723747
_cell_angle_alpha   109.47122263
_cell_angle_beta   109.47122221
_cell_angle_gamma   109.47121948
_symmetry_Int_Tables_number   1
_chemical_formula_structural   YNi4(AuO4)3
_chemical_formula_sum   'Y1 Ni4 Au3 O12'
_cell_volume   201.53735999
_cell_formula_units_Z   1
loop_
 _symmetry_equiv_pos_site_id
 _symmetry_equiv_pos_as_xyz
  1  'x, y, z'
loop_
 _atom_site_type_symbol
 _atom_site_label
 _atom_site_symmetry_multiplicity
 _atom_site_fract_x
 _atom_site_fract_y
 _atom_site_fract_z
 _atom_site_occupancy
  Y  Y0  1  0.00000000  0.00000000  0.00000000  1
  Ni  Ni0  1  0.00000000  0.00000000  0.50000000  1
  Ni  Ni1  1  0.00000000  0.50000000  0.00000000  1
  Ni  Ni2  1  0.50000000  0.00000000  0.00000000  1
  Ni  Ni3  1  0.50000000  0.50000000  0.50000000  1
  Au  Au0  1  0.00000000  0.50000000  0.50000000  1
  Au  Au1  1  0.50000000  0.00000000  0.50000000  1
  Au  Au2  1  0.50000000  0.50000000  0.00000000  1
  O  O0  1  0.29208049  0.11686659  0.82478510  1
  O  O1  1  0.70791951  0.88313341  0.17521490  1
  O  O2  1  0.70791951  0.53270461  0.82478510  1
  O  O3  1  0.46729539  0.17521490  0.29208049  1
  O  O4  1  0.17521490  0.29208049  0.46729539  1
  O  O5  1  0.82478510  0.29208049  0.11686659  1
  O  O6  1  0.88313341  0.17521490  0.70791951  1
  O  O7  1  0.82478510  0.70791951  0.53270461  1
  O  O8  1  0.29208049  0.46729539  0.17521490  1
  O  O9  1  0.53270461  0.82478510  0.70791951  1
  O  O10  1  0.17521490  0.70791951  0.88313341  1
  O  O11  1  0.11686659  0.82478510  0.29208049  1
loop_
_geom_bond_atom_site_label_1
_geom_bond_atom_site_label_2
_geom_bond_distance
_geom_bond_site_symmetry_2
Ni0 O0 1.952481 1_555
Ni0 O1 1.952481 1_445
Ni0 O4 1.952483 1_555
Ni0 O7 1.952483 1_445
Ni0 O6 1.952488 1_455
Ni0 O11 1.952488 1_545
Ni1 O11 1.952481 1_555
Ni1 O6 1.952481 1_454
Ni1 O8 1.952483 1_555
Ni1 O2 1.952483 1_454
Ni1 O10 1.952488 1_554
Ni1 O5 1.952488 1_455
Ni2 O5 1.952481 1_555
Ni2 O10 1.952481 1_544
Ni2 O3 1.952483 1_555
Ni2 O9 1.952483 1_544
Ni2 O1 1.952488 1_545
Ni2 O0 1.952488 1_554
Ni3 O8 1.952483 1_555
Ni3 O2 1.952483 1_555
Ni3 O9 1.952483 1_555
Ni3 O3 1.952483 1_555
Ni3 O7 1.952483 1_555
Ni3 O4 1.952483 1_555
Au0 O10 2.008507 1_555
Au0 O5 2.008507 1_455
Au0 O7 2.008512 1_455
Au0 O4 2.008512 1_555
Au1 O6 2.008507 1_555
Au1 O11 2.008507 1_545
Au1 O9 2.008512 1_545
Au1 O3 2.008512 1_555
Au2 O1 2.008507 1_555
Au2 O0 2.008507 1_554
Au2 O2 2.008512 1_554
Au2 O8 2.008512 1_555
O0 Y0 2.516009 1_556
O1 Y0 2.516009 1_665
O2 Y0 2.516008 1_666
O3 Y0 2.516008 1_555
O4 Y0 2.516007 1_555
O5 Y0 2.516009 1_655
O6 Y0 2.516009 1_656
O7 Y0 2.516007 1_666
O8 Y0 2.516008 1_555
O9 Y0 2.516008 1_666
O10 Y0 2.516009 1_566
O11 Y0 2.516009 1_565
