# generated using pymatgen
data_Sc12TcNi4Sn
_symmetry_space_group_name_H-M   'P 1'
_cell_length_a   7.75340518
_cell_length_b   7.75340542
_cell_length_c   7.75340528
_cell_angle_alpha   111.51320249
_cell_angle_beta   110.34273510
_cell_angle_gamma   106.59765835
_symmetry_Int_Tables_number   1
_chemical_formula_structural   Sc12TcNi4Sn
_chemical_formula_sum   'Sc12 Tc1 Ni4 Sn1'
_cell_volume   358.09059144
_cell_formula_units_Z   1
loop_
 _symmetry_equiv_pos_site_id
 _symmetry_equiv_pos_as_xyz
  1  'x, y, z'
loop_
 _atom_site_type_symbol
 _atom_site_label
 _atom_site_symmetry_multiplicity
 _atom_site_fract_x
 _atom_site_fract_y
 _atom_site_fract_z
 _atom_site_occupancy
  Sc  Sc0  1  0.68000264  0.87911380  0.19911116  1
  Sc  Sc1  1  0.31999736  0.51910653  0.19911116  1
  Sc  Sc2  1  0.81849325  0.77609034  0.59458459  1
  Sc  Sc3  1  0.18150675  0.77609034  0.95759709  1
  Sc  Sc4  1  0.81849325  0.22390966  0.04240291  1
  Sc  Sc5  1  0.18150675  0.22390966  0.40541541  1
  Sc  Sc6  1  0.68000264  0.48089347  0.80088884  1
  Sc  Sc7  1  0.31999736  0.12088620  0.80088884  1
  Sc  Sc8  1  0.57891935  0.27482421  0.30409414  1
  Sc  Sc9  1  0.42108065  0.72517579  0.69590586  1
  Sc  Sc10  1  0.02926993  0.72517579  0.30409414  1
  Sc  Sc11  1  0.97073007  0.27482421  0.69590586  1
  Tc  Tc0  1  0.00000000  0.50000000  0.50000000  1
  Ni  Ni0  1  0.35566168  0.50000000  0.85566168  1
  Ni  Ni1  1  0.64433832  0.50000000  0.14433832  1
  Ni  Ni2  1  0.87701073  0.87701073  1.00000000  1
  Ni  Ni3  1  0.12298927  0.12298927  0.00000000  1
  Sn  Sn0  1  0.50000000  0.00000000  0.50000000  1
loop_
_geom_bond_atom_site_label_1
_geom_bond_atom_site_label_2
_geom_bond_distance
_geom_bond_site_symmetry_2
Sc0 Sn0 3.110642 1_565
Sc0 Sc10 3.232170 1_655
Sc0 Sc9 3.232171 1_554
Sc0 Sc8 3.267370 1_565
Sc0 Sc11 3.267374 1_565
Sc0 Sc1 3.336363 1_555
Sc0 Sc3 3.345177 1_554
Sc0 Sc2 3.345184 1_555
Sc0 Sc4 3.380160 1_565
Sc0 Sc5 3.380162 1_665
Sc1 Sn0 3.110655 1_565
Sc1 Sc8 3.232162 1_555
Sc1 Sc11 3.232172 1_454
Sc1 Sc9 3.267376 1_555
Sc1 Sc10 3.267383 1_555
Sc1 Sc2 3.345179 1_555
Sc1 Sc3 3.345191 1_554
Sc1 Sc5 3.380141 1_555
Sc1 Sc4 3.380156 1_455
Sc2 Tc0 2.896178 1_655
Sc2 Sc8 3.189817 1_555
Sc2 Sc3 3.214955 1_655
Sc2 Sc6 3.380141 1_555
Sc2 Sc7 3.380162 1_665
Sc2 Sc9 3.388646 1_555
Sc2 Sn0 3.431259 1_565
Sc3 Tc0 2.896177 1_555
Sc3 Sc9 3.189810 1_555
Sc3 Sc6 3.380156 1_455
Sc3 Sc7 3.380160 1_565
Sc3 Sc8 3.388645 1_566
Sc3 Sn0 3.431258 1_566
Sc4 Tc0 2.896177 1_655
Sc4 Sc8 3.189810 1_555
Sc4 Sc5 3.214955 1_655
Sc4 Sc7 3.345177 1_554
Sc4 Sc6 3.345191 1_554
Sc4 Sc9 3.388645 1_544
Sc4 Sn0 3.431258 1_554
Sc5 Tc0 2.896178 1_555
Sc5 Sc9 3.189817 1_555
Sc5 Sc6 3.345179 1_555
Sc5 Sc7 3.345184 1_555
Sc5 Sc8 3.388646 1_555
Sc5 Sn0 3.431259 1_555
Sc6 Sn0 3.110655 1_555
Sc6 Sc9 3.232162 1_555
Sc6 Sc8 3.267376 1_555
Sc6 Sc7 3.336363 1_555
Sc7 Sn0 3.110642 1_555
Sc7 Sc8 3.232171 1_556
Sc7 Sc9 3.267370 1_545
Sc8 Tc0 2.713857 1_655
Sc8 Sn0 3.081742 1_555
Sc9 Tc0 2.713857 1_555
Sc9 Sn0 3.081742 1_565
Sc10 Tc0 2.713863 1_555
Sc10 Sn0 3.081741 1_565
Sc10 Sc4 3.189817 1_455
Sc10 Sc2 3.189823 1_455
Sc10 Sc6 3.232172 1_454
Sc10 Sc7 3.267374 1_565
Sc10 Sc3 3.388643 1_554
Sc10 Sc5 3.388645 1_565
Sc10 Sc9 3.470001 1_555
Sc11 Tc0 2.713863 1_655
Sc11 Sn0 3.081741 1_555
Sc11 Sc3 3.189817 1_655
Sc11 Sc5 3.189823 1_655
Sc11 Sc7 3.232170 1_655
Sc11 Sc6 3.267383 1_555
Sc11 Sc4 3.388643 1_556
Sc11 Sc2 3.388645 1_545
Sc11 Sc8 3.470001 1_555
Ni0 Sc9 2.521230 1_555
Ni0 Sc11 2.521232 1_455
Ni0 Ni1 2.556610 1_556
Ni0 Sc6 2.726802 1_555
Ni0 Sc7 2.726806 1_555
Ni0 Sc0 2.726807 1_556
Ni0 Sc1 2.726811 1_556
Ni0 Sc3 2.860551 1_555
Ni0 Sc5 2.860558 1_555
Ni1 Sc8 2.521230 1_555
Ni1 Sc10 2.521232 1_655
Ni1 Sc1 2.726802 1_555
Ni1 Sc0 2.726806 1_555
Ni1 Sc7 2.726807 1_554
Ni1 Sc6 2.726811 1_554
Ni1 Sc4 2.860551 1_555
Ni1 Sc2 2.860558 1_555
Ni2 Ni3 2.279610 1_666
Ni2 Sc6 2.520315 1_555
Ni2 Sc0 2.520327 1_556
Ni2 Sc2 2.774965 1_555
Ni2 Sc5 2.774969 1_666
Ni2 Sc3 2.774973 1_655
Ni2 Sc4 2.774973 1_566
Ni2 Sc10 3.038600 1_656
Ni2 Sc9 3.038606 1_555
Ni3 Sc1 2.520315 1_555
Ni3 Sc7 2.520327 1_554
Ni3 Sc5 2.774965 1_555
Ni3 Sc2 2.774969 1_444
Ni3 Sc4 2.774973 1_455
Ni3 Sc3 2.774973 1_544
Ni3 Sc11 3.038600 1_454
Ni3 Sc8 3.038606 1_555
