# generated using pymatgen
data_MgTcPt6
_symmetry_space_group_name_H-M   'P 1'
_cell_length_a   5.54768107
_cell_length_b   5.54768030
_cell_length_c   5.54768106
_cell_angle_alpha   60.00000130
_cell_angle_beta   60.00000586
_cell_angle_gamma   59.99999935
_symmetry_Int_Tables_number   1
_chemical_formula_structural   MgTcPt6
_chemical_formula_sum   'Mg1 Tc1 Pt6'
_cell_volume   120.73117307
_cell_formula_units_Z   1
loop_
 _symmetry_equiv_pos_site_id
 _symmetry_equiv_pos_as_xyz
  1  'x, y, z'
loop_
 _atom_site_type_symbol
 _atom_site_label
 _atom_site_symmetry_multiplicity
 _atom_site_fract_x
 _atom_site_fract_y
 _atom_site_fract_z
 _atom_site_occupancy
  Mg  Mg0  1  0.00000000  0.00000000  0.00000000  1
  Tc  Tc0  1  0.50000000  0.50000000  0.50000000  1
  Pt  Pt0  1  0.50000000  0.00000000  0.00000000  1
  Pt  Pt1  1  0.00000000  0.50000000  0.50000000  1
  Pt  Pt2  1  0.00000000  0.50000000  0.00000000  1
  Pt  Pt3  1  0.50000000  0.00000000  0.50000000  1
  Pt  Pt4  1  0.00000000  0.00000000  0.50000000  1
  Pt  Pt5  1  0.50000000  0.50000000  0.00000000  1
loop_
_geom_bond_atom_site_label_1
_geom_bond_atom_site_label_2
_geom_bond_distance
_geom_bond_site_symmetry_2
Mg0 Pt2 2.773840 1_545
Mg0 Pt2 2.773840 1_555
Mg0 Pt5 2.773840 1_545
Mg0 Pt5 2.773840 1_455
Mg0 Pt1 2.773840 1_545
Mg0 Pt1 2.773840 1_554
Mg0 Pt4 2.773841 1_554
Mg0 Pt4 2.773841 1_555
Mg0 Pt0 2.773841 1_455
Mg0 Pt0 2.773841 1_555
Mg0 Pt3 2.773841 1_554
Mg0 Pt3 2.773841 1_455
Pt0 Pt5 2.773840 1_555
Pt0 Pt5 2.773840 1_545
Pt0 Pt2 2.773840 1_555
Pt0 Pt2 2.773840 1_645
Pt0 Tc0 2.773840 1_554
Pt0 Tc0 2.773840 1_545
Pt0 Pt3 2.773841 1_555
Pt0 Pt3 2.773841 1_554
Pt0 Pt4 2.773841 1_555
Pt0 Pt4 2.773841 1_654
Pt1 Pt4 2.773840 1_565
Pt1 Pt4 2.773840 1_555
Pt1 Pt3 2.773840 1_465
Pt1 Pt3 2.773840 1_555
Pt1 Pt2 2.773841 1_556
Pt1 Pt2 2.773841 1_555
Pt1 Tc0 2.773841 1_455
Pt1 Tc0 2.773841 1_555
Pt1 Pt5 2.773841 1_555
Pt1 Pt5 2.773841 1_456
Pt2 Pt4 2.773840 1_555
Pt2 Pt4 2.773840 1_564
Pt2 Pt5 2.773841 1_555
Pt2 Pt5 2.773841 1_455
Pt2 Tc0 2.773841 1_455
Pt2 Tc0 2.773841 1_554
Pt3 Tc0 2.773840 1_545
Pt3 Tc0 2.773840 1_555
Pt3 Pt5 2.773840 1_546
Pt3 Pt5 2.773840 1_555
Pt3 Pt4 2.773841 1_555
Pt3 Pt4 2.773841 1_655
Pt4 Tc0 2.773840 1_545
Pt4 Tc0 2.773840 1_455
Pt5 Tc0 2.773841 1_555
Pt5 Tc0 2.773841 1_554
