# generated using pymatgen
data_TiB2Mo4P
_symmetry_space_group_name_H-M   'P 1'
_cell_length_a   5.97833281
_cell_length_b   5.97833361
_cell_length_c   6.93377630
_cell_angle_alpha   115.53753429
_cell_angle_beta   115.53753321
_cell_angle_gamma   90.00000046
_symmetry_Int_Tables_number   1
_chemical_formula_structural   TiB2Mo4P
_chemical_formula_sum   'Ti2 B4 Mo8 P2'
_cell_volume   196.43286960
_cell_formula_units_Z   2
loop_
 _symmetry_equiv_pos_site_id
 _symmetry_equiv_pos_as_xyz
  1  'x, y, z'
loop_
 _atom_site_type_symbol
 _atom_site_label
 _atom_site_symmetry_multiplicity
 _atom_site_fract_x
 _atom_site_fract_y
 _atom_site_fract_z
 _atom_site_occupancy
  Ti  Ti0  1  0.50000000  0.50000000  0.00000000  1
  Ti  Ti1  1  0.00000000  0.00000000  0.00000000  1
  B  B0  1  0.38172119  0.88172119  0.00000000  1
  B  B1  1  0.61827881  0.11827881  1.00000000  1
  B  B2  1  0.11827881  0.38172119  1.00000000  1
  B  B3  1  0.88172119  0.61827881  0.00000000  1
  Mo  Mo0  1  0.02590625  0.52590625  0.72016367  1
  Mo  Mo1  1  0.69425743  0.19425743  0.72016367  1
  Mo  Mo2  1  0.19425743  0.02590625  0.72016367  1
  Mo  Mo3  1  0.52590625  0.69425743  0.72016367  1
  Mo  Mo4  1  0.97409375  0.47409375  0.27983633  1
  Mo  Mo5  1  0.30574257  0.80574257  0.27983633  1
  Mo  Mo6  1  0.80574257  0.97409375  0.27983633  1
  Mo  Mo7  1  0.47409375  0.30574257  0.27983633  1
  P  P0  1  0.25000000  0.25000000  0.50000000  1
  P  P1  1  0.75000000  0.75000000  0.50000000  1
loop_
_geom_bond_atom_site_label_1
_geom_bond_atom_site_label_2
_geom_bond_distance
_geom_bond_site_symmetry_2
B0 B1 2.000009 1_564
B0 Mo6 2.308903 1_555
B0 Mo3 2.308904 1_554
B0 Mo2 2.308904 1_564
B0 Mo7 2.308904 1_565
B0 Mo0 2.386900 1_554
B0 Mo5 2.386900 1_555
B0 Ti1 2.389097 1_565
B0 Ti0 2.389098 1_555
B1 Mo2 2.308903 1_555
B1 Mo7 2.308904 1_556
B1 Mo6 2.308904 1_546
B1 Mo3 2.308904 1_545
B1 Mo4 2.386900 1_556
B1 Mo1 2.386900 1_555
B1 Ti1 2.389097 1_656
B1 Ti0 2.389098 1_556
B2 B3 2.000009 1_456
B2 Mo1 2.308903 1_455
B2 Mo4 2.308904 1_456
B2 Mo5 2.308904 1_556
B2 Mo0 2.308904 1_555
B2 Mo7 2.386900 1_556
B2 Mo2 2.386900 1_555
B2 Ti0 2.389097 1_556
B2 Ti1 2.389098 1_556
B3 Mo5 2.308903 1_655
B3 Mo0 2.308904 1_654
B3 Mo1 2.308904 1_554
B3 Mo4 2.308904 1_555
B3 Mo3 2.386900 1_554
B3 Mo6 2.386900 1_555
B3 Ti0 2.389097 1_555
B3 Ti1 2.389098 1_665
Mo0 P0 2.537368 1_555
Mo0 P1 2.537368 1_455
Mo0 Ti0 2.709151 1_556
Mo0 Ti1 2.709151 1_566
Mo1 P0 2.537368 1_555
Mo1 P1 2.537368 1_545
Mo1 Ti0 2.709151 1_556
Mo1 Ti1 2.709151 1_656
Mo2 P1 2.537368 1_445
Mo2 P0 2.537368 1_555
Mo2 Ti1 2.709151 1_556
Mo2 Ti0 2.709151 1_556
Mo3 P1 2.537368 1_555
Mo3 P0 2.537368 1_555
Mo3 Ti1 2.709151 1_666
Mo3 Ti0 2.709151 1_556
Mo4 P1 2.537368 1_555
Mo4 P0 2.537368 1_655
Mo4 Ti0 2.709151 1_555
Mo4 Ti1 2.709151 1_655
Mo5 P1 2.537368 1_555
Mo5 P0 2.537368 1_565
Mo5 Ti0 2.709151 1_555
Mo5 Ti1 2.709151 1_565
Mo6 P0 2.537368 1_665
Mo6 P1 2.537368 1_555
Mo6 Ti1 2.709151 1_665
Mo6 Ti0 2.709151 1_555
Mo7 P0 2.537368 1_555
Mo7 P1 2.537368 1_555
Mo7 Ti1 2.709151 1_555
Mo7 Ti0 2.709151 1_555
P0 Ti0 2.748046 1_556
P0 Ti1 2.748046 1_555
P1 Ti1 2.748046 1_666
P1 Ti0 2.748046 1_555
