# generated using pymatgen
data_K3B4PPt9
_symmetry_space_group_name_H-M   'P 1'
_cell_length_a   6.44438232
_cell_length_b   6.44438246
_cell_length_c   15.21335036
_cell_angle_alpha   90.00000000
_cell_angle_beta   90.00000000
_cell_angle_gamma   121.27914911
_symmetry_Int_Tables_number   1
_chemical_formula_structural   K3B4PPt9
_chemical_formula_sum   'K6 B8 P2 Pt18'
_cell_volume   539.97626241
_cell_formula_units_Z   2
loop_
 _symmetry_equiv_pos_site_id
 _symmetry_equiv_pos_as_xyz
  1  'x, y, z'
loop_
 _atom_site_type_symbol
 _atom_site_label
 _atom_site_symmetry_multiplicity
 _atom_site_fract_x
 _atom_site_fract_y
 _atom_site_fract_z
 _atom_site_occupancy
  K  K0  1  0.32698191  0.67301809  0.75000000  1
  K  K1  1  0.67301809  0.32698191  0.25000000  1
  K  K2  1  0.55067863  0.44932137  0.08651214  1
  K  K3  1  0.44932137  0.55067863  0.91348786  1
  K  K4  1  0.44932137  0.55067863  0.58651214  1
  K  K5  1  0.55067863  0.44932137  0.41348786  1
  B  B0  1  0.94013218  0.05986782  0.14084035  1
  B  B1  1  0.05986782  0.94013218  0.85915965  1
  B  B2  1  0.05986782  0.94013218  0.64084035  1
  B  B3  1  0.94013218  0.05986782  0.35915965  1
  B  B4  1  0.20463027  0.79536973  0.02617288  1
  B  B5  1  0.79536973  0.20463027  0.97382712  1
  B  B6  1  0.79536973  0.20463027  0.52617288  1
  B  B7  1  0.20463027  0.79536973  0.47382712  1
  P  P0  1  0.70742712  0.29257288  0.75000000  1
  P  P1  1  0.29257288  0.70742712  0.25000000  1
  Pt  Pt0  1  0.00000000  0.00000000  0.00000000  1
  Pt  Pt1  1  0.00000000  0.00000000  0.50000000  1
  Pt  Pt2  1  0.69805806  0.86499723  0.25000000  1
  Pt  Pt3  1  0.86499723  0.69805806  0.75000000  1
  Pt  Pt4  1  0.30194194  0.13500277  0.75000000  1
  Pt  Pt5  1  0.13500277  0.30194194  0.25000000  1
  Pt  Pt6  1  0.12940939  0.87059061  0.15253842  1
  Pt  Pt7  1  0.87059061  0.12940939  0.84746158  1
  Pt  Pt8  1  0.87059061  0.12940939  0.65253842  1
  Pt  Pt9  1  0.12940939  0.87059061  0.34746158  1
  Pt  Pt10  1  0.58009545  0.95818566  0.07689883  1
  Pt  Pt11  1  0.95818566  0.58009545  0.92310117  1
  Pt  Pt12  1  0.41990455  0.04181434  0.57689883  1
  Pt  Pt13  1  0.04181434  0.41990455  0.42310117  1
  Pt  Pt14  1  0.41990455  0.04181434  0.92310117  1
  Pt  Pt15  1  0.04181434  0.41990455  0.07689883  1
  Pt  Pt16  1  0.58009545  0.95818566  0.42310117  1
  Pt  Pt17  1  0.95818566  0.58009545  0.57689883  1
loop_
_geom_bond_atom_site_label_1
_geom_bond_atom_site_label_2
_geom_bond_distance
_geom_bond_site_symmetry_2
K0 K3 2.841613 1_555
K0 K4 2.841613 1_555
K0 Pt3 3.064094 1_455
K0 Pt4 3.064094 1_565
K0 Pt11 3.385896 1_455
K0 Pt17 3.385896 1_455
K0 Pt14 3.385896 1_565
K0 Pt12 3.385896 1_565
K0 Pt3 3.386203 1_555
K0 Pt4 3.386203 1_555
K0 P0 3.433260 1_455
K0 P0 3.433260 1_565
K0 Pt7 3.524497 1_565
K0 Pt8 3.524497 1_565
K0 Pt7 3.524497 1_455
K0 Pt8 3.524497 1_455
K1 K5 2.841613 1_555
K1 K2 2.841613 1_555
K1 Pt5 3.064094 1_655
K1 Pt2 3.064094 1_545
K1 Pt13 3.385896 1_655
K1 Pt15 3.385896 1_655
K1 Pt16 3.385896 1_545
K1 Pt10 3.385896 1_545
K1 Pt5 3.386203 1_555
K1 Pt2 3.386203 1_555
K1 P1 3.433260 1_655
K1 P1 3.433260 1_545
K1 Pt9 3.524497 1_545
K1 Pt6 3.524497 1_545
K1 Pt9 3.524497 1_655
K1 Pt6 3.524497 1_655
K2 K3 2.867967 1_554
K2 Pt15 3.188368 1_555
K2 Pt10 3.188368 1_555
K2 Pt15 3.270785 1_655
K2 Pt10 3.270785 1_545
K2 Pt11 3.389532 1_554
K2 Pt14 3.389532 1_554
K2 Pt5 3.409119 1_555
K2 Pt2 3.409119 1_555
K2 Pt6 3.431444 1_655
K2 Pt6 3.431444 1_545
K2 Pt0 3.469866 1_555
K2 Pt0 3.469866 1_665
K3 Pt11 3.188368 1_555
K3 Pt14 3.188368 1_555
K3 Pt11 3.270785 1_455
K3 Pt14 3.270785 1_565
K3 Pt15 3.389532 1_556
K3 Pt10 3.389532 1_556
K3 Pt3 3.409119 1_555
K3 Pt4 3.409119 1_555
K3 Pt7 3.431444 1_455
K3 Pt7 3.431444 1_565
K3 Pt0 3.469866 1_666
K3 Pt0 3.469866 1_556
K4 K5 2.867967 1_555
K4 Pt17 3.188368 1_555
K4 Pt12 3.188368 1_555
K4 Pt17 3.270785 1_455
K4 Pt12 3.270785 1_565
K4 Pt13 3.389532 1_555
K4 Pt16 3.389532 1_555
K4 Pt3 3.409119 1_555
K4 Pt4 3.409119 1_555
K4 Pt8 3.431444 1_455
K4 Pt8 3.431444 1_565
K4 Pt1 3.469866 1_665
K4 Pt1 3.469866 1_555
K5 Pt13 3.188368 1_555
K5 Pt16 3.188368 1_555
K5 Pt13 3.270785 1_655
K5 Pt16 3.270785 1_545
K5 Pt17 3.389532 1_555
K5 Pt12 3.389532 1_555
K5 Pt5 3.409119 1_555
K5 Pt2 3.409119 1_555
K5 Pt9 3.431444 1_655
K5 Pt9 3.431444 1_545
K5 Pt1 3.469866 1_555
K5 Pt1 3.469866 1_665
B0 Pt6 2.133631 1_645
B0 Pt2 2.175833 1_545
B0 Pt5 2.175833 1_655
B0 Pt0 2.245714 1_655
B0 Pt10 2.276019 1_545
B0 Pt15 2.276019 1_655
B0 K1 3.429462 1_555
B1 Pt7 2.133631 1_465
B1 Pt4 2.175833 1_565
B1 Pt3 2.175833 1_455
B1 Pt0 2.245714 1_566
B1 Pt14 2.276019 1_565
B1 Pt11 2.276019 1_455
B1 K0 3.429462 1_555
B2 Pt8 2.133631 1_465
B2 Pt4 2.175833 1_565
B2 Pt3 2.175833 1_455
B2 Pt1 2.245714 1_565
B2 Pt12 2.276019 1_565
B2 Pt17 2.276019 1_455
B2 K0 3.429462 1_555
B3 Pt9 2.133631 1_645
B3 Pt2 2.175833 1_545
B3 Pt5 2.175833 1_655
B3 Pt1 2.245714 1_655
B3 Pt16 2.276019 1_545
B3 Pt13 2.276019 1_655
B3 K1 3.429462 1_555
B4 Pt6 2.099945 1_555
B4 Pt11 2.148916 1_454
B4 Pt14 2.148916 1_564
B4 Pt10 2.216932 1_555
B4 Pt15 2.216932 1_555
B4 Pt0 2.332892 1_565
B4 K3 3.239458 1_554
B5 Pt7 2.099945 1_555
B5 Pt15 2.148916 1_656
B5 Pt10 2.148916 1_546
B5 Pt14 2.216932 1_555
B5 Pt11 2.216932 1_555
B5 Pt0 2.332892 1_656
B5 K2 3.239458 1_556
B6 Pt8 2.099945 1_555
B6 Pt13 2.148916 1_655
B6 Pt16 2.148916 1_545
B6 Pt12 2.216932 1_555
B6 Pt17 2.216932 1_555
B6 Pt1 2.332892 1_655
B6 K5 3.239458 1_555
B7 Pt9 2.099945 1_555
B7 Pt17 2.148916 1_455
B7 Pt12 2.148916 1_565
B7 Pt16 2.216932 1_555
B7 Pt13 2.216932 1_555
B7 Pt1 2.332892 1_565
B7 K4 3.239458 1_555
P0 Pt4 2.259211 1_555
P0 Pt3 2.259211 1_555
P0 Pt7 2.357500 1_555
P0 Pt8 2.357500 1_555
P1 Pt2 2.259211 1_555
P1 Pt5 2.259211 1_555
P1 Pt9 2.357500 1_555
P1 Pt6 2.357500 1_555
