# generated using pymatgen
data_Zn5CuRu
_symmetry_space_group_name_H-M   'P 1'
_cell_length_a   5.21518378
_cell_length_b   5.26059374
_cell_length_c   5.21518580
_cell_angle_alpha   59.71155330
_cell_angle_beta   61.99002105
_cell_angle_gamma   59.71154336
_symmetry_Int_Tables_number   1
_chemical_formula_structural   Zn5CuRu
_chemical_formula_sum   'Zn5 Cu1 Ru1'
_cell_volume   102.14101860
_cell_formula_units_Z   1
loop_
 _symmetry_equiv_pos_site_id
 _symmetry_equiv_pos_as_xyz
  1  'x, y, z'
loop_
 _atom_site_type_symbol
 _atom_site_label
 _atom_site_symmetry_multiplicity
 _atom_site_fract_x
 _atom_site_fract_y
 _atom_site_fract_z
 _atom_site_occupancy
  Zn  Zn0  1  0.50000000  0.00000000  0.00000000  1
  Zn  Zn1  1  0.00000000  0.50000000  0.00000000  1
  Zn  Zn2  1  0.50000000  0.50000000  0.00000000  1
  Zn  Zn3  1  0.00000000  0.00000000  0.50000000  1
  Zn  Zn4  1  0.00000000  0.50000000  0.50000000  1
  Cu  Cu0  1  0.50000000  0.00000000  0.50000000  1
  Ru  Ru0  1  0.00000000  0.00000000  0.00000000  1
loop_
_geom_bond_atom_site_label_1
_geom_bond_atom_site_label_2
_geom_bond_distance
_geom_bond_site_symmetry_2
Zn0 Zn1 2.607592 1_645
Zn0 Zn1 2.607592 1_555
Zn0 Zn2 2.630297 1_545
Zn0 Zn2 2.630297 1_555
Zn0 Zn3 2.685629 1_654
Zn0 Zn3 2.685629 1_555
Zn1 Zn2 2.607592 1_455
Zn1 Zn2 2.607592 1_555
Zn1 Zn3 2.607593 1_555
Zn1 Zn3 2.607593 1_564
Zn1 Zn4 2.607593 1_555
Zn1 Zn4 2.607593 1_554
Zn2 Zn4 2.685629 1_555
Zn2 Zn4 2.685629 1_654
Zn3 Zn4 2.630297 1_545
Zn3 Zn4 2.630297 1_555
Cu0 Zn4 2.607592 1_645
Cu0 Zn4 2.607592 1_555
Cu0 Zn3 2.607592 1_555
Cu0 Zn3 2.607592 1_655
Cu0 Zn2 2.607593 1_555
Cu0 Zn2 2.607593 1_546
Cu0 Zn0 2.607593 1_555
Cu0 Zn0 2.607593 1_556
Cu0 Ru0 2.685629 1_655
Cu0 Ru0 2.685629 1_556
Ru0 Zn2 2.607592 1_545
Ru0 Zn2 2.607592 1_455
Ru0 Zn0 2.607592 1_455
Ru0 Zn0 2.607592 1_555
Ru0 Zn4 2.607593 1_545
Ru0 Zn4 2.607593 1_554
Ru0 Zn3 2.607593 1_555
Ru0 Zn3 2.607593 1_554
Ru0 Zn1 2.630297 1_555
Ru0 Zn1 2.630297 1_545
