# generated using pymatgen
data_ErMg2
_symmetry_space_group_name_H-M   'P 1'
_cell_length_a   5.98640816
_cell_length_b   5.98640828
_cell_length_c   9.74210354
_cell_angle_alpha   90.00000000
_cell_angle_beta   90.00000000
_cell_angle_gamma   119.99993600
_symmetry_Int_Tables_number   1
_chemical_formula_structural   ErMg2
_chemical_formula_sum   'Er4 Mg8'
_cell_volume   302.35441192
_cell_formula_units_Z   4
loop_
 _symmetry_equiv_pos_site_id
 _symmetry_equiv_pos_as_xyz
  1  'x, y, z'
loop_
 _atom_site_type_symbol
 _atom_site_label
 _atom_site_symmetry_multiplicity
 _atom_site_fract_x
 _atom_site_fract_y
 _atom_site_fract_z
 _atom_site_occupancy
  Er  Er0  1  0.33333300  0.66666700  0.43444208  1
  Er  Er1  1  0.66666700  0.33333300  0.93444208  1
  Er  Er2  1  0.66666700  0.33333300  0.56555792  1
  Er  Er3  1  0.33333300  0.66666700  0.06555792  1
  Mg  Mg0  1  0.17102172  0.34204344  0.75000000  1
  Mg  Mg1  1  0.82897828  0.17102172  0.25000000  1
  Mg  Mg2  1  0.34204344  0.17102172  0.25000000  1
  Mg  Mg3  1  0.65795656  0.82897828  0.75000000  1
  Mg  Mg4  1  0.00000000  -0.00000000  -0.00000000  1
  Mg  Mg5  1  0.00000000  -0.00000000  0.50000000  1
  Mg  Mg6  1  0.82897828  0.65795656  0.25000000  1
  Mg  Mg7  1  0.17102172  0.82897828  0.75000000  1
loop_
_geom_bond_atom_site_label_1
_geom_bond_atom_site_label_2
_geom_bond_distance
_geom_bond_site_symmetry_2
Er0 Mg6 3.491415 1_455
Er0 Mg2 3.491415 1_565
Er0 Mg1 3.491420 1_455
Er0 Mg1 3.491420 1_565
Er0 Mg6 3.491420 1_555
Er0 Mg2 3.491420 1_555
Er0 Mg7 3.504721 1_555
Er0 Mg3 3.504724 1_555
Er0 Mg0 3.504724 1_555
Er0 Mg5 3.514764 1_565
Er0 Mg5 3.514772 1_665
Er0 Mg5 3.514772 1_555
Er0 Er3 3.593708 1_555
Er0 Er2 3.684738 1_455
Er0 Er2 3.684738 1_565
Er0 Er2 3.684745 1_555
Er1 Mg0 3.491415 1_655
Er1 Mg3 3.491415 1_545
Er1 Mg7 3.491420 1_655
Er1 Mg7 3.491420 1_545
Er1 Mg0 3.491420 1_555
Er1 Mg3 3.491420 1_555
Er1 Mg1 3.504721 1_556
Er1 Mg2 3.504724 1_556
Er1 Mg6 3.504724 1_556
Er1 Mg4 3.514764 1_656
Er1 Mg4 3.514772 1_556
Er1 Mg4 3.514772 1_666
Er1 Er2 3.593708 1_555
Er1 Er3 3.684738 1_656
Er1 Er3 3.684738 1_546
Er1 Er3 3.684745 1_556
Er2 Mg0 3.491415 1_655
Er2 Mg3 3.491415 1_545
Er2 Mg7 3.491420 1_655
Er2 Mg7 3.491420 1_545
Er2 Mg0 3.491420 1_555
Er2 Mg3 3.491420 1_555
Er2 Mg1 3.504721 1_555
Er2 Mg2 3.504724 1_555
Er2 Mg6 3.504724 1_555
Er2 Mg5 3.514764 1_655
Er2 Mg5 3.514772 1_555
Er2 Mg5 3.514772 1_665
Er3 Mg6 3.491415 1_455
Er3 Mg2 3.491415 1_565
Er3 Mg1 3.491420 1_455
Er3 Mg1 3.491420 1_565
Er3 Mg6 3.491420 1_555
Er3 Mg2 3.491420 1_555
Er3 Mg7 3.504721 1_554
Er3 Mg3 3.504724 1_554
Er3 Mg0 3.504724 1_554
Er3 Mg4 3.514764 1_565
Er3 Mg4 3.514772 1_665
Er3 Mg4 3.514772 1_555
Mg0 Mg7 2.914991 1_555
Mg0 Mg3 2.914994 1_555
Mg0 Mg4 3.012694 1_556
Mg0 Mg5 3.012694 1_555
Mg0 Mg7 3.071418 1_545
Mg0 Mg3 3.071420 1_445
Mg1 Mg2 2.914991 1_555
Mg1 Mg6 2.914991 1_555
Mg1 Mg4 3.012693 1_655
Mg1 Mg5 3.012693 1_655
Mg1 Mg2 3.071417 1_655
Mg1 Mg6 3.071418 1_545
Mg2 Mg6 2.914994 1_555
Mg2 Mg4 3.012694 1_555
Mg2 Mg5 3.012694 1_555
Mg2 Mg6 3.071420 1_445
Mg3 Mg7 2.914991 1_555
Mg3 Mg5 3.012694 1_665
Mg3 Mg4 3.012694 1_666
Mg3 Mg7 3.071417 1_655
Mg4 Mg7 3.012693 1_544
Mg4 Mg6 3.012694 1_445
Mg5 Mg7 3.012693 1_545
Mg5 Mg6 3.012694 1_445
