# generated using pymatgen
data_K8HfBi4
_symmetry_space_group_name_H-M   'P 1'
_cell_length_a   11.73480429
_cell_length_b   11.73480344
_cell_length_c   11.73480349
_cell_angle_alpha   59.99999712
_cell_angle_beta   59.99999952
_cell_angle_gamma   59.99999885
_symmetry_Int_Tables_number   1
_chemical_formula_structural   K8HfBi4
_chemical_formula_sum   'K16 Hf2 Bi8'
_cell_volume   1142.64804084
_cell_formula_units_Z   2
loop_
 _symmetry_equiv_pos_site_id
 _symmetry_equiv_pos_as_xyz
  1  'x, y, z'
loop_
 _atom_site_type_symbol
 _atom_site_label
 _atom_site_symmetry_multiplicity
 _atom_site_fract_x
 _atom_site_fract_y
 _atom_site_fract_z
 _atom_site_occupancy
  K  K0  1  0.62500000  0.12500000  0.62500000  1
  K  K1  1  0.62500000  0.62500000  0.12500000  1
  K  K2  1  0.12500000  0.62500000  0.62500000  1
  K  K3  1  0.62500000  0.62500000  0.62500000  1
  K  K4  1  0.02667753  0.02667753  0.47332247  1
  K  K5  1  0.77667753  0.22332247  0.22332247  1
  K  K6  1  0.22332247  0.77667753  0.77667753  1
  K  K7  1  0.77667753  0.77667753  0.22332247  1
  K  K8  1  0.77667753  0.22332247  0.77667753  1
  K  K9  1  0.22332247  0.77667753  0.22332247  1
  K  K10  1  0.47332247  0.02667753  0.47332247  1
  K  K11  1  0.47332247  0.02667753  0.02667753  1
  K  K12  1  0.02667753  0.47332247  0.47332247  1
  K  K13  1  0.02667753  0.47332247  0.02667753  1
  K  K14  1  0.22332247  0.22332247  0.77667753  1
  K  K15  1  0.47332247  0.47332247  0.02667753  1
  Hf  Hf0  1  0.75000000  0.75000000  0.75000000  1
  Hf  Hf1  1  0.50000000  0.50000000  0.50000000  1
  Bi  Bi0  1  0.39845450  0.80463750  0.39845450  1
  Bi  Bi1  1  0.85154550  0.85154550  0.44536250  1
  Bi  Bi2  1  0.44536250  0.85154550  0.85154550  1
  Bi  Bi3  1  0.85154550  0.85154550  0.85154550  1
  Bi  Bi4  1  0.80463750  0.39845450  0.39845450  1
  Bi  Bi5  1  0.39845450  0.39845450  0.39845450  1
  Bi  Bi6  1  0.39845450  0.39845450  0.80463750  1
  Bi  Bi7  1  0.85154550  0.44536250  0.85154550  1
loop_
_geom_bond_atom_site_label_1
_geom_bond_atom_site_label_2
_geom_bond_distance
_geom_bond_site_symmetry_2
K0 K11 3.865583 1_556
K0 K5 3.865583 1_555
K0 K8 3.865583 1_555
K0 K10 3.865583 1_555
K0 K4 3.865583 1_655
K0 K14 3.865583 1_555
K1 K11 3.865583 1_565
K1 K5 3.865583 1_555
K1 K7 3.865583 1_555
K1 K15 3.865583 1_555
K1 K13 3.865583 1_655
K1 K9 3.865583 1_555
K2 K4 3.865583 1_565
K2 K9 3.865583 1_555
K2 K6 3.865583 1_555
K3 K8 3.865583 1_555
K3 K7 3.865583 1_555
K3 K6 3.865583 1_555
K4 K6 4.195857 1_545
K4 K9 4.195857 1_545
K4 K8 4.195857 1_455
K4 K5 4.195857 1_455
K10 K3 3.865583 1_545
K10 K6 4.195857 1_545
K10 K14 4.195857 1_555
K10 K7 4.195857 1_545
K10 K5 4.195857 1_555
K11 K14 4.195857 1_554
K11 K7 4.195857 1_545
K11 K9 4.195857 1_545
K11 K8 4.195857 1_554
K12 K2 3.865583 1_555
K12 K3 3.865583 1_455
K12 K14 4.195857 1_555
K12 K7 4.195857 1_455
K12 K9 4.195857 1_555
K12 K8 4.195857 1_455
K13 K2 3.865583 1_554
K13 K6 4.195857 1_554
K13 K14 4.195857 1_554
K13 K7 4.195857 1_455
K13 K5 4.195857 1_455
K14 K2 3.865583 1_555
K15 K3 3.865583 1_554
K15 K6 4.195857 1_554
K15 K9 4.195857 1_555
K15 K8 4.195857 1_554
K15 K5 4.195857 1_555
Hf0 K0 3.593035 1_565
Hf0 K1 3.593035 1_556
Hf0 K3 3.593035 1_555
Hf0 K2 3.593035 1_655
Hf1 K0 3.593035 1_555
Hf1 K1 3.593035 1_555
Hf1 K3 3.593035 1_555
Hf1 K2 3.593035 1_555
Bi0 Hf1 2.918862 1_555
Bi0 K10 3.699066 1_565
Bi0 K11 3.699074 1_565
Bi0 K4 3.699074 1_565
Bi0 K6 3.758587 1_555
Bi0 K7 3.758588 1_555
Bi0 K9 3.758598 1_555
Bi0 K3 3.799723 1_555
Bi0 K1 3.799732 1_555
Bi0 K2 3.799732 1_555
Bi1 Hf0 2.918862 1_555
Bi1 K7 3.699066 1_555
Bi1 K5 3.699074 1_565
Bi1 K9 3.699074 1_655
Bi1 K12 3.758587 1_655
Bi1 K10 3.758588 1_565
Bi1 K4 3.758598 1_665
Bi1 K3 3.799723 1_555
Bi1 K0 3.799732 1_565
Bi1 K2 3.799732 1_655
Bi2 Hf0 2.918862 1_555
Bi2 K6 3.699066 1_555
Bi2 K14 3.699074 1_565
Bi2 K9 3.699074 1_556
Bi2 K15 3.758587 1_556
Bi2 K10 3.758587 1_565
Bi2 K11 3.758598 1_566
Bi2 K3 3.799723 1_555
Bi2 K1 3.799732 1_556
Bi2 K0 3.799732 1_565
Bi3 Hf0 2.918852 1_555
Bi3 K8 3.699077 1_565
Bi3 K7 3.699077 1_556
Bi3 K6 3.699077 1_655
Bi3 K13 3.758590 1_656
Bi3 K4 3.758590 1_665
Bi3 K11 3.758590 1_566
Bi3 K0 3.799725 1_565
Bi3 K1 3.799725 1_556
Bi3 K2 3.799725 1_655
Bi4 Hf1 2.918862 1_555
Bi4 K12 3.699066 1_655
Bi4 K4 3.699074 1_655
Bi4 K13 3.699074 1_655
Bi4 K7 3.758587 1_555
Bi4 K8 3.758587 1_555
Bi4 K5 3.758598 1_555
Bi4 K3 3.799723 1_555
Bi4 K1 3.799732 1_555
Bi4 K0 3.799732 1_555
Bi5 Hf1 2.918852 1_555
Bi5 K10 3.699077 1_555
Bi5 K15 3.699077 1_555
Bi5 K12 3.699077 1_555
Bi5 K9 3.758590 1_555
Bi5 K14 3.758590 1_555
Bi5 K5 3.758590 1_555
Bi5 K0 3.799725 1_555
Bi5 K1 3.799725 1_555
Bi5 K2 3.799725 1_555
Bi6 Hf1 2.918862 1_555
Bi6 K15 3.699066 1_556
Bi6 K11 3.699074 1_556
Bi6 K13 3.699074 1_556
Bi6 K6 3.758587 1_555
Bi6 K8 3.758588 1_555
Bi6 K14 3.758598 1_555
Bi6 K3 3.799723 1_555
Bi6 K0 3.799732 1_555
Bi6 K2 3.799732 1_555
Bi7 Hf0 2.918862 1_555
Bi7 K8 3.699066 1_555
Bi7 K5 3.699074 1_556
Bi7 K14 3.699074 1_655
Bi7 K12 3.758587 1_655
Bi7 K15 3.758588 1_556
Bi7 K13 3.758598 1_656
Bi7 K3 3.799723 1_555
Bi7 K1 3.799732 1_556
Bi7 K2 3.799732 1_655
