# generated using pymatgen
data_Sr4Zr(TcO4)3
_symmetry_space_group_name_H-M   'P 1'
_cell_length_a   5.63382398
_cell_length_b   5.65617331
_cell_length_c   8.01906415
_cell_angle_alpha   89.99170601
_cell_angle_beta   90.26738579
_cell_angle_gamma   90.04015180
_symmetry_Int_Tables_number   1
_chemical_formula_structural   Sr4Zr(TcO4)3
_chemical_formula_sum   'Sr4 Zr1 Tc3 O12'
_cell_volume   255.53172681
_cell_formula_units_Z   1
loop_
 _symmetry_equiv_pos_site_id
 _symmetry_equiv_pos_as_xyz
  1  'x, y, z'
loop_
 _atom_site_type_symbol
 _atom_site_label
 _atom_site_symmetry_multiplicity
 _atom_site_fract_x
 _atom_site_fract_y
 _atom_site_fract_z
 _atom_site_occupancy
  Sr  Sr0  1  0.48567996  0.00063207  0.75604468  1
  Sr  Sr1  1  0.98775710  0.50046579  0.75697680  1
  Sr  Sr2  1  0.51432004  0.99936793  0.24395532  1
  Sr  Sr3  1  0.01224290  0.49953421  0.24302320  1
  Zr  Zr0  1  0.50000000  0.50000000  0.50000000  1
  Tc  Tc0  1  0.00000000  0.00000000  0.00000000  1
  Tc  Tc1  1  0.50000000  0.50000000  0.00000000  1
  Tc  Tc2  1  0.00000000  0.00000000  0.50000000  1
  O  O0  1  0.00324936  0.95752359  0.75051843  1
  O  O1  1  0.50769479  0.54596468  0.75475632  1
  O  O2  1  0.99675064  0.04247641  0.24948157  1
  O  O3  1  0.49230521  0.45403532  0.24524368  1
  O  O4  1  0.71020884  0.20122200  0.52079833  1
  O  O5  1  0.24048266  0.25954127  0.97662943  1
  O  O6  1  0.25924389  0.75900144  0.02117880  1
  O  O7  1  0.79877780  0.71055548  0.47679181  1
  O  O8  1  0.28979116  0.79877800  0.47920167  1
  O  O9  1  0.75951734  0.74045873  0.02337057  1
  O  O10  1  0.74075611  0.24099856  0.97882120  1
  O  O11  1  0.20122220  0.28944452  0.52320819  1
loop_
_geom_bond_atom_site_label_1
_geom_bond_atom_site_label_2
_geom_bond_distance
_geom_bond_site_symmetry_2
O0 Tc0 2.015187 1_566
O0 Tc2 2.023204 1_565
O0 Sr1 2.587129 1_455
O0 Sr0 2.728829 1_565
O0 Sr0 2.926784 1_465
O0 Sr1 3.072727 1_465
O1 Tc1 1.984368 1_556
O1 Zr0 2.059673 1_555
O1 Sr0 2.574778 1_565
O1 Sr1 2.716958 1_555
O1 Sr1 2.940477 1_455
O1 Sr0 3.086919 1_555
O2 Tc0 2.015187 1_655
O2 Tc2 2.023204 1_655
O2 Sr3 2.587129 1_655
O2 Sr2 2.728829 1_545
O2 Sr2 2.926784 1_645
O2 Sr3 3.072727 1_645
O3 Tc1 1.984368 1_555
O3 Zr0 2.059673 1_555
O3 Sr2 2.574778 1_545
O3 Sr3 2.716958 1_555
O3 Sr3 2.940477 1_655
O3 Sr2 3.086919 1_555
O4 Tc2 1.998470 1_655
O4 Zr0 2.070534 1_555
O4 Sr0 2.542778 1_555
O4 Sr2 2.725081 1_545
O4 Sr1 2.977648 1_555
O5 Tc1 2.004326 1_556
O5 Tc0 2.006306 1_556
O5 Sr1 2.639204 1_455
O5 Sr0 2.684804 1_555
O5 Sr3 2.844027 1_556
O5 Sr2 3.018694 1_546
O6 Tc1 2.004921 1_555
O6 Tc0 2.005127 1_565
O6 Sr2 2.660630 1_555
O6 Sr3 2.697135 1_555
O6 Sr0 2.835091 1_564
O6 Sr1 2.988978 1_454
O7 Tc2 1.998893 1_665
O7 Zr0 2.070360 1_555
O7 Sr3 2.531555 1_655
O7 Sr1 2.751814 1_555
O7 Sr2 2.949216 1_555
O8 Tc2 1.998470 1_565
O8 Zr0 2.070534 1_555
O8 Sr2 2.542778 1_555
O8 Sr0 2.725081 1_565
O8 Sr3 2.977648 1_555
O9 Tc1 2.004326 1_555
O9 Tc0 2.006306 1_665
O9 Sr3 2.639204 1_655
O9 Sr2 2.684804 1_555
O9 Sr1 2.844027 1_554
O9 Sr0 3.018694 1_564
O10 Tc1 2.004921 1_556
O10 Tc0 2.005127 1_656
O10 Sr0 2.660630 1_555
O10 Sr1 2.697135 1_555
O10 Sr2 2.835091 1_546
O10 Sr3 2.988978 1_656
O11 Tc2 1.998893 1_555
O11 Zr0 2.070360 1_555
O11 Sr1 2.531555 1_455
O11 Sr3 2.751814 1_555
O11 Sr0 2.949216 1_555
