# generated using pymatgen
data_MnBi6(PtO9)2
_symmetry_space_group_name_H-M   'P 1'
_cell_length_a   9.04051394
_cell_length_b   9.04051308
_cell_length_c   5.17474204
_cell_angle_alpha   90.00000000
_cell_angle_beta   90.00000000
_cell_angle_gamma   120.00000499
_symmetry_Int_Tables_number   1
_chemical_formula_structural   MnBi6(PtO9)2
_chemical_formula_sum   'Mn1 Bi6 Pt2 O18'
_cell_volume   366.27351330
_cell_formula_units_Z   1
loop_
 _symmetry_equiv_pos_site_id
 _symmetry_equiv_pos_as_xyz
  1  'x, y, z'
loop_
 _atom_site_type_symbol
 _atom_site_label
 _atom_site_symmetry_multiplicity
 _atom_site_fract_x
 _atom_site_fract_y
 _atom_site_fract_z
 _atom_site_occupancy
  Mn  Mn0  1  0.66666700  0.33333300  0.99793566  1
  Bi  Bi0  1  0.98707399  0.37421971  0.49866278  1
  Bi  Bi1  1  0.29393667  0.29221595  0.99786513  1
  Bi  Bi2  1  0.99828029  0.70606333  0.99786513  1
  Bi  Bi3  1  0.62578029  0.61285428  0.49866278  1
  Bi  Bi4  1  0.38714572  0.01292601  0.49866278  1
  Bi  Bi5  1  0.70778405  0.00171971  0.99786513  1
  Pt  Pt0  1  0.00000000  0.00000000  0.49998292  1
  Pt  Pt1  1  0.33333300  0.66666700  0.00843486  1
  O  O0  1  0.08554303  0.20525456  0.72208133  1
  O  O1  1  0.22238287  0.45249638  0.21721038  1
  O  O2  1  0.12534081  0.58840786  0.79665352  1
  O  O3  1  0.41159214  0.53693395  0.79665352  1
  O  O4  1  0.23011251  0.77761713  0.21721038  1
  O  O5  1  0.11971053  0.91445697  0.72208133  1
  O  O6  1  0.54750362  0.76988749  0.21721038  1
  O  O7  1  0.20727134  0.08971588  0.27830601  1
  O  O8  1  0.46306605  0.87465919  0.79665352  1
  O  O9  1  0.79474544  0.88028947  0.72208133  1
  O  O10  1  0.46439132  0.23687627  0.78095777  1
  O  O11  1  0.60455670  0.14145270  0.20614527  1
  O  O12  1  0.53689699  0.39544330  0.20614527  1
  O  O13  1  0.76312373  0.22751605  0.78095777  1
  O  O14  1  0.91028412  0.11755446  0.27830601  1
  O  O15  1  0.77248395  0.53560868  0.78095777  1
  O  O16  1  0.85854730  0.46310301  0.20614527  1
  O  O17  1  0.88244554  0.79272866  0.27830601  1
loop_
_geom_bond_atom_site_label_1
_geom_bond_atom_site_label_2
_geom_bond_distance
_geom_bond_site_symmetry_2
Mn0 O11 1.873839 1_556
Mn0 O16 1.873839 1_556
Mn0 O12 1.873839 1_556
Mn0 O13 1.941771 1_555
Mn0 O15 1.941783 1_555
Mn0 O10 1.941784 1_555
Bi0 O16 2.284906 1_555
Bi0 O2 2.295520 1_655
Bi0 O13 2.303660 1_555
Bi0 O14 2.357018 1_555
Bi0 O1 2.375301 1_655
Bi0 O0 2.412944 1_655
Bi1 O7 2.153370 1_556
Bi1 O10 2.157731 1_555
Bi1 O0 2.173240 1_555
Bi1 O1 2.178028 1_556
Bi1 O3 2.181032 1_555
Bi1 O12 2.192553 1_556
Bi2 O17 2.153370 1_556
Bi2 O15 2.157742 1_555
Bi2 O5 2.173239 1_655
Bi2 O4 2.178013 1_656
Bi2 O2 2.181018 1_655
Bi2 O16 2.192553 1_556
Bi3 O12 2.284912 1_555
Bi3 O3 2.295521 1_555
Bi3 O15 2.303655 1_555
Bi3 O17 2.357016 1_555
Bi3 O6 2.375308 1_555
Bi3 O9 2.412950 1_555
Bi4 O11 2.284911 1_555
Bi4 O8 2.295515 1_545
Bi4 O10 2.303662 1_555
Bi4 O7 2.357010 1_555
Bi4 O4 2.375303 1_545
Bi4 O5 2.412951 1_545
Bi5 O14 2.153370 1_556
Bi5 O13 2.157746 1_555
Bi5 O9 2.173228 1_545
Bi5 O6 2.178016 1_546
Bi5 O8 2.181032 1_545
Bi5 O11 2.192553 1_556
O0 Pt0 1.981718 1_555
O1 Pt1 1.995015 1_555
O2 Pt1 1.976606 1_556
O3 Pt1 1.976606 1_556
O4 Pt1 1.995015 1_555
O5 Pt0 1.981712 1_565
O6 Pt1 1.995015 1_555
O7 Pt0 1.991275 1_555
O8 Pt1 1.976605 1_556
O9 Pt0 1.981717 1_665
O14 Pt0 1.991269 1_655
O17 Pt0 1.991275 1_665
