# generated using pymatgen
data_Rb3ScAs2
_symmetry_space_group_name_H-M   'P 1'
_cell_length_a   9.41236110
_cell_length_b   9.41236034
_cell_length_c   9.41236065
_cell_angle_alpha   127.44659945
_cell_angle_beta   70.74699742
_cell_angle_gamma   136.19653298
_symmetry_Int_Tables_number   1
_chemical_formula_structural   Rb3ScAs2
_chemical_formula_sum   'Rb6 Sc2 As4'
_cell_volume   449.12511803
_cell_formula_units_Z   2
loop_
 _symmetry_equiv_pos_site_id
 _symmetry_equiv_pos_as_xyz
  1  'x, y, z'
loop_
 _atom_site_type_symbol
 _atom_site_label
 _atom_site_symmetry_multiplicity
 _atom_site_fract_x
 _atom_site_fract_y
 _atom_site_fract_z
 _atom_site_occupancy
  Rb  Rb0  1  0.31187672  0.70180702  0.01368474  1
  Rb  Rb1  1  0.18812228  0.20180702  0.38993130  1
  Rb  Rb2  1  0.75000000  0.25000000  0.50000000  1
  Rb  Rb3  1  0.25000000  0.75000000  0.50000100  1
  Rb  Rb4  1  0.81187672  0.79819298  0.61006970  1
  Rb  Rb5  1  0.68812228  0.29819298  0.98631526  1
  Sc  Sc0  1  0.25000000  0.25000000  0.00000000  1
  Sc  Sc1  1  0.75000000  0.75000000  0.00000000  1
  As  As0  1  0.90920375  0.17959722  0.08880297  1
  As  As1  1  0.59079525  0.67959822  0.27039447  1
  As  As2  1  0.40920375  0.32040178  0.72960553  1
  As  As3  1  0.09079625  0.82040178  0.91119603  1
loop_
_geom_bond_atom_site_label_1
_geom_bond_atom_site_label_2
_geom_bond_distance
_geom_bond_site_symmetry_2
As0 Sc1 2.695224 1_545
As0 Sc0 2.695234 1_655
As0 Rb2 3.486234 1_555
As0 Rb3 3.486246 1_655
As0 Rb4 3.512144 1_544
As0 Rb5 3.534523 1_554
As0 Rb0 3.820069 1_545
As0 Rb0 3.820075 1_655
As1 Sc0 2.695233 1_555
As1 Sc1 2.695238 1_555
As1 Rb3 3.486238 1_555
As1 Rb2 3.486239 1_565
As1 Rb5 3.512138 1_554
As1 Rb4 3.534500 1_555
As1 Rb1 3.820069 1_665
As1 Rb1 3.820075 1_555
As2 Sc0 2.695237 1_556
As2 Sc1 2.695237 1_556
As2 Rb2 3.486244 1_555
As2 Rb3 3.486245 1_545
As2 Rb0 3.512138 1_556
As2 Rb1 3.534492 1_555
As2 Rb4 3.820068 1_555
As2 Rb4 3.820069 1_445
As3 Sc0 2.695229 1_566
As3 Sc1 2.695238 1_456
As3 Rb3 3.486220 1_555
As3 Rb2 3.486235 1_455
As3 Rb1 3.512159 1_566
As3 Rb0 3.534512 1_556
As3 Rb5 3.820062 1_565
As3 Rb5 3.820074 1_455
