# generated using pymatgen
data_Y4GaSi7Tc6
_symmetry_space_group_name_H-M   'P 1'
_cell_length_a   6.79208974
_cell_length_b   6.73374633
_cell_length_c   6.80559524
_cell_angle_alpha   70.09754594
_cell_angle_beta   89.63139836
_cell_angle_gamma   89.92296903
_symmetry_Int_Tables_number   1
_chemical_formula_structural   Y4GaSi7Tc6
_chemical_formula_sum   'Y4 Ga1 Si7 Tc6'
_cell_volume   292.66537103
_cell_formula_units_Z   1
loop_
 _symmetry_equiv_pos_site_id
 _symmetry_equiv_pos_as_xyz
  1  'x, y, z'
loop_
 _atom_site_type_symbol
 _atom_site_label
 _atom_site_symmetry_multiplicity
 _atom_site_fract_x
 _atom_site_fract_y
 _atom_site_fract_z
 _atom_site_occupancy
  Y  Y0  1  0.16952174  0.94320541  0.19000308  1
  Y  Y1  1  0.33050688  0.44372795  0.19364625  1
  Y  Y2  1  0.83334288  0.05804981  0.80485262  1
  Y  Y3  1  0.66830253  0.55981502  0.80574910  1
  Ga  Ga0  1  0.55452939  0.12558641  0.10261836  1
  Si  Si0  1  0.35729337  0.63096529  0.51395663  1
  Si  Si1  1  0.85548077  0.86956677  0.48017946  1
  Si  Si2  1  0.05084949  0.38116011  0.89604947  1
  Si  Si3  1  0.14138761  0.12780735  0.51096964  1
  Si  Si4  1  0.63799610  0.36584630  0.48910684  1
  Si  Si5  1  0.94992965  0.62220079  0.10327846  1
  Si  Si6  1  0.44970067  0.87989979  0.89629943  1
  Tc  Tc0  1  0.85682058  0.24759039  0.24811349  1
  Tc  Tc1  1  0.34000933  0.25674717  0.75021673  1
  Tc  Tc2  1  0.15426704  0.75837129  0.76379132  1
  Tc  Tc3  1  0.65086375  0.73077120  0.24177613  1
  Tc  Tc4  1  0.50265286  0.99102880  0.50828847  1
  Tc  Tc5  1  0.99654434  0.50766017  0.50110253  1
loop_
_geom_bond_atom_site_label_1
_geom_bond_atom_site_label_2
_geom_bond_distance
_geom_bond_site_symmetry_2
Ga0 Tc0 2.540771 1_555
Ga0 Tc3 2.584990 1_545
Ga0 Si6 2.610196 1_544
Ga0 Tc4 2.617727 1_545
Ga0 Tc1 2.693366 1_554
Ga0 Y1 2.858505 1_555
Ga0 Y0 2.862088 1_545
Ga0 Y2 2.911249 1_554
Ga0 Y3 3.031938 1_554
Si0 Tc1 2.487718 1_555
Si0 Tc2 2.547217 1_555
Si0 Tc5 2.599695 1_455
Si0 Tc4 2.607121 1_555
Si0 Tc3 2.639553 1_555
Si0 Si4 2.653849 1_555
Si0 Y0 2.789424 1_555
Si0 Y3 2.835271 1_555
Si0 Y1 2.872574 1_555
Si1 Tc0 2.497358 1_565
Si1 Tc3 2.549968 1_555
Si1 Tc4 2.558090 1_555
Si1 Tc5 2.576119 1_555
Si1 Si3 2.664802 1_665
Si1 Tc2 2.732555 1_655
Si1 Y3 2.774979 1_555
Si1 Y0 2.824431 1_655
Si1 Y2 2.901782 1_565
Si2 Tc1 2.465917 1_555
Si2 Tc2 2.489069 1_555
Si2 Tc5 2.557198 1_455
Si2 Si5 2.576120 1_456
Si2 Tc0 2.604208 1_456
Si2 Y3 2.843384 1_455
Si2 Y2 2.870780 1_455
Si2 Y1 2.918903 1_556
Si2 Y0 3.057197 1_546
Si3 Tc1 2.493756 1_555
Si3 Tc2 2.498771 1_545
Si3 Tc0 2.577667 1_455
Si3 Tc4 2.621887 1_545
Si3 Tc5 2.718823 1_455
Si3 Y1 2.771834 1_555
Si3 Y2 2.812043 1_455
Si3 Y0 2.862842 1_545
Si4 Tc3 2.462086 1_555
Si4 Tc0 2.527390 1_555
Si4 Tc1 2.619686 1_555
Si4 Tc5 2.628899 1_555
Si4 Tc4 2.648143 1_545
Si4 Y2 2.769606 1_555
Si4 Y1 2.830764 1_555
Si4 Y3 2.883553 1_555
Si5 Tc3 2.447355 1_555
Si5 Tc0 2.457253 1_555
Si5 Tc5 2.571758 1_555
Si5 Tc2 2.573866 1_654
Si5 Y1 2.830760 1_655
Si5 Y0 2.851990 1_655
Si5 Y3 2.926881 1_554
Si5 Y2 3.053142 1_564
Si6 Tc2 2.457550 1_555
Si6 Tc1 2.503929 1_565
Si6 Tc4 2.511071 1_555
Si6 Tc3 2.614079 1_556
Si6 Y2 2.845256 1_565
Si6 Y3 2.848482 1_555
Si6 Y0 2.885731 1_556
Si6 Y1 3.052142 1_556
Tc0 Tc5 3.001705 1_555
Tc0 Y0 3.065578 1_645
Tc0 Tc4 3.127324 1_545
Tc1 Tc4 3.018235 1_545
Tc1 Tc5 3.043220 1_455
Tc1 Y3 3.134934 1_555
Tc1 Y0 3.227423 1_546
Tc2 Tc4 3.029774 1_555
Tc2 Y2 3.043979 1_465
Tc2 Tc5 3.046005 1_455
Tc2 Y1 3.209090 1_556
Tc3 Y1 3.004886 1_555
Tc3 Tc5 3.020445 1_555
Tc3 Tc4 3.083886 1_555
Tc3 Y2 3.276142 1_564
Tc4 Y3 3.132704 1_555
Tc4 Y2 3.162792 1_565
Tc4 Y0 3.233473 1_555
Tc4 Y1 3.289880 1_565
Tc5 Y3 3.134728 1_555
Tc5 Y0 3.195960 1_655
Tc5 Y1 3.202869 1_655
Tc5 Y2 3.222829 1_555
