# generated using pymatgen
data_CsAlSCl2
_symmetry_space_group_name_H-M   'P 1'
_cell_length_a   6.19869172
_cell_length_b   7.10129784
_cell_length_c   7.89981689
_cell_angle_alpha   111.03852948
_cell_angle_beta   90.00000000
_cell_angle_gamma   90.00000000
_symmetry_Int_Tables_number   1
_chemical_formula_structural   CsAlSCl2
_chemical_formula_sum   'Cs2 Al2 S2 Cl4'
_cell_volume   324.55948773
_cell_formula_units_Z   2
loop_
 _symmetry_equiv_pos_site_id
 _symmetry_equiv_pos_as_xyz
  1  'x, y, z'
loop_
 _atom_site_type_symbol
 _atom_site_label
 _atom_site_symmetry_multiplicity
 _atom_site_fract_x
 _atom_site_fract_y
 _atom_site_fract_z
 _atom_site_occupancy
  Cs  Cs0  1  0.56477179  0.64472268  0.78804000  1
  Cs  Cs1  1  0.06477179  0.35527732  0.21196000  1
  Al  Al0  1  0.45838949  0.93596840  0.37427587  1
  Al  Al1  1  0.95838949  0.06403160  0.62572413  1
  S  S0  1  0.09965696  0.91878250  0.35366978  1
  S  S1  1  0.59965696  0.08121750  0.64633022  1
  Cl  Cl0  1  0.06214854  0.91888671  0.81394291  1
  Cl  Cl1  1  0.56214854  0.08111329  0.18605709  1
  Cl  Cl2  1  0.06503322  0.38038874  0.74976895  1
  Cl  Cl3  1  0.56503322  0.61961126  0.25023105  1
loop_
_geom_bond_atom_site_label_1
_geom_bond_atom_site_label_2
_geom_bond_distance
_geom_bond_site_symmetry_2
Cs0 S1 3.660528 1_565
Cs0 S1 3.754535 1_555
Cs1 S0 3.660528 1_545
Cs1 S0 3.754535 1_555
Al0 Cl1 2.187983 1_565
Al0 S1 2.204098 1_565
Al0 Cl3 2.205356 1_555
Al0 S0 2.229764 1_555
Al1 Cl0 2.187983 1_645
Al1 S0 2.204098 1_645
Al1 Cl2 2.205356 1_655
Al1 S1 2.229764 1_555
Cl0 Cs1 3.534693 1_566
Cl0 Cs0 3.612719 1_455
Cl0 Cs0 3.640513 1_555
Cl1 Cs0 3.534693 1_544
Cl1 Cs1 3.612719 1_555
Cl1 Cs1 3.640513 1_655
Cl2 Cs0 3.578183 1_555
Cl2 Cs0 3.580989 1_455
Cl2 Cs1 3.718969 1_556
Cl3 Cs1 3.578183 1_655
Cl3 Cs1 3.580989 1_555
Cl3 Cs0 3.718969 1_554
