# generated using pymatgen
data_Mn4InPd8Au3
_symmetry_space_group_name_H-M   'P 1'
_cell_length_a   6.89487575
_cell_length_b   6.89487565
_cell_length_c   6.89487576
_cell_angle_alpha   107.30727253
_cell_angle_beta   107.30726781
_cell_angle_gamma   113.89162910
_symmetry_Int_Tables_number   1
_chemical_formula_structural   Mn4InPd8Au3
_chemical_formula_sum   'Mn4 In1 Pd8 Au3'
_cell_volume   251.18787625
_cell_formula_units_Z   1
loop_
 _symmetry_equiv_pos_site_id
 _symmetry_equiv_pos_as_xyz
  1  'x, y, z'
loop_
 _atom_site_type_symbol
 _atom_site_label
 _atom_site_symmetry_multiplicity
 _atom_site_fract_x
 _atom_site_fract_y
 _atom_site_fract_z
 _atom_site_occupancy
  Mn  Mn0  1  0.25815272  0.25815272  0.51630545  1
  Mn  Mn1  1  0.74184728  0.74184728  0.48369455  1
  Mn  Mn2  1  0.25815272  0.74184728  1.00000000  1
  Mn  Mn3  1  0.74184728  0.25815272  0.00000000  1
  In  In0  1  0.00000000  0.00000000  0.00000000  1
  Pd  Pd0  1  0.49401752  0.24437642  0.24963910  1
  Pd  Pd1  1  0.50598248  0.75562358  0.75036090  1
  Pd  Pd2  1  0.99473732  0.24437642  0.75036090  1
  Pd  Pd3  1  0.24437642  0.99473732  0.75036090  1
  Pd  Pd4  1  0.00526268  0.75562358  0.24963910  1
  Pd  Pd5  1  0.75562358  0.00526268  0.24963910  1
  Pd  Pd6  1  0.24437642  0.49401752  0.24963910  1
  Pd  Pd7  1  0.75562358  0.50598248  0.75036090  1
  Au  Au0  1  0.50000000  0.00000000  0.50000000  1
  Au  Au1  1  0.00000000  0.50000000  0.50000000  1
  Au  Au2  1  0.50000000  0.50000000  0.00000000  1
loop_
_geom_bond_atom_site_label_1
_geom_bond_atom_site_label_2
_geom_bond_distance
_geom_bond_site_symmetry_2
Mn0 Pd2 2.758140 1_455
Mn0 Pd3 2.758140 1_545
Mn0 Pd1 2.758140 1_555
Mn0 Pd7 2.758141 1_555
Mn0 Pd4 2.799024 1_545
Mn0 Pd5 2.799024 1_455
Mn0 Pd0 2.799035 1_555
Mn0 Pd6 2.799035 1_555
Mn1 Pd4 2.758140 1_655
Mn1 Pd5 2.758140 1_565
Mn1 Pd0 2.758140 1_555
Mn1 Pd6 2.758141 1_555
Mn1 Pd2 2.799024 1_565
Mn1 Pd3 2.799024 1_655
Mn1 Pd1 2.799035 1_555
Mn1 Pd7 2.799035 1_555
Mn2 Pd1 2.758129 1_555
Mn2 Pd6 2.758129 1_556
Mn2 Pd2 2.758140 1_455
Mn2 Pd5 2.758140 1_566
Mn2 Pd0 2.799022 1_566
Mn2 Pd7 2.799023 1_455
Mn2 Pd4 2.799024 1_556
Mn2 Pd3 2.799024 1_555
Mn3 Pd0 2.758129 1_555
Mn3 Pd7 2.758129 1_554
Mn3 Pd4 2.758140 1_655
Mn3 Pd3 2.758140 1_544
Mn3 Pd1 2.799022 1_544
Mn3 Pd6 2.799023 1_655
Mn3 Pd2 2.799024 1_554
Mn3 Pd5 2.799024 1_555
In0 Pd5 2.746077 1_455
In0 Pd3 2.746077 1_544
In0 Pd4 2.746077 1_545
In0 Pd2 2.746077 1_454
In0 Pd6 2.746088 1_555
In0 Pd7 2.746088 1_444
In0 Pd0 2.746088 1_555
In0 Pd1 2.746088 1_444
In0 Mn0 2.983716 1_555
In0 Mn1 2.983716 1_444
In0 Mn2 2.983716 1_544
In0 Mn3 2.983716 1_455
Au0 Pd1 2.750461 1_545
Au0 Pd0 2.750461 1_555
Au0 Pd2 2.750462 1_555
Au0 Pd4 2.750462 1_545
Au0 Pd7 2.807688 1_555
Au0 Pd6 2.807688 1_545
Au0 Pd3 2.807699 1_545
Au0 Pd5 2.807699 1_555
Au0 Mn3 2.891024 1_556
Au0 Mn2 2.891024 1_544
Au0 Mn0 2.891024 1_555
Au0 Mn1 2.891024 1_545
Au1 Pd6 2.750461 1_555
Au1 Pd7 2.750461 1_455
Au1 Pd3 2.750462 1_555
Au1 Pd5 2.750462 1_455
Au1 Pd1 2.807688 1_555
Au1 Pd0 2.807688 1_455
Au1 Pd2 2.807699 1_455
Au1 Pd4 2.807699 1_555
Au1 Mn2 2.891024 1_555
Au1 Mn3 2.891024 1_455
Au1 Mn1 2.891024 1_455
Au1 Mn0 2.891024 1_555
Au2 Mn1 2.795259 1_555
Au2 Mn0 2.795259 1_554
Au2 Mn3 2.795259 1_555
Au2 Mn2 2.795259 1_554
Au2 Pd5 2.803403 1_565
Au2 Pd3 2.803403 1_544
Au2 Pd4 2.803403 1_655
Au2 Pd2 2.803403 1_454
Au2 Pd6 2.803404 1_555
Au2 Pd7 2.803404 1_554
Au2 Pd0 2.803404 1_555
Au2 Pd1 2.803404 1_554
