# generated using pymatgen
data_CaCd2TeO6
_symmetry_space_group_name_H-M   'P 1'
_cell_length_a   6.49055851
_cell_length_b   6.53034923
_cell_length_c   6.50397951
_cell_angle_alpha   90.75477829
_cell_angle_beta   90.93627492
_cell_angle_gamma   90.76731535
_symmetry_Int_Tables_number   1
_chemical_formula_structural   CaCd2TeO6
_chemical_formula_sum   'Ca2 Cd4 Te2 O12'
_cell_volume   275.58891357
_cell_formula_units_Z   2
loop_
 _symmetry_equiv_pos_site_id
 _symmetry_equiv_pos_as_xyz
  1  'x, y, z'
loop_
 _atom_site_type_symbol
 _atom_site_label
 _atom_site_symmetry_multiplicity
 _atom_site_fract_x
 _atom_site_fract_y
 _atom_site_fract_z
 _atom_site_occupancy
  Ca  Ca0  1  0.94213816  0.43770352  0.24942409  1
  Ca  Ca1  1  0.25042235  0.94097717  0.43710463  1
  Cd  Cd0  1  0.43668321  0.25155769  0.94669571  1
  Cd  Cd1  1  0.05465699  0.56352729  0.75071526  1
  Cd  Cd2  1  0.74847459  0.05529664  0.56197602  1
  Cd  Cd3  1  0.56257582  0.75016742  0.05411591  1
  Te  Te0  1  0.50162349  0.49900279  0.50263341  1
  Te  Te1  1  0.99875213  0.00108119  0.99741153  1
  O  O0  1  0.21936186  0.56523500  0.43542909  1
  O  O1  1  0.43337708  0.21751419  0.56197936  1
  O  O2  1  0.56683616  0.43617950  0.21800665  1
  O  O3  1  0.78369190  0.43091174  0.57065754  1
  O  O4  1  0.57164701  0.77979608  0.43660192  1
  O  O5  1  0.43311768  0.56449965  0.78619613  1
  O  O6  1  0.95378398  0.07842852  0.28047368  1
  O  O7  1  0.28420043  0.95696723  0.07542544  1
  O  O8  1  0.07635378  0.28321302  0.95153855  1
  O  O9  1  0.04347530  0.92398371  0.71548549  1
  O  O10  1  0.71266762  0.04479659  0.92188235  1
  O  O11  1  0.92616044  0.71916307  0.04624623  1
loop_
_geom_bond_atom_site_label_1
_geom_bond_atom_site_label_2
_geom_bond_distance
_geom_bond_site_symmetry_2
Ca0 O11 2.280349 1_555
Ca0 O0 2.292802 1_655
Ca0 O3 2.344393 1_555
Ca0 O8 2.357453 1_654
Ca0 O6 2.359628 1_555
Ca0 O2 2.441022 1_555
Ca1 O9 2.274972 1_555
Ca1 O1 2.281088 1_565
Ca1 O4 2.348136 1_555
Ca1 O6 2.357274 1_465
Ca1 O7 2.369652 1_555
Ca1 O0 2.459170 1_555
Cd0 O10 2.264147 1_555
Cd0 O2 2.269136 1_556
Cd0 O5 2.307228 1_555
Cd0 O7 2.323778 1_546
Cd0 O8 2.351300 1_555
Cd0 O1 2.508842 1_555
Cd1 O3 2.253821 1_455
Cd1 O8 2.267302 1_555
Cd1 O0 2.328065 1_555
Cd1 O11 2.333829 1_456
Cd1 O9 2.369997 1_555
Cd1 O5 2.463395 1_555
Cd2 O4 2.257086 1_545
Cd2 O6 2.287431 1_555
Cd2 O1 2.315793 1_555
Cd2 O9 2.324305 1_645
Cd2 O10 2.357912 1_555
Cd2 O3 2.460296 1_555
Cd3 O5 2.254282 1_554
Cd3 O7 2.275119 1_555
Cd3 O2 2.323679 1_555
Cd3 O10 2.326236 1_564
Cd3 O11 2.372564 1_555
Cd3 O4 2.492326 1_555
O0 Te0 1.932489 1_555
O1 Te0 1.930470 1_555
O2 Te0 1.945426 1_555
O3 Te0 1.935391 1_555
O4 Te0 1.938604 1_555
O5 Te0 1.947601 1_555
O6 Te1 1.930472 1_554
O7 Te1 1.939185 1_464
O8 Te1 1.931775 1_455
O9 Te1 1.922752 1_465
O10 Te1 1.938758 1_555
O11 Te1 1.925956 1_564
