# generated using pymatgen
data_Sr2MnAlH10
_symmetry_space_group_name_H-M   'P 1'
_cell_length_a   4.42413182
_cell_length_b   5.10857322
_cell_length_c   12.30571145
_cell_angle_alpha   95.09736174
_cell_angle_beta   90.00000000
_cell_angle_gamma   90.00000000
_symmetry_Int_Tables_number   1
_chemical_formula_structural   Sr2MnAlH10
_chemical_formula_sum   'Sr4 Mn2 Al2 H20'
_cell_volume   277.02147475
_cell_formula_units_Z   2
loop_
 _symmetry_equiv_pos_site_id
 _symmetry_equiv_pos_as_xyz
  1  'x, y, z'
loop_
 _atom_site_type_symbol
 _atom_site_label
 _atom_site_symmetry_multiplicity
 _atom_site_fract_x
 _atom_site_fract_y
 _atom_site_fract_z
 _atom_site_occupancy
  Sr  Sr0  1  0.27984706  0.17958262  0.66231358  1
  Sr  Sr1  1  0.77984706  0.32041738  0.33768642  1
  Sr  Sr2  1  0.23912456  0.78076308  0.14591675  1
  Sr  Sr3  1  0.73912456  0.71923692  0.85408325  1
  Mn  Mn0  1  0.29478013  0.23579809  0.93245836  1
  Mn  Mn1  1  0.79478013  0.26420191  0.06754164  1
  Al  Al0  1  0.17148311  0.84883893  0.41233014  1
  Al  Al1  1  0.67148311  0.65116107  0.58766986  1
  H  H0  1  0.51833282  0.39465708  0.51323953  1
  H  H1  1  0.01833282  0.10534292  0.48676047  1
  H  H2  1  0.01838038  0.45274901  0.99716294  1
  H  H3  1  0.51838038  0.04725099  0.00283706  1
  H  H4  1  0.20926257  0.98717998  0.84328482  1
  H  H5  1  0.70926257  0.51282002  0.15671518  1
  H  H6  1  0.31728045  0.05539893  0.32297251  1
  H  H7  1  0.81728045  0.44460107  0.67702749  1
  H  H8  1  0.21526848  0.45067877  0.84456241  1
  H  H9  1  0.71526848  0.04932123  0.15543759  1
  H  H10  1  0.30049289  0.57664212  0.33549688  1
  H  H11  1  0.80049289  0.92335788  0.66450312  1
  H  H12  1  0.57106210  0.21676139  0.84907796  1
  H  H13  1  0.07106210  0.28323861  0.15092204  1
  H  H14  1  0.86559292  0.82304915  0.32460180  1
  H  H15  1  0.36559292  0.67695085  0.67539820  1
  H  H16  1  0.01961010  0.04653293  0.99727092  1
  H  H17  1  0.51961010  0.45346707  0.00272908  1
  H  H18  1  0.47948142  0.86770197  0.50319281  1
  H  H19  1  0.97948142  0.63229803  0.49680719  1
loop_
_geom_bond_atom_site_label_1
_geom_bond_atom_site_label_2
_geom_bond_distance
_geom_bond_site_symmetry_2
Al0 H1 1.673854 1_565
Al0 H10 1.708707 1_555
Al0 H6 1.716069 1_565
Al0 H14 1.728858 1_455
Al0 H18 1.759858 1_555
Al0 H19 1.797296 1_455
Al1 H0 1.673854 1_555
Al1 H11 1.708707 1_555
Al1 H7 1.716069 1_555
Al1 H15 1.728858 1_555
Al1 H19 1.759858 1_555
Al1 H18 1.797296 1_555
H0 Sr1 2.450257 1_555
H0 Sr0 2.458419 1_555
H1 Sr0 2.450257 1_555
H1 Sr1 2.458419 1_455
H2 Mn1 1.674709 1_456
H2 Mn0 1.789089 1_555
H2 Sr2 2.562696 1_556
H2 Sr3 2.627869 1_455
H3 Mn0 1.674709 1_554
H3 Mn1 1.789089 1_555
H3 Sr3 2.562696 1_544
H3 Sr2 2.627869 1_545
H4 Mn0 1.647045 1_565
H4 Sr3 2.499963 1_455
H4 Sr0 2.532196 1_565
H4 Sr3 2.723745 1_555
H5 Mn1 1.647045 1_555
H5 Sr2 2.499963 1_555
H5 Sr1 2.532196 1_555
H5 Sr2 2.723745 1_655
H6 Sr1 2.451562 1_555
H6 Sr2 2.508371 1_545
H6 Sr1 2.734140 1_455
H7 Sr0 2.451562 1_655
H7 Sr3 2.508371 1_555
H7 Sr0 2.734140 1_555
H8 Mn0 1.646102 1_555
H8 Sr3 2.510946 1_455
H8 Sr0 2.545075 1_555
H8 Sr3 2.690486 1_555
H9 Mn1 1.646102 1_555
H9 Sr2 2.510946 1_545
H9 Sr1 2.545075 1_555
H9 Sr2 2.690486 1_645
H10 Sr1 2.493552 1_555
H10 Sr1 2.650661 1_455
H10 Sr2 2.652521 1_555
H11 Sr0 2.493552 1_665
H11 Sr0 2.650661 1_565
H11 Sr3 2.652521 1_555
H12 Mn0 1.593283 1_555
H12 Sr0 2.626871 1_555
H12 Sr3 2.654126 1_545
H12 Sr3 2.667898 1_555
H13 Mn1 1.593283 1_455
H13 Sr1 2.626871 1_455
H13 Sr2 2.654126 1_555
H13 Sr2 2.667898 1_545
H14 Sr1 2.559885 1_565
H14 Sr1 2.614679 1_555
H14 Sr2 2.743742 1_655
H15 Sr0 2.559885 1_555
H15 Sr0 2.614679 1_565
H15 Sr3 2.743742 1_555
H16 Mn1 1.674148 1_456
H16 Mn0 1.786063 1_555
H16 Sr2 2.563937 1_546
H16 Sr3 2.629962 1_445
H17 Mn0 1.674148 1_554
H17 Mn1 1.786063 1_555
H17 Sr3 2.563937 1_554
H17 Sr2 2.629962 1_555
H18 Sr0 2.568718 1_565
H19 Sr1 2.568718 1_555
