# generated using pymatgen
data_HfZr4BeSn3
_symmetry_space_group_name_H-M   'P 1'
_cell_length_a   8.57819812
_cell_length_b   8.57819891
_cell_length_c   5.83210616
_cell_angle_alpha   90.00000000
_cell_angle_beta   90.00000000
_cell_angle_gamma   119.99999315
_symmetry_Int_Tables_number   1
_chemical_formula_structural   HfZr4BeSn3
_chemical_formula_sum   'Hf2 Zr8 Be2 Sn6'
_cell_volume   371.66209193
_cell_formula_units_Z   2
loop_
 _symmetry_equiv_pos_site_id
 _symmetry_equiv_pos_as_xyz
  1  'x, y, z'
loop_
 _atom_site_type_symbol
 _atom_site_label
 _atom_site_symmetry_multiplicity
 _atom_site_fract_x
 _atom_site_fract_y
 _atom_site_fract_z
 _atom_site_occupancy
  Hf  Hf0  1  0.66666700  0.33333300  0.00000000  1
  Hf  Hf1  1  0.33333300  0.66666700  0.00000000  1
  Zr  Zr0  1  0.33333300  0.66666700  0.50000000  1
  Zr  Zr1  1  0.66666700  0.33333300  0.50000000  1
  Zr  Zr2  1  0.74947222  0.74947222  0.74837578  1
  Zr  Zr3  1  0.25052778  0.00000000  0.74837578  1
  Zr  Zr4  1  0.00000000  0.25052778  0.74837578  1
  Zr  Zr5  1  0.25052778  0.25052778  0.25162422  1
  Zr  Zr6  1  0.74947222  1.00000000  0.25162422  1
  Zr  Zr7  1  1.00000000  0.74947222  0.25162422  1
  Be  Be0  1  0.00000000  0.00000000  0.00000000  1
  Be  Be1  1  0.00000000  0.00000000  0.50000000  1
  Sn  Sn0  1  0.39044809  0.39044809  0.75268507  1
  Sn  Sn1  1  0.60955191  0.00000000  0.75268507  1
  Sn  Sn2  1  0.00000000  0.60955191  0.75268507  1
  Sn  Sn3  1  0.60955191  0.60955191  0.24731493  1
  Sn  Sn4  1  0.39044809  1.00000000  0.24731493  1
  Sn  Sn5  1  1.00000000  0.39044809  0.24731493  1
loop_
_geom_bond_atom_site_label_1
_geom_bond_atom_site_label_2
_geom_bond_distance
_geom_bond_site_symmetry_2
Hf0 Zr1 2.916053 1_554
Hf0 Zr1 2.916053 1_555
Hf0 Sn5 3.015903 1_555
Hf0 Sn1 3.015903 1_554
Hf0 Sn2 3.015906 1_654
Hf0 Sn4 3.015906 1_545
Hf0 Sn0 3.015910 1_554
Hf0 Sn3 3.015911 1_555
Hf1 Zr0 2.916053 1_554
Hf1 Zr0 2.916053 1_555
Hf1 Sn2 3.015903 1_554
Hf1 Sn4 3.015903 1_555
Hf1 Sn5 3.015906 1_455
Hf1 Sn1 3.015906 1_564
Hf1 Sn3 3.015910 1_555
Hf1 Sn0 3.015911 1_554
Be0 Zr6 2.602323 1_445
Be0 Zr3 2.602323 1_554
Be0 Zr7 2.602323 1_445
Be0 Zr4 2.602323 1_554
Be0 Zr5 2.602323 1_555
Be0 Zr2 2.602323 1_444
Be1 Zr3 2.591687 1_555
Be1 Zr6 2.591687 1_445
Be1 Zr4 2.591687 1_555
Be1 Zr7 2.591687 1_445
Be1 Zr2 2.591687 1_445
Be1 Zr5 2.591687 1_555
Sn0 Zr4 2.939261 1_555
Sn0 Zr3 2.939262 1_555
Sn0 Zr1 3.031014 1_555
Sn0 Zr0 3.031014 1_555
Sn0 Zr2 3.079883 1_555
Sn0 Zr5 3.147690 1_556
Sn0 Zr5 3.159133 1_555
Sn1 Zr2 2.939261 1_545
Sn1 Zr4 2.939262 1_655
Sn1 Zr1 3.031007 1_555
Sn1 Zr0 3.031009 1_545
Sn1 Zr3 3.079883 1_555
Sn1 Zr6 3.147690 1_546
Sn1 Zr6 3.159133 1_545
Sn2 Zr2 2.939261 1_455
Sn2 Zr3 2.939262 1_565
Sn2 Zr0 3.031006 1_555
Sn2 Zr1 3.031009 1_455
Sn2 Zr4 3.079883 1_555
Sn2 Zr7 3.147690 1_456
Sn2 Zr7 3.159133 1_455
Sn3 Zr7 2.939261 1_555
Sn3 Zr6 2.939262 1_555
Sn3 Zr0 3.031014 1_555
Sn3 Zr1 3.031014 1_555
Sn3 Zr5 3.079883 1_555
Sn3 Zr2 3.147690 1_554
Sn3 Zr2 3.159133 1_555
Sn4 Zr5 2.939261 1_565
Sn4 Zr7 2.939262 1_455
Sn4 Zr0 3.031007 1_555
Sn4 Zr1 3.031009 1_565
Sn4 Zr6 3.079883 1_555
Sn4 Zr3 3.147690 1_564
Sn4 Zr3 3.159133 1_565
Sn5 Zr5 2.939261 1_655
Sn5 Zr6 2.939262 1_545
Sn5 Zr1 3.031006 1_555
Sn5 Zr0 3.031009 1_655
Sn5 Zr7 3.079883 1_555
Sn5 Zr4 3.147690 1_654
Sn5 Zr4 3.159133 1_655
