# generated using pymatgen
data_Rb4ScWBr12
_symmetry_space_group_name_H-M   'P 1'
_cell_length_a   7.67483686
_cell_length_b   7.67483686
_cell_length_c   10.28326765
_cell_angle_alpha   90.00000000
_cell_angle_beta   90.00000000
_cell_angle_gamma   90.00000000
_symmetry_Int_Tables_number   1
_chemical_formula_structural   Rb4ScWBr12
_chemical_formula_sum   'Rb4 Sc1 W1 Br12'
_cell_volume   605.71655664
_cell_formula_units_Z   1
loop_
 _symmetry_equiv_pos_site_id
 _symmetry_equiv_pos_as_xyz
  1  'x, y, z'
loop_
 _atom_site_type_symbol
 _atom_site_label
 _atom_site_symmetry_multiplicity
 _atom_site_fract_x
 _atom_site_fract_y
 _atom_site_fract_z
 _atom_site_occupancy
  Rb  Rb0  1  0.50000000  0.00000000  0.77186101  1
  Rb  Rb1  1  0.00000000  0.50000000  0.22813899  1
  Rb  Rb2  1  0.50000000  0.00000000  0.22813899  1
  Rb  Rb3  1  0.00000000  0.50000000  0.77186101  1
  Sc  Sc0  1  0.00000000  0.00000000  0.00000000  1
  W  W0  1  0.50000000  0.50000000  0.50000000  1
  Br  Br0  1  0.00000000  0.00000000  0.74259012  1
  Br  Br1  1  0.50000000  0.50000000  0.25918627  1
  Br  Br2  1  0.73182261  0.73182261  0.50000000  1
  Br  Br3  1  0.24540258  0.24540258  0.00000000  1
  Br  Br4  1  0.73182261  0.26817739  0.50000000  1
  Br  Br5  1  0.24540258  0.75459742  0.00000000  1
  Br  Br6  1  0.00000000  0.00000000  0.25740988  1
  Br  Br7  1  0.50000000  0.50000000  0.74081373  1
  Br  Br8  1  0.26817739  0.26817739  0.50000000  1
  Br  Br9  1  0.75459742  0.75459742  0.00000000  1
  Br  Br10  1  0.26817739  0.73182261  0.50000000  1
  Br  Br11  1  0.75459742  0.24540258  0.00000000  1
loop_
_geom_bond_atom_site_label_1
_geom_bond_atom_site_label_2
_geom_bond_distance
_geom_bond_site_symmetry_2
Br0 Sc0 2.647015 1_556
Br0 Rb0 3.849205 1_455
Br0 Rb0 3.849205 1_555
Br0 Rb3 3.849205 1_545
Br0 Rb3 3.849205 1_555
Br1 W0 2.476352 1_555
Br1 Rb1 3.850677 1_655
Br1 Rb2 3.850677 1_555
Br1 Rb2 3.850677 1_565
Br1 Rb1 3.850677 1_555
Br2 W0 2.516170 1_555
Br2 Rb0 3.900936 1_565
Br2 Rb3 3.900936 1_655
Br2 Rb2 3.900936 1_565
Br2 Rb1 3.900936 1_655
Br3 Sc0 2.663565 1_555
Br3 Rb1 3.587362 1_555
Br3 Rb2 3.587362 1_555
Br3 Rb0 3.587362 1_554
Br3 Rb3 3.587362 1_554
Br4 W0 2.516170 1_555
Br4 Rb0 3.900936 1_555
Br4 Rb3 3.900936 1_655
Br4 Rb2 3.900936 1_555
Br4 Rb1 3.900936 1_655
Br5 Sc0 2.663565 1_565
Br5 Rb1 3.587362 1_555
Br5 Rb3 3.587362 1_554
Br5 Rb2 3.587362 1_565
Br5 Rb0 3.587362 1_564
Br6 Sc0 2.647015 1_555
Br6 Rb1 3.849205 1_545
Br6 Rb2 3.849205 1_555
Br6 Rb1 3.849205 1_555
Br6 Rb2 3.849205 1_455
Br7 W0 2.476352 1_555
Br7 Rb3 3.850677 1_655
Br7 Rb0 3.850677 1_555
Br7 Rb0 3.850677 1_565
Br7 Rb3 3.850677 1_555
Br8 W0 2.516170 1_555
Br8 Rb3 3.900936 1_555
Br8 Rb0 3.900936 1_555
Br8 Rb2 3.900936 1_555
Br8 Rb1 3.900936 1_555
Br9 Sc0 2.663565 1_665
Br9 Rb1 3.587362 1_655
Br9 Rb2 3.587362 1_565
Br9 Rb0 3.587362 1_564
Br9 Rb3 3.587362 1_654
Br10 W0 2.516170 1_555
Br10 Rb3 3.900936 1_555
Br10 Rb0 3.900936 1_565
Br10 Rb1 3.900936 1_555
Br10 Rb2 3.900936 1_565
Br11 Sc0 2.663565 1_655
Br11 Rb2 3.587362 1_555
Br11 Rb0 3.587362 1_554
Br11 Rb1 3.587362 1_655
Br11 Rb3 3.587362 1_654
