# generated using pymatgen
data_Al2Ga2Pd7Au
_symmetry_space_group_name_H-M   'P 1'
_cell_length_a   4.06869962
_cell_length_b   5.51991464
_cell_length_c   7.87823414
_cell_angle_alpha   89.36678224
_cell_angle_beta   90.00000000
_cell_angle_gamma   90.00000000
_symmetry_Int_Tables_number   1
_chemical_formula_structural   Al2Ga2Pd7Au
_chemical_formula_sum   'Al2 Ga2 Pd7 Au1'
_cell_volume   176.92546719
_cell_formula_units_Z   1
loop_
 _symmetry_equiv_pos_site_id
 _symmetry_equiv_pos_as_xyz
  1  'x, y, z'
loop_
 _atom_site_type_symbol
 _atom_site_label
 _atom_site_symmetry_multiplicity
 _atom_site_fract_x
 _atom_site_fract_y
 _atom_site_fract_z
 _atom_site_occupancy
  Al  Al0  1  0.75000000  0.29193154  0.61642984  1
  Al  Al1  1  0.25000000  0.71937552  0.39461436  1
  Ga  Ga0  1  0.75000000  0.79371630  0.88905472  1
  Ga  Ga1  1  0.25000000  0.18852486  0.10113581  1
  Pd  Pd0  1  0.25000000  0.54343375  0.70489040  1
  Pd  Pd1  1  0.75000000  0.95400617  0.20682126  1
  Pd  Pd2  1  0.25000000  0.04495105  0.79054334  1
  Pd  Pd3  1  0.75000000  0.33693696  0.93394920  1
  Pd  Pd4  1  0.25000000  0.65850743  0.06764898  1
  Pd  Pd5  1  0.75000000  0.83959442  0.56579842  1
  Pd  Pd6  1  0.25000000  0.17140202  0.43506128  1
  Au  Au0  1  0.75000000  0.45762098  0.29405340  1
loop_
_geom_bond_atom_site_label_1
_geom_bond_atom_site_label_2
_geom_bond_distance
_geom_bond_site_symmetry_2
Al0 Pd3 2.516528 1_555
Al0 Pd5 2.532873 1_545
Al0 Pd0 2.563776 1_655
Al0 Pd0 2.563776 1_555
Al0 Pd6 2.577573 1_655
Al0 Pd6 2.577573 1_555
Al0 Au0 2.689889 1_555
Al0 Pd2 2.799543 1_555
Al0 Pd2 2.799543 1_655
Al0 Pd5 3.044881 1_555
Al1 Pd6 2.518903 1_565
Al1 Pd5 2.533283 1_455
Al1 Pd5 2.533283 1_555
Al1 Pd4 2.601409 1_555
Al1 Pd0 2.620296 1_555
Al1 Au0 2.622815 1_555
Al1 Au0 2.622815 1_455
Al1 Pd1 2.821785 1_555
Al1 Pd1 2.821785 1_455
Al1 Pd6 3.038001 1_555
Ga0 Pd3 2.542195 1_555
Ga0 Pd5 2.556463 1_555
Ga0 Pd2 2.576881 1_565
Ga0 Pd2 2.576881 1_665
Ga0 Pd4 2.579160 1_556
Ga0 Pd4 2.579160 1_656
Ga0 Pd1 2.664397 1_556
Ga0 Pd0 2.862973 1_655
Ga0 Pd0 2.862973 1_555
Ga0 Pd3 3.023199 1_565
Ga1 Pd1 2.546329 1_545
Ga1 Pd1 2.546329 1_445
Ga1 Pd3 2.553566 1_554
Ga1 Pd3 2.553566 1_454
Ga1 Pd2 2.580380 1_554
Ga1 Pd4 2.604741 1_555
Ga1 Pd6 2.631396 1_555
Ga1 Pd4 2.940424 1_545
Pd0 Pd6 2.971973 1_555
Pd1 Pd6 2.976500 1_565
Pd1 Pd6 2.976500 1_665
Pd2 Pd6 2.878748 1_555
Pd5 Pd6 2.917587 1_565
Pd5 Pd6 2.917587 1_665
Au0 Pd6 2.798208 1_655
Au0 Pd6 2.798208 1_555
Au0 Pd1 2.817498 1_555
Au0 Pd1 2.870962 1_545
Au0 Pd4 2.916494 1_555
Au0 Pd4 2.916494 1_655
Au0 Pd3 2.921307 1_554
Au0 Ga1 2.950390 1_555
Au0 Ga1 2.950390 1_655
Au0 Pd5 3.021375 1_555
