# generated using pymatgen
data_Ce2SO2
_symmetry_space_group_name_H-M   'P 1'
_cell_length_a   3.97925610
_cell_length_b   3.97925672
_cell_length_c   6.87462908
_cell_angle_alpha   90.00000000
_cell_angle_beta   90.00000000
_cell_angle_gamma   120.00001240
_symmetry_Int_Tables_number   1
_chemical_formula_structural   Ce2SO2
_chemical_formula_sum   'Ce2 S1 O2'
_cell_volume   94.27221205
_cell_formula_units_Z   1
loop_
 _symmetry_equiv_pos_site_id
 _symmetry_equiv_pos_as_xyz
  1  'x, y, z'
loop_
 _atom_site_type_symbol
 _atom_site_label
 _atom_site_symmetry_multiplicity
 _atom_site_fract_x
 _atom_site_fract_y
 _atom_site_fract_z
 _atom_site_occupancy
  Ce  Ce0  1  0.66666700  0.33333300  0.72020397  1
  Ce  Ce1  1  0.33333300  0.66666700  0.27979603  1
  S  S0  1  -0.00000000  -0.00000000  0.00000000  1
  O  O0  1  0.33333300  0.66666700  0.62666475  1
  O  O1  1  0.66666700  0.33333300  0.37333525  1
loop_
_geom_bond_atom_site_label_1
_geom_bond_atom_site_label_2
_geom_bond_distance
_geom_bond_site_symmetry_2
Ce0 O1 2.384594 1_555
Ce0 O0 2.385720 1_655
Ce0 O0 2.385720 1_545
Ce0 O0 2.385727 1_555
Ce0 S0 2.996328 1_656
Ce0 S0 2.996330 1_556
Ce0 S0 2.996330 1_666
Ce1 O0 2.384594 1_555
Ce1 O1 2.385720 1_455
Ce1 O1 2.385720 1_565
Ce1 O1 2.385727 1_555
Ce1 S0 2.996328 1_565
Ce1 S0 2.996330 1_665
Ce1 S0 2.996330 1_555
