# generated using pymatgen
data_KNa3(ZrSe2)8
_symmetry_space_group_name_H-M   'P 1'
_cell_length_a   6.56757200
_cell_length_b   7.58493346
_cell_length_c   15.17802635
_cell_angle_alpha   90.00000000
_cell_angle_beta   90.00000000
_cell_angle_gamma   90.00000000
_symmetry_Int_Tables_number   1
_chemical_formula_structural   KNa3(ZrSe2)8
_chemical_formula_sum   'K1 Na3 Zr8 Se16'
_cell_volume   756.08726102
_cell_formula_units_Z   1
loop_
 _symmetry_equiv_pos_site_id
 _symmetry_equiv_pos_as_xyz
  1  'x, y, z'
loop_
 _atom_site_type_symbol
 _atom_site_label
 _atom_site_symmetry_multiplicity
 _atom_site_fract_x
 _atom_site_fract_y
 _atom_site_fract_z
 _atom_site_occupancy
  K  K0  1  0.65890043  0.50000000  0.50000000  1
  Na  Na0  1  0.34295380  0.00000000  0.00000000  1
  Na  Na1  1  0.01923566  0.00000000  0.50000000  1
  Na  Na2  1  0.98595123  0.50000000  0.00000000  1
  Zr  Zr0  1  0.00018638  0.00000000  0.24151887  1
  Zr  Zr1  1  0.00018638  0.00000000  0.75848113  1
  Zr  Zr2  1  0.99843505  0.50000000  0.24450934  1
  Zr  Zr3  1  0.99843505  0.50000000  0.75549066  1
  Zr  Zr4  1  0.49973407  0.24957580  0.24442471  1
  Zr  Zr5  1  0.49973407  0.75042420  0.75557529  1
  Zr  Zr6  1  0.49973407  0.75042420  0.24442471  1
  Zr  Zr7  1  0.49973407  0.24957580  0.75557529  1
  Se  Se0  1  0.83594813  0.24621501  0.34986223  1
  Se  Se1  1  0.83594813  0.75378499  0.65013777  1
  Se  Se2  1  0.16690838  0.74875005  0.13696962  1
  Se  Se3  1  0.16690838  0.25124995  0.86303038  1
  Se  Se4  1  0.16690838  0.25124995  0.13696962  1
  Se  Se5  1  0.16690838  0.74875005  0.86303038  1
  Se  Se6  1  0.83594813  0.75378499  0.34986223  1
  Se  Se7  1  0.83594813  0.24621501  0.65013777  1
  Se  Se8  1  0.66626770  0.00000000  0.13833852  1
  Se  Se9  1  0.66626770  0.00000000  0.86166148  1
  Se  Se10  1  0.32898373  0.50000000  0.34835463  1
  Se  Se11  1  0.32898373  0.50000000  0.65164537  1
  Se  Se12  1  0.33234512  0.00000000  0.34962838  1
  Se  Se13  1  0.33234512  0.00000000  0.65037162  1
  Se  Se14  1  0.66508181  0.50000000  0.13935043  1
  Se  Se15  1  0.66508181  0.50000000  0.86064957  1
loop_
_geom_bond_atom_site_label_1
_geom_bond_atom_site_label_2
_geom_bond_distance
_geom_bond_site_symmetry_2
K0 Se10 3.161097 1_555
K0 Se11 3.161097 1_555
K0 Se1 3.201617 1_555
K0 Se7 3.201617 1_555
K0 Se6 3.201617 1_555
K0 Se0 3.201617 1_555
Na0 Se9 2.986225 1_554
Na0 Se8 2.986225 1_555
Na0 Se3 3.048027 1_554
Na0 Se4 3.048027 1_555
Na0 Se5 3.048027 1_544
Na0 Se2 3.048027 1_545
Na1 Se12 3.072092 1_555
Na1 Se13 3.072092 1_555
Na1 Se7 3.182700 1_455
Na1 Se1 3.182700 1_445
Na1 Se0 3.182700 1_455
Na1 Se6 3.182700 1_445
Na2 Se14 2.985691 1_555
Na2 Se15 2.985691 1_554
Na2 Se5 3.048637 1_654
Na2 Se2 3.048637 1_655
Na2 Se3 3.048637 1_654
Na2 Se4 3.048637 1_655
Se0 Zr0 2.712066 1_655
Se0 Zr2 2.720507 1_555
Se0 Zr4 2.727172 1_555
Se1 Zr1 2.712066 1_665
Se1 Zr3 2.720507 1_555
Se1 Zr5 2.727172 1_555
Se2 Zr0 2.710863 1_565
Se2 Zr6 2.727297 1_555
Se2 Zr2 2.729157 1_455
Se3 Zr1 2.710863 1_555
Se3 Zr7 2.727297 1_555
Se3 Zr3 2.729157 1_455
Se4 Zr0 2.710863 1_555
Se4 Zr4 2.727297 1_555
Se4 Zr2 2.729157 1_455
Se5 Zr1 2.710863 1_565
Se5 Zr5 2.727297 1_555
Se5 Zr3 2.729157 1_455
Se6 Zr0 2.712066 1_665
Se6 Zr2 2.720507 1_555
Se6 Zr6 2.727172 1_555
Se7 Zr1 2.712066 1_655
Se7 Zr3 2.720507 1_555
Se7 Zr7 2.727172 1_555
Se8 Zr0 2.694808 1_655
Se8 Zr4 2.715219 1_555
Se8 Zr6 2.715219 1_545
Se9 Zr1 2.694808 1_655
Se9 Zr7 2.715219 1_555
Se9 Zr5 2.715219 1_545
Se10 Zr2 2.682744 1_455
Se10 Zr6 2.711796 1_555
Se10 Zr4 2.711796 1_555
Se11 Zr3 2.682744 1_455
Se11 Zr5 2.711796 1_555
Se11 Zr7 2.711796 1_555
Se12 Zr4 2.709571 1_555
Se12 Zr6 2.709571 1_545
Se12 Zr0 2.729717 1_555
Se13 Zr7 2.709571 1_555
Se13 Zr5 2.709571 1_545
Se13 Zr1 2.729717 1_555
Se14 Zr6 2.707511 1_555
Se14 Zr4 2.707511 1_555
Se14 Zr2 2.709369 1_555
Se15 Zr5 2.707511 1_555
Se15 Zr7 2.707511 1_555
Se15 Zr3 2.709369 1_555
