# generated using pymatgen
data_Lu2Al4NiPd
_symmetry_space_group_name_H-M   'P 1'
_cell_length_a   5.33714668
_cell_length_b   5.33714826
_cell_length_c   6.88399171
_cell_angle_alpha   90.00000000
_cell_angle_beta   90.00000000
_cell_angle_gamma   134.55712285
_symmetry_Int_Tables_number   1
_chemical_formula_structural   Lu2Al4NiPd
_chemical_formula_sum   'Lu2 Al4 Ni1 Pd1'
_cell_volume   139.72524561
_cell_formula_units_Z   1
loop_
 _symmetry_equiv_pos_site_id
 _symmetry_equiv_pos_as_xyz
  1  'x, y, z'
loop_
 _atom_site_type_symbol
 _atom_site_label
 _atom_site_symmetry_multiplicity
 _atom_site_fract_x
 _atom_site_fract_y
 _atom_site_fract_z
 _atom_site_occupancy
  Lu  Lu0  1  0.56815641  0.43184359  0.25000000  1
  Lu  Lu1  1  0.43481705  0.56518295  0.75000000  1
  Al  Al0  1  0.85154135  0.14845865  0.04433305  1
  Al  Al1  1  0.14735959  0.85264041  0.93975042  1
  Al  Al2  1  0.14735959  0.85264041  0.56024958  1
  Al  Al3  1  0.85154135  0.14845865  0.45566695  1
  Ni  Ni0  1  0.71189027  0.28810973  0.75000000  1
  Pd  Pd0  1  0.28733540  0.71266460  0.25000000  1
loop_
_geom_bond_atom_site_label_1
_geom_bond_atom_site_label_2
_geom_bond_distance
_geom_bond_site_symmetry_2
Lu0 Pd0 2.764936 1_555
Lu0 Pd0 2.984413 1_655
Lu0 Pd0 2.984414 1_545
Lu1 Ni0 2.728036 1_555
Lu1 Ni0 3.011204 1_455
Lu1 Ni0 3.011205 1_565
Al0 Ni0 2.448679 1_554
Al0 Pd0 2.579505 1_545
Al0 Pd0 2.579506 1_655
Al0 Al3 2.831619 1_555
Al0 Al1 2.968087 1_544
Al0 Al1 2.968088 1_654
Al0 Al1 3.000257 1_644
Al0 Lu1 3.004564 1_654
Al0 Lu1 3.004564 1_544
Al0 Lu0 3.128837 1_555
Al0 Lu0 3.286780 1_655
Al0 Lu0 3.286781 1_545
Al1 Ni0 2.521834 1_565
Al1 Ni0 2.521834 1_455
Al1 Pd0 2.541821 1_556
Al1 Al2 2.612481 1_555
Al1 Lu0 3.069084 1_456
Al1 Lu0 3.069085 1_566
Al1 Lu1 3.117168 1_555
Al1 Lu1 3.214847 1_455
Al1 Lu1 3.214848 1_565
Al2 Ni0 2.521834 1_565
Al2 Ni0 2.521834 1_455
Al2 Pd0 2.541821 1_555
Al2 Al3 2.968087 1_565
Al2 Al3 2.968088 1_455
Al2 Al3 3.000257 1_465
Al2 Lu0 3.069084 1_455
Al2 Lu0 3.069085 1_565
Al2 Lu1 3.117168 1_555
Al2 Lu1 3.214847 1_455
Al2 Lu1 3.214848 1_565
Al3 Ni0 2.448679 1_555
Al3 Pd0 2.579505 1_545
Al3 Pd0 2.579506 1_655
Al3 Lu1 3.004564 1_655
Al3 Lu1 3.004564 1_545
Al3 Lu0 3.128837 1_555
Al3 Lu0 3.286780 1_655
Al3 Lu0 3.286781 1_545
