# generated using pymatgen
data_TcH3O5
_symmetry_space_group_name_H-M   'P 1'
_cell_length_a   6.00898378
_cell_length_b   6.17696937
_cell_length_c   7.05178475
_cell_angle_alpha   112.74533087
_cell_angle_beta   116.89150421
_cell_angle_gamma   92.47020364
_symmetry_Int_Tables_number   1
_chemical_formula_structural   TcH3O5
_chemical_formula_sum   'Tc2 H6 O10'
_cell_volume   207.58788605
_cell_formula_units_Z   2
loop_
 _symmetry_equiv_pos_site_id
 _symmetry_equiv_pos_as_xyz
  1  'x, y, z'
loop_
 _atom_site_type_symbol
 _atom_site_label
 _atom_site_symmetry_multiplicity
 _atom_site_fract_x
 _atom_site_fract_y
 _atom_site_fract_z
 _atom_site_occupancy
  Tc  Tc0  1  0.88050380  0.15055785  0.77138368  1
  Tc  Tc1  1  0.11359723  0.89736019  0.26364759  1
  H  H0  1  0.26548033  0.43601550  0.62344677  1
  H  H1  1  0.53980877  0.64591447  0.85940384  1
  H  H2  1  0.34990497  0.69461875  0.62516074  1
  H  H3  1  0.45221911  0.36245243  0.14258093  1
  H  H4  1  0.65529690  0.30930231  0.36818368  1
  H  H5  1  0.69719305  0.26048078  0.13567814  1
  O  O0  1  0.35760014  0.61491304  0.72849937  1
  O  O1  1  0.63707064  0.36302853  0.24539516  1
  O  O2  1  0.68095945  0.25867664  0.58242633  1
  O  O3  1  0.90725740  0.88034504  0.61064346  1
  O  O4  1  0.81349124  0.69333924  0.07186887  1
  O  O5  1  0.23655527  0.94039940  0.10444265  1
  O  O6  1  0.31741610  0.78374462  0.44205832  1
  O  O7  1  0.09156992  0.17253180  0.43795088  1
  O  O8  1  0.18028306  0.35576418  0.96094648  1
  O  O9  1  0.75291964  0.11455523  0.93572910  1
loop_
_geom_bond_atom_site_label_1
_geom_bond_atom_site_label_2
_geom_bond_distance
_geom_bond_site_symmetry_2
H0 O0 1.009769 1_555
H0 O7 1.556462 1_555
H1 O0 1.009223 1_555
H1 O4 1.557342 1_556
H2 O0 1.012169 1_555
H2 O6 1.529476 1_555
H3 O1 1.014217 1_555
H3 O8 1.540249 1_554
H4 O1 1.005696 1_555
H4 O2 1.600875 1_555
H5 O1 1.011919 1_555
H5 O9 1.543714 1_554
O2 Tc0 1.723696 1_555
O3 Tc0 1.679749 1_565
O4 Tc1 1.717319 1_655
O5 Tc1 1.685591 1_555
O6 Tc1 1.714159 1_555
O7 Tc1 1.722914 1_545
O8 Tc0 1.718487 1_455
O9 Tc0 1.722980 1_555
