# generated using pymatgen
data_Tc2PtBr12
_symmetry_space_group_name_H-M   'P 1'
_cell_length_a   8.94535156
_cell_length_b   8.94535094
_cell_length_c   6.64302179
_cell_angle_alpha   72.74824373
_cell_angle_beta   72.74824476
_cell_angle_gamma   79.03127748
_symmetry_Int_Tables_number   1
_chemical_formula_structural   Tc2PtBr12
_chemical_formula_sum   'Tc2 Pt1 Br12'
_cell_volume   481.75562398
_cell_formula_units_Z   1
loop_
 _symmetry_equiv_pos_site_id
 _symmetry_equiv_pos_as_xyz
  1  'x, y, z'
loop_
 _atom_site_type_symbol
 _atom_site_label
 _atom_site_symmetry_multiplicity
 _atom_site_fract_x
 _atom_site_fract_y
 _atom_site_fract_z
 _atom_site_occupancy
  Tc  Tc0  1  0.26148140  0.26148140  0.73266514  1
  Tc  Tc1  1  0.73851860  0.73851860  0.26733486  1
  Pt  Pt0  1  0.00000000  0.00000000  0.00000000  1
  Br  Br0  1  0.96092303  0.25904532  0.73677257  1
  Br  Br1  1  0.25904532  0.96092303  0.73677257  1
  Br  Br2  1  0.03907697  0.74095468  0.26322743  1
  Br  Br3  1  0.74095468  0.03907697  0.26322743  1
  Br  Br4  1  0.21014328  0.52330067  0.78034291  1
  Br  Br5  1  0.52330067  0.21014328  0.78034291  1
  Br  Br6  1  0.78985672  0.47669933  0.21965709  1
  Br  Br7  1  0.47669933  0.78985672  0.21965709  1
  Br  Br8  1  0.13835421  0.13835421  0.15599238  1
  Br  Br9  1  0.86164579  0.86164579  0.84400762  1
  Br  Br10  1  0.65967956  0.65967956  0.66049197  1
  Br  Br11  1  0.34032044  0.34032044  0.33950803  1
loop_
_geom_bond_atom_site_label_1
_geom_bond_atom_site_label_2
_geom_bond_distance
_geom_bond_site_symmetry_2
Br0 Pt0 2.490066 1_656
Br0 Tc0 2.684813 1_655
Br1 Pt0 2.490066 1_566
Br1 Tc0 2.684813 1_565
Br2 Pt0 2.490066 1_565
Br2 Tc1 2.684813 1_455
Br3 Pt0 2.490066 1_655
Br3 Tc1 2.684813 1_545
Br4 Tc0 2.396016 1_555
Br5 Tc0 2.396016 1_555
Br6 Tc1 2.396016 1_555
Br7 Tc1 2.396016 1_555
Br8 Pt0 2.498316 1_555
Br8 Tc0 2.668676 1_554
Br9 Pt0 2.498316 1_666
Br9 Tc1 2.668676 1_556
Br10 Tc1 2.412512 1_555
Br11 Tc0 2.412512 1_555
