# generated using pymatgen
data_Ca6Tc2SeN6
_symmetry_space_group_name_H-M   'P 1'
_cell_length_a   6.22203762
_cell_length_b   6.22203780
_cell_length_c   6.22203865
_cell_angle_alpha   95.80657131
_cell_angle_beta   95.80658441
_cell_angle_gamma   95.80658291
_symmetry_Int_Tables_number   1
_chemical_formula_structural   Ca6Tc2SeN6
_chemical_formula_sum   'Ca6 Tc2 Se1 N6'
_cell_volume   236.89788218
_cell_formula_units_Z   1
loop_
 _symmetry_equiv_pos_site_id
 _symmetry_equiv_pos_as_xyz
  1  'x, y, z'
loop_
 _atom_site_type_symbol
 _atom_site_label
 _atom_site_symmetry_multiplicity
 _atom_site_fract_x
 _atom_site_fract_y
 _atom_site_fract_z
 _atom_site_occupancy
  Ca  Ca0  1  0.61308326  0.11199901  0.78939191  1
  Ca  Ca1  1  0.11199901  0.78939191  0.61308326  1
  Ca  Ca2  1  0.78939191  0.61308326  0.11199901  1
  Ca  Ca3  1  0.38691674  0.88800099  0.21060809  1
  Ca  Ca4  1  0.88800099  0.21060809  0.38691674  1
  Ca  Ca5  1  0.21060809  0.38691674  0.88800099  1
  Tc  Tc0  1  0.61987268  0.61987268  0.61987268  1
  Tc  Tc1  1  0.38012732  0.38012732  0.38012732  1
  Se  Se0  1  0.00000000  0.00000000  0.00000000  1
  N  N0  1  0.71996016  0.84729712  0.46338014  1
  N  N1  1  0.84729712  0.46338014  0.71996016  1
  N  N2  1  0.46338014  0.71996016  0.84729712  1
  N  N3  1  0.28003984  0.15270288  0.53661986  1
  N  N4  1  0.15270288  0.53661986  0.28003984  1
  N  N5  1  0.53661986  0.28003984  0.15270288  1
loop_
_geom_bond_atom_site_label_1
_geom_bond_atom_site_label_2
_geom_bond_distance
_geom_bond_site_symmetry_2
Ca0 N5 2.503913 1_556
Ca0 N3 2.521725 1_555
Ca0 N2 2.594900 1_545
Ca0 N1 2.600784 1_555
Ca0 N0 2.662326 1_545
Ca0 Se0 2.807903 1_656
Ca1 N3 2.503912 1_565
Ca1 N4 2.521725 1_555
Ca1 N0 2.594900 1_455
Ca1 N2 2.600784 1_555
Ca1 N1 2.662325 1_455
Ca1 Se0 2.807904 1_566
Ca2 N4 2.503912 1_655
Ca2 N5 2.521725 1_555
Ca2 N1 2.594900 1_554
Ca2 N0 2.600784 1_555
Ca2 N2 2.662325 1_554
Ca2 Se0 2.807903 1_665
Ca3 N2 2.503913 1_554
Ca3 N0 2.521725 1_555
Ca3 N5 2.594900 1_565
Ca3 N4 2.600784 1_555
Ca3 N3 2.662326 1_565
Ca3 Se0 2.807903 1_565
Ca4 N0 2.503912 1_545
Ca4 N1 2.521725 1_555
Ca4 N3 2.594900 1_655
Ca4 N5 2.600784 1_555
Ca4 N4 2.662325 1_655
Ca4 Se0 2.807904 1_655
Ca5 N1 2.503912 1_455
Ca5 N2 2.521725 1_555
Ca5 N4 2.594900 1_556
Ca5 N3 2.600784 1_555
Ca5 N5 2.662325 1_556
Ca5 Se0 2.807903 1_556
N0 Tc0 1.887178 1_555
N1 Tc0 1.887178 1_555
N2 Tc0 1.887178 1_555
N3 Tc1 1.887178 1_555
N4 Tc1 1.887178 1_555
N5 Tc1 1.887178 1_555
