# generated using pymatgen
data_K2Mn(GeO3)2
_symmetry_space_group_name_H-M   'P 1'
_cell_length_a   5.96282934
_cell_length_b   5.96282974
_cell_length_c   10.88557610
_cell_angle_alpha   90.00000000
_cell_angle_beta   90.00000000
_cell_angle_gamma   114.82095758
_symmetry_Int_Tables_number   1
_chemical_formula_structural   K2Mn(GeO3)2
_chemical_formula_sum   'K4 Mn2 Ge4 O12'
_cell_volume   351.28707737
_cell_formula_units_Z   2
loop_
 _symmetry_equiv_pos_site_id
 _symmetry_equiv_pos_as_xyz
  1  'x, y, z'
loop_
 _atom_site_type_symbol
 _atom_site_label
 _atom_site_symmetry_multiplicity
 _atom_site_fract_x
 _atom_site_fract_y
 _atom_site_fract_z
 _atom_site_occupancy
  K  K0  1  0.77393416  0.43210526  0.91995325  1
  K  K1  1  0.56789474  0.22606584  0.58004675  1
  K  K2  1  0.22606584  0.56789474  0.41995325  1
  K  K3  1  0.43210526  0.77393416  0.08004675  1
  Mn  Mn0  1  0.70476684  0.29523316  0.25000000  1
  Mn  Mn1  1  0.29523316  0.70476684  0.75000000  1
  Ge  Ge0  1  0.84041026  0.84799616  0.36198870  1
  Ge  Ge1  1  0.15200384  0.15958974  0.13801130  1
  Ge  Ge2  1  0.15958974  0.15200384  0.86198870  1
  Ge  Ge3  1  0.84799616  0.84041026  0.63801130  1
  O  O0  1  0.62079345  0.95139687  0.31895172  1
  O  O1  1  0.53119357  0.72597691  0.61315987  1
  O  O2  1  0.72597691  0.53119357  0.38684013  1
  O  O3  1  0.37920655  0.04860313  0.81895172  1
  O  O4  1  0.00121196  0.00121196  0.50000000  1
  O  O5  1  0.46880643  0.27402309  0.11315987  1
  O  O6  1  0.07877693  0.92122307  0.25000000  1
  O  O7  1  0.27402309  0.46880643  0.88684013  1
  O  O8  1  0.99878804  0.99878804  0.00000000  1
  O  O9  1  0.92122307  0.07877693  0.75000000  1
  O  O10  1  0.04860313  0.37920655  0.18104828  1
  O  O11  1  0.95139687  0.62079345  0.68104828  1
loop_
_geom_bond_atom_site_label_1
_geom_bond_atom_site_label_2
_geom_bond_distance
_geom_bond_site_symmetry_2
K0 O5 2.679974 1_556
K0 O3 2.731138 1_555
K0 O11 2.854694 1_555
K0 O7 2.919235 1_655
K0 O7 3.100190 1_555
K0 O8 3.189219 1_556
K0 O9 3.191588 1_555
K0 O10 3.360588 1_656
K1 O2 2.679974 1_555
K1 O11 2.731138 1_555
K1 O3 2.854694 1_555
K1 O1 2.919235 1_545
K1 O1 3.100191 1_555
K1 O4 3.189219 1_555
K1 O9 3.191588 1_555
K1 O0 3.360588 1_545
K2 O1 2.679974 1_555
K2 O0 2.731138 1_555
K2 O10 2.854694 1_555
K2 O2 2.919235 1_455
K2 O2 3.100190 1_555
K2 O4 3.189219 1_555
K2 O6 3.191588 1_555
K2 O11 3.360588 1_455
K3 O7 2.679974 1_554
K3 O10 2.731138 1_555
K3 O0 2.854694 1_555
K3 O5 2.919235 1_565
K3 O5 3.100191 1_555
K3 O8 3.189219 1_555
K3 O6 3.191588 1_555
K3 O3 3.360588 1_564
Mn0 O5 2.016205 1_555
Mn0 O2 2.016205 1_555
Mn0 O10 2.038545 1_655
Mn0 O0 2.038545 1_545
Mn1 O1 2.016205 1_555
Mn1 O7 2.016205 1_555
Mn1 O11 2.038545 1_455
Mn1 O3 2.038545 1_565
Ge0 O0 1.729852 1_555
Ge0 O2 1.739271 1_555
Ge0 O6 1.782112 1_655
Ge0 O4 1.809855 1_665
Ge1 O10 1.729852 1_555
Ge1 O5 1.739271 1_555
Ge1 O6 1.782113 1_545
Ge1 O8 1.809855 1_445
Ge2 O3 1.729852 1_555
Ge2 O7 1.739271 1_555
Ge2 O9 1.782112 1_455
Ge2 O8 1.809855 1_446
Ge3 O11 1.729852 1_555
Ge3 O1 1.739271 1_555
Ge3 O9 1.782113 1_565
Ge3 O4 1.809855 1_665
