# generated using pymatgen
data_K2ClOF5
_symmetry_space_group_name_H-M   'P 1'
_cell_length_a   6.26521171
_cell_length_b   6.26521154
_cell_length_c   7.77809111
_cell_angle_alpha   84.29406119
_cell_angle_beta   84.29405579
_cell_angle_gamma   82.38525682
_symmetry_Int_Tables_number   1
_chemical_formula_structural   K2ClOF5
_chemical_formula_sum   'K4 Cl2 O2 F10'
_cell_volume   299.96705257
_cell_formula_units_Z   2
loop_
 _symmetry_equiv_pos_site_id
 _symmetry_equiv_pos_as_xyz
  1  'x, y, z'
loop_
 _atom_site_type_symbol
 _atom_site_label
 _atom_site_symmetry_multiplicity
 _atom_site_fract_x
 _atom_site_fract_y
 _atom_site_fract_z
 _atom_site_occupancy
  K  K0  1  0.31745105  0.31283921  0.02938484  1
  K  K1  1  0.68716079  0.68254895  0.47061516  1
  K  K2  1  0.68254895  0.68716079  0.97061516  1
  K  K3  1  0.31283921  0.31745105  0.52938484  1
  Cl  Cl0  1  0.82529448  0.17470552  0.25000000  1
  Cl  Cl1  1  0.17470552  0.82529448  0.75000000  1
  O  O0  1  0.99589248  0.00410752  0.25000000  1
  O  O1  1  0.00410752  0.99589248  0.75000000  1
  F  F0  1  0.88217675  0.27845471  0.02070675  1
  F  F1  1  0.72154529  0.11782325  0.47929325  1
  F  F2  1  0.11782325  0.72154529  0.97929325  1
  F  F3  1  0.27845471  0.88217675  0.52070675  1
  F  F4  1  0.98773555  0.38375150  0.31440142  1
  F  F5  1  0.61624850  0.01226445  0.18559858  1
  F  F6  1  0.01226445  0.61624850  0.68559858  1
  F  F7  1  0.38375150  0.98773555  0.81440142  1
  F  F8  1  0.52893731  0.47106269  0.25000000  1
  F  F9  1  0.47106269  0.52893731  0.75000000  1
loop_
_geom_bond_atom_site_label_1
_geom_bond_atom_site_label_2
_geom_bond_distance
_geom_bond_site_symmetry_2
K0 O0 3.229553 1_455
K1 O0 3.229553 1_565
K2 O1 3.229553 1_655
K3 O1 3.229553 1_545
Cl0 O0 1.407851 1_555
Cl0 F1 1.853309 1_555
Cl0 F0 1.853309 1_555
Cl0 F4 1.893974 1_555
Cl0 F5 1.893974 1_555
Cl1 O1 1.407851 1_555
Cl1 F3 1.853309 1_555
Cl1 F2 1.853309 1_555
Cl1 F6 1.893974 1_555
Cl1 F7 1.893974 1_555
F0 K2 2.706041 1_554
F0 K0 2.771850 1_655
F1 K3 2.706041 1_555
F1 K1 2.771850 1_545
F2 K0 2.706041 1_556
F2 K2 2.771850 1_455
F3 K1 2.706041 1_555
F3 K3 2.771850 1_565
F4 K3 2.726226 1_655
F4 K1 2.755023 1_555
F4 K0 2.901937 1_655
F5 K2 2.726225 1_544
F5 K0 2.755023 1_555
F5 K1 2.901937 1_545
F6 K1 2.726226 1_455
F6 K3 2.755023 1_555
F6 K2 2.901937 1_455
F7 K0 2.726225 1_566
F7 K2 2.755023 1_555
F7 K3 2.901937 1_565
F8 K1 2.611765 1_555
F8 K0 2.611765 1_555
F8 K3 2.612659 1_555
F8 K2 2.612659 1_554
F9 K3 2.611765 1_555
F9 K2 2.611765 1_555
F9 K1 2.612659 1_555
F9 K0 2.612659 1_556
