# generated using pymatgen
data_MnFe2(TcO4)6
_symmetry_space_group_name_H-M   'P 1'
_cell_length_a   9.62666404
_cell_length_b   9.62666491
_cell_length_c   9.62666550
_cell_angle_alpha   56.63438723
_cell_angle_beta   56.63438990
_cell_angle_gamma   56.63439624
_symmetry_Int_Tables_number   1
_chemical_formula_structural   MnFe2(TcO4)6
_chemical_formula_sum   'Mn1 Fe2 Tc6 O24'
_cell_volume   581.78863384
_cell_formula_units_Z   1
loop_
 _symmetry_equiv_pos_site_id
 _symmetry_equiv_pos_as_xyz
  1  'x, y, z'
loop_
 _atom_site_type_symbol
 _atom_site_label
 _atom_site_symmetry_multiplicity
 _atom_site_fract_x
 _atom_site_fract_y
 _atom_site_fract_z
 _atom_site_occupancy
  Mn  Mn0  1  0.85514860  0.85514860  0.85514860  1
  Fe  Fe0  1  0.35986941  0.35986941  0.35986941  1
  Fe  Fe1  1  0.63994669  0.63994669  0.63994669  1
  Tc  Tc0  1  0.03407608  0.47537509  0.73935933  1
  Tc  Tc1  1  0.47537509  0.73935933  0.03407608  1
  Tc  Tc2  1  0.73935933  0.03407608  0.47537509  1
  Tc  Tc3  1  0.25475341  0.96349755  0.53210574  1
  Tc  Tc4  1  0.53210574  0.25475341  0.96349755  1
  Tc  Tc5  1  0.96349755  0.53210574  0.25475341  1
  O  O0  1  0.13184819  0.48984249  0.30719454  1
  O  O1  1  0.30719454  0.13184819  0.48984249  1
  O  O2  1  0.99627765  0.33324259  0.94940735  1
  O  O3  1  0.48984249  0.30719454  0.13184819  1
  O  O4  1  0.01825605  0.67141421  0.72414088  1
  O  O5  1  0.24065123  0.38201667  0.59889306  1
  O  O6  1  0.38201667  0.59889306  0.24065123  1
  O  O7  1  0.33324259  0.94940735  0.99627765  1
  O  O8  1  0.59889306  0.24065123  0.38201667  1
  O  O9  1  0.03794448  0.98529057  0.67781617  1
  O  O10  1  0.28818945  0.96932652  0.33898941  1
  O  O11  1  0.33898941  0.28818945  0.96932652  1
  O  O12  1  0.67141421  0.72414088  0.01825605  1
  O  O13  1  0.72414088  0.01825605  0.67141421  1
  O  O14  1  0.94940735  0.99627765  0.33324259  1
  O  O15  1  0.39766873  0.76183396  0.62776497  1
  O  O16  1  0.67781617  0.03794448  0.98529057  1
  O  O17  1  0.62776497  0.39766873  0.76183396  1
  O  O18  1  0.76183396  0.62776497  0.39766873  1
  O  O19  1  0.96932652  0.33898941  0.28818945  1
  O  O20  1  0.52594665  0.66789387  0.87637441  1
  O  O21  1  0.98529057  0.67781617  0.03794448  1
  O  O22  1  0.66789387  0.87637441  0.52594665  1
  O  O23  1  0.87637441  0.52594665  0.66789387  1
loop_
_geom_bond_atom_site_label_1
_geom_bond_atom_site_label_2
_geom_bond_distance
_geom_bond_site_symmetry_2
Mn0 O9 2.085329 1_655
Mn0 O21 2.085329 1_556
Mn0 O16 2.085330 1_565
Mn0 O12 2.098827 1_556
Mn0 O13 2.098828 1_565
Mn0 O4 2.098828 1_655
Fe0 O6 2.005721 1_555
Fe0 O8 2.005721 1_555
Fe0 O5 2.005722 1_555
Fe0 O1 2.036288 1_555
Fe0 O0 2.036288 1_555
Fe0 O3 2.036288 1_555
Fe1 O17 1.992376 1_555
Fe1 O15 1.992376 1_555
Fe1 O18 1.992376 1_555
Fe1 O22 2.014521 1_555
Fe1 O23 2.014521 1_555
Fe1 O20 2.014521 1_555
O0 Tc5 1.730794 1_455
O1 Tc3 1.730794 1_545
O2 Tc0 1.669829 1_655
O3 Tc4 1.730794 1_554
O4 Tc0 1.735072 1_555
O5 Tc0 1.733168 1_555
O6 Tc1 1.733168 1_555
O7 Tc1 1.669829 1_556
O8 Tc2 1.733168 1_555
O9 Tc3 1.729027 1_555
O10 Tc3 1.676244 1_555
O11 Tc4 1.676244 1_555
O12 Tc1 1.735072 1_555
O13 Tc2 1.735073 1_555
O14 Tc2 1.669829 1_565
O15 Tc3 1.731740 1_555
O16 Tc4 1.729027 1_555
O17 Tc4 1.731740 1_555
O18 Tc5 1.731740 1_555
O19 Tc5 1.676244 1_555
O20 Tc1 1.727003 1_556
O21 Tc5 1.729027 1_555
O22 Tc2 1.727003 1_565
O23 Tc0 1.727003 1_655
