# generated using pymatgen
data_Y20CoNiHg6
_symmetry_space_group_name_H-M   'P 1'
_cell_length_a   9.67338014
_cell_length_b   9.67337203
_cell_length_c   9.52747540
_cell_angle_alpha   90.00000000
_cell_angle_beta   90.00000000
_cell_angle_gamma   120.00021760
_symmetry_Int_Tables_number   1
_chemical_formula_structural   Y20CoNiHg6
_chemical_formula_sum   'Y20 Co1 Ni1 Hg6'
_cell_volume   772.08241516
_cell_formula_units_Z   1
loop_
 _symmetry_equiv_pos_site_id
 _symmetry_equiv_pos_as_xyz
  1  'x, y, z'
loop_
 _atom_site_type_symbol
 _atom_site_label
 _atom_site_symmetry_multiplicity
 _atom_site_fract_x
 _atom_site_fract_y
 _atom_site_fract_z
 _atom_site_occupancy
  Y  Y0  1  0.99999964  0.99999409  0.49893059  1
  Y  Y1  1  0.99999964  0.99999409  0.00106941  1
  Y  Y2  1  0.54236415  0.45763253  0.25000000  1
  Y  Y3  1  0.54234259  0.08470990  0.25000000  1
  Y  Y4  1  0.91529585  0.45765758  0.25000000  1
  Y  Y5  1  0.45645128  0.54355089  0.75000000  1
  Y  Y6  1  0.45647147  0.91291733  0.75000000  1
  Y  Y7  1  0.08708104  0.54353046  0.75000000  1
  Y  Y8  1  0.21048276  0.78951281  0.43354013  1
  Y  Y9  1  0.21049090  0.42095106  0.43354806  1
  Y  Y10  1  0.57904833  0.78950737  0.43355114  1
  Y  Y11  1  0.79121220  0.20879151  0.56553824  1
  Y  Y12  1  0.79120119  0.58241939  0.56554444  1
  Y  Y13  1  0.41756801  0.20879340  0.56553661  1
  Y  Y14  1  0.79121220  0.20879151  0.93446176  1
  Y  Y15  1  0.79120119  0.58241939  0.93445556  1
  Y  Y16  1  0.41756801  0.20879340  0.93446339  1
  Y  Y17  1  0.21048276  0.78951281  0.06645987  1
  Y  Y18  1  0.21049090  0.42095106  0.06645194  1
  Y  Y19  1  0.57904833  0.78950737  0.06644886  1
  Co  Co0  1  0.33333911  0.66664265  0.25000000  1
  Ni  Ni0  1  0.66663562  0.33345383  0.75000000  1
  Hg  Hg0  1  0.87921650  0.12077822  0.25000000  1
  Hg  Hg1  1  0.87917688  0.75841317  0.25000000  1
  Hg  Hg2  1  0.24158785  0.12081961  0.25000000  1
  Hg  Hg3  1  0.12050549  0.87948962  0.75000000  1
  Hg  Hg4  1  0.12055173  0.24102050  0.75000000  1
  Hg  Hg5  1  0.75897537  0.87944346  0.75000000  1
loop_
_geom_bond_atom_site_label_1
_geom_bond_atom_site_label_2
_geom_bond_distance
_geom_bond_site_symmetry_2
Y0 Y13 3.555220 1_665
Y0 Y12 3.555283 1_555
Y0 Y11 3.555369 1_565
Y0 Y10 3.581058 1_555
Y0 Y9 3.581107 1_665
Y0 Y8 3.581194 1_655
Y1 Y16 3.555220 1_664
Y1 Y15 3.555283 1_554
Y1 Y14 3.555369 1_564
Y1 Y19 3.581058 1_555
Y1 Y18 3.581107 1_665
Y1 Y17 3.581194 1_655
Y2 Y9 3.514420 1_555
Y2 Y3 3.607315 1_555
Y2 Y4 3.607389 1_555
Y3 Y8 3.514326 1_545
Y3 Y4 3.607678 1_555
Y4 Y8 3.514268 1_655
Y4 Y9 3.514572 1_655
Y5 Y6 3.572921 1_555
Y5 Y7 3.572960 1_555
Y5 Y9 3.651826 1_555
Y6 Y7 3.573224 1_555
Y6 Y8 3.652023 1_555
Y7 Y9 3.651967 1_555
Y7 Y8 3.651992 1_555
Y10 Y2 3.514436 1_555
Y10 Y3 3.514643 1_565
Y10 Y5 3.651783 1_555
Y10 Y6 3.651931 1_555
Y11 Y7 3.535172 1_655
Y11 Y6 3.535200 1_545
Y11 Y4 3.658458 1_555
Y11 Y3 3.658476 1_555
Y12 Y5 3.535249 1_555
Y12 Y7 3.535339 1_655
Y12 Y2 3.658369 1_555
Y12 Y4 3.658465 1_555
Y13 Y5 3.535297 1_555
Y13 Y6 3.535414 1_545
Y13 Y2 3.658317 1_555
Y13 Y3 3.658412 1_555
Y14 Y7 3.535172 1_655
Y14 Y6 3.535200 1_545
Y14 Y4 3.658458 1_556
Y14 Y3 3.658476 1_556
Y15 Y5 3.535249 1_555
Y15 Y7 3.535339 1_655
Y15 Y2 3.658369 1_556
Y15 Y4 3.658465 1_556
Y16 Y5 3.535297 1_555
Y16 Y6 3.535414 1_545
Y16 Y2 3.658317 1_556
Y16 Y3 3.658412 1_556
Y17 Y4 3.514268 1_455
Y17 Y3 3.514326 1_565
Y17 Y7 3.651992 1_554
Y17 Y6 3.652023 1_554
Y18 Y2 3.514420 1_555
Y18 Y4 3.514572 1_455
Y18 Y5 3.651826 1_554
Y18 Y7 3.651967 1_554
Y19 Y2 3.514436 1_555
Y19 Y3 3.514643 1_565
Y19 Y5 3.651783 1_554
Y19 Y6 3.651931 1_554
Co0 Y9 2.700836 1_555
Co0 Y18 2.700836 1_555
Co0 Y10 2.700969 1_555
Co0 Y19 2.700969 1_555
Co0 Y17 2.701015 1_555
Co0 Y8 2.701015 1_555
Co0 Y2 3.502047 1_555
Co0 Y4 3.502105 1_455
Co0 Y3 3.502303 1_565
Ni0 Y15 2.727359 1_555
Ni0 Y12 2.727359 1_555
Ni0 Y16 2.728062 1_555
Ni0 Y13 2.728062 1_555
Ni0 Y14 2.729154 1_555
Ni0 Y11 2.729154 1_555
Ni0 Y5 3.520865 1_555
Ni0 Y7 3.522229 1_655
Ni0 Y6 3.522989 1_545
Hg0 Y3 3.099023 1_555
Hg0 Y4 3.099028 1_555
Hg0 Y0 3.117731 1_545
Hg0 Y1 3.117731 1_545
Hg0 Y11 3.348446 1_555
Hg0 Y14 3.348446 1_554
Hg0 Y10 3.528941 1_545
Hg0 Y19 3.528941 1_545
Hg0 Y9 3.528960 1_655
Hg0 Y18 3.528960 1_655
Hg1 Y2 3.098568 1_555
Hg1 Y4 3.098826 1_555
Hg1 Y0 3.117801 1_555
Hg1 Y1 3.117801 1_555
Hg1 Y12 3.348409 1_555
Hg1 Y15 3.348409 1_554
Hg1 Y10 3.528579 1_555
Hg1 Y19 3.528579 1_555
Hg1 Y17 3.529202 1_655
Hg1 Y8 3.529202 1_655
Hg2 Y2 3.098552 1_555
Hg2 Y3 3.098768 1_555
Hg2 Y0 3.117842 1_445
Hg2 Y1 3.117842 1_445
Hg2 Y13 3.348292 1_555
Hg2 Y16 3.348292 1_554
Hg2 Y9 3.528600 1_555
Hg2 Y18 3.528600 1_555
Hg2 Y8 3.529188 1_545
Hg2 Y17 3.529188 1_545
Hg3 Y7 3.100862 1_555
Hg3 Y6 3.100917 1_555
Hg3 Y1 3.130249 1_456
Hg3 Y0 3.130249 1_455
Hg3 Y17 3.370950 1_556
Hg3 Y8 3.370950 1_555
Hg3 Y15 3.512783 1_455
Hg3 Y12 3.512783 1_455
Hg3 Y16 3.512790 1_565
Hg3 Y13 3.512790 1_565
Hg4 Y5 3.100505 1_555
Hg4 Y7 3.100883 1_555
Hg4 Y1 3.130331 1_446
Hg4 Y0 3.130331 1_445
Hg4 Y18 3.370792 1_556
Hg4 Y9 3.370792 1_555
Hg4 Y16 3.512347 1_555
Hg4 Y13 3.512347 1_555
Hg4 Y14 3.513133 1_455
Hg4 Y11 3.513133 1_455
Hg5 Y5 3.100439 1_555
Hg5 Y6 3.100845 1_555
Hg5 Y1 3.130321 1_556
Hg5 Y0 3.130321 1_555
Hg5 Y19 3.370753 1_556
Hg5 Y10 3.370753 1_555
Hg5 Y15 3.512367 1_555
Hg5 Y12 3.512367 1_555
Hg5 Y14 3.513174 1_565
Hg5 Y11 3.513174 1_565
