# generated using pymatgen
data_Si2Se3Br2
_symmetry_space_group_name_H-M   'P 1'
_cell_length_a   9.29022785
_cell_length_b   10.47962731
_cell_length_c   10.57442792
_cell_angle_alpha   93.95790894
_cell_angle_beta   115.64298982
_cell_angle_gamma   89.81104840
_symmetry_Int_Tables_number   1
_chemical_formula_structural   Si2Se3Br2
_chemical_formula_sum   'Si8 Se12 Br8'
_cell_volume   925.49064594
_cell_formula_units_Z   4
loop_
 _symmetry_equiv_pos_site_id
 _symmetry_equiv_pos_as_xyz
  1  'x, y, z'
loop_
 _atom_site_type_symbol
 _atom_site_label
 _atom_site_symmetry_multiplicity
 _atom_site_fract_x
 _atom_site_fract_y
 _atom_site_fract_z
 _atom_site_occupancy
  Si  Si0  1  0.74391562  0.82108940  0.74267857  1
  Si  Si1  1  0.25608438  0.17891060  0.25732143  1
  Si  Si2  1  0.69722877  0.51202723  0.82145269  1
  Si  Si3  1  0.30277123  0.48797277  0.17854731  1
  Si  Si4  1  0.36668431  0.70049079  0.66913422  1
  Si  Si5  1  0.63331569  0.29950921  0.33086578  1
  Si  Si6  1  0.64218336  0.77222361  0.01604173  1
  Si  Si7  1  0.35781664  0.22777639  0.98395827  1
  Se  Se0  1  0.79019772  0.91143868  0.95955265  1
  Se  Se1  1  0.20980228  0.08856132  0.04044735  1
  Se  Se2  1  0.85161392  0.62502609  0.74629532  1
  Se  Se3  1  0.14838608  0.37497391  0.25370468  1
  Se  Se4  1  0.48663846  0.83200045  0.57771310  1
  Se  Se5  1  0.51336154  0.16799955  0.42228690  1
  Se  Se6  1  0.73580092  0.57036971  0.04556601  1
  Se  Se7  1  0.26419908  0.42963029  0.95443399  1
  Se  Se8  1  0.43515761  0.49253214  0.66362590  1
  Se  Se9  1  0.56484239  0.50746786  0.33637410  1
  Se  Se10  1  0.37433466  0.77992636  0.87810264  1
  Se  Se11  1  0.62566534  0.22007364  0.12189736  1
  Br  Br0  1  0.87902013  0.94658355  0.66924352  1
  Br  Br1  1  0.12097987  0.05341645  0.33075648  1
  Br  Br2  1  0.11063242  0.69916800  0.52021891  1
  Br  Br3  1  0.88936758  0.30083200  0.47978109  1
  Br  Br4  1  0.67469850  0.84603222  0.22800621  1
  Br  Br5  1  0.32530150  0.15396778  0.77199379  1
  Br  Br6  1  0.78410322  0.31515487  0.83015026  1
  Br  Br7  1  0.21589678  0.68484513  0.16984974  1
loop_
_geom_bond_atom_site_label_1
_geom_bond_atom_site_label_2
_geom_bond_distance
_geom_bond_site_symmetry_2
Se0 Si0 2.278188 1_555
Se0 Si6 2.284865 1_556
Se1 Si1 2.278188 1_555
Se1 Si7 2.284865 1_554
Se2 Si0 2.277803 1_555
Se2 Si2 2.284464 1_555
Se3 Si1 2.277803 1_555
Se3 Si3 2.284464 1_555
Se4 Si0 2.277262 1_555
Se4 Si4 2.280857 1_555
Se5 Si1 2.277262 1_555
Se5 Si5 2.280857 1_555
Se6 Si6 2.274343 1_555
Se6 Si2 2.277039 1_554
Se7 Si7 2.274343 1_555
Se7 Si3 2.277039 1_556
Se8 Si4 2.272209 1_555
Se8 Si2 2.279061 1_555
Se9 Si5 2.272209 1_555
Se9 Si3 2.279061 1_555
Se10 Si4 2.278469 1_555
Se10 Si6 2.280248 1_556
Se11 Si5 2.278469 1_555
Se11 Si7 2.280248 1_554
Br0 Si0 2.214373 1_555
Br1 Si1 2.214373 1_555
Br2 Si4 2.212132 1_555
Br3 Si5 2.212132 1_555
Br4 Si6 2.211246 1_555
Br5 Si7 2.211246 1_555
Br6 Si2 2.206216 1_555
Br7 Si3 2.206216 1_555
