# generated using pymatgen
data_Sc7FeI12
_symmetry_space_group_name_H-M   'P 1'
_cell_length_a   9.37144454
_cell_length_b   9.37144423
_cell_length_c   9.37144467
_cell_angle_alpha   107.38998265
_cell_angle_beta   107.38998254
_cell_angle_gamma   107.38998189
_symmetry_Int_Tables_number   1
_chemical_formula_structural   Sc7FeI12
_chemical_formula_sum   'Sc7 Fe1 I12'
_cell_volume   678.00949904
_cell_formula_units_Z   1
loop_
 _symmetry_equiv_pos_site_id
 _symmetry_equiv_pos_as_xyz
  1  'x, y, z'
loop_
 _atom_site_type_symbol
 _atom_site_label
 _atom_site_symmetry_multiplicity
 _atom_site_fract_x
 _atom_site_fract_y
 _atom_site_fract_z
 _atom_site_occupancy
  Sc  Sc0  1  0.91283863  0.97843999  0.71980399  1
  Sc  Sc1  1  0.71980399  0.91283863  0.97843999  1
  Sc  Sc2  1  0.97843999  0.71980399  0.91283863  1
  Sc  Sc3  1  0.08716137  0.02156001  0.28019601  1
  Sc  Sc4  1  0.28019601  0.08716137  0.02156001  1
  Sc  Sc5  1  0.02156001  0.28019601  0.08716137  1
  Sc  Sc6  1  0.50000000  0.50000000  0.50000000  1
  Fe  Fe0  1  0.00000000  0.00000000  0.00000000  1
  I  I0  1  0.84053031  0.61521118  0.54247169  1
  I  I1  1  0.54247169  0.84053031  0.61521118  1
  I  I2  1  0.61521118  0.54247169  0.84053031  1
  I  I3  1  0.15946969  0.38478882  0.45752831  1
  I  I4  1  0.45752831  0.15946969  0.38478882  1
  I  I5  1  0.38478882  0.45752831  0.15946969  1
  I  I6  1  0.92477386  0.31233504  0.77504151  1
  I  I7  1  0.77504151  0.92477386  0.31233504  1
  I  I8  1  0.31233504  0.77504151  0.92477386  1
  I  I9  1  0.07522614  0.68766496  0.22495849  1
  I  I10  1  0.22495849  0.07522614  0.68766496  1
  I  I11  1  0.68766496  0.22495849  0.07522614  1
loop_
_geom_bond_atom_site_label_1
_geom_bond_atom_site_label_2
_geom_bond_distance
_geom_bond_site_symmetry_2
Fe0 Sc5 2.430062 1_555
Fe0 Sc2 2.430062 1_444
Fe0 Sc1 2.430062 1_444
Fe0 Sc4 2.430062 1_555
Fe0 Sc0 2.430062 1_444
Fe0 Sc3 2.430062 1_555
I0 Sc6 2.903891 1_555
I0 Sc2 3.034114 1_555
I0 Sc0 3.061809 1_555
I1 Sc6 2.903891 1_555
I1 Sc0 3.034114 1_555
I1 Sc1 3.061809 1_555
I2 Sc6 2.903891 1_555
I2 Sc1 3.034114 1_555
I2 Sc2 3.061809 1_555
I3 Sc6 2.903891 1_555
I3 Sc5 3.034114 1_555
I3 Sc3 3.061809 1_555
I4 Sc6 2.903891 1_555
I4 Sc3 3.034114 1_555
I4 Sc4 3.061809 1_555
I5 Sc6 2.903891 1_555
I5 Sc4 3.034114 1_555
I5 Sc5 3.061809 1_555
I6 Sc5 2.927995 1_656
I6 Sc0 2.976504 1_545
I6 Sc2 3.466740 1_555
I7 Sc3 2.927995 1_665
I7 Sc1 2.976504 1_554
I7 Sc0 3.466740 1_555
I8 Sc4 2.927995 1_566
I8 Sc2 2.976504 1_455
I8 Sc1 3.466740 1_555
I9 Sc2 2.927995 1_454
I9 Sc3 2.976504 1_565
I9 Sc5 3.466740 1_555
I10 Sc0 2.927995 1_445
I10 Sc4 2.976504 1_556
I10 Sc3 3.466740 1_555
I11 Sc1 2.927995 1_544
I11 Sc5 2.976504 1_655
I11 Sc4 3.466740 1_555
