# generated using pymatgen
data_Lu3Sc3(Zn3C)2
_symmetry_space_group_name_H-M   'P 1'
_cell_length_a   8.74503168
_cell_length_b   8.74503125
_cell_length_c   8.74503208
_cell_angle_alpha   59.99999688
_cell_angle_beta   59.99999851
_cell_angle_gamma   59.99999737
_symmetry_Int_Tables_number   1
_chemical_formula_structural   Lu3Sc3(Zn3C)2
_chemical_formula_sum   'Lu6 Sc6 Zn12 C4'
_cell_volume   472.89980893
_cell_formula_units_Z   2
loop_
 _symmetry_equiv_pos_site_id
 _symmetry_equiv_pos_as_xyz
  1  'x, y, z'
loop_
 _atom_site_type_symbol
 _atom_site_label
 _atom_site_symmetry_multiplicity
 _atom_site_fract_x
 _atom_site_fract_y
 _atom_site_fract_z
 _atom_site_occupancy
  Lu  Lu0  1  0.80498440  0.80498440  0.19501560  1
  Lu  Lu1  1  0.19501560  0.80498440  0.19501560  1
  Lu  Lu2  1  0.80498440  0.19501560  0.19501560  1
  Lu  Lu3  1  0.19501560  0.19501560  0.80498440  1
  Lu  Lu4  1  0.80498440  0.19501560  0.80498440  1
  Lu  Lu5  1  0.19501560  0.80498440  0.80498440  1
  Sc  Sc0  1  0.44292543  0.44292543  0.05707457  1
  Sc  Sc1  1  0.05707457  0.44292543  0.05707457  1
  Sc  Sc2  1  0.44292543  0.05707457  0.05707457  1
  Sc  Sc3  1  0.05707457  0.05707457  0.44292543  1
  Sc  Sc4  1  0.44292543  0.05707457  0.44292543  1
  Sc  Sc5  1  0.05707457  0.44292543  0.44292543  1
  Zn  Zn0  1  0.82691753  0.82691753  0.51924941  1
  Zn  Zn1  1  0.82691753  0.51924941  0.82691753  1
  Zn  Zn2  1  0.51924941  0.82691753  0.82691753  1
  Zn  Zn3  1  0.82691753  0.82691753  0.82691753  1
  Zn  Zn4  1  0.42219244  0.42219244  0.73342168  1
  Zn  Zn5  1  0.42219244  0.73342168  0.42219244  1
  Zn  Zn6  1  0.73342168  0.42219244  0.42219244  1
  Zn  Zn7  1  0.42219244  0.42219244  0.42219244  1
  Zn  Zn8  1  0.62498367  0.62498367  0.12505000  1
  Zn  Zn9  1  0.62498367  0.12505000  0.62498367  1
  Zn  Zn10  1  0.12505000  0.62498367  0.62498367  1
  Zn  Zn11  1  0.62498367  0.62498367  0.62498367  1
  C  C0  1  0.13218699  0.13218699  0.60343902  1
  C  C1  1  0.13218699  0.60343902  0.13218699  1
  C  C2  1  0.60343902  0.13218699  0.13218699  1
  C  C3  1  0.13218699  0.13218699  0.13218699  1
loop_
_geom_bond_atom_site_label_1
_geom_bond_atom_site_label_2
_geom_bond_distance
_geom_bond_site_symmetry_2
Lu0 Zn3 3.039352 1_554
Lu0 Zn0 3.039370 1_555
Lu0 Zn8 3.119951 1_555
Lu0 Zn11 3.119957 1_555
Lu0 Zn6 3.121805 1_555
Lu0 Zn5 3.121805 1_555
Lu1 Zn0 3.039360 1_455
Lu1 Zn2 3.039360 1_554
Lu1 Zn8 3.119958 1_555
Lu1 Zn10 3.119959 1_555
Lu1 Zn5 3.121797 1_555
Lu1 Zn7 3.121801 1_555
Lu2 Zn0 3.039359 1_545
Lu2 Zn1 3.039359 1_554
Lu2 Zn8 3.119958 1_555
Lu2 Zn9 3.119959 1_555
Lu2 Zn6 3.121797 1_555
Lu2 Zn7 3.121801 1_555
Lu3 Zn2 3.039359 1_545
Lu3 Zn1 3.039359 1_455
Lu3 Zn10 3.119958 1_555
Lu3 Zn9 3.119958 1_555
Lu3 Zn4 3.121797 1_555
Lu3 Zn7 3.121801 1_555
Lu4 Zn3 3.039352 1_545
Lu4 Zn1 3.039369 1_555
Lu4 Zn9 3.119951 1_555
Lu4 Zn11 3.119957 1_555
Lu4 Zn4 3.121805 1_555
Lu4 Zn6 3.121805 1_555
Lu5 Zn3 3.039352 1_455
Lu5 Zn2 3.039369 1_555
Lu5 Zn10 3.119951 1_555
Lu5 Zn11 3.119957 1_555
Lu5 Zn4 3.121805 1_555
Lu5 Zn5 3.121805 1_555
Sc0 Zn7 3.022553 1_555
Sc0 Zn4 3.022561 1_554
Sc0 Zn11 3.138562 1_554
Sc0 Zn8 3.138568 1_555
Sc0 Zn2 3.148337 1_554
Sc0 Zn1 3.148337 1_554
Sc1 Zn4 3.022556 1_554
Sc1 Zn6 3.022556 1_455
Sc1 Zn8 3.138560 1_455
Sc1 Zn10 3.138560 1_554
Sc1 Zn1 3.148322 1_454
Sc1 Zn3 3.148330 1_454
Sc2 Zn4 3.022556 1_554
Sc2 Zn5 3.022556 1_545
Sc2 Zn8 3.138560 1_545
Sc2 Zn9 3.138560 1_554
Sc2 Zn2 3.148322 1_544
Sc2 Zn3 3.148330 1_544
Sc3 Zn6 3.022556 1_455
Sc3 Zn5 3.022556 1_545
Sc3 Zn10 3.138560 1_545
Sc3 Zn9 3.138560 1_455
Sc3 Zn0 3.148322 1_445
Sc3 Zn3 3.148330 1_445
Sc4 Zn7 3.022552 1_555
Sc4 Zn5 3.022561 1_545
Sc4 Zn11 3.138561 1_545
Sc4 Zn9 3.138568 1_555
Sc4 Zn0 3.148337 1_545
Sc4 Zn2 3.148337 1_545
Sc5 Zn7 3.022552 1_555
Sc5 Zn6 3.022561 1_455
Sc5 Zn11 3.138562 1_455
Sc5 Zn10 3.138568 1_555
Sc5 Zn0 3.148337 1_455
Sc5 Zn1 3.148337 1_455
Zn0 Zn9 2.635266 1_565
Zn0 Zn10 2.635266 1_655
Zn0 Zn11 2.635273 1_555
Zn0 Zn1 2.690567 1_555
Zn0 Zn2 2.690567 1_555
Zn0 Zn3 2.690568 1_555
Zn1 Zn10 2.635266 1_655
Zn1 Zn8 2.635266 1_556
Zn1 Zn11 2.635273 1_555
Zn1 Zn2 2.690567 1_555
Zn1 Zn3 2.690567 1_555
Zn2 Zn9 2.635266 1_565
Zn2 Zn8 2.635266 1_556
Zn2 Zn3 2.690567 1_555
Zn3 Zn9 2.635270 1_565
Zn3 Zn8 2.635271 1_556
Zn4 Zn9 2.640219 1_555
Zn4 Zn5 2.721709 1_555
Zn4 Zn6 2.721710 1_555
Zn4 Zn7 2.721710 1_555
Zn5 Zn8 2.640219 1_555
Zn5 Zn6 2.721709 1_555
Zn5 Zn7 2.721709 1_555
Zn6 Zn9 2.640219 1_555
Zn6 Zn8 2.640219 1_555
Zn6 Zn7 2.721710 1_555
Zn7 Zn9 2.640228 1_555
Zn7 Zn8 2.640228 1_555
Zn10 Zn3 2.635271 1_455
Zn10 Zn5 2.640219 1_555
Zn10 Zn4 2.640219 1_555
Zn10 Zn7 2.640228 1_555
Zn11 Zn2 2.635273 1_555
Zn11 Zn4 2.640233 1_555
Zn11 Zn6 2.640233 1_555
Zn11 Zn5 2.640233 1_555
C0 Sc5 2.260271 1_555
C0 Sc4 2.260271 1_555
C0 Sc3 2.260271 1_555
C0 Lu5 2.439040 1_545
C0 Lu4 2.439040 1_455
C0 Lu3 2.439041 1_555
C1 Sc0 2.260271 1_555
C1 Sc1 2.260271 1_555
C1 Sc5 2.260271 1_555
C1 Lu0 2.439040 1_455
C1 Lu5 2.439040 1_554
C1 Lu1 2.439040 1_555
C2 Sc0 2.260271 1_555
C2 Sc2 2.260271 1_555
C2 Sc4 2.260271 1_555
C2 Lu0 2.439040 1_545
C2 Lu4 2.439040 1_554
C2 Lu2 2.439040 1_555
C3 Sc1 2.260271 1_555
C3 Sc2 2.260271 1_555
C3 Sc3 2.260271 1_555
C3 Lu1 2.439040 1_545
C3 Lu2 2.439040 1_455
C3 Lu3 2.439041 1_554
