# generated using pymatgen
data_Ba2LuOsO6
_symmetry_space_group_name_H-M   'P 1'
_cell_length_a   5.87259653
_cell_length_b   5.87259644
_cell_length_c   5.87259528
_cell_angle_alpha   59.99999552
_cell_angle_beta   59.99999600
_cell_angle_gamma   59.99999685
_symmetry_Int_Tables_number   1
_chemical_formula_structural   Ba2LuOsO6
_chemical_formula_sum   'Ba2 Lu1 Os1 O6'
_cell_volume   143.21066370
_cell_formula_units_Z   1
loop_
 _symmetry_equiv_pos_site_id
 _symmetry_equiv_pos_as_xyz
  1  'x, y, z'
loop_
 _atom_site_type_symbol
 _atom_site_label
 _atom_site_symmetry_multiplicity
 _atom_site_fract_x
 _atom_site_fract_y
 _atom_site_fract_z
 _atom_site_occupancy
  Ba  Ba0  1  0.25000000  0.25000000  0.25000000  1
  Ba  Ba1  1  0.75000000  0.75000000  0.75000000  1
  Lu  Lu0  1  0.50000000  0.50000000  0.50000000  1
  Os  Os0  1  0.00000000  0.00000000  0.00000000  1
  O  O0  1  0.76144453  0.23855547  0.23855547  1
  O  O1  1  0.23855547  0.76144453  0.76144453  1
  O  O2  1  0.23855547  0.76144453  0.23855547  1
  O  O3  1  0.76144453  0.23855547  0.76144453  1
  O  O4  1  0.23855547  0.23855547  0.76144453  1
  O  O5  1  0.76144453  0.76144453  0.23855547  1
loop_
_geom_bond_atom_site_label_1
_geom_bond_atom_site_label_2
_geom_bond_distance
_geom_bond_site_symmetry_2
Ba0 O4 2.937836 1_555
Ba0 O4 2.937836 1_554
Ba0 O1 2.937836 1_545
Ba0 O3 2.937836 1_455
Ba0 O1 2.937836 1_554
Ba0 O3 2.937836 1_554
Ba0 O5 2.937836 1_455
Ba0 O5 2.937836 1_545
Ba0 O2 2.937836 1_555
Ba0 O2 2.937836 1_545
Ba0 O0 2.937836 1_455
Ba0 O0 2.937836 1_555
Ba1 O5 2.937836 1_555
Ba1 O5 2.937836 1_556
Ba1 O0 2.937836 1_565
Ba1 O2 2.937836 1_655
Ba1 O0 2.937836 1_556
Ba1 O2 2.937836 1_556
Ba1 O4 2.937836 1_655
Ba1 O4 2.937836 1_565
Ba1 O3 2.937836 1_555
Ba1 O3 2.937836 1_565
Ba1 O1 2.937836 1_655
Ba1 O1 2.937836 1_555
Lu0 O3 2.171324 1_555
Lu0 O1 2.171324 1_555
Lu0 O2 2.171324 1_555
Lu0 O0 2.171324 1_555
Lu0 O5 2.171324 1_555
Lu0 O4 2.171324 1_555
O0 Os0 1.981228 1_655
O1 Os0 1.981228 1_566
O2 Os0 1.981228 1_565
O3 Os0 1.981228 1_656
O4 Os0 1.981228 1_556
O5 Os0 1.981228 1_665
