# generated using pymatgen
data_Au(NF7)2
_symmetry_space_group_name_H-M   'P 1'
_cell_length_a   6.97170699
_cell_length_b   6.97170663
_cell_length_c   6.97170710
_cell_angle_alpha   118.30512657
_cell_angle_beta   118.30513021
_cell_angle_gamma   92.96156309
_symmetry_Int_Tables_number   1
_chemical_formula_structural   Au(NF7)2
_chemical_formula_sum   'Au1 N2 F14'
_cell_volume   245.39224985
_cell_formula_units_Z   1
loop_
 _symmetry_equiv_pos_site_id
 _symmetry_equiv_pos_as_xyz
  1  'x, y, z'
loop_
 _atom_site_type_symbol
 _atom_site_label
 _atom_site_symmetry_multiplicity
 _atom_site_fract_x
 _atom_site_fract_y
 _atom_site_fract_z
 _atom_site_occupancy
  Au  Au0  1  0.00000000  0.00000000  0.00000000  1
  N  N0  1  0.75000000  0.25000000  0.50000000  1
  N  N1  1  0.25000000  0.75000000  0.50000000  1
  F  F0  1  0.40944339  0.97780343  0.71838897  1
  F  F1  1  0.23776074  0.12587306  0.36363280  1
  F  F2  1  0.12587306  0.76223926  0.88811132  1
  F  F3  1  0.87412694  0.23776074  0.11188868  1
  F  F4  1  0.76223926  0.87412694  0.63636720  1
  F  F5  1  0.19980176  0.19980176  1.00000000  1
  F  F6  1  0.80019824  0.80019824  0.00000000  1
  F  F7  1  0.74058554  0.30894658  0.71838897  1
  F  F8  1  0.30894658  0.59055661  0.56836104  1
  F  F9  1  0.02219657  0.74058554  0.43163896  1
  F  F10  1  0.59055661  0.02219657  0.28161103  1
  F  F11  1  0.25941446  0.69105342  0.28161103  1
  F  F12  1  0.69105342  0.40944339  0.43163896  1
  F  F13  1  0.97780343  0.25941446  0.56836104  1
loop_
_geom_bond_atom_site_label_1
_geom_bond_atom_site_label_2
_geom_bond_distance
_geom_bond_site_symmetry_2
Au0 F5 1.918378 1_554
Au0 F6 1.918378 1_445
Au0 F1 1.923396 1_555
Au0 F4 1.923396 1_444
Au0 F3 1.923403 1_455
Au0 F2 1.923403 1_544
F0 N1 1.412629 1_555
F7 N0 1.412627 1_555
F8 N1 1.412634 1_555
F9 N1 1.412627 1_555
F10 N0 1.412629 1_555
F11 N1 1.412627 1_555
F12 N0 1.412634 1_555
F13 N0 1.412627 1_555
