# generated using pymatgen
data_CsTe7W6
_symmetry_space_group_name_H-M   'P 1'
_cell_length_a   10.42711252
_cell_length_b   10.42711150
_cell_length_c   10.42711210
_cell_angle_alpha   60.64411021
_cell_angle_beta   60.64411087
_cell_angle_gamma   60.64411578
_symmetry_Int_Tables_number   1
_chemical_formula_structural   CsTe7W6
_chemical_formula_sum   'Cs2 Te14 W12'
_cell_volume   813.29410399
_cell_formula_units_Z   2
loop_
 _symmetry_equiv_pos_site_id
 _symmetry_equiv_pos_as_xyz
  1  'x, y, z'
loop_
 _atom_site_type_symbol
 _atom_site_label
 _atom_site_symmetry_multiplicity
 _atom_site_fract_x
 _atom_site_fract_y
 _atom_site_fract_z
 _atom_site_occupancy
  Cs  Cs0  1  0.61889137  0.61889137  0.61889137  1
  Cs  Cs1  1  0.38110963  0.38110963  0.38110963  1
  Te  Te0  1  0.42726134  0.80234407  0.16231876  1
  Te  Te1  1  0.16231876  0.42726134  0.80234407  1
  Te  Te2  1  0.80234407  0.16231876  0.42726134  1
  Te  Te3  1  0.57273866  0.19765593  0.83768124  1
  Te  Te4  1  0.83768124  0.57273866  0.19765593  1
  Te  Te5  1  0.19765593  0.83768124  0.57273866  1
  Te  Te6  1  0.63079938  0.97879795  0.24992329  1
  Te  Te7  1  0.24992329  0.63079938  0.97879795  1
  Te  Te8  1  0.97879795  0.24992329  0.63079938  1
  Te  Te9  1  0.36920062  0.02120205  0.75007671  1
  Te  Te10  1  0.75007671  0.36920062  0.02120205  1
  Te  Te11  1  0.02120205  0.75007671  0.36920062  1
  Te  Te12  1  0.77435866  0.77435866  0.77435866  1
  Te  Te13  1  0.22564134  0.22564134  0.22564134  1
  W  W0  1  0.71379449  0.88023185  0.99960107  1
  W  W1  1  0.99960107  0.71379449  0.88023185  1
  W  W2  1  0.88023185  0.99960107  0.71379449  1
  W  W3  1  0.28620551  0.11976815  0.00039893  1
  W  W4  1  0.00039893  0.28620551  0.11976815  1
  W  W5  1  0.11976815  0.00039893  0.28620551  1
  W  W6  1  0.94528006  0.81445142  0.10718550  1
  W  W7  1  0.10718550  0.94528006  0.81445142  1
  W  W8  1  0.81445142  0.10718550  0.94528006  1
  W  W9  1  0.05471994  0.18554858  0.89281450  1
  W  W10  1  0.89281450  0.05471994  0.18554858  1
  W  W11  1  0.18554858  0.89281450  0.05471994  1
loop_
_geom_bond_atom_site_label_1
_geom_bond_atom_site_label_2
_geom_bond_distance
_geom_bond_site_symmetry_2
Cs0 Te6 3.838341 1_555
Cs0 Te7 3.838342 1_555
Cs0 Te8 3.838342 1_555
Cs0 Te12 3.951367 1_555
Cs0 Te3 3.987433 1_555
Cs0 Te4 3.987434 1_555
Cs0 Te5 3.987434 1_555
Cs0 Te11 4.203929 1_655
Cs0 Te9 4.203929 1_565
Cs0 Te10 4.203929 1_556
Cs1 Te9 3.838341 1_555
Cs1 Te10 3.838342 1_555
Cs1 Te11 3.838342 1_555
Cs1 Te13 3.951393 1_555
Cs1 Te0 3.987420 1_555
Cs1 Te1 3.987420 1_555
Cs1 Te2 3.987421 1_555
Cs1 Te8 4.203943 1_455
Cs1 Te6 4.203943 1_545
Cs1 Te7 4.203943 1_554
Te0 W11 2.811502 1_555
Te0 W3 2.855073 1_565
Te0 W5 2.876858 1_565
Te0 W0 2.919347 1_554
Te1 W9 2.811502 1_555
Te1 W4 2.855073 1_556
Te1 W3 2.876858 1_556
Te1 W1 2.919347 1_455
Te2 W10 2.811502 1_555
Te2 W5 2.855074 1_655
Te2 W4 2.876858 1_655
Te2 W2 2.919347 1_545
Te3 W8 2.811502 1_555
Te3 W0 2.855073 1_545
Te3 W2 2.876858 1_545
Te3 W3 2.919347 1_556
Te4 W6 2.811502 1_555
Te4 W1 2.855073 1_554
Te4 W0 2.876858 1_554
Te4 W4 2.919347 1_655
Te5 W7 2.811502 1_555
Te5 W2 2.855074 1_455
Te5 W1 2.876858 1_455
Te5 W5 2.919347 1_565
Te6 W8 2.815961 1_564
Te6 W6 2.847892 1_555
Te6 W0 2.856831 1_554
Te6 W10 2.888416 1_565
Te7 W6 2.815961 1_456
Te7 W7 2.847891 1_555
Te7 W1 2.856831 1_455
Te7 W11 2.888416 1_556
Te8 W7 2.815961 1_645
Te8 W8 2.847891 1_555
Te8 W2 2.856831 1_545
Te8 W9 2.888416 1_655
Te9 W11 2.815961 1_546
Te9 W9 2.847892 1_555
Te9 W3 2.856831 1_556
Te9 W7 2.888416 1_545
Te10 W9 2.815961 1_654
Te10 W10 2.847891 1_555
Te10 W4 2.856831 1_655
Te10 W8 2.888416 1_554
Te11 W10 2.815961 1_465
Te11 W11 2.847891 1_555
Te11 W5 2.856831 1_565
Te11 W6 2.888416 1_455
Te12 W2 2.745532 1_555
Te12 W0 2.745532 1_555
Te12 W1 2.745532 1_555
Te13 W5 2.745532 1_555
Te13 W3 2.745532 1_555
Te13 W4 2.745532 1_555
W0 W2 2.617713 1_555
W0 W1 2.617714 1_555
W0 W8 2.749680 1_565
W0 W6 2.798594 1_556
W1 W2 2.617713 1_555
W1 W6 2.749680 1_556
W1 W7 2.798593 1_655
W2 W7 2.749680 1_655
W2 W8 2.798593 1_565
W3 W5 2.617713 1_555
W3 W4 2.617714 1_555
W3 W9 2.798594 1_554
W4 W5 2.617713 1_555
W4 W9 2.749680 1_554
W6 W7 2.674133 1_654
W6 W8 2.674134 1_564
W7 W8 2.674134 1_465
W7 W9 2.732861 1_565
W8 W9 2.732861 1_655
W10 W9 2.674133 1_654
W10 W11 2.674134 1_645
W10 W6 2.732861 1_545
W10 W8 2.732861 1_554
W10 W5 2.749680 1_655
W10 W4 2.798593 1_655
W11 W9 2.674134 1_564
W11 W6 2.732861 1_455
W11 W7 2.732861 1_554
W11 W3 2.749680 1_565
W11 W5 2.798593 1_565
