# generated using pymatgen
data_Sr4Ga3IrBr2
_symmetry_space_group_name_H-M   'P 1'
_cell_length_a   4.34953529
_cell_length_b   4.34953575
_cell_length_c   17.41789418
_cell_angle_alpha   90.00000000
_cell_angle_beta   90.00000000
_cell_angle_gamma   120.00000395
_symmetry_Int_Tables_number   1
_chemical_formula_structural   Sr4Ga3IrBr2
_chemical_formula_sum   'Sr4 Ga3 Ir1 Br2'
_cell_volume   285.37243790
_cell_formula_units_Z   1
loop_
 _symmetry_equiv_pos_site_id
 _symmetry_equiv_pos_as_xyz
  1  'x, y, z'
loop_
 _atom_site_type_symbol
 _atom_site_label
 _atom_site_symmetry_multiplicity
 _atom_site_fract_x
 _atom_site_fract_y
 _atom_site_fract_z
 _atom_site_occupancy
  Sr  Sr0  1  0.00000000  0.00000000  0.11464869  1
  Sr  Sr1  1  0.00000000  0.00000000  0.37627190  1
  Sr  Sr2  1  0.00000000  0.00000000  0.62376114  1
  Sr  Sr3  1  0.00000000  0.00000000  0.88576642  1
  Ga  Ga0  1  0.33333400  0.66666700  0.49187636  1
  Ga  Ga1  1  0.66666700  0.33333200  0.50804964  1
  Ga  Ga2  1  0.66666700  0.33333200  0.99975483  1
  Ir  Ir0  1  0.33333400  0.66666700  0.00053175  1
  Br  Br0  1  0.66666700  0.33333200  0.25156701  1
  Br  Br1  1  0.33333400  0.66666700  0.74777325  1
loop_
_geom_bond_atom_site_label_1
_geom_bond_atom_site_label_2
_geom_bond_distance
_geom_bond_site_symmetry_2
Ga0 Ga1 2.526951 1_565
Ga0 Ga1 2.526958 1_455
Ga0 Ga1 2.526962 1_555
Ga0 Sr1 3.218799 1_665
Ga0 Sr1 3.218802 1_555
Ga0 Sr1 3.218802 1_565
Ga0 Sr2 3.403390 1_665
Ga0 Sr2 3.403393 1_555
Ga0 Sr2 3.403393 1_565
Ga1 Sr2 3.219963 1_655
Ga1 Sr2 3.219969 1_555
Ga1 Sr2 3.219972 1_665
Ga1 Sr1 3.402129 1_655
Ga1 Sr1 3.402134 1_555
Ga1 Sr1 3.402137 1_665
Ga2 Ir0 2.511236 1_546
Ga2 Ir0 2.511243 1_656
Ga2 Ir0 2.511247 1_556
Ga2 Sr3 3.201263 1_655
Ga2 Sr3 3.201269 1_555
Ga2 Sr3 3.201272 1_665
Ga2 Sr0 3.211068 1_656
Ga2 Sr0 3.211074 1_556
Ga2 Sr0 3.211077 1_666
Ir0 Sr0 3.202655 1_665
Ir0 Sr0 3.202658 1_555
Ir0 Sr0 3.202658 1_565
Ir0 Sr3 3.209676 1_664
Ir0 Sr3 3.209679 1_554
Ir0 Sr3 3.209679 1_564
Br0 Sr1 3.320260 1_655
Br0 Sr1 3.320265 1_555
Br0 Sr1 3.320268 1_665
Br0 Sr0 3.463168 1_655
Br0 Sr0 3.463173 1_555
Br0 Sr0 3.463176 1_665
Br1 Sr2 3.312381 1_665
Br1 Sr2 3.312384 1_555
Br1 Sr2 3.312384 1_565
Br1 Sr3 3.476089 1_665
Br1 Sr3 3.476092 1_555
Br1 Sr3 3.476092 1_565
