# generated using pymatgen
data_Y2P7(Rh3W)3
_symmetry_space_group_name_H-M   'P 1'
_cell_length_a   3.92668675
_cell_length_b   9.44402362
_cell_length_c   9.44424097
_cell_angle_alpha   120.00241738
_cell_angle_beta   89.99962657
_cell_angle_gamma   90.00048117
_symmetry_Int_Tables_number   1
_chemical_formula_structural   Y2P7(Rh3W)3
_chemical_formula_sum   'Y2 P7 Rh9 W3'
_cell_volume   303.29861942
_cell_formula_units_Z   1
loop_
 _symmetry_equiv_pos_site_id
 _symmetry_equiv_pos_as_xyz
  1  'x, y, z'
loop_
 _atom_site_type_symbol
 _atom_site_label
 _atom_site_symmetry_multiplicity
 _atom_site_fract_x
 _atom_site_fract_y
 _atom_site_fract_z
 _atom_site_occupancy
  Y  Y0  1  0.26193677  0.66667019  0.33334260  1
  Y  Y1  1  0.76193407  0.33334120  0.66667051  1
  P  P0  1  0.26180164  0.00000760  0.99999453  1
  P  P1  1  0.76187750  0.88106584  0.59256476  1
  P  P2  1  0.76189346  0.40744213  0.28852066  1
  P  P3  1  0.76188068  0.71148894  0.11893032  1
  P  P4  1  0.26186275  0.11793841  0.41338006  1
  P  P5  1  0.26187240  0.58662779  0.70456169  1
  P  P6  1  0.26189285  0.29543189  0.88204493  1
  Rh  Rh0  1  0.26196005  0.88655188  0.16052869  1
  Rh  Rh1  1  0.26194413  0.83944757  0.72602665  1
  Rh  Rh2  1  0.26196708  0.27396859  0.11342820  1
  Rh  Rh3  1  0.76194455  0.61303466  0.55947567  1
  Rh  Rh4  1  0.76196008  0.44055702  0.05355998  1
  Rh  Rh5  1  0.76193830  0.94643247  0.38698706  1
  Rh  Rh6  1  0.26193448  0.36891250  0.43753988  1
  Rh  Rh7  1  0.26194099  0.56249276  0.93137273  1
  Rh  Rh8  1  0.26192465  0.06861813  0.63110975  1
  W  W0  1  0.76184378  0.08951102  0.87075913  1
  W  W1  1  0.76185303  0.12922703  0.21876216  1
  W  W2  1  0.76183476  0.78123039  0.91044004  1
loop_
_geom_bond_atom_site_label_1
_geom_bond_atom_site_label_2
_geom_bond_distance
_geom_bond_site_symmetry_2
P0 Rh2 2.251623 1_556
P0 Rh1 2.251739 1_545
P0 Rh0 2.251957 1_546
P0 W0 2.662717 1_455
P0 W1 2.662775 1_456
P0 W2 2.662856 1_445
P0 W0 2.662939 1_555
P0 W2 2.663066 1_545
P0 W1 2.663077 1_556
P1 Rh5 2.312844 1_555
P1 W0 2.367630 1_565
P1 Rh3 2.390400 1_555
P1 Rh1 2.468258 1_555
P1 Rh1 2.468693 1_655
P1 Rh8 2.545397 1_565
P1 Rh8 2.545663 1_665
P1 Y0 2.998271 1_555
P1 Y0 2.998577 1_655
P2 Rh3 2.312853 1_555
P2 W1 2.367803 1_555
P2 Rh4 2.390795 1_555
P2 Rh2 2.468274 1_555
P2 Rh2 2.468733 1_655
P2 Rh6 2.545444 1_555
P2 Rh6 2.545712 1_655
P2 Y0 2.998395 1_555
P2 Y0 2.998595 1_655
P3 Rh4 2.312628 1_555
P3 W2 2.368095 1_554
P3 Rh5 2.390512 1_555
P3 Rh0 2.468138 1_555
P3 Rh0 2.468616 1_655
P3 Rh7 2.545339 1_554
P3 Rh7 2.545705 1_654
P3 Y0 2.998429 1_555
P3 Y0 2.998740 1_655
P4 Rh6 2.264748 1_555
P4 Rh0 2.293254 1_545
P4 Rh8 2.324466 1_555
P4 Rh5 2.476959 1_445
P4 Rh5 2.477448 1_545
P4 W1 2.727666 1_555
P4 W1 2.727739 1_455
P4 Y1 2.974489 1_455
P4 Y1 2.974857 1_555
P5 Rh7 2.264651 1_555
P5 Rh1 2.292999 1_555
P5 Rh6 2.324143 1_555
P5 Rh3 2.476915 1_455
P5 Rh3 2.477346 1_555
P5 W2 2.727385 1_555
P5 W2 2.727602 1_455
P5 Y1 2.974486 1_455
P5 Y1 2.974829 1_555
P6 Rh8 2.264495 1_555
P6 Rh2 2.293325 1_556
P6 Rh7 2.324459 1_555
P6 Rh4 2.477042 1_456
P6 Rh4 2.477459 1_556
P6 W0 2.727642 1_555
P6 W0 2.727897 1_455
P6 Y1 2.974550 1_455
P6 Y1 2.974742 1_555
Rh0 Rh7 2.725087 1_554
Rh0 Rh5 2.745689 1_555
Rh0 Rh5 2.745798 1_455
Rh0 Y0 3.219515 1_555
Rh1 Rh8 2.725432 1_565
Rh1 Rh3 2.745424 1_455
Rh1 Rh3 2.745438 1_555
Rh1 Y0 3.219379 1_555
Rh2 Rh6 2.725581 1_555
Rh2 Rh4 2.745724 1_555
Rh2 Rh4 2.745787 1_455
Rh2 Y0 3.219430 1_555
Rh3 Rh6 2.800160 1_655
Rh3 Rh6 2.800199 1_555
Rh3 W2 2.871280 1_555
Rh3 Y0 3.123138 1_655
Rh3 Y0 3.123199 1_555
Rh3 Y1 3.267472 1_555
Rh4 Rh7 2.800188 1_654
Rh4 Rh7 2.800318 1_554
Rh4 W0 2.871873 1_554
Rh4 Y0 3.123043 1_655
Rh4 Y0 3.123159 1_555
Rh4 Y1 3.267426 1_554
Rh5 Rh8 2.800182 1_665
Rh5 Rh8 2.800249 1_565
Rh5 W1 2.871796 1_565
Rh5 Y0 3.123024 1_555
Rh5 Y0 3.123040 1_655
Rh5 Y1 3.267447 1_565
Rh6 W1 2.927307 1_555
Rh6 W1 2.927729 1_455
Rh6 Y1 3.062232 1_455
Rh6 Y1 3.062251 1_555
Rh6 Y0 3.412231 1_555
Rh7 W2 2.927095 1_555
Rh7 W2 2.927679 1_455
Rh7 Y1 3.062201 1_555
Rh7 Y1 3.062233 1_455
Rh7 Y0 3.412416 1_556
Rh8 W0 2.927183 1_555
Rh8 W0 2.927591 1_455
Rh8 Y1 3.062352 1_455
Rh8 Y1 3.062376 1_555
Rh8 Y0 3.412066 1_545
