# generated using pymatgen
data_VPt(SeO3)4
_symmetry_space_group_name_H-M   'P 1'
_cell_length_a   7.96364986
_cell_length_b   7.94554228
_cell_length_c   7.95680954
_cell_angle_alpha   89.43020789
_cell_angle_beta   90.00000000
_cell_angle_gamma   90.00000000
_symmetry_Int_Tables_number   1
_chemical_formula_structural   VPt(SeO3)4
_chemical_formula_sum   'V2 Pt2 Se8 O24'
_cell_volume   503.44633875
_cell_formula_units_Z   2
loop_
 _symmetry_equiv_pos_site_id
 _symmetry_equiv_pos_as_xyz
  1  'x, y, z'
loop_
 _atom_site_type_symbol
 _atom_site_label
 _atom_site_symmetry_multiplicity
 _atom_site_fract_x
 _atom_site_fract_y
 _atom_site_fract_z
 _atom_site_occupancy
  V  V0  1  0.00000000  0.50000000  0.00000000  1
  V  V1  1  0.50000000  0.50000000  0.50000000  1
  Pt  Pt0  1  0.00000000  0.00000000  0.50000000  1
  Pt  Pt1  1  0.50000000  0.00000000  0.00000000  1
  Se  Se0  1  0.32255270  0.67557265  0.16241894  1
  Se  Se1  1  0.82255270  0.32442735  0.33758106  1
  Se  Se2  1  0.66577133  0.83524829  0.67450089  1
  Se  Se3  1  0.16577133  0.16475171  0.82549911  1
  Se  Se4  1  0.67744730  0.32442735  0.83758106  1
  Se  Se5  1  0.17744730  0.67557265  0.66241894  1
  Se  Se6  1  0.33422867  0.16475171  0.32549911  1
  Se  Se7  1  0.83422867  0.83524829  0.17450089  1
  O  O0  1  0.23808744  0.51679452  0.04470390  1
  O  O1  1  0.73808744  0.48320548  0.45529610  1
  O  O2  1  0.75248522  0.95687822  0.51517156  1
  O  O3  1  0.25248522  0.04312178  0.98482844  1
  O  O4  1  0.53498817  0.99290087  0.75078300  1
  O  O5  1  0.46863638  0.55740133  0.26994975  1
  O  O6  1  0.96863638  0.44259867  0.23005025  1
  O  O7  1  0.03498817  0.00709913  0.74921700  1
  O  O8  1  0.95312076  0.24778614  0.49514089  1
  O  O9  1  0.51751111  0.73746640  0.55565493  1
  O  O10  1  0.45312076  0.75221386  0.00485911  1
  O  O11  1  0.01751111  0.26253360  0.94434507  1
  O  O12  1  0.76191256  0.48320548  0.95529610  1
  O  O13  1  0.26191256  0.51679452  0.54470390  1
  O  O14  1  0.24751478  0.04312178  0.48482844  1
  O  O15  1  0.74751478  0.95687822  0.01517156  1
  O  O16  1  0.46501183  0.00709913  0.24921700  1
  O  O17  1  0.53136362  0.44259867  0.73005025  1
  O  O18  1  0.03136362  0.55740133  0.76994975  1
  O  O19  1  0.96501183  0.99290087  0.25078300  1
  O  O20  1  0.04687924  0.75221386  0.50485911  1
  O  O21  1  0.48248889  0.26253360  0.44434507  1
  O  O22  1  0.54687924  0.24778614  0.99514089  1
  O  O23  1  0.98248889  0.73746640  0.05565493  1
loop_
_geom_bond_atom_site_label_1
_geom_bond_atom_site_label_2
_geom_bond_distance
_geom_bond_site_symmetry_2
O0 Se0 1.716051 1_555
O0 V0 1.933975 1_555
O1 Se1 1.716051 1_555
O1 V1 1.933975 1_555
O2 Se2 1.730220 1_555
O2 Pt0 2.004111 1_665
O3 Se3 1.730220 1_555
O3 Pt1 2.004111 1_556
O4 Se2 1.742804 1_555
O4 Pt1 2.003802 1_566
O5 Se0 1.717871 1_555
O5 V1 1.898526 1_555
O6 Se1 1.717871 1_555
O6 V0 1.898526 1_655
O7 Se3 1.742804 1_555
O7 Pt0 2.003802 1_555
O8 Se1 1.734509 1_555
O8 Pt0 2.003874 1_655
O9 Se2 1.704844 1_555
O9 V1 1.947352 1_555
O10 Se0 1.734509 1_555
O10 Pt1 2.003874 1_565
O11 Se3 1.704844 1_555
O11 V0 1.947352 1_556
O12 Se4 1.716051 1_555
O12 V0 1.933975 1_656
O13 Se5 1.716051 1_555
O13 V1 1.933975 1_555
O14 Se6 1.730220 1_555
O14 Pt0 2.004111 1_555
O15 Se7 1.730220 1_555
O15 Pt1 2.004111 1_565
O16 Se6 1.742804 1_555
O16 Pt1 2.003802 1_555
O17 Se4 1.717871 1_555
O17 V1 1.898526 1_555
O18 Se5 1.717871 1_555
O18 V0 1.898526 1_556
O19 Se7 1.742804 1_555
O19 Pt0 2.003802 1_665
O20 Se5 1.734509 1_555
O20 Pt0 2.003874 1_565
O21 Se6 1.704844 1_555
O21 V1 1.947352 1_555
O22 Se4 1.734509 1_555
O22 Pt1 2.003874 1_556
O23 Se7 1.704844 1_555
O23 V0 1.947352 1_655
