# generated using pymatgen
data_CsMn3Ge2O9
_symmetry_space_group_name_H-M   'P 1'
_cell_length_a   5.90931269
_cell_length_b   5.90673391
_cell_length_c   14.20015828
_cell_angle_alpha   90.03520880
_cell_angle_beta   89.93419182
_cell_angle_gamma   120.01850844
_symmetry_Int_Tables_number   1
_chemical_formula_structural   CsMn3Ge2O9
_chemical_formula_sum   'Cs2 Mn6 Ge4 O18'
_cell_volume   429.16755358
_cell_formula_units_Z   2
loop_
 _symmetry_equiv_pos_site_id
 _symmetry_equiv_pos_as_xyz
  1  'x, y, z'
loop_
 _atom_site_type_symbol
 _atom_site_label
 _atom_site_symmetry_multiplicity
 _atom_site_fract_x
 _atom_site_fract_y
 _atom_site_fract_z
 _atom_site_occupancy
  Cs  Cs0  1  0.33329803  0.66657229  0.74999992  1
  Cs  Cs1  1  0.66671926  0.33345612  0.25000076  1
  Mn  Mn0  1  0.49998960  0.49999326  0.50000277  1
  Mn  Mn1  1  0.50001925  0.00001122  0.99999901  1
  Mn  Mn2  1  0.50002046  0.49999858  0.99999607  1
  Mn  Mn3  1  0.99997837  0.49998056  0.50000117  1
  Mn  Mn4  1  0.49996998  0.99998774  0.49999988  1
  Mn  Mn5  1  0.00000897  0.50000361  0.99999750  1
  Ge  Ge0  1  0.99992731  0.99959236  0.62412682  1
  Ge  Ge1  1  0.00003831  0.00039735  0.37587352  1
  Ge  Ge2  1  0.00028448  0.00041924  0.12411203  1
  Ge  Ge3  1  0.99973924  0.99959704  0.87588769  1
  O  O0  1  0.99957920  0.99897258  0.74997695  1
  O  O1  1  0.00040749  0.00104610  0.25002223  1
  O  O2  1  0.66649622  0.33340781  0.55695721  1
  O  O3  1  0.33346278  0.66656249  0.44304494  1
  O  O4  1  0.33313663  0.66660591  0.05695092  1
  O  O5  1  0.66689614  0.33339629  0.94304522  1
  O  O6  1  0.16291637  0.83719336  0.58343449  1
  O  O7  1  0.67493279  0.83671379  0.58368535  1
  O  O8  1  0.16244018  0.32482230  0.58378456  1
  O  O9  1  0.83703421  0.16277513  0.41657157  1
  O  O10  1  0.32503980  0.16327522  0.41631636  1
  O  O11  1  0.83754156  0.67516489  0.41622173  1
  O  O12  1  0.83746143  0.16256106  0.08366701  1
  O  O13  1  0.32565865  0.16345743  0.08347275  1
  O  O14  1  0.83825643  0.67516516  0.08376987  1
  O  O15  1  0.16257478  0.83746499  0.91632970  1
  O  O16  1  0.67438001  0.83654805  0.91652819  1
  O  O17  1  0.16178708  0.32485806  0.91622179  1
loop_
_geom_bond_atom_site_label_1
_geom_bond_atom_site_label_2
_geom_bond_distance
_geom_bond_site_symmetry_2
Cs0 O7 2.936867 1_555
Cs0 O8 2.936930 1_555
Cs0 O15 2.936981 1_555
Cs0 O17 2.937024 1_555
Cs0 O16 2.940359 1_555
Cs0 O6 2.940666 1_555
Cs0 O0 3.408520 1_455
Cs0 O0 3.409140 1_555
Cs0 O0 3.414390 1_445
Cs1 O11 2.936869 1_555
Cs1 O10 2.937015 1_555
Cs1 O12 2.937091 1_555
Cs1 O14 2.937112 1_555
Cs1 O13 2.940291 1_555
Cs1 O9 2.940707 1_555
Cs1 O1 3.408413 1_655
Cs1 O1 3.409297 1_555
Cs1 O1 3.414341 1_665
Mn0 O2 1.887316 1_555
Mn0 O3 1.887355 1_555
Mn0 O7 2.092662 1_555
Mn0 O10 2.092683 1_555
Mn0 O8 2.096616 1_555
Mn0 O11 2.096621 1_555
Mn1 O5 1.887189 1_555
Mn1 O4 1.887271 1_546
Mn1 O13 2.095184 1_556
Mn1 O16 2.095232 1_545
Mn1 O12 2.097162 1_556
Mn1 O15 2.097183 1_545
Mn2 O5 1.887591 1_555
Mn2 O4 1.887677 1_556
Mn2 O16 2.090200 1_555
Mn2 O13 2.090237 1_556
Mn2 O17 2.101280 1_555
Mn2 O14 2.101289 1_556
Mn3 O2 1.887581 1_555
Mn3 O3 1.887593 1_655
Mn3 O9 2.092530 1_555
Mn3 O6 2.092592 1_655
Mn3 O11 2.098911 1_555
Mn3 O8 2.098936 1_655
Mn4 O2 1.887305 1_565
Mn4 O3 1.887315 1_555
Mn4 O9 2.091673 1_565
Mn4 O6 2.091678 1_555
Mn4 O10 2.100650 1_565
Mn4 O7 2.100748 1_555
Mn5 O5 1.887271 1_455
Mn5 O4 1.887346 1_556
Mn5 O14 2.093941 1_456
Mn5 O17 2.094006 1_555
Mn5 O12 2.095646 1_456
Mn5 O15 2.095711 1_555
Ge0 O8 1.759275 1_665
Ge0 O7 1.759784 1_555
Ge0 O6 1.761867 1_655
Ge0 O0 1.787094 1_555
Ge1 O11 1.759315 1_445
Ge1 O10 1.759824 1_555
Ge1 O9 1.761864 1_455
Ge1 O1 1.787111 1_555
Ge2 O14 1.759343 1_445
Ge2 O12 1.759781 1_455
Ge2 O13 1.761482 1_555
Ge2 O1 1.787947 1_555
Ge3 O17 1.759339 1_665
Ge3 O15 1.759781 1_655
Ge3 O16 1.761415 1_555
Ge3 O0 1.787954 1_555
