# generated using pymatgen
data_Ta6Ti3WN12
_symmetry_space_group_name_H-M   'P 1'
_cell_length_a   5.14546958
_cell_length_b   5.14335010
_cell_length_c   10.23754931
_cell_angle_alpha   89.98735152
_cell_angle_beta   89.99363410
_cell_angle_gamma   119.88230304
_symmetry_Int_Tables_number   1
_chemical_formula_structural   Ta6Ti3WN12
_chemical_formula_sum   'Ta6 Ti3 W1 N12'
_cell_volume   234.91544115
_cell_formula_units_Z   1
loop_
 _symmetry_equiv_pos_site_id
 _symmetry_equiv_pos_as_xyz
  1  'x, y, z'
loop_
 _atom_site_type_symbol
 _atom_site_label
 _atom_site_symmetry_multiplicity
 _atom_site_fract_x
 _atom_site_fract_y
 _atom_site_fract_z
 _atom_site_occupancy
  Ta  Ta0  1  0.32276735  0.99806999  0.75186886  1
  Ta  Ta1  1  0.00034491  0.32402588  0.75194222  1
  Ta  Ta2  1  0.32211029  0.32324915  0.24847340  1
  Ta  Ta3  1  0.67671680  0.99883693  0.24845029  1
  Ta  Ta4  1  0.00125985  0.67784471  0.24843575  1
  Ta  Ta5  1  0.66670960  0.33273168  0.49859880  1
  Ti  Ti0  1  0.66706115  0.33341765  0.00198834  1
  Ti  Ti1  1  0.33349942  0.66698926  0.00181718  1
  Ti  Ti2  1  0.33271496  0.66658116  0.49614493  1
  W  W0  1  0.67544871  0.67675381  0.75125576  1
  N  N0  1  0.65612707  0.65749293  0.38059048  1
  N  N1  1  0.34192769  0.99868477  0.38001707  1
  N  N2  1  0.00161195  0.34324427  0.38000045  1
  N  N3  1  0.34537212  0.34721020  0.62201510  1
  N  N4  1  0.65492149  0.99738998  0.62192321  1
  N  N5  1  0.00020009  0.65635835  0.62198861  1
  N  N6  1  0.34871591  0.34842215  0.87888051  1
  N  N7  1  0.65398735  0.99886020  0.87889148  1
  N  N8  1  0.99834561  0.65379935  0.87892584  1
  N  N9  1  0.65331057  0.65315934  0.11890054  1
  N  N10  1  0.34669356  0.00037156  0.11945297  1
  N  N11  1  0.00015353  0.34650768  0.11943820  1
loop_
_geom_bond_atom_site_label_1
_geom_bond_atom_site_label_2
_geom_bond_distance
_geom_bond_site_symmetry_2
N0 Ti2 2.061070 1_555
N0 Ta5 2.083835 1_555
N0 Ta3 2.176503 1_555
N0 Ta2 2.189999 1_555
N0 Ta4 2.193010 1_655
N1 Ti2 2.061976 1_555
N1 Ta5 2.087776 1_565
N1 Ta4 2.174757 1_555
N1 Ta2 2.186169 1_565
N1 Ta3 2.186287 1_555
N2 Ti2 2.064012 1_555
N2 Ta5 2.086452 1_455
N2 Ta2 2.170672 1_555
N2 Ta4 2.185853 1_555
N2 Ta3 2.190228 1_445
N3 Ta5 2.111406 1_555
N3 Ti2 2.113924 1_555
N3 W0 2.154316 1_555
N3 Ta1 2.173413 1_555
N3 Ta0 2.190045 1_545
N4 Ta5 2.113605 1_565
N4 Ti2 2.119509 1_555
N4 W0 2.157909 1_555
N4 Ta0 2.167075 1_555
N4 Ta1 2.186176 1_665
N5 Ta5 2.113336 1_455
N5 Ti2 2.121258 1_555
N5 Ta1 2.166094 1_555
N5 Ta0 2.169459 1_555
N5 W0 2.174582 1_455
N6 Ti1 2.098461 1_556
N6 Ti0 2.098549 1_556
N6 W0 2.134218 1_555
N6 Ta1 2.166606 1_555
N6 Ta0 2.171878 1_545
N7 Ti1 2.100120 1_556
N7 Ti0 2.106954 1_566
N7 Ta0 2.142249 1_555
N7 W0 2.155805 1_555
N7 Ta1 2.165836 1_665
N8 Ti0 2.099523 1_556
N8 Ti1 2.108402 1_656
N8 Ta1 2.141345 1_655
N8 Ta0 2.160348 1_655
N8 W0 2.163001 1_555
N9 Ti0 2.063705 1_555
N9 Ti1 2.065619 1_555
N9 Ta2 2.158751 1_555
N9 Ta3 2.173082 1_555
N9 Ta4 2.180417 1_655
N10 Ti1 2.068838 1_545
N10 Ti0 2.069476 1_555
N10 Ta3 2.154430 1_545
N10 Ta4 2.171451 1_545
N10 Ta2 2.174565 1_555
N11 Ti0 2.067201 1_455
N11 Ti1 2.071344 1_555
N11 Ta4 2.153981 1_555
N11 Ta2 2.168325 1_555
N11 Ta3 2.178262 1_445
