# generated using pymatgen
data_K6Si2O7
_symmetry_space_group_name_H-M   'P 1'
_cell_length_a   8.87109369
_cell_length_b   6.43813627
_cell_length_c   10.86522046
_cell_angle_alpha   55.12052617
_cell_angle_beta   90.00000000
_cell_angle_gamma   90.00000000
_symmetry_Int_Tables_number   1
_chemical_formula_structural   K6Si2O7
_chemical_formula_sum   'K12 Si4 O14'
_cell_volume   509.07134631
_cell_formula_units_Z   2
loop_
 _symmetry_equiv_pos_site_id
 _symmetry_equiv_pos_as_xyz
  1  'x, y, z'
loop_
 _atom_site_type_symbol
 _atom_site_label
 _atom_site_symmetry_multiplicity
 _atom_site_fract_x
 _atom_site_fract_y
 _atom_site_fract_z
 _atom_site_occupancy
  K  K0  1  0.02659015  0.79274577  0.45565036  1
  K  K1  1  0.47340985  0.79274577  0.95565036  1
  K  K2  1  0.97340985  0.20725423  0.54434964  1
  K  K3  1  0.85096986  0.97090347  0.91392048  1
  K  K4  1  0.35096986  0.02909653  0.58607952  1
  K  K5  1  0.14903014  0.02909653  0.08607952  1
  K  K6  1  0.64903014  0.97090347  0.41392048  1
  K  K7  1  0.78180520  0.60323383  0.77730893  1
  K  K8  1  0.28180520  0.39676617  0.72269107  1
  K  K9  1  0.21819480  0.39676617  0.22269107  1
  K  K10  1  0.71819480  0.60323383  0.27730893  1
  K  K11  1  0.52659015  0.20725423  0.04434964  1
  Si  Si0  1  0.13605891  0.67419644  0.87415001  1
  Si  Si1  1  0.36394109  0.67419644  0.37415001  1
  Si  Si2  1  0.86394109  0.32580356  0.12584999  1
  Si  Si3  1  0.63605891  0.32580356  0.62584999  1
  O  O0  1  -0.00000000  0.50000000  -0.00000000  1
  O  O1  1  0.58172722  0.25956756  0.78755848  1
  O  O2  1  0.08172722  0.74043244  0.71244152  1
  O  O3  1  0.41827278  0.74043244  0.21244152  1
  O  O4  1  0.50000000  0.50000000  0.50000000  1
  O  O5  1  0.84106510  0.07261855  0.12732593  1
  O  O6  1  0.34106510  0.92738145  0.37267407  1
  O  O7  1  0.15893490  0.92738145  0.87267407  1
  O  O8  1  0.65893490  0.07261855  0.62732593  1
  O  O9  1  0.71456548  0.50542903  0.06516674  1
  O  O10  1  0.21456548  0.49457097  0.43483326  1
  O  O11  1  0.28543452  0.49457097  0.93483326  1
  O  O12  1  0.78543452  0.50542903  0.56516674  1
  O  O13  1  0.91827278  0.25956756  0.28755848  1
loop_
_geom_bond_atom_site_label_1
_geom_bond_atom_site_label_2
_geom_bond_distance
_geom_bond_site_symmetry_2
K0 O12 2.626190 1_455
K0 O10 2.648335 1_555
K0 O13 2.648368 1_465
K0 O2 2.657546 1_555
K0 O6 2.907406 1_555
K1 O9 2.626190 1_556
K1 O11 2.648335 1_555
K1 O1 2.648368 1_565
K1 O3 2.657546 1_556
K1 O7 2.907406 1_555
K2 O10 2.626190 1_655
K2 O12 2.648335 1_555
K2 O2 2.648368 1_645
K2 O13 2.657546 1_555
K2 O8 2.907406 1_555
K3 O9 2.741003 1_556
K3 O5 2.747640 1_566
K3 O7 2.808331 1_655
K3 O1 2.850516 1_565
K3 O0 2.927636 1_656
K4 O10 2.741003 1_555
K4 O6 2.747640 1_545
K4 O8 2.808331 1_555
K4 O2 2.850516 1_545
K4 O4 2.927636 1_555
K5 O11 2.741003 1_554
K5 O7 2.747640 1_544
K5 O5 2.808331 1_455
K5 O3 2.850516 1_545
K5 O0 2.927636 1_555
K6 O12 2.741003 1_555
K6 O8 2.747640 1_565
K6 O6 2.808331 1_555
K6 O13 2.850516 1_565
K6 O4 2.927636 1_555
K7 O8 2.709920 1_565
K7 O12 2.714847 1_555
K7 O2 2.764767 1_655
K7 O1 2.788614 1_555
K7 O0 2.864185 1_656
K7 O9 2.877846 1_556
K8 O7 2.709920 1_545
K8 O11 2.714847 1_555
K8 O1 2.764767 1_555
K8 O2 2.788614 1_555
K8 O4 2.864185 1_555
K8 O10 2.877846 1_555
K9 O6 2.709920 1_545
K9 O10 2.714847 1_555
K9 O13 2.764767 1_455
K9 O3 2.788614 1_555
K9 O0 2.864185 1_555
K9 O11 2.877846 1_554
K10 O5 2.709920 1_565
K10 O9 2.714847 1_555
K10 O3 2.764767 1_555
K10 O13 2.788614 1_555
K10 O4 2.864185 1_555
K10 O12 2.877846 1_555
K11 O11 2.626190 1_554
K11 O9 2.648335 1_555
K11 O3 2.648368 1_545
K11 O1 2.657546 1_554
K11 O5 2.907406 1_555
O0 Si0 1.682391 1_554
O0 Si2 1.682391 1_455
O1 Si3 1.626124 1_555
O2 Si0 1.626124 1_555
O3 Si1 1.626124 1_555
O4 Si1 1.682391 1_555
O4 Si3 1.682391 1_555
O5 Si2 1.633577 1_555
O6 Si1 1.633577 1_555
O7 Si0 1.633577 1_555
O8 Si3 1.633577 1_555
O9 Si2 1.629724 1_555
O10 Si1 1.629724 1_555
O11 Si0 1.629724 1_555
O12 Si3 1.629724 1_555
O13 Si2 1.626124 1_555
