# generated using pymatgen
data_Ti2GaTc2C3
_symmetry_space_group_name_H-M   'P 1'
_cell_length_a   3.00368587
_cell_length_b   3.00368495
_cell_length_c   23.17099261
_cell_angle_alpha   90.00000000
_cell_angle_beta   90.00000000
_cell_angle_gamma   119.99998846
_symmetry_Int_Tables_number   1
_chemical_formula_structural   Ti2GaTc2C3
_chemical_formula_sum   'Ti4 Ga2 Tc4 C6'
_cell_volume   181.04403138
_cell_formula_units_Z   2
loop_
 _symmetry_equiv_pos_site_id
 _symmetry_equiv_pos_as_xyz
  1  'x, y, z'
loop_
 _atom_site_type_symbol
 _atom_site_label
 _atom_site_symmetry_multiplicity
 _atom_site_fract_x
 _atom_site_fract_y
 _atom_site_fract_z
 _atom_site_occupancy
  Ti  Ti0  1  0.33333300  0.66666700  0.44539555  1
  Ti  Ti1  1  0.66666700  0.33333300  0.55460445  1
  Ti  Ti2  1  0.66666700  0.33333300  0.94539555  1
  Ti  Ti3  1  0.33333300  0.66666700  0.05460445  1
  Ga  Ga0  1  0.33333300  0.66666700  0.25000000  1
  Ga  Ga1  1  0.66666700  0.33333300  0.75000000  1
  Tc  Tc0  1  0.00000000  0.00000000  0.34124781  1
  Tc  Tc1  1  0.00000000  0.00000000  0.65875219  1
  Tc  Tc2  1  0.00000000  0.00000000  0.84124781  1
  Tc  Tc3  1  0.00000000  0.00000000  0.15875219  1
  C  C0  1  0.00000000  0.00000000  0.50000000  1
  C  C1  1  0.00000000  0.00000000  0.00000000  1
  C  C2  1  0.66666700  0.33333300  0.38943646  1
  C  C3  1  0.33333300  0.66666700  0.61056354  1
  C  C4  1  0.33333300  0.66666700  0.88943646  1
  C  C5  1  0.66666700  0.33333300  0.11056354  1
loop_
_geom_bond_atom_site_label_1
_geom_bond_atom_site_label_2
_geom_bond_distance
_geom_bond_site_symmetry_2
Ga0 Tc0 2.734528 1_565
Ga0 Tc3 2.734528 1_565
Ga0 Tc0 2.734530 1_555
Ga0 Tc3 2.734530 1_555
Ga0 Tc0 2.734530 1_665
Ga0 Tc3 2.734530 1_665
Ga1 Tc2 2.734528 1_655
Ga1 Tc1 2.734528 1_655
Ga1 Tc2 2.734530 1_665
Ga1 Tc1 2.734530 1_665
Ga1 Tc2 2.734530 1_555
Ga1 Tc1 2.734530 1_555
C0 Ti1 2.146672 1_455
C0 Ti0 2.146672 1_545
C0 Ti1 2.146674 1_445
C0 Ti0 2.146674 1_555
C0 Ti1 2.146674 1_555
C0 Ti0 2.146674 1_445
C1 Ti3 2.146672 1_545
C1 Ti2 2.146672 1_454
C1 Ti3 2.146674 1_555
C1 Ti2 2.146674 1_444
C1 Ti3 2.146674 1_445
C1 Ti2 2.146674 1_554
C2 Tc0 2.062551 1_655
C2 Tc0 2.062553 1_665
C2 Tc0 2.062554 1_555
C2 Ti0 2.165320 1_545
C2 Ti0 2.165321 1_655
C2 Ti0 2.165324 1_555
C3 Tc1 2.062551 1_565
C3 Tc1 2.062553 1_555
C3 Tc1 2.062554 1_665
C3 Ti1 2.165320 1_565
C3 Ti1 2.165321 1_455
C3 Ti1 2.165324 1_555
C4 Tc2 2.062551 1_565
C4 Tc2 2.062553 1_555
C4 Tc2 2.062554 1_665
C4 Ti2 2.165320 1_565
C4 Ti2 2.165321 1_455
C4 Ti2 2.165324 1_555
C5 Tc3 2.062551 1_655
C5 Tc3 2.062553 1_665
C5 Tc3 2.062554 1_555
C5 Ti3 2.165320 1_545
C5 Ti3 2.165321 1_655
C5 Ti3 2.165324 1_555
