# generated using pymatgen
data_CrSiH12(OF)6
_symmetry_space_group_name_H-M   'P 1'
_cell_length_a   6.41852226
_cell_length_b   6.41852226
_cell_length_c   6.41852247
_cell_angle_alpha   96.91522922
_cell_angle_beta   96.91522922
_cell_angle_gamma   96.91521851
_symmetry_Int_Tables_number   1
_chemical_formula_structural   CrSiH12(OF)6
_chemical_formula_sum   'Cr1 Si1 H12 O6 F6'
_cell_volume   258.14056063
_cell_formula_units_Z   1
loop_
 _symmetry_equiv_pos_site_id
 _symmetry_equiv_pos_as_xyz
  1  'x, y, z'
loop_
 _atom_site_type_symbol
 _atom_site_label
 _atom_site_symmetry_multiplicity
 _atom_site_fract_x
 _atom_site_fract_y
 _atom_site_fract_z
 _atom_site_occupancy
  Cr  Cr0  1  0.00000000  0.00000000  0.00000000  1
  Si  Si0  1  0.50000000  0.50000000  0.50000000  1
  H  H0  1  0.82609000  0.31746600  0.23441600  1
  H  H1  1  0.93729700  0.58831400  0.78970500  1
  H  H2  1  0.78970500  0.93729700  0.58831400  1
  H  H3  1  0.76558400  0.17391000  0.68253400  1
  H  H4  1  0.68253400  0.76558400  0.17391000  1
  H  H5  1  0.41168600  0.21029500  0.06270300  1
  H  H6  1  0.58831400  0.78970500  0.93729700  1
  H  H7  1  0.31746600  0.23441600  0.82609000  1
  H  H8  1  0.23441600  0.82609000  0.31746600  1
  H  H9  1  0.21029500  0.06270300  0.41168600  1
  H  H10  1  0.06270300  0.41168600  0.21029500  1
  H  H11  1  0.17391000  0.68253400  0.76558400  1
  O  O0  1  0.94006800  0.30781700  0.14574000  1
  O  O1  1  0.85426000  0.05993200  0.69218300  1
  O  O2  1  0.69218300  0.85426000  0.05993200  1
  O  O3  1  0.30781700  0.14574000  0.94006800  1
  O  O4  1  0.14574000  0.94006800  0.30781700  1
  O  O5  1  0.05993200  0.69218300  0.85426000  1
  F  F0  1  0.69659200  0.67671900  0.43338000  1
  F  F1  1  0.67671900  0.43338000  0.69659200  1
  F  F2  1  0.56662000  0.30340800  0.32328100  1
  F  F3  1  0.43338000  0.69659200  0.67671900  1
  F  F4  1  0.32328100  0.56662000  0.30340800  1
  F  F5  1  0.30340800  0.32328100  0.56662000  1
loop_
_geom_bond_atom_site_label_1
_geom_bond_atom_site_label_2
_geom_bond_distance
_geom_bond_site_symmetry_2
Cr0 O5 2.179712 1_544
Cr0 O0 2.179712 1_455
Cr0 O1 2.179712 1_454
Cr0 O4 2.179712 1_545
Cr0 O2 2.179712 1_445
Cr0 O3 2.179712 1_554
H0 O0 0.982686 1_555
H1 O5 0.981995 1_655
H2 O1 0.981995 1_565
H3 O1 0.982686 1_555
H4 O2 0.982686 1_555
H5 O3 0.981995 1_554
H6 O2 0.981995 1_556
H7 O3 0.982686 1_555
H8 O4 0.982686 1_555
H9 O4 0.981995 1_545
H10 O0 0.981995 1_455
H11 O5 0.982686 1_555
F0 Si0 1.721543 1_555
F1 Si0 1.721542 1_555
F2 Si0 1.721542 1_555
F3 Si0 1.721542 1_555
F4 Si0 1.721542 1_555
F5 Si0 1.721543 1_555
