# generated using pymatgen
data_Cs2Ni(PtSe2)2
_symmetry_space_group_name_H-M   'P 1'
_cell_length_a   9.04541454
_cell_length_b   8.01141548
_cell_length_c   6.35048510
_cell_angle_alpha   77.11408988
_cell_angle_beta   59.69856811
_cell_angle_gamma   43.18734121
_symmetry_Int_Tables_number   1
_chemical_formula_structural   Cs2Ni(PtSe2)2
_chemical_formula_sum   'Cs2 Ni1 Pt2 Se4'
_cell_volume   263.62609621
_cell_formula_units_Z   1
loop_
 _symmetry_equiv_pos_site_id
 _symmetry_equiv_pos_as_xyz
  1  'x, y, z'
loop_
 _atom_site_type_symbol
 _atom_site_label
 _atom_site_symmetry_multiplicity
 _atom_site_fract_x
 _atom_site_fract_y
 _atom_site_fract_z
 _atom_site_occupancy
  Cs  Cs0  1  0.34899694  0.34899694  0.65100306  1
  Cs  Cs1  1  0.65100306  0.65100306  0.34899694  1
  Ni  Ni0  1  0.00000000  0.00000000  0.00000000  1
  Pt  Pt0  1  0.00000000  0.00000000  0.50000000  1
  Pt  Pt1  1  0.50000000  0.50000000  0.00000000  1
  Se  Se0  1  0.94395995  0.26952775  0.73047225  1
  Se  Se1  1  0.05604005  0.73047225  0.26952775  1
  Se  Se2  1  0.73047225  0.05604005  0.94395995  1
  Se  Se3  1  0.26952775  0.94395995  0.05604005  1
loop_
_geom_bond_atom_site_label_1
_geom_bond_atom_site_label_2
_geom_bond_distance
_geom_bond_site_symmetry_2
Cs0 Se1 3.687417 1_555
Cs0 Se2 3.687417 1_555
Cs0 Se2 3.851229 1_554
Cs0 Se1 3.851229 1_556
Cs0 Se2 3.851230 1_465
Cs0 Se1 3.851230 1_645
Cs0 Pt1 3.860219 1_555
Cs0 Pt1 3.860219 1_556
Cs0 Pt0 3.860219 1_565
Cs0 Pt0 3.860219 1_655
Cs0 Se3 3.933859 1_546
Cs0 Se0 3.933859 1_455
Cs0 Ni0 4.020583 1_655
Cs0 Ni0 4.020583 1_566
Cs1 Se0 3.687417 1_555
Cs1 Se3 3.687417 1_555
Cs1 Se3 3.851229 1_556
Cs1 Se0 3.851229 1_554
Cs1 Se3 3.851230 1_645
Cs1 Se0 3.851230 1_465
Cs1 Pt1 3.860219 1_556
Cs1 Pt1 3.860219 1_555
Cs1 Pt0 3.860219 1_655
Cs1 Pt0 3.860219 1_565
Cs1 Se2 3.933859 1_564
Cs1 Se1 3.933859 1_655
Cs1 Ni0 4.020583 1_566
Cs1 Ni0 4.020583 1_655
Ni0 Se1 2.340971 1_545
Ni0 Se0 2.340971 1_454
Ni0 Se3 2.340972 1_545
Ni0 Se2 2.340972 1_454
Pt0 Se3 2.475172 1_545
Pt0 Se2 2.475172 1_455
Pt0 Se0 2.475172 1_455
Pt0 Se1 2.475172 1_545
Pt1 Se3 2.475172 1_555
Pt1 Se2 2.475172 1_554
Pt1 Se0 2.475172 1_554
Pt1 Se1 2.475172 1_555
