# generated using pymatgen
data_Y7PI12
_symmetry_space_group_name_H-M   'P 1'
_cell_length_a   9.62369384
_cell_length_b   9.62369412
_cell_length_c   9.62369382
_cell_angle_alpha   107.73954919
_cell_angle_beta   107.73955069
_cell_angle_gamma   107.73954708
_symmetry_Int_Tables_number   1
_chemical_formula_structural   Y7PI12
_chemical_formula_sum   'Y7 P1 I12'
_cell_volume   726.79098578
_cell_formula_units_Z   1
loop_
 _symmetry_equiv_pos_site_id
 _symmetry_equiv_pos_as_xyz
  1  'x, y, z'
loop_
 _atom_site_type_symbol
 _atom_site_label
 _atom_site_symmetry_multiplicity
 _atom_site_fract_x
 _atom_site_fract_y
 _atom_site_fract_z
 _atom_site_occupancy
  Y  Y0  1  0.69908976  0.97050203  0.90061376  1
  Y  Y1  1  0.97050203  0.90061376  0.69908976  1
  Y  Y2  1  0.50000000  0.50000000  0.50000000  1
  Y  Y3  1  0.09938624  0.30091024  0.02949797  1
  Y  Y4  1  0.30091024  0.02949797  0.09938624  1
  Y  Y5  1  0.90061376  0.69908976  0.97050203  1
  Y  Y6  1  0.02949797  0.09938624  0.30091024  1
  P  P0  1  0.00000000  0.00000000  0.00000000  1
  I  I0  1  0.07774322  0.22836741  0.68501148  1
  I  I1  1  0.38759107  0.15356392  0.46752440  1
  I  I2  1  0.61240893  0.84643608  0.53247560  1
  I  I3  1  0.22836741  0.68501148  0.07774322  1
  I  I4  1  0.77163259  0.31498852  0.92225678  1
  I  I5  1  0.68501148  0.07774322  0.22836741  1
  I  I6  1  0.53247560  0.61240893  0.84643608  1
  I  I7  1  0.84643608  0.53247560  0.61240893  1
  I  I8  1  0.92225678  0.77163259  0.31498852  1
  I  I9  1  0.31498852  0.92225678  0.77163259  1
  I  I10  1  0.46752440  0.38759107  0.15356392  1
  I  I11  1  0.15356392  0.46752440  0.38759107  1
loop_
_geom_bond_atom_site_label_1
_geom_bond_atom_site_label_2
_geom_bond_distance
_geom_bond_site_symmetry_2
P0 Y0 2.650884 1_444
P0 Y4 2.650884 1_555
P0 Y6 2.650884 1_555
P0 Y1 2.650884 1_444
P0 Y5 2.650884 1_444
P0 Y3 2.650884 1_555
I0 Y1 3.065025 1_445
I0 Y3 3.098669 1_556
I0 Y6 3.350693 1_555
I1 Y2 3.056898 1_555
I1 Y4 3.112489 1_555
I1 Y6 3.122074 1_555
I2 Y2 3.056898 1_555
I2 Y0 3.112489 1_555
I2 Y1 3.122074 1_555
I3 Y5 3.065025 1_454
I3 Y4 3.098669 1_565
I3 Y3 3.350693 1_555
I4 Y3 3.065025 1_656
I4 Y0 3.098669 1_545
I4 Y5 3.350693 1_555
I5 Y0 3.065025 1_544
I5 Y6 3.098669 1_655
I5 Y4 3.350693 1_555
I6 Y2 3.056898 1_555
I6 Y5 3.112489 1_555
I6 Y0 3.122074 1_555
I7 Y2 3.056898 1_555
I7 Y1 3.112489 1_555
I7 Y5 3.122074 1_555
I8 Y6 3.065025 1_665
I8 Y5 3.098669 1_554
I8 Y1 3.350693 1_555
I9 Y4 3.065025 1_566
I9 Y1 3.098669 1_455
I9 Y0 3.350693 1_555
I10 Y2 3.056898 1_555
I10 Y3 3.112489 1_555
I10 Y4 3.122074 1_555
I11 Y2 3.056898 1_555
I11 Y6 3.112489 1_555
I11 Y3 3.122074 1_555
