# generated using pymatgen
data_InCu2SbRh4
_symmetry_space_group_name_H-M   'P 1'
_cell_length_a   7.54448539
_cell_length_b   7.54448578
_cell_length_c   7.54448646
_cell_angle_alpha   33.60233115
_cell_angle_beta   33.60232469
_cell_angle_gamma   33.60233142
_symmetry_Int_Tables_number   1
_chemical_formula_structural   InCu2SbRh4
_chemical_formula_sum   'In1 Cu2 Sb1 Rh4'
_cell_volume   117.16077608
_cell_formula_units_Z   1
loop_
 _symmetry_equiv_pos_site_id
 _symmetry_equiv_pos_as_xyz
  1  'x, y, z'
loop_
 _atom_site_type_symbol
 _atom_site_label
 _atom_site_symmetry_multiplicity
 _atom_site_fract_x
 _atom_site_fract_y
 _atom_site_fract_z
 _atom_site_occupancy
  In  In0  1  0.00000000  0.00000000  0.00000000  1
  Cu  Cu0  1  0.25453364  0.25453364  0.25453364  1
  Cu  Cu1  1  0.74546636  0.74546636  0.74546636  1
  Sb  Sb0  1  0.50000000  0.50000000  0.50000000  1
  Rh  Rh0  1  0.62113690  0.62113690  0.62113690  1
  Rh  Rh1  1  0.12817111  0.12817111  0.12817111  1
  Rh  Rh2  1  0.87182889  0.87182889  0.87182889  1
  Rh  Rh3  1  0.37886310  0.37886310  0.37886310  1
loop_
_geom_bond_atom_site_label_1
_geom_bond_atom_site_label_2
_geom_bond_distance
_geom_bond_site_symmetry_2
In0 Rh3 2.698977 1_554
In0 Rh0 2.698977 1_445
In0 Rh0 2.698977 1_544
In0 Rh3 2.698977 1_455
In0 Rh0 2.698977 1_454
In0 Rh3 2.698977 1_545
In0 Rh1 2.734601 1_555
In0 Rh2 2.734601 1_444
Cu0 Rh0 2.616240 1_554
Cu0 Rh0 2.616241 1_455
Cu0 Rh0 2.616241 1_545
Cu0 Rh3 2.652637 1_555
Cu0 Rh1 2.696014 1_555
Cu0 Rh2 2.729548 1_445
Cu0 Rh2 2.729548 1_544
Cu0 Rh2 2.729549 1_454
Cu1 Rh3 2.616240 1_556
Cu1 Rh3 2.616241 1_655
Cu1 Rh3 2.616241 1_565
Cu1 Rh0 2.652637 1_555
Cu1 Rh2 2.696014 1_555
Cu1 Rh1 2.729548 1_665
Cu1 Rh1 2.729548 1_566
Cu1 Rh1 2.729549 1_656
Rh0 Sb0 2.584522 1_555
Rh1 Sb0 2.648665 1_554
Rh1 Sb0 2.648665 1_455
Rh1 Sb0 2.648666 1_545
Rh2 Sb0 2.648665 1_556
Rh2 Sb0 2.648665 1_655
Rh2 Sb0 2.648666 1_565
Rh3 Sb0 2.584522 1_555
