# generated using pymatgen
data_Zr6Zn18SbIr5
_symmetry_space_group_name_H-M   'P 1'
_cell_length_a   8.75205210
_cell_length_b   8.75205030
_cell_length_c   8.75205143
_cell_angle_alpha   59.92727361
_cell_angle_beta   59.92727201
_cell_angle_gamma   59.92727545
_symmetry_Int_Tables_number   1
_chemical_formula_structural   Zr6Zn18SbIr5
_chemical_formula_sum   'Zr6 Zn18 Sb1 Ir5'
_cell_volume   473.25753901
_cell_formula_units_Z   1
loop_
 _symmetry_equiv_pos_site_id
 _symmetry_equiv_pos_as_xyz
  1  'x, y, z'
loop_
 _atom_site_type_symbol
 _atom_site_label
 _atom_site_symmetry_multiplicity
 _atom_site_fract_x
 _atom_site_fract_y
 _atom_site_fract_z
 _atom_site_occupancy
  Zr  Zr0  1  0.72526000  0.27149639  0.27149639  1
  Zr  Zr1  1  0.27474000  0.72850361  0.72850361  1
  Zr  Zr2  1  0.27149639  0.72526000  0.27149639  1
  Zr  Zr3  1  0.72850361  0.27474000  0.72850361  1
  Zr  Zr4  1  0.27149639  0.27149639  0.72526000  1
  Zr  Zr5  1  0.72850361  0.72850361  0.27474000  1
  Zn  Zn0  1  0.12670141  0.12670141  0.61664021  1
  Zn  Zn1  1  0.12670141  0.61664021  0.12670141  1
  Zn  Zn2  1  0.87329859  0.87329859  0.38335979  1
  Zn  Zn3  1  0.87329859  0.38335979  0.87329859  1
  Zn  Zn4  1  0.61664021  0.12670141  0.12670141  1
  Zn  Zn5  1  0.38335979  0.87329859  0.87329859  1
  Zn  Zn6  1  0.50000000  0.00000000  0.00000000  1
  Zn  Zn7  1  0.00000000  0.50000000  0.00000000  1
  Zn  Zn8  1  0.00000000  0.00000000  0.50000000  1
  Zn  Zn9  1  0.34140139  0.34140139  0.34140139  1
  Zn  Zn10  1  0.65859861  0.65859861  0.65859861  1
  Zn  Zn11  1  0.33418173  0.33418173  0.98672230  1
  Zn  Zn12  1  0.33418173  0.98672230  0.33418173  1
  Zn  Zn13  1  0.66581827  0.66581827  0.01327770  1
  Zn  Zn14  1  0.66581827  0.01327770  0.66581827  1
  Zn  Zn15  1  0.98672230  0.33418173  0.33418173  1
  Zn  Zn16  1  0.01327770  0.66581827  0.66581827  1
  Zn  Zn17  1  0.00000000  0.00000000  0.00000000  1
  Sb  Sb0  1  0.50000000  0.50000000  0.50000000  1
  Ir  Ir0  1  0.11805929  0.11805929  0.11805929  1
  Ir  Ir1  1  0.88194071  0.88194071  0.88194071  1
  Ir  Ir2  1  0.00000000  0.50000000  0.50000000  1
  Ir  Ir3  1  0.50000000  0.00000000  0.50000000  1
  Ir  Ir4  1  0.50000000  0.50000000  0.00000000  1
loop_
_geom_bond_atom_site_label_1
_geom_bond_atom_site_label_2
_geom_bond_distance
_geom_bond_site_symmetry_2
Zn0 Zn8 2.646275 1_555
Zn0 Zn12 2.686325 1_545
Zn0 Zn15 2.686325 1_455
Zn0 Zn9 2.707465 1_555
Zn0 Zn17 2.737054 1_556
Zn0 Zr1 2.847673 1_545
Zn0 Zr3 2.847673 1_455
Zn0 Zr4 2.853027 1_555
Zn1 Zn7 2.646275 1_555
Zn1 Zn15 2.686325 1_455
Zn1 Zn11 2.686325 1_554
Zn1 Zn9 2.707465 1_555
Zn1 Zn17 2.737053 1_565
Zn1 Zr1 2.847673 1_554
Zn1 Zr5 2.847673 1_455
Zn1 Zr2 2.853027 1_555
Zn2 Zn8 2.646275 1_665
Zn2 Zr0 2.847673 1_565
Zn2 Zr2 2.847673 1_655
Zn2 Zr5 2.853027 1_555
Zn3 Zn7 2.646275 1_656
Zn3 Zr0 2.847673 1_556
Zn3 Zr4 2.847673 1_655
Zn3 Zr3 2.853027 1_555
Zn4 Zn6 2.646275 1_555
Zn4 Zn9 2.707465 1_555
Zn4 Zr5 2.847673 1_545
Zn4 Zr3 2.847673 1_554
Zn4 Zr0 2.853027 1_555
Zn5 Zn6 2.646275 1_566
Zn5 Zr4 2.847673 1_565
Zn5 Zr2 2.847673 1_556
Zn5 Zr1 2.853027 1_555
Zn6 Zr3 3.123811 1_554
Zn6 Zr2 3.123811 1_545
Zn6 Zr5 3.123811 1_545
Zn6 Zr4 3.123811 1_554
Zn7 Zr5 3.123811 1_455
Zn7 Zr4 3.123811 1_554
Zn7 Zr1 3.123811 1_554
Zn7 Zr0 3.123811 1_455
Zn8 Zr3 3.123811 1_455
Zn8 Zr2 3.123811 1_545
Zn8 Zr1 3.123811 1_545
Zn8 Zr0 3.123811 1_455
Zn9 Zr2 2.879319 1_555
Zn9 Zr4 2.879320 1_555
Zn9 Zr0 2.879320 1_555
Zn10 Zn2 2.707465 1_555
Zn10 Zn5 2.707465 1_555
Zn10 Zn3 2.707465 1_555
Zn10 Zr3 2.879319 1_555
Zn10 Zr5 2.879320 1_555
Zn10 Zr1 2.879320 1_555
Zn11 Zn6 2.499685 1_556
Zn11 Zn7 2.499685 1_556
Zn11 Zn4 2.686325 1_556
Zn11 Zr4 2.942190 1_555
Zn11 Zr1 2.975014 1_555
Zn11 Zr3 2.975014 1_555
Zn12 Zn6 2.499685 1_565
Zn12 Zn8 2.499685 1_565
Zn12 Zn4 2.686325 1_565
Zn12 Zr2 2.942190 1_555
Zn12 Zr1 2.975014 1_555
Zn12 Zr5 2.975014 1_555
Zn13 Zn6 2.499685 1_565
Zn13 Zn7 2.499685 1_655
Zn13 Zn3 2.686325 1_554
Zn13 Zn5 2.686325 1_554
Zn13 Zr5 2.942190 1_555
Zn13 Zr0 2.975014 1_555
Zn13 Zr2 2.975014 1_555
Zn14 Zn6 2.499685 1_556
Zn14 Zn8 2.499685 1_655
Zn14 Zn2 2.686325 1_545
Zn14 Zn5 2.686325 1_545
Zn14 Zr3 2.942190 1_555
Zn14 Zr0 2.975014 1_555
Zn14 Zr4 2.975014 1_555
Zn15 Zn8 2.499684 1_655
Zn15 Zn7 2.499685 1_655
Zn15 Zr0 2.942190 1_555
Zn15 Zr5 2.975014 1_555
Zn15 Zr3 2.975014 1_555
Zn16 Zn8 2.499684 1_565
Zn16 Zn7 2.499685 1_556
Zn16 Zn3 2.686325 1_455
Zn16 Zn2 2.686325 1_455
Zn16 Zr1 2.942190 1_555
Zn16 Zr4 2.975014 1_555
Zn16 Zr2 2.975014 1_555
Zn17 Zn3 2.737053 1_454
Zn17 Zn2 2.737054 1_445
Zn17 Zn5 2.737054 1_544
Zn17 Zn4 2.737054 1_455
Sb0 Zr1 2.826883 1_555
Sb0 Zr0 2.826883 1_555
Sb0 Zr5 2.826883 1_555
Sb0 Zr4 2.826883 1_555
Sb0 Zr3 2.826883 1_555
Sb0 Zr2 2.826883 1_555
Ir0 Zn17 2.532352 1_555
Ir0 Zn7 2.730609 1_555
Ir0 Zn8 2.730610 1_555
Ir0 Zn6 2.730610 1_555
Ir0 Zn15 2.775715 1_455
Ir0 Zn11 2.775715 1_554
Ir0 Zn12 2.775716 1_545
Ir0 Zr2 2.824716 1_545
Ir0 Zr4 2.824717 1_554
Ir0 Zr0 2.824717 1_455
Ir0 Zn5 3.032857 1_544
Ir0 Zn2 3.032857 1_445
Ir0 Zn3 3.032857 1_454
Ir1 Zn17 2.532352 1_666
Ir1 Zn7 2.730609 1_656
Ir1 Zn8 2.730610 1_665
Ir1 Zn6 2.730610 1_566
Ir1 Zn16 2.775715 1_655
Ir1 Zn13 2.775715 1_556
Ir1 Zn14 2.775716 1_565
Ir1 Zr3 2.824716 1_565
Ir1 Zr5 2.824717 1_556
Ir1 Zr1 2.824717 1_655
Ir1 Zn4 3.032857 1_566
Ir1 Zn0 3.032857 1_665
Ir1 Zn1 3.032857 1_656
Ir2 Zn9 2.529649 1_555
Ir2 Zn10 2.529649 1_455
Ir2 Zn16 2.583514 1_555
Ir2 Zn15 2.583514 1_455
Ir2 Zn2 2.665890 1_455
Ir2 Zn0 2.665890 1_555
Ir2 Zn1 2.665891 1_555
Ir2 Zn3 2.665891 1_455
Ir2 Zr2 3.084373 1_555
Ir2 Zr3 3.084373 1_455
Ir2 Zr4 3.084373 1_555
Ir2 Zr5 3.084373 1_455
Ir3 Zn9 2.529648 1_555
Ir3 Zn10 2.529648 1_545
Ir3 Zn14 2.583514 1_555
Ir3 Zn12 2.583514 1_545
Ir3 Zn5 2.665891 1_545
Ir3 Zn4 2.665891 1_555
Ir3 Zn2 2.665891 1_545
Ir3 Zn0 2.665891 1_555
Ir3 Zr4 3.084373 1_555
Ir3 Zr5 3.084373 1_545
Ir3 Zr0 3.084373 1_555
Ir3 Zr1 3.084373 1_545
Ir4 Zn9 2.529648 1_555
Ir4 Zn10 2.529648 1_554
Ir4 Zn13 2.583514 1_555
Ir4 Zn11 2.583514 1_554
Ir4 Zn5 2.665890 1_554
Ir4 Zn4 2.665890 1_555
Ir4 Zn3 2.665891 1_554
Ir4 Zn1 2.665891 1_555
Ir4 Zr2 3.084373 1_555
Ir4 Zr3 3.084373 1_554
Ir4 Zr0 3.084373 1_555
Ir4 Zr1 3.084373 1_554
