# generated using pymatgen
data_CsScBeS3
_symmetry_space_group_name_H-M   'P 1'
_cell_length_a   7.95296907
_cell_length_b   7.95296861
_cell_length_c   9.92466221
_cell_angle_alpha   90.00000000
_cell_angle_beta   90.00000000
_cell_angle_gamma   152.80331578
_symmetry_Int_Tables_number   1
_chemical_formula_structural   CsScBeS3
_chemical_formula_sum   'Cs2 Sc2 Be2 S6'
_cell_volume   286.90270347
_cell_formula_units_Z   2
loop_
 _symmetry_equiv_pos_site_id
 _symmetry_equiv_pos_as_xyz
  1  'x, y, z'
loop_
 _atom_site_type_symbol
 _atom_site_label
 _atom_site_symmetry_multiplicity
 _atom_site_fract_x
 _atom_site_fract_y
 _atom_site_fract_z
 _atom_site_occupancy
  Cs  Cs0  1  0.76183048  0.23816952  0.25000000  1
  Cs  Cs1  1  0.23816952  0.76183048  0.75000000  1
  Sc  Sc0  1  0.50000000  0.50000000  0.00000000  1
  Sc  Sc1  1  0.50000000  0.50000000  0.50000000  1
  Be  Be0  1  0.03649883  0.96350117  0.25000000  1
  Be  Be1  1  0.96350117  0.03649883  0.75000000  1
  S  S0  1  0.10606902  0.89392998  0.06939934  1
  S  S1  1  0.45447115  0.54552885  0.25000000  1
  S  S2  1  0.10606902  0.89392998  0.43060066  1
  S  S3  1  0.89392998  0.10606902  0.56939934  1
  S  S4  1  0.54552885  0.45447115  0.75000000  1
  S  S5  1  0.89392998  0.10606902  0.93059966  1
loop_
_geom_bond_atom_site_label_1
_geom_bond_atom_site_label_2
_geom_bond_distance
_geom_bond_site_symmetry_2
Cs0 S1 3.516567 1_545
Cs0 S1 3.516567 1_655
Cs0 S2 3.536646 1_655
Cs0 S0 3.536646 1_655
Cs0 S2 3.536648 1_545
Cs0 S0 3.536648 1_545
Cs0 S3 3.770854 1_555
Cs0 S5 3.770863 1_554
Cs1 S4 3.516567 1_565
Cs1 S4 3.516567 1_455
Cs1 S5 3.536641 1_565
Cs1 S5 3.536643 1_455
Cs1 S3 3.536646 1_565
Cs1 S3 3.536648 1_455
Cs1 S0 3.770854 1_556
Cs1 S2 3.770854 1_555
Be0 S2 2.090346 1_555
Be0 S0 2.090346 1_555
Be0 S1 2.259329 1_565
Be0 S1 2.259329 1_455
Be1 S5 2.090337 1_555
Be1 S3 2.090346 1_555
Be1 S4 2.259329 1_545
Be1 S4 2.259329 1_655
S0 Sc0 2.580664 1_455
S0 Sc0 2.580666 1_565
S1 Sc1 2.579075 1_555
S1 Sc0 2.579075 1_555
S2 Sc1 2.580664 1_455
S2 Sc1 2.580666 1_565
S3 Sc1 2.580663 1_545
S3 Sc1 2.580666 1_655
S4 Sc0 2.579075 1_556
S4 Sc1 2.579075 1_555
S5 Sc0 2.580666 1_546
S5 Sc0 2.580669 1_656
