# generated using pymatgen
data_VBiSb2F20
_symmetry_space_group_name_H-M   'P 1'
_cell_length_a   8.45864825
_cell_length_b   8.45864850
_cell_length_c   5.07404917
_cell_angle_alpha   86.00035254
_cell_angle_beta   86.00035371
_cell_angle_gamma   111.84300581
_symmetry_Int_Tables_number   1
_chemical_formula_structural   VBiSb2F20
_chemical_formula_sum   'V1 Bi1 Sb2 F20'
_cell_volume   334.35683602
_cell_formula_units_Z   1
loop_
 _symmetry_equiv_pos_site_id
 _symmetry_equiv_pos_as_xyz
  1  'x, y, z'
loop_
 _atom_site_type_symbol
 _atom_site_label
 _atom_site_symmetry_multiplicity
 _atom_site_fract_x
 _atom_site_fract_y
 _atom_site_fract_z
 _atom_site_occupancy
  V  V0  1  0.20840027  0.79159973  0.00000000  1
  Bi  Bi0  1  0.78641906  0.21358094  1.00000000  1
  Sb  Sb0  1  0.26094712  0.25303131  0.23959647  1
  Sb  Sb1  1  0.74696869  0.73905288  0.76040353  1
  F  F0  1  0.26807955  0.46187997  0.34770613  1
  F  F1  1  0.47465881  0.26434908  0.33132141  1
  F  F2  1  0.73565092  0.52534119  0.66867859  1
  F  F3  1  0.53812003  0.73192045  0.65229387  1
  F  F4  1  0.34625754  0.35116327  0.89314939  1
  F  F5  1  0.64883673  0.65374246  0.10685061  1
  F  F6  1  0.84277710  0.43451169  0.15514934  1
  F  F7  1  0.40187390  0.82903195  0.11339604  1
  F  F8  1  0.17096805  0.59812610  0.88660396  1
  F  F9  1  0.56548831  0.15722290  0.84485066  1
  F  F10  1  0.02843316  0.21172676  0.12170549  1
  F  F11  1  0.21981806  0.02682880  0.11130432  1
  F  F12  1  0.97317120  0.78018194  0.88869568  1
  F  F13  1  0.78827324  0.97156684  0.87829451  1
  F  F14  1  0.14136273  0.13243349  0.55915777  1
  F  F15  1  0.86756651  0.85863727  0.44084223  1
  F  F16  1  0.92930753  0.31279779  0.65848063  1
  F  F17  1  0.27994666  0.91053039  0.69481440  1
  F  F18  1  0.08946961  0.72005334  0.30518560  1
  F  F19  1  0.68720221  0.07069247  0.34151937  1
loop_
_geom_bond_atom_site_label_1
_geom_bond_atom_site_label_2
_geom_bond_distance
_geom_bond_site_symmetry_2
Bi0 F16 1.979440 1_555
Bi0 F19 1.979440 1_556
Bi0 F9 1.983425 1_555
Bi0 F6 1.983425 1_556
Bi0 F10 2.184299 1_656
Bi0 F13 2.184299 1_545
F0 Sb0 1.867040 1_555
F1 Sb0 1.867727 1_555
F2 Sb1 1.867727 1_555
F3 Sb1 1.867040 1_555
F4 Sb0 1.863779 1_556
F5 Sb1 1.863779 1_554
F7 V0 1.697267 1_555
F8 V0 1.697267 1_556
F10 Sb0 2.007476 1_555
F11 Sb0 1.978830 1_555
F11 V0 2.075727 1_545
F12 Sb1 1.978830 1_555
F12 V0 2.075727 1_656
F13 Sb1 2.007477 1_555
F14 Sb0 1.861602 1_555
F15 Sb1 1.861602 1_555
F17 V0 1.724855 1_556
F18 V0 1.724855 1_555
