# generated using pymatgen
data_Ga3Sn(PPd6)2
_symmetry_space_group_name_H-M   'P 1'
_cell_length_a   3.35632128
_cell_length_b   6.80488001
_cell_length_c   11.78967306
_cell_angle_alpha   90.01549095
_cell_angle_beta   90.00000000
_cell_angle_gamma   90.00000000
_symmetry_Int_Tables_number   1
_chemical_formula_structural   Ga3Sn(PPd6)2
_chemical_formula_sum   'Ga3 Sn1 P2 Pd12'
_cell_volume   269.26862007
_cell_formula_units_Z   1
loop_
 _symmetry_equiv_pos_site_id
 _symmetry_equiv_pos_as_xyz
  1  'x, y, z'
loop_
 _atom_site_type_symbol
 _atom_site_label
 _atom_site_symmetry_multiplicity
 _atom_site_fract_x
 _atom_site_fract_y
 _atom_site_fract_z
 _atom_site_occupancy
  Ga  Ga0  1  0.00000000  0.50203222  0.16600159  1
  Ga  Ga1  1  0.00000000  0.49543307  0.83823517  1
  Ga  Ga2  1  0.00000000  0.00470165  0.32911000  1
  Sn  Sn0  1  0.00000000  0.99765601  0.66716054  1
  P  P0  1  0.50000000  0.99684262  0.00611725  1
  P  P1  1  0.50000000  0.50299698  0.49319359  1
  Pd  Pd0  1  0.00000000  0.74746467  0.00297907  1
  Pd  Pd1  1  0.00000000  0.25117123  0.49544997  1
  Pd  Pd2  1  0.00000000  0.61670989  0.62359421  1
  Pd  Pd3  1  0.00000000  0.13081654  0.12688609  1
  Pd  Pd4  1  0.00000000  0.12427237  0.88060308  1
  Pd  Pd5  1  0.00000000  0.62832054  0.36952051  1
  Pd  Pd6  1  0.50000000  0.89415977  0.48838101  1
  Pd  Pd7  1  0.50000000  0.40199157  0.00230492  1
  Pd  Pd8  1  0.50000000  0.78256574  0.80828771  1
  Pd  Pd9  1  0.50000000  0.30574341  0.29818915  1
  Pd  Pd10  1  0.50000000  0.31239187  0.70467302  1
  Pd  Pd11  1  0.50000000  0.80493085  0.19931411  1
loop_
_geom_bond_atom_site_label_1
_geom_bond_atom_site_label_2
_geom_bond_distance
_geom_bond_site_symmetry_2
Ga0 Pd0 2.546589 1_555
Ga0 Pd5 2.548458 1_555
Ga0 Pd3 2.567705 1_555
Ga0 Pd7 2.646429 1_555
Ga0 Pd7 2.646429 1_455
Ga0 Pd9 2.651464 1_455
Ga0 Pd9 2.651464 1_555
Ga0 Pd11 2.686733 1_555
Ga0 Pd11 2.686733 1_455
Ga1 Pd4 2.574756 1_555
Ga1 Pd0 2.590756 1_556
Ga1 Pd8 2.599806 1_455
Ga1 Pd8 2.599806 1_555
Ga1 Pd10 2.616515 1_455
Ga1 Pd10 2.616515 1_555
Ga1 Pd7 2.638718 1_456
Ga1 Pd7 2.638718 1_556
Ga1 Pd2 2.661930 1_555
Ga2 Pd3 2.534127 1_555
Ga2 Pd1 2.580135 1_555
Ga2 Pd5 2.605289 1_545
Ga2 Pd6 2.628457 1_545
Ga2 Pd6 2.628457 1_445
Ga2 Pd11 2.646654 1_445
Ga2 Pd11 2.646654 1_545
Ga2 Pd9 2.673217 1_455
Ga2 Pd9 2.673217 1_555
P0 Pd3 2.382006 1_565
P0 Pd3 2.382006 1_665
P0 Pd0 2.386907 1_655
P0 Pd0 2.386907 1_555
P0 Pd4 2.399704 1_664
P0 Pd4 2.399704 1_564
P0 Pd11 2.625857 1_555
P0 Pd8 2.750297 1_554
P0 Pd7 2.757368 1_565
P1 Pd5 2.381205 1_555
P1 Pd5 2.381205 1_655
P1 Pd1 2.398652 1_555
P1 Pd1 2.398652 1_655
P1 Pd2 2.403724 1_555
P1 Pd2 2.403724 1_655
P1 Pd9 2.661887 1_555
P1 Pd6 2.662436 1_555
P1 Pd10 2.810780 1_555
Pd1 Sn0 2.660120 1_545
Pd2 Sn0 2.642552 1_555
Pd4 Sn0 2.659616 1_545
Pd6 Sn0 2.784609 1_655
Pd6 Sn0 2.784609 1_555
Pd8 Sn0 2.779968 1_555
Pd8 Sn0 2.779968 1_655
Pd10 Sn0 2.756511 1_645
Pd10 Sn0 2.756511 1_545
