# generated using pymatgen
data_Mn4As(PN2)6
_symmetry_space_group_name_H-M   'P 1'
_cell_length_a   7.21756080
_cell_length_b   7.21756133
_cell_length_c   7.21756073
_cell_angle_alpha   109.47121621
_cell_angle_beta   109.47121768
_cell_angle_gamma   109.47122991
_symmetry_Int_Tables_number   1
_chemical_formula_structural   Mn4As(PN2)6
_chemical_formula_sum   'Mn4 As1 P6 N12'
_cell_volume   289.43395567
_cell_formula_units_Z   1
loop_
 _symmetry_equiv_pos_site_id
 _symmetry_equiv_pos_as_xyz
  1  'x, y, z'
loop_
 _atom_site_type_symbol
 _atom_site_label
 _atom_site_symmetry_multiplicity
 _atom_site_fract_x
 _atom_site_fract_y
 _atom_site_fract_z
 _atom_site_occupancy
  Mn  Mn0  1  0.34332190  0.34332190  0.34332190  1
  Mn  Mn1  1  0.00000000  0.65667810  1.00000000  1
  Mn  Mn2  1  0.65667810  0.00000000  0.00000000  1
  Mn  Mn3  1  1.00000000  1.00000000  0.65667810  1
  As  As0  1  0.00000000  0.00000000  0.00000000  1
  P  P0  1  0.50000000  0.25000000  0.75000000  1
  P  P1  1  0.50000000  0.75000000  0.25000000  1
  P  P2  1  0.75000000  0.25000000  0.50000000  1
  P  P3  1  0.25000000  0.50000000  0.75000000  1
  P  P4  1  0.75000000  0.50000000  0.25000000  1
  P  P5  1  0.25000000  0.75000000  0.50000000  1
  N  N0  1  1.00000000  0.72208360  0.43604767  1
  N  N1  1  0.27791640  0.71396408  0.27791640  1
  N  N2  1  0.28603592  0.56395233  0.56395233  1
  N  N3  1  0.56395233  0.56395233  0.28603592  1
  N  N4  1  0.56395233  0.28603592  0.56395233  1
  N  N5  1  0.72208360  1.00000000  0.43604767  1
  N  N6  1  0.43604767  1.00000000  0.72208360  1
  N  N7  1  0.72208360  0.43604767  1.00000000  1
  N  N8  1  0.27791640  0.27791640  0.71396408  1
  N  N9  1  0.71396408  0.27791640  0.27791640  1
  N  N10  1  0.00000000  0.43604767  0.72208360  1
  N  N11  1  0.43604767  0.72208360  0.00000000  1
loop_
_geom_bond_atom_site_label_1
_geom_bond_atom_site_label_2
_geom_bond_distance
_geom_bond_site_symmetry_2
Mn0 N3 2.104726 1_555
Mn0 N4 2.104726 1_555
Mn0 N2 2.104726 1_555
Mn1 N7 2.104726 1_455
Mn1 N1 2.104726 1_556
Mn1 N10 2.104726 1_555
Mn2 N11 2.104726 1_545
Mn2 N6 2.104726 1_544
Mn2 N9 2.104726 1_555
Mn3 N8 2.104726 1_665
Mn3 N5 2.104726 1_555
Mn3 N0 2.104726 1_555
As0 Mn0 2.477947 1_555
As0 Mn3 2.477947 1_444
As0 Mn2 2.477947 1_455
As0 Mn1 2.477947 1_544
N0 P4 1.627837 1_555
N0 P5 1.627837 1_655
N1 P1 1.627837 1_555
N1 P5 1.627837 1_555
N2 P3 1.627837 1_555
N2 P5 1.627837 1_555
N3 P4 1.627837 1_555
N3 P1 1.627837 1_555
N4 P0 1.627837 1_555
N4 P2 1.627837 1_555
N5 P1 1.627837 1_555
N5 P2 1.627837 1_565
N6 P5 1.627837 1_555
N6 P0 1.627837 1_565
N7 P0 1.627837 1_555
N7 P4 1.627837 1_556
N8 P0 1.627837 1_555
N8 P3 1.627837 1_555
N9 P2 1.627837 1_555
N9 P4 1.627837 1_555
N10 P3 1.627837 1_555
N10 P2 1.627837 1_455
N11 P1 1.627837 1_555
N11 P3 1.627837 1_554
