# generated using pymatgen
data_Y20Ir3OsPt8
_symmetry_space_group_name_H-M   'P 1'
_cell_length_a   11.02589181
_cell_length_b   11.02589181
_cell_length_c   6.39633514
_cell_angle_alpha   90.00000000
_cell_angle_beta   90.00000000
_cell_angle_gamma   90.00000000
_symmetry_Int_Tables_number   1
_chemical_formula_structural   Y20Ir3OsPt8
_chemical_formula_sum   'Y20 Ir3 Os1 Pt8'
_cell_volume   777.60431960
_cell_formula_units_Z   1
loop_
 _symmetry_equiv_pos_site_id
 _symmetry_equiv_pos_as_xyz
  1  'x, y, z'
loop_
 _atom_site_type_symbol
 _atom_site_label
 _atom_site_symmetry_multiplicity
 _atom_site_fract_x
 _atom_site_fract_y
 _atom_site_fract_z
 _atom_site_occupancy
  Y  Y0  1  0.29638211  0.08765502  0.37688141  1
  Y  Y1  1  0.29728380  0.91260549  0.88086566  1
  Y  Y2  1  0.70271620  0.08739451  0.88086566  1
  Y  Y3  1  0.70361789  0.91234498  0.37688141  1
  Y  Y4  1  0.58739451  0.79728380  0.88086566  1
  Y  Y5  1  0.58765502  0.20361789  0.37688141  1
  Y  Y6  1  0.41234498  0.79638211  0.37688141  1
  Y  Y7  1  0.41260549  0.20271620  0.88086566  1
  Y  Y8  1  0.20448366  0.41110083  0.62146200  1
  Y  Y9  1  0.20453521  0.58766400  0.12094820  1
  Y  Y10  1  0.79546479  0.41233600  0.12094820  1
  Y  Y11  1  0.79551634  0.58889917  0.62146200  1
  Y  Y12  1  0.91233600  0.70453521  0.12094820  1
  Y  Y13  1  0.91110083  0.29551634  0.62146200  1
  Y  Y14  1  0.08889917  0.70448366  0.62146200  1
  Y  Y15  1  0.08766400  0.29546479  0.12094820  1
  Y  Y16  1  0.00000000  0.00000000  0.49859457  1
  Y  Y17  1  0.00000000  0.00000000  0.99850018  1
  Y  Y18  1  0.50000000  0.50000000  0.99850018  1
  Y  Y19  1  0.50000000  0.50000000  0.49859457  1
  Ir  Ir0  1  0.50000000  0.00000000  0.62670753  1
  Ir  Ir1  1  0.00000000  0.50000000  0.87558136  1
  Ir  Ir2  1  0.00000000  0.50000000  0.37666458  1
  Os  Os0  1  0.50000000  0.00000000  0.13078144  1
  Pt  Pt0  1  0.84777715  0.15457878  0.24919430  1
  Pt  Pt1  1  0.84683006  0.84657011  0.74966783  1
  Pt  Pt2  1  0.15316994  0.15342989  0.74966783  1
  Pt  Pt3  1  0.15222285  0.84542122  0.24919430  1
  Pt  Pt4  1  0.65342989  0.34683006  0.74966783  1
  Pt  Pt5  1  0.65457878  0.65222285  0.24919430  1
  Pt  Pt6  1  0.34542122  0.34777715  0.24919430  1
  Pt  Pt7  1  0.34657011  0.65316994  0.74966783  1
loop_
_geom_bond_atom_site_label_1
_geom_bond_atom_site_label_2
_geom_bond_distance
_geom_bond_site_symmetry_2
Ir0 Y5 2.920260 1_555
Ir0 Y0 2.920260 1_555
Ir0 Y3 2.920260 1_545
Ir0 Y6 2.920260 1_545
Ir0 Y2 2.926971 1_555
Ir0 Y7 2.926971 1_555
Ir0 Y4 2.926971 1_545
Ir0 Y1 2.926971 1_545
Ir1 Y15 2.912608 1_556
Ir1 Y9 2.912608 1_556
Ir1 Y10 2.912608 1_456
Ir1 Y12 2.912608 1_456
Ir1 Y14 2.947218 1_555
Ir1 Y8 2.947218 1_555
Ir1 Y11 2.947218 1_455
Ir1 Y13 2.947218 1_455
Ir2 Y14 2.914758 1_555
Ir2 Y8 2.914758 1_555
Ir2 Y11 2.914758 1_455
Ir2 Y13 2.914758 1_455
Ir2 Y9 2.948806 1_555
Ir2 Y15 2.948806 1_555
Ir2 Y10 2.948806 1_455
Ir2 Y12 2.948806 1_455
Os0 Y5 2.907287 1_555
Os0 Y0 2.907287 1_555
Os0 Y3 2.907287 1_545
Os0 Y6 2.907287 1_545
Os0 Y2 2.911987 1_554
Os0 Y7 2.911987 1_554
Os0 Y4 2.911987 1_544
Os0 Y1 2.911987 1_544
Pt0 Y16 2.875185 1_655
Pt0 Y17 2.879785 1_654
Pt0 Y13 2.927824 1_555
Pt0 Y2 2.942349 1_554
Pt0 Y10 3.013730 1_555
Pt0 Y5 3.030722 1_555
Pt0 Y15 3.175182 1_655
Pt0 Y3 3.213552 1_545
Pt1 Y17 2.871804 1_665
Pt1 Y16 2.879772 1_665
Pt1 Y12 2.934969 1_556
Pt1 Y3 2.950425 1_555
Pt1 Y11 3.010674 1_555
Pt1 Y4 3.030190 1_555
Pt1 Y14 3.201643 1_655
Pt1 Y2 3.206203 1_565
Pt2 Y17 2.871804 1_555
Pt2 Y16 2.879772 1_555
Pt2 Y15 2.934969 1_556
Pt2 Y0 2.950425 1_555
Pt2 Y8 3.010674 1_555
Pt2 Y7 3.030190 1_555
Pt2 Y13 3.201643 1_455
Pt2 Y1 3.206203 1_545
Pt3 Y16 2.875185 1_565
Pt3 Y17 2.879785 1_564
Pt3 Y14 2.927824 1_555
Pt3 Y1 2.942349 1_554
Pt3 Y9 3.013730 1_555
Pt3 Y6 3.030722 1_555
Pt3 Y12 3.175182 1_455
Pt3 Y0 3.213552 1_565
Pt4 Y18 2.871804 1_555
Pt4 Y19 2.879772 1_555
Pt4 Y10 2.934969 1_556
Pt4 Y5 2.950425 1_555
Pt4 Y13 3.010674 1_555
Pt4 Y2 3.030190 1_555
Pt4 Y11 3.201643 1_555
Pt4 Y7 3.206203 1_555
Pt5 Y19 2.875185 1_555
Pt5 Y18 2.879785 1_554
Pt5 Y11 2.927824 1_555
Pt5 Y4 2.942349 1_554
Pt5 Y12 3.013730 1_555
Pt5 Y3 3.030722 1_555
Pt5 Y10 3.175182 1_555
Pt5 Y6 3.213552 1_555
Pt6 Y19 2.875185 1_555
Pt6 Y18 2.879785 1_554
Pt6 Y8 2.927824 1_555
Pt6 Y7 2.942349 1_554
Pt6 Y15 3.013730 1_555
Pt6 Y0 3.030722 1_555
Pt6 Y9 3.175182 1_555
Pt6 Y5 3.213552 1_555
Pt7 Y18 2.871804 1_555
Pt7 Y19 2.879772 1_555
Pt7 Y9 2.934969 1_556
Pt7 Y6 2.950425 1_555
Pt7 Y14 3.010674 1_555
Pt7 Y1 3.030190 1_555
Pt7 Y8 3.201643 1_555
Pt7 Y4 3.206203 1_555
