# generated using pymatgen
data_RbYMnTe3
_symmetry_space_group_name_H-M   'P 1'
_cell_length_a   8.45437573
_cell_length_b   8.45437525
_cell_length_c   11.76539199
_cell_angle_alpha   90.00000000
_cell_angle_beta   90.00000000
_cell_angle_gamma   149.30064644
_symmetry_Int_Tables_number   1
_chemical_formula_structural   RbYMnTe3
_chemical_formula_sum   'Rb2 Y2 Mn2 Te6'
_cell_volume   429.33220812
_cell_formula_units_Z   2
loop_
 _symmetry_equiv_pos_site_id
 _symmetry_equiv_pos_as_xyz
  1  'x, y, z'
loop_
 _atom_site_type_symbol
 _atom_site_label
 _atom_site_symmetry_multiplicity
 _atom_site_fract_x
 _atom_site_fract_y
 _atom_site_fract_z
 _atom_site_occupancy
  Rb  Rb0  1  0.25269074  0.74730926  0.25000000  1
  Rb  Rb1  1  0.74730926  0.25269074  0.75000000  1
  Y  Y0  1  0.00000000  0.00000000  0.50000000  1
  Y  Y1  1  0.00000000  0.00000000  0.00000000  1
  Mn  Mn0  1  0.53602367  0.46397633  0.25000000  1
  Mn  Mn1  1  0.46397633  0.53602367  0.75000000  1
  Te  Te0  1  0.62549433  0.37450567  0.44315637  1
  Te  Te1  1  0.37450567  0.62549433  0.55684363  1
  Te  Te2  1  0.62549433  0.37450567  0.05684363  1
  Te  Te3  1  0.37450567  0.62549433  0.94315637  1
  Te  Te4  1  0.93526500  0.06473500  0.25000000  1
  Te  Te5  1  0.06473500  0.93526500  0.75000000  1
loop_
_geom_bond_atom_site_label_1
_geom_bond_atom_site_label_2
_geom_bond_distance
_geom_bond_site_symmetry_2
Rb0 Te4 3.724357 1_455
Rb0 Te4 3.724358 1_565
Rb0 Te0 3.804534 1_565
Rb0 Te2 3.804534 1_565
Rb0 Te0 3.804535 1_455
Rb0 Te2 3.804535 1_455
Rb0 Te1 4.120476 1_555
Rb0 Te3 4.120476 1_554
Rb1 Te5 3.724357 1_655
Rb1 Te5 3.724358 1_545
Rb1 Te3 3.804534 1_545
Rb1 Te1 3.804534 1_545
Rb1 Te3 3.804535 1_655
Rb1 Te1 3.804535 1_655
Rb1 Te2 4.120476 1_556
Rb1 Te0 4.120476 1_555
Mn0 Te0 2.700525 1_555
Mn0 Te2 2.700525 1_555
Mn0 Te4 2.776264 1_565
Mn0 Te4 2.776264 1_455
Mn1 Te3 2.700525 1_555
Mn1 Te1 2.700525 1_555
Mn1 Te5 2.776264 1_545
Mn1 Te5 2.776264 1_655
Te0 Y0 3.105298 1_665
Te0 Y0 3.105299 1_555
Te1 Y0 3.105298 1_555
Te1 Y0 3.105299 1_665
Te2 Y1 3.105298 1_665
Te2 Y1 3.105299 1_555
Te3 Y1 3.105298 1_556
Te3 Y1 3.105299 1_666
Te4 Y1 3.125012 1_655
Te4 Y0 3.125012 1_655
Te5 Y0 3.125012 1_565
Te5 Y1 3.125012 1_566
