# generated using pymatgen
data_Cu2AsRh3S8
_symmetry_space_group_name_H-M   'P 1'
_cell_length_a   6.98632857
_cell_length_b   6.95267867
_cell_length_c   6.98632768
_cell_angle_alpha   59.83977385
_cell_angle_beta   60.00000422
_cell_angle_gamma   59.83976705
_symmetry_Int_Tables_number   1
_chemical_formula_structural   Cu2AsRh3S8
_chemical_formula_sum   'Cu2 As1 Rh3 S8'
_cell_volume   239.37515418
_cell_formula_units_Z   1
loop_
 _symmetry_equiv_pos_site_id
 _symmetry_equiv_pos_as_xyz
  1  'x, y, z'
loop_
 _atom_site_type_symbol
 _atom_site_label
 _atom_site_symmetry_multiplicity
 _atom_site_fract_x
 _atom_site_fract_y
 _atom_site_fract_z
 _atom_site_occupancy
  Cu  Cu0  1  0.75148550  0.74554449  0.75148550  1
  Cu  Cu1  1  0.49851450  0.50445551  0.49851450  1
  As  As0  1  0.12500000  0.62500000  0.12500000  1
  Rh  Rh0  1  0.12500000  0.12500000  0.62500000  1
  Rh  Rh1  1  0.62500000  0.12500000  0.12500000  1
  Rh  Rh2  1  0.12500000  0.12500000  0.12500000  1
  S  S0  1  0.88449092  0.34652725  0.88449092  1
  S  S1  1  0.36957514  0.35901219  0.90183752  1
  S  S2  1  0.36957514  0.35901219  0.36957514  1
  S  S3  1  0.90183752  0.35901219  0.36957514  1
  S  S4  1  0.88042486  0.89098781  0.88042486  1
  S  S5  1  0.34816248  0.89098781  0.88042486  1
  S  S6  1  0.36550908  0.90347275  0.36550908  1
  S  S7  1  0.88042486  0.89098781  0.34816248  1
loop_
_geom_bond_atom_site_label_1
_geom_bond_atom_site_label_2
_geom_bond_distance
_geom_bond_site_symmetry_2
Cu0 S0 2.259655 1_555
Cu0 S4 2.299482 1_555
Cu0 S7 2.299487 1_555
Cu0 S5 2.299487 1_555
Cu1 S6 2.259655 1_555
Cu1 S2 2.299482 1_555
Cu1 S1 2.299487 1_555
Cu1 S3 2.299487 1_555
As0 S7 2.414205 1_455
As0 S1 2.414205 1_554
As0 S2 2.414205 1_555
As0 S4 2.414205 1_454
As0 S5 2.414205 1_554
As0 S3 2.414205 1_455
Rh0 S5 2.361800 1_545
Rh0 S3 2.361800 1_455
Rh0 S2 2.361801 1_555
Rh0 S4 2.361801 1_445
Rh0 S0 2.375125 1_455
Rh0 S6 2.375125 1_545
Rh1 S7 2.361800 1_545
Rh1 S1 2.361800 1_554
Rh1 S2 2.361800 1_555
Rh1 S4 2.361800 1_544
Rh1 S0 2.375125 1_554
Rh1 S6 2.375125 1_545
Rh2 S3 2.361800 1_455
Rh2 S5 2.361800 1_544
Rh2 S1 2.361801 1_554
Rh2 S7 2.361801 1_445
Rh2 S6 2.375125 1_545
Rh2 S0 2.375125 1_454
