# generated using pymatgen
data_Mg(InTe2)2
_symmetry_space_group_name_H-M   'P 1'
_cell_length_a   6.28688923
_cell_length_b   6.28688923
_cell_length_c   7.78313777
_cell_angle_alpha   113.83416501
_cell_angle_beta   113.83416501
_cell_angle_gamma   90.03913642
_symmetry_Int_Tables_number   1
_chemical_formula_structural   Mg(InTe2)2
_chemical_formula_sum   'Mg1 In2 Te4'
_cell_volume   252.40482122
_cell_formula_units_Z   1
loop_
 _symmetry_equiv_pos_site_id
 _symmetry_equiv_pos_as_xyz
  1  'x, y, z'
loop_
 _atom_site_type_symbol
 _atom_site_label
 _atom_site_symmetry_multiplicity
 _atom_site_fract_x
 _atom_site_fract_y
 _atom_site_fract_z
 _atom_site_occupancy
  Mg  Mg0  1  0.99884244  0.99884244  0.00050539  1
  In  In0  1  0.25077594  0.75035210  0.49998634  1
  In  In1  1  0.75035210  0.25077594  0.49998634  1
  Te  Te0  1  0.15529445  0.61638639  0.77043495  1
  Te  Te1  1  0.38391389  0.38391389  0.22879587  1
  Te  Te2  1  0.61638639  0.15529445  0.77043495  1
  Te  Te3  1  0.84443479  0.84443479  0.22985517  1
loop_
_geom_bond_atom_site_label_1
_geom_bond_atom_site_label_2
_geom_bond_distance
_geom_bond_site_symmetry_2
Mg0 Te3 2.805483 1_555
Mg0 Te2 2.811114 1_564
Mg0 Te0 2.811114 1_654
Mg0 Te1 2.813861 1_665
In0 Te2 2.818905 1_565
In0 Te0 2.820234 1_555
In0 Te3 2.821821 1_455
In0 Te1 2.821991 1_555
In1 Te0 2.818905 1_655
In1 Te2 2.820234 1_555
In1 Te3 2.821821 1_545
In1 Te1 2.821991 1_555
