# generated using pymatgen
data_KMgInAs2
_symmetry_space_group_name_H-M   'P 1'
_cell_length_a   4.40705657
_cell_length_b   4.40705640
_cell_length_c   8.16300115
_cell_angle_alpha   90.00000000
_cell_angle_beta   90.00000000
_cell_angle_gamma   120.00000851
_symmetry_Int_Tables_number   1
_chemical_formula_structural   KMgInAs2
_chemical_formula_sum   'K1 Mg1 In1 As2'
_cell_volume   137.30226003
_cell_formula_units_Z   1
loop_
 _symmetry_equiv_pos_site_id
 _symmetry_equiv_pos_as_xyz
  1  'x, y, z'
loop_
 _atom_site_type_symbol
 _atom_site_label
 _atom_site_symmetry_multiplicity
 _atom_site_fract_x
 _atom_site_fract_y
 _atom_site_fract_z
 _atom_site_occupancy
  K  K0  1  0.00000000  0.00000000  0.98880882  1
  Mg  Mg0  1  0.33333400  0.66666800  0.63607427  1
  In  In0  1  0.66666700  0.33333300  0.38753816  1
  As  As0  1  0.33333400  0.66666800  0.27200562  1
  As  As1  1  0.66666700  0.33333300  0.71557213  1
loop_
_geom_bond_atom_site_label_1
_geom_bond_atom_site_label_2
_geom_bond_distance
_geom_bond_site_symmetry_2
As0 In0 2.713566 1_565
As0 In0 2.713573 1_455
As0 In0 2.713577 1_555
As0 Mg0 2.971893 1_555
As0 K0 3.437755 1_664
As0 K0 3.437755 1_564
As0 K0 3.437760 1_554
As1 Mg0 2.625860 1_545
As1 Mg0 2.625867 1_655
As1 Mg0 2.625871 1_555
As1 In0 2.677742 1_555
As1 K0 3.383617 1_655
As1 K0 3.383619 1_665
As1 K0 3.383619 1_555
