# generated using pymatgen
data_GaBr3
_symmetry_space_group_name_H-M   'P 1'
_cell_length_a   5.75753559
_cell_length_b   9.00860701
_cell_length_c   11.19041180
_cell_angle_alpha   107.76302164
_cell_angle_beta   90.00000000
_cell_angle_gamma   90.00000000
_symmetry_Int_Tables_number   1
_chemical_formula_structural   GaBr3
_chemical_formula_sum   'Ga4 Br12'
_cell_volume   552.74676049
_cell_formula_units_Z   4
loop_
 _symmetry_equiv_pos_site_id
 _symmetry_equiv_pos_as_xyz
  1  'x, y, z'
loop_
 _atom_site_type_symbol
 _atom_site_label
 _atom_site_symmetry_multiplicity
 _atom_site_fract_x
 _atom_site_fract_y
 _atom_site_fract_z
 _atom_site_occupancy
  Ga  Ga0  1  0.00151088  0.80181604  0.95249572  1
  Ga  Ga1  1  0.50151088  0.19818396  0.54750428  1
  Ga  Ga2  1  0.99848912  0.19818396  0.04750428  1
  Ga  Ga3  1  0.49848912  0.80181604  0.45249572  1
  Br  Br0  1  0.76291693  0.67194233  0.79352333  1
  Br  Br1  1  0.26291693  0.32805767  0.70647667  1
  Br  Br2  1  0.23708307  0.32805767  0.20647667  1
  Br  Br3  1  0.73708307  0.67194233  0.29352333  1
  Br  Br4  1  0.24533391  0.67675336  0.04897801  1
  Br  Br5  1  0.74533391  0.32324664  0.45102199  1
  Br  Br6  1  0.75466609  0.32324664  0.95102199  1
  Br  Br7  1  0.25466609  0.67675336  0.54897801  1
  Br  Br8  1  0.77980410  0.99988768  0.11276149  1
  Br  Br9  1  0.27980410  0.00011232  0.38723851  1
  Br  Br10  1  0.22019590  0.00011232  0.88723851  1
  Br  Br11  1  0.72019590  0.99988768  0.61276149  1
loop_
_geom_bond_atom_site_label_1
_geom_bond_atom_site_label_2
_geom_bond_distance
_geom_bond_site_symmetry_2
Br0 Ga0 2.269516 1_655
Br1 Ga1 2.269516 1_555
Br2 Ga2 2.269516 1_455
Br3 Ga3 2.269516 1_555
Br4 Ga0 2.268906 1_554
Br5 Ga1 2.268906 1_555
Br6 Ga2 2.268906 1_556
Br7 Ga3 2.268906 1_555
Br8 Ga0 2.465188 1_654
Br8 Ga2 2.470964 1_565
Br9 Ga1 2.465188 1_555
Br9 Ga3 2.470964 1_545
Br10 Ga2 2.465188 1_456
Br10 Ga0 2.470964 1_545
Br11 Ga3 2.465188 1_555
Br11 Ga1 2.470964 1_565
