# generated using pymatgen
data_LuZrRh6C
_symmetry_space_group_name_H-M   'P 1'
_cell_length_a   5.67644042
_cell_length_b   5.67644050
_cell_length_c   5.67643989
_cell_angle_alpha   60.00000358
_cell_angle_beta   60.00000309
_cell_angle_gamma   59.99999274
_symmetry_Int_Tables_number   1
_chemical_formula_structural   LuZrRh6C
_chemical_formula_sum   'Lu1 Zr1 Rh6 C1'
_cell_volume   129.33415110
_cell_formula_units_Z   1
loop_
 _symmetry_equiv_pos_site_id
 _symmetry_equiv_pos_as_xyz
  1  'x, y, z'
loop_
 _atom_site_type_symbol
 _atom_site_label
 _atom_site_symmetry_multiplicity
 _atom_site_fract_x
 _atom_site_fract_y
 _atom_site_fract_z
 _atom_site_occupancy
  Lu  Lu0  1  0.25000000  0.25000000  0.25000000  1
  Zr  Zr0  1  0.75000000  0.75000000  0.75000000  1
  Rh  Rh0  1  0.75396844  0.75396844  0.24603056  1
  Rh  Rh1  1  0.75396844  0.24603056  0.24603056  1
  Rh  Rh2  1  0.24603056  0.75396844  0.24603056  1
  Rh  Rh3  1  0.24603056  0.24603056  0.75396844  1
  Rh  Rh4  1  0.75396844  0.24603056  0.75396844  1
  Rh  Rh5  1  0.24603056  0.75396844  0.75396844  1
  C  C0  1  0.50000000  0.50000000  0.50000000  1
loop_
_geom_bond_atom_site_label_1
_geom_bond_atom_site_label_2
_geom_bond_distance
_geom_bond_site_symmetry_2
Lu0 Rh3 2.838393 1_555
Lu0 Rh1 2.838393 1_555
Lu0 Rh2 2.838393 1_555
Lu0 Rh0 2.838399 1_545
Lu0 Rh0 2.838399 1_455
Lu0 Rh4 2.838399 1_554
Lu0 Rh4 2.838399 1_455
Lu0 Rh5 2.838399 1_545
Lu0 Rh5 2.838399 1_554
Lu0 Rh3 2.838404 1_554
Lu0 Rh1 2.838405 1_455
Lu0 Rh2 2.838405 1_545
Rh0 Zr0 2.838393 1_554
Rh0 Zr0 2.838404 1_555
Rh1 Zr0 2.838399 1_545
Rh1 Zr0 2.838399 1_554
Rh2 Zr0 2.838399 1_554
Rh2 Zr0 2.838399 1_455
Rh3 Zr0 2.838399 1_545
Rh3 Zr0 2.838399 1_455
Rh4 Zr0 2.838393 1_545
Rh4 Zr0 2.838405 1_555
Rh5 Zr0 2.838393 1_455
Rh5 Zr0 2.838405 1_555
C0 Rh5 2.038782 1_555
C0 Rh4 2.038782 1_555
C0 Rh0 2.038782 1_555
C0 Rh2 2.038790 1_555
C0 Rh1 2.038790 1_555
C0 Rh3 2.038790 1_555
