# generated using pymatgen
data_Lu5NiBiP
_symmetry_space_group_name_H-M   'P 1'
_cell_length_a   8.22157066
_cell_length_b   8.22157056
_cell_length_c   8.57664366
_cell_angle_alpha   125.70967731
_cell_angle_beta   125.70967608
_cell_angle_gamma   77.42177007
_symmetry_Int_Tables_number   1
_chemical_formula_structural   Lu5NiBiP
_chemical_formula_sum   'Lu10 Ni2 Bi2 P2'
_cell_volume   375.52822150
_cell_formula_units_Z   2
loop_
 _symmetry_equiv_pos_site_id
 _symmetry_equiv_pos_as_xyz
  1  'x, y, z'
loop_
 _atom_site_type_symbol
 _atom_site_label
 _atom_site_symmetry_multiplicity
 _atom_site_fract_x
 _atom_site_fract_y
 _atom_site_fract_z
 _atom_site_occupancy
  Lu  Lu0  1  0.00000000  0.00000000  0.00000000  1
  Lu  Lu1  1  0.50000000  0.50000000  0.00000000  1
  Lu  Lu2  1  0.77201290  0.27201290  0.77842578  1
  Lu  Lu3  1  0.22798710  0.72798710  0.22157422  1
  Lu  Lu4  1  0.49358812  0.99358812  0.22157422  1
  Lu  Lu5  1  0.29464654  0.46658497  0.50000000  1
  Lu  Lu6  1  0.03341503  0.20535346  0.50000000  1
  Lu  Lu7  1  0.50641188  0.00641188  0.77842578  1
  Lu  Lu8  1  0.70535346  0.53341503  0.50000000  1
  Lu  Lu9  1  0.96658497  0.79464654  0.50000000  1
  Ni  Ni0  1  0.63760572  0.86239428  0.50000000  1
  Ni  Ni1  1  0.36239428  0.13760572  0.50000000  1
  Bi  Bi0  1  0.25000000  0.25000000  0.00000000  1
  Bi  Bi1  1  0.75000000  0.75000000  0.00000000  1
  P  P0  1  0.15458472  0.65458472  0.80917143  1
  P  P1  1  0.84541528  0.34541528  0.19082857  1
loop_
_geom_bond_atom_site_label_1
_geom_bond_atom_site_label_2
_geom_bond_distance
_geom_bond_site_symmetry_2
Lu0 P1 2.790910 1_455
Lu0 P0 2.790910 1_544
Lu0 Ni1 3.071851 1_555
Lu0 Ni0 3.071851 1_444
Lu1 P1 2.790910 1_555
Lu1 P0 2.790910 1_554
Lu1 Ni0 3.071851 1_555
Lu1 Ni1 3.071851 1_554
Lu2 Ni0 2.723517 1_545
Lu2 Ni1 2.723517 1_555
Lu2 P1 2.900701 1_556
Lu3 Ni1 2.723517 1_565
Lu3 Ni0 2.723517 1_555
Lu3 P0 2.900701 1_554
Lu4 Ni1 2.723525 1_565
Lu4 Ni0 2.723525 1_555
Lu4 P0 2.900723 1_554
Lu5 Ni1 2.640006 1_555
Lu5 P1 2.958216 1_455
Lu5 P0 2.958231 1_555
Lu6 Ni1 2.640006 1_555
Lu6 P0 2.958216 1_555
Lu6 P1 2.958231 1_455
Lu7 Ni0 2.723525 1_545
Lu7 Ni1 2.723525 1_555
Lu7 P1 2.900723 1_556
Lu8 Ni0 2.640006 1_555
Lu8 P0 2.958216 1_655
Lu8 P1 2.958231 1_555
Lu9 Ni0 2.640006 1_555
Lu9 P1 2.958216 1_555
Lu9 P0 2.958231 1_655
Bi0 Lu1 3.207693 1_555
Bi0 Lu0 3.207693 1_555
Bi0 Lu7 3.234393 1_554
Bi0 Lu4 3.234393 1_545
Bi0 Lu3 3.234399 1_555
Bi0 Lu2 3.234399 1_454
Bi0 Lu9 3.350872 1_444
Bi0 Lu8 3.350872 1_555
Bi0 Lu5 3.350873 1_555
Bi0 Lu6 3.350873 1_554
Bi1 Lu1 3.207693 1_555
Bi1 Lu0 3.207693 1_665
Bi1 Lu4 3.234393 1_555
Bi1 Lu7 3.234393 1_564
Bi1 Lu2 3.234399 1_554
Bi1 Lu3 3.234399 1_655
Bi1 Lu6 3.350872 1_665
Bi1 Lu5 3.350872 1_554
Bi1 Lu8 3.350873 1_554
Bi1 Lu9 3.350873 1_555
