# generated using pymatgen
data_Mg3NbP6N13
_symmetry_space_group_name_H-M   'P 1'
_cell_length_a   7.03804620
_cell_length_b   7.03804766
_cell_length_c   7.03804722
_cell_angle_alpha   109.38107345
_cell_angle_beta   109.38108192
_cell_angle_gamma   109.38108247
_symmetry_Int_Tables_number   1
_chemical_formula_structural   Mg3NbP6N13
_chemical_formula_sum   'Mg3 Nb1 P6 N13'
_cell_volume   269.26232727
_cell_formula_units_Z   1
loop_
 _symmetry_equiv_pos_site_id
 _symmetry_equiv_pos_as_xyz
  1  'x, y, z'
loop_
 _atom_site_type_symbol
 _atom_site_label
 _atom_site_symmetry_multiplicity
 _atom_site_fract_x
 _atom_site_fract_y
 _atom_site_fract_z
 _atom_site_occupancy
  Mg  Mg0  1  0.99826511  0.69849575  0.99826511  1
  Mg  Mg1  1  0.69849575  0.99826511  0.99826511  1
  Mg  Mg2  1  0.99826511  0.99826511  0.69849575  1
  Nb  Nb0  1  0.27977058  0.27977058  0.27977058  1
  P  P0  1  0.50112897  0.25127366  0.75358442  1
  P  P1  1  0.50112897  0.75358442  0.25127366  1
  P  P2  1  0.75358442  0.25127366  0.50112897  1
  P  P3  1  0.25127366  0.50112897  0.75358442  1
  P  P4  1  0.75358442  0.50112897  0.25127366  1
  P  P5  1  0.25127366  0.75358442  0.50112897  1
  N  N0  1  0.99756104  0.99756104  0.99756104  1
  N  N1  1  0.00080816  0.73178232  0.45198872  1
  N  N2  1  0.26958855  0.72229346  0.26958855  1
  N  N3  1  0.28221380  0.55141128  0.55141128  1
  N  N4  1  0.55141128  0.55141128  0.28221380  1
  N  N5  1  0.55141128  0.28221380  0.55141128  1
  N  N6  1  0.73178232  0.00080816  0.45198872  1
  N  N7  1  0.45198872  0.00080816  0.73178232  1
  N  N8  1  0.73178232  0.45198872  0.00080816  1
  N  N9  1  0.26958855  0.26958855  0.72229346  1
  N  N10  1  0.72229346  0.26958855  0.26958855  1
  N  N11  1  0.00080816  0.45198872  0.73178232  1
  N  N12  1  0.45198872  0.73178232  0.00080816  1
loop_
_geom_bond_atom_site_label_1
_geom_bond_atom_site_label_2
_geom_bond_distance
_geom_bond_site_symmetry_2
Mg0 N8 2.100273 1_556
Mg0 N11 2.100274 1_655
Mg0 N0 2.108130 1_555
Mg0 N2 2.115740 1_656
Mg1 N7 2.100273 1_565
Mg1 N12 2.100274 1_556
Mg1 N0 2.108129 1_555
Mg1 N10 2.115740 1_566
Mg2 N6 2.100273 1_565
Mg2 N1 2.100274 1_655
Mg2 N0 2.108130 1_555
Mg2 N9 2.115740 1_665
N0 Nb0 1.995025 1_666
N1 P4 1.621821 1_455
N1 P5 1.622098 1_555
N2 P1 1.625039 1_555
N2 P5 1.625039 1_555
N3 P3 1.638908 1_555
N3 P5 1.638908 1_555
N3 Nb0 2.200207 1_555
N4 P4 1.638908 1_555
N4 P1 1.638908 1_555
N4 Nb0 2.200207 1_555
N5 P2 1.638908 1_555
N5 P0 1.638908 1_555
N5 Nb0 2.200207 1_555
N6 P1 1.621821 1_545
N6 P2 1.622098 1_555
N7 P5 1.621821 1_545
N7 P0 1.622098 1_555
N8 P0 1.621821 1_554
N8 P4 1.622098 1_555
N9 P0 1.625039 1_555
N9 P3 1.625040 1_555
N10 P2 1.625039 1_555
N10 P4 1.625039 1_555
N11 P2 1.621821 1_455
N11 P3 1.622098 1_555
N12 P3 1.621821 1_554
N12 P1 1.622098 1_555
