# generated using pymatgen
data_Lu3Ge3Ir2
_symmetry_space_group_name_H-M   'P 1'
_cell_length_a   4.25544681
_cell_length_b   5.52238412
_cell_length_c   14.01045854
_cell_angle_alpha   90.00000000
_cell_angle_beta   90.00000000
_cell_angle_gamma   112.66178459
_symmetry_Int_Tables_number   1
_chemical_formula_structural   Lu3Ge3Ir2
_chemical_formula_sum   'Lu6 Ge6 Ir4'
_cell_volume   303.82918660
_cell_formula_units_Z   2
loop_
 _symmetry_equiv_pos_site_id
 _symmetry_equiv_pos_as_xyz
  1  'x, y, z'
loop_
 _atom_site_type_symbol
 _atom_site_label
 _atom_site_symmetry_multiplicity
 _atom_site_fract_x
 _atom_site_fract_y
 _atom_site_fract_z
 _atom_site_occupancy
  Lu  Lu0  1  0.58451266  0.16902533  0.38990074  1
  Lu  Lu1  1  0.58451266  0.16902533  0.11009926  1
  Lu  Lu2  1  0.14399403  0.28798807  0.75000000  1
  Lu  Lu3  1  0.85600597  0.71201193  0.25000000  1
  Lu  Lu4  1  0.41548734  0.83097467  0.61009926  1
  Lu  Lu5  1  0.41548734  0.83097467  0.88990074  1
  Ge  Ge0  1  0.12207860  0.24415721  0.53530685  1
  Ge  Ge1  1  0.12207860  0.24415721  0.96469315  1
  Ge  Ge2  1  0.15219317  0.30438534  0.25000000  1
  Ge  Ge3  1  0.87792140  0.75584279  0.03530685  1
  Ge  Ge4  1  0.87792140  0.75584279  0.46469315  1
  Ge  Ge5  1  0.84780683  0.69561466  0.75000000  1
  Ir  Ir0  1  0.69975753  0.39951306  0.60309328  1
  Ir  Ir1  1  0.30024247  0.60048694  0.10309328  1
  Ir  Ir2  1  0.69975753  0.39951306  0.89690672  1
  Ir  Ir3  1  0.30024247  0.60048694  0.39690672  1
loop_
_geom_bond_atom_site_label_1
_geom_bond_atom_site_label_2
_geom_bond_distance
_geom_bond_site_symmetry_2
Ge0 Ir0 2.460882 1_455
Ge0 Ir0 2.460890 1_555
Ge0 Ir3 2.656555 1_555
Ge0 Ge4 2.677916 1_445
Ge0 Lu0 2.970523 1_555
Ge0 Lu0 2.970523 1_455
Ge0 Lu2 3.016231 1_555
Ge0 Lu4 3.168718 1_555
Ge0 Lu4 3.171555 1_545
Ge0 Lu4 3.171555 1_445
Ge1 Ir2 2.460882 1_455
Ge1 Ir2 2.460890 1_555
Ge1 Ir1 2.656555 1_556
Ge1 Ge3 2.677916 1_446
Ge1 Lu1 2.970523 1_556
Ge1 Lu1 2.970523 1_456
Ge1 Lu2 3.016231 1_555
Ge1 Lu5 3.168718 1_555
Ge1 Lu5 3.171555 1_545
Ge1 Lu5 3.171555 1_445
Ge2 Ir1 2.552101 1_555
Ge2 Ir3 2.552101 1_555
Ge2 Lu3 2.973597 1_555
Ge2 Lu3 2.973600 1_455
Ge2 Lu1 2.974039 1_555
Ge2 Lu0 2.974039 1_555
Ge2 Lu1 2.974042 1_455
Ge2 Lu0 2.974042 1_455
Ge2 Lu3 3.018753 1_445
Ge3 Ir1 2.460882 1_655
Ge3 Ir1 2.460890 1_555
Ge3 Ir2 2.656555 1_554
Ge3 Lu5 2.970523 1_554
Ge3 Lu5 2.970523 1_654
Ge3 Lu3 3.016231 1_555
Ge3 Lu1 3.168718 1_555
Ge3 Lu1 3.171555 1_565
Ge3 Lu1 3.171555 1_665
Ge4 Ir3 2.460882 1_655
Ge4 Ir3 2.460890 1_555
Ge4 Ir0 2.656555 1_555
Ge4 Lu4 2.970523 1_555
Ge4 Lu4 2.970523 1_655
Ge4 Lu3 3.016231 1_555
Ge4 Lu0 3.168718 1_555
Ge4 Lu0 3.171555 1_565
Ge4 Lu0 3.171555 1_665
Ge5 Ir2 2.552101 1_555
Ge5 Ir0 2.552101 1_555
Ge5 Lu2 2.973597 1_555
Ge5 Lu2 2.973600 1_655
Ge5 Lu5 2.974039 1_555
Ge5 Lu4 2.974039 1_555
Ge5 Lu4 2.974042 1_655
Ge5 Lu5 2.974042 1_655
Ge5 Lu2 3.018753 1_665
Ir0 Lu4 2.898951 1_545
Ir0 Lu2 3.014383 1_655
Ir0 Lu2 3.014389 1_555
Ir0 Lu4 3.061256 1_655
Ir0 Lu4 3.061262 1_555
Ir0 Lu0 3.209570 1_555
Ir1 Lu1 2.898951 1_565
Ir1 Lu3 3.014383 1_455
Ir1 Lu3 3.014389 1_555
Ir1 Lu1 3.061256 1_455
Ir1 Lu1 3.061262 1_555
Ir1 Lu5 3.209570 1_554
Ir2 Lu5 2.898951 1_545
Ir2 Lu2 3.014383 1_655
Ir2 Lu2 3.014389 1_555
Ir2 Lu5 3.061256 1_655
Ir2 Lu5 3.061262 1_555
Ir2 Lu1 3.209570 1_556
Ir3 Lu0 2.898951 1_565
Ir3 Lu3 3.014383 1_455
Ir3 Lu3 3.014389 1_555
Ir3 Lu0 3.061256 1_455
Ir3 Lu0 3.061262 1_555
Ir3 Lu4 3.209570 1_555
