# generated using pymatgen
data_Ho5Sn3
_symmetry_space_group_name_H-M   'P 1'
_cell_length_a   8.87757831
_cell_length_b   8.87758088
_cell_length_c   6.52005139
_cell_angle_alpha   89.99990306
_cell_angle_beta   90.00020047
_cell_angle_gamma   120.00009059
_symmetry_Int_Tables_number   1
_chemical_formula_structural   Ho5Sn3
_chemical_formula_sum   'Ho10 Sn6'
_cell_volume   445.01064880
_cell_formula_units_Z   2
loop_
 _symmetry_equiv_pos_site_id
 _symmetry_equiv_pos_as_xyz
  1  'x, y, z'
loop_
 _atom_site_type_symbol
 _atom_site_label
 _atom_site_symmetry_multiplicity
 _atom_site_fract_x
 _atom_site_fract_y
 _atom_site_fract_z
 _atom_site_occupancy
  Ho  Ho0  1  0.99999900  0.76158468  0.75000100  1
  Ho  Ho1  1  0.00000100  0.23841732  0.24999900  1
  Ho  Ho2  1  0.76158568  0.76158468  0.25000200  1
  Ho  Ho3  1  0.76158268  0.99999900  0.75000200  1
  Ho  Ho4  1  0.23841432  0.23841532  0.74999800  1
  Ho  Ho5  1  0.23841832  0.00000000  0.24999900  1
  Ho  Ho6  1  0.33333300  0.66666700  0.50000000  1
  Ho  Ho7  1  0.66666700  0.33333400  -0.00000000  1
  Ho  Ho8  1  0.66666700  0.33333400  0.50000000  1
  Ho  Ho9  1  0.33333300  0.66666600  -0.00000000  1
  Sn  Sn0  1  0.39438751  0.00000000  0.75000000  1
  Sn  Sn1  1  0.39438951  0.39438951  0.25000000  1
  Sn  Sn2  1  -0.00000000  0.60561149  0.25000000  1
  Sn  Sn3  1  0.00000000  0.39438851  0.75000000  1
  Sn  Sn4  1  0.60561049  0.60561049  0.75000000  1
  Sn  Sn5  1  0.60561149  -0.00000000  0.25000000  1
loop_
_geom_bond_atom_site_label_1
_geom_bond_atom_site_label_2
_geom_bond_distance
_geom_bond_site_symmetry_2
Ho0 Sn4 3.054140 1_555
Ho0 Sn0 3.054140 1_665
Ho0 Sn3 3.259818 1_655
Ho0 Sn2 3.541895 1_656
Ho0 Sn2 3.541911 1_655
Ho1 Sn1 3.054143 1_555
Ho1 Sn5 3.054150 1_455
Ho1 Sn2 3.259800 1_555
Ho1 Sn3 3.541888 1_554
Ho1 Sn3 3.541904 1_555
Ho2 Sn2 3.054137 1_655
Ho2 Sn5 3.054153 1_565
Ho2 Sn1 3.259804 1_555
Ho2 Sn4 3.541896 1_555
Ho2 Sn4 3.541915 1_554
Ho3 Sn4 3.054144 1_555
Ho3 Sn3 3.054150 1_665
Ho3 Sn0 3.259808 1_565
Ho3 Sn5 3.541888 1_566
Ho3 Sn5 3.541903 1_565
Ho4 Sn3 3.054137 1_555
Ho4 Sn0 3.054146 1_555
Ho4 Sn4 3.259804 1_555
Ho4 Sn1 3.541896 1_555
Ho4 Sn1 3.541915 1_556
Ho5 Sn2 3.054144 1_545
Ho5 Sn1 3.054153 1_555
Ho5 Sn5 3.259786 1_555
Ho5 Sn0 3.541886 1_554
Ho5 Sn0 3.541889 1_555
Ho6 Sn2 3.178608 1_555
Ho6 Sn4 3.178614 1_555
Ho6 Sn5 3.178615 1_565
Ho6 Sn3 3.178616 1_555
Ho6 Sn0 3.178618 1_565
Ho6 Sn1 3.178622 1_555
Ho7 Sn2 3.178607 1_655
Ho7 Sn4 3.178609 1_554
Ho7 Sn1 3.178619 1_555
Ho7 Sn0 3.178619 1_554
Ho7 Sn5 3.178619 1_555
Ho7 Sn3 3.178620 1_654
Ho8 Sn1 3.178609 1_555
Ho8 Sn3 3.178610 1_655
Ho8 Sn2 3.178614 1_655
Ho8 Sn4 3.178615 1_555
Ho8 Sn5 3.178622 1_555
Ho8 Sn0 3.178623 1_555
Ho9 Sn3 3.178607 1_554
Ho9 Sn1 3.178609 1_555
Ho9 Sn5 3.178616 1_565
Ho9 Sn4 3.178619 1_554
Ho9 Sn2 3.178620 1_555
Ho9 Sn0 3.178622 1_564
