# generated using pymatgen
data_Hf2Co(SnIr)2
_symmetry_space_group_name_H-M   'P 1'
_cell_length_a   7.75499620
_cell_length_b   7.75499617
_cell_length_c   7.75499594
_cell_angle_alpha   33.67066860
_cell_angle_beta   33.67067045
_cell_angle_gamma   33.67066526
_symmetry_Int_Tables_number   1
_chemical_formula_structural   Hf2Co(SnIr)2
_chemical_formula_sum   'Hf2 Co1 Sn2 Ir2'
_cell_volume   127.71564753
_cell_formula_units_Z   1
loop_
 _symmetry_equiv_pos_site_id
 _symmetry_equiv_pos_as_xyz
  1  'x, y, z'
loop_
 _atom_site_type_symbol
 _atom_site_label
 _atom_site_symmetry_multiplicity
 _atom_site_fract_x
 _atom_site_fract_y
 _atom_site_fract_z
 _atom_site_occupancy
  Hf  Hf0  1  0.75270150  0.75270150  0.75270150  1
  Hf  Hf1  1  0.24790211  0.24790211  0.24790211  1
  Co  Co0  1  0.37517644  0.37517644  0.37517644  1
  Sn  Sn0  1  0.99766569  0.99766569  0.99766569  1
  Sn  Sn1  1  0.50175597  0.50175597  0.50175597  1
  Ir  Ir0  1  0.12327403  0.12327403  0.12327403  1
  Ir  Ir1  1  0.62652426  0.62652426  0.62652426  1
loop_
_geom_bond_atom_site_label_1
_geom_bond_atom_site_label_2
_geom_bond_distance
_geom_bond_site_symmetry_2
Hf0 Ir0 2.718966 1_656
Hf0 Ir0 2.718967 1_566
Hf0 Ir0 2.718967 1_665
Hf0 Ir1 2.766491 1_555
Hf0 Sn1 3.160565 1_565
Hf0 Sn1 3.160565 1_556
Hf0 Sn1 3.160565 1_655
Hf0 Sn0 3.237307 1_545
Hf0 Sn0 3.237308 1_554
Hf0 Sn0 3.237308 1_455
Hf1 Ir0 2.732524 1_555
Hf1 Ir1 2.777073 1_545
Hf1 Ir1 2.777073 1_455
Hf1 Ir1 2.777073 1_554
Hf1 Sn1 3.124558 1_545
Hf1 Sn1 3.124558 1_554
Hf1 Sn1 3.124558 1_455
Hf1 Sn0 3.169476 1_454
Hf1 Sn0 3.169477 1_445
Hf1 Sn0 3.169477 1_544
Co0 Sn0 2.768453 1_454
Co0 Sn0 2.768453 1_544
Co0 Sn0 2.768454 1_445
Co0 Hf0 2.768563 1_545
Co0 Hf0 2.768563 1_455
Co0 Hf0 2.768564 1_554
Co0 Sn1 2.775311 1_555
Co0 Hf1 2.790545 1_555
Co0 Ir0 3.148621 1_565
Co0 Ir0 3.148621 1_556
Co0 Ir0 3.148621 1_655
Co0 Ir1 3.155532 1_545
Co0 Ir1 3.155532 1_554
Co0 Ir1 3.155532 1_455
Ir0 Sn0 2.754017 1_444
Ir0 Sn1 2.775975 1_545
Ir0 Sn1 2.775975 1_455
Ir0 Sn1 2.775976 1_554
Ir1 Sn0 2.722738 1_545
Ir1 Sn0 2.722738 1_455
Ir1 Sn0 2.722739 1_554
Ir1 Sn1 2.735598 1_555
