# generated using pymatgen
data_Zr5CoSn2Pb
_symmetry_space_group_name_H-M   'P 1'
_cell_length_a   5.86454252
_cell_length_b   8.69920584
_cell_length_c   8.69920500
_cell_angle_alpha   119.95538891
_cell_angle_beta   90.00000000
_cell_angle_gamma   90.00000000
_symmetry_Int_Tables_number   1
_chemical_formula_structural   Zr5CoSn2Pb
_chemical_formula_sum   'Zr10 Co2 Sn4 Pb2'
_cell_volume   384.52005650
_cell_formula_units_Z   2
loop_
 _symmetry_equiv_pos_site_id
 _symmetry_equiv_pos_as_xyz
  1  'x, y, z'
loop_
 _atom_site_type_symbol
 _atom_site_label
 _atom_site_symmetry_multiplicity
 _atom_site_fract_x
 _atom_site_fract_y
 _atom_site_fract_z
 _atom_site_occupancy
  Zr  Zr0  1  0.75000000  0.75518254  0.75518254  1
  Zr  Zr1  1  0.25000000  0.24481746  0.24481746  1
  Zr  Zr2  1  0.75000000  0.99562444  0.24801581  1
  Zr  Zr3  1  0.25000000  0.00437556  0.75198419  1
  Zr  Zr4  1  0.75000000  0.24801581  0.99562444  1
  Zr  Zr5  1  0.25000000  0.75198419  0.00437556  1
  Zr  Zr6  1  0.00000000  0.66880626  0.33119374  1
  Zr  Zr7  1  0.00000000  0.33119374  0.66880626  1
  Zr  Zr8  1  0.50000000  0.33119374  0.66880626  1
  Zr  Zr9  1  0.50000000  0.66880626  0.33119374  1
  Co  Co0  1  0.00000000  0.00000000  0.00000000  1
  Co  Co1  1  0.50000000  0.00000000  0.00000000  1
  Sn  Sn0  1  0.75000000  0.99863473  0.60403690  1
  Sn  Sn1  1  0.25000000  0.00136527  0.39596310  1
  Sn  Sn2  1  0.75000000  0.60403690  0.99863473  1
  Sn  Sn3  1  0.25000000  0.39596310  0.00136527  1
  Pb  Pb0  1  0.75000000  0.39316584  0.39316584  1
  Pb  Pb1  1  0.25000000  0.60683416  0.60683416  1
loop_
_geom_bond_atom_site_label_1
_geom_bond_atom_site_label_2
_geom_bond_distance
_geom_bond_site_symmetry_2
Co0 Zr1 2.586768 1_555
Co0 Zr0 2.586768 1_444
Co0 Zr3 2.624499 1_554
Co0 Zr2 2.624499 1_445
Co0 Zr4 2.624500 1_454
Co0 Zr5 2.624500 1_545
Co1 Zr1 2.586768 1_555
Co1 Zr0 2.586768 1_544
Co1 Zr3 2.624499 1_554
Co1 Zr2 2.624499 1_545
Co1 Zr4 2.624500 1_554
Co1 Zr5 2.624500 1_545
Sn0 Zr4 2.988388 1_565
Sn0 Zr0 2.999159 1_555
Sn0 Zr8 3.034572 1_565
Sn0 Zr7 3.034572 1_665
Sn0 Zr9 3.035571 1_555
Sn0 Zr6 3.035571 1_655
Sn0 Zr2 3.084108 1_555
Sn0 Zr3 3.192640 1_665
Sn0 Zr3 3.192640 1_565
Sn1 Zr5 2.988388 1_545
Sn1 Zr1 2.999159 1_555
Sn1 Zr9 3.034572 1_545
Sn1 Zr6 3.034572 1_545
Sn1 Zr7 3.035571 1_555
Sn1 Zr8 3.035571 1_555
Sn1 Zr3 3.084108 1_555
Sn1 Zr2 3.192640 1_445
Sn1 Zr2 3.192640 1_545
Sn2 Zr2 2.988388 1_556
Sn2 Zr0 2.999158 1_555
Sn2 Zr6 3.034572 1_656
Sn2 Zr9 3.034572 1_556
Sn2 Zr7 3.035571 1_655
Sn2 Zr8 3.035571 1_555
Sn2 Zr4 3.084108 1_555
Sn2 Zr5 3.192640 1_556
Sn2 Zr5 3.192640 1_656
Sn3 Zr3 2.988388 1_554
Sn3 Zr1 2.999158 1_555
Sn3 Zr8 3.034572 1_554
Sn3 Zr7 3.034572 1_554
Sn3 Zr9 3.035571 1_555
Sn3 Zr6 3.035571 1_555
Sn3 Zr5 3.084108 1_555
Sn3 Zr4 3.192640 1_554
Sn3 Zr4 3.192640 1_454
Pb0 Zr4 3.032049 1_554
Pb0 Zr2 3.032049 1_545
Pb0 Zr8 3.079098 1_555
Pb0 Zr7 3.079098 1_655
Pb0 Zr9 3.079098 1_555
Pb0 Zr6 3.079098 1_655
Pb0 Zr0 3.151381 1_555
Pb0 Zr1 3.204042 1_655
Pb0 Zr1 3.204042 1_555
Pb1 Zr5 3.032049 1_556
Pb1 Zr3 3.032049 1_565
Pb1 Zr9 3.079098 1_555
Pb1 Zr6 3.079098 1_555
Pb1 Zr7 3.079098 1_555
Pb1 Zr8 3.079098 1_555
Pb1 Zr1 3.151381 1_555
Pb1 Zr0 3.204042 1_555
Pb1 Zr0 3.204042 1_455
