# generated using pymatgen
data_Hf3V2Ge3C
_symmetry_space_group_name_H-M   'P 1'
_cell_length_a   7.68458065
_cell_length_b   7.68433742
_cell_length_c   5.28401530
_cell_angle_alpha   90.00000000
_cell_angle_beta   90.00000000
_cell_angle_gamma   119.99855985
_symmetry_Int_Tables_number   1
_chemical_formula_structural   Hf3V2Ge3C
_chemical_formula_sum   'Hf6 V4 Ge6 C2'
_cell_volume   270.22629075
_cell_formula_units_Z   2
loop_
 _symmetry_equiv_pos_site_id
 _symmetry_equiv_pos_as_xyz
  1  'x, y, z'
loop_
 _atom_site_type_symbol
 _atom_site_label
 _atom_site_symmetry_multiplicity
 _atom_site_fract_x
 _atom_site_fract_y
 _atom_site_fract_z
 _atom_site_occupancy
  Hf  Hf0  1  0.23741242  0.99998863  0.25000000  1
  Hf  Hf1  1  0.76258758  0.00001137  0.75000000  1
  Hf  Hf2  1  0.99999809  0.23742661  0.25000000  1
  Hf  Hf3  1  0.00000191  0.76257339  0.75000000  1
  Hf  Hf4  1  0.76258717  0.76257767  0.25000000  1
  Hf  Hf5  1  0.23741283  0.23742233  0.75000000  1
  V  V0  1  0.33331196  0.66665542  0.00000006  1
  V  V1  1  0.66668804  0.33334458  0.99999994  1
  V  V2  1  0.66668804  0.33334458  0.50000006  1
  V  V3  1  0.33331196  0.66665542  0.49999994  1
  Ge  Ge0  1  0.59090863  0.99999731  0.25000000  1
  Ge  Ge1  1  0.40909137  0.00000269  0.75000000  1
  Ge  Ge2  1  0.99999822  0.59090248  0.25000000  1
  Ge  Ge3  1  0.00000178  0.40909752  0.75000000  1
  Ge  Ge4  1  0.40909065  0.40908966  0.25000000  1
  Ge  Ge5  1  0.59090935  0.59091034  0.75000000  1
  C  C0  1  0.00000000  0.00000000  0.00000000  1
  C  C1  1  0.00000000  0.00000000  0.50000000  1
loop_
_geom_bond_atom_site_label_1
_geom_bond_atom_site_label_2
_geom_bond_distance
_geom_bond_site_symmetry_2
Ge0 V2 2.674716 1_565
Ge0 V1 2.674716 1_564
Ge0 V3 2.674799 1_555
Ge0 V0 2.674799 1_555
Ge0 Hf0 2.716437 1_555
Ge0 Hf4 2.734187 1_555
Ge0 Hf2 2.734251 1_565
Ge0 Hf1 2.953060 1_565
Ge0 Hf1 2.953060 1_564
Ge1 V0 2.674716 1_546
Ge1 V3 2.674716 1_545
Ge1 V1 2.674799 1_555
Ge1 V2 2.674799 1_555
Ge1 Hf1 2.716437 1_555
Ge1 Hf5 2.734187 1_555
Ge1 Hf3 2.734251 1_545
Ge1 Hf0 2.953060 1_546
Ge1 Hf0 2.953060 1_545
Ge2 V2 2.674610 1_555
Ge2 V1 2.674610 1_554
Ge2 V3 2.674624 1_655
Ge2 V0 2.674624 1_655
Ge2 Hf2 2.716227 1_555
Ge2 Hf4 2.734124 1_555
Ge2 Hf0 2.734143 1_655
Ge2 Hf3 2.953032 1_655
Ge2 Hf3 2.953032 1_654
Ge3 V0 2.674610 1_556
Ge3 V3 2.674610 1_555
Ge3 V1 2.674624 1_455
Ge3 V2 2.674624 1_455
Ge3 Hf3 2.716227 1_555
Ge3 Hf5 2.734124 1_555
Ge3 Hf1 2.734143 1_455
Ge3 Hf2 2.953032 1_456
Ge3 Hf2 2.953032 1_455
Ge4 V3 2.674693 1_555
Ge4 V0 2.674693 1_555
Ge4 V2 2.674790 1_555
Ge4 V1 2.674790 1_554
Ge4 Hf4 2.716456 1_555
Ge4 Hf0 2.734221 1_545
Ge4 Hf2 2.734267 1_455
Ge4 Hf5 2.953066 1_555
Ge4 Hf5 2.953066 1_554
Ge5 V1 2.674693 1_555
Ge5 V2 2.674693 1_555
Ge5 V0 2.674790 1_556
Ge5 V3 2.674790 1_555
Ge5 Hf5 2.716456 1_555
Ge5 Hf1 2.734221 1_565
Ge5 Hf3 2.734267 1_655
Ge5 Hf4 2.953066 1_555
Ge5 Hf4 2.953066 1_556
C0 Hf0 2.252488 1_545
C0 Hf1 2.252488 1_454
C0 Hf5 2.252493 1_554
C0 Hf4 2.252493 1_445
C0 Hf2 2.252500 1_455
C0 Hf3 2.252500 1_544
C1 Hf0 2.252488 1_545
C1 Hf1 2.252488 1_455
C1 Hf5 2.252493 1_555
C1 Hf4 2.252493 1_445
C1 Hf2 2.252500 1_455
C1 Hf3 2.252500 1_545
