# generated using pymatgen
data_Ga4Hg11(SbBr4)4
_symmetry_space_group_name_H-M   'P 1'
_cell_length_a   8.00469931
_cell_length_b   8.00470021
_cell_length_c   24.26605682
_cell_angle_alpha   84.09269401
_cell_angle_beta   84.09269311
_cell_angle_gamma   59.52302163
_symmetry_Int_Tables_number   1
_chemical_formula_structural   Ga4Hg11(SbBr4)4
_chemical_formula_sum   'Ga4 Hg11 Sb4 Br16'
_cell_volume   1330.57267802
_cell_formula_units_Z   1
loop_
 _symmetry_equiv_pos_site_id
 _symmetry_equiv_pos_as_xyz
  1  'x, y, z'
loop_
 _atom_site_type_symbol
 _atom_site_label
 _atom_site_symmetry_multiplicity
 _atom_site_fract_x
 _atom_site_fract_y
 _atom_site_fract_z
 _atom_site_occupancy
  Ga  Ga0  1  0.63433163  0.63433163  0.12405520  1
  Ga  Ga1  1  0.36566837  0.36566837  0.87594480  1
  Ga  Ga2  1  0.75057978  0.75057978  0.61896245  1
  Ga  Ga3  1  0.24942022  0.24942022  0.38103755  1
  Hg  Hg0  1  0.03285187  0.03285187  0.88993188  1
  Hg  Hg1  1  0.77111417  0.77111417  0.28364324  1
  Hg  Hg2  1  0.47395425  0.47395425  0.55384263  1
  Hg  Hg3  1  0.72715997  0.23066860  0.72219687  1
  Hg  Hg4  1  0.27284003  0.76933140  0.27780313  1
  Hg  Hg5  1  0.76933140  0.27284003  0.27780313  1
  Hg  Hg6  1  0.23066860  0.72715997  0.72219687  1
  Hg  Hg7  1  0.52604575  0.52604575  0.44615737  1
  Hg  Hg8  1  0.96714813  0.96714813  0.11006812  1
  Hg  Hg9  1  0.00000000  0.00000000  0.00000000  1
  Hg  Hg10  1  0.22888583  0.22888583  0.71635676  1
  Sb  Sb0  1  0.94529656  0.94529656  0.22468772  1
  Sb  Sb1  1  0.05470344  0.05470344  0.77531228  1
  Sb  Sb2  1  0.59073937  0.59073937  0.33570966  1
  Sb  Sb3  1  0.40926063  0.40926063  0.66429034  1
  Br  Br0  1  0.53265735  0.05638030  0.83940254  1
  Br  Br1  1  0.08599639  0.08599639  0.41706813  1
  Br  Br2  1  0.53096258  0.53096258  0.83983071  1
  Br  Br3  1  0.42905249  0.91122851  0.59181386  1
  Br  Br4  1  0.74018135  0.74018135  0.71632818  1
  Br  Br5  1  0.34566874  0.34566874  0.97172542  1
  Br  Br6  1  0.46734265  0.94361970  0.16059746  1
  Br  Br7  1  0.94361970  0.46734265  0.16059746  1
  Br  Br8  1  0.46903742  0.46903742  0.16016929  1
  Br  Br9  1  0.57094751  0.08877149  0.40818614  1
  Br  Br10  1  0.65433126  0.65433126  0.02827458  1
  Br  Br11  1  0.91122851  0.42905249  0.59181386  1
  Br  Br12  1  0.25981865  0.25981865  0.28367182  1
  Br  Br13  1  0.08877149  0.57094751  0.40818614  1
  Br  Br14  1  0.91400361  0.91400361  0.58293187  1
  Br  Br15  1  0.05638030  0.53265735  0.83940254  1
loop_
_geom_bond_atom_site_label_1
_geom_bond_atom_site_label_2
_geom_bond_distance
_geom_bond_site_symmetry_2
Hg0 Hg9 2.655770 1_556
Hg0 Sb1 2.761872 1_555
Hg1 Sb0 2.661860 1_555
Hg1 Sb2 2.670088 1_555
Hg2 Hg7 2.627512 1_555
Hg2 Sb3 2.723986 1_555
Hg3 Sb1 2.663700 1_655
Hg3 Sb3 2.669455 1_555
Hg4 Sb0 2.663700 1_455
Hg4 Sb2 2.669455 1_555
Hg5 Sb0 2.663700 1_545
Hg5 Sb2 2.669455 1_555
Hg6 Sb1 2.663700 1_565
Hg6 Sb3 2.669455 1_555
Hg7 Sb2 2.723986 1_555
Hg8 Hg9 2.655770 1_665
Hg8 Sb0 2.761872 1_555
Hg10 Sb1 2.661860 1_555
Hg10 Sb3 2.670088 1_555
Br0 Ga1 2.356566 1_555
Br1 Ga3 2.334959 1_555
Br2 Ga1 2.359627 1_555
Br3 Ga2 2.351401 1_555
Br4 Ga2 2.349934 1_555
Br5 Ga1 2.307827 1_555
Br6 Ga0 2.356566 1_555
Br7 Ga0 2.356566 1_555
Br8 Ga0 2.359627 1_555
Br9 Ga3 2.351401 1_555
Br10 Ga0 2.307827 1_555
Br11 Ga2 2.351401 1_555
Br12 Ga3 2.349934 1_555
Br13 Ga3 2.351401 1_555
Br14 Ga2 2.334959 1_555
Br15 Ga1 2.356566 1_555
