# generated using pymatgen
data_RbAgP2Se5
_symmetry_space_group_name_H-M   'P 1'
_cell_length_a   8.26562048
_cell_length_b   10.92493813
_cell_length_c   13.81248634
_cell_angle_alpha   58.75540101
_cell_angle_beta   90.00000000
_cell_angle_gamma   90.00000000
_symmetry_Int_Tables_number   1
_chemical_formula_structural   RbAgP2Se5
_chemical_formula_sum   'Rb4 Ag4 P8 Se20'
_cell_volume   1066.38123782
_cell_formula_units_Z   4
loop_
 _symmetry_equiv_pos_site_id
 _symmetry_equiv_pos_as_xyz
  1  'x, y, z'
loop_
 _atom_site_type_symbol
 _atom_site_label
 _atom_site_symmetry_multiplicity
 _atom_site_fract_x
 _atom_site_fract_y
 _atom_site_fract_z
 _atom_site_occupancy
  Rb  Rb0  1  0.63021075  0.62371429  0.77993018  1
  Rb  Rb1  1  0.36978925  0.37628571  0.22006982  1
  Rb  Rb2  1  0.86978925  0.62371429  0.27993018  1
  Rb  Rb3  1  0.13021075  0.37628571  0.72006982  1
  Ag  Ag0  1  0.33973449  0.84813038  0.33309536  1
  Ag  Ag1  1  0.83973449  0.15186962  0.16690464  1
  Ag  Ag2  1  0.16026551  0.84813038  0.83309536  1
  Ag  Ag3  1  0.66026551  0.15186962  0.66690464  1
  P  P0  1  0.64605109  0.19602372  0.91909345  1
  P  P1  1  0.93954728  0.82708905  0.46204230  1
  P  P2  1  0.06045272  0.17291095  0.53795770  1
  P  P3  1  0.85394891  0.19602372  0.41909345  1
  P  P4  1  0.35394891  0.80397628  0.08090655  1
  P  P5  1  0.14605109  0.80397628  0.58090655  1
  P  P6  1  0.56045272  0.82708905  0.96204230  1
  P  P7  1  0.43954728  0.17291095  0.03795770  1
  Se  Se0  1  0.68739730  0.62874022  0.03645112  1
  Se  Se1  1  0.55677565  0.31025850  0.74882002  1
  Se  Se2  1  0.14447917  0.70803869  0.05246777  1
  Se  Se3  1  0.47269988  0.92034909  0.78948680  1
  Se  Se4  1  0.18739730  0.37125978  0.46354888  1
  Se  Se5  1  0.35552083  0.70803869  0.55246777  1
  Se  Se6  1  0.31260270  0.37125978  0.96354888  1
  Se  Se7  1  0.97269988  0.07965091  0.71051320  1
  Se  Se8  1  0.73984258  0.96757306  0.98740511  1
  Se  Se9  1  0.23984258  0.03242694  0.51259489  1
  Se  Se10  1  0.85552083  0.29196131  0.94753223  1
  Se  Se11  1  0.76015742  0.96757306  0.48740511  1
  Se  Se12  1  0.05677565  0.68974150  0.75117998  1
  Se  Se13  1  0.02730012  0.92034909  0.28948680  1
  Se  Se14  1  0.64447917  0.29196131  0.44753223  1
  Se  Se15  1  0.44322435  0.68974150  0.25117998  1
  Se  Se16  1  0.94322435  0.31025850  0.24882002  1
  Se  Se17  1  0.52730012  0.07965091  0.21051320  1
  Se  Se18  1  0.26015742  0.03242694  0.01259489  1
  Se  Se19  1  0.81260270  0.62874022  0.53645112  1
loop_
_geom_bond_atom_site_label_1
_geom_bond_atom_site_label_2
_geom_bond_distance
_geom_bond_site_symmetry_2
Rb0 Se3 3.557871 1_555
Rb0 Se12 3.579428 1_655
Rb0 Se5 3.587790 1_555
Rb0 Se0 3.603120 1_556
Rb0 Se10 3.641360 1_555
Rb0 Se19 3.659832 1_555
Rb0 Se6 3.697913 1_555
Rb0 Se1 3.715740 1_555
Rb0 Se11 3.980637 1_555
Rb1 Se17 3.557871 1_555
Rb1 Se16 3.579428 1_455
Rb1 Se14 3.587790 1_555
Rb1 Se6 3.603120 1_554
Rb1 Se2 3.641360 1_555
Rb1 Se4 3.659832 1_555
Rb1 Se0 3.697913 1_555
Rb1 Se15 3.715740 1_555
Rb1 Se9 3.980637 1_555
Rb2 Se13 3.557871 1_655
Rb2 Se15 3.579428 1_555
Rb2 Se2 3.587790 1_655
Rb2 Se19 3.603120 1_555
Rb2 Se14 3.641360 1_555
Rb2 Se0 3.659832 1_555
Rb2 Se4 3.697913 1_655
Rb2 Se16 3.715740 1_555
Rb2 Se8 3.980637 1_554
Rb3 Se7 3.557871 1_455
Rb3 Se1 3.579428 1_555
Rb3 Se10 3.587790 1_455
Rb3 Se4 3.603120 1_555
Rb3 Se5 3.641360 1_555
Rb3 Se6 3.659832 1_555
Rb3 Se19 3.697913 1_455
Rb3 Se12 3.715740 1_555
Rb3 Se18 3.980637 1_556
Ag0 Se5 2.594209 1_555
Ag0 Se15 2.652774 1_555
Ag0 Se13 2.676084 1_555
Ag0 Se17 2.687986 1_565
Ag1 Se10 2.594209 1_554
Ag1 Se16 2.652774 1_555
Ag1 Se17 2.676084 1_555
Ag1 Se13 2.687986 1_645
Ag2 Se2 2.594209 1_556
Ag2 Se12 2.652774 1_555
Ag2 Se3 2.676084 1_555
Ag2 Se7 2.687986 1_465
Ag3 Se14 2.594209 1_555
Ag3 Se1 2.652774 1_555
Ag3 Se7 2.676084 1_555
Ag3 Se3 2.687986 1_545
P0 Se1 2.142091 1_555
P0 Se10 2.162794 1_555
P0 P7 2.289691 1_556
P0 Se8 2.297257 1_545
P1 Se19 2.131331 1_555
P1 Se13 2.173872 1_655
P1 Se11 2.287935 1_555
P1 P5 2.289691 1_655
P2 Se4 2.131331 1_555
P2 Se7 2.173872 1_455
P2 Se9 2.287935 1_555
P2 P3 2.289691 1_455
P3 Se16 2.142091 1_555
P3 Se14 2.162794 1_555
P3 Se11 2.297257 1_545
P4 Se15 2.142091 1_555
P4 Se2 2.162794 1_555
P4 P6 2.289691 1_554
P4 Se18 2.297257 1_565
P5 Se12 2.142091 1_555
P5 Se5 2.162794 1_555
P5 Se9 2.297257 1_565
P6 Se0 2.131331 1_556
P6 Se3 2.173872 1_555
P6 Se8 2.287935 1_555
P7 Se6 2.131331 1_554
P7 Se17 2.173872 1_555
P7 Se18 2.287935 1_555
