# generated using pymatgen
data_MnAl2VCo4
_symmetry_space_group_name_H-M   'P 1'
_cell_length_a   6.97026402
_cell_length_b   6.97026434
_cell_length_c   6.97026576
_cell_angle_alpha   33.62543789
_cell_angle_beta   33.62543267
_cell_angle_gamma   33.62543366
_symmetry_Int_Tables_number   1
_chemical_formula_structural   MnAl2VCo4
_chemical_formula_sum   'Mn1 Al2 V1 Co4'
_cell_volume   92.50912249
_cell_formula_units_Z   1
loop_
 _symmetry_equiv_pos_site_id
 _symmetry_equiv_pos_as_xyz
  1  'x, y, z'
loop_
 _atom_site_type_symbol
 _atom_site_label
 _atom_site_symmetry_multiplicity
 _atom_site_fract_x
 _atom_site_fract_y
 _atom_site_fract_z
 _atom_site_occupancy
  Mn  Mn0  1  0.50000000  0.50000000  0.50000000  1
  Al  Al0  1  0.24767082  0.24767082  0.24767082  1
  Al  Al1  1  0.75232918  0.75232918  0.75232918  1
  V  V0  1  0.00000000  0.00000000  0.00000000  1
  Co  Co0  1  0.62739377  0.62739377  0.62739377  1
  Co  Co1  1  0.12219116  0.12219116  0.12219116  1
  Co  Co2  1  0.87780884  0.87780884  0.87780884  1
  Co  Co3  1  0.37260623  0.37260623  0.37260623  1
loop_
_geom_bond_atom_site_label_1
_geom_bond_atom_site_label_2
_geom_bond_distance
_geom_bond_site_symmetry_2
Al0 Co2 2.436794 1_544
Al0 Co2 2.436794 1_445
Al0 Co2 2.436795 1_454
Al0 Co3 2.462480 1_555
Al0 Co1 2.473207 1_555
Al0 Co0 2.501122 1_554
Al0 Co0 2.501122 1_455
Al0 Co0 2.501123 1_545
Al1 Co1 2.436794 1_566
Al1 Co1 2.436794 1_665
Al1 Co1 2.436795 1_656
Al1 Co0 2.462480 1_555
Al1 Co2 2.473207 1_555
Al1 Co3 2.501122 1_556
Al1 Co3 2.501122 1_655
Al1 Co3 2.501123 1_565
Co0 V0 2.453320 1_566
Co0 V0 2.453320 1_665
Co0 V0 2.453320 1_656
Co0 Mn0 2.510934 1_555
Co1 V0 2.408390 1_555
Co1 Mn0 2.487578 1_554
Co1 Mn0 2.487578 1_455
Co1 Mn0 2.487578 1_545
Co2 V0 2.408390 1_666
Co2 Mn0 2.487578 1_556
Co2 Mn0 2.487578 1_655
Co2 Mn0 2.487578 1_565
Co3 V0 2.453320 1_655
Co3 V0 2.453320 1_556
Co3 V0 2.453320 1_565
Co3 Mn0 2.510934 1_555
