# generated using pymatgen
data_Sr3WCl2O5
_symmetry_space_group_name_H-M   'P 1'
_cell_length_a   7.06469307
_cell_length_b   7.06469232
_cell_length_c   11.18895828
_cell_angle_alpha   90.00000000
_cell_angle_beta   90.00000000
_cell_angle_gamma   132.91422834
_symmetry_Int_Tables_number   1
_chemical_formula_structural   Sr3WCl2O5
_chemical_formula_sum   'Sr6 W2 Cl4 O10'
_cell_volume   408.98654802
_cell_formula_units_Z   2
loop_
 _symmetry_equiv_pos_site_id
 _symmetry_equiv_pos_as_xyz
  1  'x, y, z'
loop_
 _atom_site_type_symbol
 _atom_site_label
 _atom_site_symmetry_multiplicity
 _atom_site_fract_x
 _atom_site_fract_y
 _atom_site_fract_z
 _atom_site_occupancy
  Sr  Sr0  1  0.90929460  0.09070540  0.75000000  1
  Sr  Sr1  1  0.65719814  0.34280186  0.54208057  1
  Sr  Sr2  1  0.34280186  0.65719814  0.45791943  1
  Sr  Sr3  1  0.65719814  0.34280186  0.95791943  1
  Sr  Sr4  1  0.34280186  0.65719814  0.04208057  1
  Sr  Sr5  1  0.09070540  0.90929460  0.25000000  1
  W  W0  1  0.75316437  0.24683563  0.25000000  1
  W  W1  1  0.24683563  0.75316437  0.75000000  1
  Cl  Cl0  1  0.49692091  0.50307909  0.25000000  1
  Cl  Cl1  1  0.50307909  0.49692091  0.75000000  1
  Cl  Cl2  1  0.00000000  0.00000000  0.50000000  1
  Cl  Cl3  1  0.00000000  0.00000000  0.00000000  1
  O  O0  1  0.11180750  0.88819250  0.75000000  1
  O  O1  1  0.05405721  0.48526495  0.63329939  1
  O  O2  1  0.48526495  0.05405721  0.36670061  1
  O  O3  1  0.51473505  0.94594279  0.63329939  1
  O  O4  1  0.94594279  0.51473505  0.36670061  1
  O  O5  1  0.88819250  0.11180750  0.25000000  1
  O  O6  1  0.05405721  0.48526495  0.86670061  1
  O  O7  1  0.51473505  0.94594279  0.86670061  1
  O  O8  1  0.94594279  0.51473505  0.13329939  1
  O  O9  1  0.48526495  0.05405721  0.13329939  1
loop_
_geom_bond_atom_site_label_1
_geom_bond_atom_site_label_2
_geom_bond_distance
_geom_bond_site_symmetry_2
Cl0 Sr2 3.065541 1_555
Cl0 Sr4 3.065541 1_555
Cl0 Sr5 3.072268 1_545
Cl0 Sr5 3.072268 1_655
Cl1 Sr3 3.065541 1_555
Cl1 Sr1 3.065541 1_555
Cl1 Sr0 3.072268 1_565
Cl1 Sr0 3.072268 1_455
Cl2 Sr5 3.033977 1_545
Cl2 Sr0 3.033977 1_455
Cl2 Sr2 3.511549 1_555
Cl2 Sr1 3.511549 1_445
Cl2 Sr1 3.511549 1_555
Cl2 Sr2 3.511549 1_445
Cl3 Sr5 3.033977 1_545
Cl3 Sr0 3.033977 1_454
Cl3 Sr4 3.511549 1_555
Cl3 Sr3 3.511549 1_444
Cl3 Sr3 3.511549 1_554
Cl3 Sr4 3.511549 1_445
O0 W1 1.749056 1_555
O0 Sr0 2.623205 1_465
O1 W1 1.905694 1_555
O1 Sr1 2.464265 1_455
O1 Sr2 2.472450 1_555
O1 Sr0 2.576553 1_455
O2 W0 1.905694 1_555
O2 Sr2 2.464264 1_545
O2 Sr1 2.472450 1_555
O2 Sr5 2.576553 1_545
O3 W1 1.905694 1_555
O3 Sr1 2.464264 1_565
O3 Sr2 2.472450 1_555
O3 Sr0 2.576553 1_565
O4 W0 1.905694 1_555
O4 Sr2 2.464265 1_655
O4 Sr1 2.472450 1_555
O4 Sr5 2.576553 1_655
O5 W0 1.749056 1_555
O5 Sr5 2.623205 1_645
O6 W1 1.905694 1_555
O6 Sr3 2.464265 1_455
O6 Sr4 2.472450 1_556
O6 Sr0 2.576553 1_455
O7 W1 1.905694 1_555
O7 Sr3 2.464264 1_565
O7 Sr4 2.472450 1_556
O7 Sr0 2.576553 1_565
O8 W0 1.905694 1_555
O8 Sr4 2.464265 1_655
O8 Sr3 2.472450 1_554
O8 Sr5 2.576553 1_655
O9 W0 1.905694 1_555
O9 Sr4 2.464264 1_545
O9 Sr3 2.472450 1_554
O9 Sr5 2.576553 1_545
