# generated using pymatgen
data_Ti6Si6Tc5Os
_symmetry_space_group_name_H-M   'P 1'
_cell_length_a   7.48351902
_cell_length_b   7.49037553
_cell_length_c   7.48350895
_cell_angle_alpha   126.31075160
_cell_angle_beta   128.98827883
_cell_angle_gamma   77.18935643
_symmetry_Int_Tables_number   1
_chemical_formula_structural   Ti6Si6Tc5Os
_chemical_formula_sum   'Ti6 Si6 Tc5 Os1'
_cell_volume   255.00707715
_cell_formula_units_Z   1
loop_
 _symmetry_equiv_pos_site_id
 _symmetry_equiv_pos_as_xyz
  1  'x, y, z'
loop_
 _atom_site_type_symbol
 _atom_site_label
 _atom_site_symmetry_multiplicity
 _atom_site_fract_x
 _atom_site_fract_y
 _atom_site_fract_z
 _atom_site_occupancy
  Ti  Ti0  1  0.45240973  0.40889417  0.45816857  1
  Ti  Ti1  1  0.55106835  0.00321009  0.95459650  1
  Ti  Ti2  1  0.04879561  0.00325716  0.45239169  1
  Ti  Ti3  1  0.95070950  0.40892505  0.95641329  1
  Ti  Ti4  1  0.24940437  0.59744280  0.84960325  1
  Ti  Ti5  1  0.74788904  0.59752370  0.34796022  1
  Si  Si0  1  0.25110923  0.00319912  0.25428910  1
  Si  Si1  1  0.74904060  0.00329657  0.75206128  1
  Si  Si2  1  0.16639864  0.67146737  0.50506944  1
  Si  Si3  1  0.83324920  0.33630353  0.50294062  1
  Si  Si4  1  0.66647941  0.67032198  0.00365016  1
  Si  Si5  1  0.33207545  0.33476806  0.00285011  1
  Tc  Tc0  1  0.00063887  0.26346870  0.26272444  1
  Tc  Tc1  1  0.49948443  0.26308376  0.76352617  1
  Tc  Tc2  1  0.36967001  0.74260837  0.37314494  1
  Tc  Tc3  1  0.63070340  0.00337335  0.37249146  1
  Tc  Tc4  1  0.87061241  0.74375731  0.87313151  1
  Os  Os0  1  0.13026175  0.00309893  0.87298925  1
loop_
_geom_bond_atom_site_label_1
_geom_bond_atom_site_label_2
_geom_bond_distance
_geom_bond_site_symmetry_2
Si0 Tc1 2.381725 1_555
Si0 Tc2 2.384008 1_545
Si0 Tc4 2.385263 1_444
Si0 Tc3 2.385458 1_555
Si0 Tc0 2.387601 1_555
Si0 Ti2 2.704322 1_555
Si0 Ti4 2.734330 1_544
Si0 Ti0 2.734672 1_555
Si1 Tc1 2.382016 1_555
Si1 Tc2 2.384205 1_545
Si1 Tc3 2.385198 1_555
Si1 Tc4 2.385874 1_545
Si1 Tc0 2.387472 1_656
Si1 Ti1 2.705433 1_555
Si1 Ti3 2.733874 1_555
Si1 Ti5 2.734281 1_545
Si2 Tc2 2.538683 1_555
Si2 Tc0 2.540392 1_555
Si2 Ti0 2.614099 1_555
Si2 Ti3 2.614657 1_454
Si2 Ti2 2.619183 1_565
Si2 Ti5 2.619650 1_455
Si2 Ti1 2.620050 1_565
Si2 Ti4 2.620327 1_555
Si3 Tc3 2.529923 1_555
Si3 Tc4 2.541205 1_555
Si3 Tc0 2.543105 1_655
Si3 Ti4 2.603910 1_655
Si3 Ti5 2.604359 1_555
Si3 Ti1 2.613485 1_554
Si3 Ti2 2.614187 1_655
Si3 Ti3 2.618604 1_555
Si3 Ti0 2.618681 1_555
Si4 Tc3 2.528343 1_565
Si4 Tc1 2.543327 1_554
Si4 Tc4 2.544938 1_554
Si4 Ti0 2.599974 1_554
Si4 Ti3 2.600469 1_554
Si4 Ti1 2.613067 1_564
Si4 Ti2 2.614946 1_665
Si4 Ti5 2.617061 1_555
Si4 Ti4 2.617525 1_554
Si5 Tc1 2.540001 1_554
Si5 Tc2 2.542591 1_555
Si5 Ti4 2.609385 1_554
Si5 Ti5 2.609599 1_555
Si5 Ti0 2.617156 1_555
Si5 Ti3 2.617635 1_454
Si5 Ti2 2.619267 1_554
Si5 Ti1 2.619463 1_554
Tc0 Ti5 2.788291 1_455
Tc0 Ti4 2.788831 1_555
Tc0 Ti1 2.873889 1_454
Tc0 Ti2 2.874840 1_555
Tc0 Ti0 2.877478 1_555
Tc0 Ti3 2.877637 1_454
Tc1 Ti4 2.778045 1_555
Tc1 Ti5 2.778194 1_556
Tc1 Ti2 2.871739 1_555
Tc1 Ti1 2.872493 1_555
Tc1 Ti0 2.882892 1_555
Tc1 Ti3 2.883460 1_555
Tc2 Ti0 2.781723 1_555
Tc2 Ti3 2.782614 1_454
Tc2 Ti1 2.875736 1_565
Tc2 Ti2 2.875964 1_565
Tc2 Ti5 2.879648 1_555
Tc2 Ti4 2.879932 1_554
Tc3 Ti1 2.790325 1_554
Tc3 Ti2 2.791458 1_655
Tc3 Ti0 2.896629 1_555
Tc3 Ti3 2.897385 1_555
Tc3 Ti5 2.898889 1_545
Tc3 Ti4 2.899250 1_544
Tc4 Ti3 2.784306 1_555
Tc4 Ti0 2.785017 1_555
Tc4 Ti1 2.870060 1_565
Tc4 Ti2 2.871297 1_666
Tc4 Ti4 2.879138 1_655
Tc4 Ti5 2.880111 1_555
Os0 Si1 2.389330 1_455
Os0 Si0 2.389705 1_556
Os0 Si5 2.520897 1_556
Os0 Si2 2.522574 1_545
Os0 Ti2 2.805033 1_555
Os0 Ti1 2.805432 1_555
Os0 Ti4 2.902297 1_545
Os0 Ti5 2.902745 1_445
Os0 Ti0 2.903245 1_556
Os0 Ti3 2.903833 1_455
