# generated using pymatgen
data_Mg2Ta(NbN2)3
_symmetry_space_group_name_H-M   'P 1'
_cell_length_a   5.24746296
_cell_length_b   5.24746343
_cell_length_c   10.49081329
_cell_angle_alpha   90.00000000
_cell_angle_beta   90.00000000
_cell_angle_gamma   120.00000327
_symmetry_Int_Tables_number   1
_chemical_formula_structural   Mg2Ta(NbN2)3
_chemical_formula_sum   'Mg4 Ta2 Nb6 N12'
_cell_volume   250.17192938
_cell_formula_units_Z   2
loop_
 _symmetry_equiv_pos_site_id
 _symmetry_equiv_pos_as_xyz
  1  'x, y, z'
loop_
 _atom_site_type_symbol
 _atom_site_label
 _atom_site_symmetry_multiplicity
 _atom_site_fract_x
 _atom_site_fract_y
 _atom_site_fract_z
 _atom_site_occupancy
  Mg  Mg0  1  0.33333300  0.66666700  0.00000000  1
  Mg  Mg1  1  0.33333300  0.66666700  0.50000000  1
  Mg  Mg2  1  0.66666700  0.33333300  0.50000000  1
  Mg  Mg3  1  0.66666700  0.33333300  0.00000000  1
  Ta  Ta0  1  0.00000000  0.00000000  0.50000000  1
  Ta  Ta1  1  0.00000000  0.00000000  0.00000000  1
  Nb  Nb0  1  0.00000000  0.33642038  0.25000000  1
  Nb  Nb1  1  0.66357962  0.00000000  0.75000000  1
  Nb  Nb2  1  0.33642038  0.33642038  0.75000000  1
  Nb  Nb3  1  0.66357962  0.66357962  0.25000000  1
  Nb  Nb4  1  0.33642038  1.00000000  0.25000000  1
  Nb  Nb5  1  0.00000000  0.66357962  0.75000000  1
  N  N0  1  0.67307642  0.67307642  0.61840030  1
  N  N1  1  0.67307642  0.67307642  0.88159970  1
  N  N2  1  0.32692358  0.32692358  0.11840030  1
  N  N3  1  0.32692358  0.32692358  0.38159970  1
  N  N4  1  0.32692358  1.00000000  0.88159970  1
  N  N5  1  0.32692358  1.00000000  0.61840030  1
  N  N6  1  0.00000000  0.67307642  0.38159970  1
  N  N7  1  0.00000000  0.67307642  0.11840030  1
  N  N8  1  0.67307642  0.00000000  0.11840030  1
  N  N9  1  0.67307642  0.00000000  0.38159970  1
  N  N10  1  1.00000000  0.32692358  0.88159970  1
  N  N11  1  1.00000000  0.32692358  0.61840030  1
loop_
_geom_bond_atom_site_label_1
_geom_bond_atom_site_label_2
_geom_bond_distance
_geom_bond_site_symmetry_2
Mg0 N7 2.159247 1_555
Mg0 N4 2.159247 1_554
Mg0 N8 2.159249 1_565
Mg0 N10 2.159249 1_454
Mg0 N1 2.159251 1_554
Mg0 N2 2.159251 1_555
Mg1 N6 2.159247 1_555
Mg1 N5 2.159247 1_555
Mg1 N9 2.159249 1_565
Mg1 N11 2.159249 1_455
Mg1 N0 2.159251 1_555
Mg1 N3 2.159251 1_555
Mg2 N11 2.159247 1_555
Mg2 N9 2.159247 1_555
Mg2 N5 2.159249 1_545
Mg2 N6 2.159249 1_655
Mg2 N3 2.159251 1_555
Mg2 N0 2.159251 1_555
Mg3 N10 2.159247 1_554
Mg3 N8 2.159247 1_555
Mg3 N4 2.159249 1_544
Mg3 N7 2.159249 1_655
Mg3 N2 2.159251 1_555
Mg3 N1 2.159251 1_554
N0 Ta0 2.117984 1_665
N0 Nb5 2.221937 1_655
N0 Nb1 2.221937 1_565
N0 Nb2 2.242067 1_555
N1 Ta1 2.117984 1_666
N1 Nb5 2.221937 1_655
N1 Nb1 2.221937 1_565
N1 Nb2 2.242067 1_555
N2 Ta1 2.117984 1_555
N2 Nb0 2.221937 1_555
N2 Nb4 2.221937 1_545
N2 Nb3 2.242067 1_555
N3 Ta0 2.117984 1_555
N3 Nb0 2.221937 1_555
N3 Nb4 2.221937 1_545
N3 Nb3 2.242067 1_555
N4 Ta1 2.117984 1_566
N4 Nb5 2.221937 1_555
N4 Nb2 2.221937 1_565
N4 Nb1 2.242067 1_565
N5 Ta0 2.117984 1_565
N5 Nb5 2.221937 1_555
N5 Nb2 2.221937 1_565
N5 Nb1 2.242067 1_565
N6 Ta0 2.117984 1_565
N6 Nb4 2.221937 1_555
N6 Nb3 2.221937 1_455
N6 Nb0 2.242067 1_555
N7 Ta1 2.117984 1_565
N7 Nb4 2.221937 1_555
N7 Nb3 2.221937 1_455
N7 Nb0 2.242067 1_555
N8 Ta1 2.117984 1_655
N8 Nb0 2.221937 1_655
N8 Nb3 2.221937 1_545
N8 Nb4 2.242067 1_545
N9 Ta0 2.117984 1_655
N9 Nb0 2.221937 1_655
N9 Nb3 2.221937 1_545
N9 Nb4 2.242067 1_545
N10 Ta1 2.117984 1_656
N10 Nb1 2.221937 1_555
N10 Nb2 2.221937 1_655
N10 Nb5 2.242067 1_655
N11 Ta0 2.117984 1_655
N11 Nb1 2.221937 1_555
N11 Nb2 2.221937 1_655
N11 Nb5 2.242067 1_655
