# generated using pymatgen
data_Cs2Co(RhS2)2
_symmetry_space_group_name_H-M   'P 1'
_cell_length_a   5.88482150
_cell_length_b   5.88482148
_cell_length_c   8.11329836
_cell_angle_alpha   101.19849684
_cell_angle_beta   101.19849953
_cell_angle_gamma   117.67759780
_symmetry_Int_Tables_number   1
_chemical_formula_structural   Cs2Co(RhS2)2
_chemical_formula_sum   'Cs2 Co1 Rh2 S4'
_cell_volume   230.63230875
_cell_formula_units_Z   1
loop_
 _symmetry_equiv_pos_site_id
 _symmetry_equiv_pos_as_xyz
  1  'x, y, z'
loop_
 _atom_site_type_symbol
 _atom_site_label
 _atom_site_symmetry_multiplicity
 _atom_site_fract_x
 _atom_site_fract_y
 _atom_site_fract_z
 _atom_site_occupancy
  Cs  Cs0  1  0.66280743  0.66280743  0.32561485  1
  Cs  Cs1  1  0.33719257  0.33719257  0.67438515  1
  Co  Co0  1  0.00000000  0.00000000  0.00000000  1
  Rh  Rh0  1  0.00000000  0.50000000  0.00000000  1
  Rh  Rh1  1  0.50000000  0.00000000  0.00000000  1
  S  S0  1  0.73862009  0.05956821  0.79818830  1
  S  S1  1  0.94043179  0.26137991  0.20181170  1
  S  S2  1  0.05956821  0.73862009  0.79818830  1
  S  S3  1  0.26137991  0.94043179  0.20181170  1
loop_
_geom_bond_atom_site_label_1
_geom_bond_atom_site_label_2
_geom_bond_distance
_geom_bond_site_symmetry_2
Cs0 S3 3.543999 1_555
Cs0 S1 3.543999 1_555
Cs0 S1 3.570922 1_565
Cs0 S3 3.570922 1_655
Cs0 S1 3.570922 1_455
Cs0 S3 3.570922 1_545
Cs0 S2 3.904085 1_655
Cs0 S0 3.904085 1_565
Cs1 S0 3.543999 1_555
Cs1 S2 3.543999 1_555
Cs1 S2 3.570922 1_545
Cs1 S0 3.570922 1_455
Cs1 S2 3.570922 1_655
Cs1 S0 3.570922 1_565
Cs1 S1 3.904085 1_455
Cs1 S3 3.904085 1_545
Co0 S3 2.217074 1_545
Co0 S0 2.217074 1_454
Co0 S1 2.217074 1_455
Co0 S2 2.217074 1_544
Rh0 S1 2.331183 1_455
Rh0 S2 2.331183 1_554
Rh0 S3 2.331183 1_555
Rh0 S0 2.331183 1_454
Rh1 S3 2.331183 1_545
Rh1 S0 2.331183 1_554
Rh1 S1 2.331183 1_555
Rh1 S2 2.331183 1_544
