# generated using pymatgen
data_Ga2SnBr8
_symmetry_space_group_name_H-M   'P 1'
_cell_length_a   8.71253614
_cell_length_b   6.63382002
_cell_length_c   13.82127295
_cell_angle_alpha   84.66856624
_cell_angle_beta   90.00000000
_cell_angle_gamma   90.00000000
_symmetry_Int_Tables_number   1
_chemical_formula_structural   Ga2SnBr8
_chemical_formula_sum   'Ga4 Sn2 Br16'
_cell_volume   795.37773808
_cell_formula_units_Z   2
loop_
 _symmetry_equiv_pos_site_id
 _symmetry_equiv_pos_as_xyz
  1  'x, y, z'
loop_
 _atom_site_type_symbol
 _atom_site_label
 _atom_site_symmetry_multiplicity
 _atom_site_fract_x
 _atom_site_fract_y
 _atom_site_fract_z
 _atom_site_occupancy
  Ga  Ga0  1  0.74130777  0.61255529  0.90378707  1
  Ga  Ga1  1  0.24130777  0.38744471  0.59621293  1
  Ga  Ga2  1  0.25869223  0.38744471  0.09621293  1
  Ga  Ga3  1  0.75869223  0.61255529  0.40378707  1
  Sn  Sn0  1  0.00000000  0.00000000  0.00000000  1
  Sn  Sn1  1  0.50000000  0.00000000  0.50000000  1
  Br  Br0  1  0.03147559  0.25446013  0.67892828  1
  Br  Br1  1  0.25068663  0.29165986  0.93490768  1
  Br  Br2  1  0.52716677  0.74336864  0.33259167  1
  Br  Br3  1  0.23893118  0.74436634  0.59210831  1
  Br  Br4  1  0.74931337  0.70834014  0.06509232  1
  Br  Br5  1  0.53147559  0.74553987  0.82107172  1
  Br  Br6  1  0.73893118  0.25563366  0.90789169  1
  Br  Br7  1  0.46852441  0.25446013  0.17892828  1
  Br  Br8  1  0.76106882  0.25563366  0.40789169  1
  Br  Br9  1  0.24931337  0.29165986  0.43490768  1
  Br  Br10  1  0.47283323  0.25663136  0.66740833  1
  Br  Br11  1  0.26106882  0.74436634  0.09210831  1
  Br  Br12  1  0.75068663  0.70834014  0.56509232  1
  Br  Br13  1  0.02716677  0.25663136  0.16740833  1
  Br  Br14  1  0.97283323  0.74336864  0.83259167  1
  Br  Br15  1  0.96852441  0.74553987  0.32107172  1
loop_
_geom_bond_atom_site_label_1
_geom_bond_atom_site_label_2
_geom_bond_distance
_geom_bond_site_symmetry_2
Br0 Ga1 2.289111 1_555
Br1 Ga2 2.375353 1_556
Br1 Sn0 2.999966 1_556
Br2 Ga3 2.373109 1_555
Br2 Sn1 3.006662 1_565
Br3 Ga1 2.363248 1_555
Br3 Sn1 3.044500 1_565
Br4 Ga0 2.375353 1_554
Br4 Sn0 2.999966 1_665
Br5 Ga0 2.289111 1_555
Br6 Ga0 2.363248 1_555
Br6 Sn0 3.044500 1_656
Br7 Ga2 2.289111 1_555
Br8 Ga3 2.363248 1_555
Br8 Sn1 3.044500 1_555
Br9 Ga1 2.375353 1_555
Br9 Sn1 2.999966 1_555
Br10 Ga1 2.373109 1_555
Br10 Sn1 3.006662 1_555
Br11 Ga2 2.363248 1_555
Br11 Sn0 3.044500 1_565
Br12 Ga3 2.375353 1_555
Br12 Sn1 2.999966 1_565
Br13 Ga2 2.373109 1_555
Br13 Sn0 3.006662 1_555
Br14 Ga0 2.373109 1_555
Br14 Sn0 3.006662 1_666
Br15 Ga3 2.289111 1_555
