# generated using pymatgen
data_LiGaPbF6
_symmetry_space_group_name_H-M   'P 1'
_cell_length_a   5.17086058
_cell_length_b   5.17085928
_cell_length_c   10.46853158
_cell_angle_alpha   90.00000000
_cell_angle_beta   90.00000000
_cell_angle_gamma   120.00001436
_symmetry_Int_Tables_number   1
_chemical_formula_structural   LiGaPbF6
_chemical_formula_sum   'Li2 Ga2 Pb2 F12'
_cell_volume   242.40517286
_cell_formula_units_Z   2
loop_
 _symmetry_equiv_pos_site_id
 _symmetry_equiv_pos_as_xyz
  1  'x, y, z'
loop_
 _atom_site_type_symbol
 _atom_site_label
 _atom_site_symmetry_multiplicity
 _atom_site_fract_x
 _atom_site_fract_y
 _atom_site_fract_z
 _atom_site_occupancy
  Li  Li0  1  0.33333300  0.66666700  0.75000000  1
  Li  Li1  1  0.66666700  0.33333300  0.25000000  1
  Ga  Ga0  1  0.66666700  0.33333300  0.75000000  1
  Ga  Ga1  1  0.33333300  0.66666700  0.25000000  1
  Pb  Pb0  1  0.00000000  0.00000000  0.50000000  1
  Pb  Pb1  1  0.00000000  0.00000000  0.00000000  1
  F  F0  1  0.63507033  0.01530604  0.64713337  1
  F  F1  1  0.36492967  0.98469396  0.35286663  1
  F  F2  1  0.98469396  0.61976429  0.64713337  1
  F  F3  1  0.63507033  0.61976429  0.85286663  1
  F  F4  1  0.01530604  0.38023571  0.35286663  1
  F  F5  1  0.36492967  0.38023571  0.14713337  1
  F  F6  1  0.38023571  0.36492967  0.64713337  1
  F  F7  1  0.98469396  0.36492967  0.85286663  1
  F  F8  1  0.61976429  0.63507033  0.35286663  1
  F  F9  1  0.01530604  0.63507033  0.14713337  1
  F  F10  1  0.38023571  0.01530604  0.85286663  1
  F  F11  1  0.61976429  0.98469396  0.14713337  1
loop_
_geom_bond_atom_site_label_1
_geom_bond_atom_site_label_2
_geom_bond_distance
_geom_bond_site_symmetry_2
F0 Ga0 1.903139 1_555
F0 Li0 2.007784 1_545
F0 Pb0 2.467552 1_655
F1 Ga1 1.903139 1_555
F1 Li1 2.007784 1_565
F1 Pb0 2.467552 1_565
F2 Ga0 1.903141 1_555
F2 Li0 2.007782 1_655
F2 Pb0 2.467552 1_665
F3 Ga0 1.903144 1_555
F3 Li0 2.007787 1_555
F3 Pb1 2.467552 1_666
F4 Ga1 1.903141 1_555
F4 Li1 2.007782 1_455
F4 Pb0 2.467552 1_555
F5 Ga1 1.903144 1_555
F5 Li1 2.007787 1_555
F5 Pb1 2.467552 1_555
F6 Ga0 1.903144 1_555
F6 Li0 2.007787 1_555
F6 Pb0 2.467552 1_555
F7 Ga0 1.903140 1_555
F7 Li0 2.007784 1_655
F7 Pb1 2.467552 1_656
F8 Ga1 1.903144 1_555
F8 Li1 2.007787 1_555
F8 Pb0 2.467552 1_665
F9 Ga1 1.903140 1_555
F9 Li1 2.007784 1_455
F9 Pb1 2.467552 1_565
F10 Ga0 1.903141 1_555
F10 Li0 2.007782 1_545
F10 Pb1 2.467552 1_556
F11 Ga1 1.903141 1_555
F11 Li1 2.007782 1_565
F11 Pb1 2.467552 1_665
