# generated using pymatgen
data_DyCu5
_symmetry_space_group_name_H-M   'P 1'
_cell_length_a   4.91526861
_cell_length_b   4.91526766
_cell_length_c   4.91526936
_cell_angle_alpha   59.99998853
_cell_angle_beta   59.99999497
_cell_angle_gamma   59.99999413
_symmetry_Int_Tables_number   1
_chemical_formula_structural   DyCu5
_chemical_formula_sum   'Dy1 Cu5'
_cell_volume   83.97048846
_cell_formula_units_Z   1
loop_
 _symmetry_equiv_pos_site_id
 _symmetry_equiv_pos_as_xyz
  1  'x, y, z'
loop_
 _atom_site_type_symbol
 _atom_site_label
 _atom_site_symmetry_multiplicity
 _atom_site_fract_x
 _atom_site_fract_y
 _atom_site_fract_z
 _atom_site_occupancy
  Dy  Dy0  1  -0.00000000  0.00000000  0.00000000  1
  Cu  Cu0  1  0.25000000  0.25000000  0.25000000  1
  Cu  Cu1  1  0.62389681  0.62389681  0.62389681  1
  Cu  Cu2  1  0.62389681  0.62389681  0.12831056  1
  Cu  Cu3  1  0.12831056  0.62389681  0.62389681  1
  Cu  Cu4  1  0.62389681  0.12831056  0.62389681  1
loop_
_geom_bond_atom_site_label_1
_geom_bond_atom_site_label_2
_geom_bond_distance
_geom_bond_site_symmetry_2
Cu0 Cu3 2.879546 1_545
Cu0 Cu2 2.879547 1_545
Cu0 Cu4 2.879547 1_455
Cu0 Cu2 2.879547 1_455
Cu0 Cu3 2.879547 1_554
Cu0 Cu4 2.879547 1_554
Cu0 Cu1 2.879549 1_545
Cu0 Cu1 2.879549 1_554
Cu0 Cu1 2.879549 1_455
Cu0 Cu2 2.879551 1_555
Cu0 Cu3 2.879551 1_555
Cu0 Cu4 2.879552 1_555
Cu0 Dy0 3.009974 1_565
Cu0 Dy0 3.009975 1_655
Cu0 Dy0 3.009975 1_555
Cu0 Dy0 3.009975 1_556
Cu1 Cu4 2.435939 1_555
Cu1 Cu3 2.435940 1_555
Cu1 Cu2 2.435940 1_555
Cu1 Cu4 2.479329 1_565
Cu1 Cu3 2.479329 1_655
Cu1 Cu2 2.479329 1_556
Cu1 Dy0 2.884173 1_656
Cu1 Dy0 2.884173 1_665
Cu1 Dy0 2.884173 1_566
Cu2 Cu4 2.435939 1_555
Cu2 Cu3 2.435940 1_555
Cu2 Cu4 2.479329 1_564
Cu2 Cu3 2.479329 1_654
Cu2 Dy0 2.884171 1_665
Cu2 Dy0 2.884175 1_655
Cu2 Dy0 2.884175 1_565
Cu3 Cu4 2.435939 1_555
Cu3 Cu4 2.479329 1_465
Cu3 Dy0 2.884171 1_566
Cu3 Dy0 2.884175 1_556
Cu3 Dy0 2.884176 1_565
Cu4 Dy0 2.884172 1_656
Cu4 Dy0 2.884175 1_556
Cu4 Dy0 2.884176 1_655
