# generated using pymatgen
data_Ti2Mn(ZnRh2)3
_symmetry_space_group_name_H-M   'P 1'
_cell_length_a   4.27217560
_cell_length_b   6.05195342
_cell_length_c   12.80102810
_cell_angle_alpha   90.00000000
_cell_angle_beta   90.00032516
_cell_angle_gamma   90.00000000
_symmetry_Int_Tables_number   1
_chemical_formula_structural   Ti2Mn(ZnRh2)3
_chemical_formula_sum   'Ti4 Mn2 Zn6 Rh12'
_cell_volume   330.97068016
_cell_formula_units_Z   2
loop_
 _symmetry_equiv_pos_site_id
 _symmetry_equiv_pos_as_xyz
  1  'x, y, z'
loop_
 _atom_site_type_symbol
 _atom_site_label
 _atom_site_symmetry_multiplicity
 _atom_site_fract_x
 _atom_site_fract_y
 _atom_site_fract_z
 _atom_site_occupancy
  Ti  Ti0  1  0.99998247  0.50000100  0.99673943  1
  Ti  Ti1  1  0.49990722  0.00000000  0.16564447  1
  Ti  Ti2  1  0.99991078  0.50000100  0.33435364  1
  Ti  Ti3  1  0.49998263  0.00000000  0.50325827  1
  Mn  Mn0  1  0.00014346  0.50000100  0.66834925  1
  Mn  Mn1  1  0.50013477  0.00000000  0.83164987  1
  Zn  Zn0  1  0.99998790  0.00000000  0.99818180  1
  Zn  Zn1  1  0.49985785  0.50000100  0.16576929  1
  Zn  Zn2  1  0.99986253  0.00000000  0.33422166  1
  Zn  Zn3  1  0.49998700  0.50000100  0.50181965  1
  Zn  Zn4  1  0.00012330  0.00000000  0.66879335  1
  Zn  Zn5  1  0.50011408  0.50000100  0.83120836  1
  Rh  Rh0  1  0.49997344  0.24938111  0.00076630  1
  Rh  Rh1  1  0.49997344  0.75061789  0.00076630  1
  Rh  Rh2  1  0.99990558  0.24960353  0.16686540  1
  Rh  Rh3  1  0.99990558  0.75039647  0.16686540  1
  Rh  Rh4  1  0.49990880  0.25039122  0.33313773  1
  Rh  Rh5  1  0.49990880  0.74960778  0.33313773  1
  Rh  Rh6  1  0.99997485  0.25062514  0.49923197  1
  Rh  Rh7  1  0.99997485  0.74937486  0.49923197  1
  Rh  Rh8  1  0.50011836  0.24894715  0.66473326  1
  Rh  Rh9  1  0.50011836  0.75105185  0.66473326  1
  Rh  Rh10  1  0.00012048  0.25104524  0.83527082  1
  Rh  Rh11  1  0.00012048  0.74895476  0.83527082  1
loop_
_geom_bond_atom_site_label_1
_geom_bond_atom_site_label_2
_geom_bond_distance
_geom_bond_site_symmetry_2
Mn0 Rh11 2.614534 1_555
Mn0 Rh10 2.614541 1_555
Mn0 Rh9 2.621636 1_555
Mn0 Rh8 2.621646 1_555
Mn0 Rh9 2.621810 1_455
Mn0 Rh8 2.621821 1_455
Mn0 Rh7 2.639008 1_455
Mn0 Rh6 2.639015 1_455
Mn1 Rh8 2.614460 1_555
Mn1 Rh9 2.614463 1_545
Mn1 Rh10 2.621655 1_655
Mn1 Rh11 2.621655 1_645
Mn1 Rh10 2.621755 1_555
Mn1 Rh11 2.621755 1_545
Mn1 Rh0 2.639025 1_556
Mn1 Rh1 2.639028 1_546
Rh0 Ti1 2.594704 1_555
Rh0 Zn1 2.600370 1_555
Rh0 Zn0 2.615629 1_454
Rh0 Zn0 2.615730 1_554
Rh0 Ti0 2.620279 1_454
Rh0 Ti0 2.620342 1_554
Rh0 Zn5 2.647950 1_554
Rh1 Ti1 2.594707 1_565
Rh1 Zn1 2.600359 1_555
Rh1 Zn0 2.615632 1_464
Rh1 Zn0 2.615734 1_564
Rh1 Ti0 2.620269 1_454
Rh1 Ti0 2.620332 1_554
Rh1 Zn5 2.647940 1_554
Rh2 Ti1 2.616288 1_555
Rh2 Ti1 2.616300 1_655
Rh2 Zn1 2.618896 1_655
Rh2 Zn1 2.619228 1_555
Rh2 Zn2 2.621348 1_555
Rh2 Ti2 2.625499 1_555
Rh2 Zn0 2.635253 1_554
Rh2 Ti0 2.653145 1_554
Rh3 Ti1 2.616288 1_565
Rh3 Ti1 2.616300 1_665
Rh3 Zn1 2.618889 1_655
Rh3 Zn1 2.619221 1_555
Rh3 Zn2 2.621348 1_565
Rh3 Ti2 2.625492 1_555
Rh3 Zn0 2.635253 1_564
Rh3 Ti0 2.653138 1_554
Rh4 Ti2 2.616309 1_455
Rh4 Ti2 2.616322 1_555
Rh4 Zn2 2.618878 1_555
Rh4 Zn2 2.619201 1_455
Rh4 Zn1 2.621497 1_555
Rh4 Ti1 2.625530 1_555
Rh4 Zn3 2.635257 1_555
Rh4 Ti3 2.653066 1_555
Rh5 Ti2 2.616298 1_455
Rh5 Ti2 2.616312 1_555
Rh5 Zn2 2.618882 1_565
Rh5 Zn2 2.619204 1_465
Rh5 Zn1 2.621487 1_555
Rh5 Ti1 2.625534 1_565
Rh5 Zn3 2.635246 1_555
Rh5 Ti3 2.653069 1_565
Rh6 Ti2 2.594687 1_555
Rh6 Zn2 2.600464 1_555
Rh6 Zn3 2.615620 1_555
Rh6 Zn3 2.615704 1_655
Rh6 Ti3 2.620302 1_555
Rh6 Ti3 2.620356 1_655
Rh6 Zn4 2.648004 1_655
Rh7 Ti2 2.594680 1_555
Rh7 Zn2 2.600464 1_565
Rh7 Zn3 2.615613 1_555
Rh7 Zn3 2.615697 1_655
Rh7 Ti3 2.620302 1_565
Rh7 Ti3 2.620356 1_665
Rh7 Zn4 2.648004 1_665
Rh8 Ti3 2.557845 1_555
Rh8 Zn3 2.580237 1_555
Rh8 Zn4 2.614455 1_555
Rh8 Zn4 2.614489 1_655
Rh8 Zn5 2.617223 1_555
Rh9 Ti3 2.557849 1_565
Rh9 Zn3 2.580227 1_555
Rh9 Zn4 2.614459 1_565
Rh9 Zn4 2.614493 1_665
Rh9 Zn5 2.617213 1_555
Rh10 Ti0 2.557810 1_455
Rh10 Zn0 2.580179 1_455
Rh10 Zn5 2.614481 1_555
Rh10 Zn5 2.614525 1_455
Rh10 Zn4 2.617218 1_555
Rh11 Ti0 2.557803 1_455
Rh11 Zn0 2.580179 1_465
Rh11 Zn5 2.614474 1_555
Rh11 Zn5 2.614518 1_455
Rh11 Zn4 2.617218 1_565
