# generated using pymatgen
data_Hf16Ni4PtW3
_symmetry_space_group_name_H-M   'P 1'
_cell_length_a   8.64413964
_cell_length_b   8.64413893
_cell_length_c   8.64413948
_cell_angle_alpha   59.95979312
_cell_angle_beta   59.95979308
_cell_angle_gamma   59.95979174
_symmetry_Int_Tables_number   1
_chemical_formula_structural   Hf16Ni4PtW3
_chemical_formula_sum   'Hf16 Ni4 Pt1 W3'
_cell_volume   456.30381107
_cell_formula_units_Z   1
loop_
 _symmetry_equiv_pos_site_id
 _symmetry_equiv_pos_as_xyz
  1  'x, y, z'
loop_
 _atom_site_type_symbol
 _atom_site_label
 _atom_site_symmetry_multiplicity
 _atom_site_fract_x
 _atom_site_fract_y
 _atom_site_fract_z
 _atom_site_occupancy
  Hf  Hf0  1  0.69471969  0.10134921  0.10134921  1
  Hf  Hf1  1  0.10134921  0.69471969  0.10134921  1
  Hf  Hf2  1  0.10134921  0.10134921  0.69471969  1
  Hf  Hf3  1  0.10319234  0.10319234  0.10319234  1
  Hf  Hf4  1  0.31524365  0.31524365  0.68999365  1
  Hf  Hf5  1  0.68553162  0.68553162  0.31458085  1
  Hf  Hf6  1  0.31524365  0.68999365  0.31524365  1
  Hf  Hf7  1  0.68553162  0.31458085  0.68553162  1
  Hf  Hf8  1  0.68999365  0.31524365  0.31524365  1
  Hf  Hf9  1  0.31458085  0.68553162  0.68553162  1
  Hf  Hf10  1  0.95390346  0.95390346  0.54514308  1
  Hf  Hf11  1  0.54804906  0.54804906  0.95049188  1
  Hf  Hf12  1  0.95390346  0.54514308  0.95390346  1
  Hf  Hf13  1  0.54804906  0.95049188  0.54804906  1
  Hf  Hf14  1  0.54514308  0.95390346  0.95390346  1
  Hf  Hf15  1  0.95049188  0.54804906  0.54804906  1
  Ni  Ni0  1  0.32602557  0.89006714  0.89006714  1
  Ni  Ni1  1  0.89006714  0.32602557  0.89006714  1
  Ni  Ni2  1  0.89006714  0.89006714  0.32602557  1
  Ni  Ni3  1  0.89117996  0.89117996  0.89117996  1
  Pt  Pt0  1  0.33263060  0.33263060  0.33263060  1
  W  W0  1  0.00008423  0.33183243  0.33183243  1
  W  W1  1  0.33183243  0.00008423  0.33183243  1
  W  W2  1  0.33183243  0.33183243  0.00008423  1
loop_
_geom_bond_atom_site_label_1
_geom_bond_atom_site_label_2
_geom_bond_distance
_geom_bond_site_symmetry_2
Hf0 Ni1 2.569683 1_554
Hf0 Ni2 2.569683 1_545
Hf0 Ni3 2.571301 1_544
Hf0 Pt0 3.043354 1_555
Hf0 W2 3.053075 1_555
Hf0 W1 3.053075 1_555
Hf1 Ni2 2.569683 1_455
Hf1 Ni0 2.569683 1_554
Hf1 Ni3 2.571301 1_454
Hf1 Pt0 3.043354 1_555
Hf1 W2 3.053075 1_555
Hf1 W0 3.053075 1_555
Hf2 Ni1 2.569682 1_455
Hf2 Ni0 2.569683 1_545
Hf2 Ni3 2.571301 1_445
Hf2 Pt0 3.043354 1_555
Hf2 W1 3.053075 1_555
Hf2 W0 3.053075 1_555
Hf3 Ni0 2.605871 1_544
Hf3 Ni2 2.605871 1_445
Hf3 Ni1 2.605871 1_454
Hf3 W0 2.998371 1_555
Hf3 W2 2.998371 1_555
Hf3 W1 2.998371 1_555
Hf4 W2 2.831304 1_556
Hf4 Pt0 2.946290 1_555
Hf5 W0 2.896441 1_655
Hf5 W1 2.896441 1_565
Hf6 W1 2.831303 1_565
Hf6 Pt0 2.946290 1_555
Hf7 W0 2.896441 1_655
Hf7 W2 2.896441 1_556
Hf8 W0 2.831304 1_655
Hf8 Pt0 2.946290 1_555
Hf9 W2 2.896441 1_556
Hf9 W1 2.896441 1_565
Hf10 Ni3 2.565533 1_555
Hf10 Ni2 2.567935 1_555
Hf10 W0 2.961316 1_665
Hf10 W1 2.961316 1_665
Hf11 Ni0 2.544288 1_555
Hf11 Ni1 2.544289 1_555
Hf11 Pt0 3.000179 1_556
Hf11 W2 3.010515 1_556
Hf12 Ni3 2.565533 1_555
Hf12 Ni1 2.567934 1_555
Hf12 W0 2.961316 1_656
Hf12 W2 2.961316 1_656
Hf13 Ni0 2.544289 1_555
Hf13 Ni2 2.544289 1_555
Hf13 Pt0 3.000179 1_565
Hf13 W1 3.010515 1_565
Hf14 Ni3 2.565533 1_555
Hf14 Ni0 2.567935 1_555
Hf14 W2 2.961316 1_566
Hf14 W1 2.961316 1_566
Hf15 Ni2 2.544288 1_555
Hf15 Ni1 2.544289 1_555
Hf15 Pt0 3.000179 1_655
Hf15 W0 3.010515 1_655
Pt0 W1 2.881501 1_555
Pt0 W2 2.881502 1_555
Pt0 W0 2.881502 1_555
W0 W1 2.865935 1_555
W0 W2 2.865935 1_555
W1 W2 2.865935 1_555
