# generated using pymatgen
data_B5H6Br
_symmetry_space_group_name_H-M   'P 1'
_cell_length_a   7.46529606
_cell_length_b   11.99375341
_cell_length_c   13.48650095
_cell_angle_alpha   68.47205478
_cell_angle_beta   90.00000000
_cell_angle_gamma   90.00000000
_symmetry_Int_Tables_number   1
_chemical_formula_structural   B5H6Br
_chemical_formula_sum   'B40 H48 Br8'
_cell_volume   1123.30021644
_cell_formula_units_Z   8
loop_
 _symmetry_equiv_pos_site_id
 _symmetry_equiv_pos_as_xyz
  1  'x, y, z'
loop_
 _atom_site_type_symbol
 _atom_site_label
 _atom_site_symmetry_multiplicity
 _atom_site_fract_x
 _atom_site_fract_y
 _atom_site_fract_z
 _atom_site_occupancy
  B  B0  1  0.92143354  0.31386165  0.20837184  1
  B  B1  1  0.42143354  0.18613835  0.79162816  1
  B  B2  1  0.07856646  0.68613835  0.79162816  1
  B  B3  1  0.57856646  0.81386165  0.20837184  1
  B  B4  1  0.72187752  0.34751971  0.26414861  1
  B  B5  1  0.22187752  0.15248029  0.73585139  1
  B  B6  1  0.27812248  0.65248029  0.73585139  1
  B  B7  1  0.77812248  0.84751971  0.26414861  1
  B  B8  1  0.79640220  0.39505795  0.36748414  1
  B  B9  1  0.29640220  0.10494205  0.63251586  1
  B  B10  1  0.20359780  0.60494205  0.63251586  1
  B  B11  1  0.70359780  0.89505795  0.36748414  1
  B  B12  1  0.98603201  0.51575007  0.33297546  1
  B  B13  1  0.48603201  0.98424993  0.66702454  1
  B  B14  1  0.01396799  0.48424993  0.66702454  1
  B  B15  1  0.51396799  0.01575007  0.33297546  1
  B  B16  1  0.06844445  0.57001980  0.20029175  1
  B  B17  1  0.56844445  0.92998020  0.79970825  1
  B  B18  1  0.93155555  0.42998020  0.79970825  1
  B  B19  1  0.43155555  0.07001980  0.20029175  1
  B  B20  1  0.11391741  0.43895496  0.17230435  1
  B  B21  1  0.61391741  0.06104504  0.82769565  1
  B  B22  1  0.88608259  0.56104504  0.82769565  1
  B  B23  1  0.38608259  0.93895496  0.17230435  1
  B  B24  1  0.39577553  0.81207080  0.29017484  1
  B  B25  1  0.38867895  0.23336784  0.65165727  1
  B  B26  1  0.11132105  0.73336784  0.65165727  1
  B  B27  1  0.61132105  0.76663216  0.34834273  1
  B  B28  1  0.02398626  0.36162536  0.39131618  1
  B  B29  1  0.52398626  0.13837464  0.60868382  1
  B  B30  1  0.97601374  0.63837464  0.60868382  1
  B  B31  1  0.47601374  0.86162536  0.39131618  1
  B  B32  1  0.17749673  0.45161910  0.29475457  1
  B  B33  1  0.67749673  0.04838090  0.70524543  1
  B  B34  1  0.82250327  0.54838090  0.70524543  1
  B  B35  1  0.32250327  0.95161910  0.29475457  1
  B  B36  1  0.10422447  0.31207080  0.29017484  1
  B  B37  1  0.60422447  0.18792920  0.70982516  1
  B  B38  1  0.89577553  0.68792920  0.70982516  1
  B  B39  1  0.88867895  0.26663216  0.34834273  1
  H  H0  1  0.79897196  0.39801294  0.16766802  1
  H  H1  1  0.29897196  0.10198706  0.83233198  1
  H  H2  1  0.20102804  0.60198706  0.83233198  1
  H  H3  1  0.70102804  0.89801294  0.16766802  1
  H  H4  1  0.57536049  0.31975129  0.24915844  1
  H  H5  1  0.07536049  0.18024871  0.75084156  1
  H  H6  1  0.42463951  0.68024871  0.75084156  1
  H  H7  1  0.92463951  0.81975129  0.24915844  1
  H  H8  1  0.71230167  0.45291628  0.27622285  1
  H  H9  1  0.21230167  0.04708372  0.72377715  1
  H  H10  1  0.28769833  0.54708372  0.72377715  1
  H  H11  1  0.78769833  0.95291628  0.27622285  1
  H  H12  1  0.69299828  0.39396697  0.43437208  1
  H  H13  1  0.19299828  0.10603303  0.56562792  1
  H  H14  1  0.30700172  0.60603303  0.56562792  1
  H  H15  1  0.80700172  0.89396697  0.43437208  1
  H  H16  1  0.98886203  0.58047397  0.38134119  1
  H  H17  1  0.48886203  0.91952603  0.61865881  1
  H  H18  1  0.01113797  0.41952603  0.61865881  1
  H  H19  1  0.51113797  0.08047397  0.38134119  1
  H  H20  1  0.90830538  0.57870449  0.24123261  1
  H  H21  1  0.40830538  0.92129551  0.75876739  1
  H  H22  1  0.09169462  0.42129551  0.75876739  1
  H  H23  1  0.28734668  0.73725705  0.29734703  1
  H  H24  1  0.11791886  0.66768727  0.14869253  1
  H  H25  1  0.61791886  0.83231273  0.85130747  1
  H  H26  1  0.88208114  0.33231273  0.85130747  1
  H  H27  1  0.38208114  0.16768727  0.14869253  1
  H  H28  1  0.99464430  0.52487997  0.13152936  1
  H  H29  1  0.49464430  0.97512003  0.86847064  1
  H  H30  1  0.00535570  0.47512003  0.86847064  1
  H  H31  1  0.50535570  0.02487997  0.13152936  1
  H  H32  1  0.86413293  0.16545004  0.40422764  1
  H  H33  1  0.36413293  0.33454996  0.59577236  1
  H  H34  1  0.13586707  0.83454996  0.59577236  1
  H  H35  1  0.63586707  0.66545004  0.40422764  1
  H  H36  1  0.06653522  0.32741212  0.48232631  1
  H  H37  1  0.56653522  0.17258788  0.51767369  1
  H  H38  1  0.93346478  0.67258788  0.51767369  1
  H  H39  1  0.43346478  0.82741212  0.48232631  1
  H  H40  1  0.32768451  0.46273646  0.31792771  1
  H  H41  1  0.82768451  0.03726354  0.68207229  1
  H  H42  1  0.67231549  0.53726354  0.68207229  1
  H  H43  1  0.17231549  0.96273646  0.31792771  1
  H  H44  1  0.21265332  0.23725705  0.29734703  1
  H  H45  1  0.71265332  0.26274295  0.70265297  1
  H  H46  1  0.78734668  0.76274295  0.70265297  1
  H  H47  1  0.59169462  0.07870449  0.24123261  1
  Br  Br0  1  0.91231587  0.21351702  0.12299876  1
  Br  Br1  1  0.41231587  0.28648298  0.87700124  1
  Br  Br2  1  0.08768413  0.78648298  0.87700124  1
  Br  Br3  1  0.58768413  0.71351702  0.12299876  1
  Br  Br4  1  0.27603493  0.44845860  0.05615368  1
  Br  Br5  1  0.77603493  0.05154140  0.94384632  1
  Br  Br6  1  0.72396507  0.55154140  0.94384632  1
  Br  Br7  1  0.22396507  0.94845860  0.05615368  1
loop_
_geom_bond_atom_site_label_1
_geom_bond_atom_site_label_2
_geom_bond_distance
_geom_bond_site_symmetry_2
B0 H0 1.322563 1_555
B0 Br0 1.948264 1_555
B1 H1 1.322563 1_555
B1 Br1 1.948264 1_555
B2 H2 1.322563 1_555
B2 Br2 1.948264 1_555
B3 H3 1.322563 1_555
B3 Br3 1.948264 1_555
B4 H4 1.182197 1_555
B4 H8 1.334410 1_555
B4 H0 1.346386 1_555
B5 H5 1.182197 1_555
B5 H9 1.334410 1_555
B5 H1 1.346386 1_555
B6 H6 1.182197 1_555
B6 H10 1.334410 1_555
B6 H2 1.346386 1_555
B7 H7 1.182197 1_555
B7 H11 1.334410 1_555
B7 H3 1.346386 1_555
B8 H12 1.183705 1_555
B8 H8 1.328065 1_555
B9 H13 1.183705 1_555
B9 H9 1.328065 1_555
B10 H14 1.183705 1_555
B10 H10 1.328065 1_555
B11 H15 1.183705 1_555
B11 H11 1.328065 1_555
B12 H16 1.183282 1_555
B12 H20 1.323652 1_555
B13 H17 1.183282 1_555
B13 H21 1.323652 1_555
B14 H18 1.183282 1_555
B14 H22 1.323652 1_555
B15 H19 1.183282 1_555
B15 H47 1.323652 1_555
B16 H24 1.180930 1_555
B16 H20 1.336830 1_455
B16 H28 1.350971 1_455
B17 H25 1.180930 1_555
B17 H21 1.336830 1_555
B17 H29 1.350971 1_555
B18 H26 1.180930 1_555
B18 H22 1.336830 1_655
B18 H30 1.350971 1_655
B19 H27 1.180930 1_555
B19 H47 1.336830 1_555
B19 H31 1.350971 1_555
B20 H28 1.319610 1_455
B20 Br4 1.949483 1_555
B21 H29 1.319610 1_545
B21 Br5 1.949483 1_555
B22 H30 1.319610 1_655
B22 Br6 1.949483 1_555
B23 H31 1.319610 1_565
B23 Br7 1.949483 1_555
B24 H23 1.185755 1_555
B25 H33 1.184514 1_555
B26 H34 1.184514 1_555
B27 H35 1.184514 1_555
B28 H36 1.185819 1_555
B29 H37 1.185819 1_555
B30 H38 1.185819 1_555
B31 H39 1.185819 1_555
B32 H40 1.184532 1_555
B33 H41 1.184532 1_555
B34 H42 1.184532 1_555
B35 H43 1.184532 1_555
B36 H44 1.185755 1_555
B37 H45 1.185755 1_555
B38 H46 1.185755 1_555
B39 H32 1.184514 1_555
