# generated using pymatgen
data_Ta4Nb2Zn6N
_symmetry_space_group_name_H-M   'P 1'
_cell_length_a   8.12215376
_cell_length_b   8.11114666
_cell_length_c   8.11512259
_cell_angle_alpha   60.01621094
_cell_angle_beta   59.95594663
_cell_angle_gamma   60.04482763
_symmetry_Int_Tables_number   1
_chemical_formula_structural   Ta4Nb2Zn6N
_chemical_formula_sum   'Ta8 Nb4 Zn12 N2'
_cell_volume   378.08438967
_cell_formula_units_Z   2
loop_
 _symmetry_equiv_pos_site_id
 _symmetry_equiv_pos_as_xyz
  1  'x, y, z'
loop_
 _atom_site_type_symbol
 _atom_site_label
 _atom_site_symmetry_multiplicity
 _atom_site_fract_x
 _atom_site_fract_y
 _atom_site_fract_z
 _atom_site_occupancy
  Ta  Ta0  1  0.18988927  0.81004225  0.80986360  1
  Ta  Ta1  1  0.05920476  0.44079341  0.05920842  1
  Ta  Ta2  1  0.81167642  0.80851566  0.18989927  1
  Ta  Ta3  1  0.05914750  0.43999054  0.44154359  1
  Ta  Ta4  1  0.18988927  0.19020588  0.80986360  1
  Ta  Ta5  1  0.81167642  0.18990765  0.18989927  1
  Ta  Ta6  1  0.81051366  0.19112061  0.80724511  1
  Ta  Ta7  1  0.05914750  0.05931936  0.44154359  1
  Nb  Nb0  1  0.19118392  0.80865827  0.19150054  1
  Nb  Nb1  1  0.44096149  0.05913070  0.44077811  1
  Nb  Nb2  1  0.44156002  0.05932304  0.05917072  1
  Nb  Nb3  1  0.44156002  0.43994622  0.05917072  1
  Zn  Zn0  1  0.83310520  0.50121405  0.83277750  1
  Zn  Zn1  1  0.41690714  0.41781668  0.74745749  1
  Zn  Zn2  1  0.74876999  0.41714283  0.41694135  1
  Zn  Zn3  1  0.41734218  0.41742159  0.41801516  1
  Zn  Zn4  1  0.83256664  0.83275155  0.50193225  1
  Zn  Zn5  1  0.41734218  0.74721907  0.41801516  1
  Zn  Zn6  1  0.83310520  0.83290525  0.83277750  1
  Zn  Zn7  1  0.50230404  0.83276675  0.83216347  1
  Zn  Zn8  1  0.62525169  0.12483111  0.62491609  1
  Zn  Zn9  1  0.62562162  0.62477186  0.12483567  1
  Zn  Zn10  1  0.12479762  0.62490506  0.62539227  1
  Zn  Zn11  1  0.62525169  0.62500111  0.62491609  1
  N  N0  1  0.99796248  0.00203117  0.99797518  1
  N  N1  1  0.24326306  0.25226933  0.25219927  1
loop_
_geom_bond_atom_site_label_1
_geom_bond_atom_site_label_2
_geom_bond_distance
_geom_bond_site_symmetry_2
Ta0 Zn6 2.724842 1_455
Ta0 Zn7 2.732354 1_555
Ta0 Zn5 2.929405 1_555
Ta0 Zn1 2.931694 1_555
Ta0 Zn10 2.933908 1_555
Ta0 Zn11 2.940468 1_555
Ta1 Zn2 2.723757 1_455
Ta1 Zn1 2.728840 1_554
Ta1 Zn0 2.927308 1_454
Ta1 Zn6 2.927316 1_454
Ta1 Zn10 2.927351 1_554
Ta1 Zn9 2.929267 1_455
Ta2 Zn6 2.724812 1_554
Ta2 Zn4 2.727721 1_555
Ta2 Zn2 2.926463 1_555
Ta2 Zn11 2.935464 1_555
Ta2 Zn9 2.935686 1_555
Ta2 Zn5 2.943748 1_555
Ta3 Zn2 2.727053 1_455
Ta3 Zn3 2.735125 1_555
Ta3 Zn0 2.919935 1_455
Ta3 Zn4 2.928895 1_455
Ta3 Zn11 2.930101 1_455
Ta3 Zn10 2.931173 1_555
Ta4 Zn0 2.724845 1_455
Ta4 Zn7 2.732355 1_545
Ta4 Zn3 2.929395 1_555
Ta4 Zn1 2.931673 1_555
Ta4 Zn10 2.933902 1_555
Ta4 Zn8 2.940467 1_555
Ta5 Zn0 2.724823 1_554
Ta5 Zn4 2.727707 1_545
Ta5 Zn2 2.926449 1_555
Ta5 Zn8 2.935465 1_555
Ta5 Zn9 2.935700 1_555
Ta5 Zn3 2.943745 1_555
Ta6 Zn6 2.724458 1_545
Ta6 Zn0 2.724474 1_555
Ta6 Zn2 2.917734 1_555
Ta6 Zn8 2.928332 1_555
Ta6 Zn11 2.928332 1_555
Ta6 Zn1 2.937322 1_555
Ta7 Zn2 2.727035 1_455
Ta7 Zn5 2.735136 1_545
Ta7 Zn6 2.919932 1_445
Ta7 Zn4 2.928888 1_445
Ta7 Zn8 2.930103 1_455
Ta7 Zn10 2.931180 1_545
Nb0 Zn4 2.728495 1_455
Nb0 Zn7 2.733522 1_554
Nb0 Zn5 2.924512 1_555
Nb0 Zn3 2.924524 1_555
Nb0 Zn10 2.926816 1_555
Nb0 Zn9 2.933828 1_555
Nb1 Zn3 2.731078 1_555
Nb1 Zn5 2.731102 1_545
Nb1 Zn7 2.923955 1_545
Nb1 Zn4 2.927791 1_545
Nb1 Zn8 2.930812 1_555
Nb1 Zn11 2.930818 1_545
Nb2 Zn1 2.732765 1_554
Nb2 Zn5 2.735468 1_545
Nb2 Zn6 2.924230 1_544
Nb2 Zn7 2.929519 1_544
Nb2 Zn8 2.929583 1_554
Nb2 Zn9 2.932686 1_545
Nb3 Zn1 2.732773 1_554
Nb3 Zn3 2.735461 1_555
Nb3 Zn0 2.924236 1_554
Nb3 Zn7 2.929526 1_554
Nb3 Zn11 2.929583 1_554
Nb3 Zn9 2.932693 1_555
Zn0 Zn10 2.478996 1_655
Zn0 Zn9 2.479866 1_556
Zn0 Zn11 2.483845 1_555
Zn0 Zn4 2.687666 1_555
Zn0 Zn7 2.689874 1_555
Zn0 Zn6 2.690396 1_555
Zn1 Zn10 2.478336 1_555
Zn1 Zn8 2.482142 1_555
Zn1 Zn11 2.482155 1_555
Zn1 Zn3 2.673299 1_555
Zn1 Zn5 2.673300 1_555
Zn1 Zn2 2.687038 1_555
Zn2 Zn8 2.481298 1_555
Zn2 Zn9 2.481453 1_555
Zn2 Zn3 2.686429 1_555
Zn2 Zn5 2.686433 1_555
Zn3 Zn8 2.481360 1_555
Zn3 Zn9 2.482451 1_555
Zn3 Zn5 2.675036 1_555
Zn4 Zn8 2.478053 1_565
Zn4 Zn7 2.679371 1_555
Zn4 Zn6 2.687666 1_555
Zn5 Zn9 2.482437 1_555
Zn6 Zn9 2.479871 1_556
Zn6 Zn8 2.483841 1_565
Zn6 Zn7 2.689878 1_555
Zn7 Zn8 2.477152 1_565
Zn7 Zn9 2.485959 1_556
Zn10 Zn5 2.478616 1_555
Zn10 Zn3 2.478625 1_555
Zn10 Zn6 2.479005 1_455
Zn10 Zn4 2.485271 1_455
Zn11 Zn7 2.477159 1_555
Zn11 Zn4 2.478066 1_555
Zn11 Zn2 2.481318 1_555
Zn11 Zn5 2.481364 1_555
N0 Ta6 2.172776 1_555
N0 Ta5 2.178836 1_556
N0 Ta2 2.178842 1_546
N0 Ta0 2.180456 1_645
N0 Ta4 2.180461 1_655
N0 Nb0 2.221976 1_646
N1 Ta7 2.163194 1_555
N1 Ta3 2.163194 1_555
N1 Ta1 2.166520 1_555
N1 Nb3 2.214471 1_555
N1 Nb2 2.214477 1_555
N1 Nb1 2.219633 1_555
