# generated using pymatgen
data_Hf6BeSi6Tc5
_symmetry_space_group_name_H-M   'P 1'
_cell_length_a   7.68526527
_cell_length_b   7.68464478
_cell_length_c   7.68464543
_cell_angle_alpha   127.01557407
_cell_angle_beta   127.43909867
_cell_angle_gamma   77.87870480
_symmetry_Int_Tables_number   1
_chemical_formula_structural   Hf6BeSi6Tc5
_chemical_formula_sum   'Hf6 Be1 Si6 Tc5'
_cell_volume   278.88395452
_cell_formula_units_Z   1
loop_
 _symmetry_equiv_pos_site_id
 _symmetry_equiv_pos_as_xyz
  1  'x, y, z'
loop_
 _atom_site_type_symbol
 _atom_site_label
 _atom_site_symmetry_multiplicity
 _atom_site_fract_x
 _atom_site_fract_y
 _atom_site_fract_z
 _atom_site_occupancy
  Hf  Hf0  1  0.55167931  0.09371023  0.04511873  1
  Hf  Hf1  1  0.44832069  0.49343942  0.54203092  1
  Hf  Hf2  1  0.95133308  0.49343785  0.04510191  1
  Hf  Hf3  1  0.04866692  0.09376983  0.54210677  1
  Hf  Hf4  1  0.75060156  0.90340914  0.65401472  1
  Hf  Hf5  1  0.24939844  0.90341216  0.15280658  1
  Be  Be0  1  0.00000000  0.26609810  0.26609810  1
  Si  Si0  1  0.33397462  0.83054766  0.49633932  1
  Si  Si1  1  0.66602538  0.16236470  0.49657204  1
  Si  Si2  1  0.83021727  0.82122408  0.99076090  1
  Si  Si3  1  0.16978273  0.16054363  0.99100481  1
  Si  Si4  1  0.74766181  0.49608040  0.24374665  1
  Si  Si5  1  0.25233819  0.49608484  0.74841859  1
  Tc  Tc0  1  0.12700718  0.74378497  0.61663232  1
  Tc  Tc1  1  0.87299282  0.48962414  0.61677779  1
  Tc  Tc2  1  0.62668715  0.75282041  0.12608495  1
  Tc  Tc3  1  0.37331285  0.49939581  0.12613326  1
  Tc  Tc4  1  0.50000000  0.24425164  0.74425164  1
loop_
_geom_bond_atom_site_label_1
_geom_bond_atom_site_label_2
_geom_bond_distance
_geom_bond_site_symmetry_2
Hf0 Si3 2.681600 1_554
Hf0 Si0 2.692041 1_544
Hf0 Si2 2.700563 1_544
Hf0 Si1 2.714865 1_555
Hf0 Si4 2.763542 1_555
Hf0 Tc2 2.911028 1_545
Hf0 Tc1 2.919881 1_555
Hf0 Tc0 2.946767 1_544
Hf0 Tc4 2.958508 1_554
Hf0 Tc3 2.981898 1_555
Hf1 Si2 2.681606 1_555
Hf1 Si1 2.692041 1_555
Hf1 Si3 2.700571 1_554
Hf1 Si0 2.714873 1_555
Hf1 Si5 2.763542 1_555
Hf1 Tc3 2.911018 1_555
Hf1 Tc0 2.919883 1_555
Hf1 Tc1 2.946766 1_555
Hf1 Tc4 2.958508 1_555
Hf1 Tc2 2.981911 1_556
Hf2 Si2 2.682354 1_554
Hf2 Si1 2.690992 1_554
Hf2 Si3 2.701852 1_654
Hf2 Si0 2.714421 1_655
Hf2 Si4 2.763181 1_555
Hf2 Tc3 2.912011 1_655
Hf2 Tc0 2.919115 1_655
Hf2 Tc1 2.946059 1_554
Hf2 Tc4 2.958385 1_554
Hf2 Tc2 2.981785 1_555
Hf3 Si3 2.682329 1_555
Hf3 Si0 2.690994 1_545
Hf3 Si2 2.701864 1_444
Hf3 Si1 2.714411 1_455
Hf3 Si5 2.763181 1_555
Hf3 Tc2 2.912015 1_445
Hf3 Tc1 2.919105 1_455
Hf3 Tc0 2.946062 1_545
Hf3 Tc4 2.958389 1_555
Hf3 Tc3 2.981772 1_556
Hf4 Si1 2.691833 1_565
Hf4 Si0 2.693093 1_555
Hf4 Si2 2.711139 1_555
Hf4 Si3 2.712523 1_665
Hf4 Si4 2.792665 1_555
Hf4 Tc4 2.892907 1_565
Hf4 Tc3 2.969431 1_555
Hf4 Tc2 2.969435 1_555
Hf4 Tc0 3.008526 1_655
Hf4 Tc1 3.008867 1_555
Hf5 Si0 2.691829 1_555
Hf5 Si1 2.693096 1_565
Hf5 Si3 2.711152 1_564
Hf5 Si2 2.712521 1_454
Hf5 Si5 2.792658 1_554
Hf5 Tc4 2.892913 1_565
Hf5 Tc2 2.969421 1_555
Hf5 Tc3 2.969444 1_555
Hf5 Tc1 3.008525 1_454
Hf5 Tc0 3.008855 1_554
Be0 Si4 2.331297 1_455
Be0 Si5 2.331297 1_555
Be0 Si2 2.770199 1_444
Be0 Si3 2.770213 1_554
Be0 Tc0 2.843573 1_555
Be0 Tc1 2.843573 1_455
Be0 Hf2 2.932885 1_455
Be0 Hf3 2.932893 1_555
Be0 Hf1 2.933310 1_555
Be0 Hf0 2.933310 1_455
Be0 Hf4 3.010544 1_444
Be0 Hf5 3.010550 1_545
Si0 Tc3 2.581937 1_555
Si0 Tc0 2.608505 1_555
Si0 Tc4 2.611524 1_565
Si1 Tc2 2.581930 1_545
Si1 Tc1 2.608493 1_555
Si1 Tc4 2.611531 1_555
Si2 Tc2 2.604921 1_556
Si2 Tc1 2.615342 1_555
Si3 Tc3 2.604898 1_556
Si3 Tc0 2.615335 1_545
Si4 Tc4 2.412781 1_554
Si4 Tc3 2.435150 1_555
Si4 Tc2 2.435165 1_555
Si4 Tc0 2.437159 1_655
Si4 Tc1 2.437578 1_555
Si5 Tc4 2.412781 1_555
Si5 Tc2 2.435150 1_556
Si5 Tc3 2.435175 1_556
Si5 Tc1 2.437159 1_455
Si5 Tc0 2.437573 1_555
