# generated using pymatgen
data_Nd5Ir3
_symmetry_space_group_name_H-M   'P 1'
_cell_length_a   6.56010523
_cell_length_b   11.23401189
_cell_length_c   11.23401189
_cell_angle_alpha   90.00000000
_cell_angle_beta   90.00000000
_cell_angle_gamma   90.00000000
_symmetry_Int_Tables_number   1
_chemical_formula_structural   Nd5Ir3
_chemical_formula_sum   'Nd20 Ir12'
_cell_volume   827.90511217
_cell_formula_units_Z   4
loop_
 _symmetry_equiv_pos_site_id
 _symmetry_equiv_pos_as_xyz
  1  'x, y, z'
loop_
 _atom_site_type_symbol
 _atom_site_label
 _atom_site_symmetry_multiplicity
 _atom_site_fract_x
 _atom_site_fract_y
 _atom_site_fract_z
 _atom_site_occupancy
  Nd  Nd0  1  0.11276710  0.04250346  0.34072195  1
  Nd  Nd1  1  0.11276710  0.15927805  0.04250346  1
  Nd  Nd2  1  0.11276710  0.34072195  0.45749654  1
  Nd  Nd3  1  0.11276710  0.45749654  0.15927805  1
  Nd  Nd4  1  0.38723290  0.54250346  0.65927805  1
  Nd  Nd5  1  0.38723290  0.95749654  0.84072195  1
  Nd  Nd6  1  0.38723290  0.84072195  0.54250346  1
  Nd  Nd7  1  0.38723290  0.65927805  0.95749654  1
  Nd  Nd8  1  0.88723290  0.95749654  0.65927805  1
  Nd  Nd9  1  0.88723290  0.84072195  0.95749654  1
  Nd  Nd10  1  0.88723290  0.65927805  0.54250346  1
  Nd  Nd11  1  0.88723290  0.54250346  0.84072195  1
  Nd  Nd12  1  0.61276710  0.45749654  0.34072195  1
  Nd  Nd13  1  0.61276710  0.04250346  0.15927805  1
  Nd  Nd14  1  0.61276710  0.15927805  0.45749654  1
  Nd  Nd15  1  0.61276710  0.34072195  0.04250346  1
  Nd  Nd16  1  0.00000000  0.75000000  0.25000000  1
  Nd  Nd17  1  0.00000000  0.25000000  0.75000000  1
  Nd  Nd18  1  0.50000000  0.25000000  0.75000000  1
  Nd  Nd19  1  0.50000000  0.75000000  0.25000000  1
  Ir  Ir0  1  0.25000000  0.59639310  0.40360690  1
  Ir  Ir1  1  0.25000000  0.09639310  0.59639310  1
  Ir  Ir2  1  0.25000000  0.40360690  0.90360690  1
  Ir  Ir3  1  0.25000000  0.90360690  0.09639310  1
  Ir  Ir4  1  0.75000000  0.40360690  0.59639310  1
  Ir  Ir5  1  0.75000000  0.90360690  0.40360690  1
  Ir  Ir6  1  0.75000000  0.59639310  0.09639310  1
  Ir  Ir7  1  0.75000000  0.09639310  0.90360690  1
  Ir  Ir8  1  0.37551330  0.25000000  0.25000000  1
  Ir  Ir9  1  0.12448570  0.75000000  0.75000000  1
  Ir  Ir10  1  0.62448670  0.75000000  0.75000000  1
  Ir  Ir11  1  0.87551330  0.25000000  0.25000000  1
loop_
_geom_bond_atom_site_label_1
_geom_bond_atom_site_label_2
_geom_bond_distance
_geom_bond_site_symmetry_2
Ir0 Nd12 2.932101 1_555
Ir0 Nd10 2.932101 1_455
Ir0 Nd16 2.940277 1_555
Ir0 Nd19 2.940277 1_555
Ir0 Nd4 3.070274 1_555
Ir0 Nd2 3.070274 1_555
Ir0 Nd3 3.283154 1_555
Ir0 Nd6 3.283154 1_555
Ir1 Nd14 2.932101 1_555
Ir1 Nd8 2.932101 1_445
Ir1 Nd17 2.940277 1_555
Ir1 Nd18 2.940277 1_555
Ir1 Nd6 3.070274 1_545
Ir1 Nd0 3.070274 1_555
Ir1 Nd2 3.283154 1_555
Ir1 Nd5 3.283154 1_545
Ir2 Nd11 2.932101 1_455
Ir2 Nd15 2.932101 1_556
Ir2 Nd17 2.940277 1_555
Ir2 Nd18 2.940277 1_555
Ir2 Nd3 3.070274 1_556
Ir2 Nd7 3.070274 1_555
Ir2 Nd4 3.283154 1_555
Ir2 Nd1 3.283154 1_556
Ir3 Nd9 2.932101 1_454
Ir3 Nd13 2.932101 1_565
Ir3 Nd16 2.940277 1_555
Ir3 Nd19 2.940277 1_555
Ir3 Nd1 3.070274 1_565
Ir3 Nd5 3.070274 1_554
Ir3 Nd0 3.283154 1_565
Ir3 Nd7 3.283154 1_554
Ir4 Nd2 2.932101 1_655
Ir4 Nd4 2.932101 1_555
Ir4 Nd17 2.940277 1_655
Ir4 Nd18 2.940277 1_555
Ir4 Nd10 3.070274 1_555
Ir4 Nd12 3.070274 1_555
Ir4 Nd14 3.283154 1_555
Ir4 Nd11 3.283154 1_555
Ir5 Nd0 2.932101 1_665
Ir5 Nd6 2.932101 1_555
Ir5 Nd19 2.940277 1_555
Ir5 Nd16 2.940277 1_655
Ir5 Nd8 3.070274 1_555
Ir5 Nd14 3.070274 1_565
Ir5 Nd13 3.283154 1_565
Ir5 Nd10 3.283154 1_555
Ir6 Nd3 2.932101 1_655
Ir6 Nd7 2.932101 1_554
Ir6 Nd19 2.940277 1_555
Ir6 Nd16 2.940277 1_655
Ir6 Nd11 3.070274 1_554
Ir6 Nd15 3.070274 1_555
Ir6 Nd12 3.283154 1_555
Ir6 Nd9 3.283154 1_554
Ir7 Nd1 2.932101 1_656
Ir7 Nd5 2.932101 1_545
Ir7 Nd17 2.940277 1_655
Ir7 Nd18 2.940277 1_555
Ir7 Nd9 3.070274 1_545
Ir7 Nd13 3.070274 1_556
Ir7 Nd15 3.283154 1_556
Ir7 Nd8 3.283154 1_545
Ir8 Nd12 2.982410 1_555
Ir8 Nd13 2.982410 1_555
Ir8 Nd14 2.982410 1_555
Ir8 Nd15 2.982410 1_555
Ir8 Nd2 3.072996 1_555
Ir8 Nd0 3.072996 1_555
Ir8 Nd3 3.072996 1_555
Ir8 Nd1 3.072996 1_555
Ir9 Nd11 2.982407 1_455
Ir9 Nd9 2.982407 1_455
Ir9 Nd8 2.982407 1_455
Ir9 Nd10 2.982407 1_455
Ir9 Nd4 3.072999 1_555
Ir9 Nd5 3.072999 1_555
Ir9 Nd6 3.072999 1_555
Ir9 Nd7 3.072999 1_555
Ir10 Nd6 2.982410 1_555
Ir10 Nd7 2.982410 1_555
Ir10 Nd5 2.982410 1_555
Ir10 Nd4 2.982410 1_555
Ir10 Nd11 3.072996 1_555
Ir10 Nd8 3.072996 1_555
Ir10 Nd10 3.072996 1_555
Ir10 Nd9 3.072996 1_555
Ir11 Nd3 2.982410 1_655
Ir11 Nd0 2.982410 1_655
Ir11 Nd2 2.982410 1_655
Ir11 Nd1 2.982410 1_655
Ir11 Nd13 3.072996 1_555
Ir11 Nd14 3.072996 1_555
Ir11 Nd15 3.072996 1_555
Ir11 Nd12 3.072996 1_555
