# generated using pymatgen
data_MgNi2Sn7Pd2
_symmetry_space_group_name_H-M   'P 1'
_cell_length_a   6.26976232
_cell_length_b   6.27016904
_cell_length_c   7.77123768
_cell_angle_alpha   113.89914639
_cell_angle_beta   113.86497099
_cell_angle_gamma   89.66660146
_symmetry_Int_Tables_number   1
_chemical_formula_structural   MgNi2Sn7Pd2
_chemical_formula_sum   'Mg1 Ni2 Sn7 Pd2'
_cell_volume   250.82402463
_cell_formula_units_Z   1
loop_
 _symmetry_equiv_pos_site_id
 _symmetry_equiv_pos_as_xyz
  1  'x, y, z'
loop_
 _atom_site_type_symbol
 _atom_site_label
 _atom_site_symmetry_multiplicity
 _atom_site_fract_x
 _atom_site_fract_y
 _atom_site_fract_z
 _atom_site_occupancy
  Mg  Mg0  1  0.62754275  0.91121832  0.25471058  1
  Ni  Ni0  1  0.24620666  0.53150458  0.00427060  1
  Ni  Ni1  1  0.75760433  0.04234452  0.00489506  1
  Sn  Sn0  1  0.39205025  0.67723299  0.78403847  1
  Sn  Sn1  1  0.38278209  0.16700077  0.76511770  1
  Sn  Sn2  1  0.88181504  0.66784675  0.76507927  1
  Sn  Sn3  1  0.87727969  0.16257234  0.75369529  1
  Sn  Sn4  1  0.12154050  0.40672537  0.24417644  1
  Sn  Sn5  1  0.12351986  0.90833460  0.24565139  1
  Sn  Sn6  1  0.62303441  0.40826444  0.24556182  1
  Pd  Pd0  1  0.49818400  0.29221486  0.50510555  1
  Pd  Pd1  1  0.00723942  0.78334147  0.50529682  1
loop_
_geom_bond_atom_site_label_1
_geom_bond_atom_site_label_2
_geom_bond_distance
_geom_bond_site_symmetry_2
Mg0 Pd1 2.755746 1_655
Mg0 Pd0 2.763896 1_565
Mg0 Ni1 2.773444 1_565
Mg0 Ni0 2.778348 1_555
Mg0 Sn0 3.003075 1_554
Mg0 Sn6 3.125512 1_555
Mg0 Sn5 3.132276 1_555
Mg0 Sn5 3.138586 1_655
Mg0 Sn6 3.145744 1_565
Mg0 Sn3 3.183746 1_565
Ni0 Sn4 2.658397 1_555
Ni0 Sn0 2.672710 1_554
Ni0 Sn1 2.689631 1_554
Ni0 Sn2 2.689639 1_454
Ni0 Sn5 2.692285 1_555
Ni0 Sn3 2.694664 1_454
Ni0 Sn6 2.695038 1_555
Ni1 Sn4 2.658827 1_655
Ni1 Sn0 2.670969 1_544
Ni1 Sn2 2.683447 1_544
Ni1 Sn1 2.687221 1_554
Ni1 Sn5 2.692226 1_645
Ni1 Sn6 2.692843 1_555
Ni1 Sn3 2.706716 1_554
Pd0 Sn4 2.736617 1_555
Pd0 Sn3 2.752573 1_555
Pd0 Sn5 2.770932 1_545
Pd0 Sn6 2.771962 1_555
Pd0 Sn2 2.773569 1_555
Pd0 Sn1 2.774494 1_555
Pd0 Sn0 2.806768 1_555
Pd1 Sn4 2.735345 1_555
Pd1 Sn3 2.752342 1_465
Pd1 Sn1 2.773304 1_565
Pd1 Sn6 2.773645 1_455
Pd1 Sn2 2.773862 1_455
Pd1 Sn5 2.774063 1_555
Pd1 Sn0 2.806434 1_555
