# generated using pymatgen
data_NaSnBiAs2
_symmetry_space_group_name_H-M   'P 1'
_cell_length_a   9.68802697
_cell_length_b   9.68802690
_cell_length_c   9.68802692
_cell_angle_alpha   24.57288454
_cell_angle_beta   24.57288363
_cell_angle_gamma   24.57288687
_symmetry_Int_Tables_number   1
_chemical_formula_structural   NaSnBiAs2
_chemical_formula_sum   'Na1 Sn1 Bi1 As2'
_cell_volume   138.26528766
_cell_formula_units_Z   1
loop_
 _symmetry_equiv_pos_site_id
 _symmetry_equiv_pos_as_xyz
  1  'x, y, z'
loop_
 _atom_site_type_symbol
 _atom_site_label
 _atom_site_symmetry_multiplicity
 _atom_site_fract_x
 _atom_site_fract_y
 _atom_site_fract_z
 _atom_site_occupancy
  Na  Na0  1  0.00275509  0.00275509  0.00275509  1
  Sn  Sn0  1  0.78544689  0.78544689  0.78544689  1
  Bi  Bi0  1  0.21057477  0.21057477  0.21057477  1
  As  As0  1  0.40503158  0.40503158  0.40503158  1
  As  As1  1  0.59619067  0.59619067  0.59619067  1
loop_
_geom_bond_atom_site_label_1
_geom_bond_atom_site_label_2
_geom_bond_distance
_geom_bond_site_symmetry_2
As0 Sn0 2.725141 1_554
As0 Sn0 2.725141 1_455
As0 Sn0 2.725141 1_545
As0 Na0 3.072396 1_556
As0 Na0 3.072396 1_655
As0 Na0 3.072396 1_565
As1 Bi0 2.799384 1_556
As1 Bi0 2.799384 1_655
As1 Bi0 2.799384 1_565
As1 Na0 3.150158 1_665
As1 Na0 3.150158 1_566
As1 Na0 3.150158 1_656
