# generated using pymatgen
data_Zr6In4CBr18
_symmetry_space_group_name_H-M   'P 1'
_cell_length_a   10.17032507
_cell_length_b   10.46072780
_cell_length_c   10.45704395
_cell_angle_alpha   118.40951607
_cell_angle_beta   99.77740205
_cell_angle_gamma   104.44063375
_symmetry_Int_Tables_number   1
_chemical_formula_structural   Zr6In4CBr18
_chemical_formula_sum   'Zr6 In4 C1 Br18'
_cell_volume   891.62160368
_cell_formula_units_Z   1
loop_
 _symmetry_equiv_pos_site_id
 _symmetry_equiv_pos_as_xyz
  1  'x, y, z'
loop_
 _atom_site_type_symbol
 _atom_site_label
 _atom_site_symmetry_multiplicity
 _atom_site_fract_x
 _atom_site_fract_y
 _atom_site_fract_z
 _atom_site_occupancy
  Zr  Zr0  1  0.34999553  0.44429212  0.77234461  1
  Zr  Zr1  1  0.36330996  0.62507733  0.13320206  1
  Zr  Zr2  1  0.64575897  0.73522173  0.04366246  1
  Zr  Zr3  1  0.65000447  0.55570788  0.22765539  1
  Zr  Zr4  1  0.35424103  0.26477827  0.95633754  1
  Zr  Zr5  1  0.63669004  0.37492267  0.86679794  1
  In  In0  1  0.17770079  0.72210679  0.55672697  1
  In  In1  1  0.85362086  0.96329087  0.77420064  1
  In  In2  1  0.14637914  0.03670913  0.22579936  1
  In  In3  1  0.82229921  0.27789321  0.44327303  1
  C  C0  1  0.50000000  0.50000000  0.00000000  1
  Br  Br0  1  0.82681562  0.42126962  0.11017506  1
  Br  Br1  1  0.51683393  0.70756711  0.41579227  1
  Br  Br2  1  0.16941660  0.97361012  0.90001142  1
  Br  Br3  1  0.17318438  0.57873038  0.88982494  1
  Br  Br4  1  0.83835616  0.83775603  0.31492075  1
  Br  Br5  1  0.50311975  0.29440135  0.21295678  1
  Br  Br6  1  0.80134487  0.22152716  0.70565666  1
  Br  Br7  1  0.16164384  0.16224397  0.68507925  1
  Br  Br8  1  0.51042453  0.91381758  0.20047265  1
  Br  Br9  1  0.82428969  0.62891285  0.89900564  1
  Br  Br10  1  0.19865513  0.77847284  0.29434334  1
  Br  Br11  1  0.15904434  0.37603188  0.49147352  1
  Br  Br12  1  0.49688025  0.70559865  0.78704322  1
  Br  Br13  1  0.83058340  0.02638988  0.09998858  1
  Br  Br14  1  0.48316607  0.29243289  0.58420773  1
  Br  Br15  1  0.17571031  0.37108715  0.10099436  1
  Br  Br16  1  0.84095566  0.62396812  0.50852648  1
  Br  Br17  1  0.48957547  0.08618242  0.79952735  1
loop_
_geom_bond_atom_site_label_1
_geom_bond_atom_site_label_2
_geom_bond_distance
_geom_bond_site_symmetry_2
C0 Zr3 2.310262 1_555
C0 Zr0 2.310262 1_554
C0 Zr2 2.311356 1_555
C0 Zr4 2.311356 1_554
C0 Zr5 2.327101 1_554
C0 Zr1 2.327101 1_555
Br0 Zr3 2.662372 1_555
Br0 Zr5 2.671703 1_554
Br1 Zr3 2.689356 1_555
Br1 Zr1 2.692481 1_555
Br2 Zr4 2.866834 1_565
Br2 In2 3.210178 1_566
Br2 In1 3.211637 1_455
Br2 In0 3.322902 1_555
Br3 Zr0 2.662372 1_555
Br3 Zr1 2.671703 1_556
Br4 Zr2 2.683902 1_555
Br4 Zr3 2.689383 1_555
Br5 Zr4 2.680377 1_554
Br5 Zr3 2.685639 1_555
Br6 Zr5 2.818556 1_555
Br6 In3 3.097840 1_555
Br6 In1 3.243909 1_545
Br7 Zr4 2.683902 1_555
Br7 Zr0 2.689383 1_555
Br8 Zr2 2.684713 1_555
Br8 Zr1 2.687617 1_555
Br9 Zr2 2.676001 1_556
Br9 Zr5 2.686055 1_555
Br10 Zr1 2.818556 1_555
Br10 In0 3.097840 1_555
Br10 In2 3.243909 1_565
Br11 Zr0 2.878073 1_555
Br11 In3 3.194531 1_455
Br11 In2 3.255950 1_555
Br11 In0 3.297013 1_555
Br12 Zr2 2.680377 1_556
Br12 Zr0 2.685639 1_555
Br13 Zr2 2.866834 1_545
Br13 In1 3.210178 1_544
Br13 In2 3.211637 1_655
Br13 In3 3.322902 1_555
Br14 Zr0 2.689356 1_555
Br14 Zr5 2.692481 1_555
Br15 Zr4 2.676001 1_554
Br15 Zr1 2.686055 1_555
Br16 Zr3 2.878073 1_555
Br16 In0 3.194531 1_655
Br16 In1 3.255950 1_555
Br16 In3 3.297013 1_555
Br17 Zr4 2.684713 1_555
Br17 Zr5 2.687617 1_555
