# generated using pymatgen
data_Li3Mo2(PO4)3
_symmetry_space_group_name_H-M   'P 1'
_cell_length_a   8.78000176
_cell_length_b   8.78000176
_cell_length_c   8.83212790
_cell_angle_alpha   62.89761909
_cell_angle_beta   62.89761909
_cell_angle_gamma   61.37694924
_symmetry_Int_Tables_number   1
_chemical_formula_structural   Li3Mo2(PO4)3
_chemical_formula_sum   'Li6 Mo4 P6 O24'
_cell_volume   506.88828476
_cell_formula_units_Z   2
loop_
 _symmetry_equiv_pos_site_id
 _symmetry_equiv_pos_as_xyz
  1  'x, y, z'
loop_
 _atom_site_type_symbol
 _atom_site_label
 _atom_site_symmetry_multiplicity
 _atom_site_fract_x
 _atom_site_fract_y
 _atom_site_fract_z
 _atom_site_occupancy
  Li  Li0  1  0.69280000  0.94137400  0.79195200  1
  Li  Li1  1  0.94137400  0.69280000  0.29195200  1
  Li  Li2  1  0.36987000  0.63013000  0.25000000  1
  Li  Li3  1  0.63013000  0.36987000  0.75000000  1
  Li  Li4  1  0.05862600  0.30720000  0.70804800  1
  Li  Li5  1  0.30720000  0.05862600  0.20804800  1
  Mo  Mo0  1  0.35840100  0.85201100  0.86088000  1
  Mo  Mo1  1  0.85201100  0.35840100  0.36088000  1
  Mo  Mo2  1  0.14798900  0.64159900  0.63912000  1
  Mo  Mo3  1  0.64159900  0.14798900  0.13912000  1
  P  P0  1  0.24414000  0.47572600  0.04995900  1
  P  P1  1  0.94550100  0.05449900  0.75000000  1
  P  P2  1  0.47572600  0.24414000  0.54995900  1
  P  P3  1  0.52427400  0.75586000  0.45004100  1
  P  P4  1  0.75586000  0.52427400  0.95004100  1
  P  P5  1  0.05449900  0.94550100  0.25000000  1
  O  O0  1  0.69737200  0.39119500  0.93600900  1
  O  O1  1  0.02194300  0.09999200  0.31299300  1
  O  O2  1  0.05648300  0.48364200  0.19372600  1
  O  O3  1  0.37966800  0.27694800  0.09398000  1
  O  O4  1  0.90000800  0.97805700  0.18700700  1
  O  O5  1  0.97805700  0.90000800  0.68700700  1
  O  O6  1  0.94351700  0.51635800  0.80627400  1
  O  O7  1  0.62033200  0.72305200  0.90602000  1
  O  O8  1  0.09999200  0.02194300  0.81299300  1
  O  O9  1  0.24479600  0.92894000  0.10423800  1
  O  O10  1  0.75175200  0.47454900  0.14110500  1
  O  O11  1  0.51635800  0.94351700  0.30627400  1
  O  O12  1  0.72305200  0.62033200  0.40602000  1
  O  O13  1  0.39119500  0.69737200  0.43600900  1
  O  O14  1  0.30262800  0.60880500  0.06399100  1
  O  O15  1  0.07106000  0.75520400  0.39576200  1
  O  O16  1  0.92894000  0.24479600  0.60423800  1
  O  O17  1  0.47454900  0.75175200  0.64110500  1
  O  O18  1  0.60880500  0.30262800  0.56399100  1
  O  O19  1  0.27694800  0.37966800  0.59398000  1
  O  O20  1  0.48364200  0.05648300  0.69372600  1
  O  O21  1  0.24824800  0.52545100  0.85889500  1
  O  O22  1  0.75520400  0.07106000  0.89576200  1
  O  O23  1  0.52545100  0.24824800  0.35889500  1
loop_
_geom_bond_atom_site_label_1
_geom_bond_atom_site_label_2
_geom_bond_distance
_geom_bond_site_symmetry_2
Li0 O7 1.979657 1_555
Li0 O20 2.005242 1_565
Li0 O22 2.108089 1_565
Li0 O5 2.140990 1_555
Li1 O12 1.979657 1_555
Li1 O2 2.005242 1_655
Li1 O15 2.108089 1_655
Li1 O4 2.140990 1_555
Li2 O14 2.086269 1_555
Li2 O13 2.086269 1_555
Li2 O15 2.279625 1_555
Li2 O9 2.279625 1_555
Li3 O18 2.086269 1_555
Li3 O0 2.086269 1_555
Li3 O22 2.279625 1_555
Li3 O16 2.279625 1_555
Li4 O19 1.979657 1_555
Li4 O6 2.005242 1_455
Li4 O16 2.108089 1_455
Li4 O8 2.140990 1_555
Li5 O3 1.979657 1_555
Li5 O11 2.005242 1_545
Li5 O9 2.108089 1_545
Li5 O1 2.140990 1_555
Mo0 O17 2.115616 1_555
Mo0 O8 2.146785 1_565
Mo0 O20 2.146839 1_565
Mo0 O7 2.158507 1_555
Mo0 O14 2.174558 1_556
Mo0 O9 2.189701 1_556
Mo1 O10 2.115616 1_555
Mo1 O1 2.146785 1_655
Mo1 O2 2.146839 1_655
Mo1 O12 2.158507 1_555
Mo1 O18 2.174558 1_555
Mo1 O16 2.189701 1_555
Mo2 O21 2.115616 1_555
Mo2 O5 2.146785 1_455
Mo2 O6 2.146839 1_455
Mo2 O19 2.158507 1_555
Mo2 O13 2.174558 1_555
Mo2 O15 2.189701 1_555
Mo3 O23 2.115616 1_555
Mo3 O4 2.146785 1_545
Mo3 O11 2.146839 1_545
Mo3 O3 2.158507 1_555
Mo3 O0 2.174558 1_554
Mo3 O22 2.189701 1_554
O0 P4 1.552130 1_555
O1 P5 1.549967 1_545
O2 P0 1.547988 1_555
O3 P0 1.557763 1_555
O4 P5 1.549967 1_655
O5 P1 1.549967 1_565
O6 P4 1.547988 1_555
O7 P4 1.557763 1_555
O8 P1 1.549967 1_455
O9 P5 1.564614 1_555
O10 P4 1.525749 1_554
O11 P3 1.547988 1_555
O12 P3 1.557763 1_555
O13 P3 1.552130 1_555
O14 P0 1.552130 1_555
O15 P5 1.564614 1_555
O16 P1 1.564614 1_555
O17 P3 1.525749 1_555
O18 P2 1.552130 1_555
O19 P2 1.557763 1_555
O20 P2 1.547988 1_555
O21 P0 1.525749 1_556
O22 P1 1.564614 1_555
O23 P2 1.525749 1_555
