# generated using pymatgen
data_Ti4CoPb2
_symmetry_space_group_name_H-M   'P 1'
_cell_length_a   7.87877821
_cell_length_b   7.87877922
_cell_length_c   7.87877926
_cell_angle_alpha   95.42591107
_cell_angle_beta   95.42591098
_cell_angle_gamma   144.18228163
_symmetry_Int_Tables_number   1
_chemical_formula_structural   Ti4CoPb2
_chemical_formula_sum   'Ti8 Co2 Pb4'
_cell_volume   272.34382615
_cell_formula_units_Z   2
loop_
 _symmetry_equiv_pos_site_id
 _symmetry_equiv_pos_as_xyz
  1  'x, y, z'
loop_
 _atom_site_type_symbol
 _atom_site_label
 _atom_site_symmetry_multiplicity
 _atom_site_fract_x
 _atom_site_fract_y
 _atom_site_fract_z
 _atom_site_occupancy
  Ti  Ti0  1  0.69229414  0.57642057  0.26871472  1
  Ti  Ti1  1  0.57642057  0.30770586  0.88412743  1
  Ti  Ti2  1  0.07642057  0.19229414  0.26871472  1
  Ti  Ti3  1  0.92357943  0.80770586  0.73128528  1
  Ti  Ti4  1  0.19229414  0.92357943  0.11587257  1
  Ti  Ti5  1  0.80770586  0.07642057  0.88412743  1
  Ti  Ti6  1  0.30770586  0.42357943  0.73128528  1
  Ti  Ti7  1  0.42357943  0.69229414  0.11587257  1
  Co  Co0  1  0.25000000  0.25000000  0.00000000  1
  Co  Co1  1  0.75000000  0.75000000  0.00000000  1
  Pb  Pb0  1  0.14391853  0.64391853  0.78783907  1
  Pb  Pb1  1  0.35608147  0.14391853  0.50000000  1
  Pb  Pb2  1  0.64391853  0.85608147  0.50000000  1
  Pb  Pb3  1  0.85608147  0.35608147  0.21216093  1
loop_
_geom_bond_atom_site_label_1
_geom_bond_atom_site_label_2
_geom_bond_distance
_geom_bond_site_symmetry_2
Ti0 Ti4 2.914740 1_545
Ti0 Ti4 2.914743 1_655
Ti0 Ti2 2.981333 1_555
Ti0 Ti2 2.981333 1_665
Ti0 Ti1 3.102609 1_554
Ti0 Ti7 3.102618 1_555
Ti0 Ti3 3.467904 1_555
Ti1 Ti3 2.914739 1_445
Ti1 Ti3 2.914744 1_555
Ti1 Ti4 2.981320 1_546
Ti1 Ti4 2.981328 1_656
Ti1 Ti6 3.102618 1_555
Ti1 Ti5 3.467904 1_555
Ti2 Ti7 2.914739 1_445
Ti2 Ti7 2.914744 1_555
Ti2 Ti5 3.102608 1_454
Ti2 Ti4 3.102618 1_545
Ti2 Ti6 3.467904 1_555
Ti3 Ti6 2.981333 1_555
Ti3 Ti6 2.981333 1_665
Ti3 Ti4 3.102608 1_656
Ti3 Ti5 3.102618 1_565
Ti4 Ti7 3.467904 1_555
Ti5 Ti6 2.914740 1_545
Ti5 Ti6 2.914743 1_655
Ti5 Ti7 2.981320 1_546
Ti5 Ti7 2.981328 1_656
Ti6 Ti7 3.102609 1_556
Co0 Co1 2.422754 1_555
Co0 Co1 2.422754 1_445
Co0 Ti1 2.506098 1_554
Co0 Ti4 2.506098 1_545
Co0 Ti5 2.506100 1_454
Co0 Ti7 2.506100 1_555
Co0 Ti2 2.506102 1_555
Co0 Ti0 2.506102 1_555
Co0 Ti6 2.506102 1_554
Co0 Ti3 2.506102 1_444
Co1 Ti7 2.506098 1_555
Co1 Ti5 2.506098 1_564
Co1 Ti4 2.506100 1_655
Co1 Ti1 2.506100 1_554
Co1 Ti3 2.506102 1_554
Co1 Ti6 2.506102 1_554
Co1 Ti0 2.506102 1_555
Co1 Ti2 2.506102 1_665
Pb0 Ti3 2.910850 1_455
Pb0 Ti6 2.910850 1_555
Pb0 Ti7 3.009091 1_556
Pb0 Ti4 3.009091 1_556
Pb0 Ti1 3.065521 1_455
Pb0 Ti5 3.065522 1_455
Pb0 Ti5 3.065525 1_565
Pb0 Ti1 3.065525 1_565
Pb1 Ti1 2.910856 1_555
Pb1 Ti4 2.910856 1_545
Pb1 Ti2 3.009109 1_555
Pb1 Ti6 3.009110 1_555
Pb1 Ti3 3.065525 1_445
Pb1 Ti0 3.065525 1_445
Pb1 Ti0 3.065525 1_555
Pb1 Ti3 3.065525 1_555
Pb2 Ti7 2.910856 1_555
Pb2 Ti5 2.910856 1_565
Pb2 Ti3 3.009109 1_555
Pb2 Ti0 3.009110 1_555
Pb2 Ti2 3.065525 1_665
Pb2 Ti6 3.065525 1_665
Pb2 Ti6 3.065525 1_555
Pb2 Ti2 3.065525 1_555
Pb3 Ti2 2.910850 1_655
Pb3 Ti0 2.910850 1_555
Pb3 Ti1 3.009091 1_554
Pb3 Ti5 3.009091 1_554
Pb3 Ti7 3.065521 1_655
Pb3 Ti4 3.065522 1_655
Pb3 Ti4 3.065525 1_545
Pb3 Ti7 3.065525 1_545
