# generated using pymatgen
data_Ca(CeS2)2
_symmetry_space_group_name_H-M   'P 1'
_cell_length_a   7.41282297
_cell_length_b   7.41282297
_cell_length_c   7.41282297
_cell_angle_alpha   109.73848929
_cell_angle_beta   109.73848929
_cell_angle_gamma   108.93799560
_symmetry_Int_Tables_number   1
_chemical_formula_structural   Ca(CeS2)2
_chemical_formula_sum   'Ca2 Ce4 S8'
_cell_volume   313.54567432
_cell_formula_units_Z   2
loop_
 _symmetry_equiv_pos_site_id
 _symmetry_equiv_pos_as_xyz
  1  'x, y, z'
loop_
 _atom_site_type_symbol
 _atom_site_label
 _atom_site_symmetry_multiplicity
 _atom_site_fract_x
 _atom_site_fract_y
 _atom_site_fract_z
 _atom_site_occupancy
  Ca  Ca0  1  0.50000000  0.50000000  0.00000000  1
  Ca  Ca1  1  0.25000000  0.75000000  0.50000000  1
  Ce  Ce0  1  0.00319600  0.62500000  0.87819600  1
  Ce  Ce1  1  0.87500000  0.99680400  0.62180400  1
  Ce  Ce2  1  0.74680400  0.12500000  0.12180400  1
  Ce  Ce3  1  0.37500000  0.25319600  0.37819600  1
  S  S0  1  0.12217100  0.37446200  0.10411600  1
  S  S1  1  0.12446200  0.37217100  0.60411600  1
  S  S2  1  0.98194500  0.87782900  0.25229100  1
  S  S3  1  0.76805500  0.52034600  0.39588400  1
  S  S4  1  0.47965400  0.87553800  0.24770900  1
  S  S5  1  0.62782900  0.23194500  0.75229100  1
  S  S6  1  0.62553800  0.72965400  0.74770900  1
  S  S7  1  0.27034600  0.01805500  0.89588400  1
loop_
_geom_bond_atom_site_label_1
_geom_bond_atom_site_label_2
_geom_bond_distance
_geom_bond_site_symmetry_2
Ca0 S5 2.854972 1_554
Ca0 S4 2.854972 1_555
Ca0 S1 2.854972 1_554
Ca0 S3 2.854972 1_555
Ca0 S2 3.091838 1_555
Ca0 S0 3.091838 1_555
Ca0 S6 3.091838 1_554
Ca0 S7 3.091838 1_554
Ca1 S7 2.854972 1_565
Ca1 S6 2.854972 1_555
Ca1 S0 2.854972 1_555
Ca1 S2 2.854972 1_455
Ca1 S3 3.091838 1_455
Ca1 S1 3.091838 1_555
Ca1 S4 3.091838 1_555
Ca1 S5 3.091838 1_565
Ce0 S1 2.864195 1_555
Ce0 S2 2.864195 1_456
Ce0 S7 2.872209 1_565
Ce0 S5 2.872209 1_455
Ce0 S4 3.032818 1_556
Ce0 S0 3.032818 1_556
Ce0 S6 3.076072 1_455
Ce0 S3 3.076072 1_455
Ce1 S4 2.864195 1_555
Ce1 S7 2.864195 1_665
Ce1 S6 2.872209 1_555
Ce1 S1 2.872209 1_665
Ce1 S2 3.032818 1_555
Ce1 S3 3.032818 1_555
Ce1 S0 3.076072 1_666
Ce1 S5 3.076072 1_565
Ce2 S3 2.864195 1_555
Ce2 S6 2.864195 1_544
Ce2 S4 2.872209 1_545
Ce2 S0 2.872209 1_655
Ce2 S7 3.032818 1_554
Ce2 S5 3.032818 1_554
Ce2 S2 3.076072 1_545
Ce2 S1 3.076072 1_655
Ce3 S0 2.864195 1_555
Ce3 S5 2.864195 1_555
Ce3 S3 2.872209 1_555
Ce3 S2 2.872209 1_445
Ce3 S1 3.032818 1_555
Ce3 S6 3.032818 1_555
Ce3 S7 3.076072 1_554
Ce3 S4 3.076072 1_545
