# generated using pymatgen
data_CsK2Sn4Au
_symmetry_space_group_name_H-M   'P 1'
_cell_length_a   6.65949183
_cell_length_b   7.43364159
_cell_length_c   12.29918185
_cell_angle_alpha   90.00000000
_cell_angle_beta   90.00000000
_cell_angle_gamma   90.00000000
_symmetry_Int_Tables_number   1
_chemical_formula_structural   CsK2Sn4Au
_chemical_formula_sum   'Cs2 K4 Sn8 Au2'
_cell_volume   608.86208575
_cell_formula_units_Z   2
loop_
 _symmetry_equiv_pos_site_id
 _symmetry_equiv_pos_as_xyz
  1  'x, y, z'
loop_
 _atom_site_type_symbol
 _atom_site_label
 _atom_site_symmetry_multiplicity
 _atom_site_fract_x
 _atom_site_fract_y
 _atom_site_fract_z
 _atom_site_occupancy
  Cs  Cs0  1  0.56549698  0.00000000  0.00000000  1
  Cs  Cs1  1  0.43450302  0.50000000  0.50000000  1
  K  K0  1  0.84321481  0.50000000  0.74022314  1
  K  K1  1  0.84321481  0.50000000  0.25977686  1
  K  K2  1  0.15678519  0.00000000  0.75977686  1
  K  K3  1  0.15678519  0.00000000  0.24022314  1
  Sn  Sn0  1  0.34310007  0.50000000  0.87363149  1
  Sn  Sn1  1  0.34310007  0.50000000  0.12636851  1
  Sn  Sn2  1  0.04843000  0.29112035  0.00000000  1
  Sn  Sn3  1  0.04843000  0.70887965  0.00000000  1
  Sn  Sn4  1  0.95157000  0.79112035  0.50000000  1
  Sn  Sn5  1  0.95157000  0.20887965  0.50000000  1
  Sn  Sn6  1  0.65689993  0.00000000  0.37363149  1
  Sn  Sn7  1  0.65689993  0.00000000  0.62636851  1
  Au  Au0  1  0.69411842  0.50000000  0.00000000  1
  Au  Au1  1  0.30588158  0.00000000  0.50000000  1
loop_
_geom_bond_atom_site_label_1
_geom_bond_atom_site_label_2
_geom_bond_distance
_geom_bond_site_symmetry_2
Cs0 Sn2 3.876401 1_655
Cs0 Sn3 3.876401 1_645
Cs0 K3 4.017166 1_555
Cs0 K2 4.017166 1_554
Cs0 Sn2 4.066975 1_555
Cs0 Sn3 4.066975 1_545
Cs1 Sn4 3.876401 1_455
Cs1 Sn5 3.876401 1_455
Cs1 K0 4.017166 1_555
Cs1 K1 4.017166 1_555
Cs1 Sn4 4.066975 1_555
Cs1 Sn5 4.066975 1_555
K0 Sn0 3.711386 1_655
K0 Sn0 3.712757 1_555
K0 Sn4 3.732735 1_555
K0 Sn5 3.732735 1_555
K0 Sn3 3.806174 1_656
K0 Sn2 3.806174 1_656
K0 K2 4.270042 1_655
K0 K2 4.270042 1_665
K1 Sn1 3.711386 1_655
K1 Sn1 3.712757 1_555
K1 Sn4 3.732735 1_555
K1 Sn5 3.732735 1_555
K1 Sn3 3.806174 1_655
K1 Sn2 3.806174 1_655
K1 K3 4.270042 1_655
K1 K3 4.270042 1_665
K2 Sn7 3.711386 1_455
K2 Sn7 3.712757 1_555
K2 Sn2 3.732735 1_556
K2 Sn3 3.732735 1_546
K2 Sn5 3.806174 1_455
K2 Sn4 3.806174 1_445
K3 Sn6 3.711386 1_455
K3 Sn6 3.712757 1_555
K3 Sn2 3.732735 1_555
K3 Sn3 3.732735 1_545
K3 Sn5 3.806174 1_455
K3 Sn4 3.806174 1_445
Sn0 Sn3 2.945751 1_556
Sn0 Sn2 2.945751 1_556
Sn0 Sn1 3.108459 1_556
Sn1 Sn3 2.945751 1_555
Sn1 Sn2 2.945751 1_555
Sn2 Sn3 3.105473 1_555
Sn4 Sn6 2.945751 1_565
Sn4 Sn7 2.945751 1_565
Sn4 Sn5 3.105473 1_565
Sn5 Sn6 2.945751 1_555
Sn5 Sn7 2.945751 1_555
Sn6 Sn7 3.108459 1_555
Au0 Sn0 2.807137 1_554
Au0 Sn1 2.807137 1_555
Au0 Sn3 2.824605 1_655
Au0 Sn2 2.824605 1_655
Au0 K1 3.345768 1_555
Au0 K0 3.345768 1_554
Au0 Cs0 3.814242 1_565
Au0 Cs0 3.814242 1_555
Au1 Sn6 2.807137 1_555
Au1 Sn7 2.807137 1_555
Au1 Sn5 2.824605 1_455
Au1 Sn4 2.824605 1_445
Au1 K2 3.345768 1_555
Au1 K3 3.345768 1_555
Au1 Cs1 3.814242 1_555
Au1 Cs1 3.814242 1_545
