# generated using pymatgen
data_Hf4P4IrRh3
_symmetry_space_group_name_H-M   'P 1'
_cell_length_a   3.77327670
_cell_length_b   6.44914360
_cell_length_c   7.36566266
_cell_angle_alpha   90.08573464
_cell_angle_beta   90.00000000
_cell_angle_gamma   90.00000000
_symmetry_Int_Tables_number   1
_chemical_formula_structural   Hf4P4IrRh3
_chemical_formula_sum   'Hf4 P4 Ir1 Rh3'
_cell_volume   179.23880464
_cell_formula_units_Z   1
loop_
 _symmetry_equiv_pos_site_id
 _symmetry_equiv_pos_as_xyz
  1  'x, y, z'
loop_
 _atom_site_type_symbol
 _atom_site_label
 _atom_site_symmetry_multiplicity
 _atom_site_fract_x
 _atom_site_fract_y
 _atom_site_fract_z
 _atom_site_occupancy
  Hf  Hf0  1  0.25000000  0.02658001  0.82009475  1
  Hf  Hf1  1  0.25000000  0.52896650  0.67893544  1
  Hf  Hf2  1  0.75000000  0.97210434  0.17961284  1
  Hf  Hf3  1  0.75000000  0.47206235  0.32134988  1
  P  P0  1  0.25000000  0.75773258  0.37577126  1
  P  P1  1  0.25000000  0.25713609  0.12225854  1
  P  P2  1  0.75000000  0.24390373  0.62463809  1
  P  P3  1  0.75000000  0.74263235  0.87668071  1
  Ir  Ir0  1  0.25000000  0.14694003  0.43649686  1
  Rh  Rh0  1  0.25000000  0.64353858  0.06436825  1
  Rh  Rh1  1  0.75000000  0.85484566  0.56353056  1
  Rh  Rh2  1  0.75000000  0.35355577  0.93626282  1
loop_
_geom_bond_atom_site_label_1
_geom_bond_atom_site_label_2
_geom_bond_distance
_geom_bond_site_symmetry_2
Hf0 P3 2.662474 1_445
Hf0 P3 2.662474 1_545
Hf0 P1 2.674770 1_556
Hf0 P2 2.757251 1_555
Hf0 P2 2.757251 1_455
Hf0 Rh1 2.889809 1_445
Hf0 Rh1 2.889809 1_545
Hf0 Ir0 2.931256 1_555
Hf0 Rh2 2.955135 1_555
Hf0 Rh2 2.955135 1_455
Hf0 Rh0 3.058248 1_546
Hf1 P2 2.664002 1_455
Hf1 P2 2.664002 1_555
Hf1 P0 2.678211 1_555
Hf1 P3 2.752025 1_555
Hf1 P3 2.752025 1_455
Hf1 Rh2 2.904830 1_455
Hf1 Rh2 2.904830 1_555
Hf1 Rh0 2.932477 1_556
Hf1 Rh1 2.950289 1_555
Hf1 Rh1 2.950289 1_455
Hf1 Ir0 3.040668 1_555
Hf2 P1 2.668185 1_665
Hf2 P1 2.668185 1_565
Hf2 P3 2.675611 1_554
Hf2 P0 2.750324 1_555
Hf2 P0 2.750324 1_655
Hf2 Ir0 2.899050 1_565
Hf2 Ir0 2.899050 1_665
Hf2 Rh1 2.928270 1_555
Hf2 Rh0 2.960506 1_655
Hf2 Rh0 2.960506 1_555
Hf2 Rh2 3.045946 1_564
Hf3 P0 2.666842 1_555
Hf3 P0 2.666842 1_655
Hf3 P2 2.676813 1_555
Hf3 P1 2.761343 1_555
Hf3 P1 2.761343 1_655
Hf3 Rh0 2.893350 1_655
Hf3 Rh0 2.893350 1_555
Hf3 Rh2 2.936478 1_554
Hf3 Ir0 2.946262 1_555
Hf3 Ir0 2.946262 1_655
Hf3 Rh1 3.043509 1_555
P0 Rh0 2.407970 1_555
P0 Rh1 2.421089 1_455
P0 Rh1 2.421089 1_555
P1 Rh2 2.413601 1_554
P1 Rh2 2.413601 1_454
P1 Rh0 2.528812 1_555
P2 Rh2 2.400776 1_555
P2 Rh1 2.548479 1_545
P3 Rh1 2.418454 1_555
P3 Rh0 2.425203 1_656
P3 Rh0 2.425203 1_556
P3 Rh2 2.547947 1_555
Ir0 P1 2.422236 1_555
Ir0 P2 2.422447 1_455
Ir0 P2 2.422447 1_555
Ir0 P0 2.548937 1_545
Ir0 Rh1 2.826435 1_445
Ir0 Rh1 2.826435 1_545
Rh0 Rh2 2.818137 1_554
Rh0 Rh2 2.818137 1_454
