# generated using pymatgen
data_Ce(SmS2)2
_symmetry_space_group_name_H-M   'P 1'
_cell_length_a   7.38715013
_cell_length_b   7.38715013
_cell_length_c   7.38715013
_cell_angle_alpha   109.54757917
_cell_angle_beta   109.54757917
_cell_angle_gamma   109.31861126
_symmetry_Int_Tables_number   1
_chemical_formula_structural   Ce(SmS2)2
_chemical_formula_sum   'Ce2 Sm4 S8'
_cell_volume   310.31771949
_cell_formula_units_Z   2
loop_
 _symmetry_equiv_pos_site_id
 _symmetry_equiv_pos_as_xyz
  1  'x, y, z'
loop_
 _atom_site_type_symbol
 _atom_site_label
 _atom_site_symmetry_multiplicity
 _atom_site_fract_x
 _atom_site_fract_y
 _atom_site_fract_z
 _atom_site_occupancy
  Ce  Ce0  1  0.75000000  0.25000000  0.50000000  1
  Ce  Ce1  1  0.00000000  0.00000000  0.00000000  1
  Sm  Sm0  1  0.49652300  0.12500000  0.87152300  1
  Sm  Sm1  1  0.87500000  0.74652300  0.37152300  1
  Sm  Sm2  1  0.25347700  0.62500000  0.12847700  1
  Sm  Sm3  1  0.37500000  0.50347700  0.62847700  1
  S  S0  1  0.97674300  0.37706600  0.25018400  1
  S  S1  1  0.47655900  0.37688200  0.24981600  1
  S  S2  1  0.27344100  0.02325700  0.40032300  1
  S  S3  1  0.62293400  0.87311800  0.59967700  1
  S  S4  1  0.12706600  0.22674300  0.75018400  1
  S  S5  1  0.62311800  0.87293400  0.09967700  1
  S  S6  1  0.77325700  0.52344100  0.90032300  1
  S  S7  1  0.12688200  0.72655900  0.74981600  1
loop_
_geom_bond_atom_site_label_1
_geom_bond_atom_site_label_2
_geom_bond_distance
_geom_bond_site_symmetry_2
Ce0 S4 2.878904 1_655
Ce0 S6 2.878904 1_555
Ce0 S5 2.878904 1_545
Ce0 S1 2.878904 1_555
Ce0 S0 3.046250 1_555
Ce0 S7 3.046250 1_655
Ce0 S2 3.046250 1_555
Ce0 S3 3.046250 1_545
Ce1 S0 2.878904 1_455
Ce1 S2 2.878904 1_555
Ce1 S3 2.878904 1_444
Ce1 S7 2.878904 1_544
Ce1 S1 3.046250 1_555
Ce1 S4 3.046250 1_554
Ce1 S5 3.046250 1_445
Ce1 S6 3.046250 1_444
S0 Sm2 2.862939 1_655
S0 Sm3 2.875934 1_655
S0 Sm1 2.998004 1_555
S0 Sm0 3.062661 1_554
S1 Sm1 2.862939 1_555
S1 Sm0 2.875934 1_554
S1 Sm2 2.998004 1_555
S1 Sm3 3.062661 1_555
S2 Sm1 2.862939 1_445
S2 Sm2 2.875934 1_545
S2 Sm0 2.998004 1_555
S2 Sm3 3.062661 1_555
S3 Sm3 2.862939 1_555
S3 Sm0 2.875934 1_565
S3 Sm2 2.998004 1_555
S3 Sm1 3.062661 1_555
S4 Sm3 2.862939 1_555
S4 Sm2 2.875934 1_556
S4 Sm0 2.998004 1_555
S4 Sm1 3.062661 1_445
S5 Sm2 2.862939 1_555
S5 Sm1 2.875934 1_555
S5 Sm3 2.998004 1_554
S5 Sm0 3.062661 1_564
S6 Sm0 2.862939 1_555
S6 Sm3 2.875934 1_555
S6 Sm1 2.998004 1_556
S6 Sm2 3.062661 1_656
S7 Sm0 2.862939 1_565
S7 Sm1 2.875934 1_455
S7 Sm3 2.998004 1_555
S7 Sm2 3.062661 1_556
