# generated using pymatgen
data_Hf7Zr3Ga3Sb5
_symmetry_space_group_name_H-M   'P 1'
_cell_length_a   8.57038816
_cell_length_b   8.57324786
_cell_length_c   5.75626323
_cell_angle_alpha   90.00000000
_cell_angle_beta   90.00000000
_cell_angle_gamma   120.19538065
_symmetry_Int_Tables_number   1
_chemical_formula_structural   Hf7Zr3Ga3Sb5
_chemical_formula_sum   'Hf7 Zr3 Ga3 Sb5'
_cell_volume   365.56006482
_cell_formula_units_Z   1
loop_
 _symmetry_equiv_pos_site_id
 _symmetry_equiv_pos_as_xyz
  1  'x, y, z'
loop_
 _atom_site_type_symbol
 _atom_site_label
 _atom_site_symmetry_multiplicity
 _atom_site_fract_x
 _atom_site_fract_y
 _atom_site_fract_z
 _atom_site_occupancy
  Hf  Hf0  1  0.27861883  0.27794198  0.75000000  1
  Hf  Hf1  1  0.73737727  0.73872328  0.25000000  1
  Hf  Hf2  1  0.72195318  0.98514519  0.75000000  1
  Hf  Hf3  1  0.33706876  0.66543249  0.50346022  1
  Hf  Hf4  1  0.66574665  0.33659574  0.50321815  1
  Hf  Hf5  1  0.33706876  0.66543249  0.99653978  1
  Hf  Hf6  1  0.66574665  0.33659574  0.99678185  1
  Zr  Zr0  1  0.00087020  0.26492948  0.25000000  1
  Zr  Zr1  1  0.98912591  0.72339508  0.75000000  1
  Zr  Zr2  1  0.26495825  0.00236957  0.25000000  1
  Ga  Ga0  1  0.00061736  0.00185033  0.51046337  1
  Ga  Ga1  1  0.61053781  0.61082193  0.75000000  1
  Ga  Ga2  1  0.00061736  0.00185033  0.98953663  1
  Sb  Sb0  1  0.38555116  0.99915365  0.75000000  1
  Sb  Sb1  1  0.60816019  0.99991990  0.25000000  1
  Sb  Sb2  1  0.39843744  0.39851142  0.25000000  1
  Sb  Sb3  1  0.99757198  0.38205082  0.75000000  1
  Sb  Sb4  1  0.99996921  0.60927858  0.25000000  1
loop_
_geom_bond_atom_site_label_1
_geom_bond_atom_site_label_2
_geom_bond_distance
_geom_bond_site_symmetry_2
Hf0 Sb0 2.959040 1_545
Hf0 Sb3 2.959889 1_455
Hf0 Sb2 3.055960 1_555
Hf0 Sb2 3.055960 1_556
Hf1 Sb2 2.902201 1_555
Hf1 Sb1 2.955576 1_555
Hf1 Sb4 2.967939 1_555
Hf2 Sb0 2.945329 1_555
Hf2 Sb3 3.012197 1_565
Hf2 Sb1 3.061872 1_556
Hf2 Sb1 3.061872 1_555
Hf3 Sb2 2.975337 1_555
Hf3 Sb1 3.008011 1_555
Hf3 Sb0 3.029282 1_555
Hf3 Sb3 3.044948 1_455
Hf3 Sb4 3.050915 1_455
Hf4 Sb2 2.979599 1_555
Hf4 Sb4 3.009780 1_555
Hf4 Sb3 3.023677 1_555
Hf4 Sb0 3.027499 1_545
Hf4 Sb1 3.044097 1_545
Hf5 Sb2 2.975337 1_556
Hf5 Sb1 3.008011 1_556
Hf5 Sb0 3.029282 1_555
Hf5 Sb3 3.044948 1_455
Hf5 Sb4 3.050915 1_456
Hf6 Sb2 2.979599 1_556
Hf6 Sb4 3.009780 1_556
Hf6 Sb3 3.023677 1_555
Hf6 Sb0 3.027499 1_545
Hf6 Sb1 3.044097 1_546
Ga0 Hf2 2.698412 1_445
Ga0 Hf1 2.703187 1_445
Ga0 Zr0 2.707397 1_555
Ga0 Zr2 2.714824 1_555
Ga0 Zr1 2.715405 1_445
Ga0 Hf0 2.740023 1_555
Ga1 Hf0 2.840861 1_555
Ga1 Hf2 2.850983 1_555
Ga1 Zr1 2.882576 1_555
Ga1 Hf5 2.971543 1_555
Ga1 Hf3 2.971543 1_555
Ga1 Hf6 2.981280 1_555
Ga1 Hf4 2.981280 1_555
Ga1 Hf1 3.077125 1_555
Ga1 Hf1 3.077125 1_556
Ga2 Hf2 2.698412 1_445
Ga2 Hf1 2.703187 1_446
Ga2 Zr0 2.707397 1_556
Ga2 Zr2 2.714824 1_556
Ga2 Zr1 2.715405 1_445
Ga2 Hf0 2.740023 1_555
Sb0 Zr1 3.008769 1_455
Sb0 Zr2 3.062882 1_566
Sb0 Zr2 3.062882 1_565
Sb1 Zr2 2.951992 1_565
Sb1 Zr0 2.966112 1_665
Sb2 Zr2 2.989129 1_555
Sb2 Zr0 2.999351 1_555
Sb3 Zr1 2.963496 1_555
Sb3 Zr0 3.053069 1_655
Sb3 Zr0 3.053069 1_656
Sb4 Zr0 2.956081 1_655
Sb4 Zr2 2.969222 1_665
Sb4 Zr1 3.056289 1_555
Sb4 Zr1 3.056289 1_554
