# generated using pymatgen
data_Rb2Nb3Br7O5
_symmetry_space_group_name_H-M   'P 1'
_cell_length_a   10.09335452
_cell_length_b   10.09343131
_cell_length_c   11.47066386
_cell_angle_alpha   71.81911600
_cell_angle_beta   71.81923685
_cell_angle_gamma   52.49754249
_symmetry_Int_Tables_number   1
_chemical_formula_structural   Rb2Nb3Br7O5
_chemical_formula_sum   'Rb4 Nb6 Br14 O10'
_cell_volume   869.16617171
_cell_formula_units_Z   2
loop_
 _symmetry_equiv_pos_site_id
 _symmetry_equiv_pos_as_xyz
  1  'x, y, z'
loop_
 _atom_site_type_symbol
 _atom_site_label
 _atom_site_symmetry_multiplicity
 _atom_site_fract_x
 _atom_site_fract_y
 _atom_site_fract_z
 _atom_site_occupancy
  Rb  Rb0  1  0.75820884  0.84772102  0.85657532  1
  Rb  Rb1  1  0.15227944  0.24179058  0.64342396  1
  Rb  Rb2  1  0.24179116  0.15227898  0.14342468  1
  Rb  Rb3  1  0.84772056  0.75820942  0.35657604  1
  Nb  Nb0  1  0.21634208  0.78818729  0.52320499  1
  Nb  Nb1  1  0.21181311  0.78365825  0.97679383  1
  Nb  Nb2  1  0.78365792  0.21181271  0.47679501  1
  Nb  Nb3  1  0.78818689  0.21634175  0.02320617  1
  Nb  Nb4  1  0.46673183  0.53326603  0.25000214  1
  Nb  Nb5  1  0.53326817  0.46673397  0.74999786  1
  Br  Br0  1  0.06247746  0.63638398  0.61987785  1
  Br  Br1  1  0.36361435  0.93752107  0.88011962  1
  Br  Br2  1  0.93752254  0.36361602  0.38012215  1
  Br  Br3  1  0.63638565  0.06247893  0.11988038  1
  Br  Br4  1  0.36982690  0.93840396  0.45200823  1
  Br  Br5  1  0.06158437  0.63018834  0.04800501  1
  Br  Br6  1  0.63017310  0.06159604  0.54799177  1
  Br  Br7  1  0.93841563  0.36981166  0.95199499  1
  Br  Br8  1  0.28887480  0.41070512  0.33121847  1
  Br  Br9  1  0.58929639  0.71111560  0.16877661  1
  Br  Br10  1  0.71112520  0.58929488  0.66878153  1
  Br  Br11  1  0.41070361  0.28888440  0.83122339  1
  Br  Br12  1  0.07741524  0.92258252  0.74999970  1
  Br  Br13  1  0.92258476  0.07741748  0.25000030  1
  O  O0  1  0.29298042  0.70880432  0.37782093  1
  O  O1  1  0.29119662  0.70702250  0.12217784  1
  O  O2  1  0.70701958  0.29119568  0.62217907  1
  O  O3  1  0.70880338  0.29297750  0.87782216  1
  O  O4  1  0.39497194  0.60667861  0.62691464  1
  O  O5  1  0.39332055  0.60502986  0.87308615  1
  O  O6  1  0.60502806  0.39332139  0.37308536  1
  O  O7  1  0.60667945  0.39497014  0.12691385  1
  O  O8  1  0.00000000  0.00000000  0.50000000  1
  O  O9  1  0.00000000  0.00000000  0.00000000  1
loop_
_geom_bond_atom_site_label_1
_geom_bond_atom_site_label_2
_geom_bond_distance
_geom_bond_site_symmetry_2
Nb0 O0 1.815380 1_555
Nb0 O8 1.932128 1_565
Nb0 O4 1.994705 1_555
Nb1 O1 1.815379 1_556
Nb1 O9 1.932134 1_566
Nb1 O5 1.994690 1_555
Nb2 O2 1.815380 1_555
Nb2 O8 1.932128 1_655
Nb2 O6 1.994705 1_555
Nb3 O3 1.815379 1_554
Nb3 O9 1.932134 1_655
Nb3 O7 1.994690 1_555
Nb4 O6 1.876589 1_555
Nb4 O7 1.876642 1_555
Nb4 O0 2.144207 1_555
Nb4 O1 2.144228 1_555
Nb5 O4 1.876589 1_555
Nb5 O5 1.876642 1_555
Nb5 O2 2.144207 1_555
Nb5 O3 2.144228 1_555
Br0 Nb0 2.598375 1_555
Br0 Rb0 3.433339 1_455
Br0 Rb1 3.441391 1_555
Br0 Rb3 3.722223 1_455
Br1 Nb1 2.598344 1_555
Br1 Rb1 3.433312 1_565
Br1 Rb0 3.441383 1_555
Br1 Rb2 3.722287 1_566
Br2 Nb2 2.598375 1_555
Br2 Rb2 3.433339 1_655
Br2 Rb3 3.441391 1_555
Br2 Rb1 3.722223 1_655
Br3 Nb3 2.598344 1_555
Br3 Rb3 3.433312 1_545
Br3 Rb2 3.441383 1_555
Br3 Rb0 3.722287 1_544
Br4 Nb0 2.581378 1_555
Br4 Rb1 3.466945 1_565
Br4 Rb2 3.680864 1_565
Br4 Rb3 3.877941 1_555
Br5 Nb1 2.581344 1_554
Br5 Rb0 3.466971 1_454
Br5 Rb3 3.680693 1_455
Br5 Rb2 3.878079 1_555
Br6 Nb2 2.581378 1_555
Br6 Rb3 3.466945 1_545
Br6 Rb0 3.680864 1_545
Br6 Rb1 3.877941 1_555
Br7 Nb3 2.581344 1_556
Br7 Rb2 3.466971 1_656
Br7 Rb1 3.680693 1_655
Br7 Rb0 3.878079 1_555
Br8 Nb4 2.561642 1_555
Br8 Rb3 3.609173 1_455
Br8 Rb1 3.688280 1_555
Br9 Nb4 2.561608 1_555
Br9 Rb2 3.609245 1_565
Br9 Rb0 3.688272 1_554
Br10 Nb5 2.561642 1_555
Br10 Rb1 3.609173 1_655
Br10 Rb3 3.688280 1_555
Br11 Nb5 2.561608 1_555
Br11 Rb0 3.609245 1_545
Br11 Rb2 3.688272 1_556
Br12 Nb1 2.860742 1_555
Br12 Nb0 2.860744 1_555
Br12 Rb0 3.517913 1_455
Br12 Rb1 3.517964 1_565
Br13 Nb3 2.860742 1_555
Br13 Nb2 2.860744 1_555
Br13 Rb2 3.517913 1_655
Br13 Rb3 3.517964 1_545
