# generated using pymatgen
data_YTa4(NbSn3)2
_symmetry_space_group_name_H-M   'P 1'
_cell_length_a   5.76350037
_cell_length_b   5.76620627
_cell_length_c   9.61866009
_cell_angle_alpha   90.00000000
_cell_angle_beta   90.00000000
_cell_angle_gamma   120.01553285
_symmetry_Int_Tables_number   1
_chemical_formula_structural   YTa4(NbSn3)2
_chemical_formula_sum   'Y1 Ta4 Nb2 Sn6'
_cell_volume   276.79211362
_cell_formula_units_Z   1
loop_
 _symmetry_equiv_pos_site_id
 _symmetry_equiv_pos_as_xyz
  1  'x, y, z'
loop_
 _atom_site_type_symbol
 _atom_site_label
 _atom_site_symmetry_multiplicity
 _atom_site_fract_x
 _atom_site_fract_y
 _atom_site_fract_z
 _atom_site_occupancy
  Y  Y0  1  0.00000000  0.00000000  0.99940276  1
  Ta  Ta0  1  0.00000000  0.50000000  0.75090736  1
  Ta  Ta1  1  0.50000000  0.50000000  0.75079086  1
  Ta  Ta2  1  0.50000000  0.00000000  0.75079086  1
  Ta  Ta3  1  0.00000000  0.50000000  0.24964409  1
  Nb  Nb0  1  0.50000000  0.50000000  0.24961771  1
  Nb  Nb1  1  0.50000000  0.00000000  0.24961771  1
  Sn  Sn0  1  0.66784808  0.33392404  0.50053440  1
  Sn  Sn1  1  0.33215192  0.66607596  0.50053440  1
  Sn  Sn2  1  0.66705659  0.33352779  0.99984050  1
  Sn  Sn3  1  0.33294341  0.66647221  0.99984050  1
  Sn  Sn4  1  0.00000000  0.00000000  0.67279229  1
  Sn  Sn5  1  0.00000000  0.00000000  0.32568455  1
loop_
_geom_bond_atom_site_label_1
_geom_bond_atom_site_label_2
_geom_bond_distance
_geom_bond_site_symmetry_2
Nb0 Ta3 2.881750 1_555
Nb0 Ta3 2.881750 1_655
Nb0 Nb1 2.883103 1_555
Nb0 Nb1 2.883103 1_565
Nb0 Sn3 2.923227 1_554
Nb0 Sn2 2.923227 1_554
Nb0 Sn1 2.933366 1_555
Nb0 Sn0 2.933366 1_555
Nb0 Sn5 2.973182 1_665
Nb0 Sn5 2.973182 1_555
Nb1 Ta3 2.881750 1_655
Nb1 Ta3 2.881750 1_545
Nb1 Sn2 2.923224 1_554
Nb1 Sn3 2.923224 1_544
Nb1 Sn0 2.933366 1_555
Nb1 Sn1 2.933366 1_545
Nb1 Sn5 2.973182 1_655
Nb1 Sn5 2.973182 1_555
Sn0 Ta0 2.923592 1_655
Sn0 Ta3 2.927693 1_655
Sn0 Ta2 2.928143 1_555
Sn0 Ta1 2.928143 1_555
Sn1 Ta0 2.923592 1_555
Sn1 Ta3 2.927693 1_555
Sn1 Ta2 2.928143 1_565
Sn1 Ta1 2.928143 1_555
Sn2 Ta0 2.914445 1_655
Sn2 Ta2 2.917475 1_555
Sn2 Ta1 2.917478 1_555
Sn2 Ta3 2.921328 1_656
Sn2 Y0 3.327628 1_655
Sn2 Y0 3.327633 1_665
Sn2 Y0 3.328986 1_555
Sn3 Ta0 2.914445 1_555
Sn3 Ta2 2.917475 1_565
Sn3 Ta1 2.917478 1_555
Sn3 Ta3 2.921328 1_556
Sn3 Y0 3.327628 1_565
Sn3 Y0 3.327633 1_555
Sn3 Y0 3.328986 1_665
Sn4 Ta1 2.977809 1_555
Sn4 Ta1 2.977809 1_445
Sn4 Ta2 2.977809 1_555
Sn4 Ta2 2.977809 1_455
Sn4 Ta0 2.979401 1_555
Sn4 Ta0 2.979401 1_545
Sn4 Y0 3.141555 1_555
Sn5 Ta3 2.974431 1_555
Sn5 Ta3 2.974431 1_545
Sn5 Y0 3.138394 1_554
