# generated using pymatgen
data_ScBe4Co
_symmetry_space_group_name_H-M   'P 1'
_cell_length_a   4.40945697
_cell_length_b   4.40945769
_cell_length_c   4.40945834
_cell_angle_alpha   60.00001000
_cell_angle_beta   60.00000458
_cell_angle_gamma   60.00000847
_symmetry_Int_Tables_number   1
_chemical_formula_structural   ScBe4Co
_chemical_formula_sum   'Sc1 Be4 Co1'
_cell_volume   60.62344483
_cell_formula_units_Z   1
loop_
 _symmetry_equiv_pos_site_id
 _symmetry_equiv_pos_as_xyz
  1  'x, y, z'
loop_
 _atom_site_type_symbol
 _atom_site_label
 _atom_site_symmetry_multiplicity
 _atom_site_fract_x
 _atom_site_fract_y
 _atom_site_fract_z
 _atom_site_occupancy
  Sc  Sc0  1  0.25000000  0.25000000  0.25000000  1
  Be  Be0  1  0.62733601  0.62733601  0.11799297  1
  Be  Be1  1  0.62733601  0.11799297  0.62733601  1
  Be  Be2  1  0.11799297  0.62733601  0.62733601  1
  Be  Be3  1  0.62733601  0.62733601  0.62733601  1
  Co  Co0  1  0.00000000  0.00000000  0.00000000  1
loop_
_geom_bond_atom_site_label_1
_geom_bond_atom_site_label_2
_geom_bond_distance
_geom_bond_site_symmetry_2
Be0 Be2 2.163531 1_654
Be0 Be3 2.163531 1_554
Be0 Be1 2.163532 1_564
Be0 Be2 2.245927 1_555
Be0 Be3 2.245927 1_555
Be0 Be1 2.245927 1_555
Be0 Co0 2.580999 1_665
Be0 Co0 2.581003 1_565
Be0 Co0 2.581003 1_655
Be0 Sc0 2.589783 1_655
Be0 Sc0 2.589783 1_565
Be0 Sc0 2.589787 1_555
Be1 Be3 2.163531 1_545
Be1 Be2 2.163531 1_645
Be1 Be3 2.245927 1_555
Be1 Be2 2.245927 1_555
Be1 Co0 2.580999 1_656
Be1 Co0 2.581003 1_556
Be1 Co0 2.581003 1_655
Be1 Sc0 2.589783 1_655
Be1 Sc0 2.589784 1_556
Be1 Sc0 2.589787 1_555
Be2 Be3 2.163531 1_455
Be2 Be3 2.245926 1_555
Be2 Co0 2.580999 1_566
Be2 Co0 2.581003 1_556
Be2 Co0 2.581004 1_565
Be2 Sc0 2.589783 1_565
Be2 Sc0 2.589784 1_556
Be2 Sc0 2.589787 1_555
Be3 Co0 2.581001 1_566
Be3 Co0 2.581001 1_665
Be3 Co0 2.581002 1_656
Be3 Sc0 2.589785 1_655
Be3 Sc0 2.589785 1_556
Be3 Sc0 2.589785 1_565
Co0 Sc0 2.700230 1_455
Co0 Sc0 2.700230 1_555
Co0 Sc0 2.700231 1_545
Co0 Sc0 2.700231 1_554
