# generated using pymatgen
data_Sc6Ti4Al12Rh7
_symmetry_space_group_name_H-M   'P 1'
_cell_length_a   8.76305890
_cell_length_b   8.76305885
_cell_length_c   8.76305923
_cell_angle_alpha   60.00000229
_cell_angle_beta   60.00000245
_cell_angle_gamma   59.99999933
_symmetry_Int_Tables_number   1
_chemical_formula_structural   Sc6Ti4Al12Rh7
_chemical_formula_sum   'Sc6 Ti4 Al12 Rh7'
_cell_volume   475.83044010
_cell_formula_units_Z   1
loop_
 _symmetry_equiv_pos_site_id
 _symmetry_equiv_pos_as_xyz
  1  'x, y, z'
loop_
 _atom_site_type_symbol
 _atom_site_label
 _atom_site_symmetry_multiplicity
 _atom_site_fract_x
 _atom_site_fract_y
 _atom_site_fract_z
 _atom_site_occupancy
  Sc  Sc0  1  0.70368591  0.29631409  0.29631409  1
  Sc  Sc1  1  0.70368591  0.29631409  0.70368591  1
  Sc  Sc2  1  0.70368591  0.70368591  0.29631409  1
  Sc  Sc3  1  0.29631409  0.70368591  0.70368591  1
  Sc  Sc4  1  0.29631409  0.70368591  0.29631409  1
  Sc  Sc5  1  0.29631409  0.29631409  0.70368591  1
  Ti  Ti0  1  0.64187527  0.11937458  0.11937458  1
  Ti  Ti1  1  0.11937458  0.64187527  0.11937458  1
  Ti  Ti2  1  0.11937458  0.11937458  0.64187527  1
  Ti  Ti3  1  0.11937458  0.11937458  0.11937458  1
  Al  Al0  1  0.36049862  0.87983413  0.87983413  1
  Al  Al1  1  0.87983413  0.36049862  0.87983413  1
  Al  Al2  1  0.87983413  0.87983413  0.36049862  1
  Al  Al3  1  0.87983413  0.87983413  0.87983413  1
  Al  Al4  1  0.99951937  0.33349388  0.33349388  1
  Al  Al5  1  0.33349388  0.99951937  0.33349388  1
  Al  Al6  1  0.33349388  0.33349388  0.99951937  1
  Al  Al7  1  0.33349388  0.33349388  0.33349388  1
  Al  Al8  1  0.99473876  0.66842075  0.66842075  1
  Al  Al9  1  0.66842075  0.99473876  0.66842075  1
  Al  Al10  1  0.66842075  0.66842075  0.99473876  1
  Al  Al11  1  0.66842075  0.66842075  0.66842075  1
  Rh  Rh0  1  0.00000000  0.00000000  0.00000000  1
  Rh  Rh1  1  0.49842013  0.00157987  0.00157987  1
  Rh  Rh2  1  0.49842013  0.00157987  0.49842013  1
  Rh  Rh3  1  0.49842013  0.49842013  0.00157987  1
  Rh  Rh4  1  0.00157987  0.49842013  0.49842013  1
  Rh  Rh5  1  0.00157987  0.49842013  0.00157987  1
  Rh  Rh6  1  0.00157987  0.00157987  0.49842013  1
loop_
_geom_bond_atom_site_label_1
_geom_bond_atom_site_label_2
_geom_bond_distance
_geom_bond_site_symmetry_2
Sc0 Ti3 3.030756 1_655
Sc0 Ti0 3.030762 1_555
Sc0 Sc4 3.569823 1_555
Sc0 Sc2 3.569823 1_555
Sc0 Sc1 3.569823 1_555
Sc0 Sc5 3.569823 1_555
Sc1 Ti2 3.030755 1_655
Sc1 Ti0 3.030755 1_556
Sc1 Sc3 3.569823 1_555
Sc1 Sc5 3.569823 1_555
Sc1 Sc2 3.569823 1_555
Sc2 Ti0 3.030755 1_565
Sc2 Ti1 3.030755 1_655
Sc2 Sc4 3.569823 1_555
Sc2 Sc3 3.569823 1_555
Sc3 Ti2 3.030755 1_565
Sc3 Ti1 3.030755 1_556
Sc3 Sc5 3.569823 1_555
Sc3 Sc4 3.569823 1_555
Sc4 Ti3 3.030756 1_565
Sc4 Ti1 3.030762 1_555
Sc4 Sc5 3.569823 1_555
Sc5 Ti3 3.030756 1_556
Sc5 Ti2 3.030762 1_555
Al0 Rh0 2.579370 1_566
Al0 Rh1 2.730240 1_566
Al0 Rh3 2.730247 1_556
Al0 Rh2 2.730247 1_565
Al0 Al10 2.753123 1_555
Al0 Al11 2.753123 1_555
Al0 Al9 2.753124 1_555
Al0 Ti3 2.968618 1_566
Al0 Ti2 2.968631 1_565
Al0 Ti1 2.968631 1_556
Al0 Sc5 3.033280 1_565
Al0 Sc4 3.033280 1_556
Al0 Sc3 3.033287 1_555
Al1 Rh0 2.579370 1_656
Al1 Rh5 2.730240 1_656
Al1 Rh3 2.730247 1_556
Al1 Rh4 2.730247 1_655
Al1 Al10 2.753123 1_555
Al1 Al11 2.753123 1_555
Al1 Al8 2.753124 1_555
Al1 Ti3 2.968618 1_656
Al1 Ti2 2.968631 1_655
Al1 Ti0 2.968631 1_556
Al1 Sc5 3.033280 1_655
Al1 Sc0 3.033280 1_556
Al1 Sc1 3.033287 1_555
Al2 Rh0 2.579371 1_665
Al2 Rh6 2.730240 1_665
Al2 Rh4 2.730247 1_655
Al2 Rh2 2.730247 1_565
Al2 Al8 2.753124 1_555
Al2 Al9 2.753124 1_555
Al2 Ti3 2.968618 1_665
Al2 Ti0 2.968631 1_565
Al2 Ti1 2.968631 1_655
Al2 Sc0 3.033280 1_565
Al2 Sc4 3.033280 1_655
Al2 Sc2 3.033287 1_555
Al3 Rh0 2.579363 1_666
Al3 Rh5 2.730247 1_656
Al3 Rh1 2.730247 1_566
Al3 Rh6 2.730247 1_665
Al3 Al8 2.753123 1_555
Al3 Al9 2.753123 1_555
Al3 Ti0 2.968618 1_566
Al3 Ti1 2.968618 1_656
Al3 Ti2 2.968618 1_665
Al3 Sc1 3.033281 1_565
Al3 Sc3 3.033281 1_655
Al3 Sc2 3.033281 1_556
Al4 Rh4 2.513729 1_655
Al4 Rh6 2.513737 1_655
Al4 Rh5 2.513737 1_655
Al4 Ti1 2.779131 1_655
Al4 Ti2 2.779131 1_655
Al4 Ti3 2.779145 1_655
Al4 Al5 2.926638 1_645
Al4 Al7 2.926638 1_655
Al4 Al6 2.926638 1_654
Al4 Sc2 2.954361 1_555
Al4 Sc1 2.954361 1_555
Al4 Sc0 2.954366 1_555
Al5 Rh2 2.513729 1_565
Al5 Rh6 2.513737 1_565
Al5 Rh1 2.513737 1_565
Al5 Ti0 2.779131 1_565
Al5 Ti2 2.779131 1_565
Al5 Ti3 2.779145 1_565
Al5 Al7 2.926638 1_565
Al5 Al6 2.926638 1_564
Al5 Sc2 2.954361 1_555
Al5 Sc3 2.954361 1_555
Al5 Sc4 2.954366 1_555
Al6 Rh3 2.513729 1_556
Al6 Rh1 2.513737 1_556
Al6 Rh5 2.513737 1_556
Al6 Ti1 2.779131 1_556
Al6 Ti0 2.779131 1_556
Al6 Ti3 2.779145 1_556
Al6 Al7 2.926638 1_556
Al6 Sc3 2.954361 1_555
Al6 Sc1 2.954361 1_555
Al6 Sc5 2.954366 1_555
Al7 Rh2 2.513734 1_555
Al7 Rh4 2.513734 1_555
Al7 Rh3 2.513734 1_555
Al7 Ti1 2.779140 1_555
Al7 Ti0 2.779140 1_555
Al7 Ti2 2.779140 1_555
Al7 Sc4 2.954358 1_555
Al7 Sc0 2.954358 1_555
Al7 Sc5 2.954358 1_555
Al8 Rh6 2.546132 1_665
Al8 Rh5 2.546132 1_656
Al8 Rh4 2.546139 1_655
Al8 Al9 2.859544 1_555
Al8 Sc3 2.983931 1_655
Al8 Sc5 2.983937 1_655
Al8 Sc4 2.983937 1_655
Al9 Rh6 2.546132 1_665
Al9 Rh1 2.546132 1_566
Al9 Rh2 2.546139 1_565
Al9 Sc1 2.983931 1_565
Al9 Sc5 2.983937 1_565
Al9 Sc0 2.983937 1_565
Al10 Rh1 2.546131 1_566
Al10 Rh5 2.546131 1_656
Al10 Rh3 2.546139 1_556
Al10 Al3 2.753123 1_555
Al10 Al11 2.859544 1_555
Al10 Al9 2.859544 1_555
Al10 Al8 2.859544 1_555
Al10 Sc2 2.983931 1_556
Al10 Sc0 2.983937 1_556
Al10 Sc4 2.983937 1_556
Al11 Rh2 2.546134 1_565
Al11 Rh4 2.546134 1_655
Al11 Rh3 2.546134 1_556
Al11 Al2 2.753124 1_555
Al11 Al9 2.859544 1_555
Al11 Al8 2.859544 1_555
Al11 Sc1 2.983940 1_555
Al11 Sc3 2.983940 1_555
Al11 Sc2 2.983940 1_555
Rh0 Ti3 2.562378 1_555
Rh0 Ti1 2.562385 1_545
Rh0 Ti0 2.562385 1_455
Rh0 Ti2 2.562385 1_554
Rh1 Ti0 2.715172 1_555
Rh1 Ti3 2.715180 1_555
Rh1 Sc2 3.150987 1_545
Rh1 Sc5 3.150987 1_554
Rh1 Sc4 3.150987 1_545
Rh1 Sc1 3.150987 1_554
Rh2 Ti2 2.715179 1_555
Rh2 Ti0 2.715179 1_555
Rh2 Sc2 3.150987 1_545
Rh2 Sc5 3.150987 1_555
Rh2 Sc0 3.150987 1_555
Rh2 Sc3 3.150987 1_545
Rh3 Ti0 2.715179 1_555
Rh3 Ti1 2.715179 1_555
Rh3 Sc4 3.150987 1_555
Rh3 Sc0 3.150987 1_555
Rh3 Sc3 3.150987 1_554
Rh3 Sc1 3.150987 1_554
Rh4 Ti2 2.715179 1_555
Rh4 Ti1 2.715179 1_555
Rh4 Sc2 3.150987 1_455
Rh4 Sc5 3.150987 1_555
Rh4 Sc4 3.150987 1_555
Rh4 Sc1 3.150987 1_455
Rh5 Ti1 2.715172 1_555
Rh5 Ti3 2.715180 1_555
Rh5 Sc2 3.150987 1_455
Rh5 Sc5 3.150987 1_554
Rh5 Sc0 3.150987 1_455
Rh5 Sc3 3.150987 1_554
Rh6 Ti2 2.715172 1_555
Rh6 Ti3 2.715180 1_555
Rh6 Sc4 3.150987 1_545
Rh6 Sc0 3.150987 1_455
Rh6 Sc3 3.150987 1_545
Rh6 Sc1 3.150987 1_455
