# generated using pymatgen
data_Lu(Hf3Sn2)3
_symmetry_space_group_name_H-M   'P 1'
_cell_length_a   8.46396345
_cell_length_b   8.46403103
_cell_length_c   5.74507840
_cell_angle_alpha   90.00000000
_cell_angle_beta   90.00000000
_cell_angle_gamma   120.77987242
_symmetry_Int_Tables_number   1
_chemical_formula_structural   Lu(Hf3Sn2)3
_chemical_formula_sum   'Lu1 Hf9 Sn6'
_cell_volume   353.59880148
_cell_formula_units_Z   1
loop_
 _symmetry_equiv_pos_site_id
 _symmetry_equiv_pos_as_xyz
  1  'x, y, z'
loop_
 _atom_site_type_symbol
 _atom_site_label
 _atom_site_symmetry_multiplicity
 _atom_site_fract_x
 _atom_site_fract_y
 _atom_site_fract_z
 _atom_site_occupancy
  Lu  Lu0  1  0.76492407  0.76495183  0.75000000  1
  Hf  Hf0  1  0.25216661  0.00229421  0.75000000  1
  Hf  Hf1  1  0.00229177  0.25216087  0.75000000  1
  Hf  Hf2  1  0.23861394  0.23861903  0.25000000  1
  Hf  Hf3  1  0.74930372  0.99964900  0.25000000  1
  Hf  Hf4  1  0.99965354  0.74932458  0.25000000  1
  Hf  Hf5  1  0.66494013  0.33267627  0.00040844  1
  Hf  Hf6  1  0.33269867  0.66495769  0.00040926  1
  Hf  Hf7  1  0.33269867  0.66495769  0.49959074  1
  Hf  Hf8  1  0.66494013  0.33267627  0.49959156  1
  Sn  Sn0  1  0.39239242  0.39238473  0.75000000  1
  Sn  Sn1  1  0.60747544  0.00174607  0.75000000  1
  Sn  Sn2  1  0.00176150  0.60747138  0.75000000  1
  Sn  Sn3  1  0.60654221  0.60655692  0.25000000  1
  Sn  Sn4  1  0.39055186  0.99903619  0.25000000  1
  Sn  Sn5  1  0.99904732  0.39053928  0.25000000  1
loop_
_geom_bond_atom_site_label_1
_geom_bond_atom_site_label_2
_geom_bond_distance
_geom_bond_site_symmetry_2
Lu0 Sn1 2.920021 1_565
Lu0 Sn2 2.920568 1_655
Lu0 Sn0 3.116014 1_555
Lu0 Sn3 3.163303 1_555
Lu0 Sn3 3.163303 1_556
Hf0 Sn0 2.880865 1_555
Hf0 Sn2 2.900093 1_545
Hf0 Sn1 3.009698 1_555
Hf0 Sn4 3.107606 1_546
Hf0 Sn4 3.107606 1_545
Hf0 Hf2 3.535607 1_555
Hf0 Hf2 3.535607 1_556
Hf0 Lu0 3.544550 1_445
Hf1 Sn0 2.880922 1_555
Hf1 Sn1 2.900044 1_455
Hf1 Sn2 3.009659 1_555
Hf1 Sn5 3.107564 1_455
Hf1 Sn5 3.107564 1_456
Hf1 Hf2 3.535556 1_555
Hf1 Hf2 3.535556 1_556
Hf1 Lu0 3.544325 1_445
Hf2 Sn5 2.904043 1_455
Hf2 Sn4 2.904296 1_545
Hf2 Sn3 3.077403 1_555
Hf2 Sn0 3.147328 1_554
Hf2 Sn0 3.147328 1_555
Hf2 Hf4 3.559360 1_445
Hf2 Hf3 3.559445 1_445
Hf2 Hf8 3.573571 1_555
Hf2 Hf5 3.573571 1_555
Hf2 Hf7 3.573623 1_555
Hf2 Hf6 3.573623 1_555
Hf3 Sn5 2.873438 1_565
Hf3 Sn3 2.900906 1_555
Hf3 Sn4 3.033812 1_555
Hf3 Sn1 3.116831 1_565
Hf3 Sn1 3.116831 1_564
Hf3 Lu0 3.533254 1_555
Hf3 Lu0 3.533254 1_554
Hf4 Sn4 2.873433 1_655
Hf4 Sn3 2.901023 1_555
Hf4 Sn5 3.034147 1_555
Hf4 Sn2 3.116935 1_654
Hf4 Sn2 3.116935 1_655
Hf4 Lu0 3.533423 1_555
Hf4 Lu0 3.533423 1_554
Hf5 Hf8 2.867846 1_555
Hf5 Hf8 2.877232 1_554
Hf5 Sn4 2.951612 1_545
Hf5 Sn1 2.959301 1_554
Hf5 Sn2 2.969884 1_654
Hf5 Sn0 2.973162 1_554
Hf5 Sn3 2.974374 1_555
Hf5 Sn5 2.979155 1_555
Hf5 Lu0 3.606043 1_554
Hf6 Hf7 2.867837 1_555
Hf6 Hf7 2.877242 1_554
Hf6 Sn5 2.951732 1_455
Hf6 Sn2 2.959275 1_554
Hf6 Sn1 2.969692 1_564
Hf6 Sn0 2.973292 1_554
Hf6 Sn3 2.974100 1_555
Hf6 Sn4 2.978990 1_555
Hf6 Lu0 3.605612 1_554
Hf7 Sn5 2.951732 1_455
Hf7 Sn2 2.959275 1_555
Hf7 Sn1 2.969692 1_565
Hf7 Sn0 2.973292 1_555
Hf7 Sn3 2.974100 1_555
Hf7 Sn4 2.978990 1_555
Hf7 Lu0 3.605612 1_555
Hf8 Sn4 2.951612 1_545
Hf8 Sn1 2.959301 1_555
Hf8 Sn2 2.969884 1_655
Hf8 Sn0 2.973162 1_555
Hf8 Sn3 2.974374 1_555
Hf8 Sn5 2.979155 1_555
Hf8 Lu0 3.606043 1_555
Sn0 Sn3 3.385270 1_556
Sn0 Sn3 3.385270 1_555
