# generated using pymatgen
data_Nb4VGaSn2
_symmetry_space_group_name_H-M   'P 1'
_cell_length_a   7.91172376
_cell_length_b   7.91172369
_cell_length_c   7.91172342
_cell_angle_alpha   95.96152435
_cell_angle_beta   95.96152257
_cell_angle_gamma   142.39898205
_symmetry_Int_Tables_number   1
_chemical_formula_structural   Nb4VGaSn2
_chemical_formula_sum   'Nb8 V2 Ga2 Sn4'
_cell_volume   286.05155544
_cell_formula_units_Z   2
loop_
 _symmetry_equiv_pos_site_id
 _symmetry_equiv_pos_as_xyz
  1  'x, y, z'
loop_
 _atom_site_type_symbol
 _atom_site_label
 _atom_site_symmetry_multiplicity
 _atom_site_fract_x
 _atom_site_fract_y
 _atom_site_fract_z
 _atom_site_occupancy
  Nb  Nb0  1  0.78267005  0.92461805  0.70728910  1
  Nb  Nb1  1  0.92461805  0.21732995  0.14194799  1
  Nb  Nb2  1  0.07538195  0.78267005  0.85805201  1
  Nb  Nb3  1  0.21732995  0.07538195  0.29271090  1
  Nb  Nb4  1  0.57538195  0.71732995  0.29271090  1
  Nb  Nb5  1  0.42461805  0.28267005  0.70728910  1
  Nb  Nb6  1  0.28267005  0.57538195  0.85805201  1
  Nb  Nb7  1  0.71732995  0.42461805  0.14194799  1
  V  V0  1  0.25000000  0.75000000  0.50000000  1
  V  V1  1  0.75000000  0.25000000  0.50000000  1
  Ga  Ga0  1  0.75000000  0.75000000  0.00000000  1
  Ga  Ga1  1  0.25000000  0.25000000  0.00000000  1
  Sn  Sn0  1  0.33938810  0.83938810  0.17877820  1
  Sn  Sn1  1  0.83938810  0.66061190  0.50000000  1
  Sn  Sn2  1  0.16061190  0.33938810  0.50000000  1
  Sn  Sn3  1  0.66061190  0.16061190  0.82122180  1
loop_
_geom_bond_atom_site_label_1
_geom_bond_atom_site_label_2
_geom_bond_distance
_geom_bond_site_symmetry_2
Nb0 Sn3 2.814158 1_565
Nb0 Sn1 2.860135 1_555
Nb0 Sn2 2.997926 1_555
Nb0 Sn2 2.997930 1_665
Nb0 Nb6 3.008517 1_555
Nb0 Nb6 3.008522 1_665
Nb0 Nb4 3.105027 1_555
Nb1 Sn2 2.814164 1_655
Nb1 Sn3 2.860143 1_554
Nb1 Sn0 2.997921 1_655
Nb1 Sn0 2.997930 1_545
Nb1 Nb4 3.008517 1_545
Nb1 Nb4 3.008522 1_655
Nb1 Nb7 3.105012 1_555
Nb2 Sn1 2.814164 1_455
Nb2 Sn0 2.860143 1_556
Nb2 Sn3 2.997921 1_455
Nb2 Sn3 2.997930 1_565
Nb2 Nb5 3.008517 1_565
Nb2 Nb5 3.008522 1_455
Nb2 Nb6 3.105012 1_555
Nb3 Sn0 2.814158 1_545
Nb3 Sn2 2.860135 1_555
Nb3 Sn1 2.997926 1_555
Nb3 Sn1 2.997930 1_445
Nb3 Nb7 3.008517 1_555
Nb3 Nb7 3.008522 1_445
Nb3 Nb5 3.105027 1_555
Nb4 Sn0 2.814158 1_555
Nb4 Sn1 2.860135 1_555
Nb4 Sn2 2.997926 1_665
Nb4 Sn2 2.997930 1_555
Nb5 Sn3 2.814158 1_555
Nb5 Sn2 2.860135 1_555
Nb5 Sn1 2.997926 1_445
Nb5 Sn1 2.997930 1_555
Nb6 Sn2 2.814164 1_555
Nb6 Sn0 2.860143 1_556
Nb6 Sn3 2.997921 1_455
Nb6 Sn3 2.997930 1_565
Nb7 Sn1 2.814164 1_555
Nb7 Sn3 2.860143 1_554
Nb7 Sn0 2.997921 1_655
Nb7 Sn0 2.997930 1_545
V0 V1 2.549744 1_565
V0 V1 2.549744 1_455
Ga0 Ga1 2.549744 1_665
Ga0 Ga1 2.549744 1_555
Ga0 Nb4 2.749850 1_555
Ga0 Nb0 2.749850 1_554
Ga0 Nb5 2.749853 1_554
Ga0 Nb3 2.749853 1_665
Ga0 Nb2 2.749858 1_654
Ga0 Nb7 2.749858 1_555
Ga0 Nb1 2.749858 1_565
Ga0 Nb6 2.749858 1_554
Ga1 Nb5 2.749850 1_554
Ga1 Nb3 2.749850 1_555
Ga1 Nb4 2.749853 1_555
Ga1 Nb0 2.749853 1_444
Ga1 Nb1 2.749858 1_455
Ga1 Nb6 2.749858 1_554
Ga1 Nb2 2.749858 1_544
Ga1 Nb7 2.749858 1_555
Sn0 V0 2.722733 1_555
Sn0 V1 2.722738 1_565
Sn1 V1 2.722749 1_555
Sn1 V0 2.722749 1_655
Sn2 V0 2.722749 1_555
Sn2 V1 2.722749 1_455
Sn3 V1 2.722733 1_555
Sn3 V0 2.722738 1_545
