# generated using pymatgen
data_Cs6TiWSe8
_symmetry_space_group_name_H-M   'P 1'
_cell_length_a   10.34384695
_cell_length_b   10.42916070
_cell_length_c   11.79077583
_cell_angle_alpha   90.00000000
_cell_angle_beta   90.00000000
_cell_angle_gamma   90.00000000
_symmetry_Int_Tables_number   1
_chemical_formula_structural   Cs6TiWSe8
_chemical_formula_sum   'Cs12 Ti2 W2 Se16'
_cell_volume   1271.96109460
_cell_formula_units_Z   2
loop_
 _symmetry_equiv_pos_site_id
 _symmetry_equiv_pos_as_xyz
  1  'x, y, z'
loop_
 _atom_site_type_symbol
 _atom_site_label
 _atom_site_symmetry_multiplicity
 _atom_site_fract_x
 _atom_site_fract_y
 _atom_site_fract_z
 _atom_site_occupancy
  Cs  Cs0  1  0.54613955  0.20628372  0.05249035  1
  Cs  Cs1  1  0.04613955  0.29371628  0.44750965  1
  Cs  Cs2  1  0.45332852  0.79408805  0.52603522  1
  Cs  Cs3  1  0.95332852  0.70591195  0.97396478  1
  Cs  Cs4  1  0.45332852  0.79408805  0.97396478  1
  Cs  Cs5  1  0.95332852  0.70591195  0.52603522  1
  Cs  Cs6  1  0.54613955  0.20628372  0.44750965  1
  Cs  Cs7  1  0.04613955  0.29371628  0.05249035  1
  Cs  Cs8  1  0.64843427  0.42086610  0.75000000  1
  Cs  Cs9  1  0.14843427  0.07913390  0.75000000  1
  Cs  Cs10  1  0.35666910  0.58519813  0.25000000  1
  Cs  Cs11  1  0.85666910  0.91480187  0.25000000  1
  Ti  Ti0  1  0.27469163  0.02098745  0.25000000  1
  Ti  Ti1  1  0.77469163  0.47901255  0.25000000  1
  W  W0  1  0.72131209  0.98583814  0.75000000  1
  W  W1  1  0.22131209  0.51416186  0.75000000  1
  Se  Se0  1  0.83131765  0.05094564  0.58905638  1
  Se  Se1  1  0.33131765  0.44905436  0.91094362  1
  Se  Se2  1  0.16584312  0.95924509  0.07754429  1
  Se  Se3  1  0.66584312  0.54075491  0.42245571  1
  Se  Se4  1  0.16584312  0.95924509  0.42245571  1
  Se  Se5  1  0.66584312  0.54075491  0.07754429  1
  Se  Se6  1  0.83131765  0.05094564  0.91094362  1
  Se  Se7  1  0.33131765  0.44905436  0.58905638  1
  Se  Se8  1  0.51338765  0.07323748  0.75000000  1
  Se  Se9  1  0.01338765  0.42676252  0.75000000  1
  Se  Se10  1  0.48880775  0.93236890  0.25000000  1
  Se  Se11  1  0.98880775  0.56763110  0.25000000  1
  Se  Se12  1  0.70866730  0.76371434  0.75000000  1
  Se  Se13  1  0.20866730  0.73628566  0.75000000  1
  Se  Se14  1  0.29477553  0.24941381  0.25000000  1
  Se  Se15  1  0.79477553  0.25058619  0.25000000  1
loop_
_geom_bond_atom_site_label_1
_geom_bond_atom_site_label_2
_geom_bond_distance
_geom_bond_site_symmetry_2
Cs0 Se15 3.500168 1_555
Cs0 Se14 3.519371 1_555
Cs0 Se5 3.713261 1_555
Cs0 Se10 3.733055 1_545
Cs0 Se6 3.756524 1_554
Cs0 Se1 3.759458 1_554
Cs0 Se8 3.841966 1_554
Cs1 Se14 3.500168 1_555
Cs1 Se15 3.519371 1_455
Cs1 Se4 3.713261 1_545
Cs1 Se11 3.733055 1_455
Cs1 Se7 3.756524 1_555
Cs1 Se0 3.759458 1_455
Cs1 Se9 3.841966 1_555
Cs2 Se10 3.578737 1_555
Cs2 Se4 3.647093 1_555
Cs2 Se3 3.647483 1_555
Cs2 Se13 3.706944 1_555
Cs2 Se12 3.748279 1_555
Cs2 Se7 3.885038 1_555
Cs2 Se8 3.979318 1_565
Cs3 Se11 3.578737 1_556
Cs3 Se5 3.647093 1_556
Cs3 Se2 3.647483 1_656
Cs3 Se12 3.706944 1_555
Cs3 Se13 3.748279 1_655
Cs3 Se6 3.885038 1_565
Cs3 Se9 3.979318 1_655
Cs4 Se10 3.578737 1_556
Cs4 Se2 3.647093 1_556
Cs4 Se5 3.647483 1_556
Cs4 Se13 3.706944 1_555
Cs4 Se12 3.748279 1_555
Cs4 Se1 3.885038 1_555
Cs4 Se8 3.979318 1_565
Cs5 Se11 3.578737 1_555
Cs5 Se3 3.647093 1_555
Cs5 Se4 3.647483 1_655
Cs5 Se12 3.706944 1_555
Cs5 Se13 3.748279 1_655
Cs5 Se0 3.885038 1_565
Cs5 Se9 3.979318 1_655
Cs6 Se15 3.500168 1_555
Cs6 Se14 3.519371 1_555
Cs6 Se3 3.713261 1_555
Cs6 Se10 3.733055 1_545
Cs6 Se0 3.756524 1_555
Cs6 Se7 3.759458 1_555
Cs6 Se8 3.841966 1_555
Cs7 Se14 3.500168 1_555
Cs7 Se15 3.519371 1_455
Cs7 Se2 3.713261 1_545
Cs7 Se11 3.733055 1_455
Cs7 Se1 3.756524 1_554
Cs7 Se6 3.759458 1_454
Cs7 Se9 3.841966 1_554
Cs8 Se12 3.629495 1_555
Cs8 Se9 3.775523 1_655
Cs8 Se1 3.800954 1_555
Cs8 Se7 3.800954 1_555
Cs8 Se8 3.885280 1_555
Cs8 Se5 4.063352 1_556
Cs8 Se3 4.063352 1_555
Cs9 Se13 3.629495 1_545
Cs9 Se8 3.775523 1_555
Cs9 Se6 3.800954 1_455
Cs9 Se0 3.800954 1_455
Cs9 Se9 3.885280 1_555
Cs9 Se2 4.063352 1_546
Cs9 Se4 4.063352 1_545
Cs10 Se14 3.559989 1_555
Cs10 Se11 3.809510 1_455
Cs10 Se3 3.817986 1_555
Cs10 Se5 3.817986 1_555
Cs10 Se10 3.870099 1_555
Cs10 Se7 4.250493 1_555
Cs10 Se1 4.250493 1_554
Cs11 Se15 3.559989 1_565
Cs11 Se10 3.809510 1_555
Cs11 Se4 3.817986 1_655
Cs11 Se2 3.817986 1_655
Cs11 Se11 3.870099 1_555
Cs11 Se0 4.250493 1_565
Cs11 Se6 4.250493 1_564
Se0 W0 2.314500 1_545
Se1 W1 2.314500 1_555
Se2 Ti0 2.411840 1_565
Se3 Ti1 2.411840 1_555
Se4 Ti0 2.411840 1_565
Se5 Ti1 2.411840 1_555
Se6 W0 2.314500 1_545
Se7 W1 2.314500 1_555
Se8 W0 2.335918 1_545
Se9 W1 2.335918 1_555
Se10 Ti0 2.399885 1_565
Se11 Ti1 2.399885 1_555
Se12 W0 2.320254 1_555
Se13 W1 2.320254 1_555
Se14 Ti0 2.391336 1_555
Se15 Ti1 2.391336 1_555
