# generated using pymatgen
data_YCo4P3Rh
_symmetry_space_group_name_H-M   'P 1'
_cell_length_a   3.68728168
_cell_length_b   10.31649042
_cell_length_c   11.75734413
_cell_angle_alpha   90.00000000
_cell_angle_beta   90.00000000
_cell_angle_gamma   90.00000000
_symmetry_Int_Tables_number   1
_chemical_formula_structural   YCo4P3Rh
_chemical_formula_sum   'Y4 Co16 P12 Rh4'
_cell_volume   447.24709169
_cell_formula_units_Z   4
loop_
 _symmetry_equiv_pos_site_id
 _symmetry_equiv_pos_as_xyz
  1  'x, y, z'
loop_
 _atom_site_type_symbol
 _atom_site_label
 _atom_site_symmetry_multiplicity
 _atom_site_fract_x
 _atom_site_fract_y
 _atom_site_fract_z
 _atom_site_occupancy
  Y  Y0  1  0.25000000  0.91614741  0.20317367  1
  Y  Y1  1  0.75000000  0.08385259  0.79682633  1
  Y  Y2  1  0.75000000  0.41614741  0.29682633  1
  Y  Y3  1  0.25000000  0.58385259  0.70317367  1
  Co  Co0  1  0.25000000  0.09338976  0.98789008  1
  Co  Co1  1  0.75000000  0.90661024  0.01210992  1
  Co  Co2  1  0.75000000  0.59338976  0.51210992  1
  Co  Co3  1  0.25000000  0.40661024  0.48789008  1
  Co  Co4  1  0.25000000  0.27616067  0.67303515  1
  Co  Co5  1  0.75000000  0.72383933  0.32696485  1
  Co  Co6  1  0.75000000  0.77616067  0.82696485  1
  Co  Co7  1  0.25000000  0.22383933  0.17303515  1
  Co  Co8  1  0.25000000  0.61692546  0.20357648  1
  Co  Co9  1  0.75000000  0.38307454  0.79642352  1
  Co  Co10  1  0.75000000  0.11692546  0.29642352  1
  Co  Co11  1  0.25000000  0.88307454  0.70357648  1
  Co  Co12  1  0.25000000  0.03640453  0.43155005  1
  Co  Co13  1  0.75000000  0.96359547  0.56844995  1
  Co  Co14  1  0.75000000  0.53640453  0.06844995  1
  Co  Co15  1  0.25000000  0.46359547  0.93155005  1
  P  P0  1  0.25000000  0.07470440  0.61355942  1
  P  P1  1  0.75000000  0.92529560  0.38644058  1
  P  P2  1  0.75000000  0.57470440  0.88644058  1
  P  P3  1  0.25000000  0.42529560  0.11355942  1
  P  P4  1  0.25000000  0.22771887  0.36175781  1
  P  P5  1  0.75000000  0.77228113  0.63824219  1
  P  P6  1  0.75000000  0.72771887  0.13824219  1
  P  P7  1  0.25000000  0.27228113  0.86175781  1
  P  P8  1  0.25000000  0.90392628  0.89150140  1
  P  P9  1  0.75000000  0.09607372  0.10849860  1
  P  P10  1  0.75000000  0.40392628  0.60849860  1
  P  P11  1  0.25000000  0.59607372  0.39150140  1
  Rh  Rh0  1  0.25000000  0.78701635  0.49098552  1
  Rh  Rh1  1  0.75000000  0.21298365  0.50901448  1
  Rh  Rh2  1  0.75000000  0.28701635  0.00901448  1
  Rh  Rh3  1  0.25000000  0.71298365  0.99098552  1
loop_
_geom_bond_atom_site_label_1
_geom_bond_atom_site_label_2
_geom_bond_distance
_geom_bond_site_symmetry_2
Co0 P8 2.259373 1_545
Co0 P9 2.326070 1_556
Co0 P9 2.326070 1_456
Co0 P7 2.367534 1_555
Co0 Rh2 2.729632 1_556
Co0 Rh2 2.729632 1_456
Co0 Y1 2.907751 1_455
Co0 Y1 2.907751 1_555
Co0 Y0 3.122542 1_546
Co1 P9 2.259373 1_565
Co1 P8 2.326070 1_654
Co1 P8 2.326070 1_554
Co1 P6 2.367534 1_555
Co1 Rh3 2.729632 1_654
Co1 Rh3 2.729632 1_554
Co1 Y0 2.907751 1_555
Co1 Y0 2.907751 1_655
Co1 Y1 3.122542 1_564
Co2 P10 2.259373 1_555
Co2 P11 2.326070 1_655
Co2 P11 2.326070 1_555
Co2 P5 2.367534 1_555
Co2 Rh0 2.729632 1_655
Co2 Rh0 2.729632 1_555
Co2 Y3 2.907751 1_655
Co2 Y3 2.907751 1_555
Co2 Y2 3.122542 1_555
Co3 P11 2.259373 1_555
Co3 P10 2.326070 1_455
Co3 P10 2.326070 1_555
Co3 P4 2.367534 1_555
Co3 Rh1 2.729632 1_455
Co3 Rh1 2.729632 1_555
Co3 Y2 2.907751 1_555
Co3 Y2 2.907751 1_455
Co3 Y3 3.122542 1_555
Co4 P0 2.192808 1_555
Co4 P7 2.219238 1_555
Co4 P10 2.390005 1_555
Co4 P10 2.390005 1_455
Co4 Rh1 2.746401 1_455
Co4 Rh1 2.746401 1_555
Co4 Y1 3.074638 1_455
Co4 Y1 3.074638 1_555
Co4 Y3 3.194018 1_555
Co5 P1 2.192808 1_555
Co5 P6 2.219238 1_555
Co5 P11 2.390005 1_655
Co5 P11 2.390005 1_555
Co5 Rh0 2.746401 1_555
Co5 Rh0 2.746401 1_655
Co5 Y0 3.074638 1_655
Co5 Y0 3.074638 1_555
Co5 Y2 3.194018 1_555
Co6 P2 2.192808 1_555
Co6 P5 2.219238 1_555
Co6 P8 2.390005 1_655
Co6 P8 2.390005 1_555
Co6 Rh3 2.746401 1_555
Co6 Rh3 2.746401 1_655
Co6 Y3 3.074638 1_555
Co6 Y3 3.074638 1_655
Co6 Y1 3.194018 1_565
Co7 P3 2.192808 1_555
Co7 P4 2.219238 1_555
Co7 P9 2.390005 1_455
Co7 P9 2.390005 1_555
Co7 Rh2 2.746401 1_555
Co7 Rh2 2.746401 1_455
Co7 Y2 3.074638 1_455
Co7 Y2 3.074638 1_555
Co7 Y0 3.194018 1_545
Co8 P11 2.219945 1_555
Co8 P3 2.242421 1_555
Co8 P6 2.301201 1_555
Co8 P6 2.301201 1_455
Co8 Rh3 2.688787 1_554
Co8 Y2 2.981850 1_455
Co8 Y2 2.981850 1_555
Co8 Y0 3.086924 1_555
Co9 P10 2.219945 1_555
Co9 P2 2.242421 1_555
Co9 P7 2.301201 1_655
Co9 P7 2.301201 1_555
Co9 Rh2 2.688787 1_556
Co9 Y3 2.981850 1_555
Co9 Y3 2.981850 1_655
Co9 Y1 3.086924 1_555
Co10 P9 2.219945 1_555
Co10 P1 2.242421 1_545
Co10 P4 2.301201 1_555
Co10 P4 2.301201 1_655
Co10 Rh1 2.688787 1_555
Co10 Y0 2.981850 1_645
Co10 Y0 2.981850 1_545
Co10 Y2 3.086924 1_555
Co11 P8 2.219945 1_555
Co11 P0 2.242421 1_565
Co11 P5 2.301201 1_555
Co11 P5 2.301201 1_455
Co11 Rh0 2.688787 1_555
Co11 Y1 2.981850 1_465
Co11 Y1 2.981850 1_565
Co11 Y3 3.086924 1_555
Co12 P4 2.137475 1_555
Co12 P0 2.176119 1_555
Co12 P1 2.234771 1_445
Co12 P1 2.234771 1_545
Co12 Rh0 2.666023 1_545
Co12 Rh1 2.747186 1_455
Co12 Rh1 2.747186 1_555
Co12 Y0 2.957858 1_545
Co13 P5 2.137475 1_555
Co13 P1 2.176119 1_555
Co13 P0 2.234771 1_565
Co13 P0 2.234771 1_665
Co13 Rh1 2.666023 1_565
Co13 Rh0 2.747186 1_655
Co13 Rh0 2.747186 1_555
Co13 Y1 2.957858 1_565
Co14 P6 2.137475 1_555
Co14 P2 2.176119 1_554
Co14 P3 2.234771 1_655
Co14 P3 2.234771 1_555
Co14 Rh2 2.666023 1_555
Co14 Rh3 2.747186 1_654
Co14 Rh3 2.747186 1_554
Co14 Y2 2.957858 1_555
Co15 P7 2.137475 1_555
Co15 P3 2.176119 1_556
Co15 P2 2.234771 1_555
Co15 P2 2.234771 1_455
Co15 Rh3 2.666023 1_555
Co15 Rh2 2.747186 1_556
Co15 Rh2 2.747186 1_456
Co15 Y3 2.957858 1_555
P0 Rh1 2.635325 1_455
P0 Rh1 2.635325 1_555
P0 Y1 2.837391 1_555
P0 Y1 2.837391 1_455
P1 Rh0 2.635325 1_555
P1 Rh0 2.635325 1_655
P1 Y0 2.837391 1_555
P1 Y0 2.837391 1_655
P2 Rh3 2.635325 1_655
P2 Rh3 2.635325 1_555
P2 Y3 2.837391 1_555
P2 Y3 2.837391 1_655
P3 Rh2 2.635325 1_455
P3 Rh2 2.635325 1_555
P3 Y2 2.837391 1_455
P3 Y2 2.837391 1_555
P4 Rh1 2.533710 1_455
P4 Rh1 2.533710 1_555
P4 Y2 2.785795 1_455
P4 Y2 2.785795 1_555
P5 Rh0 2.533710 1_555
P5 Rh0 2.533710 1_655
P5 Y3 2.785795 1_655
P5 Y3 2.785795 1_555
P6 Rh3 2.533710 1_654
P6 Rh3 2.533710 1_554
P6 Y0 2.785795 1_555
P6 Y0 2.785795 1_655
P7 Rh2 2.533710 1_556
P7 Rh2 2.533710 1_456
P7 Y1 2.785795 1_455
P7 Y1 2.785795 1_555
P8 Rh3 2.290953 1_555
P8 Y1 2.843162 1_565
P8 Y1 2.843162 1_465
P9 Rh2 2.290953 1_555
P9 Y0 2.843162 1_545
P9 Y0 2.843162 1_645
P10 Rh1 2.290953 1_555
P10 Y3 2.843162 1_555
P10 Y3 2.843162 1_655
P11 Rh0 2.290953 1_555
P11 Y2 2.843162 1_455
P11 Y2 2.843162 1_555
Rh0 Y3 3.258347 1_555
Rh1 Y2 3.258347 1_555
Rh2 Y1 3.258347 1_554
Rh3 Y0 3.258347 1_556
