# generated using pymatgen
data_SrCo2PtO6
_symmetry_space_group_name_H-M   'P 1'
_cell_length_a   5.07016450
_cell_length_b   5.99833196
_cell_length_c   8.73599067
_cell_angle_alpha   89.99996282
_cell_angle_beta   89.99998918
_cell_angle_gamma   73.84102294
_symmetry_Int_Tables_number   1
_chemical_formula_structural   SrCo2PtO6
_chemical_formula_sum   'Sr2 Co4 Pt2 O12'
_cell_volume   255.18726647
_cell_formula_units_Z   2
loop_
 _symmetry_equiv_pos_site_id
 _symmetry_equiv_pos_as_xyz
  1  'x, y, z'
loop_
 _atom_site_type_symbol
 _atom_site_label
 _atom_site_symmetry_multiplicity
 _atom_site_fract_x
 _atom_site_fract_y
 _atom_site_fract_z
 _atom_site_occupancy
  Sr  Sr0  1  0.00000000  0.49999900  0.16709164  1
  Sr  Sr1  1  0.50000100  0.50000000  0.66705681  1
  Co  Co0  1  0.50000000  1.00000000  0.83422713  1
  Co  Co1  1  0.50000000  0.00000000  0.49901065  1
  Co  Co2  1  1.00000000  1.00000000  0.33422858  1
  Co  Co3  1  0.00000000  0.00000000  0.99901291  1
  Pt  Pt0  1  1.00000000  0.00000000  0.66657846  1
  Pt  Pt1  1  0.50000000  0.00000000  0.16658070  1
  O  O0  1  0.78992364  0.17085234  0.16662468  1
  O  O1  1  0.28992284  0.17085223  0.66661161  1
  O  O2  1  0.21007536  0.82914766  0.16662568  1
  O  O3  1  0.71007716  0.82914777  0.66661161  1
  O  O4  1  0.26764319  0.17385215  0.99342393  1
  O  O5  1  0.76764358  0.17385000  0.49341393  1
  O  O6  1  0.26771100  0.17373581  0.33985411  1
  O  O7  1  0.76771457  0.17374378  0.83984530  1
  O  O8  1  0.73228900  0.82626419  0.33985411  1
  O  O9  1  0.23228543  0.82625722  0.83984530  1
  O  O10  1  0.73235681  0.82614685  0.99342393  1
  O  O11  1  0.23235642  0.82615100  0.49341393  1
loop_
_geom_bond_atom_site_label_1
_geom_bond_atom_site_label_2
_geom_bond_distance
_geom_bond_site_symmetry_2
Co0 O9 1.928292 1_555
Co0 O7 1.928297 1_565
Co0 O1 1.929074 1_565
Co0 O3 1.929075 1_555
Co0 O4 1.930213 1_565
Co0 O10 1.930214 1_555
Co1 O11 1.928449 1_545
Co1 O5 1.928454 1_555
Co1 O3 1.928978 1_545
Co1 O1 1.928978 1_555
Co1 O6 1.929542 1_555
Co1 O8 1.929543 1_545
Co2 O8 1.928247 1_555
Co2 O6 1.928248 1_665
Co2 O2 1.928988 1_655
Co2 O0 1.928996 1_565
Co2 O11 1.930132 1_655
Co2 O5 1.930135 1_565
Co3 O4 1.928460 1_555
Co3 O10 1.928464 1_445
Co3 O0 1.929049 1_456
Co3 O2 1.929052 1_546
Co3 O9 1.929620 1_545
Co3 O7 1.929621 1_455
O0 Pt1 2.012353 1_555
O0 Sr0 2.490577 1_655
O1 Pt0 2.012349 1_455
O1 Sr1 2.490589 1_555
O2 Pt1 2.012357 1_565
O2 Sr0 2.490585 1_555
O3 Pt0 2.012349 1_565
O3 Sr1 2.490582 1_555
O4 Pt1 2.019853 1_556
O4 Sr0 2.548101 1_556
O5 Pt0 2.019898 1_555
O5 Sr1 2.547983 1_555
O6 Pt1 2.020219 1_555
O6 Sr0 2.543942 1_555
O7 Pt0 2.020185 1_555
O7 Sr1 2.544055 1_555
O8 Pt1 2.020218 1_565
O8 Sr0 2.543951 1_655
O9 Pt0 2.020182 1_465
O9 Sr1 2.544064 1_555
O10 Pt1 2.019855 1_566
O10 Sr0 2.548104 1_656
O11 Pt0 2.019897 1_465
O11 Sr1 2.547989 1_555
