# generated using pymatgen
data_Sc6Sn6Pd5Pt
_symmetry_space_group_name_H-M   'P 1'
_cell_length_a   7.47789887
_cell_length_b   7.47789865
_cell_length_c   7.24181982
_cell_angle_alpha   90.00000000
_cell_angle_beta   90.00000000
_cell_angle_gamma   120.00000095
_symmetry_Int_Tables_number   1
_chemical_formula_structural   Sc6Sn6Pd5Pt
_chemical_formula_sum   'Sc6 Sn6 Pd5 Pt1'
_cell_volume   350.70140465
_cell_formula_units_Z   1
loop_
 _symmetry_equiv_pos_site_id
 _symmetry_equiv_pos_as_xyz
  1  'x, y, z'
loop_
 _atom_site_type_symbol
 _atom_site_label
 _atom_site_symmetry_multiplicity
 _atom_site_fract_x
 _atom_site_fract_y
 _atom_site_fract_z
 _atom_site_occupancy
  Sc  Sc0  1  0.39985453  0.01224562  0.24956231  1
  Sc  Sc1  1  0.61239109  0.60014547  0.24956231  1
  Sc  Sc2  1  0.98775438  0.38760891  0.24956231  1
  Sc  Sc3  1  0.38474932  0.97957907  0.75088250  1
  Sc  Sc4  1  0.59482975  0.61525068  0.75088250  1
  Sc  Sc5  1  0.02042093  0.40517025  0.75088250  1
  Sn  Sn0  1  0.72613037  0.00320729  0.00056273  1
  Sn  Sn1  1  0.27411973  0.27229853  0.50074538  1
  Sn  Sn2  1  0.99817880  0.72588027  0.50074538  1
  Sn  Sn3  1  0.99679271  0.72292308  0.00056273  1
  Sn  Sn4  1  0.27707692  0.27386963  0.00056273  1
  Sn  Sn5  1  0.72770147  0.00182120  0.50074538  1
  Pd  Pd0  1  0.33333300  0.66666700  0.46133464  1
  Pd  Pd1  1  0.66666700  0.33333300  0.96638370  1
  Pd  Pd2  1  0.66666700  0.33333300  0.53438647  1
  Pd  Pd3  1  0.00000000  0.00000000  0.24783838  1
  Pd  Pd4  1  0.00000000  0.00000000  0.75340359  1
  Pt  Pt0  1  0.33333300  0.66666700  0.03139845  1
loop_
_geom_bond_atom_site_label_1
_geom_bond_atom_site_label_2
_geom_bond_distance
_geom_bond_site_symmetry_2
Sc0 Sn0 3.061690 1_555
Sc0 Sn5 3.084867 1_555
Sc0 Sn4 3.117404 1_555
Sc0 Sn1 3.130968 1_555
Sc0 Sn2 3.237978 1_445
Sc0 Sn3 3.239746 1_445
Sc1 Sn4 3.061690 1_555
Sc1 Sn1 3.084867 1_555
Sc1 Sn3 3.117404 1_555
Sc1 Sn2 3.130968 1_555
Sc1 Sn5 3.237978 1_565
Sc1 Sn0 3.239746 1_565
Sc2 Sn3 3.061690 1_555
Sc2 Sn2 3.084867 1_555
Sc2 Sn0 3.117404 1_555
Sc2 Sn5 3.130968 1_555
Sc2 Sn1 3.237978 1_655
Sc2 Sn4 3.239746 1_655
Sc3 Sn0 3.060455 1_566
Sc3 Sn5 3.075619 1_565
Sc3 Sn2 3.122931 1_455
Sc3 Sn3 3.130708 1_456
Sc3 Sn4 3.245386 1_566
Sc3 Sn1 3.250843 1_565
Sc4 Sn4 3.060455 1_556
Sc4 Sn1 3.075619 1_555
Sc4 Sn5 3.122931 1_565
Sc4 Sn0 3.130708 1_566
Sc4 Sn3 3.245386 1_556
Sc4 Sn2 3.250843 1_555
Sc5 Sn3 3.060455 1_456
Sc5 Sn2 3.075619 1_455
Sc5 Sn1 3.122931 1_555
Sc5 Sn4 3.130708 1_556
Sc5 Sn0 3.245386 1_456
Sc5 Sn5 3.250843 1_455
Pd0 Sn2 2.769215 1_455
Pd0 Sn5 2.769219 1_565
Pd0 Sn1 2.769222 1_555
Pd0 Sc0 2.827020 1_565
Pd0 Sc2 2.827022 1_455
Pd0 Sc1 2.827026 1_555
Pd0 Sc3 3.019967 1_555
Pd0 Sc5 3.019969 1_555
Pd0 Sc4 3.019973 1_555
Pd1 Sn0 2.729637 1_556
Pd1 Sn3 2.729641 1_556
Pd1 Sn4 2.729644 1_556
Pd1 Sc5 2.881122 1_655
Pd1 Sc3 2.881124 1_545
Pd1 Sc4 2.881128 1_555
Pd1 Sc2 3.026679 1_556
Pd1 Sc0 3.026681 1_556
Pd1 Sc1 3.026684 1_556
Pd2 Sn5 2.746744 1_555
Pd2 Sn2 2.746749 1_555
Pd2 Sn1 2.746752 1_555
Pd2 Sc5 2.885031 1_655
Pd2 Sc3 2.885033 1_545
Pd2 Sc4 2.885037 1_555
Pd2 Sc2 3.034766 1_555
Pd2 Sc0 3.034768 1_555
Pd2 Sc1 3.034771 1_555
Pd3 Sn3 2.729573 1_445
Pd3 Sn4 2.729573 1_555
Pd3 Sn0 2.729573 1_455
Pd3 Sn2 2.743817 1_445
Pd3 Sn1 2.743817 1_555
Pd3 Sn5 2.743817 1_455
Pd3 Sc1 2.945380 1_445
Pd3 Sc2 2.945380 1_455
Pd3 Sc0 2.945380 1_555
Pd4 Sn3 2.729020 1_446
Pd4 Sn4 2.729020 1_556
Pd4 Sn0 2.729020 1_456
Pd4 Sn2 2.742614 1_445
Pd4 Sn1 2.742614 1_555
Pd4 Sn5 2.742614 1_455
Pd4 Sc5 2.956485 1_555
Pd4 Sc4 2.956485 1_445
Pd4 Sc3 2.956485 1_545
Pt0 Sn3 2.760229 1_455
Pt0 Sn0 2.760234 1_565
Pt0 Sn4 2.760236 1_555
Pt0 Sc0 2.852394 1_565
Pt0 Sc2 2.852396 1_455
Pt0 Sc1 2.852400 1_555
Pt0 Sc3 2.974926 1_554
Pt0 Sc5 2.974928 1_554
Pt0 Sc4 2.974931 1_554
