# generated using pymatgen
data_VTcWS6
_symmetry_space_group_name_H-M   'P 1'
_cell_length_a   5.46425990
_cell_length_b   5.46433083
_cell_length_c   6.68813929
_cell_angle_alpha   82.15549796
_cell_angle_beta   82.18194125
_cell_angle_gamma   119.99579691
_symmetry_Int_Tables_number   1
_chemical_formula_structural   VTcWS6
_chemical_formula_sum   'V1 Tc1 W1 S6'
_cell_volume   166.40585750
_cell_formula_units_Z   1
loop_
 _symmetry_equiv_pos_site_id
 _symmetry_equiv_pos_as_xyz
  1  'x, y, z'
loop_
 _atom_site_type_symbol
 _atom_site_label
 _atom_site_symmetry_multiplicity
 _atom_site_fract_x
 _atom_site_fract_y
 _atom_site_fract_z
 _atom_site_occupancy
  V  V0  1  0.50002586  0.83339864  0.49992988  1
  Tc  Tc0  1  0.83332012  0.50002283  0.50009571  1
  W  W0  1  0.16660719  0.16664158  0.50006196  1
  S  S0  1  0.58118012  0.24140889  0.26391328  1
  S  S1  1  0.24951272  0.58534556  0.26390542  1
  S  S2  1  0.90551350  0.90968754  0.26372925  1
  S  S3  1  0.74790022  0.75196395  0.73619587  1
  S  S4  1  0.42365365  0.08367700  0.73628339  1
  S  S5  1  0.09218862  0.42775801  0.73618223  1
loop_
_geom_bond_atom_site_label_1
_geom_bond_atom_site_label_2
_geom_bond_distance
_geom_bond_site_symmetry_2
S0 V0 2.349338 1_545
S0 Tc0 2.375943 1_555
S0 W0 2.391284 1_555
S1 V0 2.349391 1_555
S1 Tc0 2.376153 1_455
S1 W0 2.391047 1_555
S2 V0 2.350127 1_555
S2 Tc0 2.376380 1_555
S2 W0 2.391994 1_665
S3 V0 2.349996 1_555
S3 Tc0 2.375287 1_555
S3 W0 2.391598 1_665
S4 V0 2.350451 1_545
S4 Tc0 2.376349 1_555
S4 W0 2.391492 1_555
S5 V0 2.350125 1_555
S5 Tc0 2.376115 1_455
S5 W0 2.390728 1_555
