# generated using pymatgen
data_BaCa2(H6Ir)2
_symmetry_space_group_name_H-M   'P 1'
_cell_length_a   5.08384222
_cell_length_b   5.08384347
_cell_length_c   8.51655353
_cell_angle_alpha   90.00000000
_cell_angle_beta   90.00000000
_cell_angle_gamma   119.99999187
_symmetry_Int_Tables_number   1
_chemical_formula_structural   BaCa2(H6Ir)2
_chemical_formula_sum   'Ba1 Ca2 H12 Ir2'
_cell_volume   190.62452802
_cell_formula_units_Z   1
loop_
 _symmetry_equiv_pos_site_id
 _symmetry_equiv_pos_as_xyz
  1  'x, y, z'
loop_
 _atom_site_type_symbol
 _atom_site_label
 _atom_site_symmetry_multiplicity
 _atom_site_fract_x
 _atom_site_fract_y
 _atom_site_fract_z
 _atom_site_occupancy
  Ba  Ba0  1  0.00000000  0.00000000  0.00000000  1
  Ca  Ca0  1  0.66666700  0.33333300  0.36797045  1
  Ca  Ca1  1  0.33333300  0.66666700  0.63202955  1
  H  H0  1  0.17622896  0.82377104  0.37553115  1
  H  H1  1  0.64754207  0.82377104  0.37553115  1
  H  H2  1  0.17622896  0.35245793  0.37553115  1
  H  H3  1  0.82377104  0.17622896  0.62446885  1
  H  H4  1  0.35245793  0.17622896  0.62446885  1
  H  H5  1  0.82377104  0.64754207  0.62446885  1
  H  H6  1  0.51377228  0.02754355  0.85027898  1
  H  H7  1  0.51377228  0.48622772  0.85027898  1
  H  H8  1  0.97245645  0.48622772  0.85027898  1
  H  H9  1  0.48622772  0.97245645  0.14972102  1
  H  H10  1  0.48622772  0.51377228  0.14972102  1
  H  H11  1  0.02754355  0.51377228  0.14972102  1
  Ir  Ir0  1  0.66666700  0.33333300  0.73419260  1
  Ir  Ir1  1  0.33333300  0.66666700  0.26580740  1
loop_
_geom_bond_atom_site_label_1
_geom_bond_atom_site_label_2
_geom_bond_distance
_geom_bond_site_symmetry_2
Ba0 H9 2.846393 1_545
Ba0 H6 2.846393 1_454
Ba0 H11 2.846394 1_545
Ba0 H8 2.846394 1_454
Ba0 H7 2.846396 1_554
Ba0 H10 2.846396 1_445
Ba0 H10 2.846396 1_555
Ba0 H7 2.846396 1_444
Ba0 H9 2.846398 1_445
Ba0 H6 2.846398 1_554
Ba0 H11 2.846398 1_555
Ba0 H8 2.846398 1_444
Ca0 H11 2.445264 1_655
Ca0 H9 2.445264 1_545
Ca0 H10 2.445270 1_555
Ca0 H2 2.544128 1_655
Ca0 H1 2.544128 1_545
Ca0 H0 2.544131 1_655
Ca0 H0 2.544131 1_545
Ca0 H2 2.544133 1_555
Ca0 H1 2.544133 1_555
Ca0 H3 2.585670 1_555
Ca0 H4 2.585673 1_555
Ca0 H5 2.585673 1_555
Ca1 H8 2.445264 1_455
Ca1 H6 2.445264 1_565
Ca1 H7 2.445270 1_555
Ca1 H5 2.544128 1_455
Ca1 H4 2.544128 1_565
Ca1 H3 2.544131 1_455
Ca1 H3 2.544131 1_565
Ca1 H5 2.544133 1_555
Ca1 H4 2.544133 1_555
Ca1 H0 2.585670 1_555
Ca1 H1 2.585673 1_555
Ca1 H2 2.585673 1_555
H0 Ir1 1.669419 1_555
H1 Ir1 1.669422 1_555
H2 Ir1 1.669423 1_555
H3 Ir0 1.669419 1_555
H4 Ir0 1.669422 1_555
H5 Ir0 1.669423 1_555
H6 Ir0 1.670327 1_555
H7 Ir0 1.670327 1_555
H8 Ir0 1.670327 1_555
H9 Ir1 1.670327 1_555
H10 Ir1 1.670327 1_555
H11 Ir1 1.670327 1_555
