# generated using pymatgen
data_BaLiCuAs2
_symmetry_space_group_name_H-M   'P 1'
_cell_length_a   6.09112966
_cell_length_b   6.09112980
_cell_length_c   6.09112881
_cell_angle_alpha   136.98137087
_cell_angle_beta   136.98136791
_cell_angle_gamma   62.46671336
_symmetry_Int_Tables_number   1
_chemical_formula_structural   BaLiCuAs2
_chemical_formula_sum   'Ba1 Li1 Cu1 As2'
_cell_volume   103.91078597
_cell_formula_units_Z   1
loop_
 _symmetry_equiv_pos_site_id
 _symmetry_equiv_pos_as_xyz
  1  'x, y, z'
loop_
 _atom_site_type_symbol
 _atom_site_label
 _atom_site_symmetry_multiplicity
 _atom_site_fract_x
 _atom_site_fract_y
 _atom_site_fract_z
 _atom_site_occupancy
  Ba  Ba0  1  0.00000000  0.00000000  0.00000000  1
  Li  Li0  1  0.25000000  0.75000000  0.50000000  1
  Cu  Cu0  1  0.75000000  0.25000000  0.50000000  1
  As  As0  1  0.62673184  0.62673184  0.00000000  1
  As  As1  1  0.37326816  0.37326816  1.00000000  1
loop_
_geom_bond_atom_site_label_1
_geom_bond_atom_site_label_2
_geom_bond_distance
_geom_bond_site_symmetry_2
Ba0 Li0 3.430647 1_544
Ba0 Cu0 3.430647 1_455
Ba0 Cu0 3.430647 1_454
Ba0 Li0 3.430647 1_545
Ba0 Cu0 3.430648 1_444
Ba0 Li0 3.430648 1_555
Ba0 Cu0 3.430648 1_555
Ba0 Li0 3.430648 1_444
Cu0 Li0 3.158402 1_544
Cu0 Li0 3.158402 1_656
Cu0 Li0 3.158402 1_645
Cu0 Li0 3.158402 1_555
As0 Cu0 2.576140 1_554
As0 Li0 2.576140 1_554
As0 Cu0 2.576140 1_565
As0 Li0 2.576140 1_655
As0 As1 2.640228 1_554
As0 Ba0 3.423186 1_666
As0 Ba0 3.423187 1_565
As0 Ba0 3.423187 1_655
As0 Ba0 3.423187 1_554
As1 Li0 2.576140 1_556
As1 Cu0 2.576140 1_556
As1 Li0 2.576140 1_545
As1 Cu0 2.576140 1_455
As1 Ba0 3.423186 1_555
As1 Ba0 3.423187 1_656
As1 Ba0 3.423187 1_566
As1 Ba0 3.423187 1_667
