# generated using pymatgen
data_RbScTiSe4
_symmetry_space_group_name_H-M   'P 1'
_cell_length_a   6.56238531
_cell_length_b   7.51168063
_cell_length_c   16.72532493
_cell_angle_alpha   90.00000000
_cell_angle_beta   90.00000000
_cell_angle_gamma   90.00000000
_symmetry_Int_Tables_number   1
_chemical_formula_structural   RbScTiSe4
_chemical_formula_sum   'Rb4 Sc4 Ti4 Se16'
_cell_volume   824.46724186
_cell_formula_units_Z   4
loop_
 _symmetry_equiv_pos_site_id
 _symmetry_equiv_pos_as_xyz
  1  'x, y, z'
loop_
 _atom_site_type_symbol
 _atom_site_label
 _atom_site_symmetry_multiplicity
 _atom_site_fract_x
 _atom_site_fract_y
 _atom_site_fract_z
 _atom_site_occupancy
  Rb  Rb0  1  0.35087325  0.00000000  0.00000000  1
  Rb  Rb1  1  0.64912675  0.50000000  0.50000000  1
  Rb  Rb2  1  0.02701238  0.00000000  0.50000000  1
  Rb  Rb3  1  0.97298762  0.50000000  0.00000000  1
  Sc  Sc0  1  0.00221986  0.00000000  0.24790682  1
  Sc  Sc1  1  0.00221986  0.00000000  0.75209318  1
  Sc  Sc2  1  0.99778014  0.50000000  0.25209318  1
  Sc  Sc3  1  0.99778014  0.50000000  0.74790682  1
  Ti  Ti0  1  0.50000000  0.25000000  0.25000000  1
  Ti  Ti1  1  0.50000000  0.75000000  0.75000000  1
  Ti  Ti2  1  0.50000000  0.75000000  0.25000000  1
  Ti  Ti3  1  0.50000000  0.25000000  0.75000000  1
  Se  Se0  1  0.81913860  0.24677355  0.34060564  1
  Se  Se1  1  0.81913860  0.75322645  0.65939436  1
  Se  Se2  1  0.18086140  0.74677355  0.15939436  1
  Se  Se3  1  0.18086140  0.25322645  0.84060564  1
  Se  Se4  1  0.18086140  0.25322645  0.15939436  1
  Se  Se5  1  0.18086140  0.74677355  0.84060564  1
  Se  Se6  1  0.81913860  0.75322645  0.34060564  1
  Se  Se7  1  0.81913860  0.24677355  0.65939436  1
  Se  Se8  1  0.65703463  0.00000000  0.16198611  1
  Se  Se9  1  0.65703463  0.00000000  0.83801389  1
  Se  Se10  1  0.34296537  0.50000000  0.33801389  1
  Se  Se11  1  0.34296537  0.50000000  0.66198611  1
  Se  Se12  1  0.34637962  0.00000000  0.33758521  1
  Se  Se13  1  0.34637962  0.00000000  0.66241479  1
  Se  Se14  1  0.65362038  0.50000000  0.16241479  1
  Se  Se15  1  0.65362038  0.50000000  0.83758521  1
loop_
_geom_bond_atom_site_label_1
_geom_bond_atom_site_label_2
_geom_bond_distance
_geom_bond_site_symmetry_2
Rb0 Se8 3.372955 1_555
Rb0 Se9 3.372955 1_554
Rb0 Se4 3.459782 1_555
Rb0 Se2 3.459782 1_545
Rb0 Se3 3.459782 1_554
Rb0 Se5 3.459782 1_544
Rb1 Se11 3.372955 1_555
Rb1 Se10 3.372955 1_555
Rb1 Se1 3.459782 1_555
Rb1 Se7 3.459782 1_555
Rb1 Se6 3.459782 1_555
Rb1 Se0 3.459782 1_555
Rb2 Se13 3.430958 1_555
Rb2 Se12 3.430958 1_555
Rb2 Se7 3.521958 1_455
Rb2 Se1 3.521958 1_445
Rb2 Se0 3.521958 1_455
Rb2 Se6 3.521958 1_445
Rb3 Se14 3.430958 1_555
Rb3 Se15 3.430958 1_554
Rb3 Se2 3.521958 1_655
Rb3 Se4 3.521958 1_655
Rb3 Se5 3.521958 1_654
Rb3 Se3 3.521958 1_654
Sc0 Se4 2.680318 1_555
Sc0 Se2 2.680318 1_545
Sc0 Se8 2.682615 1_455
Sc0 Se0 2.698782 1_455
Sc0 Se6 2.698782 1_445
Sc0 Se12 2.711192 1_555
Sc1 Se3 2.680318 1_555
Sc1 Se5 2.680318 1_545
Sc1 Se9 2.682615 1_455
Sc1 Se7 2.698782 1_455
Sc1 Se1 2.698782 1_445
Sc1 Se13 2.711192 1_555
Sc2 Se6 2.680318 1_555
Sc2 Se0 2.680318 1_555
Sc2 Se10 2.682615 1_655
Sc2 Se2 2.698782 1_655
Sc2 Se4 2.698782 1_655
Sc2 Se14 2.711192 1_555
Sc3 Se1 2.680318 1_555
Sc3 Se7 2.680318 1_555
Sc3 Se11 2.682615 1_655
Sc3 Se5 2.698782 1_655
Sc3 Se3 2.698782 1_655
Sc3 Se15 2.711192 1_555
Se0 Ti0 2.585186 1_555
Se1 Ti1 2.585186 1_555
Se2 Ti2 2.585186 1_555
Se3 Ti3 2.585186 1_555
Se4 Ti0 2.585186 1_555
Se5 Ti1 2.585186 1_555
Se6 Ti2 2.585186 1_555
Se7 Ti3 2.585186 1_555
Se8 Ti2 2.599139 1_545
Se8 Ti0 2.599139 1_555
Se9 Ti1 2.599139 1_545
Se9 Ti3 2.599139 1_555
Se10 Ti0 2.599139 1_555
Se10 Ti2 2.599139 1_555
Se11 Ti3 2.599139 1_555
Se11 Ti1 2.599139 1_555
Se12 Ti0 2.586269 1_555
Se12 Ti2 2.586269 1_545
Se13 Ti3 2.586269 1_555
Se13 Ti1 2.586269 1_545
Se14 Ti0 2.586269 1_555
Se14 Ti2 2.586269 1_555
Se15 Ti3 2.586269 1_555
Se15 Ti1 2.586269 1_555
