# generated using pymatgen
data_YZn3InRu
_symmetry_space_group_name_H-M   'P 1'
_cell_length_a   5.25108970
_cell_length_b   5.25109015
_cell_length_c   5.27444102
_cell_angle_alpha   60.14634801
_cell_angle_beta   60.14634975
_cell_angle_gamma   60.00000804
_symmetry_Int_Tables_number   1
_chemical_formula_structural   YZn3InRu
_chemical_formula_sum   'Y1 Zn3 In1 Ru1'
_cell_volume   103.06650140
_cell_formula_units_Z   1
loop_
 _symmetry_equiv_pos_site_id
 _symmetry_equiv_pos_as_xyz
  1  'x, y, z'
loop_
 _atom_site_type_symbol
 _atom_site_label
 _atom_site_symmetry_multiplicity
 _atom_site_fract_x
 _atom_site_fract_y
 _atom_site_fract_z
 _atom_site_occupancy
  Y  Y0  1  0.99734567  0.99734567  0.00796500  1
  Zn  Zn0  1  0.62470829  0.12526607  0.62531635  1
  Zn  Zn1  1  0.12526607  0.62470829  0.62531635  1
  Zn  Zn2  1  0.62470829  0.62470829  0.62531635  1
  In  In0  1  0.25322957  0.25322957  0.24031128  1
  Ru  Ru0  1  0.62474111  0.62474111  0.12577467  1
loop_
_geom_bond_atom_site_label_1
_geom_bond_atom_site_label_2
_geom_bond_distance
_geom_bond_site_symmetry_2
Y0 Zn1 3.066375 1_655
Y0 Zn0 3.066375 1_565
Y0 Zn2 3.066382 1_555
Y0 Zn0 3.101777 1_664
Y0 Zn1 3.101777 1_664
Y0 Zn2 3.101784 1_564
Y0 Zn2 3.101784 1_654
Y0 Zn0 3.101790 1_564
Y0 Zn1 3.101790 1_654
Zn0 Zn2 2.622616 1_555
Zn0 Zn1 2.622616 1_555
Zn0 Zn2 2.628474 1_545
Zn0 Zn1 2.628474 1_645
Zn1 Zn2 2.622616 1_555
Zn1 Zn2 2.628474 1_455
In0 Zn2 3.055865 1_554
In0 Zn1 3.055867 1_554
In0 Zn0 3.055867 1_554
In0 Ru0 3.071751 1_555
In0 Ru0 3.071761 1_455
In0 Ru0 3.071761 1_545
In0 Zn0 3.107208 1_555
In0 Zn1 3.107209 1_555
In0 Zn2 3.107211 1_545
In0 Zn2 3.107211 1_455
In0 Zn0 3.107213 1_455
In0 Zn1 3.107213 1_545
In0 Y0 3.193263 1_445
In0 Y0 3.193272 1_545
In0 Y0 3.193272 1_455
In0 Y0 3.313243 1_446
Ru0 Zn1 2.634629 1_555
Ru0 Zn0 2.634629 1_555
Ru0 Zn2 2.634632 1_555
Ru0 Zn2 2.639809 1_554
Ru0 Zn1 2.639812 1_654
Ru0 Zn0 2.639812 1_564
Ru0 Y0 3.074057 1_455
Ru0 Y0 3.074057 1_545
Ru0 Y0 3.074075 1_555
