# generated using pymatgen
data_Zr12Al7Zn5O2
_symmetry_space_group_name_H-M   'P 1'
_cell_length_a   8.56211327
_cell_length_b   8.56679987
_cell_length_c   8.56679869
_cell_angle_alpha   60.00000079
_cell_angle_beta   59.98189245
_cell_angle_gamma   59.98189583
_symmetry_Int_Tables_number   1
_chemical_formula_structural   Zr12Al7Zn5O2
_chemical_formula_sum   'Zr12 Al7 Zn5 O2'
_cell_volume   444.20582498
_cell_formula_units_Z   1
loop_
 _symmetry_equiv_pos_site_id
 _symmetry_equiv_pos_as_xyz
  1  'x, y, z'
loop_
 _atom_site_type_symbol
 _atom_site_label
 _atom_site_symmetry_multiplicity
 _atom_site_fract_x
 _atom_site_fract_y
 _atom_site_fract_z
 _atom_site_occupancy
  Zr  Zr0  1  0.19203245  0.80807475  0.19181706  1
  Zr  Zr1  1  0.44153111  0.05806726  0.44233438  1
  Zr  Zr2  1  0.44153111  0.05806726  0.05806726  1
  Zr  Zr3  1  0.44153111  0.44233438  0.05806726  1
  Zr  Zr4  1  0.19203245  0.80807475  0.80807475  1
  Zr  Zr5  1  0.05827488  0.44190066  0.05792380  1
  Zr  Zr6  1  0.80799283  0.80834920  0.19182898  1
  Zr  Zr7  1  0.05827488  0.44190066  0.44190066  1
  Zr  Zr8  1  0.19203245  0.19181706  0.80807475  1
  Zr  Zr9  1  0.80799283  0.19182898  0.19182898  1
  Zr  Zr10  1  0.80799283  0.19182898  0.80834920  1
  Zr  Zr11  1  0.05827488  0.05792380  0.44190066  1
  Al  Al0  1  0.83198682  0.50187560  0.83306929  1
  Al  Al1  1  0.41692043  0.41679282  0.74949394  1
  Al  Al2  1  0.74956676  0.41681075  0.41681075  1
  Al  Al3  1  0.41692043  0.41679282  0.41679282  1
  Al  Al4  1  0.83198682  0.83306929  0.50187560  1
  Al  Al5  1  0.41692043  0.74949394  0.41679282  1
  Al  Al6  1  0.83198682  0.83306929  0.83306929  1
  Zn  Zn0  1  0.50458350  0.83180583  0.83180583  1
  Zn  Zn1  1  0.62439367  0.12475475  0.62542629  1
  Zn  Zn2  1  0.62439367  0.62542629  0.12475475  1
  Zn  Zn3  1  0.12449311  0.62516896  0.62516896  1
  Zn  Zn4  1  0.62439367  0.62542629  0.62542629  1
  O  O0  1  0.00177006  0.99940965  0.99940965  1
  O  O1  1  0.25019397  0.24993501  0.24993501  1
loop_
_geom_bond_atom_site_label_1
_geom_bond_atom_site_label_2
_geom_bond_distance
_geom_bond_site_symmetry_2
Al0 Zn2 2.615761 1_556
Al0 Zn4 2.615761 1_555
Al0 Zn3 2.619667 1_655
Al0 Zn0 2.814136 1_555
Al0 Al4 2.837270 1_555
Al0 Al6 2.837270 1_555
Al0 Zr9 2.879916 1_556
Al0 Zr10 2.879921 1_555
Al0 Zr8 2.884449 1_655
Al0 Zr3 3.070430 1_556
Al0 Zr5 3.078468 1_656
Al0 Zr7 3.078475 1_655
Al1 Zn1 2.620639 1_555
Al1 Zn4 2.620646 1_555
Al1 Zn3 2.623907 1_555
Al1 Al2 2.848313 1_555
Al1 Al3 2.850184 1_555
Al1 Al5 2.850184 1_555
Al1 Zr5 2.871699 1_556
Al1 Zr3 2.874402 1_556
Al1 Zr2 2.874402 1_556
Al1 Zr10 3.072631 1_555
Al1 Zr4 3.074579 1_555
Al1 Zr8 3.074587 1_555
Al2 Zn2 2.626327 1_555
Al2 Zn1 2.626327 1_555
Al2 Zn4 2.626341 1_555
Al2 Al3 2.848309 1_555
Al2 Al5 2.848314 1_555
Al2 Zr5 2.874356 1_655
Al2 Zr11 2.874356 1_655
Al2 Zr7 2.874361 1_655
Al2 Zr9 3.076550 1_555
Al2 Zr10 3.076558 1_555
Al2 Zr6 3.076558 1_555
Al3 Zn2 2.620644 1_555
Al3 Zn1 2.620644 1_555
Al3 Zn3 2.623907 1_555
Al3 Al5 2.850184 1_555
Al3 Zr7 2.871700 1_555
Al3 Zr3 2.874402 1_555
Al3 Zr1 2.874402 1_555
Al3 Zr9 3.072631 1_555
Al3 Zr8 3.074583 1_555
Al3 Zr0 3.074583 1_555
Al4 Zn4 2.615761 1_555
Al4 Zn1 2.615761 1_565
Al4 Zn3 2.619667 1_655
Al4 Zn0 2.814135 1_555
Al4 Al6 2.837270 1_555
Al4 Zr9 2.879916 1_565
Al4 Zr6 2.879921 1_555
Al4 Zr0 2.884449 1_655
Al4 Zr1 3.070430 1_565
Al4 Zr11 3.078468 1_665
Al4 Zr7 3.078475 1_655
Al5 Zn2 2.620639 1_555
Al5 Zn4 2.620646 1_555
Al5 Zn3 2.623907 1_555
Al5 Zr11 2.871700 1_565
Al5 Zr2 2.874402 1_565
Al5 Zr1 2.874402 1_565
Al5 Zr6 3.072631 1_555
Al5 Zr4 3.074579 1_555
Al5 Zr0 3.074587 1_555
Al6 Zn2 2.615761 1_556
Al6 Zn1 2.615761 1_565
Al6 Zn3 2.619672 1_655
Al6 Zn0 2.814136 1_555
Al6 Zr6 2.879912 1_556
Al6 Zr10 2.879913 1_565
Al6 Zr4 2.884442 1_655
Al6 Zr2 3.070426 1_566
Al6 Zr11 3.078472 1_665
Al6 Zr5 3.078472 1_656
Zn0 Zn2 2.607793 1_556
Zn0 Zn4 2.607793 1_555
Zn0 Zn1 2.607793 1_565
Zn0 Zr0 2.893808 1_556
Zn0 Zr8 2.893809 1_565
Zn0 Zr4 2.893818 1_555
Zn0 Zr2 3.077154 1_566
Zn0 Zr1 3.077162 1_565
Zn0 Zr3 3.077162 1_556
Zn1 Zr8 3.075387 1_555
Zn1 Zr2 3.079959 1_556
Zn1 Zr1 3.079967 1_555
Zn1 Zr10 3.086429 1_555
Zn1 Zr9 3.086436 1_555
Zn1 Zr11 3.086845 1_655
Zn2 Zr0 3.075387 1_555
Zn2 Zr2 3.079960 1_565
Zn2 Zr3 3.079967 1_555
Zn2 Zr6 3.086429 1_555
Zn2 Zr9 3.086437 1_555
Zn2 Zr5 3.086845 1_655
Zn3 Zr5 3.081825 1_556
Zn3 Zr7 3.081825 1_555
Zn3 Zr11 3.081825 1_565
Zn3 Zr4 3.084367 1_555
Zn3 Zr0 3.084374 1_555
Zn3 Zr8 3.084374 1_555
Zn4 Zr4 3.075385 1_555
Zn4 Zr3 3.079961 1_556
Zn4 Zr1 3.079961 1_565
Zn4 Zr6 3.086435 1_555
Zn4 Zr10 3.086435 1_555
Zn4 Zr7 3.086847 1_655
O0 Zr0 2.317468 1_556
O0 Zr4 2.317468 1_555
O0 Zr8 2.317468 1_565
O0 Zr10 2.330591 1_465
O0 Zr6 2.330591 1_456
O0 Zr9 2.330597 1_466
O1 Zr2 2.323905 1_555
O1 Zr1 2.323911 1_555
O1 Zr3 2.323911 1_555
O1 Zr5 2.325077 1_555
O1 Zr11 2.325077 1_555
O1 Zr7 2.325083 1_555
