# generated using pymatgen
data_Sr4TiVO8
_symmetry_space_group_name_H-M   'P 1'
_cell_length_a   6.81021529
_cell_length_b   6.81021446
_cell_length_c   5.51304776
_cell_angle_alpha   90.00000000
_cell_angle_beta   90.00000000
_cell_angle_gamma   132.22398471
_symmetry_Int_Tables_number   1
_chemical_formula_structural   Sr4TiVO8
_chemical_formula_sum   'Sr4 Ti1 V1 O8'
_cell_volume   189.34425710
_cell_formula_units_Z   1
loop_
 _symmetry_equiv_pos_site_id
 _symmetry_equiv_pos_as_xyz
  1  'x, y, z'
loop_
 _atom_site_type_symbol
 _atom_site_label
 _atom_site_symmetry_multiplicity
 _atom_site_fract_x
 _atom_site_fract_y
 _atom_site_fract_z
 _atom_site_occupancy
  Sr  Sr0  1  0.64289421  0.35710579  0.00000000  1
  Sr  Sr1  1  0.14290698  0.85709302  0.50000000  1
  Sr  Sr2  1  0.85709302  0.14290698  0.50000000  1
  Sr  Sr3  1  0.35710579  0.64289421  0.00000000  1
  Ti  Ti0  1  0.00000000  0.00000000  0.00000000  1
  V  V0  1  0.50000000  0.50000000  0.50000000  1
  O  O0  1  0.75041875  0.75041875  0.74941605  1
  O  O1  1  0.24958125  0.24958125  0.25058395  1
  O  O2  1  0.24958125  0.24958125  0.74941605  1
  O  O3  1  0.75041875  0.75041875  0.25058395  1
  O  O4  1  0.84045961  0.15954039  0.00000000  1
  O  O5  1  0.34631251  0.65368749  0.50000000  1
  O  O6  1  0.65368749  0.34631251  0.50000000  1
  O  O7  1  0.15954039  0.84045961  0.00000000  1
loop_
_geom_bond_atom_site_label_1
_geom_bond_atom_site_label_2
_geom_bond_distance
_geom_bond_site_symmetry_2
O0 V0 1.948969 1_555
O0 Ti0 1.950254 1_666
O0 Sr2 2.636880 1_565
O0 Sr1 2.636881 1_655
O0 Sr0 2.642548 1_556
O0 Sr3 2.642548 1_556
O1 V0 1.948969 1_555
O1 Ti0 1.950254 1_555
O1 Sr1 2.636880 1_545
O1 Sr2 2.636881 1_455
O1 Sr3 2.642548 1_555
O1 Sr0 2.642548 1_555
O2 V0 1.948969 1_555
O2 Ti0 1.950254 1_556
O2 Sr1 2.636880 1_545
O2 Sr2 2.636881 1_455
O2 Sr3 2.642548 1_556
O2 Sr0 2.642548 1_556
O3 V0 1.948969 1_555
O3 Ti0 1.950254 1_665
O3 Sr2 2.636880 1_565
O3 Sr1 2.636881 1_655
O3 Sr0 2.642548 1_555
O3 Sr3 2.642548 1_555
O4 Ti0 1.986866 1_655
O4 Sr0 2.460418 1_555
O4 Sr2 2.764296 1_555
O4 Sr2 2.764296 1_554
O4 Sr3 2.765579 1_545
O4 Sr3 2.765579 1_655
O5 V0 1.913976 1_555
O5 Sr1 2.533149 1_555
O5 Sr3 2.759799 1_555
O5 Sr3 2.759799 1_556
O5 Sr2 2.761064 1_455
O5 Sr2 2.761064 1_565
O6 V0 1.913976 1_555
O6 Sr2 2.533149 1_555
O6 Sr0 2.759799 1_555
O6 Sr0 2.759799 1_556
O6 Sr1 2.761064 1_655
O6 Sr1 2.761064 1_545
O7 Ti0 1.986866 1_565
O7 Sr3 2.460418 1_555
O7 Sr1 2.764296 1_555
O7 Sr1 2.764296 1_554
O7 Sr0 2.765579 1_565
O7 Sr0 2.765579 1_455
