# generated using pymatgen
data_Hf5Sn3Ge
_symmetry_space_group_name_H-M   'P 1'
_cell_length_a   8.60261758
_cell_length_b   8.60261686
_cell_length_c   5.78838344
_cell_angle_alpha   90.00000000
_cell_angle_beta   90.00000000
_cell_angle_gamma   119.99999517
_symmetry_Int_Tables_number   1
_chemical_formula_structural   Hf5Sn3Ge
_chemical_formula_sum   'Hf10 Sn6 Ge2'
_cell_volume   370.97884418
_cell_formula_units_Z   2
loop_
 _symmetry_equiv_pos_site_id
 _symmetry_equiv_pos_as_xyz
  1  'x, y, z'
loop_
 _atom_site_type_symbol
 _atom_site_label
 _atom_site_symmetry_multiplicity
 _atom_site_fract_x
 _atom_site_fract_y
 _atom_site_fract_z
 _atom_site_occupancy
  Hf  Hf0  1  0.33333300  0.66666700  0.00000000  1
  Hf  Hf1  1  0.66666700  0.33333300  0.50000000  1
  Hf  Hf2  1  0.66666700  0.33333300  0.00000000  1
  Hf  Hf3  1  0.33333300  0.66666700  0.50000000  1
  Hf  Hf4  1  0.26458977  0.00000000  0.25000000  1
  Hf  Hf5  1  0.26458977  0.26458977  0.75000000  1
  Hf  Hf6  1  1.00000000  0.73541023  0.75000000  1
  Hf  Hf7  1  0.00000000  0.26458977  0.25000000  1
  Hf  Hf8  1  0.73541023  0.73541023  0.25000000  1
  Hf  Hf9  1  0.73541023  1.00000000  0.75000000  1
  Sn  Sn0  1  0.60612776  0.00000000  0.25000000  1
  Sn  Sn1  1  0.60612776  0.60612776  0.75000000  1
  Sn  Sn2  1  1.00000000  0.39387224  0.75000000  1
  Sn  Sn3  1  0.00000000  0.60612776  0.25000000  1
  Sn  Sn4  1  0.39387224  0.39387224  0.25000000  1
  Sn  Sn5  1  0.39387224  1.00000000  0.75000000  1
  Ge  Ge0  1  0.00000000  0.00000000  0.00000000  1
  Ge  Ge1  1  0.00000000  0.00000000  0.50000000  1
loop_
_geom_bond_atom_site_label_1
_geom_bond_atom_site_label_2
_geom_bond_distance
_geom_bond_site_symmetry_2
Hf0 Sn5 3.015738 1_554
Hf0 Sn3 3.015738 1_555
Hf0 Sn0 3.015741 1_565
Hf0 Sn2 3.015741 1_454
Hf0 Sn4 3.015746 1_555
Hf0 Sn1 3.015746 1_554
Hf1 Sn0 3.015738 1_555
Hf1 Sn2 3.015738 1_555
Hf1 Sn5 3.015741 1_545
Hf1 Sn3 3.015741 1_655
Hf1 Sn1 3.015746 1_555
Hf1 Sn4 3.015746 1_555
Hf2 Sn0 3.015738 1_555
Hf2 Sn2 3.015738 1_554
Hf2 Sn5 3.015741 1_544
Hf2 Sn3 3.015741 1_655
Hf2 Sn1 3.015746 1_554
Hf2 Sn4 3.015746 1_555
Hf3 Sn5 3.015738 1_555
Hf3 Sn3 3.015738 1_555
Hf3 Sn0 3.015741 1_565
Hf3 Sn2 3.015741 1_455
Hf3 Sn4 3.015746 1_555
Hf3 Sn1 3.015746 1_555
Hf4 Sn0 2.938121 1_555
Hf4 Sn4 2.991541 1_555
Hf4 Sn3 2.991541 1_545
Hf4 Sn5 3.100526 1_544
Hf4 Sn5 3.100526 1_545
Hf5 Sn1 2.938121 1_555
Hf5 Sn5 2.991541 1_545
Hf5 Sn2 2.991541 1_455
Hf5 Sn4 3.100526 1_555
Hf5 Sn4 3.100526 1_556
Hf6 Sn2 2.938120 1_555
Hf6 Sn1 2.991541 1_555
Hf6 Sn5 2.991541 1_655
Hf6 Sn3 3.100526 1_656
Hf6 Sn3 3.100526 1_655
Hf7 Sn3 2.938120 1_555
Hf7 Sn4 2.991541 1_555
Hf7 Sn0 2.991541 1_455
Hf7 Sn2 3.100526 1_454
Hf7 Sn2 3.100526 1_455
Hf8 Sn4 2.938121 1_555
Hf8 Sn0 2.991541 1_565
Hf8 Sn3 2.991541 1_655
Hf8 Sn1 3.100526 1_555
Hf8 Sn1 3.100526 1_554
Hf9 Sn5 2.938121 1_555
Hf9 Sn1 2.991541 1_555
Hf9 Sn2 2.991541 1_565
Hf9 Sn0 3.100526 1_565
Hf9 Sn0 3.100526 1_566
Ge0 Hf7 2.697223 1_555
Ge0 Hf6 2.697223 1_444
Ge0 Hf4 2.697223 1_555
Ge0 Hf9 2.697223 1_444
Ge0 Hf5 2.697223 1_554
Ge0 Hf8 2.697223 1_445
Ge1 Hf7 2.697223 1_555
Ge1 Hf6 2.697223 1_445
Ge1 Hf4 2.697223 1_555
Ge1 Hf9 2.697223 1_445
Ge1 Hf5 2.697223 1_555
Ge1 Hf8 2.697223 1_445
