# generated using pymatgen
data_CaTcF6
_symmetry_space_group_name_H-M   'P 1'
_cell_length_a   5.84198686
_cell_length_b   5.84198668
_cell_length_c   5.84198673
_cell_angle_alpha   57.28249977
_cell_angle_beta   57.28249457
_cell_angle_gamma   57.28250408
_symmetry_Int_Tables_number   1
_chemical_formula_structural   CaTcF6
_chemical_formula_sum   'Ca1 Tc1 F6'
_cell_volume   132.16158182
_cell_formula_units_Z   1
loop_
 _symmetry_equiv_pos_site_id
 _symmetry_equiv_pos_as_xyz
  1  'x, y, z'
loop_
 _atom_site_type_symbol
 _atom_site_label
 _atom_site_symmetry_multiplicity
 _atom_site_fract_x
 _atom_site_fract_y
 _atom_site_fract_z
 _atom_site_occupancy
  Ca  Ca0  1  0.50000000  0.50000000  0.50000000  1
  Tc  Tc0  1  0.00000000  0.00000000  0.00000000  1
  F  F0  1  0.86767304  0.22833890  0.67264336  1
  F  F1  1  0.22833890  0.67264336  0.86767304  1
  F  F2  1  0.32735664  0.13232696  0.77166110  1
  F  F3  1  0.77166110  0.32735664  0.13232696  1
  F  F4  1  0.13232696  0.77166110  0.32735664  1
  F  F5  1  0.67264336  0.86767304  0.22833890  1
loop_
_geom_bond_atom_site_label_1
_geom_bond_atom_site_label_2
_geom_bond_distance
_geom_bond_site_symmetry_2
Ca0 F5 2.253030 1_555
Ca0 F2 2.253030 1_555
Ca0 F1 2.253030 1_555
Ca0 F3 2.253030 1_555
Ca0 F0 2.253030 1_555
Ca0 F4 2.253030 1_555
F0 Tc0 1.939091 1_656
F1 Tc0 1.939090 1_566
F2 Tc0 1.939090 1_556
F3 Tc0 1.939090 1_655
F4 Tc0 1.939091 1_565
F5 Tc0 1.939090 1_665
