# generated using pymatgen
data_SrAgH9W
_symmetry_space_group_name_H-M   'P 1'
_cell_length_a   8.62031639
_cell_length_b   8.62031445
_cell_length_c   5.03551491
_cell_angle_alpha   90.00000000
_cell_angle_beta   90.00000000
_cell_angle_gamma   120.00000369
_symmetry_Int_Tables_number   1
_chemical_formula_structural   SrAgH9W
_chemical_formula_sum   'Sr3 Ag3 H27 W3'
_cell_volume   324.05655878
_cell_formula_units_Z   3
loop_
 _symmetry_equiv_pos_site_id
 _symmetry_equiv_pos_as_xyz
  1  'x, y, z'
loop_
 _atom_site_type_symbol
 _atom_site_label
 _atom_site_symmetry_multiplicity
 _atom_site_fract_x
 _atom_site_fract_y
 _atom_site_fract_z
 _atom_site_occupancy
  Sr  Sr0  1  0.00000000  0.60470980  0.00000000  1
  Sr  Sr1  1  0.39529020  0.39529020  0.00000000  1
  Sr  Sr2  1  0.60470980  1.00000000  0.00000000  1
  Ag  Ag0  1  0.00000000  0.25599749  0.50000000  1
  Ag  Ag1  1  0.74400251  0.74400251  0.50000000  1
  Ag  Ag2  1  0.25599749  1.00000000  0.50000000  1
  H  H0  1  0.80612095  0.32340590  0.74966947  1
  H  H1  1  0.67659410  0.48271306  0.74966947  1
  H  H2  1  0.51728694  0.19387905  0.74966947  1
  H  H3  1  0.19387905  0.51728694  0.25033053  1
  H  H4  1  0.51728694  0.19387905  0.25033053  1
  H  H5  1  0.80612095  0.32340590  0.25033053  1
  H  H6  1  0.67659410  0.48271306  0.25033053  1
  H  H7  1  0.32340590  0.80612095  0.74966947  1
  H  H8  1  0.48271306  0.67659410  0.74966947  1
  H  H9  1  0.20163136  0.00000000  0.00000000  1
  H  H10  1  0.79836864  0.79836864  0.00000000  1
  H  H11  1  1.00000000  0.20163136  0.00000000  1
  H  H12  1  0.85667658  0.00000000  0.25377508  1
  H  H13  1  0.14332342  0.14332342  0.74622492  1
  H  H14  1  1.00000000  0.85667658  0.74622492  1
  H  H15  1  1.00000000  0.85667658  0.25377508  1
  H  H16  1  0.14332342  0.14332342  0.25377508  1
  H  H17  1  0.85667658  0.00000000  0.74622492  1
  H  H18  1  0.12899269  0.65672453  0.50000000  1
  H  H19  1  0.52773184  0.87100731  0.50000000  1
  H  H20  1  0.34327547  0.47226816  0.50000000  1
  H  H21  1  0.47226816  0.34327547  0.50000000  1
  H  H22  1  0.87100731  0.52773184  0.50000000  1
  H  H23  1  0.65672453  0.12899269  0.50000000  1
  H  H24  1  0.19387905  0.51728694  0.74966947  1
  H  H25  1  0.32340590  0.80612095  0.25033053  1
  H  H26  1  0.48271306  0.67659410  0.25033053  1
  W  W0  1  0.66666700  0.33333300  0.50000000  1
  W  W1  1  0.33333300  0.66666700  0.50000000  1
  W  W2  1  0.00000000  0.00000000  0.00000000  1
loop_
_geom_bond_atom_site_label_1
_geom_bond_atom_site_label_2
_geom_bond_distance
_geom_bond_site_symmetry_2
Ag0 H17 2.281914 1_455
Ag0 H12 2.281914 1_455
Ag0 H13 2.281914 1_555
Ag0 H16 2.281914 1_555
Ag0 H0 2.383830 1_455
Ag0 H5 2.383830 1_455
Ag0 H24 2.383840 1_555
Ag0 H3 2.383840 1_555
Ag1 H17 2.281914 1_565
Ag1 H12 2.281914 1_565
Ag1 H14 2.281914 1_555
Ag1 H15 2.281914 1_555
Ag1 H1 2.383844 1_555
Ag1 H6 2.383844 1_555
Ag1 H8 2.383844 1_555
Ag1 H26 2.383844 1_555
Ag2 H13 2.281914 1_565
Ag2 H16 2.281914 1_565
Ag2 H14 2.281914 1_455
Ag2 H15 2.281914 1_455
Ag2 H7 2.383830 1_555
Ag2 H25 2.383830 1_555
Ag2 H2 2.383840 1_565
Ag2 H4 2.383840 1_565
H0 W0 1.770852 1_555
H0 Sr0 2.491928 1_656
H0 Sr2 2.745043 1_546
H1 W0 1.770846 1_555
H1 Sr1 2.491932 1_556
H1 Sr0 2.745041 1_656
H2 W0 1.770849 1_555
H2 Sr2 2.491917 1_546
H2 Sr1 2.745055 1_556
H3 W1 1.770849 1_555
H3 Sr0 2.491917 1_555
H3 Sr1 2.745055 1_555
H4 W0 1.770849 1_555
H4 Sr2 2.491917 1_545
H4 Sr1 2.745055 1_555
H5 W0 1.770852 1_555
H5 Sr0 2.491928 1_655
H5 Sr2 2.745043 1_545
H6 W0 1.770846 1_555
H6 Sr1 2.491932 1_555
H6 Sr0 2.745041 1_655
H7 W1 1.770852 1_555
H7 Sr2 2.491928 1_556
H7 Sr0 2.745043 1_556
H8 W1 1.770846 1_555
H8 Sr1 2.491931 1_556
H8 Sr2 2.745041 1_556
H9 W2 1.738126 1_555
H10 W2 1.738126 1_665
H11 W2 1.738126 1_655
H12 W2 1.777482 1_655
H12 Sr2 2.520065 1_545
H13 W2 1.777482 1_556
H13 Sr1 2.520065 1_556
H14 W2 1.777482 1_666
H14 Sr0 2.520065 1_656
H15 W2 1.777482 1_665
H15 Sr0 2.520065 1_655
H16 W2 1.777482 1_555
H16 Sr1 2.520065 1_555
H17 W2 1.777482 1_656
H17 Sr2 2.520065 1_546
H18 W1 1.720227 1_555
H18 Sr0 2.697780 1_555
H18 Sr0 2.697780 1_556
H19 W1 1.720230 1_555
H19 Sr2 2.697780 1_556
H19 Sr2 2.697780 1_555
H20 W1 1.720235 1_555
H20 Sr1 2.697780 1_555
H20 Sr1 2.697780 1_556
H21 W0 1.720235 1_555
H21 Sr1 2.697780 1_555
H21 Sr1 2.697780 1_556
H22 W0 1.720230 1_555
H22 Sr0 2.697780 1_655
H22 Sr0 2.697780 1_656
H23 W0 1.720226 1_555
H23 Sr2 2.697780 1_545
H23 Sr2 2.697780 1_546
H24 W1 1.770849 1_555
H24 Sr0 2.491917 1_556
H24 Sr1 2.745055 1_556
H25 W1 1.770852 1_555
H25 Sr2 2.491928 1_555
H25 Sr0 2.745043 1_555
H26 W1 1.770846 1_555
H26 Sr1 2.491931 1_555
H26 Sr2 2.745041 1_555
