# generated using pymatgen
data_Sc2Si3PbO10
_symmetry_space_group_name_H-M   'P 1'
_cell_length_a   11.81366616
_cell_length_b   5.27383167
_cell_length_c   6.59395738
_cell_angle_alpha   72.58524052
_cell_angle_beta   90.00000000
_cell_angle_gamma   90.00000000
_symmetry_Int_Tables_number   1
_chemical_formula_structural   Sc2Si3PbO10
_chemical_formula_sum   'Sc4 Si6 Pb2 O20'
_cell_volume   391.99433035
_cell_formula_units_Z   2
loop_
 _symmetry_equiv_pos_site_id
 _symmetry_equiv_pos_as_xyz
  1  'x, y, z'
loop_
 _atom_site_type_symbol
 _atom_site_label
 _atom_site_symmetry_multiplicity
 _atom_site_fract_x
 _atom_site_fract_y
 _atom_site_fract_z
 _atom_site_occupancy
  Sc  Sc0  1  0.10128534  0.84375973  0.67599134  1
  Sc  Sc1  1  0.60128534  0.15624027  0.32400866  1
  Sc  Sc2  1  0.89871466  0.15624027  0.32400866  1
  Sc  Sc3  1  0.39871466  0.84375973  0.67599134  1
  Si  Si0  1  0.25000000  0.43028135  0.47938683  1
  Si  Si1  1  0.75000000  0.56971865  0.52061317  1
  Si  Si2  1  0.05268057  0.69781257  0.20808931  1
  Si  Si3  1  0.55268057  0.30218743  0.79191069  1
  Si  Si4  1  0.94731943  0.30218743  0.79191069  1
  Si  Si5  1  0.44731943  0.69781257  0.20808931  1
  Pb  Pb0  1  0.25000000  0.20549150  0.99553573  1
  Pb  Pb1  1  0.75000000  0.79450850  0.00446427  1
  O  O0  1  0.25000000  0.66604607  0.59113930  1
  O  O1  1  0.75000000  0.33395393  0.40886070  1
  O  O2  1  0.25000000  0.13204320  0.64836066  1
  O  O3  1  0.75000000  0.86795680  0.35163934  1
  O  O4  1  0.13930938  0.45435124  0.33022609  1
  O  O5  1  0.63930938  0.54564876  0.66977391  1
  O  O6  1  0.86069062  0.54564876  0.66977391  1
  O  O7  1  0.36069062  0.45435124  0.33022609  1
  O  O8  1  0.93586647  0.54936782  0.18836512  1
  O  O9  1  0.43586647  0.45063218  0.81163488  1
  O  O10  1  0.06413353  0.45063218  0.81163488  1
  O  O11  1  0.56413353  0.54936782  0.18836512  1
  O  O12  1  0.11315288  0.86223355  0.98640944  1
  O  O13  1  0.61315288  0.13776645  0.01359056  1
  O  O14  1  0.88684712  0.13776645  0.01359056  1
  O  O15  1  0.38684712  0.86223355  0.98640944  1
  O  O16  1  0.03876663  0.89080404  0.36078065  1
  O  O17  1  0.53876663  0.10919596  0.63921935  1
  O  O18  1  0.96123337  0.10919596  0.63921935  1
  O  O19  1  0.46123337  0.89080404  0.36078065  1
loop_
_geom_bond_atom_site_label_1
_geom_bond_atom_site_label_2
_geom_bond_distance
_geom_bond_site_symmetry_2
O0 Si0 1.624022 1_555
O0 Sc3 2.142876 1_555
O0 Sc0 2.142876 1_555
O1 Si1 1.624022 1_555
O1 Sc2 2.142876 1_555
O1 Sc1 2.142876 1_555
O2 Si0 1.632895 1_555
O2 Sc3 2.294658 1_545
O2 Sc0 2.294658 1_545
O2 Pb0 2.433419 1_555
O3 Si1 1.632895 1_555
O3 Sc2 2.294658 1_565
O3 Sc1 2.294658 1_565
O3 Pb1 2.433419 1_555
O4 Si0 1.618255 1_555
O4 Si2 1.650937 1_555
O5 Si1 1.618255 1_555
O5 Si3 1.650937 1_555
O6 Si1 1.618255 1_555
O6 Si4 1.650937 1_555
O7 Si0 1.618255 1_555
O7 Si5 1.650937 1_555
O8 Si2 1.610950 1_655
O8 Sc2 2.044789 1_555
O8 Pb1 2.650448 1_555
O9 Si3 1.610950 1_555
O9 Sc3 2.044789 1_555
O9 Pb0 2.650448 1_555
O10 Si4 1.610950 1_455
O10 Sc0 2.044789 1_555
O10 Pb0 2.650448 1_555
O11 Si5 1.610950 1_555
O11 Sc1 2.044789 1_555
O11 Pb1 2.650448 1_555
O12 Si2 1.624894 1_556
O12 Sc0 2.082847 1_555
O12 Pb0 2.441223 1_565
O13 Si3 1.624894 1_554
O13 Sc1 2.082847 1_555
O13 Pb1 2.441223 1_545
O14 Si4 1.624894 1_554
O14 Sc2 2.082847 1_555
O14 Pb1 2.441223 1_545
O15 Si5 1.624894 1_556
O15 Sc3 2.082847 1_555
O15 Pb0 2.441223 1_565
O16 Si2 1.640143 1_555
O16 Sc2 2.133707 1_465
O16 Sc0 2.149065 1_555
O17 Si3 1.640143 1_555
O17 Sc3 2.133707 1_545
O17 Sc1 2.149065 1_555
O18 Si4 1.640143 1_555
O18 Sc0 2.133707 1_645
O18 Sc2 2.149065 1_555
O19 Si5 1.640143 1_555
O19 Sc1 2.133707 1_565
O19 Sc3 2.149065 1_555
