# generated using pymatgen
data_Cu2SiRh3S8
_symmetry_space_group_name_H-M   'P 1'
_cell_length_a   6.86451091
_cell_length_b   6.95896598
_cell_length_c   6.95978798
_cell_angle_alpha   60.02118128
_cell_angle_beta   59.56005225
_cell_angle_gamma   59.56371640
_symmetry_Int_Tables_number   1
_chemical_formula_structural   Cu2SiRh3S8
_chemical_formula_sum   'Cu2 Si1 Rh3 S8'
_cell_volume   233.55864247
_cell_formula_units_Z   1
loop_
 _symmetry_equiv_pos_site_id
 _symmetry_equiv_pos_as_xyz
  1  'x, y, z'
loop_
 _atom_site_type_symbol
 _atom_site_label
 _atom_site_symmetry_multiplicity
 _atom_site_fract_x
 _atom_site_fract_y
 _atom_site_fract_z
 _atom_site_occupancy
  Cu  Cu0  1  0.74587074  0.75093010  0.75130130  1
  Cu  Cu1  1  0.50412926  0.49906990  0.49869870  1
  Si  Si0  1  0.62500000  0.12500000  0.12500000  1
  Rh  Rh0  1  0.12500000  0.12500000  0.62500000  1
  Rh  Rh1  1  0.12500000  0.62500000  0.12500000  1
  Rh  Rh2  1  0.12500000  0.12500000  0.12500000  1
  S  S0  1  0.87850097  0.34533662  0.88810425  1
  S  S1  1  0.37157971  0.36195913  0.90452242  1
  S  S2  1  0.37150282  0.36209814  0.36203567  1
  S  S3  1  0.90497031  0.36506359  0.36506501  1
  S  S4  1  0.87849718  0.88790186  0.88796433  1
  S  S5  1  0.34502969  0.88493641  0.88493499  1
  S  S6  1  0.37149903  0.90466338  0.36189575  1
  S  S7  1  0.87842029  0.88804087  0.34547758  1
loop_
_geom_bond_atom_site_label_1
_geom_bond_atom_site_label_2
_geom_bond_distance
_geom_bond_site_symmetry_2
Cu0 S5 2.231540 1_555
Cu0 S0 2.300253 1_555
Cu0 S7 2.301769 1_555
Cu0 S4 2.303207 1_555
Cu1 S3 2.231540 1_555
Cu1 S6 2.300253 1_555
Cu1 S1 2.301769 1_555
Cu1 S2 2.303207 1_555
Rh0 S5 2.353065 1_545
Rh0 S3 2.353065 1_455
Rh0 S0 2.367494 1_455
Rh0 S6 2.367494 1_545
Rh0 S2 2.368142 1_555
Rh0 S4 2.368142 1_445
Rh1 S5 2.352791 1_554
Rh1 S3 2.352791 1_455
Rh1 S7 2.367801 1_455
Rh1 S1 2.367801 1_554
Rh1 S2 2.368077 1_555
Rh1 S4 2.368077 1_454
Rh2 S3 2.353652 1_455
Rh2 S5 2.353652 1_544
Rh2 S6 2.367355 1_545
Rh2 S0 2.367355 1_454
Rh2 S1 2.367747 1_554
Rh2 S7 2.367747 1_445
S0 Si0 2.316748 1_556
S1 Si0 2.317276 1_556
S2 Si0 2.318289 1_555
S4 Si0 2.318289 1_566
S6 Si0 2.316748 1_565
S7 Si0 2.317276 1_565
