# generated using pymatgen
data_Zr4NbSn3P
_symmetry_space_group_name_H-M   'P 1'
_cell_length_a   8.54085706
_cell_length_b   8.54085685
_cell_length_c   5.86073607
_cell_angle_alpha   90.00000000
_cell_angle_beta   90.00000000
_cell_angle_gamma   119.99998930
_symmetry_Int_Tables_number   1
_chemical_formula_structural   Zr4NbSn3P
_chemical_formula_sum   'Zr8 Nb2 Sn6 P2'
_cell_volume   370.24204760
_cell_formula_units_Z   2
loop_
 _symmetry_equiv_pos_site_id
 _symmetry_equiv_pos_as_xyz
  1  'x, y, z'
loop_
 _atom_site_type_symbol
 _atom_site_label
 _atom_site_symmetry_multiplicity
 _atom_site_fract_x
 _atom_site_fract_y
 _atom_site_fract_z
 _atom_site_occupancy
  Zr  Zr0  1  0.33333300  0.66666700  0.50000000  1
  Zr  Zr1  1  0.66666700  0.33333300  0.50000000  1
  Zr  Zr2  1  0.74855446  0.74855446  0.74967718  1
  Zr  Zr3  1  0.25144554  1.00000000  0.74967718  1
  Zr  Zr4  1  1.00000000  0.25144554  0.74967718  1
  Zr  Zr5  1  0.25144554  0.25144554  0.25032282  1
  Zr  Zr6  1  0.74855446  0.00000000  0.25032282  1
  Zr  Zr7  1  0.00000000  0.74855446  0.25032282  1
  Nb  Nb0  1  0.66666700  0.33333300  0.00000000  1
  Nb  Nb1  1  0.33333300  0.66666700  0.00000000  1
  Sn  Sn0  1  0.40088125  0.40088125  0.75732315  1
  Sn  Sn1  1  0.59911875  0.00000000  0.75732315  1
  Sn  Sn2  1  0.00000000  0.59911875  0.75732315  1
  Sn  Sn3  1  0.59911875  0.59911875  0.24267685  1
  Sn  Sn4  1  0.40088125  1.00000000  0.24267685  1
  Sn  Sn5  1  1.00000000  0.40088125  0.24267685  1
  P  P0  1  0.00000000  0.00000000  0.00000000  1
  P  P1  1  0.00000000  0.00000000  0.50000000  1
loop_
_geom_bond_atom_site_label_1
_geom_bond_atom_site_label_2
_geom_bond_distance
_geom_bond_site_symmetry_2
Nb0 Zr1 2.930368 1_555
Nb0 Zr1 2.930368 1_554
Nb0 Sn1 2.969568 1_554
Nb0 Sn5 2.969568 1_555
Nb0 Sn4 2.969571 1_545
Nb0 Sn2 2.969571 1_654
Nb0 Sn3 2.969575 1_555
Nb0 Sn0 2.969575 1_554
Nb1 Zr0 2.930368 1_555
Nb1 Zr0 2.930368 1_554
Nb1 Sn4 2.969568 1_555
Nb1 Sn2 2.969568 1_554
Nb1 Sn1 2.969571 1_564
Nb1 Sn5 2.969571 1_455
Nb1 Sn0 2.969575 1_554
Nb1 Sn3 2.969575 1_555
Sn0 Zr2 2.969766 1_555
Sn0 Zr3 2.997322 1_545
Sn0 Zr4 2.997322 1_455
Sn0 Zr0 3.011630 1_555
Sn0 Zr1 3.011630 1_555
Sn0 Zr5 3.158680 1_556
Sn0 Zr5 3.233907 1_555
Sn1 Zr3 2.969765 1_545
Sn1 Zr2 2.997322 1_545
Sn1 Zr4 2.997322 1_555
Sn1 Zr1 3.011623 1_555
Sn1 Zr0 3.011625 1_545
Sn1 Zr6 3.158679 1_556
Sn1 Zr6 3.233907 1_555
Sn2 Zr4 2.969765 1_455
Sn2 Zr2 2.997322 1_455
Sn2 Zr3 2.997322 1_555
Sn2 Zr0 3.011623 1_555
Sn2 Zr1 3.011625 1_455
Sn2 Zr7 3.158679 1_556
Sn2 Zr7 3.233907 1_555
Sn3 Zr5 2.969766 1_555
Sn3 Zr6 2.997322 1_565
Sn3 Zr7 2.997322 1_655
Sn3 Zr1 3.011630 1_555
Sn3 Zr0 3.011630 1_555
Sn3 Zr2 3.158680 1_554
Sn3 Zr2 3.233907 1_555
Sn4 Zr6 2.969765 1_565
Sn4 Zr5 2.997322 1_565
Sn4 Zr7 2.997322 1_555
Sn4 Zr0 3.011623 1_555
Sn4 Zr1 3.011625 1_565
Sn4 Zr3 3.158679 1_554
Sn4 Zr3 3.233907 1_555
Sn5 Zr7 2.969765 1_655
Sn5 Zr5 2.997322 1_655
Sn5 Zr6 2.997322 1_555
Sn5 Zr1 3.011623 1_555
Sn5 Zr0 3.011625 1_655
Sn5 Zr4 3.158679 1_554
Sn5 Zr4 3.233907 1_555
P0 Zr4 2.600832 1_454
P0 Zr7 2.600832 1_545
P0 Zr3 2.600832 1_544
P0 Zr6 2.600832 1_455
P0 Zr5 2.600832 1_555
P0 Zr2 2.600832 1_444
P1 Zr4 2.598700 1_455
P1 Zr7 2.598700 1_545
P1 Zr3 2.598700 1_545
P1 Zr6 2.598700 1_455
P1 Zr5 2.598700 1_555
P1 Zr2 2.598700 1_445
