# generated using pymatgen
data_BeNb10Si2P3
_symmetry_space_group_name_H-M   'P 1'
_cell_length_a   7.49151495
_cell_length_b   7.49151554
_cell_length_c   7.45341945
_cell_angle_alpha   128.25611797
_cell_angle_beta   128.25611715
_cell_angle_gamma   76.58171067
_symmetry_Int_Tables_number   1
_chemical_formula_structural   BeNb10Si2P3
_chemical_formula_sum   'Be1 Nb10 Si2 P3'
_cell_volume   250.04818716
_cell_formula_units_Z   1
loop_
 _symmetry_equiv_pos_site_id
 _symmetry_equiv_pos_as_xyz
  1  'x, y, z'
loop_
 _atom_site_type_symbol
 _atom_site_label
 _atom_site_symmetry_multiplicity
 _atom_site_fract_x
 _atom_site_fract_y
 _atom_site_fract_z
 _atom_site_occupancy
  Be  Be0  1  0.12532937  0.62532937  0.75065974  1
  Nb  Nb0  1  0.01809198  0.19128846  0.50357408  1
  Nb  Nb1  1  0.51786404  0.01786404  0.82675290  1
  Nb  Nb2  1  0.18837466  0.68837466  0.16598743  1
  Nb  Nb3  1  0.47761277  0.97761277  0.16598743  1
  Nb  Nb4  1  0.69128846  0.51809198  0.50357408  1
  Nb  Nb5  1  0.98548110  0.81228562  0.50357408  1
  Nb  Nb6  1  0.31228562  0.48548110  0.50357408  1
  Nb  Nb7  1  0.80888786  0.30888786  0.82675290  1
  Nb  Nb8  1  0.49834373  0.49948179  0.99782552  1
  Nb  Nb9  1  0.99948179  0.99834373  0.99782552  1
  Si  Si0  1  0.75022824  0.75022824  0.00045549  1
  Si  Si1  1  0.25022824  0.25022824  0.00045549  1
  P  P0  1  0.63446498  0.86189999  0.49636497  1
  P  P1  1  0.36189999  0.13446498  0.49636497  1
  P  P2  1  0.88013616  0.38013616  0.26027231  1
loop_
_geom_bond_atom_site_label_1
_geom_bond_atom_site_label_2
_geom_bond_distance
_geom_bond_site_symmetry_2
Be0 P2 2.246177 1_455
Be0 Nb2 2.551736 1_556
Be0 Nb3 2.551744 1_556
Be0 Nb4 2.564110 1_455
Be0 Nb0 2.564111 1_555
Be0 Nb6 2.564117 1_555
Be0 Nb5 2.564117 1_455
Be0 Nb8 2.577708 1_555
Be0 Nb9 2.577709 1_455
Nb0 P1 2.540122 1_555
Nb0 P2 2.556512 1_455
Nb0 Si1 2.700115 1_556
Nb0 Si0 2.724240 1_445
Nb1 P0 2.611372 1_545
Nb1 P1 2.611372 1_555
Nb1 P2 2.621297 1_556
Nb1 Si1 2.744126 1_556
Nb1 Si0 2.744126 1_546
Nb2 P0 2.604473 1_555
Nb2 P1 2.604473 1_565
Nb2 Si0 2.738248 1_455
Nb2 Si1 2.738248 1_555
Nb3 P1 2.604472 1_565
Nb3 P0 2.604473 1_555
Nb3 Si0 2.738254 1_555
Nb3 Si1 2.738254 1_565
Nb4 P0 2.540123 1_555
Nb4 P2 2.556512 1_555
Nb4 Si0 2.700115 1_556
Nb4 Si1 2.724239 1_555
Nb5 P0 2.540115 1_555
Nb5 P2 2.556511 1_555
Nb5 Si1 2.700122 1_666
Nb5 Si0 2.724246 1_555
Nb6 P1 2.540115 1_555
Nb6 P2 2.556510 1_455
Nb6 Si0 2.700122 1_556
Nb6 Si1 2.724246 1_555
Nb7 P1 2.611365 1_555
Nb7 P0 2.611365 1_545
Nb7 P2 2.621289 1_556
Nb7 Si1 2.744137 1_656
Nb7 Si0 2.744137 1_556
Nb8 P0 2.513564 1_556
Nb8 P1 2.530139 1_555
Nb8 P2 2.618590 1_556
Nb8 Si1 2.939976 1_556
Nb8 Si0 2.939988 1_556
Nb9 P1 2.513564 1_666
Nb9 P0 2.530139 1_555
Nb9 P2 2.618590 1_566
Nb9 Si0 2.939976 1_556
Nb9 Si1 2.939988 1_666
