# generated using pymatgen
data_SrLuReH6
_symmetry_space_group_name_H-M   'P 1'
_cell_length_a   5.14250644
_cell_length_b   5.14250703
_cell_length_c   5.14250576
_cell_angle_alpha   59.99999550
_cell_angle_beta   59.99999171
_cell_angle_gamma   60.00000192
_symmetry_Int_Tables_number   1
_chemical_formula_structural   SrLuReH6
_chemical_formula_sum   'Sr1 Lu1 Re1 H6'
_cell_volume   96.16332926
_cell_formula_units_Z   1
loop_
 _symmetry_equiv_pos_site_id
 _symmetry_equiv_pos_as_xyz
  1  'x, y, z'
loop_
 _atom_site_type_symbol
 _atom_site_label
 _atom_site_symmetry_multiplicity
 _atom_site_fract_x
 _atom_site_fract_y
 _atom_site_fract_z
 _atom_site_occupancy
  Sr  Sr0  1  0.75000000  0.75000000  0.75000000  1
  Lu  Lu0  1  0.25000000  0.25000000  0.25000000  1
  Re  Re0  1  0.00000000  0.00000000  0.00000000  1
  H  H0  1  0.75659591  0.75659591  0.24340409  1
  H  H1  1  0.24340409  0.75659591  0.24340409  1
  H  H2  1  0.75659591  0.24340409  0.24340409  1
  H  H3  1  0.24340409  0.24340409  0.75659591  1
  H  H4  1  0.75659591  0.24340409  0.75659591  1
  H  H5  1  0.24340409  0.75659591  0.75659591  1
loop_
_geom_bond_atom_site_label_1
_geom_bond_atom_site_label_2
_geom_bond_distance
_geom_bond_site_symmetry_2
H0 Re0 1.770181 1_665
H0 Sr0 2.571700 1_555
H0 Sr0 2.571700 1_554
H0 Lu0 2.571701 1_565
H0 Lu0 2.571701 1_655
H1 Re0 1.770181 1_565
H1 Sr0 2.571700 1_455
H1 Sr0 2.571700 1_554
H1 Lu0 2.571701 1_565
H1 Lu0 2.571701 1_555
H2 Re0 1.770181 1_655
H2 Sr0 2.571700 1_545
H2 Sr0 2.571700 1_554
H2 Lu0 2.571701 1_555
H2 Lu0 2.571701 1_655
H3 Re0 1.770181 1_556
H3 Lu0 2.571700 1_555
H3 Lu0 2.571700 1_556
H3 Sr0 2.571701 1_545
H3 Sr0 2.571701 1_455
H4 Re0 1.770181 1_656
H4 Lu0 2.571700 1_655
H4 Lu0 2.571700 1_556
H4 Sr0 2.571701 1_545
H4 Sr0 2.571701 1_555
H5 Re0 1.770181 1_566
H5 Lu0 2.571700 1_565
H5 Lu0 2.571700 1_556
H5 Sr0 2.571701 1_555
H5 Sr0 2.571701 1_455
