# generated using pymatgen
data_Y2Os3Ru
_symmetry_space_group_name_H-M   'P 1'
_cell_length_a   5.24668880
_cell_length_b   5.24668846
_cell_length_c   9.01822105
_cell_angle_alpha   90.00000000
_cell_angle_beta   90.00000000
_cell_angle_gamma   120.00000217
_symmetry_Int_Tables_number   1
_chemical_formula_structural   Y2Os3Ru
_chemical_formula_sum   'Y4 Os6 Ru2'
_cell_volume   214.99189156
_cell_formula_units_Z   2
loop_
 _symmetry_equiv_pos_site_id
 _symmetry_equiv_pos_as_xyz
  1  'x, y, z'
loop_
 _atom_site_type_symbol
 _atom_site_label
 _atom_site_symmetry_multiplicity
 _atom_site_fract_x
 _atom_site_fract_y
 _atom_site_fract_z
 _atom_site_occupancy
  Y  Y0  1  0.66666600  0.33333300  0.06658622  1
  Y  Y1  1  0.66666600  0.33333300  0.43341378  1
  Y  Y2  1  0.33333400  0.66666800  0.56658522  1
  Y  Y3  1  0.33333400  0.66666800  0.93341478  1
  Os  Os0  1  0.17033334  0.34066667  0.25000000  1
  Os  Os1  1  0.17033434  0.82966566  0.25000000  1
  Os  Os2  1  0.65933233  0.82966566  0.25000000  1
  Os  Os3  1  0.34066567  0.17033234  0.75000000  1
  Os  Os4  1  0.82966666  0.17033234  0.75000000  1
  Os  Os5  1  0.82966566  0.65933333  0.75000000  1
  Ru  Ru0  1  0.00000000  0.00000000  0.00000000  1
  Ru  Ru1  1  0.00000000  0.00000000  0.50000000  1
loop_
_geom_bond_atom_site_label_1
_geom_bond_atom_site_label_2
_geom_bond_distance
_geom_bond_site_symmetry_2
Os0 Os1 2.565623 1_555
Os0 Os2 2.565625 1_555
Os0 Os2 2.681063 1_445
Os0 Os1 2.681066 1_545
Os0 Ru0 2.734784 1_555
Os0 Ru1 2.734784 1_555
Os0 Y1 3.101446 1_555
Os0 Y0 3.101446 1_555
Os0 Y1 3.101450 1_455
Os0 Y0 3.101450 1_455
Os0 Y2 3.216426 1_555
Os0 Y3 3.216426 1_554
Os1 Os2 2.565620 1_555
Os1 Os2 2.681069 1_455
Os1 Ru1 2.734789 1_565
Os1 Ru0 2.734789 1_565
Os1 Y1 3.101446 1_565
Os1 Y0 3.101446 1_565
Os1 Y1 3.101450 1_455
Os1 Y0 3.101450 1_455
Os1 Y2 3.216418 1_555
Os1 Y3 3.216418 1_554
Os2 Ru1 2.734787 1_665
Os2 Ru0 2.734787 1_665
Os2 Y1 3.101446 1_555
Os2 Y0 3.101446 1_555
Os2 Y1 3.101450 1_565
Os2 Y0 3.101450 1_565
Os2 Y2 3.216420 1_555
Os2 Y3 3.216420 1_554
Os3 Os5 2.565633 1_555
Os3 Os4 2.565636 1_555
Os3 Os4 2.681053 1_455
Os3 Os5 2.681055 1_445
Os3 Ru1 2.734781 1_555
Os3 Ru0 2.734781 1_556
Os3 Y3 3.101446 1_545
Os3 Y2 3.101446 1_545
Os3 Y3 3.101459 1_555
Os3 Y2 3.101459 1_555
Os3 Y0 3.216432 1_556
Os3 Y1 3.216432 1_555
Os4 Os5 2.565638 1_555
Os4 Os5 2.681050 1_545
Os4 Ru0 2.734781 1_656
Os4 Ru1 2.734781 1_655
Os4 Y3 3.101446 1_545
Os4 Y2 3.101446 1_545
Os4 Y3 3.101459 1_655
Os4 Y2 3.101459 1_655
Os4 Y0 3.216434 1_556
Os4 Y1 3.216434 1_555
Os5 Ru0 2.734784 1_666
Os5 Ru1 2.734784 1_665
Os5 Y3 3.101449 1_555
Os5 Y2 3.101449 1_555
Os5 Y3 3.101457 1_655
Os5 Y2 3.101457 1_655
Os5 Y0 3.216432 1_556
Os5 Y1 3.216432 1_555
Ru0 Y3 3.088118 1_544
Ru0 Y3 3.088118 1_444
Ru0 Y0 3.088120 1_555
Ru0 Y0 3.088124 1_445
Ru0 Y0 3.088124 1_455
Ru0 Y3 3.088127 1_554
Ru1 Y2 3.088118 1_545
Ru1 Y2 3.088118 1_445
Ru1 Y1 3.088120 1_555
Ru1 Y1 3.088124 1_445
Ru1 Y1 3.088124 1_455
Ru1 Y2 3.088127 1_555
