# generated using pymatgen
data_K2Be3S4
_symmetry_space_group_name_H-M   'P 1'
_cell_length_a   8.59372334
_cell_length_b   8.59372332
_cell_length_c   8.59372370
_cell_angle_alpha   144.84270333
_cell_angle_beta   107.15402724
_cell_angle_gamma   83.53963806
_symmetry_Int_Tables_number   1
_chemical_formula_structural   K2Be3S4
_chemical_formula_sum   'K4 Be6 S8'
_cell_volume   339.52192348
_cell_formula_units_Z   2
loop_
 _symmetry_equiv_pos_site_id
 _symmetry_equiv_pos_as_xyz
  1  'x, y, z'
loop_
 _atom_site_type_symbol
 _atom_site_label
 _atom_site_symmetry_multiplicity
 _atom_site_fract_x
 _atom_site_fract_y
 _atom_site_fract_z
 _atom_site_occupancy
  K  K0  1  0.62243442  0.73380537  0.35624079  1
  K  K1  1  0.37756558  0.26619463  0.64375921  1
  K  K2  1  0.12243442  0.76619463  0.88862905  1
  K  K3  1  0.87756558  0.23380537  0.11137095  1
  Be  Be0  1  0.75000000  0.25000000  0.50000000  1
  Be  Be1  1  0.25000000  0.75000000  0.50000000  1
  Be  Be2  1  0.98544309  0.75000000  0.23544309  1
  Be  Be3  1  0.51455691  0.75000000  0.76455691  1
  Be  Be4  1  0.01455691  0.25000000  0.76455691  1
  Be  Be5  1  0.48544309  0.25000000  0.23544309  1
  S  S0  1  0.02717548  0.88539275  0.59490019  1
  S  S1  1  0.29049155  0.43227528  0.40509981  1
  S  S2  1  0.20950845  0.61460725  0.14178273  1
  S  S3  1  0.47282452  0.06772472  0.85821727  1
  S  S4  1  0.97282452  0.11460725  0.40509981  1
  S  S5  1  0.70950845  0.56772472  0.59490019  1
  S  S6  1  0.79049155  0.38539275  0.85821727  1
  S  S7  1  0.52717548  0.93227528  0.14178273  1
loop_
_geom_bond_atom_site_label_1
_geom_bond_atom_site_label_2
_geom_bond_distance
_geom_bond_site_symmetry_2
K0 S5 3.231769 1_555
K0 S0 3.231777 1_655
K0 S3 3.270599 1_565
K0 S6 3.270605 1_565
K0 S2 3.303253 1_555
K0 S7 3.303269 1_555
K0 S3 3.329770 1_554
K0 S6 3.329772 1_554
K1 S1 3.231769 1_555
K1 S4 3.231777 1_455
K1 S7 3.270599 1_545
K1 S2 3.270605 1_545
K1 S6 3.303253 1_555
K1 S3 3.303269 1_555
K1 S7 3.329770 1_556
K1 S2 3.329772 1_556
K2 S2 3.231777 1_556
K2 S7 3.231777 1_556
K2 S1 3.270599 1_555
K2 S4 3.270605 1_455
K2 S5 3.303254 1_455
K2 S0 3.303262 1_555
K2 S1 3.329770 1_566
K2 S4 3.329772 1_466
K3 S6 3.231777 1_554
K3 S3 3.231777 1_554
K3 S5 3.270599 1_555
K3 S0 3.270605 1_655
K3 S1 3.303254 1_655
K3 S4 3.303262 1_555
K3 S5 3.329770 1_544
K3 S0 3.329772 1_644
Be0 S5 2.133997 1_555
Be0 S4 2.133998 1_555
Be0 S7 2.133998 1_545
Be0 S6 2.134000 1_555
Be1 S1 2.133997 1_555
Be1 S0 2.133998 1_555
Be1 S3 2.133998 1_565
Be1 S2 2.134000 1_555
Be2 S4 2.121822 1_565
Be2 S6 2.121827 1_554
Be2 S0 2.141987 1_655
Be2 S2 2.141995 1_655
Be3 S7 2.121822 1_556
Be3 S5 2.121830 1_555
Be3 S3 2.141987 1_565
Be3 S1 2.141992 1_555
Be4 S0 2.121822 1_545
Be4 S2 2.121827 1_556
Be4 S4 2.141987 1_455
Be4 S6 2.141995 1_455
Be5 S3 2.121822 1_554
Be5 S1 2.121830 1_555
Be5 S7 2.141987 1_545
Be5 S5 2.141992 1_555
