# generated using pymatgen
data_BaNa2(SnP)6
_symmetry_space_group_name_H-M   'P 1'
_cell_length_a   6.88205171
_cell_length_b   6.88205296
_cell_length_c   9.53478423
_cell_angle_alpha   83.06017170
_cell_angle_beta   83.06018232
_cell_angle_gamma   119.97377486
_symmetry_Int_Tables_number   1
_chemical_formula_structural   BaNa2(SnP)6
_chemical_formula_sum   'Ba1 Na2 Sn6 P6'
_cell_volume   379.60931088
_cell_formula_units_Z   1
loop_
 _symmetry_equiv_pos_site_id
 _symmetry_equiv_pos_as_xyz
  1  'x, y, z'
loop_
 _atom_site_type_symbol
 _atom_site_label
 _atom_site_symmetry_multiplicity
 _atom_site_fract_x
 _atom_site_fract_y
 _atom_site_fract_z
 _atom_site_occupancy
  Ba  Ba0  1  0.00000000  0.00000000  0.00000000  1
  Na  Na0  1  0.66603057  0.33396943  0.00000000  1
  Na  Na1  1  0.33396943  0.66603057  1.00000000  1
  Sn  Sn0  1  0.54897958  0.87803766  0.36711918  1
  Sn  Sn1  1  0.20752113  0.20752113  0.36569677  1
  Sn  Sn2  1  0.87803766  0.54897958  0.36711918  1
  Sn  Sn3  1  0.45102042  0.12196234  0.63288082  1
  Sn  Sn4  1  0.12196234  0.45102042  0.63288082  1
  Sn  Sn5  1  0.79247887  0.79247887  0.63430323  1
  P  P0  1  0.41727767  0.41727767  0.77250303  1
  P  P1  1  0.07536767  0.73354831  0.77234770  1
  P  P2  1  0.73354831  0.07536767  0.77234770  1
  P  P3  1  0.58272233  0.58272233  0.22749697  1
  P  P4  1  0.26645169  0.92463233  0.22765230  1
  P  P5  1  0.92463233  0.26645169  0.22765230  1
loop_
_geom_bond_atom_site_label_1
_geom_bond_atom_site_label_2
_geom_bond_distance
_geom_bond_site_symmetry_2
Ba0 P0 3.154029 1_554
Ba0 P3 3.154029 1_445
Ba0 P4 3.159645 1_545
Ba0 P2 3.159645 1_454
Ba0 P5 3.159645 1_455
Ba0 P1 3.159645 1_544
Na0 P0 3.089031 1_554
Na0 P3 3.089032 1_555
Na0 P1 3.090125 1_654
Na0 P4 3.090125 1_545
Na0 P5 3.100153 1_555
Na0 P2 3.100154 1_554
Na1 P3 3.089031 1_556
Na1 P0 3.089032 1_555
Na1 P5 3.090125 1_456
Na1 P2 3.090125 1_565
Na1 P1 3.100153 1_555
Na1 P4 3.100154 1_556
P0 Sn5 2.600902 1_555
P0 Sn4 2.647159 1_555
P0 Sn3 2.647160 1_555
P1 Sn4 2.607013 1_555
P1 Sn5 2.639386 1_455
P1 Sn3 2.646204 1_565
P2 Sn3 2.607013 1_555
P2 Sn5 2.639387 1_545
P2 Sn4 2.646204 1_655
P3 Sn1 2.600902 1_555
P3 Sn2 2.647159 1_555
P3 Sn0 2.647160 1_555
P4 Sn0 2.607013 1_555
P4 Sn1 2.639387 1_565
P4 Sn2 2.646204 1_455
P5 Sn2 2.607013 1_555
P5 Sn1 2.639386 1_655
P5 Sn0 2.646204 1_545
