# generated using pymatgen
data_DyAl3
_symmetry_space_group_name_H-M   'P 1'
_cell_length_a   5.46522165
_cell_length_b   5.46522165
_cell_length_c   5.46522165
_cell_angle_alpha   134.95780180
_cell_angle_beta   134.95780180
_cell_angle_gamma   65.59577302
_symmetry_Int_Tables_number   1
_chemical_formula_structural   DyAl3
_chemical_formula_sum   'Dy1 Al3'
_cell_volume   80.52243643
_cell_formula_units_Z   1
loop_
 _symmetry_equiv_pos_site_id
 _symmetry_equiv_pos_as_xyz
  1  'x, y, z'
loop_
 _atom_site_type_symbol
 _atom_site_label
 _atom_site_symmetry_multiplicity
 _atom_site_fract_x
 _atom_site_fract_y
 _atom_site_fract_z
 _atom_site_occupancy
  Dy  Dy0  1  0.00000000  0.00000000  0.00000000  1
  Al  Al0  1  0.50000000  0.50000000  0.00000000  1
  Al  Al1  1  0.75000000  0.25000000  0.50000000  1
  Al  Al2  1  0.25000000  0.75000000  0.50000000  1
loop_
_geom_bond_atom_site_label_1
_geom_bond_atom_site_label_2
_geom_bond_distance
_geom_bond_site_symmetry_2
Al0 Dy0 2.960386 1_565
Al0 Dy0 2.960386 1_554
Al0 Dy0 2.960386 1_655
Al0 Dy0 2.960386 1_666
Al0 Al2 3.107754 1_544
Al0 Al2 3.107754 1_555
Al0 Al1 3.107754 1_554
Al0 Al1 3.107754 1_565
Al0 Al2 3.107754 1_554
Al0 Al1 3.107754 1_555
Al0 Al2 3.107754 1_655
Al0 Al1 3.107754 1_454
Al1 Al2 2.960386 1_555
Al1 Al2 2.960386 1_544
Al1 Al2 2.960386 1_645
Al1 Al2 2.960386 1_656
Al1 Dy0 3.107754 1_666
Al1 Dy0 3.107754 1_655
Al1 Dy0 3.107754 1_656
Al1 Dy0 3.107754 1_555
Al2 Dy0 3.107754 1_566
Al2 Dy0 3.107754 1_565
Al2 Dy0 3.107754 1_555
Al2 Dy0 3.107754 1_666
