# generated using pymatgen
data_Ba3(GaIr)4
_symmetry_space_group_name_H-M   'P 1'
_cell_length_a   6.85538053
_cell_length_b   6.85538119
_cell_length_c   6.85538083
_cell_angle_alpha   109.47122247
_cell_angle_beta   109.47122442
_cell_angle_gamma   109.47122307
_symmetry_Int_Tables_number   1
_chemical_formula_structural   Ba3(GaIr)4
_chemical_formula_sum   'Ba3 Ga4 Ir4'
_cell_volume   248.01207587
_cell_formula_units_Z   1
loop_
 _symmetry_equiv_pos_site_id
 _symmetry_equiv_pos_as_xyz
  1  'x, y, z'
loop_
 _atom_site_type_symbol
 _atom_site_label
 _atom_site_symmetry_multiplicity
 _atom_site_fract_x
 _atom_site_fract_y
 _atom_site_fract_z
 _atom_site_occupancy
  Ba  Ba0  1  0.00000000  0.50000000  0.50000000  1
  Ba  Ba1  1  0.50000000  0.00000000  0.50000000  1
  Ba  Ba2  1  0.50000000  0.50000000  0.00000000  1
  Ga  Ga0  1  0.61731897  0.61731897  0.61731897  1
  Ga  Ga1  1  1.00000000  1.00000000  0.38268103  1
  Ga  Ga2  1  1.00000000  0.38268103  1.00000000  1
  Ga  Ga3  1  0.38268103  1.00000000  1.00000000  1
  Ir  Ir0  1  0.25394161  0.25394161  0.25394161  1
  Ir  Ir1  1  0.00000000  0.00000000  0.74605839  1
  Ir  Ir2  1  0.00000000  0.74605839  0.00000000  1
  Ir  Ir3  1  0.74605839  0.00000000  0.00000000  1
loop_
_geom_bond_atom_site_label_1
_geom_bond_atom_site_label_2
_geom_bond_distance
_geom_bond_site_symmetry_2
Ba0 Ga3 3.249316 1_555
Ba0 Ga0 3.249316 1_455
Ba0 Ga2 3.249316 1_454
Ba0 Ga1 3.249316 1_445
Ba0 Ir3 3.277168 1_455
Ba0 Ir2 3.277168 1_556
Ba0 Ir0 3.277168 1_555
Ba0 Ir1 3.277168 1_565
Ba0 Ga3 3.772765 1_444
Ba0 Ga0 3.772765 1_555
Ba0 Ga2 3.772765 1_455
Ba0 Ga1 3.772765 1_455
Ba0 Ba2 3.957956 1_455
Ba0 Ba2 3.957956 1_556
Ba0 Ba1 3.957956 1_565
Ba0 Ba1 3.957956 1_455
Ba1 Ga2 3.249316 1_555
Ba1 Ga1 3.249316 1_445
Ba1 Ga3 3.249316 1_544
Ba1 Ga0 3.249316 1_545
Ba1 Ir2 3.277168 1_545
Ba1 Ir1 3.277168 1_655
Ba1 Ir3 3.277168 1_556
Ba1 Ir0 3.277168 1_555
Ba1 Ga2 3.772765 1_444
Ba1 Ga1 3.772765 1_545
Ba1 Ga3 3.772765 1_545
Ba1 Ga0 3.772765 1_555
Ba1 Ba2 3.957956 1_556
Ba1 Ba2 3.957956 1_545
Ba2 Ga1 3.249316 1_555
Ba2 Ga2 3.249316 1_454
Ba2 Ga0 3.249316 1_554
Ba2 Ga3 3.249316 1_544
Ba2 Ir1 3.277168 1_554
Ba2 Ir2 3.277168 1_655
Ba2 Ir0 3.277168 1_555
Ba2 Ir3 3.277168 1_565
Ba2 Ga1 3.772765 1_444
Ba2 Ga2 3.772765 1_554
Ba2 Ga0 3.772765 1_555
Ba2 Ga3 3.772765 1_554
Ga0 Ir0 2.491090 1_555
Ga0 Ir2 2.620741 1_656
Ga0 Ir1 2.620741 1_665
Ga0 Ir3 2.620741 1_566
Ga1 Ir1 2.491090 1_665
Ga1 Ir3 2.620741 1_565
Ga1 Ir2 2.620741 1_655
Ga1 Ir0 2.620741 1_665
Ga2 Ir2 2.491090 1_656
Ga2 Ir0 2.620741 1_656
Ga2 Ir3 2.620741 1_556
Ga2 Ir1 2.620741 1_655
Ga3 Ir3 2.491090 1_566
Ga3 Ir1 2.620741 1_565
Ga3 Ir2 2.620741 1_556
Ga3 Ir0 2.620741 1_566
Ir0 Ir3 2.842823 1_455
Ir0 Ir1 2.842823 1_554
Ir0 Ir2 2.842823 1_545
Ir1 Ir3 2.842823 1_456
Ir1 Ir2 2.842823 1_546
Ir2 Ir3 2.842823 1_465
