# generated using pymatgen
data_Hf6Al4Si3Ni16
_symmetry_space_group_name_H-M   'P 1'
_cell_length_a   8.07892095
_cell_length_b   8.08927973
_cell_length_c   8.08928078
_cell_angle_alpha   59.99999971
_cell_angle_beta   59.95757584
_cell_angle_gamma   59.95757795
_symmetry_Int_Tables_number   1
_chemical_formula_structural   Hf6Al4Si3Ni16
_chemical_formula_sum   'Hf6 Al4 Si3 Ni16'
_cell_volume   373.57632461
_cell_formula_units_Z   1
loop_
 _symmetry_equiv_pos_site_id
 _symmetry_equiv_pos_as_xyz
  1  'x, y, z'
loop_
 _atom_site_type_symbol
 _atom_site_label
 _atom_site_symmetry_multiplicity
 _atom_site_fract_x
 _atom_site_fract_y
 _atom_site_fract_z
 _atom_site_occupancy
  Hf  Hf0  1  0.79224125  0.20616107  0.79543660  1
  Hf  Hf1  1  0.79224125  0.79543660  0.20616107  1
  Hf  Hf2  1  0.20775875  0.79383893  0.79383893  1
  Hf  Hf3  1  0.20775875  0.20456340  0.79383893  1
  Hf  Hf4  1  0.79224125  0.20616107  0.20616107  1
  Hf  Hf5  1  0.20775875  0.79383893  0.20456340  1
  Al  Al0  1  0.00000000  0.50000000  0.00000000  1
  Al  Al1  1  0.50000000  0.50000000  0.50000000  1
  Al  Al2  1  0.00000000  0.50000000  0.50000000  1
  Al  Al3  1  0.00000000  0.00000000  0.50000000  1
  Si  Si0  1  0.50000000  0.50000000  0.00000000  1
  Si  Si1  1  0.50000000  0.00000000  0.50000000  1
  Si  Si2  1  0.50000000  0.00000000  0.00000000  1
  Ni  Ni0  1  0.17413809  0.16522529  0.16522529  1
  Ni  Ni1  1  0.61590161  0.62226166  0.13957607  1
  Ni  Ni2  1  0.38409839  0.37773834  0.37773834  1
  Ni  Ni3  1  0.17413809  0.49541233  0.16522529  1
  Ni  Ni4  1  0.17413809  0.16522529  0.49541233  1
  Ni  Ni5  1  0.13591053  0.62136316  0.62136316  1
  Ni  Ni6  1  0.61590161  0.13957607  0.62226166  1
  Ni  Ni7  1  0.82586191  0.83477471  0.83477471  1
  Ni  Ni8  1  0.86408947  0.37863684  0.37863684  1
  Ni  Ni9  1  0.38409839  0.37773834  0.86042393  1
  Ni  Ni10  1  0.38409839  0.86042393  0.37773834  1
  Ni  Ni11  1  0.50604829  0.83131657  0.83131657  1
  Ni  Ni12  1  0.61590161  0.62226166  0.62226166  1
  Ni  Ni13  1  0.82586191  0.83477471  0.50458767  1
  Ni  Ni14  1  0.49395171  0.16868343  0.16868343  1
  Ni  Ni15  1  0.82586191  0.50458767  0.83477471  1
loop_
_geom_bond_atom_site_label_1
_geom_bond_atom_site_label_2
_geom_bond_distance
_geom_bond_site_symmetry_2
Hf0 Ni9 2.736217 1_555
Hf0 Ni15 2.741165 1_555
Hf0 Ni7 2.741173 1_545
Hf0 Ni14 2.747044 1_556
Hf0 Ni8 2.792581 1_555
Hf0 Ni4 2.793232 1_655
Hf0 Ni6 2.793429 1_555
Hf0 Ni12 2.793435 1_555
Hf0 Si2 2.892173 1_556
Hf0 Si0 2.892173 1_556
Hf1 Ni10 2.736217 1_555
Hf1 Ni13 2.741166 1_555
Hf1 Ni7 2.741174 1_554
Hf1 Ni14 2.747044 1_565
Hf1 Ni8 2.792580 1_555
Hf1 Ni3 2.793232 1_655
Hf1 Ni1 2.793429 1_555
Hf1 Ni12 2.793435 1_555
Hf1 Si2 2.892173 1_565
Hf1 Si1 2.892173 1_565
Hf2 Ni12 2.736215 1_555
Hf2 Ni4 2.741170 1_565
Hf2 Ni3 2.741171 1_556
Hf2 Ni11 2.747034 1_555
Hf2 Ni5 2.792580 1_555
Hf2 Ni7 2.793235 1_455
Hf2 Ni9 2.793436 1_555
Hf2 Ni10 2.793436 1_555
Hf2 Si1 2.892173 1_565
Hf2 Si0 2.892173 1_556
Hf3 Ni6 2.736217 1_555
Hf3 Ni4 2.741166 1_555
Hf3 Ni0 2.741174 1_556
Hf3 Ni11 2.747044 1_545
Hf3 Ni5 2.792580 1_555
Hf3 Ni15 2.793232 1_455
Hf3 Ni9 2.793429 1_555
Hf3 Ni2 2.793435 1_555
Hf3 Si2 2.892173 1_556
Hf3 Si1 2.892173 1_555
Hf4 Ni2 2.736215 1_555
Hf4 Ni13 2.741170 1_545
Hf4 Ni15 2.741171 1_554
Hf4 Ni14 2.747034 1_555
Hf4 Ni8 2.792580 1_555
Hf4 Ni0 2.793235 1_655
Hf4 Ni1 2.793436 1_555
Hf4 Ni6 2.793436 1_555
Hf4 Si1 2.892173 1_555
Hf4 Si0 2.892173 1_555
Hf5 Ni1 2.736217 1_555
Hf5 Ni3 2.741165 1_555
Hf5 Ni0 2.741173 1_565
Hf5 Ni11 2.747044 1_554
Hf5 Ni5 2.792581 1_555
Hf5 Ni13 2.793232 1_455
Hf5 Ni10 2.793429 1_555
Hf5 Ni2 2.793435 1_555
Hf5 Si2 2.892173 1_565
Hf5 Si0 2.892173 1_555
Al0 Ni0 2.355380 1_555
Al0 Ni7 2.355380 1_454
Al0 Ni3 2.355384 1_555
Al0 Ni15 2.355384 1_454
Al0 Ni8 2.501151 1_455
Al0 Ni5 2.501151 1_554
Al0 Ni9 2.533336 1_554
Al0 Ni1 2.533336 1_455
Al0 Hf2 2.911406 1_554
Al0 Hf4 2.911406 1_455
Al0 Hf1 2.911406 1_455
Al0 Hf3 2.911406 1_554
Al1 Ni10 2.380266 1_555
Al1 Ni6 2.380266 1_555
Al1 Ni9 2.380266 1_555
Al1 Ni1 2.380266 1_555
Al1 Ni12 2.380272 1_555
Al1 Ni2 2.380272 1_555
Al1 Ni8 2.400143 1_555
Al1 Ni5 2.400143 1_555
Al2 Ni13 2.355377 1_455
Al2 Ni4 2.355377 1_555
Al2 Ni15 2.355378 1_455
Al2 Ni3 2.355378 1_555
Al2 Ni5 2.501151 1_555
Al2 Ni8 2.501151 1_455
Al2 Ni2 2.533336 1_555
Al2 Ni12 2.533336 1_455
Al2 Hf5 2.911406 1_555
Al2 Hf0 2.911406 1_455
Al2 Hf3 2.911406 1_555
Al2 Hf1 2.911406 1_455
Al3 Ni7 2.355380 1_445
Al3 Ni0 2.355380 1_555
Al3 Ni4 2.355384 1_555
Al3 Ni13 2.355384 1_445
Al3 Ni8 2.501151 1_455
Al3 Ni5 2.501151 1_545
Al3 Ni10 2.533336 1_545
Al3 Ni6 2.533336 1_455
Al3 Hf2 2.911406 1_545
Al3 Hf4 2.911406 1_455
Al3 Hf0 2.911406 1_455
Al3 Hf5 2.911406 1_545
Ni0 Si2 2.289868 1_555
Ni0 Ni9 2.530859 1_554
Ni0 Ni10 2.530859 1_545
Ni0 Ni14 2.612058 1_555
Ni1 Si2 2.496430 1_565
Ni1 Si0 2.496436 1_555
Ni1 Ni11 2.522242 1_554
Ni1 Ni7 2.530859 1_554
Ni1 Ni15 2.530868 1_554
Ni1 Ni10 2.723403 1_555
Ni1 Ni2 2.723414 1_555
Ni1 Ni8 2.785448 1_555
Ni2 Si1 2.496430 1_555
Ni2 Si0 2.496430 1_555
Ni2 Ni4 2.530854 1_555
Ni2 Ni3 2.530854 1_555
Ni2 Ni6 2.723415 1_555
Ni2 Ni5 2.785454 1_555
Ni3 Si0 2.289866 1_555
Ni3 Ni9 2.530868 1_554
Ni4 Si1 2.289866 1_555
Ni5 Ni9 2.785448 1_555
Ni6 Si2 2.496430 1_556
Ni6 Si1 2.496436 1_555
Ni6 Ni7 2.530859 1_545
Ni6 Ni9 2.723403 1_555
Ni6 Ni8 2.785448 1_555
Ni7 Si2 2.289868 1_566
Ni9 Si2 2.496430 1_556
Ni9 Si0 2.496436 1_556
Ni10 Si2 2.496430 1_565
Ni10 Si1 2.496436 1_565
Ni10 Ni14 2.522241 1_565
Ni10 Ni4 2.530868 1_565
Ni10 Ni12 2.723415 1_555
Ni10 Ni5 2.785448 1_555
Ni11 Si0 2.335510 1_556
Ni11 Si1 2.335510 1_565
Ni11 Si2 2.335524 1_566
Ni11 Ni12 2.522221 1_555
Ni11 Ni6 2.522241 1_565
Ni11 Ni15 2.612054 1_555
Ni11 Ni13 2.612054 1_555
Ni11 Ni7 2.612058 1_555
Ni12 Si1 2.496430 1_565
Ni12 Si0 2.496430 1_556
Ni12 Ni13 2.530854 1_555
Ni12 Ni15 2.530854 1_555
Ni12 Ni9 2.723414 1_555
Ni12 Ni8 2.785454 1_555
Ni13 Si1 2.289866 1_565
Ni13 Ni6 2.530868 1_565
Ni14 Si0 2.335510 1_555
Ni14 Si1 2.335510 1_555
Ni14 Si2 2.335524 1_555
Ni14 Ni2 2.522221 1_555
Ni14 Ni9 2.522242 1_554
Ni14 Ni3 2.612054 1_555
Ni14 Ni4 2.612054 1_555
Ni15 Si0 2.289866 1_556
