# generated using pymatgen
data_KRbP3
_symmetry_space_group_name_H-M   'P 1'
_cell_length_a   8.86430148
_cell_length_b   8.64434374
_cell_length_c   6.40545024
_cell_angle_alpha   70.38347043
_cell_angle_beta   66.72035600
_cell_angle_gamma   42.89617988
_symmetry_Int_Tables_number   1
_chemical_formula_structural   KRbP3
_chemical_formula_sum   'K2 Rb2 P6'
_cell_volume   306.05256751
_cell_formula_units_Z   2
loop_
 _symmetry_equiv_pos_site_id
 _symmetry_equiv_pos_as_xyz
  1  'x, y, z'
loop_
 _atom_site_type_symbol
 _atom_site_label
 _atom_site_symmetry_multiplicity
 _atom_site_fract_x
 _atom_site_fract_y
 _atom_site_fract_z
 _atom_site_occupancy
  K  K0  1  0.27049402  0.72950598  0.27049402  1
  K  K1  1  0.72950598  0.27049402  0.72950598  1
  Rb  Rb0  1  0.75000000  0.75000000  0.75000000  1
  Rb  Rb1  1  0.25000000  0.25000000  0.25000000  1
  P  P0  1  0.14441594  0.71223547  0.85558406  1
  P  P1  1  0.28776453  0.85558406  0.71223547  1
  P  P2  1  0.85558406  0.28776453  0.14441594  1
  P  P3  1  0.71223547  0.14441594  0.28776453  1
  P  P4  1  0.85651446  0.85651446  0.14348554  1
  P  P5  1  0.14348554  0.14348554  0.85651446  1
loop_
_geom_bond_atom_site_label_1
_geom_bond_atom_site_label_2
_geom_bond_distance
_geom_bond_site_symmetry_2
K0 P4 3.345220 1_455
K0 P5 3.345220 1_564
K0 P0 3.345630 1_554
K0 P1 3.345630 1_554
K0 P3 3.345630 1_465
K0 P2 3.345630 1_465
K0 P1 3.446026 1_555
K0 P0 3.446026 1_555
K0 P2 3.446026 1_555
K0 P3 3.446026 1_555
K1 P5 3.345220 1_655
K1 P4 3.345220 1_546
K1 P2 3.345630 1_556
K1 P3 3.345630 1_556
K1 P1 3.345630 1_645
K1 P0 3.345630 1_645
K1 P3 3.446026 1_555
K1 P2 3.446026 1_555
K1 P0 3.446026 1_555
K1 P1 3.446026 1_555
P0 P1 2.148037 1_555
P0 P4 2.151752 1_456
P0 Rb0 3.582744 1_455
P0 Rb1 3.582744 1_556
P1 P5 2.151752 1_565
P1 Rb0 3.582744 1_555
P1 Rb1 3.582744 1_565
P2 P3 2.148037 1_555
P2 P5 2.151752 1_654
P2 Rb1 3.582744 1_655
P2 Rb0 3.582744 1_554
P3 P4 2.151752 1_545
P3 Rb1 3.582744 1_555
P3 Rb0 3.582744 1_545
P4 Rb0 3.578400 1_554
P4 Rb1 3.578400 1_565
P4 Rb0 3.578400 1_555
P4 Rb1 3.578400 1_655
P5 Rb1 3.578400 1_556
P5 Rb0 3.578400 1_545
P5 Rb1 3.578400 1_555
P5 Rb0 3.578400 1_455
