# generated using pymatgen
data_Ba4LuMn3O12
_symmetry_space_group_name_H-M   'P 1'
_cell_length_a   5.77369821
_cell_length_b   5.77369854
_cell_length_c   10.01043282
_cell_angle_alpha   73.23876713
_cell_angle_beta   73.23876709
_cell_angle_gamma   60.00000483
_symmetry_Int_Tables_number   1
_chemical_formula_structural   Ba4LuMn3O12
_chemical_formula_sum   'Ba4 Lu1 Mn3 O12'
_cell_volume   272.50228364
_cell_formula_units_Z   1
loop_
 _symmetry_equiv_pos_site_id
 _symmetry_equiv_pos_as_xyz
  1  'x, y, z'
loop_
 _atom_site_type_symbol
 _atom_site_label
 _atom_site_symmetry_multiplicity
 _atom_site_fract_x
 _atom_site_fract_y
 _atom_site_fract_z
 _atom_site_occupancy
  Ba  Ba0  1  0.28489839  0.28489839  0.14530482  1
  Ba  Ba1  1  0.12955939  0.12955939  0.61132083  1
  Ba  Ba2  1  0.71510161  0.71510161  0.85469518  1
  Ba  Ba3  1  0.87044061  0.87044061  0.38867917  1
  Lu  Lu0  1  0.00000000  0.00000000  0.00000000  1
  Mn  Mn0  1  0.41043435  0.41043435  0.76869794  1
  Mn  Mn1  1  0.58956565  0.58956565  0.23130206  1
  Mn  Mn2  1  0.50000000  0.50000000  0.50000000  1
  O  O0  1  0.77939275  0.77939275  0.13137427  1
  O  O1  1  0.22060725  0.22060725  0.86862573  1
  O  O2  1  0.77939275  0.30984023  0.13137427  1
  O  O3  1  0.83345789  0.39651592  0.37351027  1
  O  O4  1  0.22060725  0.69015977  0.86862573  1
  O  O5  1  0.39651592  0.83345789  0.37351027  1
  O  O6  1  0.39651592  0.39651592  0.37351027  1
  O  O7  1  0.60348408  0.16654211  0.62648973  1
  O  O8  1  0.60348408  0.60348408  0.62648973  1
  O  O9  1  0.30984023  0.77939275  0.13137427  1
  O  O10  1  0.16654211  0.60348408  0.62648973  1
  O  O11  1  0.69015977  0.22060725  0.86862573  1
loop_
_geom_bond_atom_site_label_1
_geom_bond_atom_site_label_2
_geom_bond_distance
_geom_bond_site_symmetry_2
Ba0 O6 2.857063 1_555
Ba0 O3 2.857063 1_455
Ba0 O5 2.857063 1_545
Ba0 O2 2.891624 1_455
Ba0 O2 2.891624 1_555
Ba0 O9 2.891624 1_555
Ba0 O9 2.891624 1_545
Ba0 O0 2.891624 1_455
Ba0 O0 2.891624 1_545
Ba0 O1 3.044737 1_554
Ba0 O11 3.044737 1_554
Ba0 O4 3.044737 1_554
Ba1 O7 2.898028 1_455
Ba1 O10 2.898028 1_545
Ba1 O8 2.898031 1_455
Ba1 O8 2.898031 1_545
Ba1 O7 2.898034 1_555
Ba1 O10 2.898034 1_555
Ba1 O3 2.926023 1_455
Ba1 O5 2.926023 1_545
Ba1 O6 2.926026 1_555
Ba1 O11 3.004217 1_455
Ba1 O4 3.004218 1_545
Ba1 O1 3.004220 1_555
Ba2 O8 2.857063 1_555
Ba2 O10 2.857063 1_655
Ba2 O7 2.857063 1_565
Ba2 O4 2.891624 1_655
Ba2 O4 2.891624 1_555
Ba2 O11 2.891624 1_555
Ba2 O11 2.891624 1_565
Ba2 O1 2.891624 1_655
Ba2 O1 2.891624 1_565
Ba2 O0 3.044737 1_556
Ba2 O9 3.044737 1_556
Ba2 O2 3.044737 1_556
Ba3 O5 2.898028 1_655
Ba3 O3 2.898028 1_565
Ba3 O6 2.898031 1_655
Ba3 O6 2.898031 1_565
Ba3 O5 2.898034 1_555
Ba3 O3 2.898034 1_555
Ba3 O10 2.926023 1_655
Ba3 O7 2.926023 1_565
Ba3 O8 2.926026 1_555
Ba3 O9 3.004217 1_655
Ba3 O2 3.004218 1_565
Ba3 O0 3.004220 1_555
Lu0 O9 2.159708 1_545
Lu0 O11 2.159708 1_454
Lu0 O1 2.159708 1_554
Lu0 O0 2.159708 1_445
Lu0 O2 2.159708 1_455
Lu0 O4 2.159708 1_544
Mn0 O11 1.827462 1_555
Mn0 O4 1.827462 1_555
Mn0 O1 1.827466 1_555
Mn0 O8 1.980725 1_555
Mn0 O10 1.980728 1_555
Mn0 O7 1.980728 1_555
Mn1 O9 1.827462 1_555
Mn1 O2 1.827462 1_555
Mn1 O0 1.827466 1_555
Mn1 O6 1.980725 1_555
Mn1 O3 1.980728 1_555
Mn1 O5 1.980728 1_555
Mn2 O8 1.883342 1_555
Mn2 O6 1.883342 1_555
Mn2 O3 1.883342 1_555
Mn2 O10 1.883342 1_555
Mn2 O7 1.883342 1_555
Mn2 O5 1.883342 1_555
