# generated using pymatgen
data_YReTc3Ge2
_symmetry_space_group_name_H-M   'P 1'
_cell_length_a   7.42334099
_cell_length_b   7.42334135
_cell_length_c   4.07494251
_cell_angle_alpha   90.00000000
_cell_angle_beta   90.00000000
_cell_angle_gamma   147.82222689
_symmetry_Int_Tables_number   1
_chemical_formula_structural   YReTc3Ge2
_chemical_formula_sum   'Y1 Re1 Tc3 Ge2'
_cell_volume   119.58564805
_cell_formula_units_Z   1
loop_
 _symmetry_equiv_pos_site_id
 _symmetry_equiv_pos_as_xyz
  1  'x, y, z'
loop_
 _atom_site_type_symbol
 _atom_site_label
 _atom_site_symmetry_multiplicity
 _atom_site_fract_x
 _atom_site_fract_y
 _atom_site_fract_z
 _atom_site_occupancy
  Y  Y0  1  0.99991360  0.00008640  0.00000000  1
  Re  Re0  1  0.30138895  0.69860905  0.00000000  1
  Tc  Tc0  1  0.69775945  0.30223855  0.00000000  1
  Tc  Tc1  1  0.80804081  0.19195719  0.50000000  1
  Tc  Tc2  1  0.19206815  0.80792985  0.50000000  1
  Ge  Ge0  1  0.58773523  0.41226277  0.50000000  1
  Ge  Ge1  1  0.41308783  0.58691017  0.50000000  1
loop_
_geom_bond_atom_site_label_1
_geom_bond_atom_site_label_2
_geom_bond_distance
_geom_bond_site_symmetry_2
Re0 Tc0 2.533278 1_455
Re0 Tc0 2.533278 1_565
Re0 Tc2 2.565788 1_554
Re0 Tc2 2.565788 1_555
Re0 Tc1 2.896971 1_565
Re0 Tc1 2.896971 1_564
Re0 Tc1 2.896971 1_454
Re0 Tc1 2.896971 1_455
Re0 Y0 3.500317 1_455
Re0 Y0 3.500321 1_565
Tc0 Tc1 2.574140 1_555
Tc0 Tc1 2.574140 1_554
Tc0 Tc2 2.896554 1_544
Tc0 Tc2 2.896554 1_545
Tc0 Tc2 2.896554 1_655
Tc0 Tc2 2.896554 1_654
Tc0 Y0 3.492510 1_455
Tc0 Y0 3.492515 1_565
Tc1 Y0 3.412174 1_555
Tc1 Y0 3.412174 1_556
Tc2 Y0 3.415421 1_466
Tc2 Y0 3.415421 1_465
Ge0 Ge1 2.491377 1_555
Ge0 Tc2 2.539147 1_655
Ge0 Tc2 2.539147 1_545
Ge0 Tc0 2.571900 1_556
Ge0 Tc0 2.571900 1_555
Ge0 Y0 3.154828 1_456
Ge0 Y0 3.154828 1_455
Ge0 Y0 3.154833 1_565
Ge0 Y0 3.154833 1_566
Ge1 Tc1 2.545131 1_455
Ge1 Tc1 2.545131 1_565
Ge1 Re0 2.586548 1_555
Ge1 Re0 2.586548 1_556
Ge1 Y0 3.149202 1_456
Ge1 Y0 3.149202 1_455
Ge1 Y0 3.149208 1_565
Ge1 Y0 3.149208 1_566
