# generated using pymatgen
data_Ta8FeTc3B8
_symmetry_space_group_name_H-M   'P 1'
_cell_length_a   5.96920954
_cell_length_b   5.96920954
_cell_length_c   6.58251687
_cell_angle_alpha   90.00000000
_cell_angle_beta   90.00000000
_cell_angle_gamma   90.00000000
_symmetry_Int_Tables_number   1
_chemical_formula_structural   Ta8FeTc3B8
_chemical_formula_sum   'Ta8 Fe1 Tc3 B8'
_cell_volume   234.54470298
_cell_formula_units_Z   1
loop_
 _symmetry_equiv_pos_site_id
 _symmetry_equiv_pos_as_xyz
  1  'x, y, z'
loop_
 _atom_site_type_symbol
 _atom_site_label
 _atom_site_symmetry_multiplicity
 _atom_site_fract_x
 _atom_site_fract_y
 _atom_site_fract_z
 _atom_site_occupancy
  Ta  Ta0  1  0.68011932  0.82489071  0.49711905  1
  Ta  Ta1  1  0.31988068  0.17510929  0.49711905  1
  Ta  Ta2  1  0.82495737  0.31977867  0.00287772  1
  Ta  Ta3  1  0.17504263  0.68022133  0.00287772  1
  Ta  Ta4  1  0.82489071  0.31988068  0.49711905  1
  Ta  Ta5  1  0.17510929  0.68011932  0.49711905  1
  Ta  Ta6  1  0.31977867  0.17504263  0.00287772  1
  Ta  Ta7  1  0.68022133  0.82495737  0.00287772  1
  Fe  Fe0  1  0.00000000  0.00000000  0.25018664  1
  Tc  Tc0  1  0.50000000  0.50000000  0.24988838  1
  Tc  Tc1  1  0.00000000  0.00000000  0.74985802  1
  Tc  Tc2  1  0.50000000  0.50000000  0.75011780  1
  B  B0  1  0.39036477  0.88925549  0.24998800  1
  B  B1  1  0.60963523  0.11074451  0.24998800  1
  B  B2  1  0.11172496  0.38996782  0.75000252  1
  B  B3  1  0.88827504  0.61003218  0.75000252  1
  B  B4  1  0.88925549  0.60963523  0.24998800  1
  B  B5  1  0.11074451  0.39036477  0.24998800  1
  B  B6  1  0.38996782  0.88827504  0.75000252  1
  B  B7  1  0.61003218  0.11172496  0.75000252  1
loop_
_geom_bond_atom_site_label_1
_geom_bond_atom_site_label_2
_geom_bond_distance
_geom_bond_site_symmetry_2
Ta0 Tc1 2.739759 1_665
Ta0 Tc0 2.750539 1_555
Ta0 Tc2 2.773172 1_555
Ta1 Tc1 2.739759 1_555
Ta1 Tc0 2.750539 1_555
Ta1 Tc2 2.773172 1_555
Ta2 Tc1 2.740305 1_654
Ta2 Tc0 2.750201 1_555
Ta2 Tc2 2.772743 1_554
Ta3 Tc1 2.740305 1_564
Ta3 Tc0 2.750201 1_555
Ta3 Tc2 2.772743 1_554
Ta4 Tc1 2.739759 1_655
Ta4 Tc0 2.750539 1_555
Ta4 Tc2 2.773172 1_555
Ta5 Tc1 2.739759 1_565
Ta5 Tc0 2.750539 1_555
Ta5 Tc2 2.773172 1_555
Ta6 Tc1 2.740305 1_554
Ta6 Tc0 2.750201 1_555
Ta6 Tc2 2.772743 1_554
Ta7 Tc1 2.740305 1_664
Ta7 Tc0 2.750201 1_555
Ta7 Tc2 2.772743 1_554
Fe0 Ta1 2.716719 1_555
Fe0 Ta4 2.716719 1_455
Fe0 Ta5 2.716719 1_545
Fe0 Ta0 2.716719 1_445
Fe0 Ta2 2.717622 1_455
Fe0 Ta6 2.717622 1_555
Fe0 Ta7 2.717622 1_445
Fe0 Ta3 2.717622 1_545
B0 B1 1.860411 1_565
B0 Ta6 2.394485 1_565
B0 Ta1 2.394754 1_565
B0 Ta0 2.405296 1_555
B0 Ta7 2.405578 1_555
B0 Tc0 2.413951 1_555
B0 Ta3 2.419666 1_555
B0 Ta5 2.419860 1_555
B0 Fe0 2.422124 1_565
B1 Ta7 2.394485 1_545
B1 Ta0 2.394754 1_545
B1 Ta1 2.405296 1_555
B1 Ta6 2.405578 1_555
B1 Tc0 2.413951 1_555
B1 Ta2 2.419666 1_555
B1 Ta4 2.419860 1_555
B1 Fe0 2.422124 1_655
B2 B3 1.872070 1_455
B2 Tc2 2.408963 1_555
B2 Tc1 2.421450 1_555
B2 Ta2 2.424141 1_456
B2 Ta4 2.424354 1_455
B2 Ta5 2.431834 1_555
B2 Ta3 2.432168 1_556
B2 Ta6 2.441110 1_556
B2 Ta1 2.441248 1_555
B3 Tc2 2.408963 1_555
B3 Tc1 2.421450 1_665
B3 Ta3 2.424141 1_656
B3 Ta5 2.424354 1_655
B3 Ta4 2.431834 1_555
B3 Ta2 2.432168 1_556
B3 Ta7 2.441110 1_556
B3 Ta0 2.441248 1_555
B4 B5 1.860411 1_655
B4 Ta3 2.394485 1_655
B4 Ta5 2.394754 1_655
B4 Ta4 2.405296 1_555
B4 Ta2 2.405578 1_555
B4 Tc0 2.413951 1_555
B4 Ta7 2.419666 1_555
B4 Ta0 2.419860 1_555
B4 Fe0 2.422124 1_665
B5 Ta2 2.394485 1_455
B5 Ta4 2.394754 1_455
B5 Ta5 2.405296 1_555
B5 Ta3 2.405578 1_555
B5 Tc0 2.413951 1_555
B5 Ta6 2.419666 1_555
B5 Ta1 2.419860 1_555
B5 Fe0 2.422124 1_555
B6 B7 1.872070 1_565
B6 Tc2 2.408963 1_555
B6 Tc1 2.421450 1_565
B6 Ta6 2.424141 1_566
B6 Ta1 2.424354 1_565
B6 Ta0 2.431834 1_555
B6 Ta7 2.432168 1_556
B6 Ta3 2.441110 1_556
B6 Ta5 2.441248 1_555
B7 Tc2 2.408963 1_555
B7 Tc1 2.421450 1_655
B7 Ta7 2.424141 1_546
B7 Ta0 2.424354 1_545
B7 Ta1 2.431834 1_555
B7 Ta6 2.432168 1_556
B7 Ta2 2.441110 1_556
B7 Ta4 2.441248 1_555
