# generated using pymatgen
data_Rb4Sr2TiSb4
_symmetry_space_group_name_H-M   'P 1'
_cell_length_a   11.18338627
_cell_length_b   11.18338716
_cell_length_c   8.27316761
_cell_angle_alpha   87.53001647
_cell_angle_beta   87.53002473
_cell_angle_gamma   119.22600293
_symmetry_Int_Tables_number   1
_chemical_formula_structural   Rb4Sr2TiSb4
_chemical_formula_sum   'Rb8 Sr4 Ti2 Sb8'
_cell_volume   899.70855893
_cell_formula_units_Z   2
loop_
 _symmetry_equiv_pos_site_id
 _symmetry_equiv_pos_as_xyz
  1  'x, y, z'
loop_
 _atom_site_type_symbol
 _atom_site_label
 _atom_site_symmetry_multiplicity
 _atom_site_fract_x
 _atom_site_fract_y
 _atom_site_fract_z
 _atom_site_occupancy
  Rb  Rb0  1  0.48045400  0.95265406  0.38978449  1
  Rb  Rb1  1  0.95265406  0.48045400  0.88978449  1
  Rb  Rb2  1  0.86432171  0.71545094  0.15078370  1
  Rb  Rb3  1  0.26136355  0.12262246  0.23662654  1
  Rb  Rb4  1  0.85239814  0.14506590  0.18454941  1
  Rb  Rb5  1  0.12262246  0.26136355  0.73662654  1
  Rb  Rb6  1  0.71545094  0.86432171  0.65078370  1
  Rb  Rb7  1  0.14506590  0.85239814  0.68454941  1
  Sr  Sr0  1  0.06829585  0.52966811  0.39784621  1
  Sr  Sr1  1  0.47851742  0.52210659  0.37919865  1
  Sr  Sr2  1  0.52966811  0.06829585  0.89784621  1
  Sr  Sr3  1  0.52210659  0.47851742  0.87919865  1
  Ti  Ti0  1  0.66505945  0.33859057  0.49497442  1
  Ti  Ti1  1  0.33859057  0.66505945  0.99497442  1
  Sb  Sb0  1  0.63751954  0.33096338  0.16898395  1
  Sb  Sb1  1  0.33096338  0.63751954  0.66898395  1
  Sb  Sb2  1  0.21443299  0.40650856  0.13738370  1
  Sb  Sb3  1  0.60065578  0.79526984  0.07643643  1
  Sb  Sb4  1  0.21505388  0.80283828  0.10110149  1
  Sb  Sb5  1  0.79526984  0.60065578  0.57643643  1
  Sb  Sb6  1  0.40650856  0.21443299  0.63738370  1
  Sb  Sb7  1  0.80283828  0.21505388  0.60110149  1
loop_
_geom_bond_atom_site_label_1
_geom_bond_atom_site_label_2
_geom_bond_distance
_geom_bond_site_symmetry_2
Rb0 Sb4 3.663401 1_555
Rb0 Sb1 3.709837 1_555
Rb0 Sb3 3.745498 1_555
Rb0 Sb7 3.914123 1_565
Rb0 Sb0 4.015243 1_565
Rb0 Sb6 4.023137 1_565
Rb1 Sb7 3.663401 1_555
Rb1 Sb0 3.709837 1_556
Rb1 Sb5 3.745498 1_555
Rb1 Sb4 3.914123 1_656
Rb1 Sb1 4.015243 1_655
Rb1 Sb2 4.023136 1_656
Rb2 Sb3 3.542478 1_555
Rb2 Sb4 3.548552 1_655
Rb2 Sb5 3.612929 1_555
Rb2 Sb0 3.769107 1_555
Rb3 Sb2 3.531090 1_555
Rb3 Sb4 3.591947 1_545
Rb3 Sb0 3.681261 1_555
Rb3 Sb6 3.716394 1_555
Rb4 Sb7 3.645219 1_555
Rb4 Sb2 3.646809 1_655
Rb4 Sb3 3.713908 1_545
Rb4 Sb0 3.872411 1_555
Rb5 Sb6 3.531090 1_555
Rb5 Sb7 3.591947 1_455
Rb5 Sb1 3.681261 1_555
Rb5 Sb2 3.716394 1_556
Rb6 Sb5 3.542479 1_555
Rb6 Sb7 3.548552 1_565
Rb6 Sb3 3.612929 1_556
Rb6 Sb1 3.769107 1_555
Rb7 Sb4 3.645219 1_556
Rb7 Sb6 3.646809 1_565
Rb7 Sb5 3.713907 1_455
Rb7 Sb1 3.872411 1_555
Sr1 Ti0 3.696668 1_555
Sr3 Ti1 3.696669 1_555
Sb0 Ti0 2.727924 1_555
Sb0 Sr3 3.484570 1_554
Sb0 Sr2 3.529429 1_554
Sb0 Sr1 3.810734 1_555
Sb1 Ti1 2.727924 1_555
Sb1 Sr1 3.484570 1_555
Sb1 Sr0 3.529429 1_555
Sb1 Sr3 3.810734 1_555
Sb2 Ti1 2.705830 1_554
Sb2 Sr0 3.370729 1_555
Sb2 Sr1 3.376347 1_555
Sb2 Sr3 3.682771 1_554
Sb3 Ti1 2.692853 1_554
Sb3 Sr1 3.527461 1_555
Sb3 Sr3 3.683180 1_554
Sb3 Sr2 3.770356 1_564
Sb4 Ti1 2.672934 1_554
Sb4 Sr0 3.487652 1_555
Sb4 Sr2 3.588909 1_564
Sb5 Ti0 2.692853 1_555
Sb5 Sr3 3.527461 1_555
Sb5 Sr1 3.683179 1_555
Sb5 Sr0 3.770356 1_655
Sb6 Ti0 2.705830 1_555
Sb6 Sr2 3.370728 1_555
Sb6 Sr3 3.376348 1_555
Sb6 Sr1 3.682771 1_555
Sb7 Ti0 2.672934 1_555
Sb7 Sr2 3.487652 1_555
Sb7 Sr0 3.588909 1_655
