# generated using pymatgen
data_K3Na4TaP4
_symmetry_space_group_name_H-M   'P 1'
_cell_length_a   8.10148513
_cell_length_b   8.02634250
_cell_length_c   9.43844960
_cell_angle_alpha   90.00000000
_cell_angle_beta   90.00000000
_cell_angle_gamma   90.00000000
_symmetry_Int_Tables_number   1
_chemical_formula_structural   K3Na4TaP4
_chemical_formula_sum   'K6 Na8 Ta2 P8'
_cell_volume   613.73796435
_cell_formula_units_Z   2
loop_
 _symmetry_equiv_pos_site_id
 _symmetry_equiv_pos_as_xyz
  1  'x, y, z'
loop_
 _atom_site_type_symbol
 _atom_site_label
 _atom_site_symmetry_multiplicity
 _atom_site_fract_x
 _atom_site_fract_y
 _atom_site_fract_z
 _atom_site_occupancy
  K  K0  1  0.87145568  0.45652394  0.69602571  1
  K  K1  1  0.37145568  0.54347606  0.80397429  1
  K  K2  1  0.37145568  0.54347606  0.19602571  1
  K  K3  1  0.87145568  0.45652394  0.30397429  1
  K  K4  1  0.40035958  0.95779882  0.00000000  1
  K  K5  1  0.90035958  0.04220118  0.50000000  1
  Na  Na0  1  0.70902544  0.83697929  0.73888045  1
  Na  Na1  1  0.20902544  0.16302071  0.76111955  1
  Na  Na2  1  0.20902544  0.16302071  0.23888045  1
  Na  Na3  1  0.70902544  0.83697929  0.26111955  1
  Na  Na4  1  0.18226949  0.67002206  0.50000000  1
  Na  Na5  1  0.68226949  0.32997794  0.00000000  1
  Na  Na6  1  0.92889963  0.04964397  0.00000000  1
  Na  Na7  1  0.42889963  0.95035603  0.50000000  1
  Ta  Ta0  1  0.98296584  0.67134519  0.00000000  1
  Ta  Ta1  1  0.48296584  0.32865481  0.50000000  1
  P  P0  1  0.68840808  0.67784342  0.00000000  1
  P  P1  1  0.18840808  0.32215658  0.50000000  1
  P  P2  1  0.07335101  0.81932202  0.78877707  1
  P  P3  1  0.57335101  0.18067798  0.71122293  1
  P  P4  1  0.57335101  0.18067798  0.28877707  1
  P  P5  1  0.07335101  0.81932202  0.21122293  1
  P  P6  1  0.56778113  0.61870825  0.50000000  1
  P  P7  1  0.06778113  0.38129175  0.00000000  1
loop_
_geom_bond_atom_site_label_1
_geom_bond_atom_site_label_2
_geom_bond_distance
_geom_bond_site_symmetry_2
K0 P3 3.279510 1_555
K0 P7 3.335540 1_656
K0 P6 3.342209 1_555
K0 P1 3.343620 1_655
K0 P2 3.452700 1_655
K1 P2 3.279510 1_555
K1 P6 3.335540 1_555
K1 P7 3.342209 1_556
K1 P0 3.343620 1_556
K1 P3 3.452700 1_555
K2 P5 3.279510 1_555
K2 P6 3.335540 1_555
K2 P7 3.342209 1_555
K2 P0 3.343620 1_555
K2 P4 3.452700 1_555
K3 P4 3.279510 1_555
K3 P7 3.335540 1_655
K3 P6 3.342209 1_555
K3 P1 3.343620 1_655
K3 P5 3.452700 1_655
K4 Na2 3.193663 1_565
K4 Na1 3.193663 1_564
K4 P0 3.239579 1_555
K4 P5 3.496914 1_555
K4 P2 3.496914 1_554
K4 P4 3.548702 1_565
K4 P3 3.548702 1_564
K5 Na0 3.193663 1_545
K5 Na3 3.193663 1_545
K5 P1 3.239579 1_655
K5 P3 3.496914 1_555
K5 P4 3.496914 1_555
K5 P2 3.548702 1_645
K5 P5 3.548702 1_645
Na0 P0 2.780902 1_556
Na0 P3 2.981010 1_565
Na0 P2 2.992272 1_655
Na0 P6 3.076054 1_555
Na1 P1 2.780902 1_555
Na1 P2 2.981010 1_545
Na1 P3 2.992272 1_555
Na1 P7 3.076054 1_556
Na2 P1 2.780902 1_555
Na2 P5 2.981010 1_545
Na2 P4 2.992272 1_555
Na2 P7 3.076054 1_555
Na3 P0 2.780902 1_555
Na3 P4 2.981010 1_565
Na3 P5 2.992272 1_655
Na3 P6 3.076054 1_555
Na4 P1 2.792530 1_555
Na4 P2 3.105410 1_555
Na4 P5 3.105410 1_555
Na4 P6 3.150256 1_555
Na5 P0 2.792530 1_555
Na5 P4 3.105410 1_555
Na5 P3 3.105410 1_554
Na5 P7 3.150256 1_655
Na6 P7 2.889942 1_655
Na6 P5 2.959987 1_645
Na6 P2 2.959987 1_644
Na7 P6 2.889942 1_555
Na7 P3 2.959987 1_565
Na7 P4 2.959987 1_565
P0 Ta0 2.386925 1_555
P1 Ta1 2.386925 1_555
P2 Ta0 2.433386 1_456
P3 Ta1 2.433386 1_555
P4 Ta1 2.433386 1_555
P5 Ta0 2.433386 1_455
P6 Ta1 2.427354 1_555
P7 Ta0 2.427354 1_455
