# generated using pymatgen
data_Ba5Al3Ga2Pb
_symmetry_space_group_name_H-M   'P 1'
_cell_length_a   6.04403727
_cell_length_b   6.04403725
_cell_length_c   11.18776247
_cell_angle_alpha   90.00000000
_cell_angle_beta   90.00000000
_cell_angle_gamma   119.99999467
_symmetry_Int_Tables_number   1
_chemical_formula_structural   Ba5Al3Ga2Pb
_chemical_formula_sum   'Ba5 Al3 Ga2 Pb1'
_cell_volume   353.93878715
_cell_formula_units_Z   1
loop_
 _symmetry_equiv_pos_site_id
 _symmetry_equiv_pos_as_xyz
  1  'x, y, z'
loop_
 _atom_site_type_symbol
 _atom_site_label
 _atom_site_symmetry_multiplicity
 _atom_site_fract_x
 _atom_site_fract_y
 _atom_site_fract_z
 _atom_site_occupancy
  Ba  Ba0  1  0.66666700  0.33333300  0.82781255  1
  Ba  Ba1  1  0.33333300  0.66666700  0.70358823  1
  Ba  Ba2  1  0.33333300  0.66666700  0.29641177  1
  Ba  Ba3  1  0.66666700  0.33333300  0.17218745  1
  Ba  Ba4  1  0.00000000  0.00000000  0.50000000  1
  Al  Al0  1  0.17632772  0.82367228  0.00000000  1
  Al  Al1  1  0.17632772  0.35265544  0.00000000  1
  Al  Al2  1  0.64734456  0.82367228  0.00000000  1
  Ga  Ga0  1  0.00000000  0.00000000  0.17498130  1
  Ga  Ga1  1  0.00000000  0.00000000  0.82501870  1
  Pb  Pb0  1  0.66666700  0.33333300  0.50000000  1
loop_
_geom_bond_atom_site_label_1
_geom_bond_atom_site_label_2
_geom_bond_distance
_geom_bond_site_symmetry_2
Ba0 Ga1 3.489663 1_655
Ba0 Ga1 3.489668 1_665
Ba0 Ga1 3.489668 1_555
Ba0 Pb0 3.667489 1_555
Ba1 Ga1 3.744648 1_565
Ba1 Ga1 3.744653 1_555
Ba1 Ga1 3.744653 1_665
Ba1 Pb0 4.167094 1_565
Ba1 Pb0 4.167094 1_455
Ba1 Pb0 4.167103 1_555
Ba2 Ga0 3.744648 1_565
Ba2 Ga0 3.744653 1_555
Ba2 Ga0 3.744653 1_665
Ba2 Pb0 4.167094 1_565
Ba2 Pb0 4.167094 1_455
Ba2 Pb0 4.167103 1_555
Ba3 Ga0 3.489663 1_655
Ba3 Ga0 3.489668 1_665
Ba3 Ga0 3.489668 1_555
Ba3 Pb0 3.667489 1_555
Ba4 Pb0 3.489523 1_455
Ba4 Pb0 3.489528 1_445
Ba4 Pb0 3.489528 1_555
Ba4 Ga1 3.636232 1_555
Ba4 Ga0 3.636232 1_555
Al0 Ga0 2.690677 1_565
Al0 Ga1 2.690677 1_564
Al0 Ba3 3.585222 1_565
Al0 Ba0 3.585222 1_564
Al0 Ba3 3.585222 1_455
Al0 Ba0 3.585222 1_454
Al0 Ba2 3.701158 1_555
Al0 Ba1 3.701158 1_554
Al1 Ga0 2.690677 1_555
Al1 Ga1 2.690677 1_554
Al1 Ba3 3.585219 1_455
Al1 Ba0 3.585219 1_454
Al1 Ba3 3.585224 1_555
Al1 Ba0 3.585224 1_554
Al1 Ba2 3.701161 1_555
Al1 Ba1 3.701161 1_554
Al2 Ga0 2.690677 1_665
Al2 Ga1 2.690677 1_664
Al2 Ba3 3.585219 1_565
Al2 Ba0 3.585219 1_564
Al2 Ba3 3.585224 1_555
Al2 Ba0 3.585224 1_554
Al2 Ba2 3.701161 1_555
Al2 Ba1 3.701161 1_554
