# generated using pymatgen
data_Ti3Al2BPt
_symmetry_space_group_name_H-M   'P 1'
_cell_length_a   8.29616032
_cell_length_b   8.29616049
_cell_length_c   8.29616039
_cell_angle_alpha   60.00000436
_cell_angle_beta   60.00000366
_cell_angle_gamma   60.00000087
_symmetry_Int_Tables_number   1
_chemical_formula_structural   Ti3Al2BPt
_chemical_formula_sum   'Ti12 Al8 B4 Pt4'
_cell_volume   403.75364105
_cell_formula_units_Z   4
loop_
 _symmetry_equiv_pos_site_id
 _symmetry_equiv_pos_as_xyz
  1  'x, y, z'
loop_
 _atom_site_type_symbol
 _atom_site_label
 _atom_site_symmetry_multiplicity
 _atom_site_fract_x
 _atom_site_fract_y
 _atom_site_fract_z
 _atom_site_occupancy
  Ti  Ti0  1  0.94948346  0.94948346  0.55051654  1
  Ti  Ti1  1  0.69948346  0.30051654  0.30051654  1
  Ti  Ti2  1  0.30051654  0.69948346  0.69948346  1
  Ti  Ti3  1  0.69948346  0.69948346  0.30051654  1
  Ti  Ti4  1  0.69948346  0.30051654  0.69948346  1
  Ti  Ti5  1  0.30051654  0.69948346  0.30051654  1
  Ti  Ti6  1  0.55051654  0.94948346  0.55051654  1
  Ti  Ti7  1  0.55051654  0.94948346  0.94948346  1
  Ti  Ti8  1  0.94948346  0.55051654  0.55051654  1
  Ti  Ti9  1  0.94948346  0.55051654  0.94948346  1
  Ti  Ti10  1  0.30051654  0.30051654  0.69948346  1
  Ti  Ti11  1  0.55051654  0.55051654  0.94948346  1
  Al  Al0  1  0.91481445  0.25555866  0.91481445  1
  Al  Al1  1  0.33518555  0.33518555  0.99444134  1
  Al  Al2  1  0.99444134  0.33518555  0.33518555  1
  Al  Al3  1  0.33518555  0.33518555  0.33518555  1
  Al  Al4  1  0.25555866  0.91481445  0.91481445  1
  Al  Al5  1  0.91481445  0.91481445  0.91481445  1
  Al  Al6  1  0.91481445  0.91481445  0.25555866  1
  Al  Al7  1  0.33518555  0.99444134  0.33518555  1
  B  B0  1  0.62500000  0.12500000  0.62500000  1
  B  B1  1  0.62500000  0.62500000  0.12500000  1
  B  B2  1  0.12500000  0.62500000  0.62500000  1
  B  B3  1  0.62500000  0.62500000  0.62500000  1
  Pt  Pt0  1  0.12500000  0.62500000  0.12500000  1
  Pt  Pt1  1  0.12500000  0.12500000  0.62500000  1
  Pt  Pt2  1  0.62500000  0.12500000  0.12500000  1
  Pt  Pt3  1  0.12500000  0.12500000  0.12500000  1
loop_
_geom_bond_atom_site_label_1
_geom_bond_atom_site_label_2
_geom_bond_distance
_geom_bond_site_symmetry_2
Al0 Pt3 2.552959 1_656
Al0 Pt1 2.552972 1_655
Al0 Pt2 2.552972 1_556
Al1 Pt3 2.552959 1_556
Al1 Pt2 2.552972 1_556
Al1 Pt0 2.552972 1_556
Al2 Pt3 2.552959 1_655
Al2 Pt1 2.552972 1_655
Al2 Pt0 2.552972 1_655
Al3 Pt2 2.552963 1_555
Al3 Pt0 2.552963 1_555
Al3 Pt1 2.552963 1_555
Al4 Pt3 2.552959 1_566
Al4 Pt1 2.552972 1_565
Al4 Pt0 2.552972 1_556
Al5 Pt2 2.552963 1_566
Al5 Pt0 2.552963 1_656
Al5 Pt1 2.552963 1_665
Al6 Pt3 2.552959 1_665
Al6 Pt2 2.552972 1_565
Al6 Pt0 2.552972 1_655
Al7 Pt3 2.552959 1_565
Al7 Pt1 2.552972 1_565
Al7 Pt2 2.552972 1_565
B0 Ti4 2.250624 1_555
B0 Ti6 2.250624 1_545
B0 Ti0 2.250624 1_545
B0 Ti10 2.250624 1_555
B0 Ti1 2.250624 1_555
B0 Ti7 2.250624 1_545
B1 Ti3 2.250624 1_555
B1 Ti11 2.250624 1_554
B1 Ti9 2.250624 1_554
B1 Ti5 2.250624 1_555
B1 Ti7 2.250624 1_554
B1 Ti1 2.250624 1_555
B2 Ti2 2.250624 1_555
B2 Ti8 2.250624 1_455
B2 Ti0 2.250624 1_455
B2 Ti10 2.250624 1_555
B2 Ti9 2.250624 1_455
B2 Ti5 2.250624 1_555
B3 Ti8 2.250624 1_555
B3 Ti2 2.250624 1_555
B3 Ti6 2.250624 1_555
B3 Ti4 2.250624 1_555
B3 Ti11 2.250624 1_555
B3 Ti3 2.250624 1_555
Pt0 Ti5 2.922700 1_555
Pt0 Ti9 2.922700 1_454
Pt0 Ti11 2.922700 1_554
Pt0 Ti3 2.922700 1_455
Pt0 Ti8 2.922700 1_455
Pt0 Ti2 2.922700 1_554
Pt1 Ti10 2.922700 1_555
Pt1 Ti0 2.922700 1_445
Pt1 Ti6 2.922700 1_545
Pt1 Ti4 2.922700 1_455
Pt1 Ti8 2.922700 1_455
Pt1 Ti2 2.922700 1_545
Pt2 Ti1 2.922700 1_555
Pt2 Ti7 2.922700 1_544
Pt2 Ti11 2.922700 1_554
Pt2 Ti3 2.922700 1_545
Pt2 Ti6 2.922700 1_545
Pt2 Ti4 2.922700 1_554
Pt3 Ti7 2.922700 1_544
Pt3 Ti1 2.922700 1_455
Pt3 Ti9 2.922700 1_454
Pt3 Ti5 2.922700 1_545
Pt3 Ti0 2.922700 1_445
Pt3 Ti10 2.922700 1_554
