# generated using pymatgen
data_Ba4Li(MoO4)3
_symmetry_space_group_name_H-M   'P 1'
_cell_length_a   7.06994289
_cell_length_b   7.06994222
_cell_length_c   7.06994325
_cell_angle_alpha   109.47122635
_cell_angle_beta   109.47122441
_cell_angle_gamma   109.47121492
_symmetry_Int_Tables_number   1
_chemical_formula_structural   Ba4Li(MoO4)3
_chemical_formula_sum   'Ba4 Li1 Mo3 O12'
_cell_volume   272.03562831
_cell_formula_units_Z   1
loop_
 _symmetry_equiv_pos_site_id
 _symmetry_equiv_pos_as_xyz
  1  'x, y, z'
loop_
 _atom_site_type_symbol
 _atom_site_label
 _atom_site_symmetry_multiplicity
 _atom_site_fract_x
 _atom_site_fract_y
 _atom_site_fract_z
 _atom_site_occupancy
  Ba  Ba0  1  0.00000000  0.50000000  0.00000000  1
  Ba  Ba1  1  0.50000000  0.00000000  0.00000000  1
  Ba  Ba2  1  0.00000000  0.00000000  0.50000000  1
  Ba  Ba3  1  0.50000000  0.50000000  0.50000000  1
  Li  Li0  1  0.00000000  0.00000000  0.00000000  1
  Mo  Mo0  1  0.00000000  0.50000000  0.50000000  1
  Mo  Mo1  1  0.50000000  0.50000000  0.00000000  1
  Mo  Mo2  1  0.50000000  0.00000000  0.50000000  1
  O  O0  1  0.72973448  0.72973448  1.00000000  1
  O  O1  1  0.27026552  1.00000000  0.27026552  1
  O  O2  1  0.72973448  0.00000000  0.72973448  1
  O  O3  1  1.00000000  0.72973448  0.72973448  1
  O  O4  1  0.00000000  0.27026552  0.27026552  1
  O  O5  1  0.27026552  0.27026552  0.00000000  1
  O  O6  1  0.25000000  0.75000000  0.50000000  1
  O  O7  1  0.75000000  0.50000000  0.25000000  1
  O  O8  1  0.75000000  0.25000000  0.50000000  1
  O  O9  1  0.50000000  0.25000000  0.75000000  1
  O  O10  1  0.50000000  0.75000000  0.25000000  1
  O  O11  1  0.25000000  0.50000000  0.75000000  1
loop_
_geom_bond_atom_site_label_1
_geom_bond_atom_site_label_2
_geom_bond_distance
_geom_bond_site_symmetry_2
Ba0 O8 2.886292 1_454
Ba0 O6 2.886292 1_555
Ba0 O10 2.886292 1_555
Ba0 O9 2.886292 1_454
Ba0 O7 2.886292 1_455
Ba0 O11 2.886292 1_554
Ba0 O1 2.891029 1_555
Ba0 O2 2.891029 1_454
Ba0 O5 2.891029 1_555
Ba0 O0 2.891029 1_454
Ba0 O3 2.891030 1_454
Ba0 O4 2.891030 1_555
Ba1 O7 2.886292 1_555
Ba1 O11 2.886292 1_544
Ba1 O8 2.886292 1_555
Ba1 O6 2.886292 1_544
Ba1 O10 2.886292 1_545
Ba1 O9 2.886292 1_554
Ba1 O5 2.891029 1_555
Ba1 O0 2.891029 1_544
Ba1 O3 2.891030 1_444
Ba1 O4 2.891030 1_655
Ba1 O2 2.891030 1_554
Ba1 O1 2.891030 1_545
Ba2 O11 2.886292 1_555
Ba2 O7 2.886292 1_445
Ba2 O6 2.886292 1_545
Ba2 O8 2.886292 1_455
Ba2 O9 2.886292 1_555
Ba2 O10 2.886292 1_445
Ba2 O5 2.891030 1_556
Ba2 O0 2.891030 1_444
Ba2 O4 2.891030 1_555
Ba2 O3 2.891030 1_445
Ba2 O1 2.891030 1_545
Ba2 O2 2.891030 1_455
Ba3 O6 2.886292 1_555
Ba3 O8 2.886292 1_555
Ba3 O9 2.886292 1_555
Ba3 O10 2.886292 1_555
Ba3 O11 2.886292 1_555
Ba3 O7 2.886292 1_555
Ba3 O1 2.891029 1_545
Ba3 O2 2.891029 1_565
Ba3 O0 2.891030 1_555
Ba3 O5 2.891030 1_555
Ba3 O4 2.891030 1_555
Ba3 O3 2.891030 1_555
Li0 O4 2.206357 1_555
Li0 O3 2.206357 1_444
Li0 O1 2.206358 1_545
Li0 O2 2.206358 1_454
Li0 O5 2.206358 1_555
Li0 O0 2.206358 1_444
Mo0 O3 1.875476 1_455
Mo0 O4 1.875476 1_555
Mo0 O11 2.040917 1_555
Mo0 O7 2.040917 1_455
Mo0 O6 2.040917 1_555
Mo0 O8 2.040917 1_455
Mo1 O0 1.875476 1_554
Mo1 O5 1.875476 1_555
Mo1 O9 2.040917 1_554
Mo1 O10 2.040917 1_555
Mo1 O7 2.040917 1_555
Mo1 O11 2.040917 1_554
Mo2 O2 1.875476 1_555
Mo2 O1 1.875476 1_545
Mo2 O9 2.040917 1_555
Mo2 O10 2.040917 1_545
Mo2 O6 2.040917 1_545
Mo2 O8 2.040917 1_555
