# generated using pymatgen
data_Ta8VSi6W
_symmetry_space_group_name_H-M   'P 1'
_cell_length_a   7.49586639
_cell_length_b   7.49586635
_cell_length_c   7.49586669
_cell_angle_alpha   129.33851926
_cell_angle_beta   129.33852329
_cell_angle_gamma   74.46648450
_symmetry_Int_Tables_number   1
_chemical_formula_structural   Ta8VSi6W
_chemical_formula_sum   'Ta8 V1 Si6 W1'
_cell_volume   245.53012480
_cell_formula_units_Z   1
loop_
 _symmetry_equiv_pos_site_id
 _symmetry_equiv_pos_as_xyz
  1  'x, y, z'
loop_
 _atom_site_type_symbol
 _atom_site_label
 _atom_site_symmetry_multiplicity
 _atom_site_fract_x
 _atom_site_fract_y
 _atom_site_fract_z
 _atom_site_occupancy
  Ta  Ta0  1  0.01456305  0.51505965  0.83020459  1
  Ta  Ta1  1  0.68485506  0.18435746  0.16979541  1
  Ta  Ta2  1  0.51505965  0.68485506  0.50049660  1
  Ta  Ta3  1  0.18435746  0.01456305  0.49950340  1
  Ta  Ta4  1  0.98543695  0.48494035  0.16979541  1
  Ta  Ta5  1  0.31514494  0.81564254  0.83020459  1
  Ta  Ta6  1  0.48494035  0.31514494  0.49950340  1
  Ta  Ta7  1  0.81564254  0.98543695  0.50049660  1
  V  V0  1  0.00000000  0.00000000  0.00000000  1
  Si  Si0  1  0.75025281  0.75025281  1.00000000  1
  Si  Si1  1  0.24974719  0.24974719  0.00000000  1
  Si  Si2  1  0.63616081  0.12873842  0.76489823  1
  Si  Si3  1  0.36383919  0.87126158  0.23510177  1
  Si  Si4  1  0.12873842  0.36383919  0.49257861  1
  Si  Si5  1  0.87126158  0.63616081  0.50742139  1
  W  W0  1  0.50000000  0.50000000  0.00000000  1
loop_
_geom_bond_atom_site_label_1
_geom_bond_atom_site_label_2
_geom_bond_distance
_geom_bond_site_symmetry_2
Ta0 W0 2.993978 1_556
Ta1 W0 2.993985 1_555
Ta2 W0 2.993978 1_555
Ta3 W0 2.993980 1_556
Ta4 W0 2.993978 1_555
Ta5 W0 2.993985 1_556
Ta6 W0 2.993978 1_556
Ta7 W0 2.993980 1_555
Si0 Ta1 2.671078 1_566
Si0 Ta3 2.671080 1_666
Si0 Ta0 2.671084 1_655
Si0 Ta2 2.671084 1_555
Si0 Ta7 2.677586 1_556
Si0 Ta4 2.677590 1_556
Si0 Ta6 2.677590 1_555
Si0 Ta5 2.677591 1_555
Si0 V0 2.981008 1_666
Si0 W0 2.987043 1_556
Si1 Ta5 2.671078 1_544
Si1 Ta7 2.671080 1_444
Si1 Ta4 2.671084 1_455
Si1 Ta6 2.671084 1_555
Si1 Ta3 2.677586 1_554
Si1 Ta0 2.677590 1_554
Si1 Ta2 2.677590 1_555
Si1 Ta1 2.677591 1_555
Si1 V0 2.981008 1_555
Si1 W0 2.987043 1_555
Si2 Si3 2.403813 1_545
Si2 V0 2.475486 1_656
Si2 W0 2.536413 1_556
Si2 Ta4 2.567361 1_556
Si2 Ta1 2.567374 1_556
Si2 Ta7 2.607543 1_545
Si2 Ta2 2.607544 1_545
Si2 Ta6 2.647968 1_555
Si2 Ta3 2.647983 1_555
Si3 V0 2.475486 1_565
Si3 W0 2.536413 1_555
Si3 Ta0 2.567361 1_554
Si3 Ta5 2.567374 1_554
Si3 Ta3 2.607543 1_565
Si3 Ta6 2.607544 1_565
Si3 Ta2 2.647968 1_555
Si3 Ta7 2.647983 1_555
Si4 Si5 2.403821 1_455
Si4 V0 2.475488 1_555
Si4 W0 2.536407 1_556
Si4 Ta3 2.567359 1_555
Si4 Ta6 2.567366 1_555
Si4 Ta1 2.607543 1_455
Si4 Ta4 2.607549 1_455
Si4 Ta0 2.647967 1_555
Si4 Ta5 2.647982 1_555
Si5 V0 2.475488 1_666
Si5 W0 2.536407 1_555
Si5 Ta7 2.567359 1_555
Si5 Ta2 2.567366 1_555
Si5 Ta5 2.607543 1_655
Si5 Ta0 2.607549 1_655
Si5 Ta4 2.647967 1_555
Si5 Ta1 2.647982 1_555
