# generated using pymatgen
data_Ca3ReH7
_symmetry_space_group_name_H-M   'P 1'
_cell_length_a   5.21132351
_cell_length_b   5.21132422
_cell_length_c   12.13114988
_cell_angle_alpha   90.00000000
_cell_angle_beta   90.00000000
_cell_angle_gamma   120.00000183
_symmetry_Int_Tables_number   1
_chemical_formula_structural   Ca3ReH7
_chemical_formula_sum   'Ca6 Re2 H14'
_cell_volume   285.31770327
_cell_formula_units_Z   2
loop_
 _symmetry_equiv_pos_site_id
 _symmetry_equiv_pos_as_xyz
  1  'x, y, z'
loop_
 _atom_site_type_symbol
 _atom_site_label
 _atom_site_symmetry_multiplicity
 _atom_site_fract_x
 _atom_site_fract_y
 _atom_site_fract_z
 _atom_site_occupancy
  Ca  Ca0  1  0.00000000  0.00000000  0.25000000  1
  Ca  Ca1  1  0.00000000  0.00000000  0.75000000  1
  Ca  Ca2  1  0.33333300  0.66666700  0.43599333  1
  Ca  Ca3  1  0.66666700  0.33333300  0.56400667  1
  Ca  Ca4  1  0.66666700  0.33333300  0.93599333  1
  Ca  Ca5  1  0.33333300  0.66666700  0.06400667  1
  Re  Re0  1  0.00000000  0.00000000  0.50000000  1
  Re  Re1  1  0.00000000  0.00000000  0.00000000  1
  H  H0  1  0.33333300  0.66666700  0.25000000  1
  H  H1  1  0.66666700  0.33333300  0.75000000  1
  H  H2  1  0.15846982  0.84153018  0.91207639  1
  H  H3  1  0.15846982  0.31694063  0.91207639  1
  H  H4  1  0.68305937  0.84153018  0.91207639  1
  H  H5  1  0.84153018  0.15846982  0.08792361  1
  H  H6  1  0.84153018  0.68305937  0.08792361  1
  H  H7  1  0.31694063  0.15846982  0.08792361  1
  H  H8  1  0.84153018  0.15846982  0.41207639  1
  H  H9  1  0.84153018  0.68305937  0.41207639  1
  H  H10  1  0.31694063  0.15846982  0.41207639  1
  H  H11  1  0.15846982  0.84153018  0.58792361  1
  H  H12  1  0.15846982  0.31694063  0.58792361  1
  H  H13  1  0.68305937  0.84153018  0.58792361  1
loop_
_geom_bond_atom_site_label_1
_geom_bond_atom_site_label_2
_geom_bond_distance
_geom_bond_site_symmetry_2
Ca0 H8 2.431431 1_455
Ca0 H5 2.431431 1_455
Ca0 H10 2.431434 1_555
Ca0 H7 2.431434 1_555
Ca0 H9 2.431434 1_445
Ca0 H6 2.431434 1_445
Ca1 H2 2.431431 1_545
Ca1 H11 2.431431 1_545
Ca1 H4 2.431434 1_445
Ca1 H13 2.431434 1_445
Ca1 H3 2.431434 1_555
Ca1 H12 2.431434 1_555
Ca2 H0 2.256313 1_555
Ca2 H13 2.426563 1_555
Ca2 H11 2.426563 1_555
Ca2 H12 2.426563 1_555
Ca2 H9 2.622804 1_455
Ca2 H10 2.622804 1_565
Ca2 H8 2.622809 1_565
Ca2 H8 2.622809 1_455
Ca2 H9 2.622814 1_555
Ca2 H10 2.622815 1_555
Ca3 H1 2.256313 1_555
Ca3 H10 2.426563 1_555
Ca3 H8 2.426563 1_555
Ca3 H9 2.426563 1_555
Ca3 H12 2.622804 1_655
Ca3 H13 2.622804 1_545
Ca3 H11 2.622809 1_545
Ca3 H11 2.622809 1_655
Ca3 H12 2.622814 1_555
Ca3 H13 2.622815 1_555
Ca4 H1 2.256313 1_555
Ca4 H7 2.426563 1_556
Ca4 H5 2.426563 1_556
Ca4 H6 2.426563 1_556
Ca4 H3 2.622804 1_655
Ca4 H4 2.622804 1_545
Ca4 H2 2.622809 1_545
Ca4 H2 2.622809 1_655
Ca4 H3 2.622814 1_555
Ca4 H4 2.622815 1_555
Ca5 H0 2.256313 1_555
Ca5 H4 2.426563 1_554
Ca5 H2 2.426563 1_554
Ca5 H3 2.426563 1_554
Ca5 H6 2.622804 1_455
Ca5 H7 2.622804 1_565
Ca5 H5 2.622809 1_565
Ca5 H5 2.622809 1_455
Ca5 H6 2.622814 1_555
Ca5 H7 2.622815 1_555
H2 Re1 1.784290 1_566
H3 Re1 1.784293 1_556
H4 Re1 1.784293 1_666
H5 Re1 1.784290 1_655
H6 Re1 1.784293 1_665
H7 Re1 1.784293 1_555
H8 Re0 1.784290 1_655
H9 Re0 1.784293 1_665
H10 Re0 1.784293 1_555
H11 Re0 1.784290 1_565
H12 Re0 1.784293 1_555
H13 Re0 1.784293 1_665
