# generated using pymatgen
data_Cs2CoRh3Se8
_symmetry_space_group_name_H-M   'P 1'
_cell_length_a   6.15895529
_cell_length_b   7.34616342
_cell_length_c   16.95407859
_cell_angle_alpha   90.40087906
_cell_angle_beta   90.36908684
_cell_angle_gamma   86.34490652
_symmetry_Int_Tables_number   1
_chemical_formula_structural   Cs2CoRh3Se8
_chemical_formula_sum   'Cs4 Co2 Rh6 Se16'
_cell_volume   765.48918227
_cell_formula_units_Z   2
loop_
 _symmetry_equiv_pos_site_id
 _symmetry_equiv_pos_as_xyz
  1  'x, y, z'
loop_
 _atom_site_type_symbol
 _atom_site_label
 _atom_site_symmetry_multiplicity
 _atom_site_fract_x
 _atom_site_fract_y
 _atom_site_fract_z
 _atom_site_occupancy
  Cs  Cs0  1  0.36686249  0.98769887  0.99636613  1
  Cs  Cs1  1  0.62106396  0.51688132  0.50099358  1
  Cs  Cs2  1  0.01953331  0.00460441  0.50369155  1
  Cs  Cs3  1  0.97603132  0.49838287  0.00054085  1
  Co  Co0  1  0.00102655  0.51847768  0.75329397  1
  Co  Co1  1  0.51669250  0.28088976  0.74715494  1
  Rh  Rh0  1  0.00054440  0.97876858  0.25516900  1
  Rh  Rh1  1  0.04196889  0.00967765  0.74771754  1
  Rh  Rh2  1  0.95857192  0.49268569  0.24717586  1
  Rh  Rh3  1  0.48463181  0.22015889  0.24674331  1
  Rh  Rh4  1  0.47869122  0.79011344  0.75056458  1
  Rh  Rh5  1  0.52312808  0.70643064  0.25130185  1
  Se  Se0  1  0.81789787  0.24233807  0.32857767  1
  Se  Se1  1  0.84021670  0.76195840  0.67634835  1
  Se  Se2  1  0.16630045  0.72788930  0.17393642  1
  Se  Se3  1  0.19169372  0.27038278  0.82375116  1
  Se  Se4  1  0.13849771  0.22338290  0.17246560  1
  Se  Se5  1  0.15485005  0.74702430  0.83037178  1
  Se  Se6  1  0.84313327  0.74512581  0.33445500  1
  Se  Se7  1  0.85073860  0.28038650  0.67729025  1
  Se  Se8  1  0.67118957  0.95845853  0.17220882  1
  Se  Se9  1  0.68372876  0.03665220  0.82289820  1
  Se  Se10  1  0.31297598  0.47373757  0.32523367  1
  Se  Se11  1  0.32240035  0.52785510  0.67605157  1
  Se  Se12  1  0.34999262  0.97386769  0.32987383  1
  Se  Se13  1  0.37056534  0.05335220  0.66806624  1
  Se  Se14  1  0.63331515  0.45242966  0.16460697  1
  Se  Se15  1  0.66375640  0.52039017  0.82315131  1
loop_
_geom_bond_atom_site_label_1
_geom_bond_atom_site_label_2
_geom_bond_distance
_geom_bond_site_symmetry_2
Cs0 Se8 3.511805 1_556
Cs0 Se9 3.572895 1_565
Cs0 Se5 3.595630 1_555
Cs0 Se4 3.682524 1_566
Cs0 Se3 3.714788 1_565
Cs0 Se2 3.828953 1_556
Cs1 Se11 3.499555 1_555
Cs1 Se10 3.545570 1_555
Cs1 Se6 3.614226 1_555
Cs1 Se7 3.695666 1_555
Cs1 Se0 3.705878 1_555
Cs1 Se1 3.753002 1_555
Cs2 Se13 3.546258 1_555
Cs2 Se12 3.589856 1_545
Cs2 Se0 3.626997 1_455
Cs2 Se6 3.632326 1_445
Cs2 Se1 3.651226 1_445
Cs2 Se7 3.679009 1_455
Cs3 Se14 3.533582 1_555
Cs3 Se15 3.558472 1_554
Cs3 Se2 3.605023 1_655
Cs3 Se5 3.639231 1_654
Cs3 Se3 3.640175 1_654
Cs3 Se4 3.655917 1_655
Co0 Se5 2.362251 1_555
Co0 Se1 2.381631 1_455
Co0 Se11 2.385269 1_555
Co0 Se7 2.394974 1_455
Co0 Se15 2.396989 1_455
Co0 Se3 2.422211 1_555
Co1 Se13 2.355172 1_555
Co1 Se7 2.380376 1_555
Co1 Se9 2.388826 1_555
Co1 Se15 2.394253 1_555
Co1 Se3 2.398661 1_555
Co1 Se11 2.431432 1_555
Rh0 Se6 2.440087 1_455
Rh0 Se2 2.465422 1_555
Rh0 Se8 2.472685 1_455
Rh0 Se4 2.482409 1_565
Rh0 Se12 2.488616 1_555
Rh0 Se0 2.503991 1_465
Rh1 Se5 2.454437 1_545
Rh1 Se13 2.479199 1_555
Rh1 Se3 2.520977 1_555
Rh1 Se7 2.546401 1_455
Rh1 Se9 2.551276 1_455
Rh1 Se1 2.560831 1_445
Rh2 Se6 2.437460 1_555
Rh2 Se14 2.468543 1_555
Rh2 Se0 2.508319 1_555
Rh2 Se4 2.539632 1_655
Rh2 Se10 2.542011 1_655
Rh2 Se2 2.548816 1_655
Rh3 Se14 2.436823 1_555
Rh3 Se4 2.467892 1_555
Rh3 Se10 2.468002 1_555
Rh3 Se0 2.483411 1_555
Rh3 Se12 2.487897 1_545
Rh3 Se8 2.513185 1_545
Rh4 Se13 2.449696 1_565
Rh4 Se5 2.455676 1_555
Rh4 Se11 2.533967 1_555
Rh4 Se15 2.543188 1_555
Rh4 Se1 2.560778 1_555
Rh4 Se9 2.572810 1_565
Rh5 Se14 2.432217 1_555
Rh5 Se6 2.445969 1_555
Rh5 Se8 2.514616 1_555
Rh5 Se12 2.546756 1_555
Rh5 Se2 2.548864 1_555
Rh5 Se10 2.549787 1_555
