# generated using pymatgen
data_Nb2HC
_symmetry_space_group_name_H-M   'P 1'
_cell_length_a   5.43271161
_cell_length_b   5.43271144
_cell_length_c   5.43271081
_cell_angle_alpha   33.56707513
_cell_angle_beta   33.56707585
_cell_angle_gamma   33.56706875
_symmetry_Int_Tables_number   1
_chemical_formula_structural   Nb2HC
_chemical_formula_sum   'Nb2 H1 C1'
_cell_volume   43.66294868
_cell_formula_units_Z   1
loop_
 _symmetry_equiv_pos_site_id
 _symmetry_equiv_pos_as_xyz
  1  'x, y, z'
loop_
 _atom_site_type_symbol
 _atom_site_label
 _atom_site_symmetry_multiplicity
 _atom_site_fract_x
 _atom_site_fract_y
 _atom_site_fract_z
 _atom_site_occupancy
  Nb  Nb0  1  0.24772530  0.24772530  0.24772530  1
  Nb  Nb1  1  0.75227470  0.75227470  0.75227470  1
  H  H0  1  0.00000000  0.00000000  0.00000000  1
  C  C0  1  0.50000000  0.50000000  0.50000000  1
loop_
_geom_bond_atom_site_label_1
_geom_bond_atom_site_label_2
_geom_bond_distance
_geom_bond_site_symmetry_2
H0 Nb1 2.238644 1_445
H0 Nb0 2.238644 1_554
H0 Nb1 2.238644 1_454
H0 Nb0 2.238644 1_545
H0 Nb1 2.238644 1_544
H0 Nb0 2.238644 1_455
C0 Nb0 2.198297 1_556
C0 Nb1 2.198297 1_554
C0 Nb0 2.198297 1_565
C0 Nb1 2.198297 1_545
C0 Nb0 2.198297 1_655
C0 Nb1 2.198297 1_455
