# generated using pymatgen
data_Ti6Si6Tc5Pd
_symmetry_space_group_name_H-M   'P 1'
_cell_length_a   6.75744799
_cell_length_b   6.50598461
_cell_length_c   7.49631108
_cell_angle_alpha   115.71724412
_cell_angle_beta   116.71012596
_cell_angle_gamma   89.99716842
_symmetry_Int_Tables_number   1
_chemical_formula_structural   Ti6Si6Tc5Pd
_chemical_formula_sum   'Ti6 Si6 Tc5 Pd1'
_cell_volume   257.33533599
_cell_formula_units_Z   1
loop_
 _symmetry_equiv_pos_site_id
 _symmetry_equiv_pos_as_xyz
  1  'x, y, z'
loop_
 _atom_site_type_symbol
 _atom_site_label
 _atom_site_symmetry_multiplicity
 _atom_site_fract_x
 _atom_site_fract_y
 _atom_site_fract_z
 _atom_site_occupancy
  Ti  Ti0  1  0.23989653  0.45480112  0.40395478  1
  Ti  Ti1  1  0.85256650  0.55748983  0.60618951  1
  Ti  Ti2  1  0.64986634  0.74335998  0.99303339  1
  Ti  Ti3  1  0.65008364  0.24983606  0.99344892  1
  Ti  Ti4  1  0.85328254  0.04910441  0.60691536  1
  Ti  Ti5  1  0.23968213  0.94906675  0.40385335  1
  Si  Si0  1  0.25060338  0.25294831  0.00405037  1
  Si  Si1  1  0.24954564  0.75057060  0.00297937  1
  Si  Si2  1  0.57853873  0.83142599  0.66257662  1
  Si  Si3  1  0.91248781  0.16646989  0.33307852  1
  Si  Si4  1  0.90755262  0.66562101  0.33098994  1
  Si  Si5  1  0.57908657  0.33178578  0.66385547  1
  Tc  Tc0  1  0.98541670  0.99947455  0.99863925  1
  Tc  Tc1  1  0.98537150  0.49898141  0.99814388  1
  Tc  Tc2  1  0.50528647  0.62967207  0.25806388  1
  Tc  Tc3  1  0.24516844  0.36899436  0.73815650  1
  Tc  Tc4  1  0.24650706  0.87022704  0.74012249  1
  Pd  Pd0  1  0.50945639  0.13017286  0.26195039  1
loop_
_geom_bond_atom_site_label_1
_geom_bond_atom_site_label_2
_geom_bond_distance
_geom_bond_site_symmetry_2
Si0 Tc2 2.366232 1_555
Si0 Tc1 2.401323 1_454
Si0 Tc3 2.405101 1_554
Si0 Tc4 2.406351 1_544
Si0 Tc0 2.410243 1_444
Si0 Ti4 2.686770 1_454
Si0 Ti3 2.735928 1_554
Si0 Ti0 2.737704 1_555
Si1 Tc2 2.365632 1_555
Si1 Tc1 2.399564 1_454
Si1 Tc3 2.403116 1_554
Si1 Tc4 2.405006 1_554
Si1 Tc0 2.408793 1_454
Si1 Ti1 2.684446 1_454
Si1 Ti2 2.739314 1_554
Si1 Ti5 2.741301 1_555
Si2 Tc2 2.521808 1_555
Si2 Tc4 2.545751 1_555
Si2 Tc0 2.546506 1_555
Si2 Ti1 2.614077 1_555
Si2 Ti4 2.614590 1_565
Si2 Ti2 2.618312 1_555
Si2 Ti3 2.618860 1_565
Si2 Ti5 2.624189 1_555
Si2 Ti0 2.624666 1_555
Si3 Tc3 2.530231 1_655
Si3 Tc0 2.540735 1_544
Si3 Ti5 2.601351 1_645
Si3 Ti0 2.602855 1_655
Si3 Ti1 2.655616 1_555
Si3 Ti4 2.656237 1_555
Si3 Ti3 2.657128 1_554
Si3 Ti2 2.658744 1_544
Si4 Tc2 2.509164 1_555
Si4 Tc1 2.551338 1_554
Si4 Tc4 2.562569 1_655
Si4 Ti5 2.600070 1_655
Si4 Ti0 2.602030 1_655
Si4 Ti1 2.614862 1_555
Si4 Ti4 2.615476 1_565
Si4 Ti3 2.617199 1_554
Si4 Ti2 2.617712 1_554
Si5 Tc1 2.539748 1_555
Si5 Tc3 2.544221 1_555
Si5 Ti2 2.587024 1_555
Si5 Ti3 2.587778 1_555
Si5 Ti4 2.650851 1_555
Si5 Ti1 2.650973 1_555
Si5 Ti0 2.651155 1_555
Si5 Ti5 2.651265 1_545
Tc0 Ti3 2.786535 1_565
Tc0 Ti2 2.788115 1_555
Tc0 Ti4 2.826708 1_565
Tc0 Ti1 2.830881 1_555
Tc0 Ti0 2.908016 1_666
Tc0 Ti5 2.908521 1_656
Tc1 Ti3 2.764271 1_555
Tc1 Ti2 2.764735 1_555
Tc1 Ti4 2.856912 1_555
Tc1 Ti1 2.860699 1_555
Tc1 Ti0 2.889705 1_656
Tc1 Ti5 2.889754 1_656
Tc2 Ti4 2.845056 1_565
Tc2 Ti1 2.845371 1_555
Tc2 Ti2 2.910167 1_554
Tc2 Ti3 2.913653 1_554
Tc2 Ti5 2.919890 1_555
Tc2 Ti0 2.923990 1_555
Tc3 Ti5 2.778535 1_545
Tc3 Ti0 2.779010 1_555
Tc3 Ti4 2.862430 1_455
Tc3 Ti1 2.866036 1_455
Tc3 Ti2 2.885549 1_555
Tc3 Ti3 2.886224 1_555
Tc4 Ti5 2.763542 1_555
Tc4 Ti0 2.764995 1_555
Tc4 Ti4 2.834634 1_465
Tc4 Ti1 2.838897 1_455
Tc4 Ti2 2.901285 1_555
Tc4 Ti3 2.901367 1_565
Pd0 Si1 2.393161 1_545
Pd0 Si0 2.394874 1_555
Pd0 Si5 2.512959 1_555
Pd0 Si3 2.518471 1_555
Pd0 Ti4 2.854120 1_555
Pd0 Ti1 2.856534 1_555
Pd0 Ti2 2.934909 1_544
Pd0 Ti3 2.939357 1_554
Pd0 Ti5 2.945232 1_545
Pd0 Ti0 2.950148 1_555
