# generated using pymatgen
data_Lu2Co9Mo3P7
_symmetry_space_group_name_H-M   'P 1'
_cell_length_a   8.95765921
_cell_length_b   8.95698941
_cell_length_c   3.66893564
_cell_angle_alpha   90.00000000
_cell_angle_beta   90.00000000
_cell_angle_gamma   119.99945407
_symmetry_Int_Tables_number   1
_chemical_formula_structural   Lu2Co9Mo3P7
_chemical_formula_sum   'Lu2 Co9 Mo3 P7'
_cell_volume   254.93514506
_cell_formula_units_Z   1
loop_
 _symmetry_equiv_pos_site_id
 _symmetry_equiv_pos_as_xyz
  1  'x, y, z'
loop_
 _atom_site_type_symbol
 _atom_site_label
 _atom_site_symmetry_multiplicity
 _atom_site_fract_x
 _atom_site_fract_y
 _atom_site_fract_z
 _atom_site_occupancy
  Lu  Lu0  1  0.66667542  0.33333620  0.00000000  1
  Lu  Lu1  1  0.00000391  0.99999480  0.50000000  1
  Co  Co0  1  0.76701930  0.72954195  0.00000000  1
  Co  Co1  1  0.27045455  0.03750385  0.00000000  1
  Co  Co2  1  0.96249427  0.23298660  0.00000000  1
  Co  Co3  1  0.49501366  0.95085341  0.00000000  1
  Co  Co4  1  0.04910533  0.54413567  0.00000000  1
  Co  Co5  1  0.45583876  0.50500177  0.00000000  1
  Co  Co6  1  0.72031686  0.10656654  0.50000000  1
  Co  Co7  1  0.89340207  0.61372578  0.50000000  1
  Co  Co8  1  0.38625120  0.27966832  0.50000000  1
  Mo  Mo0  1  0.55523451  0.76390867  0.50000000  1
  Mo  Mo1  1  0.23609827  0.79132042  0.50000000  1
  Mo  Mo2  1  0.20878908  0.44479396  0.50000000  1
  P  P0  1  0.45519492  0.07843783  0.50000000  1
  P  P1  1  0.92152288  0.37681495  0.50000000  1
  P  P2  1  0.62316198  0.54474708  0.50000000  1
  P  P3  1  0.74905947  0.96915443  0.00000000  1
  P  P4  1  0.03082403  0.77992193  0.00000000  1
  P  P5  1  0.22015969  0.25091424  0.00000000  1
  P  P6  1  0.33337685  0.66667359  0.00000000  1
loop_
_geom_bond_atom_site_label_1
_geom_bond_atom_site_label_2
_geom_bond_distance
_geom_bond_site_symmetry_2
Lu0 P1 2.799869 1_554
Lu0 P1 2.799869 1_555
Lu0 P2 2.800181 1_554
Lu0 P2 2.800181 1_555
Lu0 P0 2.800277 1_555
Lu0 P0 2.800277 1_554
Lu1 P4 2.805579 1_556
Lu1 P4 2.805579 1_555
Lu1 P5 2.805959 1_565
Lu1 P5 2.805959 1_566
Lu1 P3 2.805991 1_456
Lu1 P3 2.805991 1_455
Co0 P4 2.172882 1_655
Co0 P3 2.230999 1_555
Co0 P2 2.373316 1_555
Co0 P2 2.373316 1_554
Co0 Mo0 2.764590 1_555
Co0 Mo0 2.764590 1_554
Co0 Lu1 2.921217 1_655
Co0 Lu1 2.921217 1_654
Co0 Lu0 3.195653 1_555
Co1 P5 2.172103 1_555
Co1 P4 2.231203 1_545
Co1 P0 2.373072 1_554
Co1 P0 2.373072 1_555
Co1 Mo1 2.764721 1_545
Co1 Mo1 2.764721 1_544
Co1 Lu1 2.921174 1_544
Co1 Lu1 2.921174 1_545
Co1 Lu0 3.195894 1_555
Co2 P3 2.172959 1_545
Co2 P5 2.232128 1_655
Co2 P1 2.373268 1_554
Co2 P1 2.373268 1_555
Co2 Mo2 2.765216 1_655
Co2 Mo2 2.765216 1_654
Co2 Lu1 2.921391 1_645
Co2 Lu1 2.921391 1_644
Co2 Lu0 3.195511 1_555
Co3 P3 2.198285 1_555
Co3 P6 2.211342 1_555
Co3 P0 2.281671 1_565
Co3 P0 2.281671 1_564
Co3 Mo0 2.713548 1_554
Co3 Mo0 2.713548 1_555
Co3 Mo1 2.733519 1_555
Co3 Mo1 2.733519 1_554
Co3 Lu0 2.972098 1_565
Co4 P4 2.198392 1_555
Co4 P6 2.212247 1_555
Co4 P1 2.281380 1_454
Co4 P1 2.281380 1_455
Co4 Mo1 2.713745 1_554
Co4 Mo1 2.713745 1_555
Co4 Mo2 2.734189 1_555
Co4 Mo2 2.734189 1_554
Co4 Lu0 2.971915 1_455
Co5 P5 2.198148 1_555
Co5 P6 2.211066 1_555
Co5 P2 2.281428 1_554
Co5 P2 2.281428 1_555
Co5 Mo2 2.712933 1_555
Co5 Mo2 2.712933 1_554
Co5 Mo0 2.733343 1_555
Co5 Mo0 2.733343 1_554
Co5 Lu0 2.972362 1_555
Co6 P1 2.178323 1_555
Co6 P0 2.259460 1_555
Co6 P3 2.294191 1_546
Co6 P3 2.294191 1_545
Co6 Mo0 2.658591 1_545
Co6 Lu0 2.949201 1_556
Co6 Lu0 2.949201 1_555
Co6 Lu1 3.095058 1_645
Co7 P2 2.178534 1_555
Co7 P1 2.258514 1_555
Co7 P4 2.294371 1_655
Co7 P4 2.294371 1_656
Co7 Mo1 2.659088 1_655
Co7 Lu0 2.949041 1_556
Co7 Lu0 2.949041 1_555
Co7 Lu1 3.094896 1_655
Co8 P0 2.177894 1_555
Co8 P2 2.258835 1_555
Co8 P5 2.293895 1_555
Co8 P5 2.293895 1_556
Co8 Mo2 2.658118 1_555
Co8 Lu0 2.949362 1_555
Co8 Lu0 2.949362 1_556
Co8 Lu1 3.094988 1_545
Mo0 P2 2.327690 1_555
Mo0 P6 2.518424 1_555
Mo0 P6 2.518424 1_556
Mo0 P3 2.562733 1_556
Mo0 P3 2.562733 1_555
Mo1 P0 2.327728 1_565
Mo1 P6 2.518716 1_555
Mo1 P6 2.518716 1_556
Mo1 P4 2.563019 1_556
Mo1 P4 2.563019 1_555
Mo2 P1 2.329268 1_455
Mo2 P6 2.518435 1_555
Mo2 P6 2.518435 1_556
Mo2 P5 2.562855 1_556
Mo2 P5 2.562855 1_555
