# generated using pymatgen
data_FeCuS2
_symmetry_space_group_name_H-M   'P 1'
_cell_length_a   6.32576447
_cell_length_b   6.32576447
_cell_length_c   6.32576447
_cell_angle_alpha   130.82950969
_cell_angle_beta   130.82950969
_cell_angle_gamma   72.08409267
_symmetry_Int_Tables_number   1
_chemical_formula_structural   FeCuS2
_chemical_formula_sum   'Fe2 Cu2 S4'
_cell_volume   141.71276683
_cell_formula_units_Z   2
loop_
 _symmetry_equiv_pos_site_id
 _symmetry_equiv_pos_as_xyz
  1  'x, y, z'
loop_
 _atom_site_type_symbol
 _atom_site_label
 _atom_site_symmetry_multiplicity
 _atom_site_fract_x
 _atom_site_fract_y
 _atom_site_fract_z
 _atom_site_occupancy
  Fe  Fe0  1  0.75000000  0.25000000  0.50000000  1
  Fe  Fe1  1  0.00000000  0.00000000  0.00000000  1
  Cu  Cu0  1  0.50000000  0.50000000  0.00000000  1
  Cu  Cu1  1  0.25000000  0.75000000  0.50000000  1
  S  S0  1  0.63305500  0.62500000  0.50805500  1
  S  S1  1  0.37500000  0.88305500  0.00805500  1
  S  S2  1  0.11694500  0.12500000  0.49194500  1
  S  S3  1  0.87500000  0.36694500  0.99194500  1
loop_
_geom_bond_atom_site_label_1
_geom_bond_atom_site_label_2
_geom_bond_distance
_geom_bond_site_symmetry_2
Fe0 S3 2.233514 1_555
Fe0 S1 2.233514 1_545
Fe0 S0 2.233514 1_555
Fe0 S2 2.233514 1_655
Fe1 S3 2.233514 1_454
Fe1 S2 2.233514 1_555
Fe1 S1 2.233514 1_545
Fe1 S0 2.233514 1_444
Cu0 S1 2.282927 1_555
Cu0 S0 2.282927 1_555
Cu0 S2 2.282927 1_554
Cu0 S3 2.282927 1_554
Cu1 S0 2.282927 1_555
Cu1 S1 2.282927 1_556
Cu1 S2 2.282927 1_565
Cu1 S3 2.282927 1_454
