# generated using pymatgen
data_Nb12Al9Ni3N4
_symmetry_space_group_name_H-M   'P 1'
_cell_length_a   8.22048993
_cell_length_b   8.22049044
_cell_length_c   8.23154285
_cell_angle_alpha   60.04440916
_cell_angle_beta   60.04440993
_cell_angle_gamma   59.99999998
_symmetry_Int_Tables_number   1
_chemical_formula_structural   Nb12Al9Ni3N4
_chemical_formula_sum   'Nb12 Al9 Ni3 N4'
_cell_volume   393.59798813
_cell_formula_units_Z   1
loop_
 _symmetry_equiv_pos_site_id
 _symmetry_equiv_pos_as_xyz
  1  'x, y, z'
loop_
 _atom_site_type_symbol
 _atom_site_label
 _atom_site_symmetry_multiplicity
 _atom_site_fract_x
 _atom_site_fract_y
 _atom_site_fract_z
 _atom_site_occupancy
  Nb  Nb0  1  0.80935057  0.80935057  0.18497629  1
  Nb  Nb1  1  0.18543410  0.18543410  0.81569001  1
  Nb  Nb2  1  0.81344278  0.18543410  0.81569001  1
  Nb  Nb3  1  0.19632158  0.80935057  0.18497629  1
  Nb  Nb4  1  0.18543410  0.81344278  0.81569001  1
  Nb  Nb5  1  0.80935057  0.19632158  0.18497629  1
  Nb  Nb6  1  0.44064943  0.44064943  0.06502371  1
  Nb  Nb7  1  0.06456590  0.06456590  0.43430999  1
  Nb  Nb8  1  0.43655722  0.06456590  0.43430999  1
  Nb  Nb9  1  0.05367842  0.44064943  0.06502371  1
  Nb  Nb10  1  0.06456590  0.43655722  0.43430999  1
  Nb  Nb11  1  0.44064943  0.05367842  0.06502371  1
  Al  Al0  1  0.62500000  0.62500000  0.12500000  1
  Al  Al1  1  0.74735603  0.40990594  0.43283510  1
  Al  Al2  1  0.40990594  0.74735603  0.43283510  1
  Al  Al3  1  0.41513945  0.41513945  0.75458065  1
  Al  Al4  1  0.40990594  0.40990594  0.43283510  1
  Al  Al5  1  0.50264397  0.84009406  0.81716490  1
  Al  Al6  1  0.84009406  0.50264397  0.81716490  1
  Al  Al7  1  0.83486055  0.83486055  0.49541935  1
  Al  Al8  1  0.84009406  0.84009406  0.81716490  1
  Ni  Ni0  1  0.12500000  0.62500000  0.62500000  1
  Ni  Ni1  1  0.62500000  0.12500000  0.62500000  1
  Ni  Ni2  1  0.62500000  0.62500000  0.62500000  1
  N  N0  1  0.62500000  0.12500000  0.12500000  1
  N  N1  1  0.12500000  0.62500000  0.12500000  1
  N  N2  1  0.12500000  0.12500000  0.62500000  1
  N  N3  1  0.12500000  0.12500000  0.12500000  1
loop_
_geom_bond_atom_site_label_1
_geom_bond_atom_site_label_2
_geom_bond_distance
_geom_bond_site_symmetry_2
Nb0 Ni2 3.007622 1_555
Nb1 Ni1 3.014461 1_555
Nb1 Ni0 3.014462 1_555
Nb2 Ni2 3.014463 1_555
Nb2 Ni1 3.014468 1_555
Nb3 Ni0 3.007623 1_555
Nb4 Ni2 3.014463 1_555
Nb4 Ni0 3.014468 1_555
Nb5 Ni1 3.007623 1_555
Nb6 Ni2 3.007622 1_554
Nb7 Ni1 3.014461 1_455
Nb7 Ni0 3.014462 1_545
Nb8 Ni2 3.014463 1_545
Nb8 Ni1 3.014468 1_555
Nb9 Ni0 3.007623 1_554
Nb10 Ni2 3.014463 1_455
Nb10 Ni0 3.014468 1_555
Nb11 Ni1 3.007623 1_554
Al0 Al8 2.617511 1_554
Al0 Al4 2.617511 1_555
Al0 Al1 2.617524 1_555
Al0 Al5 2.617524 1_554
Al0 Al6 2.617524 1_554
Al0 Al2 2.617524 1_555
Al0 Nb0 2.937322 1_555
Al0 Nb6 2.937322 1_555
Al0 Nb9 2.937329 1_655
Al0 Nb3 2.937329 1_555
Al0 Nb11 2.937329 1_565
Al0 Nb5 2.937329 1_555
Al1 Ni2 2.462941 1_555
Al1 Ni1 2.462961 1_555
Al2 Ni2 2.462940 1_555
Al2 Ni0 2.462961 1_555
Al3 Ni0 2.528017 1_555
Al3 Ni1 2.528017 1_555
Al3 Ni2 2.528024 1_555
Al4 Ni1 2.462947 1_555
Al4 Ni0 2.462947 1_555
Al5 Ni2 2.462941 1_555
Al5 Ni1 2.462961 1_565
Al6 Ni2 2.462940 1_555
Al6 Ni0 2.462961 1_655
Al7 Ni0 2.528017 1_655
Al7 Ni1 2.528017 1_565
Al7 Ni2 2.528024 1_555
Al8 Ni1 2.462947 1_565
Al8 Ni0 2.462947 1_655
N0 Nb8 2.167177 1_555
N0 Nb2 2.167177 1_554
N0 Nb5 2.192902 1_555
N0 Nb11 2.192902 1_555
N0 Nb6 2.192908 1_555
N0 Nb0 2.192908 1_545
N1 Nb4 2.167177 1_554
N1 Nb10 2.167177 1_555
N1 Nb3 2.192902 1_555
N1 Nb9 2.192902 1_555
N1 Nb6 2.192908 1_555
N1 Nb0 2.192908 1_455
N2 Nb8 2.182155 1_555
N2 Nb2 2.182155 1_455
N2 Nb10 2.182155 1_555
N2 Nb4 2.182155 1_545
N2 Nb1 2.182160 1_555
N2 Nb7 2.182160 1_555
N3 Nb7 2.167175 1_555
N3 Nb1 2.167175 1_554
N3 Nb11 2.192910 1_555
N3 Nb5 2.192910 1_455
N3 Nb9 2.192910 1_555
N3 Nb3 2.192910 1_545
