# generated using pymatgen
data_Y2RuC4
_symmetry_space_group_name_H-M   'P 1'
_cell_length_a   6.63516346
_cell_length_b   6.63516332
_cell_length_c   6.63516325
_cell_angle_alpha   133.26083097
_cell_angle_beta   108.51022188
_cell_angle_gamma   89.83988929
_symmetry_Int_Tables_number   1
_chemical_formula_structural   Y2RuC4
_chemical_formula_sum   'Y4 Ru2 C8'
_cell_volume   191.72095272
_cell_formula_units_Z   2
loop_
 _symmetry_equiv_pos_site_id
 _symmetry_equiv_pos_as_xyz
  1  'x, y, z'
loop_
 _atom_site_type_symbol
 _atom_site_label
 _atom_site_symmetry_multiplicity
 _atom_site_fract_x
 _atom_site_fract_y
 _atom_site_fract_z
 _atom_site_occupancy
  Y  Y0  1  0.49512041  0.34932855  0.14579186  1
  Y  Y1  1  0.50487959  0.65067145  0.85420814  1
  Y  Y2  1  0.20353669  0.84932855  0.35420814  1
  Y  Y3  1  0.79646331  0.15067145  0.64579186  1
  Ru  Ru0  1  0.00000000  0.25000000  0.25000000  1
  Ru  Ru1  1  0.00000000  0.75000000  0.75000000  1
  C  C0  1  0.25148516  0.07486118  0.17662498  1
  C  C1  1  0.74851484  0.92513882  0.82337502  1
  C  C2  1  0.89823619  0.57486118  0.32337502  1
  C  C3  1  0.10176381  0.42513882  0.67662498  1
  C  C4  1  0.46786093  0.12764118  0.34021875  1
  C  C5  1  0.53213907  0.87235882  0.65978125  1
  C  C6  1  0.78742243  0.62764118  0.15978125  1
  C  C7  1  0.21257757  0.37235882  0.84021875  1
loop_
_geom_bond_atom_site_label_1
_geom_bond_atom_site_label_2
_geom_bond_distance
_geom_bond_site_symmetry_2
C0 C4 1.361753 1_555
C0 Ru0 2.025180 1_555
C0 Ru1 2.025183 1_544
C0 Y2 2.527135 1_545
C0 Y0 2.590128 1_555
C1 C5 1.361753 1_555
C1 Ru1 2.025180 1_655
C1 Ru0 2.025183 1_666
C1 Y3 2.527135 1_565
C1 Y1 2.590128 1_555
C2 C6 1.361742 1_555
C2 Ru1 2.025185 1_655
C2 Ru0 2.025185 1_655
C2 Y0 2.527137 1_555
C2 Y2 2.590124 1_655
C3 C7 1.361742 1_555
C3 Ru0 2.025185 1_555
C3 Ru1 2.025185 1_555
C3 Y1 2.527137 1_555
C3 Y3 2.590124 1_455
C4 Y3 2.378731 1_555
C4 Y0 2.571214 1_555
C4 Y2 2.617456 1_545
C4 Y1 2.643013 1_544
C4 Y1 2.643018 1_555
C5 Y2 2.378731 1_555
C5 Y1 2.571214 1_555
C5 Y3 2.617456 1_565
C5 Y0 2.643013 1_566
C5 Y0 2.643018 1_555
C6 Y1 2.378735 1_554
C6 Y2 2.571215 1_655
C6 Y0 2.617451 1_555
C6 Y3 2.643016 1_565
C6 Y3 2.643016 1_554
C7 Y0 2.378735 1_556
C7 Y3 2.571215 1_455
C7 Y1 2.617451 1_555
C7 Y2 2.643016 1_545
C7 Y2 2.643016 1_556
