# generated using pymatgen
data_Ca7NbFe2N9
_symmetry_space_group_name_H-M   'P 1'
_cell_length_a   9.99928512
_cell_length_b   6.05976326
_cell_length_c   9.01768812
_cell_angle_alpha   87.64729921
_cell_angle_beta   90.00000000
_cell_angle_gamma   90.00000000
_symmetry_Int_Tables_number   1
_chemical_formula_structural   Ca7NbFe2N9
_chemical_formula_sum   'Ca14 Nb2 Fe4 N18'
_cell_volume   545.95089514
_cell_formula_units_Z   2
loop_
 _symmetry_equiv_pos_site_id
 _symmetry_equiv_pos_as_xyz
  1  'x, y, z'
loop_
 _atom_site_type_symbol
 _atom_site_label
 _atom_site_symmetry_multiplicity
 _atom_site_fract_x
 _atom_site_fract_y
 _atom_site_fract_z
 _atom_site_occupancy
  Ca  Ca0  1  0.94327902  0.43051306  0.16271067  1
  Ca  Ca1  1  0.08057717  0.24567680  0.49526576  1
  Ca  Ca2  1  0.25000000  0.09310475  0.80860452  1
  Ca  Ca3  1  0.44327902  0.56948694  0.83728933  1
  Ca  Ca4  1  0.58057717  0.75432320  0.50473424  1
  Ca  Ca5  1  0.57955799  0.06416081  0.83126175  1
  Ca  Ca6  1  0.92044201  0.06416081  0.83126175  1
  Ca  Ca7  1  0.42044201  0.93583919  0.16873825  1
  Ca  Ca8  1  0.41942283  0.24567680  0.49526576  1
  Ca  Ca9  1  0.07955799  0.93583919  0.16873825  1
  Ca  Ca10  1  0.91942283  0.75432320  0.50473424  1
  Ca  Ca11  1  0.05672098  0.56948694  0.83728933  1
  Ca  Ca12  1  0.75000000  0.90689525  0.19139548  1
  Ca  Ca13  1  0.55672098  0.43051306  0.16271067  1
  Nb  Nb0  1  0.75000000  0.27739581  0.43575031  1
  Nb  Nb1  1  0.25000000  0.72260419  0.56424969  1
  Fe  Fe0  1  0.25000000  0.32988072  0.06744304  1
  Fe  Fe1  1  0.75000000  0.46043885  0.72329042  1
  Fe  Fe2  1  0.75000000  0.67011928  0.93255696  1
  Fe  Fe3  1  0.25000000  0.53956115  0.27670958  1
  N  N0  1  0.41167751  0.23370069  0.98093493  1
  N  N1  1  0.25000000  0.23728811  0.27634659  1
  N  N2  1  0.90207701  0.11184108  0.34236998  1
  N  N3  1  0.61095490  0.36270142  0.62551073  1
  N  N4  1  0.75000000  0.55624154  0.33058355  1
  N  N5  1  0.25000000  0.64419676  0.08704858  1
  N  N6  1  0.88904510  0.36270142  0.62551073  1
  N  N7  1  0.38904510  0.63729858  0.37448927  1
  N  N8  1  0.75000000  0.35580324  0.91295142  1
  N  N9  1  0.09792299  0.88815892  0.65763002  1
  N  N10  1  0.75000000  0.76271189  0.72365341  1
  N  N11  1  0.11095490  0.63729858  0.37448927  1
  N  N12  1  0.58832249  0.76629931  0.01906507  1
  N  N13  1  0.25000000  0.44375846  0.66941645  1
  N  N14  1  0.40207701  0.88815892  0.65763002  1
  N  N15  1  0.59792299  0.11184108  0.34236998  1
  N  N16  1  0.08832249  0.23370069  0.98093493  1
  N  N17  1  0.91167751  0.76629931  0.01906507  1
loop_
_geom_bond_atom_site_label_1
_geom_bond_atom_site_label_2
_geom_bond_distance
_geom_bond_site_symmetry_2
Ca0 N17 2.387831 1_555
Ca0 N2 2.503337 1_555
Ca0 N16 2.524542 1_654
Ca0 N4 2.588817 1_555
Ca0 N11 2.867915 1_655
Ca0 N8 3.016033 1_554
Ca1 N6 2.370372 1_455
Ca1 N2 2.415848 1_455
Ca1 N9 2.570408 1_545
Ca1 N11 2.588055 1_555
Ca1 N1 2.603473 1_555
Ca1 N13 2.632835 1_555
Ca2 N9 2.418083 1_545
Ca2 N14 2.418083 1_545
Ca2 N0 2.421392 1_555
Ca2 N16 2.421392 1_555
Ca2 N13 2.423129 1_555
Ca3 N0 2.387831 1_555
Ca3 N14 2.503337 1_555
Ca3 N12 2.524542 1_556
Ca3 N13 2.588817 1_555
Ca3 N3 2.867915 1_555
Ca3 N5 3.016033 1_556
Ca4 N7 2.370372 1_555
Ca4 N14 2.415848 1_555
Ca4 N15 2.570408 1_565
Ca4 N3 2.588055 1_555
Ca4 N10 2.603473 1_555
Ca4 N4 2.632835 1_555
Ca5 N0 2.410192 1_555
Ca5 N12 2.425437 1_546
Ca5 N3 2.557005 1_555
Ca5 N8 2.584080 1_555
Ca5 N14 2.622152 1_545
Ca5 N10 2.707151 1_545
Ca6 N16 2.410192 1_655
Ca6 N17 2.425437 1_546
Ca6 N6 2.557005 1_555
Ca6 N8 2.584080 1_555
Ca6 N9 2.622152 1_645
Ca6 N10 2.707151 1_545
Ca7 N12 2.410192 1_555
Ca7 N0 2.425437 1_564
Ca7 N7 2.557005 1_555
Ca7 N5 2.584080 1_555
Ca7 N15 2.622152 1_565
Ca7 N1 2.707151 1_565
Ca8 N3 2.370372 1_555
Ca8 N15 2.415848 1_555
Ca8 N14 2.570408 1_545
Ca8 N7 2.588055 1_555
Ca8 N1 2.603473 1_555
Ca8 N13 2.632835 1_555
Ca9 N17 2.410192 1_455
Ca9 N16 2.425437 1_564
Ca9 N11 2.557005 1_555
Ca9 N5 2.584080 1_555
Ca9 N2 2.622152 1_465
Ca9 N1 2.707151 1_565
Ca10 N11 2.370372 1_655
Ca10 N9 2.415848 1_655
Ca10 N2 2.570408 1_565
Ca10 N6 2.588055 1_555
Ca10 N10 2.603473 1_555
Ca10 N4 2.632835 1_555
Ca11 N16 2.387831 1_555
Ca11 N9 2.503337 1_555
Ca11 N17 2.524542 1_456
Ca11 N13 2.588817 1_555
Ca11 N6 2.867915 1_455
Ca11 N5 3.016033 1_556
Ca12 N2 2.418083 1_565
Ca12 N15 2.418083 1_565
Ca12 N17 2.421392 1_555
Ca12 N12 2.421392 1_555
Ca12 N4 2.423129 1_555
Ca13 N12 2.387831 1_555
Ca13 N15 2.503337 1_555
Ca13 N0 2.524542 1_554
Ca13 N4 2.588817 1_555
Ca13 N7 2.867915 1_555
Ca13 N8 3.016033 1_554
Fe0 N0 1.897147 1_554
Fe0 N16 1.897147 1_554
Fe0 N5 1.920082 1_555
Fe0 N1 1.943411 1_555
Fe1 N6 1.761877 1_555
Fe1 N3 1.761877 1_555
Fe1 N8 1.799485 1_555
Fe1 N10 1.831840 1_555
Fe2 N17 1.897147 1_556
Fe2 N12 1.897147 1_556
Fe2 N8 1.920082 1_555
Fe2 N10 1.943411 1_555
Fe3 N7 1.761877 1_555
Fe3 N11 1.761877 1_555
Fe3 N5 1.799485 1_555
Fe3 N1 1.831840 1_555
N2 Nb0 2.024182 1_555
N3 Nb0 2.280598 1_555
N4 Nb0 1.903429 1_555
N6 Nb0 2.280598 1_555
N7 Nb1 2.280598 1_555
N9 Nb1 2.024182 1_555
N11 Nb1 2.280598 1_555
N13 Nb1 1.903429 1_555
N14 Nb1 2.024182 1_555
N15 Nb0 2.024182 1_555
