# generated using pymatgen
data_Mn4CuPd8Au3
_symmetry_space_group_name_H-M   'P 1'
_cell_length_a   6.81277790
_cell_length_b   6.81277850
_cell_length_c   6.81277854
_cell_angle_alpha   107.74437866
_cell_angle_beta   107.74438696
_cell_angle_gamma   112.98301118
_symmetry_Int_Tables_number   1
_chemical_formula_structural   Mn4CuPd8Au3
_chemical_formula_sum   'Mn4 Cu1 Pd8 Au3'
_cell_volume   242.72664454
_cell_formula_units_Z   1
loop_
 _symmetry_equiv_pos_site_id
 _symmetry_equiv_pos_as_xyz
  1  'x, y, z'
loop_
 _atom_site_type_symbol
 _atom_site_label
 _atom_site_symmetry_multiplicity
 _atom_site_fract_x
 _atom_site_fract_y
 _atom_site_fract_z
 _atom_site_occupancy
  Mn  Mn0  1  0.25111076  0.25111076  0.50222251  1
  Mn  Mn1  1  0.74888924  0.74888924  0.49777749  1
  Mn  Mn2  1  0.25111076  0.74888924  0.00000000  1
  Mn  Mn3  1  0.74888924  0.25111076  1.00000000  1
  Cu  Cu0  1  0.00000000  0.00000000  0.00000000  1
  Pd  Pd0  1  0.48800196  0.24195042  0.24605054  1
  Pd  Pd1  1  0.51199804  0.75804958  0.75394946  1
  Pd  Pd2  1  0.99590088  0.24195042  0.75394946  1
  Pd  Pd3  1  0.24195042  0.99590088  0.75394946  1
  Pd  Pd4  1  0.00409912  0.75804958  0.24605054  1
  Pd  Pd5  1  0.75804958  0.00409912  0.24605054  1
  Pd  Pd6  1  0.24195042  0.48800196  0.24605054  1
  Pd  Pd7  1  0.75804958  0.51199804  0.75394946  1
  Au  Au0  1  0.50000000  0.00000000  0.50000000  1
  Au  Au1  1  0.00000000  0.50000000  0.50000000  1
  Au  Au2  1  0.50000000  0.50000000  0.00000000  1
loop_
_geom_bond_atom_site_label_1
_geom_bond_atom_site_label_2
_geom_bond_distance
_geom_bond_site_symmetry_2
Mn0 Pd5 2.717251 1_455
Mn0 Pd4 2.717251 1_545
Mn0 Pd6 2.717262 1_555
Mn0 Pd0 2.717262 1_555
Mn0 Pd3 2.786762 1_545
Mn0 Pd2 2.786762 1_455
Mn0 Pd7 2.786772 1_555
Mn0 Pd1 2.786773 1_555
Mn1 Pd3 2.717251 1_655
Mn1 Pd2 2.717251 1_565
Mn1 Pd7 2.717262 1_555
Mn1 Pd1 2.717262 1_555
Mn1 Pd5 2.786762 1_565
Mn1 Pd4 2.786762 1_655
Mn1 Pd6 2.786772 1_555
Mn1 Pd0 2.786773 1_555
Mn2 Pd7 2.717250 1_454
Mn2 Pd0 2.717251 1_565
Mn2 Pd3 2.717257 1_554
Mn2 Pd4 2.717257 1_555
Mn2 Pd6 2.786767 1_555
Mn2 Pd1 2.786767 1_554
Mn2 Pd5 2.786773 1_565
Mn2 Pd2 2.786773 1_454
Mn3 Pd6 2.717250 1_656
Mn3 Pd1 2.717251 1_545
Mn3 Pd5 2.717257 1_556
Mn3 Pd2 2.717257 1_555
Mn3 Pd7 2.786767 1_555
Mn3 Pd0 2.786767 1_556
Mn3 Pd3 2.786773 1_545
Mn3 Pd4 2.786773 1_656
Cu0 Pd4 2.686902 1_545
Cu0 Pd2 2.686902 1_454
Cu0 Pd5 2.686902 1_455
Cu0 Pd3 2.686902 1_544
Cu0 Pd0 2.686908 1_555
Cu0 Pd1 2.686908 1_444
Cu0 Pd6 2.686908 1_555
Cu0 Pd7 2.686908 1_444
Cu0 Mn3 2.852880 1_454
Cu0 Mn2 2.852880 1_545
Cu0 Mn0 2.852886 1_555
Cu0 Mn1 2.852886 1_444
Pd0 Pd3 2.795391 1_544
Pd0 Pd6 2.795402 1_555
Pd0 Pd5 2.887671 1_555
Pd0 Pd7 2.887671 1_555
Pd1 Pd5 2.795391 1_566
Pd1 Pd7 2.795402 1_555
Pd1 Pd3 2.887671 1_555
Pd1 Pd6 2.887671 1_555
Pd2 Pd3 2.795379 1_645
Pd2 Pd6 2.795391 1_656
Pd2 Pd7 2.887671 1_555
Pd2 Pd5 2.887671 1_555
Pd3 Pd4 2.887671 1_555
Pd4 Pd5 2.795379 1_465
Pd4 Pd7 2.795391 1_454
Pd4 Pd6 2.887671 1_555
Au0 Pd1 2.733921 1_545
Au0 Pd0 2.733921 1_555
Au0 Pd2 2.733927 1_555
Au0 Pd4 2.733927 1_545
Au0 Pd7 2.815984 1_555
Au0 Pd6 2.815984 1_545
Au0 Pd3 2.815989 1_545
Au0 Pd5 2.815989 1_555
Au0 Mn0 2.840289 1_555
Au0 Mn1 2.840289 1_545
Au0 Mn3 2.840289 1_555
Au0 Mn2 2.840289 1_545
Au1 Pd7 2.733921 1_455
Au1 Pd6 2.733921 1_555
Au1 Pd3 2.733928 1_555
Au1 Pd5 2.733928 1_455
Au1 Pd1 2.815983 1_555
Au1 Pd0 2.815983 1_455
Au1 Pd2 2.815989 1_455
Au1 Pd4 2.815989 1_555
Au1 Mn0 2.840289 1_555
Au1 Mn1 2.840289 1_455
Au1 Mn2 2.840289 1_556
Au1 Mn3 2.840289 1_454
Au2 Pd4 2.770357 1_655
Au2 Pd2 2.770357 1_454
Au2 Pd5 2.770357 1_565
Au2 Pd3 2.770357 1_544
Au2 Pd1 2.770363 1_554
Au2 Pd0 2.770363 1_555
Au2 Pd7 2.770363 1_554
Au2 Pd6 2.770363 1_555
Au2 Mn1 2.827636 1_555
Au2 Mn0 2.827636 1_554
Au2 Mn2 2.827641 1_555
Au2 Mn3 2.827641 1_554
