# generated using pymatgen
data_K8Y6BeBr20
_symmetry_space_group_name_H-M   'P 1'
_cell_length_a   11.87883367
_cell_length_b   11.87883367
_cell_length_c   11.87883246
_cell_angle_alpha   59.99999804
_cell_angle_beta   59.99999803
_cell_angle_gamma   59.99999869
_symmetry_Int_Tables_number   1
_chemical_formula_structural   K8Y6BeBr20
_chemical_formula_sum   'K8 Y6 Be1 Br20'
_cell_volume   1185.24012239
_cell_formula_units_Z   1
loop_
 _symmetry_equiv_pos_site_id
 _symmetry_equiv_pos_as_xyz
  1  'x, y, z'
loop_
 _atom_site_type_symbol
 _atom_site_label
 _atom_site_symmetry_multiplicity
 _atom_site_fract_x
 _atom_site_fract_y
 _atom_site_fract_z
 _atom_site_occupancy
  K  K0  1  0.35880240  0.35880240  0.35880240  1
  K  K1  1  0.64119760  0.64119760  0.64119760  1
  K  K2  1  0.35880240  0.35880240  0.92359079  1
  K  K3  1  0.35880240  0.92359079  0.35880240  1
  K  K4  1  0.64119760  0.64119760  0.07640921  1
  K  K5  1  0.64119760  0.07640921  0.64119760  1
  K  K6  1  0.92359079  0.35880240  0.35880240  1
  K  K7  1  0.07640921  0.64119760  0.64119760  1
  Y  Y0  1  0.83941372  0.16058628  0.16058628  1
  Y  Y1  1  0.16058628  0.83941372  0.83941372  1
  Y  Y2  1  0.16058628  0.83941372  0.16058628  1
  Y  Y3  1  0.83941372  0.16058628  0.83941372  1
  Y  Y4  1  0.16058628  0.16058628  0.83941372  1
  Y  Y5  1  0.83941372  0.83941372  0.16058628  1
  Be  Be0  1  0.00000000  0.00000000  0.00000000  1
  Br  Br0  1  0.34158147  1.00000000  0.00000000  1
  Br  Br1  1  0.65841853  0.00000000  1.00000000  1
  Br  Br2  1  0.00000000  0.34158147  0.65841853  1
  Br  Br3  1  1.00000000  0.65841853  0.34158147  1
  Br  Br4  1  1.00000000  0.34158147  0.00000000  1
  Br  Br5  1  0.65841853  1.00000000  0.34158147  1
  Br  Br6  1  0.00000000  0.65841853  1.00000000  1
  Br  Br7  1  0.34158147  0.00000000  0.65841853  1
  Br  Br8  1  1.00000000  1.00000000  0.34158147  1
  Br  Br9  1  0.00000000  0.00000000  0.65841853  1
  Br  Br10  1  0.65841853  0.34158147  0.00000000  1
  Br  Br11  1  0.34158147  0.65841853  0.00000000  1
  Br  Br12  1  0.66986965  0.33013035  0.33013035  1
  Br  Br13  1  0.33013035  0.66986965  0.66986965  1
  Br  Br14  1  0.33013035  0.66986965  0.33013035  1
  Br  Br15  1  0.66986965  0.33013035  0.66986965  1
  Br  Br16  1  0.33013035  0.33013035  0.66986965  1
  Br  Br17  1  0.66986965  0.66986965  0.33013035  1
  Br  Br18  1  0.25000000  0.25000000  0.25000000  1
  Br  Br19  1  0.75000000  0.75000000  0.75000000  1
loop_
_geom_bond_atom_site_label_1
_geom_bond_atom_site_label_2
_geom_bond_distance
_geom_bond_site_symmetry_2
Be0 Y2 2.697722 1_545
Be0 Y0 2.697722 1_455
Be0 Y3 2.697722 1_454
Be0 Y1 2.697722 1_544
Be0 Y4 2.697722 1_554
Be0 Y5 2.697722 1_445
Br0 Y4 2.874266 1_564
Br0 Y2 2.874266 1_555
Br1 Y5 2.874266 1_546
Br1 Y3 2.874266 1_555
Br2 Y4 2.874266 1_555
Br2 Y3 2.874266 1_455
Br3 Y5 2.874266 1_555
Br3 Y2 2.874266 1_655
Br4 Y4 2.874266 1_654
Br4 Y0 2.874266 1_555
Br5 Y5 2.874266 1_555
Br5 Y0 2.874266 1_565
Br6 Y5 2.874266 1_456
Br6 Y1 2.874266 1_555
Br7 Y4 2.874266 1_555
Br7 Y1 2.874266 1_545
Br8 Y2 2.874266 1_655
Br8 Y0 2.874266 1_565
Br9 Y1 2.874266 1_545
Br9 Y3 2.874266 1_455
Br10 Y0 2.874266 1_555
Br10 Y3 2.874266 1_554
Br11 Y2 2.874266 1_555
Br11 Y1 2.874266 1_554
Br12 Y0 2.848206 1_555
Br12 K6 3.388906 1_555
Br12 K5 3.388920 1_555
Br12 K4 3.388920 1_555
Br12 K0 3.388930 1_555
Br13 Y1 2.848206 1_555
Br13 K7 3.388906 1_555
Br13 K3 3.388920 1_555
Br13 K2 3.388920 1_555
Br13 K1 3.388930 1_555
Br14 Y2 2.848206 1_555
Br14 K3 3.388906 1_555
Br14 K7 3.388920 1_555
Br14 K4 3.388920 1_555
Br14 K0 3.388930 1_555
Br15 Y3 2.848206 1_555
Br15 K5 3.388906 1_555
Br15 K6 3.388920 1_555
Br15 K2 3.388920 1_555
Br15 K1 3.388930 1_555
Br16 Y4 2.848206 1_555
Br16 K2 3.388906 1_555
Br16 K5 3.388920 1_555
Br16 K7 3.388920 1_555
Br16 K0 3.388929 1_555
Br17 Y5 2.848206 1_555
Br17 K4 3.388906 1_555
Br17 K3 3.388920 1_555
Br17 K6 3.388920 1_555
Br17 K1 3.388929 1_555
Br18 K0 3.165832 1_555
Br18 K2 3.165851 1_554
Br18 K6 3.165852 1_455
Br18 K3 3.165852 1_545
Br19 K1 3.165832 1_555
Br19 K4 3.165851 1_556
Br19 K7 3.165852 1_655
Br19 K5 3.165852 1_565
