# generated using pymatgen
data_CoTcNi7S8
_symmetry_space_group_name_H-M   'P 1'
_cell_length_a   7.00420231
_cell_length_b   7.00420098
_cell_length_c   7.00420134
_cell_angle_alpha   60.11173835
_cell_angle_beta   60.11174125
_cell_angle_gamma   60.11173640
_symmetry_Int_Tables_number   1
_chemical_formula_structural   CoTcNi7S8
_chemical_formula_sum   'Co1 Tc1 Ni7 S8'
_cell_volume   243.58973208
_cell_formula_units_Z   1
loop_
 _symmetry_equiv_pos_site_id
 _symmetry_equiv_pos_as_xyz
  1  'x, y, z'
loop_
 _atom_site_type_symbol
 _atom_site_label
 _atom_site_symmetry_multiplicity
 _atom_site_fract_x
 _atom_site_fract_y
 _atom_site_fract_z
 _atom_site_occupancy
  Co  Co0  1  0.87626513  0.87626513  0.87626513  1
  Tc  Tc0  1  0.49882609  0.49882609  0.49882609  1
  Ni  Ni0  1  0.62240274  0.12590914  0.12590914  1
  Ni  Ni1  1  0.12590914  0.62240274  0.12590914  1
  Ni  Ni2  1  0.12590914  0.12590914  0.62240274  1
  Ni  Ni3  1  0.12569965  0.12569965  0.12569965  1
  Ni  Ni4  1  0.37893576  0.87360984  0.87360984  1
  Ni  Ni5  1  0.87360984  0.37893576  0.87360984  1
  Ni  Ni6  1  0.87360984  0.87360984  0.37893576  1
  S  S0  1  0.25023441  0.25023441  0.25023441  1
  S  S1  1  0.75339809  0.75339809  0.75339809  1
  S  S2  1  0.73905195  0.26050180  0.26050180  1
  S  S3  1  0.73986674  0.25541215  0.73986674  1
  S  S4  1  0.73986674  0.73986674  0.25541215  1
  S  S5  1  0.25541215  0.73986674  0.73986674  1
  S  S6  1  0.26050180  0.73905195  0.26050180  1
  S  S7  1  0.26050180  0.26050180  0.73905195  1
loop_
_geom_bond_atom_site_label_1
_geom_bond_atom_site_label_2
_geom_bond_distance
_geom_bond_site_symmetry_2
Co0 S1 2.106213 1_555
Co0 S3 2.174944 1_565
Co0 S4 2.174944 1_556
Co0 S5 2.174944 1_655
Ni0 S0 2.131399 1_555
Ni0 S2 2.205884 1_555
Ni0 S4 2.212048 1_545
Ni0 S3 2.212048 1_554
Ni1 S0 2.131399 1_555
Ni1 S6 2.205884 1_555
Ni1 S5 2.212048 1_554
Ni1 S4 2.212048 1_455
Ni2 S0 2.131399 1_555
Ni2 S7 2.205884 1_555
Ni2 S5 2.212048 1_545
Ni2 S3 2.212048 1_455
Ni3 S0 2.134802 1_555
Ni3 S6 2.215591 1_545
Ni3 S7 2.215591 1_554
Ni3 S2 2.215591 1_455
Ni4 S1 2.145168 1_555
Ni4 S7 2.216589 1_565
Ni4 S6 2.216589 1_556
Ni4 S5 2.234642 1_555
Ni5 S1 2.145168 1_555
Ni5 S2 2.216589 1_556
Ni5 S7 2.216589 1_655
Ni5 S3 2.234642 1_555
Ni6 S1 2.145168 1_555
Ni6 S2 2.216589 1_565
Ni6 S6 2.216589 1_655
Ni6 S4 2.234642 1_555
S2 Tc0 2.362769 1_555
S3 Tc0 2.389727 1_555
S4 Tc0 2.389727 1_555
S5 Tc0 2.389727 1_555
S6 Tc0 2.362769 1_555
S7 Tc0 2.362769 1_555
