# generated using pymatgen
data_Sr3Cd(Bi2O7)2
_symmetry_space_group_name_H-M   'P 1'
_cell_length_a   7.70152303
_cell_length_b   7.77160269
_cell_length_c   7.77159529
_cell_angle_alpha   119.94434982
_cell_angle_beta   119.99567832
_cell_angle_gamma   90.31304255
_symmetry_Int_Tables_number   1
_chemical_formula_structural   Sr3Cd(Bi2O7)2
_chemical_formula_sum   'Sr3 Cd1 Bi4 O14'
_cell_volume   328.30473625
_cell_formula_units_Z   1
loop_
 _symmetry_equiv_pos_site_id
 _symmetry_equiv_pos_as_xyz
  1  'x, y, z'
loop_
 _atom_site_type_symbol
 _atom_site_label
 _atom_site_symmetry_multiplicity
 _atom_site_fract_x
 _atom_site_fract_y
 _atom_site_fract_z
 _atom_site_occupancy
  Sr  Sr0  1  0.00000000  0.00000000  0.50000000  1
  Sr  Sr1  1  0.00000000  0.50000000  0.00000000  1
  Sr  Sr2  1  0.00000000  0.00000000  0.00000000  1
  Cd  Cd0  1  0.50000000  0.50000000  0.00000000  1
  Bi  Bi0  1  0.50000000  0.00000000  0.00000000  1
  Bi  Bi1  1  0.50000000  0.50000000  0.50000000  1
  Bi  Bi2  1  0.50000000  0.00000000  0.50000000  1
  Bi  Bi3  1  0.00000000  0.50000000  0.50000000  1
  O  O0  1  0.44648051  0.10522042  0.78182856  1
  O  O1  1  0.55351922  0.33534729  0.65873899  1
  O  O2  1  0.17031389  0.41739369  0.34088890  1
  O  O3  1  0.82968597  0.17057508  0.24708074  1
  O  O4  1  0.55351949  0.89477958  0.21817144  1
  O  O5  1  0.44648078  0.66465271  0.34126101  1
  O  O6  1  0.82968611  0.58260631  0.65911110  1
  O  O7  1  0.17031403  0.82942492  0.75291926  1
  O  O8  1  0.62207647  0.77051342  0.85156282  1
  O  O9  1  0.37792353  0.22948658  0.14843718  1
  O  O10  1  0.17341118  0.90001115  0.27340033  1
  O  O11  1  0.82658882  0.09998885  0.72659967  1
  O  O12  1  0.83965221  0.58429035  0.25536112  1
  O  O13  1  0.16034779  0.41570965  0.74463888  1
loop_
_geom_bond_atom_site_label_1
_geom_bond_atom_site_label_2
_geom_bond_distance
_geom_bond_site_symmetry_2
Cd0 O12 2.168649 1_555
Cd0 O13 2.168649 1_554
Cd0 O4 2.559673 1_555
Cd0 O0 2.559673 1_554
Cd0 O5 2.559675 1_555
Cd0 O1 2.559675 1_554
Bi0 O0 2.098214 1_554
Bi0 O4 2.098214 1_545
Bi0 O3 2.106783 1_555
Bi0 O7 2.106783 1_544
Bi0 O9 2.108155 1_555
Bi0 O8 2.108155 1_544
Bi1 O1 2.098214 1_555
Bi1 O5 2.098214 1_555
Bi1 O2 2.106784 1_555
Bi1 O6 2.106784 1_555
Bi1 O8 2.108153 1_555
Bi1 O9 2.108153 1_555
Bi2 O11 2.053080 1_555
Bi2 O10 2.053080 1_545
Bi2 O5 2.180394 1_545
Bi2 O1 2.180394 1_555
Bi2 O0 2.180396 1_555
Bi2 O4 2.180396 1_545
Bi3 O13 2.115056 1_555
Bi3 O12 2.115056 1_455
Bi3 O6 2.121348 1_455
Bi3 O2 2.121348 1_555
Bi3 O7 2.121350 1_555
Bi3 O3 2.121350 1_455
O0 Sr0 2.817907 1_555
O1 Sr1 2.817909 1_656
O2 Sr2 2.676033 1_555
O2 Sr1 2.717310 1_555
O3 Sr2 2.676037 1_655
O3 Sr0 2.717306 1_655
O4 Sr0 2.817907 1_665
O5 Sr1 2.817909 1_555
O6 Sr2 2.676033 1_666
O6 Sr1 2.717310 1_656
O7 Sr2 2.676037 1_566
O7 Sr0 2.717306 1_565
O8 Sr2 2.741391 1_666
O9 Sr2 2.741391 1_555
O10 Sr2 2.392577 1_565
O10 Sr0 2.546674 1_565
O10 Sr1 2.546679 1_555
O11 Sr2 2.392577 1_656
O11 Sr0 2.546674 1_655
O11 Sr1 2.546679 1_656
O12 Sr1 2.655956 1_655
O12 Sr0 2.655963 1_665
O13 Sr1 2.655956 1_556
O13 Sr0 2.655963 1_555
