# generated using pymatgen
data_Mn4Cu2SiPd9
_symmetry_space_group_name_H-M   'P 1'
_cell_length_a   6.69638376
_cell_length_b   6.69638425
_cell_length_c   6.69638339
_cell_angle_alpha   106.05932483
_cell_angle_beta   106.05932692
_cell_angle_gamma   116.53439449
_symmetry_Int_Tables_number   1
_chemical_formula_structural   Mn4Cu2SiPd9
_chemical_formula_sum   'Mn4 Cu2 Si1 Pd9'
_cell_volume   228.48705441
_cell_formula_units_Z   1
loop_
 _symmetry_equiv_pos_site_id
 _symmetry_equiv_pos_as_xyz
  1  'x, y, z'
loop_
 _atom_site_type_symbol
 _atom_site_label
 _atom_site_symmetry_multiplicity
 _atom_site_fract_x
 _atom_site_fract_y
 _atom_site_fract_z
 _atom_site_occupancy
  Mn  Mn0  1  0.23178839  0.23178839  0.46357978  1
  Mn  Mn1  1  0.76821161  0.76821161  0.53642022  1
  Mn  Mn2  1  0.23178839  0.76821161  1.00000000  1
  Mn  Mn3  1  0.76821161  0.23178839  0.00000000  1
  Cu  Cu0  1  0.50000000  0.00000000  0.50000000  1
  Cu  Cu1  1  0.00000000  0.50000000  0.50000000  1
  Si  Si0  1  0.50000000  0.50000000  0.00000000  1
  Pd  Pd0  1  0.52533922  0.27664249  0.24869573  1
  Pd  Pd1  1  0.47466078  0.72335751  0.75130427  1
  Pd  Pd2  1  0.02794675  0.27664249  0.75130427  1
  Pd  Pd3  1  0.27664249  0.02794675  0.75130427  1
  Pd  Pd4  1  0.97205325  0.72335751  0.24869573  1
  Pd  Pd5  1  0.72335751  0.97205325  0.24869573  1
  Pd  Pd6  1  0.27664249  0.52533922  0.24869573  1
  Pd  Pd7  1  0.72335751  0.47466078  0.75130427  1
  Pd  Pd8  1  0.00000000  0.00000000  0.00000000  1
loop_
_geom_bond_atom_site_label_1
_geom_bond_atom_site_label_2
_geom_bond_distance
_geom_bond_site_symmetry_2
Mn0 Pd8 2.640245 1_555
Mn0 Pd2 2.677102 1_555
Mn0 Pd3 2.677102 1_555
Mn0 Pd7 2.677116 1_555
Mn0 Pd1 2.677116 1_555
Mn0 Pd5 2.702093 1_445
Mn0 Pd4 2.702093 1_445
Mn0 Pd0 2.702114 1_555
Mn0 Pd6 2.702114 1_555
Mn1 Pd8 2.640245 1_666
Mn1 Pd4 2.677102 1_555
Mn1 Pd5 2.677102 1_555
Mn1 Pd6 2.677116 1_555
Mn1 Pd0 2.677116 1_555
Mn1 Pd3 2.702093 1_665
Mn1 Pd2 2.702093 1_665
Mn1 Pd1 2.702114 1_555
Mn1 Pd7 2.702114 1_555
Mn2 Pd8 2.640229 1_566
Mn2 Pd1 2.677113 1_555
Mn2 Pd6 2.677114 1_556
Mn2 Pd5 2.677119 1_556
Mn2 Pd2 2.677119 1_555
Mn2 Pd7 2.702093 1_455
Mn2 Pd4 2.702093 1_456
Mn2 Pd3 2.702093 1_565
Mn2 Pd0 2.702093 1_566
Mn3 Pd8 2.640229 1_655
Mn3 Pd0 2.677113 1_555
Mn3 Pd7 2.677114 1_554
Mn3 Pd3 2.677119 1_554
Mn3 Pd4 2.677119 1_555
Mn3 Pd6 2.702093 1_655
Mn3 Pd2 2.702093 1_654
Mn3 Pd5 2.702093 1_545
Mn3 Pd1 2.702093 1_544
Cu0 Pd7 2.563670 1_555
Cu0 Pd6 2.563670 1_545
Cu0 Pd3 2.563675 1_555
Cu0 Pd5 2.563675 1_545
Cu0 Pd0 2.809695 1_555
Cu0 Pd1 2.809695 1_545
Cu0 Pd2 2.809696 1_655
Cu0 Pd4 2.809696 1_445
Cu0 Mn1 2.855216 1_545
Cu0 Mn0 2.855216 1_555
Cu0 Mn3 2.855217 1_556
Cu0 Mn2 2.855217 1_544
Cu1 Pd1 2.563670 1_555
Cu1 Pd0 2.563670 1_455
Cu1 Pd2 2.563675 1_555
Cu1 Pd4 2.563675 1_455
Cu1 Pd6 2.809695 1_555
Cu1 Pd7 2.809695 1_455
Cu1 Pd3 2.809696 1_565
Cu1 Pd5 2.809696 1_445
Cu1 Mn0 2.855216 1_555
Cu1 Mn1 2.855216 1_455
Cu1 Mn2 2.855217 1_555
Cu1 Mn3 2.855217 1_455
Pd0 Si0 2.547120 1_555
Pd1 Si0 2.547120 1_556
Pd2 Si0 2.547119 1_556
Pd3 Si0 2.547120 1_556
Pd4 Si0 2.547119 1_555
Pd5 Si0 2.547120 1_555
Pd6 Si0 2.547120 1_555
Pd7 Si0 2.547120 1_556
