# generated using pymatgen
data_Ta5Si2B4W5
_symmetry_space_group_name_H-M   'P 1'
_cell_length_a   7.13600851
_cell_length_b   7.10422349
_cell_length_c   7.12520150
_cell_angle_alpha   129.05292734
_cell_angle_beta   129.18553913
_cell_angle_gamma   74.76276774
_symmetry_Int_Tables_number   1
_chemical_formula_structural   Ta5Si2B4W5
_chemical_formula_sum   'Ta5 Si2 B4 W5'
_cell_volume   211.86255437
_cell_formula_units_Z   1
loop_
 _symmetry_equiv_pos_site_id
 _symmetry_equiv_pos_as_xyz
  1  'x, y, z'
loop_
 _atom_site_type_symbol
 _atom_site_label
 _atom_site_symmetry_multiplicity
 _atom_site_fract_x
 _atom_site_fract_y
 _atom_site_fract_z
 _atom_site_occupancy
  Ta  Ta0  1  0.80422122  0.97811717  0.50163564  1
  Ta  Ta1  1  0.30642974  0.80650824  0.82840295  1
  Ta  Ta2  1  0.19502445  0.02650367  0.50146795  1
  Ta  Ta3  1  0.52690445  0.69255534  0.50147208  1
  Ta  Ta4  1  0.02324597  0.52169409  0.82794697  1
  Si  Si0  1  0.75013102  0.74807114  0.00039457  1
  Si  Si1  1  0.25297912  0.25150576  0.00660694  1
  B  B0  1  0.37505055  0.87695950  0.25182208  1
  B  B1  1  0.87750835  0.61922088  0.49605138  1
  B  B2  1  0.62445006  0.12603924  0.75026915  1
  B  B3  1  0.12071833  0.37830718  0.49625726  1
  W  W0  1  0.00109881  0.00101725  0.00111094  1
  W  W1  1  0.69636719  0.19423409  0.16699502  1
  W  W2  1  0.97214561  0.47263756  0.16728858  1
  W  W3  1  0.50168591  0.50130460  0.00101818  1
  W  W4  1  0.47203721  0.30532231  0.50126132  1
loop_
_geom_bond_atom_site_label_1
_geom_bond_atom_site_label_2
_geom_bond_distance
_geom_bond_site_symmetry_2
Ta0 W0 2.781747 1_666
Ta0 W3 2.783194 1_555
Ta0 W4 2.850625 1_565
Ta1 W3 2.786059 1_556
Ta1 W0 2.798941 1_566
Ta1 W2 2.863803 1_455
Ta1 W1 2.884864 1_566
Ta2 W0 2.782431 1_555
Ta2 W3 2.782843 1_556
Ta3 W0 2.787635 1_666
Ta3 W3 2.793980 1_555
Ta3 W4 2.877752 1_555
Ta4 W0 2.795032 1_566
Ta4 W3 2.800523 1_556
Ta4 W1 2.863065 1_455
Ta4 W2 2.888481 1_456
Ta4 W4 3.217528 1_455
Si0 W2 2.583553 1_555
Si0 Ta3 2.595794 1_554
Si0 Ta1 2.597348 1_554
Si0 W4 2.597421 1_554
Si0 Ta4 2.604455 1_654
Si0 W1 2.607323 1_565
Si0 Ta0 2.609575 1_555
Si0 Ta2 2.610988 1_665
Si0 W3 2.805350 1_555
Si0 W0 2.846935 1_665
Si1 Ta3 2.580625 1_555
Si1 W4 2.581847 1_555
Si1 Ta1 2.583029 1_544
Si1 W2 2.602502 1_455
Si1 Ta4 2.603887 1_554
Si1 W1 2.612006 1_555
Si1 Ta0 2.622311 1_444
Si1 Ta2 2.626307 1_554
Si1 W0 2.811312 1_555
Si1 W3 2.852117 1_555
B0 B2 2.158954 1_565
B0 W4 2.374054 1_565
B0 Ta0 2.391750 1_555
B0 Ta2 2.394183 1_565
B0 Ta3 2.410191 1_555
B0 W0 2.410944 1_565
B0 W3 2.428135 1_555
B0 Ta4 2.436840 1_554
B0 Ta1 2.439574 1_554
B1 B3 2.092842 1_655
B1 W2 2.362927 1_555
B1 W1 2.363337 1_555
B1 Ta4 2.394163 1_655
B1 Ta1 2.399502 1_655
B1 W3 2.416481 1_555
B1 Ta3 2.438052 1_555
B1 Ta0 2.444079 1_555
B1 W0 2.456090 1_666
B2 W4 2.373586 1_555
B2 Ta0 2.388695 1_545
B2 W1 2.388934 1_556
B2 W2 2.392464 1_556
B2 Ta2 2.393282 1_555
B2 Ta3 2.408157 1_545
B2 W3 2.411487 1_556
B2 W0 2.425375 1_656
B3 W2 2.352200 1_455
B3 W1 2.371096 1_455
B3 Ta1 2.386458 1_555
B3 Ta4 2.403794 1_555
B3 W4 2.404644 1_555
B3 W0 2.416856 1_555
B3 Ta2 2.434020 1_555
B3 W3 2.454065 1_556
