# generated using pymatgen
data_Zr10Zn2(GaTe)3
_symmetry_space_group_name_H-M   'P 1'
_cell_length_a   8.49174659
_cell_length_b   8.49174800
_cell_length_c   5.77405302
_cell_angle_alpha   90.00000000
_cell_angle_beta   90.00000000
_cell_angle_gamma   119.99999834
_symmetry_Int_Tables_number   1
_chemical_formula_structural   Zr10Zn2(GaTe)3
_chemical_formula_sum   'Zr10 Zn2 Ga3 Te3'
_cell_volume   360.58323355
_cell_formula_units_Z   1
loop_
 _symmetry_equiv_pos_site_id
 _symmetry_equiv_pos_as_xyz
  1  'x, y, z'
loop_
 _atom_site_type_symbol
 _atom_site_label
 _atom_site_symmetry_multiplicity
 _atom_site_fract_x
 _atom_site_fract_y
 _atom_site_fract_z
 _atom_site_occupancy
  Zr  Zr0  1  0.73587822  0.73587822  0.25000000  1
  Zr  Zr1  1  0.26412178  1.00000000  0.25000000  1
  Zr  Zr2  1  0.00000000  0.26412178  0.25000000  1
  Zr  Zr3  1  0.27815967  0.27815967  0.75000000  1
  Zr  Zr4  1  0.72184033  0.00000000  0.75000000  1
  Zr  Zr5  1  1.00000000  0.72184033  0.75000000  1
  Zr  Zr6  1  0.66666700  0.33333300  0.50949177  1
  Zr  Zr7  1  0.33333300  0.66666700  0.50949177  1
  Zr  Zr8  1  0.33333300  0.66666700  0.99050823  1
  Zr  Zr9  1  0.66666700  0.33333300  0.99050823  1
  Zn  Zn0  1  0.00000000  0.00000000  0.52024326  1
  Zn  Zn1  1  0.00000000  0.00000000  0.97975674  1
  Ga  Ga0  1  0.62437664  0.62437664  0.75000000  1
  Ga  Ga1  1  0.37562336  1.00000000  0.75000000  1
  Ga  Ga2  1  0.00000000  0.37562336  0.75000000  1
  Te  Te0  1  0.39054287  0.39054287  0.25000000  1
  Te  Te1  1  0.60945713  0.00000000  0.25000000  1
  Te  Te2  1  1.00000000  0.60945713  0.25000000  1
loop_
_geom_bond_atom_site_label_1
_geom_bond_atom_site_label_2
_geom_bond_distance
_geom_bond_site_symmetry_2
Zn0 Zr4 2.709110 1_455
Zn0 Zr3 2.709110 1_555
Zn0 Zr5 2.709110 1_445
Zn0 Zr1 2.732260 1_545
Zn0 Zr0 2.732260 1_445
Zn0 Zr2 2.732260 1_555
Zn1 Zr4 2.709110 1_455
Zn1 Zr3 2.709110 1_555
Zn1 Zr5 2.709110 1_445
Zn1 Zr1 2.732260 1_546
Zn1 Zr0 2.732260 1_446
Zn1 Zr2 2.732260 1_556
Ga0 Zr5 2.866923 1_555
Ga0 Zr4 2.866923 1_565
Ga0 Zr3 2.939987 1_555
Ga0 Zr7 3.008851 1_555
Ga0 Zr8 3.008851 1_555
Ga0 Zr9 3.008851 1_555
Ga0 Zr6 3.008851 1_555
Ga0 Zr0 3.038328 1_556
Ga0 Zr0 3.038328 1_555
Ga1 Zr5 2.866923 1_455
Ga1 Zr3 2.866923 1_565
Ga1 Zr4 2.939987 1_565
Ga1 Zr7 3.008844 1_555
Ga1 Zr8 3.008844 1_555
Ga1 Zr6 3.008847 1_565
Ga1 Zr9 3.008847 1_565
Ga1 Zr1 3.038328 1_556
Ga1 Zr1 3.038328 1_555
Ga2 Zr3 2.866923 1_555
Ga2 Zr4 2.866923 1_455
Ga2 Zr5 2.939987 1_455
Ga2 Zr6 3.008843 1_455
Ga2 Zr9 3.008843 1_455
Ga2 Zr7 3.008847 1_555
Ga2 Zr8 3.008847 1_555
Ga2 Zr2 3.038328 1_556
Ga2 Zr2 3.038328 1_555
Te0 Zr2 2.930984 1_555
Te0 Zr1 2.930984 1_545
Te0 Zr0 2.932501 1_555
Te0 Zr9 3.019614 1_554
Te0 Zr6 3.019614 1_555
Te0 Zr8 3.019614 1_554
Te0 Zr7 3.019614 1_555
Te0 Zr3 3.040669 1_554
Te0 Zr3 3.040669 1_555
Te1 Zr2 2.930984 1_655
Te1 Zr0 2.930984 1_545
Te1 Zr1 2.932500 1_545
Te1 Zr9 3.019607 1_554
Te1 Zr6 3.019607 1_555
Te1 Zr8 3.019610 1_544
Te1 Zr7 3.019610 1_545
Te1 Zr4 3.040669 1_555
Te1 Zr4 3.040669 1_554
Te2 Zr0 2.930984 1_555
Te2 Zr1 2.930984 1_655
Te2 Zr2 2.932501 1_655
Te2 Zr7 3.019607 1_655
Te2 Zr8 3.019607 1_654
Te2 Zr9 3.019609 1_554
Te2 Zr6 3.019609 1_555
Te2 Zr5 3.040669 1_555
Te2 Zr5 3.040669 1_554
