# generated using pymatgen
data_VMo(As4W)2
_symmetry_space_group_name_H-M   'P 1'
_cell_length_a   4.83818556
_cell_length_b   4.83818629
_cell_length_c   13.44614567
_cell_angle_alpha   83.85990463
_cell_angle_beta   83.85990454
_cell_angle_gamma   40.13902156
_symmetry_Int_Tables_number   1
_chemical_formula_structural   VMo(As4W)2
_chemical_formula_sum   'V1 Mo1 As8 W2'
_cell_volume   201.58067504
_cell_formula_units_Z   1
loop_
 _symmetry_equiv_pos_site_id
 _symmetry_equiv_pos_as_xyz
  1  'x, y, z'
loop_
 _atom_site_type_symbol
 _atom_site_label
 _atom_site_symmetry_multiplicity
 _atom_site_fract_x
 _atom_site_fract_y
 _atom_site_fract_z
 _atom_site_occupancy
  V  V0  1  0.55689693  0.55689693  0.59953136  1
  Mo  Mo0  1  0.05111412  0.05111412  0.10216744  1
  As  As0  1  0.85221121  0.85221121  0.55388105  1
  As  As1  1  0.34980001  0.34980001  0.05211795  1
  As  As2  1  0.65021642  0.65021642  0.94382992  1
  As  As3  1  0.14857923  0.14857923  0.45228634  1
  As  As4  1  0.12264188  0.12264188  0.73030513  1
  As  As5  1  0.61803162  0.61803162  0.23617990  1
  As  As6  1  0.38221671  0.38221671  0.76174827  1
  As  As7  1  0.87643560  0.87643560  0.26788658  1
  W  W0  1  0.94839252  0.94839252  0.89745318  1
  W  W1  1  0.44346575  0.44346575  0.40261187  1
loop_
_geom_bond_atom_site_label_1
_geom_bond_atom_site_label_2
_geom_bond_distance
_geom_bond_site_symmetry_2
V0 W1 2.948805 1_555
Mo0 W0 3.005633 1_444
As0 V0 2.618059 1_655
As0 V0 2.618060 1_565
As0 W1 2.682777 1_655
As0 W1 2.682777 1_565
As0 V0 2.684340 1_555
As1 Mo0 2.614888 1_655
As1 Mo0 2.614889 1_565
As1 Mo0 2.721466 1_555
As1 W0 2.731296 1_544
As1 W0 2.731296 1_454
As1 As2 2.944462 1_554
As1 As2 2.961190 1_454
As1 As2 2.961190 1_544
As2 W0 2.602050 1_455
As2 W0 2.602051 1_545
As2 W0 2.710794 1_555
As2 Mo0 2.768360 1_566
As2 Mo0 2.768360 1_656
As3 W1 2.638482 1_455
As3 W1 2.638483 1_545
As3 V0 2.644813 1_455
As3 V0 2.644813 1_545
As3 W1 2.687321 1_555
As4 As6 2.443737 1_555
As4 V0 2.538669 1_455
As4 V0 2.538669 1_545
As4 W0 2.597836 1_445
As4 As6 2.738581 1_455
As4 As6 2.738582 1_545
As5 As7 2.434262 1_555
As5 Mo0 2.573526 1_565
As5 Mo0 2.573526 1_655
As5 W1 2.591658 1_555
As5 As7 2.747119 1_455
As5 As7 2.747119 1_545
As6 V0 2.547449 1_555
As6 W0 2.588004 1_545
As6 W0 2.588004 1_455
As7 W1 2.580827 1_655
As7 W1 2.580827 1_565
As7 Mo0 2.584584 1_665
