# generated using pymatgen
data_Be6V4GaAs
_symmetry_space_group_name_H-M   'P 1'
_cell_length_a   4.43616601
_cell_length_b   4.43616592
_cell_length_c   7.40338645
_cell_angle_alpha   90.00000000
_cell_angle_beta   90.00000000
_cell_angle_gamma   120.00000068
_symmetry_Int_Tables_number   1
_chemical_formula_structural   Be6V4GaAs
_chemical_formula_sum   'Be6 V4 Ga1 As1'
_cell_volume   126.17596041
_cell_formula_units_Z   1
loop_
 _symmetry_equiv_pos_site_id
 _symmetry_equiv_pos_as_xyz
  1  'x, y, z'
loop_
 _atom_site_type_symbol
 _atom_site_label
 _atom_site_symmetry_multiplicity
 _atom_site_fract_x
 _atom_site_fract_y
 _atom_site_fract_z
 _atom_site_occupancy
  Be  Be0  1  0.82239986  0.64479871  0.24751478  1
  Be  Be1  1  0.17760014  0.82239986  0.75248522  1
  Be  Be2  1  0.64479871  0.82239986  0.75248522  1
  Be  Be3  1  0.35520129  0.17760014  0.24751478  1
  Be  Be4  1  0.82239986  0.17760014  0.24751478  1
  Be  Be5  1  0.17760014  0.35520129  0.75248522  1
  V  V0  1  0.33333300  0.66666700  0.06838488  1
  V  V1  1  0.66666700  0.33333300  0.56522044  1
  V  V2  1  0.66666700  0.33333300  0.93161512  1
  V  V3  1  0.33333300  0.66666700  0.43477956  1
  Ga  Ga0  1  0.00000000  0.00000000  0.00000000  1
  As  As0  1  0.00000000  0.00000000  0.50000000  1
loop_
_geom_bond_atom_site_label_1
_geom_bond_atom_site_label_2
_geom_bond_distance
_geom_bond_site_symmetry_2
Be0 Be4 2.072570 1_555
Be0 Be3 2.072570 1_555
Be0 Ga0 2.284746 1_665
Be0 Be3 2.363596 1_665
Be0 Be4 2.363596 1_565
Be0 V0 2.585663 1_655
Be0 V0 2.585670 1_555
Be0 V3 2.617063 1_655
Be0 V3 2.617070 1_555
Be0 V2 2.627070 1_554
Be0 V1 2.638980 1_555
Be1 Be5 2.072570 1_555
Be1 Be2 2.072570 1_555
Be1 Ga0 2.284743 1_566
Be1 Be5 2.363596 1_565
Be1 Be2 2.363596 1_455
Be1 V2 2.585666 1_565
Be1 V2 2.585666 1_455
Be1 V1 2.617066 1_565
Be1 V1 2.617066 1_455
Be1 V0 2.627070 1_556
Be1 V3 2.638980 1_555
Be2 Be5 2.072570 1_555
Be2 Ga0 2.284746 1_666
Be2 Be5 2.363596 1_665
Be2 V2 2.585663 1_565
Be2 V2 2.585670 1_555
Be2 V1 2.617063 1_565
Be2 V1 2.617070 1_555
Be2 V0 2.627070 1_556
Be2 V3 2.638980 1_555
Be3 Be4 2.072570 1_555
Be3 Ga0 2.284746 1_555
Be3 Be4 2.363596 1_455
Be3 V0 2.585663 1_545
Be3 V0 2.585670 1_555
Be3 V3 2.617063 1_545
Be3 V3 2.617070 1_555
Be3 V2 2.627070 1_554
Be3 V1 2.638980 1_555
Be4 Ga0 2.284743 1_655
Be4 V0 2.585666 1_545
Be4 V0 2.585666 1_655
Be4 V3 2.617066 1_545
Be4 V3 2.617066 1_655
Be4 V2 2.627070 1_554
Be4 V1 2.638980 1_555
Be5 Ga0 2.284746 1_556
Be5 V2 2.585663 1_455
Be5 V2 2.585670 1_555
Be5 V1 2.617063 1_455
Be5 V1 2.617070 1_555
Be5 V0 2.627070 1_556
Be5 V3 2.638980 1_555
V0 V3 2.712561 1_555
V0 V2 2.754110 1_564
V0 V2 2.754110 1_454
V0 V2 2.754117 1_554
V1 V2 2.712561 1_555
V1 V3 2.737230 1_545
V1 V3 2.737230 1_655
V1 V3 2.737237 1_555
Ga0 V0 2.610778 1_545
Ga0 V2 2.610778 1_454
Ga0 V0 2.610782 1_555
Ga0 V2 2.610782 1_444
Ga0 V2 2.610782 1_554
Ga0 V0 2.610782 1_445
As0 Be1 2.314361 1_545
As0 Be4 2.314361 1_455
As0 Be5 2.314363 1_555
As0 Be0 2.314363 1_445
As0 Be2 2.314363 1_445
As0 Be3 2.314363 1_555
As0 V1 2.606336 1_455
As0 V3 2.606336 1_545
As0 V3 2.606340 1_555
As0 V1 2.606340 1_445
As0 V1 2.606340 1_555
As0 V3 2.606340 1_445
