# generated using pymatgen
data_Hf5ZnSn3
_symmetry_space_group_name_H-M   'P 1'
_cell_length_a   8.56833306
_cell_length_b   8.56833330
_cell_length_c   5.79468519
_cell_angle_alpha   90.00000000
_cell_angle_beta   90.00000000
_cell_angle_gamma   119.99999529
_symmetry_Int_Tables_number   1
_chemical_formula_structural   Hf5ZnSn3
_chemical_formula_sum   'Hf10 Zn2 Sn6'
_cell_volume   368.42847675
_cell_formula_units_Z   2
loop_
 _symmetry_equiv_pos_site_id
 _symmetry_equiv_pos_as_xyz
  1  'x, y, z'
loop_
 _atom_site_type_symbol
 _atom_site_label
 _atom_site_symmetry_multiplicity
 _atom_site_fract_x
 _atom_site_fract_y
 _atom_site_fract_z
 _atom_site_occupancy
  Hf  Hf0  1  0.66666700  0.33333300  0.00000000  1
  Hf  Hf1  1  0.00000000  0.26659521  0.25000000  1
  Hf  Hf2  1  0.73340479  1.00000000  0.75000000  1
  Hf  Hf3  1  0.26659521  0.26659521  0.75000000  1
  Hf  Hf4  1  0.33333300  0.66666700  0.50000000  1
  Hf  Hf5  1  0.33333300  0.66666700  0.00000000  1
  Hf  Hf6  1  1.00000000  0.73340479  0.75000000  1
  Hf  Hf7  1  0.66666700  0.33333300  0.50000000  1
  Hf  Hf8  1  0.73340479  0.73340479  0.25000000  1
  Hf  Hf9  1  0.26659521  0.00000000  0.25000000  1
  Zn  Zn0  1  0.00000000  0.00000000  0.00000000  1
  Zn  Zn1  1  0.00000000  0.00000000  0.50000000  1
  Sn  Sn0  1  0.61397639  0.61397639  0.75000000  1
  Sn  Sn1  1  0.38602361  1.00000000  0.75000000  1
  Sn  Sn2  1  0.00000000  0.61397639  0.25000000  1
  Sn  Sn3  1  0.38602361  0.38602361  0.25000000  1
  Sn  Sn4  1  1.00000000  0.38602361  0.75000000  1
  Sn  Sn5  1  0.61397639  0.00000000  0.25000000  1
loop_
_geom_bond_atom_site_label_1
_geom_bond_atom_site_label_2
_geom_bond_distance
_geom_bond_site_symmetry_2
Hf0 Hf7 2.897343 1_555
Hf0 Hf7 2.897343 1_554
Hf0 Sn4 3.028263 1_554
Hf0 Sn5 3.028263 1_555
Hf0 Sn2 3.028266 1_655
Hf0 Sn1 3.028266 1_544
Hf0 Sn3 3.028271 1_555
Hf0 Sn0 3.028271 1_554
Hf1 Zn1 2.704916 1_555
Hf1 Zn0 2.704916 1_555
Hf1 Sn3 2.933014 1_555
Hf1 Sn5 2.933014 1_455
Hf1 Sn2 2.976478 1_555
Hf1 Sn4 3.072742 1_454
Hf1 Sn4 3.072742 1_455
Hf2 Zn0 2.704915 1_666
Hf2 Zn1 2.704915 1_665
Hf2 Sn0 2.933014 1_555
Hf2 Sn4 2.933014 1_565
Hf2 Sn1 2.976478 1_555
Hf2 Sn5 3.072742 1_566
Hf2 Sn5 3.072742 1_565
Hf3 Zn0 2.704916 1_556
Hf3 Zn1 2.704916 1_555
Hf3 Sn4 2.933014 1_455
Hf3 Sn1 2.933014 1_545
Hf3 Sn0 2.976478 1_555
Hf3 Sn3 3.072742 1_556
Hf3 Sn3 3.072742 1_555
Hf4 Hf5 2.897343 1_555
Hf4 Hf5 2.897343 1_556
Hf4 Sn2 3.028263 1_555
Hf4 Sn1 3.028263 1_555
Hf4 Sn4 3.028266 1_455
Hf4 Sn5 3.028266 1_565
Hf4 Sn0 3.028271 1_555
Hf4 Sn3 3.028271 1_555
Hf5 Sn2 3.028263 1_555
Hf5 Sn1 3.028263 1_554
Hf5 Sn4 3.028266 1_454
Hf5 Sn5 3.028266 1_565
Hf5 Sn0 3.028271 1_554
Hf5 Sn3 3.028271 1_555
Hf6 Zn0 2.704916 1_666
Hf6 Zn1 2.704916 1_665
Hf6 Sn0 2.933014 1_555
Hf6 Sn1 2.933014 1_655
Hf6 Sn4 2.976478 1_555
Hf6 Sn2 3.072742 1_656
Hf6 Sn2 3.072742 1_655
Hf7 Sn4 3.028263 1_555
Hf7 Sn5 3.028263 1_555
Hf7 Sn2 3.028266 1_655
Hf7 Sn1 3.028266 1_545
Hf7 Sn3 3.028271 1_555
Hf7 Sn0 3.028271 1_555
Hf8 Zn0 2.704916 1_665
Hf8 Zn1 2.704916 1_665
Hf8 Sn2 2.933014 1_655
Hf8 Sn5 2.933014 1_565
Hf8 Sn3 2.976478 1_555
Hf8 Sn0 3.072742 1_554
Hf8 Sn0 3.072742 1_555
Hf9 Zn0 2.704915 1_555
Hf9 Zn1 2.704915 1_555
Hf9 Sn3 2.933014 1_555
Hf9 Sn2 2.933014 1_545
Hf9 Sn5 2.976478 1_555
Hf9 Sn1 3.072742 1_545
Hf9 Sn1 3.072742 1_544
Zn0 Zn1 2.897343 1_554
Zn0 Zn1 2.897343 1_555
