# generated using pymatgen
data_Cd2P6Pd20Pb
_symmetry_space_group_name_H-M   'P 1'
_cell_length_a   8.57293535
_cell_length_b   8.57292394
_cell_length_c   8.57293536
_cell_angle_alpha   59.99997263
_cell_angle_beta   59.99992693
_cell_angle_gamma   60.00018113
_symmetry_Int_Tables_number   1
_chemical_formula_structural   Cd2P6Pd20Pb
_chemical_formula_sum   'Cd2 P6 Pd20 Pb1'
_cell_volume   445.52628859
_cell_formula_units_Z   1
loop_
 _symmetry_equiv_pos_site_id
 _symmetry_equiv_pos_as_xyz
  1  'x, y, z'
loop_
 _atom_site_type_symbol
 _atom_site_label
 _atom_site_symmetry_multiplicity
 _atom_site_fract_x
 _atom_site_fract_y
 _atom_site_fract_z
 _atom_site_occupancy
  Cd  Cd0  1  0.74999900  0.75000100  0.75000000  1
  Cd  Cd1  1  0.00000000  0.00000000  0.00000000  1
  P  P0  1  0.73444010  0.26555890  0.26555990  1
  P  P1  1  0.26555890  0.73444110  0.73444010  1
  P  P2  1  0.26555990  0.73444110  0.26555890  1
  P  P3  1  0.73444010  0.26555890  0.73444110  1
  P  P4  1  0.26556090  0.26555790  0.73444110  1
  P  P5  1  0.73444010  0.73444110  0.26555890  1
  Pd  Pd0  1  0.38496725  0.38497025  0.38496925  1
  Pd  Pd1  1  0.61683769  0.61683769  0.61683569  1
  Pd  Pd2  1  0.38496925  0.38497125  0.84509225  1
  Pd  Pd3  1  0.38497025  0.84509125  0.38497125  1
  Pd  Pd4  1  0.61683869  0.61683569  0.14948893  1
  Pd  Pd5  1  0.61683569  0.14948893  0.61683669  1
  Pd  Pd6  1  0.84509525  0.38497025  0.38496925  1
  Pd  Pd7  1  0.14948593  0.61683669  0.61683769  1
  Pd  Pd8  1  0.34447644  0.99846909  0.99846709  1
  Pd  Pd9  1  0.65858638  0.99846709  0.99846809  1
  Pd  Pd10  1  0.99846809  0.34447844  0.65858638  1
  Pd  Pd11  1  0.99846709  0.65858438  0.34447844  1
  Pd  Pd12  1  0.99846809  0.34447844  0.99846709  1
  Pd  Pd13  1  0.65858638  0.99846709  0.34447744  1
  Pd  Pd14  1  0.99846709  0.65858638  0.99846709  1
  Pd  Pd15  1  0.34447644  0.99846809  0.65858738  1
  Pd  Pd16  1  0.99846709  0.99846709  0.34447744  1
  Pd  Pd17  1  0.99846809  0.99846809  0.65858638  1
  Pd  Pd18  1  0.65858738  0.34447744  0.99846609  1
  Pd  Pd19  1  0.34447644  0.65858738  0.99846709  1
  Pb  Pb0  1  0.25000100  0.24999900  0.25000000  1
loop_
_geom_bond_atom_site_label_1
_geom_bond_atom_site_label_2
_geom_bond_distance
_geom_bond_site_symmetry_2
Cd0 Pd7 2.796320 1_655
Cd0 Pd5 2.796325 1_565
Cd0 Pd4 2.796328 1_556
Cd0 Pd1 2.796330 1_555
Cd0 Pd16 3.299605 1_555
Cd0 Pd9 3.299609 1_555
Cd0 Pd18 3.299613 1_555
Cd0 Pd14 3.299614 1_555
Cd0 Pd17 3.299614 1_555
Cd0 Pd19 3.299616 1_555
Cd0 Pd13 3.299619 1_555
Cd0 Pd8 3.299620 1_555
Cd0 Pd10 3.299623 1_555
Cd0 Pd11 3.299624 1_555
Cd0 Pd15 3.299624 1_555
Cd0 Pd12 3.299626 1_555
Cd1 Pd15 2.940097 1_544
Cd1 Pd8 2.940100 1_544
Cd1 Pd16 2.940100 1_445
Cd1 Pd13 2.940105 1_445
Cd1 Pd19 2.940106 1_544
Cd1 Pd17 2.940109 1_444
Cd1 Pd12 2.940109 1_454
Cd1 Pd10 2.940110 1_454
Cd1 Pd18 2.940110 1_454
Cd1 Pd9 2.940113 1_444
Cd1 Pd14 2.940113 1_444
Cd1 Pd11 2.940118 1_445
P0 Pd13 2.371389 1_545
P0 Pd16 2.371394 1_545
P0 Pd12 2.371397 1_554
P0 Pd18 2.371403 1_554
P0 Pd0 2.446617 1_555
P0 Pd6 2.446634 1_555
P0 Pd5 2.458866 1_555
P0 Pd4 2.458869 1_555
P1 Pd15 2.371383 1_555
P1 Pd19 2.371387 1_555
P1 Pd14 2.371389 1_455
P1 Pd17 2.371391 1_455
P1 Pd3 2.446584 1_555
P1 Pd2 2.446593 1_555
P1 Pd1 2.458885 1_555
P1 Pd7 2.458889 1_555
P2 Pd8 2.371386 1_554
P2 Pd16 2.371392 1_455
P2 Pd19 2.371396 1_554
P2 Pd11 2.371409 1_455
P2 Pd0 2.446600 1_555
P2 Pd3 2.446613 1_555
P2 Pd7 2.458880 1_555
P2 Pd4 2.458886 1_555
P3 Pd18 2.371377 1_555
P3 Pd9 2.371386 1_545
P3 Pd17 2.371394 1_545
P3 Pd10 2.371398 1_555
P3 Pd2 2.446603 1_555
P3 Pd6 2.446604 1_555
P3 Pd5 2.458882 1_555
P3 Pd1 2.458883 1_555
P4 Pd8 2.371370 1_545
P4 Pd15 2.371382 1_545
P4 Pd12 2.371393 1_455
P4 Pd10 2.371401 1_455
P4 Pd0 2.446604 1_555
P4 Pd2 2.446613 1_555
P4 Pd5 2.458857 1_555
P4 Pd7 2.458883 1_555
P5 Pd13 2.371381 1_555
P5 Pd9 2.371383 1_554
P5 Pd11 2.371390 1_555
P5 Pd14 2.371393 1_554
P5 Pd3 2.446596 1_555
P5 Pd6 2.446600 1_555
P5 Pd1 2.458866 1_555
P5 Pd4 2.458868 1_555
Pd0 Pd10 3.027414 1_455
Pd0 Pd11 3.027425 1_455
Pd0 Pd15 3.027431 1_545
Pd0 Pd19 3.027435 1_554
Pd0 Pd18 3.027449 1_554
Pd0 Pd13 3.027451 1_545
Pd1 Pd11 2.996656 1_555
Pd1 Pd13 2.996661 1_555
Pd1 Pd18 2.996678 1_555
Pd1 Pd19 2.996685 1_555
Pd1 Pd10 2.996686 1_555
Pd1 Pd15 2.996688 1_555
Pd2 Pd8 3.027439 1_545
Pd2 Pd9 3.027449 1_545
Pd3 Pd9 3.027429 1_554
Pd3 Pd8 3.027460 1_554
Pd4 Pd9 2.996672 1_554
Pd4 Pd8 2.996709 1_554
Pd5 Pd8 2.996668 1_545
Pd5 Pd9 2.996688 1_545
Pd8 Pd9 2.692840 1_555
Pd10 Pd11 2.692816 1_555
Pd10 Pd18 2.913768 1_555
Pd10 Pd12 2.913775 1_555
Pd10 Pd17 2.966320 1_545
Pd10 Pd15 2.966322 1_645
Pd10 Pd7 2.996648 1_655
Pd10 Pd6 3.027413 1_555
Pd11 Pd16 2.913784 1_555
Pd11 Pd13 2.913790 1_555
Pd11 Pd19 2.966321 1_654
Pd11 Pd14 2.966324 1_554
Pd11 Pd7 2.996674 1_655
Pd11 Pd6 3.027379 1_555
Pd12 Pd14 2.692819 1_555
Pd12 Pd18 2.913784 1_555
Pd12 Pd8 2.966318 1_645
Pd12 Pd16 2.966325 1_546
Pd12 Pd7 2.996655 1_655
Pd12 Pd4 2.996672 1_556
Pd12 Pd2 3.027434 1_655
Pd12 Pd6 3.027442 1_556
Pd13 Pd15 2.692841 1_555
Pd13 Pd16 2.913775 1_555
Pd13 Pd9 2.966316 1_554
Pd13 Pd18 2.966325 1_564
Pd13 Pd5 2.996679 1_565
Pd13 Pd3 3.027410 1_555
Pd14 Pd17 2.913776 1_555
Pd14 Pd9 2.913781 1_555
Pd14 Pd19 2.966320 1_655
Pd14 Pd4 2.996661 1_556
Pd14 Pd7 2.996671 1_655
Pd14 Pd6 3.027415 1_556
Pd14 Pd2 3.027430 1_655
Pd15 Pd19 2.913768 1_555
Pd15 Pd8 2.913771 1_555
Pd15 Pd17 2.966312 1_455
Pd15 Pd5 2.996669 1_565
Pd15 Pd3 3.027421 1_555
Pd16 Pd17 2.692844 1_555
Pd16 Pd8 2.966317 1_654
Pd16 Pd7 2.996678 1_655
Pd16 Pd5 2.996685 1_565
Pd16 Pd6 3.027453 1_565
Pd16 Pd3 3.027459 1_655
Pd17 Pd9 2.913781 1_555
Pd17 Pd7 2.996686 1_655
Pd17 Pd5 2.996698 1_565
Pd17 Pd6 3.027430 1_565
Pd17 Pd3 3.027431 1_655
Pd18 Pd19 2.692854 1_555
Pd18 Pd9 2.966316 1_545
Pd18 Pd4 2.996685 1_556
Pd18 Pd2 3.027420 1_555
Pd19 Pd8 2.913780 1_555
Pd19 Pd4 2.996701 1_556
Pd19 Pd2 3.027411 1_555
Pb0 Pd6 2.834251 1_455
Pb0 Pd0 2.834253 1_555
Pb0 Pd2 2.834259 1_554
Pb0 Pd3 2.834262 1_545
Pb0 Pd17 3.333560 1_445
Pb0 Pd18 3.333566 1_554
Pb0 Pd11 3.333567 1_455
Pb0 Pd8 3.333567 1_544
Pb0 Pd19 3.333567 1_554
Pb0 Pd9 3.333568 1_544
Pb0 Pd13 3.333568 1_545
Pb0 Pd15 3.333569 1_545
Pb0 Pd10 3.333575 1_455
Pb0 Pd16 3.333576 1_445
Pb0 Pd12 3.333579 1_454
Pb0 Pd14 3.333588 1_454
