# generated using pymatgen
data_Y12CdInGa4
_symmetry_space_group_name_H-M   'P 1'
_cell_length_a   8.67205361
_cell_length_b   8.67205382
_cell_length_c   8.67205396
_cell_angle_alpha   112.40289887
_cell_angle_beta   111.73862570
_cell_angle_gamma   104.38934222
_symmetry_Int_Tables_number   1
_chemical_formula_structural   Y12CdInGa4
_chemical_formula_sum   'Y12 Cd1 In1 Ga4'
_cell_volume   499.10101496
_cell_formula_units_Z   1
loop_
 _symmetry_equiv_pos_site_id
 _symmetry_equiv_pos_as_xyz
  1  'x, y, z'
loop_
 _atom_site_type_symbol
 _atom_site_label
 _atom_site_symmetry_multiplicity
 _atom_site_fract_x
 _atom_site_fract_y
 _atom_site_fract_z
 _atom_site_occupancy
  Y  Y0  1  0.43585661  0.23733785  0.19851976  1
  Y  Y1  1  0.56414339  0.76266215  0.80148024  1
  Y  Y2  1  0.03881808  0.23733785  0.80148024  1
  Y  Y3  1  0.96118192  0.76266215  0.19851976  1
  Y  Y4  1  0.18117812  0.27753373  0.45871085  1
  Y  Y5  1  0.81882188  0.72246627  0.54128915  1
  Y  Y6  1  0.18117812  0.72246627  0.90364539  1
  Y  Y7  1  0.81882188  0.27753373  0.09635461  1
  Y  Y8  1  0.32031681  0.62067087  0.30035306  1
  Y  Y9  1  0.67968319  0.37932913  0.69964694  1
  Y  Y10  1  0.32031681  0.01996375  0.69964694  1
  Y  Y11  1  0.67968319  0.98003625  0.30035306  1
  Cd  Cd0  1  0.00000000  0.00000000  0.00000000  1
  In  In0  1  0.50000000  0.50000000  0.00000000  1
  Ga  Ga0  1  0.35125401  0.00000000  0.35125401  1
  Ga  Ga1  1  0.64874599  0.00000000  0.64874599  1
  Ga  Ga2  1  0.11910412  0.61910412  0.50000000  1
  Ga  Ga3  1  0.88089588  0.38089588  0.50000000  1
loop_
_geom_bond_atom_site_label_1
_geom_bond_atom_site_label_2
_geom_bond_distance
_geom_bond_site_symmetry_2
Cd0 Y0 3.177908 1_555
Cd0 Y1 3.177908 1_444
Cd0 Y2 3.177915 1_554
Cd0 Y3 3.177915 1_445
Cd0 Y4 3.206010 1_555
Cd0 Y5 3.206010 1_444
Cd0 Y7 3.206015 1_455
Cd0 Y6 3.206015 1_544
In0 Y3 3.395639 1_555
In0 Y2 3.395639 1_554
In0 Y1 3.395640 1_554
In0 Y0 3.395640 1_555
In0 Y11 3.470843 1_555
In0 Y10 3.470843 1_554
In0 Y8 3.470844 1_555
In0 Y9 3.470844 1_554
In0 Y6 3.772675 1_554
In0 Y7 3.772675 1_555
In0 Y5 3.772684 1_555
In0 Y4 3.772684 1_554
Ga0 Y0 2.928500 1_555
Ga0 Y3 2.928502 1_445
Ga0 Y8 3.074876 1_545
Ga0 Y9 3.074881 1_555
Ga0 Y11 3.074885 1_545
Ga0 Y10 3.074885 1_555
Ga0 Y6 3.147887 1_544
Ga0 Y4 3.147892 1_555
Ga1 Y1 2.928500 1_545
Ga1 Y2 2.928502 1_655
Ga1 Y9 3.074876 1_555
Ga1 Y8 3.074881 1_545
Ga1 Y10 3.074885 1_555
Ga1 Y11 3.074885 1_545
Ga1 Y7 3.147887 1_556
Ga1 Y5 3.147892 1_545
Ga2 Ga3 2.532535 1_455
Ga2 Y10 2.878632 1_565
Ga2 Y8 2.878632 1_555
Ga2 Y4 3.052699 1_555
Ga2 Y5 3.052703 1_455
Ga2 Y7 3.052705 1_455
Ga2 Y6 3.052709 1_555
Ga2 Y3 3.307099 1_455
Ga2 Y1 3.307106 1_555
Ga3 Y11 2.878632 1_545
Ga3 Y9 2.878632 1_555
Ga3 Y5 3.052699 1_555
Ga3 Y4 3.052703 1_655
Ga3 Y6 3.052705 1_655
Ga3 Y7 3.052709 1_555
Ga3 Y2 3.307099 1_655
Ga3 Y0 3.307106 1_555
