# generated using pymatgen
data_Hf8VFeBi4
_symmetry_space_group_name_H-M   'P 1'
_cell_length_a   8.22310820
_cell_length_b   8.22310926
_cell_length_c   8.22310820
_cell_angle_alpha   96.15316431
_cell_angle_beta   96.15317539
_cell_angle_gamma   141.77865350
_symmetry_Int_Tables_number   1
_chemical_formula_structural   Hf8VFeBi4
_chemical_formula_sum   'Hf8 V1 Fe1 Bi4'
_cell_volume   325.06431782
_cell_formula_units_Z   1
loop_
 _symmetry_equiv_pos_site_id
 _symmetry_equiv_pos_as_xyz
  1  'x, y, z'
loop_
 _atom_site_type_symbol
 _atom_site_label
 _atom_site_symmetry_multiplicity
 _atom_site_fract_x
 _atom_site_fract_y
 _atom_site_fract_z
 _atom_site_occupancy
  Hf  Hf0  1  0.58222700  0.69578515  0.27538568  1
  Hf  Hf1  1  0.91777300  0.19315869  0.11355815  1
  Hf  Hf2  1  0.30684131  0.58222700  0.88644185  1
  Hf  Hf3  1  0.80421485  0.91777300  0.72461432  1
  Hf  Hf4  1  0.69578515  0.42039946  0.11355815  1
  Hf  Hf5  1  0.07960054  0.80421485  0.88644185  1
  Hf  Hf6  1  0.42039946  0.30684131  0.72461432  1
  Hf  Hf7  1  0.19315869  0.07960054  0.27538568  1
  V  V0  1  0.75000000  0.75000000  0.00000000  1
  Fe  Fe0  1  0.25000000  0.25000000  0.00000000  1
  Bi  Bi0  1  0.36044274  0.86044274  0.22088449  1
  Bi  Bi1  1  0.13955726  0.36044274  0.50000000  1
  Bi  Bi2  1  0.63955726  0.13955726  0.77911551  1
  Bi  Bi3  1  0.86044274  0.63955726  0.50000000  1
loop_
_geom_bond_atom_site_label_1
_geom_bond_atom_site_label_2
_geom_bond_distance
_geom_bond_site_symmetry_2
Hf0 V0 2.673935 1_555
Hf0 Hf7 3.207187 1_665
Hf0 Hf1 3.214656 1_565
Hf0 Hf7 3.230842 1_555
Hf0 Hf1 3.238256 1_455
Hf0 Hf2 3.273205 1_554
Hf0 Hf4 3.273206 1_555
Hf0 Hf3 3.490497 1_555
Hf1 V0 2.673936 1_545
Hf1 Hf2 3.207187 1_544
Hf1 Hf2 3.230842 1_654
Hf1 Hf7 3.273205 1_655
Hf1 Hf3 3.273205 1_544
Hf1 Hf4 3.490498 1_555
Hf2 V0 2.673935 1_556
Hf2 Hf3 3.214656 1_555
Hf2 Hf3 3.238257 1_445
Hf2 Hf6 3.273206 1_555
Hf2 Hf5 3.490498 1_555
Hf3 V0 2.673935 1_556
Hf3 Hf6 3.207187 1_555
Hf3 Hf6 3.230842 1_665
Hf3 Hf5 3.273205 1_655
Hf4 V0 2.673935 1_555
Hf4 Hf5 3.207187 1_654
Hf4 Hf7 3.214656 1_665
Hf4 Hf5 3.230842 1_544
Hf4 Hf7 3.238256 1_555
Hf4 Hf6 3.273205 1_554
Hf5 V0 2.673935 1_456
Hf5 Hf6 3.214656 1_455
Hf5 Hf6 3.238256 1_565
Hf5 Hf7 3.273205 1_566
Hf6 V0 2.673936 1_556
Hf6 Hf7 3.490497 1_555
Hf7 V0 2.673935 1_445
Fe0 Hf4 2.681045 1_555
Fe0 Hf3 2.681045 1_444
Fe0 Hf7 2.681045 1_555
Fe0 Hf1 2.681045 1_455
Fe0 Hf6 2.681045 1_554
Fe0 Hf2 2.681045 1_554
Fe0 Hf0 2.681045 1_555
Fe0 Hf5 2.681045 1_544
Fe0 V0 2.692196 1_445
Fe0 V0 2.692196 1_555
Bi0 Hf0 3.032344 1_555
Bi0 Hf7 3.032344 1_565
Bi0 Hf5 3.130266 1_554
Bi0 Hf2 3.130267 1_554
Bi0 Hf1 3.309251 1_565
Bi0 Hf4 3.309255 1_455
Bi0 Hf4 3.320736 1_565
Bi0 Hf1 3.320741 1_455
Bi1 Hf1 3.032342 1_455
Bi1 Hf2 3.032343 1_555
Bi1 Hf6 3.130273 1_555
Bi1 Hf7 3.130273 1_555
Bi1 Hf3 3.309255 1_555
Bi1 Hf0 3.309255 1_445
Bi1 Hf0 3.320740 1_555
Bi1 Hf3 3.320740 1_445
Bi2 Hf6 3.032344 1_555
Bi2 Hf3 3.032344 1_545
Bi2 Hf1 3.130266 1_556
Bi2 Hf4 3.130267 1_556
Bi2 Hf2 3.309251 1_545
Bi2 Hf5 3.309256 1_655
Bi2 Hf5 3.320736 1_545
Bi2 Hf2 3.320740 1_655
Bi3 Hf5 3.032342 1_655
Bi3 Hf4 3.032343 1_555
Bi3 Hf0 3.130273 1_555
Bi3 Hf3 3.130273 1_555
Bi3 Hf6 3.309255 1_555
Bi3 Hf7 3.309255 1_665
Bi3 Hf7 3.320740 1_555
Bi3 Hf6 3.320740 1_665
