# generated using pymatgen
data_Zr5Ga2BiC
_symmetry_space_group_name_H-M   'P 1'
_cell_length_a   8.28574881
_cell_length_b   8.25334900
_cell_length_c   5.84208257
_cell_angle_alpha   90.00000000
_cell_angle_beta   90.00000000
_cell_angle_gamma   120.12994484
_symmetry_Int_Tables_number   1
_chemical_formula_structural   Zr5Ga2BiC
_chemical_formula_sum   'Zr10 Ga4 Bi2 C2'
_cell_volume   345.53348135
_cell_formula_units_Z   2
loop_
 _symmetry_equiv_pos_site_id
 _symmetry_equiv_pos_as_xyz
  1  'x, y, z'
loop_
 _atom_site_type_symbol
 _atom_site_label
 _atom_site_symmetry_multiplicity
 _atom_site_fract_x
 _atom_site_fract_y
 _atom_site_fract_z
 _atom_site_occupancy
  Zr  Zr0  1  0.32131387  0.64262973  0.50000000  1
  Zr  Zr1  1  0.67868613  0.35737027  0.50000000  1
  Zr  Zr2  1  0.67868613  0.35737027  0.00000000  1
  Zr  Zr3  1  0.32131387  0.64262973  0.00000000  1
  Zr  Zr4  1  0.21601662  0.00000000  0.75000000  1
  Zr  Zr5  1  0.78398338  0.00000000  0.25000000  1
  Zr  Zr6  1  0.01113707  0.23109482  0.75000000  1
  Zr  Zr7  1  0.98886293  0.76890518  0.25000000  1
  Zr  Zr8  1  0.78004325  0.76890518  0.75000000  1
  Zr  Zr9  1  0.21995675  0.23109482  0.25000000  1
  Ga  Ga0  1  0.00612383  0.60249972  0.75000000  1
  Ga  Ga1  1  0.99387617  0.39750028  0.25000000  1
  Ga  Ga2  1  0.40362412  0.39750028  0.75000000  1
  Ga  Ga3  1  0.59637588  0.60249972  0.25000000  1
  Bi  Bi0  1  0.59869989  0.00000000  0.75000000  1
  Bi  Bi1  1  0.40130011  0.00000000  0.25000000  1
  C  C0  1  0.00000000  0.00000000  0.50000000  1
  C  C1  1  0.00000000  0.00000000  0.00000000  1
loop_
_geom_bond_atom_site_label_1
_geom_bond_atom_site_label_2
_geom_bond_distance
_geom_bond_site_symmetry_2
Ga0 Zr8 2.824555 1_455
Ga0 Zr4 2.838951 1_565
Ga0 Zr2 2.841915 1_456
Ga0 Zr1 2.841915 1_455
Ga0 Zr0 2.862661 1_555
Ga0 Zr3 2.862661 1_556
Ga0 Zr6 3.086394 1_555
Ga0 Zr7 3.261344 1_455
Ga0 Zr7 3.261344 1_456
Ga1 Zr9 2.824555 1_655
Ga1 Zr5 2.838951 1_555
Ga1 Zr0 2.841915 1_655
Ga1 Zr3 2.841915 1_655
Ga1 Zr2 2.862661 1_555
Ga1 Zr1 2.862661 1_555
Ga1 Zr7 3.086394 1_555
Ga1 Zr6 3.261344 1_655
Ga1 Zr6 3.261344 1_654
Ga2 Zr6 2.824562 1_555
Ga2 Zr4 2.838951 1_555
Ga2 Zr0 2.841925 1_555
Ga2 Zr3 2.841925 1_556
Ga2 Zr2 2.862675 1_556
Ga2 Zr1 2.862675 1_555
Ga2 Zr8 3.086398 1_555
Ga2 Zr9 3.261346 1_556
Ga2 Zr9 3.261346 1_555
Ga3 Zr7 2.824562 1_555
Ga3 Zr5 2.838951 1_565
Ga3 Zr1 2.841925 1_555
Ga3 Zr2 2.841925 1_555
Ga3 Zr3 2.862675 1_555
Ga3 Zr0 2.862675 1_555
Ga3 Zr9 3.086398 1_555
Ga3 Zr8 3.261346 1_554
Ga3 Zr8 3.261346 1_555
Bi0 Zr6 2.961855 1_655
Bi0 Zr8 2.961861 1_545
Bi0 Zr2 3.051142 1_556
Bi0 Zr1 3.051142 1_555
Bi0 Zr0 3.051147 1_545
Bi0 Zr3 3.051147 1_546
Bi0 Zr4 3.170817 1_555
Bi0 Zr5 3.299903 1_556
Bi0 Zr5 3.299903 1_555
Bi1 Zr7 2.961855 1_445
Bi1 Zr9 2.961861 1_555
Bi1 Zr3 3.051142 1_545
Bi1 Zr0 3.051142 1_545
Bi1 Zr2 3.051147 1_555
Bi1 Zr1 3.051147 1_555
Bi1 Zr5 3.170817 1_555
Bi1 Zr4 3.299903 1_555
Bi1 Zr4 3.299903 1_554
C0 Zr4 2.310134 1_555
C0 Zr5 2.310134 1_455
C0 Zr9 2.367012 1_555
C0 Zr8 2.367012 1_445
C0 Zr6 2.367015 1_555
C0 Zr7 2.367015 1_445
C1 Zr4 2.310134 1_554
C1 Zr5 2.310134 1_455
C1 Zr9 2.367012 1_555
C1 Zr8 2.367012 1_444
C1 Zr6 2.367015 1_554
C1 Zr7 2.367015 1_445
