# generated using pymatgen
data_RbFeP2Ir
_symmetry_space_group_name_H-M   'P 1'
_cell_length_a   7.40954175
_cell_length_b   7.40954166
_cell_length_c   7.40954255
_cell_angle_alpha   149.98637660
_cell_angle_beta   149.98637017
_cell_angle_gamma   42.96140266
_symmetry_Int_Tables_number   1
_chemical_formula_structural   RbFeP2Ir
_chemical_formula_sum   'Rb1 Fe1 P2 Ir1'
_cell_volume   101.51902131
_cell_formula_units_Z   1
loop_
 _symmetry_equiv_pos_site_id
 _symmetry_equiv_pos_as_xyz
  1  'x, y, z'
loop_
 _atom_site_type_symbol
 _atom_site_label
 _atom_site_symmetry_multiplicity
 _atom_site_fract_x
 _atom_site_fract_y
 _atom_site_fract_z
 _atom_site_occupancy
  Rb  Rb0  1  0.00000000  0.00000000  0.00000000  1
  Fe  Fe0  1  0.75000000  0.25000000  0.50000000  1
  P  P0  1  0.33793660  0.33793660  1.00000000  1
  P  P1  1  0.66206340  0.66206340  0.00000000  1
  Ir  Ir0  1  0.25000000  0.75000000  0.50000000  1
loop_
_geom_bond_atom_site_label_1
_geom_bond_atom_site_label_2
_geom_bond_distance
_geom_bond_site_symmetry_2
Fe0 P1 2.269673 1_545
Fe0 P1 2.269673 1_556
Fe0 P0 2.269673 1_655
Fe0 P0 2.269673 1_554
Fe0 Ir0 2.713284 1_645
Fe0 Ir0 2.713284 1_555
Fe0 Ir0 2.713285 1_656
Fe0 Ir0 2.713285 1_544
P0 Rb0 3.515155 1_566
P0 Rb0 3.515155 1_656
P0 Rb0 3.515155 1_667
P0 Rb0 3.515156 1_555
P1 Rb0 3.515155 1_655
P1 Rb0 3.515155 1_565
P1 Rb0 3.515155 1_554
P1 Rb0 3.515156 1_666
Ir0 P0 2.269673 1_565
Ir0 P0 2.269673 1_554
Ir0 P1 2.269673 1_455
Ir0 P1 2.269673 1_556
