# generated using pymatgen
data_Sc6Ta4Ga12Ir7
_symmetry_space_group_name_H-M   'P 1'
_cell_length_a   8.79364462
_cell_length_b   8.79364404
_cell_length_c   8.79364518
_cell_angle_alpha   59.99999570
_cell_angle_beta   59.99999789
_cell_angle_gamma   60.00000065
_symmetry_Int_Tables_number   1
_chemical_formula_structural   Sc6Ta4Ga12Ir7
_chemical_formula_sum   'Sc6 Ta4 Ga12 Ir7'
_cell_volume   480.83017392
_cell_formula_units_Z   1
loop_
 _symmetry_equiv_pos_site_id
 _symmetry_equiv_pos_as_xyz
  1  'x, y, z'
loop_
 _atom_site_type_symbol
 _atom_site_label
 _atom_site_symmetry_multiplicity
 _atom_site_fract_x
 _atom_site_fract_y
 _atom_site_fract_z
 _atom_site_occupancy
  Sc  Sc0  1  0.69855284  0.69855284  0.30144716  1
  Sc  Sc1  1  0.30144716  0.69855284  0.30144716  1
  Sc  Sc2  1  0.69855284  0.30144716  0.30144716  1
  Sc  Sc3  1  0.30144716  0.30144716  0.69855284  1
  Sc  Sc4  1  0.69855284  0.30144716  0.69855284  1
  Sc  Sc5  1  0.30144716  0.69855284  0.69855284  1
  Ta  Ta0  1  0.87669266  0.87669266  0.36992102  1
  Ta  Ta1  1  0.87669266  0.36992102  0.87669266  1
  Ta  Ta2  1  0.36992102  0.87669266  0.87669266  1
  Ta  Ta3  1  0.87669266  0.87669266  0.87669266  1
  Ga  Ga0  1  0.12047072  0.12047072  0.63858885  1
  Ga  Ga1  1  0.12047072  0.63858885  0.12047072  1
  Ga  Ga2  1  0.63858885  0.12047072  0.12047072  1
  Ga  Ga3  1  0.12047072  0.12047072  0.12047072  1
  Ga  Ga4  1  0.64936677  0.64936677  0.05189968  1
  Ga  Ga5  1  0.64936677  0.05189968  0.64936677  1
  Ga  Ga6  1  0.05189968  0.64936677  0.64936677  1
  Ga  Ga7  1  0.64936677  0.64936677  0.64936677  1
  Ga  Ga8  1  0.33693457  0.33693457  0.98919728  1
  Ga  Ga9  1  0.33693457  0.98919728  0.33693457  1
  Ga  Ga10  1  0.98919728  0.33693457  0.33693457  1
  Ga  Ga11  1  0.33693457  0.33693457  0.33693457  1
  Ir  Ir0  1  0.00000000  0.00000000  0.00000000  1
  Ir  Ir1  1  0.99555535  0.99555535  0.50444465  1
  Ir  Ir2  1  0.50444465  0.99555535  0.50444465  1
  Ir  Ir3  1  0.99555535  0.50444465  0.50444465  1
  Ir  Ir4  1  0.50444465  0.50444465  0.99555535  1
  Ir  Ir5  1  0.99555535  0.50444465  0.99555535  1
  Ir  Ir6  1  0.50444465  0.99555535  0.99555535  1
loop_
_geom_bond_atom_site_label_1
_geom_bond_atom_site_label_2
_geom_bond_distance
_geom_bond_site_symmetry_2
Sc0 Ta0 3.100129 1_555
Sc0 Ta3 3.100136 1_554
Sc1 Ta0 3.100137 1_455
Sc1 Ta2 3.100137 1_554
Sc2 Ta0 3.100137 1_545
Sc2 Ta1 3.100137 1_554
Sc3 Ta2 3.100137 1_545
Sc3 Ta1 3.100137 1_455
Sc4 Ta1 3.100130 1_555
Sc4 Ta3 3.100135 1_545
Sc5 Ta2 3.100130 1_555
Sc5 Ta3 3.100136 1_455
Ga0 Ir0 2.594925 1_556
Ga0 Ir3 2.757323 1_455
Ga0 Ir2 2.757324 1_545
Ga0 Ir1 2.757331 1_445
Ga0 Ga11 2.794257 1_555
Ga0 Ga10 2.794257 1_455
Ga0 Ga9 2.794257 1_545
Ga0 Ta1 3.032044 1_455
Ga0 Ta2 3.032044 1_545
Ga0 Ta3 3.032057 1_445
Ga0 Sc3 3.091028 1_555
Ga0 Sc5 3.091036 1_545
Ga0 Sc4 3.091036 1_455
Ga1 Ir0 2.594925 1_565
Ga1 Ir4 2.757324 1_554
Ga1 Ir3 2.757324 1_455
Ga1 Ir5 2.757331 1_454
Ga1 Ga10 2.794257 1_455
Ga1 Ga11 2.794257 1_555
Ga1 Ga8 2.794257 1_554
Ga1 Ta2 3.032044 1_554
Ga1 Ta0 3.032044 1_455
Ga1 Ta3 3.032057 1_454
Ga1 Sc1 3.091029 1_555
Ga1 Sc0 3.091036 1_455
Ga1 Sc5 3.091036 1_554
Ga2 Ir0 2.594925 1_655
Ga2 Ir4 2.757323 1_554
Ga2 Ir2 2.757324 1_545
Ga2 Ir6 2.757331 1_544
Ga2 Ga9 2.794257 1_545
Ga2 Ga8 2.794257 1_554
Ga2 Ta1 3.032044 1_554
Ga2 Ta0 3.032044 1_545
Ga2 Ta3 3.032057 1_544
Ga2 Sc2 3.091029 1_555
Ga2 Sc0 3.091036 1_545
Ga2 Sc4 3.091036 1_554
Ga3 Ir0 2.594932 1_555
Ga3 Ir5 2.757323 1_454
Ga3 Ir6 2.757323 1_544
Ga3 Ir1 2.757324 1_445
Ga3 Ga8 2.794257 1_554
Ga3 Ga9 2.794257 1_545
Ga3 Ta0 3.032056 1_445
Ga3 Ta1 3.032057 1_454
Ga3 Ta2 3.032057 1_544
Ga3 Sc1 3.091034 1_545
Ga3 Sc3 3.091034 1_554
Ga3 Sc2 3.091035 1_455
Ga4 Ir6 2.525981 1_554
Ga4 Ir4 2.525982 1_554
Ga4 Ir5 2.525982 1_554
Ga4 Sc2 2.697231 1_555
Ga4 Sc1 2.697231 1_555
Ga4 Sc0 2.697231 1_555
Ga4 Ta3 2.863955 1_554
Ga4 Ta1 2.863962 1_554
Ga4 Ta2 2.863962 1_554
Ga5 Ir1 2.525982 1_545
Ga5 Ir2 2.525982 1_545
Ga5 Ir6 2.525982 1_545
Ga5 Sc2 2.697231 1_555
Ga5 Sc4 2.697231 1_555
Ga5 Sc3 2.697231 1_555
Ga5 Ta3 2.863955 1_545
Ga5 Ta2 2.863962 1_545
Ga5 Ta0 2.863962 1_545
Ga6 Ir1 2.525981 1_455
Ga6 Ir3 2.525982 1_455
Ga6 Ir5 2.525982 1_455
Ga6 Sc3 2.697231 1_555
Ga6 Sc1 2.697231 1_555
Ga6 Sc5 2.697231 1_555
Ga6 Ta3 2.863955 1_455
Ga6 Ta1 2.863962 1_455
Ga6 Ta0 2.863962 1_455
Ga7 Ir2 2.525981 1_555
Ga7 Ir4 2.525982 1_555
Ga7 Ir3 2.525982 1_555
Ga7 Sc4 2.697231 1_555
Ga7 Sc5 2.697231 1_555
Ga7 Sc0 2.697231 1_555
Ga7 Ta0 2.863956 1_555
Ga7 Ta1 2.863957 1_555
Ga7 Ta2 2.863957 1_555
Ga8 Ir4 2.584036 1_555
Ga8 Ir6 2.584043 1_545
Ga8 Ir5 2.584043 1_455
Ga8 Sc5 2.901640 1_555
Ga8 Sc4 2.901640 1_555
Ga8 Sc3 2.901646 1_555
Ga9 Ir2 2.584036 1_555
Ga9 Ir1 2.584043 1_455
Ga9 Ir6 2.584044 1_554
Ga9 Sc5 2.901640 1_555
Ga9 Sc0 2.901640 1_555
Ga9 Sc1 2.901645 1_555
Ga10 Ir3 2.584036 1_555
Ga10 Ir1 2.584043 1_545
Ga10 Ir5 2.584043 1_554
Ga10 Ga3 2.794257 1_655
Ga10 Sc0 2.901640 1_555
Ga10 Sc4 2.901640 1_555
Ga10 Sc2 2.901646 1_555
Ga11 Ir2 2.584041 1_545
Ga11 Ir4 2.584041 1_554
Ga11 Ir3 2.584041 1_455
Ga11 Ga2 2.794257 1_555
Ga11 Sc1 2.901637 1_555
Ga11 Sc2 2.901637 1_555
Ga11 Sc3 2.901637 1_555
Ir0 Ta1 2.656026 1_454
Ir0 Ta2 2.656026 1_544
Ir0 Ta0 2.656026 1_445
Ir0 Ta3 2.656033 1_444
Ir1 Ta3 2.673916 1_555
Ir1 Ta0 2.673923 1_555
Ir1 Sc4 3.174653 1_565
Ir1 Sc2 3.174653 1_565
Ir1 Sc5 3.174653 1_655
Ir1 Sc1 3.174653 1_655
Ir2 Ta0 2.673916 1_555
Ir2 Ta2 2.673916 1_555
Ir2 Sc2 3.174653 1_565
Ir2 Sc5 3.174653 1_555
Ir2 Sc3 3.174653 1_565
Ir2 Sc0 3.174653 1_555
Ir3 Ta0 2.673916 1_555
Ir3 Ta1 2.673916 1_555
Ir3 Sc4 3.174653 1_555
Ir3 Sc1 3.174653 1_655
Ir3 Sc3 3.174654 1_655
Ir3 Sc0 3.174654 1_555
Ir4 Ta2 2.673916 1_555
Ir4 Ta1 2.673916 1_555
Ir4 Sc4 3.174654 1_555
Ir4 Sc2 3.174654 1_556
Ir4 Sc5 3.174654 1_555
Ir4 Sc1 3.174654 1_556
Ir5 Ta3 2.673916 1_555
Ir5 Ta1 2.673923 1_555
Ir5 Sc2 3.174653 1_556
Ir5 Sc5 3.174653 1_655
Ir5 Sc3 3.174654 1_655
Ir5 Sc0 3.174654 1_556
Ir6 Ta3 2.673916 1_555
Ir6 Ta2 2.673923 1_555
Ir6 Sc4 3.174653 1_565
Ir6 Sc1 3.174653 1_556
Ir6 Sc3 3.174653 1_565
Ir6 Sc0 3.174653 1_556
