# generated using pymatgen
data_Ba10ReWN10
_symmetry_space_group_name_H-M   'P 1'
_cell_length_a   8.11781823
_cell_length_b   8.11781808
_cell_length_c   9.63193386
_cell_angle_alpha   76.30957972
_cell_angle_beta   76.30958808
_cell_angle_gamma   96.94060823
_symmetry_Int_Tables_number   1
_chemical_formula_structural   Ba10ReWN10
_chemical_formula_sum   'Ba10 Re1 W1 N10'
_cell_volume   588.57008507
_cell_formula_units_Z   1
loop_
 _symmetry_equiv_pos_site_id
 _symmetry_equiv_pos_as_xyz
  1  'x, y, z'
loop_
 _atom_site_type_symbol
 _atom_site_label
 _atom_site_symmetry_multiplicity
 _atom_site_fract_x
 _atom_site_fract_y
 _atom_site_fract_z
 _atom_site_occupancy
  Ba  Ba0  1  0.38688413  0.38838722  0.38644337  1
  Ba  Ba1  1  0.61161278  0.61311587  0.61355663  1
  Ba  Ba2  1  0.66702891  0.66744301  0.00922581  1
  Ba  Ba3  1  0.33255699  0.33297109  0.99077419  1
  Ba  Ba4  1  0.92169596  0.91817273  0.20931694  1
  Ba  Ba5  1  0.08182727  0.07830404  0.79068306  1
  Ba  Ba6  1  0.56206900  0.09816908  0.74722702  1
  Ba  Ba7  1  0.90183092  0.43793100  0.25277298  1
  Ba  Ba8  1  0.43367623  0.89782275  0.25281543  1
  Ba  Ba9  1  0.10217725  0.56632377  0.74718457  1
  Re  Re0  1  0.75670820  0.24329180  0.00000000  1
  W  W0  1  0.24341405  0.75658595  1.00000000  1
  N  N0  1  0.65334174  0.65399645  0.30660572  1
  N  N1  1  0.34600355  0.34665826  0.69339428  1
  N  N2  1  0.71396564  0.01991288  0.99016324  1
  N  N3  1  0.98008712  0.28603436  0.00983676  1
  N  N4  1  0.28616440  0.98550664  0.01048571  1
  N  N5  1  0.01449336  0.71383560  0.98951429  1
  N  N6  1  0.39668683  0.73002701  0.83075447  1
  N  N7  1  0.26997299  0.60331317  0.16924453  1
  N  N8  1  0.60810239  0.27030372  0.16470808  1
  N  N9  1  0.72969628  0.39189761  0.83529092  1
loop_
_geom_bond_atom_site_label_1
_geom_bond_atom_site_label_2
_geom_bond_distance
_geom_bond_site_symmetry_2
Ba0 N0 2.686973 1_555
Ba0 N7 2.816685 1_555
Ba0 N1 2.828478 1_555
Ba0 N8 2.876600 1_555
Ba1 N1 2.686973 1_555
Ba1 N6 2.816679 1_555
Ba1 N0 2.828478 1_555
Ba1 N9 2.876593 1_555
Ba2 N5 2.754976 1_654
Ba2 N2 2.796528 1_564
Ba2 N0 2.815519 1_555
Ba2 N6 3.109851 1_554
Ba2 N9 3.116787 1_554
Ba2 N8 3.141333 1_555
Ba2 N7 3.146246 1_555
Ba3 N4 2.754976 1_546
Ba3 N3 2.796529 1_456
Ba3 N1 2.815519 1_555
Ba3 N7 3.109845 1_556
Ba3 N8 3.116780 1_556
Ba3 N9 3.141335 1_555
Ba3 N6 3.146248 1_555
Ba4 N0 2.678840 1_555
Ba4 N5 3.001769 1_654
Ba4 N4 3.025199 1_655
Ba4 N2 3.029502 1_564
Ba4 N3 3.056931 1_565
Ba5 N1 2.678840 1_555
Ba5 N4 3.001769 1_546
Ba5 N5 3.025199 1_545
Ba5 N3 3.029502 1_456
Ba5 N2 3.056932 1_455
Ba6 N4 2.828696 1_546
Ba6 N1 2.864411 1_555
Ba6 N2 2.872424 1_555
Ba6 N6 2.960040 1_545
Ba6 N9 2.996041 1_555
Ba7 N5 2.828696 1_654
Ba7 N0 2.864411 1_555
Ba7 N3 2.872424 1_555
Ba7 N7 2.960039 1_655
Ba7 N8 2.996047 1_555
Ba8 N2 2.846574 1_564
Ba8 N4 2.851533 1_555
Ba8 N0 2.858488 1_555
Ba8 N7 2.962971 1_555
Ba8 N8 3.008304 1_565
Ba9 N3 2.846574 1_456
Ba9 N5 2.851533 1_555
Ba9 N1 2.858488 1_555
Ba9 N6 2.962966 1_555
Ba9 N9 3.008304 1_455
N2 Re0 1.833693 1_556
N3 Re0 1.833693 1_555
N4 W0 1.879793 1_554
N5 W0 1.879793 1_555
N6 W0 1.877003 1_555
N7 W0 1.876996 1_554
N8 Re0 1.828362 1_555
N9 Re0 1.828369 1_556
