# generated using pymatgen
data_K2Be3SiP4
_symmetry_space_group_name_H-M   'P 1'
_cell_length_a   7.42645012
_cell_length_b   7.42644915
_cell_length_c   5.17464009
_cell_angle_alpha   90.00000000
_cell_angle_beta   90.00000000
_cell_angle_gamma   139.21780571
_symmetry_Int_Tables_number   1
_chemical_formula_structural   K2Be3SiP4
_chemical_formula_sum   'K2 Be3 Si1 P4'
_cell_volume   186.41422361
_cell_formula_units_Z   1
loop_
 _symmetry_equiv_pos_site_id
 _symmetry_equiv_pos_as_xyz
  1  'x, y, z'
loop_
 _atom_site_type_symbol
 _atom_site_label
 _atom_site_symmetry_multiplicity
 _atom_site_fract_x
 _atom_site_fract_y
 _atom_site_fract_z
 _atom_site_occupancy
  K  K0  1  0.50000000  0.00000000  0.24735406  1
  K  K1  1  0.00000000  0.50000000  0.75264594  1
  Be  Be0  1  0.50000000  0.50000000  0.50000000  1
  Be  Be1  1  0.50000000  0.50000000  0.00000000  1
  Be  Be2  1  0.00000000  0.00000000  0.50000000  1
  Si  Si0  1  0.00000000  0.00000000  0.00000000  1
  P  P0  1  0.65697001  0.84379363  0.75012077  1
  P  P1  1  0.15620637  0.34302999  0.24987923  1
  P  P2  1  0.84379363  0.65697001  0.24987923  1
  P  P3  1  0.34302999  0.15620637  0.75012077  1
loop_
_geom_bond_atom_site_label_1
_geom_bond_atom_site_label_2
_geom_bond_distance
_geom_bond_site_symmetry_2
K0 P0 3.372380 1_544
K0 P3 3.372380 1_554
K0 P2 3.382022 1_445
K0 P1 3.382022 1_655
K0 P2 3.385044 1_555
K0 P1 3.385044 1_545
K0 P0 3.394277 1_545
K0 P3 3.394277 1_555
K1 P2 3.372380 1_456
K1 P1 3.372380 1_556
K1 P3 3.382022 1_565
K1 P0 3.382022 1_445
K1 P0 3.385045 1_555
K1 P3 3.385045 1_455
K1 P2 3.394277 1_455
K1 P1 3.394277 1_555
Be0 P0 2.246209 1_555
Be0 P3 2.246209 1_555
Be0 P1 2.246210 1_555
Be0 P2 2.246210 1_555
Be1 P0 2.245489 1_554
Be1 P3 2.245489 1_554
Be1 P1 2.245490 1_555
Be1 P2 2.245490 1_555
Be1 Si0 2.587571 1_665
Be1 Si0 2.587571 1_555
Be2 P1 2.243932 1_555
Be2 P2 2.243932 1_445
Be2 P3 2.243932 1_555
Be2 P0 2.243932 1_445
Be2 Si0 2.587320 1_556
Be2 Si0 2.587320 1_555
P0 Si0 2.243211 1_666
P1 Si0 2.243211 1_555
P2 Si0 2.243211 1_665
P3 Si0 2.243211 1_556
