# generated using pymatgen
data_Zr6Zn16Pt7C
_symmetry_space_group_name_H-M   'P 1'
_cell_length_a   8.70338406
_cell_length_b   8.70338316
_cell_length_c   8.70338295
_cell_angle_alpha   59.99999711
_cell_angle_beta   60.00000054
_cell_angle_gamma   59.99999480
_symmetry_Int_Tables_number   1
_chemical_formula_structural   Zr6Zn16Pt7C
_chemical_formula_sum   'Zr6 Zn16 Pt7 C1'
_cell_volume   466.17536765
_cell_formula_units_Z   1
loop_
 _symmetry_equiv_pos_site_id
 _symmetry_equiv_pos_as_xyz
  1  'x, y, z'
loop_
 _atom_site_type_symbol
 _atom_site_label
 _atom_site_symmetry_multiplicity
 _atom_site_fract_x
 _atom_site_fract_y
 _atom_site_fract_z
 _atom_site_occupancy
  Zr  Zr0  1  0.68841717  0.31158283  0.31158283  1
  Zr  Zr1  1  0.31158283  0.68841717  0.68841717  1
  Zr  Zr2  1  0.31158283  0.68841717  0.31158283  1
  Zr  Zr3  1  0.68841717  0.31158283  0.68841717  1
  Zr  Zr4  1  0.31158283  0.31158283  0.68841717  1
  Zr  Zr5  1  0.68841717  0.68841717  0.31158283  1
  Zn  Zn0  1  0.12023855  0.12023855  0.12023855  1
  Zn  Zn1  1  0.87976145  0.87976145  0.87976145  1
  Zn  Zn2  1  0.12023855  0.12023855  0.63928534  1
  Zn  Zn3  1  0.12023855  0.63928534  0.12023855  1
  Zn  Zn4  1  0.87976145  0.87976145  0.36071466  1
  Zn  Zn5  1  0.87976145  0.36071466  0.87976145  1
  Zn  Zn6  1  0.63928534  0.12023855  0.12023855  1
  Zn  Zn7  1  0.36071466  0.87976145  0.87976145  1
  Zn  Zn8  1  0.33468569  0.33468569  0.33468569  1
  Zn  Zn9  1  0.66531431  0.66531431  0.66531431  1
  Zn  Zn10  1  0.33468569  0.33468569  0.99594492  1
  Zn  Zn11  1  0.33468569  0.99594492  0.33468569  1
  Zn  Zn12  1  0.66531431  0.66531431  0.00405508  1
  Zn  Zn13  1  0.66531431  0.00405508  0.66531431  1
  Zn  Zn14  1  0.99594492  0.33468569  0.33468569  1
  Zn  Zn15  1  0.00405508  0.66531431  0.66531431  1
  Pt  Pt0  1  0.50000000  0.00000000  0.00000000  1
  Pt  Pt1  1  0.00000000  0.50000000  0.50000000  1
  Pt  Pt2  1  0.00000000  0.50000000  0.00000000  1
  Pt  Pt3  1  0.50000000  0.00000000  0.50000000  1
  Pt  Pt4  1  0.00000000  0.00000000  0.50000000  1
  Pt  Pt5  1  0.50000000  0.50000000  0.00000000  1
  Pt  Pt6  1  0.00000000  0.00000000  0.00000000  1
  C  C0  1  0.50000000  0.50000000  0.50000000  1
loop_
_geom_bond_atom_site_label_1
_geom_bond_atom_site_label_2
_geom_bond_distance
_geom_bond_site_symmetry_2
Pt0 Zn10 2.512620 1_554
Pt0 Zn12 2.512620 1_545
Pt0 Zn11 2.512621 1_545
Pt0 Zn13 2.512621 1_554
Pt0 Zn1 2.700389 1_544
Pt0 Zn0 2.700389 1_555
Pt0 Zn6 2.700396 1_555
Pt0 Zn7 2.700396 1_544
Pt0 Zr5 3.169094 1_545
Pt0 Zr4 3.169094 1_554
Pt0 Zr3 3.169094 1_554
Pt0 Zr2 3.169094 1_545
Pt1 Zn15 2.512606 1_555
Pt1 Zn14 2.512606 1_455
Pt1 Zn9 2.512616 1_455
Pt1 Zn8 2.512616 1_555
Pt1 Zn4 2.700389 1_455
Pt1 Zn2 2.700389 1_555
Pt1 Zn5 2.700389 1_455
Pt1 Zn3 2.700389 1_555
Pt1 Zr4 3.169094 1_555
Pt1 Zr5 3.169094 1_455
Pt1 Zr2 3.169094 1_555
Pt1 Zr3 3.169094 1_455
Pt2 Zn14 2.512620 1_455
Pt2 Zn15 2.512620 1_554
Pt2 Zn10 2.512621 1_554
Pt2 Zn12 2.512621 1_455
Pt2 Zn0 2.700388 1_555
Pt2 Zn1 2.700388 1_454
Pt2 Zn3 2.700396 1_555
Pt2 Zn5 2.700396 1_454
Pt2 Zr5 3.169094 1_455
Pt2 Zr4 3.169094 1_554
Pt2 Zr1 3.169094 1_554
Pt2 Zr0 3.169094 1_455
Pt3 Zn13 2.512606 1_555
Pt3 Zn11 2.512606 1_545
Pt3 Zn8 2.512616 1_555
Pt3 Zn9 2.512616 1_545
Pt3 Zn7 2.700389 1_545
Pt3 Zn6 2.700389 1_555
Pt3 Zn4 2.700389 1_545
Pt3 Zn2 2.700389 1_555
Pt3 Zr4 3.169094 1_555
Pt3 Zr5 3.169094 1_545
Pt3 Zr0 3.169094 1_555
Pt3 Zr1 3.169094 1_545
Pt4 Zn14 2.512621 1_455
Pt4 Zn15 2.512621 1_545
Pt4 Zn11 2.512621 1_545
Pt4 Zn13 2.512621 1_455
Pt4 Zn1 2.700388 1_445
Pt4 Zn0 2.700388 1_555
Pt4 Zn2 2.700396 1_555
Pt4 Zn4 2.700396 1_445
Pt4 Zr3 3.169094 1_455
Pt4 Zr2 3.169094 1_545
Pt4 Zr1 3.169094 1_545
Pt4 Zr0 3.169094 1_455
Pt5 Zn12 2.512606 1_555
Pt5 Zn10 2.512606 1_554
Pt5 Zn9 2.512616 1_554
Pt5 Zn8 2.512616 1_555
Pt5 Zn7 2.700389 1_554
Pt5 Zn6 2.700389 1_555
Pt5 Zn5 2.700389 1_554
Pt5 Zn3 2.700389 1_555
Pt5 Zr0 3.169094 1_555
Pt5 Zr1 3.169094 1_554
Pt5 Zr2 3.169094 1_555
Pt5 Zr3 3.169094 1_554
Pt6 Zn3 2.563340 1_545
Pt6 Zn5 2.563340 1_454
Pt6 Zn4 2.563340 1_445
Pt6 Zn2 2.563340 1_554
Pt6 Zn7 2.563341 1_544
Pt6 Zn6 2.563341 1_455
Pt6 Zn0 2.563348 1_555
Pt6 Zn1 2.563348 1_444
C0 Zr1 2.319122 1_555
C0 Zr0 2.319122 1_555
C0 Zr3 2.319122 1_555
C0 Zr2 2.319122 1_555
C0 Zr5 2.319122 1_555
C0 Zr4 2.319122 1_555
