# generated using pymatgen
data_K2Li14Hf3O14
_symmetry_space_group_name_H-M   'P 1'
_cell_length_a   8.12370273
_cell_length_b   8.12370267
_cell_length_c   8.12370252
_cell_angle_alpha   127.24245569
_cell_angle_beta   123.25872011
_cell_angle_gamma   81.16382935
_symmetry_Int_Tables_number   1
_chemical_formula_structural   K2Li14Hf3O14
_chemical_formula_sum   'K2 Li14 Hf3 O14'
_cell_volume   343.84929083
_cell_formula_units_Z   1
loop_
 _symmetry_equiv_pos_site_id
 _symmetry_equiv_pos_as_xyz
  1  'x, y, z'
loop_
 _atom_site_type_symbol
 _atom_site_label
 _atom_site_symmetry_multiplicity
 _atom_site_fract_x
 _atom_site_fract_y
 _atom_site_fract_z
 _atom_site_occupancy
  K  K0  1  0.50000000  0.76110127  0.26110127  1
  K  K1  1  0.50000000  0.23889873  0.73889873  1
  Li  Li0  1  0.70510317  0.13646284  0.11247884  1
  Li  Li1  1  0.97601600  0.86353716  0.56864032  1
  Li  Li2  1  0.02398400  0.59262432  0.88752116  1
  Li  Li3  1  0.29489683  0.40737568  0.43135968  1
  Li  Li4  1  0.02398400  0.13646284  0.43135968  1
  Li  Li5  1  0.84569327  0.50000000  0.34569327  1
  Li  Li6  1  0.15430673  0.50000000  0.65430673  1
  Li  Li7  1  0.41294789  0.77075346  0.64219443  1
  Li  Li8  1  0.58705211  0.22924654  0.35780557  1
  Li  Li9  1  0.87144097  0.22924654  0.64219443  1
  Li  Li10  1  0.12855903  0.77075346  0.35780557  1
  Li  Li11  1  0.70510317  0.59262432  0.56864032  1
  Li  Li12  1  0.29489683  0.86353716  0.88752116  1
  Li  Li13  1  0.97601600  0.40737568  0.11247884  1
  Hf  Hf0  1  0.00000000  0.00000000  0.00000000  1
  Hf  Hf1  1  0.27129236  0.27129236  1.00000000  1
  Hf  Hf2  1  0.72870764  0.72870764  0.00000000  1
  O  O0  1  0.05048649  0.87229108  0.17819540  1
  O  O1  1  0.42154837  0.62975595  0.79179242  1
  O  O2  1  0.83796353  0.62975595  0.20820758  1
  O  O3  1  0.57845163  0.37024405  0.20820758  1
  O  O4  1  0.16203647  0.37024405  0.79179242  1
  O  O5  1  0.74432480  0.02912412  0.28479931  1
  O  O6  1  0.25567520  0.54047551  0.28479931  1
  O  O7  1  0.25567520  0.97087588  0.71520069  1
  O  O8  1  0.74432480  0.45952449  0.71520069  1
  O  O9  1  0.00000000  0.71351657  0.71351657  1
  O  O10  1  1.00000000  0.28648343  0.28648343  1
  O  O11  1  0.69409568  0.87229108  0.82180460  1
  O  O12  1  0.30590432  0.12770892  0.17819540  1
  O  O13  1  0.94951351  0.12770892  0.82180460  1
loop_
_geom_bond_atom_site_label_1
_geom_bond_atom_site_label_2
_geom_bond_distance
_geom_bond_site_symmetry_2
K0 O1 2.949582 1_554
K0 O4 2.949582 1_554
K0 O3 2.949582 1_555
K0 O2 2.949582 1_555
K0 O6 3.019696 1_555
K0 O5 3.019702 1_565
K1 O3 2.949582 1_556
K1 O2 2.949582 1_556
K1 O1 2.949582 1_555
K1 O4 2.949582 1_555
K1 O8 3.019696 1_555
K1 O7 3.019702 1_545
Li0 O5 1.929882 1_555
Li0 O3 1.939038 1_555
Li0 O11 1.970578 1_544
Li0 O10 2.078474 1_555
Li1 O7 1.929882 1_655
Li1 O2 1.939038 1_555
Li1 O13 1.970578 1_565
Li1 O9 2.078474 1_655
Li2 O8 1.929884 1_455
Li2 O4 1.939038 1_555
Li2 O0 1.970578 1_556
Li2 O9 2.078474 1_555
Li3 O6 1.929889 1_555
Li3 O1 1.939038 1_555
Li3 O12 1.970578 1_555
Li3 O10 2.078474 1_455
Li4 O5 1.929882 1_455
Li4 O4 1.939038 1_555
Li4 O0 1.970578 1_545
Li4 O10 2.078474 1_455
Li5 O2 1.921003 1_555
Li5 O3 1.921003 1_555
Li5 O9 1.948047 1_655
Li5 O10 1.948047 1_555
Li6 O4 1.921003 1_555
Li6 O1 1.921003 1_555
Li6 O10 1.948047 1_455
Li6 O9 1.948047 1_555
Li7 O11 1.868856 1_555
Li7 O6 1.911300 1_555
Li7 O7 1.911302 1_555
Li7 O1 2.088289 1_555
Li8 O12 1.868856 1_555
Li8 O8 1.911300 1_555
Li8 O5 1.911302 1_555
Li8 O3 2.088289 1_555
Li9 O13 1.868856 1_555
Li9 O8 1.911296 1_555
Li9 O5 1.911302 1_555
Li9 O4 2.088290 1_655
Li10 O0 1.868856 1_555
Li10 O6 1.911296 1_555
Li10 O7 1.911302 1_555
Li10 O2 2.088290 1_455
Li11 O8 1.929889 1_555
Li11 O3 1.939038 1_555
Li11 O11 1.970578 1_555
Li11 O9 2.078474 1_655
Li12 O7 1.929882 1_555
Li12 O1 1.939038 1_555
Li12 O12 1.970578 1_566
Li12 O9 2.078474 1_555
Li13 O6 1.929884 1_655
Li13 O2 1.939038 1_555
Li13 O13 1.970578 1_554
Li13 O10 2.078474 1_555
Hf0 O10 2.068060 1_455
Hf0 O9 2.068060 1_544
Hf0 O13 2.091886 1_454
Hf0 O0 2.091886 1_545
Hf0 O12 2.091886 1_555
Hf0 O11 2.091886 1_444
Hf1 O4 2.018594 1_555
Hf1 O3 2.018594 1_556
Hf1 O7 2.064914 1_545
Hf1 O6 2.064917 1_556
Hf1 O12 2.243152 1_556
Hf1 O13 2.243152 1_455
Hf2 O2 2.018594 1_555
Hf2 O1 2.018594 1_554
Hf2 O5 2.064914 1_565
Hf2 O8 2.064917 1_554
Hf2 O11 2.243152 1_554
Hf2 O0 2.243152 1_655
