# generated using pymatgen
data_Ba2NaInS4
_symmetry_space_group_name_H-M   'P 1'
_cell_length_a   7.42298427
_cell_length_b   8.54179786
_cell_length_c   14.83323704
_cell_angle_alpha   72.97222016
_cell_angle_beta   90.00000000
_cell_angle_gamma   90.00000000
_symmetry_Int_Tables_number   1
_chemical_formula_structural   Ba2NaInS4
_chemical_formula_sum   'Ba8 Na4 In4 S16'
_cell_volume   899.28147984
_cell_formula_units_Z   4
loop_
 _symmetry_equiv_pos_site_id
 _symmetry_equiv_pos_as_xyz
  1  'x, y, z'
loop_
 _atom_site_type_symbol
 _atom_site_label
 _atom_site_symmetry_multiplicity
 _atom_site_fract_x
 _atom_site_fract_y
 _atom_site_fract_z
 _atom_site_occupancy
  Ba  Ba0  1  0.86716114  0.80495678  0.14349621  1
  Ba  Ba1  1  0.36716114  0.69504322  0.35650379  1
  Ba  Ba2  1  0.13283886  0.19504322  0.85650379  1
  Ba  Ba3  1  0.63283886  0.30495678  0.64349621  1
  Ba  Ba4  1  0.86939921  0.30690482  0.13873481  1
  Ba  Ba5  1  0.36939921  0.19309518  0.36126519  1
  Ba  Ba6  1  0.13060079  0.69309518  0.86126519  1
  Ba  Ba7  1  0.63060079  0.80690482  0.63873481  1
  Na  Na0  1  0.90739407  0.91932891  0.40409707  1
  Na  Na1  1  0.40739407  0.58067109  0.09590293  1
  Na  Na2  1  0.09260593  0.08067109  0.59590293  1
  Na  Na3  1  0.59260593  0.41932891  0.90409707  1
  In  In0  1  0.83712324  0.43272981  0.38305061  1
  In  In1  1  0.33712324  0.06727019  0.11694939  1
  In  In2  1  0.16287676  0.56727019  0.61694939  1
  In  In3  1  0.66287676  0.93272981  0.88305061  1
  S  S0  1  0.24878884  0.87667017  0.02773716  1
  S  S1  1  0.74878884  0.62332983  0.47226284  1
  S  S2  1  0.75121116  0.12332983  0.97226284  1
  S  S3  1  0.25121116  0.37667017  0.52773716  1
  S  S4  1  0.09253510  0.48359654  0.27139784  1
  S  S5  1  0.59253510  0.01640346  0.22860216  1
  S  S6  1  0.90746490  0.51640346  0.72860216  1
  S  S7  1  0.40746490  0.98359654  0.77139784  1
  S  S8  1  0.60662806  0.49285572  0.25156685  1
  S  S9  1  0.10662806  0.00714428  0.24843315  1
  S  S10  1  0.39337194  0.50714428  0.74843315  1
  S  S11  1  0.89337194  0.99285572  0.75156685  1
  S  S12  1  0.75833259  0.14820861  0.47878932  1
  S  S13  1  0.25833259  0.35179139  0.02121068  1
  S  S14  1  0.24166741  0.85179139  0.52121068  1
  S  S15  1  0.74166741  0.64820861  0.97878932  1
loop_
_geom_bond_atom_site_label_1
_geom_bond_atom_site_label_2
_geom_bond_distance
_geom_bond_site_symmetry_2
Ba0 S9 3.184287 1_665
Ba0 S5 3.216644 1_565
Ba0 S2 3.246885 1_564
Ba0 S15 3.247333 1_554
Ba0 S0 3.276039 1_655
Ba0 S4 3.298946 1_655
Ba0 S8 3.303632 1_555
Ba1 S8 3.184287 1_555
Ba1 S4 3.216644 1_555
Ba1 S3 3.246885 1_555
Ba1 S14 3.247333 1_555
Ba1 S1 3.276039 1_555
Ba1 S5 3.298946 1_565
Ba1 S9 3.303632 1_565
Ba2 S11 3.184287 1_445
Ba2 S7 3.216644 1_545
Ba2 S0 3.246885 1_546
Ba2 S13 3.247333 1_556
Ba2 S2 3.276039 1_455
Ba2 S6 3.298946 1_455
Ba2 S10 3.303632 1_555
Ba3 S10 3.184287 1_555
Ba3 S6 3.216644 1_555
Ba3 S1 3.246885 1_555
Ba3 S12 3.247333 1_555
Ba3 S3 3.276039 1_555
Ba3 S7 3.298946 1_545
Ba3 S11 3.303632 1_545
Ba4 S9 3.140804 1_655
Ba4 S5 3.196987 1_555
Ba4 S4 3.260839 1_655
Ba4 S8 3.268881 1_555
Ba4 S15 3.313026 1_554
Ba4 S13 3.336098 1_655
Ba4 S2 3.404960 1_554
Ba5 S8 3.140804 1_555
Ba5 S4 3.196987 1_555
Ba5 S5 3.260839 1_555
Ba5 S9 3.268881 1_555
Ba5 S14 3.313026 1_545
Ba5 S12 3.336098 1_555
Ba5 S3 3.404960 1_555
Ba6 S11 3.140804 1_455
Ba6 S7 3.196987 1_555
Ba6 S6 3.260839 1_455
Ba6 S10 3.268881 1_555
Ba6 S13 3.313026 1_556
Ba6 S15 3.336098 1_455
Ba6 S0 3.404960 1_556
Ba7 S10 3.140804 1_555
Ba7 S6 3.196987 1_555
Ba7 S7 3.260839 1_555
Ba7 S11 3.268881 1_555
Ba7 S12 3.313026 1_565
Ba7 S14 3.336098 1_555
Ba7 S1 3.404960 1_555
Na0 S9 2.658371 1_665
Na0 S1 2.702559 1_555
Na0 S12 2.746378 1_565
Na0 S14 2.986724 1_655
Na0 S5 3.415008 1_565
Na1 S8 2.658371 1_555
Na1 S0 2.702559 1_555
Na1 S13 2.746378 1_555
Na1 S15 2.986724 1_554
Na1 S4 3.415008 1_555
Na2 S11 2.658371 1_445
Na2 S3 2.702559 1_555
Na2 S14 2.746378 1_545
Na2 S12 2.986724 1_455
Na2 S7 3.415008 1_545
Na3 S10 2.658371 1_555
Na3 S2 2.702559 1_555
Na3 S15 2.746378 1_555
Na3 S13 2.986724 1_556
Na3 S6 3.415008 1_555
In0 S1 2.468497 1_555
In0 S4 2.470779 1_655
In0 S12 2.498782 1_555
In0 S8 2.531463 1_555
In1 S0 2.468497 1_545
In1 S5 2.470779 1_555
In1 S13 2.498782 1_555
In1 S9 2.531463 1_555
In2 S3 2.468497 1_555
In2 S6 2.470779 1_455
In2 S14 2.498782 1_555
In2 S10 2.531463 1_555
In3 S2 2.468497 1_565
In3 S7 2.470779 1_555
In3 S15 2.498782 1_555
In3 S11 2.531463 1_555
