# generated using pymatgen
data_Cd2InBiO6
_symmetry_space_group_name_H-M   'P 1'
_cell_length_a   5.97495355
_cell_length_b   5.97495339
_cell_length_c   5.97495350
_cell_angle_alpha   56.18994383
_cell_angle_beta   56.18994485
_cell_angle_gamma   56.18993796
_symmetry_Int_Tables_number   1
_chemical_formula_structural   Cd2InBiO6
_chemical_formula_sum   'Cd2 In1 Bi1 O6'
_cell_volume   137.52834964
_cell_formula_units_Z   1
loop_
 _symmetry_equiv_pos_site_id
 _symmetry_equiv_pos_as_xyz
  1  'x, y, z'
loop_
 _atom_site_type_symbol
 _atom_site_label
 _atom_site_symmetry_multiplicity
 _atom_site_fract_x
 _atom_site_fract_y
 _atom_site_fract_z
 _atom_site_occupancy
  Cd  Cd0  1  0.36385032  0.36385032  0.36385032  1
  Cd  Cd1  1  0.63432803  0.63432803  0.63432803  1
  In  In0  1  0.14838154  0.14838154  0.14838154  1
  Bi  Bi0  1  0.84759140  0.84759140  0.84759140  1
  O  O0  1  0.77117844  0.03978829  0.45413083  1
  O  O1  1  0.03978829  0.45413083  0.77117844  1
  O  O2  1  0.45413083  0.77117844  0.03978829  1
  O  O3  1  0.56039971  0.21810366  0.96181677  1
  O  O4  1  0.96181677  0.56039971  0.21810366  1
  O  O5  1  0.21810366  0.96181677  0.56039971  1
loop_
_geom_bond_atom_site_label_1
_geom_bond_atom_site_label_2
_geom_bond_distance
_geom_bond_site_symmetry_2
Cd0 O0 2.240000 1_555
Cd0 O1 2.240000 1_555
Cd0 O2 2.240000 1_555
Cd0 O4 2.440932 1_455
Cd0 O3 2.440932 1_554
Cd0 O5 2.440932 1_545
Cd1 O5 2.248059 1_555
Cd1 O4 2.248059 1_555
Cd1 O3 2.248059 1_555
Cd1 O1 2.453327 1_655
Cd1 O2 2.453328 1_556
Cd1 O0 2.453328 1_565
In0 O2 2.136364 1_545
In0 O1 2.136364 1_554
In0 O0 2.136364 1_455
In0 O4 2.246574 1_455
In0 O5 2.246574 1_545
In0 O3 2.246574 1_554
Bi0 O3 2.112277 1_565
Bi0 O4 2.112277 1_556
Bi0 O5 2.112278 1_655
Bi0 O1 2.158825 1_655
Bi0 O0 2.158825 1_565
Bi0 O2 2.158825 1_556
