# generated using pymatgen
data_SrBi3(Ru2O7)2
_symmetry_space_group_name_H-M   'P 1'
_cell_length_a   7.29419674
_cell_length_b   7.29411895
_cell_length_c   7.29414512
_cell_angle_alpha   60.42764212
_cell_angle_beta   60.42705278
_cell_angle_gamma   60.42836697
_symmetry_Int_Tables_number   1
_chemical_formula_structural   SrBi3(Ru2O7)2
_chemical_formula_sum   'Sr1 Bi3 Ru4 O14'
_cell_volume   277.06985126
_cell_formula_units_Z   1
loop_
 _symmetry_equiv_pos_site_id
 _symmetry_equiv_pos_as_xyz
  1  'x, y, z'
loop_
 _atom_site_type_symbol
 _atom_site_label
 _atom_site_symmetry_multiplicity
 _atom_site_fract_x
 _atom_site_fract_y
 _atom_site_fract_z
 _atom_site_occupancy
  Sr  Sr0  1  0.50000000  0.50000000  0.50000000  1
  Bi  Bi0  1  0.50000000  0.00000000  0.50000000  1
  Bi  Bi1  1  0.00000000  0.50000000  0.50000000  1
  Bi  Bi2  1  0.50000000  0.50000000  0.00000000  1
  Ru  Ru0  1  0.00000000  0.00000000  0.00000000  1
  Ru  Ru1  1  0.00000000  0.50000000  0.00000000  1
  Ru  Ru2  1  0.50000000  0.00000000  0.00000000  1
  Ru  Ru3  1  0.00000000  0.00000000  0.50000000  1
  O  O0  1  0.63006557  0.63008766  0.63006835  1
  O  O1  1  0.36993443  0.36991234  0.36993165  1
  O  O2  1  0.92432904  0.92429243  0.32378097  1
  O  O3  1  0.32378290  0.92429365  0.92434264  1
  O  O4  1  0.92432357  0.32376366  0.92433627  1
  O  O5  1  0.32534118  0.32532416  0.93352200  1
  O  O6  1  0.93352187  0.32533237  0.32533412  1
  O  O7  1  0.32538773  0.93341667  0.32537268  1
  O  O8  1  0.07567096  0.07570757  0.67621903  1
  O  O9  1  0.67621710  0.07570635  0.07565736  1
  O  O10  1  0.07567643  0.67623634  0.07566373  1
  O  O11  1  0.67465882  0.67467584  0.06647800  1
  O  O12  1  0.06647813  0.67466763  0.67466588  1
  O  O13  1  0.67461227  0.06658333  0.67462732  1
loop_
_geom_bond_atom_site_label_1
_geom_bond_atom_site_label_2
_geom_bond_distance
_geom_bond_site_symmetry_2
Bi0 O1 2.217094 1_555
Bi0 O0 2.217094 1_545
Bi0 O13 2.510582 1_555
Bi0 O7 2.510582 1_545
Bi0 O2 2.573650 1_545
Bi0 O8 2.573650 1_555
Bi0 O3 2.573707 1_545
Bi0 O9 2.573707 1_555
Bi1 O1 2.217237 1_555
Bi1 O0 2.217237 1_455
Bi1 O12 2.510622 1_555
Bi1 O6 2.510622 1_455
Bi1 O2 2.573446 1_455
Bi1 O8 2.573446 1_555
Bi1 O4 2.573705 1_455
Bi1 O10 2.573705 1_555
Bi2 O1 2.217188 1_555
Bi2 O0 2.217188 1_554
Bi2 O11 2.510630 1_555
Bi2 O5 2.510630 1_554
Bi2 O3 2.573477 1_554
Bi2 O9 2.573477 1_555
Bi2 O4 2.573678 1_554
Bi2 O10 2.573678 1_555
O0 Sr0 2.316484 1_555
O1 Sr0 2.316484 1_555
O2 Ru0 1.978414 1_665
O2 Ru3 1.990860 1_665
O3 Ru0 1.978470 1_566
O3 Ru2 1.990771 1_566
O4 Ru0 1.978354 1_656
O4 Ru1 1.990764 1_656
O5 Ru2 1.994801 1_556
O5 Ru1 1.994925 1_556
O5 Sr0 2.625769 1_555
O6 Ru1 1.994843 1_655
O6 Ru3 1.994843 1_655
O6 Sr0 2.625806 1_555
O7 Ru2 1.994958 1_565
O7 Ru3 1.995080 1_565
O7 Sr0 2.625157 1_555
O8 Ru0 1.978414 1_556
O8 Ru3 1.990860 1_555
O9 Ru0 1.978470 1_655
O9 Ru2 1.990771 1_555
O10 Ru0 1.978354 1_565
O10 Ru1 1.990764 1_555
O11 Ru2 1.994801 1_565
O11 Ru1 1.994925 1_655
O11 Sr0 2.625769 1_555
O12 Ru1 1.994843 1_556
O12 Ru3 1.994843 1_565
O12 Sr0 2.625806 1_555
O13 Ru2 1.994958 1_556
O13 Ru3 1.995080 1_655
O13 Sr0 2.625157 1_555
