# generated using pymatgen
data_Ti2Cu3
_symmetry_space_group_name_H-M   'P 1'
_cell_length_a   6.21833884
_cell_length_b   6.21833974
_cell_length_c   14.78026588
_cell_angle_alpha   102.12538514
_cell_angle_beta   102.12538499
_cell_angle_gamma   90.00499166
_symmetry_Int_Tables_number   1
_chemical_formula_structural   Ti2Cu3
_chemical_formula_sum   'Ti16 Cu24'
_cell_volume   545.71850682
_cell_formula_units_Z   8
loop_
 _symmetry_equiv_pos_site_id
 _symmetry_equiv_pos_as_xyz
  1  'x, y, z'
loop_
 _atom_site_type_symbol
 _atom_site_label
 _atom_site_symmetry_multiplicity
 _atom_site_fract_x
 _atom_site_fract_y
 _atom_site_fract_z
 _atom_site_occupancy
  Ti  Ti0_0  1  0.30231188  0.30231188  0.10460110  1
  Ti  Ti0_1  1  0.30231188  0.30231188  0.60460110  1
  Ti  Ti0_2  1  0.30231188  0.80231188  0.10460110  1
  Ti  Ti0_3  1  0.30231188  0.80231188  0.60460110  1
  Ti  Ti0_4  1  0.80231188  0.30231188  0.10460109  1
  Ti  Ti0_5  1  0.80231188  0.30231188  0.60460110  1
  Ti  Ti0_6  1  0.80231188  0.80231188  0.10460110  1
  Ti  Ti0_7  1  0.80231188  0.80231188  0.60460110  1
  Ti  Ti1_0  1  0.19769585  0.19769585  0.39540796  1
  Ti  Ti1_1  1  0.19769585  0.19769585  0.89540796  1
  Ti  Ti1_2  1  0.19769585  0.69769585  0.39540796  1
  Ti  Ti1_3  1  0.19769585  0.69769585  0.89540796  1
  Ti  Ti1_4  1  0.69769585  0.19769585  0.39540796  1
  Ti  Ti1_5  1  0.69769585  0.19769585  0.89540796  1
  Ti  Ti1_6  1  0.69769585  0.69769585  0.39540796  1
  Ti  Ti1_7  1  0.69769585  0.69769585  0.89540796  1
  Cu  Cu0_0  1  0.39710297  0.39710298  0.29423154  1
  Cu  Cu0_1  1  0.39710297  0.39710298  0.79423154  1
  Cu  Cu0_2  1  0.39710297  0.89710298  0.29423154  1
  Cu  Cu0_3  1  0.39710297  0.89710298  0.79423154  1
  Cu  Cu0_4  1  0.89710297  0.39710298  0.29423154  1
  Cu  Cu0_5  1  0.89710297  0.39710298  0.79423154  1
  Cu  Cu0_6  1  0.89710297  0.89710298  0.29423154  1
  Cu  Cu0_7  1  0.89710297  0.89710298  0.79423154  1
  Cu  Cu1_0  1  0.10289648  0.10289648  0.20575892  1
  Cu  Cu1_1  1  0.10289648  0.10289648  0.70575892  1
  Cu  Cu1_2  1  0.10289648  0.60289647  0.20575892  1
  Cu  Cu1_3  1  0.10289648  0.60289648  0.70575892  1
  Cu  Cu1_4  1  0.60289647  0.10289648  0.20575892  1
  Cu  Cu1_5  1  0.60289647  0.10289648  0.70575892  1
  Cu  Cu1_6  1  0.60289647  0.60289647  0.20575892  1
  Cu  Cu1_7  1  0.60289647  0.60289647  0.70575892  1
  Cu  Cu2_0  1  0.99999282  0.99999282  0.00000048  1
  Cu  Cu2_1  1  0.99999282  0.99999282  0.50000048  1
  Cu  Cu2_2  1  0.99999282  0.49999282  0.00000048  1
  Cu  Cu2_3  1  0.99999282  0.49999283  0.50000049  1
  Cu  Cu2_4  1  0.49999282  0.99999282  0.00000048  1
  Cu  Cu2_5  1  0.49999282  0.99999282  0.50000048  1
  Cu  Cu2_6  1  0.49999282  0.49999283  0.00000049  1
  Cu  Cu2_7  1  0.49999282  0.49999282  0.50000049  1
loop_
_geom_bond_atom_site_label_1
_geom_bond_atom_site_label_2
_geom_bond_distance
_geom_bond_site_symmetry_2
Ti0_0 Ti1_1 2.952347 1_554
Ti0_0 Ti0_4 3.109169 1_555
Ti0_0 Ti0_4 3.109169 1_455
Ti0_0 Ti0_2 3.109170 1_545
Ti0_0 Ti0_2 3.109170 1_555
Ti0_1 Ti1_0 2.952347 1_555
Ti0_1 Ti0_5 3.109169 1_555
Ti0_1 Ti0_5 3.109169 1_455
Ti0_1 Ti0_3 3.109170 1_545
Ti0_1 Ti0_3 3.109170 1_555
Ti0_2 Ti1_3 2.952347 1_554
Ti0_2 Ti0_6 3.109169 1_555
Ti0_2 Ti0_6 3.109169 1_455
Ti0_3 Ti1_2 2.952347 1_555
Ti0_3 Ti0_7 3.109169 1_555
Ti0_3 Ti0_7 3.109169 1_455
Ti0_4 Ti1_5 2.952347 1_554
Ti0_4 Ti0_6 3.109170 1_545
Ti0_4 Ti0_6 3.109170 1_555
Ti0_5 Ti1_4 2.952347 1_555
Ti0_5 Ti0_7 3.109170 1_545
Ti0_5 Ti0_7 3.109170 1_555
Ti0_6 Ti1_7 2.952347 1_554
Ti0_7 Ti1_6 2.952347 1_555
Ti1_0 Ti1_4 3.109169 1_455
Ti1_0 Ti1_4 3.109169 1_555
Ti1_0 Ti1_2 3.109170 1_545
Ti1_0 Ti1_2 3.109170 1_555
Ti1_1 Ti1_5 3.109169 1_555
Ti1_1 Ti1_5 3.109169 1_455
Ti1_1 Ti1_3 3.109170 1_545
Ti1_1 Ti1_3 3.109170 1_555
Ti1_2 Ti1_6 3.109169 1_555
Ti1_2 Ti1_6 3.109169 1_455
Ti1_3 Ti1_7 3.109169 1_555
Ti1_3 Ti1_7 3.109169 1_455
Ti1_4 Ti1_6 3.109170 1_555
Ti1_4 Ti1_6 3.109170 1_545
Ti1_5 Ti1_7 3.109170 1_555
Ti1_5 Ti1_7 3.109170 1_545
Cu0_0 Cu1_6 2.528020 1_555
Cu0_0 Cu1_2 2.528424 1_555
Cu0_0 Cu1_4 2.528424 1_555
Cu0_0 Cu1_0 2.528495 1_555
Cu0_0 Ti1_0 2.620894 1_555
Cu0_0 Ti1_4 2.621603 1_555
Cu0_0 Ti1_2 2.621603 1_555
Cu0_0 Ti1_6 2.621990 1_555
Cu0_0 Ti0_0 2.676258 1_555
Cu0_0 Cu2_7 2.904021 1_555
Cu0_1 Cu1_7 2.528020 1_555
Cu0_1 Cu1_3 2.528424 1_555
Cu0_1 Cu1_5 2.528424 1_555
Cu0_1 Cu1_1 2.528495 1_555
Cu0_1 Ti1_1 2.620894 1_555
Cu0_1 Ti1_5 2.621603 1_555
Cu0_1 Ti1_3 2.621603 1_555
Cu0_1 Ti1_7 2.621990 1_555
Cu0_1 Ti0_1 2.676258 1_555
Cu0_1 Cu2_6 2.904021 1_556
Cu0_2 Cu1_4 2.528020 1_565
Cu0_2 Cu1_0 2.528424 1_565
Cu0_2 Cu1_6 2.528424 1_555
Cu0_2 Cu1_2 2.528495 1_555
Cu0_2 Ti1_2 2.620894 1_555
Cu0_2 Ti1_6 2.621603 1_555
Cu0_2 Ti1_0 2.621603 1_565
Cu0_2 Ti1_4 2.621990 1_565
Cu0_2 Ti0_2 2.676258 1_555
Cu0_2 Cu2_5 2.904021 1_555
Cu0_3 Cu1_5 2.528020 1_565
Cu0_3 Cu1_1 2.528424 1_565
Cu0_3 Cu1_7 2.528424 1_555
Cu0_3 Cu1_3 2.528495 1_555
Cu0_3 Ti1_3 2.620894 1_555
Cu0_3 Ti1_7 2.621603 1_555
Cu0_3 Ti1_1 2.621603 1_565
Cu0_3 Ti1_5 2.621990 1_565
Cu0_3 Ti0_3 2.676258 1_555
Cu0_3 Cu2_4 2.904021 1_556
Cu0_4 Cu1_2 2.528020 1_655
Cu0_4 Cu1_6 2.528424 1_555
Cu0_4 Cu1_0 2.528424 1_655
Cu0_4 Cu1_4 2.528495 1_555
Cu0_4 Ti1_4 2.620894 1_555
Cu0_4 Ti1_0 2.621603 1_655
Cu0_4 Ti1_6 2.621603 1_555
Cu0_4 Ti1_2 2.621990 1_655
Cu0_4 Ti0_4 2.676258 1_555
Cu0_4 Cu2_3 2.904021 1_555
Cu0_5 Cu1_3 2.528020 1_655
Cu0_5 Cu1_7 2.528424 1_555
Cu0_5 Cu1_1 2.528424 1_655
Cu0_5 Cu1_5 2.528495 1_555
Cu0_5 Ti1_5 2.620894 1_555
Cu0_5 Ti1_1 2.621603 1_655
Cu0_5 Ti1_7 2.621603 1_555
Cu0_5 Ti1_3 2.621990 1_655
Cu0_5 Ti0_5 2.676258 1_555
Cu0_5 Cu2_2 2.904021 1_556
Cu0_6 Cu1_0 2.528020 1_665
Cu0_6 Cu1_4 2.528424 1_565
Cu0_6 Cu1_2 2.528424 1_655
Cu0_6 Cu1_6 2.528495 1_555
Cu0_6 Ti1_6 2.620894 1_555
Cu0_6 Ti1_2 2.621603 1_655
Cu0_6 Ti1_4 2.621603 1_565
Cu0_6 Ti1_0 2.621990 1_665
Cu0_6 Ti0_6 2.676258 1_555
Cu0_6 Cu2_1 2.904021 1_555
Cu0_7 Cu1_1 2.528020 1_665
Cu0_7 Cu1_5 2.528424 1_565
Cu0_7 Cu1_3 2.528424 1_655
Cu0_7 Cu1_7 2.528495 1_555
Cu0_7 Ti1_7 2.620894 1_555
Cu0_7 Ti1_3 2.621603 1_655
Cu0_7 Ti1_5 2.621603 1_565
Cu0_7 Ti1_1 2.621990 1_665
Cu0_7 Ti0_7 2.676258 1_555
Cu0_7 Cu2_0 2.904021 1_556
Cu1_0 Ti0_0 2.620744 1_555
Cu1_0 Ti0_4 2.621460 1_455
Cu1_0 Ti0_2 2.621460 1_545
Cu1_0 Ti0_6 2.621854 1_445
Cu1_0 Ti1_0 2.676520 1_555
Cu1_0 Cu2_0 2.903873 1_445
Cu1_1 Ti0_1 2.620744 1_555
Cu1_1 Ti0_5 2.621460 1_455
Cu1_1 Ti0_3 2.621460 1_545
Cu1_1 Ti0_7 2.621854 1_445
Cu1_1 Ti1_1 2.676520 1_555
Cu1_1 Cu2_1 2.903873 1_445
Cu1_2 Ti0_2 2.620744 1_555
Cu1_2 Ti0_6 2.621460 1_455
Cu1_2 Ti0_0 2.621460 1_555
Cu1_2 Ti0_4 2.621854 1_455
Cu1_2 Ti1_2 2.676520 1_555
Cu1_2 Cu2_2 2.903873 1_455
Cu1_3 Ti0_3 2.620744 1_555
Cu1_3 Ti0_7 2.621460 1_455
Cu1_3 Ti0_1 2.621460 1_555
Cu1_3 Ti0_5 2.621854 1_455
Cu1_3 Ti1_3 2.676520 1_555
Cu1_3 Cu2_3 2.903873 1_455
Cu1_4 Ti0_4 2.620744 1_555
Cu1_4 Ti0_0 2.621460 1_555
Cu1_4 Ti0_6 2.621460 1_545
Cu1_4 Ti0_2 2.621854 1_545
Cu1_4 Ti1_4 2.676520 1_555
Cu1_4 Cu2_4 2.903873 1_545
Cu1_5 Ti0_5 2.620744 1_555
Cu1_5 Ti0_1 2.621460 1_555
Cu1_5 Ti0_7 2.621460 1_545
Cu1_5 Ti0_3 2.621854 1_545
Cu1_5 Ti1_5 2.676520 1_555
Cu1_5 Cu2_5 2.903873 1_545
Cu1_6 Ti0_6 2.620744 1_555
Cu1_6 Ti0_2 2.621460 1_555
Cu1_6 Ti0_4 2.621460 1_555
Cu1_6 Ti0_0 2.621854 1_555
Cu1_6 Ti1_6 2.676520 1_555
Cu1_6 Cu2_6 2.903873 1_555
Cu1_7 Ti0_7 2.620744 1_555
Cu1_7 Ti0_3 2.621460 1_555
Cu1_7 Ti0_5 2.621460 1_555
Cu1_7 Ti0_1 2.621854 1_555
Cu1_7 Ti1_7 2.676520 1_555
Cu1_7 Cu2_7 2.903873 1_555
Cu2_0 Ti0_6 2.647413 1_555
Cu2_0 Ti1_1 2.647481 1_664
Cu2_0 Ti1_5 2.648171 1_564
Cu2_0 Ti1_3 2.648171 1_654
Cu2_0 Ti0_2 2.648234 1_655
Cu2_0 Ti0_4 2.648234 1_565
Cu2_0 Ti1_7 2.648542 1_554
Cu2_0 Ti0_0 2.648738 1_665
Cu2_1 Ti0_7 2.647413 1_555
Cu2_1 Ti1_0 2.647481 1_665
Cu2_1 Ti1_4 2.648171 1_565
Cu2_1 Ti1_2 2.648171 1_655
Cu2_1 Ti0_3 2.648234 1_655
Cu2_1 Ti0_5 2.648234 1_565
Cu2_1 Ti1_6 2.648542 1_555
Cu2_1 Ti0_1 2.648738 1_665
Cu2_2 Ti0_4 2.647413 1_555
Cu2_2 Ti1_3 2.647481 1_654
Cu2_2 Ti1_7 2.648171 1_554
Cu2_2 Ti1_1 2.648171 1_654
Cu2_2 Ti0_0 2.648234 1_655
Cu2_2 Ti0_6 2.648234 1_555
Cu2_2 Ti1_5 2.648542 1_554
Cu2_2 Ti0_2 2.648738 1_655
Cu2_3 Ti0_5 2.647413 1_555
Cu2_3 Ti1_2 2.647481 1_655
Cu2_3 Ti1_6 2.648171 1_555
Cu2_3 Ti1_0 2.648171 1_655
Cu2_3 Ti0_1 2.648234 1_655
Cu2_3 Ti0_7 2.648234 1_555
Cu2_3 Ti1_4 2.648542 1_555
Cu2_3 Ti0_3 2.648738 1_655
Cu2_4 Ti0_2 2.647413 1_555
Cu2_4 Ti1_5 2.647481 1_564
Cu2_4 Ti1_1 2.648171 1_564
Cu2_4 Ti1_7 2.648171 1_554
Cu2_4 Ti0_6 2.648234 1_555
Cu2_4 Ti0_0 2.648234 1_565
Cu2_4 Ti1_3 2.648542 1_554
Cu2_4 Ti0_4 2.648738 1_565
Cu2_5 Ti0_3 2.647413 1_555
Cu2_5 Ti1_4 2.647481 1_565
Cu2_5 Ti1_0 2.648171 1_565
Cu2_5 Ti1_6 2.648171 1_555
Cu2_5 Ti0_7 2.648234 1_555
Cu2_5 Ti0_1 2.648234 1_565
Cu2_5 Ti1_2 2.648542 1_555
Cu2_5 Ti0_5 2.648738 1_565
Cu2_6 Ti0_0 2.647413 1_555
Cu2_6 Ti1_7 2.647481 1_554
Cu2_6 Ti1_3 2.648171 1_554
Cu2_6 Ti1_5 2.648171 1_554
Cu2_6 Ti0_4 2.648234 1_555
Cu2_6 Ti0_2 2.648234 1_555
Cu2_6 Ti1_1 2.648542 1_554
Cu2_6 Ti0_6 2.648738 1_555
Cu2_7 Ti0_1 2.647413 1_555
Cu2_7 Ti1_6 2.647481 1_555
Cu2_7 Ti1_2 2.648171 1_555
Cu2_7 Ti1_4 2.648171 1_555
Cu2_7 Ti0_5 2.648234 1_555
Cu2_7 Ti0_3 2.648234 1_555
Cu2_7 Ti1_0 2.648542 1_555
Cu2_7 Ti0_7 2.648738 1_555
