# generated using pymatgen
data_Ti9In14Co6Re
_symmetry_space_group_name_H-M   'P 1'
_cell_length_a   9.12153261
_cell_length_b   9.12153336
_cell_length_c   9.12153273
_cell_angle_alpha   60.00000226
_cell_angle_beta   59.99999953
_cell_angle_gamma   60.00000650
_symmetry_Int_Tables_number   1
_chemical_formula_structural   Ti9In14Co6Re
_chemical_formula_sum   'Ti9 In14 Co6 Re1'
_cell_volume   536.64676536
_cell_formula_units_Z   1
loop_
 _symmetry_equiv_pos_site_id
 _symmetry_equiv_pos_as_xyz
  1  'x, y, z'
loop_
 _atom_site_type_symbol
 _atom_site_label
 _atom_site_symmetry_multiplicity
 _atom_site_fract_x
 _atom_site_fract_y
 _atom_site_fract_z
 _atom_site_occupancy
  Ti  Ti0  1  0.11819435  0.64541596  0.11819435  1
  Ti  Ti1  1  0.35458404  0.88180565  0.88180565  1
  Ti  Ti2  1  0.88180565  0.88180565  0.88180565  1
  Ti  Ti3  1  0.64541596  0.11819435  0.11819435  1
  Ti  Ti4  1  0.50000000  0.50000000  0.50000000  1
  Ti  Ti5  1  0.88180565  0.88180565  0.35458404  1
  Ti  Ti6  1  0.11819435  0.11819435  0.11819435  1
  Ti  Ti7  1  0.88180565  0.35458404  0.88180565  1
  Ti  Ti8  1  0.11819435  0.11819435  0.64541596  1
  In  In0  1  0.50000000  0.84292499  0.15707501  1
  In  In1  1  0.50000000  0.84292499  0.50000000  1
  In  In2  1  0.50000000  0.15707501  0.50000000  1
  In  In3  1  0.50000000  0.50000000  0.84292499  1
  In  In4  1  0.15707501  0.50000000  0.50000000  1
  In  In5  1  0.84292499  0.15707501  0.50000000  1
  In  In6  1  0.15707501  0.84292499  0.50000000  1
  In  In7  1  0.50000000  0.15707501  0.84292499  1
  In  In8  1  0.15707501  0.50000000  0.84292499  1
  In  In9  1  0.50000000  0.50000000  0.15707501  1
  In  In10  1  0.84292499  0.50000000  0.50000000  1
  In  In11  1  0.84292499  0.50000000  0.15707501  1
  In  In12  1  0.25000000  0.25000000  0.25000000  1
  In  In13  1  0.75000000  0.75000000  0.75000000  1
  Co  Co0  1  0.78422780  0.78422780  0.21577220  1
  Co  Co1  1  0.21577220  0.78422780  0.21577220  1
  Co  Co2  1  0.21577220  0.78422780  0.78422780  1
  Co  Co3  1  0.21577220  0.21577220  0.78422780  1
  Co  Co4  1  0.78422780  0.21577220  0.78422780  1
  Co  Co5  1  0.78422780  0.21577220  0.21577220  1
  Re  Re0  1  0.00000000  0.00000000  0.00000000  1
loop_
_geom_bond_atom_site_label_1
_geom_bond_atom_site_label_2
_geom_bond_distance
_geom_bond_site_symmetry_2
In0 In7 2.865530 1_564
In0 In6 3.128001 1_555
In0 In1 3.128001 1_555
In0 In9 3.128002 1_555
In0 Ti4 3.128002 1_555
In0 In11 3.128002 1_555
In0 Ti1 3.187356 1_554
In0 Ti3 3.187356 1_565
In0 Ti2 3.187363 1_554
In0 Ti6 3.187363 1_565
In1 In2 2.865530 1_565
In1 In6 3.128001 1_555
In1 In3 3.128002 1_555
In1 Ti4 3.128002 1_555
In1 In10 3.128002 1_555
In1 Ti3 3.187360 1_565
In1 Ti8 3.187361 1_565
In1 Ti5 3.187364 1_555
In1 Ti1 3.187364 1_555
In2 In5 3.128001 1_555
In2 In7 3.128001 1_555
In2 In9 3.128002 1_555
In2 Ti4 3.128002 1_555
In2 In4 3.128002 1_555
In2 Ti1 3.187360 1_545
In2 Ti5 3.187361 1_545
In2 Ti8 3.187364 1_555
In2 Ti3 3.187364 1_555
In3 In9 2.865530 1_556
In3 In8 3.128001 1_555
In3 Ti4 3.128001 1_555
In3 In7 3.128002 1_555
In3 Ti0 3.187360 1_556
In3 Ti3 3.187361 1_556
In3 Ti7 3.187365 1_555
In3 Ti1 3.187365 1_555
In4 In9 3.128001 1_555
In4 Ti4 3.128001 1_555
In4 In8 3.128001 1_555
In4 In6 3.128002 1_555
In4 Ti7 3.187360 1_455
In4 Ti5 3.187361 1_455
In4 Ti0 3.187365 1_555
In4 Ti8 3.187365 1_555
In5 In6 2.865530 1_645
In5 In7 3.128001 1_555
In5 Ti4 3.128002 1_555
In5 Ti8 3.187356 1_655
In5 Ti5 3.187356 1_545
In5 Ti6 3.187363 1_655
In5 Ti2 3.187363 1_545
In6 In8 3.128002 1_555
In6 Ti4 3.128002 1_555
In6 Ti5 3.187356 1_455
In6 Ti8 3.187356 1_565
In6 Ti2 3.187363 1_455
In6 Ti6 3.187363 1_565
In7 Ti4 3.128002 1_555
In7 In8 3.128002 1_555
In7 Ti3 3.187356 1_556
In7 Ti1 3.187356 1_545
In7 Ti6 3.187363 1_556
In7 Ti2 3.187363 1_545
In8 Ti4 3.128001 1_555
In8 Ti7 3.187356 1_455
In8 Ti0 3.187356 1_556
In8 Ti6 3.187363 1_556
In8 Ti2 3.187363 1_455
In9 Ti4 3.128001 1_555
In9 Ti7 3.187360 1_554
In9 Ti1 3.187361 1_554
In9 Ti0 3.187365 1_555
In9 Ti3 3.187365 1_555
In10 In4 2.865530 1_655
In10 In3 3.128001 1_555
In10 Ti4 3.128001 1_555
In10 In11 3.128001 1_555
In10 In5 3.128002 1_555
In10 Ti0 3.187360 1_655
In10 Ti8 3.187361 1_655
In10 Ti7 3.187365 1_555
In10 Ti5 3.187365 1_555
In11 In8 2.865530 1_654
In11 Ti4 3.128001 1_555
In11 In9 3.128001 1_555
In11 In5 3.128002 1_555
In11 Ti0 3.187356 1_655
In11 Ti7 3.187356 1_554
In11 Ti2 3.187363 1_554
In11 Ti6 3.187363 1_655
In12 Ti8 2.944940 1_555
In12 Ti3 2.944940 1_555
In12 Ti0 2.944940 1_555
In12 Ti6 2.944947 1_555
In13 Ti5 2.944940 1_555
In13 Ti1 2.944940 1_555
In13 Ti7 2.944940 1_555
In13 Ti2 2.944947 1_555
Co0 Ti2 2.496743 1_554
Co0 Ti0 2.496744 1_655
Co0 Ti3 2.496744 1_565
Co0 Ti5 2.496751 1_555
Co0 In1 2.647301 1_555
Co0 In0 2.647301 1_555
Co0 In11 2.647301 1_555
Co0 In10 2.647301 1_555
Co0 Re0 2.783417 1_665
Co1 Ti6 2.496744 1_565
Co1 Ti1 2.496744 1_554
Co1 Ti5 2.496744 1_455
Co1 Ti0 2.496751 1_555
Co1 In0 2.647301 1_555
Co1 In6 2.647301 1_555
Co1 In4 2.647301 1_555
Co1 In9 2.647301 1_555
Co1 Re0 2.783417 1_565
Co2 Ti2 2.496744 1_455
Co2 Ti0 2.496744 1_556
Co2 Ti8 2.496744 1_565
Co2 Ti1 2.496751 1_555
Co2 In1 2.647301 1_555
Co2 In6 2.647301 1_555
Co2 In8 2.647301 1_555
Co2 In3 2.647301 1_555
Co2 Re0 2.783417 1_566
Co3 Ti6 2.496743 1_556
Co3 Ti7 2.496744 1_455
Co3 Ti1 2.496744 1_545
Co3 Ti8 2.496751 1_555
Co3 In2 2.647301 1_555
Co3 In7 2.647301 1_555
Co3 In8 2.647301 1_555
Co3 In4 2.647301 1_555
Co3 Re0 2.783417 1_556
Co4 Ti2 2.496744 1_545
Co4 Ti3 2.496744 1_556
Co4 Ti8 2.496744 1_655
Co4 Ti7 2.496751 1_555
Co4 In7 2.647301 1_555
Co4 In5 2.647301 1_555
Co4 In10 2.647301 1_555
Co4 In3 2.647301 1_555
Co4 Re0 2.783417 1_656
Co5 Ti6 2.496744 1_655
Co5 Ti7 2.496744 1_554
Co5 Ti5 2.496744 1_545
Co5 Ti3 2.496751 1_555
Co5 In2 2.647301 1_555
Co5 In5 2.647301 1_555
Co5 In11 2.647301 1_555
Co5 In9 2.647301 1_555
Co5 Re0 2.783417 1_655
Re0 Ti6 2.640828 1_555
Re0 Ti2 2.640828 1_444
Re0 Ti5 2.640836 1_445
Re0 Ti8 2.640836 1_554
Re0 Ti1 2.640836 1_544
Re0 Ti3 2.640836 1_455
Re0 Ti7 2.640836 1_454
Re0 Ti0 2.640836 1_545
