# generated using pymatgen
data_LuZrAlSi2
_symmetry_space_group_name_H-M   'P 1'
_cell_length_a   5.33053023
_cell_length_b   5.33053014
_cell_length_c   5.33052997
_cell_angle_alpha   137.09274918
_cell_angle_beta   115.96868195
_cell_angle_gamma   80.19260608
_symmetry_Int_Tables_number   1
_chemical_formula_structural   LuZrAlSi2
_chemical_formula_sum   'Lu1 Zr1 Al1 Si2'
_cell_volume   89.86554339
_cell_formula_units_Z   1
loop_
 _symmetry_equiv_pos_site_id
 _symmetry_equiv_pos_as_xyz
  1  'x, y, z'
loop_
 _atom_site_type_symbol
 _atom_site_label
 _atom_site_symmetry_multiplicity
 _atom_site_fract_x
 _atom_site_fract_y
 _atom_site_fract_z
 _atom_site_occupancy
  Lu  Lu0  1  0.28961872  0.78961872  0.50000000  1
  Zr  Zr0  1  0.71172657  0.21172657  0.50000000  1
  Al  Al0  1  0.99617576  0.99617576  1.00000000  1
  Si  Si0  1  0.29075392  0.50123948  0.78951444  1
  Si  Si1  1  0.71172504  0.50123948  0.21048556  1
loop_
_geom_bond_atom_site_label_1
_geom_bond_atom_site_label_2
_geom_bond_distance
_geom_bond_site_symmetry_2
Lu0 Si1 2.862665 1_555
Lu0 Si0 2.862665 1_554
Lu0 Si0 2.862665 1_565
Lu0 Si1 2.862665 1_566
Lu0 Si0 2.865073 1_555
Lu0 Si1 2.865073 1_455
Al0 Si0 2.545650 1_655
Al0 Si1 2.545650 1_566
Al0 Si1 2.545650 1_555
Al0 Si0 2.545650 1_666
Al0 Zr0 3.030249 1_566
Al0 Zr0 3.030249 1_555
Si0 Si1 2.379317 1_556
Si0 Zr0 2.857101 1_555
Si0 Zr0 2.857101 1_566
Si0 Zr0 2.872667 1_455
Si1 Zr0 2.857101 1_554
Si1 Zr0 2.857101 1_565
Si1 Zr0 2.872667 1_555
