# generated using pymatgen
data_Cs6PbSe4
_symmetry_space_group_name_H-M   'P 1'
_cell_length_a   11.57533735
_cell_length_b   11.57533700
_cell_length_c   8.60316247
_cell_angle_alpha   90.00000000
_cell_angle_beta   90.00000000
_cell_angle_gamma   120.00000100
_symmetry_Int_Tables_number   1
_chemical_formula_structural   Cs6PbSe4
_chemical_formula_sum   'Cs12 Pb2 Se8'
_cell_volume   998.28846374
_cell_formula_units_Z   2
loop_
 _symmetry_equiv_pos_site_id
 _symmetry_equiv_pos_as_xyz
  1  'x, y, z'
loop_
 _atom_site_type_symbol
 _atom_site_label
 _atom_site_symmetry_multiplicity
 _atom_site_fract_x
 _atom_site_fract_y
 _atom_site_fract_z
 _atom_site_occupancy
  Cs  Cs0  1  0.14841159  0.29682318  0.19946846  1
  Cs  Cs1  1  0.14841159  0.85158841  0.19946846  1
  Cs  Cs2  1  0.70317682  0.85158841  0.19946846  1
  Cs  Cs3  1  0.85158841  0.70317682  0.69946846  1
  Cs  Cs4  1  0.85158841  0.14841159  0.69946846  1
  Cs  Cs5  1  0.29682318  0.14841159  0.69946846  1
  Cs  Cs6  1  0.52766901  0.05533803  0.38069314  1
  Cs  Cs7  1  0.52766901  0.47233099  0.38069314  1
  Cs  Cs8  1  0.94466197  0.47233099  0.38069314  1
  Cs  Cs9  1  0.47233099  0.94466197  0.88069314  1
  Cs  Cs10  1  0.47233099  0.52766901  0.88069314  1
  Cs  Cs11  1  0.05533803  0.52766901  0.88069314  1
  Pb  Pb0  1  0.33333300  0.66666700  0.50213417  1
  Pb  Pb1  1  0.66666700  0.33333300  0.00213417  1
  Se  Se0  1  0.33333300  0.66666700  0.16100892  1
  Se  Se1  1  0.66666700  0.33333300  0.66100892  1
  Se  Se2  1  0.80896508  0.61793117  0.10542971  1
  Se  Se3  1  0.80896508  0.19103492  0.10542971  1
  Se  Se4  1  0.38206883  0.19103492  0.10542971  1
  Se  Se5  1  0.19103492  0.38206883  0.60542971  1
  Se  Se6  1  0.19103492  0.80896508  0.60542971  1
  Se  Se7  1  0.61793117  0.80896508  0.60542971  1
loop_
_geom_bond_atom_site_label_1
_geom_bond_atom_site_label_2
_geom_bond_distance
_geom_bond_site_symmetry_2
Cs0 Se4 3.575075 1_555
Cs0 Se3 3.575086 1_455
Cs0 Se5 3.595575 1_555
Cs0 Se0 3.722248 1_555
Cs1 Se4 3.575083 1_565
Cs1 Se2 3.575083 1_455
Cs1 Se6 3.595578 1_555
Cs1 Se0 3.722238 1_555
Cs2 Se2 3.575075 1_555
Cs2 Se3 3.575086 1_565
Cs2 Se7 3.595575 1_555
Cs2 Se0 3.722248 1_555
Cs3 Se7 3.575075 1_555
Cs3 Se6 3.575086 1_655
Cs3 Se2 3.595575 1_556
Cs3 Se1 3.722248 1_555
Cs4 Se7 3.575083 1_545
Cs4 Se5 3.575083 1_655
Cs4 Se3 3.595578 1_556
Cs4 Se1 3.722238 1_555
Cs5 Se5 3.575075 1_555
Cs5 Se6 3.575086 1_545
Cs5 Se4 3.595575 1_556
Cs5 Se1 3.722248 1_555
Cs6 Se3 3.682795 1_555
Cs6 Se4 3.682803 1_555
Cs6 Se1 3.685365 1_555
Cs6 Se6 3.992805 1_545
Cs6 Se7 3.992812 1_545
Cs7 Se4 3.682795 1_555
Cs7 Se2 3.682795 1_555
Cs7 Se1 3.685373 1_555
Cs7 Se7 3.992803 1_555
Cs7 Se5 3.992803 1_555
Cs8 Se3 3.682795 1_555
Cs8 Se2 3.682803 1_555
Cs8 Se1 3.685365 1_555
Cs8 Se6 3.992805 1_655
Cs8 Se5 3.992812 1_655
Cs9 Se6 3.682795 1_555
Cs9 Se7 3.682803 1_555
Cs9 Se0 3.685365 1_556
Cs9 Se3 3.992805 1_566
Cs9 Se4 3.992812 1_566
Cs10 Se7 3.682795 1_555
Cs10 Se5 3.682795 1_555
Cs10 Se0 3.685373 1_556
Cs10 Se4 3.992803 1_556
Cs10 Se2 3.992803 1_556
Cs11 Se6 3.682795 1_555
Cs11 Se5 3.682803 1_555
Cs11 Se0 3.685365 1_556
Cs11 Se3 3.992805 1_456
Cs11 Se2 3.992812 1_456
Pb0 Se0 2.934756 1_555
Pb0 Se6 2.988147 1_555
Pb0 Se5 2.988166 1_555
Pb0 Se7 2.988166 1_555
Pb1 Se1 2.934756 1_554
Pb1 Se3 2.988147 1_555
Pb1 Se2 2.988166 1_555
Pb1 Se4 2.988166 1_555
