# generated using pymatgen
data_Hf12Zn11IrO2
_symmetry_space_group_name_H-M   'P 1'
_cell_length_a   8.42577492
_cell_length_b   8.38123308
_cell_length_c   8.42577486
_cell_angle_alpha   59.82403876
_cell_angle_beta   59.99999642
_cell_angle_gamma   59.82403552
_symmetry_Int_Tables_number   1
_chemical_formula_structural   Hf12Zn11IrO2
_chemical_formula_sum   'Hf12 Zn11 Ir1 O2'
_cell_volume   419.61634326
_cell_formula_units_Z   1
loop_
 _symmetry_equiv_pos_site_id
 _symmetry_equiv_pos_as_xyz
  1  'x, y, z'
loop_
 _atom_site_type_symbol
 _atom_site_label
 _atom_site_symmetry_multiplicity
 _atom_site_fract_x
 _atom_site_fract_y
 _atom_site_fract_z
 _atom_site_occupancy
  Hf  Hf0  1  0.19276402  0.80847037  0.19276402  1
  Hf  Hf1  1  0.44120395  0.05999790  0.44120395  1
  Hf  Hf2  1  0.44120395  0.05999790  0.05759421  1
  Hf  Hf3  1  0.44493467  0.44584542  0.05460995  1
  Hf  Hf4  1  0.19276402  0.80847037  0.80600059  1
  Hf  Hf5  1  0.05460995  0.44584542  0.05460995  1
  Hf  Hf6  1  0.80600059  0.80847037  0.19276402  1
  Hf  Hf7  1  0.05460995  0.44584542  0.44493467  1
  Hf  Hf8  1  0.19367264  0.19567184  0.80532726  1
  Hf  Hf9  1  0.80532726  0.19567184  0.19367264  1
  Hf  Hf10  1  0.80532726  0.19567184  0.80532726  1
  Hf  Hf11  1  0.05759421  0.05999790  0.44120395  1
  Zn  Zn0  1  0.41712335  0.41811282  0.74764048  1
  Zn  Zn1  1  0.74764048  0.41811282  0.41712335  1
  Zn  Zn2  1  0.41712335  0.41811282  0.41712335  1
  Zn  Zn3  1  0.83178349  0.83035376  0.50607925  1
  Zn  Zn4  1  0.41734303  0.74797092  0.41734303  1
  Zn  Zn5  1  0.83178349  0.83035376  0.83178349  1
  Zn  Zn6  1  0.50607925  0.83035376  0.83178349  1
  Zn  Zn7  1  0.62430472  0.12708684  0.62430472  1
  Zn  Zn8  1  0.62255666  0.62949415  0.12539252  1
  Zn  Zn9  1  0.12539252  0.62949415  0.62255666  1
  Zn  Zn10  1  0.62255666  0.62949415  0.62255666  1
  Ir  Ir0  1  0.84312575  0.47062175  0.84312575  1
  O  O0  1  0.00338704  0.98983889  0.00338704  1
  O  O1  1  0.24978473  0.25064482  0.24978473  1
loop_
_geom_bond_atom_site_label_1
_geom_bond_atom_site_label_2
_geom_bond_distance
_geom_bond_site_symmetry_2
Hf0 O0 2.252135 1_555
Hf0 Zn3 2.854876 1_455
Hf0 Zn6 2.854876 1_554
Hf0 Zn2 2.998236 1_555
Hf0 Zn8 3.004291 1_555
Hf0 Zn9 3.004291 1_555
Hf0 Zn4 3.011610 1_555
Hf1 O1 2.274959 1_555
Hf1 Zn2 2.812068 1_555
Hf1 Zn4 2.831521 1_545
Hf1 Zn10 2.989661 1_545
Hf1 Zn7 3.033270 1_555
Hf1 Zn3 3.034308 1_545
Hf1 Zn6 3.034308 1_545
Hf2 O1 2.274953 1_555
Hf2 Zn0 2.812068 1_554
Hf2 Zn4 2.831521 1_545
Hf2 Zn8 2.989661 1_545
Hf2 Zn7 3.033262 1_554
Hf2 Zn5 3.034308 1_544
Hf2 Zn6 3.034308 1_544
Hf3 O1 2.319538 1_555
Hf3 Zn2 2.839702 1_555
Hf3 Zn0 2.839702 1_554
Hf3 Zn6 2.965649 1_554
Hf3 Ir0 2.970655 1_554
Hf3 Zn10 3.015941 1_554
Hf3 Zn8 3.015941 1_555
Hf4 O0 2.252141 1_556
Hf4 Zn5 2.854873 1_455
Hf4 Zn6 2.854881 1_555
Hf4 Zn0 2.998233 1_555
Hf4 Zn9 3.004284 1_555
Hf4 Zn10 3.004290 1_555
Hf4 Zn4 3.011603 1_555
Hf5 O1 2.319532 1_555
Hf5 Zn0 2.839702 1_554
Hf5 Zn1 2.839702 1_455
Hf5 Zn5 2.965648 1_454
Hf5 Ir0 2.970662 1_454
Hf5 Zn8 3.015941 1_455
Hf5 Zn9 3.015941 1_554
Hf6 O0 2.252141 1_655
Hf6 Zn5 2.854873 1_554
Hf6 Zn3 2.854881 1_555
Hf6 Zn1 2.998233 1_555
Hf6 Zn8 3.004284 1_555
Hf6 Zn10 3.004290 1_555
Hf6 Zn4 3.011603 1_555
Hf7 O1 2.319538 1_555
Hf7 Zn2 2.839702 1_555
Hf7 Zn1 2.839702 1_455
Hf7 Zn3 2.965649 1_455
Hf7 Ir0 2.970655 1_455
Hf7 Zn10 3.015941 1_455
Hf7 Zn9 3.015941 1_555
Hf8 O0 2.354226 1_546
Hf8 Ir0 2.662756 1_455
Hf8 Zn6 2.855085 1_545
Hf8 Zn2 2.993207 1_555
Hf8 Zn0 2.993211 1_555
Hf8 Zn7 3.012068 1_555
Hf8 Zn9 3.012762 1_555
Hf9 O0 2.354226 1_645
Hf9 Ir0 2.662756 1_554
Hf9 Zn3 2.855085 1_545
Hf9 Zn2 2.993207 1_555
Hf9 Zn1 2.993211 1_555
Hf9 Zn7 3.012068 1_555
Hf9 Zn8 3.012762 1_555
Hf10 O0 2.354232 1_646
Hf10 Ir0 2.662756 1_555
Hf10 Zn5 2.855081 1_545
Hf10 Zn0 2.993204 1_555
Hf10 Zn1 2.993204 1_555
Hf10 Zn7 3.012054 1_555
Hf10 Zn10 3.012760 1_555
Hf11 O1 2.274953 1_555
Hf11 Zn1 2.812068 1_455
Hf11 Zn4 2.831520 1_545
Hf11 Zn9 2.989661 1_545
Hf11 Zn7 3.033262 1_455
Hf11 Zn5 3.034308 1_445
Hf11 Zn3 3.034308 1_445
Zn0 Zn7 2.555452 1_555
Zn0 Zn9 2.574315 1_555
Zn0 Zn10 2.574315 1_555
Zn0 Zn4 2.766479 1_555
Zn0 Zn1 2.784863 1_555
Zn0 Zn2 2.784863 1_555
Zn1 Zn7 2.555452 1_555
Zn1 Zn8 2.574315 1_555
Zn1 Zn10 2.574315 1_555
Zn1 Zn4 2.766479 1_555
Zn1 Zn2 2.784863 1_555
Zn2 Zn7 2.555456 1_555
Zn2 Zn9 2.574315 1_555
Zn2 Zn8 2.574315 1_555
Zn2 Zn4 2.766480 1_555
Zn3 Zn9 2.549008 1_655
Zn3 Zn7 2.571353 1_565
Zn3 Zn6 2.744310 1_555
Zn3 Zn5 2.744311 1_555
Zn4 Zn8 2.550110 1_555
Zn4 Zn9 2.550110 1_555
Zn5 Zn9 2.549008 1_655
Zn5 Zn8 2.549008 1_556
Zn5 Zn7 2.571349 1_565
Zn5 Zn6 2.744311 1_555
Zn6 Zn8 2.549008 1_556
Zn6 Zn7 2.571354 1_565
Zn10 Zn6 2.549008 1_555
Zn10 Zn3 2.549008 1_555
Zn10 Zn4 2.550110 1_555
Ir0 Zn10 2.675655 1_555
Ir0 Zn8 2.675661 1_556
Ir0 Zn9 2.675661 1_655
Ir0 Zn6 2.922029 1_555
Ir0 Zn3 2.922029 1_555
Ir0 Zn5 2.922033 1_555
