# generated using pymatgen
data_Lu(TaSn)6
_symmetry_space_group_name_H-M   'P 1'
_cell_length_a   5.73737753
_cell_length_b   5.73737868
_cell_length_c   9.59205172
_cell_angle_alpha   90.00000000
_cell_angle_beta   90.00000000
_cell_angle_gamma   120.00001030
_symmetry_Int_Tables_number   1
_chemical_formula_structural   Lu(TaSn)6
_chemical_formula_sum   'Lu1 Ta6 Sn6'
_cell_volume   273.44440547
_cell_formula_units_Z   1
loop_
 _symmetry_equiv_pos_site_id
 _symmetry_equiv_pos_as_xyz
  1  'x, y, z'
loop_
 _atom_site_type_symbol
 _atom_site_label
 _atom_site_symmetry_multiplicity
 _atom_site_fract_x
 _atom_site_fract_y
 _atom_site_fract_z
 _atom_site_occupancy
  Lu  Lu0  1  0.00000000  0.00000000  0.00000000  1
  Ta  Ta0  1  0.50000000  0.50000000  0.75130332  1
  Ta  Ta1  1  0.50000000  0.00000000  0.75130332  1
  Ta  Ta2  1  0.00000000  0.50000000  0.75130332  1
  Ta  Ta3  1  0.50000000  0.50000000  0.24869668  1
  Ta  Ta4  1  0.50000000  0.00000000  0.24869668  1
  Ta  Ta5  1  0.00000000  0.50000000  0.24869668  1
  Sn  Sn0  1  0.66666700  0.33333300  0.00000000  1
  Sn  Sn1  1  0.33333300  0.66666700  0.00000000  1
  Sn  Sn2  1  0.66666700  0.33333300  0.50000000  1
  Sn  Sn3  1  0.33333300  0.66666700  0.50000000  1
  Sn  Sn4  1  0.00000000  0.00000000  0.67432516  1
  Sn  Sn5  1  0.00000000  0.00000000  0.32567484  1
loop_
_geom_bond_atom_site_label_1
_geom_bond_atom_site_label_2
_geom_bond_distance
_geom_bond_site_symmetry_2
Lu0 Sn5 3.123890 1_555
Lu0 Sn4 3.123890 1_554
Lu0 Sn1 3.312474 1_545
Lu0 Sn0 3.312474 1_455
Lu0 Sn0 3.312478 1_555
Lu0 Sn1 3.312478 1_445
Lu0 Sn1 3.312478 1_555
Lu0 Sn0 3.312478 1_445
Sn0 Ta5 2.904098 1_655
Sn0 Ta2 2.904098 1_654
Sn0 Ta4 2.904098 1_555
Sn0 Ta1 2.904098 1_554
Sn0 Ta3 2.904101 1_555
Sn0 Ta0 2.904101 1_554
Sn1 Ta5 2.904098 1_555
Sn1 Ta2 2.904098 1_554
Sn1 Ta4 2.904098 1_565
Sn1 Ta1 2.904098 1_564
Sn1 Ta3 2.904101 1_555
Sn1 Ta0 2.904101 1_554
Sn2 Ta2 2.924671 1_655
Sn2 Ta5 2.924671 1_655
Sn2 Ta1 2.924671 1_555
Sn2 Ta4 2.924671 1_555
Sn2 Ta0 2.924674 1_555
Sn2 Ta3 2.924674 1_555
Sn3 Ta2 2.924671 1_555
Sn3 Ta5 2.924671 1_555
Sn3 Ta1 2.924671 1_565
Sn3 Ta4 2.924671 1_565
Sn3 Ta0 2.924674 1_555
Sn3 Ta3 2.924674 1_555
Sn4 Ta0 2.962191 1_555
Sn4 Ta0 2.962191 1_445
Sn4 Ta1 2.962191 1_555
Sn4 Ta1 2.962191 1_455
Sn4 Ta2 2.962192 1_545
Sn4 Ta2 2.962192 1_555
Sn5 Ta3 2.962191 1_445
Sn5 Ta3 2.962191 1_555
Sn5 Ta4 2.962191 1_455
Sn5 Ta4 2.962191 1_555
Sn5 Ta5 2.962192 1_555
Sn5 Ta5 2.962192 1_545
