# generated using pymatgen
data_Sr8Sb4H2O
_symmetry_space_group_name_H-M   'P 1'
_cell_length_a   4.93256922
_cell_length_b   4.93256919
_cell_length_c   18.26157740
_cell_angle_alpha   97.76169322
_cell_angle_beta   97.76169454
_cell_angle_gamma   90.00000292
_symmetry_Int_Tables_number   1
_chemical_formula_structural   Sr8Sb4H2O
_chemical_formula_sum   'Sr8 Sb4 H2 O1'
_cell_volume   436.12935596
_cell_formula_units_Z   1
loop_
 _symmetry_equiv_pos_site_id
 _symmetry_equiv_pos_as_xyz
  1  'x, y, z'
loop_
 _atom_site_type_symbol
 _atom_site_label
 _atom_site_symmetry_multiplicity
 _atom_site_fract_x
 _atom_site_fract_y
 _atom_site_fract_z
 _atom_site_occupancy
  Sr  Sr0  1  0.50000000  0.00000000  0.00000000  1
  Sr  Sr1  1  0.00000000  0.50000000  0.00000000  1
  Sr  Sr2  1  0.08353507  0.08353507  0.16707114  1
  Sr  Sr3  1  0.66006261  0.66006261  0.32012621  1
  Sr  Sr4  1  0.75000000  0.25000000  0.50000000  1
  Sr  Sr5  1  0.25000000  0.75000000  0.50000000  1
  Sr  Sr6  1  0.33993639  0.33993639  0.67987379  1
  Sr  Sr7  1  0.91646493  0.91646493  0.83292986  1
  Sb  Sb0  1  0.56718927  0.56718927  0.13437953  1
  Sb  Sb1  1  0.17935951  0.17935951  0.35871903  1
  Sb  Sb2  1  0.82063949  0.82063949  0.64128097  1
  Sb  Sb3  1  0.43281073  0.43281073  0.86562047  1
  H  H0  1  0.72854757  0.72854757  0.45709714  1
  H  H1  1  0.27145243  0.27145243  0.54290286  1
  O  O0  1  0.00000000  0.00000000  0.00000000  1
loop_
_geom_bond_atom_site_label_1
_geom_bond_atom_site_label_2
_geom_bond_distance
_geom_bond_site_symmetry_2
Sb0 Sr3 3.329584 1_555
Sb0 Sr1 3.447448 1_555
Sb0 Sr0 3.447449 1_555
Sb0 Sr0 3.447452 1_565
Sb0 Sr1 3.447452 1_655
Sb0 Sr2 3.536740 1_555
Sb0 Sr2 3.536740 1_665
Sb0 Sr2 3.536740 1_655
Sb0 Sr2 3.536740 1_565
Sb1 Sr2 3.435366 1_555
Sb1 Sr5 3.534998 1_545
Sb1 Sr4 3.534998 1_455
Sb1 Sr4 3.534998 1_555
Sb1 Sr5 3.534998 1_555
Sb1 Sr3 3.555794 1_555
Sb1 Sr3 3.555798 1_455
Sb1 Sr3 3.555798 1_545
Sb1 Sr3 3.555801 1_445
Sb2 Sr7 3.435384 1_555
Sb2 Sr5 3.534994 1_555
Sb2 Sr4 3.534994 1_555
Sb2 Sr4 3.535001 1_565
Sb2 Sr5 3.535001 1_655
Sb2 Sr6 3.555794 1_555
Sb2 Sr6 3.555798 1_655
Sb2 Sr6 3.555798 1_565
Sb2 Sr6 3.555801 1_665
Sb3 Sr6 3.329584 1_555
Sb3 Sr1 3.447448 1_656
Sb3 Sr0 3.447449 1_566
Sb3 Sr0 3.447452 1_556
Sb3 Sr1 3.447452 1_556
Sb3 Sr7 3.536733 1_555
Sb3 Sr7 3.536737 1_455
Sb3 Sr7 3.536737 1_545
Sb3 Sr7 3.536740 1_445
H0 Sr3 2.455259 1_555
H0 Sr4 2.583404 1_555
H0 Sr5 2.583404 1_555
H0 Sr5 2.583413 1_655
H0 Sr4 2.583413 1_565
H1 Sr6 2.455259 1_555
H1 Sr5 2.583404 1_555
H1 Sr4 2.583404 1_555
H1 Sr4 2.583413 1_455
H1 Sr5 2.583413 1_545
O0 Sr1 2.466285 1_545
O0 Sr1 2.466285 1_555
O0 Sr0 2.466285 1_455
O0 Sr0 2.466285 1_555
O0 Sr7 2.994800 1_444
O0 Sr2 2.994818 1_555
