# generated using pymatgen
data_ScTa(CoP)2
_symmetry_space_group_name_H-M   'P 1'
_cell_length_a   3.61441545
_cell_length_b   6.13004703
_cell_length_c   6.97939952
_cell_angle_alpha   90.00000000
_cell_angle_beta   90.00000000
_cell_angle_gamma   90.00000000
_symmetry_Int_Tables_number   1
_chemical_formula_structural   ScTa(CoP)2
_chemical_formula_sum   'Sc2 Ta2 Co4 P4'
_cell_volume   154.63932135
_cell_formula_units_Z   2
loop_
 _symmetry_equiv_pos_site_id
 _symmetry_equiv_pos_as_xyz
  1  'x, y, z'
loop_
 _atom_site_type_symbol
 _atom_site_label
 _atom_site_symmetry_multiplicity
 _atom_site_fract_x
 _atom_site_fract_y
 _atom_site_fract_z
 _atom_site_occupancy
  Sc  Sc0  1  0.75000000  0.97817236  0.18136621  1
  Sc  Sc1  1  0.75000000  0.47817236  0.31863379  1
  Ta  Ta0  1  0.25000000  0.02216529  0.81761207  1
  Ta  Ta1  1  0.25000000  0.52216529  0.68238793  1
  Co  Co0  1  0.25000000  0.13972816  0.44198933  1
  Co  Co1  1  0.25000000  0.63972816  0.05801067  1
  Co  Co2  1  0.75000000  0.86154799  0.56551984  1
  Co  Co3  1  0.75000000  0.36154799  0.93448016  1
  P  P0  1  0.25000000  0.27090994  0.11120510  1
  P  P1  1  0.25000000  0.77090994  0.38879490  1
  P  P2  1  0.75000000  0.72747626  0.88041577  1
  P  P3  1  0.75000000  0.22747626  0.61958423  1
loop_
_geom_bond_atom_site_label_1
_geom_bond_atom_site_label_2
_geom_bond_distance
_geom_bond_site_symmetry_2
Co0 P3 2.256482 1_555
Co0 P3 2.256482 1_455
Co0 P1 2.291154 1_545
Co0 P0 2.444717 1_555
Co1 P2 2.256482 1_454
Co1 P2 2.256482 1_554
Co1 P0 2.291154 1_555
Co1 P1 2.444717 1_555
Co2 P1 2.257447 1_655
Co2 P1 2.257447 1_555
Co2 P3 2.274673 1_565
Co2 P2 2.346427 1_555
Co3 P0 2.257447 1_656
Co3 P0 2.257447 1_556
Co3 P2 2.274673 1_555
Co3 P3 2.346427 1_555
P0 Ta0 2.554190 1_554
P0 Sc0 2.593454 1_545
P0 Sc0 2.593454 1_445
P0 Sc1 2.641242 1_555
P0 Sc1 2.641242 1_455
P1 Ta1 2.554190 1_555
P1 Sc1 2.593454 1_555
P1 Sc1 2.593454 1_455
P1 Sc0 2.641242 1_555
P1 Sc0 2.641242 1_455
P2 Ta0 2.592571 1_665
P2 Ta0 2.592571 1_565
P2 Ta1 2.600044 1_655
P2 Ta1 2.600044 1_555
P2 Sc0 2.602613 1_556
P3 Ta1 2.592571 1_555
P3 Ta1 2.592571 1_655
P3 Ta0 2.600044 1_555
P3 Ta0 2.600044 1_655
P3 Sc1 2.602613 1_555
