# generated using pymatgen
data_LuZn3P7N12
_symmetry_space_group_name_H-M   'P 1'
_cell_length_a   7.17182389
_cell_length_b   7.17527921
_cell_length_c   7.17182434
_cell_angle_alpha   109.48098671
_cell_angle_beta   109.46145683
_cell_angle_gamma   109.48098551
_symmetry_Int_Tables_number   1
_chemical_formula_structural   LuZn3P7N12
_chemical_formula_sum   'Lu1 Zn3 P7 N12'
_cell_volume   284.06897330
_cell_formula_units_Z   1
loop_
 _symmetry_equiv_pos_site_id
 _symmetry_equiv_pos_as_xyz
  1  'x, y, z'
loop_
 _atom_site_type_symbol
 _atom_site_label
 _atom_site_symmetry_multiplicity
 _atom_site_fract_x
 _atom_site_fract_y
 _atom_site_fract_z
 _atom_site_occupancy
  Lu  Lu0  1  0.00000000  0.32995238  0.00000000  1
  Zn  Zn0  1  0.66980974  0.66893089  0.66980974  1
  Zn  Zn1  1  0.33019026  0.99912215  1.00000000  1
  Zn  Zn2  1  1.00000000  0.99912215  0.33019026  1
  P  P0  1  0.74674508  0.25106641  0.49457240  1
  P  P1  1  0.25217268  0.75649402  0.50542760  1
  P  P2  1  0.50542760  0.75649402  0.25217268  1
  P  P3  1  0.49457240  0.25106641  0.74674508  1
  P  P4  1  0.74782732  0.50432134  0.25325492  1
  P  P5  1  0.25325492  0.50432134  0.74782732  1
  P  P6  1  1.00000000  0.96584465  1.00000000  1
  N  N0  1  0.56725436  0.27593153  0.00000000  1
  N  N1  1  0.43985690  0.44179626  0.71091398  1
  N  N2  1  0.00000000  0.27593153  0.56725436  1
  N  N3  1  0.27105808  0.00193936  0.56014310  1
  N  N4  1  0.71091398  0.44179626  0.43985690  1
  N  N5  1  0.00000000  0.56310534  0.28582883  1
  N  N6  1  0.56014310  0.00193936  0.27105808  1
  N  N7  1  0.43274564  0.70867717  0.43274564  1
  N  N8  1  0.28582883  0.56310534  0.00000000  1
  N  N9  1  0.71417117  0.27727651  0.71417117  1
  N  N10  1  0.72894192  0.73088228  0.28908602  1
  N  N11  1  0.28908602  0.73088228  0.72894192  1
loop_
_geom_bond_atom_site_label_1
_geom_bond_atom_site_label_2
_geom_bond_distance
_geom_bond_site_symmetry_2
Lu0 N8 2.171063 1_555
Lu0 N5 2.171063 1_555
Lu0 N9 2.171063 1_454
Lu0 P6 2.612575 1_444
P6 Zn1 2.299481 1_655
P6 Zn2 2.299481 1_556
P6 Zn0 2.299483 1_555
N0 P4 1.641172 1_555
N0 P3 1.641172 1_554
N0 Zn1 2.140844 1_544
N1 P3 1.618174 1_555
N1 P5 1.618537 1_555
N1 Zn0 2.077137 1_555
N2 P5 1.641172 1_555
N2 P0 1.641172 1_455
N2 Zn2 2.140844 1_445
N3 P1 1.618171 1_545
N3 P3 1.618534 1_555
N3 Zn2 2.077146 1_445
N4 P0 1.618174 1_555
N4 P4 1.618537 1_555
N4 Zn0 2.077137 1_555
N5 P1 1.627035 1_555
N5 P4 1.627035 1_455
N6 P2 1.618171 1_545
N6 P0 1.618534 1_555
N6 Zn1 2.077146 1_544
N7 P1 1.641172 1_555
N7 P2 1.641172 1_555
N7 Zn0 2.140849 1_555
N8 P2 1.627035 1_555
N8 P5 1.627035 1_554
N9 P3 1.627035 1_555
N9 P0 1.627035 1_555
N10 P4 1.618177 1_555
N10 P2 1.618530 1_555
N10 Zn2 2.077145 1_555
N11 P5 1.618177 1_555
N11 P1 1.618530 1_555
N11 Zn1 2.077145 1_555
