# generated using pymatgen
data_Hf16MnIr7N4
_symmetry_space_group_name_H-M   'P 1'
_cell_length_a   8.67851810
_cell_length_b   8.67851999
_cell_length_c   8.67852008
_cell_angle_alpha   59.78156805
_cell_angle_beta   59.78156057
_cell_angle_gamma   59.78156637
_symmetry_Int_Tables_number   1
_chemical_formula_structural   Hf16MnIr7N4
_chemical_formula_sum   'Hf16 Mn1 Ir7 N4'
_cell_volume   459.89934637
_cell_formula_units_Z   1
loop_
 _symmetry_equiv_pos_site_id
 _symmetry_equiv_pos_as_xyz
  1  'x, y, z'
loop_
 _atom_site_type_symbol
 _atom_site_label
 _atom_site_symmetry_multiplicity
 _atom_site_fract_x
 _atom_site_fract_y
 _atom_site_fract_z
 _atom_site_occupancy
  Hf  Hf0  1  0.12421514  0.62586916  0.62586916  1
  Hf  Hf1  1  0.62586916  0.12421514  0.62586916  1
  Hf  Hf2  1  0.62586916  0.62586916  0.12421514  1
  Hf  Hf3  1  0.62595910  0.62595910  0.62595910  1
  Hf  Hf4  1  0.81557758  0.81557758  0.18092342  1
  Hf  Hf5  1  0.18372738  0.18372738  0.81659444  1
  Hf  Hf6  1  0.81557758  0.18092342  0.81557758  1
  Hf  Hf7  1  0.18372738  0.81659444  0.18372738  1
  Hf  Hf8  1  0.18092342  0.81557758  0.81557758  1
  Hf  Hf9  1  0.81659444  0.18372738  0.18372738  1
  Hf  Hf10  1  0.43489008  0.43489008  0.06561148  1
  Hf  Hf11  1  0.06631471  0.06631471  0.43468425  1
  Hf  Hf12  1  0.43489008  0.06561148  0.43489008  1
  Hf  Hf13  1  0.06631471  0.43468425  0.06631471  1
  Hf  Hf14  1  0.06561148  0.43489008  0.43489008  1
  Hf  Hf15  1  0.43468425  0.06631471  0.06631471  1
  Mn  Mn0  1  0.83435930  0.83435930  0.83435930  1
  Ir  Ir0  1  0.76335506  0.41292068  0.41292068  1
  Ir  Ir1  1  0.41292068  0.76335506  0.41292068  1
  Ir  Ir2  1  0.41292068  0.41292068  0.76335506  1
  Ir  Ir3  1  0.41320949  0.41320949  0.41320949  1
  Ir  Ir4  1  0.48483332  0.83853504  0.83853504  1
  Ir  Ir5  1  0.83853504  0.48483332  0.83853504  1
  Ir  Ir6  1  0.83853504  0.83853504  0.48483332  1
  N  N0  1  0.62491069  0.12556488  0.12556488  1
  N  N1  1  0.12556488  0.62491069  0.12556488  1
  N  N2  1  0.12556488  0.12556488  0.62491069  1
  N  N3  1  0.12454328  0.12454328  0.12454328  1
loop_
_geom_bond_atom_site_label_1
_geom_bond_atom_site_label_2
_geom_bond_distance
_geom_bond_site_symmetry_2
Hf0 Mn0 2.647249 1_455
Hf0 Ir3 2.685617 1_555
Hf0 Ir5 2.688120 1_455
Hf0 Ir6 2.688120 1_455
Hf0 Ir1 2.691735 1_555
Hf0 Ir2 2.691735 1_555
Hf1 Mn0 2.647249 1_545
Hf1 Ir3 2.685617 1_555
Hf1 Ir4 2.688120 1_545
Hf1 Ir6 2.688120 1_545
Hf1 Ir0 2.691735 1_555
Hf1 Ir2 2.691735 1_555
Hf2 Mn0 2.647249 1_554
Hf2 Ir3 2.685617 1_555
Hf2 Ir5 2.688120 1_554
Hf2 Ir4 2.688120 1_554
Hf2 Ir1 2.691735 1_555
Hf2 Ir0 2.691735 1_555
Hf3 Ir6 2.680307 1_555
Hf3 Ir5 2.680307 1_555
Hf3 Ir4 2.680307 1_555
Hf3 Ir2 2.694617 1_555
Hf3 Ir1 2.694617 1_555
Hf3 Ir0 2.694617 1_555
Hf4 N1 2.285722 1_655
Hf4 N0 2.285722 1_565
Hf4 Ir6 2.851946 1_555
Hf4 Mn0 2.852888 1_554
Hf5 N3 2.274237 1_556
Hf5 N2 2.285572 1_555
Hf5 Ir5 2.808211 1_455
Hf5 Ir4 2.808211 1_545
Hf6 N2 2.285722 1_655
Hf6 N0 2.285722 1_556
Hf6 Ir5 2.851945 1_555
Hf6 Mn0 2.852888 1_545
Hf7 N3 2.274237 1_565
Hf7 N1 2.285572 1_555
Hf7 Ir6 2.808211 1_455
Hf7 Ir4 2.808211 1_554
Hf8 N1 2.285722 1_556
Hf8 N2 2.285722 1_565
Hf8 Ir4 2.851945 1_555
Hf8 Mn0 2.852887 1_455
Hf9 N3 2.274237 1_655
Hf9 N0 2.285571 1_555
Hf9 Ir5 2.808212 1_554
Hf9 Ir6 2.808212 1_545
Hf10 N1 2.279967 1_555
Hf10 N0 2.279967 1_555
Hf10 Ir2 2.827899 1_554
Hf10 Ir3 2.839693 1_555
Hf11 N2 2.286779 1_555
Hf11 N3 2.296533 1_555
Hf11 Ir1 2.822020 1_545
Hf11 Ir0 2.822020 1_455
Hf11 Mn0 3.187137 1_445
Hf12 N2 2.279967 1_555
Hf12 N0 2.279967 1_555
Hf12 Ir1 2.827899 1_545
Hf12 Ir3 2.839693 1_555
Hf13 N1 2.286779 1_555
Hf13 N3 2.296533 1_555
Hf13 Ir2 2.822020 1_554
Hf13 Ir0 2.822020 1_455
Hf13 Mn0 3.187137 1_454
Hf14 N1 2.279967 1_555
Hf14 N2 2.279967 1_555
Hf14 Ir0 2.827899 1_455
Hf14 Ir3 2.839692 1_555
Hf15 N0 2.286779 1_555
Hf15 N3 2.296532 1_555
Hf15 Ir1 2.822021 1_545
Hf15 Ir2 2.822021 1_554
Hf15 Mn0 3.187137 1_544
Ir4 Mn0 2.997326 1_555
Ir5 Mn0 2.997327 1_555
Ir6 Mn0 2.997327 1_555
