# generated using pymatgen
data_Tc2WS4
_symmetry_space_group_name_H-M   'P 1'
_cell_length_a   6.48927978
_cell_length_b   6.46393994
_cell_length_c   6.46566278
_cell_angle_alpha   93.31174815
_cell_angle_beta   93.62327632
_cell_angle_gamma   92.81156746
_symmetry_Int_Tables_number   1
_chemical_formula_structural   Tc2WS4
_chemical_formula_sum   'Tc4 W2 S8'
_cell_volume   269.83829744
_cell_formula_units_Z   2
loop_
 _symmetry_equiv_pos_site_id
 _symmetry_equiv_pos_as_xyz
  1  'x, y, z'
loop_
 _atom_site_type_symbol
 _atom_site_label
 _atom_site_symmetry_multiplicity
 _atom_site_fract_x
 _atom_site_fract_y
 _atom_site_fract_z
 _atom_site_occupancy
  Tc  Tc0  1  0.23141856  0.40796642  0.54964699  1
  Tc  Tc1  1  0.55139966  0.23152567  0.40947750  1
  Tc  Tc2  1  0.40834187  0.54876275  0.23238180  1
  Tc  Tc3  1  0.76645493  0.58941766  0.44795966  1
  W  W0  1  0.44787245  0.76849507  0.59086169  1
  W  W1  1  0.59215249  0.45094364  0.77009273  1
  S  S0  1  0.38196039  0.12897741  0.71981091  1
  S  S1  1  0.72068125  0.37948354  0.13202633  1
  S  S2  1  0.12563732  0.71990418  0.37914510  1
  S  S3  1  0.62071895  0.86984141  0.27291380  1
  S  S4  1  0.27291615  0.62167485  0.87285839  1
  S  S5  1  0.87365334  0.27827197  0.62042000  1
  S  S6  1  0.22452133  0.22357030  0.22374684  1
  S  S7  1  0.78227031  0.78116514  0.77866026  1
loop_
_geom_bond_atom_site_label_1
_geom_bond_atom_site_label_2
_geom_bond_distance
_geom_bond_site_symmetry_2
Tc0 W0 2.652308 1_555
Tc0 W1 2.656559 1_555
Tc1 W1 2.649746 1_555
Tc2 W0 2.638968 1_555
Tc3 W0 2.611562 1_555
Tc3 W1 2.613899 1_555
S0 Tc0 2.383946 1_555
S0 W1 2.425849 1_555
S0 Tc1 2.456722 1_555
S0 W0 2.495194 1_545
S1 Tc3 2.380312 1_555
S1 Tc1 2.384061 1_555
S1 Tc2 2.455248 1_555
S1 W1 2.510233 1_554
S2 Tc2 2.405753 1_555
S2 W0 2.422643 1_555
S2 Tc0 2.459497 1_555
S2 Tc3 2.514706 1_455
S3 Tc3 2.393934 1_555
S3 Tc2 2.426185 1_555
S3 W0 2.507644 1_555
S3 Tc1 2.522432 1_565
S4 W0 2.422795 1_555
S4 Tc0 2.430388 1_555
S4 W1 2.502906 1_555
S4 Tc2 2.511377 1_556
S5 W1 2.412034 1_555
S5 Tc1 2.419604 1_555
S5 Tc3 2.463870 1_555
S5 Tc0 2.507960 1_655
S6 Tc0 2.357006 1_555
S6 Tc2 2.361479 1_555
S6 Tc1 2.367373 1_555
S7 Tc3 2.402548 1_555
S7 W1 2.408471 1_555
S7 W0 2.414134 1_555
