# generated using pymatgen
data_Zr2AlGa5
_symmetry_space_group_name_H-M   'P 1'
_cell_length_a   9.14583291
_cell_length_b   9.14583293
_cell_length_c   9.14583245
_cell_angle_alpha   155.04697625
_cell_angle_beta   155.04697551
_cell_angle_gamma   35.57959845
_symmetry_Int_Tables_number   1
_chemical_formula_structural   Zr2AlGa5
_chemical_formula_sum   'Zr2 Al1 Ga5'
_cell_volume   135.99293808
_cell_formula_units_Z   1
loop_
 _symmetry_equiv_pos_site_id
 _symmetry_equiv_pos_as_xyz
  1  'x, y, z'
loop_
 _atom_site_type_symbol
 _atom_site_label
 _atom_site_symmetry_multiplicity
 _atom_site_fract_x
 _atom_site_fract_y
 _atom_site_fract_z
 _atom_site_occupancy
  Zr  Zr0  1  0.88231507  0.88231507  1.00000000  1
  Zr  Zr1  1  0.11768493  0.11768493  0.00000000  1
  Al  Al0  1  0.75000000  0.25000000  0.50000000  1
  Ga  Ga0  1  0.00017005  0.50017005  0.50000000  1
  Ga  Ga1  1  0.49982995  0.99982995  0.50000000  1
  Ga  Ga2  1  0.25000000  0.75000000  0.50000000  1
  Ga  Ga3  1  0.62662252  0.62662252  1.00000000  1
  Ga  Ga4  1  0.37337748  0.37337748  0.00000000  1
loop_
_geom_bond_atom_site_label_1
_geom_bond_atom_site_label_2
_geom_bond_distance
_geom_bond_site_symmetry_2
Al0 Ga2 2.794288 1_645
Al0 Ga2 2.794288 1_555
Al0 Ga2 2.794288 1_656
Al0 Ga2 2.794288 1_544
Al0 Ga3 2.919188 1_555
Al0 Ga4 2.919188 1_555
Al0 Ga3 2.919189 1_544
Al0 Ga4 2.919189 1_656
Al0 Zr0 3.035606 1_544
Al0 Zr1 3.035606 1_656
Al0 Zr0 3.035606 1_555
Al0 Zr1 3.035606 1_555
Ga0 Ga1 2.794294 1_455
Ga0 Ga1 2.794294 1_545
Ga0 Ga1 2.794294 1_556
Ga0 Ga1 2.794294 1_444
Ga0 Zr1 2.844863 1_555
Ga0 Zr1 2.844864 1_566
Ga0 Zr0 2.849128 1_455
Ga0 Zr0 2.849128 1_444
Ga0 Ga3 2.958835 1_454
Ga0 Ga3 2.958835 1_555
Ga0 Ga4 2.963246 1_556
Ga0 Ga4 2.963247 1_455
Ga1 Zr0 2.844863 1_555
Ga1 Zr0 2.844864 1_454
Ga1 Zr1 2.849128 1_565
Ga1 Zr1 2.849128 1_666
Ga1 Ga4 2.958835 1_566
Ga1 Ga4 2.958835 1_555
Ga1 Ga3 2.963246 1_554
Ga1 Ga3 2.963247 1_565
Ga2 Ga4 2.919188 1_555
Ga2 Ga3 2.919188 1_555
Ga2 Ga4 2.919189 1_566
Ga2 Ga3 2.919189 1_454
Ga2 Zr1 3.035606 1_566
Ga2 Zr0 3.035606 1_454
Ga2 Zr1 3.035606 1_555
Ga2 Zr0 3.035606 1_555
Ga3 Zr1 2.798620 1_566
Ga3 Zr1 2.798620 1_656
Ga3 Zr1 2.798621 1_667
Ga3 Zr1 2.798621 1_555
Ga4 Zr0 2.798620 1_544
Ga4 Zr0 2.798620 1_454
Ga4 Zr0 2.798621 1_443
Ga4 Zr0 2.798621 1_555
