# generated using pymatgen
data_GaAs(SeO3)4
_symmetry_space_group_name_H-M   'P 1'
_cell_length_a   7.82177018
_cell_length_b   7.87556774
_cell_length_c   7.81633911
_cell_angle_alpha   89.37017214
_cell_angle_beta   90.00000000
_cell_angle_gamma   90.00000000
_symmetry_Int_Tables_number   1
_chemical_formula_structural   GaAs(SeO3)4
_chemical_formula_sum   'Ga2 As2 Se8 O24'
_cell_volume   481.46428406
_cell_formula_units_Z   2
loop_
 _symmetry_equiv_pos_site_id
 _symmetry_equiv_pos_as_xyz
  1  'x, y, z'
loop_
 _atom_site_type_symbol
 _atom_site_label
 _atom_site_symmetry_multiplicity
 _atom_site_fract_x
 _atom_site_fract_y
 _atom_site_fract_z
 _atom_site_occupancy
  Ga  Ga0  1  0.00000000  0.50000000  0.00000000  1
  Ga  Ga1  1  0.50000000  0.50000000  0.50000000  1
  As  As0  1  0.00000000  0.00000000  0.50000000  1
  As  As1  1  0.50000000  0.00000000  0.00000000  1
  Se  Se0  1  0.33533612  0.66950746  0.16617764  1
  Se  Se1  1  0.83533612  0.33049254  0.33382236  1
  Se  Se2  1  0.67585213  0.83302430  0.67480658  1
  Se  Se3  1  0.17585213  0.16697570  0.82519342  1
  Se  Se4  1  0.66466388  0.33049254  0.83382236  1
  Se  Se5  1  0.16466388  0.66950746  0.66617764  1
  Se  Se6  1  0.32414787  0.16697570  0.32519342  1
  Se  Se7  1  0.82414787  0.83302430  0.17480658  1
  O  O0  1  0.24571857  0.54092517  0.02077598  1
  O  O1  1  0.74571857  0.45907483  0.47922402  1
  O  O2  1  0.76711865  0.98703938  0.53666044  1
  O  O3  1  0.26711865  0.01296062  0.96333956  1
  O  O4  1  0.53440111  0.98022353  0.76671682  1
  O  O5  1  0.48021720  0.53646209  0.25427331  1
  O  O6  1  0.98021720  0.46353791  0.24572669  1
  O  O7  1  0.03440111  0.01977647  0.73328318  1
  O  O8  1  0.98520058  0.22909213  0.47797143  1
  O  O9  1  0.54188452  0.74848069  0.53429177  1
  O  O10  1  0.48520058  0.77090787  0.02202857  1
  O  O11  1  0.04188452  0.25151931  0.96570823  1
  O  O12  1  0.75428143  0.45907483  0.97922402  1
  O  O13  1  0.25428143  0.54092517  0.52077598  1
  O  O14  1  0.23288135  0.01296062  0.46333956  1
  O  O15  1  0.73288135  0.98703938  0.03666044  1
  O  O16  1  0.46559889  0.01977647  0.23328318  1
  O  O17  1  0.51978280  0.46353791  0.74572669  1
  O  O18  1  0.01978280  0.53646209  0.75427331  1
  O  O19  1  0.96559889  0.98022353  0.26671682  1
  O  O20  1  0.01479942  0.77090787  0.52202857  1
  O  O21  1  0.45811548  0.25151931  0.46570823  1
  O  O22  1  0.51479942  0.22909213  0.97797143  1
  O  O23  1  0.95811548  0.74848069  0.03429177  1
loop_
_geom_bond_atom_site_label_1
_geom_bond_atom_site_label_2
_geom_bond_distance
_geom_bond_site_symmetry_2
Ga0 O6 1.945071 1_455
Ga0 O18 1.945071 1_554
Ga0 O0 1.955841 1_555
Ga0 O12 1.955841 1_454
Ga0 O23 2.005060 1_455
Ga0 O11 2.005060 1_554
Ga1 O17 1.945071 1_555
Ga1 O5 1.945071 1_555
Ga1 O1 1.955841 1_555
Ga1 O13 1.955841 1_555
Ga1 O9 2.005060 1_555
Ga1 O21 2.005060 1_555
As0 O8 1.814239 1_455
As0 O20 1.814239 1_545
As0 O14 1.846594 1_555
As0 O2 1.846594 1_445
As0 O7 1.851423 1_555
As0 O19 1.851423 1_445
As1 O22 1.814239 1_554
As1 O10 1.814239 1_545
As1 O15 1.846594 1_545
As1 O3 1.846594 1_554
As1 O16 1.851423 1_555
As1 O4 1.851423 1_544
O0 Se0 1.683386 1_555
O1 Se1 1.683386 1_555
O2 Se2 1.765796 1_555
O3 Se3 1.765796 1_555
O4 Se2 1.761377 1_555
O5 Se0 1.685346 1_555
O6 Se1 1.685346 1_555
O7 Se3 1.761377 1_555
O8 Se1 1.805967 1_555
O9 Se2 1.662442 1_555
O10 Se0 1.805967 1_555
O11 Se3 1.662442 1_555
O12 Se4 1.683386 1_555
O13 Se5 1.683386 1_555
O14 Se6 1.765796 1_555
O15 Se7 1.765796 1_555
O16 Se6 1.761377 1_555
O17 Se4 1.685346 1_555
O18 Se5 1.685346 1_555
O19 Se7 1.761377 1_555
O20 Se5 1.805967 1_555
O21 Se6 1.662442 1_555
O22 Se4 1.805967 1_555
O23 Se7 1.662442 1_555
