# generated using pymatgen
data_B4Se3SBr4
_symmetry_space_group_name_H-M   'P 1'
_cell_length_a   4.32327398
_cell_length_b   14.59753453
_cell_length_c   18.44676081
_cell_angle_alpha   65.15275024
_cell_angle_beta   90.04339618
_cell_angle_gamma   90.18960928
_symmetry_Int_Tables_number   1
_chemical_formula_structural   B4Se3SBr4
_chemical_formula_sum   'B12 Se9 S3 Br12'
_cell_volume   1056.38844131
_cell_formula_units_Z   3
loop_
 _symmetry_equiv_pos_site_id
 _symmetry_equiv_pos_as_xyz
  1  'x, y, z'
loop_
 _atom_site_type_symbol
 _atom_site_label
 _atom_site_symmetry_multiplicity
 _atom_site_fract_x
 _atom_site_fract_y
 _atom_site_fract_z
 _atom_site_occupancy
  B  B0  1  0.73807545  0.37856838  0.16704719  1
  B  B1  1  0.23511126  0.62124820  0.33286146  1
  B  B2  1  0.26291258  0.62132368  0.83306236  1
  B  B3  1  0.76158922  0.37815076  0.66735549  1
  B  B4  1  0.99301624  0.16559912  0.27433175  1
  B  B5  1  0.49276401  0.83453781  0.22547613  1
  B  B6  1  0.00760910  0.83422283  0.72554740  1
  B  B7  1  0.50702646  0.16421492  0.77913181  1
  B  B8  1  0.98593440  0.23122344  0.09878240  1
  B  B9  1  0.48524474  0.76882393  0.40108701  1
  B  B10  1  0.01381171  0.76850089  0.90127643  1
  B  B11  1  0.51539938  0.23369406  0.59401619  1
  Se  Se0  1  0.69027366  0.28610773  0.77794330  1
  Se  Se1  1  0.19103568  0.71456844  0.72301559  1
  Se  Se2  1  0.30929944  0.71452034  0.22289755  1
  Se  Se3  1  0.81163698  0.28546585  0.27702622  1
  Se  Se4  1  0.69638852  0.36523467  0.56820705  1
  Se  Se5  1  0.19385021  0.63619758  0.93115919  1
  Se  Se6  1  0.30443165  0.63612639  0.43099768  1
  Se  Se7  1  0.80650896  0.36367284  0.06893634  1
  Se  Se8  1  0.40156179  0.12411770  0.69464449  1
  S  S0  1  0.91347162  0.86790741  0.80610200  1
  S  S1  1  0.58594985  0.86851905  0.30599366  1
  S  S2  1  0.08520543  0.13161716  0.19385001  1
  Br  Br0  1  0.56550556  0.50574457  0.15301677  1
  Br  Br1  1  0.06079677  0.49399638  0.34685376  1
  Br  Br2  1  0.43485784  0.49404982  0.84733669  1
  Br  Br3  1  0.93447139  0.50571083  0.65353029  1
  Br  Br4  1  0.09352061  0.06315886  0.37822641  1
  Br  Br5  1  0.59371876  0.93715003  0.12152011  1
  Br  Br6  1  0.90763374  0.93652950  0.62140881  1
  Br  Br7  1  0.41300405  0.06350474  0.88428645  1
  Br  Br8  1  0.07611971  0.20085017  0.00924868  1
  Br  Br9  1  0.57609626  0.79924714  0.49065924  1
  Br  Br10  1  0.92356093  0.79908789  0.99066795  1
  Br  Br11  1  0.43260602  0.20680689  0.50249314  1
loop_
_geom_bond_atom_site_label_1
_geom_bond_atom_site_label_2
_geom_bond_distance
_geom_bond_site_symmetry_2
B0 Br0 1.917060 1_555
B0 Se7 1.934487 1_555
B0 Se3 1.936175 1_555
B1 Br1 1.916554 1_555
B1 Se6 1.934766 1_555
B1 Se2 1.936083 1_555
B2 Br2 1.916083 1_555
B2 Se5 1.934494 1_555
B2 Se1 1.936467 1_555
B3 Br3 1.919098 1_555
B3 Se4 1.936181 1_555
B3 Se0 1.938195 1_555
B4 S2 1.797264 1_655
B4 Br4 1.921591 1_655
B4 Se3 1.939395 1_555
B5 S1 1.797607 1_555
B5 Br5 1.922107 1_555
B5 Se2 1.939463 1_555
B6 S0 1.797727 1_455
B6 Br6 1.923392 1_455
B6 Se1 1.938977 1_555
B7 Br7 1.920896 1_555
B7 Se8 1.934753 1_555
B7 Se0 1.937021 1_555
B8 S2 1.798284 1_655
B8 Br8 1.921961 1_655
B8 Se7 1.938479 1_555
B9 S1 1.798918 1_555
B9 Br9 1.922551 1_555
B9 Se6 1.939101 1_555
B10 S0 1.799493 1_455
B10 Br10 1.921361 1_455
B10 Se5 1.937584 1_555
B11 Br11 1.920305 1_555
B11 Se8 1.935807 1_555
B11 Se4 1.936054 1_555
