# generated using pymatgen
data_Cs3PHPt3
_symmetry_space_group_name_H-M   'P 1'
_cell_length_a   7.42170373
_cell_length_b   7.42170358
_cell_length_c   7.42170262
_cell_angle_alpha   49.16892397
_cell_angle_beta   49.16891137
_cell_angle_gamma   49.16891899
_symmetry_Int_Tables_number   1
_chemical_formula_structural   Cs3PHPt3
_chemical_formula_sum   'Cs3 P1 H1 Pt3'
_cell_volume   214.97346950
_cell_formula_units_Z   1
loop_
 _symmetry_equiv_pos_site_id
 _symmetry_equiv_pos_as_xyz
  1  'x, y, z'
loop_
 _atom_site_type_symbol
 _atom_site_label
 _atom_site_symmetry_multiplicity
 _atom_site_fract_x
 _atom_site_fract_y
 _atom_site_fract_z
 _atom_site_occupancy
  Cs  Cs0  1  0.10023681  0.10023681  0.10023681  1
  Cs  Cs1  1  0.50279332  0.50279332  0.50279332  1
  Cs  Cs2  1  0.90992475  0.90992475  0.90992475  1
  P  P0  1  0.71987391  0.71987391  0.71987391  1
  H  H0  1  0.27467499  0.27467499  0.27467499  1
  Pt  Pt0  1  0.47751581  0.47751581  0.03746460  1
  Pt  Pt1  1  0.47751581  0.03746460  0.47751481  1
  Pt  Pt2  1  0.03746460  0.47751581  0.47751481  1
loop_
_geom_bond_atom_site_label_1
_geom_bond_atom_site_label_2
_geom_bond_distance
_geom_bond_site_symmetry_2
Cs0 H0 3.406370 1_555
Cs0 P0 3.681728 1_544
Cs0 P0 3.681728 1_445
Cs0 P0 3.681729 1_454
Cs0 Pt0 3.688420 1_545
Cs0 Pt0 3.688420 1_455
Cs0 Pt1 3.688421 1_455
Cs0 Pt2 3.688422 1_545
Cs0 Pt1 3.688426 1_554
Cs0 Pt2 3.688426 1_554
Cs1 Pt0 3.706445 1_555
Cs1 Pt1 3.706450 1_555
Cs1 Pt2 3.706450 1_555
Cs1 Pt1 3.730391 1_565
Cs1 Pt2 3.730391 1_655
Cs1 Pt0 3.730395 1_556
Cs2 Pt1 3.536087 1_566
Cs2 Pt2 3.536088 1_656
Cs2 Pt1 3.536093 1_665
Cs2 Pt0 3.536094 1_566
Cs2 Pt2 3.536094 1_665
Cs2 Pt0 3.536094 1_656
Cs2 P0 3.711249 1_555
P0 Pt0 2.273565 1_556
P0 Pt2 2.273569 1_655
P0 Pt1 2.273569 1_565
H0 Pt2 1.914186 1_555
H0 Pt1 1.914186 1_555
H0 Pt0 1.914191 1_555
