# generated using pymatgen
data_Y20NiAg6Ir
_symmetry_space_group_name_H-M   'P 1'
_cell_length_a   9.52706956
_cell_length_b   9.52707036
_cell_length_c   9.66030687
_cell_angle_alpha   90.00000000
_cell_angle_beta   90.00000000
_cell_angle_gamma   119.99999723
_symmetry_Int_Tables_number   1
_chemical_formula_structural   Y20NiAg6Ir
_chemical_formula_sum   'Y20 Ni1 Ag6 Ir1'
_cell_volume   759.34698874
_cell_formula_units_Z   1
loop_
 _symmetry_equiv_pos_site_id
 _symmetry_equiv_pos_as_xyz
  1  'x, y, z'
loop_
 _atom_site_type_symbol
 _atom_site_label
 _atom_site_symmetry_multiplicity
 _atom_site_fract_x
 _atom_site_fract_y
 _atom_site_fract_z
 _atom_site_occupancy
  Y  Y0  1  0.00000000  0.00000000  0.50061498  1
  Y  Y1  1  0.00000000  0.00000000  0.99938502  1
  Y  Y2  1  0.54188560  0.45811440  0.25000000  1
  Y  Y3  1  0.54188560  0.08377320  0.25000000  1
  Y  Y4  1  0.91622680  0.45811440  0.25000000  1
  Y  Y5  1  0.45708003  0.54291997  0.75000000  1
  Y  Y6  1  0.45708003  0.91415906  0.75000000  1
  Y  Y7  1  0.08584094  0.54291997  0.75000000  1
  Y  Y8  1  0.20787164  0.79212836  0.44094339  1
  Y  Y9  1  0.20787164  0.41574427  0.44094339  1
  Y  Y10  1  0.58425573  0.79212836  0.44094339  1
  Y  Y11  1  0.79041878  0.20958122  0.56240107  1
  Y  Y12  1  0.79041878  0.58083557  0.56240107  1
  Y  Y13  1  0.41916443  0.20958122  0.56240107  1
  Y  Y14  1  0.79041878  0.20958122  0.93759893  1
  Y  Y15  1  0.79041878  0.58083557  0.93759893  1
  Y  Y16  1  0.41916443  0.20958122  0.93759893  1
  Y  Y17  1  0.20787164  0.79212836  0.05905661  1
  Y  Y18  1  0.20787164  0.41574427  0.05905661  1
  Y  Y19  1  0.58425573  0.79212836  0.05905661  1
  Ni  Ni0  1  0.66666700  0.33333300  0.75000000  1
  Ag  Ag0  1  0.88397234  0.11602766  0.25000000  1
  Ag  Ag1  1  0.88397234  0.76794369  0.25000000  1
  Ag  Ag2  1  0.23205631  0.11602766  0.25000000  1
  Ag  Ag3  1  0.11606761  0.88393239  0.75000000  1
  Ag  Ag4  1  0.11606761  0.23213521  0.75000000  1
  Ag  Ag5  1  0.76786479  0.88393239  0.75000000  1
  Ir  Ir0  1  0.33333300  0.66666700  0.25000000  1
loop_
_geom_bond_atom_site_label_1
_geom_bond_atom_site_label_2
_geom_bond_distance
_geom_bond_site_symmetry_2
Ni0 Y16 2.730262 1_555
Ni0 Y13 2.730262 1_555
Ni0 Y15 2.730262 1_555
Ni0 Y12 2.730262 1_555
Ni0 Y14 2.730268 1_555
Ni0 Y11 2.730268 1_555
Ag0 Y0 3.086596 1_655
Ag0 Y1 3.086596 1_654
Ag0 Y3 3.116821 1_555
Ag0 Y4 3.116821 1_555
Ag0 Y11 3.389817 1_555
Ag0 Y14 3.389817 1_554
Ag0 Y9 3.502401 1_655
Ag0 Y18 3.502401 1_655
Ag0 Y10 3.502401 1_545
Ag0 Y19 3.502401 1_545
Ag1 Y0 3.086602 1_665
Ag1 Y1 3.086602 1_664
Ag1 Y4 3.116793 1_555
Ag1 Y2 3.116809 1_555
Ag1 Y12 3.389821 1_555
Ag1 Y15 3.389821 1_554
Ag1 Y8 3.502394 1_655
Ag1 Y17 3.502394 1_655
Ag1 Y10 3.502410 1_555
Ag1 Y19 3.502410 1_555
Ag2 Y0 3.086602 1_555
Ag2 Y1 3.086602 1_554
Ag2 Y3 3.116792 1_555
Ag2 Y2 3.116809 1_555
Ag2 Y13 3.389821 1_555
Ag2 Y16 3.389821 1_554
Ag2 Y8 3.502394 1_545
Ag2 Y17 3.502394 1_545
Ag2 Y9 3.502410 1_555
Ag2 Y18 3.502410 1_555
Ag3 Y1 3.077696 1_565
Ag3 Y0 3.077696 1_565
Ag3 Y6 3.114863 1_555
Ag3 Y7 3.114863 1_555
Ag3 Ag5 3.317352 1_455
Ag3 Ag4 3.317353 1_565
Ag3 Y17 3.347924 1_556
Ag3 Y8 3.347924 1_555
Ag3 Y15 3.505604 1_455
Ag3 Y12 3.505604 1_455
Ag3 Y16 3.505604 1_565
Ag3 Y13 3.505604 1_565
Ag4 Y1 3.077696 1_555
Ag4 Y0 3.077696 1_555
Ag4 Y7 3.114854 1_555
Ag4 Y5 3.114859 1_555
Ag4 Ag5 3.317353 1_445
Ag4 Y18 3.347928 1_556
Ag4 Y9 3.347928 1_555
Ag4 Y14 3.505596 1_455
Ag4 Y11 3.505596 1_455
Ag4 Y16 3.505612 1_555
Ag4 Y13 3.505612 1_555
Ag5 Y1 3.077696 1_665
Ag5 Y0 3.077696 1_665
Ag5 Y6 3.114854 1_555
Ag5 Y5 3.114859 1_555
Ag5 Y19 3.347928 1_556
Ag5 Y10 3.347928 1_555
Ag5 Y14 3.505596 1_565
Ag5 Y11 3.505596 1_565
Ag5 Y15 3.505613 1_555
Ag5 Y12 3.505613 1_555
Ir0 Y10 2.772818 1_555
Ir0 Y19 2.772818 1_555
Ir0 Y8 2.772818 1_555
Ir0 Y17 2.772818 1_555
Ir0 Y9 2.772819 1_555
Ir0 Y18 2.772819 1_555
Ir0 Y2 3.441403 1_555
Ir0 Y4 3.441412 1_455
Ir0 Y3 3.441412 1_565
